data_POSCAR
  _audit_creation_date              2014-09-24
  _audit_creation_method            'ToBaCCo'
  _symmetry_space_group_name_H-M    'P1'
  _symmetry_Int_Tables_number       1
  _symmetry_cell_setting            triclinic
  loop_
  _symmetry_equiv_pos_as_xyz
 x,y,z
_cell_length_a 71.0004
_cell_length_b 70.5401
_cell_length_c 70.2106
_cell_angle_alpha 89.660200
_cell_angle_beta 90.563500
_cell_angle_gamma 89.739100
loop_
  _atom_site_label
  _atom_site_type_symbol
  _atom_site_fract_x
  _atom_site_fract_y
  _atom_site_fract_z
C1 C 0.73543 0.66635 0.97470
 H2 H 0.74893 0.66560 0.96773
 C3 C 0.72011 0.67509 0.96547
 H4 H 0.72197 0.68105 0.95137
 C5 C 0.71622 0.65797 1.00082
 H6 H 0.71459 0.65087 1.01436
 C7 C 0.70063 0.66662 0.99219
 H8 H 0.68723 0.66635 0.99941
 N9 N 0.73309 0.65760 0.99182
 C10 C 0.78597 0.64548 1.02144
 H11 H 0.78411 0.63037 1.02330
 C12 C 0.80202 0.65421 1.02871
 H13 H 0.81240 0.64574 1.03635
 C14 C 0.77451 0.67480 1.00925
 H15 H 0.76376 0.68267 1.00154
 C16 C 0.79040 0.68418 1.01642
 H17 H 0.79186 0.69929 1.01407
 Zn18 Zn 0.75246 0.64171 1.00156
 N19 N 0.77281 0.65573 1.01162
 C20 C 0.77977 0.62599 0.97708
 N21 N 0.76110 0.62638 0.98125
 C22 C 0.74837 0.61673 0.97048
 C23 C 0.75433 0.60576 0.95512
 C24 C 0.78633 0.61520 0.96193
 C25 C 0.74126 0.63486 1.03891
 C26 C 0.73364 0.62494 1.05424
 C27 C 0.72907 0.59809 1.03357
 C28 C 0.73710 0.60849 1.01876
 N29 N 0.74274 0.62662 1.02158
 H30 H 0.78967 0.63420 0.98532
 H31 H 0.73354 0.61764 0.97376
 H32 H 0.74403 0.59797 0.94686
 H33 H 0.80123 0.61528 0.95877
 H34 H 0.74570 0.64939 1.04075
 H35 H 0.73199 0.63269 1.06734
 H36 H 0.72543 0.58355 1.03059
 H37 H 0.73871 0.60201 1.00498
 C38 C 0.80453 0.67375 1.02601
 C39 C 0.70229 0.67475 0.97399
 C40 C 0.72700 0.60617 1.05189
 C41 C 0.77358 0.60483 0.95076
 C42 C 0.73378 0.34444 0.51841
 H43 H 0.74777 0.34371 0.52462
 C44 C 0.71876 0.33540 0.52743
 H45 H 0.72133 0.32772 0.54060
 C46 C 0.71318 0.35667 0.49455
 H47 H 0.71085 0.36541 0.48208
 C48 C 0.69786 0.34780 0.50298
 H49 H 0.68402 0.34950 0.49657
 N50 N 0.73068 0.35514 0.50248
 C51 C 0.78319 0.36672 0.47304
 H52 H 0.78166 0.38196 0.47203
 C53 C 0.79879 0.35786 0.46509
 H54 H 0.80911 0.36641 0.45777
 C55 C 0.77132 0.33717 0.48366
 H56 H 0.76056 0.32925 0.49098
 C57 C 0.78677 0.32768 0.47583
 H58 H 0.78790 0.31243 0.47735
 Zn59 Zn 0.75029 0.37067 0.49315
 N60 N 0.77003 0.35639 0.48237
 C61 C 0.77842 0.38373 0.51867
 N62 N 0.75981 0.38485 0.51398
 C63 C 0.74763 0.39524 0.52457
 C64 C 0.75414 0.40539 0.54034
 C65 C 0.78551 0.39365 0.53427
 C66 C 0.73593 0.37866 0.45693
 C67 C 0.72809 0.38945 0.44213
 C68 C 0.73079 0.41724 0.46190
 C69 C 0.73863 0.40589 0.47634
 N70 N 0.74069 0.38690 0.47374
 H71 H 0.78781 0.37496 0.51050
 H72 H 0.73283 0.39560 0.52075
 H73 H 0.74429 0.41379 0.54844
 H74 H 0.80033 0.39236 0.53787
 H75 H 0.73801 0.36357 0.45515
 H76 H 0.72437 0.38256 0.42889
 H77 H 0.72872 0.43223 0.46444
 H78 H 0.74281 0.41226 0.48966
 C79 C 0.80089 0.33812 0.46665
 C80 C 0.70042 0.33747 0.51997
 C81 C 0.72518 0.40898 0.44459
 C82 C 0.77335 0.40471 0.54532
 C83 C 0.24134 -0.15334 0.02314
 H84 H 0.25585 -0.15238 0.02790
 C85 C 0.22845 -0.16390 0.03369
 H86 H 0.23316 -0.17127 0.04646
 C87 C 0.21738 -0.14419 0.00117
 H88 H 0.21292 -0.13599 -0.01110
 C89 C 0.20410 -0.15472 0.01115
 H90 H 0.18955 -0.15451 0.00637
 N91 N 0.23559 -0.14361 0.00733
 C92 C 0.28501 -0.12990 -0.02625
 H93 H 0.28287 -0.11474 -0.02748
 C94 C 0.30035 -0.13840 -0.03505
 H95 H 0.30991 -0.12968 -0.04320
 C96 C 0.27484 -0.15962 -0.01437
 H97 H 0.26481 -0.16779 -0.00630
 C98 C 0.29004 -0.16875 -0.02301
 H99 H 0.29173 -0.18393 -0.02131
 Zn100 Zn 0.25296 -0.12703 -0.00434
 N101 N 0.27281 -0.14048 -0.01591
 C102 C 0.28148 -0.11072 0.01884
 N103 N 0.26267 -0.11117 0.01506
 C104 C 0.25026 -0.10123 0.02580
 C105 C 0.25667 -0.09008 0.04089
 C106 C 0.28850 -0.09974 0.03375
 C107 C 0.23453 -0.12192 -0.03926
 C108 C 0.22555 -0.11220 -0.05416
 C109 C 0.23037 -0.08302 -0.03706
 C110 C 0.23918 -0.09340 -0.02247
 N111 N 0.24087 -0.11252 -0.02370
 H112 H 0.29110 -0.11912 0.01054
 H113 H 0.23533 -0.10209 0.02269
 H114 H 0.24659 -0.08214 0.04916
 H115 H 0.30350 -0.09983 0.03671
 H116 H 0.23655 -0.13711 -0.04012
 H117 H 0.22159 -0.12051 -0.06641
 H118 H 0.22864 -0.06801 -0.03468
 H119 H 0.24457 -0.08611 -0.01009
 C120 C 0.30316 -0.15805 -0.03332
 C121 C 0.20951 -0.16447 0.02781
 C122 C 0.22309 -0.09224 -0.05345
 C123 C 0.27604 -0.08925 0.04503
 C124 C 0.23484 0.16208 0.48169
 H125 H 0.24929 0.16501 0.47796
 C126 C 0.22018 0.17238 0.47302
 H127 H 0.22360 0.18357 0.46305
 C128 C 0.21298 0.14370 0.49900
 H129 H 0.21014 0.13214 0.50869
 C130 C 0.19793 0.15335 0.49043
 H131 H 0.18377 0.14887 0.49370
 N132 N 0.23102 0.14812 0.49450
 C133 C 0.28282 0.13625 0.52658
 H134 H 0.28215 0.12094 0.52615
 C135 C 0.29741 0.14506 0.53649
 H136 H 0.30808 0.13639 0.54349
 C137 C 0.26979 0.16604 0.51767
 H138 H 0.25884 0.17415 0.51056
 C139 C 0.28428 0.17546 0.52734
 H140 H 0.28439 0.19081 0.52753
 Zn141 Zn 0.25068 0.13261 0.50444
 N142 N 0.26951 0.14675 0.51724
 C143 C 0.28003 0.12117 0.47990
 N144 N 0.26137 0.11942 0.48373
 C145 C 0.24981 0.10910 0.47228
 C146 C 0.25699 0.09975 0.45641
 C147 C 0.28779 0.11204 0.46422
 C148 C 0.23477 0.12360 0.53914
 C149 C 0.22711 0.11239 0.55350
 C150 C 0.23162 0.08488 0.53368
 C151 C 0.23944 0.09662 0.51974
 N152 N 0.24065 0.11563 0.52263
 H153 H 0.28891 0.12987 0.48879
 H154 H 0.23496 0.10821 0.47545
 H155 H 0.24761 0.09142 0.44758
 H156 H 0.30262 0.11385 0.46128
 H157 H 0.23597 0.13875 0.54106
 H158 H 0.22230 0.11903 0.56645
 H159 H 0.23067 0.06977 0.53122
 H160 H 0.24445 0.09052 0.50665
 C161 C 0.29834 0.16491 0.53689
 C162 C 0.20135 0.16791 0.47716
 C163 C 0.22538 0.09279 0.55082
 C164 C 0.27624 0.10115 0.45222
 C165 C 0.15572 0.47287 0.23334
 H166 H 0.15573 0.46655 0.24742
 C167 C 0.16470 0.46360 0.21836
 H168 H 0.17160 0.45012 0.22104
 C169 C 0.14543 0.49740 0.21247
 H170 H 0.13752 0.51030 0.21004
 C171 C 0.15427 0.48871 0.19717
 H172 H 0.15338 0.49533 0.18324
 N173 N 0.14604 0.48928 0.23007
 C174 C 0.13524 0.51913 0.28302
 H175 H 0.12017 0.52079 0.28128
 C176 C 0.14426 0.52658 0.29897
 H177 H 0.13603 0.53416 0.30940
 C178 C 0.16420 0.50732 0.27133
 H179 H 0.17183 0.49973 0.26050
 C180 C 0.17386 0.51469 0.28711
 H181 H 0.18893 0.51257 0.28843
 Zn182 Zn 0.13074 0.49930 0.24955
 N183 N 0.14518 0.50941 0.26980
 C184 C 0.11602 0.47489 0.27776
 N185 N 0.11552 0.47932 0.25888
 C186 C 0.10506 0.46899 0.24639
 C187 C 0.09424 0.45377 0.25284
 C188 C 0.10540 0.45989 0.28481
 C189 C 0.12476 0.53597 0.23593
 C190 C 0.11489 0.55145 0.22838
 C191 C 0.08655 0.53263 0.22849
 C192 C 0.09694 0.51753 0.23626
 N193 N 0.11576 0.51938 0.23955
 H194 H 0.12486 0.48278 0.28743
 H195 H 0.10521 0.47253 0.23138
 H196 H 0.08584 0.44581 0.24274
 H197 H 0.10619 0.45650 0.29986
 H198 H 0.13972 0.53708 0.23879
 H199 H 0.12238 0.56444 0.22530
 H200 H 0.07160 0.53094 0.22584
 H201 H 0.08996 0.50435 0.23951
 C202 C 0.16377 0.52419 0.30132
 C203 C 0.16363 0.47130 0.19987
 C204 C 0.09556 0.54984 0.22443
 C205 C 0.09427 0.44912 0.27232
 C206 C -0.15646 0.01647 0.24064
 H207 H -0.15697 0.02221 0.25486
 C208 C -0.16750 0.02463 0.22615
 H209 H -0.17673 0.03612 0.23011
 C210 C -0.14452 -0.00625 0.21934
 H211 H -0.13575 -0.01846 0.21668
 C212 C -0.15497 0.00165 0.20434
 H213 H -0.15290 -0.00455 0.19051
 N214 N -0.14485 0.00163 0.23692
 C215 C -0.13209 -0.02226 0.29284
 H216 H -0.11727 -0.01890 0.29391
 C217 C -0.14117 -0.03077 0.30816
 H218 H -0.13312 -0.03414 0.32092
 C219 C -0.16032 -0.02242 0.27454
 H220 H -0.16766 -0.01918 0.26134
 C221 C -0.16999 -0.03094 0.28956
 H222 H -0.18485 -0.03398 0.28788
 Zn223 Zn -0.12804 -0.00728 0.25628
 N224 N -0.14169 -0.01840 0.27641
 C225 C -0.12349 0.02449 0.27947
 N226 N -0.11455 0.01360 0.26641
 C227 C -0.09653 0.01737 0.26122
 C228 C -0.08694 0.03277 0.26903
 C229 C -0.11434 0.03986 0.28784
 C230 C -0.11012 -0.04319 0.25408
 C231 C -0.09874 -0.05722 0.24620
 C232 C -0.08975 -0.03505 0.22164
 C233 C -0.10103 -0.02132 0.23022
 N234 N -0.11118 -0.02563 0.24600
 H235 H -0.13769 0.02104 0.28366
 H236 H -0.08952 0.00853 0.25099
 H237 H -0.07278 0.03572 0.26431
 H238 H -0.12164 0.04798 0.29853
 H239 H -0.11829 -0.04650 0.26653
 H240 H -0.09803 -0.07097 0.25310
 H241 H -0.08252 -0.03145 0.20863
 H242 H -0.10226 -0.00737 0.22383
 C243 C -0.16037 -0.03529 0.30665
 C244 C -0.16651 0.01777 0.20726
 C245 C -0.08860 -0.05340 0.22953
 C246 C -0.09580 0.04426 0.28260
 C247 C 0.34375 0.51993 0.73967
 H248 H 0.34162 0.52444 0.75419
 C249 C 0.33510 0.52986 0.72463
 H250 H 0.32632 0.54202 0.72772
 C251 C 0.35894 0.49947 0.71797
 H252 H 0.36875 0.48810 0.71528
 C253 C 0.35053 0.50889 0.70258
 H254 H 0.35356 0.50418 0.68828
 N255 N 0.35552 0.50513 0.73610
 C256 C 0.36324 0.47511 0.79015
 H257 H 0.37848 0.47490 0.79034
 C258 C 0.35336 0.46692 0.80509
 H259 H 0.36112 0.46026 0.81671
 C260 C 0.33472 0.48382 0.77449
 H261 H 0.32759 0.49037 0.76246
 C262 C 0.32423 0.47559 0.78914
 H263 H 0.30899 0.47604 0.78842
 Zn264 Zn 0.36950 0.49435 0.75664
 N265 N 0.35388 0.48362 0.77542
 C266 C 0.38089 0.51988 0.78556
 N267 N 0.38394 0.51416 0.76738
 C268 C 0.39642 0.52331 0.75603
 C269 C 0.40660 0.53876 0.76295
 C270 C 0.39071 0.53527 0.79303
 C271 C 0.37650 0.45972 0.73923
 C272 C 0.38704 0.44475 0.73196
 C273 C 0.41527 0.45983 0.74377
 C274 C 0.40418 0.47475 0.75048
 N275 N 0.38518 0.47455 0.74784
 H276 H 0.37057 0.51279 0.79422
 H277 H 0.39828 0.51873 0.74149
 H278 H 0.41626 0.54604 0.75362
 H279 H 0.38814 0.53955 0.80757
 H280 H 0.36133 0.45978 0.73762
 H281 H 0.37976 0.43360 0.72440
 H282 H 0.43032 0.46018 0.74628
 H283 H 0.41075 0.48637 0.75793
 C284 C 0.33361 0.46722 0.80480
 C285 C 0.33874 0.52457 0.70575
 C286 C 0.40675 0.44463 0.73411
 C287 C 0.40370 0.54499 0.78167
 C288 C 0.66290 0.97515 0.73099
 H289 H 0.66398 0.96957 0.74534
 C290 C 0.67163 0.96562 0.71603
 H291 H 0.67939 0.95268 0.71903
 C292 C 0.65001 0.99784 0.70947
 H293 H 0.64103 1.00996 0.70678
 C294 C 0.65860 0.98888 0.69417
 H295 H 0.65650 0.99461 0.67996
 N296 N 0.65200 0.99069 0.72741
 C297 C 0.64025 1.01677 0.78198
 H298 H 0.62506 1.01650 0.78064
 C299 C 0.64861 1.02405 0.79834
 H300 H 0.63939 1.02988 0.80901
 C301 C 0.67007 1.01038 0.76864
 H302 H 0.67828 1.00490 0.75699
 C303 C 0.67913 1.01778 0.78478
 H304 H 0.69435 1.01736 0.78532
 Zn305 Zn 0.63676 1.00006 0.74722
 N306 N 0.65096 1.00986 0.76771
 C307 C 0.62747 0.97142 0.77330
 N308 N 0.62237 0.97934 0.75632
 C309 C 0.60823 0.97183 0.74561
 C310 C 0.59764 0.95669 0.75261
 C311 C 0.61776 0.95587 0.78051
 C312 C 0.63071 1.03620 0.73249
 C313 C 0.62082 1.05182 0.72524
 C314 C 0.59179 1.03488 0.73028
 C315 C 0.60224 1.01964 0.73765
 N316 N 0.62140 1.02035 0.73813
 H317 H 0.63940 0.97689 0.78117
 H318 H 0.60498 0.97776 0.73172
 H319 H 0.58585 0.95173 0.74418
 H320 H 0.62264 0.94964 0.79378
 H321 H 0.64593 1.03655 0.73338
 H322 H 0.62852 1.06413 0.72040
 H323 H 0.57657 1.03404 0.72979
 H324 H 0.59496 1.00736 0.74300
 C325 C 0.66841 1.02452 0.80024
 C326 C 0.66906 0.97218 0.69724
 C327 C 0.60112 1.05116 0.72384
 C328 C 0.60225 0.94848 0.77041
 C329 C 0.01791 0.23544 -0.15873
 H330 H 0.02250 0.25002 -0.15798
 C331 C 0.02775 0.22248 -0.16991
 H332 H 0.03980 0.22720 -0.17796
 C333 C -0.00279 0.21131 -0.14836
 H334 H -0.01420 0.20677 -0.13941
 C335 C 0.00649 0.19796 -0.15949
 H336 H 0.00200 0.18331 -0.15900
 N337 N 0.00308 0.22964 -0.14807
 C338 C -0.02902 0.27951 -0.13134
 H339 H -0.02915 0.27679 -0.11616
 C340 C -0.03822 0.29542 -0.13877
 H341 H -0.04561 0.30478 -0.12919
 C342 C -0.01944 0.27027 -0.16218
 H343 H -0.01208 0.26038 -0.17119
 C344 C -0.02851 0.28609 -0.17026
 H345 H -0.02789 0.28839 -0.18550
 Zn346 Zn -0.00737 0.24700 -0.13056
 N347 N -0.01965 0.26749 -0.14299
 C348 C 0.01713 0.27504 -0.11590
 N349 N 0.01282 0.25627 -0.11548
 C350 C 0.02354 0.24367 -0.10534
 C351 C 0.03910 0.24987 -0.09479
 C352 C 0.03263 0.28181 -0.10570
 C353 C -0.04125 0.22828 -0.12417
 C354 C -0.05529 0.21913 -0.11390
 C355 C -0.03726 0.22448 -0.08513
 C356 C -0.02350 0.23336 -0.09607
 N357 N -0.02558 0.23485 -0.11525
 H358 H 0.00877 0.28478 -0.12440
 H359 H 0.02006 0.22876 -0.10560
 H360 H 0.04758 0.23965 -0.08692
 H361 H 0.03580 0.29681 -0.10615
 H362 H -0.04283 0.23019 -0.13941
 H363 H -0.06767 0.21491 -0.12182
 H364 H -0.03426 0.22294 -0.07009
 H365 H -0.01111 0.23900 -0.08914
 C366 C -0.03786 0.29904 -0.15844
 C367 C 0.02219 0.20340 -0.17016
 C368 C -0.05365 0.21686 -0.09386
 C369 C 0.04386 0.26917 -0.09500
 C370 C 0.48038 0.24098 0.15286
 H371 H 0.47480 0.25528 0.15294
 C372 C 0.47067 0.22641 0.16206
 H373 H 0.45761 0.22962 0.16921
 C374 C 0.50331 0.21918 0.14199
 H375 H 0.51569 0.21624 0.13370
 C376 C 0.49415 0.20425 0.15105
 H377 H 0.49990 0.19006 0.14994
 N378 N 0.49615 0.23707 0.14274
 C379 C 0.52764 0.28834 0.13025
 H380 H 0.52825 0.28676 0.11495
 C381 C 0.53729 0.30307 0.13905
 H382 H 0.54515 0.31296 0.13039
 C383 C 0.51650 0.27730 0.16003
 H384 H 0.50854 0.26705 0.16809
 C385 C 0.52585 0.29202 0.16946
 H386 H 0.52504 0.29304 0.18481
 Zn387 Zn 0.50618 0.25612 0.12674
 N388 N 0.51754 0.27583 0.14075
 C389 C 0.48145 0.28469 0.11283
 N390 N 0.48597 0.26596 0.11184
 C391 C 0.47530 0.25373 0.10147
 C392 C 0.45945 0.26026 0.09142
 C393 C 0.46566 0.29178 0.10313
 C394 C 0.54174 0.24110 0.12023
 C395 C 0.55660 0.23323 0.11009
 C396 C 0.53731 0.23471 0.08157
 C397 C 0.52284 0.24278 0.09225
 N398 N 0.52522 0.24555 0.11128
 H399 H 0.48983 0.29412 0.12147
 H400 H 0.47892 0.23882 0.10132
 H401 H 0.45094 0.25029 0.08348
 H402 H 0.46228 0.30673 0.10410
 H403 H 0.54329 0.24359 0.13536
 H404 H 0.56954 0.22950 0.11754
 H405 H 0.53522 0.23249 0.06645
 H406 H 0.50976 0.24673 0.08531
 C407 C 0.53654 0.30502 0.15890
 C408 C 0.47727 0.20765 0.16074
 C409 C 0.55444 0.22982 0.09053
 C410 C 0.45438 0.27950 0.09233
 C411 C 0.97651 0.72819 0.65959
 H412 H 0.97008 0.74212 0.65946
 C413 C 0.96756 0.71310 0.66877
 H414 H 0.95421 0.71557 0.67566
 C415 C 1.00097 0.70778 0.64941
 H416 H 1.01372 0.70558 0.64147
 C417 C 0.99263 0.69239 0.65850
 H418 H 0.99937 0.67862 0.65777
 N419 N 0.99271 0.72519 0.64984
 C420 C 1.02344 0.77717 0.63835
 H421 H 1.02439 0.77577 0.62305
 C422 C 1.03260 0.79200 0.64750
 H423 H 1.04043 0.80214 0.63910
 C424 C 1.01180 0.76567 0.66775
 H425 H 1.00377 0.75525 0.67552
 C426 C 1.02066 0.78047 0.67752
 H427 H 1.01944 0.78134 0.69285
 Zn428 Zn 1.00212 0.74481 0.63412
 N429 N 1.01327 0.76441 0.64849
 C430 C 0.97758 0.77354 0.62028
 N431 N 0.98164 0.75469 0.61963
 C432 C 0.97055 0.74252 0.60966
 C433 C 0.95474 0.74923 0.59965
 C434 C 0.96193 0.78084 0.61052
 C435 C 1.03809 0.73126 0.62644
 C436 C 1.05286 0.72397 0.61575
 C437 C 1.03244 0.72436 0.58801
 C438 C 1.01808 0.73188 0.59921
 N439 N 1.02107 0.73494 0.61812
 H440 H 0.98631 0.78297 0.62855
 H441 H 0.97385 0.72753 0.60973
 H442 H 0.94591 0.73929 0.59203
 H443 H 0.95905 0.79591 0.61109
 H444 H 1.04012 0.73392 0.64148
 H445 H 1.06623 0.72088 0.62268
 H446 H 1.02986 0.72193 0.57300
 H447 H 1.00457 0.73517 0.59278
 C448 C 1.03131 0.79380 0.66734
 C449 C 0.97540 0.69479 0.66788
 C450 C 1.05009 0.72032 0.59631
 C451 C 0.95021 0.76863 0.60009
 C452 C 0.51315 0.73958 0.34047
 H453 H 0.51972 0.75339 0.34057
 C454 C 0.52155 0.72460 0.33064
 H455 H 0.53463 0.72703 0.32323
 C456 C 0.48897 0.71931 0.35136
 H457 H 0.47664 0.71703 0.35990
 C458 C 0.49676 0.70406 0.34163
 H459 H 0.48993 0.69039 0.34244
 N460 N 0.49736 0.73659 0.35087
 C461 C 0.47125 0.79076 0.36478
 H462 H 0.47097 0.78898 0.38009
 C463 C 0.46388 0.80718 0.35646
 H464 H 0.45750 0.81748 0.36577
 C465 C 0.47904 0.77848 0.33457
 H466 H 0.48508 0.76723 0.32617
 C467 C 0.47156 0.79463 0.32554
 H468 H 0.47253 0.79559 0.31021
 Zn469 Zn 0.48892 0.75594 0.36737
 N470 N 0.47897 0.77701 0.35387
 C471 C 0.51564 0.78195 0.38202
 N472 N 0.50995 0.76357 0.38229
 C473 C 0.51968 0.75016 0.39239
 C474 C 0.53554 0.75515 0.40316
 C475 C 0.53134 0.78756 0.39262
 C476 C 0.45278 0.74248 0.37416
 C477 C 0.43797 0.73466 0.38443
 C478 C 0.45727 0.73619 0.41291
 C479 C 0.47175 0.74396 0.40206
 N480 N 0.46940 0.74654 0.38297
 H481 H 0.50819 0.79232 0.37342
 H482 H 0.51509 0.73556 0.39205
 H483 H 0.54295 0.74435 0.41134
 H484 H 0.53571 0.80224 0.39208
 H485 H 0.45118 0.74500 0.35901
 H486 H 0.42492 0.73135 0.37711
 H487 H 0.45957 0.73370 0.42799
 H488 H 0.48491 0.74764 0.40889
 C489 C 0.46407 0.80960 0.33649
 C490 C 0.51359 0.70642 0.33157
 C491 C 0.44021 0.73117 0.40403
 C492 C 0.54148 0.77411 0.40344
 C493 C 0.35677 0.00612 0.22123
 C494 C 0.36498 0.01634 0.23621
 C495 C 0.37293 0.03416 0.23260
 C496 C 0.37293 0.04176 0.21406
 C497 C 0.36428 0.03152 0.19928
 C498 C 0.35624 0.01367 0.20268
 C499 C 0.36575 0.00812 0.25559
 C500 C 0.37452 -0.00950 0.25877
 C501 C 0.37584 -0.01721 0.27722
 C502 C 0.36775 -0.00727 0.29242
 C503 C 0.35885 0.01034 0.28944
 C504 C 0.35806 0.01802 0.27095
 H505 H 0.35090 -0.00776 0.22404
 H506 H 0.37977 0.04172 0.24412
 H507 H 0.38089 -0.01684 0.24692
 H508 H 0.35148 0.03172 0.26846
 H509 H 0.36360 0.03757 0.18507
 H510 H 0.36808 -0.01344 0.30658
 C511 C 0.13239 1.00561 0.72252
 C512 C 0.12449 0.99672 0.73844
 C513 C 0.11703 0.97843 0.73669
 C514 C 0.11736 0.96898 0.71914
 C515 C 0.12564 0.97795 0.70338
 C516 C 0.13332 0.99623 0.70494
 C517 C 0.12471 1.00628 0.75712
 C518 C 0.11755 1.02474 0.75894
 C519 C 0.11825 1.03401 0.77658
 C520 C 0.12638 1.02468 0.79238
 C521 C 0.13359 1.00618 0.79079
 C522 C 0.13259 0.99706 0.77308
 H523 H 0.13808 1.01976 0.72396
 H524 H 0.11107 0.97154 0.74905
 H525 H 0.11144 1.03189 0.74663
 H526 H 0.13849 0.98297 0.77151
 H527 H 0.12620 0.97062 0.68989
 H528 H 0.12661 1.03167 0.80609
 C529 C 0.63555 0.51596 0.22321
 C530 C 0.62788 0.50582 0.23850
 C531 C 0.62158 0.48720 0.23571
 C532 C 0.62292 0.47863 0.21776
 C533 C 0.63108 0.48881 0.20271
 C534 C 0.63748 0.50741 0.20533
 C535 C 0.62708 0.51442 0.25758
 C536 C 0.61772 0.53174 0.26029
 C537 C 0.61657 0.53969 0.27855
 C538 C 0.62549 0.53040 0.29398
 C539 C 0.63510 0.51316 0.29142
 C540 C 0.63562 0.50518 0.27317
 H541 H 0.64070 0.53023 0.22545
 H542 H 0.61569 0.47939 0.24756
 H543 H 0.61077 0.53862 0.24829
 H544 H 0.64268 0.49172 0.27101
 H545 H 0.63205 0.48243 0.18874
 H546 H 0.62521 0.53680 0.30796
 C547 C 0.85213 0.49394 0.72599
 C548 C 0.85992 0.50395 0.74135
 C549 C 0.86895 0.52129 0.73804
 C550 C 0.87050 0.52859 0.71948
 C551 C 0.86234 0.51856 0.70427
 C552 C 0.85313 0.50124 0.70737
 C553 C 0.85911 0.49606 0.76084
 C554 C 0.86687 0.47813 0.76488
 C555 C 0.86711 0.47098 0.78360
 C556 C 0.85886 0.48174 0.79812
 C557 C 0.85092 0.49965 0.79427
 C558 C 0.85124 0.50677 0.77556
 H559 H 0.84539 0.48044 0.72859
 H560 H 0.87542 0.52868 0.74989
 H561 H 0.87343 0.47015 0.75358
 H562 H 0.84551 0.52072 0.77242
 H563 H 0.86293 0.52442 0.69000
 H564 H 0.85844 0.47604 0.81247
 C565 C 0.22020 0.34941 -0.00259
 C566 C 0.23523 0.35818 0.00694
 C567 C 0.23229 0.36640 0.02481
 C568 C 0.21433 0.36623 0.03305
 C569 C 0.19950 0.35701 0.02351
 C570 C 0.20231 0.34858 0.00568
 C571 C 0.25387 0.35927 -0.00214
 C572 C 0.25555 0.36731 -0.02037
 C573 C 0.27318 0.36850 -0.02917
 C574 C 0.28911 0.36102 -0.01968
 C575 C 0.28761 0.35280 -0.00148
 C576 C 0.26994 0.35222 0.00732
 H577 H 0.22255 0.34294 -0.01633
 H578 H 0.24379 0.37369 0.03185
 H579 H 0.24310 0.37278 -0.02761
 H580 H 0.26856 0.34579 0.02128
 H581 H 0.18563 0.35671 0.02980
 H582 H 0.30283 0.36215 -0.02619
 C583 C 0.72683 0.13439 1.00787
 C584 C 0.74211 0.12563 0.99893
 C585 C 0.73951 0.11712 0.98110
 C586 C 0.72172 0.11713 0.97223
 C587 C 0.70662 0.12634 0.98114
 C588 C 0.70900 0.13504 0.99897
 C589 C 0.76084 0.12503 1.00825
 C590 C 0.76305 0.11731 1.02660
 C591 C 0.78105 0.11555 1.03506
 C592 C 0.79676 0.12228 1.02497
 C593 C 0.79458 0.13079 1.00694
 C594 C 0.77660 0.13182 0.99856
 H595 H 0.72889 0.14070 1.02176
 H596 H 0.75122 0.10988 0.97449
 H597 H 0.75069 0.11252 1.03410
 H598 H 0.77483 0.13794 0.98446
 H599 H 0.69306 0.12699 0.97397
 H600 H 0.81075 0.12103 1.03111
 C601 C 0.22433 0.63452 0.50845
 C602 C 0.24002 0.62679 0.49929
 C603 C 0.23768 0.61773 0.48170
 C604 C 0.21971 0.61611 0.47336
 C605 C 0.20417 0.62432 0.48250
 C606 C 0.20632 0.63363 0.50003
 C607 C 0.25888 0.62817 0.50819
 C608 C 0.26207 0.62110 0.52666
 C609 C 0.27994 0.62250 0.53527
 C610 C 0.29455 0.63139 0.52529
 C611 C 0.29152 0.63862 0.50682
 C612 C 0.27365 0.63679 0.49830
 H613 H 0.22623 0.64131 0.52213
 H614 H 0.24977 0.61139 0.47487
 H615 H 0.25064 0.61445 0.53428
 H616 H 0.27114 0.64214 0.48400
 H617 H 0.19043 0.62378 0.47569
 H618 H 0.30833 0.63262 0.53191
 C619 C 0.72163 0.84598 0.49606
 C620 C 0.73686 0.85405 0.50593
 C621 C 0.73388 0.86264 0.52364
 C622 C 0.71577 0.86339 0.53148
 C623 C 0.70075 0.85488 0.52160
 C624 C 0.70349 0.84626 0.50385
 C625 C 0.75581 0.85416 0.49745
 C626 C 0.75854 0.86218 0.47937
 C627 C 0.77665 0.86315 0.47154
 C628 C 0.79197 0.85548 0.48189
 C629 C 0.78940 0.84716 0.49991
 C630 C 0.77125 0.84673 0.50766
 H631 H 0.72391 0.83964 0.48225
 H632 H 0.74557 0.86941 0.53089
 H633 H 0.74656 0.86790 0.47154
 H634 H 0.76910 0.84071 0.52171
 H635 H 0.68687 0.85480 0.52785
 H636 H 0.80598 0.85613 0.47598
 C637 C -0.00574 0.22256 0.36084
 C638 C 0.00420 0.23860 0.36686
 C639 C 0.02229 0.23646 0.37480
 C640 C 0.03025 0.21835 0.37759
 C641 C 0.01988 0.20238 0.37178
 C642 C 0.00209 0.20433 0.36299
 C643 C -0.00461 0.25759 0.36544
 C644 C -0.02225 0.26084 0.37369
 C645 C -0.03021 0.27908 0.37368
 C646 C -0.02060 0.29399 0.36474
 C647 C -0.00304 0.29092 0.35620
 C648 C 0.00493 0.27266 0.35673
 H649 H -0.01940 0.22444 0.35407
 H650 H 0.03000 0.24899 0.37901
 H651 H -0.02934 0.24932 0.38090
 H652 H 0.01865 0.27017 0.35057
 H653 H 0.02547 0.18832 0.37449
 H654 H -0.02692 0.30799 0.36427
 C655 C 1.01302 0.72762 0.13447
 C656 C 1.00431 0.74379 0.12661
 C657 C 0.98667 0.74215 0.11760
 C658 C 0.97785 0.72443 0.11615
 C659 C 0.98659 0.70843 0.12444
 C660 C 1.00414 0.70991 0.13367
 C661 C 1.01369 0.76239 0.12794
 C662 C 1.03237 0.76447 0.12196
 C663 C 1.04160 0.78195 0.12368
 C664 C 1.03209 0.79728 0.13198
 C665 C 1.01334 0.79542 0.13786
 C666 C 1.00415 0.77800 0.13558
 H667 H 1.02649 0.72896 0.14174
 H668 H 0.98014 0.75458 0.11116
 H669 H 1.03969 0.75246 0.11588
 H670 H 0.98976 0.77641 0.14034
 H671 H 0.97977 0.69474 0.12361
 H672 H 1.03902 0.81087 0.13327
 C673 C 0.50975 0.22649 0.63646
 C674 C 0.49960 0.24216 0.62941
 C675 C 0.48108 0.23975 0.62271
 C676 C 0.47264 0.22178 0.62291
 C677 C 0.48286 0.20628 0.63040
 C678 C 0.50133 0.20854 0.63732
 C679 C 0.50808 0.26122 0.62962
 C680 C 0.52502 0.26475 0.62010
 C681 C 0.53269 0.28311 0.61970
 C682 C 0.52332 0.29779 0.62930
 C683 C 0.50664 0.29427 0.63919
 C684 C 0.49904 0.27599 0.63924
 H685 H 0.52391 0.22845 0.64198
 H686 H 0.47327 0.25194 0.61740
 H687 H 0.53185 0.25334 0.61252
 H688 H 0.48605 0.27327 0.64675
 H689 H 0.47661 0.19230 0.63047
 H690 H 0.52925 0.31192 0.62953
 C691 C 0.49412 0.72486 0.85709
 C692 C 0.50405 0.74038 0.86443
 C693 C 0.52196 0.73755 0.87263
 C694 C 0.52991 0.71929 0.87374
 C695 C 0.51991 0.70395 0.86600
 C696 C 0.50205 0.70659 0.85761
 C697 C 0.49565 0.75956 0.86346
 C698 C 0.47768 0.76287 0.87089
 C699 C 0.46967 0.78107 0.87017
 C700 C 0.47941 0.79573 0.86096
 C701 C 0.49758 0.79281 0.85362
 C702 C 0.50567 0.77460 0.85526
 H703 H 0.48043 0.72714 0.85048
 H704 H 0.52941 0.74949 0.87869
 H705 H 0.47033 0.75142 0.87795
 H706 H 0.51978 0.77194 0.85020
 H707 H 0.52601 0.68986 0.86660
 H708 H 0.47262 0.80943 0.85952
 C709 C 0.44196 -0.13964 0.31153
 C710 C 0.44963 -0.13964 0.32999
 C711 C 0.45696 -0.15623 0.33807
 C712 C 0.45699 -0.17346 0.32791
 C713 C 0.44964 -0.17321 0.30911
 C714 C 0.44205 -0.15656 0.30114
 C715 C 0.43347 -0.12202 0.30356
 C716 C 0.41566 -0.12231 0.29469
 C717 C 0.40680 -0.10537 0.28912
 C718 C 0.41564 -0.08784 0.29221
 C719 C 0.43384 -0.08769 0.30028
 C720 C 0.44262 -0.10458 0.30595
 C721 C 0.40563 -0.06971 0.28800
 C722 C 0.40726 -0.05438 0.30060
 C723 C 0.39766 -0.03742 0.29703
 C724 C 0.38606 -0.03534 0.28081
 C725 C 0.38444 -0.05063 0.26814
 C726 C 0.39410 -0.06764 0.27171
 H727 H 0.44970 -0.12679 0.33837
 H728 H 0.46313 -0.15518 0.35216
 H729 H 0.44884 -0.18599 0.30072
 H730 H 0.43623 -0.15692 0.28683
 H731 H 0.40823 -0.13556 0.29283
 H732 H 0.39272 -0.10597 0.28309
 H733 H 0.44123 -0.07447 0.30244
 H734 H 0.45650 -0.10399 0.31245
 H735 H 0.41577 -0.05558 0.31344
 H736 H 0.39943 -0.02584 0.30693
 H737 H 0.37551 -0.04952 0.25559
 H738 H 0.39266 -0.07913 0.26165
 C739 C 0.93367 0.34910 0.82039
 C740 C 0.94478 0.34972 0.83703
 C741 C 0.95429 0.33358 0.84359
 C742 C 0.95293 0.31638 0.83369
 C743 C 0.94230 0.31586 0.81669
 C744 C 0.93276 0.33209 0.81009
 C745 C 0.92283 0.36614 0.81419
 C746 C 0.92202 0.37170 0.79494
 C747 C 0.91254 0.38835 0.78947
 C748 C 0.90367 0.39972 0.80315
 C749 C 0.90403 0.39380 0.82229
 C750 C 0.91350 0.37724 0.82774
 C751 C 0.89450 0.41797 0.79773
 C752 C 0.89662 0.43390 0.80947
 C753 C 0.88778 0.45103 0.80479
 C754 C 0.87659 0.45269 0.78825
 C755 C 0.87467 0.43687 0.77631
 C756 C 0.88354 0.41967 0.78101
 H757 H 0.94612 0.36274 0.84502
 H758 H 0.96274 0.33457 0.85647
 H759 H 0.94090 0.30278 0.80882
 H760 H 0.92423 0.33118 0.79726
 H761 H 0.92918 0.36348 0.78421
 H762 H 0.91262 0.39262 0.77463
 H763 H 0.89696 0.40200 0.83310
 H764 H 0.91350 0.37309 0.84262
 H765 H 0.90532 0.43319 0.82221
 H766 H 0.88990 0.46308 0.81405
 H767 H 0.86603 0.43769 0.76353
 H768 H 0.88153 0.40760 0.77176
 C769 C 0.05477 1.15855 0.80503
 C770 C 0.06372 1.17344 0.81470
 C771 C 0.05319 1.18849 0.82197
 C772 C 0.03349 1.18886 0.81988
 C773 C 0.02463 1.17433 0.80959
 C774 C 0.03517 1.15937 0.80215
 C775 C 0.06561 1.14156 0.79921
 C776 C 0.06253 1.13317 0.78137
 C777 C 0.07198 1.11646 0.77650
 C778 C 0.08455 1.10768 0.78946
 C779 C 0.08777 1.11629 0.80721
 C780 C 0.07848 1.13307 0.81198
 C781 C 0.09373 1.08925 0.78492
 C782 C 0.11211 1.08516 0.79147
 C783 C 0.12017 1.06733 0.78850
 C784 C 0.11015 1.05326 0.77869
 C785 C 0.09206 1.05748 0.77157
 C786 C 0.08389 1.07524 0.77473
 H787 H 0.07882 1.17323 0.81697
 H788 H 0.06038 1.19941 0.82998
 H789 H 0.00947 1.17433 0.80767
 H790 H 0.02791 1.14802 0.79485
 H791 H 0.05279 1.13954 0.77120
 H792 H 0.06940 1.11042 0.76258
 H793 H 0.09701 1.10977 0.81773
 H794 H 0.08088 1.13905 0.82596
 H795 H 0.12027 1.09572 0.79899
 H796 H 0.13426 1.06450 0.79390
 H797 H 0.08398 1.04679 0.76412
 H798 H 0.06962 1.07774 0.76974
 C799 C 0.54236 0.65767 0.30881
 C800 C 0.53287 0.65659 0.32622
 C801 C 0.52355 0.67238 0.33345
 C802 C 0.52337 0.68969 0.32342
 C803 C 0.53295 0.69085 0.30601
 C804 C 0.54239 0.67499 0.29878
 C805 C 0.55245 0.64076 0.30155
 C806 C 0.57068 0.64230 0.29409
 C807 C 0.58082 0.62603 0.28909
 C808 C 0.57290 0.60794 0.29146
 C809 C 0.55438 0.60652 0.29814
 C810 C 0.54428 0.62273 0.30313
 C811 C 0.58414 0.59053 0.28790
 C812 C 0.58322 0.57515 0.30067
 C813 C 0.59378 0.55875 0.29761
 C814 C 0.60555 0.55731 0.28171
 C815 C 0.60650 0.57267 0.26890
 C816 C 0.59595 0.58916 0.27201
 H817 H 0.53298 0.64359 0.33450
 H818 H 0.51681 0.67110 0.34716
 H819 H 0.53299 0.70394 0.29789
 H820 H 0.54953 0.67620 0.28527
 H821 H 0.57739 0.65600 0.29285
 H822 H 0.59512 0.62756 0.28409
 H823 H 0.54774 0.59281 0.29971
 H824 H 0.53011 0.62114 0.30847
 H825 H 0.57446 0.57587 0.31319
 H826 H 0.59258 0.54708 0.30760
 H827 H 0.61554 0.57200 0.25659
 H828 H 0.59686 0.60075 0.26189
 C829 C 0.56554 0.35272 0.18310
 C830 C 0.54744 0.34787 0.18943
 C831 C 0.53821 0.33195 0.18211
 C832 C 0.54689 0.32067 0.16827
 C833 C 0.56526 0.32508 0.16256
 C834 C 0.57449 0.34088 0.16992
 C835 C 0.57472 0.37054 0.18938
 C836 C 0.58462 0.38169 0.17622
 C837 C 0.59303 0.39863 0.18180
 C838 C 0.59173 0.40491 0.20069
 C839 C 0.58183 0.39381 0.21391
 C840 C 0.57341 0.37679 0.20831
 C841 C 0.60033 0.42322 0.20630
 C842 C 0.59062 0.43591 0.21809
 C843 C 0.59815 0.45373 0.22217
 C844 C 0.61555 0.45923 0.21457
 C845 C 0.62551 0.44632 0.20327
 C846 C 0.61799 0.42852 0.19919
 H847 H 0.54010 0.35678 0.19946
 H848 H 0.52401 0.32892 0.18667
 H849 H 0.57242 0.31640 0.15219
 H850 H 0.58860 0.34396 0.16511
 H851 H 0.58553 0.37753 0.16143
 H852 H 0.60020 0.40706 0.17119
 H853 H 0.58074 0.39820 0.22861
 H854 H 0.56604 0.36842 0.21882
 H855 H 0.57689 0.43232 0.22360
 H856 H 0.59005 0.46346 0.23076
 H857 H 0.63911 0.45001 0.19751
 H858 H 0.62598 0.41891 0.19037
 C859 C 0.05816 0.84209 0.69290
 C860 C 0.06774 0.83091 0.67960
 C861 C 0.05920 0.81493 0.67176
 C862 C 0.04091 0.80971 0.67708
 C863 C 0.03157 0.82045 0.69091
 C864 C 0.04008 0.83655 0.69869
 C865 C 0.06665 0.86003 0.69976
 C866 C 0.05569 0.87663 0.70084
 C867 C 0.06402 0.89394 0.70546
 C868 C 0.08349 0.89504 0.70914
 C869 C 0.09432 0.87832 0.70870
 C870 C 0.08599 0.86102 0.70404
 C871 C 0.09257 0.91368 0.71253
 C872 C 0.10999 0.91791 0.70420
 C873 C 0.11814 0.93575 0.70654
 C874 C 0.10905 0.94979 0.71725
 C875 C 0.09178 0.94546 0.72585
 C876 C 0.08362 0.92761 0.72350
 H877 H 0.08159 0.83490 0.67470
 H878 H 0.06682 0.80678 0.66130
 H879 H 0.01743 0.81680 0.69520
 H880 H 0.03244 0.84479 0.70906
 H881 H 0.04081 0.87638 0.69735
 H882 H 0.05533 0.90659 0.70543
 H883 H 0.10928 0.87864 0.71182
 H884 H 0.09474 0.84841 0.70361
 H885 H 0.11714 0.90758 0.69548
 H886 H 0.13157 0.93856 0.69995
 H887 H 0.08437 0.95602 0.73406
 H888 H 0.07029 0.92473 0.73025
 C889 C 0.94527 0.64609 0.68891
 C890 C 0.95548 0.64518 0.67191
 C891 C 0.96524 0.66095 0.66523
 C892 C 0.96516 0.67804 0.67542
 C893 C 0.95489 0.67901 0.69243
 C894 C 0.94501 0.66319 0.69909
 C895 C 0.93476 0.62922 0.69563
 C896 C 0.91632 0.63096 0.70252
 C897 C 0.90595 0.61481 0.70730
 C898 C 0.91384 0.59662 0.70532
 C899 C 0.93253 0.59497 0.69909
 C900 C 0.94285 0.61106 0.69430
 C901 C 0.90252 0.57935 0.70902
 C902 C 0.90385 0.56371 0.69679
 C903 C 0.89337 0.54736 0.70015
 C904 C 0.88126 0.54623 0.71582
 C905 C 0.87984 0.56189 0.72804
 C906 C 0.89032 0.57831 0.72464
 H907 H 0.95560 0.63235 0.66352
 H908 H 0.97254 0.65983 0.65182
 H909 H 0.95465 0.69193 0.70068
 H910 H 0.93736 0.66425 0.71231
 H911 H 0.90967 0.64476 0.70354
 H912 H 0.89154 0.61653 0.71192
 H913 H 0.93916 0.58119 0.69783
 H914 H 0.95717 0.60930 0.68941
 H915 H 0.91290 0.56416 0.68447
 H916 H 0.89497 0.53547 0.69061
 H917 H 0.87051 0.56149 0.74014
 H918 H 0.88908 0.59008 0.73437
 C919 C 0.44318 0.16107 0.18014
 C920 C 0.45302 0.16002 0.16292
 C921 C 0.46418 0.17505 0.15686
 C922 C 0.46589 0.19153 0.16788
 C923 C 0.45619 0.19257 0.18521
 C924 C 0.44500 0.17744 0.19134
 C925 C 0.43110 0.14502 0.18615
 C926 C 0.43119 0.13852 0.20512
 C927 C 0.42093 0.12239 0.21024
 C928 C 0.41043 0.11248 0.19648
 C929 C 0.40977 0.11946 0.17771
 C930 C 0.41995 0.13553 0.17262
 C931 C 0.40087 0.09444 0.20131
 C932 C 0.40202 0.07899 0.18885
 C933 C 0.39302 0.06197 0.19308
 C934 C 0.38255 0.05996 0.20985
 C935 C 0.38154 0.07536 0.22245
 C936 C 0.39065 0.09243 0.21824
 H937 H 0.45215 0.14750 0.15412
 H938 H 0.47119 0.17389 0.14328
 H939 H 0.45731 0.20505 0.19405
 H940 H 0.43752 0.17867 0.20464
 H941 H 0.43973 0.14548 0.21583
 H942 H 0.42177 0.11726 0.22480
 H943 H 0.40147 0.11236 0.16689
 H944 H 0.41923 0.14047 0.15799
 H945 H 0.41014 0.07997 0.17590
 H946 H 0.39450 0.05025 0.18330
 H947 H 0.37346 0.07431 0.23541
 H948 H 0.38944 0.10415 0.22804
 C949 C 0.30527 0.44061 -0.14827
 C950 C 0.29897 0.43761 -0.16706
 C951 C 0.30775 0.44672 -0.18235
 C952 C 0.32311 0.45880 -0.17911
 C953 C 0.32907 0.46214 -0.16030
 C954 C 0.32025 0.45318 -0.14506
 C955 C 0.29705 0.43003 -0.13203
 C956 C 0.29394 0.43911 -0.11457
 C957 C 0.28813 0.42878 -0.09867
 C958 C 0.28530 0.40911 -0.09985
 C959 C 0.28774 0.40014 -0.11749
 C960 C 0.29351 0.41050 -0.13343
 C961 C 0.28093 0.39793 -0.08247
 C962 C 0.29005 0.38052 -0.07889
 C963 C 0.28721 0.37074 -0.06180
 C964 C 0.27515 0.37813 -0.04791
 C965 C 0.26559 0.39525 -0.05172
 C966 C 0.26846 0.40505 -0.06880
 H967 H 0.28736 0.42810 -0.16993
 H968 H 0.30293 0.44384 -0.19672
 H969 H 0.34075 0.47155 -0.15738
 H970 H 0.32557 0.45562 -0.13078
 H971 H 0.29636 0.45418 -0.11313
 H972 H 0.28653 0.43609 -0.08526
 H973 H 0.28547 0.38504 -0.11889
 H974 H 0.29592 0.40309 -0.14665
 H975 H 0.29989 0.37475 -0.08905
 H976 H 0.29460 0.35748 -0.05936
 H977 H 0.25632 0.40139 -0.04124
 H978 H 0.26108 0.41833 -0.07123
 C979 C 0.81316 0.93573 0.35350
 C980 C 0.80858 0.93102 0.33458
 C981 C 0.81686 0.94065 0.31937
 C982 C 0.82991 0.95522 0.32273
 C983 C 0.83414 0.96021 0.34164
 C984 C 0.82591 0.95056 0.35682
 C985 C 0.80527 0.92483 0.36974
 C986 C 0.80039 0.93402 0.38671
 C987 C 0.79430 0.92363 0.40247
 C988 C 0.79285 0.90377 0.40163
 C989 C 0.79719 0.89463 0.38447
 C990 C 0.80336 0.90503 0.36873
 C991 C 0.78764 0.89266 0.41884
 C992 C 0.79681 0.87543 0.42314
 C993 C 0.79288 0.86560 0.43997
 C994 C 0.77976 0.87280 0.45295
 C995 C 0.77023 0.88978 0.44843
 C996 C 0.77410 0.89957 0.43156
 H997 H 0.79864 0.91981 0.33154
 H998 H 0.81341 0.93636 0.30498
 H999 H 0.84392 0.97154 0.34472
 H1000 H 0.82993 0.95442 0.37119
 H1001 H 0.80144 0.94928 0.38789
 H1002 H 0.79127 0.93112 0.41551
 H1003 H 0.79598 0.87939 0.38326
 H1004 H 0.80717 0.89747 0.35594
 H1005 H 0.80746 0.86979 0.41378
 H1006 H 0.80027 0.85242 0.44289
 H1007 H 0.76017 0.89582 0.45819
 H1008 H 0.76659 0.91266 0.42855
 C1009 C 0.80845 0.04694 1.15957
 C1010 C 0.80955 0.05559 1.17751
 C1011 C 0.81731 0.04598 1.19321
 C1012 C 0.82400 0.02710 1.19171
 C1013 C 0.82167 0.01819 1.17383
 C1014 C 0.81435 0.02800 1.15807
 C1015 C 0.80206 0.05781 1.14233
 C1016 C 0.79312 0.04863 1.12699
 C1017 C 0.78878 0.05846 1.11016
 C1018 C 0.79277 0.07791 1.10832
 C1019 C 0.80089 0.08728 1.12399
 C1020 C 0.80569 0.07735 1.14064
 C1021 C 0.78914 0.08816 1.08995
 C1022 C 0.80088 0.10311 1.08416
 C1023 C 0.79795 0.11228 1.06668
 C1024 C 0.78350 0.10646 1.05420
 C1025 C 0.77168 0.09160 1.06003
 C1026 C 0.77431 0.08275 1.07773
 H1027 H 0.80471 0.07002 1.17944
 H1028 H 0.81874 0.05404 1.20615
 H1029 H 0.82529 0.00351 1.17161
 H1030 H 0.81385 0.02072 1.14456
 H1031 H 0.78964 0.03374 1.12782
 H1032 H 0.78276 0.05059 1.09844
 H1033 H 0.80378 0.10232 1.12342
 H1034 H 0.81275 0.08498 1.15194
 H1035 H 0.81266 0.10757 1.09291
 H1036 H 0.80711 0.12392 1.06300
 H1037 H 0.76056 0.08647 1.05079
 H1038 H 0.76469 0.07161 1.08174
 C1039 C 0.31763 0.55763 0.65818
 C1040 C 0.30616 0.55422 0.67405
 C1041 C 0.31293 0.54349 0.68953
 C1042 C 0.33128 0.53590 0.68941
 C1043 C 0.34271 0.53938 0.67354
 C1044 C 0.33595 0.55004 0.65812
 C1045 C 0.31060 0.56887 0.64158
 C1046 C 0.32265 0.58146 0.63207
 C1047 C 0.31658 0.59107 0.61568
 C1048 C 0.29827 0.58844 0.60842
 C1049 C 0.28602 0.57628 0.61823
 C1050 C 0.29212 0.56660 0.63463
 C1051 C 0.29235 0.59776 0.59025
 C1052 C 0.28142 0.58790 0.57677
 C1053 C 0.27701 0.59612 0.55912
 C1054 C 0.28352 0.61434 0.55449
 C1055 C 0.29404 0.62439 0.56810
 C1056 C 0.29835 0.61622 0.58580
 H1057 H 0.29202 0.56000 0.67459
 H1058 H 0.30376 0.54097 0.70150
 H1059 H 0.35701 0.53404 0.67311
 H1060 H 0.34506 0.55216 0.64602
 H1061 H 0.33687 0.58377 0.63722
 H1062 H 0.32646 0.60015 0.60838
 H1063 H 0.27174 0.57413 0.61316
 H1064 H 0.28253 0.55692 0.64155
 H1065 H 0.27682 0.57355 0.57960
 H1066 H 0.26905 0.58797 0.54882
 H1067 H 0.29897 0.63858 0.56501
 H1068 H 0.30648 0.62435 0.59598
 C1069 C 0.18969 0.54682 0.35198
 C1070 C 0.17284 0.53651 0.35296
 C1071 C 0.16473 0.52888 0.33656
 C1072 C 0.17325 0.53136 0.31875
 C1073 C 0.19036 0.54122 0.31777
 C1074 C 0.19846 0.54898 0.33423
 C1075 C 0.19741 0.55592 0.36939
 C1076 C 0.20410 0.57464 0.36879
 C1077 C 0.20928 0.58393 0.38558
 C1078 C 0.20785 0.57469 0.40330
 C1079 C 0.20200 0.55569 0.40377
 C1080 C 0.19686 0.54641 0.38702
 C1081 C 0.21133 0.58508 0.42130
 C1082 C 0.19900 0.58284 0.43667
 C1083 C 0.20177 0.59292 0.45350
 C1084 C 0.21697 0.60545 0.45540
 C1085 C 0.22944 0.60762 0.44011
 C1086 C 0.22659 0.59759 0.42318
 H1087 H 0.16559 0.53479 0.36635
 H1088 H 0.15166 0.52113 0.33779
 H1089 H 0.19719 0.54340 0.30421
 H1090 H 0.21153 0.55674 0.33308
 H1091 H 0.20451 0.58240 0.35545
 H1092 H 0.21361 0.59861 0.38479
 H1093 H 0.20114 0.54808 0.41718
 H1094 H 0.19213 0.53186 0.38789
 H1095 H 0.18697 0.57351 0.43557
 H1096 H 0.19206 0.59079 0.46511
 H1097 H 0.24122 0.61727 0.44115
 H1098 H 0.23637 0.59953 0.41160
 C1099 C 0.69288 0.04730 0.85080
 C1100 C 0.67514 0.03870 0.85112
 C1101 C 0.66733 0.03099 0.83464
 C1102 C 0.67698 0.03159 0.81714
 C1103 C 0.69515 0.03973 0.81708
 C1104 C 0.70288 0.04765 0.83366
 C1105 C 0.70034 0.05646 0.86828
 C1106 C 0.70837 0.07462 0.86746
 C1107 C 0.71315 0.08418 0.88423
 C1108 C 0.70998 0.07575 0.90210
 C1109 C 0.70282 0.05724 0.90284
 C1110 C 0.69806 0.04770 0.88613
 C1111 C 0.71315 0.08650 0.91995
 C1112 C 0.69989 0.08556 0.93465
 C1113 C 0.70263 0.09565 0.95148
 C1114 C 0.71871 0.10691 0.95404
 C1115 C 0.73197 0.10793 0.93932
 C1116 C 0.72918 0.09788 0.92240
 H1117 H 0.66703 0.03826 0.86410
 H1118 H 0.65382 0.02411 0.83597
 H1119 H 0.70314 0.04097 0.80411
 H1120 H 0.71665 0.05415 0.83304
 H1121 H 0.71014 0.08177 0.85391
 H1122 H 0.71856 0.09848 0.88323
 H1123 H 0.70063 0.05022 0.91639
 H1124 H 0.69225 0.03357 0.88717
 H1125 H 0.68726 0.07714 0.93307
 H1126 H 0.69227 0.09440 0.96263
 H1127 H 0.74443 0.11660 0.94086
 H1128 H 0.73966 0.09882 0.91134
 C1129 C 0.68673 0.93769 0.65007
 C1130 C 0.66953 0.94759 0.64945
 C1131 C 0.66404 0.95893 0.66462
 C1132 C 0.67565 0.96081 0.68081
 C1133 C 0.69302 0.95113 0.68138
 C1134 C 0.69854 0.93973 0.66612
 C1135 C 0.69203 0.92521 0.63401
 C1136 C 0.71053 0.92490 0.62703
 C1137 C 0.71498 0.91413 0.61098
 C1138 C 0.70101 0.90352 0.60162
 C1139 C 0.68272 0.90331 0.60903
 C1140 C 0.67830 0.91398 0.62504
 C1141 C 0.70513 0.89331 0.58371
 C1142 C 0.69233 0.89434 0.56836
 C1143 C 0.69588 0.88471 0.55148
 C1144 C 0.71228 0.87369 0.54953
 C1145 C 0.72522 0.87278 0.56482
 C1146 C 0.72170 0.88255 0.58174
 H1147 H 0.66024 0.94657 0.63717
 H1148 H 0.65043 0.96589 0.66381
 H1149 H 0.70233 0.95238 0.69362
 H1150 H 0.71185 0.93221 0.66704
 H1151 H 0.72138 0.93349 0.63356
 H1152 H 0.72917 0.91462 0.60549
 H1153 H 0.67177 0.89494 0.60235
 H1154 H 0.66404 0.91354 0.63036
 H1155 H 0.67964 0.90285 0.56932
 H1156 H 0.68586 0.88612 0.53983
 H1157 H 0.73790 0.86429 0.56383
 H1158 H 0.73174 0.88142 0.59340
 C1159 C 0.18428 0.44062 0.15132
 C1160 C 0.19465 0.44062 0.16849
 C1161 C 0.18807 0.45061 0.18430
 C1162 C 0.17098 0.46076 0.18323
 C1163 C 0.16058 0.46052 0.16610
 C1164 C 0.16715 0.45061 0.15037
 C1165 C 0.19099 0.43011 0.13439
 C1166 C 0.18884 0.43809 0.11610
 C1167 C 0.19357 0.42773 0.09996
 C1168 C 0.20058 0.40914 0.10169
 C1169 C 0.20345 0.40139 0.11999
 C1170 C 0.19869 0.41178 0.13620
 C1171 C 0.20414 0.39775 0.08437
 C1172 C 0.22031 0.38631 0.08288
 C1173 C 0.22363 0.37593 0.06629
 C1174 C 0.21074 0.37667 0.05097
 C1175 C 0.19448 0.38794 0.05260
 C1176 C 0.19123 0.39835 0.06908
 H1177 H 0.20796 0.43313 0.16960
 H1178 H 0.19645 0.45061 0.19727
 H1179 H 0.14712 0.46774 0.16494
 H1180 H 0.15860 0.45051 0.13751
 H1181 H 0.18335 0.45233 0.11426
 H1182 H 0.19161 0.43423 0.08607
 H1183 H 0.20874 0.38706 0.12174
 H1184 H 0.20037 0.40522 0.15009
 H1185 H 0.23054 0.38564 0.09441
 H1186 H 0.23623 0.36728 0.06546
 H1187 H 0.18441 0.38901 0.04095
 H1188 H 0.17851 0.40683 0.06990
 C1189 C -0.14951 0.31249 0.44276
 C1190 C -0.16715 0.30368 0.44071
 C1191 C -0.18325 0.31171 0.44881
 C1192 C -0.18204 0.32877 0.45898
 C1193 C -0.16434 0.33733 0.46132
 C1194 C -0.14831 0.32931 0.45330
 C1195 C -0.13245 0.30475 0.43341
 C1196 C -0.11484 0.30544 0.44271
 C1197 C -0.09847 0.30011 0.43326
 C1198 C -0.09929 0.29386 0.41432
 C1199 C -0.11696 0.29234 0.40526
 C1200 C -0.13338 0.29777 0.41470
 C1201 C -0.08169 0.28987 0.40383
 C1202 C -0.08012 0.27394 0.39201
 C1203 C -0.06342 0.27038 0.38218
 C1204 C -0.04808 0.28281 0.38382
 C1205 C -0.04973 0.29879 0.39554
 C1206 C -0.06632 0.30225 0.40546
 H1207 H -0.16849 0.29061 0.43280
 H1208 H -0.19672 0.30485 0.44670
 H1209 H -0.16290 0.35033 0.46931
 H1210 H -0.13501 0.33661 0.45495
 H1211 H -0.11370 0.31036 0.45726
 H1212 H -0.08508 0.30106 0.44073
 H1213 H -0.11799 0.28769 0.39062
 H1214 H -0.14669 0.29724 0.40708
 H1215 H -0.09173 0.26413 0.39057
 H1216 H -0.06255 0.25801 0.37317
 H1217 H -0.03807 0.30850 0.39725
 H1218 H -0.06720 0.31477 0.41426
 C1219 C 0.35182 0.81668 0.94057
 C1220 C 0.33428 0.80752 0.93972
 C1221 C 0.31849 0.81552 0.94842
 C1222 C 0.31991 0.83291 0.95801
 C1223 C 0.33749 0.84192 0.95901
 C1224 C 0.35323 0.83392 0.95040
 C1225 C 0.36858 0.80872 0.93091
 C1226 C 0.38644 0.80977 0.93964
 C1227 C 0.40252 0.80409 0.92990
 C1228 C 0.40114 0.79717 0.91122
 C1229 C 0.38323 0.79530 0.90277
 C1230 C 0.36709 0.80105 0.91252
 C1231 C 0.41846 0.79291 0.90037
 C1232 C 0.41987 0.77657 0.88909
 C1233 C 0.43643 0.77268 0.87913
 C1234 C 0.45177 0.78519 0.88010
 C1235 C 0.45021 0.80160 0.89121
 C1236 C 0.43378 0.80541 0.90123
 H1237 H 0.33280 0.79415 0.93236
 H1238 H 0.30509 0.80832 0.94733
 H1239 H 0.33909 0.85520 0.96650
 H1240 H 0.36646 0.84147 0.95111
 H1241 H 0.38800 0.81522 0.95395
 H1242 H 0.41611 0.80530 0.93692
 H1243 H 0.38177 0.79011 0.88835
 H1244 H 0.35355 0.80021 0.90536
 H1245 H 0.40828 0.76667 0.88823
 H1246 H 0.43723 0.75996 0.87061
 H1247 H 0.46188 0.81138 0.89244
 H1248 H 0.43301 0.81824 0.90958
 C1249 C 1.16536 0.81147 0.06162
 C1250 C 1.16611 0.80796 0.04196
 C1251 C 1.18080 0.81524 0.03106
 C1252 C 1.19511 0.82602 0.03962
 C1253 C 1.19478 0.82886 0.05941
 C1254 C 1.18000 0.82173 0.07028
 C1255 C 1.14872 0.80555 0.07274
 C1256 C 1.14011 0.81832 0.08525
 C1257 C 1.12352 0.81343 0.09457
 C1258 C 1.11522 0.79560 0.09171
 C1259 C 1.12420 0.78260 0.07962
 C1260 C 1.14072 0.78756 0.07017
 C1261 C 1.09681 0.79100 0.10053
 C1262 C 1.08312 0.78082 0.09027
 C1263 C 1.06538 0.77751 0.09800
 C1264 C 1.06086 0.78443 0.11611
 C1265 C 1.07460 0.79430 0.12655
 C1266 C 1.09241 0.79748 0.11888
 H1267 H 1.15494 0.80023 0.03488
 H1268 H 1.18079 0.81274 0.01585
 H1269 H 1.20554 0.83725 0.06635
 H1270 H 1.17984 0.82450 0.08544
 H1271 H 1.14581 0.83238 0.08727
 H1272 H 1.11684 0.82392 0.10349
 H1273 H 1.11839 0.76862 0.07737
 H1274 H 1.14720 0.77737 0.06077
 H1275 H 1.08587 0.77593 0.07597
 H1276 H 1.05497 0.77009 0.08954
 H1277 H 1.07154 0.79957 0.14065
 H1278 H 1.10272 0.80507 0.12731
 C1279 C 0.65228 0.31777 0.55133
 C1280 C 0.66855 0.30640 0.55017
 C1281 C 0.68422 0.31265 0.53992
 C1282 C 0.68382 0.33031 0.53051
 C1283 C 0.66747 0.34154 0.53160
 C1284 C 0.65191 0.33534 0.54181
 C1285 C 0.63566 0.31159 0.56242
 C1286 C 0.62568 0.32478 0.57339
 C1287 C 0.60929 0.31950 0.58280
 C1288 C 0.60248 0.30089 0.58154
 C1289 C 0.61278 0.28748 0.57111
 C1290 C 0.62922 0.29279 0.56163
 C1291 C 0.58444 0.29578 0.59072
 C1292 C 0.58250 0.27862 0.60077
 C1293 C 0.56563 0.27433 0.60999
 C1294 C 0.55036 0.28710 0.60928
 C1295 C 0.55220 0.30402 0.59882
 C1296 C 0.56902 0.30832 0.58968
 H1297 H 0.66929 0.29284 0.55745
 H1298 H 0.69658 0.30365 0.53927
 H1299 H 0.66678 0.35535 0.52481
 H1300 H 0.63950 0.34431 0.54218
 H1301 H 0.63053 0.33925 0.57466
 H1302 H 0.60191 0.33004 0.59109
 H1303 H 0.60780 0.27306 0.56981
 H1304 H 0.63653 0.28234 0.55318
 H1305 H 0.59419 0.26875 0.60191
 H1306 H 0.56471 0.26126 0.61808
 H1307 H 0.54057 0.31395 0.59762
 H1308 H 0.56995 0.32146 0.58170
 C1309 C 0.34622 0.19025 0.56477
 C1310 C 0.33954 0.19746 0.54724
 C1311 C 0.32362 0.18965 0.53845
 C1312 C 0.31416 0.17438 0.54694
 C1313 C 0.32055 0.16753 0.56471
 C1314 C 0.33636 0.17540 0.57354
 C1315 C 0.36393 0.19744 0.57345
 C1316 C 0.36545 0.20006 0.59323
 C1317 C 0.38258 0.20542 0.60154
 C1318 C 0.39860 0.20820 0.59026
 C1319 C 0.39693 0.20603 0.57042
 C1320 C 0.37979 0.20074 0.56211
 C1321 C 0.41716 0.21254 0.59917
 C1322 C 0.42969 0.22517 0.59037
 C1323 C 0.44755 0.22839 0.59823
 C1324 C 0.45330 0.21909 0.61508
 C1325 C 0.44063 0.20678 0.62409
 C1326 C 0.42279 0.20353 0.61622
 H1327 H 0.34675 0.20902 0.54024
 H1328 H 0.31908 0.19514 0.52471
 H1329 H 0.31341 0.15590 0.57168
 H1330 H 0.34125 0.16942 0.58695
 H1331 H 0.35339 0.19788 0.60230
 H1332 H 0.38330 0.20731 0.61682
 H1333 H 0.40905 0.20777 0.56134
 H1334 H 0.37913 0.19856 0.54687
 H1335 H 0.42571 0.23251 0.57735
 H1336 H 0.45703 0.23783 0.59084
 H1337 H 0.44453 0.19959 0.63723
 H1338 H 0.41358 0.19356 0.62326
 C1339 C 0.85560 0.69862 0.04776
 C1340 C 0.85604 0.68156 0.03755
 C1341 C 0.83950 0.67379 0.03020
 C1342 C 0.82209 0.68287 0.03286
 C1343 C 0.82163 0.70021 0.04261
 C1344 C 0.83824 0.70796 0.05009
 C1345 C 0.87316 0.70594 0.05663
 C1346 C 0.87321 0.71270 0.07542
 C1347 C 0.89016 0.71737 0.08455
 C1348 C 0.90738 0.71534 0.07505
 C1349 C 0.90722 0.70946 0.05597
 C1350 C 0.89031 0.70483 0.04686
 C1351 C 0.92552 0.71816 0.08530
 C1352 C 0.94034 0.70515 0.08292
 C1353 C 0.95727 0.70725 0.09292
 C1354 C 0.95981 0.72243 0.10552
 C1355 C 0.94508 0.73558 0.10781
 C1356 C 0.92804 0.73340 0.09786
 H1357 H 0.86913 0.67388 0.03571
 H1358 H 0.84031 0.66054 0.02253
 H1359 H 0.80838 0.70746 0.04491
 H1360 H 0.83750 0.72120 0.05779
 H1361 H 0.86024 0.71354 0.08338
 H1362 H 0.88986 0.72174 0.09930
 H1363 H 0.92024 0.70814 0.04817
 H1364 H 0.89068 0.70003 0.03225
 H1365 H 0.93873 0.69311 0.07355
 H1366 H 0.96845 0.69703 0.09070
 H1367 H 0.94663 0.74736 0.11750
 H1368 H 0.91689 0.74369 0.09990
 C1369 C 0.65289 0.69160 0.94185
 C1370 C 0.66928 0.70269 0.94115
 C1371 C 0.68534 0.69743 0.95173
 C1372 C 0.68520 0.68111 0.96333
 C1373 C 0.66868 0.67025 0.96418
 C1374 C 0.65275 0.67544 0.95361
 C1375 C 0.63593 0.69655 0.93029
 C1376 C 0.62570 0.68221 0.92109
 C1377 C 0.60898 0.68643 0.91135
 C1378 C 0.60205 0.70510 0.91056
 C1379 C 0.61261 0.71960 0.91916
 C1380 C 0.62941 0.71536 0.92894
 C1381 C 0.58355 0.70916 0.90133
 C1382 C 0.58087 0.72523 0.88968
 C1383 C 0.56344 0.72864 0.88076
 C1384 C 0.54837 0.71605 0.88337
 C1385 C 0.55101 0.70018 0.89530
 C1386 C 0.56838 0.69677 0.90415
 H1387 H 0.66981 0.71518 0.93213
 H1388 H 0.69784 0.70612 0.95085
 H1389 H 0.66818 0.65743 0.97271
 H1390 H 0.64025 0.66677 0.95467
 H1391 H 0.63060 0.66765 0.92150
 H1392 H 0.60139 0.67503 0.90448
 H1393 H 0.60756 0.73411 0.91887
 H1394 H 0.63695 0.72668 0.93599
 H1395 H 0.59235 0.73495 0.88714
 H1396 H 0.56187 0.74091 0.87153
 H1397 H 0.53956 0.69047 0.89796
 H1398 H 0.56988 0.68451 0.91339
 C1399 C 0.15363 0.19232 0.44688
 C1400 C 0.17133 0.19094 0.43811
 C1401 C 0.18689 0.18346 0.44801
 C1402 C 0.18530 0.17751 0.46708
 C1403 C 0.16785 0.17982 0.47612
 C1404 C 0.15221 0.18688 0.46612
 C1405 C 0.13654 0.19845 0.43584
 C1406 C 0.12156 0.20783 0.44483
 C1407 C 0.10487 0.21197 0.43491
 C1408 C 0.10281 0.20728 0.41555
 C1409 C 0.11811 0.19867 0.40634
 C1410 C 0.13463 0.19412 0.41638
 C1411 C 0.08459 0.21069 0.40524
 C1412 C 0.07850 0.19828 0.39084
 C1413 C 0.06117 0.20103 0.38162
 C1414 C 0.04917 0.21601 0.38681
 C1415 C 0.05529 0.22851 0.40112
 C1416 C 0.07282 0.22601 0.41005
 H1417 H 0.17317 0.19538 0.42347
 H1418 H 0.19999 0.18180 0.44043
 H1419 H 0.16611 0.17587 0.49092
 H1420 H 0.13887 0.18745 0.47341
 H1421 H 0.12257 0.21183 0.45966
 H1422 H 0.09342 0.21840 0.44265
 H1423 H 0.11733 0.19523 0.39136
 H1424 H 0.14567 0.18669 0.40891
 H1425 H 0.08691 0.18612 0.38689
 H1426 H 0.05721 0.19132 0.37041
 H1427 H 0.04641 0.24007 0.40576
 H1428 H 0.07709 0.23612 0.42077
 C1429 C 0.57078 0.09804 0.69842
 C1430 C 0.58489 0.10119 0.71223
 C1431 C 0.59468 0.08598 0.72055
 C1432 C 0.59042 0.06727 0.71541
 C1433 C 0.57618 0.06405 0.70183
 C1434 C 0.56653 0.07925 0.69335
 C1435 C 0.56062 0.11424 0.68926
 C1436 C 0.54138 0.11288 0.68458
 C1437 C 0.53187 0.12805 0.67588
 C1438 C 0.54130 0.14506 0.67180
 C1439 C 0.56053 0.14645 0.67652
 C1440 C 0.57009 0.13121 0.68505
 C1441 C 0.53107 0.16132 0.66282
 C1442 C 0.54000 0.17312 0.64946
 C1443 C 0.53039 0.18849 0.64120
 C1444 C 0.51159 0.19225 0.64594
 C1445 C 0.50261 0.18045 0.65918
 C1446 C 0.51226 0.16523 0.66760
 H1447 H 0.58828 0.11543 0.71678
 H1448 H 0.60546 0.08883 0.73116
 H1449 H 0.57281 0.04975 0.69744
 H1450 H 0.55601 0.07628 0.68252
 H1451 H 0.53356 0.10014 0.68782
 H1452 H 0.51713 0.12635 0.67221
 H1453 H 0.56820 0.15940 0.67382
 H1454 H 0.58497 0.13268 0.68819
 H1455 H 0.55436 0.17036 0.64520
 H1456 H 0.53756 0.19729 0.63089
 H1457 H 0.48820 0.18322 0.66329
 H1458 H 0.50505 0.15671 0.67810
 C1459 C 1.06629 0.59705 0.19834
 C1460 C 1.07844 0.59982 0.21402
 C1461 C 1.08776 0.58447 0.22260
 C1462 C 1.08501 0.56598 0.21585
 C1463 C 1.07257 0.56311 0.20047
 C1464 C 1.06338 0.57848 0.19175
 C1465 C 1.05699 0.61350 0.18871
 C1466 C 1.03850 0.61211 0.18150
 C1467 C 1.02990 0.62754 0.17229
 C1468 C 1.03952 0.64480 0.17016
 C1469 C 1.05797 0.64620 0.17743
 C1470 C 1.06662 0.63074 0.18651
 C1471 C 1.03035 0.66130 0.16048
 C1472 C 1.04085 0.67353 0.14882
 C1473 C 1.03234 0.68927 0.14009
 C1474 C 1.01310 0.69304 0.14266
 C1475 C 1.00252 0.68074 0.15410
 C1476 C 1.01106 0.66509 0.16298
 H1477 H 1.08070 0.61385 0.21973
 H1478 H 1.09707 0.58704 0.23462
 H1479 H 1.07038 0.54902 0.19484
 H1480 H 1.05435 0.57585 0.17954
 H1481 H 1.03059 0.59912 0.18312
 H1482 H 1.01575 0.62587 0.16666
 H1483 H 1.06571 0.65934 0.17629
 H1484 H 1.08096 0.63226 0.19162
 H1485 H 1.05563 0.67084 0.14628
 H1486 H 1.04075 0.69840 0.13114
 H1487 H 0.98772 0.68347 0.15651
 H1488 H 1.00262 0.65618 0.17211
 C1489 C 0.94298 0.90243 0.20145
 C1490 C 0.92656 0.89817 0.21164
 C1491 C 0.91639 0.91245 0.22066
 C1492 C 0.92251 0.93139 0.22010
 C1493 C 0.93910 0.93562 0.21016
 C1494 C 0.94911 0.92136 0.20084
 C1495 C 0.95353 0.88717 0.19146
 C1496 C 0.97328 0.88770 0.19017
 C1497 C 0.98312 0.87327 0.18092
 C1498 C 0.97351 0.85776 0.17298
 C1499 C 0.95376 0.85726 0.17427
 C1500 C 0.94391 0.87183 0.18321
 C1501 C 0.98399 0.84207 0.16360
 C1502 C 0.97605 0.83239 0.14800
 C1503 C 0.98557 0.81722 0.13968
 C1504 C 1.00339 0.81163 0.14650
 C1505 C 1.01155 0.82145 0.16179
 C1506 C 1.00189 0.83639 0.17036
 H1507 H 0.92155 0.88375 0.21277
 H1508 H 0.90353 0.90861 0.22784
 H1509 H 0.94443 0.94995 0.20961
 H1510 H 0.96154 0.92526 0.19295
 H1511 H 0.98122 0.89913 0.19652
 H1512 H 0.99828 0.87436 0.17996
 H1513 H 0.94584 0.84545 0.16862
 H1514 H 0.92870 0.87106 0.18356
 H1515 H 0.96252 0.83658 0.14209
 H1516 H 0.97912 0.80995 0.12775
 H1517 H 1.02522 0.81723 0.16738
 H1518 H 1.00832 0.84320 0.18255
 C1519 C 0.43936 0.39937 0.70904
 C1520 C 0.42130 0.39594 0.71631
 C1521 C 0.41101 0.41042 0.72489
 C1522 C 0.41827 0.42891 0.72606
 C1523 C 0.43641 0.43231 0.71896
 C1524 C 0.44688 0.41772 0.71074
 C1525 C 0.45007 0.38401 0.69935
 C1526 C 0.46199 0.38818 0.68400
 C1527 C 0.47164 0.37374 0.67461
 C1528 C 0.46937 0.35466 0.68001
 C1529 C 0.45749 0.35049 0.69539
 C1530 C 0.44816 0.36496 0.70505
 C1531 C 0.47914 0.33918 0.66954
 C1532 C 0.48497 0.32248 0.67905
 C1533 C 0.49372 0.30782 0.66912
 C1534 C 0.49722 0.30969 0.64959
 C1535 C 0.49172 0.32635 0.64006
 C1536 C 0.48258 0.34086 0.64987
 H1537 H 0.41485 0.38212 0.71507
 H1538 H 0.39729 0.40706 0.73054
 H1539 H 0.44245 0.44636 0.71936
 H1540 H 0.46087 0.42089 0.70568
 H1541 H 0.46366 0.40259 0.67895
 H1542 H 0.48093 0.37762 0.66311
 H1543 H 0.45511 0.33600 0.69985
 H1544 H 0.43943 0.36114 0.71700
 H1545 H 0.48301 0.32077 0.69422
 H1546 H 0.49805 0.29511 0.67675
 H1547 H 0.49418 0.32797 0.62494
 H1548 H 0.47795 0.35324 0.64191
 C1549 C 0.43300 0.59370 0.80367
 C1550 C 0.41381 0.59096 0.80749
 C1551 C 0.40434 0.57518 0.80034
 C1552 C 0.41382 0.56177 0.78918
 C1553 C 0.43298 0.56454 0.78526
 C1554 C 0.44248 0.58032 0.79245
 C1555 C 0.44307 0.61043 0.81143
 C1556 C 0.45632 0.62018 0.80035
 C1557 C 0.46577 0.63592 0.80767
 C1558 C 0.46217 0.64228 0.82622
 C1559 C 0.44891 0.63256 0.83728
 C1560 C 0.43949 0.61680 0.82999
 C1561 C 0.47230 0.65890 0.83406
 C1562 C 0.46275 0.67251 0.84493
 C1563 C 0.47235 0.68804 0.85247
 C1564 C 0.49174 0.69027 0.84938
 C1565 C 0.50128 0.67671 0.83845
 C1566 C 0.49166 0.66121 0.83085
 H1567 H 0.40602 0.60118 0.81578
 H1568 H 0.38949 0.57361 0.80331
 H1569 H 0.44072 0.55433 0.77690
 H1570 H 0.45733 0.58188 0.78949
 H1571 H 0.45917 0.61581 0.78590
 H1572 H 0.47571 0.64328 0.79870
 H1573 H 0.44606 0.63694 0.85173
 H1574 H 0.42961 0.60942 0.83900
 H1575 H 0.44779 0.67120 0.84747
 H1576 H 0.46467 0.69819 0.86096
 H1577 H 0.51618 0.67816 0.83565
 H1578 H 0.49945 0.65088 0.82269
 C1579 C -0.06673 0.09168 0.30778
 C1580 C -0.08623 0.09254 0.30443
 C1581 C -0.09563 0.07724 0.29615
 C1582 C -0.08577 0.06062 0.29130
 C1583 C -0.06624 0.05978 0.29487
 C1584 C -0.05682 0.07519 0.30289
 C1585 C -0.05672 0.10801 0.31623
 C1586 C -0.04007 0.11474 0.30804
 C1587 C -0.03067 0.13024 0.31588
 C1588 C -0.03754 0.13920 0.33230
 C1589 C -0.05419 0.13232 0.34053
 C1590 C -0.06374 0.11698 0.33250
 C1591 C -0.02742 0.15566 0.34068
 C1592 C -0.03740 0.17073 0.34897
 C1593 C -0.02787 0.18633 0.35651
 C1594 C -0.00812 0.18738 0.35575
 C1595 C 0.00186 0.17227 0.34756
 C1596 C -0.00764 0.15657 0.34026
 H1597 H -0.09414 0.10521 0.30788
 H1598 H -0.11059 0.07859 0.29329
 H1599 H -0.05823 0.04711 0.29173
 H1600 H -0.04180 0.07412 0.30555
 H1601 H -0.03452 0.10819 0.29534
 H1602 H -0.01815 0.13536 0.30888
 H1603 H -0.05973 0.13861 0.35335
 H1604 H -0.07646 0.11191 0.33918
 H1605 H -0.05264 0.17066 0.34937
 H1606 H -0.03602 0.19755 0.36296
 H1607 H 0.01705 0.17267 0.34646
 H1608 H 0.00057 0.14512 0.33431
 C1609 C 0.06377 0.40161 0.29518
 C1610 C 0.07292 0.40014 0.27757
 C1611 C 0.08249 0.41567 0.26991
 C1612 C 0.08313 0.43297 0.27971
 C1613 C 0.07359 0.43455 0.29707
 C1614 C 0.06402 0.41908 0.30471
 C1615 C 0.05434 0.38495 0.30386
 C1616 C 0.05591 0.38150 0.32355
 C1617 C 0.04687 0.36605 0.33188
 C1618 C 0.03605 0.35363 0.32071
 C1619 C 0.03466 0.35691 0.30098
 C1620 C 0.04370 0.37241 0.29264
 C1621 C 0.02608 0.33750 0.32973
 C1622 C 0.02564 0.31961 0.32101
 C1623 C 0.01628 0.30446 0.32963
 C1624 C 0.00709 0.30690 0.34709
 C1625 C 0.00755 0.32478 0.35579
 C1626 C 0.01693 0.33989 0.34722
 H1627 H 0.07314 0.38682 0.26998
 H1628 H 0.08987 0.41396 0.25660
 H1629 H 0.07353 0.44781 0.30478
 H1630 H 0.05676 0.42079 0.31808
 H1631 H 0.06433 0.39066 0.33253
 H1632 H 0.04851 0.36370 0.34706
 H1633 H 0.02624 0.34771 0.29204
 H1634 H 0.04206 0.37480 0.27746
 H1635 H 0.03271 0.31729 0.30762
 H1636 H 0.01603 0.29088 0.32251
 H1637 H 0.00078 0.32705 0.36935
 H1638 H 0.01685 0.35354 0.35420
 C1639 C 0.57013 0.90190 0.79415
 C1640 C 0.57076 0.90491 0.77432
 C1641 C 0.58131 0.91974 0.76660
 C1642 C 0.59110 0.93242 0.77849
 C1643 C 0.59014 0.92960 0.79832
 C1644 C 0.58018 0.91441 0.80598
 C1645 C 0.55912 0.88590 0.80252
 C1646 C 0.55162 0.88725 0.82094
 C1647 C 0.54193 0.87211 0.82910
 C1648 C 0.53871 0.85533 0.81884
 C1649 C 0.54581 0.85413 0.80023
 C1650 C 0.55611 0.86903 0.79232
 C1651 C 0.52805 0.83926 0.82756
 C1652 C 0.53143 0.82038 0.82209
 C1653 C 0.52139 0.80543 0.83024
 C1654 C 0.50809 0.80879 0.84459
 C1655 C 0.50494 0.82764 0.85025
 C1656 C 0.51446 0.84262 0.84162
 H1657 H 0.56300 0.89593 0.76462
 H1658 H 0.58185 0.92106 0.75127
 H1659 H 0.59697 0.93918 0.80814
 H1660 H 0.58056 0.91250 0.82127
 H1661 H 0.55308 0.90004 0.82922
 H1662 H 0.53718 0.87365 0.84359
 H1663 H 0.54339 0.84172 0.79158
 H1664 H 0.56186 0.86713 0.77825
 H1665 H 0.54198 0.81698 0.81163
 H1666 H 0.52406 0.79125 0.82511
 H1667 H 0.49522 0.83098 0.86152
 H1668 H 0.51097 0.85686 0.84602
 C1669 C 0.70092 0.57668 0.09707
 C1670 C 0.69767 0.57144 0.07808
 C1671 C 0.70651 0.58095 0.06314
 C1672 C 0.71877 0.59641 0.06657
 C1673 C 0.72193 0.60145 0.08586
 C1674 C 0.71328 0.59169 0.10074
 C1675 C 0.69143 0.56656 0.11296
 C1676 C 0.68569 0.57640 0.12929
 C1677 C 0.67691 0.56688 0.14427
 C1678 C 0.67344 0.54731 0.14323
 C1679 C 0.67902 0.53750 0.12682
 C1680 C 0.68800 0.54697 0.11195
 C1681 C 0.66416 0.53713 0.15921
 C1682 C 0.66948 0.51844 0.16397
 C1683 C 0.66070 0.50880 0.17885
 C1684 C 0.64660 0.51769 0.18949
 C1685 C 0.64136 0.53639 0.18495
 C1686 C 0.64995 0.54597 0.16988
 H1687 H 0.68785 0.56024 0.07464
 H1688 H 0.70254 0.57668 0.04891
 H1689 H 0.73187 0.61229 0.08990
 H1690 H 0.71662 0.59575 0.11523
 H1691 H 0.68781 0.59153 0.13047
 H1692 H 0.67306 0.57487 0.15677
 H1693 H 0.67633 0.52249 0.12536
 H1694 H 0.69244 0.53885 0.09974
 H1695 H 0.68063 0.51130 0.15639
 H1696 H 0.66517 0.49446 0.18227
 H1697 H 0.63039 0.54348 0.19286
 H1698 H 0.64525 0.56021 0.16643
 C1699 C 0.19946 1.05951 0.59483
 C1700 C 0.19432 1.05693 0.57564
 C1701 C 0.20307 1.06738 0.56127
 C1702 C 0.21693 1.08080 0.56585
 C1703 C 0.22221 1.08322 0.58502
 C1704 C 0.21363 1.07261 0.59934
 C1705 C 0.18975 1.04903 0.61020
 C1706 C 0.20010 1.04090 0.62533
 C1707 C 0.19091 1.03184 0.64031
 C1708 C 0.17112 1.03087 0.64063
 C1709 C 0.16080 1.03879 0.62531
 C1710 C 0.17002 1.04770 0.61022
 C1711 C 0.16133 1.02200 0.65705
 C1712 C 0.14483 1.01136 0.65431
 C1713 C 0.13564 1.00315 0.66981
 C1714 C 0.14279 1.00528 0.68842
 C1715 C 0.15929 1.01591 0.69114
 C1716 C 0.16838 1.02423 0.67568
 H1717 H 0.18352 1.04682 0.57178
 H1718 H 0.19867 1.06535 0.54661
 H1719 H 0.23295 1.09337 0.58891
 H1720 H 0.21775 1.07500 0.61403
 H1721 H 0.21534 1.04151 0.62552
 H1722 H 0.19933 1.02553 0.65164
 H1723 H 0.14555 1.03856 0.62521
 H1724 H 0.16169 1.05406 0.59885
 H1725 H 0.13911 1.00919 0.64015
 H1726 H 0.12285 0.99524 0.66722
 H1727 H 0.16535 1.01761 0.70523
 H1728 H 0.18088 1.03257 0.67838
 C1729 C 0.19573 0.93795 0.90189
 C1730 C 0.19316 0.91839 0.90404
 C1731 C 0.20218 0.90839 0.91877
 C1732 C 0.21417 0.91760 0.93208
 C1733 C 0.21645 0.93746 0.92969
 C1734 C 0.20745 0.94736 0.91486
 C1735 C 0.18629 0.94844 0.88606
 C1736 C 0.19608 0.96224 0.87564
 C1737 C 0.18731 0.97182 0.86047
 C1738 C 0.16854 0.96784 0.85540
 C1739 C 0.15870 0.95416 0.86595
 C1740 C 0.16748 0.94455 0.88110
 C1741 C 0.15934 0.97776 0.83904
 C1742 C 0.14751 0.96783 0.82644
 C1743 C 0.13907 0.97707 0.81088
 C1744 C 0.14229 0.99644 0.80753
 C1745 C 0.15403 1.00640 0.82018
 C1746 C 0.16246 0.99716 0.83576
 H1747 H 0.18421 0.91071 0.89421
 H1748 H 0.19877 0.89353 0.91992
 H1749 H 0.22590 0.94562 0.93852
 H1750 H 0.20967 0.96249 0.91358
 H1751 H 0.21066 0.96534 0.87896
 H1752 H 0.19537 0.98206 0.85244
 H1753 H 0.14413 0.95101 0.86262
 H1754 H 0.15948 0.93421 0.88906
 H1755 H 0.14498 0.95283 0.82845
 H1756 H 0.12993 0.96905 0.80152
 H1757 H 0.15694 1.02129 0.81789
 H1758 H 0.17134 1.00525 0.84531
 C1759 C 0.69833 0.44234 0.40027
 C1760 C 0.69220 0.42385 0.40432
 C1761 C 0.70091 0.41309 0.41869
 C1762 C 0.71600 0.42053 0.42933
 C1763 C 0.72213 0.43903 0.42531
 C1764 C 0.71340 0.44982 0.41093
 C1765 C 0.68908 0.45367 0.38488
 C1766 C 0.69982 0.46499 0.37257
 C1767 C 0.69115 0.47517 0.35774
 C1768 C 0.67155 0.47426 0.35486
 C1769 C 0.66080 0.46311 0.36731
 C1770 C 0.66946 0.45296 0.38215
 C1771 C 0.66237 0.48459 0.33874
 C1772 C 0.64479 0.49349 0.34103
 C1773 C 0.63597 0.50281 0.32573
 C1774 C 0.64455 0.50347 0.30778
 C1775 C 0.66220 0.49471 0.30553
 C1776 C 0.67100 0.48536 0.32082
 H1777 H 0.68080 0.41758 0.39622
 H1778 H 0.69567 0.39899 0.42159
 H1779 H 0.73383 0.44511 0.43313
 H1780 H 0.71833 0.46409 0.40829
 H1781 H 0.71498 0.46570 0.37418
 H1782 H 0.69980 0.48381 0.34854
 H1783 H 0.64570 0.46194 0.36538
 H1784 H 0.66076 0.44457 0.39154
 H1785 H 0.63787 0.49333 0.35471
 H1786 H 0.62230 0.50926 0.32788
 H1787 H 0.66929 0.49517 0.29195
 H1788 H 0.68444 0.47847 0.31852
 C1789 C 0.79573 0.43389 0.59430
 C1790 C 0.80571 0.43350 0.57712
 C1791 C 0.79831 0.42428 0.56120
 C1792 C 0.78075 0.41522 0.56205
 C1793 C 0.77059 0.41589 0.57913
 C1794 C 0.77801 0.42513 0.59508
 C1795 C 0.80395 0.44323 0.61135
 C1796 C 0.79269 0.45433 0.62333
 C1797 C 0.80059 0.46336 0.63917
 C1798 C 0.81991 0.46146 0.64338
 C1799 C 0.83110 0.45017 0.63152
 C1800 C 0.82322 0.44116 0.61570
 C1801 C 0.82846 0.47144 0.65990
 C1802 C 0.84619 0.48004 0.65828
 C1803 C 0.85422 0.48959 0.67370
 C1804 C 0.84470 0.49077 0.69111
 C1805 C 0.82701 0.48208 0.69279
 C1806 C 0.81896 0.47254 0.67734
 H1807 H 0.81922 0.44044 0.57595
 H1808 H 0.80631 0.42433 0.54814
 H1809 H 0.75714 0.40884 0.58031
 H1810 H 0.77008 0.42502 0.60818
 H1811 H 0.77785 0.45637 0.62023
 H1812 H 0.79165 0.47217 0.64789
 H1813 H 0.84595 0.44814 0.63458
 H1814 H 0.83219 0.43240 0.60696
 H1815 H 0.85378 0.47963 0.64499
 H1816 H 0.86796 0.49595 0.67203
 H1817 H 0.81927 0.48289 0.70597
 H1818 H 0.80537 0.46589 0.67908
 C1819 C 0.29770 -0.05708 0.09239
 C1820 C 0.30713 -0.05718 0.07488
 C1821 C 0.29999 -0.06745 0.05949
 C1822 C 0.28326 -0.07785 0.06123
 C1823 C 0.27371 -0.07759 0.07867
 C1824 C 0.28087 -0.06734 0.09409
 C1825 C 0.30558 -0.04652 0.10885
 C1826 C 0.30536 -0.05443 0.12728
 C1827 C 0.31332 -0.04472 0.14266
 C1828 C 0.32169 -0.02690 0.13996
 C1829 C 0.32169 -0.01890 0.12158
 C1830 C 0.31374 -0.02859 0.10621
 C1831 C 0.33061 -0.01677 0.15616
 C1832 C 0.34773 -0.00719 0.15370
 C1833 C 0.35609 0.00253 0.16882
 C1834 C 0.34751 0.00293 0.18678
 C1835 C 0.33049 -0.00682 0.18932
 C1836 C 0.32213 -0.01656 0.17417
 H1837 H 0.32023 -0.04959 0.07317
 H1838 H 0.30757 -0.06721 0.04618
 H1839 H 0.26088 -0.08561 0.08052
 H1840 H 0.27319 -0.06738 0.10734
 H1841 H 0.29942 -0.06833 0.12973
 H1842 H 0.31332 -0.05136 0.15660
 H1843 H 0.32772 -0.00504 0.11909
 H1844 H 0.31383 -0.02198 0.09225
 H1845 H 0.35481 -0.00740 0.14011
 H1846 H 0.36939 0.00960 0.16652
 H1847 H 0.32344 -0.00658 0.20292
 H1848 H 0.30882 -0.02363 0.17645
 C1849 C 0.30011 0.07444 0.40285
 C1850 C 0.28219 0.08297 0.40182
 C1851 C 0.27435 0.09146 0.41787
 C1852 C 0.28426 0.09162 0.43530
 C1853 C 0.30208 0.08290 0.43637
 C1854 C 0.30991 0.07441 0.42035
 C1855 C 0.30864 0.06571 0.38575
 C1856 C 0.32792 0.06796 0.38204
 C1857 C 0.33606 0.05952 0.36615
 C1858 C 0.32511 0.04863 0.35357
 C1859 C 0.30578 0.04652 0.35716
 C1860 C 0.29764 0.05497 0.37308
 C1861 C 0.33389 0.03922 0.33698
 C1862 C 0.32456 0.03872 0.31924
 C1863 C 0.33273 0.02955 0.30375
 C1864 C 0.35039 0.02061 0.30569
 C1865 C 0.35978 0.02125 0.32338
 C1866 C 0.35163 0.03045 0.33884
 H1867 H 0.27440 0.08344 0.38849
 H1868 H 0.26071 0.09830 0.41652
 H1869 H 0.30992 0.08249 0.44968
 H1870 H 0.32358 0.06764 0.42170
 H1871 H 0.33670 0.07644 0.39134
 H1872 H 0.35091 0.06167 0.36359
 H1873 H 0.29703 0.03799 0.34789
 H1874 H 0.28280 0.05276 0.37568
 H1875 H 0.31096 0.04552 0.31731
 H1876 H 0.32509 0.02916 0.29033
 H1877 H 0.37349 0.01468 0.32526
 H1878 H 0.35910 0.03041 0.35236
 C1879 C 0.79476 0.57304 0.90324
 C1880 C 0.80437 0.57292 0.92083
 C1881 C 0.79731 0.58296 0.93629
 C1882 C 0.78045 0.59337 0.93455
 C1883 C 0.77060 0.59317 0.91709
 C1884 C 0.77768 0.58311 0.90159
 C1885 C 0.80275 0.56291 0.88667
 C1886 C 0.79111 0.55249 0.87430
 C1887 C 0.79882 0.54263 0.85898
 C1888 C 0.81832 0.54300 0.85570
 C1889 C 0.82989 0.55366 0.86790
 C1890 C 0.82220 0.56349 0.88320
 C1891 C 0.82666 0.53206 0.83984
 C1892 C 0.84370 0.52213 0.84258
 C1893 C 0.85157 0.51172 0.82778
 C1894 C 0.84261 0.51097 0.80987
 C1895 C 0.82562 0.52095 0.80707
 C1896 C 0.81771 0.53136 0.82191
 H1897 H 0.81735 0.56496 0.92268
 H1898 H 0.80503 0.58252 0.94967
 H1899 H 0.75769 0.60123 0.91525
 H1900 H 0.77005 0.58362 0.88817
 H1901 H 0.77610 0.55161 0.87673
 H1902 H 0.78957 0.53436 0.84996
 H1903 H 0.84491 0.55453 0.86553
 H1904 H 0.83148 0.57171 0.89223
 H1905 H 0.85083 0.52221 0.85628
 H1906 H 0.86479 0.50436 0.83032
 H1907 H 0.81831 0.52051 0.79347
 H1908 H 0.80466 0.53900 0.81931
 C1909 C 0.09529 0.69553 0.56442
 C1910 C 0.07685 0.68858 0.56253
 C1911 C 0.06208 0.69689 0.57257
 C1912 C 0.06552 0.71215 0.58488
 C1913 C 0.08392 0.71919 0.58664
 C1914 C 0.09864 0.71103 0.57643
 C1915 C 0.11108 0.68640 0.55427
 C1916 C 0.12460 0.69744 0.54495
 C1917 C 0.13981 0.68885 0.53586
 C1918 C 0.14194 0.66901 0.53606
 C1919 C 0.12830 0.65798 0.54532
 C1920 C 0.11299 0.66658 0.55425
 C1921 C 0.15842 0.65989 0.52685
 C1922 C 0.15651 0.64251 0.51732
 C1923 C 0.17203 0.63393 0.50877
 C1924 C 0.18983 0.64257 0.50940
 C1925 C 0.19173 0.65996 0.51890
 C1926 C 0.17625 0.66846 0.52758
 H1927 H 0.07388 0.67673 0.55325
 H1928 H 0.04804 0.69112 0.57107
 H1929 H 0.08692 0.73103 0.59592
 H1930 H 0.11274 0.71657 0.57826
 H1931 H 0.12332 0.71275 0.54456
 H1932 H 0.14981 0.69776 0.52854
 H1933 H 0.12964 0.64270 0.54604
 H1934 H 0.10289 0.65775 0.56155
 H1935 H 0.14295 0.63561 0.51628
 H1936 H 0.17011 0.62042 0.50179
 H1937 H 0.20516 0.66715 0.51945
 H1938 H 0.17832 0.68169 0.53503
 C1939 C 0.59972 0.20287 1.06051
 C1940 C 0.58103 0.19696 1.05768
 C1941 C 0.56626 0.20599 1.06710
 C1942 C 0.56993 0.22096 1.07969
 C1943 C 0.58860 0.22699 1.08236
 C1944 C 0.60333 0.21810 1.07279
 C1945 C 0.61547 0.19291 1.05106
 C1946 C 0.63007 0.20321 1.04257
 C1947 C 0.64512 0.19379 1.03403
 C1948 C 0.64601 0.17386 1.03396
 C1949 C 0.63134 0.16360 1.04246
 C1950 C 0.61620 0.17302 1.05083
 C1951 C 0.66218 0.16383 1.02513
 C1952 C 0.65942 0.14684 1.01514
 C1953 C 0.67460 0.13742 1.00685
 C1954 C 0.69291 0.14484 1.00819
 C1955 C 0.69568 0.16182 1.01819
 C1956 C 0.68052 0.17116 1.02662
 H1957 H 0.57786 0.18535 1.04817
 H1958 H 0.55201 0.20098 1.06489
 H1959 H 0.59179 0.23859 1.09188
 H1960 H 0.61761 0.22286 1.07533
 H1961 H 0.62973 0.21856 1.04236
 H1962 H 0.65597 0.20215 1.02730
 H1963 H 0.63171 0.14826 1.04298
 H1964 H 0.60526 0.16475 1.05753
 H1965 H 0.64547 0.14089 1.01351
 H1966 H 0.67199 0.12424 0.99948
 H1967 H 0.70955 0.16806 1.01932
 H1968 H 0.68322 0.18406 1.03443
 C1969 C 0.90396 0.18954 0.93787
 C1970 C 0.90563 0.18636 0.91830
 C1971 C 0.91963 0.19535 0.90779
 C1972 C 0.93270 0.20785 0.91651
 C1973 C 0.93093 0.21062 0.93643
 C1974 C 0.91675 0.20172 0.94682
 C1975 C 0.88862 0.18050 0.94880
 C1976 C 0.87800 0.19114 0.96173
 C1977 C 0.86303 0.18286 0.97145
 C1978 C 0.85847 0.16372 0.96857
 C1979 C 0.86931 0.15297 0.95591
 C1980 C 0.88419 0.16130 0.94605
 C1981 C 0.84218 0.15516 0.97841
 C1982 C 0.84357 0.13704 0.98673
 C1983 C 0.82814 0.12908 0.99604
 C1984 C 0.81099 0.13902 0.99700
 C1985 C 0.80959 0.15708 0.98856
 C1986 C 0.82503 0.16509 0.97942
 H1987 H 0.89592 0.17701 0.91102
 H1988 H 0.92045 0.19156 0.89294
 H1989 H 0.93967 0.22045 0.94420
 H1990 H 0.91578 0.20441 0.96195
 H1991 H 0.88101 0.20600 0.96400
 H1992 H 0.85502 0.19143 0.98126
 H1993 H 0.86602 0.13823 0.95333
 H1994 H 0.89225 0.15273 0.93629
 H1995 H 0.85666 0.12913 0.98624
 H1996 H 0.82956 0.11508 1.00233
 H1997 H 0.79658 0.16512 0.98925
 H1998 H 0.82350 0.17900 0.97296
 C1999 C 0.39620 0.70387 0.43577
 C2000 C 0.40072 0.69777 0.41735
 C2001 C 0.41492 0.70670 0.40707
 C2002 C 0.42498 0.72191 0.41498
 C2003 C 0.42049 0.72801 0.43341
 C2004 C 0.40620 0.71912 0.44368
 C2005 C 0.38109 0.69432 0.44663
 C2006 C 0.36809 0.70495 0.45716
 C2007 C 0.35363 0.69594 0.46705
 C2008 C 0.35193 0.67610 0.46671
 C2009 C 0.36504 0.66546 0.45632
 C2010 C 0.37944 0.67447 0.44637
 C2011 C 0.33647 0.66652 0.47703
 C2012 C 0.33991 0.64967 0.48729
 C2013 C 0.32534 0.64061 0.49694
 C2014 C 0.30699 0.64816 0.49648
 C2015 C 0.30354 0.66499 0.48619
 C2016 C 0.31813 0.67408 0.47660
 H2017 H 0.39313 0.68620 0.41080
 H2018 H 0.41821 0.70152 0.39300
 H2019 H 0.42790 0.73978 0.43982
 H2020 H 0.40314 0.72402 0.45791
 H2021 H 0.36891 0.72027 0.45750
 H2022 H 0.34386 0.70449 0.47510
 H2023 H 0.36399 0.65017 0.45564
 H2024 H 0.38937 0.66589 0.43855
 H2025 H 0.35394 0.64359 0.48803
 H2026 H 0.32839 0.62757 0.50462
 H2027 H 0.28958 0.67124 0.48574
 H2028 H 0.31501 0.68694 0.46865
 C2029 C 0.59036 0.79189 0.43541
 C2030 C 0.59059 0.77471 0.42536
 C2031 C 0.57465 0.76876 0.41520
 C2032 C 0.55820 0.77994 0.41479
 C2033 C 0.55795 0.79702 0.42499
 C2034 C 0.57382 0.80291 0.43518
 C2035 C 0.60735 0.79856 0.44584
 C2036 C 0.60564 0.80717 0.46374
 C2037 C 0.62145 0.81439 0.47313
 C2038 C 0.63936 0.81319 0.46486
 C2039 C 0.64115 0.80419 0.44715
 C2040 C 0.62531 0.79694 0.43774
 C2041 C 0.65597 0.82170 0.47451
 C2042 C 0.67352 0.81238 0.47473
 C2043 C 0.68902 0.82040 0.48409
 C2044 C 0.68727 0.83789 0.49342
 C2045 C 0.66979 0.84730 0.49296
 C2046 C 0.65433 0.83930 0.48363
 H2047 H 0.60308 0.76584 0.42542
 H2048 H 0.57531 0.75561 0.40736
 H2049 H 0.54542 0.80583 0.42511
 H2050 H 0.57327 0.81631 0.44261
 H2051 H 0.59204 0.80831 0.47050
 H2052 H 0.61966 0.82088 0.48694
 H2053 H 0.65473 0.80322 0.44032
 H2054 H 0.62705 0.79058 0.42387
 H2055 H 0.67518 0.79872 0.46799
 H2056 H 0.70227 0.81274 0.48437
 H2057 H 0.66809 0.86097 0.49969
 H2058 H 0.64111 0.84703 0.48336
 C2059 C 0.09234 0.28982 -0.06432
 C2060 C 0.08013 0.27673 -0.05575
 C2061 C 0.06449 0.26985 -0.06576
 C2062 C 0.06064 0.27609 -0.08445
 C2063 C 0.07288 0.28913 -0.09301
 C2064 C 0.08859 0.29587 -0.08308
 C2065 C 0.10879 0.29738 -0.05369
 C2066 C 0.12632 0.29918 -0.06261
 C2067 C 0.14168 0.30691 -0.05283
 C2068 C 0.13982 0.31315 -0.03395
 C2069 C 0.12231 0.31114 -0.02498
 C2070 C 0.10699 0.30328 -0.03473
 C2071 C 0.15599 0.32201 -0.02379
 C2072 C 0.15913 0.31861 -0.00425
 C2073 C 0.17416 0.32722 0.00531
 C2074 C 0.18645 0.33932 -0.00447
 C2075 C 0.18341 0.34264 -0.02400
 C2076 C 0.16833 0.33414 -0.03354
 H2077 H 0.08277 0.27173 -0.04136
 H2078 H 0.05522 0.25989 -0.05879
 H2079 H 0.07037 0.29403 -0.10746
 H2080 H 0.09766 0.30607 -0.08997
 H2081 H 0.12818 0.29449 -0.07713
 H2082 H 0.15505 0.30789 -0.06004
 H2083 H 0.12030 0.31606 -0.01056
 H2084 H 0.09357 0.30227 -0.02759
 H2085 H 0.15010 0.30911 0.00362
 H2086 H 0.17632 0.32423 0.02032
 H2087 H 0.19250 0.35213 -0.03183
 H2088 H 0.16612 0.33737 -0.04849
 C2089 C 0.40420 0.30032 0.06411
 C2090 C 0.41642 0.28782 0.05473
 C2091 C 0.43268 0.28097 0.06390
 C2092 C 0.43712 0.28665 0.08255
 C2093 C 0.42491 0.29918 0.09190
 C2094 C 0.40859 0.30588 0.08280
 C2095 C 0.38695 0.30763 0.05442
 C2096 C 0.36979 0.30854 0.06418
 C2097 C 0.35359 0.31563 0.05513
 C2098 C 0.35420 0.32209 0.03616
 C2099 C 0.37141 0.32115 0.02642
 C2100 C 0.38757 0.31393 0.03543
 C2101 C 0.33701 0.32984 0.02658
 C2102 C 0.33341 0.32616 0.00722
 C2103 C 0.31739 0.33362 -0.00185
 C2104 C 0.30453 0.34482 0.00825
 C2105 C 0.30800 0.34839 0.02762
 C2106 C 0.32410 0.34104 0.03667
 H2107 H 0.41330 0.28318 0.04037
 H2108 H 0.44190 0.27141 0.05633
 H2109 H 0.42787 0.30363 0.10635
 H2110 H 0.39951 0.31563 0.09030
 H2111 H 0.36886 0.30354 0.07875
 H2112 H 0.34052 0.31583 0.06294
 H2113 H 0.37247 0.32631 0.01192
 H2114 H 0.40067 0.31364 0.02766
 H2115 H 0.34285 0.31730 -0.00089
 H2116 H 0.31492 0.33041 -0.01673
 H2117 H 0.29844 0.35718 0.03568
 H2118 H 0.32659 0.34442 0.05150
 C2119 C 0.90130 0.79105 0.57070
 C2120 C 0.91247 0.77698 0.56223
 C2121 C 0.92826 0.76959 0.57179
 C2122 C 0.93323 0.77612 0.59003
 C2123 C 0.92193 0.79003 0.59857
 C2124 C 0.90616 0.79741 0.58902
 C2125 C 0.88475 0.79924 0.56043
 C2126 C 0.88094 0.81879 0.56127
 C2127 C 0.86540 0.82655 0.55162
 C2128 C 0.85331 0.81495 0.54089
 C2129 C 0.85709 0.79540 0.54006
 C2130 C 0.87266 0.78763 0.54971
 C2131 C 0.83687 0.82326 0.53053
 C2132 C 0.81947 0.81384 0.53017
 C2133 C 0.80404 0.82165 0.52035
 C2134 C 0.80569 0.83903 0.51063
 C2135 C 0.82307 0.84848 0.51105
 C2136 C 0.83848 0.84069 0.52089
 H2137 H 0.90923 0.77197 0.54802
 H2138 H 0.93682 0.75904 0.56476
 H2139 H 0.92517 0.79509 0.61275
 H2140 H 0.89763 0.80796 0.59608
 H2141 H 0.89010 0.82814 0.56923
 H2142 H 0.86275 0.84163 0.55270
 H2143 H 0.84815 0.78612 0.53176
 H2144 H 0.87512 0.77249 0.54893
 H2145 H 0.81773 0.80050 0.53764
 H2146 H 0.79088 0.81396 0.52013
 H2147 H 0.82472 0.86200 0.50389
 H2148 H 0.85174 0.84820 0.52074
   
