data_POSCAR
  _audit_creation_date              2014-09-24
  _audit_creation_method            'ToBaCCo'
  _symmetry_space_group_name_H-M    'P1'
  _symmetry_Int_Tables_number       1
  _symmetry_cell_setting            triclinic
  loop_
  _symmetry_equiv_pos_as_xyz
 x,y,z
_cell_length_a 57.1814
_cell_length_b 58.8433
_cell_length_c 57.0680
_cell_angle_alpha 87.951500
_cell_angle_beta 89.568900
_cell_angle_gamma 90.134700
loop_
  _atom_site_label
  _atom_site_type_symbol
  _atom_site_fract_x
  _atom_site_fract_y
  _atom_site_fract_z
C1 C 0.74880 0.61927 1.04013
 C2 C 0.76111 0.62994 1.02139
 C3 C 0.78262 0.64064 1.02546
 C4 C 0.79185 0.64093 1.04828
 C5 C 0.77938 0.62982 1.06670
 C6 C 0.75786 0.61903 1.06302
 C7 C 0.75120 0.62998 0.99750
 C8 C 0.72823 0.63746 0.99361
 C9 C 0.71857 0.63759 0.97110
 C10 C 0.73183 0.62896 0.95253
 C11 C 0.75475 0.62102 0.95625
 C12 C 0.76448 0.62215 0.97868
 H13 H 0.73257 0.61077 1.03636
 H14 H 0.79148 0.64916 1.01082
 H15 H 0.71805 0.64375 1.00811
 H16 H 0.78218 0.61620 0.98169
 H17 H 0.78642 0.62985 1.08432
 H18 H 0.72439 0.62845 0.93521
 C19 C 0.74686 0.39121 0.47424
 C20 C 0.76154 0.38246 0.49191
 C21 C 0.78459 0.37642 0.48636
 C22 C 0.79284 0.37866 0.46310
 C23 C 0.77816 0.38816 0.44575
 C24 C 0.75513 0.39455 0.45120
 C25 C 0.75245 0.37927 0.51608
 C26 C 0.73266 0.36565 0.52045
 C27 C 0.72306 0.36329 0.54305
 C28 C 0.73362 0.37466 0.56151
 C29 C 0.75372 0.38807 0.55750
 C30 C 0.76302 0.39035 0.53461
 H31 H 0.72902 0.39577 0.47856
 H32 H 0.79582 0.36973 0.50014
 H33 H 0.72463 0.35697 0.50611
 H34 H 0.77791 0.40130 0.53086
 H35 H 0.78446 0.38964 0.42781
 H36 H 0.72665 0.37265 0.57916
 C37 C 0.25562 -0.10632 -0.03341
 C38 C 0.26628 -0.11580 -0.01332
 C39 C 0.28785 -0.12687 -0.01536
 C40 C 0.29893 -0.12876 -0.03729
 C41 C 0.28795 -0.11897 -0.05732
 C42 C 0.26647 -0.10760 -0.05549
 C43 C 0.25446 -0.11492 0.00977
 C44 C 0.23171 -0.12360 0.01275
 C45 C 0.22070 -0.12427 0.03489
 C46 C 0.23261 -0.11486 0.05388
 C47 C 0.25514 -0.10561 0.05101
 C48 C 0.26617 -0.10613 0.02896
 H49 H 0.23866 -0.09837 -0.03170
 H50 H 0.29575 -0.13448 0.00026
 H51 H 0.22297 -0.13067 -0.00215
 H52 H 0.28389 -0.09994 0.02656
 H53 H 0.29547 -0.12058 -0.07461
 H54 H 0.22457 -0.11410 0.07100
 C55 C 0.24336 0.11183 0.53420
 C56 C 0.25332 0.12032 0.51307
 C57 C 0.27581 0.12993 0.51317
 C58 C 0.28793 0.13197 0.53426
 C59 C 0.27785 0.12319 0.55523
 C60 C 0.25575 0.11278 0.55535
 C61 C 0.23973 0.12018 0.49110
 C62 C 0.21699 0.12913 0.49056
 C63 C 0.20421 0.13010 0.46970
 C64 C 0.21446 0.12198 0.44916
 C65 C 0.23701 0.11262 0.44943
 C66 C 0.24967 0.11195 0.47049
 H67 H 0.22586 0.10480 0.53401
 H68 H 0.28346 0.13677 0.49696
 H69 H 0.20943 0.13587 0.50634
 H70 H 0.26738 0.10549 0.47089
 H71 H 0.28740 0.12399 0.57151
 H72 H 0.20521 0.12336 0.43269
 C73 C 0.11089 0.52039 0.24445
 C74 C 0.12019 0.50231 0.25797
 C75 C 0.12850 0.50609 0.28050
 C76 C 0.12821 0.52799 0.28936
 C77 C 0.11805 0.54592 0.27599
 C78 C 0.10915 0.54228 0.25339
 C79 C 0.12144 0.47948 0.24828
 C80 C 0.13506 0.47587 0.22828
 C81 C 0.13578 0.45443 0.21838
 C82 C 0.12273 0.43641 0.22887
 C83 C 0.10907 0.43982 0.24908
 C84 C 0.10857 0.46147 0.25863
 H85 H 0.10449 0.51714 0.22703
 H86 H 0.13601 0.49210 0.29077
 H87 H 0.14505 0.48986 0.22036
 H88 H 0.09791 0.46442 0.27401
 H89 H 0.11732 0.56252 0.28334
 H90 H 0.12322 0.41987 0.22128
 C91 C -0.10038 -0.02779 0.23279
 C92 C -0.11340 -0.01106 0.24382
 C93 C -0.12506 -0.01654 0.26496
 C94 C -0.12394 -0.03855 0.27526
 C95 C -0.11068 -0.05520 0.26392
 C96 C -0.09868 -0.04986 0.24276
 C97 C -0.11542 0.01208 0.23303
 C98 C -0.12200 0.01508 0.20950
 C99 C -0.12582 0.03694 0.19950
 C100 C -0.12143 0.05599 0.21324
 C101 C -0.11411 0.05318 0.23665
 C102 C -0.11167 0.03118 0.24650
 H103 H -0.09136 -0.02353 0.21643
 H104 H -0.13543 -0.00357 0.27318
 H105 H -0.12530 0.00019 0.19934
 H106 H -0.10643 0.02888 0.26465
 H107 H -0.11060 -0.07248 0.27078
 H108 H -0.12373 0.07301 0.20605
 C109 C 0.39599 0.46416 0.74045
 C110 C 0.38302 0.48045 0.75227
 C111 C 0.37385 0.47511 0.77470
 C112 C 0.37751 0.45342 0.78538
 C113 C 0.39106 0.43756 0.77338
 C114 C 0.40002 0.44259 0.75078
 C115 C 0.37839 0.50283 0.74067
 C116 C 0.36730 0.50399 0.71882
 C117 C 0.36288 0.52503 0.70747
 C118 C 0.36969 0.54508 0.71827
 C119 C 0.38112 0.54424 0.73998
 C120 C 0.38511 0.52296 0.75129
 H121 H 0.40290 0.46832 0.72307
 H122 H 0.36339 0.48777 0.78312
 H123 H 0.36193 0.48844 0.71073
 H124 H 0.39328 0.52182 0.76832
 H125 H 0.39461 0.42119 0.78184
 H126 H 0.36589 0.56148 0.70998
 C127 C 0.60545 1.01513 0.73803
 C128 C 0.61562 0.99594 0.74900
 C129 C 0.62567 0.99759 0.77123
 C130 C 0.62676 1.01865 0.78209
 C131 C 0.61567 1.03759 0.77111
 C132 C 0.60494 1.03598 0.74922
 C133 C 0.61779 0.97482 0.73602
 C134 C 0.63069 0.97512 0.71503
 C135 C 0.63288 0.95547 0.70217
 C136 C 0.62205 0.93528 0.71046
 C137 C 0.60927 0.93457 0.73159
 C138 C 0.60734 0.95449 0.74446
 H139 H 0.59854 1.01366 0.72056
 H140 H 0.63406 0.98276 0.77924
 H141 H 0.63920 0.99071 0.70879
 H142 H 0.59808 0.95435 0.76107
 H143 H 0.61485 1.05374 0.77953
 H144 H 0.62421 0.91988 0.70083
 C145 C -0.03221 0.24498 -0.11715
 C146 C -0.01250 0.25752 -0.12471
 C147 C -0.01538 0.27958 -0.13445
 C148 C -0.03765 0.28946 -0.13644
 C149 C -0.05726 0.27655 -0.12879
 C150 C -0.05468 0.25448 -0.11901
 C151 C 0.01127 0.24782 -0.12220
 C152 C 0.01643 0.22610 -0.13032
 C153 C 0.03939 0.21740 -0.12890
 C154 C 0.05681 0.23064 -0.11861
 C155 C 0.05175 0.25220 -0.11011
 C156 C 0.02903 0.26073 -0.11224
 H157 H -0.02993 0.22785 -0.11001
 H158 H -0.00008 0.28909 -0.14050
 H159 H 0.00260 0.21674 -0.13848
 H160 H 0.02508 0.27747 -0.10594
 H161 H -0.07478 0.28317 -0.13078
 H162 H 0.07461 0.22442 -0.11800
 C163 C 0.54977 0.25354 0.11899
 C164 C 0.53051 0.26510 0.12816
 C165 C 0.53360 0.28704 0.13657
 C166 C 0.55579 0.29735 0.13616
 C167 C 0.57479 0.28565 0.12672
 C168 C 0.57192 0.26395 0.11780
 C169 C 0.50696 0.25463 0.12823
 C170 C 0.50342 0.23233 0.13714
 C171 C 0.48092 0.22273 0.13792
 C172 C 0.46204 0.23530 0.12851
 C173 C 0.46547 0.25749 0.11914
 C174 C 0.48787 0.26711 0.11948
 H175 H 0.54733 0.23660 0.11261
 H176 H 0.51857 0.29602 0.14316
 H177 H 0.51807 0.22274 0.14423
 H178 H 0.49060 0.28426 0.11237
 H179 H 0.59190 0.29366 0.12595
 H180 H 0.44473 0.22790 0.12862
 C181 C 1.03518 0.74853 0.63277
 C182 C 1.01616 0.76185 0.63957
 C183 C 1.02011 0.78362 0.64816
 C184 C 1.04306 0.79211 0.65024
 C185 C 1.06182 0.77847 0.64322
 C186 C 1.05809 0.75696 0.63418
 C187 C 0.99200 0.75332 0.63703
 C188 C 0.98518 0.73240 0.64763
 C189 C 0.96198 0.72469 0.64580
 C190 C 0.94591 0.73790 0.63282
 C191 C 0.95267 0.75856 0.62163
 C192 C 0.97565 0.76633 0.62420
 H193 H 1.03200 0.73177 0.62621
 H194 H 1.00513 0.79366 0.65291
 H195 H 0.99775 0.72282 0.65802
 H196 H 0.98095 0.78243 0.61595
 H197 H 1.07960 0.78480 0.64433
 H198 H 0.92792 0.73223 0.63199
 C199 C 0.46162 0.75694 0.39285
 C200 C 0.48299 0.76493 0.38351
 C201 C 0.48432 0.78688 0.37315
 C202 C 0.46446 0.80081 0.37183
 C203 C 0.44313 0.79255 0.38124
 C204 C 0.44161 0.77078 0.39205
 C205 C 0.50372 0.74996 0.38376
 C206 C 0.50250 0.72849 0.37390
 C207 C 0.52220 0.71437 0.37343
 C208 C 0.54327 0.72197 0.38304
 C209 C 0.54468 0.74320 0.39336
 C210 C 0.52483 0.75730 0.39337
 H211 H 0.46067 0.73977 0.40025
 H212 H 0.50073 0.79289 0.36555
 H213 H 0.48629 0.72296 0.36616
 H214 H 0.52568 0.77409 0.40044
 H215 H 0.42743 0.80272 0.37968
 H216 H 0.55886 0.71162 0.38215
 C217 C 0.40467 -0.00354 0.28409
 H218 H 0.40298 0.01385 0.28940
 C219 C 0.41775 -0.01906 0.29766
 H220 H 0.42630 -0.01345 0.31332
 C221 C 0.39417 -0.03240 0.25821
 H222 H 0.38416 -0.03782 0.24344
 C223 C 0.40711 -0.04843 0.27119
 H224 H 0.40670 -0.06592 0.26603
 N225 N 0.39298 -0.01049 0.26494
 C226 C 0.37194 0.04926 0.22303
 H227 H 0.35369 0.04476 0.22135
 C228 C 0.38035 0.06940 0.21256
 H229 H 0.36844 0.08035 0.20276
 C230 C 0.40940 0.04052 0.23834
 H231 H 0.42054 0.02923 0.24858
 C232 C 0.41864 0.06060 0.22802
 H233 H 0.43684 0.06466 0.23077
 Zn234 Zn 0.37147 0.00981 0.25031
 N235 N 0.38632 0.03550 0.23597
 C236 C 0.34967 0.04198 0.27882
 N237 N 0.35082 0.01954 0.27410
 C238 C 0.33912 0.00370 0.28758
 C239 C 0.32559 0.01026 0.30670
 C240 C 0.33633 0.04932 0.29764
 C241 C 0.36821 -0.01055 0.20734
 C242 C 0.35771 -0.02053 0.18826
 C243 C 0.32050 -0.01842 0.20840
 C244 C 0.33179 -0.00847 0.22713
 N245 N 0.35526 -0.00484 0.22628
 H246 H 0.35969 0.05430 0.26847
 H247 H 0.34073 -0.01412 0.28379
 H248 H 0.31666 -0.00272 0.31735
 H249 H 0.33664 0.06726 0.30094
 H250 H 0.38683 -0.00724 0.20707
 H251 H 0.36893 -0.02496 0.17386
 H252 H 0.30176 -0.02109 0.20944
 H253 H 0.32174 -0.00345 0.24219
 C254 C 0.40389 0.07541 0.21509
 C255 C 0.41887 -0.04189 0.29143
 C256 C 0.33335 -0.02450 0.18844
 C257 C 0.32405 0.03336 0.31212
 C258 C 0.08503 1.02431 0.79015
 H259 H 0.08526 1.00729 0.79798
 C260 C 0.07268 1.04154 0.80107
 H261 H 0.06332 1.03768 0.81731
 C262 C 0.09760 1.05024 0.75992
 H263 H 0.10761 1.05376 0.74409
 C264 C 0.08546 1.06789 0.77016
 H265 H 0.08580 1.08454 0.76150
 N266 N 0.09729 1.02896 0.77002
 C267 C 0.10872 0.96584 0.73409
 H268 H 0.12746 0.96718 0.73165
 C269 C 0.09660 0.94767 0.72492
 H270 H 0.10639 0.93486 0.71593
 C271 C 0.07364 0.98075 0.74962
 H272 H 0.06478 0.99380 0.75911
 C273 C 0.06078 0.96275 0.74074
 H274 H 0.04204 0.96199 0.74358
 Zn275 Zn 0.11587 1.00583 0.75707
 N276 N 0.09720 0.98185 0.74626
 C277 C 0.13642 0.97218 0.78712
 N278 N 0.13644 0.99465 0.78071
 C279 C 0.15029 1.00966 0.79174
 C280 C 0.16519 1.00215 0.80970
 C281 C 0.15110 0.96389 0.80487
 C282 C 0.12006 1.02382 0.71147
 C283 C 0.13108 1.03257 0.69121
 C284 C 0.16830 1.02814 0.71056
 C285 C 0.15650 1.01945 0.73050
 N286 N 0.13278 1.01774 0.73069
 H287 H 0.12478 0.96058 0.77871
 H288 H 0.14966 1.02752 0.78662
 H289 H 0.17606 1.01447 0.81820
 H290 H 0.15005 0.94598 0.80956
 H291 H 0.10124 1.02193 0.71197
 H292 H 0.12044 1.03742 0.67622
 H293 H 0.18714 1.02904 0.71120
 H294 H 0.16635 1.01399 0.74575
 C295 C 0.07223 0.94608 0.72797
 C296 C 0.07323 1.06377 0.79135
 C297 C 0.15553 1.03506 0.69047
 C298 C 0.16597 0.97893 0.81646
 C299 C 0.58432 0.52138 0.29393
 H300 H 0.58573 0.50373 0.29971
 C301 C 0.57191 0.53664 0.30749
 H302 H 0.56364 0.53061 0.32369
 C303 C 0.59446 0.55096 0.26643
 H304 H 0.60393 0.55666 0.25086
 C305 C 0.58220 0.56675 0.27939
 H306 H 0.58264 0.58442 0.27351
 N307 N 0.59534 0.52877 0.27387
 C308 C 0.60912 0.47043 0.23135
 H309 H 0.62759 0.47341 0.22829
 C310 C 0.59809 0.45223 0.22108
 H311 H 0.60844 0.44105 0.21052
 C312 C 0.57371 0.48110 0.24977
 H313 H 0.56433 0.49249 0.26089
 C314 C 0.56194 0.46294 0.23987
 H315 H 0.54349 0.46036 0.24354
 Zn316 Zn 0.61455 0.50813 0.25797
 N317 N 0.59695 0.48431 0.24549
 C318 C 0.63670 0.47315 0.28475
 N319 N 0.63633 0.49592 0.27986
 C320 C 0.65053 0.51030 0.29131
 C321 C 0.66611 0.50185 0.30823
 C322 C 0.65190 0.46396 0.30157
 C323 C 0.61628 0.53026 0.21408
 C324 C 0.62631 0.54035 0.19392
 C325 C 0.66439 0.53531 0.21139
 C326 C 0.65356 0.52522 0.23120
 N327 N 0.62991 0.52303 0.23224
 H328 H 0.62502 0.46198 0.27581
 H329 H 0.64963 0.52840 0.28737
 H330 H 0.67723 0.51368 0.31711
 H331 H 0.65172 0.44574 0.30444
 H332 H 0.59752 0.52798 0.21523
 H333 H 0.61498 0.54589 0.17971
 H334 H 0.68320 0.53665 0.21149
 H335 H 0.66415 0.51890 0.24558
 C336 C 0.57412 0.44839 0.22516
 C337 C 0.57080 0.55965 0.30031
 C338 C 0.65072 0.54300 0.19219
 C339 C 0.66685 0.47839 0.31384
 C340 C 0.89828 0.48788 0.78996
 H341 H 0.89765 0.50491 0.79648
 C342 C 0.90880 0.47039 0.80331
 H343 H 0.91639 0.47405 0.82010
 C344 C 0.88802 0.46209 0.76076
 H345 H 0.87923 0.45867 0.74459
 C346 C 0.89858 0.44420 0.77337
 H347 H 0.89760 0.42727 0.76665
 N348 N 0.88801 0.48342 0.76919
 C349 C 0.88119 0.54616 0.72707
 H350 H 0.86264 0.54529 0.72357
 C351 C 0.89443 0.56427 0.71778
 H352 H 0.88592 0.57705 0.70675
 C353 C 0.91469 0.52997 0.74523
 H354 H 0.92245 0.51651 0.75593
 C355 C 0.92867 0.54781 0.73616
 H356 H 0.94718 0.54806 0.74002
 Zn357 Zn 0.87105 0.50693 0.75351
 N358 N 0.89132 0.52975 0.74090
 C359 C 0.85298 0.54212 0.78075
 N360 N 0.85069 0.51977 0.77589
 C361 C 0.83539 0.50612 0.78816
 C362 C 0.82165 0.51486 0.80608
 C363 C 0.83970 0.55156 0.79855
 C364 C 0.86758 0.48850 0.70955
 C365 C 0.85718 0.47851 0.69042
 C366 C 0.81961 0.48244 0.70946
 C367 C 0.83080 0.49246 0.72822
 N368 N 0.85445 0.49485 0.72813
 H369 H 0.86550 0.55268 0.77119
 H370 H 0.83420 0.48828 0.78430
 H371 H 0.80974 0.50357 0.81573
 H372 H 0.84207 0.56943 0.80142
 H373 H 0.88634 0.49091 0.70980
 H374 H 0.86856 0.47373 0.67629
 H375 H 0.80078 0.48036 0.71013
 H376 H 0.82059 0.49801 0.74293
 C377 C 0.91842 0.56552 0.72275
 C378 C 0.90901 0.44824 0.79504
 C379 C 0.83276 0.47492 0.69027
 C380 C 0.82393 0.53781 0.81189
 C381 C 0.28222 0.37600 -0.03754
 H382 H 0.28397 0.35769 -0.03641
 C383 C 0.29275 0.38842 -0.05600
 H384 H 0.30297 0.37942 -0.06870
 C385 C 0.26759 0.40975 -0.02143
 H386 H 0.25792 0.41796 -0.00778
 C387 C 0.27788 0.42289 -0.03968
 H388 H 0.27594 0.44121 -0.04004
 N389 N 0.26961 0.38670 -0.02096
 C390 C 0.24810 0.38162 0.04898
 H391 H 0.26271 0.37077 0.05347
 C392 C 0.23549 0.39172 0.06683
 H393 H 0.24072 0.38834 0.08478
 C394 C 0.22234 0.39720 0.02035
 H395 H 0.21699 0.39868 0.00222
 C396 C 0.20917 0.40757 0.03768
 H397 H 0.19377 0.41725 0.03275
 Zn398 Zn 0.25589 0.36758 0.00266
 N399 N 0.24133 0.38443 0.02627
 C400 C 0.29875 0.36005 0.02457
 N401 N 0.27997 0.34921 0.01569
 C402 C 0.27888 0.32613 0.01571
 C403 C 0.29677 0.31305 0.02576
 C404 C 0.31705 0.34768 0.03479
 C405 C 0.22694 0.35168 -0.03349
 C406 C 0.20868 0.33910 -0.04272
 C407 C 0.20169 0.32212 -0.00412
 C408 C 0.22000 0.33514 0.00435
 N409 N 0.23230 0.34944 -0.01036
 H410 H 0.29939 0.37845 0.02384
 H411 H 0.26415 0.31778 0.00795
 H412 H 0.29535 0.29468 0.02578
 H413 H 0.33155 0.35717 0.04149
 H414 H 0.23663 0.36345 -0.04483
 H415 H 0.20536 0.34124 -0.06126
 H416 H 0.19217 0.31084 0.00799
 H417 H 0.22437 0.33397 0.02277
 C418 C 0.21560 0.40479 0.06127
 C419 C 0.29023 0.41219 -0.05751
 C420 C 0.19553 0.32411 -0.02791
 C421 C 0.31612 0.32369 0.03583
 C422 C 0.77610 0.08682 1.01062
 H423 H 0.78477 0.08777 0.99370
 C424 C 0.78671 0.07525 1.02958
 H425 H 0.80329 0.06698 1.02678
 C426 C 0.74454 0.09765 1.03488
 H427 H 0.72860 0.10705 1.03728
 C428 C 0.75431 0.08610 1.05412
 H429 H 0.74553 0.08662 1.07098
 N430 N 0.75572 0.09824 1.01376
 C431 C 0.72096 0.11865 0.94890
 H432 H 0.72058 0.13669 0.95196
 C433 C 0.71042 0.11036 0.92908
 H434 H 0.70194 0.12219 0.91691
 C435 C 0.73270 0.08152 0.96117
 H436 H 0.74149 0.07048 0.97382
 C437 C 0.72232 0.07241 0.94137
 H438 H 0.72349 0.05433 0.93890
 Zn439 Zn 0.74532 0.11893 0.98993
 N440 N 0.73198 0.10432 0.96434
 C441 C 0.77782 0.13632 0.95632
 N442 N 0.77154 0.13634 0.97934
 C443 C 0.78461 0.14744 0.99513
 C444 C 0.80459 0.15956 0.98784
 C445 C 0.79760 0.14818 0.94825
 C446 C 0.70056 0.12768 1.00642
 C447 C 0.68227 0.13990 1.01612
 C448 C 0.70740 0.17296 1.01616
 C449 C 0.72525 0.16003 1.00640
 N450 N 0.72168 0.13770 1.00221
 H451 H 0.76774 0.12677 0.94413
 H452 H 0.77960 0.14671 1.01346
 H453 H 0.81468 0.16830 1.00077
 H454 H 0.80193 0.14722 0.92989
 H455 H 0.69807 0.10998 1.00255
 H456 H 0.66575 0.13133 1.01964
 H457 H 0.71106 0.19061 1.01922
 H458 H 0.74196 0.16786 1.00234
 C459 C 0.71103 0.08703 0.92500
 C460 C 0.77605 0.07545 1.05189
 C461 C 0.68554 0.16278 1.02156
 C462 C 0.81136 0.16024 0.96406
 C463 C 0.27812 0.59920 0.51112
 H464 H 0.28372 0.60252 0.49317
 C465 C 0.29177 0.58557 0.52619
 H466 H 0.30781 0.57826 0.51968
 C467 C 0.25128 0.60602 0.54190
 H468 H 0.23607 0.61475 0.54829
 C469 C 0.26429 0.59243 0.55748
 H470 H 0.25873 0.59108 0.57563
 N471 N 0.25845 0.60931 0.51925
 C472 C 0.21675 0.63282 0.45961
 H473 H 0.21482 0.65034 0.46441
 C474 C 0.20630 0.62536 0.43931
 H475 H 0.19631 0.63726 0.42850
 C476 C 0.23238 0.59615 0.46788
 H477 H 0.24264 0.58492 0.47909
 C478 C 0.22207 0.58789 0.44768
 H479 H 0.22489 0.57036 0.44338
 Zn480 Zn 0.24339 0.63130 0.49967
 N481 N 0.22977 0.61836 0.47321
 C482 C 0.27115 0.65652 0.46658
 N483 N 0.26646 0.65286 0.48980
 C484 C 0.27935 0.66307 0.50636
 C485 C 0.29775 0.67768 0.49979
 C486 C 0.28928 0.67105 0.45920
 C487 C 0.20019 0.63188 0.52236
 C488 C 0.18122 0.64086 0.53438
 C489 C 0.20070 0.67737 0.53321
 C490 C 0.21934 0.66761 0.52120
 N491 N 0.21886 0.64519 0.51630
 H492 H 0.26127 0.64771 0.45365
 H493 H 0.27560 0.65950 0.52474
 H494 H 0.30792 0.68541 0.51334
 H495 H 0.29262 0.67284 0.44059
 H496 H 0.20011 0.61417 0.51788
 H497 H 0.16663 0.62979 0.53911
 H498 H 0.20183 0.69527 0.53650
 H499 H 0.23409 0.67804 0.51569
 C500 C 0.20889 0.60269 0.43308
 C501 C 0.28502 0.58223 0.54975
 C502 C 0.18123 0.66387 0.54018
 C503 C 0.30306 0.68190 0.47591
 C504 C 0.78552 0.89632 0.47120
 H505 H 0.79044 0.89791 0.48934
 C506 C 0.79944 0.90616 0.45334
 H507 H 0.81503 0.91551 0.45781
 C508 C 0.75995 0.88106 0.44326
 H509 H 0.74512 0.87050 0.43935
 C510 C 0.77325 0.89075 0.42488
 H511 H 0.76833 0.88745 0.40705
 N512 N 0.76632 0.88390 0.46589
 C513 C 0.72769 0.87701 0.53166
 H514 H 0.72794 0.85865 0.53353
 C515 C 0.71695 0.88973 0.54876
 H516 H 0.70885 0.88106 0.56379
 C517 C 0.73728 0.91050 0.50923
 H518 H 0.74500 0.91838 0.49360
 C519 C 0.72605 0.92391 0.52568
 H520 H 0.72528 0.94219 0.52280
 Zn521 Zn 0.75089 0.86777 0.49069
 N522 N 0.73796 0.88750 0.51262
 C523 C 0.78102 0.85373 0.52728
 N524 N 0.77360 0.84884 0.50546
 C525 C 0.78379 0.83204 0.49326
 C526 C 0.80204 0.81924 0.50312
 C527 C 0.79922 0.84149 0.53777
 C528 C 0.70805 0.86414 0.46959
 C529 C 0.68771 0.85411 0.46153
 C530 C 0.70305 0.81734 0.47367
 C531 C 0.72321 0.82819 0.48151
 N532 N 0.72536 0.85117 0.47919
 H533 H 0.77331 0.86762 0.53646
 H534 H 0.77800 0.82885 0.47567
 H535 H 0.80996 0.80602 0.49299
 H536 H 0.80411 0.84592 0.55525
 H537 H 0.71005 0.88244 0.46837
 H538 H 0.67422 0.86495 0.45398
 H539 H 0.70192 0.79910 0.47610
 H540 H 0.73690 0.81825 0.48982
 C541 C 0.71608 0.91347 0.54586
 C542 C 0.79343 0.90333 0.42985
 C543 C 0.68484 0.83040 0.46345
 C544 C 0.81037 0.82409 0.52554
 C545 C -0.03193 0.27831 0.39022
 H546 H -0.01941 0.28811 0.37982
 C547 C -0.04824 0.28960 0.40388
 H548 H -0.04775 0.30796 0.40376
 C549 C -0.04645 0.24255 0.40409
 H550 H -0.04549 0.22419 0.40419
 C551 C -0.06313 0.25315 0.41798
 H552 H -0.07511 0.24282 0.42863
 N553 N -0.03170 0.25520 0.39008
 C554 C 0.01015 0.19862 0.38672
 H555 H -0.00098 0.19101 0.37395
 C556 C 0.02582 0.18498 0.39943
 H557 H 0.02677 0.16699 0.39610
 C558 C 0.02249 0.23114 0.40662
 H559 H 0.02103 0.24920 0.40926
 C560 C 0.03857 0.21814 0.41962
 H561 H 0.04909 0.22638 0.43250
 Zn562 Zn -0.01006 0.24012 0.37065
 N563 N 0.00930 0.22139 0.38996
 C564 C 0.03195 0.26245 0.35549
 N565 N 0.00833 0.26166 0.35314
 C566 C -0.00284 0.27582 0.33760
 C567 C 0.00964 0.29230 0.32442
 C568 C 0.04515 0.27859 0.34264
 C569 C -0.04897 0.21813 0.34946
 C570 C -0.05927 0.20343 0.33378
 C571 C -0.02131 0.19811 0.31597
 C572 C -0.01177 0.21270 0.33211
 N573 N -0.02552 0.22199 0.34873
 H574 H 0.04070 0.25058 0.36728
 H575 H -0.02159 0.27443 0.33562
 H576 H -0.00006 0.30311 0.31234
 H577 H 0.06393 0.27902 0.34508
 H578 H -0.05975 0.22619 0.36234
 H579 H -0.07793 0.20080 0.33505
 H580 H -0.00983 0.19062 0.30319
 H581 H 0.00679 0.21631 0.33171
 C582 C 0.04082 0.19481 0.41555
 C583 C -0.06455 0.27697 0.41757
 C584 C -0.04527 0.19277 0.31694
 C585 C 0.03409 0.29412 0.32709
 C586 C 1.03357 0.77912 0.09587
 H587 H 1.01660 0.78676 0.09299
 C588 C 1.05354 0.78941 0.08586
 H589 H 1.05148 0.80484 0.07526
 C590 C 1.05670 0.75073 0.11478
 H591 H 1.05808 0.73603 0.12654
 C592 C 1.07701 0.76032 0.10504
 H593 H 1.09374 0.75270 0.10936
 N594 N 1.03552 0.76040 0.11044
 C595 C 0.96941 0.72377 0.11786
 H596 H 0.97077 0.71906 0.13628
 C597 C 0.95099 0.71532 0.10492
 H598 H 0.93838 0.70411 0.11364
 C599 C 0.98519 0.74279 0.08403
 H600 H 0.99864 0.75338 0.07592
 C601 C 0.96699 0.73460 0.07033
 H602 H 0.96649 0.73907 0.05177
 Zn603 Zn 1.00913 0.74884 0.12758
 N604 N 0.98577 0.73766 0.10748
 C605 C 0.97597 0.76796 0.15802
 N606 N 0.99624 0.77215 0.14602
 C607 C 1.00743 0.79248 0.14740
 C608 C 0.99790 0.80979 0.16060
 C609 C 0.96585 0.78472 0.17147
 C610 C 1.02378 0.70424 0.13805
 C611 C 1.03213 0.68607 0.15196
 C612 C 1.02995 0.70989 0.18554
 C613 C 1.02160 0.72756 0.17095
 N614 N 1.01890 0.72450 0.14765
 H615 H 0.96757 0.75159 0.15723
 H616 H 1.02395 0.79532 0.13848
 H617 H 1.00759 0.82551 0.16128
 H618 H 0.94958 0.78093 0.18069
 H619 H 1.02142 0.70230 0.11943
 H620 H 1.03569 0.67037 0.14344
 H621 H 1.03223 0.71286 0.20402
 H622 H 1.01770 0.74387 0.17818
 C623 C 0.94930 0.72116 0.08092
 C624 C 1.07572 0.78017 0.09081
 C625 C 1.03568 0.68880 0.17616
 C626 C 0.97655 0.80616 0.17273
 C627 C 0.52320 0.27546 0.59620
 H628 H 0.50537 0.28027 0.59251
 C629 C 0.54155 0.28849 0.58647
 H630 H 0.53766 0.30311 0.57512
 C631 C 0.55005 0.25157 0.61660
 H632 H 0.55336 0.23786 0.62921
 C633 C 0.56889 0.26402 0.60716
 H634 H 0.58638 0.25949 0.61267
 N635 N 0.52770 0.25748 0.61113
 C636 C 0.47359 0.21177 0.60388
 H637 H 0.48457 0.19875 0.61165
 C638 C 0.45375 0.20528 0.59168
 H639 H 0.45001 0.18734 0.59046
 C640 C 0.46389 0.25065 0.59816
 H641 H 0.46733 0.26827 0.60163
 C642 C 0.44372 0.24489 0.58598
 H643 H 0.43202 0.25821 0.57977
 Zn644 Zn 0.50261 0.24267 0.62761
 N645 N 0.47827 0.23414 0.60704
 C646 C 0.46816 0.25911 0.65807
 N647 N 0.48973 0.26334 0.64876
 C648 C 0.50153 0.28275 0.65326
 C649 C 0.49139 0.29922 0.66710
 C650 C 0.45729 0.27513 0.67195
 C651 C 0.52536 0.20044 0.63202
 C652 C 0.53335 0.18053 0.64327
 C653 C 0.51850 0.19431 0.67986
 C654 C 0.51071 0.21392 0.66782
 N655 N 0.51397 0.21649 0.64426
 H656 H 0.45915 0.24352 0.65421
 H657 H 0.51879 0.28565 0.64588
 H658 H 0.50152 0.31431 0.67005
 H659 H 0.43989 0.27154 0.67879
 H660 H 0.52811 0.20308 0.61334
 H661 H 0.54248 0.16848 0.63274
 H662 H 0.51549 0.19257 0.69861
 H663 H 0.50188 0.22700 0.67732
 C664 C 0.43833 0.22195 0.58279
 C665 C 0.56473 0.28290 0.59202
 C666 C 0.52967 0.17702 0.66760
 C667 C 0.46864 0.29578 0.67635
 C668 C 0.48575 0.77179 0.89635
 H669 H 0.50384 0.77645 0.89322
 C670 C 0.47105 0.78628 0.90852
 H671 H 0.47804 0.80198 0.91499
 C672 C 0.45420 0.74663 0.89001
 H673 H 0.44740 0.73174 0.88184
 C674 C 0.43894 0.76054 0.90220
 H675 H 0.42062 0.75596 0.90318
 N676 N 0.47705 0.75260 0.88703
 C677 C 0.53541 0.71024 0.86574
 H678 H 0.52971 0.70778 0.84797
 C679 C 0.55617 0.70041 0.87358
 H680 H 0.56634 0.69030 0.86174
 C681 C 0.52923 0.72699 0.90243
 H682 H 0.51874 0.73759 0.91344
 C683 C 0.55000 0.71737 0.91107
 H684 H 0.55537 0.72096 0.92869
 Zn685 Zn 0.49624 0.73723 0.86557
 N686 N 0.52265 0.72357 0.87996
 C687 C 0.52979 0.76393 0.84051
 N688 N 0.50654 0.75953 0.84297
 C689 C 0.49041 0.77261 0.83152
 C690 C 0.49748 0.79115 0.81714
 C691 C 0.53765 0.78218 0.82630
 C692 C 0.47279 0.69580 0.86598
 C693 C 0.46171 0.67693 0.85693
 C694 C 0.46440 0.69494 0.81828
 C695 C 0.47541 0.71354 0.82816
 N696 N 0.47935 0.71362 0.85162
 H697 H 0.54237 0.75386 0.85029
 H698 H 0.47198 0.76907 0.83417
 H699 H 0.48426 0.80160 0.80858
 H700 H 0.55625 0.78528 0.82569
 H701 H 0.47650 0.69616 0.88453
 H702 H 0.45682 0.66291 0.86882
 H703 H 0.46202 0.69548 0.79953
 H704 H 0.48124 0.72768 0.81699
 C705 C 0.56385 0.70404 0.89639
 C706 C 0.44725 0.78093 0.91125
 C707 C 0.45743 0.67611 0.83275
 C708 C 0.52140 0.79641 0.81449
 C709 C 0.46608 -0.17694 0.35891
 C710 C 0.45061 -0.15906 0.36262
 C711 C 0.44953 -0.13820 0.34733
 C712 C 0.43814 -0.11898 0.35570
 C713 C 0.43473 -0.09971 0.34108
 C714 C 0.44260 -0.09932 0.31764
 C715 C 0.45427 -0.11843 0.30937
 C716 C 0.45776 -0.13766 0.32402
 C717 C 0.43685 -0.08042 0.30081
 C718 C 0.43013 -0.05878 0.30758
 H719 H 0.43867 -0.16030 0.37743
 H720 H 0.43134 -0.11907 0.37347
 H721 H 0.42503 -0.08565 0.34797
 H722 H 0.46018 -0.11871 0.29130
 H723 H 0.46601 -0.15233 0.31665
 H724 H 0.43746 -0.08396 0.28234
 H725 H 0.48014 -0.17458 0.34625
 H726 H 0.43260 -0.05411 0.32557
 C727 C 0.96051 0.31156 0.85340
 C728 C 0.94025 0.32486 0.85383
 C729 C 0.93842 0.34712 0.84110
 C730 C 0.92300 0.36348 0.84955
 C731 C 0.91966 0.38410 0.83711
 C732 C 0.93152 0.38861 0.81576
 C733 C 0.94692 0.37223 0.80730
 C734 C 0.95048 0.35173 0.81989
 C735 C 0.92655 0.40918 0.80101
 C736 C 0.91824 0.42939 0.81008
 H737 H 0.92554 0.31969 0.86477
 H738 H 0.91327 0.36017 0.86567
 H739 H 0.90712 0.39603 0.84380
 H740 H 0.95595 0.37517 0.79070
 H741 H 0.96198 0.33921 0.81254
 H742 H 0.92950 0.40831 0.78230
 H743 H 0.97605 0.31913 0.84538
 H744 H 0.91839 0.43150 0.82885
 C745 C 0.04620 1.19661 0.86165
 C746 C 0.03147 1.18124 0.85069
 C747 C 0.04100 1.16154 0.83829
 C748 C 0.02755 1.14168 0.83663
 C749 C 0.03630 1.12297 0.82485
 C750 C 0.05864 1.12395 0.81432
 C751 C 0.07174 1.14405 0.81547
 C752 C 0.06306 1.16263 0.82727
 C753 C 0.06880 1.10491 0.80136
 C754 C 0.06136 1.08229 0.80374
 H755 H 0.01269 1.18298 0.85154
 H756 H 0.01030 1.14060 0.84458
 H757 H 0.02537 1.10804 0.82374
 H758 H 0.08881 1.14543 0.80717
 H759 H 0.07354 1.17796 0.82731
 H760 H 0.08406 1.10881 0.79062
 H761 H 0.06456 1.19219 0.86271
 H762 H 0.04789 1.07764 0.81644
 C763 C 0.52076 0.69255 0.36135
 C764 C 0.53572 0.67433 0.36640
 C765 C 0.53747 0.65394 0.35200
 C766 C 0.54890 0.63464 0.36137
 C767 C 0.55307 0.61587 0.34763
 C768 C 0.54587 0.61603 0.32409
 C769 C 0.53411 0.63519 0.31484
 C770 C 0.52991 0.65396 0.32860
 C771 C 0.55230 0.59767 0.30817
 C772 C 0.55958 0.57606 0.31593
 H773 H 0.54688 0.67499 0.38161
 H774 H 0.55519 0.63431 0.37924
 H775 H 0.56279 0.60177 0.35528
 H776 H 0.52868 0.63590 0.29668
 H777 H 0.52164 0.66871 0.32047
 H778 H 0.55161 0.60159 0.28951
 H779 H 0.50730 0.69083 0.34831
 H780 H 0.55727 0.57091 0.33419
 C781 C 0.55966 0.32064 0.14432
 C782 C 0.54492 0.33136 0.16012
 C783 C 0.54977 0.35450 0.16818
 C784 C 0.54247 0.36041 0.19068
 C785 C 0.54812 0.38169 0.19928
 C786 C 0.56089 0.39760 0.18529
 C787 C 0.56732 0.39195 0.16245
 C788 C 0.56175 0.37070 0.15391
 C789 C 0.56947 0.41937 0.19424
 C790 C 0.56196 0.42880 0.21511
 H791 H 0.53060 0.32197 0.16836
 H792 H 0.53305 0.34824 0.20192
 H793 H 0.54311 0.38518 0.21709
 H794 H 0.57705 0.40391 0.15125
 H795 H 0.56692 0.36702 0.13617
 H796 H 0.58277 0.42830 0.18388
 H797 H 0.57560 0.32919 0.13860
 H798 H 0.54668 0.42204 0.22424
 C799 C 0.04823 0.81386 0.65833
 C800 C 0.03212 0.82904 0.66768
 C801 C 0.03959 0.85182 0.67493
 C802 C 0.02938 0.86136 0.69471
 C803 C 0.03740 0.88221 0.70269
 C804 C 0.05555 0.89407 0.69067
 C805 C 0.06495 0.88488 0.67029
 C806 C 0.05707 0.86405 0.66247
 C807 C 0.06622 0.91523 0.69913
 C808 C 0.05870 0.92690 0.71872
 H809 H 0.01433 0.82387 0.67157
 H810 H 0.01572 0.85230 0.70445
 H811 H 0.02965 0.88852 0.71849
 H812 H 0.07879 0.89368 0.66055
 H813 H 0.06476 0.85752 0.64669
 H814 H 0.08126 0.92181 0.68943
 H815 H 0.06640 0.81917 0.65778
 H816 H 0.04235 0.92243 0.72732
 C817 C 0.95323 0.70384 0.65827
 C818 C 0.96730 0.68616 0.66703
 C819 C 0.95702 0.66597 0.67951
 C820 C 0.96770 0.64465 0.67776
 C821 C 0.95734 0.62516 0.68821
 C822 C 0.93623 0.62680 0.70089
 C823 C 0.92611 0.64828 0.70332
 C824 C 0.93641 0.66766 0.69291
 C825 C 0.92338 0.60671 0.71069
 C826 C 0.93287 0.58498 0.71398
 H827 H 0.98586 0.68619 0.66320
 H828 H 0.98368 0.64296 0.66766
 H829 H 0.96555 0.60889 0.68565
 H830 H 0.90996 0.65008 0.71314
 H831 H 0.92815 0.68394 0.69536
 H832 H 0.90544 0.60939 0.71614
 H833 H 0.93443 0.70192 0.65978
 H834 H 0.95143 0.58234 0.71151
 C835 C 0.47765 0.19963 0.14866
 C836 C 0.45673 0.19283 0.15965
 C837 C 0.45249 0.17008 0.17089
 C838 C 0.43293 0.16729 0.18571
 C839 C 0.42740 0.14606 0.19594
 C840 C 0.44121 0.12696 0.19137
 C841 C 0.46117 0.12977 0.17709
 C842 C 0.46670 0.15109 0.16676
 C843 C 0.43497 0.10409 0.20119
 C844 C 0.41167 0.09773 0.20505
 H845 H 0.44286 0.20521 0.16109
 H846 H 0.42178 0.18162 0.18934
 H847 H 0.41234 0.14469 0.20750
 H848 H 0.47213 0.11532 0.17342
 H849 H 0.48172 0.15237 0.15517
 H850 H 0.44876 0.09173 0.20377
 H851 H 0.49266 0.18850 0.14943
 H852 H 0.39811 0.10952 0.19955
 C853 C 0.36736 0.44628 -0.19303
 C854 C 0.35318 0.45944 -0.17872
 C855 C 0.34036 0.44900 -0.15841
 C856 C 0.33607 0.46160 -0.13842
 C857 C 0.32432 0.45170 -0.11895
 C858 C 0.31633 0.42903 -0.11936
 C859 C 0.32003 0.41680 -0.13971
 C860 C 0.33183 0.42661 -0.15899
 C861 C 0.30441 0.41711 -0.09925
 C862 C 0.30069 0.42602 -0.07714
 H863 H 0.35174 0.47761 -0.18173
 H864 H 0.34218 0.47900 -0.13772
 H865 H 0.32170 0.46189 -0.10380
 H866 H 0.31387 0.39943 -0.14069
 H867 H 0.33402 0.41668 -0.17446
 H868 H 0.29833 0.40000 -0.10212
 H869 H 0.37036 0.42882 -0.18712
 H870 H 0.30475 0.44360 -0.07407
 C871 C 0.86302 0.95686 0.29593
 C872 C 0.86427 0.93682 0.30981
 C873 C 0.84853 0.93248 0.33016
 C874 C 0.85647 0.91923 0.34939
 C875 C 0.84172 0.91441 0.36859
 C876 C 0.81860 0.92254 0.36873
 C877 C 0.81054 0.93542 0.34930
 C878 C 0.82537 0.94048 0.33024
 C879 C 0.80214 0.91661 0.38810
 C880 C 0.80941 0.91199 0.41107
 H881 H 0.87785 0.92448 0.30686
 H882 H 0.87412 0.91258 0.34954
 H883 H 0.84827 0.90380 0.38296
 H884 H 0.79268 0.94151 0.34884
 H885 H 0.81847 0.95013 0.31535
 H886 H 0.78364 0.91656 0.38420
 H887 H 0.85147 0.97007 0.30192
 H888 H 0.82747 0.91509 0.41561
 C889 C 0.86559 0.03872 1.17641
 C890 C 0.85666 0.05864 1.16580
 C891 C 0.84538 0.05899 1.14258
 C892 C 0.82679 0.07404 1.13843
 C893 C 0.81546 0.07480 1.11687
 C894 C 0.82269 0.06067 1.09884
 C895 C 0.84177 0.04609 1.10268
 C896 C 0.85292 0.04507 1.12447
 C897 C 0.81131 0.06207 1.07565
 C898 C 0.78747 0.06675 1.07361
 H899 H 0.85510 0.07395 1.17557
 H900 H 0.82089 0.08515 1.15200
 H901 H 0.80137 0.08685 1.11418
 H902 H 0.84793 0.03541 1.08886
 H903 H 0.86765 0.03374 1.12695
 H904 H 0.82218 0.06030 1.06025
 H905 H 0.86414 0.02323 1.16679
 H906 H 0.77704 0.06656 1.08956
 C907 C 0.35015 0.52566 0.68498
 C908 C 0.35301 0.54324 0.66810
 C909 C 0.33853 0.54570 0.64675
 C910 C 0.34681 0.55943 0.62786
 C911 C 0.33283 0.56387 0.60825
 C912 C 0.31012 0.55471 0.60721
 C913 C 0.30194 0.54076 0.62599
 C914 C 0.31598 0.53621 0.64555
 C915 C 0.29378 0.56128 0.58813
 C916 C 0.30105 0.57029 0.56629
 H917 H 0.36671 0.55568 0.67040
 H918 H 0.36399 0.56718 0.62850
 H919 H 0.33953 0.57526 0.59450
 H920 H 0.28439 0.53380 0.62578
 H921 H 0.30871 0.52608 0.66002
 H922 H 0.27525 0.55943 0.59175
 H923 H 0.33882 0.51147 0.68137
 H924 H 0.31930 0.56920 0.56129
 C925 C 0.13880 0.53167 0.31253
 C926 C 0.14930 0.55227 0.31795
 C927 C 0.16106 0.55656 0.34042
 C928 C 0.17584 0.57556 0.34143
 C929 C 0.18678 0.58086 0.36231
 C930 C 0.18295 0.56740 0.38283
 C931 C 0.16858 0.54811 0.38180
 C932 C 0.15755 0.54280 0.36086
 C933 C 0.19368 0.57320 0.40539
 C934 C 0.19843 0.59569 0.41082
 H935 H 0.15019 0.56571 0.30451
 H936 H 0.17897 0.58637 0.32595
 H937 H 0.19837 0.59544 0.36224
 H938 H 0.16544 0.53744 0.39737
 H939 H 0.14598 0.52825 0.36100
 H940 H 0.19617 0.55972 0.41851
 H941 H 0.14016 0.51717 0.32462
 H942 H 0.19307 0.60915 0.39861
 C943 C 0.63941 0.02030 0.80308
 C944 C 0.64731 0.04099 0.81152
 C945 C 0.66145 0.04306 0.83290
 C946 C 0.67651 0.06178 0.83415
 C947 C 0.68874 0.06573 0.85462
 C948 C 0.68573 0.05133 0.87461
 C949 C 0.67146 0.03198 0.87310
 C950 C 0.65931 0.02788 0.85240
 C951 C 0.69670 0.05677 0.89720
 C952 C 0.70028 0.07935 0.90312
 H953 H 0.64515 0.05647 0.80099
 H954 H 0.67867 0.07357 0.81925
 H955 H 0.70039 0.08025 0.85476
 H956 H 0.66904 0.02052 0.88821
 H957 H 0.64762 0.01340 0.85204
 H958 H 0.70026 0.04303 0.90974
 H959 H 0.64511 0.00476 0.81204
 H960 H 0.69402 0.09262 0.89113
 C961 C 0.64797 0.95583 0.68110
 C962 C 0.64253 0.94360 0.66142
 C963 C 0.65927 0.94090 0.64193
 C964 C 0.65092 0.93863 0.61909
 C965 C 0.66633 0.93384 0.60078
 C966 C 0.69027 0.93069 0.60522
 C967 C 0.69863 0.93319 0.62801
 C968 C 0.68333 0.93852 0.64618
 C969 C 0.70617 0.92196 0.58720
 C970 C 0.70375 0.92699 0.56330
 H971 H 0.62543 0.93577 0.66022
 H972 H 0.63240 0.94013 0.61552
 H973 H 0.65933 0.93143 0.58347
 H974 H 0.71696 0.93046 0.63185
 H975 H 0.69018 0.93964 0.66374
 H976 H 0.71991 0.91043 0.59294
 H977 H 0.66359 0.96630 0.68096
 H978 H 0.69242 0.94070 0.55730
 C979 C 0.15088 0.45133 0.19758
 C980 C 0.14661 0.43495 0.18102
 C981 C 0.16222 0.43148 0.16066
 C982 C 0.15312 0.42146 0.14074
 C983 C 0.16753 0.41723 0.12150
 C984 C 0.19145 0.42284 0.12190
 C985 C 0.20060 0.43261 0.14194
 C986 C 0.18617 0.43696 0.16112
 C987 C 0.20759 0.41722 0.10256
 C988 C 0.20022 0.41394 0.07965
 H989 H 0.13064 0.42504 0.18227
 H990 H 0.13481 0.41675 0.14011
 H991 H 0.15998 0.40895 0.10671
 H992 H 0.21906 0.43668 0.14286
 H993 H 0.19399 0.44399 0.17648
 H994 H 0.22601 0.41595 0.10658
 H995 H 0.16510 0.46328 0.19458
 H996 H 0.18245 0.41823 0.07485
 C997 C -0.18363 0.37081 0.45610
 C998 C -0.17212 0.35273 0.46760
 C999 C -0.15054 0.34241 0.45823
 C1000 C -0.14576 0.31950 0.46392
 C1001 C -0.12638 0.30872 0.45420
 C1002 C -0.11114 0.32079 0.43873
 C1003 C -0.11553 0.34393 0.43373
 C1004 C -0.13491 0.35467 0.44342
 C1005 C -0.09119 0.30998 0.42660
 C1006 C -0.08310 0.28790 0.43156
 H1007 H -0.18056 0.34413 0.48248
 H1008 H -0.15746 0.30971 0.47540
 H1009 H -0.12398 0.29087 0.45850
 H1010 H -0.10402 0.35373 0.42206
 H1011 H -0.13754 0.37255 0.43924
 H1012 H -0.08310 0.31988 0.41241
 H1013 H -0.17653 0.37769 0.43970
 H1014 H -0.09129 0.27757 0.44534
 C1015 C 0.31986 0.85869 0.96158
 C1016 C 0.33415 0.85736 0.94165
 C1017 C 0.35416 0.84150 0.94034
 C1018 C 0.37274 0.84683 0.92490
 C1019 C 0.39105 0.83148 0.92192
 C1020 C 0.39100 0.81029 0.93417
 C1021 C 0.37242 0.80496 0.94961
 C1022 C 0.35423 0.82043 0.95279
 C1023 C 0.40882 0.79275 0.92953
 C1024 C 0.43123 0.79800 0.92103
 H1025 H 0.33144 0.86875 0.92665
 H1026 H 0.37290 0.86280 0.91484
 H1027 H 0.40469 0.83590 0.90930
 H1028 H 0.37177 0.78861 0.95893
 H1029 H 0.33983 0.81547 0.96430
 H1030 H 0.40395 0.77512 0.93278
 H1031 H 0.32550 0.84958 0.97738
 H1032 H 0.43716 0.81549 0.92092
 C1033 C 1.19847 0.86536 0.03717
 C1034 C 1.18690 0.86065 0.05854
 C1035 C 1.16447 0.84808 0.06051
 C1036 C 1.15935 0.83609 0.08161
 C1037 C 1.13850 0.82392 0.08440
 C1038 C 1.12217 0.82354 0.06612
 C1039 C 1.12689 0.83610 0.04525
 C1040 C 1.14792 0.84819 0.04237
 C1041 C 1.09978 0.81101 0.06902
 C1042 C 1.09795 0.79141 0.08347
 H1043 H 1.19525 0.86424 0.07489
 H1044 H 1.17161 0.83604 0.09600
 H1045 H 1.13505 0.81520 0.10109
 H1046 H 1.11435 0.83644 0.03111
 H1047 H 1.15091 0.85787 0.02615
 H1048 H 1.08482 0.81726 0.05930
 H1049 H 1.19041 0.85941 0.02140
 H1050 H 1.11389 0.78418 0.09063
 C1051 C 0.70259 0.34817 0.54689
 C1052 C 0.68593 0.35126 0.56447
 C1053 C 0.66563 0.33586 0.56815
 C1054 C 0.64501 0.34431 0.57802
 C1055 C 0.62569 0.33007 0.58213
 C1056 C 0.62676 0.30697 0.57665
 C1057 C 0.64752 0.29844 0.56717
 C1058 C 0.66675 0.31273 0.56284
 C1059 C 0.60718 0.29111 0.58207
 C1060 C 0.58390 0.29808 0.58349
 H1061 H 0.68694 0.36620 0.57497
 H1062 H 0.64386 0.36199 0.58258
 H1063 H 0.61024 0.33707 0.59018
 H1064 H 0.64891 0.28062 0.56321
 H1065 H 0.68262 0.30547 0.55590
 H1066 H 0.61129 0.27323 0.58447
 H1067 H 0.69980 0.33499 0.53443
 H1068 H 0.57942 0.31531 0.57798
 C1069 C 0.31112 0.14317 0.53402
 C1070 C 0.31869 0.15601 0.55264
 C1071 C 0.34201 0.16688 0.55357
 C1072 C 0.34513 0.18512 0.56842
 C1073 C 0.36721 0.19483 0.57116
 C1074 C 0.38674 0.18636 0.55918
 C1075 C 0.38361 0.16818 0.54423
 C1076 C 0.36145 0.15857 0.54133
 C1077 C 0.41073 0.19457 0.56372
 C1078 C 0.41548 0.21588 0.57266
 H1079 H 0.30661 0.15898 0.56691
 H1080 H 0.33048 0.19163 0.57827
 H1081 H 0.36901 0.20832 0.58342
 H1082 H 0.39844 0.16110 0.53512
 H1083 H 0.35984 0.14414 0.53023
 H1084 H 0.42507 0.18316 0.56031
 H1085 H 0.32167 0.14256 0.51822
 H1086 H 0.40173 0.22849 0.57292
 C1087 C 0.81253 0.65246 0.05394
 C1088 C 0.82773 0.66388 0.03814
 C1089 C 0.84781 0.67701 0.04682
 C1090 C 0.86921 0.67728 0.03461
 C1091 C 0.88877 0.68825 0.04374
 C1092 C 0.88701 0.69947 0.06509
 C1093 C 0.86528 0.70001 0.07661
 C1094 C 0.84589 0.68903 0.06758
 C1095 C 0.90736 0.70952 0.07691
 C1096 C 0.92948 0.71308 0.06685
 H1097 H 0.82604 0.66225 0.01943
 H1098 H 0.87101 0.66829 0.01847
 H1099 H 0.90522 0.68724 0.03441
 H1100 H 0.86335 0.70867 0.09295
 H1101 H 0.82942 0.68983 0.07699
 H1102 H 0.90464 0.71450 0.09481
 H1103 H 0.81722 0.65253 0.07231
 H1104 H 0.93221 0.71097 0.04828
 C1105 C 0.69458 0.64660 0.96768
 C1106 C 0.68682 0.65578 0.94620
 C1107 C 0.66319 0.66548 0.94218
 C1108 C 0.65940 0.67837 0.92140
 C1109 C 0.63738 0.68737 0.91631
 C1110 C 0.61847 0.68349 0.93184
 C1111 C 0.62227 0.67103 0.95287
 C1112 C 0.64434 0.66191 0.95795
 C1113 C 0.59480 0.69233 0.92641
 C1114 C 0.58693 0.69476 0.90335
 H1115 H 0.69905 0.65703 0.93164
 H1116 H 0.67357 0.68153 0.90899
 H1117 H 0.63530 0.69753 0.90029
 H1118 H 0.60798 0.66789 0.96515
 H1119 H 0.64629 0.65178 0.97397
 H1120 H 0.58301 0.69548 0.94084
 H1121 H 0.68348 0.64747 0.98304
 H1122 H 0.59806 0.68879 0.88943
 C1123 C 0.18093 0.14110 0.46951
 C1124 C 0.16387 0.13650 0.45293
 C1125 C 0.14174 0.14938 0.45041
 C1126 C 0.12357 0.14004 0.43745
 C1127 C 0.10313 0.15235 0.43293
 C1128 C 0.10043 0.17440 0.44132
 C1129 C 0.11854 0.18368 0.45445
 C1130 C 0.13898 0.17134 0.45900
 C1131 C 0.08010 0.18890 0.43498
 C1132 C 0.05893 0.18034 0.42691
 H1133 H 0.16665 0.12262 0.44129
 H1134 H 0.12539 0.12330 0.43033
 H1135 H 0.09005 0.14479 0.42206
 H1136 H 0.11707 0.20076 0.46079
 H1137 H 0.15281 0.17946 0.46846
 H1138 H 0.08256 0.20710 0.43563
 H1139 H 0.17705 0.15278 0.48322
 H1140 H 0.05628 0.16214 0.42683
 C1141 C 0.59474 0.05684 0.73812
 C1142 C 0.57874 0.05678 0.71971
 C1143 C 0.56992 0.07784 0.70785
 C1144 C 0.56935 0.09885 0.71887
 C1145 C 0.56135 0.11840 0.70682
 C1146 C 0.55350 0.11729 0.68358
 C1147 C 0.55388 0.09627 0.67272
 C1148 C 0.56180 0.07673 0.68479
 C1149 C 0.54568 0.13769 0.66986
 C1150 C 0.53680 0.15719 0.68014
 H1151 H 0.57305 0.04079 0.71291
 H1152 H 0.57486 0.10035 0.73683
 H1153 H 0.56181 0.13435 0.71564
 H1154 H 0.54801 0.09495 0.65481
 H1155 H 0.56194 0.06075 0.67593
 H1156 H 0.54580 0.13639 0.65104
 H1157 H 0.60040 0.07292 0.74476
 H1158 H 0.53438 0.15671 0.69899
 C1159 C 1.09888 0.55955 0.23918
 C1160 C 1.09365 0.58154 0.24625
 C1161 C 1.08312 0.59895 0.23023
 C1162 C 1.06910 0.61596 0.23962
 C1163 C 1.05892 0.63269 0.22499
 C1164 C 1.06298 0.63298 0.20062
 C1165 C 1.07708 0.61598 0.19128
 C1166 C 1.08717 0.59922 0.20589
 C1167 C 1.05263 0.65032 0.18431
 C1168 C 1.04486 0.67164 0.19130
 H1169 H 1.09561 0.58601 0.26432
 H1170 H 1.06571 0.61611 0.25832
 H1171 H 1.04763 0.64502 0.23290
 H1172 H 1.08054 0.61580 0.17259
 H1173 H 1.09845 0.58679 0.19808
 H1174 H 1.05258 0.64624 0.16603
 H1175 H 1.09385 0.55522 0.22163
 H1176 H 1.04678 0.67565 0.20954
 C1177 C 0.91496 0.93308 0.22989
 C1178 C 0.92292 0.91248 0.23984
 C1179 C 0.93607 0.89561 0.22634
 C1180 C 0.93523 0.87264 0.23380
 C1181 C 0.94712 0.85615 0.22133
 C1182 C 0.96024 0.86239 0.20114
 C1183 C 0.96177 0.88545 0.19419
 C1184 C 0.94979 0.90192 0.20659
 C1185 C 0.97292 0.84545 0.18730
 C1186 C 0.96554 0.82280 0.18607
 H1187 H 0.91889 0.90798 0.25795
 H1188 H 0.92515 0.86739 0.24922
 H1189 H 0.94625 0.83865 0.22776
 H1190 H 0.97213 0.89075 0.17897
 H1191 H 0.95166 0.91954 0.20081
 H1192 H 0.98729 0.85178 0.17654
 H1193 H 0.91891 0.93714 0.21165
 H1194 H 0.94960 0.81791 0.19534
 C1195 C 0.41384 0.42586 0.73765
 C1196 C 0.41238 0.40236 0.74218
 C1197 C 0.42613 0.38521 0.72956
 C1198 C 0.41983 0.36221 0.73256
 C1199 C 0.43229 0.34533 0.72125
 C1200 C 0.45135 0.35112 0.70648
 C1201 C 0.45798 0.37407 0.70389
 C1202 C 0.44559 0.39095 0.71529
 C1203 C 0.46503 0.33391 0.69387
 C1204 C 0.45661 0.31209 0.68934
 H1205 H 0.39975 0.39590 0.75496
 H1206 H 0.40519 0.35723 0.74378
 H1207 H 0.42705 0.32784 0.72454
 H1208 H 0.47283 0.37901 0.69293
 H1209 H 0.45161 0.40831 0.71303
 H1210 H 0.48174 0.33952 0.68689
 H1211 H 0.42442 0.43238 0.72314
 H1212 H 0.43918 0.30763 0.69539
 C1213 C 0.38817 0.56599 0.75024
 C1214 C 0.40632 0.56792 0.76634
 C1215 C 0.41453 0.58995 0.77517
 C1216 C 0.42768 0.58988 0.79583
 C1217 C 0.43632 0.61016 0.80448
 C1218 C 0.43196 0.63107 0.79257
 C1219 C 0.41920 0.63111 0.77167
 C1220 C 0.41055 0.61083 0.76303
 C1221 C 0.44135 0.65291 0.80077
 C1222 C 0.44704 0.65632 0.82423
 H1223 H 0.41514 0.55274 0.77279
 H1224 H 0.43140 0.57402 0.80529
 H1225 H 0.44685 0.60924 0.82014
 H1226 H 0.41598 0.64691 0.76192
 H1227 H 0.40130 0.61166 0.74659
 H1228 H 0.44288 0.66667 0.78783
 H1229 H 0.37922 0.58115 0.74396
 H1230 H 0.44302 0.64272 0.83692
 C1231 C -0.10957 0.07279 0.25158
 C1232 C -0.10260 0.09419 0.24263
 C1233 C -0.09679 0.11327 0.25779
 C1234 C -0.08115 0.13011 0.24935
 C1235 C -0.07462 0.14796 0.26346
 C1236 C -0.08376 0.14938 0.28630
 C1237 C -0.10024 0.13315 0.29434
 C1238 C -0.10665 0.11520 0.28030
 C1239 C -0.07651 0.16750 0.30209
 C1240 C -0.05397 0.17689 0.30127
 H1241 H -0.09928 0.09656 0.22401
 H1242 H -0.07367 0.12925 0.23190
 H1243 H -0.06254 0.16066 0.25636
 H1244 H -0.10786 0.13412 0.31172
 H1245 H -0.11942 0.10301 0.28706
 H1246 H -0.08854 0.17156 0.31601
 H1247 H -0.10998 0.06968 0.27039
 H1248 H -0.04181 0.17041 0.28850
 C1249 C 0.09433 0.42162 0.26012
 C1250 C 0.09814 0.39842 0.25734
 C1251 C 0.08283 0.38061 0.26823
 C1252 C 0.09194 0.35879 0.27279
 C1253 C 0.07800 0.34164 0.28324
 C1254 C 0.05457 0.34599 0.28926
 C1255 C 0.04525 0.36758 0.28393
 C1256 C 0.05919 0.38474 0.27357
 C1257 C 0.03926 0.32844 0.30063
 C1258 C 0.04792 0.31065 0.31503
 H1259 H 0.11363 0.39294 0.24815
 H1260 H 0.10996 0.35505 0.26840
 H1261 H 0.08557 0.32497 0.28624
 H1262 H 0.02713 0.37124 0.28799
 H1263 H 0.05128 0.40107 0.26949
 H1264 H 0.02066 0.33098 0.29889
 H1265 H 0.08052 0.42679 0.27184
 H1266 H 0.06660 0.31011 0.31797
 C1267 C 0.59958 0.91239 0.74015
 C1268 C 0.58189 0.90986 0.75708
 C1269 C 0.57376 0.88727 0.76622
 C1270 C 0.55132 0.88512 0.77621
 C1271 C 0.54345 0.86414 0.78563
 C1272 C 0.55800 0.84489 0.78530
 C1273 C 0.58051 0.84715 0.77554
 C1274 C 0.58835 0.86806 0.76613
 C1275 C 0.55117 0.82268 0.79642
 C1276 C 0.52799 0.81613 0.80124
 H1277 H 0.57299 0.92476 0.76320
 H1278 H 0.53990 0.89974 0.77686
 H1279 H 0.52629 0.86333 0.79370
 H1280 H 0.59224 0.83273 0.77547
 H1281 H 0.60607 0.86915 0.75942
 H1282 H 0.56530 0.81106 0.80032
 H1283 H 0.60624 0.89735 0.73201
 H1284 H 0.51416 0.82693 0.79437
 C1285 C 0.74659 0.60828 0.08246
 C1286 C 0.72409 0.59885 0.08252
 C1287 C 0.71383 0.58769 0.10386
 C1288 C 0.68967 0.58906 0.10789
 C1289 C 0.67962 0.57918 0.12824
 C1290 C 0.69357 0.56724 0.14478
 C1291 C 0.71770 0.56559 0.14045
 C1292 C 0.72773 0.57561 0.12021
 C1293 C 0.68405 0.55671 0.16692
 C1294 C 0.66017 0.55300 0.17136
 H1295 H 0.71284 0.60113 0.06750
 H1296 H 0.67861 0.59826 0.09550
 H1297 H 0.66108 0.58143 0.13093
 H1298 H 0.72889 0.55646 0.15277
 H1299 H 0.74633 0.57364 0.11731
 H1300 H 0.69681 0.55128 0.17974
 H1301 H 0.75578 0.60793 0.09901
 H1302 H 0.64792 0.55776 0.15774
 C1303 C 0.24599 1.10374 0.57795
 C1304 C 0.22929 1.08634 0.57963
 C1305 C 0.21958 1.07694 0.60214
 C1306 C 0.19882 1.06419 0.60171
 C1307 C 0.18897 1.05492 0.62242
 C1308 C 0.19970 1.05826 0.64413
 C1309 C 0.22080 1.07046 0.64452
 C1310 C 0.23066 1.07974 0.62381
 C1311 C 0.18982 1.04876 0.66652
 C1312 C 0.16593 1.04411 0.66969
 H1313 H 0.22273 1.07926 0.56372
 H1314 H 0.19014 1.06140 0.58524
 H1315 H 0.17321 1.04486 0.62120
 H1316 H 0.22966 1.07291 0.66096
 H1317 H 0.24710 1.08869 0.62497
 H1318 H 0.20175 1.04679 0.68101
 H1319 H 0.25286 1.11078 0.59373
 H1320 H 0.15438 1.04839 0.65526
 C1321 C 0.25513 0.90144 0.92285
 C1322 C 0.23874 0.91904 0.92266
 C1323 C 0.22610 0.92693 0.90131
 C1324 C 0.21611 0.94872 0.90057
 C1325 C 0.20317 0.95637 0.88114
 C1326 C 0.19987 0.94227 0.86204
 C1327 C 0.20965 0.92041 0.86290
 C1328 C 0.22266 0.91280 0.88226
 C1329 C 0.18522 0.94916 0.84168
 C1330 C 0.18102 0.97188 0.83478
 H1331 H 0.23554 0.92800 0.93860
 H1332 H 0.21816 0.95979 0.91518
 H1333 H 0.19527 0.97303 0.88151
 H1334 H 0.20704 0.90906 0.84860
 H1335 H 0.22937 0.89563 0.88248
 H1336 H 0.17859 0.93556 0.83137
 H1337 H 0.26064 0.89452 0.90638
 H1338 H 0.19043 0.98494 0.84374
 C1339 C 0.73891 0.40362 0.43310
 C1340 C 0.74635 0.41520 0.41258
 C1341 C 0.72989 0.42368 0.39440
 C1342 C 0.73642 0.44223 0.37962
 C1343 C 0.72129 0.45050 0.36216
 C1344 C 0.69935 0.44020 0.35908
 C1345 C 0.69311 0.42129 0.37347
 C1346 C 0.70815 0.41312 0.39098
 C1347 C 0.68295 0.44800 0.34054
 C1348 C 0.68235 0.47041 0.33136
 H1349 H 0.76470 0.41935 0.41028
 H1350 H 0.75325 0.45038 0.38164
 H1351 H 0.72705 0.46461 0.35087
 H1352 H 0.67650 0.41280 0.37118
 H1353 H 0.70287 0.39828 0.40146
 H1354 H 0.67001 0.43580 0.33543
 H1355 H 0.72035 0.40218 0.43677
 H1356 H 0.69395 0.48270 0.33893
 C1357 C 0.76406 0.40004 0.57738
 C1358 C 0.78750 0.40678 0.57788
 C1359 C 0.79796 0.41899 0.59751
 C1360 C 0.82224 0.41805 0.60054
 C1361 C 0.83290 0.42967 0.61853
 C1362 C 0.81957 0.44263 0.63390
 C1363 C 0.79521 0.44395 0.63061
 C1364 C 0.78453 0.43221 0.61263
 C1365 C 0.83199 0.45481 0.65249
 C1366 C 0.82102 0.46405 0.67207
 H1367 H 0.79913 0.40180 0.56393
 H1368 H 0.83304 0.40821 0.58899
 H1369 H 0.85170 0.42848 0.62045
 H1370 H 0.78430 0.45433 0.64143
 H1371 H 0.76586 0.43403 0.61031
 H1372 H 0.85077 0.45543 0.65077
 H1373 H 0.75310 0.40245 0.59263
 H1374 H 0.80227 0.46214 0.67387
 C1375 C 0.26679 -0.09627 0.07172
 C1376 C 0.28418 -0.07953 0.07014
 C1377 C 0.29563 -0.06971 0.09075
 C1378 C 0.31662 -0.05763 0.08723
 C1379 C 0.32805 -0.04799 0.10603
 C1380 C 0.31862 -0.04992 0.12880
 C1381 C 0.29757 -0.06201 0.13241
 C1382 C 0.28612 -0.07167 0.11358
 C1383 C 0.33163 -0.03968 0.14821
 C1384 C 0.32137 -0.03417 0.16968
 H1385 H 0.28990 -0.07326 0.05298
 H1386 H 0.32432 -0.05577 0.06986
 H1387 H 0.34429 -0.03888 0.10273
 H1388 H 0.28998 -0.06441 0.14972
 H1389 H 0.26975 -0.08036 0.11714
 H1390 H 0.34969 -0.03544 0.14454
 H1391 H 0.26075 -0.10251 0.08875
 H1392 H 0.30275 -0.03688 0.17186
 C1393 C 0.24716 0.10498 0.42711
 C1394 C 0.26488 0.08876 0.42581
 C1395 C 0.27501 0.08174 0.40322
 C1396 C 0.28545 0.06025 0.40191
 C1397 C 0.29552 0.05331 0.38092
 C1398 C 0.29545 0.06787 0.36081
 C1399 C 0.28535 0.08949 0.36227
 C1400 C 0.27522 0.09637 0.38319
 C1401 C 0.30698 0.06183 0.33855
 C1402 C 0.31119 0.03942 0.33214
 H1403 H 0.27069 0.07999 0.44171
 H1404 H 0.28586 0.04882 0.41721
 H1405 H 0.30384 0.03683 0.38074
 H1406 H 0.28545 0.10119 0.34718
 H1407 H 0.26811 0.11337 0.38369
 H1408 H 0.31137 0.07587 0.32661
 H1409 H 0.23934 0.11151 0.41103
 H1410 H 0.30386 0.02579 0.34315
 C1411 C 0.76911 0.61195 0.93701
 C1412 C 0.75944 0.60140 0.91774
 C1413 C 0.77368 0.59249 0.89832
 C1414 C 0.76417 0.57561 0.88442
 C1415 C 0.77692 0.56710 0.86565
 C1416 C 0.79949 0.57543 0.86034
 C1417 C 0.80880 0.59263 0.87396
 C1418 C 0.79610 0.60105 0.89277
 C1419 C 0.81345 0.56742 0.84027
 C1420 C 0.81063 0.54593 0.83074
 H1421 H 0.74076 0.59841 0.91740
 H1422 H 0.74677 0.56901 0.88808
 H1423 H 0.76881 0.55441 0.85510
 H1424 H 0.82599 0.59961 0.87001
 H1425 H 0.80373 0.61460 0.90253
 H1426 H 0.82743 0.57852 0.83414
 H1427 H 0.78791 0.61228 0.93896
 H1428 H 0.79815 0.53435 0.83913
 C1429 C 0.07864 0.74415 0.62605
 C1430 C 0.07793 0.72976 0.60712
 C1431 C 0.09918 0.72031 0.59610
 C1432 C 0.09689 0.70162 0.58168
 C1433 C 0.11636 0.69284 0.57012
 C1434 C 0.13862 0.70265 0.57278
 C1435 C 0.14083 0.72154 0.58690
 C1436 C 0.12140 0.73031 0.59842
 C1437 C 0.15967 0.69440 0.56041
 C1438 C 0.16174 0.67228 0.55237
 H1439 H 0.06122 0.72580 0.59944
 H1440 H 0.07992 0.69389 0.57919
 H1441 H 0.11369 0.67881 0.55872
 H1442 H 0.15768 0.72968 0.58891
 H1443 H 0.12390 0.74529 0.60853
 H1444 H 0.17422 0.70609 0.55881
 H1445 H 0.09523 0.74788 0.63404
 H1446 H 0.14755 0.66051 0.55630
 C1447 C 0.59241 0.25277 1.10730
 C1448 C 0.59050 0.23802 1.08874
 C1449 C 0.61070 0.22773 1.07658
 C1450 C 0.60625 0.21086 1.06041
 C1451 C 0.62457 0.20065 1.04837
 C1452 C 0.64788 0.20704 1.05237
 C1453 C 0.65233 0.22431 1.06806
 C1454 C 0.63401 0.23455 1.08009
 C1455 C 0.66786 0.19638 1.04032
 C1456 C 0.66689 0.17422 1.03220
 H1457 H 0.57323 0.23402 1.08238
 H1458 H 0.58848 0.20553 1.05702
 H1459 H 0.62030 0.18806 1.03573
 H1460 H 0.67011 0.22979 1.07119
 H1461 H 0.63841 0.24787 1.09181
 H1462 H 0.68405 0.20586 1.03960
 H1463 H 0.60941 0.25763 1.11357
 H1464 H 0.65085 0.16471 1.03522
 C1465 C 0.92403 0.24162 0.88823
 C1466 C 0.92380 0.22422 0.90553
 C1467 C 0.90214 0.21191 0.91270
 C1468 C 0.90041 0.20199 0.93538
 C1469 C 0.88009 0.19038 0.94269
 C1470 C 0.86113 0.18839 0.92732
 C1471 C 0.86316 0.19778 0.90444
 C1472 C 0.88340 0.20943 0.89718
 C1473 C 0.83943 0.17589 0.93400
 C1474 C 0.83168 0.17249 0.95724
 H1475 H 0.93958 0.22053 0.91530
 H1476 H 0.91478 0.20332 0.94752
 H1477 H 0.87955 0.18267 0.96017
 H1478 H 0.84900 0.19612 0.89211
 H1479 H 0.88441 0.21610 0.87929
 H1480 H 0.82880 0.17046 0.91968
 H1481 H 0.90761 0.24722 0.88070
 H1482 H 0.84161 0.18032 0.97088
 C1483 C 0.41860 0.76250 0.40095
 C1484 C 0.41613 0.74529 0.41831
 C1485 C 0.39323 0.73568 0.42597
 C1486 C 0.39165 0.72368 0.44763
 C1487 C 0.37067 0.71331 0.45493
 C1488 C 0.35077 0.71471 0.44061
 C1489 C 0.35238 0.72663 0.41891
 C1490 C 0.37334 0.73703 0.41164
 C1491 C 0.32870 0.70260 0.44681
 C1492 C 0.32240 0.69585 0.46982
 H1493 H 0.43156 0.73895 0.42724
 H1494 H 0.40682 0.72207 0.45883
 H1495 H 0.37042 0.70364 0.47140
 H1496 H 0.33744 0.72763 0.40736
 H1497 H 0.37398 0.74544 0.39449
 H1498 H 0.31696 0.69958 0.43252
 H1499 H 0.40316 0.77096 0.39417
 H1500 H 0.33303 0.70189 0.48394
 C1501 C 0.56743 0.75037 0.40296
 C1502 C 0.56961 0.76637 0.42032
 C1503 C 0.59242 0.77378 0.42963
 C1504 C 0.59366 0.79478 0.44044
 C1505 C 0.61487 0.80270 0.44902
 C1506 C 0.63537 0.78972 0.44697
 C1507 C 0.63397 0.76831 0.43705
 C1508 C 0.61274 0.76039 0.42840
 C1509 C 0.65825 0.79792 0.45535
 C1510 C 0.66376 0.82111 0.45549
 H1511 H 0.55407 0.77440 0.42706
 H1512 H 0.57819 0.80521 0.44205
 H1513 H 0.61505 0.81887 0.45746
 H1514 H 0.64941 0.75778 0.43573
 H1515 H 0.61239 0.74370 0.42108
 H1516 H 0.67119 0.78523 0.45995
 H1517 H 0.58293 0.74227 0.39626
 H1518 H 0.65089 0.83293 0.44844
 C1519 C 0.07012 0.26674 -0.10026
 C1520 C 0.09040 0.25801 -0.08988
 C1521 C 0.10949 0.27258 -0.08149
 C1522 C 0.12472 0.26376 -0.06430
 C1523 C 0.14331 0.27684 -0.05640
 C1524 C 0.14710 0.29901 -0.06569
 C1525 C 0.13218 0.30763 -0.08326
 C1526 C 0.11352 0.29462 -0.09106
 C1527 C 0.16687 0.31322 -0.05819
 C1528 C 0.17666 0.31107 -0.03579
 H1529 H 0.09202 0.23982 -0.08684
 H1530 H 0.12224 0.24668 -0.05699
 H1531 H 0.15494 0.26932 -0.04344
 H1532 H 0.13498 0.32452 -0.09097
 H1533 H 0.10268 0.30169 -0.10493
 H1534 H 0.17250 0.32666 -0.07033
 H1535 H 0.06705 0.28489 -0.10041
 H1536 H 0.16854 0.29915 -0.02330
 C1537 C 0.44603 0.27142 0.10952
 C1538 C 0.42584 0.26218 0.09999
 C1539 C 0.40700 0.27649 0.08972
 C1540 C 0.39289 0.26769 0.07219
 C1541 C 0.37523 0.28092 0.06181
 C1542 C 0.37108 0.30316 0.06913
 C1543 C 0.38506 0.31183 0.08685
 C1544 C 0.40273 0.29863 0.09716
 C1545 C 0.35296 0.31810 0.05836
 C1546 C 0.33358 0.30993 0.04630
 H1547 H 0.42453 0.24396 0.09831
 H1548 H 0.39585 0.25068 0.06616
 H1549 H 0.36533 0.27378 0.04778
 H1550 H 0.38221 0.32887 0.09286
 H1551 H 0.41278 0.30576 0.11111
 H1552 H 0.35471 0.33603 0.06133
 H1553 H 0.44858 0.28966 0.10836
 H1554 H 0.33137 0.29170 0.04558
 C1555 C 0.93580 0.77282 0.60819
 C1556 C 0.91603 0.76384 0.59757
 C1557 C 0.89780 0.77794 0.58590
 C1558 C 0.88233 0.76764 0.57049
 C1559 C 0.86411 0.78007 0.56007
 C1560 C 0.86100 0.80314 0.56492
 C1561 C 0.87638 0.81337 0.58046
 C1562 C 0.89459 0.80097 0.59085
 C1563 C 0.84132 0.81674 0.55525
 C1564 C 0.82941 0.81156 0.53471
 H1565 H 0.91399 0.74556 0.59724
 H1566 H 0.88417 0.74982 0.56670
 H1567 H 0.85220 0.77134 0.54881
 H1568 H 0.87416 0.83102 0.58478
 H1569 H 0.90561 0.80937 0.60321
 H1570 H 0.83725 0.83209 0.56424
 H1571 H 0.93965 0.79078 0.60591
 H1572 H 0.83586 0.79762 0.52464
   
