data_POSCAR
  _audit_creation_date              2014-09-24
  _audit_creation_method            'ToBaCCo'
  _symmetry_space_group_name_H-M    'P1'
  _symmetry_Int_Tables_number       1
  _symmetry_cell_setting            triclinic
  loop_
  _symmetry_equiv_pos_as_xyz
 x,y,z
_cell_length_a 56.4338
_cell_length_b 56.4473
_cell_length_c 45.6412
_cell_angle_alpha 89.731800
_cell_angle_beta 90.067700
_cell_angle_gamma 89.963600
loop_
  _atom_site_label
  _atom_site_type_symbol
  _atom_site_fract_x
  _atom_site_fract_y
  _atom_site_fract_z
C1 C 0.31977 -0.03079 0.24514
 C2 C 0.33405 -0.01115 0.23874
 C3 C 0.35006 -0.01204 0.21549
 C4 C 0.35204 -0.03247 0.19841
 C5 C 0.33734 -0.05190 0.20442
 C6 C 0.32114 -0.05160 0.22807
 C7 C 0.33420 0.00964 0.25800
 C8 C 0.35030 0.01037 0.28129
 C9 C 0.35274 0.03082 0.29872
 C10 C 0.33784 0.05030 0.29244
 C11 C 0.32169 0.04977 0.26894
 C12 C 0.32002 0.02932 0.25171
 H13 H 0.30744 -0.02943 0.26321
 H14 H 0.36138 0.00308 0.21115
 H15 H 0.36062 -0.00541 0.28576
 H16 H 0.30792 0.02877 0.23327
 H17 H 0.34020 -0.06791 0.19198
 H18 H 0.33993 0.06675 0.30422
 C19 C 0.18054 -0.02928 0.75413
 C20 C 0.16580 -0.01006 0.76069
 C21 C 0.14949 -0.01182 0.78364
 C22 C 0.14768 -0.03273 0.80021
 C23 C 0.16280 -0.05175 0.79390
 C24 C 0.17913 -0.05029 0.77069
 C25 C 0.16529 0.01103 0.74173
 C26 C 0.14876 0.01212 0.71892
 C27 C 0.14603 0.03281 0.70176
 C28 C 0.16101 0.05220 0.70786
 C29 C 0.17756 0.05132 0.73093
 C30 C 0.17959 0.03059 0.74782
 H31 H 0.19274 -0.02799 0.73587
 H32 H 0.13783 0.00299 0.78814
 H33 H 0.13837 -0.00359 0.71456
 H34 H 0.19204 0.02973 0.76590
 H35 H 0.16089 -0.06820 0.80601
 H36 H 0.15868 0.06881 0.69629
 C37 C 0.67979 0.47012 0.25258
 C38 C 0.66533 0.48953 0.25926
 C39 C 0.64917 0.48799 0.28241
 C40 C 0.64725 0.46713 0.29906
 C41 C 0.66205 0.44790 0.29257
 C42 C 0.67824 0.44914 0.26919
 C43 C 0.66521 0.51072 0.24048
 C44 C 0.64893 0.51216 0.21742
 C45 C 0.64682 0.53298 0.20072
 C46 C 0.66156 0.55228 0.20709
 C47 C 0.67788 0.55114 0.23039
 C48 C 0.67961 0.53019 0.24705
 H49 H 0.69194 0.47129 0.23426
 H50 H 0.63780 0.50299 0.28708
 H51 H 0.63762 0.49711 0.21282
 H52 H 0.69187 0.52910 0.26530
 H53 H 0.66007 0.43150 0.30476
 H54 H 0.65944 0.56865 0.19486
 C55 C 0.81963 0.46995 0.74489
 C56 C 0.83455 0.48912 0.73862
 C57 C 0.85098 0.48751 0.71579
 C58 C 0.85270 0.46682 0.69904
 C59 C 0.83744 0.44783 0.70510
 C60 C 0.82099 0.44913 0.72819
 C61 C 0.83495 0.51005 0.75760
 C62 C 0.85142 0.51102 0.78049
 C63 C 0.85389 0.53153 0.79780
 C64 C 0.83877 0.55088 0.79171
 C65 C 0.82230 0.55013 0.76856
 C66 C 0.82049 0.52958 0.75155
 H67 H 0.80731 0.47112 0.76303
 H68 H 0.86272 0.50231 0.71146
 H69 H 0.86192 0.49534 0.78482
 H70 H 0.80809 0.52883 0.73343
 H71 H 0.83928 0.43153 0.69286
 H72 H 0.84090 0.56739 0.80336
 C73 C 0.24581 0.39919 1.03967
 C74 C 0.25572 0.41120 1.01570
 C75 C 0.27719 0.42312 1.01876
 C76 C 0.28884 0.42357 1.04583
 C77 C 0.27891 0.41146 1.06980
 C78 C 0.25748 0.39858 1.06710
 C79 C 0.24378 0.41093 0.98708
 C80 C 0.22231 0.42294 0.98345
 C81 C 0.21053 0.42272 0.95638
 C82 C 0.22038 0.40994 0.93304
 C83 C 0.24177 0.39740 0.93657
 C84 C 0.25360 0.39836 0.96363
 H85 H 0.22977 0.38919 1.03588
 H86 H 0.28490 0.43190 0.99987
 H87 H 0.21467 0.43220 1.00193
 H88 H 0.26990 0.38855 0.96695
 H89 H 0.28777 0.41291 1.09073
 H90 H 0.21138 0.40979 0.91207
 C91 C 0.75447 0.10083 1.03858
 C92 C 0.74439 0.08874 1.01491
 C93 C 0.72295 0.07681 1.01835
 C94 C 0.71150 0.07646 1.04552
 C95 C 0.72159 0.08867 1.06920
 C96 C 0.74301 0.10153 1.06610
 C97 C 0.75608 0.08891 0.98616
 C98 C 0.77736 0.07664 0.98243
 C99 C 0.78886 0.07667 0.95520
 C100 C 0.77891 0.08953 0.93180
 C101 C 0.75771 0.10233 0.93544
 C102 C 0.74617 0.10156 0.96268
 H103 H 0.77047 0.11082 1.03448
 H104 H 0.71512 0.06796 0.99968
 H105 H 0.78508 0.06730 1.00093
 H106 H 0.73001 0.11156 0.96607
 H107 H 0.71287 0.08730 1.09021
 H108 H 0.78768 0.08953 0.91070
 C109 C 0.25445 0.60059 0.53904
 C110 C 0.24468 0.58795 0.51561
 C111 C 0.22334 0.57576 0.51925
 C112 C 0.21164 0.57588 0.54634
 C113 C 0.22145 0.58870 0.56969
 C114 C 0.24271 0.60143 0.56613
 C115 C 0.25641 0.58803 0.48690
 C116 C 0.27781 0.57593 0.48328
 C117 C 0.28939 0.57606 0.45611
 C118 C 0.27940 0.58882 0.43265
 C119 C 0.25809 0.60145 0.43618
 C120 C 0.24647 0.60060 0.46337
 H121 H 0.27061 0.61059 0.53566
 H122 H 0.21570 0.56651 0.50075
 H123 H 0.28556 0.56671 0.50184
 H124 H 0.23025 0.61050 0.46671
 H125 H 0.21249 0.58879 0.59067
 H126 H 0.28824 0.58890 0.41160
 C127 C 0.74626 0.89952 0.53786
 C128 C 0.75557 0.91225 0.51420
 C129 C 0.77678 0.92472 0.51733
 C130 C 0.78917 0.92483 0.54421
 C131 C 0.77952 0.91173 0.56781
 C132 C 0.75832 0.89884 0.56472
 C133 C 0.74356 0.91189 0.48564
 C134 C 0.72211 0.92392 0.48196
 C135 C 0.71034 0.92363 0.45488
 C136 C 0.72018 0.91077 0.43160
 C137 C 0.74156 0.89822 0.43519
 C138 C 0.75335 0.89922 0.46228
 H139 H 0.73016 0.88935 0.53486
 H140 H 0.78392 0.93339 0.49807
 H141 H 0.71449 0.93326 0.50039
 H142 H 0.76964 0.88941 0.46567
 H143 H 0.78796 0.91200 0.58909
 H144 H 0.71119 0.91057 0.41061
 C145 C -0.02929 0.24142 0.37054
 C146 C -0.00786 0.23999 0.38590
 C147 C -0.00143 0.21883 0.39995
 C148 C -0.01638 0.19879 0.39921
 C149 C -0.03790 0.20070 0.38336
 C150 C -0.04463 0.22175 0.36858
 C151 C 0.00837 0.26052 0.38611
 C152 C 0.00171 0.28165 0.39996
 C153 C 0.01683 0.30143 0.39961
 C154 C 0.03860 0.29988 0.38471
 C155 C 0.04541 0.27890 0.37046
 C156 C 0.03021 0.25920 0.37159
 H157 H -0.03304 0.25769 0.35880
 H158 H 0.01568 0.21808 0.41065
 H159 H -0.01531 0.28265 0.41085
 H160 H 0.03495 0.24299 0.36039
 H161 H -0.05048 0.18634 0.38459
 H162 H 0.05058 0.31486 0.38483
 C163 C -0.03023 0.75764 0.12894
 C164 C -0.00860 0.75885 0.11393
 C165 C -0.00194 0.77991 0.09987
 C166 C -0.01684 0.79979 0.10044
 C167 C -0.03842 0.79844 0.11580
 C168 C -0.04549 0.77750 0.13056
 C169 C 0.00759 0.73827 0.11412
 C170 C 0.00116 0.71715 0.10011
 C171 C 0.01624 0.69712 0.10065
 C172 C 0.03787 0.69901 0.11628
 C173 C 0.04436 0.72002 0.13066
 C174 C 0.02915 0.73965 0.12916
 H175 H -0.03418 0.74145 0.14070
 H176 H 0.01495 0.78079 0.08865
 H177 H -0.01602 0.71644 0.08961
 H178 H 0.03370 0.75588 0.14043
 H179 H -0.05016 0.81356 0.11477
 H180 H 0.05056 0.68466 0.11613
 C181 C 0.46911 0.25867 0.62865
 C182 C 0.49093 0.25980 0.61406
 C183 C 0.49786 0.28094 0.60026
 C184 C 0.48303 0.30096 0.60072
 C185 C 0.46129 0.29962 0.61572
 C186 C 0.45421 0.27862 0.62993
 C187 C 0.50686 0.23903 0.61413
 C188 C 0.50000 0.21793 0.60039
 C189 C 0.51499 0.19801 0.60079
 C190 C 0.53681 0.19941 0.61568
 C191 C 0.54381 0.22038 0.62981
 C192 C 0.52875 0.24020 0.62860
 H193 H 0.46416 0.24244 0.63982
 H194 H 0.51487 0.28178 0.58930
 H195 H 0.48297 0.21706 0.58945
 H196 H 0.53367 0.25641 0.63968
 H197 H 0.44954 0.31480 0.61571
 H198 H 0.54868 0.18433 0.61560
 C199 C 0.47080 0.74115 0.87084
 C200 C 0.49238 0.73967 0.88586
 C201 C 0.49891 0.71841 0.89976
 C202 C 0.48391 0.69833 0.89910
 C203 C 0.46228 0.70035 0.88350
 C204 C 0.45569 0.72148 0.86922
 C205 C 0.50856 0.76024 0.88605
 C206 C 0.50189 0.78134 0.89996
 C207 C 0.51696 0.80117 0.89956
 C208 C 0.53868 0.79968 0.88453
 C209 C 0.54549 0.77874 0.87021
 C210 C 0.53035 0.75899 0.87140
 H211 H 0.46617 0.75749 0.85965
 H212 H 0.51609 0.71761 0.91025
 H213 H 0.48491 0.78228 0.91095
 H214 H 0.53509 0.74281 0.86015
 H215 H 0.44964 0.68596 0.88359
 H216 H 0.55062 0.81470 0.88460
 C217 C -0.28092 0.56990 1.00610
 C218 C -0.26126 0.58412 1.01245
 C219 C -0.26212 0.60000 1.03577
 C220 C -0.28253 0.60190 1.05298
 C221 C -0.30199 0.58726 1.04702
 C222 C -0.30172 0.57121 1.02328
 C223 C -0.24045 0.58431 0.99315
 C224 C -0.23958 0.60058 0.96998
 C225 C -0.21906 0.60304 0.95256
 C226 C -0.19967 0.58801 0.95874
 C227 C -0.20034 0.57169 0.98212
 C228 C -0.22085 0.56998 0.99932
 H229 H -0.27958 0.55767 0.98799
 H230 H -0.24697 0.61127 1.04009
 H231 H -0.25529 0.61102 0.96561
 H232 H -0.22152 0.55774 1.01767
 H233 H -0.31799 0.59006 1.05957
 H234 H -0.18317 0.59010 0.94697
 C235 C -0.28002 0.42972 0.49476
 C236 C -0.26019 0.41575 0.48833
 C237 C -0.26085 0.40002 0.46484
 C238 C -0.28124 0.39802 0.44754
 C239 C -0.30087 0.41240 0.45361
 C240 C -0.30079 0.42833 0.47748
 C241 C -0.23934 0.41577 0.50763
 C242 C -0.23827 0.39957 0.53088
 C243 C -0.21769 0.39745 0.54794
 C244 C -0.19828 0.41217 0.54182
 C245 C -0.19906 0.42843 0.51839
 C246 C -0.21974 0.43011 0.50129
 H247 H -0.27881 0.44187 0.51297
 H248 H -0.24555 0.38897 0.46043
 H249 H -0.25340 0.38826 0.53526
 H250 H -0.22052 0.44229 0.48289
 H251 H -0.31684 0.40953 0.44099
 H252 H -0.18208 0.41005 0.55434
 C253 C 0.22008 -0.07020 -0.00383
 C254 C 0.23985 -0.08420 -0.01011
 C255 C 0.23912 -0.10021 -0.03337
 C256 C 0.21858 -0.10279 -0.05073
 C257 C 0.19901 -0.08806 -0.04449
 C258 C 0.19954 -0.07198 -0.02102
 C259 C 0.26060 -0.08422 0.00936
 C260 C 0.26131 -0.10024 0.03279
 C261 C 0.28180 -0.10280 0.05028
 C262 C 0.30135 -0.08803 0.04399
 C263 C 0.30085 -0.07195 0.02033
 C264 C 0.28034 -0.07019 0.00303
 H265 H 0.22064 -0.05820 0.01462
 H266 H 0.25495 -0.11042 -0.03780
 H267 H 0.24549 -0.11046 0.03727
 H268 H 0.27979 -0.05815 -0.01553
 H269 H 0.18251 -0.09027 -0.05624
 H270 H 0.31781 -0.09022 0.05586
 C271 C 0.22008 1.07061 0.50613
 C272 C 0.23930 1.08539 0.51256
 C273 C 0.23758 1.10181 0.53531
 C274 C 0.21674 1.10365 0.55185
 C275 C 0.19770 1.08852 0.54565
 C276 C 0.19911 1.07210 0.52263
 C277 C 0.26039 1.08568 0.49374
 C278 C 0.26168 1.10222 0.47090
 C279 C 0.28231 1.10450 0.45366
 C280 C 0.30145 1.08914 0.45980
 C281 C 0.30038 1.07259 0.48292
 C282 C 0.27971 1.07097 0.49984
 H283 H 0.22133 1.05831 0.48804
 H284 H 0.25241 1.11346 0.53975
 H285 H 0.24614 1.11291 0.46651
 H286 H 0.27871 1.05849 0.51792
 H287 H 0.18130 1.09045 0.55772
 H288 H 0.31804 1.09110 0.44819
 C289 C 0.14897 0.49631 0.21239
 C290 C 0.16157 0.50602 0.23590
 C291 C 0.17362 0.52746 0.23234
 C292 C 0.17340 0.53932 0.20527
 C293 C 0.16057 0.52957 0.18184
 C294 C 0.14800 0.50820 0.18530
 C295 C 0.16167 0.49410 0.26457
 C296 C 0.17379 0.47268 0.26809
 C297 C 0.17385 0.46092 0.29524
 C298 C 0.16123 0.47075 0.31876
 C299 C 0.14858 0.49209 0.31533
 C300 C 0.14926 0.50388 0.28817
 H301 H 0.13910 0.48005 0.21569
 H302 H 0.18288 0.53504 0.25089
 H303 H 0.18290 0.46506 0.24949
 H304 H 0.13935 0.52013 0.28490
 H305 H 0.16039 0.53864 0.16088
 H306 H 0.16130 0.46177 0.33978
 C307 C -0.14870 1.00353 0.21075
 C308 C -0.16084 0.99404 0.23476
 C309 C -0.17290 0.97262 0.23220
 C310 C -0.17339 0.96026 0.20548
 C311 C -0.16098 0.97007 0.18143
 C312 C -0.14808 0.99152 0.18372
 C313 C -0.16054 1.00636 0.26305
 C314 C -0.17270 1.02777 0.26606
 C315 C -0.17247 1.04028 0.29276
 C316 C -0.15928 1.03058 0.31628
 C317 C -0.14672 1.00917 0.31332
 C318 C -0.14776 0.99699 0.28666
 H319 H -0.13863 1.01957 0.21420
 H320 H -0.18111 0.96539 0.25170
 H321 H -0.18148 1.03491 0.24685
 H322 H -0.13790 0.98068 0.28379
 H323 H -0.16269 0.96174 0.16030
 H324 H -0.15928 1.03912 0.33745
 C325 C 0.35119 0.50447 -0.28977
 C326 C 0.33899 0.49461 -0.26595
 C327 C 0.32701 0.47319 -0.26905
 C328 C 0.32673 0.46153 -0.29603
 C329 C 0.33904 0.47140 -0.31986
 C330 C 0.35195 0.49280 -0.31710
 C331 C 0.33901 0.50661 -0.23744
 C332 C 0.32670 0.52791 -0.23420
 C333 C 0.32673 0.54015 -0.20731
 C334 C 0.33987 0.53030 -0.18384
 C335 C 0.35260 0.50901 -0.18704
 C336 C 0.35174 0.49708 -0.21389
 H337 H 0.36120 0.52049 -0.28593
 H338 H 0.31805 0.46554 -0.25026
 H339 H 0.31798 0.53519 -0.25336
 H340 H 0.36174 0.48088 -0.21696
 H341 H 0.33772 0.46254 -0.34074
 H342 H 0.33972 0.53863 -0.16255
 C343 C 0.64931 -0.00441 -0.28959
 C344 C 0.66130 0.00554 -0.26573
 C345 C 0.67316 0.02704 -0.26896
 C346 C 0.67355 0.03868 -0.29608
 C347 C 0.66146 0.02871 -0.31994
 C348 C 0.64864 0.00725 -0.31708
 C349 C 0.66107 -0.00636 -0.23703
 C350 C 0.67320 -0.02776 -0.23330
 C351 C 0.67308 -0.03947 -0.20613
 C352 C 0.66027 -0.02962 -0.18279
 C353 C 0.64761 -0.00831 -0.18642
 C354 C 0.64847 0.00344 -0.21360
 H355 H 0.63935 -0.02047 -0.28568
 H356 H 0.68192 0.03478 -0.25015
 H357 H 0.68250 -0.03539 -0.25176
 H358 H 0.63858 0.01969 -0.21699
 H359 H 0.66288 0.03757 -0.34092
 H360 H 0.66020 -0.03856 -0.16173
 C361 C -0.01005 0.21987 0.87915
 C362 C -0.01132 0.24183 0.86474
 C363 C -0.03244 0.24867 0.85083
 C364 C -0.05229 0.23361 0.85099
 C365 C -0.05079 0.21173 0.86581
 C366 C -0.02981 0.20473 0.88012
 C367 C 0.00935 0.25787 0.86495
 C368 C 0.03052 0.25124 0.85113
 C369 C 0.05040 0.26624 0.85173
 C370 C 0.04888 0.28785 0.86691
 C371 C 0.02786 0.29463 0.88114
 C372 C 0.00806 0.27957 0.87971
 H373 H 0.00618 0.21496 0.89037
 H374 H -0.03339 0.26576 0.83997
 H375 H 0.03148 0.23435 0.84000
 H376 H -0.00819 0.28430 0.89086
 H377 H -0.06581 0.19980 0.86555
 H378 H 0.06394 0.29973 0.86699
 C379 C 0.50952 0.21971 0.12075
 C380 C 0.51078 0.24150 0.13530
 C381 C 0.53199 0.24829 0.14897
 C382 C 0.55193 0.23334 0.14842
 C383 C 0.55044 0.21163 0.13346
 C384 C 0.52938 0.20470 0.11938
 C385 C 0.49006 0.25751 0.13538
 C386 C 0.46900 0.25072 0.14940
 C387 C 0.44909 0.26572 0.14906
 C388 C 0.45047 0.28748 0.13395
 C389 C 0.47138 0.29441 0.11952
 C390 C 0.49120 0.27934 0.12067
 H391 H 0.49324 0.21487 0.10970
 H392 H 0.53293 0.26526 0.15991
 H393 H 0.46815 0.23372 0.16049
 H394 H 0.50737 0.28420 0.10937
 H395 H 0.56555 0.19980 0.13340
 H396 H 0.43539 0.29937 0.13407
 C397 C 0.00877 0.72006 0.62153
 C398 C 0.01002 0.74184 0.63611
 C399 C 0.03118 0.74854 0.64996
 C400 C 0.05107 0.73354 0.64956
 C401 C 0.04959 0.71184 0.63459
 C402 C 0.02859 0.70497 0.62032
 C403 C -0.01061 0.75796 0.63598
 C404 C -0.03175 0.75140 0.65002
 C405 C -0.05182 0.76643 0.64960
 C406 C -0.04996 0.78814 0.63406
 C407 C -0.02896 0.79478 0.61965
 C408 C -0.00928 0.77962 0.62104
 H409 H -0.00747 0.71527 0.61033
 H410 H 0.03212 0.76552 0.66089
 H411 H -0.03243 0.73417 0.66047
 H412 H 0.00696 0.78430 0.60977
 H413 H 0.06467 0.69995 0.63466
 H414 H -0.06435 0.80079 0.63433
 C415 C 0.49093 0.72048 0.37857
 C416 C 0.48961 0.74240 0.36408
 C417 C 0.46838 0.74929 0.35044
 C418 C 0.44848 0.73432 0.35097
 C419 C 0.45003 0.71247 0.36587
 C420 C 0.47112 0.70544 0.37991
 C421 C 0.51030 0.75842 0.36408
 C422 C 0.53149 0.75163 0.35040
 C423 C 0.55141 0.76658 0.35095
 C424 C 0.54993 0.78828 0.36592
 C425 C 0.52889 0.79521 0.38000
 C426 C 0.50905 0.78020 0.37864
 H427 H 0.50723 0.71556 0.38961
 H428 H 0.46739 0.76636 0.33954
 H429 H 0.53243 0.73466 0.33946
 H430 H 0.49279 0.78504 0.38972
 H431 H 0.43496 0.70061 0.36590
 H432 H 0.56502 0.80012 0.36597
 B433 B -0.02251 0.01334 1.01127
 B434 B -0.03172 0.00579 0.97788
 B435 B -0.01187 0.02737 0.98191
 B436 B 0.00648 0.02045 1.00992
 B437 B -0.00257 -0.00656 1.02309
 B438 B -0.02666 -0.01541 1.00310
 B439 B 0.01089 -0.01211 0.96619
 B440 B 0.02019 -0.00453 0.99951
 B441 B 0.00026 -0.02610 0.99554
 B442 B -0.01804 -0.01916 0.96752
 B443 B -0.00896 0.00781 0.95432
 B444 B 0.01508 0.01669 0.97427
 B445 B 0.47890 0.51476 0.51240
 B446 B 0.46965 0.50705 0.47907
 B447 B 0.48947 0.52867 0.48293
 B448 B 0.50787 0.52190 0.51094
 B449 B 0.49888 0.49493 0.52430
 B450 B 0.47478 0.48597 0.50442
 B451 B 0.51226 0.48917 0.46739
 B452 B 0.52160 0.49690 0.50065
 B453 B 0.50169 0.47529 0.49686
 B454 B 0.48334 0.48209 0.46884
 B455 B 0.49237 0.50901 0.45545
 B456 B 0.51643 0.51801 0.47529
 B457 B 0.52154 0.98504 0.51244
 B458 B 0.53042 0.99277 0.47890
 B459 B 0.51076 0.97103 0.48327
 B460 B 0.49260 0.97772 0.51142
 B461 B 0.50156 1.00475 0.52432
 B462 B 0.52541 1.01384 0.50404
 B463 B 0.48758 1.01037 0.46750
 B464 B 0.47862 1.00262 0.50097
 B465 B 0.49835 1.02436 0.49666
 B466 B 0.51647 1.01765 0.46851
 B467 B 0.50748 0.99065 0.45559
 B468 B 0.48367 0.98152 0.47583
 B469 B 0.02132 0.48492 1.01279
 B470 B 0.03056 0.49242 0.97933
 B471 B 0.01068 0.47087 0.98358
 B472 B -0.00767 0.47785 1.01143
 B473 B 0.00140 0.50486 1.02426
 B474 B 0.02551 0.51365 1.00424
 B475 B -0.01203 0.51035 0.96722
 B476 B -0.02135 0.50283 1.00062
 B477 B -0.00139 0.52437 0.99643
 B478 B 0.01692 0.51737 0.96857
 B479 B 0.00781 0.49040 0.95572
 B480 B -0.01626 0.48157 0.97570
 B481 B 0.02244 0.51511 0.48770
 B482 B 0.03160 0.50725 0.52110
 B483 B 0.01169 0.52884 0.51707
 B484 B -0.00658 0.52215 0.48897
 B485 B 0.00258 0.49529 0.47576
 B486 B 0.02665 0.48629 0.49580
 B487 B -0.01099 0.48917 0.53260
 B488 B -0.02023 0.49705 0.49927
 B489 B -0.00025 0.47548 0.50324
 B490 B 0.01797 0.48218 0.53134
 B491 B 0.00878 0.50901 0.54459
 B492 B -0.01525 0.51804 0.52459
 B493 B 0.52236 0.01476 -0.01298
 B494 B 0.53168 0.00708 0.02043
 B495 B 0.51175 0.02864 0.01636
 B496 B 0.49335 0.02179 -0.01154
 B497 B 0.50245 -0.00514 -0.02460
 B498 B 0.52663 -0.01402 -0.00467
 B499 B 0.48917 -0.01095 0.03238
 B500 B 0.47976 -0.00326 -0.00094
 B501 B 0.49977 -0.02481 0.00306
 B502 B 0.51812 -0.01794 0.03097
 B503 B 0.50898 0.00895 0.04406
 B504 B 0.48485 0.01787 0.02416
 B505 B 0.47806 0.48530 -0.01294
 B506 B 0.46876 0.49289 0.02039
 B507 B 0.48855 0.47121 0.01651
 B508 B 0.50701 0.47804 -0.01135
 B509 B 0.49813 0.50509 -0.02458
 B510 B 0.47401 0.51407 -0.00479
 B511 B 0.51141 0.51055 0.03244
 B512 B 0.52079 0.50293 -0.00081
 B513 B 0.50094 0.52461 0.00301
 B514 B 0.48251 0.51776 0.03087
 B515 B 0.49144 0.49075 0.04413
 B516 B 0.51551 0.48174 0.02438
 B517 B -0.02196 0.98610 0.48832
 B518 B -0.03135 0.99363 0.52163
 B519 B -0.01147 0.97204 0.51778
 B520 B 0.00702 0.97897 0.48998
 B521 B -0.00197 1.00599 0.47675
 B522 B -0.02617 1.01484 0.49648
 B523 B 0.01119 1.01149 0.53380
 B524 B 0.02066 1.00392 0.50057
 B525 B 0.00071 1.02551 0.50435
 B526 B -0.01774 1.01856 0.53216
 B527 B -0.00871 0.99158 0.54543
 B528 B 0.01544 0.98269 0.52573
 B529 B 0.76611 0.22869 0.23538
 B530 B 0.75864 0.21965 0.26895
 B531 B 0.78018 0.23952 0.26450
 B532 B 0.77316 0.25770 0.23631
 B533 B 0.74614 0.24852 0.22346
 B534 B 0.73738 0.22453 0.24382
 B535 B 0.74069 0.26227 0.28024
 B536 B 0.74817 0.27140 0.24675
 B537 B 0.72665 0.25146 0.25113
 B538 B 0.73369 0.23333 0.27933
 B539 B 0.76067 0.24253 0.29220
 B540 B 0.76946 0.26648 0.27188
 B541 B 0.73606 0.77193 0.73822
 B542 B 0.74355 0.78097 0.77169
 B543 B 0.72189 0.76123 0.76743
 B544 B 0.72882 0.74298 0.73952
 B545 B 0.75591 0.75195 0.72667
 B546 B 0.76481 0.77591 0.74673
 B547 B 0.76123 0.73824 0.78366
 B548 B 0.75370 0.72912 0.75025
 B549 B 0.77536 0.74892 0.75446
 B550 B 0.76842 0.76714 0.78237
 B551 B 0.74136 0.75813 0.79525
 B552 B 0.73243 0.73421 0.77522
 B553 B 0.26429 0.27253 0.76325
 B554 B 0.25649 0.28201 0.72995
 B555 B 0.27802 0.26202 0.73374
 B556 B 0.27126 0.24352 0.76167
 B557 B 0.24440 0.25262 0.77505
 B558 B 0.23548 0.27689 0.75527
 B559 B 0.23831 0.23959 0.71810
 B560 B 0.24614 0.23003 0.75132
 B561 B 0.22461 0.25009 0.74760
 B562 B 0.23139 0.26855 0.71965
 B563 B 0.25821 0.25941 0.70625
 B564 B 0.26716 0.23519 0.72599
 B565 B 0.23441 0.72837 0.26372
 B566 B 0.24214 0.71931 0.23035
 B567 B 0.22043 0.73905 0.23432
 B568 B 0.22714 0.75732 0.26231
 B569 B 0.25416 0.74836 0.27552
 B570 B 0.26322 0.72438 0.25559
 B571 B 0.25983 0.76204 0.21859
 B572 B 0.25207 0.77118 0.25190
 B573 B 0.27378 0.75137 0.24798
 B574 B 0.26705 0.73314 0.21999
 B575 B 0.24007 0.74214 0.20675
 B576 B 0.23097 0.76606 0.22664
 B577 B 0.26502 0.72868 0.73725
 B578 B 0.25745 0.71950 0.77073
 B579 B 0.27902 0.73937 0.76649
 B580 B 0.27210 0.75766 0.73839
 B581 B 0.24511 0.74858 0.72537
 B582 B 0.23626 0.72452 0.74554
 B583 B 0.23951 0.76211 0.78222
 B584 B 0.24711 0.77136 0.74880
 B585 B 0.22554 0.75143 0.75297
 B586 B 0.23248 0.73317 0.78109
 B587 B 0.25944 0.74229 0.79413
 B588 B 0.26831 0.76631 0.77400
 B589 B 0.23591 0.27189 0.23863
 B590 B 0.24365 0.28107 0.27196
 B591 B 0.22205 0.26120 0.26807
 B592 B 0.22883 0.24290 0.24015
 B593 B 0.25576 0.25198 0.22689
 B594 B 0.26471 0.27604 0.24673
 B595 B 0.26164 0.23846 0.28387
 B596 B 0.25388 0.22919 0.25061
 B597 B 0.27547 0.24912 0.25444
 B598 B 0.26867 0.26740 0.28236
 B599 B 0.24178 0.25828 0.29564
 B600 B 0.23279 0.23426 0.27584
 B601 B 0.76546 0.77173 0.26386
 B602 B 0.75784 0.78093 0.23038
 B603 B 0.77939 0.76102 0.23461
 B604 B 0.77252 0.74273 0.26271
 B605 B 0.74556 0.75187 0.27574
 B606 B 0.73669 0.77596 0.25558
 B607 B 0.73983 0.73837 0.21891
 B608 B 0.74748 0.72909 0.25231
 B609 B 0.72593 0.74908 0.24814
 B610 B 0.73283 0.76732 0.22003
 B611 B 0.75975 0.75813 0.20698
 B612 B 0.76864 0.73410 0.22710
 B613 B 0.73444 0.22809 0.76165
 B614 B 0.74224 0.21880 0.72840
 B615 B 0.72053 0.23858 0.73210
 B616 B 0.72720 0.25703 0.75992
 B617 B 0.75417 0.24813 0.77332
 B618 B 0.76326 0.22402 0.75366
 B619 B 0.75999 0.26145 0.71628
 B620 B 0.75217 0.27080 0.74946
 B621 B 0.77387 0.25095 0.74583
 B622 B 0.76719 0.23255 0.71799
 B623 B 0.74025 0.24149 0.70456
 B624 B 0.73112 0.26554 0.72419
 C625 C 0.40855 1.01960 0.34102
 C626 C 0.40547 1.03438 0.36513
 C627 C 0.38499 1.04817 0.36741
 C628 C 0.36760 1.04714 0.34556
 C629 C 0.37027 1.03206 0.32106
 C630 C 0.39124 1.01840 0.31927
 C631 C 0.42299 1.03415 0.38800
 C632 C 0.43797 1.03219 0.40666
 C633 C 0.45552 1.02760 0.42790
 C634 C 0.47015 1.02155 0.44561
 H635 H 0.42440 1.00888 0.33903
 H636 H 0.38228 1.05942 0.38628
 H637 H 0.35167 1.05746 0.34878
 H638 H 0.39499 1.00734 0.30056
 C639 C -0.11365 0.54891 0.86631
 C640 C -0.09316 0.53517 0.86392
 C641 C -0.09006 0.52052 0.83968
 C642 C -0.10740 0.51936 0.81797
 C643 C -0.12843 0.53291 0.81994
 C644 C -0.13108 0.54792 0.84450
 C645 C -0.07572 0.53473 0.88688
 C646 C -0.06088 0.53259 0.90567
 C647 C -0.04355 0.52781 0.92712
 C648 C -0.02914 0.52162 0.94504
 H649 H -0.11638 0.56006 0.88528
 H650 H -0.07419 0.50984 0.83760
 H651 H -0.10367 0.50837 0.79919
 H652 H -0.14704 0.55817 0.84784
 C653 C 0.11622 -0.04657 0.87172
 C654 C 0.09335 -0.03830 0.86550
 C655 C 0.08817 -0.02887 0.83784
 C656 C 0.10583 -0.02730 0.81658
 C657 C 0.12896 -0.03514 0.82271
 C658 C 0.13394 -0.04513 0.85034
 C659 C 0.07554 -0.03745 0.88793
 C660 C 0.06037 -0.03498 0.90617
 C661 C 0.04271 -0.02987 0.92697
 C662 C 0.02810 -0.02347 0.94439
 H663 H 0.12047 -0.05364 0.89320
 H664 H 0.07057 -0.02229 0.83288
 H665 H 0.10141 -0.01992 0.79532
 H666 H 0.15165 -0.05122 0.85562
 C667 C 0.61659 0.45379 0.37127
 C668 C 0.59378 0.46249 0.36560
 C669 C 0.58838 0.47207 0.33809
 C670 C 0.60574 0.47334 0.31642
 C671 C 0.62880 0.46504 0.32199
 C672 C 0.63401 0.45493 0.34949
 C673 C 0.57628 0.46352 0.38840
 C674 C 0.56135 0.46611 0.40693
 C675 C 0.54391 0.47131 0.42798
 C676 C 0.52942 0.47775 0.44555
 H677 H 0.62101 0.44657 0.39263
 H678 H 0.57083 0.47897 0.33354
 H679 H 0.60114 0.48084 0.29528
 H680 H 0.65167 0.44850 0.35436
 C681 C 0.61581 0.54605 0.12857
 C682 C 0.59308 0.53725 0.13433
 C683 C 0.58783 0.52770 0.16189
 C684 C 0.60528 0.52656 0.18351
 C685 C 0.62827 0.53495 0.17785
 C686 C 0.63332 0.54503 0.15030
 C687 C 0.57550 0.53612 0.11158
 C688 C 0.56052 0.53348 0.09309
 C689 C 0.54305 0.52826 0.07203
 C690 C 0.52856 0.52185 0.05442
 H691 H 0.62011 0.55324 0.10717
 H692 H 0.57033 0.52074 0.16651
 H693 H 0.60080 0.51908 0.20469
 H694 H 0.65093 0.55152 0.14536
 C695 C 0.08980 1.02184 0.66047
 C696 C 0.09265 1.03667 0.63619
 C697 C 0.11302 1.05056 0.63359
 C698 C 0.13059 1.04953 0.65525
 C699 C 0.12820 1.03430 0.67981
 C700 C 0.10728 1.02062 0.68200
 C701 C 0.07508 1.03623 0.61339
 C702 C 0.06012 1.03401 0.59479
 C703 C 0.04269 1.02910 0.57358
 C704 C 0.02825 1.02280 0.55585
 H705 H 0.07402 1.01105 0.66271
 H706 H 0.11555 1.06186 0.61459
 H707 H 0.14646 1.05991 0.65179
 H708 H 0.10374 1.00948 0.70083
 C709 C -0.11602 0.45379 0.62733
 C710 C -0.09311 0.46189 0.63353
 C711 C -0.08784 0.47092 0.66126
 C712 C -0.10544 0.47226 0.68260
 C713 C -0.12861 0.46460 0.67648
 C714 C -0.13368 0.45501 0.64878
 C715 C -0.07538 0.46300 0.61102
 C716 C -0.06029 0.46567 0.59269
 C717 C -0.04272 0.47100 0.57181
 C718 C -0.02817 0.47758 0.55435
 H719 H -0.12034 0.44703 0.60579
 H720 H -0.07021 0.47736 0.66622
 H721 H -0.10096 0.47935 0.70392
 H722 H -0.15142 0.44907 0.64350
 C723 C 0.38361 -0.04503 0.12673
 C724 C 0.40644 -0.03680 0.13306
 C725 C 0.41150 -0.02753 0.16073
 C726 C 0.39380 -0.02622 0.18194
 C727 C 0.37073 -0.03415 0.17575
 C728 C 0.36584 -0.04384 0.14804
 C729 C 0.42438 -0.03599 0.11078
 C730 C 0.43963 -0.03363 0.09259
 C731 C 0.45736 -0.02867 0.07180
 C732 C 0.47201 -0.02236 0.05432
 H733 H 0.37945 -0.05197 0.10523
 H734 H 0.42908 -0.02098 0.16577
 H735 H 0.39816 -0.01907 0.20326
 H736 H 0.34818 -0.04999 0.14271
 C737 C 0.33781 0.46861 0.03502
 C738 C 0.35683 0.45730 0.04893
 C739 C 0.35327 0.43573 0.06350
 C740 C 0.33090 0.42512 0.06341
 C741 C 0.31188 0.43596 0.04860
 C742 C 0.31545 0.45804 0.03488
 C743 C 0.38034 0.46670 0.04590
 C744 C 0.40016 0.47390 0.04205
 C745 C 0.42344 0.48147 0.03613
 C746 C 0.44336 0.48711 0.02993
 H747 H 0.34042 0.48527 0.02358
 H748 H 0.36795 0.42673 0.07409
 H749 H 0.32873 0.40800 0.07387
 H750 H 0.30103 0.46691 0.02362
 C751 C -0.16128 0.96727 0.52931
 C752 C -0.14378 0.95869 0.54820
 C753 C -0.14890 0.93996 0.56726
 C754 C -0.17125 0.92930 0.56680
 C755 C -0.18890 0.93700 0.54685
 C756 C -0.18358 0.95666 0.52865
 C757 C -0.12007 0.96774 0.54599
 C758 C -0.10012 0.97474 0.54263
 C759 C -0.07674 0.98217 0.53708
 C760 C -0.05676 0.98778 0.53107
 H761 H -0.15752 0.98190 0.51456
 H762 H -0.13534 0.93302 0.58179
 H763 H -0.17387 0.91401 0.58078
 H764 H -0.19666 0.96425 0.51402
 C765 C -0.16249 0.03095 0.96398
 C766 C -0.14349 0.04238 0.95027
 C767 C -0.14697 0.06431 0.93650
 C768 C -0.16924 0.07513 0.93717
 C769 C -0.18824 0.06415 0.95180
 C770 C -0.18476 0.04174 0.96470
 C771 C -0.12003 0.03273 0.95283
 C772 C -0.10023 0.02532 0.95638
 C773 C -0.07698 0.01753 0.96207
 C774 C -0.05707 0.01171 0.96820
 H775 H -0.15994 0.01402 0.97483
 H776 H -0.13229 0.07341 0.92609
 H777 H -0.17133 0.09251 0.92735
 H778 H -0.19916 0.03276 0.97580
 C779 C 0.33862 0.53099 0.46522
 C780 C 0.35750 0.54264 0.45154
 C781 C 0.35378 0.56450 0.43770
 C782 C 0.33137 0.57503 0.43827
 C783 C 0.31247 0.56383 0.45285
 C784 C 0.31622 0.54149 0.46584
 C785 C 0.38108 0.53327 0.45413
 C786 C 0.40096 0.52608 0.45767
 C787 C 0.42429 0.51852 0.46334
 C788 C 0.44425 0.51286 0.46943
 H789 H 0.34137 0.51411 0.47611
 H790 H 0.36835 0.57376 0.42731
 H791 H 0.32908 0.59236 0.42839
 H792 H 0.30191 0.53235 0.47691
 C793 C 0.16252 0.53084 0.53712
 C794 C 0.14349 0.54255 0.55028
 C795 C 0.14709 0.56440 0.56394
 C796 C 0.16951 0.57488 0.56365
 C797 C 0.18856 0.56363 0.54953
 C798 C 0.18495 0.54128 0.53678
 C799 C 0.11993 0.53328 0.54727
 C800 C 0.10009 0.52617 0.54337
 C801 C 0.07682 0.51868 0.53731
 C802 C 0.05692 0.51306 0.53094
 H803 H 0.15989 0.51397 0.52636
 H804 H 0.13240 0.57371 0.57393
 H805 H 0.17171 0.59222 0.57334
 H806 H 0.19937 0.53211 0.52606
 C807 C 0.66251 0.03138 0.03568
 C808 C 0.64352 0.04279 0.04932
 C809 C 0.64712 0.06442 0.06351
 C810 C 0.66951 0.07499 0.06327
 C811 C 0.68850 0.06406 0.04865
 C812 C 0.68489 0.04192 0.03538
 C813 C 0.61998 0.03346 0.04631
 C814 C 0.60017 0.02627 0.04241
 C815 C 0.57692 0.01868 0.03637
 C816 C 0.55703 0.01298 0.03008
 H817 H 0.65987 0.01468 0.02453
 H818 H 0.63247 0.07350 0.07390
 H819 H 0.67172 0.09216 0.07339
 H820 H 0.69927 0.03298 0.02428
 C821 C 0.66130 0.96888 0.46352
 C822 C 0.64226 0.95718 0.45033
 C823 C 0.64582 0.93523 0.43690
 C824 C 0.66821 0.92465 0.43743
 C825 C 0.68726 0.93590 0.45156
 C826 C 0.68369 0.95834 0.46410
 C827 C 0.61873 0.96659 0.45308
 C828 C 0.59890 0.97382 0.45679
 C829 C 0.57564 0.98141 0.46270
 C830 C 0.55574 0.98706 0.46901
 H831 H 0.65869 0.98582 0.47410
 H832 H 0.63112 0.92593 0.42689
 H833 H 0.67038 0.90726 0.42789
 H834 H 0.69812 0.96752 0.47481
 C835 C 0.14601 0.43433 0.93837
 C836 C 0.14244 0.45625 0.95186
 C837 C 0.16145 0.46791 0.96516
 C838 C 0.18384 0.45737 0.96575
 C839 C 0.18744 0.43497 0.95313
 C840 C 0.16841 0.42375 0.93892
 C841 C 0.11891 0.46570 0.95449
 C842 C 0.09909 0.47299 0.95805
 C843 C 0.07582 0.48069 0.96373
 C844 C 0.05591 0.48646 0.96979
 H845 H 0.13134 0.42506 0.92828
 H846 H 0.15883 0.48484 0.97578
 H847 H 0.19825 0.46653 0.97653
 H848 H 0.17059 0.40638 0.92931
 C849 C -0.00548 0.34408 0.45783
 C850 C -0.00033 0.36603 0.44490
 C851 C 0.00962 0.36681 0.41683
 C852 C 0.01480 0.34586 0.40194
 C853 C 0.01011 0.32369 0.41491
 C854 C -0.00036 0.32303 0.44291
 C855 C -0.00398 0.38785 0.46067
 C856 C -0.00580 0.40672 0.47285
 C857 C -0.00628 0.42950 0.48563
 C858 C -0.00498 0.44947 0.49485
 H859 H -0.01304 0.34321 0.47961
 H860 H 0.01371 0.38367 0.40658
 H861 H 0.02252 0.34699 0.38027
 H862 H -0.00396 0.30626 0.45360
 C863 C 0.49472 -0.15630 -0.04205
 C864 C 0.49976 -0.13432 -0.05498
 C865 C 0.50962 -0.13349 -0.08310
 C866 C 0.51481 -0.15442 -0.09804
 C867 C 0.51023 -0.17661 -0.08507
 C868 C 0.49986 -0.17732 -0.05702
 C869 C 0.49608 -0.11252 -0.03918
 C870 C 0.49424 -0.09365 -0.02700
 C871 C 0.49374 -0.07085 -0.01426
 C872 C 0.49503 -0.05085 -0.00512
 H873 H 0.48723 -0.15721 -0.02023
 H874 H 0.51362 -0.11661 -0.09335
 H875 H 0.52246 -0.15325 -0.11974
 H876 H 0.49634 -0.19411 -0.04633
 C877 C -0.00901 -0.13489 1.08263
 C878 C 0.00043 -0.13573 1.05430
 C879 C 0.00501 -0.15770 1.04135
 C880 C -0.00016 -0.17872 1.05653
 C881 C -0.01012 -0.17800 1.08480
 C882 C -0.01424 -0.15582 1.09777
 C883 C 0.00410 -0.11391 1.03832
 C884 C 0.00594 -0.09502 1.02600
 C885 C 0.00641 -0.07218 1.01311
 C886 C 0.00508 -0.05216 1.00386
 H887 H -0.01267 -0.11801 1.09290
 H888 H 0.01217 -0.15860 1.01937
 H889 H 0.00300 -0.19551 1.04584
 H890 H -0.02157 -0.15467 1.11964
 C891 C 0.49126 0.36634 0.58352
 C892 C 0.50113 0.36560 0.55541
 C893 C 0.50587 0.34366 0.54244
 C894 C 0.50043 0.32260 0.55737
 C895 C 0.49004 0.32322 0.58541
 C896 C 0.48577 0.34536 0.59842
 C897 C 0.50506 0.38746 0.53963
 C898 C 0.50708 0.40637 0.52740
 C899 C 0.50773 0.42922 0.51456
 C900 C 0.50650 0.44925 0.50529
 H901 H 0.48747 0.38319 0.59380
 H902 H 0.51335 0.34283 0.52063
 H903 H 0.50372 0.30585 0.54664
 H904 H 0.47811 0.34645 0.62012
 C905 C 0.50749 1.13272 0.58333
 C906 C 0.49763 1.13363 0.55519
 C907 C 0.49259 1.15564 0.54231
 C908 C 0.49774 1.17662 0.55736
 C909 C 0.50814 1.17583 0.58542
 C910 C 0.51270 1.15362 0.59834
 C911 C 0.49403 1.11188 0.53927
 C912 C 0.49229 1.09306 0.52698
 C913 C 0.49194 1.07030 0.51412
 C914 C 0.49338 1.05034 0.50490
 H915 H 0.51150 1.11582 0.59354
 H916 H 0.48510 1.15660 0.52047
 H917 H 0.49424 1.19344 0.54670
 H918 H 0.52038 1.15240 0.62005
 C919 C 0.01428 0.63291 1.07953
 C920 C -0.00048 0.63350 1.05495
 C921 C -0.01038 0.65504 1.04591
 C922 C -0.00527 0.67594 1.06115
 C923 C 0.01010 0.67580 1.08575
 C924 C 0.01951 0.65368 1.09475
 C925 C -0.00463 0.61193 1.03888
 C926 C -0.00673 0.59317 1.02651
 C927 C -0.00740 0.57043 1.01363
 C928 C -0.00616 0.55044 1.00447
 H929 H 0.02188 0.61630 1.08696
 H930 H -0.02172 0.65577 1.02676
 H931 H -0.01254 0.69225 1.05248
 H932 H 0.03040 0.65197 1.11415
 C933 C 0.48606 0.63388 -0.08028
 C934 C 0.50074 0.63419 -0.05563
 C935 C 0.51058 0.65562 -0.04642
 C936 C 0.50547 0.67670 -0.06154
 C937 C 0.49013 0.67685 -0.08618
 C938 C 0.48082 0.65482 -0.09538
 C939 C 0.50479 0.61243 -0.03962
 C940 C 0.50677 0.59355 -0.02731
 C941 C 0.50727 0.57069 -0.01445
 C942 C 0.50589 0.55066 -0.00525
 H943 H 0.47850 0.61735 -0.08785
 H944 H 0.52187 0.65614 -0.02721
 H945 H 0.51269 0.69292 -0.05275
 H946 H 0.46999 0.65333 -0.11483
 C947 C -0.01414 1.13442 0.42025
 C948 C 0.00025 1.13490 0.44515
 C949 C 0.00985 1.15642 0.45444
 C950 C 0.00479 1.17742 0.43912
 C951 C -0.01025 1.17740 0.41421
 C952 C -0.01932 1.15529 0.40495
 C953 C 0.00429 1.11322 0.46133
 C954 C 0.00630 1.09439 0.47378
 C955 C 0.00686 1.07159 0.48677
 C956 C 0.00554 1.05157 0.49606
 H957 H -0.02150 1.11782 0.41263
 H958 H 0.02091 1.15707 0.47384
 H959 H 0.01181 1.19372 0.44795
 H960 H -0.02993 1.15370 0.38531
 C961 C 0.79858 0.63563 0.88402
 C962 C 0.78488 0.65615 0.88641
 C963 C 0.77007 0.65915 0.91057
 C964 C 0.76875 0.64173 0.93224
 C965 C 0.78232 0.62071 0.93033
 C966 C 0.79745 0.61812 0.90580
 C967 C 0.78472 0.67376 0.86357
 C968 C 0.78282 0.68877 0.84490
 C969 C 0.77831 0.70632 0.82358
 C970 C 0.77232 0.72092 0.80576
 H971 H 0.80985 0.63298 0.86512
 H972 H 0.75940 0.67503 0.91265
 H973 H 0.75767 0.64542 0.95099
 H974 H 0.80770 0.60217 0.90249
 C975 C 0.27200 0.16069 0.41163
 C976 C 0.28662 0.15743 0.38735
 C977 C 0.30019 0.13682 0.38503
 C978 C 0.29902 0.11941 0.40694
 C979 C 0.28398 0.12221 0.43150
 C980 C 0.27065 0.14337 0.43343
 C981 C 0.28628 0.17481 0.36425
 C982 C 0.28414 0.18962 0.34537
 C983 C 0.27931 0.20692 0.32385
 C984 C 0.27304 0.22132 0.30594
 H985 H 0.26146 0.17665 0.41366
 H986 H 0.31133 0.13397 0.36605
 H987 H 0.30912 0.10336 0.40366
 H988 H 0.25967 0.14721 0.45222
 C989 C 0.72453 0.33920 0.40881
 C990 C 0.71510 0.34451 0.38121
 C991 C 0.70654 0.36733 0.37524
 C992 C 0.70754 0.38480 0.39686
 C993 C 0.71736 0.37965 0.42453
 C994 C 0.72565 0.35661 0.43034
 C995 C 0.71595 0.32685 0.35868
 C996 C 0.71829 0.31178 0.34035
 C997 C 0.72319 0.29417 0.31947
 C998 C 0.72942 0.27955 0.30200
 H999 H 0.73132 0.32163 0.41359
 H1000 H 0.69945 0.37168 0.35380
 H1001 H 0.70112 0.40244 0.39181
 H1002 H 0.73291 0.35204 0.45160
 C1003 C 0.20107 0.86464 0.88098
 C1004 C 0.21498 0.84425 0.88353
 C1005 C 0.22988 0.84134 0.90768
 C1006 C 0.23109 0.85873 0.92920
 C1007 C 0.21732 0.87961 0.92714
 C1008 C 0.20209 0.88211 0.90261
 C1009 C 0.21525 0.82663 0.86090
 C1010 C 0.21730 0.81157 0.84249
 C1011 C 0.22203 0.79397 0.82154
 C1012 C 0.22821 0.77936 0.80402
 H1013 H 0.18972 0.86722 0.86206
 H1014 H 0.24070 0.82555 0.90990
 H1015 H 0.24225 0.85509 0.94797
 H1016 H 0.19166 0.89797 0.89922
 C1017 C 0.29893 0.86471 0.11917
 C1018 C 0.28506 0.84431 0.11674
 C1019 C 0.27037 0.84135 0.09244
 C1020 C 0.26930 0.85870 0.07067
 C1021 C 0.28301 0.87961 0.07262
 C1022 C 0.29806 0.88215 0.09726
 C1023 C 0.28461 0.82673 0.13960
 C1024 C 0.28238 0.81167 0.15814
 C1025 C 0.27745 0.79403 0.17918
 C1026 C 0.27115 0.77937 0.19674
 H1027 H 0.31013 0.86732 0.13818
 H1028 H 0.25960 0.82556 0.09032
 H1029 H 0.25829 0.85504 0.05182
 H1030 H 0.30845 0.89801 0.10054
 C1031 C 0.79493 0.36625 0.62018
 C1032 C 0.78628 0.34351 0.61434
 C1033 C 0.77682 0.33835 0.58676
 C1034 C 0.77570 0.35588 0.56518
 C1035 C 0.78401 0.37888 0.57089
 C1036 C 0.79393 0.38384 0.59849
 C1037 C 0.78526 0.32580 0.63702
 C1038 C 0.78276 0.31073 0.65551
 C1039 C 0.77769 0.29318 0.67661
 C1040 C 0.77134 0.27863 0.69427
 H1041 H 0.80203 0.37049 0.64159
 H1042 H 0.76996 0.32085 0.58209
 H1043 H 0.76836 0.35146 0.54396
 H1044 H 0.80036 0.40144 0.60347
 C1045 C 0.22079 0.16307 0.58944
 C1046 C 0.21144 0.15785 0.61708
 C1047 C 0.20316 0.13499 0.62329
 C1048 C 0.20451 0.11732 0.60193
 C1049 C 0.21441 0.12235 0.57432
 C1050 C 0.22227 0.14547 0.56819
 C1051 C 0.21239 0.17558 0.63953
 C1052 C 0.21495 0.19064 0.65783
 C1053 C 0.22019 0.20814 0.67873
 C1054 C 0.22672 0.22260 0.69624
 H1055 H 0.22738 0.18067 0.58449
 H1056 H 0.19615 0.13071 0.64476
 H1057 H 0.19842 0.09962 0.60721
 H1058 H 0.22960 0.14991 0.54695
 C1059 C 0.70520 0.63304 0.12492
 C1060 C 0.71343 0.65590 0.11860
 C1061 C 0.72256 0.66112 0.09084
 C1062 C 0.72375 0.64354 0.06954
 C1063 C 0.71584 0.62045 0.07572
 C1064 C 0.70627 0.61540 0.10351
 C1065 C 0.71439 0.67369 0.14094
 C1066 C 0.71689 0.68886 0.15912
 C1067 C 0.72200 0.70654 0.17982
 C1068 C 0.72840 0.72117 0.19718
 H1069 H 0.69835 0.62877 0.14648
 H1070 H 0.72910 0.67871 0.08581
 H1071 H 0.73082 0.64802 0.04816
 H1072 H 0.70013 0.59772 0.10882
 C1073 C 0.21845 0.58839 0.21467
 C1074 C 0.20670 0.60749 0.20148
 C1075 C 0.18480 0.60396 0.18776
 C1076 C 0.17432 0.58154 0.18801
 C1077 C 0.18561 0.56242 0.20215
 C1078 C 0.20800 0.56598 0.21497
 C1079 C 0.21602 0.63103 0.20448
 C1080 C 0.22320 0.65084 0.20835
 C1081 C 0.23075 0.67409 0.21436
 C1082 C 0.23639 0.69397 0.22064
 H1083 H 0.23536 0.59097 0.22546
 H1084 H 0.17547 0.61870 0.17774
 H1085 H 0.15696 0.57939 0.17826
 H1086 H 0.21721 0.55150 0.22570
 C1087 C 0.71841 0.08783 0.71429
 C1088 C 0.70702 0.10679 0.70036
 C1089 C 0.68545 0.10315 0.68591
 C1090 C 0.67494 0.08074 0.68613
 C1091 C 0.68586 0.06176 0.70098
 C1092 C 0.70793 0.06542 0.71457
 C1093 C 0.71632 0.13034 0.70325
 C1094 C 0.72345 0.15018 0.70699
 C1095 C 0.73094 0.17347 0.71281
 C1096 C 0.73653 0.19341 0.71893
 H1097 H 0.73506 0.09050 0.72565
 H1098 H 0.67639 0.11779 0.67529
 H1099 H 0.65782 0.07850 0.67577
 H1100 H 0.71686 0.05105 0.72586
 C1101 C 0.78511 0.08997 0.27814
 C1102 C 0.79391 0.10746 0.29670
 C1103 C 0.81284 0.10232 0.31543
 C1104 C 0.82346 0.07994 0.31496
 C1105 C 0.81550 0.06229 0.29534
 C1106 C 0.79568 0.06764 0.27748
 C1107 C 0.78484 0.13117 0.29446
 C1108 C 0.77779 0.15110 0.29099
 C1109 C 0.77027 0.17444 0.28521
 C1110 C 0.76459 0.19436 0.27892
 H1111 H 0.77034 0.09375 0.26366
 H1112 H 0.81995 0.11587 0.32968
 H1113 H 0.83888 0.07728 0.32866
 H1114 H 0.78791 0.05457 0.26313
 C1115 C 0.28419 0.58983 0.77846
 C1116 C 0.29282 0.60716 0.79736
 C1117 C 0.31166 0.60191 0.81617
 C1118 C 0.32237 0.57958 0.81545
 C1119 C 0.31459 0.56209 0.79551
 C1120 C 0.29485 0.56754 0.77756
 C1121 C 0.28368 0.63087 0.79538
 C1122 C 0.27659 0.65082 0.79214
 C1123 C 0.26905 0.67419 0.78662
 C1124 C 0.26336 0.69415 0.78052
 H1125 H 0.26948 0.59369 0.76391
 H1126 H 0.31864 0.61536 0.83068
 H1127 H 0.33773 0.57685 0.82924
 H1128 H 0.28721 0.55458 0.76295
 C1129 C 0.31442 0.39715 0.68669
 C1130 C 0.29271 0.39372 0.70086
 C1131 C 0.28137 0.41280 0.71435
 C1132 C 0.29204 0.43511 0.71446
 C1133 C 0.31425 0.43856 0.70116
 C1134 C 0.32512 0.41946 0.68675
 C1135 C 0.28320 0.37025 0.70399
 C1136 C 0.27589 0.35048 0.70794
 C1137 C 0.26819 0.32726 0.71400
 C1138 C 0.26242 0.30738 0.72030
 H1139 H 0.32345 0.38241 0.67643
 H1140 H 0.26461 0.41029 0.72549
 H1141 H 0.28314 0.44959 0.72541
 H1142 H 0.34234 0.42154 0.67661
 C1143 C 0.81134 0.89831 0.18307
 C1144 C 0.79290 0.89313 0.20245
 C1145 C 0.78457 0.91056 0.22141
 C1146 C 0.79516 0.93288 0.22180
 C1147 C 0.81450 0.93828 0.20324
 C1148 C 0.82197 0.92068 0.18327
 C1149 C 0.78385 0.86943 0.20485
 C1150 C 0.77683 0.84951 0.20841
 C1151 C 0.76936 0.82618 0.21425
 C1152 C 0.76372 0.80625 0.22053
 H1153 H 0.81808 0.88480 0.16850
 H1154 H 0.77018 0.90675 0.23640
 H1155 H 0.78777 0.94591 0.23649
 H1156 H 0.83704 0.92338 0.16903
 C1157 C 0.71862 0.91175 0.78528
 C1158 C 0.70711 0.89271 0.79885
 C1159 C 0.68517 0.89618 0.81244
 C1160 C 0.67444 0.91849 0.81174
 C1161 C 0.68550 0.93754 0.79727
 C1162 C 0.70791 0.93406 0.78453
 C1163 C 0.71671 0.86924 0.79636
 C1164 C 0.72410 0.84945 0.79289
 C1165 C 0.73188 0.82621 0.78730
 C1166 C 0.73767 0.80631 0.78126
 H1167 H 0.73555 0.90921 0.77458
 H1168 H 0.67602 0.88147 0.82274
 H1169 H 0.65706 0.92058 0.82144
 H1170 H 0.71695 0.94849 0.77356
 C1171 C 0.21904 0.41191 0.28586
 C1172 C 0.20755 0.39290 0.29950
 C1173 C 0.18575 0.39645 0.31339
 C1174 C 0.17513 0.41882 0.31293
 C1175 C 0.18617 0.43786 0.29839
 C1176 C 0.20845 0.43428 0.28535
 C1177 C 0.21702 0.36938 0.29684
 C1178 C 0.22432 0.34957 0.29326
 C1179 C 0.23201 0.32631 0.28758
 C1180 C 0.23776 0.30641 0.28151
 H1181 H 0.23587 0.40931 0.27493
 H1182 H 0.17661 0.38177 0.32376
 H1183 H 0.15785 0.42098 0.32286
 H1184 H 0.21748 0.44870 0.27431
 C1185 C 0.11581 0.25897 0.83444
 C1186 C 0.11506 0.24942 0.80620
 C1187 C 0.09313 0.24453 0.79319
 C1188 C 0.07206 0.24952 0.80820
 C1189 C 0.07267 0.25960 0.83636
 C1190 C 0.09482 0.26401 0.84942
 C1191 C 0.13691 0.24595 0.79035
 C1192 C 0.15580 0.24427 0.77811
 C1193 C 0.17860 0.24393 0.76526
 C1194 C 0.19859 0.24532 0.75601
 H1195 H 0.13266 0.26286 0.84475
 H1196 H 0.09229 0.23728 0.77128
 H1197 H 0.05529 0.24613 0.79744
 H1198 H 0.09592 0.27144 0.87121
 C1199 C 0.59425 0.74425 0.29289
 C1200 C 0.61616 0.74912 0.30598
 C1201 C 0.61685 0.75889 0.33410
 C1202 C 0.59583 0.76416 0.34890
 C1203 C 0.57371 0.75975 0.33577
 C1204 C 0.57315 0.74945 0.30772
 C1205 C 0.63806 0.74542 0.29031
 C1206 C 0.65698 0.74356 0.27820
 C1207 C 0.67984 0.74305 0.26552
 C1208 C 0.69987 0.74434 0.25639
 H1209 H 0.59346 0.73683 0.27107
 H1210 H 0.63368 0.76278 0.34447
 H1211 H 0.59688 0.77174 0.37061
 H1212 H 0.55641 0.74606 0.29691
 C1213 C 0.59484 0.25582 0.20643
 C1214 C 0.61674 0.25094 0.19338
 C1215 C 0.61740 0.24108 0.16529
 C1216 C 0.59636 0.23576 0.15052
 C1217 C 0.57425 0.24018 0.16361
 C1218 C 0.57372 0.25055 0.19162
 C1219 C 0.63865 0.25475 0.20902
 C1220 C 0.65760 0.25672 0.22112
 C1221 C 0.68048 0.25735 0.23381
 C1222 C 0.70054 0.25615 0.24293
 H1223 H 0.59407 0.26330 0.22823
 H1224 H 0.63422 0.23719 0.15494
 H1225 H 0.59740 0.22812 0.12883
 H1226 H 0.55700 0.25395 0.20242
 C1227 C 0.11650 0.74115 0.66677
 C1228 C 0.11577 0.75104 0.69484
 C1229 C 0.09383 0.75597 0.70777
 C1230 C 0.07276 0.75072 0.69287
 C1231 C 0.07336 0.74033 0.66487
 C1232 C 0.09551 0.73584 0.65190
 C1233 C 0.13764 0.75484 0.71058
 C1234 C 0.15656 0.75680 0.72274
 C1235 C 0.17942 0.75740 0.73550
 C1236 C 0.19946 0.75618 0.74469
 H1237 H 0.13335 0.73721 0.65651
 H1238 H 0.09301 0.76348 0.72955
 H1239 H 0.05600 0.75418 0.70357
 H1240 H 0.09660 0.72819 0.63023
 C1241 C 0.88394 0.76431 0.67092
 C1242 C 0.88453 0.74949 0.69550
 C1243 C 0.90607 0.73956 0.70444
 C1244 C 0.92698 0.74471 0.68911
 C1245 C 0.92685 0.76018 0.66453
 C1246 C 0.90471 0.76958 0.65561
 C1247 C 0.86295 0.74536 0.71169
 C1248 C 0.84418 0.74330 0.72415
 C1249 C 0.82142 0.74272 0.73711
 C1250 C 0.80142 0.74403 0.74634
 H1251 H 0.86733 0.77194 0.66356
 H1252 H 0.90680 0.72816 0.72358
 H1253 H 0.94329 0.73741 0.69769
 H1254 H 0.90301 0.78053 0.63622
 C1255 C 0.38382 0.25833 0.16705
 C1256 C 0.38476 0.24856 0.19528
 C1257 C 0.40680 0.24353 0.20804
 C1258 C 0.42776 0.24862 0.19280
 C1259 C 0.42693 0.25894 0.16465
 C1260 C 0.40469 0.26348 0.15185
 C1261 C 0.36302 0.24500 0.21136
 C1262 C 0.34420 0.24327 0.22377
 C1263 C 0.32145 0.24291 0.23675
 C1264 C 0.30148 0.24430 0.24607
 H1265 H 0.36689 0.26233 0.15693
 H1266 H 0.40779 0.23611 0.22994
 H1267 H 0.44460 0.24513 0.20337
 H1268 H 0.40344 0.27109 0.13008
 C1269 C 0.38299 0.74194 0.33414
 C1270 C 0.38359 0.75187 0.30599
 C1271 C 0.40546 0.75693 0.29290
 C1272 C 0.42661 0.75171 0.30775
 C1273 C 0.42613 0.74123 0.33581
 C1274 C 0.40405 0.73667 0.34895
 C1275 C 0.36166 0.75552 0.29028
 C1276 C 0.34270 0.75731 0.27814
 C1277 C 0.31983 0.75769 0.26543
 C1278 C 0.29980 0.75628 0.25627
 H1279 H 0.36620 0.73791 0.34451
 H1280 H 0.40618 0.76447 0.27105
 H1281 H 0.44331 0.75523 0.29693
 H1282 H 0.40307 0.72893 0.37067
 C1283 C 0.90524 0.25632 0.79235
 C1284 C 0.88324 0.25114 0.80502
 C1285 C 0.88237 0.24104 0.83308
 C1286 C 0.90329 0.23576 0.84820
 C1287 C 0.92550 0.24048 0.83548
 C1288 C 0.92624 0.25110 0.80750
 C1289 C 0.86146 0.25486 0.78900
 C1290 C 0.84262 0.25672 0.77661
 C1291 C 0.81985 0.25720 0.76361
 C1292 C 0.79987 0.25585 0.75425
 H1293 H 0.90617 0.26400 0.77058
 H1294 H 0.86548 0.23691 0.84313
 H1295 H 0.90209 0.22791 0.86984
 H1296 H 0.94305 0.25473 0.79700
 C1297 C 0.61297 0.96595 0.63566
 C1298 C 0.60413 0.98171 0.61466
 C1299 C 0.61088 1.00548 0.61540
 C1300 C 0.62590 1.01373 0.63736
 C1301 C 0.63467 0.99833 0.65939
 C1302 C 0.62815 0.97410 0.65774
 C1303 C 0.58695 0.97453 0.59316
 C1304 C 0.57198 0.97133 0.57477
 C1305 C 0.55419 0.97131 0.55308
 C1306 C 0.53924 0.97482 0.53473
 H1307 H 0.60794 0.94744 0.63519
 H1308 H 0.60390 1.01793 0.59942
 H1309 H 0.62922 1.03257 0.63771
 H1310 H 0.63498 0.96112 0.67305
 C1311 C 0.10351 0.50709 1.12324
 C1312 C 0.10160 0.48283 1.11759
 C1313 C 0.11532 0.46666 1.13363
 C1314 C 0.13076 0.47483 1.15545
 C1315 C 0.13261 0.49925 1.16137
 C1316 C 0.11882 0.51525 1.14493
 C1317 C 0.08511 0.47527 1.09547
 C1318 C 0.07064 0.47176 1.07656
 C1319 C 0.05333 0.47143 1.05429
 C1320 C 0.03870 0.47476 1.03549
 H1321 H 0.09289 0.51976 1.11105
 H1322 H 0.11401 0.44784 1.12940
 H1323 H 0.14128 0.46210 1.16762
 H1324 H 0.11943 0.53407 1.14930
 C1325 C -0.11043 -0.00734 1.11620
 C1326 C -0.10397 0.01649 1.11462
 C1327 C -0.11293 0.03247 1.13508
 C1328 C -0.12795 0.02448 1.15745
 C1329 C -0.13421 0.00021 1.15992
 C1330 C -0.12530 -0.01543 1.13845
 C1331 C -0.08703 0.02362 1.09277
 C1332 C -0.07227 0.02686 1.07414
 C1333 C -0.05471 0.02699 1.05221
 C1334 C -0.03994 0.02355 1.03370
 H1335 H -0.10335 -0.01994 1.10062
 H1336 H -0.10814 0.05103 1.13394
 H1337 H -0.13491 0.03761 1.17230
 H1338 H -0.12847 -0.03430 1.13948
 C1339 C 0.38784 0.53405 0.63546
 C1340 C 0.39673 0.51827 0.61472
 C1341 C 0.38997 0.49451 0.61570
 C1342 C 0.37488 0.48627 0.63764
 C1343 C 0.36604 0.50169 0.65940
 C1344 C 0.37259 0.52591 0.65752
 C1345 C 0.41392 0.52547 0.59322
 C1346 C 0.42888 0.52866 0.57482
 C1347 C 0.44660 0.52865 0.55310
 C1348 C 0.46145 0.52508 0.53473
 H1349 H 0.39287 0.55257 0.63480
 H1350 H 0.39698 0.48206 0.59991
 H1351 H 0.37152 0.46743 0.63819
 H1352 H 0.36571 0.53891 0.67261
 C1353 C 0.39669 0.50781 -0.12453
 C1354 C 0.39848 0.48356 -0.11852
 C1355 C 0.38484 0.46742 -0.13449
 C1356 C 0.36959 0.47561 -0.15660
 C1357 C 0.36785 0.50003 -0.16287
 C1358 C 0.38156 0.51600 -0.14651
 C1359 C 0.41475 0.47595 -0.09610
 C1360 C 0.42906 0.47238 -0.07697
 C1361 C 0.44620 0.47196 -0.05450
 C1362 C 0.46073 0.47522 -0.03561
 H1363 H 0.40724 0.52046 -0.11239
 H1364 H 0.38607 0.44860 -0.12998
 H1365 H 0.35912 0.46291 -0.16871
 H1366 H 0.38100 0.53483 -0.15113
 C1367 C -0.10249 1.00819 0.37568
 C1368 C -0.10098 0.98398 0.38211
 C1369 C -0.11481 0.96781 0.36644
 C1370 C -0.12999 0.97593 0.34422
 C1371 C -0.13147 1.00029 0.33755
 C1372 C -0.11756 1.01629 0.35360
 C1373 C -0.08483 0.97645 0.40472
 C1374 C -0.07064 0.97295 0.42399
 C1375 C -0.05362 0.97262 0.44660
 C1376 C -0.03919 0.97594 0.46558
 H1377 H -0.09180 1.02085 0.38760
 H1378 H -0.11380 0.94904 0.37129
 H1379 H -0.14063 0.96320 0.33236
 H1380 H -0.11793 1.03507 0.34866
 C1381 C 0.11619 0.53378 0.36706
 C1382 C 0.10269 0.51764 0.38335
 C1383 C 0.10467 0.49336 0.37788
 C1384 C 0.11984 0.48515 0.35610
 C1385 C 0.13339 0.50111 0.33939
 C1386 C 0.13149 0.52556 0.34515
 C1387 C 0.08627 0.52525 0.40548
 C1388 C 0.07182 0.52873 0.42438
 C1389 C 0.05450 0.52898 0.44659
 C1390 C 0.03985 0.52551 0.46527
 H1391 H 0.11481 0.55262 0.37114
 H1392 H 0.09421 0.48072 0.39026
 H1393 H 0.12049 0.46630 0.35186
 H1394 H 0.14184 0.53826 0.33277
 C1395 C 0.60351 -0.00699 -0.12409
 C1396 C 0.60168 0.01727 -0.11846
 C1397 C 0.61525 0.03340 -0.13469
 C1398 C 0.63050 0.02517 -0.15665
 C1399 C 0.63230 0.00074 -0.16250
 C1400 C 0.61863 -0.01521 -0.14591
 C1401 C 0.58545 0.02487 -0.09612
 C1402 C 0.57117 0.02833 -0.07701
 C1403 C 0.55408 0.02855 -0.05453
 C1404 C 0.53961 0.02509 -0.03564
 H1405 H 0.59300 -0.01963 -0.11175
 H1406 H 0.61399 0.05223 -0.13048
 H1407 H 0.64093 0.03786 -0.16896
 H1408 H 0.61921 -0.03405 -0.15022
 C1409 C 0.63944 0.54132 0.03049
 C1410 C 0.63438 0.53587 0.00135
 C1411 C 0.65118 0.54046 -0.02039
 C1412 C 0.67272 0.55123 -0.01311
 C1413 C 0.67768 0.55798 0.01612
 C1414 C 0.66079 0.55217 0.03786
 C1415 C 0.61124 0.52702 -0.00586
 C1416 C 0.59119 0.52044 -0.00961
 C1417 C 0.56722 0.51362 -0.01084
 C1418 C 0.54660 0.50847 -0.00877
 H1419 H 0.62662 0.53758 0.04758
 H1420 H 0.64735 0.53640 -0.04308
 H1421 H 0.68459 0.55562 -0.03090
 H1422 H 0.66401 0.55567 0.06081
 C1423 C 0.14906 1.04550 0.47822
 C1424 C 0.13475 1.03616 0.50046
 C1425 C 0.14238 1.03694 0.52962
 C1426 C 0.16384 1.04776 0.53671
 C1427 C 0.17796 1.05798 0.51468
 C1428 C 0.17063 1.05629 0.48528
 C1429 C 0.11130 1.02767 0.49416
 C1430 C 0.09110 1.02131 0.49102
 C1431 C 0.06707 1.01465 0.49029
 C1432 C 0.04646 1.00954 0.49259
 H1433 H 0.14321 1.04515 0.45561
 H1434 H 0.13137 1.02985 0.54701
 H1435 H 0.16916 1.04864 0.55949
 H1436 H 0.18102 1.06427 0.46792
 C1437 C 0.14216 -0.03777 0.97129
 C1438 C 0.13423 -0.03726 1.00032
 C1439 C 0.14839 -0.04670 1.02269
 C1440 C 0.17015 -0.05721 1.01592
 C1441 C 0.17787 -0.05851 0.98665
 C1442 C 0.16384 -0.04829 0.96447
 C1443 C 0.11073 -0.02876 1.00638
 C1444 C 0.09055 -0.02231 1.00940
 C1445 C 0.06655 -0.01548 1.01006
 C1446 C 0.04596 -0.01024 1.00769
 H1447 H 0.13128 -0.03060 0.95378
 H1448 H 0.14231 -0.04657 1.04520
 H1449 H 0.18045 -0.06521 1.03339
 H1450 H 0.16944 -0.04886 0.94180
 C1451 C 0.65188 0.45882 0.52101
 C1452 C 0.63511 0.46344 0.49919
 C1453 C 0.64022 0.45802 0.47007
 C1454 C 0.66161 0.44721 0.46279
 C1455 C 0.67849 0.44141 0.48460
 C1456 C 0.67346 0.44808 0.51382
 C1457 C 0.61197 0.47238 0.50628
 C1458 C 0.59193 0.47905 0.50990
 C1459 C 0.56798 0.48600 0.51099
 C1460 C 0.54739 0.49126 0.50879
 H1461 H 0.64801 0.46286 0.54369
 H1462 H 0.62742 0.46178 0.45292
 H1463 H 0.66487 0.44377 0.43985
 H1464 H 0.68532 0.44370 0.53166
 C1465 C -0.14820 0.45480 0.47494
 C1466 C -0.13416 0.46408 0.49741
 C1467 C -0.14216 0.46320 0.52641
 C1468 C -0.16373 0.45241 0.53310
 C1469 C -0.17761 0.44231 0.51083
 C1470 C -0.16988 0.44403 0.48158
 C1471 C -0.11069 0.47274 0.49154
 C1472 C -0.09051 0.47927 0.48873
 C1473 C -0.06652 0.48614 0.48834
 C1474 C -0.04596 0.49138 0.49093
 H1475 H -0.14207 0.45522 0.45246
 H1476 H -0.13137 0.47025 0.54400
 H1477 H -0.16936 0.45153 0.55576
 H1478 H -0.18007 0.43614 0.46405
 C1479 C 0.35805 -0.03751 0.02789
 C1480 C 0.36597 -0.03681 -0.00114
 C1481 C 0.35189 -0.04625 -0.02347
 C1482 C 0.33021 -0.05693 -0.01665
 C1483 C 0.32249 -0.05839 0.01262
 C1484 C 0.33645 -0.04820 0.03475
 C1485 C 0.38938 -0.02807 -0.00727
 C1486 C 0.40949 -0.02143 -0.01039
 C1487 C 0.43343 -0.01441 -0.01121
 C1488 C 0.45398 -0.00904 -0.00897
 H1489 H 0.36887 -0.03034 0.04536
 H1490 H 0.35796 -0.04597 -0.04598
 H1491 H 0.31997 -0.06490 -0.03409
 H1492 H 0.33084 -0.04888 0.05743
 C1493 C 0.35668 1.03689 0.47463
 C1494 C 0.36479 1.03585 0.50359
 C1495 C 0.35097 1.04530 0.52614
 C1496 C 0.32942 1.05641 0.51960
 C1497 C 0.32161 1.05832 0.49038
 C1498 C 0.33523 1.04803 0.46804
 C1499 C 0.38822 1.02697 0.50933
 C1500 C 0.40838 1.02031 0.51199
 C1501 C 0.43236 1.01338 0.51219
 C1502 C 0.45291 1.00816 0.50945
 H1503 H 0.36729 1.02972 0.45699
 H1504 H 0.35720 1.04476 0.54860
 H1505 H 0.31941 1.06443 0.53718
 H1506 H 0.32953 1.04907 0.44540
 C1507 C -0.14913 0.54547 1.02526
 C1508 C -0.13534 0.53596 1.00272
 C1509 C -0.14362 0.53664 0.97382
 C1510 C -0.16524 0.54747 0.96727
 C1511 C -0.17886 0.55780 0.98959
 C1512 C -0.17084 0.55627 1.01875
 C1513 C -0.11182 0.52728 1.00841
 C1514 C -0.09162 0.52074 1.01108
 C1515 C -0.06764 0.51385 1.01136
 C1516 C -0.04708 0.50858 1.00878
 H1517 H -0.14277 0.54520 1.04767
 H1518 H -0.13304 0.52941 0.95619
 H1519 H -0.17109 0.54822 0.94468
 H1520 H -0.18085 0.56433 1.03632
 C1521 C 0.04563 0.65301 0.57180
 C1522 C 0.02523 0.63896 0.57331
 C1523 C 0.00592 0.64652 0.59010
 C1524 C 0.00698 0.66795 0.60533
 C1525 C 0.02742 0.68218 0.60405
 C1526 C 0.04673 0.67446 0.58703
 C1527 C 0.02417 0.61650 0.55836
 C1528 C 0.02272 0.59739 0.54669
 C1529 C 0.02019 0.57458 0.53434
 C1530 C 0.01715 0.55473 0.52536
 H1531 H 0.06071 0.64736 0.55891
 H1532 H -0.00991 0.63575 0.59161
 H1533 H -0.00807 0.67319 0.61850
 H1534 H 0.06261 0.68514 0.58525
 C1535 C 0.54619 0.15280 0.07063
 C1536 C 0.52581 0.13873 0.07232
 C1537 C 0.50662 0.14623 0.08935
 C1538 C 0.50776 0.16763 0.10462
 C1539 C 0.52817 0.18190 0.10314
 C1540 C 0.54737 0.17423 0.08590
 C1541 C 0.52464 0.11631 0.05732
 C1542 C 0.52308 0.09721 0.04563
 C1543 C 0.52041 0.07441 0.03332
 C1544 C 0.51727 0.05455 0.02443
 H1545 H 0.56117 0.14720 0.05756
 H1546 H 0.49081 0.13544 0.09101
 H1547 H 0.49280 0.17283 0.11797
 H1548 H 0.56321 0.18493 0.08397
 C1549 C -0.04666 0.15201 0.92807
 C1550 C -0.02617 0.13808 0.92647
 C1551 C -0.00689 0.14594 0.90978
 C1552 C -0.00805 0.16757 0.89475
 C1553 C -0.02857 0.18170 0.89614
 C1554 C -0.04786 0.17366 0.91303
 C1555 C -0.02497 0.11544 0.94125
 C1556 C -0.02336 0.09620 0.95276
 C1557 C -0.02065 0.07326 0.96493
 C1558 C -0.01746 0.05332 0.97377
 H1559 H -0.06171 0.14612 0.94088
 H1560 H 0.00901 0.13526 0.90820
 H1561 H 0.00698 0.17305 0.88165
 H1562 H -0.06380 0.18425 0.91488
 C1563 C 0.45449 0.65308 0.42855
 C1564 C 0.47490 0.63905 0.42674
 C1565 C 0.49404 0.64671 0.40967
 C1566 C 0.49283 0.66825 0.39446
 C1567 C 0.47240 0.68249 0.39606
 C1568 C 0.45324 0.67465 0.41334
 C1569 C 0.47615 0.61651 0.44171
 C1570 C 0.47780 0.59733 0.45337
 C1571 C 0.48058 0.57446 0.46569
 C1572 C 0.48382 0.55457 0.47465
 H1573 H 0.43955 0.64735 0.44165
 H1574 H 0.50987 0.63594 0.40794
 H1575 H 0.50775 0.67359 0.38109
 H1576 H 0.43739 0.68533 0.41535
 C1577 C 0.50612 0.85364 0.41008
 C1578 C 0.52532 0.86111 0.42715
 C1579 C 0.54571 0.84704 0.42885
 C1580 C 0.54690 0.82563 0.41353
 C1581 C 0.52769 0.81799 0.39626
 C1582 C 0.50726 0.83227 0.39477
 C1583 C 0.52413 0.88350 0.44221
 C1584 C 0.52251 0.90257 0.45393
 C1585 C 0.51975 0.92534 0.46627
 C1586 C 0.51649 0.94517 0.47517
 H1587 H 0.49029 0.86445 0.40842
 H1588 H 0.56071 0.85262 0.44196
 H1589 H 0.56275 0.81491 0.41547
 H1590 H 0.49229 0.82709 0.38139
 C1591 C 0.00511 0.35300 0.91146
 C1592 C 0.02440 0.36052 0.92836
 C1593 C 0.04480 0.34645 0.92996
 C1594 C 0.04593 0.32502 0.91468
 C1595 C 0.02665 0.31736 0.89753
 C1596 C 0.00620 0.33160 0.89618
 C1597 C 0.02333 0.38299 0.94327
 C1598 C 0.02185 0.40213 0.95484
 C1599 C 0.01928 0.42500 0.96699
 C1600 C 0.01620 0.44491 0.97573
 H1601 H -0.01072 0.36380 0.90988
 H1602 H 0.05985 0.35206 0.94293
 H1603 H 0.06180 0.31433 0.91651
 H1604 H -0.00882 0.32641 0.88291
 C1605 C 0.45414 0.34669 0.07097
 C1606 C 0.47456 0.36071 0.07240
 C1607 C 0.49393 0.35304 0.08915
 C1608 C 0.49292 0.33152 0.10442
 C1609 C 0.47247 0.31731 0.10321
 C1610 C 0.45309 0.32514 0.08625
 C1611 C 0.47559 0.38327 0.05743
 C1612 C 0.47708 0.40246 0.04578
 C1613 C 0.47971 0.42536 0.03351
 C1614 C 0.48287 0.44528 0.02462
 H1615 H 0.43902 0.35243 0.05812
 H1616 H 0.50977 0.36380 0.09060
 H1617 H 0.50802 0.32619 0.11756
 H1618 H 0.43721 0.31448 0.08454
 C1619 C -0.04566 0.84717 0.57102
 C1620 C -0.02524 0.86116 0.57276
 C1621 C -0.00598 0.85337 0.58962
 C1622 C -0.00712 0.83179 0.60475
 C1623 C -0.02761 0.81764 0.60329
 C1624 C -0.04685 0.82557 0.58615
 C1625 C -0.02414 0.88383 0.55804
 C1626 C -0.02266 0.90310 0.54660
 C1627 C -0.02010 0.92609 0.53455
 C1628 C -0.01702 0.94607 0.52581
 H1629 H -0.06070 0.85300 0.55808
 H1630 H 0.00987 0.86410 0.59130
 H1631 H 0.00787 0.82639 0.61802
 H1632 H -0.06275 0.81496 0.58425
 C1633 C 0.21628 0.36283 0.11473
 C1634 C 0.23207 0.35404 0.13570
 C1635 C 0.25583 0.36085 0.13481
 C1636 C 0.26404 0.37588 0.11274
 C1637 C 0.24860 0.38460 0.09075
 C1638 C 0.22438 0.37802 0.09254
 C1639 C 0.22493 0.33687 0.15733
 C1640 C 0.22180 0.32193 0.17584
 C1641 C 0.22188 0.30420 0.19769
 C1642 C 0.22551 0.28935 0.21617
 H1643 H 0.19777 0.35776 0.11532
 H1644 H 0.26830 0.35391 0.15077
 H1645 H 0.28288 0.37925 0.11229
 H1646 H 0.21138 0.38482 0.07726
 C1647 C 0.71732 0.86600 0.61723
 C1648 C 0.73370 0.85252 0.63325
 C1649 C 0.75792 0.85467 0.62736
 C1650 C 0.76584 0.86998 0.60542
 C1651 C 0.74963 0.88350 0.58897
 C1652 C 0.72525 0.88143 0.59517
 C1653 C 0.72635 0.83599 0.65553
 C1654 C 0.72296 0.82148 0.67451
 C1655 C 0.72268 0.80413 0.69680
 C1656 C 0.72600 0.78944 0.71557
 H1657 H 0.69853 0.86449 0.62165
 H1658 H 0.77075 0.84424 0.63954
 H1659 H 0.78465 0.87078 0.60085
 H1660 H 0.71236 0.89175 0.58301
 C1661 C 0.28413 0.63455 0.61759
 C1662 C 0.26787 0.64810 0.63349
 C1663 C 0.24361 0.64595 0.62782
 C1664 C 0.23553 0.63055 0.60624
 C1665 C 0.25161 0.61692 0.58994
 C1666 C 0.27604 0.61902 0.59587
 C1667 C 0.27532 0.66469 0.65547
 C1668 C 0.27868 0.67924 0.67424
 C1669 C 0.27880 0.69662 0.69630
 C1670 C 0.27530 0.71128 0.71487
 H1671 H 0.30296 0.63606 0.62183
 H1672 H 0.23088 0.65644 0.63991
 H1673 H 0.21669 0.62976 0.60185
 H1674 H 0.28883 0.60863 0.58379
 C1675 C 0.74524 0.13943 0.13322
 C1676 C 0.76901 0.14621 0.13377
 C1677 C 0.78463 0.13736 0.11279
 C1678 C 0.77632 0.12213 0.09091
 C1679 C 0.75209 0.11556 0.08945
 C1680 C 0.73684 0.12436 0.11146
 C1681 C 0.77635 0.16343 0.15507
 C1682 C 0.77966 0.17843 0.17331
 C1683 C 0.77980 0.19622 0.19487
 C1684 C 0.77634 0.21113 0.21314
 H1685 H 0.73291 0.14642 0.14919
 H1686 H 0.80314 0.14241 0.11313
 H1687 H 0.78920 0.11528 0.07562
 H1688 H 0.71800 0.12099 0.11124
 C1689 C 0.75626 0.14642 0.87280
 C1690 C 0.73196 0.14843 0.86726
 C1691 C 0.71585 0.13498 0.88365
 C1692 C 0.72412 0.11968 0.90569
 C1693 C 0.74859 0.11770 0.91145
 C1694 C 0.76452 0.13124 0.89469
 C1695 C 0.72434 0.16475 0.84486
 C1696 C 0.72087 0.17909 0.82571
 C1697 C 0.72067 0.19625 0.80320
 C1698 C 0.72415 0.21078 0.78430
 H1699 H 0.76888 0.15683 0.86034
 H1700 H 0.69699 0.13640 0.87951
 H1701 H 0.71145 0.10935 0.91812
 H1702 H 0.78339 0.13053 0.89894
 C1703 C 0.25656 0.64579 0.37381
 C1704 C 0.23226 0.64779 0.36829
 C1705 C 0.21618 0.63419 0.38453
 C1706 C 0.22448 0.61877 0.40643
 C1707 C 0.24896 0.61683 0.41221
 C1708 C 0.26486 0.63050 0.39557
 C1709 C 0.22459 0.66429 0.34613
 C1710 C 0.22107 0.67881 0.32719
 C1711 C 0.22079 0.69618 0.30493
 C1712 C 0.22419 0.71088 0.28622
 H1713 H 0.26916 0.65632 0.36146
 H1714 H 0.19732 0.63559 0.38041
 H1715 H 0.21183 0.60834 0.41877
 H1716 H 0.28373 0.62983 0.39983
 C1717 C 0.74312 0.85380 0.37342
 C1718 C 0.76742 0.85199 0.36782
 C1719 C 0.78347 0.86574 0.38380
 C1720 C 0.77514 0.88113 0.40551
 C1721 C 0.75068 0.88288 0.41138
 C1722 C 0.73480 0.86906 0.39500
 C1723 C 0.77514 0.83554 0.34583
 C1724 C 0.77873 0.82108 0.32703
 C1725 C 0.77910 0.80376 0.30491
 C1726 C 0.77573 0.78912 0.28628
 H1727 H 0.73055 0.84315 0.36126
 H1728 H 0.80231 0.86450 0.37961
 H1729 H 0.78777 0.89168 0.41764
 H1730 H 0.71595 0.86960 0.39933
 C1731 C 0.28343 0.36517 0.88461
 C1732 C 0.26730 0.35150 0.86866
 C1733 C 0.24304 0.35319 0.87457
 C1734 C 0.23485 0.36829 0.89638
 C1735 C 0.25080 0.38208 0.91268
 C1736 C 0.27522 0.38040 0.90657
 C1737 C 0.27485 0.33531 0.84628
 C1738 C 0.27825 0.32109 0.82715
 C1739 C 0.27835 0.30406 0.80468
 C1740 C 0.27477 0.28966 0.78582
 H1741 H 0.30225 0.36402 0.88018
 H1742 H 0.23041 0.34260 0.86244
 H1743 H 0.21602 0.36878 0.90091
 H1744 H 0.28791 0.39092 0.91866
 C1745 C 0.78552 0.39266 0.72075
 C1746 C 0.78456 0.38483 0.74987
 C1747 C 0.79390 0.39894 0.77221
 C1748 C 0.80485 0.42048 0.76531
 C1749 C 0.80672 0.42800 0.73596
 C1750 C 0.79650 0.41410 0.71382
 C1751 C 0.77592 0.36139 0.75602
 C1752 C 0.76947 0.34121 0.75908
 C1753 C 0.76276 0.31719 0.75977
 C1754 C 0.75767 0.29659 0.75745
 H1755 H 0.77844 0.38182 0.70327
 H1756 H 0.79343 0.39293 0.79478
 H1757 H 0.81284 0.43069 0.78275
 H1758 H 0.79750 0.41957 0.69107
 C1759 C 0.28995 0.90138 0.27174
 C1760 C 0.28546 0.88460 0.25004
 C1761 C 0.29114 0.88965 0.22092
 C1762 C 0.30210 0.91097 0.21354
 C1763 C 0.30781 0.92783 0.23525
 C1764 C 0.30085 0.92289 0.26445
 C1765 C 0.27645 0.86150 0.25726
 C1766 C 0.26975 0.84147 0.26098
 C1767 C 0.26282 0.81752 0.26215
 C1768 C 0.25761 0.79694 0.26001
 H1769 H 0.28572 0.89756 0.29442
 H1770 H 0.28748 0.87686 0.20385
 H1771 H 0.30577 0.91419 0.19060
 H1772 H 0.30514 0.93474 0.28222
 C1773 C 0.20549 0.89981 0.72602
 C1774 C 0.21491 0.88538 0.74816
 C1775 C 0.21425 0.89288 0.77733
 C1776 C 0.20348 0.91433 0.78453
 C1777 C 0.19318 0.92856 0.76261
 C1778 C 0.19474 0.92136 0.73318
 C1779 C 0.22336 0.86195 0.74178
 C1780 C 0.22970 0.84176 0.73864
 C1781 C 0.23635 0.81772 0.73799
 C1782 C 0.24146 0.79711 0.74045
 H1783 H 0.20573 0.89406 0.70341
 H1784 H 0.22141 0.88178 0.79465
 H1785 H 0.20270 0.91955 0.80731
 H1786 H 0.18669 0.93184 0.71591
 C1787 C 0.70487 0.39934 0.22449
 C1788 C 0.71429 0.38489 0.24661
 C1789 C 0.71337 0.39225 0.27583
 C1790 C 0.70242 0.41361 0.28307
 C1791 C 0.69220 0.42789 0.26113
 C1792 C 0.69394 0.42079 0.23169
 C1793 C 0.72315 0.36163 0.24011
 C1794 C 0.72986 0.34157 0.23682
 C1795 C 0.73694 0.31766 0.23599
 C1796 C 0.74235 0.29712 0.23836
 H1797 H 0.70531 0.39370 0.20184
 H1798 H 0.72052 0.38114 0.29314
 H1799 H 0.70153 0.41875 0.30587
 H1800 H 0.68595 0.43130 0.21439
 C1801 C 0.70458 0.60110 0.27477
 C1802 C 0.71380 0.61553 0.25255
 C1803 C 0.71272 0.60812 0.22336
 C1804 C 0.70182 0.58672 0.21625
 C1805 C 0.69179 0.57244 0.23829
 C1806 C 0.69369 0.57960 0.26771
 C1807 C 0.72263 0.63882 0.25893
 C1808 C 0.72931 0.65889 0.26215
 C1809 C 0.73635 0.68281 0.26294
 C1810 C 0.74171 0.70336 0.26059
 H1811 H 0.70515 0.60678 0.29740
 H1812 H 0.71973 0.61921 0.20596
 H1813 H 0.70081 0.58153 0.19347
 H1814 H 0.68585 0.56910 0.28509
 C1815 C 0.20397 0.10189 0.77451
 C1816 C 0.21303 0.11618 0.75205
 C1817 C 0.21196 0.10849 0.72297
 C1818 C 0.20120 0.08694 0.71621
 C1819 C 0.19133 0.07280 0.73848
 C1820 C 0.19323 0.08025 0.76778
 C1821 C 0.22170 0.13958 0.75810
 C1822 C 0.22825 0.15972 0.76111
 C1823 C 0.23514 0.18368 0.76177
 C1824 C 0.24041 0.20425 0.75941
 H1825 H 0.20454 0.10778 0.79705
 H1826 H 0.21884 0.11948 0.70540
 H1827 H 0.20018 0.08154 0.69350
 H1828 H 0.18551 0.06985 0.78533
 C1829 C 0.29602 0.10131 0.22577
 C1830 C 0.28640 0.11503 0.24829
 C1831 C 0.28681 0.10658 0.27716
 C1832 C 0.29748 0.08489 0.28371
 C1833 C 0.30793 0.07134 0.26142
 C1834 C 0.30667 0.07951 0.23228
 C1835 C 0.27790 0.13862 0.24264
 C1836 C 0.27148 0.15887 0.24002
 C1837 C 0.26472 0.18290 0.23980
 C1838 C 0.25954 0.20346 0.24242
 H1839 H 0.29596 0.10778 0.20339
 H1840 H 0.27950 0.11711 0.29477
 H1841 H 0.29803 0.07891 0.30628
 H1842 H 0.31482 0.06955 0.21474
 C1843 C 0.78726 0.60682 0.77698
 C1844 C 0.78643 0.61507 0.74804
 C1845 C 0.79579 0.60125 0.72546
 C1846 C 0.80662 0.57954 0.73195
 C1847 C 0.80832 0.57157 0.76115
 C1848 C 0.79811 0.58521 0.78352
 C1849 C 0.77779 0.63860 0.74234
 C1850 C 0.77130 0.65882 0.73967
 C1851 C 0.76450 0.68283 0.73941
 C1852 C 0.75932 0.70339 0.74202
 H1853 H 0.78014 0.61743 0.79464
 H1854 H 0.79541 0.60759 0.70302
 H1855 H 0.81458 0.56952 0.71435
 H1856 H 0.79899 0.57938 0.80614
 C1857 C 0.90096 0.79624 0.17375
 C1858 C 0.88964 0.77455 0.17839
 C1859 C 0.89977 0.75383 0.16739
 C1860 C 0.92107 0.75472 0.15176
 C1861 C 0.93283 0.77650 0.14661
 C1862 C 0.92226 0.79726 0.15811
 C1863 C 0.86717 0.77350 0.19342
 C1864 C 0.84805 0.77206 0.20514
 C1865 C 0.82521 0.76953 0.21750
 C1866 C 0.80532 0.76649 0.22644
 H1867 H 0.89333 0.81242 0.18226
 H1868 H 0.89100 0.73693 0.17049
 H1869 H 0.92752 0.73827 0.14273
 H1870 H 0.93068 0.81438 0.15612
 C1871 C 0.40237 0.29581 0.67873
 C1872 C 0.38816 0.27553 0.67718
 C1873 C 0.39555 0.25628 0.66023
 C1874 C 0.41698 0.25726 0.64490
 C1875 C 0.43138 0.27757 0.64624
 C1876 C 0.42383 0.29683 0.66339
 C1877 C 0.36572 0.27453 0.69225
 C1878 C 0.34661 0.27309 0.70401
 C1879 C 0.32379 0.27055 0.71643
 C1880 C 0.30393 0.26749 0.72544
 H1881 H 0.39686 0.31084 0.69174
 H1882 H 0.38464 0.24055 0.65869
 H1883 H 0.42209 0.24226 0.63162
 H1884 H 0.43464 0.31260 0.66522
 C1885 C 0.39724 0.74464 0.83894
 C1886 C 0.38964 0.72552 0.82189
 C1887 C 0.40372 0.70515 0.82009
 C1888 C 0.42522 0.70387 0.83536
 C1889 C 0.43294 0.72296 0.85271
 C1890 C 0.41872 0.74340 0.85421
 C1891 C 0.36707 0.72669 0.80706
 C1892 C 0.34786 0.72821 0.79552
 C1893 C 0.32492 0.73078 0.78338
 C1894 C 0.30498 0.73385 0.77458
 H1895 H 0.38644 0.76044 0.84066
 H1896 H 0.39804 0.69023 0.80700
 H1897 H 0.43590 0.68801 0.83342
 H1898 H 0.42398 0.75827 0.86763
 C1899 C 0.90083 0.24604 0.33166
 C1900 C 0.89062 0.22547 0.32037
 C1901 C 0.90188 0.20369 0.32473
 C1902 C 0.92316 0.20243 0.34044
 C1903 C 0.93377 0.22303 0.35231
 C1904 C 0.92212 0.24492 0.34736
 C1905 C 0.86812 0.22672 0.30537
 C1906 C 0.84896 0.22830 0.29372
 C1907 C 0.82607 0.23093 0.28144
 C1908 C 0.80615 0.23403 0.27258
 H1909 H 0.89212 0.26301 0.32876
 H1910 H 0.89420 0.18762 0.31599
 H1911 H 0.93154 0.18526 0.34224
 H1912 H 0.92863 0.26125 0.35664
 C1913 C 0.10390 0.25595 0.34051
 C1914 C 0.11167 0.27526 0.32373
 C1915 C 0.09775 0.29577 0.32214
 C1916 C 0.07622 0.29696 0.33728
 C1917 C 0.06829 0.27764 0.35429
 C1918 C 0.08240 0.25710 0.35566
 C1919 C 0.13420 0.27409 0.30888
 C1920 C 0.15337 0.27254 0.29731
 C1921 C 0.17624 0.26989 0.28509
 C1922 C 0.19614 0.26676 0.27623
 H1923 H 0.11458 0.24003 0.34208
 H1924 H 0.10356 0.31085 0.30926
 H1925 H 0.06565 0.31292 0.33544
 H1926 H 0.07699 0.24204 0.36882
 C1927 C 0.59758 0.79579 0.82156
 C1928 C 0.61155 0.77531 0.82302
 C1929 C 0.60390 0.75596 0.83983
 C1930 C 0.58246 0.75705 0.85512
 C1931 C 0.56831 0.77756 0.85389
 C1932 C 0.57611 0.79692 0.83686
 C1933 C 0.63403 0.77421 0.80805
 C1934 C 0.65318 0.77268 0.79640
 C1935 C 0.67604 0.77004 0.78416
 C1936 C 0.69595 0.76688 0.77535
 H1937 H 0.60330 0.81090 0.80867
 H1938 H 0.61462 0.74007 0.84130
 H1939 H 0.57715 0.74196 0.86830
 H1940 H 0.56550 0.81285 0.83512
 C1941 C 0.60251 0.24314 0.65936
 C1942 C 0.61022 0.22390 0.67634
 C1943 C 0.59624 0.20347 0.67813
 C1944 C 0.57467 0.20229 0.66301
 C1945 C 0.56678 0.22155 0.64585
 C1946 C 0.58097 0.24200 0.64424
 C1947 C 0.63276 0.22511 0.69123
 C1948 C 0.65193 0.22676 0.70282
 C1949 C 0.67479 0.22957 0.71505
 C1950 C 0.69466 0.23286 0.72392
 H1951 H 0.61324 0.25899 0.65763
 H1952 H 0.60202 0.18845 0.69117
 H1953 H 0.56403 0.18641 0.66502
 H1954 H 0.57560 0.25700 0.63093
 C1955 C 0.09643 0.70364 0.17985
 C1956 C 0.11028 0.72417 0.17818
 C1957 C 0.10256 0.74334 0.16109
 C1958 C 0.08115 0.74203 0.14570
 C1959 C 0.06712 0.72146 0.14713
 C1960 C 0.07499 0.70229 0.16446
 C1961 C 0.13274 0.72550 0.19323
 C1962 C 0.15186 0.72721 0.20493
 C1963 C 0.17469 0.73005 0.21724
 C1964 C 0.19455 0.73334 0.22615
 H1965 H 0.10222 0.68867 0.19297
 H1966 H 0.11319 0.75926 0.15945
 H1967 H 0.07578 0.75697 0.13228
 H1968 H 0.06446 0.68632 0.16633
   
