data_POSCAR
  _audit_creation_date              2014-09-24
  _audit_creation_method            'ToBaCCo'
  _symmetry_space_group_name_H-M    'P1'
  _symmetry_Int_Tables_number       1
  _symmetry_cell_setting            triclinic
  loop_
  _symmetry_equiv_pos_as_xyz
 x,y,z
_cell_length_a 54.5763
_cell_length_b 54.6313
_cell_length_c 54.4408
_cell_angle_alpha 89.956500
_cell_angle_beta 90.069300
_cell_angle_gamma 90.111700
loop_
  _atom_site_label
  _atom_site_type_symbol
  _atom_site_fract_x
  _atom_site_fract_y
  _atom_site_fract_z
C1 C 0.23712 1.06859 -0.00721
 C2 C 0.24028 1.05774 0.01611
 C3 C 0.24425 1.03218 0.01700
 C4 C 0.24267 1.01759 -0.00443
 C5 C 0.23778 1.02919 -0.02700
 C6 C 0.23581 1.05470 -0.02890
 C7 C 0.24498 0.99020 -0.00346
 C8 C 0.25165 0.97672 -0.02469
 C9 C 0.25135 0.95103 -0.02468
 C10 C 0.24679 0.93878 -0.00259
 C11 C 0.24020 0.95150 0.01863
 C12 C 0.23909 0.97711 0.01814
 H13 H 0.23755 1.08832 -0.00869
 H14 H 0.24761 1.02345 0.03442
 H15 H 0.23421 1.01830 -0.04314
 H16 H 0.25638 0.98597 -0.04156
 H17 H 0.24798 0.91899 -0.00192
 H18 H 0.23272 0.98645 0.03442
 C19 C 0.74320 0.57570 0.50748
 C20 C 0.74752 0.56293 0.52940
 C21 C 0.75079 0.53744 0.52863
 C22 C 0.74801 0.52433 0.50643
 C23 C 0.74140 0.53772 0.48508
 C24 C 0.73992 0.56334 0.48525
 C25 C 0.75236 0.49708 0.50518
 C26 C 0.75679 0.48596 0.48223
 C27 C 0.76007 0.46074 0.48005
 C28 C 0.76080 0.44630 0.50120
 C29 C 0.75821 0.45673 0.52458
 C30 C 0.75302 0.48195 0.52643
 H31 H 0.74258 0.59551 0.50775
 H32 H 0.75528 0.52813 0.54550
 H33 H 0.73701 0.52855 0.46809
 H34 H 0.75836 0.49667 0.46564
 H35 H 0.76328 0.42670 0.49942
 H36 H 0.75005 0.48946 0.54449
 C37 C 0.75066 1.00804 1.07350
 C38 C 0.75210 0.98553 1.06102
 C39 C 0.74841 0.98559 1.03540
 C40 C 0.74254 1.00734 1.02258
 C41 C 0.74061 1.02934 1.03600
 C42 C 0.74576 1.03023 1.06132
 C43 C 0.73915 1.00718 0.99518
 C44 C 0.74348 1.02846 0.98089
 C45 C 0.74002 1.02837 0.95527
 C46 C 0.73367 1.00631 0.94378
 C47 C 0.72927 0.98504 0.95740
 C48 C 0.73157 0.98565 0.98301
 H49 H 0.75139 1.00806 1.09334
 H50 H 0.75137 0.96885 1.02531
 H51 H 0.73601 1.04601 1.02650
 H52 H 0.74950 1.04522 0.98947
 H53 H 0.73259 1.00548 0.92393
 H54 H 0.72706 0.96929 0.99325
 C55 C 0.25575 0.50009 0.55748
 C56 C 0.25480 0.47833 0.54404
 C57 C 0.25338 0.47938 0.51846
 C58 C 0.25144 0.50190 0.50596
 C59 C 0.25228 0.52378 0.52000
 C60 C 0.25536 0.52292 0.54571
 C61 C 0.24961 0.50202 0.47842
 C62 C 0.25758 0.52234 0.46454
 C63 C 0.25699 0.52183 0.43877
 C64 C 0.24910 0.50063 0.42668
 C65 C 0.24120 0.48013 0.43988
 C66 C 0.24079 0.48120 0.46561
 H67 H 0.25681 0.49926 0.57734
 H68 H 0.25455 0.46233 0.50849
 H69 H 0.25106 0.54147 0.51119
 H70 H 0.26490 0.53844 0.47347
 H71 H 0.24912 0.50008 0.40679
 H72 H 0.23336 0.46564 0.47537
 C73 C 1.07293 0.25360 -0.00436
 C74 C 1.06331 0.25030 0.01944
 C75 C 1.03761 0.24728 0.02171
 C76 C 1.02185 0.24993 0.00117
 C77 C 1.03243 0.25557 -0.02176
 C78 C 1.05775 0.25639 -0.02483
 C79 C 0.99447 0.24738 0.00319
 C80 C 0.98042 0.24207 -0.01797
 C81 C 0.95464 0.24249 -0.01776
 C82 C 0.94298 0.24554 0.00506
 C83 C 0.95640 0.24847 0.02685
 C84 C 0.98203 0.25043 0.02568
 H85 H 1.09251 0.25307 -0.00742
 H86 H 1.02979 0.24374 0.03949
 H87 H 1.02119 0.25964 -0.03759
 H88 H 0.98957 0.23678 -0.03469
 H89 H 0.92325 0.24688 0.00614
 H90 H 0.99196 0.25417 0.04242
 C91 C 0.57113 0.73661 0.50150
 C92 C 0.55730 0.74030 0.52284
 C93 C 0.53170 0.74104 0.52120
 C94 C 0.51949 0.73675 0.49877
 C95 C 0.53388 0.73258 0.47762
 C96 C 0.55964 0.73339 0.47862
 C97 C 0.49198 0.73742 0.49743
 C98 C 0.47990 0.74281 0.47510
 C99 C 0.45426 0.74361 0.47376
 C100 C 0.44050 0.73994 0.49512
 C101 C 0.45189 0.73600 0.51783
 C102 C 0.47749 0.73365 0.51866
 H103 H 0.59093 0.73608 0.50277
 H104 H 0.52158 0.74572 0.53757
 H105 H 0.52524 0.72920 0.46010
 H106 H 0.49017 0.74720 0.45873
 H107 H 0.42068 0.74026 0.49412
 H108 H 0.48590 0.72946 0.53611
 C109 C 0.00098 0.72552 -0.06745
 C110 C 0.02347 0.72859 -0.05547
 C111 C 0.02363 0.73396 -0.03026
 C112 C 0.00157 0.73464 -0.01656
 C113 C -0.02079 0.73048 -0.02922
 C114 C -0.02144 0.72632 -0.05478
 C115 C 0.00179 0.73916 0.01083
 C116 C -0.01959 0.74730 0.02318
 C117 C -0.01983 0.75127 0.04878
 C118 C 0.00209 0.74773 0.06189
 C119 C 0.02340 0.73950 0.05037
 C120 C 0.02320 0.73511 0.02500
 H121 H 0.00116 0.72368 -0.08724
 H122 H 0.04109 0.73735 -0.02156
 H123 H -0.03772 0.72911 -0.01911
 H124 H -0.03591 0.75175 0.01290
 H125 H 0.00251 0.75008 0.08163
 H126 H 0.03964 0.72778 0.01682
 C127 C 0.50548 0.24014 0.43757
 C128 C 0.52771 0.24491 0.44947
 C129 C 0.52767 0.24995 0.47471
 C130 C 0.50581 0.24851 0.48852
 C131 C 0.48373 0.24276 0.47610
 C132 C 0.48345 0.23885 0.45062
 C133 C 0.50619 0.25196 0.51584
 C134 C 0.48498 0.25965 0.52850
 C135 C 0.48480 0.26146 0.55421
 C136 C 0.50630 0.25651 0.56734
 C137 C 0.52772 0.24932 0.55528
 C138 C 0.52755 0.24682 0.52966
 H139 H 0.50535 0.23739 0.41786
 H140 H 0.54487 0.25444 0.48348
 H141 H 0.46679 0.24043 0.48612
 H142 H 0.46849 0.26440 0.51857
 H143 H 0.50628 0.25780 0.58720
 H144 H 0.54391 0.23996 0.52089
 C145 C 1.05312 -0.00759 0.23889
 C146 C 1.04218 0.01559 0.23621
 C147 C 1.01665 0.01644 0.23206
 C148 C 1.00208 -0.00499 0.23288
 C149 C 1.01373 -0.02768 0.23687
 C150 C 1.03919 -0.02912 0.23942
 C151 C 0.97474 -0.00363 0.23046
 C152 C 0.96120 -0.02387 0.22165
 C153 C 0.93540 -0.02336 0.22027
 C154 C 0.92338 -0.00150 0.22670
 C155 C 0.93636 0.01881 0.23549
 C156 C 0.96189 0.01759 0.23758
 H157 H 1.07286 -0.00925 0.23968
 H158 H 1.00787 0.03387 0.22921
 H159 H 1.00314 -0.04434 0.23868
 H160 H 0.97077 -0.03984 0.21501
 H161 H 0.90359 -0.00044 0.22626
 H162 H 0.97140 0.03300 0.24563
 C163 C 0.56552 0.49804 0.73403
 C164 C 0.55328 0.52054 0.73413
 C165 C 0.52781 0.52098 0.73004
 C166 C 0.51414 0.49891 0.72801
 C167 C 0.52718 0.47657 0.72961
 C168 C 0.55266 0.47605 0.73210
 C169 C 0.48647 0.49879 0.72621
 C170 C 0.47362 0.47689 0.72056
 C171 C 0.44817 0.47533 0.72312
 C172 C 0.43484 0.49642 0.72838
 C173 C 0.44665 0.51875 0.73265
 C174 C 0.47237 0.51982 0.73194
 H175 H 0.58528 0.49762 0.73606
 H176 H 0.51897 0.53860 0.72936
 H177 H 0.51793 0.45914 0.73019
 H178 H 0.48301 0.46041 0.71522
 H179 H 0.41504 0.49527 0.72955
 H180 H 0.48092 0.53692 0.73692
 C181 C 1.00140 1.06064 0.75309
 C182 C 0.97875 1.04859 0.75550
 C183 C 0.97864 1.02282 0.75432
 C184 C 1.00004 1.00922 0.74888
 C185 C 1.02240 1.02225 0.74665
 C186 C 1.02330 1.04778 0.74967
 C187 C 0.99864 0.98175 0.74537
 C188 C 1.01991 0.96674 0.74588
 C189 C 1.01854 0.94133 0.74098
 C190 C 0.99520 0.93083 0.73806
 C191 C 0.97397 0.94492 0.73788
 C192 C 0.97578 0.97026 0.74076
 H193 H 1.00218 1.08042 0.75258
 H194 H 0.96183 1.01345 0.75874
 H195 H 1.03932 1.01292 0.74269
 H196 H 1.03763 0.97477 0.74912
 H197 H 0.99318 0.91114 0.73698
 H198 H 0.95908 0.98063 0.73883
 C199 C 0.49543 0.55987 0.24817
 C200 C 0.47297 0.54816 0.25233
 C201 C 0.47256 0.52255 0.25491
 C202 C 0.49417 0.50840 0.25230
 C203 C 0.51644 0.52098 0.24780
 C204 C 0.51731 0.54663 0.24684
 C205 C 0.49364 0.48088 0.25494
 C206 C 0.51523 0.46758 0.26052
 C207 C 0.51496 0.44195 0.26267
 C208 C 0.49262 0.42951 0.26042
 C209 C 0.47072 0.44212 0.25613
 C210 C 0.47148 0.46756 0.25243
 H211 H 0.49601 0.57957 0.24592
 H212 H 0.45534 0.51405 0.25966
 H213 H 0.53341 0.51116 0.24551
 H214 H 0.53237 0.47685 0.26395
 H215 H 0.49226 0.40973 0.26184
 H216 H 0.45455 0.47673 0.24800
 O217 O 0.25041 0.17428 0.22536
 O218 O 0.27728 0.16790 0.26032
 O219 O 0.18500 0.20143 0.25908
 O220 O 0.17518 0.23236 0.28430
 O221 O 0.21577 0.23820 0.19615
 O222 O 0.24993 0.26561 0.19053
 O223 O 0.24538 0.27097 0.32438
 O224 O 0.21745 0.23697 0.32939
 O225 O 0.31022 0.23767 0.29635
 O226 O 0.31912 0.21196 0.26192
 O227 O 0.28002 0.30163 0.26328
 O228 O 0.24572 0.30776 0.23334
 O229 O 0.24494 0.30031 0.29476
 O230 O 0.21923 0.30766 0.25895
 O231 O 0.30957 0.27260 0.26708
 O232 O 0.31680 0.24123 0.23342
 O233 O 0.27996 0.24000 0.32499
 O234 O 0.25081 0.21091 0.33217
 O235 O 0.25034 0.20445 0.19656
 O236 O 0.27712 0.23878 0.19078
 O237 O 0.18534 0.23559 0.22453
 O238 O 0.17770 0.26353 0.25873
 O239 O 0.21549 0.17313 0.25973
 O240 O 0.25062 0.16561 0.28613
 Zr241 Zr 0.24820 0.19341 0.25914
 O242 O 0.26940 0.21489 0.28320
 Zr243 Zr 0.20397 0.23506 0.25844
 O244 O 0.22365 0.25851 0.28215
 Zr245 Zr 0.24839 0.23707 0.21674
 O246 O 0.27013 0.26023 0.23871
 Zr247 Zr 0.24721 0.23789 0.30452
 O248 O 0.22540 0.21387 0.28283
 Zr249 Zr 0.29134 0.23901 0.26278
 O250 O 0.27201 0.21564 0.23853
 Zr251 Zr 0.24725 0.28105 0.26150
 O252 O 0.22529 0.25970 0.23757
 O253 O 0.22559 0.21336 0.23596
 O254 O 0.26998 0.26144 0.28509
 C255 C 0.25087 0.18181 0.20293
 C256 C 0.19278 0.17924 0.25986
 C257 C 0.19303 0.23730 0.20228
 C258 C 0.24442 0.29343 0.31731
 C259 C 0.30264 0.23891 0.31865
 C260 C 0.30241 0.29495 0.26627
 H261 H 0.27916 0.20395 0.29386
 H262 H 0.28069 0.27055 0.22817
 H263 H 0.21559 0.20275 0.22514
 H264 H 0.21199 0.26811 0.29213
 H265 H 0.20713 0.22278 0.32472
 H266 H 0.18010 0.24191 0.29892
 H267 H 0.33244 0.24800 0.23979
 H268 H 0.29024 0.22788 0.19694
 H269 H 0.24196 0.19631 0.32618
 H270 H 0.23688 0.16803 0.29771
 H271 H 0.26018 0.30550 0.22264
 H272 H 0.23791 0.27808 0.19581
 H273 H 0.28961 0.17348 0.24822
 H274 H 0.31428 0.19866 0.27326
 H275 H 0.18274 0.27551 0.24604
 H276 H 0.20618 0.30300 0.27065
 O277 O 0.74956 0.80550 0.20676
 O278 O 0.72727 0.81432 0.24459
 O279 O 0.81498 0.77253 0.23500
 O280 O 0.82414 0.74027 0.25889
 O281 O 0.77734 0.74139 0.17337
 O282 O 0.74154 0.71526 0.17012
 O283 O 0.75084 0.70856 0.30396
 O284 O 0.78374 0.73735 0.30776
 O285 O 0.68956 0.74425 0.28051
 O286 O 0.68226 0.77381 0.25035
 O287 O 0.71248 0.68050 0.24419
 O288 O 0.74384 0.67105 0.21401
 O289 O 0.74800 0.67890 0.27479
 O290 O 0.77329 0.67071 0.23670
 O291 O 0.68548 0.71167 0.24957
 O292 O 0.67855 0.74317 0.21807
 O293 O 0.72217 0.74413 0.30666
 O294 O 0.75867 0.76899 0.31098
 O295 O 0.74466 0.77679 0.17693
 O296 O 0.71532 0.74361 0.17289
 O297 O 0.80919 0.73998 0.20038
 O298 O 0.81632 0.70953 0.23317
 O299 O 0.78693 0.80325 0.23650
 O300 O 0.75684 0.81205 0.26783
 Zr301 Zr 0.75284 0.78570 0.23966
 O302 O 0.73117 0.76592 0.26450
 Zr303 Zr 0.79320 0.74055 0.23542
 O304 O 0.77333 0.71876 0.26052
 Zr305 Zr 0.74614 0.74332 0.19645
 O306 O 0.72435 0.72149 0.21990
 Zr307 Zr 0.75321 0.74138 0.28415
 O308 O 0.77565 0.76324 0.26126
 Zr309 Zr 0.70621 0.74374 0.24551
 O310 O 0.72575 0.76607 0.22025
 Zr311 Zr 0.74667 0.69848 0.24130
 O312 O 0.76841 0.71831 0.21574
 O313 O 0.77193 0.76442 0.21477
 O314 O 0.72735 0.71978 0.26630
 C315 C 0.74667 0.79914 0.18422
 C316 C 0.80901 0.79532 0.23478
 C317 C 0.80040 0.74079 0.17848
 C318 C 0.74890 0.68609 0.29729
 C319 C 0.69906 0.74472 0.30219
 C320 C 0.69081 0.68884 0.24814
 H321 H 0.72248 0.77760 0.27527
 H322 H 0.71243 0.71210 0.20994
 H323 H 0.78171 0.77456 0.20335
 H324 H 0.78454 0.70810 0.26995
 H325 H 0.79670 0.74836 0.30140
 H326 H 0.82014 0.72980 0.27316
 H327 H 0.66249 0.74155 0.22643
 H328 H 0.70361 0.75548 0.17997
 H329 H 0.74714 0.78248 0.30747
 H330 H 0.76998 0.80605 0.27884
 H331 H 0.73136 0.67648 0.20202
 H332 H 0.75334 0.70221 0.17446
 H333 H 0.71384 0.81155 0.23269
 H334 H 0.68348 0.78395 0.23533
 H335 H 0.80957 0.69882 0.22015
 H336 H 0.78557 0.67250 0.24995
 O337 O 0.75431 0.18881 0.78069
 O338 O 0.73382 0.18282 0.74280
 O339 O 0.82131 0.22371 0.75612
 O340 O 0.82983 0.25957 0.73277
 O341 O 0.78388 0.25054 0.81851
 O342 O 0.74864 0.27571 0.82440
 O343 O 0.76040 0.29316 0.69121
 O344 O 0.78932 0.26108 0.68298
 O345 O 0.69703 0.25486 0.71225
 O346 O 0.68657 0.22591 0.74404
 O347 O 0.72078 0.31629 0.75439
 O348 O 0.75284 0.32400 0.78314
 O349 O 0.75452 0.32013 0.72237
 O350 O 0.78164 0.32521 0.76025
 O351 O 0.69247 0.28656 0.74728
 O352 O 0.68422 0.24884 0.77236
 O353 O 0.72871 0.25846 0.68546
 O354 O 0.76653 0.23234 0.68057
 O355 O 0.75142 0.21566 0.81251
 O356 O 0.72209 0.24825 0.81869
 O357 O 0.81637 0.25448 0.79272
 O358 O 0.82490 0.28526 0.76127
 O359 O 0.79382 0.19273 0.75140
 O360 O 0.76338 0.18723 0.71901
 Zr361 Zr 0.75963 0.21094 0.74945
 O362 O 0.73781 0.23277 0.72622
 Zr363 Zr 0.80019 0.25565 0.75743
 O364 O 0.78066 0.27913 0.73374
 Zr365 Zr 0.75309 0.25026 0.79551
 O366 O 0.73175 0.27412 0.77415
 Zr367 Zr 0.76005 0.25865 0.70834
 O368 O 0.78243 0.23517 0.72982
 Zr369 Zr 0.71326 0.25392 0.74708
 O370 O 0.73276 0.22949 0.77010
 Zr371 Zr 0.75442 0.29816 0.75427
 O372 O 0.77572 0.27656 0.77852
 O373 O 0.77878 0.23024 0.77605
 O374 O 0.73435 0.27924 0.72769
 C375 C 0.75154 0.19388 0.80358
 C376 C 0.81583 0.20092 0.75407
 C377 C 0.80697 0.25214 0.81429
 C378 C 0.75742 0.31495 0.69953
 C379 C 0.70577 0.25636 0.69044
 C380 C 0.69869 0.30893 0.75128
 H381 H 0.72918 0.22198 0.71447
 H382 H 0.72038 0.28295 0.78512
 H383 H 0.78836 0.21926 0.78686
 H384 H 0.79218 0.29038 0.72543
 H385 H 0.80186 0.27206 0.69013
 H386 H 0.82573 0.24956 0.71817
 H387 H 0.68528 0.26197 0.78481
 H388 H 0.71071 0.23632 0.81109
 H389 H 0.75296 0.22032 0.68104
 H390 H 0.77680 0.19394 0.70878
 H391 H 0.74135 0.31752 0.79559
 H392 H 0.76030 0.28925 0.82121
 H393 H 0.71885 0.18732 0.75198
 H394 H 0.69252 0.21396 0.73180
 H395 H 0.81769 0.29644 0.77359
 H396 H 0.79280 0.32529 0.74594
 O397 O 0.25430 0.81102 0.78549
 O398 O 0.27907 0.82087 0.74909
 O399 O 0.18900 0.78330 0.75106
 O400 O 0.17804 0.75271 0.72661
 O401 O 0.22269 0.74535 0.81250
 O402 O 0.25702 0.71780 0.81500
 O403 O 0.24911 0.72101 0.68067
 O404 O 0.22016 0.75352 0.67847
 O405 O 0.31394 0.75124 0.70907
 O406 O 0.32154 0.77896 0.74053
 O407 O 0.28652 0.68744 0.74043
 O408 O 0.25289 0.67727 0.76818
 O409 O 0.25295 0.68974 0.70798
 O410 O 0.22545 0.67939 0.74354
 O411 O 0.31567 0.71714 0.73846
 O412 O 0.32241 0.74674 0.77170
 O413 O 0.28246 0.75410 0.68172
 O414 O 0.24847 0.78207 0.67761
 O415 O 0.25624 0.77926 0.81244
 O416 O 0.28433 0.74512 0.81511
 O417 O 0.19147 0.74620 0.78475
 O418 O 0.18375 0.72046 0.74865
 O419 O 0.21820 0.81301 0.75315
 O420 O 0.25020 0.82223 0.72463
 Zr421 Zr 0.25143 0.79372 0.75088
 O422 O 0.27281 0.77454 0.72518
 Zr423 Zr 0.20868 0.75018 0.75031
 O424 O 0.22822 0.72942 0.72425
 Zr425 Zr 0.25441 0.74777 0.79054
 O426 O 0.27588 0.72669 0.76645
 Zr427 Zr 0.25031 0.75257 0.70290
 O428 O 0.22843 0.77380 0.72687
 Zr429 Zr 0.29601 0.74983 0.74321
 O430 O 0.27680 0.77125 0.76942
 Zr431 Zr 0.25316 0.70657 0.74274
 O432 O 0.23156 0.72537 0.76895
 O433 O 0.23016 0.77152 0.77338
 O434 O 0.27446 0.72848 0.71994
 C435 C 0.25568 0.80221 0.80737
 C436 C 0.19578 0.80585 0.75226
 C437 C 0.19981 0.74465 0.80681
 C438 C 0.25099 0.69815 0.68600
 C439 C 0.30538 0.75311 0.68713
 C440 C 0.30888 0.69463 0.73852
 H441 H 0.28255 0.78639 0.71551
 H442 H 0.28686 0.71608 0.77622
 H443 H 0.22014 0.78111 0.78505
 H444 H 0.21670 0.72009 0.71381
 H445 H 0.20823 0.76529 0.68537
 H446 H 0.18284 0.74537 0.71074
 H447 H 0.33875 0.74502 0.76396
 H448 H 0.29662 0.75730 0.80963
 H449 H 0.26071 0.79450 0.68253
 H450 H 0.23817 0.81716 0.71199
 H451 H 0.26559 0.68074 0.78068
 H452 H 0.24483 0.70555 0.80944
 H453 H 0.29133 0.81687 0.76187
 H454 H 0.32029 0.78844 0.75595
 H455 H 0.18986 0.70780 0.76013
 H456 H 0.21374 0.68290 0.73012
 O457 O 0.25623 0.31375 0.70979
 O458 O 0.22964 0.32353 0.74400
 O459 O 0.31654 0.27858 0.74306
 O460 O 0.32324 0.24565 0.76632
 O461 O 0.28199 0.24839 0.67829
 O462 O 0.24562 0.22432 0.67210
 O463 O 0.24465 0.21782 0.80644
 O464 O 0.27811 0.24453 0.81319
 O465 O 0.18708 0.25621 0.77829
 O466 O 0.18254 0.28409 0.74674
 O467 O 0.21097 0.19009 0.74374
 O468 O 0.24421 0.17933 0.71687
 O469 O 0.24246 0.18790 0.77752
 O470 O 0.27210 0.17892 0.74183
 O471 O 0.18444 0.22177 0.74843
 O472 O 0.18072 0.25288 0.71526
 O473 O 0.21771 0.25461 0.80672
 O474 O 0.25557 0.27800 0.81334
 O475 O 0.25137 0.28537 0.67960
 O476 O 0.22037 0.25358 0.67358
 O477 O 0.31207 0.24647 0.70725
 O478 O 0.31544 0.21535 0.74062
 O479 O 0.28936 0.31010 0.74505
 O480 O 0.25535 0.32057 0.77082
 Zr481 Zr 0.25457 0.29396 0.74263
 O482 O 0.23035 0.27506 0.76551
 Zr483 Zr 0.29371 0.24743 0.74117
 O484 O 0.27134 0.22662 0.76498
 Zr485 Zr 0.24959 0.25188 0.69906
 O486 O 0.22558 0.23059 0.72073
 Zr487 Zr 0.25021 0.25009 0.78680
 O488 O 0.27508 0.27081 0.76568
 Zr489 Zr 0.20617 0.25346 0.74476
 O490 O 0.22830 0.27527 0.72123
 Zr491 Zr 0.24560 0.20711 0.74388
 O492 O 0.26959 0.22610 0.71977
 O493 O 0.27486 0.27209 0.71922
 O494 O 0.22508 0.22919 0.76719
 C495 C 0.25473 0.30746 0.68714
 C496 C 0.31119 0.30140 0.74503
 C497 C 0.30460 0.24716 0.68485
 C498 C 0.24161 0.19549 0.79988
 C499 C 0.19511 0.25692 0.80052
 C500 C 0.18936 0.19881 0.74691
 H501 H 0.22138 0.28725 0.77544
 H502 H 0.21423 0.22143 0.70992
 H503 H 0.28619 0.28189 0.70899
 H504 H 0.28137 0.21565 0.77533
 H505 H 0.29249 0.25407 0.80757
 H506 H 0.31761 0.23615 0.78071
 H507 H 0.16407 0.25128 0.72236
 H508 H 0.20909 0.26643 0.67955
 H509 H 0.24332 0.29099 0.81033
 H510 H 0.26686 0.31453 0.78352
 H511 H 0.23339 0.18520 0.70354
 H512 H 0.25622 0.21057 0.67729
 H513 H 0.21736 0.32073 0.73091
 H514 H 0.18572 0.29413 0.73195
 H515 H 0.30967 0.20525 0.72667
 H516 H 0.28176 0.17912 0.75721
 O517 O 0.74104 0.69729 0.72272
 O518 O 0.76545 0.68572 0.75831
 O519 O 0.67606 0.72504 0.75626
 O520 O 0.66681 0.75380 0.78389
 O521 O 0.71053 0.76579 0.69791
 O522 O 0.74567 0.79029 0.69437
 O523 O 0.73926 0.78467 0.82944
 O524 O 0.71049 0.75289 0.83204
 O525 O 0.80279 0.75369 0.79859
 O526 O 0.81036 0.72874 0.76702
 O527 O 0.77500 0.81980 0.77105
 O528 O 0.74161 0.83057 0.74292
 O529 O 0.73957 0.81660 0.80264
 O530 O 0.71424 0.82804 0.76701
 O531 O 0.80403 0.79009 0.76857
 O532 O 0.80950 0.75966 0.73571
 O533 O 0.77239 0.75170 0.82713
 O534 O 0.73733 0.72308 0.83022
 O535 O 0.74216 0.72955 0.69627
 O536 O 0.77219 0.76299 0.69459
 O537 O 0.67903 0.76200 0.72496
 O538 O 0.67221 0.78748 0.76197
 O539 O 0.70503 0.69514 0.75598
 O540 O 0.73797 0.68494 0.78359
 Zr541 Zr 0.73879 0.71378 0.75768
 O542 O 0.76118 0.73222 0.78312
 Zr543 Zr 0.69663 0.75752 0.75937
 O544 O 0.71696 0.77727 0.78581
 Zr545 Zr 0.74213 0.76055 0.71898
 O546 O 0.76385 0.78114 0.74312
 Zr547 Zr 0.73957 0.75378 0.80643
 O548 O 0.71655 0.73346 0.78234
 Zr549 Zr 0.78417 0.75724 0.76519
 O550 O 0.76428 0.73625 0.73919
 Zr551 Zr 0.74163 0.80066 0.76767
 O552 O 0.71965 0.78261 0.74118
 O553 O 0.71771 0.73661 0.73573
 O554 O 0.76354 0.77828 0.78954
 C555 C 0.74179 0.70652 0.70100
 C556 C 0.68266 0.70248 0.75548
 C557 C 0.68765 0.76549 0.70322
 C558 C 0.73873 0.80763 0.82442
 C559 C 0.79512 0.75147 0.82079
 C560 C 0.79736 0.81259 0.77006
 H561 H 0.77101 0.72002 0.79221
 H562 H 0.77464 0.79193 0.73332
 H563 H 0.70742 0.72753 0.72383
 H564 H 0.70558 0.78630 0.79660
 H565 H 0.69756 0.74237 0.82484
 H566 H 0.67159 0.76177 0.79947
 H567 H 0.82608 0.76233 0.74270
 H568 H 0.78314 0.74906 0.69837
 H569 H 0.75083 0.71174 0.82615
 H570 H 0.72604 0.68974 0.79640
 H571 H 0.75505 0.82800 0.73103
 H572 H 0.73571 0.80376 0.70124
 H573 H 0.77816 0.69022 0.74618
 H574 H 0.80743 0.71810 0.75263
 H575 H 0.67766 0.79983 0.74982
 H576 H 0.70146 0.82338 0.77902
 O577 O 0.25473 0.69355 0.28209
 O578 O 0.22911 0.68563 0.24677
 O579 O 0.31745 0.72734 0.25138
 O580 O 0.32334 0.76181 0.22435
 O581 O 0.28356 0.75958 0.31380
 O582 O 0.24696 0.78288 0.32040
 O583 O 0.25032 0.79314 0.18697
 O584 O 0.28184 0.76025 0.17968
 O585 O 0.19016 0.75485 0.21271
 O586 O 0.18205 0.72723 0.24618
 O587 O 0.21499 0.81849 0.25013
 O588 O 0.24998 0.82652 0.27898
 O589 O 0.24869 0.82164 0.21730
 O590 O 0.27423 0.83052 0.25197
 O591 O 0.18688 0.78791 0.24696
 O592 O 0.18111 0.75097 0.27407
 O593 O 0.22055 0.75768 0.18437
 O594 O 0.25704 0.73303 0.17734
 O595 O 0.25149 0.72236 0.31205
 O596 O 0.22243 0.75398 0.31884
 O597 O 0.31430 0.76121 0.28562
 O598 O 0.32095 0.78883 0.25191
 O599 O 0.28997 0.69608 0.24915
 O600 O 0.25735 0.68799 0.22032
 Zr601 Zr 0.25560 0.71381 0.24917
 O602 O 0.23225 0.73399 0.22587
 Zr603 Zr 0.29594 0.75923 0.25165
 O604 O 0.27449 0.78146 0.22852
 Zr605 Zr 0.25129 0.75578 0.29303
 O606 O 0.22788 0.77772 0.27179
 Zr607 Zr 0.25284 0.75939 0.20548
 O608 O 0.27665 0.73702 0.22660
 Zr609 Zr 0.20835 0.75575 0.24682
 O610 O 0.22974 0.73322 0.27023
 Zr611 Zr 0.24911 0.80102 0.24972
 O612 O 0.27258 0.78109 0.27315
 O613 O 0.27616 0.73496 0.27326
 O614 O 0.22791 0.78052 0.22526
 C615 C 0.25296 0.70008 0.30472
 C616 C 0.31200 0.70444 0.25044
 C617 C 0.30626 0.76156 0.30781
 C618 C 0.24893 0.81534 0.19463
 C619 C 0.19789 0.75574 0.19042
 C620 C 0.19286 0.81058 0.24916
 H621 H 0.22323 0.72252 0.21512
 H622 H 0.21694 0.78684 0.28295
 H623 H 0.28686 0.72511 0.28412
 H624 H 0.28527 0.79251 0.21903
 H625 H 0.29195 0.77491 0.18306
 H626 H 0.31839 0.75055 0.21098
 H627 H 0.18252 0.76471 0.28582
 H628 H 0.21024 0.74230 0.31216
 H629 H 0.24573 0.71933 0.18094
 H630 H 0.26911 0.69460 0.20816
 H631 H 0.23576 0.82316 0.28972
 H632 H 0.25799 0.79658 0.31593
 H633 H 0.21571 0.69015 0.25812
 H634 H 0.18826 0.71433 0.23509
 H635 H 0.31416 0.80118 0.26331
 H636 H 0.28800 0.82696 0.24075
 O637 O 0.76207 0.32702 0.28625
 O638 O 0.78450 0.33192 0.24877
 O639 O 0.69471 0.29454 0.26053
 O640 O 0.68460 0.26224 0.23706
 O641 O 0.73032 0.26592 0.32317
 O642 O 0.76475 0.23843 0.32844
 O643 O 0.75383 0.22276 0.19603
 O644 O 0.72449 0.25543 0.18985
 O645 O 0.81913 0.25876 0.21775
 O646 O 0.82837 0.28945 0.24896
 O647 O 0.79267 0.19859 0.25863
 O648 O 0.75977 0.19315 0.28937
 O649 O 0.75892 0.19617 0.22773
 O650 O 0.73243 0.19051 0.26452
 O651 O 0.82157 0.22758 0.25101
 O652 O 0.82942 0.26277 0.28000
 O653 O 0.78705 0.25398 0.19144
 O654 O 0.75702 0.28208 0.18337
 O655 O 0.76669 0.29916 0.31698
 O656 O 0.79114 0.26520 0.32555
 O657 O 0.69885 0.26118 0.29611
 O658 O 0.68954 0.23272 0.26345
 O659 O 0.72341 0.32439 0.25580
 O660 O 0.75564 0.33025 0.22496
 Zr661 Zr 0.75703 0.30521 0.25462
 O662 O 0.77802 0.28262 0.23132
 Zr663 Zr 0.71498 0.26195 0.26120
 O664 O 0.73403 0.23751 0.23822
 Zr665 Zr 0.76160 0.26507 0.30041
 O666 O 0.78295 0.24112 0.27918
 Zr667 Zr 0.75547 0.25730 0.21319
 O668 O 0.73384 0.28204 0.23401
 Zr669 Zr 0.80211 0.26096 0.25228
 O670 O 0.78297 0.28546 0.27544
 Zr671 Zr 0.75951 0.21785 0.25940
 O672 O 0.73823 0.24003 0.28280
 O673 O 0.73682 0.28632 0.28082
 O674 O 0.78015 0.23627 0.23316
 C675 C 0.76655 0.32112 0.30868
 C676 C 0.70109 0.31707 0.25814
 C677 C 0.70751 0.26296 0.31798
 C678 C 0.75659 0.20108 0.20479
 C679 C 0.81009 0.25522 0.19625
 C680 C 0.81484 0.20527 0.25448
 H681 H 0.78678 0.29291 0.21921
 H682 H 0.79434 0.23208 0.29003
 H683 H 0.72747 0.29739 0.29172
 H684 H 0.72234 0.22667 0.22957
 H685 H 0.71427 0.26993 0.19354
 H686 H 0.68928 0.25264 0.22242
 H687 H 0.84505 0.25650 0.27319
 H688 H 0.80486 0.27368 0.31726
 H689 H 0.74882 0.29718 0.18892
 H690 H 0.74050 0.32673 0.21556
 H691 H 0.77382 0.19751 0.30001
 H692 H 0.75195 0.22596 0.32523
 H693 H 0.79869 0.32706 0.25901
 H694 H 0.82335 0.30022 0.23525
 H695 H 0.69634 0.22077 0.27529
 H696 H 0.72025 0.19211 0.25115
 C697 C 0.22518 0.11017 0.05756
 C698 C 0.23816 0.10468 0.07927
 C699 C 0.25031 0.08183 0.08055
 C700 C 0.25093 0.06612 0.05994
 C701 C 0.23922 0.07259 0.03768
 C702 C 0.22571 0.09456 0.03742
 C703 C 0.26194 0.07491 0.10235
 C704 C 0.26168 0.09011 0.12291
 C705 C 0.25043 0.11337 0.12224
 C706 C 0.23916 0.12103 0.09976
 C707 C 0.22995 0.14510 0.09814
 C708 C 0.23103 0.16098 0.11790
 C709 C 0.24100 0.15354 0.14022
 C710 C 0.25054 0.12957 0.14302
 C711 C 0.25959 0.12295 0.16656
 C712 C 0.25956 0.13968 0.18612
 C713 C 0.25084 0.16356 0.18278
 C714 C 0.24149 0.17020 0.15976
 H715 H 0.21380 0.12615 0.05567
 H716 H 0.26153 0.04946 0.06123
 H717 H 0.21452 0.09965 0.02182
 H718 H 0.27124 0.05744 0.10361
 H719 H 0.27114 0.08339 0.13892
 H720 H 0.22245 0.15265 0.08148
 H721 H 0.22390 0.17937 0.11566
 H722 H 0.26647 0.10491 0.17055
 H723 H 0.26663 0.13399 0.20382
 H724 H 0.23416 0.18845 0.15706
 C725 C 0.76507 0.58483 0.59340
 C726 C 0.74878 0.60469 0.59694
 C727 C 0.73194 0.61001 0.57784
 C728 C 0.73120 0.59571 0.55658
 C729 C 0.74782 0.57655 0.55301
 C730 C 0.76463 0.57110 0.57169
 C731 C 0.71606 0.62983 0.57978
 C732 C 0.71730 0.64540 0.59976
 C733 C 0.73415 0.64136 0.61899
 C734 C 0.74901 0.61984 0.61837
 C735 C 0.76328 0.61413 0.63925
 C736 C 0.76360 0.62936 0.65973
 C737 C 0.75061 0.65134 0.65977
 C738 C 0.73624 0.65795 0.63909
 C739 C 0.72506 0.68128 0.63902
 C740 C 0.72734 0.69692 0.65903
 C741 C 0.74054 0.68982 0.67986
 C742 C 0.75210 0.66696 0.68024
 H743 H 0.77896 0.58002 0.60663
 H744 H 0.71771 0.59978 0.54252
 H745 H 0.77791 0.55661 0.56931
 H746 H 0.70285 0.63368 0.56539
 H747 H 0.70424 0.66017 0.59995
 H748 H 0.77391 0.59758 0.64058
 H749 H 0.77456 0.62412 0.67549
 H750 H 0.71505 0.68833 0.62349
 H751 H 0.71839 0.71460 0.65831
 H752 H 0.76273 0.66163 0.69621
 C753 C 0.77215 0.94399 0.11163
 C754 C 0.76039 0.92174 0.10567
 C755 C 0.74878 0.92005 0.08245
 C756 C 0.74710 0.94076 0.06701
 C757 C 0.75668 0.96362 0.07442
 C758 C 0.77020 0.96438 0.09645
 C759 C 0.73832 0.89788 0.07510
 C760 C 0.73870 0.87748 0.09047
 C761 C 0.74898 0.87862 0.11428
 C762 C 0.75965 0.90130 0.12209
 C763 C 0.76825 0.90323 0.14648
 C764 C 0.76679 0.88373 0.16264
 C765 C 0.75712 0.86135 0.15519
 C766 C 0.74836 0.85817 0.13087
 C767 C 0.73935 0.83465 0.12439
 C768 C 0.73875 0.81546 0.14153
 C769 C 0.74687 0.81910 0.16569
 C770 C 0.75609 0.84215 0.17222
 H771 H 0.78321 0.94631 0.12786
 H772 H 0.73677 0.93925 0.05007
 H773 H 0.77980 0.98081 0.10206
 H774 H 0.72956 0.89630 0.05728
 H775 H 0.73001 0.86121 0.08344
 H776 H 0.77546 0.91995 0.15408
 H777 H 0.77321 0.88629 0.18131
 H778 H 0.73289 0.83039 0.10618
 H779 H 0.73178 0.79776 0.13588
 H780 H 0.76287 0.84521 0.19070
 C781 C 0.23925 0.41347 0.56308
 C782 C 0.25511 0.40964 0.58333
 C783 C 0.27163 0.42876 0.58956
 C784 C 0.27191 0.45068 0.57623
 C785 C 0.25559 0.45441 0.55679
 C786 C 0.23954 0.43553 0.55011
 C787 C 0.28755 0.42618 0.60937
 C788 C 0.28649 0.40563 0.62421
 C789 C 0.26944 0.38669 0.61970
 C790 C 0.25458 0.38797 0.59810
 C791 C 0.23961 0.36767 0.59221
 C792 C 0.23811 0.34743 0.60764
 C793 C 0.25091 0.34687 0.62981
 C794 C 0.26669 0.36656 0.63619
 C795 C 0.27831 0.36584 0.65938
 C796 C 0.27435 0.34651 0.67545
 C797 C 0.25888 0.32706 0.66906
 C798 C 0.24755 0.32703 0.64599
 H799 H 0.22585 0.40018 0.55729
 H800 H 0.28469 0.46508 0.58121
 H801 H 0.22661 0.43810 0.53521
 H802 H 0.30063 0.44048 0.61381
 H803 H 0.29957 0.40507 0.63903
 H804 H 0.22890 0.36676 0.57560
 H805 H 0.22624 0.33235 0.60246
 H806 H 0.28989 0.38033 0.66616
 H807 H 0.28349 0.34684 0.69313
 H808 H 0.23542 0.31207 0.64104
 C809 C 0.76302 0.08966 0.93059
 C810 C 0.74813 0.09313 0.90953
 C811 C 0.73046 0.07487 0.90414
 C812 C 0.72739 0.05465 0.91969
 C813 C 0.74259 0.05109 0.94019
 C814 C 0.76037 0.06890 0.94550
 C815 C 0.71603 0.07663 0.88308
 C816 C 0.71939 0.09563 0.86654
 C817 C 0.73689 0.11419 0.87084
 C818 C 0.75047 0.11371 0.89334
 C819 C 0.76551 0.13400 0.89904
 C820 C 0.76760 0.15380 0.88307
 C821 C 0.75569 0.15374 0.86037
 C822 C 0.74075 0.13356 0.85361
 C823 C 0.73073 0.13334 0.82961
 C824 C 0.73463 0.15277 0.81346
 C825 C 0.74826 0.17322 0.82072
 C826 C 0.75877 0.17364 0.84422
 H827 H 0.77749 0.10218 0.93552
 H828 H 0.71311 0.04145 0.91556
 H829 H 0.77275 0.06656 0.96087
 H830 H 0.70228 0.06285 0.87904
 H831 H 0.70737 0.09571 0.85082
 H832 H 0.77532 0.13545 0.91617
 H833 H 0.77904 0.16916 0.88839
 H834 H 0.72037 0.11809 0.82249
 H835 H 0.72663 0.15196 0.79525
 H836 H 0.76986 0.18921 0.84970
 C837 C 0.28062 0.56045 0.38645
 C838 C 0.26879 0.58312 0.39061
 C839 C 0.25605 0.58610 0.41311
 C840 C 0.25365 0.56648 0.42960
 C841 C 0.26366 0.54360 0.42403
 C842 C 0.27790 0.54104 0.40284
 C843 C 0.24493 0.60833 0.41865
 C844 C 0.24536 0.62755 0.40200
 C845 C 0.25664 0.62516 0.37878
 C846 C 0.26861 0.60258 0.37301
 C847 C 0.27908 0.59981 0.34946
 C848 C 0.27762 0.61821 0.33199
 C849 C 0.26600 0.64024 0.33727
 C850 C 0.25576 0.64432 0.36086
 C851 C 0.24490 0.66741 0.36537
 C852 C 0.24393 0.68530 0.34712
 C853 C 0.25354 0.68084 0.32373
 C854 C 0.26459 0.65826 0.31895
 H855 H 0.29179 0.55689 0.37057
 H856 H 0.24272 0.56861 0.44608
 H857 H 0.28643 0.52367 0.39857
 H858 H 0.23538 0.61079 0.43592
 H859 H 0.23595 0.64387 0.40772
 H860 H 0.28804 0.58330 0.34358
 H861 H 0.28560 0.61507 0.31403
 H862 H 0.23715 0.67243 0.38281
 H863 H 0.23546 0.70272 0.35134
 H864 H 0.27253 0.65483 0.30103
 C865 C 0.27141 0.92872 0.91199
 C866 C 0.25727 0.90708 0.90920
 C867 C 0.24119 0.90066 0.92859
 C868 C 0.23894 0.91561 0.94926
 C869 C 0.25350 0.93657 0.95222
 C870 C 0.26961 0.94311 0.93326
 C871 C 0.22745 0.87920 0.92751
 C872 C 0.23011 0.86315 0.90808
 C873 C 0.24621 0.86832 0.88851
 C874 C 0.25879 0.89130 0.88823
 C875 C 0.27197 0.89780 0.86686
 C876 C 0.27306 0.88216 0.84665
 C877 C 0.26223 0.85898 0.84744
 C878 C 0.24948 0.85146 0.86883
 C879 C 0.24095 0.82706 0.87000
 C880 C 0.24373 0.81129 0.85021
 C881 C 0.25478 0.81920 0.82842
 C882 C 0.26415 0.84311 0.82712
 H883 H 0.28460 0.93451 0.89844
 H884 H 0.22576 0.91067 0.96331
 H885 H 0.28124 0.95908 0.93504
 H886 H 0.21480 0.87447 0.94212
 H887 H 0.21858 0.84711 0.90849
 H888 H 0.28093 0.91530 0.86493
 H889 H 0.28292 0.88810 0.83042
 H890 H 0.23267 0.81936 0.88624
 H891 H 0.23675 0.79280 0.85188
 H892 H 0.27327 0.84917 0.81050
 C893 C 0.74726 0.44356 0.41400
 C894 C 0.76468 0.42488 0.40963
 C895 C 0.78155 0.41940 0.42872
 C896 C 0.78046 0.43171 0.45125
 C897 C 0.76252 0.44941 0.45552
 C898 C 0.74627 0.45555 0.43660
 C899 C 0.79910 0.40125 0.42551
 C900 C 0.79927 0.38709 0.40444
 C901 C 0.78177 0.39057 0.38564
 C902 C 0.76524 0.41075 0.38752
 C903 C 0.74954 0.41572 0.36748
 C904 C 0.74863 0.40039 0.34714
 C905 C 0.76292 0.37929 0.34617
 C906 C 0.77989 0.37420 0.36530
 C907 C 0.79329 0.35213 0.36400
 C908 C 0.78930 0.33554 0.34508
 C909 C 0.77220 0.34043 0.32659
 C910 C 0.75961 0.36269 0.32669
 H911 H 0.73360 0.44878 0.40072
 H912 H 0.79336 0.42719 0.46573
 H913 H 0.73216 0.46915 0.43958
 H914 H 0.81248 0.39749 0.43976
 H915 H 0.81347 0.37347 0.40348
 H916 H 0.73760 0.43138 0.36694
 H917 H 0.73593 0.40464 0.33242
 H918 H 0.80616 0.34646 0.37787
 H919 H 0.79936 0.31846 0.34520
 H920 H 0.74620 0.36640 0.31245
 C921 C 0.11854 0.26274 0.05826
 C922 C 0.11342 0.24999 0.08018
 C923 C 0.09017 0.23866 0.08238
 C924 C 0.07356 0.23868 0.06251
 C925 C 0.07940 0.25039 0.04012
 C926 C 0.10197 0.26296 0.03887
 C927 C 0.08367 0.22727 0.10440
 C928 C 0.09960 0.22720 0.12439
 C929 C 0.12316 0.23786 0.12288
 C930 C 0.13049 0.24857 0.10006
 C931 C 0.15486 0.25691 0.09756
 C932 C 0.17129 0.25574 0.11692
 C933 C 0.16410 0.24659 0.13967
 C934 C 0.13990 0.23776 0.14320
 C935 C 0.13350 0.22947 0.16702
 C936 C 0.15060 0.22957 0.18618
 C937 C 0.17464 0.23774 0.18227
 C938 C 0.18118 0.24624 0.15891
 H939 H 0.13492 0.27348 0.05572
 H940 H 0.05656 0.22866 0.06450
 H941 H 0.10680 0.27407 0.02314
 H942 H 0.06593 0.21851 0.10632
 H943 H 0.09314 0.21798 0.14064
 H944 H 0.16215 0.26380 0.08052
 H945 H 0.18986 0.26224 0.11405
 H946 H 0.11535 0.22316 0.17157
 H947 H 0.14501 0.22296 0.20409
 H948 H 0.19964 0.25291 0.15572
 C949 C 0.57244 0.73438 0.59054
 C950 C 0.59333 0.74962 0.59313
 C951 C 0.60180 0.76207 0.57187
 C952 C 0.58996 0.75907 0.54916
 C953 C 0.56953 0.74373 0.54695
 C954 C 0.56081 0.73158 0.56785
 C955 C 0.62214 0.77739 0.57324
 C956 C 0.63491 0.78017 0.59507
 C957 C 0.62784 0.76761 0.61664
 C958 C 0.60634 0.75258 0.61585
 C959 C 0.59876 0.74081 0.63769
 C960 C 0.61227 0.74270 0.65926
 C961 C 0.63389 0.75629 0.66003
 C962 C 0.64185 0.76922 0.63884
 C963 C 0.66403 0.78259 0.64058
 C964 C 0.67812 0.78205 0.66188
 C965 C 0.67059 0.76858 0.68241
 C966 C 0.64805 0.75633 0.68167
 H967 H 0.56474 0.72409 0.60554
 H968 H 0.59660 0.76882 0.53313
 H969 H 0.54512 0.71947 0.56656
 H970 H 0.62849 0.78719 0.55712
 H971 H 0.65039 0.79236 0.59429
 H972 H 0.58246 0.72976 0.63878
 H973 H 0.60594 0.73297 0.67543
 H974 H 0.67154 0.79307 0.62563
 H975 H 0.69539 0.79188 0.66210
 H976 H 0.64219 0.74572 0.69746
 C977 C 0.06722 0.70627 0.89565
 C978 C 0.08643 0.72361 0.89654
 C979 C 0.08641 0.74070 0.91614
 C980 C 0.06637 0.74193 0.93248
 C981 C 0.04643 0.72583 0.92993
 C982 C 0.04772 0.70740 0.91206
 C983 C 0.10613 0.75678 0.91893
 C984 C 0.12576 0.75642 0.90258
 C985 C 0.12594 0.74060 0.88205
 C986 C 0.10550 0.72455 0.87856
 C987 C 0.10411 0.71084 0.85661
 C988 C 0.12210 0.71259 0.83872
 C989 C 0.14263 0.72737 0.84225
 C990 C 0.14533 0.74098 0.86429
 C991 C 0.16738 0.75434 0.86753
 C992 C 0.18533 0.75489 0.84918
 C993 C 0.18174 0.74260 0.82691
 C994 C 0.16041 0.72873 0.82366
 H995 H 0.06682 0.69144 0.88262
 H996 H 0.06590 0.75598 0.94651
 H997 H 0.03322 0.69392 0.91043
 H998 H 0.10641 0.76982 0.93393
 H999 H 0.14008 0.76962 0.90589
 H1000 H 0.08866 0.69938 0.85214
 H1001 H 0.11993 0.70216 0.82192
 H1002 H 0.17146 0.76423 0.88417
 H1003 H 0.20183 0.76549 0.85220
 H1004 H 0.15777 0.71874 0.80664
 C1005 C 0.57426 0.22263 0.40357
 C1006 C 0.59268 0.24083 0.40451
 C1007 C 0.59065 0.25923 0.42277
 C1008 C 0.56975 0.26038 0.43788
 C1009 C 0.55085 0.24313 0.43532
 C1010 C 0.55378 0.22389 0.41863
 C1011 C 0.60926 0.27656 0.42549
 C1012 C 0.62972 0.27631 0.41025
 C1013 C 0.63197 0.25910 0.39103
 C1014 C 0.61283 0.24143 0.38782
 C1015 C 0.61380 0.22562 0.36735
 C1016 C 0.63271 0.22698 0.35052
 C1017 C 0.65170 0.24371 0.35361
 C1018 C 0.65216 0.25955 0.37422
 C1019 C 0.67276 0.27526 0.37686
 C1020 C 0.69129 0.27590 0.35907
 C1021 C 0.68965 0.26119 0.33812
 C1022 C 0.67005 0.24489 0.33576
 H1023 H 0.57516 0.20699 0.39157
 H1024 H 0.56788 0.27510 0.45108
 H1025 H 0.53999 0.20966 0.41712
 H1026 H 0.60797 0.29057 0.43952
 H1027 H 0.64307 0.29052 0.41339
 H1028 H 0.59961 0.21258 0.36310
 H1029 H 0.63234 0.21485 0.33476
 H1030 H 0.67513 0.28715 0.39247
 H1031 H 0.70653 0.28843 0.36133
 H1032 H 0.66906 0.23304 0.31980
 C1033 C 0.93942 0.77417 0.09852
 C1034 C 0.91696 0.76237 0.09324
 C1035 C 0.91493 0.74996 0.07047
 C1036 C 0.93536 0.74796 0.05470
 C1037 C 0.95842 0.75740 0.06168
 C1038 C 0.95964 0.77148 0.08325
 C1039 C 0.89284 0.73870 0.06406
 C1040 C 0.87303 0.73852 0.08017
 C1041 C 0.87458 0.74943 0.10364
 C1042 C 0.89683 0.76186 0.11011
 C1043 C 0.89869 0.77247 0.13368
 C1044 C 0.87997 0.77038 0.15066
 C1045 C 0.85848 0.75790 0.14492
 C1046 C 0.85501 0.74773 0.12121
 C1047 C 0.83221 0.73602 0.11645
 C1048 C 0.81420 0.73394 0.13476
 C1049 C 0.81849 0.74312 0.15837
 C1050 C 0.84054 0.75538 0.16309
 H1051 H 0.94228 0.78535 0.11454
 H1052 H 0.93364 0.73713 0.03812
 H1053 H 0.97644 0.78069 0.08850
 H1054 H 0.89100 0.72940 0.04657
 H1055 H 0.85689 0.72901 0.07392
 H1056 H 0.91472 0.78204 0.14005
 H1057 H 0.88252 0.77840 0.16871
 H1058 H 0.82771 0.72826 0.09883
 H1059 H 0.79711 0.72473 0.13058
 H1060 H 0.84375 0.76322 0.18112
 C1061 C 0.44255 0.28379 0.60417
 C1062 C 0.42118 0.26961 0.60009
 C1063 C 0.41985 0.25580 0.57809
 C1064 C 0.44013 0.25446 0.56225
 C1065 C 0.46195 0.26679 0.56791
 C1066 C 0.46258 0.28221 0.58842
 C1067 C 0.39866 0.24262 0.57250
 C1068 C 0.37893 0.24219 0.58861
 C1069 C 0.37988 0.25446 0.61142
 C1070 C 0.40147 0.26821 0.61734
 C1071 C 0.40322 0.27908 0.64080
 C1072 C 0.38477 0.27639 0.65803
 C1073 C 0.36358 0.26328 0.65250
 C1074 C 0.36037 0.25271 0.62893
 C1075 C 0.33776 0.24076 0.62406
 C1076 C 0.31960 0.23891 0.64212
 C1077 C 0.32356 0.24847 0.66561
 C1078 C 0.34554 0.26073 0.67058
 H1079 H 0.44455 0.29608 0.61950
 H1080 H 0.43939 0.24264 0.54627
 H1081 H 0.47896 0.29260 0.59269
 H1082 H 0.39743 0.23220 0.55560
 H1083 H 0.36352 0.23118 0.58303
 H1084 H 0.41911 0.28910 0.64688
 H1085 H 0.38719 0.28464 0.67599
 H1086 H 0.33334 0.23301 0.60642
 H1087 H 0.30251 0.22977 0.63776
 H1088 H 0.34842 0.26883 0.68855
 C1089 C 0.93664 0.24934 0.91610
 C1090 C 0.91170 0.24232 0.91630
 C1091 C 0.90184 0.23384 0.93882
 C1092 C 0.91635 0.23278 0.96007
 C1093 C 0.94086 0.24089 0.96006
 C1094 C 0.95082 0.24865 0.93746
 C1095 C 0.87735 0.22677 0.94024
 C1096 C 0.86195 0.22917 0.92015
 C1097 C 0.87054 0.23855 0.89757
 C1098 C 0.89607 0.24402 0.89520
 C1099 C 0.90501 0.25100 0.87187
 C1100 C 0.88945 0.25337 0.85177
 C1101 C 0.86431 0.24952 0.85418
 C1102 C 0.85444 0.24238 0.87720
 C1103 C 0.82873 0.23990 0.87905
 C1104 C 0.81366 0.24352 0.85876
 C1105 C 0.82348 0.24979 0.83580
 C1106 C 0.84891 0.25286 0.83368
 H1107 H 0.94559 0.25641 0.89996
 H1108 H 0.90827 0.22528 0.97661
 H1109 H 0.96928 0.25578 0.93624
 H1110 H 0.86982 0.21976 0.95729
 H1111 H 0.84336 0.22313 0.92288
 H1112 H 0.92413 0.25441 0.86838
 H1113 H 0.89718 0.25866 0.83421
 H1114 H 0.81953 0.23563 0.89601
 H1115 H 0.79410 0.24113 0.86116
 H1116 H 0.85676 0.25790 0.81610
 C1117 C 0.43504 0.73968 0.40692
 C1118 C 0.41338 0.75396 0.40653
 C1119 C 0.40665 0.76615 0.42850
 C1120 C 0.42088 0.76378 0.44979
 C1121 C 0.44151 0.74860 0.45020
 C1122 C 0.44876 0.73702 0.42847
 C1123 C 0.38537 0.78013 0.42943
 C1124 C 0.36961 0.78107 0.40950
 C1125 C 0.37474 0.76825 0.38761
 C1126 C 0.39768 0.75580 0.38553
 C1127 C 0.40399 0.74549 0.36261
 C1128 C 0.38790 0.74618 0.34281
 C1129 C 0.36467 0.75649 0.34523
 C1130 C 0.35765 0.76748 0.36774
 C1131 C 0.33339 0.77637 0.36977
 C1132 C 0.31699 0.77451 0.35024
 C1133 C 0.32417 0.76407 0.32795
 C1134 C 0.34817 0.75536 0.32542
 H1135 H 0.44132 0.72949 0.39123
 H1136 H 0.41542 0.77327 0.46640
 H1137 H 0.46457 0.72506 0.42835
 H1138 H 0.38046 0.78993 0.44602
 H1139 H 0.35358 0.79232 0.41174
 H1140 H 0.42145 0.73698 0.35928
 H1141 H 0.39348 0.73795 0.32559
 H1142 H 0.32617 0.78405 0.38647
 H1143 H 0.29850 0.78128 0.35266
 H1144 H 0.35372 0.74685 0.30831
 C1145 C 0.06478 0.08032 0.22896
 C1146 C 0.08660 0.08016 0.24307
 C1147 C 0.09295 0.05801 0.25495
 C1148 C 0.07810 0.03720 0.25277
 C1149 C 0.05664 0.03723 0.23837
 C1150 C 0.05012 0.05935 0.22676
 C1151 C 0.11414 0.05655 0.26914
 C1152 C 0.12987 0.07633 0.27111
 C1153 C 0.12496 0.09864 0.25901
 C1154 C 0.10250 0.10097 0.24557
 C1155 C 0.09674 0.12399 0.23526
 C1156 C 0.11265 0.14382 0.23734
 C1157 C 0.13517 0.14143 0.24925
 C1158 C 0.14177 0.11873 0.26004
 C1159 C 0.16528 0.11687 0.27086
 C1160 C 0.18138 0.13664 0.27099
 C1161 C 0.17471 0.15908 0.26058
 C1162 C 0.15142 0.16149 0.24998
 H1163 H 0.05875 0.09619 0.21890
 H1164 H 0.08312 0.02112 0.26326
 H1165 H 0.03424 0.06046 0.21492
 H1166 H 0.11882 0.03974 0.27865
 H1167 H 0.14563 0.07356 0.28267
 H1168 H 0.07984 0.12740 0.22562
 H1169 H 0.10743 0.16113 0.22912
 H1170 H 0.17224 0.10020 0.27875
 H1171 H 0.19930 0.13427 0.27923
 H1172 H 0.14626 0.17871 0.24152
 C1173 C 0.60002 0.56134 0.76488
 C1174 C 0.59868 0.58326 0.75118
 C1175 C 0.57978 0.58534 0.73338
 C1176 C 0.56445 0.56518 0.72805
 C1177 C 0.56741 0.54294 0.74062
 C1178 C 0.58470 0.54168 0.75964
 C1179 C 0.57660 0.60738 0.72080
 C1180 C 0.59186 0.62735 0.72536
 C1181 C 0.61161 0.62577 0.74210
 C1182 C 0.61548 0.60307 0.75462
 C1183 C 0.63665 0.60046 0.76934
 C1184 C 0.65334 0.61940 0.77201
 C1185 C 0.64942 0.64190 0.76069
 C1186 C 0.62820 0.64576 0.74611
 C1187 C 0.62462 0.66949 0.73620
 C1188 C 0.64193 0.68809 0.73985
 C1189 C 0.66341 0.68358 0.75318
 C1190 C 0.66690 0.66051 0.76372
 H1191 H 0.61251 0.55885 0.78001
 H1192 H 0.55078 0.56658 0.71367
 H1193 H 0.58654 0.52517 0.77053
 H1194 H 0.56214 0.60923 0.70726
 H1195 H 0.58829 0.64357 0.71467
 H1196 H 0.64146 0.58355 0.77828
 H1197 H 0.66957 0.61634 0.78310
 H1198 H 0.60855 0.67433 0.72577
 H1199 H 0.63878 0.70590 0.73167
 H1200 H 0.68329 0.65706 0.77445
 C1201 C 0.91306 0.06798 0.74953
 C1202 C 0.91369 0.09228 0.75853
 C1203 C 0.93615 0.10078 0.76845
 C1204 C 0.95701 0.08585 0.76859
 C1205 C 0.95670 0.06225 0.75821
 C1206 C 0.93408 0.05333 0.74942
 C1207 C 0.93797 0.12440 0.77788
 C1208 C 0.91841 0.14042 0.77645
 C1209 C 0.89600 0.13340 0.76553
 C1210 C 0.89314 0.10861 0.75754
 C1211 C 0.86993 0.10114 0.74873
 C1212 C 0.85045 0.11747 0.74708
 C1213 C 0.85338 0.14202 0.75350
 C1214 C 0.87631 0.15039 0.76252
 C1215 C 0.87882 0.17564 0.76759
 C1216 C 0.85928 0.19165 0.76450
 C1217 C 0.83640 0.18331 0.75623
 C1218 C 0.83358 0.15835 0.75076
 H1219 H 0.89684 0.05998 0.74159
 H1220 H 0.97354 0.09286 0.77710
 H1221 H 0.93268 0.03551 0.74088
 H1222 H 0.95495 0.13080 0.78604
 H1223 H 0.92144 0.15821 0.78438
 H1224 H 0.86612 0.08261 0.74315
 H1225 H 0.83297 0.11086 0.74027
 H1226 H 0.89578 0.18385 0.77348
 H1227 H 0.86221 0.21078 0.76885
 H1228 H 0.81606 0.15166 0.74413
 C1229 C 0.40768 0.57055 0.24254
 C1230 C 0.40829 0.59428 0.25310
 C1231 C 0.43035 0.60170 0.26471
 C1232 C 0.45068 0.58605 0.26555
 C1233 C 0.45017 0.56307 0.25410
 C1234 C 0.42831 0.55533 0.24298
 C1235 C 0.43231 0.62494 0.27503
 C1236 C 0.41327 0.64159 0.27314
 C1237 C 0.39117 0.63552 0.26108
 C1238 C 0.38814 0.61110 0.25200
 C1239 C 0.36509 0.60440 0.24223
 C1240 C 0.34592 0.62111 0.24074
 C1241 C 0.34906 0.64534 0.24823
 C1242 C 0.37187 0.65300 0.25812
 C1243 C 0.37461 0.67805 0.26416
 C1244 C 0.35533 0.69449 0.26121
 C1245 C 0.33253 0.68672 0.25224
 C1246 C 0.32954 0.66202 0.24576
 H1247 H 0.39186 0.56352 0.23300
 H1248 H 0.46726 0.59208 0.27474
 H1249 H 0.42740 0.53778 0.23378
 H1250 H 0.44900 0.63055 0.28429
 H1251 H 0.41634 0.65906 0.28177
 H1252 H 0.36111 0.58613 0.23594
 H1253 H 0.32851 0.61505 0.23327
 H1254 H 0.39157 0.68573 0.27075
 H1255 H 0.35829 0.71342 0.26634
 H1256 H 0.31209 0.65581 0.23853
 C1257 C 0.05766 0.88830 0.72335
 C1258 C 0.07878 0.89156 0.73788
 C1259 C 0.08108 0.91375 0.75116
 C1260 C 0.06163 0.93077 0.75169
 C1261 C 0.03958 0.92608 0.73895
 C1262 C 0.03864 0.90510 0.72391
 C1263 C 0.10262 0.91855 0.76417
 C1264 C 0.12188 0.90184 0.76425
 C1265 C 0.11999 0.87909 0.75201
 C1266 C 0.09769 0.87359 0.73937
 C1267 C 0.09453 0.84993 0.72940
 C1268 C 0.11282 0.83248 0.73090
 C1269 C 0.13517 0.83792 0.74198
 C1270 C 0.13933 0.86136 0.75243
 C1271 C 0.16280 0.86605 0.76256
 C1272 C 0.18104 0.84809 0.76248
 C1273 C 0.17647 0.82482 0.75265
 C1274 C 0.15342 0.81989 0.74254
 H1275 H 0.05542 0.87313 0.71090
 H1276 H 0.06338 0.94682 0.76320
 H1277 H 0.02322 0.90166 0.71186
 H1278 H 0.10468 0.93548 0.77435
 H1279 H 0.13777 0.90693 0.77485
 H1280 H 0.07767 0.84395 0.72101
 H1281 H 0.10946 0.81451 0.72314
 H1282 H 0.16781 0.88355 0.77019
 H1283 H 0.19879 0.85243 0.77030
 H1284 H 0.14981 0.80208 0.73451
 C1285 C 0.55790 0.39255 0.28568
 C1286 C 0.57947 0.39678 0.27187
 C1287 C 0.58030 0.41807 0.25697
 C1288 C 0.55960 0.43328 0.25468
 C1289 C 0.53783 0.42781 0.26726
 C1290 C 0.53754 0.40775 0.28330
 C1291 C 0.60158 0.42376 0.24399
 C1292 C 0.62203 0.40863 0.24511
 C1293 C 0.62182 0.38669 0.25887
 C1294 C 0.60003 0.38050 0.27216
 C1295 C 0.59911 0.35778 0.28452
 C1296 C 0.61864 0.34161 0.28390
 C1297 C 0.64010 0.34748 0.27137
 C1298 C 0.64236 0.37031 0.25916
 C1299 C 0.66510 0.37561 0.24770
 C1300 C 0.68425 0.35857 0.24771
 C1301 C 0.68135 0.33565 0.25887
 C1302 C 0.65927 0.33040 0.27088
 H1303 H 0.55610 0.37769 0.29855
 H1304 H 0.56015 0.44887 0.24235
 H1305 H 0.52131 0.40361 0.29397
 H1306 H 0.60242 0.44008 0.23266
 H1307 H 0.63752 0.41429 0.23426
 H1308 H 0.58316 0.35147 0.29427
 H1309 H 0.61686 0.32419 0.29330
 H1310 H 0.66879 0.39280 0.23874
 H1311 H 0.70125 0.36321 0.23855
 H1312 H 0.65701 0.31292 0.28008
 C1313 C 0.88289 0.93735 0.20089
 C1314 C 0.88983 0.91406 0.20982
 C1315 C 0.91396 0.91145 0.21908
 C1316 C 0.92969 0.93184 0.22078
 C1317 C 0.92157 0.95544 0.21421
 C1318 C 0.89832 0.95752 0.20327
 C1319 C 0.92193 0.88875 0.22766
 C1320 C 0.90612 0.86878 0.22847
 C1321 C 0.88147 0.87076 0.22080
 C1322 C 0.87340 0.89362 0.21071
 C1323 C 0.84885 0.89562 0.20278
 C1324 C 0.83241 0.87654 0.20570
 C1325 C 0.83968 0.85459 0.21639
 C1326 C 0.86438 0.85096 0.22355
 C1327 C 0.87062 0.82780 0.23363
 C1328 C 0.85285 0.80957 0.23709
 C1329 C 0.82835 0.81391 0.23089
 C1330 C 0.82207 0.83634 0.22018
 H1331 H 0.86545 0.94091 0.19241
 H1332 H 0.94745 0.92943 0.22935
 H1333 H 0.89184 0.97490 0.19628
 H1334 H 0.94047 0.88651 0.23445
 H1335 H 0.91368 0.85213 0.23581
 H1336 H 0.84140 0.91195 0.19466
 H1337 H 0.81362 0.87919 0.19986
 H1338 H 0.88899 0.82319 0.23918
 H1339 H 0.85821 0.79221 0.24505
 H1340 H 0.80327 0.83966 0.21466
 C1341 C 0.42606 0.41139 0.70654
 C1342 C 0.41043 0.40573 0.72661
 C1343 C 0.40830 0.42345 0.74551
 C1344 C 0.42079 0.44576 0.74401
 C1345 C 0.43564 0.45128 0.72386
 C1346 C 0.43855 0.43381 0.70532
 C1347 C 0.39361 0.41901 0.76589
 C1348 C 0.37984 0.39782 0.76755
 C1349 C 0.38008 0.38013 0.74868
 C1350 C 0.39646 0.38353 0.72842
 C1351 C 0.39804 0.36477 0.71064
 C1352 C 0.38329 0.34399 0.71193
 C1353 C 0.36602 0.34129 0.73062
 C1354 C 0.36419 0.35931 0.74930
 C1355 C 0.34564 0.35637 0.76723
 C1356 C 0.32928 0.33689 0.76614
 C1357 C 0.33103 0.31937 0.74759
 C1358 C 0.34981 0.32118 0.73020
 H1359 H 0.42875 0.39910 0.69132
 H1360 H 0.41898 0.45902 0.75873
 H1361 H 0.45012 0.43771 0.68964
 H1362 H 0.39246 0.43228 0.78065
 H1363 H 0.36924 0.39585 0.78409
 H1364 H 0.41056 0.36561 0.69538
 H1365 H 0.38493 0.33023 0.69769
 H1366 H 0.34241 0.36936 0.78171
 H1367 H 0.31468 0.33581 0.77958
 H1368 H 0.35082 0.30783 0.71551
 C1369 C 0.07187 0.24647 0.90783
 C1370 C 0.09334 0.26071 0.90453
 C1371 C 0.10151 0.27507 0.92467
 C1372 C 0.08902 0.27458 0.94712
 C1373 C 0.06863 0.25941 0.95042
 C1374 C 0.05983 0.24583 0.93045
 C1375 C 0.12256 0.28934 0.92264
 C1376 C 0.13682 0.28838 0.90167
 C1377 C 0.13045 0.27312 0.88174
 C1378 C 0.10756 0.26039 0.88246
 C1379 C 0.09995 0.24754 0.86125
 C1380 C 0.11485 0.24597 0.84060
 C1381 C 0.13817 0.25646 0.84052
 C1382 C 0.14635 0.27005 0.86119
 C1383 C 0.17063 0.27907 0.86098
 C1384 C 0.18600 0.27480 0.84114
 C1385 C 0.17779 0.26169 0.82066
 C1386 C 0.15368 0.25289 0.82018
 H1387 H 0.06450 0.23482 0.89367
 H1388 H 0.09567 0.28549 0.96239
 H1389 H 0.04414 0.23384 0.93262
 H1390 H 0.12848 0.30087 0.93774
 H1391 H 0.15275 0.30005 0.90158
 H1392 H 0.08238 0.23861 0.85995
 H1393 H 0.10834 0.23577 0.82481
 H1394 H 0.17873 0.28866 0.87626
 H1395 H 0.20457 0.28181 0.84191
 H1396 H 0.14735 0.24245 0.80447
 C1397 C 0.58143 0.71706 0.41420
 C1398 C 0.60222 0.73237 0.41124
 C1399 C 0.60917 0.74717 0.43148
 C1400 C 0.59529 0.74725 0.45315
 C1401 C 0.57455 0.73228 0.45570
 C1402 C 0.56793 0.71704 0.43605
 C1403 C 0.62988 0.76201 0.43004
 C1404 C 0.64434 0.76219 0.40914
 C1405 C 0.63840 0.74775 0.38846
 C1406 C 0.61646 0.73336 0.38912
 C1407 C 0.60931 0.72090 0.36753
 C1408 C 0.62335 0.72198 0.34623
 C1409 C 0.64543 0.73488 0.34572
 C1410 C 0.65351 0.74757 0.36699
 C1411 C 0.67672 0.75911 0.36608
 C1412 C 0.69102 0.75830 0.34494
 C1413 C 0.68274 0.74628 0.32380
 C1414 C 0.65976 0.73481 0.32419
 H1415 H 0.57536 0.70455 0.40015
 H1416 H 0.60049 0.75944 0.46798
 H1417 H 0.55234 0.70485 0.43760
 H1418 H 0.63513 0.77356 0.44537
 H1419 H 0.65980 0.77445 0.40956
 H1420 H 0.59254 0.71053 0.36631
 H1421 H 0.61702 0.71226 0.33006
 H1422 H 0.68480 0.76828 0.38161
 H1423 H 0.70881 0.76715 0.34517
 H1424 H 0.65342 0.72510 0.30805
 C1425 C 0.93490 0.70920 0.89526
 C1426 C 0.91396 0.72319 0.90098
 C1427 C 0.91351 0.73531 0.92396
 C1428 C 0.93437 0.73528 0.93934
 C1429 C 0.95617 0.72346 0.93206
 C1430 C 0.95547 0.70949 0.91035
 C1431 C 0.89252 0.74803 0.93109
 C1432 C 0.87217 0.74948 0.91568
 C1433 C 0.87225 0.73881 0.89204
 C1434 C 0.89368 0.72573 0.88450
 C1435 C 0.89470 0.71659 0.86027
 C1436 C 0.87558 0.72004 0.84393
 C1437 C 0.85446 0.73237 0.85103
 C1438 C 0.85207 0.74147 0.87530
 C1439 C 0.82960 0.75296 0.88153
 C1440 C 0.81087 0.75588 0.86410
 C1441 C 0.81405 0.74776 0.83992
 C1442 C 0.83581 0.73581 0.83369
 H1443 H 0.93604 0.69768 0.87927
 H1444 H 0.93398 0.74602 0.95605
 H1445 H 0.97086 0.69825 0.90493
 H1446 H 0.89188 0.75720 0.94873
 H1447 H 0.85690 0.75992 0.92249
 H1448 H 0.91051 0.70743 0.85291
 H1449 H 0.87745 0.71308 0.82537
 H1450 H 0.82586 0.75973 0.89972
 H1451 H 0.79405 0.76494 0.86941
 H1452 H 0.83822 0.72894 0.81516
 C1453 C 0.44061 0.21187 0.40333
 C1454 C 0.41966 0.22694 0.40532
 C1455 C 0.41869 0.24365 0.42522
 C1456 C 0.43905 0.24670 0.44087
 C1457 C 0.46049 0.23310 0.43713
 C1458 C 0.46062 0.21503 0.41890
 C1459 C 0.39773 0.25773 0.42892
 C1460 C 0.37782 0.25599 0.41302
 C1461 C 0.37841 0.24059 0.39219
 C1462 C 0.39991 0.22620 0.38804
 C1463 C 0.40152 0.21246 0.36615
 C1464 C 0.38289 0.21273 0.34885
 C1465 C 0.36162 0.22617 0.35283
 C1466 C 0.35865 0.23976 0.37481
 C1467 C 0.33602 0.25199 0.37831
 C1468 C 0.31768 0.25136 0.36032
 C1469 C 0.32140 0.23884 0.33822
 C1470 C 0.34335 0.22616 0.33471
 H1471 H 0.44219 0.19747 0.38993
 H1472 H 0.43863 0.26047 0.45519
 H1473 H 0.47658 0.20357 0.41631
 H1474 H 0.39675 0.27041 0.44419
 H1475 H 0.36255 0.26778 0.41703
 H1476 H 0.41749 0.20200 0.36126
 H1477 H 0.38522 0.20230 0.33207
 H1478 H 0.33179 0.26196 0.39483
 H1479 H 0.30071 0.26110 0.36352
 H1480 H 0.34612 0.21598 0.31784
 C1481 C 0.06214 0.72018 0.10433
 C1482 C 0.08406 0.73363 0.10078
 C1483 C 0.08699 0.74611 0.07809
 C1484 C 0.06775 0.74671 0.06077
 C1485 C 0.04543 0.73501 0.06573
 C1486 C 0.04320 0.72108 0.08719
 C1487 C 0.10876 0.75861 0.07320
 C1488 C 0.12754 0.75948 0.09049
 C1489 C 0.12510 0.74833 0.11379
 C1490 C 0.10284 0.73544 0.11910
 C1491 C 0.09964 0.72564 0.14290
 C1492 C 0.11742 0.72826 0.16091
 C1493 C 0.13935 0.74035 0.15597
 C1494 C 0.14383 0.75019 0.13226
 C1495 C 0.16690 0.76147 0.12818
 C1496 C 0.18437 0.76318 0.14695
 C1497 C 0.17944 0.75401 0.17048
 C1498 C 0.15684 0.74261 0.17478
 H1499 H 0.05886 0.70898 0.12028
 H1500 H 0.06965 0.75736 0.04406
 H1501 H 0.02631 0.71136 0.09107
 H1502 H 0.11122 0.76806 0.05586
 H1503 H 0.14354 0.76981 0.08526
 H1504 H 0.08315 0.71640 0.14857
 H1505 H 0.11392 0.72070 0.17899
 H1506 H 0.17218 0.76889 0.11063
 H1507 H 0.20177 0.77193 0.14306
 H1508 H 0.15298 0.73505 0.19279
 C1509 C 0.56779 0.22651 0.60684
 C1510 C 0.59014 0.23912 0.60279
 C1511 C 0.59239 0.25294 0.58083
 C1512 C 0.57242 0.25516 0.56458
 C1513 C 0.54993 0.24398 0.56998
 C1514 C 0.54808 0.22913 0.59081
 C1515 C 0.61428 0.26510 0.57562
 C1516 C 0.63381 0.26455 0.59204
 C1517 C 0.63214 0.25201 0.61468
 C1518 C 0.60995 0.23896 0.62005
 C1519 C 0.60791 0.22692 0.64291
 C1520 C 0.62647 0.22804 0.66020
 C1521 C 0.64798 0.24088 0.65544
 C1522 C 0.65155 0.25262 0.63249
 C1523 C 0.67432 0.26469 0.62866
 C1524 C 0.69219 0.26561 0.64718
 C1525 C 0.68787 0.25478 0.67007
 C1526 C 0.66584 0.24219 0.67385
 H1527 H 0.56465 0.21473 0.62237
 H1528 H 0.57397 0.26658 0.54835
 H1529 H 0.53103 0.21982 0.59498
 H1530 H 0.61621 0.27551 0.55877
 H1531 H 0.64985 0.27475 0.58670
 H1532 H 0.59188 0.21688 0.64846
 H1533 H 0.62380 0.21888 0.67768
 H1534 H 0.67890 0.27362 0.61163
 H1535 H 0.70921 0.27525 0.64374
 H1536 H 0.66254 0.23324 0.69134
 C1537 C 0.93534 0.26783 0.09052
 C1538 C 0.91449 0.25271 0.09419
 C1539 C 0.90860 0.23561 0.07552
 C1540 C 0.92307 0.23374 0.05442
 C1541 C 0.94307 0.24938 0.05062
 C1542 C 0.94929 0.26620 0.06901
 C1543 C 0.88801 0.22068 0.07767
 C1544 C 0.87222 0.22316 0.09739
 C1545 C 0.87671 0.24045 0.11611
 C1546 C 0.89890 0.25442 0.11527
 C1547 C 0.90474 0.26945 0.13554
 C1548 C 0.88903 0.27145 0.15553
 C1549 C 0.86653 0.25928 0.15575
 C1550 C 0.85983 0.24397 0.13581
 C1551 C 0.83616 0.23335 0.13607
 C1552 C 0.82017 0.23730 0.15557
 C1553 C 0.82721 0.25172 0.17560
 C1554 C 0.85050 0.26257 0.17568
 H1555 H 0.94081 0.28171 0.10347
 H1556 H 0.91838 0.22029 0.04053
 H1557 H 0.96450 0.27870 0.06646
 H1558 H 0.88371 0.20726 0.06364
 H1559 H 0.85682 0.21080 0.09770
 H1560 H 0.92167 0.27956 0.13675
 H1561 H 0.89434 0.28308 0.17077
 H1562 H 0.82910 0.22247 0.12115
 H1563 H 0.80223 0.22878 0.15506
 H1564 H 0.85591 0.27409 0.19098
 C1565 C 0.42736 0.72106 0.58163
 C1566 C 0.40767 0.73781 0.58398
 C1567 C 0.40295 0.75364 0.56390
 C1568 C 0.41766 0.75302 0.54287
 C1569 C 0.43692 0.73624 0.54067
 C1570 C 0.44167 0.72033 0.56029
 C1571 C 0.38353 0.77011 0.56475
 C1572 C 0.36796 0.77072 0.58478
 C1573 C 0.37144 0.75508 0.60512
 C1574 C 0.39228 0.73919 0.60527
 C1575 C 0.39715 0.72554 0.62677
 C1576 C 0.38185 0.72686 0.64715
 C1577 C 0.36069 0.74116 0.64669
 C1578 C 0.35493 0.75510 0.62547
 C1579 C 0.33246 0.76800 0.62523
 C1580 C 0.31671 0.76737 0.64533
 C1581 C 0.32283 0.75418 0.66648
 C1582 C 0.34497 0.74125 0.66716
 H1583 H 0.43182 0.70789 0.59567
 H1584 H 0.41410 0.76586 0.52809
 H1585 H 0.45625 0.70697 0.55902
 H1586 H 0.38011 0.78250 0.54956
 H1587 H 0.35362 0.78421 0.58400
 H1588 H 0.41303 0.71401 0.62863
 H1589 H 0.38641 0.71618 0.66332
 H1590 H 0.32604 0.77812 0.60952
 H1591 H 0.29958 0.77731 0.64430
 H1592 H 0.34955 0.73057 0.68331
 C1593 C 0.24277 0.06882 0.90415
 C1594 C 0.23181 0.09220 0.90229
 C1595 C 0.22032 0.10170 0.92356
 C1596 C 0.22088 0.08883 0.94581
 C1597 C 0.23308 0.06628 0.94790
 C1598 C 0.24328 0.05614 0.92645
 C1599 C 0.20864 0.12430 0.92280
 C1600 C 0.20955 0.13864 0.90187
 C1601 C 0.22242 0.13095 0.88076
 C1602 C 0.23256 0.10683 0.88044
 C1603 C 0.24352 0.09846 0.85849
 C1604 C 0.24580 0.11361 0.83807
 C1605 C 0.23773 0.13780 0.83880
 C1606 C 0.22580 0.14677 0.86014
 C1607 C 0.21871 0.17163 0.86041
 C1608 C 0.22367 0.18690 0.84064
 C1609 C 0.23569 0.17810 0.81974
 C1610 C 0.24215 0.15334 0.81861
 H1611 H 0.25187 0.06011 0.88896
 H1612 H 0.21146 0.09650 0.96152
 H1613 H 0.25319 0.03901 0.92699
 H1614 H 0.19915 0.13131 0.93880
 H1615 H 0.19994 0.15578 0.90293
 H1616 H 0.25067 0.08022 0.85648
 H1617 H 0.25466 0.10650 0.82176
 H1618 H 0.21006 0.18024 0.87590
 H1619 H 0.21815 0.20591 0.84184
 H1620 H 0.25149 0.14643 0.80247
 C1621 C 0.71905 0.61367 0.44205
 C1622 C 0.73194 0.60834 0.42015
 C1623 C 0.74528 0.58612 0.41924
 C1624 C 0.74713 0.57105 0.44016
 C1625 C 0.73557 0.57753 0.46224
 C1626 C 0.72092 0.59856 0.46263
 C1627 C 0.75719 0.57933 0.39764
 C1628 C 0.75654 0.59427 0.37695
 C1629 C 0.74444 0.61710 0.37721
 C1630 C 0.73228 0.62441 0.39933
 C1631 C 0.72173 0.64798 0.40029
 C1632 C 0.72315 0.66395 0.38054
 C1633 C 0.73462 0.65701 0.35880
 C1634 C 0.74483 0.63328 0.35643
 C1635 C 0.75509 0.62693 0.33336
 C1636 C 0.75600 0.64382 0.31400
 C1637 C 0.74704 0.66760 0.31707
 C1638 C 0.73610 0.67392 0.33944
 H1639 H 0.70727 0.62935 0.44394
 H1640 H 0.75840 0.55475 0.43950
 H1641 H 0.71099 0.60355 0.47909
 H1642 H 0.76731 0.56229 0.39675
 H1643 H 0.76654 0.58775 0.36122
 H1644 H 0.71294 0.65510 0.41647
 H1645 H 0.71524 0.68204 0.38237
 H1646 H 0.76237 0.60902 0.32958
 H1647 H 0.76421 0.63842 0.29674
 H1648 H 0.72851 0.69211 0.34176
 C1649 C 0.73283 0.09486 0.08115
 C1650 C 0.74751 0.09709 0.10250
 C1651 C 0.76190 0.07664 0.10931
 C1652 C 0.76148 0.05514 0.09538
 C1653 C 0.74638 0.05271 0.07453
 C1654 C 0.73236 0.07317 0.06746
 C1655 C 0.77673 0.07755 0.13010
 C1656 C 0.77682 0.09793 0.14514
 C1657 C 0.76210 0.11848 0.13985
 C1658 C 0.74815 0.11860 0.11757
 C1659 C 0.73547 0.14021 0.11116
 C1660 C 0.73573 0.16068 0.12636
 C1661 C 0.74800 0.16024 0.14886
 C1662 C 0.76109 0.13899 0.15606
 C1663 C 0.77209 0.13886 0.17959
 C1664 C 0.77047 0.15903 0.19503
 C1665 C 0.75797 0.18016 0.18770
 C1666 C 0.74695 0.18079 0.16444
 H1667 H 0.72094 0.10929 0.07488
 H1668 H 0.77371 0.04045 0.10067
 H1669 H 0.71991 0.07231 0.05202
 H1670 H 0.78819 0.06211 0.13508
 H1671 H 0.78905 0.09711 0.16064
 H1672 H 0.72539 0.14203 0.09424
 H1673 H 0.72579 0.17687 0.12065
 H1674 H 0.78151 0.12322 0.18704
 H1675 H 0.77920 0.15804 0.21289
 H1676 H 0.73700 0.19699 0.15874
 C1677 C 0.27986 0.56420 0.59572
 C1678 C 0.26409 0.58467 0.59477
 C1679 C 0.24718 0.58600 0.57499
 C1680 C 0.24480 0.56634 0.55828
 C1681 C 0.25934 0.54532 0.56083
 C1682 C 0.27743 0.54499 0.57912
 C1683 C 0.23243 0.60669 0.57237
 C1684 C 0.23385 0.62597 0.58907
 C1685 C 0.24958 0.62499 0.60969
 C1686 C 0.26450 0.60369 0.61286
 C1687 C 0.27856 0.60154 0.63456
 C1688 C 0.27821 0.61952 0.65250
 C1689 C 0.26434 0.64067 0.64944
 C1690 C 0.25031 0.64413 0.62776
 C1691 C 0.23764 0.66664 0.62522
 C1692 C 0.23826 0.68436 0.64383
 C1693 C 0.25117 0.68013 0.66567
 C1694 C 0.26434 0.65831 0.66819
 H1695 H 0.29440 0.56246 0.60899
 H1696 H 0.23103 0.56702 0.54393
 H1697 H 0.28965 0.52948 0.58085
 H1698 H 0.21955 0.60798 0.55725
 H1699 H 0.22161 0.64108 0.58582
 H1700 H 0.28939 0.58563 0.63877
 H1701 H 0.28895 0.61679 0.66905
 H1702 H 0.22732 0.67124 0.60898
 H1703 H 0.22817 0.70124 0.64132
 H1704 H 0.27487 0.65511 0.68480
 C1705 C 0.70321 0.94252 0.90959
 C1706 C 0.71755 0.92119 0.91280
 C1707 C 0.73299 0.91999 0.93374
 C1708 C 0.73561 0.94036 0.94929
 C1709 C 0.72304 0.96214 0.94428
 C1710 C 0.70613 0.96266 0.92497
 C1711 C 0.74648 0.89886 0.93847
 C1712 C 0.74581 0.87915 0.92236
 C1713 C 0.73201 0.88005 0.90041
 C1714 C 0.71767 0.90146 0.89556
 C1715 C 0.70497 0.90308 0.87301
 C1716 C 0.70671 0.88485 0.85548
 C1717 C 0.72069 0.86402 0.85982
 C1718 C 0.73290 0.86078 0.88259
 C1719 C 0.74580 0.83853 0.88625
 C1720 C 0.74731 0.82097 0.86761
 C1721 C 0.73631 0.82516 0.84479
 C1722 C 0.72275 0.84653 0.84119
 H1723 H 0.68981 0.94447 0.89520
 H1724 H 0.74853 0.93976 0.96443
 H1725 H 0.69559 0.97905 0.92132
 H1726 H 0.75808 0.89771 0.95461
 H1727 H 0.75719 0.86380 0.92718
 H1728 H 0.69422 0.91873 0.86778
 H1729 H 0.69719 0.88724 0.83815
 H1730 H 0.75483 0.83408 0.90327
 H1731 H 0.75760 0.80433 0.87086
 H1732 H 0.71364 0.84954 0.82371
 C1733 C 0.21773 0.43811 0.38993
 C1734 C 0.22893 0.41549 0.39591
 C1735 C 0.24149 0.41390 0.41868
 C1736 C 0.24421 0.43469 0.43371
 C1737 C 0.23464 0.45737 0.42644
 C1738 C 0.22072 0.45862 0.40487
 C1739 C 0.25199 0.39179 0.42595
 C1740 C 0.25101 0.37131 0.41083
 C1741 C 0.23982 0.37223 0.38743
 C1742 C 0.22861 0.39472 0.37986
 C1743 C 0.21834 0.39604 0.35608
 C1744 C 0.21939 0.37640 0.34003
 C1745 C 0.23032 0.35447 0.34703
 C1746 C 0.24017 0.35170 0.37098
 C1747 C 0.25022 0.32856 0.37720
 C1748 C 0.25116 0.30950 0.36003
 C1749 C 0.24234 0.31288 0.33611
 C1750 C 0.23167 0.33535 0.32991
 H1751 H 0.20676 0.44075 0.37371
 H1752 H 0.25492 0.43350 0.45046
 H1753 H 0.21251 0.47577 0.39922
 H1754 H 0.26142 0.39038 0.44343
 H1755 H 0.25994 0.35517 0.41777
 H1756 H 0.20993 0.41233 0.34886
 H1757 H 0.21170 0.37851 0.32178
 H1758 H 0.25749 0.32452 0.39514
 H1759 H 0.25931 0.29222 0.36534
 H1760 H 0.22432 0.33801 0.31158
 C1761 C 0.21605 0.90054 0.05827
 C1762 C 0.22930 0.90389 0.08036
 C1763 C 0.24295 0.92587 0.08309
 C1764 C 0.24517 0.94239 0.06340
 C1765 C 0.23394 0.93732 0.04087
 C1766 C 0.21854 0.91691 0.03886
 C1767 C 0.25512 0.93074 0.10505
 C1768 C 0.25478 0.91392 0.12419
 C1769 C 0.24275 0.89112 0.12183
 C1770 C 0.23000 0.88593 0.09944
 C1771 C 0.21949 0.86249 0.09629
 C1772 C 0.22159 0.84458 0.11418
 C1773 C 0.23372 0.84939 0.13616
 C1774 C 0.24385 0.87290 0.14070
 C1775 C 0.25480 0.87706 0.16392
 C1776 C 0.25631 0.85840 0.18136
 C1777 C 0.24723 0.83499 0.17620
 C1778 C 0.23582 0.83065 0.15363
 H1779 H 0.20386 0.88532 0.05522
 H1780 H 0.25681 0.95841 0.06513
 H1781 H 0.20898 0.91317 0.02180
 H1782 H 0.26537 0.94760 0.10736
 H1783 H 0.26510 0.91899 0.14027
 H1784 H 0.21028 0.85696 0.07969
 H1785 H 0.21371 0.82668 0.11070
 H1786 H 0.26210 0.89456 0.16938
 H1787 H 0.26491 0.86224 0.19889
 H1788 H 0.22820 0.81270 0.14980
 C1789 C 0.78327 0.40650 0.56534
 C1790 C 0.76717 0.40650 0.58565
 C1791 C 0.74949 0.42546 0.58695
 C1792 C 0.74680 0.44231 0.56743
 C1793 C 0.76191 0.44087 0.54661
 C1794 C 0.78064 0.42333 0.54632
 C1795 C 0.73439 0.42722 0.60756
 C1796 C 0.73634 0.41054 0.62684
 C1797 C 0.75298 0.39076 0.62592
 C1798 C 0.76810 0.38834 0.60460
 C1799 C 0.78295 0.36731 0.60239
 C1800 C 0.78330 0.34939 0.62043
 C1801 C 0.76939 0.35185 0.64171
 C1802 C 0.75447 0.37282 0.64516
 C1803 C 0.74175 0.37483 0.66777
 C1804 C 0.74320 0.35638 0.68561
 C1805 C 0.75706 0.33523 0.68145
 C1806 C 0.77023 0.33323 0.65949
 H1807 H 0.79835 0.39391 0.56369
 H1808 H 0.73250 0.45602 0.56815
 H1809 H 0.79336 0.42248 0.53108
 H1810 H 0.72089 0.44169 0.60882
 H1811 H 0.72384 0.41311 0.64192
 H1812 H 0.79389 0.36361 0.58638
 H1813 H 0.79467 0.33337 0.61767
 H1814 H 0.73077 0.39054 0.67234
 H1815 H 0.73298 0.35845 0.70252
 H1816 H 0.78137 0.31712 0.65629
 C1817 C 0.08652 0.07108 0.73100
 C1818 C 0.08950 0.09186 0.74636
 C1819 C 0.07064 0.09687 0.76349
 C1820 C 0.05006 0.08161 0.76520
 C1821 C 0.04684 0.06171 0.74924
 C1822 C 0.06547 0.05639 0.73238
 C1823 C 0.07205 0.11741 0.77859
 C1824 C 0.09122 0.13392 0.77632
 C1825 C 0.11018 0.13023 0.75913
 C1826 C 0.11006 0.10819 0.74491
 C1827 C 0.13057 0.10319 0.72995
 C1828 C 0.15016 0.11947 0.72840
 C1829 C 0.14975 0.14175 0.74093
 C1830 C 0.12949 0.14770 0.75604
 C1831 C 0.12910 0.17121 0.76698
 C1832 C 0.14835 0.18769 0.76363
 C1833 C 0.16879 0.18133 0.74954
 C1834 C 0.16941 0.15826 0.73826
 H1835 H 0.09966 0.06624 0.71708
 H1836 H 0.03608 0.08565 0.77874
 H1837 H 0.06343 0.04132 0.71962
 H1838 H 0.05784 0.12109 0.79198
 H1839 H 0.09095 0.14922 0.78879
 H1840 H 0.13229 0.08648 0.71961
 H1841 H 0.16563 0.11474 0.71687
 H1842 H 0.11388 0.17772 0.77772
 H1843 H 0.14735 0.20545 0.77241
 H1844 H 0.18500 0.15336 0.72695
 C1845 C 0.58224 0.56626 0.23022
 C1846 C 0.58565 0.58726 0.24519
 C1847 C 0.56609 0.59404 0.26089
 C1848 C 0.54435 0.58041 0.26145
 C1849 C 0.54104 0.56004 0.24622
 C1850 C 0.56027 0.55292 0.23080
 C1851 C 0.56812 0.61453 0.27594
 C1852 C 0.58876 0.62925 0.27511
 C1853 C 0.60845 0.62397 0.25919
 C1854 C 0.60743 0.60203 0.24486
 C1855 C 0.62820 0.59566 0.23080
 C1856 C 0.64888 0.61061 0.23006
 C1857 C 0.64949 0.63282 0.24271
 C1858 C 0.62915 0.63993 0.25724
 C1859 C 0.63001 0.66319 0.26862
 C1860 C 0.65014 0.67856 0.26570
 C1861 C 0.67034 0.67140 0.25166
 C1862 C 0.67010 0.64829 0.24045
 H1863 H 0.59593 0.55998 0.21748
 H1864 H 0.52980 0.58577 0.27389
 H1865 H 0.55815 0.53729 0.21875
 H1866 H 0.55338 0.61947 0.28831
 H1867 H 0.58883 0.64453 0.28758
 H1868 H 0.62917 0.57898 0.22031
 H1869 H 0.66438 0.60496 0.21901
 H1870 H 0.61510 0.67055 0.27921
 H1871 H 0.64977 0.69634 0.27444
 H1872 H 0.68552 0.64274 0.22923
 C1873 C 0.06074 0.90581 0.22840
 C1874 C 0.08108 0.90404 0.24454
 C1875 C 0.08559 0.92405 0.26053
 C1876 C 0.07082 0.94496 0.25976
 C1877 C 0.05177 0.94703 0.24268
 C1878 C 0.04641 0.92704 0.22749
 C1879 C 0.10532 0.92355 0.27674
 C1880 C 0.12185 0.90438 0.27635
 C1881 C 0.11918 0.88475 0.25972
 C1882 C 0.09767 0.88371 0.24473
 C1883 C 0.09372 0.86255 0.23032
 C1884 C 0.11077 0.84362 0.22970
 C1885 C 0.13278 0.84535 0.24268
 C1886 C 0.13740 0.86613 0.25763
 C1887 C 0.16056 0.86799 0.26911
 C1888 C 0.17815 0.84989 0.26614
 C1889 C 0.17339 0.82911 0.25189
 C1890 C 0.15050 0.82673 0.24040
 H1891 H 0.05606 0.89159 0.21552
 H1892 H 0.07476 0.96018 0.27195
 H1893 H 0.03178 0.92824 0.21408
 H1894 H 0.10843 0.93851 0.28946
 H1895 H 0.13650 0.90538 0.28959
 H1896 H 0.07740 0.85995 0.21947
 H1897 H 0.10698 0.82775 0.21836
 H1898 H 0.16609 0.88364 0.27982
 H1899 H 0.19570 0.85219 0.27520
 H1900 H 0.14682 0.81084 0.22905
 C1901 C 0.57499 0.41160 0.71930
 C1902 C 0.59353 0.40852 0.73731
 C1903 C 0.59737 0.42797 0.75416
 C1904 C 0.58355 0.44947 0.75265
 C1905 C 0.56589 0.45249 0.73430
 C1906 C 0.56142 0.43326 0.71791
 C1907 C 0.61522 0.42611 0.77232
 C1908 C 0.63043 0.40591 0.77343
 C1909 C 0.62838 0.38662 0.75631
 C1910 C 0.60883 0.38727 0.73879
 C1911 C 0.60545 0.36679 0.72330
 C1912 C 0.62130 0.34689 0.72408
 C1913 C 0.64149 0.34681 0.73983
 C1914 C 0.64536 0.36676 0.75610
 C1915 C 0.66670 0.36651 0.77083
 C1916 C 0.68343 0.34746 0.76931
 C1917 C 0.67954 0.32780 0.75333
 C1918 C 0.65827 0.32726 0.73893
 H1919 H 0.57094 0.39794 0.70562
 H1920 H 0.58673 0.46412 0.76573
 H1921 H 0.54783 0.43524 0.70353
 H1922 H 0.61779 0.44067 0.78560
 H1923 H 0.64355 0.40594 0.78821
 H1924 H 0.59054 0.36549 0.71039
 H1925 H 0.61808 0.33166 0.71173
 H1926 H 0.67162 0.38117 0.78310
 H1927 H 0.69973 0.34824 0.78068
 H1928 H 0.65534 0.31219 0.72630
 C1929 C 0.88739 0.05868 0.26351
 C1930 C 0.89289 0.08215 0.25388
 C1931 C 0.91464 0.08469 0.23985
 C1932 C 0.92940 0.06421 0.23477
 C1933 C 0.92273 0.04093 0.24326
 C1934 C 0.90199 0.03852 0.25813
 C1935 C 0.92122 0.10751 0.23042
 C1936 C 0.90638 0.12785 0.23395
 C1937 C 0.88406 0.12616 0.24696
 C1938 C 0.87731 0.10295 0.25726
 C1939 C 0.85485 0.10109 0.26997
 C1940 C 0.83921 0.12089 0.27207
 C1941 C 0.84527 0.14345 0.26185
 C1942 C 0.86792 0.14670 0.24953
 C1943 C 0.87315 0.17035 0.24004
 C1944 C 0.85624 0.18948 0.24210
 C1945 C 0.83359 0.18572 0.25356
 C1946 C 0.82845 0.16270 0.26366
 H1947 H 0.87180 0.05505 0.27503
 H1948 H 0.94554 0.06620 0.22333
 H1949 H 0.89685 0.02078 0.26543
 H1950 H 0.93793 0.10962 0.21986
 H1951 H 0.91277 0.14462 0.22576
 H1952 H 0.84840 0.08439 0.27821
 H1953 H 0.82197 0.11840 0.28165
 H1954 H 0.89003 0.17470 0.23079
 H1955 H 0.86073 0.20713 0.23419
 H1956 H 0.81113 0.15964 0.27292
 C1957 C 0.39523 0.55697 0.75832
 C1958 C 0.39732 0.57899 0.74480
 C1959 C 0.41837 0.58213 0.72984
 C1960 C 0.43524 0.56291 0.72686
 C1961 C 0.43159 0.54046 0.73878
 C1962 C 0.41202 0.53808 0.75522
 C1963 C 0.42205 0.60416 0.71742
 C1964 C 0.40517 0.62310 0.71923
 C1965 C 0.38339 0.62047 0.73300
 C1966 C 0.37914 0.59778 0.74547
 C1967 C 0.35641 0.59417 0.75731
 C1968 C 0.33855 0.61216 0.75734
 C1969 C 0.34272 0.63468 0.74609
 C1970 C 0.36534 0.63945 0.73417
 C1971 C 0.36891 0.66311 0.72409
 C1972 C 0.35063 0.68093 0.72552
 C1973 C 0.32811 0.67572 0.73668
 C1974 C 0.32429 0.65251 0.74686
 H1975 H 0.38083 0.55369 0.77144
 H1976 H 0.45057 0.56501 0.71437
 H1977 H 0.40938 0.52123 0.76539
 H1978 H 0.43814 0.60676 0.70604
 H1979 H 0.40932 0.63933 0.70878
 H1980 H 0.35143 0.57720 0.76607
 H1981 H 0.32126 0.60840 0.76640
 H1982 H 0.38578 0.66863 0.71543
 H1983 H 0.35411 0.69884 0.71772
 H1984 H 0.30708 0.64848 0.75597
 C1985 C 0.92729 0.89781 0.71899
 C1986 C 0.90954 0.89981 0.73778
 C1987 C 0.91099 0.92030 0.75369
 C1988 C 0.93121 0.93631 0.75254
 C1989 C 0.95002 0.93230 0.73549
 C1990 C 0.94722 0.91371 0.71804
 C1991 C 0.89281 0.92405 0.77128
 C1992 C 0.87346 0.90761 0.77382
 C1993 C 0.87207 0.88614 0.75944
 C1994 C 0.89080 0.88191 0.74157
 C1995 C 0.89105 0.85934 0.72899
 C1996 C 0.87350 0.84156 0.73343
 C1997 C 0.85458 0.84574 0.75002
 C1998 C 0.85310 0.86827 0.76286
 C1999 C 0.83255 0.87192 0.77837
 C2000 C 0.81454 0.85381 0.78102
 C2001 C 0.81677 0.83137 0.76887
 C2002 C 0.83692 0.82746 0.75354
 H2003 H 0.92646 0.88400 0.70488
 H2004 H 0.93307 0.95093 0.76588
 H2005 H 0.96112 0.91085 0.70413
 H2006 H 0.89366 0.93978 0.78339
 H2007 H 0.86042 0.91167 0.78808
 H2008 H 0.90527 0.85435 0.71624
 H2009 H 0.87469 0.82434 0.72362
 H2010 H 0.82949 0.88881 0.78809
 H2011 H 0.79883 0.85736 0.79262
 H2012 H 0.83836 0.81038 0.74350
 C2013 C 0.40689 0.41890 0.23976
 C2014 C 0.40317 0.40013 0.25742
 C2015 C 0.42201 0.39623 0.27494
 C2016 C 0.44337 0.41047 0.27467
 C2017 C 0.44710 0.42847 0.25671
 C2018 C 0.42852 0.43277 0.23946
 C2019 C 0.41968 0.37790 0.29257
 C2020 C 0.39960 0.36237 0.29256
 C2021 C 0.38075 0.36473 0.27496
 C2022 C 0.38186 0.38471 0.25795
 C2023 C 0.36167 0.38851 0.24215
 C2024 C 0.34159 0.37275 0.24221
 C2025 C 0.34110 0.35217 0.25741
 C2026 C 0.36081 0.34774 0.27385
 C2027 C 0.36022 0.32591 0.28785
 C2028 C 0.34100 0.30928 0.28551
 C2029 C 0.32149 0.31385 0.26949
 C2030 C 0.32135 0.33558 0.25580
 H2031 H 0.39378 0.42284 0.22550
 H2032 H 0.45738 0.40733 0.28846
 H2033 H 0.43098 0.44646 0.22528
 H2034 H 0.43382 0.37519 0.30632
 H2035 H 0.39923 0.34885 0.30696
 H2036 H 0.36069 0.40378 0.22966
 H2037 H 0.32655 0.37638 0.22971
 H2038 H 0.37477 0.32056 0.30010
 H2039 H 0.34151 0.29254 0.29621
 H2040 H 0.30645 0.33899 0.24306
   
