data_POSCAR
  _audit_creation_date              2014-09-24
  _audit_creation_method            'ToBaCCo'
  _symmetry_space_group_name_H-M    'P1'
  _symmetry_Int_Tables_number       1
  _symmetry_cell_setting            triclinic
  loop_
  _symmetry_equiv_pos_as_xyz
 x,y,z
_cell_length_a 52.0780
_cell_length_b 51.8221
_cell_length_c 51.9618
_cell_angle_alpha 88.542900
_cell_angle_beta 89.143700
_cell_angle_gamma 88.851100
loop_
  _atom_site_label
  _atom_site_type_symbol
  _atom_site_fract_x
  _atom_site_fract_y
  _atom_site_fract_z
Si1 Si 0.75640 0.62019 0.99604
 Si2 Si 0.74730 0.37980 0.50231
 Si3 Si 0.24745 -0.11997 0.00376
 Si4 Si 0.25629 0.12083 0.49696
 Si5 Si 0.11806 0.49699 0.25768
 Si6 Si -0.12214 0.00245 0.24845
 Si7 Si 0.37485 0.50231 0.75107
 Si8 Si 0.61611 0.99491 0.75302
 Si9 Si 0.00238 0.25119 -0.12042
 Si10 Si 0.50204 0.25546 0.11518
 Si11 Si 1.00243 0.75844 0.61816
 Si12 Si 0.50408 0.74847 0.37706
 C13 C 0.41844 -0.02453 0.27359
 H14 H 0.42045 -0.00577 0.28192
 C15 C 0.43190 -0.04594 0.28388
 H16 H 0.44446 -0.04366 0.30006
 C17 C 0.39856 -0.05085 0.24328
 H18 H 0.38498 -0.05293 0.22802
 C19 C 0.41163 -0.07268 0.25296
 H20 H 0.40826 -0.09137 0.24490
 N21 N 0.40207 -0.02736 0.25371
 C22 C 0.38710 0.04840 0.21801
 H23 H 0.36637 0.04746 0.21770
 C24 C 0.39935 0.07001 0.20763
 H25 H 0.38804 0.08579 0.19927
 C26 C 0.42713 0.02900 0.22944
 H27 H 0.43781 0.01291 0.23789
 C28 C 0.44021 0.05038 0.21923
 H29 H 0.46097 0.05080 0.21989
 Zn30 Zn 0.38132 0.00122 0.24286
 N31 N 0.40100 0.02862 0.22893
 C32 C 0.36577 0.03732 0.28008
 N33 N 0.36258 0.01281 0.27205
 C34 C 0.34758 -0.00408 0.28564
 C35 C 0.33486 0.00362 0.30816
 C36 C 0.35343 0.04577 0.30241
 C37 C 0.37085 -0.01477 0.19374
 C38 C 0.35633 -0.02247 0.17308
 C39 C 0.31793 -0.01713 0.19929
 C40 C 0.33323 -0.00947 0.21954
 N41 N 0.35922 -0.00879 0.21649
 H42 H 0.37831 0.05027 0.26955
 H43 H 0.34580 -0.02363 0.27914
 H44 H 0.32310 -0.00994 0.31901
 H45 H 0.35630 0.06525 0.30875
 H46 H 0.39152 -0.01374 0.19178
 H47 H 0.36581 -0.02748 0.15513
 H48 H 0.29728 -0.01795 0.20185
 H49 H 0.32433 -0.00416 0.23761
 C50 C 0.42609 0.07111 0.20839
 C51 C 0.42824 -0.07026 0.27358
 C52 C 0.32966 -0.02380 0.17591
 C53 C 0.33792 0.02878 0.31661
 C54 C 0.08879 1.02581 0.78134
 H55 H 0.08742 1.00691 0.79054
 C56 C 0.07555 1.04692 0.79180
 H57 H 0.06378 1.04428 0.80900
 C58 C 0.10692 1.05276 0.74857
 H59 H 0.11978 1.05520 0.73224
 C60 C 0.09402 1.07432 0.75837
 H61 H 0.09678 1.09316 0.74935
 N62 N 0.10422 1.02910 0.76018
 C63 C 0.11882 0.95352 0.72717
 H64 H 0.13955 0.95432 0.72601
 C65 C 0.10630 0.93225 0.71784
 H66 H 0.11738 0.91657 0.70948
 C67 C 0.07904 0.97315 0.73927
 H68 H 0.06856 0.98927 0.74741
 C69 C 0.06569 0.95214 0.73009
 H70 H 0.04491 0.95204 0.73127
 Zn71 Zn 0.12496 1.00091 0.74912
 N72 N 0.10517 0.97329 0.73783
 C73 C 0.14314 0.96509 0.78688
 N74 N 0.14519 0.98969 0.77736
 C75 C 0.16023 1.00708 0.78889
 C76 C 0.17413 0.99985 0.81084
 C77 C 0.15670 0.95710 0.80870
 C78 C 0.13296 1.01739 0.69863
 C79 C 0.14644 1.02516 0.67650
 C80 C 0.18602 1.01997 0.69997
 C81 C 0.17176 1.01223 0.72175
 N82 N 0.14567 1.01140 0.72073
 H83 H 0.13059 0.95175 0.77796
 H84 H 0.16112 1.02665 0.78123
 H85 H 0.18589 1.01382 0.82007
 H86 H 0.15476 0.93755 0.81628
 H87 H 0.11224 1.01622 0.69832
 H88 H 0.13611 1.03011 0.65905
 H89 H 0.20676 1.02084 0.70087
 H90 H 0.18152 1.00691 0.73935
 C91 C 0.07952 0.93152 0.71933
 C92 C 0.07843 1.07144 0.78033
 C93 C 0.17317 1.02656 0.67720
 C94 C 0.17223 0.97464 0.82084
 C95 C 0.58856 0.52270 0.27813
 H96 H 0.58695 0.50382 0.28732
 C97 C 0.57555 0.54396 0.28854
 H98 H 0.56374 0.54147 0.30573
 C99 C 0.60698 0.54940 0.24530
 H100 H 0.61983 0.55166 0.22895
 C101 C 0.59431 0.57110 0.25506
 H102 H 0.59726 0.58990 0.24601
 N103 N 0.60400 0.52578 0.25695
 C104 C 0.61660 0.44997 0.22389
 H105 H 0.63736 0.45005 0.22279
 C106 C 0.60334 0.42921 0.21447
 H107 H 0.61389 0.41317 0.20612
 C108 C 0.57746 0.47098 0.23582
 H109 H 0.56751 0.48747 0.24388
 C110 C 0.56340 0.45052 0.22656
 H111 H 0.54261 0.45117 0.22763
 Zn112 Zn 0.62414 0.49721 0.24584
 N113 N 0.60360 0.47019 0.23451
 C114 C 0.64179 0.46094 0.28358
 N115 N 0.64417 0.48551 0.27409
 C116 C 0.65946 0.50266 0.28563
 C117 C 0.67327 0.49523 0.30755
 C118 C 0.65527 0.45273 0.30541
 C119 C 0.63255 0.51370 0.19536
 C120 C 0.64625 0.52150 0.17337
 C121 C 0.68566 0.51540 0.19697
 C122 C 0.67118 0.50766 0.21860
 N123 N 0.64508 0.50732 0.21747
 H124 H 0.62906 0.44778 0.27463
 H125 H 0.66061 0.52222 0.27798
 H126 H 0.68523 0.50903 0.31679
 H127 H 0.65307 0.43321 0.31297
 H128 H 0.61182 0.51292 0.19495
 H129 H 0.63607 0.52684 0.15593
 H130 H 0.70640 0.51593 0.19799
 H131 H 0.68078 0.50201 0.23620
 C132 C 0.57653 0.42944 0.21584
 C133 C 0.57868 0.56842 0.27702
 C134 C 0.67301 0.52248 0.17422
 C135 C 0.67105 0.47005 0.31755
 C136 C 0.91795 0.47846 0.77528
 H137 H 0.91853 0.49725 0.78384
 C138 C 0.93191 0.45767 0.78612
 H139 H 0.94342 0.46044 0.80299
 C140 C 0.90118 0.45141 0.74371
 H141 H 0.88861 0.44877 0.72771
 C142 C 0.91482 0.43018 0.75391
 H143 H 0.91290 0.41140 0.74552
 N144 N 0.90290 0.47498 0.75450
 C145 C 0.88659 0.55026 0.71827
 H146 H 0.86598 0.54861 0.71692
 C147 C 0.89857 0.57232 0.70856
 H148 H 0.88719 0.58774 0.69966
 C149 C 0.92659 0.53217 0.73161
 H150 H 0.93738 0.51641 0.74052
 C151 C 0.93940 0.55401 0.72211
 H152 H 0.96005 0.55511 0.72380
 Zn153 Zn 0.88144 0.50267 0.74276
 N154 N 0.90059 0.53091 0.72981
 C155 C 0.86247 0.53801 0.77930
 N156 N 0.86098 0.51333 0.77116
 C157 C 0.84655 0.49557 0.78424
 C158 C 0.83280 0.50247 0.80644
 C159 C 0.84903 0.54568 0.80131
 C160 C 0.87379 0.48627 0.69315
 C161 C 0.86050 0.47787 0.67194
 C162 C 0.82093 0.48153 0.69663
 C163 C 0.83501 0.48990 0.71746
 N164 N 0.86101 0.49175 0.71544
 H165 H 0.87455 0.55168 0.76917
 H166 H 0.84612 0.47595 0.77767
 H167 H 0.82161 0.48819 0.81696
 H168 H 0.85061 0.56528 0.80781
 H169 H 0.89443 0.48820 0.69201
 H170 H 0.87090 0.47324 0.65438
 H171 H 0.80028 0.47979 0.69838
 H172 H 0.82518 0.49480 0.73518
 C173 C 0.92517 0.57430 0.71063
 C174 C 0.93011 0.43327 0.77544
 C175 C 0.83387 0.47535 0.67373
 C176 C 0.83419 0.52775 0.81508
 C177 C 0.27524 0.41713 -0.02196
 H178 H 0.28438 0.41790 -0.00345
 C179 C 0.28507 0.43131 -0.04303
 H180 H 0.30172 0.44318 -0.04074
 C181 C 0.24330 0.39960 -0.04809
 H182 H 0.22757 0.38663 -0.05029
 C183 C 0.25247 0.41344 -0.06957
 H184 H 0.24358 0.41126 -0.08809
 N185 N 0.25479 0.40156 -0.02488
 C186 C 0.22159 0.38404 0.05097
 H187 H 0.22095 0.36328 0.04945
 C188 C 0.21181 0.39581 0.07294
 H189 H 0.20356 0.38411 0.08842
 C190 C 0.23295 0.42466 0.03252
 H191 H 0.24102 0.43578 0.01661
 C192 C 0.22334 0.43727 0.05427
 H193 H 0.22410 0.45810 0.05515
 Zn194 Zn 0.24454 0.37963 0.00299
 N195 N 0.23212 0.39847 0.03145
 C196 C 0.28268 0.36097 0.03719
 N197 N 0.27367 0.35944 0.01283
 C198 C 0.28639 0.34526 -0.00521
 C199 C 0.30913 0.33186 0.00105
 C200 C 0.30525 0.34788 0.04422
 C201 C 0.19464 0.37148 -0.01193
 C202 C 0.17342 0.35806 -0.02003
 C203 C 0.19891 0.31857 -0.01789
 C204 C 0.21974 0.33278 -0.00976
 N205 N 0.21730 0.35882 -0.00732
 H206 H 0.27279 0.37286 0.05108
 H207 H 0.27911 0.34480 -0.02458
 H208 H 0.31935 0.32089 -0.01347
 H209 H 0.31243 0.34952 0.06357
 H210 H 0.19320 0.39215 -0.00957
 H211 H 0.15555 0.36838 -0.02398
 H212 H 0.20098 0.29791 -0.02016
 H213 H 0.23779 0.32305 -0.00558
 C214 C 0.21277 0.42263 0.07468
 C215 C 0.27369 0.42921 -0.06710
 C216 C 0.17561 0.33141 -0.02320
 C217 C 0.31868 0.33334 0.02598
 C218 C 0.78182 0.08111 1.01869
 H219 H 0.79108 0.07960 0.99999
 C220 C 0.79194 0.06754 1.03997
 H221 H 0.80895 0.05540 1.03767
 C222 C 0.74921 0.09988 1.04497
 H223 H 0.73309 0.11309 1.04712
 C224 C 0.75865 0.08666 1.06666
 H225 H 0.74957 0.08954 1.08529
 N226 N 0.76088 0.09699 1.02157
 C227 C 0.72808 0.11206 0.94577
 H228 H 0.72712 0.13291 0.94636
 C229 C 0.71860 0.09952 0.92460
 H230 H 0.71032 0.11072 0.90879
 C231 C 0.73976 0.07197 0.96584
 H232 H 0.74777 0.06138 0.98211
 C233 C 0.73043 0.05861 0.94495
 H234 H 0.73137 0.03770 0.94507
 Zn235 Zn 0.75006 0.11801 0.99323
 N236 N 0.73859 0.09825 0.96572
 C237 C 0.78803 0.13554 0.95785
 N238 N 0.77848 0.13790 0.98223
 C239 C 0.79012 0.15290 0.99956
 C240 C 0.81219 0.16647 0.99249
 C241 C 0.80999 0.14874 0.95003
 C242 C 0.69979 0.12666 1.00924
 C243 C 0.67805 0.14037 1.01755
 C244 C 0.70184 0.17984 1.01294
 C245 C 0.72324 0.16535 1.00467
 N246 N 0.72191 0.13919 1.00341
 H247 H 0.77903 0.12299 0.94456
 H248 H 0.78246 0.15400 1.01897
 H249 H 0.82151 0.17819 1.00642
 H250 H 0.81761 0.14651 0.93068
 H251 H 0.69923 0.10589 1.00779
 H252 H 0.66066 0.13015 1.02261
 H253 H 0.70306 0.20060 1.01434
 H254 H 0.74085 0.17497 0.99950
 C255 C 0.71980 0.07258 0.92415
 C256 C 0.78035 0.07057 1.06420
 C257 C 0.67913 0.16715 1.01960
 C258 C 0.82223 0.16425 0.96751
 C259 C 0.28182 0.58808 0.52227
 H260 H 0.29117 0.58631 0.50365
 C261 C 0.29151 0.57438 0.54367
 H262 H 0.30829 0.56188 0.54154
 C263 C 0.24933 0.60751 0.54823
 H264 H 0.23340 0.62099 0.55018
 C265 C 0.25837 0.59418 0.57003
 H266 H 0.24918 0.59727 0.58858
 N267 N 0.26112 0.60431 0.52492
 C268 C 0.22885 0.61879 0.44876
 H269 H 0.22810 0.63966 0.44901
 C270 C 0.21932 0.60600 0.42777
 H271 H 0.21122 0.61703 0.41174
 C272 C 0.24000 0.57891 0.46954
 H273 H 0.24781 0.56849 0.48600
 C274 C 0.23061 0.56530 0.44884
 H275 H 0.23132 0.54439 0.44931
 Zn276 Zn 0.25071 0.62517 0.49631
 N277 N 0.23913 0.60520 0.46898
 C278 C 0.28878 0.64247 0.46081
 N279 N 0.27935 0.64469 0.48524
 C280 C 0.29110 0.65958 0.50260
 C281 C 0.31311 0.67320 0.49549
 C282 C 0.31068 0.65575 0.45293
 C283 C 0.20042 0.63483 0.51190
 C284 C 0.17882 0.64907 0.51970
 C285 C 0.20337 0.68803 0.51467
 C286 C 0.22459 0.67302 0.50690
 N287 N 0.22281 0.64687 0.50607
 H288 H 0.27966 0.63003 0.44748
 H289 H 0.28350 0.66061 0.52205
 H290 H 0.32248 0.68487 0.50944
 H291 H 0.31815 0.65370 0.43350
 H292 H 0.19950 0.61405 0.51077
 H293 H 0.16118 0.63927 0.52466
 H294 H 0.20493 0.70879 0.51566
 H295 H 0.24240 0.68225 0.50170
 C296 C 0.22023 0.57904 0.42778
 C297 C 0.27977 0.57766 0.56779
 C298 C 0.18036 0.67587 0.52127
 C299 C 0.32298 0.67119 0.47043
 C300 C 0.77681 0.91516 0.47493
 H301 H 0.78540 0.91632 0.49368
 C302 C 0.78730 0.92883 0.45386
 H303 H 0.80390 0.94071 0.45639
 C304 C 0.74566 0.89706 0.44824
 H305 H 0.73001 0.88403 0.44587
 C306 C 0.75552 0.91038 0.42674
 H307 H 0.74721 0.90776 0.40802
 N308 N 0.75646 0.89953 0.47174
 C309 C 0.72158 0.88295 0.54701
 H310 H 0.72107 0.86217 0.54567
 C311 C 0.71134 0.89488 0.56868
 H312 H 0.70287 0.88328 0.58412
 C313 C 0.73317 0.92345 0.52844
 H314 H 0.74156 0.93444 0.51261
 C315 C 0.72310 0.93622 0.54990
 H316 H 0.72381 0.95706 0.55064
 Zn317 Zn 0.74562 0.87804 0.49970
 N318 N 0.73246 0.89723 0.52758
 C319 C 0.78304 0.86011 0.53504
 N320 N 0.77459 0.85817 0.51051
 C321 C 0.78779 0.84381 0.49295
 C322 C 0.81046 0.83064 0.49988
 C323 C 0.80552 0.84726 0.54274
 C324 C 0.69616 0.86921 0.48370
 C325 C 0.67521 0.85534 0.47564
 C326 C 0.70093 0.81611 0.47951
 C327 C 0.72147 0.83075 0.48758
 N328 N 0.71880 0.85686 0.48916
 H329 H 0.77278 0.87215 0.54855
 H330 H 0.78095 0.84303 0.47343
 H331 H 0.82107 0.81954 0.48574
 H332 H 0.81227 0.84924 0.56220
 H333 H 0.69452 0.88994 0.48543
 H334 H 0.65735 0.86540 0.47105
 H335 H 0.70319 0.79538 0.47797
 H336 H 0.73947 0.82127 0.49246
 C337 C 0.71219 0.92171 0.57022
 C338 C 0.77669 0.92616 0.42951
 C339 C 0.67766 0.82860 0.47338
 C340 C 0.81943 0.83254 0.52499
 C341 C -0.02691 0.27574 0.42107
 H342 H -0.00827 0.28446 0.42215
 C343 C -0.04791 0.28631 0.43454
 H344 H -0.04544 0.30311 0.44617
 C345 C -0.05339 0.24411 0.40350
 H346 H -0.05573 0.22821 0.39079
 C347 C -0.07481 0.25403 0.41662
 H348 H -0.09343 0.24553 0.41416
 N349 N -0.03002 0.25508 0.40584
 C350 C 0.04520 0.21952 0.39097
 H351 H 0.04375 0.21824 0.37029
 C352 C 0.06713 0.21007 0.40332
 H353 H 0.08266 0.20146 0.39216
 C354 C 0.02680 0.23256 0.43073
 H355 H 0.01099 0.24129 0.44128
 C356 C 0.04851 0.22331 0.44391
 H357 H 0.04946 0.22501 0.46461
 Zn358 Zn -0.00210 0.24373 0.38492
 N359 N 0.02577 0.23083 0.40466
 C360 C 0.03323 0.28073 0.36641
 N361 N 0.00871 0.27243 0.36450
 C362 C -0.00872 0.28546 0.34953
 C363 C -0.00162 0.30770 0.33558
 C364 C 0.04110 0.30278 0.35280
 C365 C -0.01823 0.19394 0.37705
 C366 C -0.02672 0.17285 0.36365
 C367 C -0.02274 0.19801 0.32402
 C368 C -0.01428 0.21872 0.33821
 N369 N -0.01261 0.21642 0.36430
 H370 H 0.04664 0.27064 0.37890
 H371 H -0.02823 0.27875 0.34875
 H372 H -0.01562 0.31812 0.32388
 H373 H 0.06059 0.30934 0.35464
 H374 H -0.01644 0.19260 0.39777
 H375 H -0.03158 0.15518 0.37404
 H376 H -0.02444 0.20002 0.30331
 H377 H -0.00927 0.23658 0.32840
 C378 C 0.06891 0.21215 0.42998
 C379 C -0.07211 0.27546 0.43207
 C380 C -0.02918 0.17496 0.33694
 C381 C 0.02352 0.31645 0.33735
 C382 C 1.02238 0.78084 0.08839
 H383 H 1.00368 0.79016 0.08676
 C384 C 1.04352 0.79113 0.07508
 H385 H 1.04110 0.80834 0.06303
 C386 C 1.04882 0.74792 0.10725
 H387 H 1.05106 0.73161 0.12041
 C388 C 1.07039 0.75755 0.09428
 H389 H 1.08904 0.74843 0.09732
 N390 N 1.02541 0.75969 0.10421
 C391 C 0.94983 0.72687 0.11853
 H392 H 0.95040 0.72582 0.13934
 C393 C 0.92876 0.71744 0.10578
 H394 H 0.91299 0.70911 0.11678
 C395 C 0.96987 0.73872 0.07877
 H396 H 0.98607 0.74679 0.06838
 C397 C 0.94907 0.72946 0.06521
 H398 H 0.94920 0.73051 0.04436
 Zn399 Zn 0.99715 0.74890 0.12493
 N400 N 0.96973 0.73744 0.10498
 C401 C 0.96170 0.78707 0.14202
 N402 N 0.98611 0.77752 0.14446
 C403 C 1.00345 0.78925 0.15939
 C404 C 0.99638 0.81143 0.17276
 C405 C 0.95386 0.80913 0.15504
 C406 C 1.01314 0.69832 0.13432
 C407 C 1.02085 0.67637 0.14843
 C408 C 1.01579 0.70052 0.18745
 C409 C 1.00811 0.72210 0.17256
 N410 N 1.00727 0.72068 0.14645
 H411 H 0.94839 0.77797 0.12955
 H412 H 1.02288 0.78157 0.16057
 H413 H 1.01032 0.82083 0.18441
 H414 H 0.93448 0.81674 0.15277
 H415 H 1.01198 0.69769 0.11357
 H416 H 1.02575 0.65873 0.13856
 H417 H 1.01671 0.70177 0.20819
 H418 H 1.00289 0.73990 0.18185
 C419 C 0.92833 0.71877 0.07891
 C420 C 1.06778 0.77950 0.07829
 C421 C 1.02230 0.67750 0.17520
 C422 C 0.97136 0.82147 0.17046
 C423 C 0.52194 0.28236 0.58950
 H424 H 0.50312 0.29137 0.58760
 C425 C 0.54306 0.29294 0.57640
 H426 H 0.54051 0.31005 0.56423
 C427 C 0.54864 0.24989 0.60874
 H428 H 0.55096 0.23362 0.62195
 C429 C 0.57020 0.25981 0.59600
 H430 H 0.58893 0.25094 0.59923
 N431 N 0.52509 0.26128 0.60539
 C432 C 0.44993 0.22734 0.61860
 H433 H 0.45025 0.22632 0.63942
 C434 C 0.42918 0.21757 0.60562
 H435 H 0.41342 0.20901 0.61643
 C436 C 0.47026 0.23946 0.57907
 H437 H 0.48647 0.24775 0.56888
 C438 C 0.44979 0.22986 0.56527
 H439 H 0.45015 0.23089 0.54442
 Zn440 Zn 0.49677 0.24996 0.62567
 N441 N 0.46981 0.23821 0.60529
 C442 C 0.46063 0.28768 0.64222
 N443 N 0.48503 0.27830 0.64523
 C444 C 0.50190 0.29011 0.66063
 C445 C 0.49435 0.31225 0.67385
 C446 C 0.45233 0.30970 0.65507
 C447 C 0.51328 0.19957 0.63464
 C448 C 0.52094 0.17747 0.64853
 C449 C 0.51501 0.20093 0.68788
 C450 C 0.50740 0.22270 0.67320
 N451 N 0.50699 0.22167 0.64704
 H452 H 0.44771 0.27853 0.62939
 H453 H 0.52134 0.28257 0.66226
 H454 H 0.50793 0.32173 0.68585
 H455 H 0.43297 0.31720 0.65231
 H456 H 0.51246 0.19925 0.61386
 H457 H 0.52612 0.16003 0.63845
 H458 H 0.51553 0.20184 0.70867
 H459 H 0.50184 0.24030 0.68269
 C460 C 0.42907 0.21886 0.57873
 C461 C 0.56744 0.28166 0.57991
 C462 C 0.52191 0.17817 0.67535
 C463 C 0.46935 0.32216 0.67090
 C464 C 0.47314 0.77590 0.92040
 H465 H 0.49179 0.78467 0.92107
 C466 C 0.45224 0.78684 0.93371
 H467 H 0.45480 0.80399 0.94481
 C468 C 0.44652 0.74380 0.90389
 H469 H 0.44409 0.72757 0.89161
 C470 C 0.42520 0.75407 0.91691
 H471 H 0.40655 0.74551 0.91480
 N472 N 0.46991 0.75484 0.90575
 C473 C 0.54500 0.71900 0.89090
 H474 H 0.54341 0.71745 0.87026
 C475 C 0.56695 0.70958 0.90324
 H476 H 0.58235 0.70071 0.89210
 C477 C 0.52689 0.73263 0.93059
 H478 H 0.51118 0.74156 0.94111
 C479 C 0.54863 0.72341 0.94375
 H480 H 0.54970 0.72533 0.96441
 Zn481 Zn 0.49767 0.74312 0.88485
 N482 N 0.52570 0.73056 0.90457
 C483 C 0.53284 0.77983 0.86539
 N484 N 0.50830 0.77149 0.86385
 C485 C 0.49074 0.78424 0.84882
 C486 C 0.49774 0.80620 0.83435
 C487 C 0.54061 0.80160 0.85126
 C488 C 0.48158 0.69313 0.87791
 C489 C 0.47337 0.67170 0.86484
 C490 C 0.47724 0.69623 0.82482
 C491 C 0.48542 0.71728 0.83868
 N492 N 0.48706 0.71544 0.86479
 H493 H 0.54635 0.76998 0.87795
 H494 H 0.47122 0.77753 0.84836
 H495 H 0.48365 0.81639 0.82257
 H496 H 0.56014 0.80819 0.85277
 H497 H 0.48336 0.69214 0.89863
 H498 H 0.46872 0.65412 0.87550
 H499 H 0.47563 0.69785 0.80408
 H500 H 0.49033 0.73502 0.82858
 C501 C 0.56889 0.71195 0.92985
 C502 C 0.42801 0.77592 0.93173
 C503 C 0.47104 0.67331 0.83810
 C504 C 0.52292 0.81494 0.83568
 C505 C 0.45877 -0.13637 0.30667
 C506 C 0.48543 -0.13983 0.31085
 C507 C 0.49487 -0.16291 0.32307
 C508 C 0.47758 -0.18238 0.33105
 C509 C 0.45095 -0.17910 0.32653
 C510 C 0.44152 -0.15603 0.31430
 C511 C 0.41480 -0.15317 0.31010
 C512 C 0.39791 -0.17251 0.31775
 C513 C 0.40714 -0.19505 0.32971
 C514 C 0.43332 -0.19841 0.33413
 C515 C 0.52158 -0.16588 0.32717
 C516 C 0.53850 -0.14660 0.31940
 C517 C 0.52928 -0.12404 0.30745
 C518 C 0.50306 -0.12058 0.30317
 C519 C 0.48694 -0.20531 0.34486
 C520 C 0.49420 -0.22407 0.35706
 C521 C 0.44893 -0.11254 0.29481
 C522 C 0.44001 -0.09303 0.28510
 H523 H 0.40668 -0.13600 0.30086
 H524 H 0.37754 -0.17000 0.31437
 H525 H 0.39394 -0.21005 0.33557
 H526 H 0.43956 -0.21630 0.34347
 H527 H 0.52966 -0.18310 0.33636
 H528 H 0.55888 -0.14918 0.32267
 H529 H 0.54251 -0.10912 0.30145
 H530 H 0.49679 -0.10271 0.29380
 C531 C 0.96219 0.36827 0.80917
 C532 C 0.95738 0.34414 0.79815
 C533 C 0.96596 0.32090 0.81069
 C534 C 0.97930 0.32193 0.83415
 C535 C 0.98471 0.34608 0.84483
 C536 C 0.97612 0.36932 0.83230
 C537 C 0.98157 0.39320 0.84343
 C538 C 0.99515 0.39411 0.86630
 C539 C 1.00356 0.37140 0.87855
 C540 C 0.99845 0.34760 0.86804
 C541 C 0.96075 0.29702 0.79943
 C542 C 0.94746 0.29610 0.77641
 C543 C 0.93908 0.31881 0.76413
 C544 C 0.94392 0.34260 0.77478
 C545 C 0.98682 0.29823 0.84777
 C546 C 0.99297 0.27897 0.85980
 C547 C 0.95185 0.39184 0.79725
 C548 C 0.94244 0.41102 0.78735
 H549 H 0.97547 0.41139 0.83458
 H550 H 0.99917 0.41255 0.87454
 H551 H 1.01409 0.37220 0.89631
 H552 H 1.00543 0.33048 0.87828
 H553 H 0.96692 0.27884 0.80826
 H554 H 0.94365 0.27766 0.76805
 H555 H 0.92877 0.31799 0.74624
 H556 H 0.93705 0.35973 0.76448
 C557 C 0.04877 1.13672 0.81333
 C558 C 0.02204 1.14082 0.81725
 C559 C 0.01282 1.16382 0.82888
 C560 C 0.03038 1.18259 0.83649
 C561 C 0.05710 1.17848 0.83266
 C562 C 0.06633 1.15551 0.82100
 C563 C 0.09315 1.15182 0.81743
 C564 C 0.11034 1.17023 0.82528
 C565 C 0.10131 1.19264 0.83676
 C566 C 0.07502 1.19684 0.84044
 C567 C -0.01396 1.16740 0.83280
 C568 C -0.03114 1.14879 0.82544
 C569 C -0.02213 1.12631 0.81405
 C570 C 0.00414 1.12227 0.80993
 C571 C 0.02108 1.20563 0.84920
 C572 C 0.01354 1.22436 0.86054
 C573 C 0.05833 1.11318 0.80160
 C574 C 0.06699 1.09392 0.79190
 H575 H 0.10113 1.13469 0.80863
 H576 H 0.13079 1.16706 0.82245
 H577 H 0.11474 1.20687 0.84287
 H578 H 0.06894 1.21459 0.84945
 H579 H -0.02189 1.18457 0.84159
 H580 H -0.05156 1.15182 0.82863
 H581 H -0.03556 1.11190 0.80838
 H582 H 0.01024 1.10448 0.80103
 C583 C 0.54936 0.63359 0.31051
 C584 C 0.52553 0.64493 0.30313
 C585 C 0.51643 0.66788 0.31496
 C586 C 0.53119 0.67933 0.33410
 C587 C 0.55505 0.66805 0.34143
 C588 C 0.56418 0.64514 0.32958
 C589 C 0.58811 0.63425 0.33724
 C590 C 0.60258 0.64563 0.35607
 C591 C 0.59362 0.66800 0.36769
 C592 C 0.57015 0.67915 0.36054
 C593 C 0.49255 0.67885 0.30729
 C594 C 0.47807 0.66747 0.28848
 C595 C 0.48696 0.64503 0.27692
 C596 C 0.51041 0.63380 0.28409
 C597 C 0.52170 0.70236 0.34677
 C598 C 0.51430 0.72114 0.35813
 C599 C 0.55884 0.61022 0.29842
 C600 C 0.56741 0.59099 0.28857
 H601 H 0.59590 0.61684 0.32881
 H602 H 0.62083 0.63703 0.36170
 H603 H 0.60489 0.67674 0.38235
 H604 H 0.56399 0.69652 0.37016
 H605 H 0.48486 0.69631 0.31573
 H606 H 0.45985 0.67611 0.28283
 H607 H 0.47563 0.63626 0.26232
 H608 H 0.51653 0.61634 0.27457
 C609 C 0.54136 0.36717 0.18603
 C610 C 0.54736 0.34224 0.19633
 C611 C 0.53851 0.32000 0.18397
 C612 C 0.52372 0.32284 0.16142
 C613 C 0.51686 0.34777 0.15170
 C614 C 0.52572 0.37001 0.16405
 C615 C 0.51885 0.39473 0.15383
 C616 C 0.50361 0.39740 0.13207
 C617 C 0.49492 0.37566 0.12000
 C618 C 0.50143 0.35108 0.12960
 C619 C 0.54495 0.29528 0.19446
 C620 C 0.55966 0.29260 0.21658
 C621 C 0.56833 0.31435 0.22867
 C622 C 0.56233 0.33893 0.21873
 C623 C 0.51648 0.30022 0.14753
 C624 C 0.51069 0.28187 0.13525
 C625 C 0.55258 0.38971 0.19711
 C626 C 0.56290 0.40809 0.20588
 H627 H 0.52509 0.41221 0.16260
 H628 H 0.49850 0.41646 0.12454
 H629 H 0.48307 0.37783 0.10311
 H630 H 0.49416 0.33476 0.11957
 H631 H 0.53860 0.27781 0.18575
 H632 H 0.56436 0.27355 0.22439
 H633 H 0.57975 0.31216 0.24585
 H634 H 0.56946 0.35525 0.22884
 C635 C 0.04694 0.86787 0.68938
 C636 C 0.06372 0.84683 0.68374
 C637 C 0.05419 0.82488 0.67142
 C638 C 0.02795 0.82407 0.66483
 C639 C 0.01106 0.84483 0.67098
 C640 C 0.02059 0.86681 0.68330
 C641 C 0.00339 0.88741 0.68909
 C642 C -0.02250 0.88634 0.68287
 C643 C -0.03182 0.86487 0.67080
 C644 C -0.01532 0.84430 0.66487
 C645 C 0.07137 0.80419 0.66575
 C646 C 0.09722 0.80515 0.67213
 C647 C 0.10654 0.82661 0.68419
 C648 C 0.09009 0.84726 0.68996
 C649 C 0.01870 0.80239 0.65071
 C650 C 0.01170 0.78459 0.63829
 C651 C 0.05715 0.89085 0.70059
 C652 C 0.06667 0.90965 0.70941
 H653 H 0.00976 0.90450 0.69849
 H654 H -0.03540 0.90227 0.68744
 H655 H -0.05194 0.86414 0.66601
 H656 H -0.02345 0.82799 0.65550
 H657 H 0.06504 0.78706 0.65641
 H658 H 0.11007 0.78914 0.66772
 H659 H 0.12664 0.82726 0.68910
 H660 H 0.09827 0.86350 0.69938
 C661 C 0.95627 0.64132 0.68230
 C662 C 0.93909 0.65971 0.67097
 C663 C 0.94859 0.68317 0.66016
 C664 C 0.97522 0.68810 0.66070
 C665 C 0.99234 0.66992 0.67237
 C666 C 0.98283 0.64645 0.68321
 C667 C 1.00032 0.62852 0.69468
 C668 C 1.02647 0.63363 0.69542
 C669 C 1.03576 0.65657 0.68482
 C670 C 1.01898 0.67458 0.67339
 C671 C 0.93105 0.70121 0.64886
 C672 C 0.90489 0.69623 0.64829
 C673 C 0.89559 0.67328 0.65881
 C674 C 0.91239 0.65516 0.67004
 C675 C 0.98496 0.71136 0.64824
 C676 C 0.99242 0.73046 0.63700
 C677 C 0.94648 0.61712 0.69273
 C678 C 0.93740 0.59733 0.70106
 H679 H 0.99398 0.61041 0.70318
 H680 H 1.03959 0.61971 0.70428
 H681 H 1.05609 0.66044 0.68546
 H682 H 1.02709 0.69216 0.66543
 H683 H 0.93733 0.71937 0.64045
 H684 H 0.89175 0.71028 0.63965
 H685 H 0.87524 0.66948 0.65830
 H686 H 0.90421 0.63761 0.67799
 C687 C 0.45712 0.13758 0.17870
 C688 C 0.43946 0.15668 0.16945
 C689 C 0.44860 0.18025 0.15857
 C690 C 0.47533 0.18462 0.15705
 C691 C 0.49299 0.16556 0.16630
 C692 C 0.48385 0.14197 0.17719
 C693 C 0.50185 0.12317 0.18623
 C694 C 0.52815 0.12751 0.18449
 C695 C 0.53709 0.15056 0.17378
 C696 C 0.51980 0.16944 0.16476
 C697 C 0.43061 0.19895 0.14922
 C698 C 0.40433 0.19450 0.15061
 C699 C 0.39537 0.17148 0.16131
 C700 C 0.41263 0.15273 0.17066
 C701 C 0.48458 0.20824 0.14492
 C702 C 0.49181 0.22755 0.13394
 C703 C 0.44760 0.11342 0.18949
 C704 C 0.43854 0.09378 0.19823
 H705 H 0.49579 0.10494 0.19468
 H706 H 0.54167 0.11291 0.19147
 H707 H 0.55754 0.15382 0.17244
 H708 H 0.52767 0.18705 0.15659
 H709 H 0.43661 0.21718 0.14074
 H710 H 0.39085 0.20900 0.14334
 H711 H 0.37493 0.16811 0.16236
 H712 H 0.40469 0.13514 0.17878
 C713 C 0.30491 0.46086 -0.13313
 C714 C 0.30007 0.44842 -0.15648
 C715 C 0.31209 0.45717 -0.17976
 C716 C 0.32884 0.47832 -0.17956
 C717 C 0.33311 0.49124 -0.15635
 C718 C 0.32113 0.48246 -0.13305
 C719 C 0.32586 0.49552 -0.11007
 C720 C 0.34190 0.51673 -0.11009
 C721 C 0.35356 0.52537 -0.13287
 C722 C 0.34933 0.51282 -0.15578
 C723 C 0.30714 0.44429 -0.20281
 C724 C 0.29073 0.42338 -0.20289
 C725 C 0.27895 0.41483 -0.18015
 C726 C 0.28350 0.42712 -0.15716
 C727 C 0.34256 0.48611 -0.20291
 C728 C 0.35474 0.49250 -0.22183
 C729 C 0.29385 0.45082 -0.10917
 C730 C 0.28469 0.44155 -0.08967
 H731 H 0.31717 0.48954 -0.09188
 H732 H 0.34526 0.52654 -0.09235
 H733 H 0.36592 0.54191 -0.13280
 H734 H 0.35880 0.52028 -0.17301
 H735 H 0.31581 0.45028 -0.22100
 H736 H 0.28713 0.41377 -0.22070
 H737 H 0.26622 0.39858 -0.18031
 H738 H 0.27386 0.41977 -0.13998
 C739 C 0.81049 0.95634 0.36406
 C740 C 0.82111 0.93864 0.34627
 C741 C 0.83296 0.94791 0.32311
 C742 C 0.83406 0.97480 0.31783
 C743 C 0.82355 0.99250 0.33564
 C744 C 0.81171 0.98324 0.35882
 C745 C 0.80143 1.00129 0.37637
 C746 C 0.80287 1.02775 0.37120
 C747 C 0.81449 1.03681 0.34855
 C748 C 0.82474 1.01947 0.33090
 C749 C 0.84367 0.92986 0.30574
 C750 C 0.84267 0.90342 0.31109
 C751 C 0.83101 0.89435 0.33370
 C752 C 0.82031 0.91166 0.35114
 C753 C 0.84692 0.98418 0.29457
 C754 C 0.85843 0.99166 0.27565
 C755 C 0.79843 0.94673 0.38771
 C756 C 0.78849 0.93791 0.40702
 H757 H 0.79224 0.99516 0.39425
 H758 H 0.79494 1.04130 0.38485
 H759 H 0.81559 1.05738 0.34464
 H760 H 0.83359 1.02744 0.31356
 H761 H 0.85293 0.93596 0.28789
 H762 H 0.85099 0.88991 0.29761
 H763 H 0.83026 0.87379 0.33776
 H764 H 0.81150 0.90364 0.36847
 C765 C 0.81150 0.04028 1.13052
 C766 C 0.80020 0.04772 1.15424
 C767 C 0.81180 0.03981 1.17782
 C768 C 0.83460 0.02450 1.17753
 C769 C 0.84550 0.01644 1.15385
 C770 C 0.83392 0.02438 1.13026
 C771 C 0.84526 0.01626 1.10683
 C772 C 0.86739 0.00069 1.10669
 C773 C 0.87871 -0.00710 1.12975
 C774 C 0.86799 0.00063 1.15311
 C775 C 0.80029 0.04763 1.20128
 C776 C 0.77791 0.06282 1.20145
 C777 C 0.76655 0.07056 1.17841
 C778 C 0.77748 0.06317 1.15502
 C779 C 0.84734 0.01762 1.20146
 C780 C 0.85876 0.01181 1.22081
 C781 C 0.80059 0.04989 1.10647
 C782 C 0.79146 0.05875 1.08689
 H783 H 0.83711 0.02179 1.08841
 H784 H 0.87580 -0.00537 1.08860
 H785 H 0.89589 -0.01921 1.12954
 H786 H 0.87749 -0.00597 1.17052
 H787 H 0.80841 0.04204 1.21969
 H788 H 0.76933 0.06860 1.21957
 H789 H 0.74915 0.08235 1.17864
 H790 H 0.76790 0.06964 1.13761
 C791 C 0.30979 0.54641 0.63425
 C792 C 0.30517 0.55999 0.65725
 C793 C 0.31642 0.55098 0.68064
 C794 C 0.33219 0.52842 0.68093
 C795 C 0.33636 0.51451 0.65807
 C796 C 0.32514 0.52355 0.63466
 C797 C 0.32973 0.50944 0.61203
 C798 C 0.34491 0.48697 0.61253
 C799 C 0.35583 0.47809 0.63542
 C800 C 0.35170 0.49164 0.65799
 C801 C 0.31168 0.56497 0.70332
 C802 C 0.29623 0.58724 0.70292
 C803 C 0.28521 0.59606 0.68006
 C804 C 0.28956 0.58268 0.65743
 C805 C 0.34491 0.52003 0.70445
 C806 C 0.35619 0.51308 0.72356
 C807 C 0.29924 0.55641 0.61019
 C808 C 0.29043 0.56556 0.59057
 H809 H 0.32161 0.51557 0.59378
 H810 H 0.34818 0.47638 0.59505
 H811 H 0.36753 0.46059 0.63572
 H812 H 0.36058 0.48394 0.67532
 H813 H 0.31980 0.55885 0.72158
 H814 H 0.29279 0.59770 0.72045
 H815 H 0.27322 0.61337 0.67985
 H816 H 0.28053 0.59030 0.64015
 C817 C 0.18973 0.54505 0.36521
 C818 C 0.18563 0.51818 0.36423
 C819 C 0.17329 0.50785 0.34265
 C820 C 0.16514 0.52448 0.32220
 C821 C 0.16977 0.55128 0.32290
 C822 C 0.18210 0.56160 0.34446
 C823 C 0.18634 0.58849 0.34479
 C824 C 0.17865 0.60470 0.32441
 C825 C 0.16661 0.59460 0.30332
 C826 C 0.16214 0.56823 0.30248
 C827 C 0.16921 0.48096 0.34219
 C828 C 0.17712 0.46470 0.36246
 C829 C 0.18919 0.47480 0.38355
 C830 C 0.19344 0.50122 0.38454
 C831 C 0.15096 0.51435 0.30097
 C832 C 0.13844 0.50676 0.28349
 C833 C 0.20110 0.55593 0.38777
 C834 C 0.21007 0.56587 0.40624
 H835 H 0.19567 0.59728 0.36075
 H836 H 0.18208 0.62521 0.32498
 H837 H 0.16072 0.60727 0.28751
 H838 H 0.15273 0.56131 0.28563
 H839 H 0.15993 0.47222 0.32616
 H840 H 0.17388 0.44417 0.36179
 H841 H 0.19530 0.46209 0.39924
 H842 H 0.20292 0.50819 0.40133
 C843 C 0.68918 0.03987 0.86097
 C844 C 0.68184 0.05691 0.84050
 C845 C 0.66926 0.04722 0.81878
 C846 C 0.66410 0.02056 0.81764
 C847 C 0.67201 0.00343 0.83778
 C848 C 0.68459 0.01312 0.85952
 C849 C 0.69214 -0.00433 0.87952
 C850 C 0.68741 -0.03063 0.87807
 C851 C 0.67511 -0.04010 0.85681
 C852 C 0.66744 -0.02335 0.83684
 C853 C 0.66192 0.06466 0.79865
 C854 C 0.66691 0.09090 0.79994
 C855 C 0.67919 0.10039 0.82118
 C856 C 0.68660 0.08369 0.84129
 C857 C 0.64960 0.01111 0.79631
 C858 C 0.63683 0.00403 0.77879
 C859 C 0.70065 0.05015 0.88377
 C860 C 0.70966 0.05971 0.90243
 H861 H 0.70179 0.00215 0.89642
 H862 H 0.69333 -0.04372 0.89352
 H863 H 0.67149 -0.06054 0.85577
 H864 H 0.65798 -0.03161 0.82067
 H865 H 0.65233 0.05823 0.78170
 H866 H 0.66123 0.10394 0.78434
 H867 H 0.68302 0.12080 0.82210
 H868 H 0.69614 0.09201 0.85738
 C869 C 0.68088 0.95187 0.63585
 C870 C 0.68533 0.97725 0.64397
 C871 C 0.67384 0.98608 0.66722
 C872 C 0.65794 0.96948 0.68218
 C873 C 0.65355 0.94407 0.67410
 C874 C 0.66508 0.93523 0.65091
 C875 C 0.66040 0.90972 0.64326
 C876 C 0.64472 0.89348 0.65806
 C877 C 0.63337 0.90217 0.68069
 C878 C 0.63768 0.92714 0.68871
 C879 C 0.67852 1.01153 0.67492
 C880 C 0.69412 1.02780 0.66007
 C881 C 0.70535 1.01917 0.63734
 C882 C 0.70108 0.99419 0.62929
 C883 C 0.64552 0.97858 0.70555
 C884 C 0.63444 0.98552 0.72475
 C885 C 0.69247 0.94267 0.61212
 C886 C 0.70170 0.93387 0.59273
 H887 H 0.66875 0.90205 0.62580
 H888 H 0.64133 0.87406 0.65191
 H889 H 0.62114 0.88952 0.69208
 H890 H 0.62840 0.93301 0.70644
 H891 H 0.67021 1.01909 0.69246
 H892 H 0.69750 1.04723 0.66624
 H893 H 0.71745 1.03190 0.62588
 H894 H 0.71021 0.98833 0.61147
 C895 C 0.18200 0.45294 0.14051
 C896 C 0.19105 0.47564 0.15163
 C897 C 0.17977 0.48458 0.17494
 C898 C 0.15948 0.47079 0.18694
 C899 C 0.15043 0.44808 0.17582
 C900 C 0.16176 0.43909 0.15259
 C901 C 0.15243 0.41627 0.14192
 C902 C 0.13244 0.40279 0.15381
 C903 C 0.12128 0.41165 0.17646
 C904 C 0.13008 0.43402 0.18741
 C905 C 0.18912 0.50730 0.18571
 C906 C 0.20907 0.52083 0.17378
 C907 C 0.22009 0.51210 0.15099
 C908 C 0.21127 0.48977 0.13995
 C909 C 0.14746 0.48005 0.21044
 C910 C 0.13653 0.48720 0.22965
 C911 C 0.19351 0.44354 0.11681
 C912 C 0.20257 0.43469 0.09737
 H913 H 0.16043 0.40861 0.12429
 H914 H 0.12555 0.38539 0.14537
 H915 H 0.10571 0.40116 0.18559
 H916 H 0.12072 0.44017 0.20499
 H917 H 0.18115 0.51482 0.20341
 H918 H 0.21600 0.53819 0.18226
 H919 H 0.23557 0.52269 0.14180
 H920 H 0.22043 0.48372 0.12221
 C921 C -0.13766 0.30858 0.46204
 C922 C -0.16076 0.30531 0.44852
 C923 C -0.18384 0.31768 0.45706
 C924 C -0.18372 0.33313 0.47912
 C925 C -0.16073 0.33610 0.49286
 C926 C -0.13762 0.32380 0.48429
 C927 C -0.11484 0.32722 0.49821
 C928 C -0.11488 0.34238 0.51999
 C929 C -0.13747 0.35442 0.52837
 C930 C -0.16019 0.35139 0.51505
 C931 C -0.20661 0.31442 0.44306
 C932 C -0.20660 0.29931 0.42126
 C933 C -0.18406 0.28713 0.41296
 C934 C -0.16135 0.29002 0.42635
 C935 C -0.20692 0.34694 0.48698
 C936 C -0.22574 0.35924 0.49326
 C937 C -0.11390 0.29688 0.45251
 C938 C -0.09455 0.28716 0.44374
 H939 H -0.09680 0.31822 0.49243
 H940 H -0.09728 0.34479 0.53041
 H941 H -0.13740 0.36616 0.54531
 H942 H -0.17727 0.36112 0.52234
 H943 H -0.22464 0.32348 0.44879
 H944 H -0.22419 0.29703 0.41078
 H945 H -0.18416 0.27537 0.39603
 H946 H -0.14432 0.28016 0.41912
 C947 C 0.36323 0.81107 0.96110
 C948 C 0.35133 0.83079 0.94582
 C949 C 0.32837 0.84313 0.95470
 C950 C 0.31733 0.83559 0.97874
 C951 C 0.32918 0.81585 0.99399
 C952 C 0.35222 0.80356 0.98516
 C953 C 0.36374 0.78391 1.00076
 C954 C 0.35282 0.77661 1.02442
 C955 C 0.33030 0.78862 1.03305
 C956 C 0.31853 0.80804 1.01809
 C957 C 0.31695 0.86293 0.93916
 C958 C 0.32780 0.87022 0.91548
 C959 C 0.35018 0.85807 0.90674
 C960 C 0.36191 0.83860 0.92166
 C961 C 0.29408 0.84859 0.98780
 C962 C 0.27508 0.86031 0.99468
 C963 C 0.38657 0.79838 0.95178
 C964 C 0.40569 0.78806 0.94318
 H965 H 0.38127 0.77403 0.99486
 H966 H 0.36188 0.76154 1.03613
 H967 H 0.32189 0.78287 1.05144
 H968 H 0.30103 0.81682 1.02559
 H969 H 0.29959 0.87302 0.94516
 H970 H 0.31879 0.88539 0.90387
 H971 H 0.35854 0.86379 0.88832
 H972 H 0.37933 0.82979 0.91404
 C973 C 1.13281 0.81298 0.04876
 C974 C 1.14371 0.80613 0.02469
 C975 C 1.16664 0.81799 0.01562
 C976 C 1.17851 0.83663 0.03066
 C977 C 1.16768 0.84341 0.05478
 C978 C 1.14479 0.83154 0.06386
 C979 C 1.13435 0.83866 0.08805
 C980 C 1.14617 0.85697 0.10280
 C981 C 1.16852 0.86861 0.09389
 C982 C 1.17922 0.86199 0.07018
 C983 C 1.17716 0.81086 -0.00850
 C984 C 1.16538 0.79251 -0.02325
 C985 C 1.14297 0.78092 -0.01439
 C986 C 1.13217 0.78758 0.00929
 C987 C 1.20148 0.84939 0.02120
 C988 C 1.22022 0.86086 0.01385
 C989 C 1.10946 0.80086 0.05821
 C990 C 1.09027 0.79102 0.06685
 H991 H 1.11697 0.83019 0.09581
 H992 H 1.13792 0.86218 0.12124
 H993 H 1.17760 0.88287 0.10540
 H994 H 1.19660 0.87161 0.06407
 H995 H 1.19457 0.81935 -0.01618
 H996 H 1.17370 0.78727 -0.04165
 H997 H 1.13390 0.76668 -0.02593
 H998 H 1.11472 0.77805 0.01537
 C999 C 0.63234 0.31500 0.54989
 C1000 C 0.64277 0.30800 0.52567
 C1001 C 0.66572 0.31955 0.51625
 C1002 C 0.67809 0.33801 0.53111
 C1003 C 0.66772 0.34495 0.55537
 C1004 C 0.64478 0.33342 0.56479
 C1005 C 0.63478 0.34070 0.58909
 C1006 C 0.64708 0.35885 0.60365
 C1007 C 0.66951 0.37012 0.59444
 C1008 C 0.67980 0.36333 0.57060
 C1009 C 0.67576 0.31229 0.49197
 C1010 C 0.66349 0.29413 0.47741
 C1011 C 0.64106 0.28283 0.48661
 C1012 C 0.63073 0.28961 0.51046
 C1013 C 0.70109 0.35042 0.52126
 C1014 C 0.71989 0.36147 0.51343
 C1015 C 0.60901 0.30310 0.55969
 C1016 C 0.58986 0.29331 0.56846
 H1017 H 0.61737 0.33249 0.59709
 H1018 H 0.63916 0.36419 0.62219
 H1019 H 0.67901 0.38419 0.60583
 H1020 H 0.69730 0.37264 0.56429
 H1021 H 0.69318 0.32053 0.48402
 H1022 H 0.67143 0.28879 0.45887
 H1023 H 0.63160 0.26874 0.47522
 H1024 H 0.61324 0.28032 0.51680
 C1025 C 0.36653 0.18802 0.54509
 C1026 C 0.36350 0.18680 0.51811
 C1027 C 0.34148 0.17503 0.50805
 C1028 C 0.32262 0.16465 0.52503
 C1029 C 0.32563 0.16587 0.55200
 C1030 C 0.34763 0.17761 0.56206
 C1031 C 0.35026 0.17848 0.58912
 C1032 C 0.33176 0.16795 0.60572
 C1033 C 0.31029 0.15639 0.59586
 C1034 C 0.30714 0.15534 0.56934
 C1035 C 0.33898 0.17375 0.48103
 C1036 C 0.35770 0.18386 0.46441
 C1037 C 0.37918 0.19544 0.47425
 C1038 C 0.38215 0.19696 0.50078
 C1039 C 0.30060 0.15177 0.51493
 C1040 C 0.28254 0.14022 0.50724
 C1041 C 0.38922 0.19947 0.55558
 C1042 C 0.40768 0.20857 0.56543
 H1043 H 0.36662 0.18723 0.59775
 H1044 H 0.33412 0.16874 0.62634
 H1045 H 0.29599 0.14820 0.60883
 H1046 H 0.29009 0.14616 0.56263
 H1047 H 0.32260 0.16492 0.47248
 H1048 H 0.35551 0.18269 0.44379
 H1049 H 0.39365 0.20328 0.46125
 H1050 H 0.39919 0.20611 0.50754
 C1051 C 0.86542 0.68860 0.04524
 C1052 C 0.86173 0.68915 0.01829
 C1053 C 0.83989 0.67731 0.00793
 C1054 C 0.82191 0.66501 0.02458
 C1055 C 0.82538 0.66482 0.05156
 C1056 C 0.84719 0.67665 0.06192
 C1057 C 0.85029 0.67609 0.08897
 C1058 C 0.83238 0.66419 0.10528
 C1059 C 0.81106 0.65261 0.09514
 C1060 C 0.80751 0.65284 0.06861
 C1061 C 0.83666 0.67794 -0.01907
 C1062 C 0.85449 0.68997 -0.03539
 C1063 C 0.87583 0.70156 -0.02526
 C1064 C 0.87951 0.70120 0.00126
 C1065 C 0.80033 0.65169 0.01410
 C1066 C 0.78257 0.63980 0.00622
 C1067 C 0.88811 0.69987 0.05594
 C1068 C 0.90668 0.70876 0.06579
 H1069 H 0.86654 0.68485 0.09781
 H1070 H 0.83506 0.66396 0.12590
 H1071 H 0.79717 0.64342 0.10788
 H1072 H 0.79059 0.64359 0.06168
 H1073 H 0.82034 0.66921 -0.02783
 H1074 H 0.85173 0.69029 -0.05600
 H1075 H 0.88962 0.71087 -0.03802
 H1076 H 0.89639 0.71048 0.00826
 C1077 C 0.63599 0.68500 0.96164
 C1078 C 0.65905 0.69776 0.95499
 C1079 C 0.68309 0.68673 0.96252
 C1080 C 0.68389 0.66305 0.97667
 C1081 C 0.66079 0.65082 0.98421
 C1082 C 0.63676 0.66182 0.97665
 C1083 C 0.61394 0.64912 0.98417
 C1084 C 0.61482 0.62621 0.99882
 C1085 C 0.63831 0.61546 1.00625
 C1086 C 0.66109 0.62751 0.99907
 C1087 C 0.70590 0.69967 0.95544
 C1088 C 0.70500 0.72290 0.94135
 C1089 C 0.68151 0.73371 0.93399
 C1090 C 0.65874 0.72136 0.94065
 C1091 C 0.70838 0.65068 0.98272
 C1092 C 0.72817 0.63939 0.98780
 C1093 C 0.61169 0.69490 0.95171
 C1094 C 0.59189 0.70281 0.94240
 H1095 H 0.59520 0.65679 0.97893
 H1096 H 0.59717 0.61677 1.00445
 H1097 H 0.63888 0.59770 1.01766
 H1098 H 0.67887 0.61840 1.00537
 H1099 H 0.72462 0.69203 0.96079
 H1100 H 0.72263 0.73258 0.93614
 H1101 H 0.68092 0.75177 0.92306
 H1102 H 0.64094 0.73055 0.93454
 C1103 C 0.13628 0.18578 0.46160
 C1104 C 0.15943 0.19694 0.45248
 C1105 C 0.18347 0.18600 0.46010
 C1106 C 0.18422 0.16402 0.47679
 C1107 C 0.16110 0.15346 0.48669
 C1108 C 0.13706 0.16438 0.47906
 C1109 C 0.11421 0.15334 0.48899
 C1110 C 0.11509 0.13214 0.50602
 C1111 C 0.13859 0.12146 0.51351
 C1112 C 0.16140 0.13190 0.50401
 C1113 C 0.20634 0.19729 0.45054
 C1114 C 0.20549 0.21883 0.43394
 C1115 C 0.18199 0.22954 0.42648
 C1116 C 0.15916 0.21879 0.43557
 C1117 C 0.20860 0.15154 0.48301
 C1118 C 0.22828 0.14015 0.48829
 C1119 C 0.11185 0.19540 0.45178
 C1120 C 0.09195 0.20314 0.44253
 H1121 H 0.09547 0.16103 0.48378
 H1122 H 0.09743 0.12396 0.51347
 H1123 H 0.13917 0.10501 0.52677
 H1124 H 0.17920 0.12293 0.51045
 H1125 H 0.22507 0.18966 0.45585
 H1126 H 0.22316 0.22725 0.42683
 H1127 H 0.18143 0.24628 0.41359
 H1128 H 0.14136 0.22786 0.42927
 C1129 C 0.54722 0.11189 0.71199
 C1130 C 0.54067 0.08811 0.70121
 C1131 C 0.55213 0.06471 0.71068
 C1132 C 0.57004 0.06523 0.73085
 C1133 C 0.57569 0.08887 0.74243
 C1134 C 0.56424 0.11228 0.73295
 C1135 C 0.57040 0.13572 0.74458
 C1136 C 0.58736 0.13600 0.76508
 C1137 C 0.59854 0.11310 0.77438
 C1138 C 0.59289 0.08975 0.76323
 C1139 C 0.54556 0.04120 0.69939
 C1140 C 0.52813 0.04083 0.67933
 C1141 C 0.51690 0.06372 0.67006
 C1142 C 0.52304 0.08715 0.68080
 C1143 C 0.58383 0.04179 0.73861
 C1144 C 0.59607 0.02267 0.74458
 C1145 C 0.53772 0.13592 0.70037
 C1146 C 0.53029 0.15548 0.68960
 H1147 H 0.56211 0.15401 0.73805
 H1148 H 0.59181 0.15409 0.77380
 H1149 H 0.61163 0.11342 0.79035
 H1150 H 0.60201 0.07243 0.77116
 H1151 H 0.55375 0.02289 0.70600
 H1152 H 0.52330 0.02268 0.67093
 H1153 H 0.50336 0.06333 0.65448
 H1154 H 0.51375 0.10443 0.67298
 C1155 C 1.04833 0.61217 0.21304
 C1156 C 1.04246 0.58803 0.20262
 C1157 C 1.05414 0.56503 0.21280
 C1158 C 1.07158 0.56632 0.23333
 C1159 C 1.07656 0.59032 0.24450
 C1160 C 1.06490 0.61333 0.23431
 C1161 C 1.07040 0.63714 0.24556
 C1162 C 1.08691 0.63818 0.26636
 C1163 C 1.09829 0.61567 0.27636
 C1164 C 1.09329 0.59196 0.26560
 C1165 C 1.04825 0.54115 0.20187
 C1166 C 1.03128 0.54003 0.18147
 C1167 C 1.01985 0.56252 0.17151
 C1168 C 1.02532 0.58630 0.18187
 C1169 C 1.08556 0.54327 0.24188
 C1170 C 1.09794 0.52444 0.24847
 C1171 C 1.03854 0.63579 0.20083
 C1172 C 1.03090 0.65507 0.18971
 H1173 H 1.06192 0.65514 0.23849
 H1174 H 1.09086 0.65655 0.27478
 H1175 H 1.11104 0.61658 0.29256
 H1176 H 1.10256 0.57497 0.27407
 H1177 H 1.05662 0.52312 0.20902
 H1178 H 1.02697 0.52160 0.17336
 H1179 H 1.00668 0.56155 0.15566
 H1180 H 1.01590 0.60326 0.17351
 C1181 C 0.94700 0.88865 0.20355
 C1182 C 0.94717 0.91173 0.18835
 C1183 C 0.93578 0.93471 0.19809
 C1184 C 0.92439 0.93447 0.22299
 C1185 C 0.92484 0.91159 0.23847
 C1186 C 0.93621 0.88860 0.22872
 C1187 C 0.93617 0.86588 0.24442
 C1188 C 0.92515 0.86587 0.26904
 C1189 C 0.91397 0.88834 0.27855
 C1190 C 0.91376 0.91100 0.26353
 C1191 C 0.93574 0.95744 0.18238
 C1192 C 0.94672 0.95748 0.15777
 C1193 C 0.95794 0.93504 0.14826
 C1194 C 0.95822 0.91237 0.16329
 C1195 C 0.91076 0.95726 0.23199
 C1196 C 0.89847 0.97577 0.23898
 C1197 C 0.95652 0.86471 0.19265
 C1198 C 0.96369 0.84491 0.18293
 H1199 H 0.94466 0.84794 0.23787
 H1200 H 0.92529 0.84832 0.28079
 H1201 H 0.90541 0.88823 0.29767
 H1202 H 0.90487 0.92800 0.27177
 H1203 H 0.92727 0.97539 0.18894
 H1204 H 0.94653 0.97503 0.14601
 H1205 H 0.96647 0.93517 0.12913
 H1206 H 0.96719 0.89541 0.15505
 C1207 C 0.44367 0.38925 0.70327
 C1208 C 0.43948 0.39108 0.73015
 C1209 C 0.42786 0.41377 0.74032
 C1210 C 0.42054 0.43448 0.72354
 C1211 C 0.42544 0.43297 0.69674
 C1212 C 0.43704 0.41029 0.68657
 C1213 C 0.44152 0.40914 0.65968
 C1214 C 0.43478 0.42982 0.64331
 C1215 C 0.42346 0.45202 0.65327
 C1216 C 0.41877 0.45367 0.67964
 C1217 C 0.42363 0.41508 0.76722
 C1218 C 0.43070 0.39455 0.78363
 C1219 C 0.44206 0.37236 0.77369
 C1220 C 0.44643 0.37053 0.74727
 C1221 C 0.40679 0.45678 0.73354
 C1222 C 0.39462 0.47513 0.74114
 C1223 C 0.45366 0.36539 0.69260
 C1224 C 0.46123 0.34560 0.68312
 H1225 H 0.45032 0.39232 0.65101
 H1226 H 0.43837 0.42863 0.62280
 H1227 H 0.41829 0.46805 0.64049
 H1228 H 0.40995 0.47136 0.68646
 H1229 H 0.41489 0.43196 0.77584
 H1230 H 0.42736 0.39587 0.80417
 H1231 H 0.44752 0.35647 0.78652
 H1232 H 0.45535 0.35290 0.74043
 C1233 C 0.44289 0.61044 0.80262
 C1234 C 0.43874 0.61024 0.77576
 C1235 C 0.42710 0.58863 0.76471
 C1236 C 0.41971 0.56738 0.78060
 C1237 C 0.42441 0.56732 0.80737
 C1238 C 0.43603 0.58891 0.81842
 C1239 C 0.44034 0.58849 0.84527
 C1240 C 0.43337 0.56734 0.86075
 C1241 C 0.42202 0.54621 0.84993
 C1242 C 0.41752 0.54610 0.82357
 C1243 C 0.42292 0.58894 0.73786
 C1244 C 0.43008 0.61000 0.72235
 C1245 C 0.44147 0.63113 0.73315
 C1246 C 0.44579 0.63136 0.75955
 C1247 C 0.40623 0.54608 0.76976
 C1248 C 0.39430 0.52847 0.76159
 C1249 C 0.45344 0.63302 0.81424
 C1250 C 0.46172 0.65157 0.82465
 H1251 H 0.44915 0.60444 0.85459
 H1252 H 0.43681 0.56735 0.88124
 H1253 H 0.41666 0.52982 0.86202
 H1254 H 0.40867 0.52919 0.81608
 H1255 H 0.41415 0.57293 0.72859
 H1256 H 0.42676 0.60992 0.70183
 H1257 H 0.44700 0.64743 0.72101
 H1258 H 0.45473 0.64821 0.76707
 C1259 C -0.05926 0.11326 0.30109
 C1260 C -0.05111 0.10551 0.27630
 C1261 C -0.06227 0.08374 0.26507
 C1262 C -0.08149 0.06987 0.27871
 C1263 C -0.08960 0.07757 0.30355
 C1264 C -0.07846 0.09933 0.31477
 C1265 C -0.08690 0.10667 0.33962
 C1266 C -0.10581 0.09291 0.35297
 C1267 C -0.11671 0.07163 0.34200
 C1268 C -0.10879 0.06396 0.31758
 C1269 C -0.05386 0.07635 0.24026
 C1270 C -0.03493 0.09010 0.22691
 C1271 C -0.02402 0.11139 0.23789
 C1272 C -0.03194 0.11910 0.26230
 C1273 C -0.09328 0.04785 0.26732
 C1274 C -0.10401 0.02960 0.25888
 C1275 C -0.04796 0.13546 0.31272
 C1276 C -0.03908 0.15366 0.32323
 H1277 H -0.07901 0.12307 0.34900
 H1278 H -0.11202 0.09879 0.37195
 H1279 H -0.13138 0.06099 0.35245
 H1280 H -0.11786 0.04726 0.30991
 H1281 H -0.06179 0.05991 0.23096
 H1282 H -0.02871 0.08419 0.20794
 H1283 H -0.00933 0.12200 0.22743
 H1284 H -0.02291 0.13579 0.27005
 C1285 C 0.04917 0.38291 0.30240
 C1286 C 0.06830 0.38137 0.28282
 C1287 C 0.08039 0.40417 0.27348
 C1288 C 0.07317 0.42838 0.28367
 C1289 C 0.05335 0.43004 0.30251
 C1290 C 0.04131 0.40723 0.31191
 C1291 C 0.02172 0.40933 0.33096
 C1292 C 0.01422 0.43329 0.34043
 C1293 C 0.02601 0.45560 0.33124
 C1294 C 0.04537 0.45411 0.31250
 C1295 C 0.09979 0.40209 0.25421
 C1296 C 0.10693 0.37821 0.24435
 C1297 C 0.09503 0.35592 0.25342
 C1298 C 0.07595 0.35737 0.27246
 C1299 C 0.08681 0.45136 0.27538
 C1300 C 0.09880 0.46999 0.26847
 C1301 C 0.03893 0.35941 0.31395
 C1302 C 0.03136 0.33981 0.32422
 H1303 H 0.01193 0.39252 0.33864
 H1304 H -0.00082 0.43456 0.35497
 H1305 H 0.02012 0.47416 0.33866
 H1306 H 0.05396 0.47198 0.30591
 H1307 H 0.10963 0.41886 0.24659
 H1308 H 0.12179 0.37698 0.22962
 H1309 H 0.10063 0.33741 0.24569
 H1310 H 0.06722 0.33950 0.27887
 C1311 C 0.54865 0.88036 0.79879
 C1312 C 0.57082 0.87848 0.78278
 C1313 C 0.58262 0.90127 0.77300
 C1314 C 0.57211 0.92579 0.77919
 C1315 C 0.54938 0.92765 0.79435
 C1316 C 0.53761 0.90486 0.80419
 C1317 C 0.51504 0.90719 0.81953
 C1318 C 0.50438 0.93136 0.82496
 C1319 C 0.51589 0.95364 0.81534
 C1320 C 0.53815 0.95193 0.80021
 C1321 C 0.60502 0.89891 0.75738
 C1322 C 0.61538 0.87474 0.75148
 C1323 C 0.60377 0.85246 0.76096
 C1324 C 0.58177 0.85419 0.77646
 C1325 C 0.58528 0.94898 0.77067
 C1326 C 0.59699 0.96776 0.76367
 C1327 C 0.53833 0.85723 0.81103
 C1328 C 0.53072 0.83795 0.82188
 H1329 H 0.50537 0.89039 0.82738
 H1330 H 0.48708 0.93280 0.83669
 H1331 H 0.50753 0.97237 0.81961
 H1332 H 0.54641 0.96979 0.79312
 H1333 H 0.61476 0.91567 0.74958
 H1334 H 0.63251 0.87330 0.73951
 H1335 H 0.61187 0.83372 0.75630
 H1336 H 0.57341 0.83631 0.78335
 C1337 C 0.70973 0.54913 0.10900
 C1338 C 0.73427 0.56036 0.10958
 C1339 C 0.74477 0.57218 0.08690
 C1340 C 0.73065 0.57266 0.06382
 C1341 C 0.70647 0.56073 0.06303
 C1342 C 0.69600 0.54889 0.08569
 C1343 C 0.67167 0.53728 0.08449
 C1344 C 0.65808 0.53744 0.06158
 C1345 C 0.66831 0.54908 0.03944
 C1346 C 0.69221 0.56064 0.04004
 C1347 C 0.76918 0.58360 0.08799
 C1348 C 0.78287 0.58328 0.11084
 C1349 C 0.77261 0.57170 0.13302
 C1350 C 0.74859 0.56035 0.13252
 C1351 C 0.74014 0.58682 0.04136
 C1352 C 0.74724 0.59943 0.02294
 C1353 C 0.69791 0.53908 0.13255
 C1354 C 0.68711 0.53125 0.15179
 H1355 H 0.66291 0.52794 0.10119
 H1356 H 0.63951 0.52847 0.06102
 H1357 H 0.65769 0.54916 0.02169
 H1358 H 0.69938 0.56942 0.02230
 H1359 H 0.77796 0.59280 0.07122
 H1360 H 0.80154 0.59205 0.11133
 H1361 H 0.78332 0.57151 0.15072
 H1362 H 0.74140 0.55153 0.15023
 C1363 C 0.20918 1.05236 0.61125
 C1364 C 0.19501 1.05222 0.58819
 C1365 C 0.20543 1.06346 0.56521
 C1366 C 0.22997 1.07468 0.56541
 C1367 C 0.24440 1.07429 0.58829
 C1368 C 0.23399 1.06305 0.61129
 C1369 C 0.24864 1.06310 0.63401
 C1370 C 0.27288 1.07403 0.63401
 C1371 C 0.28304 1.08510 0.61153
 C1372 C 0.26906 1.08527 0.58887
 C1373 C 0.19073 1.06352 0.54249
 C1374 C 0.16646 1.05272 0.54247
 C1375 C 0.15628 1.04165 0.56493
 C1376 C 0.17030 1.04135 0.58758
 C1377 C 0.23955 1.08815 0.54257
 C1378 C 0.24680 1.10032 0.52392
 C1379 C 0.19760 1.04268 0.63507
 C1380 C 0.18703 1.03511 0.65453
 H1381 H 0.24153 1.05471 0.65195
 H1382 H 0.28383 1.07392 0.65156
 H1383 H 0.30187 1.09359 0.61164
 H1384 H 0.27778 1.09406 0.57186
 H1385 H 0.19783 1.07188 0.52452
 H1386 H 0.15548 1.05294 0.52494
 H1387 H 0.13741 1.03327 0.56482
 H1388 H 0.16156 1.03250 0.60455
 C1389 C 0.20696 0.94918 0.88711
 C1390 C 0.19886 0.95896 0.91117
 C1391 C 0.20791 0.94710 0.93436
 C1392 C 0.22498 0.92554 0.93334
 C1393 C 0.23391 0.91645 0.90927
 C1394 C 0.22493 0.92836 0.88609
 C1395 C 0.23401 0.91885 0.86226
 C1396 C 0.25146 0.89813 0.86137
 C1397 C 0.26015 0.88640 0.88404
 C1398 C 0.25151 0.89534 0.90777
 C1399 C 0.19935 0.95701 0.95819
 C1400 C 0.18236 0.97810 0.95908
 C1401 C 0.17351 0.98971 0.93640
 C1402 C 0.18158 0.98032 0.91265
 C1403 C 0.23246 0.91193 0.95687
 C1404 C 0.23849 0.89982 0.97600
 C1405 C 0.19549 0.95928 0.86355
 C1406 C 0.18527 0.96677 0.84401
 H1407 H 0.22783 0.92738 0.84410
 H1408 H 0.25824 0.89113 0.84298
 H1409 H 0.27364 0.87026 0.88326
 H1410 H 0.25877 0.88556 0.92487
 H1411 H 0.20575 0.94864 0.97634
 H1412 H 0.17603 0.98547 0.97747
 H1413 H 0.16032 1.00610 0.93719
 H1414 H 0.17425 0.99003 0.89553
 C1415 C 0.70592 0.44488 0.38391
 C1416 C 0.70076 0.45741 0.40738
 C1417 C 0.71007 0.44642 0.43087
 C1418 C 0.72451 0.42300 0.43071
 C1419 C 0.73053 0.41100 0.40714
 C1420 C 0.72120 0.42197 0.38366
 C1421 C 0.72721 0.40946 0.36036
 C1422 C 0.74204 0.38677 0.36026
 C1423 C 0.75117 0.37604 0.38322
 C1424 C 0.74554 0.38792 0.40645
 C1425 C 0.70442 0.45910 0.45414
 C1426 C 0.69000 0.48204 0.45420
 C1427 C 0.68091 0.49282 0.43124
 C1428 C 0.68615 0.48072 0.40803
 C1429 C 0.73215 0.41049 0.45476
 C1430 C 0.73827 0.39907 0.47425
 C1431 C 0.69432 0.45464 0.36027
 C1432 C 0.68406 0.46205 0.34071
 H1433 H 0.72060 0.41711 0.34200
 H1434 H 0.74647 0.37748 0.34226
 H1435 H 0.76268 0.35841 0.38305
 H1436 H 0.75314 0.37885 0.42379
 H1437 H 0.71114 0.45147 0.47247
 H1438 H 0.68588 0.49151 0.47217
 H1439 H 0.66973 0.51065 0.43139
 H1440 H 0.67873 0.48986 0.39065
 C1441 C 0.79837 0.44703 0.61095
 C1442 C 0.81432 0.43982 0.58990
 C1443 C 0.80343 0.42840 0.56813
 C1444 C 0.77665 0.42432 0.56751
 C1445 C 0.76065 0.43182 0.58839
 C1446 C 0.77154 0.44325 0.61018
 C1447 C 0.75521 0.45044 0.63090
 C1448 C 0.72885 0.44640 0.63013
 C1449 C 0.71820 0.43517 0.60884
 C1450 C 0.73383 0.42793 0.58815
 C1451 C 0.81979 0.42105 0.54745
 C1452 C 0.84616 0.42489 0.54825
 C1453 C 0.85682 0.43610 0.56952
 C1454 C 0.84119 0.44353 0.59014
 C1455 C 0.76591 0.41122 0.54595
 C1456 C 0.75782 0.39945 0.52823
 C1457 C 0.80982 0.45760 0.63361
 C1458 C 0.82023 0.46593 0.65213
 H1459 H 0.76262 0.45923 0.64786
 H1460 H 0.71662 0.45199 0.64616
 H1461 H 0.69772 0.43207 0.60835
 H1462 H 0.72468 0.41928 0.57200
 H1463 H 0.81242 0.41229 0.53045
 H1464 H 0.85838 0.41912 0.53228
 H1465 H 0.87732 0.43905 0.57005
 H1466 H 0.85041 0.45218 0.60624
 C1467 C 0.29071 -0.05038 0.11447
 C1468 C 0.27256 -0.07023 0.11768
 C1469 C 0.26254 -0.08214 0.09573
 C1470 C 0.27069 -0.07407 0.07074
 C1471 C 0.28789 -0.05340 0.06750
 C1472 C 0.29793 -0.04152 0.08944
 C1473 C 0.31536 -0.02110 0.08574
 C1474 C 0.32262 -0.01265 0.06106
 C1475 C 0.31279 -0.02429 0.03961
 C1476 C 0.29563 -0.04445 0.04268
 C1477 C 0.24473 -0.10222 0.09940
 C1478 C 0.23695 -0.11024 0.12405
 C1479 C 0.24671 -0.09855 0.14552
 C1480 C 0.26434 -0.07878 0.14248
 C1481 C 0.26251 -0.08796 0.04850
 C1482 C 0.25623 -0.10020 0.03032
 C1483 C 0.30329 -0.04034 0.13675
 C1484 C 0.31475 -0.03253 0.15487
 H1485 H 0.32347 -0.01139 0.10183
 H1486 H 0.33594 0.00302 0.05858
 H1487 H 0.31849 -0.01765 0.02048
 H1488 H 0.28844 -0.05287 0.02541
 H1489 H 0.23661 -0.11188 0.08330
 H1490 H 0.22330 -0.12563 0.12651
 H1491 H 0.24060 -0.10484 0.16463
 H1492 H 0.27137 -0.07022 0.15974
 C1493 C 0.30674 0.05617 0.38354
 C1494 C 0.32016 0.07607 0.39544
 C1495 C 0.30991 0.08739 0.41809
 C1496 C 0.28631 0.07877 0.42871
 C1497 C 0.27307 0.05865 0.41704
 C1498 C 0.28332 0.04730 0.39437
 C1499 C 0.26971 0.02729 0.38298
 C1500 C 0.24661 0.01872 0.39369
 C1501 C 0.23658 0.02982 0.41585
 C1502 C 0.24957 0.04958 0.42747
 C1503 C 0.32362 0.10734 0.42958
 C1504 C 0.34677 0.11585 0.41899
 C1505 C 0.35680 0.10477 0.39683
 C1506 C 0.34374 0.08512 0.38511
 C1507 C 0.27553 0.09113 0.45126
 C1508 C 0.26727 0.10230 0.46975
 C1509 C 0.31692 0.04534 0.35991
 C1510 C 0.32605 0.03723 0.34018
 H1511 H 0.27678 0.01806 0.36574
 H1512 H 0.23644 0.00338 0.38474
 H1513 H 0.21863 0.02309 0.42408
 H1514 H 0.24104 0.05761 0.44470
 H1515 H 0.31664 0.11657 0.44685
 H1516 H 0.35698 0.13110 0.42803
 H1517 H 0.37480 0.11144 0.38867
 H1518 H 0.35236 0.07712 0.36792
 C1519 C 0.80077 0.55215 0.88218
 C1520 C 0.77672 0.56536 0.88208
 C1521 C 0.76729 0.57715 0.90484
 C1522 C 0.78198 0.57562 0.92756
 C1523 C 0.80556 0.56156 0.92793
 C1524 C 0.81498 0.54977 0.90518
 C1525 C 0.83873 0.53601 0.90595
 C1526 C 0.85277 0.53398 0.92856
 C1527 C 0.84357 0.54555 0.95080
 C1528 C 0.82025 0.55921 0.95061
 C1529 C 0.74333 0.59052 0.90421
 C1530 C 0.72907 0.59217 0.88172
 C1531 C 0.73828 0.58063 0.85947
 C1532 C 0.76183 0.56736 0.85953
 C1533 C 0.77339 0.58941 0.95017
 C1534 C 0.76650 0.60137 0.96869
 C1535 C 0.81170 0.54247 0.85835
 C1536 C 0.82151 0.53527 0.83857
 H1537 H 0.84664 0.52662 0.88916
 H1538 H 0.87089 0.52337 0.92881
 H1539 H 0.85455 0.54393 0.96831
 H1540 H 0.81386 0.56783 0.96840
 H1541 H 0.73534 0.59976 0.92105
 H1542 H 0.71077 0.60245 0.88158
 H1543 H 0.72713 0.58195 0.84206
 H1544 H 0.76817 0.55864 0.84177
 C1545 C 0.11649 0.71414 0.54839
 C1546 C 0.09209 0.70581 0.54072
 C1547 C 0.06946 0.71594 0.55265
 C1548 C 0.07139 0.73434 0.57216
 C1549 C 0.09571 0.74353 0.57902
 C1550 C 0.11835 0.73339 0.56709
 C1551 C 0.14247 0.74264 0.57444
 C1552 C 0.14419 0.76145 0.59300
 C1553 C 0.12205 0.77140 0.60466
 C1554 C 0.09803 0.76258 0.59786
 C1555 C 0.04529 0.70712 0.54489
 C1556 C 0.04353 0.68882 0.52583
 C1557 C 0.06566 0.67891 0.51415
 C1558 C 0.08972 0.68721 0.52145
 C1559 C 0.04854 0.74277 0.58612
 C1560 C 0.02982 0.74929 0.59838
 C1561 C 0.13957 0.70175 0.53820
 C1562 C 0.15840 0.69048 0.53022
 H1563 H 0.16022 0.73553 0.56585
 H1564 H 0.16279 0.76837 0.59835
 H1565 H 0.12348 0.78605 0.61901
 H1566 H 0.08136 0.77093 0.60742
 H1567 H 0.02754 0.71431 0.55338
 H1568 H 0.02489 0.68232 0.52009
 H1569 H 0.06420 0.66472 0.49934
 H1570 H 0.10637 0.67898 0.51176
 C1571 C 0.61533 0.20321 1.04971
 C1572 C 0.60753 0.22872 1.04266
 C1573 C 0.58511 0.23989 1.05410
 C1574 C 0.57067 0.22548 1.07251
 C1575 C 0.57839 0.19991 1.07946
 C1576 C 0.60078 0.18875 1.06803
 C1577 C 0.60814 0.16317 1.07534
 C1578 C 0.59379 0.14905 1.09341
 C1579 C 0.57188 0.15997 1.10459
 C1580 C 0.56418 0.18508 1.09778
 C1581 C 0.57768 0.26541 1.04682
 C1582 C 0.59201 0.27953 1.02871
 C1583 C 0.61394 0.26861 1.01752
 C1584 C 0.62171 0.24349 1.02435
 C1585 C 0.54817 0.23688 1.08485
 C1586 C 0.52957 0.24525 1.09612
 C1587 C 0.63829 0.19168 1.03829
 C1588 C 0.65711 0.18111 1.02940
 H1589 H 0.62502 0.15379 1.06720
 H1590 H 0.59971 0.12952 1.09876
 H1591 H 0.56078 0.14891 1.11860
 H1592 H 0.54697 0.19267 1.10702
 H1593 H 0.56075 0.27470 1.05500
 H1594 H 0.58607 0.29904 1.02335
 H1595 H 0.62501 0.27966 1.00348
 H1596 H 0.63889 0.23581 1.01514
 C1597 C 0.88898 0.19777 0.94280
 C1598 C 0.90550 0.18297 0.92676
 C1599 C 0.92817 0.19403 0.91615
 C1600 C 0.93420 0.21983 0.92163
 C1601 C 0.91798 0.23445 0.93807
 C1602 C 0.89529 0.22338 0.94870
 C1603 C 0.87929 0.23840 0.96497
 C1604 C 0.88553 0.26365 0.97059
 C1605 C 0.90772 0.27447 0.96019
 C1606 C 0.92383 0.26013 0.94408
 C1607 C 0.94431 0.17890 0.90004
 C1608 C 0.93822 0.15358 0.89459
 C1609 C 0.91603 0.14277 0.90495
 C1610 C 0.89979 0.15719 0.92085
 C1611 C 0.95659 0.23140 0.90950
 C1612 C 0.97505 0.24011 0.89839
 C1613 C 0.86522 0.18674 0.95254
 C1614 C 0.84554 0.17691 0.95983
 H1615 H 0.86185 0.23079 0.97353
 H1616 H 0.87309 0.27488 0.98309
 H1617 H 0.91248 0.29409 0.96462
 H1618 H 0.94089 0.26934 0.93646
 H1619 H 0.96182 0.18640 0.89155
 H1620 H 0.95080 0.14228 0.88229
 H1621 H 0.91138 0.12309 0.90066
 H1622 H 0.88278 0.14789 0.92846
 C1623 C 0.38943 0.70550 0.44600
 C1624 C 0.41328 0.69308 0.45143
 C1625 C 0.43625 0.70259 0.43991
 C1626 C 0.43522 0.72447 0.42307
 C1627 C 0.41154 0.73758 0.41855
 C1628 C 0.38856 0.72805 0.43005
 C1629 C 0.36506 0.74129 0.42502
 C1630 C 0.36430 0.76336 0.40913
 C1631 C 0.38677 0.77269 0.39789
 C1632 C 0.41017 0.76000 0.40244
 C1633 C 0.45982 0.68966 0.44533
 C1634 C 0.46068 0.66798 0.46174
 C1635 C 0.43822 0.65869 0.47304
 C1636 C 0.41473 0.67101 0.46800
 C1637 C 0.45820 0.73263 0.40927
 C1638 C 0.47690 0.73909 0.39701
 C1639 C 0.36574 0.69416 0.45552
 C1640 C 0.34616 0.68406 0.46271
 H1641 H 0.34709 0.73480 0.43340
 H1642 H 0.34617 0.77329 0.40554
 H1643 H 0.38608 0.78988 0.38563
 H1644 H 0.42714 0.76802 0.39331
 H1645 H 0.47781 0.69622 0.43705
 H1646 H 0.47888 0.65834 0.46571
 H1647 H 0.43900 0.64185 0.48578
 H1648 H 0.39779 0.66311 0.47730
 C1649 C 0.61550 0.79144 0.44605
 C1650 C 0.59068 0.79958 0.45437
 C1651 C 0.56858 0.78989 0.44246
 C1652 C 0.57144 0.77214 0.42233
 C1653 C 0.59622 0.76321 0.41472
 C1654 C 0.61832 0.77286 0.42666
 C1655 C 0.64290 0.76382 0.41861
 C1656 C 0.64557 0.74577 0.39927
 C1657 C 0.62396 0.73639 0.38753
 C1658 C 0.59953 0.74494 0.39508
 C1659 C 0.54398 0.79853 0.45088
 C1660 C 0.54129 0.81624 0.47052
 C1661 C 0.56290 0.82572 0.48217
 C1662 C 0.58736 0.81756 0.47426
 C1663 C 0.54906 0.76402 0.40859
 C1664 C 0.53077 0.75765 0.39653
 C1665 C 0.63799 0.80344 0.45628
 C1666 C 0.65633 0.81437 0.46431
 H1667 H 0.66027 0.77053 0.42721
 H1668 H 0.66451 0.73905 0.39334
 H1669 H 0.62614 0.72242 0.37247
 H1670 H 0.58330 0.73709 0.38540
 H1671 H 0.52660 0.79166 0.44243
 H1672 H 0.52233 0.82264 0.47673
 H1673 H 0.56071 0.83947 0.49743
 H1674 H 0.60358 0.82542 0.48397
 C1675 C 0.11253 0.29616 -0.05100
 C1676 C 0.08859 0.30944 -0.04873
 C1677 C 0.06652 0.29962 -0.06057
 C1678 C 0.06850 0.27653 -0.07450
 C1679 C 0.09229 0.26293 -0.07628
 C1680 C 0.11438 0.27277 -0.06447
 C1681 C 0.13801 0.25899 -0.06671
 C1682 C 0.13978 0.23615 -0.08029
 C1683 C 0.11819 0.22656 -0.09191
 C1684 C 0.09466 0.23971 -0.08998
 C1685 C 0.04289 0.31345 -0.05843
 C1686 C 0.04111 0.33632 -0.04492
 C1687 C 0.06267 0.34588 -0.03326
 C1688 C 0.08618 0.33268 -0.03508
 C1689 C 0.04644 0.26758 -0.08817
 C1690 C 0.02844 0.26066 -0.10032
 C1691 C 0.13539 0.30738 -0.04065
 C1692 C 0.15401 0.31773 -0.03247
 H1693 H 0.15532 0.26569 -0.05798
 H1694 H 0.15800 0.22586 -0.08183
 H1695 H 0.11967 0.20883 -0.10246
 H1696 H 0.07841 0.23147 -0.09931
 H1697 H 0.02557 0.30677 -0.06715
 H1698 H 0.02290 0.34666 -0.04350
 H1699 H 0.06119 0.36363 -0.02275
 H1700 H 0.10239 0.34090 -0.02565
 C1701 C 0.38734 0.30102 0.04852
 C1702 C 0.40928 0.31676 0.04820
 C1703 C 0.43255 0.30730 0.05923
 C1704 C 0.43376 0.28213 0.07041
 C1705 C 0.41205 0.26612 0.07011
 C1706 C 0.38877 0.27559 0.05911
 C1707 C 0.36724 0.25936 0.05930
 C1708 C 0.36865 0.23447 0.07008
 C1709 C 0.39141 0.22522 0.08088
 C1710 C 0.41292 0.24077 0.08095
 C1711 C 0.45409 0.32354 0.05913
 C1712 C 0.45271 0.34841 0.04835
 C1713 C 0.43000 0.35764 0.03746
 C1714 C 0.40847 0.34209 0.03734
 C1715 C 0.45678 0.27325 0.08355
 C1716 C 0.47540 0.26606 0.09538
 C1717 C 0.36297 0.31161 0.03949
 C1718 C 0.34272 0.32108 0.03284
 H1719 H 0.34913 0.26569 0.05109
 H1720 H 0.35200 0.22231 0.07006
 H1721 H 0.39241 0.20588 0.08924
 H1722 H 0.43020 0.23270 0.08954
 H1723 H 0.47220 0.31720 0.06735
 H1724 H 0.46937 0.36058 0.04844
 H1725 H 0.42903 0.37697 0.02907
 H1726 H 0.39125 0.35013 0.02862
 C1727 C 0.88806 0.80162 0.54925
 C1728 C 0.90949 0.81801 0.54965
 C1729 C 0.93266 0.80917 0.56133
 C1730 C 0.93428 0.78400 0.57247
 C1731 C 0.91319 0.76727 0.57121
 C1732 C 0.89000 0.77612 0.55957
 C1733 C 0.86907 0.75917 0.55879
 C1734 C 0.87103 0.73414 0.56914
 C1735 C 0.89373 0.72547 0.58049
 C1736 C 0.91461 0.74177 0.58161
 C1737 C 0.95372 0.82600 0.56181
 C1738 C 0.95196 0.85084 0.55099
 C1739 C 0.92932 0.85947 0.53953
 C1740 C 0.90826 0.84334 0.53883
 C1741 C 0.95711 0.77576 0.58631
 C1742 C 0.97563 0.76895 0.59849
 C1743 C 0.86368 0.81158 0.53965
 C1744 C 0.84344 0.82065 0.53249
 H1745 H 0.85105 0.76503 0.55010
 H1746 H 0.85486 0.72140 0.56833
 H1747 H 0.89517 0.70599 0.58845
 H1748 H 0.93187 0.73414 0.59060
 H1749 H 0.97176 0.82012 0.57047
 H1750 H 0.96826 0.86344 0.55150
 H1751 H 0.92805 0.87878 0.53114
 H1752 H 0.89109 0.85092 0.52965
   
