data_POSCAR
  _audit_creation_date              2014-09-24
  _audit_creation_method            'ToBaCCo'
  _symmetry_space_group_name_H-M    'P1'
  _symmetry_Int_Tables_number       1
  _symmetry_cell_setting            triclinic
  loop_
  _symmetry_equiv_pos_as_xyz
 x,y,z
_cell_length_a 51.3438
_cell_length_b 50.1348
_cell_length_c 50.3185
_cell_angle_alpha 90.550100
_cell_angle_beta 89.898900
_cell_angle_gamma 88.855400
loop_
  _atom_site_label
  _atom_site_type_symbol
  _atom_site_fract_x
  _atom_site_fract_y
  _atom_site_fract_z
C1 C 0.19442 0.22682 0.22231
 C2 C 0.20846 0.23352 0.19950
 C3 C 0.22991 0.21816 0.19169
 C4 C 0.23749 0.19580 0.20657
 C5 C 0.22352 0.18913 0.22902
 C6 C 0.20188 0.20472 0.23695
 C7 C 0.17247 0.23774 0.23419
 N8 N 0.16665 0.22286 0.25570
 C9 C 0.18430 0.20248 0.25744
 C10 C 0.23472 0.16621 0.23905
 N11 N 0.25491 0.15870 0.22304
 C12 C 0.25699 0.17677 0.20329
 C13 C 0.23922 0.22887 0.16852
 N14 N 0.22374 0.25006 0.16208
 C15 C 0.20502 0.25326 0.18096
 H16 H 0.16133 0.25499 0.22757
 H17 H 0.18419 0.18713 0.27242
 H18 H 0.22855 0.15557 0.25652
 H19 H 0.27138 0.17585 0.18754
 H20 H 0.25566 0.22154 0.15689
 H21 H 0.18986 0.26857 0.18090
 C22 C 0.69021 0.71889 0.72025
 C23 C 0.70710 0.72762 0.70034
 C24 C 0.72912 0.71256 0.69377
 C25 C 0.73447 0.68855 0.70693
 C26 C 0.71784 0.67995 0.72661
 C27 C 0.69555 0.69521 0.73330
 C28 C 0.66718 0.72918 0.73044
 N29 N 0.65840 0.71216 0.74908
 C30 C 0.67566 0.69144 0.75116
 C31 C 0.72768 0.65596 0.73563
 N32 N 0.74961 0.64969 0.72161
 C33 C 0.75410 0.66963 0.70423
 C34 C 0.74150 0.72539 0.67342
 N35 N 0.72761 0.74790 0.66767
 C36 C 0.70640 0.74934 0.68379
 H37 H 0.65735 0.74751 0.72461
 H38 H 0.67371 0.67483 0.76458
 H39 H 0.71951 0.64389 0.75118
 H40 H 0.77038 0.67015 0.69055
 H41 H 0.75902 0.71865 0.66317
 H42 H 0.69147 0.76487 0.68322
 C43 C 0.30012 0.76649 0.72576
 C44 C 0.28670 0.76039 0.70231
 C45 C 0.26693 0.77726 0.69353
 C46 C 0.26045 0.80050 0.70797
 C47 C 0.27388 0.80670 0.73090
 C48 C 0.29375 0.78949 0.73999
 C49 C 0.32099 0.75446 0.73828
 N50 N 0.32720 0.76943 0.75989
 C51 C 0.31089 0.79106 0.76094
 C52 C 0.26433 0.83099 0.73990
 N53 N 0.24564 0.83994 0.72278
 C54 C 0.24286 0.82097 0.70349
 C55 C 0.25820 0.76717 0.66971
 N56 N 0.27245 0.74483 0.66374
 C57 C 0.28971 0.74029 0.68365
 H58 H 0.33142 0.73658 0.73177
 H59 H 0.31186 0.80702 0.77553
 H60 H 0.27016 0.84105 0.75802
 H61 H 0.22968 0.82241 0.68676
 H62 H 0.24306 0.77572 0.65729
 H63 H 0.30382 0.72396 0.68411
 C64 C 0.81685 0.27679 0.21021
 C65 C 0.80135 0.26825 0.18894
 C66 C 0.77741 0.28058 0.18433
 C67 C 0.76866 0.30153 0.20094
 C68 C 0.78389 0.30977 0.22201
 C69 C 0.80808 0.29728 0.22668
 C70 C 0.84102 0.26879 0.21928
 N71 N 0.84734 0.28416 0.24072
 C72 C 0.82693 0.30129 0.24557
 C73 C 0.77101 0.33090 0.23419
 N74 N 0.74829 0.33550 0.22115
 C75 C 0.74676 0.31782 0.20062
 C76 C 0.76676 0.26846 0.16237
 N77 N 0.78374 0.24932 0.15346
 C78 C 0.80486 0.24884 0.16965
 H79 H 0.85267 0.25228 0.21140
 H80 H 0.82606 0.31610 0.26137
 H81 H 0.77785 0.34245 0.25099
 H82 H 0.73116 0.31734 0.18618
 H83 H 0.74808 0.27319 0.15343
 H84 H 0.82147 0.23534 0.16749
 C85 C 0.81583 0.72626 0.27286
 C86 C 0.80349 0.73204 0.29717
 C87 C 0.78272 0.71694 0.30536
 C88 C 0.77421 0.69575 0.28944
 C89 C 0.78654 0.68993 0.26552
 C90 C 0.80752 0.70533 0.25719
 C91 C 0.83586 0.73812 0.25957
 N92 N 0.83977 0.72528 0.23586
 C93 C 0.82274 0.70478 0.23463
 C94 C 0.77376 0.66887 0.25403
 N95 N 0.75391 0.66206 0.27031
 C96 C 0.75415 0.67818 0.29211
 C97 C 0.77366 0.72789 0.32889
 N98 N 0.78843 0.74922 0.33500
 C99 C 0.80680 0.75190 0.31589
 H100 H 0.84733 0.75438 0.26719
 H101 H 0.82091 0.69093 0.21813
 H102 H 0.77834 0.65931 0.23516
 H103 H 0.74053 0.67731 0.30851
 H104 H 0.75717 0.72135 0.34040
 H105 H 0.82094 0.76762 0.31530
 C106 C 0.31368 0.22686 -0.22840
 C107 C 0.30317 0.23174 -0.20305
 C108 C 0.28366 0.21574 -0.19350
 C109 C 0.27442 0.19473 -0.20921
 C110 C 0.28453 0.19019 -0.23438
 C111 C 0.30457 0.20618 -0.24391
 C112 C 0.33258 0.23932 -0.24280
 N113 N 0.33522 0.22687 -0.26687
 C114 C 0.31827 0.20629 -0.26744
 C115 C 0.27063 0.16982 -0.24571
 N116 N 0.25226 0.16201 -0.22804
 C117 C 0.25492 0.17676 -0.20543
 C118 C 0.27557 0.22641 -0.16950
 N119 N 0.28972 0.24842 -0.16442
 C120 C 0.30673 0.25185 -0.18467
 H121 H 0.34445 0.25546 -0.23559
 H122 H 0.31573 0.19257 -0.28394
 H123 H 0.27378 0.16119 -0.26530
 H124 H 0.24277 0.17529 -0.18790
 H125 H 0.25968 0.21960 -0.15730
 H126 H 0.31963 0.26855 -0.18652
 C127 C 0.67979 0.27899 -0.21412
 C128 C 0.69481 0.26950 -0.19283
 C129 C 0.71927 0.27969 -0.18819
 C130 C 0.72907 0.29937 -0.20488
 C131 C 0.71418 0.30880 -0.22573
 C132 C 0.68942 0.29848 -0.23043
 C133 C 0.65552 0.27265 -0.22350
 N134 N 0.64990 0.28809 -0.24498
 C135 C 0.67089 0.30365 -0.24947
 C136 C 0.72813 0.32832 -0.23798
 N137 N 0.75149 0.33069 -0.22547
 C138 C 0.75194 0.31321 -0.20490
 C139 C 0.72917 0.26722 -0.16605
 N140 N 0.71116 0.25002 -0.15704
 C141 C 0.69022 0.25099 -0.17344
 H142 H 0.64346 0.25694 -0.21595
 H143 H 0.67251 0.31806 -0.26525
 H144 H 0.72179 0.33976 -0.25501
 H145 H 0.76720 0.31155 -0.19014
 H146 H 0.74800 0.27044 -0.15704
 H147 H 0.67286 0.23931 -0.17116
 C148 C 0.18813 0.77735 0.27978
 C149 C 0.20128 0.76999 0.30305
 C150 C 0.22027 0.78627 0.31347
 C151 C 0.22625 0.81018 0.30079
 C152 C 0.21351 0.81725 0.27767
 C153 C 0.19425 0.80080 0.26714
 C154 C 0.16851 0.76569 0.26546
 N155 N 0.16279 0.78141 0.24438
 C156 C 0.17823 0.80307 0.24535
 C157 C 0.22379 0.84087 0.26933
 N158 N 0.24203 0.84878 0.28720
 C159 C 0.24386 0.82979 0.30632
 C160 C 0.22995 0.77403 0.33584
 N161 N 0.21750 0.75065 0.33898
 C162 C 0.19967 0.74815 0.31927
 H163 H 0.15886 0.74731 0.27015
 H164 H 0.17745 0.81946 0.23151
 H165 H 0.21808 0.85172 0.25170
 H166 H 0.25778 0.82959 0.32247
 H167 H 0.24510 0.78138 0.34877
 H168 H 0.18667 0.73156 0.31689
 C169 C 0.47898 0.44746 0.46735
 C170 C 0.48630 0.46279 0.44551
 C171 C 0.47062 0.48397 0.43741
 C172 C 0.44735 0.49005 0.45103
 C173 C 0.44013 0.47487 0.47257
 C174 C 0.45603 0.45347 0.48077
 C175 C 0.49071 0.42621 0.48006
 N176 N 0.47554 0.41949 0.50097
 C177 C 0.45412 0.43579 0.50136
 C178 C 0.41724 0.48569 0.48245
 N179 N 0.41058 0.50718 0.46761
 C180 C 0.42866 0.50988 0.44814
 C181 C 0.48282 0.49555 0.41617
 N182 N 0.50557 0.48206 0.41145
 C183 C 0.50772 0.46180 0.42906
 H184 H 0.50904 0.41650 0.47473
 H185 H 0.43841 0.43487 0.51569
 H186 H 0.40642 0.47879 0.49946
 H187 H 0.42834 0.52535 0.43327
 H188 H 0.47582 0.51263 0.40505
 H189 H 0.52375 0.44745 0.42979
 C190 C -0.02535 -0.05169 0.97091
 C191 C -0.02052 -0.03892 0.94675
 C192 C -0.04053 -0.02557 0.93394
 C193 C -0.06530 -0.02370 0.94556
 C194 C -0.07000 -0.03579 0.96958
 C195 C -0.04985 -0.04999 0.98232
 C196 C -0.01019 -0.06781 0.98685
 N197 N -0.02469 -0.07564 1.00800
 C198 C -0.04905 -0.06475 1.00521
 C199 C -0.09511 -0.02895 0.97697
 N200 N -0.10574 -0.01273 0.95811
 C201 C -0.08740 -0.00943 0.93890
 C202 C -0.03064 -0.01586 0.91069
 N203 N -0.00465 -0.02168 0.90953
 C204 C 0.00153 -0.03621 0.93146
 H205 H 0.00993 -0.07362 0.98312
 H206 H -0.06561 -0.06883 1.01779
 H207 H -0.10407 -0.03354 0.99584
 H208 H -0.08966 0.00310 0.92161
 H209 H -0.04188 -0.00586 0.89544
 H210 H 0.02073 -0.04411 0.93614
 C211 C 1.02806 0.55964 0.96788
 C212 C 1.01825 0.54134 0.94939
 C213 C 1.03291 0.51893 0.94227
 C214 C 1.05758 0.51458 0.95352
 C215 C 1.06727 0.53267 0.97167
 C216 C 1.05239 0.55538 0.97892
 C217 C 1.01830 0.58332 0.97815
 N218 N 1.03631 0.59398 0.99479
 C219 C 1.05706 0.57661 0.99564
 C220 C 1.09181 0.52374 0.97866
 N221 N 1.09753 0.50082 0.96487
 C222 C 1.07632 0.49492 0.94984
 C223 C 1.01918 0.50544 0.92311
 N224 N 0.99649 0.51901 0.91863
 C225 C 0.99585 0.54113 0.93442
 H226 H 0.99966 0.59245 0.97323
 H227 H 1.07400 0.57868 1.00823
 H228 H 1.10420 0.53289 0.99341
 H229 H 1.07486 0.47794 0.93649
 H230 H 1.02548 0.48747 0.91264
 H231 H 0.98060 0.55636 0.93432
 C232 C 0.53189 0.05334 0.47374
 C233 C 0.52273 0.03631 0.45374
 C234 C 0.53763 0.01438 0.44566
 C235 C 0.56193 0.00925 0.45746
 C236 C 0.57097 0.02609 0.47714
 C237 C 0.55579 0.04818 0.48548
 C238 C 0.52193 0.07651 0.48497
 N239 N 0.53932 0.08559 0.50302
 C240 C 0.55994 0.06823 0.50376
 C241 C 0.59534 0.01687 0.48426
 N242 N 0.60163 -0.00500 0.46911
 C243 C 0.58091 -0.01006 0.45308
 C244 C 0.52443 0.00213 0.42527
 N245 N 0.50184 0.01596 0.42106
 C246 C 0.50075 0.03706 0.43816
 H247 H 0.50354 0.08626 0.48020
 H248 H 0.57676 0.07022 0.51651
 H249 H 0.60728 0.02512 0.49991
 H250 H 0.58001 -0.02610 0.43857
 H251 H 0.53094 -0.01524 0.41395
 H252 H 0.48539 0.05217 0.43871
 C253 C -0.02499 0.06223 0.53118
 C254 C -0.01803 0.04958 0.55492
 C255 C -0.03247 0.02852 0.56406
 C256 C -0.05415 0.01992 0.54964
 C257 C -0.06116 0.03258 0.52630
 C258 C -0.04646 0.05386 0.51699
 C259 C -0.01455 0.08322 0.51765
 N260 N -0.02908 0.08758 0.49557
 C261 C -0.04880 0.06998 0.49507
 C262 C -0.08311 0.02039 0.51681
 N263 N -0.08960 0.00087 0.53395
 C264 C -0.07192 0.00021 0.55395
 C265 C -0.02145 0.02035 0.58762
 N266 N -0.00098 0.03624 0.59310
 C267 C 0.00149 0.05393 0.57307
 H268 H 0.00228 0.09458 0.52341
 H269 H -0.06364 0.06900 0.47985
 H270 H -0.09367 0.02535 0.49886
 H271 H -0.07219 -0.01345 0.57048
 H272 H -0.02786 0.00417 0.59996
 H273 H 0.01626 0.06900 0.57198
 C274 C 0.47329 0.56059 0.03259
 C275 C 0.48154 0.54578 0.05463
 C276 C 0.46810 0.52335 0.06206
 C277 C 0.44623 0.51548 0.04752
 C278 C 0.43813 0.53014 0.02575
 C279 C 0.45172 0.55288 0.01831
 C280 C 0.48193 0.58379 0.02153
 N281 N 0.46580 0.59080 0.00117
 C282 C 0.44757 0.57153 -0.00117
 C283 C 0.41568 0.51887 0.01640
 N284 N 0.40988 0.49798 0.03216
 C285 C 0.42856 0.49552 0.05105
 C286 C 0.47962 0.51376 0.08484
 N287 N 0.49945 0.53000 0.09143
 C288 C 0.50098 0.54949 0.07301
 H289 H 0.49823 0.59527 0.02855
 H290 H 0.43271 0.57064 -0.01638
 H291 H 0.40402 0.52569 -0.00021
 H292 H 0.42880 0.48075 0.06661
 H293 H 0.47367 0.49667 0.09618
 H294 H 0.51487 0.56545 0.07335
 C295 C 0.52261 -0.06800 0.03553
 C296 C 0.51559 -0.05431 0.05898
 C297 C 0.52857 -0.03146 0.06633
 C298 C 0.54858 -0.02190 0.05024
 C299 C 0.55547 -0.03540 0.02708
 C300 C 0.54248 -0.05865 0.01973
 C301 C 0.51388 -0.09107 0.02383
 N302 N 0.52828 -0.09610 0.00161
 C303 C 0.54558 -0.07623 -0.00127
 C304 C 0.57576 -0.02199 0.01580
 N305 N 0.58111 -0.00058 0.03141
 C306 C 0.56484 -0.00052 0.05271
 C307 C 0.51815 -0.02272 0.09014
 N308 N 0.49936 -0.03986 0.09744
 C309 C 0.49743 -0.05909 0.07843
 H310 H 0.49837 -0.10345 0.03100
 H311 H 0.55958 -0.07491 -0.01729
 H312 H 0.58604 -0.02746 -0.00231
 H313 H 0.56511 0.01384 0.06891
 H314 H 0.52379 -0.00527 0.10142
 H315 H 0.48397 -0.07543 0.07894
 C316 C 1.02490 0.43607 0.53485
 C317 C 1.01920 0.44981 0.55861
 C318 C 1.03220 0.47296 0.56489
 C319 C 1.05111 0.48262 0.54750
 C320 C 1.05681 0.46903 0.52414
 C321 C 1.04371 0.44555 0.51778
 C322 C 1.01492 0.41346 0.52333
 N323 N 1.02722 0.40917 0.49977
 C324 C 1.04494 0.42850 0.49619
 C325 C 1.07590 0.48286 0.51132
 N326 N 1.08173 0.50490 0.52605
 C327 C 1.06684 0.50448 0.54850
 C328 C 1.02259 0.48213 0.58893
 N329 N 1.00438 0.46491 0.59740
 C330 C 1.00194 0.44523 0.57893
 H331 H 0.99968 0.40120 0.53125
 H332 H 1.05742 0.43021 0.47895
 H333 H 1.08564 0.47651 0.49317
 H334 H 1.06697 0.51931 0.56428
 H335 H 1.02837 0.49995 0.59952
 H336 H 0.98853 0.42890 0.58023
 C337 C 0.41947 0.00442 0.22521
 H338 H 0.42231 0.02164 0.23792
 C339 C 0.43653 -0.00089 0.20412
 H340 H 0.45248 0.01240 0.20041
 C341 C 0.39516 -0.03396 0.21450
 H342 H 0.37905 -0.04681 0.21875
 C343 C 0.41183 -0.04005 0.19323
 H344 H 0.40850 -0.05759 0.18106
 N345 N 0.39925 -0.01201 0.22992
 C346 C 0.33904 0.03438 0.27148
 H347 H 0.33673 0.02255 0.28916
 C348 C 0.32215 0.05598 0.26680
 H349 H 0.30695 0.06101 0.28104
 C350 C 0.36096 0.04166 0.23073
 H351 H 0.37567 0.03564 0.21641
 C352 C 0.34449 0.06342 0.22528
 H353 H 0.34674 0.07422 0.20690
 Zn354 Zn 0.37762 -0.00414 0.25944
 N355 N 0.35790 0.02758 0.25348
 C356 C 0.39707 0.02108 0.30611
 N357 N 0.39926 -0.00056 0.28966
 C358 C 0.41757 -0.02004 0.29391
 C359 C 0.43403 -0.01866 0.31591
 C360 C 0.41312 0.02323 0.32838
 C361 C 0.33142 -0.03096 0.24972
 C362 C 0.31193 -0.04949 0.25381
 C363 C 0.33896 -0.07044 0.28721
 C364 C 0.35773 -0.05117 0.28287
 N365 N 0.35362 -0.03186 0.26444
 H366 H 0.38291 0.03671 0.30206
 H367 H 0.41933 -0.03671 0.28018
 H368 H 0.44840 -0.03439 0.31924
 H369 H 0.41120 0.04046 0.34143
 H370 H 0.32864 -0.01546 0.23513
 H371 H 0.29412 -0.04819 0.24235
 H372 H 0.34251 -0.08583 0.30180
 H373 H 0.37542 -0.05161 0.29440
 C374 C 0.32457 0.07040 0.24323
 C375 C 0.43293 -0.02353 0.18809
 C376 C 0.31544 -0.06925 0.27308
 C377 C 0.43159 0.00299 0.33359
 C378 C 0.08634 -0.00665 0.71503
 H379 H 0.08560 -0.02489 0.72627
 C380 C 0.06898 -0.00240 0.69414
 H381 H 0.05485 -0.01741 0.68921
 C382 C 0.10528 0.03549 0.70804
 H383 H 0.11902 0.05046 0.71392
 C384 C 0.08832 0.04050 0.68688
 H385 H 0.08923 0.05919 0.67634
 N386 N 0.10399 0.01218 0.72159
 C387 C 0.15800 -0.03677 0.76737
 H388 H 0.15569 -0.02760 0.78680
 C389 C 0.17481 -0.05876 0.76392
 H390 H 0.18532 -0.06676 0.78080
 C391 C 0.14748 -0.03726 0.72148
 H392 H 0.13722 -0.02841 0.70492
 C393 C 0.16430 -0.05908 0.71711
 H394 H 0.16672 -0.06718 0.69720
 Zn395 Zn 0.12491 0.00511 0.75173
 N396 N 0.14482 -0.02648 0.74627
 C397 C 0.09310 -0.02398 0.78616
 N398 N 0.10150 0.00092 0.78057
 C399 C 0.09130 0.02270 0.79342
 C400 C 0.07382 0.01974 0.81437
 C401 C 0.07409 -0.02766 0.80563
 C402 C 0.16591 0.03744 0.73708
 C403 C 0.18352 0.05827 0.73869
 C404 C 0.16698 0.06891 0.78251
 C405 C 0.15042 0.04725 0.78047
 N406 N 0.14912 0.03290 0.75742
 H407 H 0.10062 -0.04097 0.77495
 H408 H 0.09664 0.04249 0.78745
 H409 H 0.06762 0.03727 0.82559
 H410 H 0.06718 -0.04757 0.80919
 H411 H 0.16533 0.02505 0.71938
 H412 H 0.19670 0.06166 0.72229
 H413 H 0.16691 0.08083 0.80058
 H414 H 0.13878 0.04208 0.79741
 C415 C 0.17853 -0.06971 0.73842
 C416 C 0.06976 0.02152 0.68005
 C417 C 0.18327 0.07513 0.76112
 C418 C 0.06415 -0.00559 0.82017
 C419 C 0.58619 0.49039 0.21588
 H420 H 0.58483 0.47350 0.22900
 C421 C 0.56807 0.49385 0.19548
 H422 H 0.55275 0.47953 0.19280
 C423 C 0.60746 0.53003 0.20370
 H424 H 0.62256 0.54431 0.20720
 C425 C 0.58979 0.53419 0.18302
 H426 H 0.59159 0.55148 0.17046
 N427 N 0.60543 0.50832 0.21955
 C428 C 0.66793 0.46650 0.26173
 H429 H 0.67053 0.47995 0.27842
 C430 C 0.68378 0.44368 0.25910
 H431 H 0.69862 0.43946 0.27384
 C432 C 0.64561 0.45569 0.22196
 H433 H 0.63096 0.46060 0.20734
 C434 C 0.66103 0.43264 0.21858
 H435 H 0.65813 0.41983 0.20142
 Zn436 Zn 0.62817 0.50303 0.24869
 N437 N 0.64904 0.47186 0.24350
 C438 C 0.60940 0.47810 0.29538
 N439 N 0.60710 0.49976 0.27939
 C440 C 0.58892 0.51932 0.28431
 C441 C 0.57256 0.51787 0.30642
 C442 C 0.59350 0.47591 0.31776
 C443 C 0.66874 0.53617 0.23312
 C444 C 0.68569 0.55757 0.23487
 C445 C 0.66578 0.57015 0.27682
 C446 C 0.64926 0.54849 0.27432
 N447 N 0.65072 0.53228 0.25249
 H448 H 0.62345 0.46241 0.29080
 H449 H 0.58719 0.53608 0.27100
 H450 H 0.55824 0.53360 0.31026
 H451 H 0.59550 0.45865 0.33043
 H452 H 0.66981 0.52269 0.21622
 H453 H 0.69989 0.56058 0.21930
 H454 H 0.66427 0.58310 0.29413
 H455 H 0.63530 0.54472 0.28983
 C456 C 0.68011 0.42632 0.23751
 C457 C 0.56965 0.51613 0.17901
 C458 C 0.68396 0.57506 0.25674
 C459 C 0.57503 0.49610 0.32353
 C460 C 0.91817 0.50300 0.72410
 H461 H 0.91796 0.52059 0.73672
 C462 C 0.93681 0.50009 0.70397
 H463 H 0.95095 0.51553 0.70101
 C464 C 0.90021 0.46122 0.71272
 H465 H 0.88625 0.44588 0.71640
 C466 C 0.91841 0.45758 0.69231
 H467 H 0.91801 0.43969 0.68008
 N468 N 0.90018 0.48383 0.72791
 C469 C 0.83410 0.52394 0.76701
 H470 H 0.83203 0.51145 0.78427
 C471 C 0.81640 0.54494 0.76266
 H472 H 0.80070 0.54879 0.77668
 C473 C 0.85678 0.53392 0.72734
 H474 H 0.87222 0.52927 0.71335
 C475 C 0.83956 0.55517 0.72228
 H476 H 0.84195 0.56696 0.70455
 Zn477 Zn 0.87594 0.48901 0.75604
 N478 N 0.85385 0.51890 0.74949
 C479 C 0.89248 0.51654 0.80265
 N480 N 0.89537 0.49404 0.78750
 C481 C 0.91328 0.47475 0.79370
 C482 C 0.92895 0.47747 0.81616
 C483 C 0.90775 0.52006 0.82532
 C484 C 0.83886 0.45285 0.73824
 C485 C 0.82280 0.43075 0.73926
 C486 C 0.83782 0.42260 0.78400
 C487 C 0.85385 0.44467 0.78201
 N488 N 0.85440 0.45900 0.75920
 H489 H 0.87860 0.53194 0.79704
 H490 H 0.91545 0.45728 0.78103
 H491 H 0.94320 0.46202 0.82088
 H492 H 0.90552 0.53812 0.83716
 H493 H 0.83921 0.46499 0.72059
 H494 H 0.81085 0.42578 0.72228
 H495 H 0.83742 0.41138 0.80228
 H496 H 0.86568 0.45039 0.79877
 C497 C 0.81899 0.56062 0.73996
 C498 C 0.93710 0.47706 0.68795
 C499 C 0.82249 0.41513 0.76222
 C500 C 0.92609 0.50026 0.83230
 C501 C 0.21824 0.41398 0.01151
 H502 H 0.22900 0.41529 0.02984
 C503 C 0.19768 0.43203 0.00698
 H504 H 0.19227 0.44658 0.02216
 C505 C 0.21281 0.39470 -0.03122
 H506 H 0.21909 0.38074 -0.04646
 C507 C 0.19226 0.41246 -0.03662
 H508 H 0.18267 0.41169 -0.05576
 N509 N 0.22524 0.39551 -0.00733
 C510 C 0.24962 0.32303 0.02592
 H511 H 0.25465 0.31425 0.00691
 C512 C 0.24485 0.30632 0.04733
 H513 H 0.24585 0.28487 0.04456
 C514 C 0.24314 0.36129 0.05332
 H515 H 0.24318 0.38265 0.05584
 C516 C 0.23840 0.34528 0.07531
 H517 H 0.23428 0.35443 0.09449
 Zn518 Zn 0.25447 0.37236 -0.00079
 N519 N 0.24824 0.35005 0.02905
 C520 C 0.29910 0.38967 0.02733
 N521 N 0.28331 0.39413 0.00608
 C522 C 0.28730 0.41478 -0.01067
 C523 C 0.30766 0.43226 -0.00611
 C524 C 0.31970 0.40671 0.03264
 C525 C 0.24261 0.33405 -0.04017
 C526 C 0.24693 0.31794 -0.06257
 C527 C 0.29002 0.33606 -0.06638
 C528 C 0.28490 0.35183 -0.04385
 N529 N 0.26141 0.35072 -0.03136
 H530 H 0.29573 0.37295 0.04021
 H531 H 0.27448 0.41777 -0.02746
 H532 H 0.31062 0.44874 -0.01948
 H533 H 0.33207 0.40319 0.04971
 H534 H 0.22420 0.33330 -0.02973
 H535 H 0.23184 0.30474 -0.06939
 H536 H 0.30871 0.33718 -0.07627
 H537 H 0.29973 0.36491 -0.03637
 C538 C 0.23887 0.31751 0.07224
 C539 C 0.18467 0.43152 -0.01746
 C540 C 0.27075 0.31916 -0.07608
 C541 C 0.32383 0.42849 0.01600
 C542 C 0.70368 0.08082 -0.01276
 H543 H 0.71457 0.07904 -0.03114
 C544 C 0.68184 0.06525 -0.00881
 H545 H 0.67580 0.05146 -0.02421
 C546 C 0.69842 0.10079 0.02989
 H547 H 0.70518 0.11436 0.04505
 C548 C 0.67639 0.08559 0.03465
 H549 H 0.66614 0.08761 0.05342
 N550 N 0.71133 0.09838 0.00631
 C551 C 0.75441 0.15721 -0.03788
 H552 H 0.77301 0.15587 -0.02785
 C553 C 0.75062 0.17556 -0.05826
 H554 H 0.76637 0.18831 -0.06410
 C555 C 0.71099 0.14251 -0.04226
 H556 H 0.69545 0.12997 -0.03563
 C557 C 0.70636 0.16060 -0.06274
 H558 H 0.68734 0.16173 -0.07200
 Zn559 Zn 0.74125 0.11826 -0.00135
 N560 N 0.73475 0.14112 -0.03036
 C561 C 0.77740 0.09159 -0.03528
 N562 N 0.76829 0.09342 -0.00991
 C563 C 0.77706 0.07651 0.00921
 C564 C 0.79651 0.05747 0.00338
 C565 C 0.79639 0.07242 -0.04211
 C566 C 0.73273 0.15999 0.03472
 C567 C 0.73843 0.17822 0.05492
 C568 C 0.78031 0.15613 0.06041
 C569 C 0.77387 0.13837 0.04000
 N570 N 0.75030 0.14048 0.02775
 H571 H 0.76964 0.10466 -0.05039
 H572 H 0.76906 0.07798 0.02909
 H573 H 0.80393 0.04471 0.01900
 H574 H 0.80339 0.07112 -0.06241
 H575 H 0.71434 0.16152 0.02433
 H576 H 0.72433 0.19374 0.06020
 H577 H 0.79907 0.15427 0.07011
 H578 H 0.78791 0.12329 0.03372
 C579 C 0.72625 0.17754 -0.07066
 C580 C 0.66782 0.06782 0.01500
 C581 C 0.76258 0.17653 0.06777
 C582 C 0.80613 0.05502 -0.02267
 C583 C 0.21332 0.57559 0.49474
 H584 H 0.23074 0.56720 0.48562
 C585 C 0.19136 0.55982 0.49745
 H586 H 0.19201 0.53924 0.49072
 C587 C 0.19075 0.61268 0.51407
 H588 H 0.19046 0.63332 0.52030
 C589 C 0.16842 0.59760 0.51725
 H590 H 0.15108 0.60668 0.52601
 N591 N 0.21269 0.60151 0.50313
 C592 C 0.25363 0.66662 0.46671
 H593 H 0.26919 0.66946 0.48086
 C594 C 0.25087 0.68378 0.44518
 H595 H 0.26434 0.69992 0.44269
 C596 C 0.21718 0.64190 0.45247
 H597 H 0.20423 0.62543 0.45537
 C598 C 0.21375 0.65858 0.43063
 H599 H 0.19806 0.65503 0.41675
 Zn600 Zn 0.24252 0.62279 0.49859
 N601 N 0.23705 0.64604 0.46978
 C602 C 0.28699 0.60490 0.46957
 N603 N 0.27221 0.60060 0.49155
 C604 C 0.27855 0.58085 0.50891
 C605 C 0.30115 0.56531 0.50511
 C606 C 0.30974 0.58983 0.46503
 C607 C 0.23237 0.66582 0.53345
 C608 C 0.23633 0.68286 0.55510
 C609 C 0.27305 0.65510 0.56807
 C610 C 0.26841 0.63859 0.54616
 N611 N 0.24821 0.64404 0.52944
 H612 H 0.28143 0.62027 0.45570
 H613 H 0.26625 0.57752 0.52599
 H614 H 0.30635 0.55005 0.51934
 H615 H 0.32164 0.59372 0.44775
 H616 H 0.21698 0.67033 0.51946
 H617 H 0.22367 0.70018 0.55805
 H618 H 0.28924 0.65064 0.58117
 H619 H 0.28122 0.62166 0.54247
 C620 C 0.23097 0.67953 0.42671
 C621 C 0.16862 0.57094 0.50873
 C622 C 0.25703 0.67762 0.57250
 C623 C 0.31723 0.57020 0.48325
 C624 C 0.72214 0.90873 0.51613
 H625 H 0.73238 0.90996 0.53474
 C626 C 0.70132 0.92639 0.51138
 H627 H 0.69526 0.94055 0.52668
 C628 C 0.71811 0.89007 0.47295
 H629 H 0.72507 0.87655 0.45761
 C630 C 0.69737 0.90751 0.46731
 H631 H 0.68831 0.90692 0.44790
 N632 N 0.73000 0.89077 0.49713
 C633 C 0.75543 0.81951 0.53161
 H634 H 0.75933 0.81021 0.51258
 C635 C 0.75161 0.80338 0.55370
 H636 H 0.75224 0.78187 0.55143
 C637 C 0.75071 0.85847 0.55833
 H638 H 0.75118 0.87987 0.56033
 C639 C 0.74695 0.84308 0.58095
 H640 H 0.74390 0.85275 0.60007
 Zn641 Zn 0.75977 0.86834 0.50357
 N642 N 0.75457 0.84660 0.53412
 C643 C 0.80439 0.88765 0.53057
 N644 N 0.78831 0.89095 0.50933
 C645 C 0.79151 0.91129 0.49200
 C646 C 0.81119 0.92970 0.49601
 C647 C 0.82425 0.90571 0.53540
 C648 C 0.74734 0.82932 0.46516
 C649 C 0.75072 0.81373 0.44226
 C650 C 0.79305 0.83300 0.43621
 C651 C 0.78894 0.84816 0.45935
 N652 N 0.76620 0.84634 0.47312
 H653 H 0.80172 0.87116 0.54390
 H654 H 0.77849 0.91337 0.47523
 H655 H 0.81348 0.94591 0.48218
 H656 H 0.83673 0.90316 0.55256
 H657 H 0.72947 0.82817 0.47648
 H658 H 0.73552 0.80036 0.43607
 H659 H 0.81104 0.83488 0.42517
 H660 H 0.80380 0.86158 0.46611
 C661 C 0.74741 0.81523 0.57867
 C662 C 0.68899 0.92612 0.48657
 C663 C 0.77357 0.81592 0.42724
 C664 C 0.82745 0.92728 0.51825
 C665 C 0.01060 0.21360 0.41241
 H666 H 0.02711 0.22641 0.41519
 C667 C 0.00745 0.19159 0.42879
 H668 H 0.02152 0.18747 0.44430
 C669 C -0.02817 0.20364 0.38915
 H670 H -0.04224 0.20859 0.37398
 C671 C -0.03200 0.18132 0.40500
 H672 H -0.04884 0.16905 0.40175
 N673 N -0.00681 0.21891 0.39272
 C674 C 0.03537 0.26098 0.33131
 H675 H 0.02227 0.27789 0.32849
 C676 C 0.05794 0.25834 0.31595
 H677 H 0.06219 0.27316 0.30112
 C678 C 0.04571 0.22086 0.35390
 H679 H 0.04079 0.20616 0.36852
 C680 C 0.06859 0.21754 0.33908
 H681 H 0.08127 0.20040 0.34251
 Zn682 Zn -0.00034 0.24875 0.37102
 N683 N 0.02995 0.24265 0.35019
 C684 C 0.02642 0.29317 0.39220
 N685 N 0.00440 0.27859 0.39372
 C686 C -0.01448 0.28454 0.41196
 C687 C -0.01187 0.30630 0.42923
 C688 C 0.02971 0.31520 0.40893
 C689 C -0.03419 0.23647 0.32895
 C690 C -0.05400 0.24112 0.31047
 C691 C -0.06073 0.28513 0.32957
 C692 C -0.04107 0.27951 0.34792
 N693 N -0.02832 0.25546 0.34736
 H694 H 0.04150 0.28779 0.37806
 H695 H -0.03159 0.27234 0.41304
 H696 H -0.02696 0.31083 0.44374
 H697 H 0.04721 0.32681 0.40738
 H698 H -0.02342 0.21770 0.32862
 H699 H -0.05878 0.22572 0.29615
 H700 H -0.07060 0.30442 0.33008
 H701 H -0.03574 0.29458 0.36228
 C702 C 0.07510 0.23672 0.32025
 C703 C -0.01377 0.17487 0.42474
 C704 C -0.06721 0.26588 0.31043
 C705 C 0.01027 0.32214 0.42746
 C706 C 0.01366 0.73104 0.07065
 H707 H 0.01386 0.75120 0.06329
 C708 C 0.01879 0.70970 0.05326
 H709 H 0.02290 0.71347 0.03253
 C710 C 0.00812 0.70127 0.10650
 H711 H 0.00402 0.69825 0.12734
 C712 C 0.01302 0.67935 0.08976
 H713 H 0.01269 0.65935 0.09766
 N714 N 0.00882 0.72649 0.09680
 C715 C -0.02654 0.75156 0.16804
 H716 H -0.00880 0.75704 0.17799
 C717 C -0.04907 0.74784 0.18300
 H718 H -0.04863 0.75065 0.20437
 C719 C -0.04906 0.74117 0.12828
 H720 H -0.04883 0.73868 0.10690
 C721 C -0.07201 0.73711 0.14251
 H722 H -0.08957 0.73160 0.13210
 Zn723 Zn 0.00311 0.75544 0.12061
 N724 N -0.02705 0.74876 0.14112
 C725 C -0.02532 0.79905 0.09825
 N726 N -0.00130 0.78760 0.10150
 C727 C 0.02042 0.79922 0.09178
 C728 C 0.01849 0.82338 0.07827
 C729 C -0.02816 0.82298 0.08451
 C730 C 0.05230 0.74088 0.14228
 C731 C 0.07434 0.74434 0.15804
 C732 C 0.05545 0.78585 0.17452
 C733 C 0.03373 0.78158 0.15850
 N734 N 0.03248 0.75932 0.14290
 H735 H -0.04234 0.78965 0.10618
 H736 H 0.03930 0.78973 0.09469
 H737 H 0.03595 0.83248 0.07075
 H738 H -0.04744 0.83162 0.08160
 H739 H 0.05115 0.72354 0.12950
 H740 H 0.08993 0.72947 0.15756
 H741 H 0.05627 0.80363 0.18686
 H742 H 0.01785 0.79610 0.15833
 C743 C -0.07216 0.74094 0.17012
 C744 C 0.01878 0.68359 0.06293
 C745 C 0.07613 0.76719 0.17414
 C746 C -0.00603 0.83564 0.07472
 C747 C 0.51164 0.22529 0.57325
 H748 H 0.50935 0.24445 0.56394
 C749 C 0.51773 0.20300 0.55746
 H750 H 0.52031 0.20528 0.53624
 C751 C 0.50967 0.19841 0.61161
 H752 H 0.50548 0.19652 0.63253
 C753 C 0.51588 0.17559 0.59656
 H754 H 0.51713 0.15633 0.60610
 N755 N 0.50841 0.22281 0.59997
 C756 C 0.46861 0.25410 0.66684
 H757 H 0.48550 0.26184 0.67684
 C758 C 0.44542 0.25127 0.68091
 H759 H 0.44457 0.25658 0.70181
 C760 C 0.44877 0.23817 0.62736
 H761 H 0.45030 0.23334 0.60641
 C762 C 0.42516 0.23502 0.64071
 H763 H 0.40841 0.22768 0.63005
 Zn764 Zn 0.50082 0.25354 0.62141
 N765 N 0.46979 0.24778 0.64050
 C766 C 0.47313 0.29780 0.59977
 N767 N 0.49623 0.28400 0.59958
 C768 C 0.51665 0.29208 0.58454
 C769 C 0.51418 0.31468 0.56870
 C770 C 0.46987 0.32059 0.58430
 C771 C 0.53700 0.24020 0.66220
 C772 C 0.55637 0.24508 0.68097
 C773 C 0.55741 0.29078 0.66639
 C774 C 0.53804 0.28506 0.64789
 N775 N 0.52830 0.26004 0.64596
 H776 H 0.45724 0.29133 0.61207
 H777 H 0.53492 0.28098 0.58501
 H778 H 0.53053 0.32096 0.55682
 H779 H 0.45144 0.33149 0.58457
 H780 H 0.52869 0.22068 0.66100
 H781 H 0.56315 0.22915 0.69377
 H782 H 0.56488 0.31080 0.66783
 H783 H 0.53046 0.30086 0.63553
 C784 C 0.42330 0.24203 0.66768
 C785 C 0.52053 0.17791 0.56925
 C786 C 0.56656 0.27070 0.68331
 C787 C 0.49064 0.32924 0.56870
 C788 C 0.49972 0.71891 0.92025
 H789 H 0.50867 0.73697 0.92729
 C790 C 0.49522 0.69828 0.93798
 H791 H 0.50054 0.70058 0.95868
 C792 C 0.48170 0.69378 0.88483
 H793 H 0.47633 0.69237 0.86409
 C794 C 0.47685 0.67263 0.90191
 H795 H 0.46779 0.65478 0.89434
 N796 N 0.49265 0.71645 0.89431
 C797 C 0.53297 0.75810 0.83097
 H798 H 0.52208 0.77677 0.83022
 C799 C 0.55401 0.75362 0.81379
 H800 H 0.55922 0.76881 0.79968
 C801 C 0.53966 0.71562 0.85038
 H802 H 0.53409 0.70091 0.86477
 C803 C 0.56094 0.71039 0.83367
 H804 H 0.57172 0.69169 0.83529
 Zn805 Zn 0.49681 0.74562 0.87126
 N806 N 0.52598 0.73907 0.84860
 C807 C 0.52560 0.78915 0.89176
 N808 N 0.50223 0.77677 0.89235
 C809 C 0.48306 0.78507 0.90944
 C810 C 0.48712 0.80627 0.92701
 C811 C 0.53042 0.81056 0.90892
 C812 C 0.46671 0.75146 0.82390
 C813 C 0.44381 0.75391 0.80914
 C814 C 0.41910 0.75140 0.84987
 C815 C 0.44247 0.74899 0.86388
 N816 N 0.46574 0.74946 0.85087
 H817 H 0.54091 0.78194 0.87867
 H818 H 0.46491 0.77468 0.91019
 H819 H 0.47198 0.81228 0.94097
 H820 H 0.54925 0.81992 0.90873
 H821 H 0.48516 0.75098 0.81365
 H822 H 0.44484 0.75562 0.78772
 H823 H 0.40073 0.75120 0.86047
 H824 H 0.44197 0.74617 0.88511
 C825 C 0.56800 0.72937 0.81482
 C826 C 0.48326 0.67506 0.92889
 C827 C 0.41970 0.75378 0.82217
 C828 C 0.51112 0.81897 0.92697
 C829 C 0.14187 0.24987 0.28925
 C830 C 0.14452 0.22694 0.27280
 C831 C 0.12530 0.20758 0.27314
 C832 C 0.10311 0.21102 0.28881
 C833 C 0.09958 0.23388 0.30476
 C834 C 0.11929 0.25335 0.30552
 C835 C 0.16159 0.26902 0.29042
 C836 C 0.15907 0.29126 0.30715
 C837 C 0.13714 0.29461 0.32322
 C838 C 0.11747 0.27582 0.32263
 H839 H 0.17922 0.26682 0.27875
 H840 H 0.17436 0.30580 0.30788
 H841 H 0.13546 0.31175 0.33641
 H842 H 0.10114 0.27891 0.33597
 H843 H 0.12737 0.18989 0.26074
 H844 H 0.08834 0.19589 0.28820
 C845 C 0.61395 0.69834 0.76225
 C846 C 0.63507 0.71592 0.76454
 C847 C 0.63331 0.73767 0.78209
 C848 C 0.61136 0.74175 0.79800
 C849 C 0.59042 0.72427 0.79673
 C850 C 0.59136 0.70257 0.77837
 C851 C 0.61454 0.67709 0.74367
 C852 C 0.59341 0.66022 0.74114
 C853 C 0.57126 0.66440 0.75673
 C854 C 0.57007 0.68545 0.77505
 H855 H 0.63109 0.67356 0.73070
 H856 H 0.59410 0.64399 0.72679
 H857 H 0.55480 0.65142 0.75444
 H858 H 0.55221 0.68834 0.78622
 H859 H 0.64933 0.75131 0.78373
 H860 H 0.61086 0.75851 0.81176
 C861 C 0.35310 0.74073 0.79073
 C862 C 0.34936 0.76492 0.77679
 C863 C 0.36818 0.78466 0.77852
 C864 C 0.39080 0.78058 0.79324
 C865 C 0.39525 0.75666 0.80681
 C866 C 0.37642 0.73636 0.80554
 C867 C 0.33396 0.72093 0.79057
 C868 C 0.33816 0.69690 0.80376
 C869 C 0.36136 0.69218 0.81736
 C870 C 0.38037 0.71165 0.81829
 H871 H 0.31555 0.72391 0.78052
 H872 H 0.32335 0.68183 0.80338
 H873 H 0.36459 0.67338 0.82735
 H874 H 0.39815 0.70707 0.82895
 H875 H 0.36549 0.80320 0.76791
 H876 H 0.40501 0.79626 0.79407
 C877 C -0.10558 0.27593 0.24554
 C878 C -0.13089 0.28145 0.25628
 C879 C -0.13364 0.28389 0.28400
 C880 C -0.11285 0.27882 0.30094
 C881 C -0.08826 0.27155 0.29097
 C882 C -0.08422 0.27067 0.26306
 C883 C -0.10042 0.27784 0.21801
 C884 C -0.07553 0.27279 0.20784
 C885 C -0.05501 0.26669 0.22484
 C886 C -0.05911 0.26604 0.25219
 H887 H -0.11514 0.28431 0.20407
 H888 H -0.07202 0.27419 0.18669
 H889 H -0.03564 0.26318 0.21685
 H890 H -0.04228 0.26259 0.26464
 H891 H -0.15250 0.28830 0.29284
 H892 H -0.11615 0.27999 0.32220
 C893 C -0.13268 0.75692 0.21238
 C894 C -0.14119 0.73052 0.21757
 C895 C -0.12864 0.70905 0.20421
 C896 C -0.10669 0.71290 0.18855
 C897 C -0.09651 0.73832 0.18552
 C898 C -0.10976 0.76069 0.19689
 C899 C -0.14744 0.77973 0.22040
 C900 C -0.13863 0.80536 0.21553
 C901 C -0.11543 0.80891 0.20187
 C902 C -0.10123 0.78687 0.19229
 H903 H -0.16638 0.77816 0.22955
 H904 H -0.15010 0.82257 0.22204
 H905 H -0.10876 0.82886 0.19802
 H906 H -0.08390 0.79060 0.18076
 H907 H -0.13474 0.68876 0.20726
 H908 H -0.09697 0.69572 0.17947
 C909 C 0.36226 0.25844 0.70909
 C910 C 0.35372 0.23209 0.71429
 C911 C 0.36596 0.21060 0.70068
 C912 C 0.38795 0.21437 0.68506
 C913 C 0.39836 0.23972 0.68219
 C914 C 0.38505 0.26217 0.69340
 C915 C 0.34768 0.28123 0.71745
 C916 C 0.35637 0.30686 0.71239
 C917 C 0.37930 0.31040 0.69823
 C918 C 0.39338 0.28836 0.68848
 H919 H 0.32896 0.27960 0.72708
 H920 H 0.34503 0.32406 0.71912
 H921 H 0.38583 0.33035 0.69415
 H922 H 0.41042 0.29210 0.67652
 H923 H 0.35978 0.19035 0.70371
 H924 H 0.39765 0.19711 0.67610
 C925 C 0.60305 0.28093 0.74901
 C926 C 0.62843 0.28631 0.73896
 C927 C 0.63161 0.28898 0.71133
 C928 C 0.61131 0.28409 0.69385
 C929 C 0.58695 0.27650 0.70318
 C930 C 0.58239 0.27539 0.73093
 C931 C 0.59711 0.28307 0.77641
 C932 C 0.57226 0.27766 0.78589
 C933 C 0.55255 0.27088 0.76833
 C934 C 0.55736 0.27012 0.74108
 H935 H 0.61114 0.28999 0.79073
 H936 H 0.56816 0.27920 0.80697
 H937 H 0.53324 0.26694 0.77580
 H938 H 0.54113 0.26600 0.72811
 H939 H 0.65044 0.29331 0.70290
 H940 H 0.61489 0.28548 0.67268
 C941 C 0.14626 0.77648 0.19805
 C942 C 0.14197 0.77724 0.22586
 C943 C 0.11668 0.77462 0.23579
 C944 C 0.09565 0.77170 0.21870
 C945 C 0.09927 0.77122 0.19111
 C946 C 0.12469 0.77393 0.18048
 C947 C 0.17161 0.77773 0.18732
 C948 C 0.17552 0.77771 0.15989
 C949 C 0.15436 0.77637 0.14270
 C950 C 0.12916 0.77450 0.15279
 H951 H 0.18860 0.77845 0.19994
 H952 H 0.19506 0.77881 0.15192
 H953 H 0.15751 0.77664 0.12143
 H954 H 0.11329 0.77366 0.13872
 H955 H 0.11323 0.77519 0.25703
 H956 H 0.07635 0.76961 0.22708
 C957 C 0.26194 0.10960 0.22689
 C958 C 0.27172 0.13581 0.22678
 C959 C 0.29834 0.13974 0.23071
 C960 C 0.31519 0.11829 0.23575
 C961 C 0.30587 0.09227 0.23701
 C962 C 0.27912 0.08762 0.23211
 C963 C 0.23557 0.10471 0.22113
 C964 C 0.22621 0.07879 0.22103
 C965 C 0.24294 0.05730 0.22627
 C966 C 0.26919 0.06155 0.23159
 H967 H 0.22206 0.12071 0.21622
 H968 H 0.20593 0.07533 0.21659
 H969 H 0.23560 0.03721 0.22592
 H970 H 0.28159 0.04421 0.23490
 H971 H 0.30597 0.15972 0.23039
 H972 H 0.33563 0.12204 0.23915
 C973 C 0.75677 0.60033 0.72302
 C974 C 0.76621 0.62662 0.72539
 C975 C 0.79248 0.63046 0.73144
 C976 C 0.80925 0.60883 0.73595
 C977 C 0.80024 0.58269 0.73461
 C978 C 0.77387 0.57817 0.72786
 C979 C 0.73093 0.59556 0.71507
 C980 C 0.72193 0.56959 0.71265
 C981 C 0.73852 0.54795 0.71770
 C982 C 0.76431 0.55208 0.72505
 H983 H 0.71757 0.61170 0.71018
 H984 H 0.70204 0.56623 0.70658
 H985 H 0.73146 0.52784 0.71560
 H986 H 0.77669 0.53468 0.72816
 H987 H 0.79992 0.65047 0.73303
 H988 H 0.82942 0.61252 0.74085
 C989 C 0.79708 0.34421 0.77155
 C990 C 0.76977 0.34946 0.76917
 C991 C 0.76129 0.37518 0.76179
 C992 C 0.77869 0.39589 0.75939
 C993 C 0.80533 0.39172 0.76377
 C994 C 0.81491 0.36558 0.76912
 C995 C 0.80727 0.31794 0.77404
 C996 C 0.83401 0.31306 0.77603
 C997 C 0.85126 0.33402 0.77467
 C998 C 0.84193 0.35998 0.77085
 H999 H 0.79494 0.30076 0.77340
 H1000 H 0.84143 0.29282 0.77809
 H1001 H 0.87202 0.33005 0.77586
 H1002 H 0.85617 0.37538 0.76856
 H1003 H 0.74075 0.37986 0.75952
 H1004 H 0.77112 0.41566 0.75485
 C1005 C 0.26508 -0.11354 0.30690
 C1006 C 0.25763 -0.12954 0.28471
 C1007 C 0.26719 -0.12319 0.25942
 C1008 C 0.28561 -0.10356 0.25617
 C1009 C 0.29477 -0.08895 0.27793
 C1010 C 0.28384 -0.09318 0.30346
 C1011 C 0.25273 -0.11571 0.33191
 C1012 C 0.25977 -0.09954 0.35330
 C1013 C 0.27853 -0.08025 0.35009
 C1014 C 0.29020 -0.07673 0.32539
 H1015 H 0.23682 -0.12908 0.33507
 H1016 H 0.25017 -0.10160 0.37232
 H1017 H 0.28359 -0.06744 0.36666
 H1018 H 0.30363 -0.06053 0.32359
 H1019 H 0.26167 -0.13474 0.24210
 H1020 H 0.29339 -0.10026 0.23646
 C1021 C 0.24141 -0.11241 0.73412
 C1022 C 0.23090 -0.13707 0.72519
 C1023 C 0.20426 -0.13783 0.71886
 C1024 C 0.18781 -0.11589 0.72328
 C1025 C 0.19732 -0.09213 0.73387
 C1026 C 0.22439 -0.08995 0.73885
 C1027 C 0.26859 -0.10873 0.73617
 C1028 C 0.27856 -0.08446 0.74467
 C1029 C 0.26188 -0.06301 0.75038
 C1030 C 0.23510 -0.06549 0.74712
 H1031 H 0.28255 -0.12402 0.73020
 H1032 H 0.29942 -0.08211 0.74628
 H1033 H 0.26977 -0.04410 0.75663
 H1034 H 0.22308 -0.04784 0.75049
 H1035 H 0.19568 -0.15610 0.71173
 H1036 H 0.16726 -0.11766 0.71891
 C1037 C 0.70363 0.35343 0.23124
 C1038 C 0.73046 0.35740 0.22637
 C1039 C 0.74006 0.38333 0.22648
 C1040 C 0.72348 0.40530 0.23040
 C1041 C 0.69674 0.40203 0.23434
 C1042 C 0.68658 0.37593 0.23518
 C1043 C 0.69353 0.32756 0.23312
 C1044 C 0.66714 0.32391 0.23820
 C1045 C 0.65045 0.34585 0.24188
 C1046 C 0.66001 0.37165 0.24059
 H1047 H 0.70592 0.30996 0.23115
 H1048 H 0.65965 0.30393 0.23956
 H1049 H 0.63003 0.34287 0.24605
 H1050 H 0.64647 0.38808 0.24423
 H1051 H 0.76057 0.38653 0.22296
 H1052 H 0.73152 0.42511 0.22992
 C1053 C 0.71852 0.64094 0.24417
 C1054 C 0.73605 0.64081 0.26587
 C1055 C 0.73565 0.61985 0.28401
 C1056 C 0.71868 0.59879 0.28065
 C1057 C 0.70149 0.59808 0.25907
 C1058 C 0.70106 0.61942 0.24071
 C1059 C 0.71734 0.66250 0.22638
 C1060 C 0.69966 0.66268 0.20538
 C1061 C 0.68262 0.64168 0.20195
 C1062 C 0.68310 0.62032 0.21950
 H1063 H 0.72972 0.67955 0.22871
 H1064 H 0.69898 0.67934 0.19185
 H1065 H 0.66876 0.64209 0.18577
 H1066 H 0.66905 0.60481 0.21646
 H1067 H 0.74882 0.61978 0.30079
 H1068 H 0.71907 0.58276 0.29494
 C1069 C 0.21892 0.14010 0.74532
 C1070 C 0.23479 0.14209 0.76843
 C1071 C 0.23194 0.12335 0.78868
 C1072 C 0.21557 0.10182 0.78566
 C1073 C 0.20042 0.09871 0.76276
 C1074 C 0.20134 0.11846 0.74267
 C1075 C 0.21827 0.16041 0.72600
 C1076 C 0.20169 0.15896 0.70417
 C1077 C 0.18472 0.13787 0.70155
 C1078 C 0.18416 0.11807 0.72074
 H1079 H 0.22969 0.17816 0.72789
 H1080 H 0.20153 0.17467 0.68956
 H1081 H 0.17144 0.13720 0.68488
 H1082 H 0.16955 0.10303 0.71849
 H1083 H 0.24356 0.12467 0.80658
 H1084 H 0.21495 0.08721 0.80137
 C1085 C 0.20786 0.26704 0.11864
 C1086 C 0.22673 0.26643 0.13910
 C1087 C 0.24872 0.28232 0.13723
 C1088 C 0.25211 0.29904 0.11561
 C1089 C 0.23369 0.30012 0.09513
 C1090 C 0.21121 0.28420 0.09656
 C1091 C 0.18590 0.25061 0.11949
 C1092 C 0.16724 0.25166 0.09940
 C1093 C 0.17013 0.26896 0.07816
 C1094 C 0.19187 0.28512 0.07666
 H1095 H 0.18305 0.23672 0.13549
 H1096 H 0.15043 0.23901 0.10032
 H1097 H 0.15549 0.26981 0.06273
 H1098 H 0.19330 0.29835 0.05989
 H1099 H 0.26323 0.28187 0.15283
 H1100 H 0.26938 0.31106 0.11469
 C1101 C 0.75649 0.78025 0.64547
 C1102 C 0.73310 0.76580 0.64636
 C1103 C 0.71511 0.76823 0.62563
 C1104 C 0.72019 0.78423 0.60384
 C1105 C 0.74332 0.79847 0.60228
 C1106 C 0.76179 0.79655 0.62313
 C1107 C 0.77456 0.77913 0.66652
 C1108 C 0.79774 0.79310 0.66522
 C1109 C 0.80329 0.80842 0.64306
 C1110 C 0.78555 0.81020 0.62216
 H1111 H 0.77087 0.76769 0.68420
 H1112 H 0.81149 0.79200 0.68148
 H1113 H 0.82139 0.81907 0.64211
 H1114 H 0.79066 0.82226 0.60529
 H1115 H 0.69719 0.75721 0.62619
 H1116 H 0.70593 0.78556 0.58804
 C1117 C 0.76358 0.78573 0.35780
 C1118 C 0.78442 0.76688 0.35726
 C1119 C 0.80169 0.76543 0.37865
 C1120 C 0.79809 0.78178 0.40095
 C1121 C 0.77717 0.80015 0.40239
 C1122 C 0.75998 0.80269 0.38043
 C1123 C 0.74655 0.78839 0.33599
 C1124 C 0.72639 0.80744 0.33641
 C1125 C 0.72303 0.82429 0.35835
 C1126 C 0.73969 0.82213 0.38012
 H1127 H 0.74884 0.77601 0.31837
 H1128 H 0.71347 0.80931 0.31953
 H1129 H 0.70753 0.83925 0.35842
 H1130 H 0.73671 0.83605 0.39644
 H1131 H 0.81782 0.75118 0.37817
 H1132 H 0.81148 0.77975 0.41747
 C1133 C 0.26509 0.28694 -0.14509
 C1134 C 0.28489 0.26706 -0.14316
 C1135 C 0.30010 0.26541 -0.12023
 C1136 C 0.29555 0.28282 -0.09890
 C1137 C 0.27564 0.30233 -0.09998
 C1138 C 0.26049 0.30489 -0.12342
 C1139 C 0.24995 0.28945 -0.16831
 C1140 C 0.23077 0.30942 -0.17024
 C1141 C 0.22647 0.32726 -0.14924
 C1142 C 0.24121 0.32517 -0.12605
 H1143 H 0.25293 0.27617 -0.18517
 H1144 H 0.21930 0.31118 -0.18819
 H1145 H 0.21173 0.34287 -0.15096
 H1146 H 0.23754 0.33975 -0.11044
 H1147 H 0.31538 0.25029 -0.11881
 H1148 H 0.30733 0.28073 -0.08117
 C1149 C 0.71827 0.24309 -0.10859
 C1150 C 0.71409 0.23283 -0.13453
 C1151 C 0.71275 0.20524 -0.13855
 C1152 C 0.71644 0.18770 -0.11756
 C1153 C 0.72158 0.19726 -0.09190
 C1154 C 0.72213 0.22517 -0.08708
 C1155 C 0.71789 0.27081 -0.10344
 C1156 C 0.72175 0.28067 -0.07778
 C1157 C 0.72569 0.26319 -0.05677
 C1158 C 0.72570 0.23570 -0.06124
 H1159 H 0.71416 0.28509 -0.11901
 H1160 H 0.72143 0.30199 -0.07412
 H1161 H 0.72844 0.27098 -0.03686
 H1162 H 0.72817 0.22288 -0.04423
 H1163 H 0.70929 0.19728 -0.15829
 H1164 H 0.71574 0.16643 -0.12144
 C1165 C 0.22958 0.70530 0.35530
 C1166 C 0.22184 0.73218 0.36022
 C1167 C 0.21833 0.74120 0.38640
 C1168 C 0.22150 0.72387 0.40765
 C1169 C 0.22828 0.69699 0.40331
 C1170 C 0.23272 0.68749 0.37701
 C1171 C 0.23508 0.69596 0.32931
 C1172 C 0.24294 0.66952 0.32475
 C1173 C 0.24581 0.65205 0.34592
 C1174 C 0.24096 0.66090 0.37185
 H1175 H 0.23383 0.70900 0.31237
 H1176 H 0.24706 0.66262 0.30471
 H1177 H 0.25213 0.63162 0.34226
 H1178 H 0.24406 0.64682 0.38774
 H1179 H 0.21267 0.76179 0.39031
 H1180 H 0.21832 0.73141 0.42767
 C1181 C 0.27381 0.73900 0.61455
 C1182 C 0.26976 0.72862 0.64028
 C1183 C 0.26292 0.70194 0.64313
 C1184 C 0.25910 0.68570 0.62094
 C1185 C 0.26204 0.69571 0.59524
 C1186 C 0.26985 0.72244 0.59180
 C1187 C 0.28250 0.76525 0.61098
 C1188 C 0.28669 0.77514 0.58556
 C1189 C 0.28269 0.75904 0.56332
 C1190 C 0.27453 0.73288 0.56630
 H1191 H 0.28656 0.77819 0.62771
 H1192 H 0.29334 0.79533 0.58312
 H1193 H 0.28621 0.76678 0.54365
 H1194 H 0.27230 0.72089 0.54850
 H1195 H 0.26006 0.69382 0.66277
 H1196 H 0.25341 0.66524 0.62381
 C1197 C 0.79535 0.23158 0.10849
 C1198 C 0.77930 0.23164 0.13139
 C1199 C 0.75819 0.21450 0.13255
 C1200 C 0.75315 0.19687 0.11175
 C1201 C 0.76901 0.19593 0.08907
 C1202 C 0.79015 0.21364 0.08707
 C1203 C 0.81592 0.24962 0.10606
 C1204 C 0.83126 0.24982 0.08317
 C1205 C 0.82617 0.23240 0.06220
 C1206 C 0.80573 0.21459 0.06395
 H1207 H 0.82012 0.26396 0.12158
 H1208 H 0.84699 0.26377 0.08157
 H1209 H 0.83796 0.23287 0.04436
 H1210 H 0.80209 0.20193 0.04690
 H1211 H 0.74570 0.21464 0.14992
 H1212 H 0.73681 0.18363 0.11346
 C1213 C 0.48166 0.40172 0.54670
 C1214 C 0.48063 0.39780 0.51879
 C1215 C 0.48420 0.37211 0.50813
 C1216 C 0.48773 0.35022 0.52462
 C1217 C 0.48771 0.35339 0.55229
 C1218 C 0.48504 0.37930 0.56362
 C1219 C 0.48020 0.42752 0.55811
 C1220 C 0.48132 0.43110 0.58560
 C1221 C 0.48428 0.40918 0.60217
 C1222 C 0.48630 0.38350 0.59138
 H1223 H 0.47866 0.44516 0.54599
 H1224 H 0.48013 0.45101 0.59409
 H1225 H 0.48531 0.41211 0.62348
 H1226 H 0.48919 0.36709 0.60493
 H1227 H 0.48366 0.36898 0.48681
 H1228 H 0.49001 0.33053 0.51575
 C1229 C -0.02625 0.90640 0.05311
 C1230 C -0.01744 0.90548 0.02622
 C1231 C -0.00203 0.88348 0.01777
 C1232 C 0.00197 0.86152 0.03403
 C1233 C -0.00870 0.86087 0.05962
 C1234 C -0.02197 0.88387 0.06983
 C1235 C -0.03749 0.92988 0.06435
 C1236 C -0.04570 0.93067 0.09077
 C1237 C -0.04219 0.90847 0.10679
 C1238 C -0.03013 0.88540 0.09664
 H1239 H -0.03917 0.94818 0.05325
 H1240 H -0.05436 0.94881 0.09899
 H1241 H -0.04826 0.90934 0.12740
 H1242 H -0.02665 0.86914 0.11022
 H1243 H 0.00529 0.88219 -0.00239
 H1244 H 0.01257 0.84432 0.02606
 C1245 C 0.05379 0.63441 0.01556
 C1246 C 0.03294 0.61688 0.00964
 C1247 C 0.00812 0.62295 0.02026
 C1248 C 0.00410 0.64433 0.03768
 C1249 C 0.02459 0.66076 0.04492
 C1250 C 0.04970 0.65592 0.03399
 C1251 C 0.07803 0.63242 0.00222
 C1252 C 0.09840 0.64919 0.00889
 C1253 C 0.09495 0.66871 0.02845
 C1254 C 0.07080 0.67229 0.04078
 H1255 H 0.08133 0.61862 -0.01411
 H1256 H 0.11690 0.64715 -0.00134
 H1257 H 0.11088 0.68156 0.03366
 H1258 H 0.06878 0.68809 0.05548
 H1259 H -0.00820 0.61022 0.01614
 H1260 H -0.01524 0.64805 0.04572
 C1261 C 0.55424 0.12969 0.51991
 C1262 C 0.53577 0.10906 0.51936
 C1263 C 0.51341 0.11131 0.53523
 C1264 C 0.50914 0.13345 0.55167
 C1265 C 0.52714 0.15406 0.55277
 C1266 C 0.55022 0.15207 0.53723
 C1267 C 0.57633 0.12890 0.50317
 C1268 C 0.59479 0.14889 0.50455
 C1269 C 0.59156 0.17003 0.52245
 C1270 C 0.56953 0.17171 0.53866
 H1271 H 0.57945 0.11310 0.48869
 H1272 H 0.61173 0.14793 0.49172
 H1273 H 0.60612 0.18532 0.52365
 H1274 H 0.56790 0.18840 0.55238
 H1275 H 0.49918 0.09566 0.53488
 H1276 H 0.49141 0.13472 0.56335
 C1277 C -0.00230 0.10848 0.46054
 C1278 C -0.02496 0.10822 0.47656
 C1279 C -0.04375 0.12862 0.47418
 C1280 C -0.03994 0.14979 0.45700
 C1281 C -0.01726 0.15109 0.44156
 C1282 C 0.00157 0.13001 0.44276
 C1283 C 0.01627 0.08739 0.46134
 C1284 C 0.03828 0.08755 0.44509
 C1285 C 0.04203 0.10845 0.42757
 C1286 C 0.02383 0.12942 0.42621
 H1287 H 0.01376 0.07045 0.47418
 H1288 H 0.05237 0.07122 0.44588
 H1289 H 0.05901 0.10829 0.41478
 H1290 H 0.02721 0.14486 0.41182
 H1291 H -0.06122 0.12838 0.48626
 H1292 H -0.05458 0.16562 0.45614
 C1293 C 0.44708 0.62711 0.97430
 C1294 C 0.46870 0.61243 0.98501
 C1295 C 0.49402 0.62025 0.97828
 C1296 C 0.49821 0.64035 0.96003
 C1297 C 0.47732 0.65357 0.94780
 C1298 C 0.45148 0.64732 0.95506
 C1299 C 0.42141 0.62397 0.98389
 C1300 C 0.40053 0.63838 0.97313
 C1301 C 0.40474 0.65691 0.95331
 C1302 C 0.42996 0.66171 0.94459
 H1303 H 0.41717 0.61131 1.00051
 H1304 H 0.38100 0.63550 0.98059
 H1305 H 0.38847 0.66820 0.94520
 H1306 H 0.43239 0.67721 0.93005
 H1307 H 0.51092 0.60981 0.98619
 H1308 H 0.51805 0.64535 0.95502
 C1309 C 0.52686 0.85502 0.99211
 C1310 C 0.52515 0.88185 0.98352
 C1311 C 0.52016 0.88721 0.95673
 C1312 C 0.51592 0.86658 0.93861
 C1313 C 0.51650 0.84001 0.94683
 C1314 C 0.52220 0.83393 0.97367
 C1315 C 0.53383 0.84866 1.01845
 C1316 C 0.53532 0.82218 1.02663
 C1317 C 0.53025 0.80158 1.00875
 C1318 C 0.52389 0.80729 0.98246
 H1319 H 0.53863 0.86394 1.03282
 H1320 H 0.54063 0.81760 1.04692
 H1321 H 0.53153 0.78107 1.01521
 H1322 H 0.52058 0.79067 0.96908
 H1323 H 0.51907 0.90764 0.94995
 H1324 H 0.51178 0.87139 0.91808
 C1325 C 0.00010 0.38876 0.46458
 C1326 C 0.02211 0.38793 0.48139
 C1327 C 0.03967 0.36634 0.47984
 C1328 C 0.03547 0.34530 0.46222
 C1329 C 0.01365 0.34536 0.44550
 C1330 C -0.00412 0.36744 0.44626
 C1331 C -0.01747 0.41072 0.46522
 C1332 C -0.03876 0.41176 0.44806
 C1333 C -0.04272 0.39116 0.42985
 C1334 C -0.02555 0.36925 0.42876
 H1335 H -0.01478 0.42732 0.47878
 H1336 H -0.05210 0.42874 0.44871
 H1337 H -0.05909 0.39224 0.41635
 H1338 H -0.02907 0.35405 0.41389
 H1339 H 0.05665 0.36578 0.49258
 H1340 H 0.04929 0.32868 0.46176
 C1341 C 0.38975 0.55143 0.47779
 C1342 C 0.38787 0.52387 0.47178
 C1343 C 0.36335 0.51225 0.47053
 C1344 C 0.34072 0.52755 0.47439
 C1345 C 0.34197 0.55497 0.47962
 C1346 C 0.36661 0.56716 0.48167
 C1347 C 0.41416 0.56348 0.48094
 C1348 C 0.41575 0.59055 0.48721
 C1349 C 0.39317 0.60598 0.49082
 C1350 C 0.36880 0.59446 0.48829
 H1351 H 0.43219 0.55213 0.47905
 H1352 H 0.43461 0.59955 0.48953
 H1353 H 0.39455 0.62693 0.49592
 H1354 H 0.35180 0.60707 0.49193
 H1355 H 0.36181 0.49112 0.46627
 H1356 H 0.32203 0.51798 0.47303
 C1357 C 0.84825 -0.00919 -0.02881
 C1358 C 0.87140 0.00169 -0.03957
 C1359 C 0.87102 0.02864 -0.04705
 C1360 C 0.84964 0.04522 -0.04173
 C1361 C 0.82738 0.03551 -0.02935
 C1362 C 0.82612 0.00786 -0.02367
 C1363 C 0.84584 -0.03693 -0.02501
 C1364 C 0.82288 -0.04742 -0.01509
 C1365 C 0.80158 -0.03073 -0.00956
 C1366 C 0.80296 -0.00344 -0.01413
 H1367 H 0.86118 -0.05096 -0.03057
 H1368 H 0.82143 -0.06871 -0.01223
 H1369 H 0.78367 -0.03908 -0.00229
 H1370 H 0.78546 0.00849 -0.01081
 H1371 H 0.88816 0.03761 -0.05540
 H1372 H 0.85088 0.06618 -0.04653
 C1373 C 0.59759 0.04542 0.02515
 C1374 C 0.60201 0.01752 0.02713
 C1375 C 0.62736 0.00703 0.02462
 C1376 C 0.64835 0.02368 0.02080
 C1377 C 0.64465 0.05137 0.01942
 C1378 C 0.61911 0.06254 0.02139
 C1379 C 0.57216 0.05660 0.02588
 C1380 C 0.56805 0.08406 0.02360
 C1381 C 0.58907 0.10081 0.02017
 C1382 C 0.61437 0.09024 0.01887
 H1383 H 0.55522 0.04430 0.02775
 H1384 H 0.54844 0.09237 0.02424
 H1385 H 0.58572 0.12209 0.01820
 H1386 H 0.63004 0.10391 0.01555
 H1387 H 0.63087 -0.01429 0.02591
 H1388 H 0.66774 0.01490 0.01908
 C1389 C 0.10729 0.53084 0.49440
 C1390 C 0.10089 0.52282 0.52076
 C1391 C 0.11553 0.53306 0.54203
 C1392 C 0.13716 0.54865 0.53765
 C1393 C 0.14507 0.55473 0.51188
 C1394 C 0.12997 0.54625 0.48997
 C1395 C 0.09064 0.52590 0.47262
 C1396 C 0.09735 0.53361 0.44699
 C1397 C 0.12027 0.54718 0.44255
 C1398 C 0.13630 0.55382 0.46381
 H1399 H 0.07180 0.51707 0.47514
 H1400 H 0.08445 0.52943 0.43054
 H1401 H 0.12528 0.55326 0.42264
 H1402 H 0.15334 0.56541 0.45960
 H1403 H 0.11120 0.52772 0.56233
 H1404 H 0.14832 0.55548 0.55458
 C1405 C 0.14496 0.49605 -0.02958
 C1406 C 0.11965 0.48520 -0.03289
 C1407 C 0.11730 0.45729 -0.03338
 C1408 C 0.13854 0.44046 -0.02845
 C1409 C 0.16309 0.45073 -0.02307
 C1410 C 0.16668 0.47868 -0.02412
 C1411 C 0.14972 0.52337 -0.03384
 C1412 C 0.17455 0.53364 -0.03061
 C1413 C 0.19539 0.51689 -0.02402
 C1414 C 0.19168 0.48962 -0.02121
 H1415 H 0.13473 0.53696 -0.04081
 H1416 H 0.17774 0.55466 -0.03376
 H1417 H 0.21468 0.52494 -0.02184
 H1418 H 0.20871 0.47723 -0.01741
 H1419 H 0.09849 0.44828 -0.03612
 H1420 H 0.13563 0.41911 -0.02818
 C1421 C 0.64891 0.99058 0.47559
 C1422 C 0.62387 0.97955 0.47098
 C1423 C 0.62193 0.95167 0.46894
 C1424 C 0.64322 0.93489 0.47386
 C1425 C 0.66742 0.94524 0.48065
 C1426 C 0.67069 0.97327 0.48089
 C1427 C 0.65336 1.01817 0.47282
 C1428 C 0.67794 1.02863 0.47723
 C1429 C 0.69884 1.01186 0.48355
 C1430 C 0.69545 0.98442 0.48497
 H1431 H 0.63831 1.03187 0.46615
 H1432 H 0.68089 1.04984 0.47519
 H1433 H 0.71795 1.02007 0.48662
 H1434 H 0.71256 0.97210 0.48859
 H1435 H 0.60333 0.94259 0.46510
 H1436 H 0.64059 0.91350 0.47309
 C1437 C 0.86278 0.99276 0.53165
 C1438 C 0.88890 0.98321 0.53102
 C1439 C 0.89411 0.95591 0.52756
 C1440 C 0.87394 0.93812 0.52376
 C1441 C 0.84792 0.94710 0.52343
 C1442 C 0.84207 0.97459 0.52793
 C1443 C 0.85680 1.01992 0.53671
 C1444 C 0.83099 1.02907 0.53781
 C1445 C 0.81074 1.01135 0.53429
 C1446 C 0.81611 0.98433 0.52959
 H1447 H 0.87192 1.03423 0.54025
 H1448 H 0.82668 1.04997 0.54171
 H1449 H 0.79074 1.01853 0.53547
 H1450 H 0.79974 0.97122 0.52769
 H1451 H 0.91405 0.94846 0.52732
 H1452 H 0.87869 0.91717 0.52059
 C1453 C 0.36190 0.49168 0.03166
 C1454 C 0.38766 0.48126 0.02941
 C1455 C 0.39177 0.45402 0.02436
 C1456 C 0.37084 0.43720 0.02046
 C1457 C 0.34517 0.44715 0.02155
 C1458 C 0.34044 0.47451 0.02767
 C1459 C 0.35702 0.51866 0.03859
 C1460 C 0.33158 0.52863 0.04105
 C1461 C 0.31060 0.51191 0.03706
 C1462 C 0.31488 0.48507 0.03062
 H1463 H 0.37272 0.53217 0.04259
 H1464 H 0.32812 0.54938 0.04635
 H1465 H 0.29089 0.51972 0.03926
 H1466 H 0.29801 0.47268 0.02839
 H1467 H 0.41143 0.44589 0.02291
 H1468 H 0.37471 0.41630 0.01604
 C1469 C 0.55025 0.49194 0.39520
 C1470 C 0.52353 0.48735 0.39029
 C1471 C 0.51430 0.48739 0.36414
 C1472 C 0.53121 0.49074 0.34284
 C1473 C 0.55790 0.49409 0.34707
 C1474 C 0.56763 0.49517 0.37341
 C1475 C 0.55993 0.49417 0.42134
 C1476 C 0.58624 0.49880 0.42590
 C1477 C 0.60329 0.50164 0.40462
 C1478 C 0.59414 0.50004 0.37859
 H1479 H 0.54727 0.49288 0.43844
 H1480 H 0.59341 0.50043 0.44606
 H1481 H 0.62366 0.50543 0.40831
 H1482 H 0.60793 0.50302 0.36267
 H1483 H 0.49387 0.48412 0.36023
 H1484 H 0.52352 0.49010 0.32281
 C1485 C 0.00975 0.00730 0.87180
 C1486 C 0.01284 -0.01580 0.88780
 C1487 C 0.03253 -0.03449 0.88112
 C1488 C 0.04872 -0.03082 0.85933
 C1489 C 0.04486 -0.00924 0.84212
 C1490 C 0.02401 0.00917 0.84755
 C1491 C -0.00673 0.02893 0.87943
 C1492 C -0.01221 0.04965 0.86190
 C1493 C -0.00124 0.04933 0.83662
 C1494 C 0.01671 0.02932 0.82942
 H1495 H -0.01512 0.03038 0.89910
 H1496 H -0.02530 0.06583 0.86785
 H1497 H -0.00623 0.06496 0.82272
 H1498 H 0.02463 0.02973 0.80951
 H1499 H 0.03548 -0.05227 0.89284
 H1500 H 0.06450 -0.04512 0.85600
 C1501 C 0.00646 0.03537 0.64208
 C1502 C 0.01604 0.03400 0.61565
 C1503 C 0.04279 0.03021 0.61119
 C1504 C 0.05995 0.02668 0.63232
 C1505 C 0.05083 0.02677 0.65854
 C1506 C 0.02396 0.03149 0.66371
 C1507 C -0.02001 0.04129 0.64751
 C1508 C -0.02917 0.04258 0.67361
 C1509 C -0.01216 0.03838 0.69473
 C1510 C 0.01420 0.03305 0.68994
 H1511 H -0.03377 0.04545 0.63179
 H1512 H -0.04954 0.04709 0.67748
 H1513 H -0.01936 0.03957 0.71494
 H1514 H 0.02684 0.03052 0.70695
 H1515 H 0.05031 0.02942 0.59107
 H1516 H 0.08047 0.02330 0.62817
 C1517 C 0.51617 0.54643 0.13486
 C1518 C 0.51598 0.52705 0.11422
 C1519 C 0.53215 0.50437 0.11591
 C1520 C 0.54917 0.50108 0.13720
 C1521 C 0.55042 0.52036 0.15748
 C1522 C 0.53349 0.54308 0.15673
 C1523 C 0.49894 0.56870 0.13457
 C1524 C 0.49897 0.58744 0.15523
 C1525 C 0.51582 0.58417 0.17663
 C1526 C 0.53282 0.56216 0.17757
 H1527 H 0.48507 0.57163 0.11868
 H1528 H 0.48564 0.60443 0.15476
 H1529 H 0.51554 0.59864 0.19274
 H1530 H 0.54507 0.56009 0.19491
 H1531 H 0.53187 0.48935 0.10031
 H1532 H 0.56181 0.48352 0.13764
 C1533 C 0.49432 -0.03844 0.14664
 C1534 C 0.48343 -0.03744 0.12083
 C1535 C 0.45654 -0.03368 0.11783
 C1536 C 0.44048 -0.02974 0.13988
 C1537 C 0.45084 -0.02954 0.16562
 C1538 C 0.47791 -0.03452 0.16926
 C1539 C 0.52109 -0.04400 0.15042
 C1540 C 0.53155 -0.04534 0.17594
 C1541 C 0.51555 -0.04155 0.19807
 C1542 C 0.48896 -0.03636 0.19488
 H1543 H 0.53407 -0.04777 0.13381
 H1544 H 0.55212 -0.04963 0.17857
 H1545 H 0.52374 -0.04290 0.21783
 H1546 H 0.47717 -0.03424 0.21264
 H1547 H 0.44809 -0.03314 0.09813
 H1548 H 0.41982 -0.02618 0.13682
 C1549 C 0.99052 0.44875 0.64172
 C1550 C 0.98915 0.46785 0.62122
 C1551 C 0.97238 0.49002 0.62389
 C1552 C 0.95612 0.49292 0.64594
 C1553 C 0.95628 0.47378 0.66606
 C1554 C 0.97405 0.45176 0.66442
 C1555 C 1.00842 0.42707 0.64040
 C1556 C 1.00995 0.40861 0.66092
 C1557 C 0.99400 0.41159 0.68319
 C1558 C 0.97632 0.43301 0.68510
 H1559 H 1.02162 0.42440 0.62376
 H1560 H 1.02380 0.39207 0.65967
 H1561 H 0.99551 0.39737 0.69919
 H1562 H 0.96481 0.43492 0.70306
 H1563 H 0.97143 0.50482 0.60836
 H1564 H 0.94280 0.50993 0.64699
 C1565 C 0.95119 0.51027 0.90340
 C1566 C 0.97810 0.51295 0.89804
 C1567 C 0.98720 0.51014 0.87191
 C1568 C 0.97007 0.50571 0.85103
 C1569 C 0.94325 0.50396 0.85561
 C1570 C 0.93357 0.50583 0.88200
 C1571 C 0.94151 0.51111 0.92965
 C1572 C 0.91501 0.50819 0.93470
 C1573 C 0.89777 0.50403 0.91382
 C1574 C 0.90688 0.50266 0.88771
 H1575 H 0.95430 0.51353 0.94651
 H1576 H 0.90785 0.50889 0.95495
 H1577 H 0.87726 0.50155 0.91790
 H1578 H 0.89290 0.49873 0.87217
 H1579 H 1.00776 0.51203 0.86763
 H1580 H 0.97775 0.50414 0.83099
 C1581 C 0.45675 0.00754 0.40514
 C1582 C 0.48362 0.01094 0.40004
 C1583 C 0.49276 0.01011 0.37382
 C1584 C 0.47564 0.00710 0.35264
 C1585 C 0.44884 0.00484 0.35704
 C1586 C 0.43917 0.00454 0.38347
 C1587 C 0.44710 0.00630 0.43135
 C1588 C 0.42065 0.00271 0.43613
 C1589 C 0.40343 -0.00007 0.41499
 C1590 C 0.41253 0.00064 0.38889
 H1591 H 0.45989 0.00760 0.44834
 H1592 H 0.41350 0.00181 0.45635
 H1593 H 0.38296 -0.00308 0.41885
 H1594 H 0.39858 -0.00226 0.37310
 H1595 H 0.51329 0.01252 0.36975
 H1596 H 0.48330 0.00713 0.33256
   
