data_POSCAR
  _audit_creation_date              2014-09-24
  _audit_creation_method            'ToBaCCo'
  _symmetry_space_group_name_H-M    'P1'
  _symmetry_Int_Tables_number       1
  _symmetry_cell_setting            triclinic
  loop_
  _symmetry_equiv_pos_as_xyz
 x,y,z
_cell_length_a 66.8470
_cell_length_b 66.7100
_cell_length_c 67.0243
_cell_angle_alpha 89.830700
_cell_angle_beta 90.037300
_cell_angle_gamma 90.322800
loop_
  _atom_site_label
  _atom_site_type_symbol
  _atom_site_fract_x
  _atom_site_fract_y
  _atom_site_fract_z
C1 C 0.18917 0.21994 0.21130
 C2 C 0.20013 0.22547 0.19430
 C3 C 0.21672 0.21455 0.18878
 C4 C 0.22259 0.19792 0.20019
 C5 C 0.21180 0.19249 0.21694
 C6 C 0.19496 0.20358 0.22254
 C7 C 0.17242 0.22779 0.22017
 N8 N 0.16789 0.21666 0.23663
 C9 C 0.18170 0.20181 0.23813
 C10 C 0.22087 0.17588 0.22503
 N11 N 0.23699 0.17109 0.21364
 C12 C 0.23811 0.18459 0.19840
 C13 C 0.22440 0.22331 0.17182
 N14 N 0.21293 0.23938 0.16689
 C15 C 0.19804 0.24075 0.18065
 H16 H 0.16404 0.24054 0.21479
 H17 H 0.18233 0.19065 0.24985
 H18 H 0.21584 0.16776 0.23810
 H19 H 0.24951 0.18495 0.18696
 H20 H 0.23728 0.21814 0.16358
 H21 H 0.18666 0.25221 0.18100
 C22 C 0.68878 0.71875 0.71112
 C23 C 0.69984 0.72440 0.69422
 C24 C 0.71645 0.71350 0.68872
 C25 C 0.72225 0.69679 0.70002
 C26 C 0.71136 0.69124 0.71668
 C27 C 0.69450 0.70230 0.72226
 C28 C 0.67201 0.72657 0.71999
 N29 N 0.66740 0.71533 0.73636
 C30 C 0.68118 0.70045 0.73780
 C31 C 0.72041 0.67460 0.72472
 N32 N 0.73661 0.66990 0.71340
 C33 C 0.73780 0.68349 0.69826
 C34 C 0.72427 0.72242 0.67189
 N35 N 0.71287 0.73856 0.66704
 C36 C 0.69788 0.73982 0.68070
 H37 H 0.66369 0.73938 0.71467
 H38 H 0.68178 0.68922 0.74946
 H39 H 0.71532 0.66640 0.73773
 H40 H 0.74928 0.68395 0.68690
 H41 H 0.73721 0.71730 0.66371
 H42 H 0.68653 0.75131 0.68109
 C43 C 0.30768 0.78171 0.71480
 C44 C 0.29721 0.77663 0.69739
 C45 C 0.28080 0.78772 0.69159
 C46 C 0.27461 0.80406 0.70315
 C47 C 0.28484 0.80897 0.72032
 C48 C 0.30153 0.79775 0.72620
 C49 C 0.32428 0.77375 0.72393
 N50 N 0.32839 0.78454 0.74066
 C51 C 0.31444 0.79924 0.74212
 C52 C 0.27552 0.82532 0.72849
 N53 N 0.25972 0.83067 0.71671
 C54 C 0.25923 0.81751 0.70112
 C55 C 0.27354 0.77933 0.67430
 N56 N 0.28509 0.76333 0.66946
 C57 C 0.29963 0.76164 0.68357
 H58 H 0.33291 0.76124 0.71848
 H59 H 0.31353 0.81017 0.75397
 H60 H 0.28044 0.83279 0.74192
 H61 H 0.24840 0.81722 0.68916
 H62 H 0.26084 0.78466 0.66583
 H63 H 0.31094 0.75011 0.68408
 C64 C 0.80860 0.27977 0.21555
 C65 C 0.79756 0.27388 0.19872
 C66 C 0.78115 0.28489 0.19277
 C67 C 0.77552 0.30193 0.20355
 C68 C 0.78643 0.30773 0.22009
 C69 C 0.80312 0.29657 0.22609
 C70 C 0.82518 0.27193 0.22479
 N71 N 0.83011 0.28354 0.24086
 C72 C 0.81645 0.29869 0.24157
 C73 C 0.77753 0.32461 0.22766
 N74 N 0.76139 0.32921 0.21618
 C75 C 0.76012 0.31535 0.20137
 C76 C 0.77343 0.27583 0.17602
 N77 N 0.78473 0.25951 0.17163
 C78 C 0.79952 0.25825 0.18553
 H79 H 0.83303 0.25880 0.21970
 H80 H 0.81574 0.31045 0.25259
 H81 H 0.78264 0.33299 0.24051
 H82 H 0.74861 0.31475 0.19002
 H83 H 0.76072 0.28103 0.16750
 H84 H 0.81080 0.24671 0.18622
 C85 C 0.81048 0.71704 0.28661
 C86 C 0.79913 0.72297 0.30315
 C87 C 0.78269 0.71177 0.30897
 C88 C 0.77733 0.69449 0.29833
 C89 C 0.78854 0.68865 0.28206
 C90 C 0.80527 0.70001 0.27620
 C91 C 0.82714 0.72507 0.27753
 N92 N 0.83238 0.71336 0.26169
 C93 C 0.81884 0.69794 0.26095
 C94 C 0.77982 0.67152 0.27455
 N95 N 0.76352 0.66683 0.28582
 C96 C 0.76195 0.68086 0.30042
 C97 C 0.77461 0.72097 0.32541
 N98 N 0.78572 0.73755 0.32976
 C99 C 0.80076 0.73884 0.31612
 H100 H 0.83479 0.73842 0.28258
 H101 H 0.81838 0.68604 0.25007
 H102 H 0.78514 0.66306 0.26189
 H103 H 0.75026 0.68144 0.31156
 H104 H 0.76175 0.71571 0.33376
 H105 H 0.81197 0.75058 0.31546
 C106 C 0.30926 0.21838 -0.21413
 C107 C 0.29822 0.22410 -0.19731
 C108 C 0.28190 0.21280 -0.19133
 C109 C 0.27636 0.19565 -0.20211
 C110 C 0.28718 0.19010 -0.21868
 C111 C 0.30383 0.20150 -0.22467
 C112 C 0.32586 0.22643 -0.22330
 N113 N 0.33088 0.21484 -0.23930
 C114 C 0.31723 0.19953 -0.24008
 C115 C 0.27827 0.17314 -0.22628
 N116 N 0.26215 0.16807 -0.21476
 C117 C 0.26108 0.18196 -0.19987
 C118 C 0.27406 0.22183 -0.17468
 N119 N 0.28518 0.23841 -0.17038
 C120 C 0.30001 0.23986 -0.18422
 H121 H 0.33374 0.23961 -0.21814
 H122 H 0.31661 0.18775 -0.25109
 H123 H 0.28362 0.16512 -0.23919
 H124 H 0.24980 0.18268 -0.18835
 H125 H 0.26132 0.21649 -0.16622
 H126 H 0.31115 0.25167 -0.18500
 C127 C 0.69218 0.28014 -0.21327
 C128 C 0.70308 0.27476 -0.19620
 C129 C 0.71920 0.28632 -0.19021
 C130 C 0.72467 0.30341 -0.20122
 C131 C 0.71398 0.30863 -0.21802
 C132 C 0.69754 0.29696 -0.22403
 C133 C 0.67576 0.27181 -0.22251
 N134 N 0.67079 0.28318 -0.23875
 C135 C 0.68428 0.29862 -0.23962
 C136 C 0.72273 0.32563 -0.22580
 N137 N 0.73864 0.33106 -0.21417
 C138 C 0.73974 0.31735 -0.19902
 C139 C 0.72691 0.27761 -0.17326
 N140 N 0.71590 0.26097 -0.16878
 C141 C 0.70128 0.25917 -0.18282
 H142 H 0.66795 0.25862 -0.21721
 H143 H 0.68490 0.31029 -0.25082
 H144 H 0.71740 0.33342 -0.23890
 H145 H 0.75087 0.31694 -0.18733
 H146 H 0.73947 0.28322 -0.16470
 H147 H 0.69028 0.24724 -0.18351
 C148 C 0.19286 0.78079 0.28702
 C149 C 0.20359 0.77553 0.30423
 C150 C 0.21989 0.78690 0.31009
 C151 C 0.22572 0.80370 0.29881
 C152 C 0.21525 0.80878 0.28184
 C153 C 0.19866 0.79728 0.27590
 C154 C 0.17629 0.77263 0.27789
 N155 N 0.17185 0.78375 0.26143
 C156 C 0.18557 0.79885 0.26014
 C157 C 0.22424 0.82558 0.27390
 N158 N 0.24008 0.83104 0.28562
 C159 C 0.24092 0.81751 0.30095
 C160 C 0.22743 0.77826 0.32716
 N161 N 0.21616 0.76184 0.33179
 C162 C 0.20152 0.76013 0.31778
 H163 H 0.16790 0.75976 0.28317
 H164 H 0.18620 0.81011 0.24851
 H165 H 0.21907 0.83326 0.26068
 H166 H 0.25188 0.81721 0.31279
 H167 H 0.24012 0.78371 0.33562
 H168 H 0.19037 0.74833 0.31715
 C169 C 0.46858 0.43990 0.46455
 C170 C 0.47410 0.45093 0.44756
 C171 C 0.46318 0.46756 0.44198
 C172 C 0.44657 0.47339 0.45330
 C173 C 0.44113 0.46252 0.47004
 C174 C 0.45222 0.44564 0.47571
 C175 C 0.47644 0.42311 0.47348
 N176 N 0.46532 0.41850 0.48988
 C177 C 0.45046 0.43229 0.49130
 C178 C 0.42455 0.47158 0.47804
 N179 N 0.41978 0.48776 0.46662
 C180 C 0.43326 0.48893 0.45144
 C181 C 0.47195 0.47531 0.42505
 N182 N 0.48799 0.46384 0.42021
 C183 C 0.48936 0.44889 0.43399
 H184 H 0.48919 0.41475 0.46817
 H185 H 0.43930 0.43284 0.50297
 H186 H 0.41644 0.46651 0.49110
 H187 H 0.43362 0.50040 0.44000
 H188 H 0.46678 0.48823 0.41677
 H189 H 0.50081 0.43749 0.43439
 C190 C -0.03066 -0.05865 0.96637
 C191 C -0.02533 -0.04782 0.94920
 C192 C -0.03679 -0.03176 0.94310
 C193 C -0.05373 -0.02629 0.95411
 C194 C -0.05892 -0.03691 0.97102
 C195 C -0.04735 -0.05331 0.97715
 C196 C -0.02240 -0.07501 0.97568
 N197 N -0.03365 -0.07998 0.99199
 C198 C -0.04898 -0.06654 0.99284
 C199 C -0.07578 -0.02813 0.97875
 N200 N -0.08113 -0.01228 0.96696
 C201 C -0.06752 -0.01126 0.95179
 C202 C -0.02815 -0.02411 0.92607
 N203 N -0.01164 -0.03509 0.92165
 C204 C -0.00986 -0.04964 0.93582
 H205 H -0.00934 -0.08282 0.97037
 H206 H -0.06054 -0.06596 1.00408
 H207 H -0.08353 -0.03337 0.99192
 H208 H -0.06706 -0.00019 0.94000
 H209 H -0.03372 -0.01161 0.91741
 H210 H 0.00198 -0.06061 0.93660
 C211 C 1.03135 0.56037 0.96227
 C212 C 1.02583 0.54964 0.94513
 C213 C 1.03716 0.53354 0.93900
 C214 C 1.05415 0.52792 0.94992
 C215 C 1.05951 0.53842 0.96678
 C216 C 1.04807 0.55486 0.97295
 C217 C 1.02324 0.57671 0.97167
 N218 N 1.03463 0.58148 0.98793
 C219 C 1.04988 0.56794 0.98866
 C220 C 1.07634 0.52950 0.97446
 N221 N 1.08152 0.51367 0.96268
 C222 C 1.06783 0.51280 0.94756
 C223 C 1.02834 0.52597 0.92206
 N224 N 1.01186 0.53705 0.91773
 C225 C 1.01027 0.55158 0.93184
 H226 H 1.01015 0.58460 0.96647
 H227 H 1.06151 0.56717 0.99983
 H228 H 1.08420 0.53464 0.98759
 H229 H 1.06724 0.50177 0.93581
 H230 H 1.03376 0.51345 0.91342
 H231 H 0.99848 0.56260 0.93265
 C232 C 0.53245 0.05997 0.46154
 C233 C 0.52717 0.04955 0.44415
 C234 C 0.53828 0.03324 0.43815
 C235 C 0.55484 0.02711 0.44945
 C236 C 0.55995 0.03726 0.46660
 C237 C 0.54871 0.05386 0.47269
 C238 C 0.52448 0.07643 0.47089
 N239 N 0.53550 0.08049 0.48750
 C240 C 0.55033 0.06664 0.48867
 C241 C 0.57644 0.02796 0.47455
 N242 N 0.58168 0.01224 0.46266
 C243 C 0.56832 0.01179 0.44722
 C244 C 0.52968 0.02598 0.42097
 N245 N 0.51350 0.03741 0.41638
 C246 C 0.51193 0.05190 0.43054
 H247 H 0.51181 0.08499 0.46569
 H248 H 0.56143 0.06571 0.50039
 H249 H 0.58407 0.03282 0.48791
 H250 H 0.56789 0.00099 0.43524
 H251 H 0.53497 0.01336 0.41241
 H252 H 0.50031 0.06310 0.43123
 C253 C -0.03036 0.05868 0.53688
 C254 C -0.02499 0.04758 0.55384
 C255 C -0.03616 0.03100 0.55939
 C256 C -0.05288 0.02526 0.54807
 C257 C -0.05816 0.03620 0.53136
 C258 C -0.04683 0.05303 0.52573
 C259 C -0.02230 0.07549 0.52799
 N260 N -0.03343 0.08019 0.51163
 C261 C -0.04847 0.06643 0.51019
 C262 C -0.07489 0.02725 0.52331
 N263 N -0.07991 0.01105 0.53467
 C264 C -0.06645 0.00977 0.54986
 C265 C -0.02752 0.02319 0.57633
 N266 N -0.01128 0.03457 0.58120
 C267 C -0.00968 0.04953 0.56743
 H268 H -0.00942 0.08381 0.53329
 H269 H -0.05968 0.06594 0.49856
 H270 H -0.08292 0.03241 0.51027
 H271 H -0.06627 -0.00174 0.56127
 H272 H -0.03291 0.01030 0.58459
 H273 H 0.00194 0.06087 0.56703
 C274 C 0.47011 0.55821 0.03635
 C275 C 0.47578 0.54689 0.05308
 C276 C 0.46449 0.53044 0.05884
 C277 C 0.44737 0.52507 0.04794
 C278 C 0.44179 0.53628 0.03151
 C279 C 0.45323 0.55300 0.02573
 C280 C 0.47822 0.57490 0.02731
 N281 N 0.46667 0.58014 0.01131
 C282 C 0.45130 0.56658 0.01042
 C283 C 0.42476 0.52764 0.02380
 N284 N 0.41984 0.51135 0.03506
 C285 C 0.43365 0.50973 0.04991
 C286 C 0.47341 0.52245 0.07554
 N287 N 0.48989 0.53361 0.08009
 C288 C 0.49141 0.54858 0.06633
 H289 H 0.49145 0.58265 0.03252
 H290 H 0.43956 0.56609 -0.00065
 H291 H 0.41649 0.53303 0.01099
 H292 H 0.43400 0.49805 0.06113
 H293 H 0.46800 0.50965 0.08393
 H294 H 0.50313 0.55982 0.06578
 C295 C 0.52928 -0.05833 0.03577
 C296 C 0.52310 -0.04673 0.05203
 C297 C 0.53458 -0.03060 0.05820
 C298 C 0.55239 -0.02581 0.04816
 C299 C 0.55851 -0.03732 0.03221
 C300 C 0.54690 -0.05373 0.02601
 C301 C 0.52108 -0.07477 0.02642
 N302 N 0.53333 -0.08038 0.01121
 C303 C 0.54919 -0.06748 0.01097
 C304 C 0.57601 -0.02905 0.02513
 N305 N 0.58067 -0.01268 0.03631
 C306 C 0.56627 -0.01068 0.05050
 C307 C 0.52514 -0.02234 0.07443
 N308 N 0.50821 -0.03307 0.07833
 C309 C 0.50686 -0.04798 0.06457
 H310 H 0.50702 -0.08183 0.03036
 H311 H 0.56174 -0.06806 0.00082
 H312 H 0.58466 -0.03463 0.01272
 H313 H 0.56555 0.00122 0.06140
 H314 H 0.53058 -0.00974 0.08305
 H315 H 0.49493 -0.05897 0.06364
 C316 C 1.03045 0.44265 0.53664
 C317 C 1.02463 0.45383 0.55332
 C318 C 1.03628 0.46976 0.55967
 C319 C 1.05389 0.47479 0.54937
 C320 C 1.05958 0.46379 0.53297
 C321 C 1.04784 0.44753 0.52661
 C322 C 1.02211 0.42637 0.52715
 N323 N 1.03406 0.42108 0.51159
 C324 C 1.04986 0.43407 0.51125
 C325 C 1.07689 0.47227 0.52571
 N326 N 1.08206 0.48834 0.53725
 C327 C 1.06790 0.48975 0.55187
 C328 C 1.02713 0.47768 0.57624
 N329 N 1.01020 0.46695 0.58014
 C330 C 1.00860 0.45234 0.56609
 H331 H 1.00820 0.41915 0.53129
 H332 H 1.06223 0.43369 0.50087
 H333 H 1.08498 0.46674 0.51293
 H334 H 1.06717 0.50111 0.56330
 H335 H 1.03270 0.49011 0.58501
 H336 H 0.99657 0.44147 0.56504
 C337 C 0.40314 0.01194 0.22044
 H338 H 0.40348 0.02609 0.22829
 C339 C 0.41565 0.00897 0.20406
 H340 H 0.42568 0.02089 0.19941
 C341 C 0.39000 -0.02098 0.21738
 H342 H 0.38017 -0.03270 0.22278
 C343 C 0.40238 -0.02465 0.20103
 H344 H 0.40169 -0.03911 0.19375
 N345 N 0.39045 -0.00283 0.22659
 C346 C 0.34502 0.03051 0.25910
 H347 H 0.34547 0.02287 0.27336
 C348 C 0.33191 0.04648 0.25619
 H349 H 0.32223 0.05105 0.26828
 C350 C 0.35670 0.03339 0.22583
 H351 H 0.36614 0.02806 0.21394
 C352 C 0.34368 0.04930 0.22222
 H353 H 0.34355 0.05634 0.20764
 Zn354 Zn 0.37431 0.00245 0.24914
 N355 N 0.35729 0.02450 0.24412
 C356 C 0.39203 0.02617 0.27977
 N357 N 0.39185 0.00798 0.27066
 C358 C 0.40491 -0.00661 0.27607
 C359 C 0.41840 -0.00345 0.29167
 C360 C 0.40537 0.03004 0.29536
 C361 C 0.34395 -0.02516 0.24093
 C362 C 0.33094 -0.04126 0.24426
 C363 C 0.34603 -0.04596 0.27669
 C364 C 0.35872 -0.02972 0.27275
 N365 N 0.35764 -0.01985 0.25499
 H366 H 0.38204 0.03784 0.27482
 H367 H 0.40470 -0.02082 0.26833
 H368 H 0.42828 -0.01548 0.29605
 H369 H 0.40543 0.04470 0.30223
 H370 H 0.34323 -0.01688 0.22704
 H371 H 0.32040 -0.04547 0.23271
 H372 H 0.34700 -0.05354 0.29096
 H373 H 0.36927 -0.02493 0.28400
 C374 C 0.33115 0.05608 0.23755
 C375 C 0.41535 -0.00953 0.19413
 C376 C 0.33192 -0.05194 0.26231
 C377 C 0.41874 0.01508 0.30159
 C378 C 0.09404 -0.00990 0.72385
 H379 H 0.09366 -0.02393 0.73199
 C380 C 0.08112 -0.00692 0.70776
 H381 H 0.07075 -0.01872 0.70358
 C382 C 0.10769 0.02272 0.71977
 H383 H 0.11790 0.03432 0.72465
 C384 C 0.09488 0.02642 0.70372
 H385 H 0.09559 0.04076 0.69614
 N386 N 0.10720 0.00470 0.72932
 C387 C 0.15400 -0.02795 0.76082
 H388 H 0.15446 -0.01959 0.77462
 C389 C 0.16704 -0.04395 0.75793
 H390 H 0.17734 -0.04800 0.76972
 C391 C 0.13991 -0.03278 0.72872
 H392 H 0.12965 -0.02811 0.71719
 C393 C 0.15265 -0.04890 0.72523
 H394 H 0.15199 -0.05652 0.71100
 Zn395 Zn 0.12399 -0.00053 0.75145
 N396 N 0.14064 -0.02282 0.74640
 C397 C 0.10740 -0.02365 0.78320
 N398 N 0.10715 -0.00565 0.77360
 C399 C 0.09420 0.00900 0.77903
 C400 C 0.08124 0.00609 0.79512
 C401 C 0.09455 -0.02727 0.79925
 C402 C 0.15456 0.02657 0.74208
 C403 C 0.16795 0.04244 0.74495
 C404 C 0.15355 0.04773 0.77755
 C405 C 0.14048 0.03170 0.77408
 N406 N 0.14106 0.02164 0.75647
 H407 H 0.11742 -0.03529 0.77835
 H408 H 0.09401 0.02301 0.77086
 H409 H 0.07103 0.01792 0.79923
 H410 H 0.09509 -0.04159 0.80688
 H411 H 0.15488 0.01813 0.72833
 H412 H 0.17838 0.04632 0.73319
 H413 H 0.15299 0.05545 0.79172
 H414 H 0.13008 0.02721 0.78559
 C415 C 0.16644 -0.05469 0.73995
 C416 C 0.08147 0.01143 0.69747
 C417 C 0.16751 0.05329 0.76286
 C418 C 0.08134 -0.01223 0.80546
 C419 C 0.59524 0.48877 0.22254
 H420 H 0.59517 0.47455 0.23033
 C421 C 0.58244 0.49178 0.20636
 H422 H 0.57245 0.47980 0.20179
 C423 C 0.60800 0.52185 0.21942
 H424 H 0.61777 0.53363 0.22473
 C425 C 0.59531 0.52556 0.20328
 H426 H 0.59572 0.54009 0.19604
 N427 N 0.60791 0.50359 0.22852
 C428 C 0.65359 0.46975 0.26039
 H429 H 0.65338 0.47740 0.27460
 C430 C 0.66651 0.45367 0.25744
 H431 H 0.67629 0.44902 0.26945
 C432 C 0.64148 0.46698 0.22726
 H433 H 0.63197 0.47243 0.21542
 C434 C 0.65431 0.45095 0.22361
 H435 H 0.65422 0.44391 0.20907
 Zn436 Zn 0.62459 0.49814 0.25070
 N437 N 0.64120 0.47588 0.24550
 C438 C 0.60703 0.47462 0.28170
 N439 N 0.60756 0.49292 0.27269
 C440 C 0.59522 0.50791 0.27860
 C441 C 0.58215 0.50503 0.29459
 C442 C 0.59405 0.47103 0.29765
 C443 C 0.65450 0.52597 0.24130
 C444 C 0.66786 0.54182 0.24434
 C445 C 0.65524 0.54503 0.27794
 C446 C 0.64203 0.52918 0.27421
 N447 N 0.64174 0.52016 0.25604
 H448 H 0.61652 0.46270 0.27644
 H449 H 0.59563 0.52218 0.27088
 H450 H 0.57245 0.51715 0.29910
 H451 H 0.59398 0.45645 0.30481
 H452 H 0.65418 0.51830 0.22710
 H453 H 0.67754 0.54648 0.23223
 H454 H 0.65544 0.55181 0.29260
 H455 H 0.63228 0.52392 0.28597
 C456 C 0.66696 0.44405 0.23885
 C457 C 0.58241 0.51036 0.19649
 C458 C 0.66836 0.55161 0.26287
 C459 C 0.58149 0.48640 0.30436
 C460 C 0.90335 0.51115 0.72124
 H461 H 0.90357 0.52524 0.72918
 C462 C 0.91616 0.50825 0.70508
 H463 H 0.92629 0.52018 0.70068
 C464 C 0.89023 0.47826 0.71777
 H465 H 0.88029 0.46653 0.72292
 C466 C 0.90291 0.47466 0.70162
 H467 H 0.90234 0.46026 0.69424
 N468 N 0.89055 0.49635 0.72709
 C469 C 0.84461 0.52944 0.75912
 H470 H 0.84487 0.52171 0.77333
 C471 C 0.83151 0.54540 0.75613
 H472 H 0.82165 0.54987 0.76811
 C473 C 0.85677 0.53258 0.72605
 H474 H 0.86641 0.52735 0.71426
 C475 C 0.84377 0.54848 0.72235
 H476 H 0.84383 0.55562 0.70782
 Zn477 Zn 0.87409 0.50152 0.74943
 N478 N 0.85711 0.52357 0.74428
 C479 C 0.89133 0.52514 0.78042
 N480 N 0.89134 0.50700 0.77120
 C481 C 0.90438 0.49243 0.77670
 C482 C 0.91765 0.49555 0.79249
 C483 C 0.90444 0.52896 0.79620
 C484 C 0.84380 0.47392 0.74084
 C485 C 0.83067 0.45790 0.74407
 C486 C 0.84542 0.45319 0.77665
 C487 C 0.85823 0.46935 0.77281
 N488 N 0.85737 0.47920 0.75503
 H489 H 0.88136 0.53680 0.77540
 H490 H 0.90432 0.47826 0.76888
 H491 H 0.92752 0.48353 0.79693
 H492 H 0.90435 0.54358 0.80316
 H493 H 0.84324 0.48219 0.72694
 H494 H 0.82019 0.45374 0.73245
 H495 H 0.84621 0.44564 0.79095
 H496 H 0.86867 0.47412 0.78417
 C497 C 0.83100 0.55513 0.73754
 C498 C 0.91603 0.48981 0.69504
 C499 C 0.83141 0.44726 0.76217
 C500 C 0.91778 0.51402 0.80252
 C501 C 0.22187 0.40637 0.00638
 H502 H 0.23002 0.40652 0.02033
 C503 C 0.20614 0.41971 0.00335
 H504 H 0.20210 0.42995 0.01516
 C505 C 0.21728 0.39273 -0.02591
 H506 H 0.22194 0.38251 -0.03745
 C507 C 0.20141 0.40577 -0.02956
 H508 H 0.19396 0.40539 -0.04390
 N509 N 0.22699 0.39309 -0.00807
 C510 C 0.25778 0.34612 0.02502
 H511 H 0.27198 0.34613 0.01728
 C512 C 0.25456 0.33297 0.04094
 H513 H 0.26654 0.32314 0.04555
 C514 C 0.22511 0.35925 0.02844
 H515 H 0.21355 0.36926 0.02329
 C516 C 0.22118 0.34623 0.04435
 H517 H 0.20654 0.34638 0.05124
 Zn518 Zn 0.24891 0.37606 -0.00268
 N519 N 0.24326 0.35910 0.01928
 C520 C 0.28004 0.39265 0.02121
 N521 N 0.27116 0.39280 0.00295
 C522 C 0.27733 0.40565 -0.01160
 C523 C 0.29343 0.41863 -0.00827
 C524 C 0.29612 0.40547 0.02524
 C525 C 0.23954 0.34644 -0.03063
 C526 C 0.24262 0.33341 -0.04657
 C527 C 0.27632 0.34634 -0.04962
 C528 C 0.27253 0.35925 -0.03372
 N529 N 0.25428 0.35924 -0.02473
 H530 H 0.27451 0.38283 0.03282
 H531 H 0.26978 0.40570 -0.02588
 H532 H 0.29839 0.42838 -0.02024
 H533 H 0.30278 0.40531 0.03996
 H534 H 0.22533 0.34640 -0.02291
 H535 H 0.23071 0.32331 -0.05104
 H536 H 0.29085 0.34668 -0.05674
 H537 H 0.28426 0.36910 -0.02847
 C538 C 0.23604 0.33288 0.05086
 C539 C 0.19565 0.41949 -0.01481
 C540 C 0.26121 0.33327 -0.05629
 C541 C 0.30309 0.41865 0.01036
 C542 C 0.72270 0.09477 -0.00834
 H543 H 0.73051 0.09482 -0.02247
 C544 C 0.70662 0.08168 -0.00528
 H545 H 0.70214 0.07161 -0.01713
 C546 C 0.71948 0.10747 0.02448
 H547 H 0.72473 0.11730 0.03616
 C548 C 0.70343 0.09451 0.02824
 H549 H 0.69620 0.09480 0.04269
 N550 N 0.72860 0.10754 0.00634
 C551 C 0.76038 0.15437 -0.02671
 H552 H 0.77449 0.15446 -0.01879
 C553 C 0.75745 0.16743 -0.04275
 H554 H 0.76937 0.17761 -0.04708
 C555 C 0.72752 0.14137 -0.03028
 H556 H 0.71577 0.13143 -0.02520
 C557 C 0.72388 0.15431 -0.04629
 H558 H 0.70946 0.15388 -0.05364
 Zn559 Zn 0.75083 0.12445 0.00106
 N560 N 0.74564 0.14145 -0.02102
 C561 C 0.78276 0.10813 -0.02185
 N562 N 0.77288 0.10756 -0.00412
 C563 C 0.77791 0.09416 0.01034
 C564 C 0.79371 0.08090 0.00742
 C565 C 0.79871 0.09517 -0.02538
 C566 C 0.74153 0.15407 0.02881
 C567 C 0.74450 0.16699 0.04489
 C568 C 0.77784 0.15373 0.04871
 C569 C 0.77417 0.14095 0.03263
 N570 N 0.75616 0.14120 0.02319
 H571 H 0.77818 0.11844 -0.03341
 H572 H 0.76962 0.09384 0.02419
 H573 H 0.79768 0.07056 0.01924
 H574 H 0.80629 0.09572 -0.03964
 H575 H 0.72744 0.15414 0.02086
 H576 H 0.73243 0.17673 0.04940
 H577 H 0.79237 0.15349 0.05584
 H578 H 0.78582 0.13103 0.02758
 C579 C 0.73901 0.16747 -0.05278
 C580 C 0.69676 0.08147 0.01321
 C581 C 0.76286 0.16694 0.05511
 C582 C 0.80438 0.08133 -0.01062
 C583 C 0.22397 0.59467 0.49279
 H584 H 0.23231 0.59407 0.47898
 C585 C 0.20801 0.58148 0.49599
 H586 H 0.20426 0.57063 0.48458
 C587 C 0.21933 0.60912 0.52469
 H588 H 0.22397 0.61968 0.53598
 C589 C 0.20324 0.59622 0.52851
 H590 H 0.19538 0.59736 0.54257
 N591 N 0.22917 0.60829 0.50695
 C592 C 0.26080 0.65441 0.47296
 H593 H 0.27493 0.65462 0.48084
 C594 C 0.25778 0.66729 0.45681
 H595 H 0.26965 0.67747 0.45235
 C596 C 0.22796 0.64128 0.46964
 H597 H 0.21628 0.63132 0.47487
 C598 C 0.22423 0.65405 0.45352
 H599 H 0.20977 0.65353 0.44623
 Zn600 Zn 0.25135 0.62516 0.50134
 N601 N 0.24608 0.64157 0.47889
 C602 C 0.28251 0.60790 0.47824
 N603 N 0.27347 0.60826 0.49641
 C604 C 0.27936 0.59580 0.51136
 C605 C 0.29532 0.58271 0.50854
 C606 C 0.29845 0.59494 0.47473
 C607 C 0.24203 0.65552 0.52833
 C608 C 0.24504 0.66895 0.54400
 C609 C 0.27851 0.65605 0.54791
 C610 C 0.27480 0.64277 0.53225
 N611 N 0.25669 0.64256 0.52299
 H612 H 0.27721 0.61742 0.46633
 H613 H 0.27168 0.59616 0.52556
 H614 H 0.30004 0.57328 0.52082
 H615 H 0.30522 0.59468 0.46006
 H616 H 0.22789 0.65530 0.52047
 H617 H 0.23295 0.67875 0.54832
 H618 H 0.29312 0.65614 0.55490
 H619 H 0.28652 0.63285 0.52736
 C620 C 0.23928 0.66722 0.44688
 C621 C 0.19735 0.58218 0.51403
 C622 C 0.26349 0.66932 0.55407
 C623 C 0.30513 0.58215 0.49002
 C624 C 0.72233 0.90542 0.50642
 H625 H 0.73051 0.90566 0.52036
 C626 C 0.70653 0.91866 0.50337
 H627 H 0.70245 0.92891 0.51516
 C628 C 0.71776 0.89162 0.47419
 H629 H 0.72245 0.88137 0.46269
 C630 C 0.70182 0.90457 0.47052
 H631 H 0.69435 0.90409 0.45619
 N632 N 0.72749 0.89210 0.49202
 C633 C 0.75847 0.84559 0.52560
 H634 H 0.77266 0.84551 0.51783
 C635 C 0.75529 0.83266 0.54170
 H636 H 0.76709 0.82257 0.54625
 C637 C 0.72567 0.85853 0.52872
 H638 H 0.71409 0.86845 0.52345
 C639 C 0.72178 0.84569 0.54478
 H640 H 0.70730 0.84611 0.55199
 Zn641 Zn 0.74946 0.87516 0.49749
 N642 N 0.74387 0.85839 0.51963
 C643 C 0.78058 0.89207 0.52117
 N644 N 0.77170 0.89198 0.50291
 C645 C 0.77789 0.90465 0.48820
 C646 C 0.79402 0.91764 0.49135
 C647 C 0.79668 0.90492 0.52503
 C648 C 0.74002 0.84531 0.46981
 C649 C 0.74306 0.83218 0.45393
 C650 C 0.77671 0.84514 0.45066
 C651 C 0.77298 0.85812 0.46652
 N652 N 0.75478 0.85816 0.47557
 H653 H 0.77503 0.88241 0.53291
 H654 H 0.77033 0.90452 0.47391
 H655 H 0.79899 0.92721 0.47925
 H656 H 0.80333 0.90494 0.53976
 H657 H 0.72580 0.84540 0.47750
 H658 H 0.73091 0.82245 0.44930
 H659 H 0.79139 0.84516 0.44385
 H660 H 0.78477 0.86792 0.47174
 C661 C 0.73675 0.83263 0.55152
 C662 C 0.69600 0.91831 0.48523
 C663 C 0.76161 0.83198 0.44409
 C664 C 0.80368 0.91789 0.50998
 C665 C 0.01086 0.22307 0.40491
 H666 H 0.02481 0.23138 0.40492
 C667 C 0.00826 0.20685 0.41788
 H668 H 0.02046 0.20258 0.42760
 C669 C -0.02184 0.21855 0.39198
 H670 H -0.03367 0.22338 0.38213
 C671 C -0.02515 0.20234 0.40480
 H672 H -0.03959 0.19493 0.40466
 N673 N -0.00398 0.22842 0.39212
 C674 C 0.02699 0.26075 0.34441
 H675 H 0.01858 0.27456 0.34413
 C676 C 0.04271 0.25797 0.33101
 H677 H 0.04637 0.26973 0.32043
 C678 C 0.03199 0.22838 0.35812
 H679 H 0.02759 0.21674 0.36848
 C680 C 0.04766 0.22489 0.34485
 H681 H 0.05545 0.21071 0.34541
 Zn682 Zn 0.00044 0.25088 0.37534
 N683 N 0.02218 0.24620 0.35786
 C684 C 0.02205 0.28497 0.38977
 N685 N 0.00556 0.27316 0.39209
 C686 C -0.00774 0.27652 0.40702
 C687 C -0.00489 0.29245 0.42020
 C688 C 0.02533 0.30125 0.40243
 C689 C -0.02712 0.24150 0.34550
 C690 C -0.04344 0.24425 0.33281
 C691 C -0.04945 0.27621 0.34853
 C692 C -0.03300 0.27283 0.36094
 N693 N -0.02231 0.25563 0.35930
 H694 H 0.03270 0.28188 0.37810
 H695 H -0.02056 0.26669 0.40874
 H696 H -0.01552 0.29454 0.43218
 H697 H 0.03827 0.31075 0.39992
 H698 H -0.01815 0.22811 0.34432
 H699 H -0.04685 0.23293 0.32176
 H700 H -0.05794 0.28987 0.35023
 H701 H -0.02876 0.28402 0.37179
 C702 C 0.05327 0.23985 0.33116
 C703 C -0.00996 0.19622 0.41795
 C704 C -0.05486 0.26180 0.33423
 C705 C 0.01178 0.30520 0.41795
 C706 C -0.00820 0.72236 0.09503
 H707 H -0.02182 0.73104 0.09454
 C708 C -0.00549 0.70655 0.08171
 H709 H -0.01708 0.70324 0.07090
 C710 C 0.02372 0.71671 0.10928
 H711 H 0.03522 0.72088 0.11982
 C712 C 0.02705 0.70079 0.09625
 H713 H 0.04095 0.69259 0.09727
 N714 N 0.00620 0.72697 0.10862
 C715 C -0.02523 0.75759 0.15663
 H716 H -0.01638 0.77118 0.15757
 C717 C -0.04120 0.75453 0.16972
 H718 H -0.04446 0.76581 0.18081
 C719 C -0.03122 0.72611 0.14140
 H720 H -0.02714 0.71496 0.13051
 C721 C -0.04731 0.72243 0.15420
 H722 H -0.05571 0.70858 0.15273
 Zn723 Zn 0.00142 0.74892 0.12582
 N724 N -0.02070 0.74358 0.14268
 C725 C -0.02106 0.78186 0.11084
 N726 N -0.00362 0.77153 0.10948
 C727 C 0.01054 0.77660 0.09579
 C728 C 0.00762 0.79287 0.08299
 C729 C -0.02458 0.79827 0.09835
 C730 C 0.02926 0.73902 0.15546
 C731 C 0.04544 0.74186 0.16834
 C732 C 0.04963 0.77529 0.15494
 C733 C 0.03348 0.77173 0.14218
 N734 N 0.02379 0.75375 0.14251
 H735 H -0.03237 0.77731 0.12144
 H736 H 0.02417 0.76797 0.09488
 H737 H 0.01922 0.79684 0.07240
 H738 H -0.03862 0.80619 0.09951
 H739 H 0.02101 0.72502 0.15572
 H740 H 0.04958 0.72998 0.17856
 H741 H 0.05729 0.78962 0.15436
 H742 H 0.02863 0.78344 0.13215
 C743 C -0.05253 0.73677 0.16856
 C744 C 0.01231 0.69548 0.08225
 C745 C 0.05584 0.76020 0.16817
 C746 C -0.01012 0.80397 0.08420
 C747 C 0.49142 0.22069 0.59600
 H748 H 0.47748 0.22885 0.59581
 C749 C 0.49426 0.20471 0.58293
 H750 H 0.48244 0.20064 0.57264
 C751 C 0.52401 0.21652 0.60928
 H752 H 0.53567 0.22134 0.61937
 C753 C 0.52756 0.20058 0.59632
 H754 H 0.54184 0.19301 0.59683
 N755 N 0.50609 0.22609 0.60903
 C756 C 0.47411 0.25756 0.65613
 H757 H 0.48275 0.27132 0.65663
 C758 C 0.45803 0.25476 0.66913
 H759 H 0.45448 0.26641 0.67975
 C760 C 0.46877 0.22545 0.64203
 H761 H 0.47315 0.21393 0.63166
 C762 C 0.45257 0.22202 0.65477
 H763 H 0.44439 0.20801 0.65370
 Zn764 Zn 0.50117 0.24825 0.62587
 N765 N 0.47900 0.24311 0.64275
 C766 C 0.47809 0.28005 0.60959
 N767 N 0.49602 0.27054 0.60912
 C768 C 0.51051 0.27610 0.59597
 C769 C 0.50748 0.29220 0.58298
 C770 C 0.47436 0.29614 0.59676
 C771 C 0.52855 0.23880 0.65592
 C772 C 0.54463 0.24166 0.66893
 C773 C 0.54981 0.27452 0.65455
 C774 C 0.53362 0.27103 0.64182
 N775 N 0.52350 0.25329 0.64257
 H776 H 0.46651 0.27503 0.61969
 H777 H 0.52451 0.26805 0.59568
 H778 H 0.51943 0.29665 0.57299
 H779 H 0.45987 0.30329 0.59717
 H780 H 0.52001 0.22498 0.65646
 H781 H 0.54828 0.22999 0.67957
 H782 H 0.55787 0.28861 0.65348
 H783 H 0.52911 0.28259 0.63147
 C784 C 0.44695 0.23682 0.66850
 C785 C 0.51253 0.19444 0.58299
 C786 C 0.55555 0.25971 0.66832
 C787 C 0.48919 0.30249 0.58326
 C788 C 0.50979 0.72256 0.90485
 H789 H 0.52348 0.73129 0.90519
 C790 C 0.50717 0.70656 0.91810
 H791 H 0.51890 0.70315 0.92870
 C792 C 0.47759 0.71699 0.89107
 H793 H 0.46596 0.72128 0.88076
 C794 C 0.47435 0.70089 0.90403
 H795 H 0.46036 0.69266 0.90319
 N796 N 0.49518 0.72733 0.89156
 C797 C 0.52635 0.75939 0.84385
 H798 H 0.51792 0.77319 0.84344
 C799 C 0.54215 0.75656 0.83056
 H800 H 0.54584 0.76825 0.81992
 C801 C 0.53137 0.72714 0.85785
 H802 H 0.52697 0.71560 0.86831
 C803 C 0.54712 0.72359 0.84467
 H804 H 0.55495 0.70944 0.84538
 Zn805 Zn 0.49968 0.74971 0.87469
 N806 N 0.52150 0.74492 0.85737
 C807 C 0.52140 0.78368 0.88924
 N808 N 0.50480 0.77200 0.89140
 C809 C 0.49136 0.77546 0.90618
 C810 C 0.49422 0.79134 0.91941
 C811 C 0.52471 0.79991 0.90196
 C812 C 0.47157 0.74022 0.84522
 C813 C 0.45516 0.74313 0.83267
 C814 C 0.45070 0.77592 0.84719
 C815 C 0.46707 0.77229 0.85962
 N816 N 0.47702 0.75460 0.85852
 H817 H 0.53213 0.78051 0.87767
 H818 H 0.47845 0.76574 0.90776
 H819 H 0.48350 0.79351 0.93129
 H820 H 0.53775 0.80929 0.89960
 H821 H 0.48000 0.72645 0.84441
 H822 H 0.45105 0.73155 0.82213
 H823 H 0.44284 0.79001 0.84834
 H824 H 0.47189 0.78369 0.87001
 C825 C 0.55275 0.73846 0.83090
 C826 C 0.48925 0.69547 0.91779
 C827 C 0.44453 0.76119 0.83356
 C828 C 0.51103 0.80393 0.91736
 C829 C 0.11903 0.22660 0.27653
 C830 C 0.12646 0.24224 0.26449
 C831 C 0.14247 0.23901 0.25151
 C832 C 0.15138 0.22001 0.25010
 C833 C 0.14387 0.20436 0.26209
 C834 C 0.12797 0.20763 0.27519
 C835 C 0.10207 0.23006 0.29045
 C836 C 0.08747 0.21512 0.29359
 C837 C 0.07166 0.21828 0.30683
 C838 C 0.06999 0.23653 0.31707
 C839 C 0.08444 0.25154 0.31384
 C840 C 0.10036 0.24831 0.30076
 H841 H 0.14794 0.25151 0.24274
 H842 H 0.15013 0.18947 0.26129
 H843 H 0.06056 0.20656 0.30884
 H844 H 0.08363 0.26565 0.32175
 H845 H 0.12283 0.19530 0.28443
 H846 H 0.08809 0.20104 0.28563
 H847 H 0.11978 0.25697 0.26493
 H848 H 0.11152 0.26001 0.29898
 C849 C 0.61857 0.72517 0.77632
 C850 C 0.62752 0.70620 0.77494
 C851 C 0.64340 0.70296 0.76181
 C852 C 0.65089 0.71865 0.74983
 C853 C 0.64196 0.73763 0.75128
 C854 C 0.62596 0.74083 0.76429
 C855 C 0.60163 0.72860 0.79028
 C856 C 0.59990 0.74687 0.80056
 C857 C 0.58397 0.75010 0.81364
 C858 C 0.56953 0.73508 0.81689
 C859 C 0.57125 0.71681 0.80671
 C860 C 0.58706 0.71364 0.79348
 H861 H 0.64966 0.68808 0.76098
 H862 H 0.64741 0.75016 0.74253
 H863 H 0.58313 0.76423 0.82150
 H864 H 0.56016 0.70508 0.80875
 H865 H 0.61927 0.75556 0.76475
 H866 H 0.61103 0.75858 0.79876
 H867 H 0.62240 0.69386 0.78417
 H868 H 0.58769 0.69955 0.78554
 C869 C 0.37723 0.77461 0.78069
 C870 C 0.36998 0.75903 0.76854
 C871 C 0.35393 0.76224 0.75557
 C872 C 0.34479 0.78114 0.75429
 C873 C 0.35207 0.79671 0.76646
 C874 C 0.36802 0.79346 0.77954
 C875 C 0.39440 0.77122 0.79441
 C876 C 0.40887 0.78631 0.79743
 C877 C 0.42504 0.78310 0.81025
 C878 C 0.42721 0.76469 0.82020
 C879 C 0.41281 0.74959 0.81720
 C880 C 0.39654 0.75285 0.80452
 H881 H 0.34863 0.74981 0.74666
 H882 H 0.34563 0.81153 0.76576
 H883 H 0.43609 0.79490 0.81209
 H884 H 0.41399 0.73535 0.82490
 H885 H 0.37303 0.80573 0.78886
 H886 H 0.40792 0.80049 0.78962
 H887 H 0.37687 0.74439 0.76884
 H888 H 0.38549 0.74104 0.80285
 C889 C -0.12173 0.27442 0.28061
 C890 C -0.12634 0.26016 0.26596
 C891 C -0.14225 0.26315 0.25278
 C892 C -0.15419 0.28056 0.25383
 C893 C -0.14938 0.29479 0.26872
 C894 C -0.13341 0.29176 0.28183
 C895 C -0.10473 0.27125 0.29453
 C896 C -0.09189 0.28720 0.29957
 C897 C -0.07578 0.28416 0.31251
 C898 C -0.07216 0.26511 0.32072
 C899 C -0.08508 0.24919 0.31576
 C900 C -0.10117 0.25222 0.30280
 H901 H -0.14508 0.25150 0.24200
 H902 H -0.15762 0.30854 0.27036
 H903 H -0.06592 0.29666 0.31578
 H904 H -0.08289 0.23441 0.32209
 H905 H -0.13034 0.30295 0.29311
 H906 H -0.09406 0.30196 0.29320
 H907 H -0.11745 0.24672 0.26451
 H908 H -0.11100 0.23971 0.29946
 C909 C -0.11910 0.72310 0.22242
 C910 C -0.13069 0.70557 0.22115
 C911 C -0.14675 0.70231 0.23412
 C912 C -0.15177 0.71652 0.24890
 C913 C -0.13991 0.73411 0.25003
 C914 C -0.12389 0.73732 0.23699
 C915 C -0.10208 0.72657 0.20858
 C916 C -0.09863 0.74565 0.20029
 C917 C -0.08260 0.74894 0.18730
 C918 C -0.06962 0.73323 0.18231
 C919 C -0.07309 0.71413 0.19057
 C920 C -0.08914 0.71084 0.20355
 H921 H -0.15493 0.68843 0.23242
 H922 H -0.14286 0.74575 0.26075
 H923 H -0.08053 0.76374 0.18093
 H924 H -0.06319 0.70179 0.18727
 H925 H -0.11509 0.75091 0.23849
 H926 H -0.10853 0.75799 0.20362
 H927 H -0.12748 0.69440 0.20993
 H928 H -0.09123 0.69604 0.20993
 C929 C 0.37963 0.22417 0.72167
 C930 C 0.36815 0.20656 0.72060
 C931 C 0.35196 0.20347 0.73344
 C932 C 0.34673 0.21792 0.74791
 C933 C 0.35844 0.23563 0.74879
 C934 C 0.37457 0.23868 0.73587
 C935 C 0.39686 0.22740 0.70803
 C936 C 0.40029 0.24627 0.69926
 C937 C 0.41651 0.24931 0.68644
 C938 C 0.42970 0.23356 0.68212
 C939 C 0.42626 0.21470 0.69091
 C940 C 0.41002 0.21165 0.70370
 H941 H 0.34391 0.18949 0.73199
 H942 H 0.35524 0.24747 0.75922
 H943 H 0.41855 0.26393 0.67965
 H944 H 0.43632 0.20235 0.68815
 H945 H 0.38327 0.25236 0.73716
 H946 H 0.39024 0.25861 0.70207
 H947 H 0.37157 0.19518 0.70965
 H948 H 0.40794 0.19703 0.71047
 C949 C 0.62244 0.27306 0.72189
 C950 C 0.62758 0.25868 0.73627
 C951 C 0.64359 0.26198 0.74931
 C952 C 0.65509 0.27982 0.74834
 C953 C 0.64980 0.29414 0.73367
 C954 C 0.63374 0.29080 0.72073
 C955 C 0.60531 0.26962 0.70818
 C956 C 0.59201 0.28523 0.70366
 C957 C 0.57588 0.28201 0.69077
 C958 C 0.57269 0.26312 0.68206
 C959 C 0.58600 0.24750 0.68658
 C960 C 0.60212 0.25071 0.69951
 H961 H 0.64687 0.25023 0.75989
 H962 H 0.65769 0.30821 0.73213
 H963 H 0.56571 0.29426 0.68787
 H964 H 0.58416 0.23286 0.67988
 H965 H 0.63025 0.30209 0.70964
 H966 H 0.59390 0.29987 0.71035
 H967 H 0.61904 0.24490 0.73763
 H968 H 0.61228 0.23847 0.70248
 C969 C 0.12281 0.77363 0.22160
 C970 C 0.13174 0.79269 0.22310
 C971 C 0.14775 0.79600 0.23613
 C972 C 0.15536 0.78030 0.24790
 C973 C 0.14649 0.76120 0.24628
 C974 C 0.13039 0.75792 0.23336
 C975 C 0.10563 0.77017 0.20788
 C976 C 0.10375 0.75205 0.19733
 C977 C 0.08755 0.74879 0.18452
 C978 C 0.07297 0.76362 0.18183
 C979 C 0.07484 0.78175 0.19228
 C980 C 0.09093 0.78495 0.20522
 H981 H 0.15396 0.81096 0.23709
 H982 H 0.15206 0.74867 0.25488
 H983 H 0.08660 0.73478 0.17645
 H984 H 0.06365 0.79333 0.19070
 H985 H 0.12373 0.74311 0.23278
 H986 H 0.11496 0.74048 0.19873
 H987 H 0.12648 0.80507 0.21408
 H988 H 0.09168 0.79892 0.21339
 C989 C 0.27695 0.12226 0.22384
 C990 C 0.27479 0.13058 0.20467
 C991 C 0.26170 0.14650 0.20132
 C992 C 0.25050 0.15461 0.21709
 C993 C 0.25272 0.14632 0.23628
 C994 C 0.26573 0.13033 0.23960
 C995 C 0.29083 0.10526 0.22738
 C996 C 0.30213 0.10415 0.24506
 C997 C 0.31514 0.08815 0.24839
 C998 C 0.31726 0.07299 0.23406
 C999 C 0.30603 0.07409 0.21638
 C1000 C 0.29291 0.09000 0.21310
 H1001 H 0.26023 0.15228 0.18631
 H1002 H 0.24457 0.15229 0.24884
 H1003 H 0.32381 0.08780 0.26204
 H1004 H 0.30716 0.06246 0.20521
 H1005 H 0.26682 0.12413 0.25451
 H1006 H 0.30118 0.11581 0.25621
 H1007 H 0.28338 0.12492 0.19224
 H1008 H 0.28417 0.09018 0.19950
 C1009 C 0.77669 0.62118 0.72365
 C1010 C 0.77466 0.62961 0.70451
 C1011 C 0.76152 0.64549 0.70115
 C1012 C 0.75014 0.65345 0.71686
 C1013 C 0.75223 0.64504 0.73602
 C1014 C 0.76528 0.62908 0.73935
 C1015 C 0.79063 0.60424 0.72721
 C1016 C 0.80175 0.60305 0.74500
 C1017 C 0.81478 0.58709 0.74838
 C1018 C 0.81712 0.57203 0.73398
 C1019 C 0.80609 0.57321 0.71618
 C1020 C 0.79294 0.58908 0.71286
 H1021 H 0.76017 0.65136 0.68616
 H1022 H 0.74394 0.65089 0.74855
 H1023 H 0.82329 0.58669 0.76212
 H1024 H 0.80740 0.56165 0.70495
 H1025 H 0.76627 0.62280 0.75423
 H1026 H 0.80062 0.61464 0.75621
 H1027 H 0.78340 0.62408 0.69212
 H1028 H 0.78435 0.58931 0.69916
 C1029 C 0.77751 0.38030 0.77632
 C1030 C 0.76335 0.37483 0.76184
 C1031 C 0.75043 0.35859 0.76499
 C1032 C 0.75126 0.34717 0.78278
 C1033 C 0.76558 0.35286 0.79726
 C1034 C 0.77845 0.36914 0.79407
 C1035 C 0.79129 0.39753 0.77287
 C1036 C 0.81144 0.39654 0.77882
 C1037 C 0.82442 0.41268 0.77542
 C1038 C 0.81758 0.43017 0.76594
 C1039 C 0.79743 0.43120 0.76005
 C1040 C 0.78443 0.41508 0.76349
 H1041 H 0.74019 0.35495 0.75307
 H1042 H 0.76684 0.34514 0.81138
 H1043 H 0.83993 0.41134 0.77987
 H1044 H 0.79163 0.44460 0.75302
 H1045 H 0.78896 0.37320 0.80569
 H1046 H 0.81727 0.38312 0.78579
 H1047 H 0.76248 0.38291 0.74783
 H1048 H 0.76893 0.41646 0.75904
 C1049 C 0.27880 -0.11957 0.27626
 C1050 C 0.27977 -0.13077 0.29397
 C1051 C 0.26700 -0.14714 0.29710
 C1052 C 0.25274 -0.15288 0.28256
 C1053 C 0.25195 -0.14146 0.26476
 C1054 C 0.26477 -0.12513 0.26170
 C1055 C 0.29237 -0.10215 0.27293
 C1056 C 0.28529 -0.08464 0.26367
 C1057 C 0.29810 -0.06835 0.26029
 C1058 C 0.31827 -0.06917 0.26613
 C1059 C 0.32533 -0.08662 0.27552
 C1060 C 0.31253 -0.10294 0.27886
 H1061 H 0.26827 -0.15488 0.31120
 H1062 H 0.24178 -0.14514 0.25280
 H1063 H 0.29213 -0.05498 0.25334
 H1064 H 0.34086 -0.08782 0.27994
 H1065 H 0.26389 -0.11703 0.24770
 H1066 H 0.26977 -0.08342 0.25924
 H1067 H 0.29023 -0.12667 0.30563
 H1068 H 0.31852 -0.11632 0.28576
 C1069 C 0.22025 -0.12116 0.72652
 C1070 C 0.23421 -0.12669 0.74112
 C1071 C 0.24727 -0.14264 0.73792
 C1072 C 0.24681 -0.15366 0.71993
 C1073 C 0.23261 -0.14795 0.70535
 C1074 C 0.21959 -0.13198 0.70862
 C1075 C 0.20645 -0.10412 0.72994
 C1076 C 0.18637 -0.10526 0.72377
 C1077 C 0.17341 -0.08923 0.72700
 C1078 C 0.18021 -0.07172 0.73650
 C1079 C 0.20028 -0.07058 0.74267
 C1080 C 0.21325 -0.08659 0.73941
 H1081 H 0.25738 -0.14633 0.74991
 H1082 H 0.23157 -0.15539 0.69111
 H1083 H 0.15795 -0.09066 0.72234
 H1084 H 0.20605 -0.05717 0.74974
 H1085 H 0.20920 -0.12786 0.69692
 H1086 H 0.18059 -0.11867 0.71671
 H1087 H 0.23484 -0.11887 0.75525
 H1088 H 0.22871 -0.08512 0.74404
 C1089 C 0.72119 0.37792 0.22557
 C1090 C 0.72333 0.36939 0.20654
 C1091 C 0.73654 0.35353 0.20344
 C1092 C 0.74786 0.34571 0.21933
 C1093 C 0.74568 0.35424 0.23836
 C1094 C 0.73257 0.37017 0.24142
 C1095 C 0.70715 0.39481 0.22888
 C1096 C 0.69594 0.39597 0.24659
 C1097 C 0.68292 0.41195 0.24981
 C1098 C 0.68069 0.42705 0.23535
 C1099 C 0.69175 0.42585 0.21759
 C1100 C 0.70489 0.40995 0.21442
 H1101 H 0.73797 0.34754 0.18854
 H1102 H 0.75393 0.34850 0.25101
 H1103 H 0.67437 0.41236 0.26352
 H1104 H 0.69053 0.43743 0.20630
 H1105 H 0.73150 0.37654 0.25622
 H1106 H 0.69702 0.38439 0.25788
 H1107 H 0.71463 0.37483 0.19403
 H1108 H 0.71354 0.40971 0.20077
 C1109 C 0.72348 0.61760 0.27644
 C1110 C 0.72540 0.62628 0.29541
 C1111 C 0.73860 0.64230 0.29851
 C1112 C 0.75008 0.65011 0.28268
 C1113 C 0.74811 0.64137 0.26369
 C1114 C 0.73501 0.62527 0.26063
 C1115 C 0.70944 0.60064 0.27311
 C1116 C 0.71521 0.58410 0.26159
 C1117 C 0.70195 0.56817 0.25837
 C1118 C 0.68255 0.56847 0.26649
 C1119 C 0.67681 0.58504 0.27803
 C1120 C 0.69012 0.60091 0.28135
 H1121 H 0.73996 0.64837 0.31340
 H1122 H 0.75641 0.64717 0.25107
 H1123 H 0.70700 0.55548 0.24973
 H1124 H 0.66189 0.58592 0.28422
 H1125 H 0.73362 0.61905 0.24578
 H1126 H 0.73010 0.58336 0.25530
 H1127 H 0.71690 0.62048 0.30792
 H1128 H 0.68519 0.61360 0.29007
 C1129 C 0.22254 0.11943 0.77605
 C1130 C 0.22174 0.13068 0.79368
 C1131 C 0.23485 0.14675 0.79677
 C1132 C 0.24932 0.15213 0.78229
 C1133 C 0.25005 0.14059 0.76464
 C1134 C 0.23686 0.12457 0.76160
 C1135 C 0.20845 0.10245 0.77272
 C1136 C 0.21499 0.08472 0.76357
 C1137 C 0.20172 0.06879 0.76036
 C1138 C 0.18161 0.07020 0.76627
 C1139 C 0.17507 0.08790 0.77546
 C1140 C 0.18833 0.10385 0.77862
 H1141 H 0.23369 0.15455 0.81080
 H1142 H 0.26041 0.14401 0.75276
 H1143 H 0.20727 0.05523 0.75352
 H1144 H 0.15960 0.08954 0.77991
 H1145 H 0.23765 0.11640 0.74768
 H1146 H 0.23047 0.08303 0.75915
 H1147 H 0.21111 0.12686 0.80529
 H1148 H 0.18273 0.11742 0.78540
 C1149 C 0.22228 0.27885 0.11740
 C1150 C 0.20327 0.27695 0.12611
 C1151 C 0.20018 0.26396 0.14223
 C1152 C 0.21608 0.25269 0.15013
 C1153 C 0.23513 0.25470 0.14140
 C1154 C 0.23816 0.26756 0.12518
 C1155 C 0.22558 0.29259 0.10028
 C1156 C 0.23693 0.28645 0.08380
 C1157 C 0.24017 0.29943 0.06771
 C1158 C 0.23227 0.31894 0.06782
 C1159 C 0.22087 0.32504 0.08434
 C1160 C 0.21750 0.31198 0.10035
 H1161 H 0.18525 0.26257 0.14829
 H1162 H 0.24781 0.24659 0.14725
 H1163 H 0.24867 0.29409 0.05508
 H1164 H 0.21485 0.34005 0.08508
 H1165 H 0.25304 0.26896 0.11892
 H1166 H 0.24308 0.27148 0.08323
 H1167 H 0.19071 0.28528 0.12024
 H1168 H 0.20890 0.31718 0.11298
 C1169 C 0.72276 0.77862 0.61804
 C1170 C 0.73852 0.76712 0.62583
 C1171 C 0.73530 0.75407 0.64186
 C1172 C 0.71619 0.75205 0.65045
 C1173 C 0.70041 0.76348 0.64257
 C1174 C 0.70367 0.77664 0.62662
 C1175 C 0.72625 0.79261 0.60104
 C1176 C 0.71170 0.79505 0.58607
 C1177 C 0.71503 0.80815 0.57009
 C1178 C 0.73306 0.81897 0.56862
 C1179 C 0.74761 0.81656 0.58354
 C1180 C 0.74422 0.80360 0.59961
 H1181 H 0.74788 0.74574 0.64763
 H1182 H 0.68546 0.76218 0.64859
 H1183 H 0.70367 0.80954 0.55865
 H1184 H 0.76153 0.82493 0.58291
 H1185 H 0.69125 0.78544 0.62117
 H1186 H 0.69785 0.78658 0.58651
 H1187 H 0.75335 0.76805 0.61942
 H1188 H 0.75559 0.80240 0.61106
 C1189 C 0.77550 0.77782 0.37809
 C1190 C 0.79463 0.77611 0.36964
 C1191 C 0.79798 0.76292 0.35384
 C1192 C 0.78225 0.75123 0.34603
 C1193 C 0.76308 0.75309 0.35446
 C1194 C 0.75977 0.76618 0.37035
 C1195 C 0.77198 0.79168 0.39498
 C1196 C 0.76038 0.78556 0.41139
 C1197 C 0.75709 0.79858 0.42734
 C1198 C 0.76521 0.81807 0.42717
 C1199 C 0.77679 0.82418 0.41070
 C1200 C 0.78019 0.81110 0.39482
 H1201 H 0.81300 0.76167 0.34800
 H1202 H 0.75053 0.74464 0.34864
 H1203 H 0.74842 0.79324 0.43993
 H1204 H 0.78299 0.83919 0.40992
 H1205 H 0.74481 0.76742 0.37640
 H1206 H 0.75411 0.77057 0.41204
 H1207 H 0.80709 0.78471 0.37549
 H1208 H 0.78898 0.81630 0.38224
 C1209 C 0.27515 0.27888 -0.12208
 C1210 C 0.29422 0.27717 -0.13071
 C1211 C 0.29752 0.26390 -0.14645
 C1212 C 0.28180 0.25208 -0.15407
 C1213 C 0.26271 0.25386 -0.14546
 C1214 C 0.25944 0.26703 -0.12964
 C1215 C 0.27164 0.29293 -0.10527
 C1216 C 0.25367 0.30373 -0.10397
 C1217 C 0.25029 0.31679 -0.08808
 C1218 C 0.26485 0.31946 -0.07319
 C1219 C 0.28286 0.30880 -0.07451
 C1220 C 0.28619 0.29563 -0.09033
 H1221 H 0.31246 0.26280 -0.15250
 H1222 H 0.25018 0.24522 -0.15105
 H1223 H 0.23639 0.32503 -0.08758
 H1224 H 0.29422 0.31037 -0.06309
 H1225 H 0.24462 0.26777 -0.12320
 H1226 H 0.24231 0.30231 -0.11540
 H1227 H 0.30661 0.28624 -0.12542
 H1228 H 0.30003 0.28730 -0.09066
 C1229 C 0.72564 0.22131 -0.11951
 C1230 C 0.70668 0.22270 -0.12847
 C1231 C 0.70348 0.23571 -0.14454
 C1232 C 0.71918 0.24759 -0.15213
 C1233 C 0.73816 0.24615 -0.14317
 C1234 C 0.74133 0.23323 -0.12704
 C1235 C 0.72904 0.20748 -0.10239
 C1236 C 0.74710 0.19688 -0.10063
 C1237 C 0.75034 0.18397 -0.08451
 C1238 C 0.73556 0.18123 -0.06985
 C1239 C 0.71748 0.19172 -0.07162
 C1240 C 0.71429 0.20475 -0.08767
 H1241 H 0.68862 0.23656 -0.15085
 H1242 H 0.75068 0.25485 -0.14872
 H1243 H 0.76430 0.17585 -0.08367
 H1244 H 0.70594 0.19011 -0.06039
 H1245 H 0.75606 0.23273 -0.12035
 H1246 H 0.75863 0.19833 -0.11188
 H1247 H 0.69431 0.21356 -0.12322
 H1248 H 0.70036 0.21293 -0.08836
 C1249 C 0.22572 0.72172 0.38074
 C1250 C 0.20672 0.72341 0.37192
 C1251 C 0.20357 0.73662 0.35601
 C1252 C 0.21936 0.74840 0.34843
 C1253 C 0.23836 0.74671 0.35729
 C1254 C 0.24148 0.73359 0.37326
 C1255 C 0.22911 0.70761 0.39763
 C1256 C 0.24710 0.69686 0.39914
 C1257 C 0.25038 0.68376 0.41510
 C1258 C 0.23569 0.68098 0.42984
 C1259 C 0.21765 0.69156 0.42830
 C1260 C 0.21443 0.70479 0.41242
 H1261 H 0.18868 0.73767 0.34978
 H1262 H 0.25094 0.75532 0.35175
 H1263 H 0.26431 0.67558 0.41578
 H1264 H 0.20619 0.68991 0.43960
 H1265 H 0.25624 0.73288 0.37987
 H1266 H 0.25857 0.69837 0.38783
 H1267 H 0.19430 0.71434 0.37714
 H1268 H 0.20055 0.71306 0.41192
 C1269 C 0.27645 0.72408 0.61989
 C1270 C 0.26048 0.73538 0.62735
 C1271 C 0.26330 0.74824 0.64354
 C1272 C 0.28221 0.75022 0.65257
 C1273 C 0.29823 0.73900 0.64493
 C1274 C 0.29536 0.72603 0.62883
 C1275 C 0.27335 0.71017 0.60293
 C1276 C 0.28152 0.69082 0.60337
 C1277 C 0.27833 0.67759 0.58755
 C1278 C 0.26702 0.68346 0.57084
 C1279 C 0.25901 0.70291 0.57036
 C1280 C 0.26207 0.71608 0.58626
 H1281 H 0.25053 0.75633 0.64918
 H1282 H 0.31307 0.74037 0.65122
 H1283 H 0.28443 0.66262 0.58858
 H1284 H 0.25055 0.70807 0.55757
 H1285 H 0.30800 0.71769 0.62320
 H1286 H 0.29005 0.68578 0.61616
 H1287 H 0.24568 0.73397 0.62090
 H1288 H 0.25584 0.73101 0.58541
 C1289 C 0.77570 0.22001 0.12232
 C1290 C 0.75978 0.23134 0.12987
 C1291 C 0.76270 0.24415 0.14608
 C1292 C 0.78165 0.24606 0.15504
 C1293 C 0.79757 0.23468 0.14743
 C1294 C 0.79460 0.22175 0.13131
 C1295 C 0.77258 0.20648 0.10507
 C1296 C 0.78063 0.18708 0.10510
 C1297 C 0.77749 0.17426 0.08892
 C1298 C 0.76635 0.18062 0.07228
 C1299 C 0.75845 0.20012 0.07222
 C1300 C 0.76147 0.21287 0.08846
 H1301 H 0.75000 0.25235 0.15173
 H1302 H 0.81244 0.23598 0.15367
 H1303 H 0.78350 0.15924 0.08962
 H1304 H 0.75014 0.20566 0.05950
 H1305 H 0.80719 0.21338 0.12562
 H1306 H 0.78905 0.18169 0.11782
 H1307 H 0.74498 0.23007 0.12341
 H1308 H 0.75535 0.22785 0.08792
 C1309 C 0.47533 0.36935 0.52963
 C1310 C 0.49100 0.37705 0.51791
 C1311 C 0.48776 0.39319 0.50499
 C1312 C 0.46870 0.40192 0.50336
 C1313 C 0.45302 0.39413 0.51511
 C1314 C 0.45632 0.37809 0.52814
 C1315 C 0.47880 0.35222 0.54333
 C1316 C 0.47109 0.35240 0.56281
 C1317 C 0.47450 0.33632 0.57577
 C1318 C 0.48557 0.31962 0.56948
 C1319 C 0.49317 0.31944 0.54991
 C1320 C 0.48989 0.33559 0.53702
 H1321 H 0.50028 0.39897 0.49651
 H1322 H 0.43809 0.40019 0.51404
 H1323 H 0.46873 0.33713 0.59083
 H1324 H 0.50143 0.30668 0.54443
 H1325 H 0.44391 0.37228 0.53683
 H1326 H 0.46270 0.36515 0.56814
 H1327 H 0.50587 0.37077 0.51897
 H1328 H 0.49577 0.33494 0.52198
 C1329 C -0.02357 0.87152 0.03131
 C1330 C -0.00927 0.87686 0.01693
 C1331 C -0.01253 0.89294 0.00396
 C1332 C -0.03030 0.90432 0.00494
 C1333 C -0.04453 0.89888 0.01963
 C1334 C -0.04120 0.88275 0.03255
 C1335 C -0.02015 0.85422 0.04489
 C1336 C -0.02570 0.85519 0.06509
 C1337 C -0.02247 0.83889 0.07784
 C1338 C -0.01359 0.82127 0.07067
 C1339 C -0.00807 0.82030 0.05048
 C1340 C -0.01132 0.83657 0.03773
 H1341 H -0.00077 0.89645 -0.00652
 H1342 H -0.05858 0.90662 0.02110
 H1343 H -0.02663 0.84020 0.09339
 H1344 H -0.00151 0.80681 0.04444
 H1345 H -0.05268 0.87882 0.04329
 H1346 H -0.03225 0.86868 0.07114
 H1347 H 0.00467 0.86873 0.01585
 H1348 H -0.00721 0.83521 0.02217
 C1349 C 0.02501 0.62938 0.02779
 C1350 C 0.01068 0.62451 0.01328
 C1351 C 0.01381 0.60865 0.00008
 C1352 C 0.03144 0.59704 0.00100
 C1353 C 0.04571 0.60207 0.01579
 C1354 C 0.04253 0.61798 0.02890
 C1355 C 0.02172 0.64634 0.04169
 C1356 C 0.03748 0.65950 0.04649
 C1357 C 0.03442 0.67545 0.05959
 C1358 C 0.01554 0.67858 0.06823
 C1359 C -0.00022 0.66541 0.06341
 C1360 C 0.00283 0.64949 0.05028
 H1361 H 0.00211 0.60558 -0.01058
 H1362 H 0.05961 0.59408 0.01730
 H1363 H 0.04678 0.68552 0.06272
 H1364 H -0.01486 0.66722 0.07006
 H1365 H 0.05378 0.62125 0.04008
 H1366 H 0.05212 0.65766 0.03986
 H1367 H -0.00293 0.63314 0.01196
 H1368 H -0.00952 0.63942 0.04709
 C1369 C 0.52571 0.12865 0.52829
 C1370 C 0.54465 0.11976 0.52665
 C1371 C 0.54785 0.10405 0.51330
 C1372 C 0.53216 0.09671 0.50132
 C1373 C 0.51319 0.10555 0.50306
 C1374 C 0.51002 0.12135 0.51631
 C1375 C 0.52235 0.14549 0.54239
 C1376 C 0.50424 0.14704 0.55295
 C1377 C 0.50105 0.16294 0.56608
 C1378 C 0.51594 0.17756 0.56909
 C1379 C 0.53407 0.17599 0.55865
 C1380 C 0.53721 0.16019 0.54539
 H1381 H 0.56272 0.09785 0.51225
 H1382 H 0.50068 0.10018 0.49430
 H1383 H 0.48703 0.16364 0.57413
 H1384 H 0.54570 0.18721 0.56048
 H1385 H 0.49530 0.12799 0.51700
 H1386 H 0.49262 0.13580 0.55129
 H1387 H 0.55701 0.12482 0.53582
 H1388 H 0.55118 0.15968 0.53725
 C1389 C -0.02315 0.12934 0.47185
 C1390 C -0.04225 0.12063 0.47350
 C1391 C -0.04563 0.10462 0.48658
 C1392 C -0.02995 0.09682 0.49821
 C1393 C -0.01081 0.10556 0.49647
 C1394 C -0.00748 0.12168 0.48351
 C1395 C -0.01962 0.14637 0.45802
 C1396 C -0.00836 0.16309 0.46414
 C1397 C -0.00524 0.17926 0.45118
 C1398 C -0.01318 0.17899 0.43174
 C1399 C -0.02431 0.16214 0.42560
 C1400 C -0.02756 0.14606 0.43862
 H1401 H -0.06063 0.09858 0.48775
 H1402 H 0.00171 0.09978 0.50489
 H1403 H 0.00309 0.19212 0.45653
 H1404 H -0.03032 0.16126 0.41063
 H1405 H 0.00745 0.12796 0.48234
 H1406 H -0.00228 0.16383 0.47911
 H1407 H -0.05466 0.12643 0.46489
 H1408 H -0.03606 0.13323 0.43343
 C1409 C 0.47643 0.62889 0.97213
 C1410 C 0.49086 0.62371 0.98640
 C1411 C 0.48766 0.60760 0.99942
 C1412 C 0.46987 0.59604 0.99853
 C1413 C 0.45548 0.60143 0.98401
 C1414 C 0.45873 0.61758 0.97109
 C1415 C 0.47980 0.64604 0.95836
 C1416 C 0.46417 0.65932 0.95388
 C1417 C 0.46726 0.67537 0.94078
 C1418 C 0.48604 0.67849 0.93183
 C1419 C 0.50169 0.66524 0.93637
 C1420 C 0.49861 0.64921 0.94950
 H1421 H 0.49945 0.60428 1.00990
 H1422 H 0.44144 0.59352 0.98256
 H1423 H 0.45500 0.68551 0.93788
 H1424 H 0.51624 0.66707 0.92949
 H1425 H 0.44739 0.62110 0.96009
 H1426 H 0.44961 0.65746 0.96072
 H1427 H 0.50461 0.63228 0.98767
 H1428 H 0.51085 0.63906 0.95245
 C1429 C 0.52379 0.87050 0.97137
 C1430 C 0.51296 0.87176 0.98923
 C1431 C 0.51617 0.88773 1.00233
 C1432 C 0.53008 0.90300 0.99772
 C1433 C 0.54076 0.90170 0.97965
 C1434 C 0.53776 0.88556 0.96673
 C1435 C 0.52053 0.85349 0.95759
 C1436 C 0.53686 0.84290 0.94989
 C1437 C 0.53379 0.82676 0.93698
 C1438 C 0.51432 0.82105 0.93123
 C1439 C 0.49801 0.83185 0.93889
 C1440 C 0.50108 0.84778 0.95204
 H1441 H 0.50786 0.88786 1.01615
 H1442 H 0.55131 0.91321 0.97525
 H1443 H 0.54670 0.81859 0.93175
 H1444 H 0.48284 0.82819 0.93451
 H1445 H 0.54612 0.88501 0.95291
 H1446 H 0.55199 0.84690 0.95415
 H1447 H 0.50225 0.86019 0.99322
 H1448 H 0.48827 0.85589 0.95763
 C1449 C 0.02438 0.37208 0.47162
 C1450 C 0.01375 0.37320 0.48961
 C1451 C 0.01697 0.38915 0.50272
 C1452 C 0.03071 0.40455 0.49802
 C1453 C 0.04117 0.40341 0.47981
 C1454 C 0.03815 0.38729 0.46686
 C1455 C 0.02116 0.35504 0.45788
 C1456 C 0.03752 0.34460 0.45004
 C1457 C 0.03449 0.32837 0.43723
 C1458 C 0.01502 0.32241 0.43172
 C1459 C -0.00132 0.33306 0.43950
 C1460 C 0.00172 0.34909 0.45256
 H1461 H 0.00884 0.38914 0.51664
 H1462 H 0.05158 0.41502 0.47534
 H1463 H 0.04743 0.32032 0.43190
 H1464 H -0.01650 0.32922 0.43531
 H1465 H 0.04637 0.38685 0.45295
 H1466 H 0.05265 0.34878 0.45412
 H1467 H 0.00319 0.36152 0.49369
 H1468 H -0.01112 0.35707 0.45826
 C1469 C 0.37116 0.52783 0.47660
 C1470 C 0.37914 0.51656 0.49241
 C1471 C 0.39508 0.50351 0.48917
 C1472 C 0.40334 0.50130 0.46999
 C1473 C 0.39525 0.51257 0.45417
 C1474 C 0.37940 0.52573 0.45746
 C1475 C 0.35428 0.54174 0.48006
 C1476 C 0.35438 0.56098 0.47151
 C1477 C 0.33850 0.57410 0.47480
 C1478 C 0.32208 0.56822 0.48660
 C1479 C 0.32200 0.54891 0.49509
 C1480 C 0.33795 0.53585 0.49191
 H1481 H 0.40111 0.49539 0.50178
 H1482 H 0.40093 0.51103 0.43916
 H1483 H 0.33924 0.58898 0.46832
 H1484 H 0.30944 0.54374 0.50395
 H1485 H 0.37335 0.53403 0.44494
 H1486 H 0.36691 0.56601 0.46252
 H1487 H 0.37325 0.51810 0.50737
 H1488 H 0.33736 0.52100 0.49846
 C1489 C 0.87030 0.02683 -0.02384
 C1490 C 0.88131 0.02755 -0.04164
 C1491 C 0.89735 0.01458 -0.04474
 C1492 C 0.90294 0.00037 -0.03009
 C1493 C 0.89163 -0.00029 -0.01227
 C1494 C 0.87563 0.01274 -0.00923
 C1495 C 0.85337 0.04077 -0.02051
 C1496 C 0.83578 0.03411 -0.01105
 C1497 C 0.81990 0.04725 -0.00784
 C1498 C 0.82123 0.06735 -0.01406
 C1499 C 0.83879 0.07402 -0.02356
 C1500 C 0.85469 0.06089 -0.02673
 H1501 H 0.90495 0.01568 -0.05890
 H1502 H 0.89521 -0.01046 -0.00026
 H1503 H 0.80644 0.04160 -0.00076
 H1504 H 0.84037 0.08949 -0.02826
 H1505 H 0.86764 0.01202 0.00481
 H1506 H 0.83416 0.01863 -0.00638
 H1507 H 0.87733 0.03798 -0.05338
 H1508 H 0.86815 0.06658 -0.03376
 C1509 C 0.63019 0.02709 0.02690
 C1510 C 0.62273 0.01524 0.01124
 C1511 C 0.60658 0.00222 0.01433
 C1512 C 0.59753 0.00060 0.03321
 C1513 C 0.60510 0.01235 0.04892
 C1514 C 0.62119 0.02545 0.04580
 C1515 C 0.64721 0.04113 0.02348
 C1516 C 0.66205 0.04384 0.03813
 C1517 C 0.67807 0.05700 0.03485
 C1518 C 0.67967 0.06765 0.01680
 C1519 C 0.66487 0.06497 0.00216
 C1520 C 0.64879 0.05192 0.00549
 H1521 H 0.60105 -0.00635 0.00180
 H1522 H 0.59868 0.01135 0.06370
 H1523 H 0.68941 0.05857 0.04629
 H1524 H 0.66557 0.07321 -0.01177
 H1525 H 0.62642 0.03451 0.05814
 H1526 H 0.66148 0.03552 0.05202
 H1527 H 0.62946 0.01591 -0.00344
 H1528 H 0.63743 0.05050 -0.00596
 C1529 C 0.13101 0.52756 0.52808
 C1530 C 0.12611 0.51296 0.51387
 C1531 C 0.11004 0.49984 0.51696
 C1532 C 0.09819 0.50096 0.53439
 C1533 C 0.10340 0.51567 0.54868
 C1534 C 0.11956 0.52869 0.54556
 C1535 C 0.14793 0.54165 0.52457
 C1536 C 0.16124 0.54655 0.54007
 C1537 C 0.17724 0.55970 0.53667
 C1538 C 0.18027 0.56830 0.51772
 C1539 C 0.16687 0.56346 0.50227
 C1540 C 0.15091 0.55027 0.50564
 H1541 H 0.10691 0.48918 0.50528
 H1542 H 0.09530 0.51721 0.56250
 H1543 H 0.18746 0.56286 0.54882
 H1544 H 0.16856 0.57009 0.48759
 H1545 H 0.12292 0.53990 0.55675
 H1546 H 0.15947 0.53993 0.55474
 H1547 H 0.13482 0.51157 0.50033
 H1548 H 0.14071 0.54704 0.49350
 C1549 C 0.12994 0.47429 -0.02823
 C1550 C 0.11891 0.47376 -0.04602
 C1551 C 0.10290 0.48680 -0.04908
 C1552 C 0.09739 0.50091 -0.03440
 C1553 C 0.10871 0.50137 -0.01658
 C1554 C 0.12467 0.48826 -0.01357
 C1555 C 0.14685 0.46028 -0.02492
 C1556 C 0.16443 0.46682 -0.01537
 C1557 C 0.18026 0.45360 -0.01211
 C1558 C 0.17889 0.43356 -0.01837
 C1559 C 0.16135 0.42703 -0.02800
 C1560 C 0.14551 0.44023 -0.03121
 H1561 H 0.09527 0.48586 -0.06324
 H1562 H 0.10518 0.51145 -0.00454
 H1563 H 0.19370 0.45915 -0.00494
 H1564 H 0.15975 0.41160 -0.03274
 H1565 H 0.13267 0.48883 0.00048
 H1566 H 0.16608 0.48225 -0.01065
 H1567 H 0.12283 0.46341 -0.05779
 H1568 H 0.13205 0.43464 -0.03832
 C1569 C 0.62992 0.97267 0.47189
 C1570 C 0.62450 0.98649 0.48663
 C1571 C 0.60856 0.99960 0.48360
 C1572 C 0.59740 0.99932 0.46567
 C1573 C 0.60300 0.98528 0.45094
 C1574 C 0.61898 0.97222 0.45403
 C1575 C 0.64691 0.95876 0.47516
 C1576 C 0.64572 0.93872 0.46880
 C1577 C 0.66166 0.92563 0.47200
 C1578 C 0.67914 0.93226 0.48166
 C1579 C 0.68036 0.95230 0.48796
 C1580 C 0.66444 0.96541 0.48473
 H1581 H 0.60495 1.00959 0.49569
 H1582 H 0.59546 0.98442 0.43673
 H1583 H 0.66016 0.91020 0.46723
 H1584 H 0.69376 0.95794 0.49514
 H1585 H 0.62300 0.96195 0.44222
 H1586 H 0.63230 0.93306 0.46167
 H1587 H 0.63241 0.98696 0.50072
 H1588 H 0.66597 0.98083 0.48949
 C1589 C 0.87074 0.97142 0.52435
 C1590 C 0.87901 0.97332 0.54352
 C1591 C 0.89512 0.98631 0.54692
 C1592 C 0.90344 0.99761 0.53119
 C1593 C 0.89518 0.99557 0.51198
 C1594 C 0.87898 0.98269 0.50862
 C1595 C 0.85355 0.95775 0.52075
 C1596 C 0.83738 0.96393 0.50890
 C1597 C 0.82118 0.95106 0.50548
 C1598 C 0.82085 0.93165 0.51373
 C1599 C 0.83709 0.92548 0.52557
 C1600 C 0.85322 0.93842 0.52910
 H1601 H 0.90083 0.98772 0.56196
 H1602 H 0.90139 1.00369 0.49942
 H1603 H 0.80877 0.95645 0.49661
 H1604 H 0.83750 0.91053 0.53187
 H1605 H 0.87308 0.98130 0.49363
 H1606 H 0.83712 0.97886 0.50251
 H1607 H 0.87278 0.96500 0.55597
 H1608 H 0.86562 0.93318 0.53808
 C1609 C 0.37019 0.47204 0.02503
 C1610 C 0.37875 0.47368 0.04410
 C1611 C 0.39496 0.48658 0.04742
 C1612 C 0.40308 0.49804 0.03169
 C1613 C 0.39453 0.49626 0.01258
 C1614 C 0.37824 0.48347 0.00932
 C1615 C 0.35293 0.45845 0.02148
 C1616 C 0.33667 0.46478 0.00983
 C1617 C 0.32047 0.45194 0.00633
 C1618 C 0.32023 0.43241 0.01429
 C1619 C 0.33652 0.42611 0.02598
 C1620 C 0.35266 0.43901 0.02959
 H1621 H 0.40091 0.48778 0.06237
 H1622 H 0.40058 0.50450 0.00003
 H1623 H 0.30801 0.45742 -0.00240
 H1624 H 0.33699 0.41106 0.03206
 H1625 H 0.37213 0.48227 -0.00561
 H1626 H 0.33636 0.47979 0.00364
 H1627 H 0.37268 0.46522 0.05653
 H1628 H 0.36513 0.43366 0.03841
 C1629 C 0.52751 0.47332 0.37087
 C1630 C 0.52540 0.45421 0.37953
 C1631 C 0.51242 0.45109 0.39558
 C1632 C 0.50128 0.46703 0.40350
 C1633 C 0.50341 0.48615 0.39483
 C1634 C 0.51631 0.48924 0.37870
 C1635 C 0.54137 0.47666 0.35380
 C1636 C 0.55266 0.49445 0.35233
 C1637 C 0.56562 0.49762 0.33627
 C1638 C 0.56771 0.48302 0.32138
 C1639 C 0.55652 0.46519 0.32285
 C1640 C 0.54344 0.46207 0.33884
 H1641 H 0.51101 0.43611 0.40166
 H1642 H 0.49530 0.49884 0.40062
 H1643 H 0.57427 0.51139 0.33565
 H1644 H 0.55763 0.45379 0.31144
 H1645 H 0.51736 0.50410 0.37224
 H1646 H 0.55172 0.50584 0.36377
 H1647 H 0.53398 0.44166 0.37404
 H1648 H 0.53472 0.44836 0.33931
 C1649 C 0.02779 -0.02548 0.87228
 C1650 C 0.01595 -0.00979 0.87961
 C1651 C 0.00310 -0.01292 0.89577
 C1652 C 0.00165 -0.03186 0.90496
 C1653 C 0.01344 -0.04757 0.89755
 C1654 C 0.02639 -0.04440 0.88147
 C1655 C 0.04156 -0.02211 0.85515
 C1656 C 0.04424 -0.03703 0.84062
 C1657 C 0.05722 -0.03387 0.82456
 C1658 C 0.06768 -0.01566 0.82257
 C1659 C 0.06499 -0.00071 0.83701
 C1660 C 0.05214 -0.00392 0.85316
 H1661 H -0.00553 -0.00039 0.90117
 H1662 H 0.01258 -0.06241 0.90404
 H1663 H 0.05881 -0.04555 0.81349
 H1664 H 0.07308 0.01336 0.83599
 H1665 H 0.03546 -0.05676 0.87638
 H1666 H 0.03607 -0.05107 0.84148
 H1667 H 0.01646 0.00491 0.87273
 H1668 H 0.05072 0.00774 0.86425
 C1669 C 0.02803 0.02486 0.63065
 C1670 C 0.01630 0.00909 0.62302
 C1671 C 0.00350 0.01225 0.60683
 C1672 C 0.00196 0.03130 0.59793
 C1673 C 0.01362 0.04710 0.60566
 C1674 C 0.02654 0.04390 0.62175
 C1675 C 0.04178 0.02145 0.64778
 C1676 C 0.04448 0.03625 0.66247
 C1677 C 0.05744 0.03305 0.67852
 C1678 C 0.06786 0.01492 0.68036
 C1679 C 0.06515 0.00009 0.66576
 C1680 C 0.05234 0.00335 0.64961
 H1681 H -0.00501 -0.00035 0.60120
 H1682 H 0.01269 0.06203 0.59942
 H1683 H 0.05906 0.04462 0.68971
 H1684 H 0.07321 -0.01392 0.66667
 H1685 H 0.03553 0.05634 0.62706
 H1686 H 0.03633 0.05021 0.66175
 H1687 H 0.01686 -0.00570 0.62966
 H1688 H 0.05093 -0.00822 0.63839
 C1689 C 0.52938 0.52380 0.12935
 C1690 C 0.51780 0.50799 0.12158
 C1691 C 0.50496 0.51117 0.10543
 C1692 C 0.50327 0.53028 0.09669
 C1693 C 0.51484 0.54610 0.10450
 C1694 C 0.52777 0.54288 0.12057
 C1695 C 0.54305 0.52040 0.14653
 C1696 C 0.54537 0.53505 0.16142
 C1697 C 0.55822 0.53185 0.17757
 C1698 C 0.56892 0.51386 0.17927
 C1699 C 0.56661 0.49920 0.16444
 C1700 C 0.55388 0.50246 0.14822
 H1701 H 0.49650 0.49857 0.09971
 H1702 H 0.51379 0.56106 0.09836
 H1703 H 0.55952 0.54329 0.18893
 H1704 H 0.57489 0.48531 0.16524
 H1705 H 0.53665 0.55535 0.12600
 H1706 H 0.53701 0.54888 0.16079
 H1707 H 0.51847 0.49315 0.12813
 H1708 H 0.55274 0.49101 0.13685
 C1709 C 0.46799 -0.02300 0.12682
 C1710 C 0.46936 -0.04201 0.11795
 C1711 C 0.48245 -0.04528 0.10206
 C1712 C 0.49444 -0.02960 0.09454
 C1713 C 0.49292 -0.01054 0.10330
 C1714 C 0.47990 -0.00729 0.11926
 C1715 C 0.45432 -0.01961 0.14398
 C1716 C 0.44376 -0.00153 0.14577
 C1717 C 0.43113 0.00173 0.16203
 C1718 C 0.42865 -0.01306 0.17680
 C1719 C 0.43907 -0.03118 0.17497
 C1720 C 0.45181 -0.03440 0.15879
 H1721 H 0.48335 -0.06021 0.09590
 H1722 H 0.50170 0.00196 0.09778
 H1723 H 0.42306 0.01574 0.16292
 H1724 H 0.43766 -0.04273 0.18628
 H1725 H 0.47940 0.00749 0.12588
 H1726 H 0.44506 0.01003 0.13447
 H1727 H 0.46021 -0.05438 0.12322
 H1728 H 0.45998 -0.04834 0.15807
 C1729 C 0.96986 0.47666 0.62861
 C1730 C 0.97124 0.45772 0.61958
 C1731 C 0.98442 0.45455 0.60375
 C1732 C 0.99652 0.47026 0.59645
 C1733 C 0.99507 0.48922 0.60543
 C1734 C 0.98195 0.49237 0.62133
 C1735 C 0.95594 0.47998 0.64558
 C1736 C 0.94541 0.49808 0.64731
 C1737 C 0.93247 0.50126 0.66335
 C1738 C 0.92966 0.48636 0.67795
 C1739 C 0.94006 0.46822 0.67619
 C1740 C 0.95310 0.46509 0.66023
 H1741 H 0.98528 0.43969 0.59742
 H1742 H 1.00394 0.50173 0.60009
 H1743 H 0.92443 0.51528 0.66418
 H1744 H 0.93840 0.45659 0.68738
 H1745 H 0.98145 0.50708 0.62809
 H1746 H 0.94696 0.50972 0.63612
 H1747 H 0.96198 0.44535 0.62464
 H1748 H 0.96123 0.45112 0.65955
 C1749 C 0.97206 0.52763 0.86869
 C1750 C 0.97366 0.54658 0.87764
 C1751 C 0.98673 0.54969 0.89364
 C1752 C 0.99840 0.53388 0.90115
 C1753 C 0.99669 0.51490 0.89219
 C1754 C 0.98373 0.51183 0.87611
 C1755 C 0.95823 0.52432 0.85168
 C1756 C 0.96434 0.51315 0.83505
 C1757 C 0.95129 0.50992 0.81907
 C1758 C 0.93177 0.51768 0.81941
 C1759 C 0.92569 0.52888 0.83607
 C1760 C 0.93880 0.53221 0.85199
 H1761 H 0.98788 0.56457 0.89990
 H1762 H 1.00513 0.50228 0.89776
 H1763 H 0.95660 0.50156 0.80633
 H1764 H 0.91067 0.53478 0.83698
 H1765 H 0.98257 0.49700 0.86968
 H1766 H 0.97933 0.50713 0.83429
 H1767 H 0.96504 0.55909 0.87205
 H1768 H 0.93361 0.54066 0.86473
 C1769 C 0.47376 0.02855 0.36718
 C1770 C 0.48524 0.01261 0.37459
 C1771 C 0.49823 0.01551 0.39068
 C1772 C 0.50016 0.03446 0.39967
 C1773 C 0.48872 0.05042 0.39212
 C1774 C 0.47562 0.04748 0.37612
 C1775 C 0.45979 0.02536 0.35027
 C1776 C 0.44043 0.03343 0.35072
 C1777 C 0.42714 0.03011 0.33495
 C1778 C 0.43295 0.01878 0.31829
 C1779 C 0.45241 0.01088 0.31779
 C1780 C 0.46565 0.01408 0.33363
 H1781 H 0.50648 0.00277 0.39627
 H1782 H 0.49004 0.06529 0.39840
 H1783 H 0.41217 0.03613 0.33599
 H1784 H 0.45753 0.00241 0.30504
 H1785 H 0.46714 0.06009 0.37053
 H1786 H 0.43543 0.04196 0.36348
 H1787 H 0.48389 -0.00221 0.36817
 H1788 H 0.48058 0.00793 0.33276
   
