data_POSCAR
  _audit_creation_date              2014-09-24
  _audit_creation_method            'ToBaCCo'
  _symmetry_space_group_name_H-M    'P1'
  _symmetry_Int_Tables_number       1
  _symmetry_cell_setting            triclinic
  loop_
  _symmetry_equiv_pos_as_xyz
 x,y,z
_cell_length_a 71.6360
_cell_length_b 73.9224
_cell_length_c 75.9164
_cell_angle_alpha 89.928100
_cell_angle_beta 89.991400
_cell_angle_gamma 89.946700
loop_
  _atom_site_label
  _atom_site_type_symbol
  _atom_site_fract_x
  _atom_site_fract_y
  _atom_site_fract_z
C1 C 0.30889 0.30883 -0.00830
 C2 C 0.30789 0.30884 0.00963
 C3 C 0.29643 0.32237 0.01918
 C4 C 0.31888 0.29609 0.02068
 C5 C 0.32214 0.29702 -0.01808
 C6 C 0.29712 0.32114 -0.01911
 C7 C 0.30011 0.34092 0.01742
 C8 C 0.28952 0.35357 0.02674
 C9 C 0.27506 0.34786 0.03795
 C10 C 0.27141 0.32926 0.03967
 C11 C 0.28213 0.31661 0.03047
 C12 C 0.33051 0.30293 0.03395
 C13 C 0.34145 0.29129 0.04411
 C14 C 0.34089 0.27250 0.04132
 C15 C 0.32895 0.26561 0.02824
 C16 C 0.31796 0.27730 0.01807
 C17 C 0.31571 0.28671 -0.03227
 C18 C 0.32799 0.27604 -0.04205
 C19 C 0.34729 0.27519 -0.03792
 C20 C 0.35350 0.28576 -0.02347
 C21 C 0.34118 0.29667 -0.01395
 C22 C 0.27758 0.32111 -0.01758
 C23 C 0.26673 0.33273 -0.02793
 C24 C 0.27522 0.34443 -0.04016
 C25 C 0.29478 0.34430 -0.04173
 C26 C 0.30559 0.33275 -0.03135
 H27 H 0.31127 0.34557 0.00892
 H28 H 0.29255 0.36782 0.02512
 H29 H 0.26050 0.32451 0.04839
 H30 H 0.27923 0.30233 0.03207
 H31 H 0.33145 0.31737 0.03618
 H32 H 0.35068 0.29705 0.05390
 H33 H 0.30882 0.27172 0.00810
 H34 H 0.30103 0.28677 -0.03570
 H35 H 0.32183 0.26780 -0.05225
 H36 H 0.36808 0.28674 -0.01996
 H37 H 0.34662 0.30509 -0.00348
 H38 H 0.27074 0.31200 -0.00845
 H39 H 0.25169 0.33233 -0.02661
 H40 H 0.30175 0.35332 -0.05084
 H41 H 0.32064 0.33297 -0.03274
 H42 H 0.32801 0.25119 0.02595
 C43 C 0.69136 0.69171 -0.00967
 C44 C 0.69193 0.69135 0.00826
 C45 C 0.70343 0.67790 0.01788
 C46 C 0.68029 0.70366 0.01915
 C47 C 0.67786 0.70331 -0.01925
 C48 C 0.70346 0.67981 -0.02055
 C49 C 0.70023 0.65930 0.01578
 C50 C 0.71074 0.64672 0.02530
 C51 C 0.72466 0.65255 0.03703
 C52 C 0.72787 0.67118 0.03906
 C53 C 0.71721 0.68376 0.02967
 C54 C 0.66829 0.69638 0.03192
 C55 C 0.65699 0.70769 0.04207
 C56 C 0.65755 0.72656 0.03977
 C57 C 0.66979 0.73386 0.02713
 C58 C 0.68112 0.72251 0.01697
 C59 C 0.68431 0.71637 -0.03119
 C60 C 0.67167 0.72724 -0.04040
 C61 C 0.65235 0.72500 -0.03803
 C62 C 0.64593 0.71177 -0.02619
 C63 C 0.65858 0.70103 -0.01686
 C64 C 0.72296 0.67987 -0.01857
 C65 C 0.73408 0.66822 -0.02861
 C66 C 0.72592 0.65641 -0.04092
 C67 C 0.70642 0.65663 -0.04303
 C68 C 0.69533 0.66825 -0.03301
 H69 H 0.68946 0.65457 0.00690
 H70 H 0.70806 0.63244 0.02344
 H71 H 0.73835 0.67601 0.04818
 H72 H 0.71974 0.69807 0.03153
 H73 H 0.66742 0.68188 0.03380
 H74 H 0.64754 0.70162 0.05150
 H75 H 0.69055 0.72842 0.00742
 H76 H 0.69915 0.71819 -0.03328
 H77 H 0.67697 0.73719 -0.04961
 H78 H 0.63111 0.70984 -0.02407
 H79 H 0.65336 0.69085 -0.00784
 H80 H 0.72954 0.68892 -0.00925
 H81 H 0.74907 0.66859 -0.02687
 H82 H 0.69967 0.64754 -0.05221
 H83 H 0.68033 0.66798 -0.03472
 H84 H 0.67075 0.74834 0.02524
 C85 C 0.69362 0.30988 1.00954
 C86 C 0.69286 0.30949 0.99164
 C87 C 0.70480 0.32141 0.98065
 C88 C 0.67933 0.29785 0.98218
 C89 C 0.68223 0.29746 1.02054
 C90 C 0.70499 0.32350 1.01901
 C91 C 0.69652 0.33296 0.96823
 C92 C 0.70750 0.34451 0.95802
 C93 C 0.72702 0.34464 0.95992
 C94 C 0.73532 0.33284 0.97219
 C95 C 0.72431 0.32128 0.98242
 C96 C 0.66006 0.30007 0.98470
 C97 C 0.64739 0.28939 0.97538
 C98 C 0.65378 0.27627 0.96343
 C99 C 0.67309 0.27406 0.96096
 C100 C 0.68576 0.28488 0.97015
 C101 C 0.68321 0.27863 1.01828
 C102 C 0.67185 0.26717 1.02829
 C103 C 0.65945 0.27434 1.04084
 C104 C 0.65882 0.29318 1.04329
 C105 C 0.67014 0.30461 1.03329
 C106 C 0.71929 0.31793 1.03033
 C107 C 0.72986 0.33066 1.03954
 C108 C 0.72609 0.34939 1.03799
 C109 C 0.71149 0.35476 1.02658
 C110 C 0.70116 0.34198 1.01719
 H111 H 0.68149 0.33327 0.96668
 H112 H 0.70066 0.35359 0.94887
 H113 H 0.75034 0.33242 0.97376
 H114 H 0.73098 0.31221 0.99170
 H115 H 0.65487 0.31019 0.99378
 H116 H 0.63258 0.29130 0.97758
 H117 H 0.70059 0.28311 0.96795
 H118 H 0.69270 0.27283 1.00873
 H119 H 0.67287 0.25271 1.02629
 H120 H 0.64925 0.29914 1.05268
 H121 H 0.66916 0.31909 1.03522
 H122 H 0.72225 0.30366 1.03203
 H123 H 0.74037 0.32560 1.04851
 H124 H 0.70832 0.36888 1.02430
 H125 H 0.69007 0.34651 1.00853
 H126 H 0.67837 0.26420 0.95166
 C127 C 0.31290 0.68511 1.00856
 C128 C 0.31257 0.68511 0.99062
 C129 C 0.30148 0.67178 0.98051
 C130 C 0.32382 0.69807 0.98019
 C131 C 0.32559 0.69723 1.01861
 C132 C 0.30082 0.67280 1.01905
 C133 C 0.30480 0.65316 0.98231
 C134 C 0.29436 0.64072 0.97258
 C135 C 0.28039 0.64673 0.96096
 C136 C 0.27716 0.66539 0.95915
 C137 C 0.28773 0.67781 0.96874
 C138 C 0.33850 0.69165 0.96969
 C139 C 0.34992 0.70376 0.96059
 C140 C 0.34647 0.72243 0.96144
 C141 C 0.33139 0.72883 0.97147
 C142 C 0.32022 0.71672 0.98094
 C143 C 0.31842 0.70818 1.03204
 C144 C 0.33019 0.71943 1.04178
 C145 C 0.34956 0.72014 1.03826
 C146 C 0.35662 0.70888 1.02477
 C147 C 0.34484 0.69743 1.01530
 C148 C 0.28142 0.67252 1.01671
 C149 C 0.27026 0.66087 1.02670
 C150 C 0.27817 0.64929 1.03955
 C151 C 0.29777 0.64993 1.04186
 C152 C 0.30885 0.66154 1.03180
 H153 H 0.31552 0.64829 0.99120
 H154 H 0.29706 0.62641 0.97426
 H155 H 0.26664 0.67037 0.95012
 H156 H 0.28509 0.69215 0.96711
 H157 H 0.34142 0.67729 0.96897
 H158 H 0.36143 0.69859 0.95283
 H159 H 0.30886 0.72184 0.98892
 H160 H 0.30359 0.70818 1.03487
 H161 H 0.32379 0.72809 1.05154
 H162 H 0.37140 0.70814 1.02197
 H163 H 0.35083 0.68851 1.00550
 H164 H 0.27488 0.68149 1.00725
 H165 H 0.25534 0.66167 1.02472
 H166 H 0.30490 0.64098 1.05090
 H167 H 0.32383 0.66150 1.03377
 H168 H 0.32856 0.74320 0.97228
 C169 C -0.01094 0.31464 0.31551
 C170 C 0.00807 0.31372 0.31493
 C171 C 0.01869 0.30254 0.32769
 C172 C 0.01926 0.32445 0.30215
 C173 C -0.02164 0.32772 0.30455
 C174 C -0.02196 0.30282 0.32752
 C175 C 0.01732 0.30585 0.34585
 C176 C 0.02743 0.29532 0.35780
 C177 C 0.03903 0.28129 0.35179
 C178 C 0.04044 0.27807 0.33359
 C179 C 0.03047 0.28873 0.32164
 C180 C 0.03354 0.33575 0.30832
 C181 C 0.04373 0.34647 0.29663
 C182 C 0.03995 0.34604 0.27846
 C183 C 0.02589 0.33440 0.27224
 C184 C 0.01571 0.32363 0.28397
 C185 C -0.03675 0.32170 0.29444
 C186 C -0.04690 0.33378 0.28401
 C187 C -0.04213 0.35232 0.28330
 C188 C -0.02706 0.35826 0.29382
 C189 C -0.01716 0.34618 0.30446
 C190 C -0.01991 0.28397 0.32718
 C191 C -0.03007 0.27304 0.33876
 C192 C -0.04284 0.28065 0.35090
 C193 C -0.04500 0.29968 0.35079
 C194 C -0.03474 0.31054 0.33926
 H195 H 0.00845 0.31661 0.35072
 H196 H 0.02603 0.29801 0.37176
 H197 H 0.04946 0.26747 0.32863
 H198 H 0.03177 0.28610 0.30766
 H199 H 0.03651 0.33660 0.32229
 H200 H 0.05428 0.35545 0.30188
 H201 H 0.00497 0.31475 0.27890
 H202 H -0.04051 0.30750 0.29438
 H203 H -0.05790 0.32824 0.27591
 H204 H -0.02325 0.37240 0.29453
 H205 H -0.00599 0.35127 0.31269
 H206 H -0.01049 0.27769 0.31785
 H207 H -0.02831 0.25857 0.33754
 H208 H -0.05396 0.30651 0.36011
 H209 H -0.03649 0.32509 0.33976
 H210 H 0.02285 0.33355 0.25830
 C211 C -0.00982 0.68564 0.68481
 C212 C 0.00923 0.68613 0.68476
 C213 C 0.01982 0.69727 0.67187
 C214 C 0.02051 0.67515 0.69729
 C215 C -0.02036 0.67275 0.69610
 C216 C -0.02113 0.69771 0.67328
 C217 C 0.01643 0.69583 0.65369
 C218 C 0.02642 0.70646 0.64174
 C219 C 0.04026 0.71842 0.64772
 C220 C 0.04394 0.71953 0.66586
 C221 C 0.03381 0.70905 0.67782
 C222 C 0.03424 0.66339 0.69079
 C223 C 0.04457 0.65254 0.70228
 C224 C 0.04148 0.65333 0.72056
 C225 C 0.02796 0.66540 0.72708
 C226 C 0.01764 0.67629 0.71556
 C227 C -0.03489 0.67908 0.70679
 C228 C -0.04492 0.66717 0.71748
 C229 C -0.04061 0.64851 0.71788
 C230 C -0.02609 0.64227 0.70683
 C231 C -0.01632 0.65419 0.69593
 C232 C -0.01865 0.71651 0.67344
 C233 C -0.02911 0.72761 0.66224
 C234 C -0.04260 0.72024 0.65068
 C235 C -0.04519 0.70127 0.65101
 C236 C -0.03465 0.69024 0.66215
 H237 H 0.00608 0.68645 0.64877
 H238 H 0.02354 0.70513 0.62780
 H239 H 0.05448 0.72871 0.67081
 H240 H 0.03674 0.71026 0.69176
 H241 H 0.03667 0.66231 0.67674
 H242 H 0.05470 0.64323 0.69681
 H243 H 0.00735 0.68554 0.72086
 H244 H -0.03829 0.69336 0.70708
 H245 H -0.05547 0.67291 0.72600
 H246 H -0.02267 0.62805 0.70590
 H247 H -0.00561 0.64889 0.68728
 H248 H -0.00862 0.72261 0.68229
 H249 H -0.02695 0.74204 0.66326
 H250 H -0.05472 0.69458 0.64211
 H251 H -0.03675 0.67573 0.66179
 H252 H 0.02547 0.66653 0.74111
 C253 C 1.01173 0.68580 0.31554
 C254 C 0.99274 0.68487 0.31605
 C255 C 0.98174 0.69664 0.32803
 C256 C 0.98202 0.67189 0.30504
 C257 C 1.02300 0.67513 0.30282
 C258 C 1.02223 0.69696 0.32839
 C259 C 0.96944 0.68884 0.34022
 C260 C 0.95927 0.69974 0.35178
 C261 C 0.96111 0.71867 0.35127
 C262 C 0.97325 0.72646 0.33883
 C263 C 0.98340 0.71554 0.32727
 C264 C 0.98633 0.65335 0.30504
 C265 C 0.97622 0.64135 0.29450
 C266 C 0.96135 0.64762 0.28407
 C267 C 0.95677 0.66610 0.28442
 C268 C 0.96700 0.67811 0.29481
 C269 C 1.01931 0.67570 0.28470
 C270 C 1.02949 0.66488 0.27303
 C271 C 1.04389 0.65337 0.27915
 C272 C 1.04780 0.65343 0.29741
 C273 C 1.03752 0.66416 0.30901
 C274 C 1.03348 0.71119 0.32251
 C275 C 1.04336 0.72180 0.33453
 C276 C 1.04259 0.71816 0.35282
 C277 C 1.03136 0.70355 0.35849
 C278 C 1.02128 0.69317 0.34644
 H279 H 0.96795 0.67428 0.34098
 H280 H 0.95021 0.69332 0.36133
 H281 H 0.97472 0.74101 0.33791
 H282 H 0.99256 0.72183 0.31770
 H283 H 0.99751 0.64815 0.31321
 H284 H 0.97985 0.62713 0.29469
 H285 H 0.96335 0.69233 0.29472
 H286 H 1.00848 0.68447 0.27958
 H287 H 1.02631 0.66612 0.25916
 H288 H 1.05812 0.64452 0.30314
 H289 H 1.04057 0.66346 0.32297
 H290 H 1.03453 0.71414 0.30856
 H291 H 1.05222 0.73233 0.32925
 H292 H 1.02963 0.70042 0.37232
 H293 H 1.01269 0.68214 0.35119
 H294 H 0.94545 0.67131 0.27643
 C295 C 1.00906 0.31368 0.68421
 C296 C 0.99006 0.31469 0.68414
 C297 C 0.97874 0.30292 0.67246
 C298 C 0.97968 0.32772 0.69542
 C299 C 1.02062 0.32429 0.69671
 C300 C 1.01923 0.30244 0.67119
 C301 C 0.96616 0.31069 0.66049
 C302 C 0.95580 0.29978 0.64912
 C303 C 0.95771 0.28084 0.64960
 C304 C 0.97006 0.27308 0.66188
 C305 C 0.98042 0.28401 0.67325
 C306 C 0.98408 0.34624 0.69535
 C307 C 0.97437 0.35827 0.70620
 C308 C 0.95980 0.35207 0.71703
 C309 C 0.95511 0.33362 0.71675
 C310 C 0.96496 0.32157 0.70605
 C311 C 1.01759 0.32332 0.71496
 C312 C 1.02802 0.33408 0.72646
 C313 C 1.04180 0.34586 0.71991
 C314 C 1.04511 0.34640 0.70166
 C315 C 1.03468 0.33567 0.69020
 C316 C 1.03057 0.28818 0.67689
 C317 C 1.04013 0.27746 0.66470
 C318 C 1.03894 0.28102 0.64642
 C319 C 1.02762 0.29567 0.64092
 C320 C 1.01786 0.30615 0.65314
 H321 H 0.96466 0.32526 0.65972
 H322 H 0.94657 0.30618 0.63969
 H323 H 0.97159 0.25853 0.66280
 H324 H 0.98977 0.27775 0.68266
 H325 H 0.99503 0.35138 0.68688
 H326 H 0.97806 0.37247 0.70594
 H327 H 0.96124 0.30737 0.70621
 H328 H 1.00703 0.31437 0.72027
 H329 H 1.02536 0.33315 0.74047
 H330 H 1.05544 0.35548 0.69618
 H331 H 1.03724 0.33661 0.67617
 H332 H 1.03193 0.28527 0.69082
 H333 H 1.04907 0.26690 0.66983
 H334 H 1.02559 0.29874 0.62712
 H335 H 1.00919 0.31720 0.64853
 H336 H 0.94401 0.32847 0.72504
 C337 C 0.31167 -0.00907 0.31287
 C338 C 0.31229 0.00934 0.31268
 C339 C 0.32556 0.01924 0.30122
 C340 C 0.30040 0.02045 0.32452
 C341 C 0.30043 -0.01901 0.32610
 C342 C 0.32294 -0.02020 0.30050
 C343 C 0.34488 0.01671 0.30306
 C344 C 0.35730 0.02615 0.29226
 C345 C 0.35059 0.03821 0.27940
 C346 C 0.33124 0.04075 0.27765
 C347 C 0.31883 0.03146 0.28859
 C348 C 0.30871 0.03313 0.33578
 C349 C 0.29780 0.04336 0.34731
 C350 C 0.27829 0.04123 0.34772
 C351 C 0.26996 0.02873 0.33620
 C352 C 0.28091 0.01848 0.32466
 C353 C 0.28648 -0.03102 0.32058
 C354 C 0.27601 -0.04065 0.33295
 C355 C 0.27956 -0.03865 0.35105
 C356 C 0.29368 -0.02674 0.35654
 C357 C 0.30402 -0.01698 0.34417
 C358 C 0.32193 -0.01754 0.28224
 C359 C 0.33295 -0.02785 0.27082
 C360 C 0.34516 -0.04136 0.27733
 C361 C 0.34568 -0.04410 0.29578
 C362 C 0.33473 -0.03370 0.30712
 H363 H 0.35030 0.00747 0.31289
 H364 H 0.37215 0.02390 0.29381
 H365 H 0.32574 0.05013 0.26798
 H366 H 0.30396 0.03364 0.28710
 H367 H 0.32373 0.03485 0.33589
 H368 H 0.30468 0.05268 0.35617
 H369 H 0.27419 0.00901 0.31583
 H370 H 0.28366 -0.03284 0.30667
 H371 H 0.26536 -0.04991 0.32838
 H372 H 0.29662 -0.02489 0.37042
 H373 H 0.31492 -0.00794 0.34864
 H374 H 0.31251 -0.00752 0.27680
 H375 H 0.33123 -0.02555 0.25685
 H376 H 0.35517 -0.05367 0.30178
 H377 H 0.33579 -0.03593 0.32119
 H378 H 0.25496 0.02699 0.33598
 C379 C 0.68328 -0.01089 0.68300
 C380 C 0.68371 0.00750 0.68376
 C381 C 0.67165 0.01777 0.69613
 C382 C 0.69600 0.01830 0.67202
 C383 C 0.69416 -0.02111 0.66976
 C384 C 0.67152 -0.02165 0.69513
 C385 C 0.65217 0.01568 0.69593
 C386 C 0.64098 0.02551 0.70756
 C387 C 0.64903 0.03792 0.71931
 C388 C 0.66848 0.04030 0.71923
 C389 C 0.67969 0.03029 0.70774
 C390 C 0.68816 0.03162 0.66113
 C391 C 0.69945 0.04181 0.64989
 C392 C 0.71886 0.03900 0.64941
 C393 C 0.72672 0.02577 0.66051
 C394 C 0.71539 0.01556 0.67176
 C395 C 0.70780 -0.03348 0.67529
 C396 C 0.71849 -0.04286 0.66292
 C397 C 0.71547 -0.04025 0.64480
 C398 C 0.70152 -0.02811 0.63929
 C399 C 0.69097 -0.01859 0.65168
 C400 C 0.67591 -0.02297 0.71305
 C401 C 0.66443 -0.03285 0.72445
 C402 C 0.64796 -0.04123 0.71823
 C403 C 0.64385 -0.03984 0.70007
 C404 C 0.65566 -0.03043 0.68867
 H405 H 0.64561 0.00659 0.68665
 H406 H 0.62599 0.02369 0.70713
 H407 H 0.67503 0.04973 0.72820
 H408 H 0.69467 0.03223 0.70796
 H409 H 0.67322 0.03394 0.66116
 H410 H 0.69292 0.05171 0.64135
 H411 H 0.72175 0.00558 0.68032
 H412 H 0.71036 -0.03564 0.68920
 H413 H 0.72899 -0.05231 0.66749
 H414 H 0.69899 -0.02581 0.62541
 H415 H 0.68036 -0.00920 0.64721
 H416 H 0.68816 -0.01624 0.71822
 H417 H 0.66807 -0.03307 0.73828
 H418 H 0.63186 -0.04655 0.69441
 H419 H 0.65221 -0.02966 0.67479
 H420 H 0.74164 0.02348 0.66067
 C421 C 0.30870 1.01082 0.68977
 C422 C 0.30788 0.99242 0.68947
 C423 C 0.31887 0.98117 0.70194
 C424 C 0.29676 0.98265 0.67602
 C425 C 0.29694 1.02211 0.67798
 C426 C 0.32208 1.02050 0.70128
 C427 C 0.33106 0.96793 0.69542
 C428 C 0.34200 0.95768 0.70694
 C429 C 0.34086 0.96039 0.72524
 C430 C 0.32833 0.97342 0.73176
 C431 C 0.31737 0.98366 0.72022
 C432 C 0.30054 0.98492 0.65802
 C433 C 0.29032 0.97534 0.64544
 C434 C 0.27613 0.96336 0.65066
 C435 C 0.27238 0.96113 0.66870
 C436 C 0.28273 0.97059 0.68128
 C437 C 0.27744 1.02022 0.67774
 C438 C 0.26662 1.03053 0.66615
 C439 C 0.27509 1.04302 0.65468
 C440 C 0.29459 1.04512 0.65522
 C441 C 0.30538 1.03482 0.66681
 C442 C 0.31553 1.03284 0.71386
 C443 C 0.32808 1.04206 0.72471
 C444 C 0.34740 1.03934 0.72290
 C445 C 0.35393 1.02712 0.71013
 C446 C 0.34137 1.01775 0.69943
 H447 H 0.33243 0.96580 0.68136
 H448 H 0.35167 0.94793 0.70148
 H449 H 0.32692 0.97561 0.74580
 H450 H 0.30776 0.99357 0.72553
 H451 H 0.31149 0.99400 0.65374
 H452 H 0.29343 0.97736 0.63161
 H453 H 0.27975 0.96858 0.69514
 H454 H 0.27063 1.01072 0.68651
 H455 H 0.25161 1.02882 0.66626
 H456 H 0.30156 1.05444 0.64641
 H457 H 0.32041 1.03647 0.66678
 H458 H 0.30069 1.03520 0.71536
 H459 H 0.32271 1.05156 0.73431
 H460 H 0.36875 1.02472 0.70854
 H461 H 0.34667 1.00843 0.68963
 H462 H 0.26167 0.95182 0.67308
 C463 C 0.68897 1.00892 0.31304
 C464 C 0.68860 0.99046 0.31269
 C465 C 0.67550 0.98038 0.30111
 C466 C 0.70098 0.97937 0.32413
 C467 C 0.70014 1.01909 0.32626
 C468 C 0.67786 1.01992 0.30041
 C469 C 0.65625 0.98401 0.30138
 C470 C 0.64410 0.97447 0.29041
 C471 C 0.65093 0.96084 0.27924
 C472 C 0.67013 0.95695 0.27926
 C473 C 0.68230 0.96664 0.29009
 C474 C 0.69317 0.96614 0.33514
 C475 C 0.70452 0.95582 0.34622
 C476 C 0.72396 0.95840 0.34641
 C477 C 0.73180 0.97147 0.33515
 C478 C 0.72042 0.98180 0.32404
 C479 C 0.71171 1.03329 0.32076
 C480 C 0.72199 1.04324 0.33300
 C481 C 0.72111 1.03920 0.35119
 C482 C 0.70930 1.02491 0.35656
 C483 C 0.69878 1.01522 0.34430
 C484 C 0.67961 1.01743 0.28214
 C485 C 0.66874 1.02760 0.27047
 C486 C 0.65607 1.04059 0.27684
 C487 C 0.65464 1.04326 0.29513
 C488 C 0.66547 1.03307 0.30678
 H489 H 0.65062 0.99420 0.31015
 H490 H 0.62932 0.97752 0.29086
 H491 H 0.67576 0.94658 0.27071
 H492 H 0.69707 0.96353 0.28977
 H493 H 0.67821 0.96405 0.33539
 H494 H 0.69801 0.94605 0.35490
 H495 H 0.72676 0.99170 0.31539
 H496 H 0.71295 1.03655 0.30690
 H497 H 0.73121 1.05359 0.32794
 H498 H 0.70736 1.02165 0.37033
 H499 H 0.68939 1.00477 0.34894
 H500 H 0.68936 1.00758 0.27695
 H501 H 0.67037 1.02544 0.25645
 H502 H 0.64485 1.05298 0.30047
 H503 H 0.66394 1.03521 0.32082
 H504 H 0.74675 0.97357 0.33479
 O505 O 0.86648 0.83874 0.48306
 O506 O 0.83992 0.86458 0.51618
 O507 O 0.86527 0.83928 0.51736
 O508 O 0.84137 0.86427 0.48190
 O509 O 0.81936 0.84345 0.48123
 O510 O 0.84299 0.81872 0.51699
 O511 O 0.81763 0.84404 0.51536
 O512 O 0.84433 0.81804 0.48273
 Cu513 Cu 0.85549 0.85379 0.49969
 Cu514 Cu 0.82887 0.82898 0.49906
 C515 C 0.85992 0.82394 0.47722
 C516 C 0.82414 0.85878 0.52132
 C517 C 0.85823 0.82470 0.52324
 C518 C 0.82628 0.85813 0.47547
 O519 O 0.15964 0.13558 0.51680
 O520 O 0.13481 0.16087 0.48213
 O521 O 0.15998 0.13537 0.48248
 O522 O 0.13449 0.16102 0.51646
 O523 O 0.15657 0.18181 0.51627
 O524 O 0.18216 0.15603 0.48255
 O525 O 0.15703 0.18151 0.48224
 O526 O 0.18174 0.15633 0.51696
 Cu527 Cu 0.14502 0.14612 0.49945
 Cu528 Cu 0.17165 0.17094 0.49951
 C529 C 0.17492 0.14167 0.52286
 C530 C 0.14162 0.17559 0.47634
 C531 C 0.17544 0.14133 0.47668
 C532 C 0.14111 0.17588 0.52208
 O533 O 0.16108 0.86440 0.48305
 O534 O 0.13547 0.83899 0.51705
 O535 O 0.16035 0.86478 0.51738
 O536 O 0.13634 0.83872 0.48280
 O537 O 0.15856 0.81805 0.48394
 O538 O 0.18310 0.84465 0.51769
 O539 O 0.15827 0.81895 0.51816
 O540 O 0.18345 0.84387 0.48357
 Cu541 Cu 0.14606 0.85378 0.50002
 Cu542 Cu 0.17309 0.82933 0.50090
 C543 C 0.17665 0.85848 0.47748
 C544 C 0.14248 0.82462 0.52342
 C545 C 0.17593 0.85926 0.52333
 C546 C 0.14327 0.82384 0.47757
 O547 O 0.86469 0.16051 0.51742
 O548 O 0.83948 0.13458 0.48356
 O549 O 0.86454 0.16025 0.48309
 O550 O 0.83970 0.13489 0.51776
 O551 O 0.81727 0.15535 0.51752
 O552 O 0.84228 0.18088 0.48322
 O553 O 0.81734 0.15534 0.48319
 O554 O 0.84220 0.18091 0.51747
 Cu555 Cu 0.85436 0.14551 0.50045
 Cu556 Cu 0.82753 0.17017 0.50034
 C557 C 0.85774 0.17513 0.52328
 C558 C 0.82408 0.14053 0.47759
 C559 C 0.85769 0.17495 0.47727
 C560 C 0.82418 0.14075 0.52352
 O561 O 0.47939 0.86952 0.84397
 O562 O 0.51688 0.84539 0.86765
 O563 O 0.51559 0.86992 0.84275
 O564 O 0.48063 0.84523 0.86896
 O565 O 0.47912 0.82422 0.84837
 O566 O 0.51600 0.84768 0.82337
 O567 O 0.51538 0.82330 0.84820
 O568 O 0.47956 0.84832 0.82354
 Cu569 Cu 0.49821 0.85969 0.85784
 Cu570 Cu 0.49750 0.83373 0.83385
 C571 C 0.47317 0.86309 0.82960
 C572 C 0.52229 0.83003 0.86213
 C573 C 0.52183 0.86297 0.82864
 C574 C 0.47377 0.83060 0.86306
 O575 O 0.51893 0.15626 0.13149
 O576 O 0.48331 0.13151 0.15701
 O577 O 0.48252 0.15578 0.13203
 O578 O 0.51963 0.13182 0.15629
 O579 O 0.51995 0.15356 0.17615
 O580 O 0.48244 0.17717 0.15225
 O581 O 0.48384 0.15295 0.17720
 O582 O 0.51883 0.17787 0.15150
 Cu583 Cu 0.50107 0.14170 0.14217
 Cu584 Cu 0.50124 0.16758 0.16624
 C585 C 0.52501 0.17131 0.13719
 C586 C 0.47765 0.13793 0.17159
 C587 C 0.47607 0.17056 0.13803
 C588 C 0.52614 0.13858 0.17039
 O589 O 0.48278 0.15711 0.86778
 O590 O 0.51863 0.13253 0.84269
 O591 O 0.51903 0.15703 0.86742
 O592 O 0.48234 0.13279 0.84285
 O593 O 0.48302 0.15395 0.82235
 O594 O 0.51822 0.17897 0.84771
 O595 O 0.51923 0.15450 0.82301
 O596 O 0.48198 0.17820 0.84721
 Cu597 Cu 0.50070 0.14269 0.85720
 Cu598 Cu 0.50061 0.16857 0.83305
 C599 C 0.47622 0.17184 0.86178
 C600 C 0.52510 0.13931 0.82857
 C601 C 0.52469 0.17231 0.86188
 C602 C 0.47662 0.13912 0.82824
 O603 O 0.48191 0.84287 0.13205
 O604 O 0.51682 0.86822 0.15770
 O605 O 0.51817 0.84393 0.13277
 O606 O 0.48054 0.86727 0.15690
 O607 O 0.48101 0.84582 0.17711
 O608 O 0.51810 0.82220 0.15270
 O609 O 0.51729 0.84639 0.17753
 O610 O 0.48174 0.82152 0.15239
 Cu611 Cu 0.49934 0.85774 0.14284
 Cu612 Cu 0.49955 0.83181 0.16693
 C613 C 0.47583 0.82786 0.13786
 C614 C 0.52305 0.86162 0.17201
 C615 C 0.52451 0.82901 0.13857
 C616 C 0.47443 0.86060 0.17122
 O617 O 0.84338 0.48270 0.86590
 O618 O 0.86779 0.51795 0.84054
 O619 O 0.84327 0.51801 0.86600
 O620 O 0.86781 0.48293 0.84037
 O621 O 0.84494 0.48303 0.82091
 O622 O 0.82046 0.51802 0.84649
 O623 O 0.84484 0.51820 0.82115
 O624 O 0.82062 0.48275 0.84634
 Cu625 Cu 0.85781 0.50039 0.85520
 Cu626 Cu 0.83041 0.50050 0.83180
 C627 C 0.82784 0.47663 0.86042
 C628 C 0.86054 0.52404 0.82646
 C629 C 0.82767 0.52406 0.86059
 C630 C 0.86062 0.47708 0.82618
 O631 O 0.13122 0.51714 0.15937
 O632 O 0.15568 0.48176 0.13408
 O633 O 0.13085 0.48183 0.15923
 O634 O 0.15598 0.51698 0.13417
 O635 O 0.17838 0.51680 0.15410
 O636 O 0.15359 0.48135 0.17881
 O637 O 0.17838 0.48178 0.15371
 O638 O 0.15373 0.51661 0.17918
 Cu639 Cu 0.14114 0.49945 0.14475
 Cu640 Cu 0.16824 0.49908 0.16846
 C641 C 0.13833 0.52294 0.17362
 C642 C 0.17133 0.47586 0.13950
 C643 C 0.13796 0.47552 0.17329
 C644 C 0.17151 0.52289 0.13984
 O645 O 0.84225 0.51898 0.13566
 O646 O 0.86649 0.48366 0.16118
 O647 O 0.84223 0.48367 0.13556
 O648 O 0.86659 0.51867 0.16126
 O649 O 0.84364 0.51864 0.18064
 O650 O 0.81909 0.48394 0.15475
 O651 O 0.84333 0.48339 0.18035
 O652 O 0.81932 0.51894 0.15506
 Cu653 Cu 0.85667 0.50126 0.14644
 Cu654 Cu 0.82906 0.50123 0.16966
 C655 C 0.82658 0.52494 0.14096
 C656 C 0.85909 0.47754 0.17517
 C657 C 0.82643 0.47790 0.14070
 C658 C 0.85938 0.52452 0.17544
 O659 O 0.15921 0.51626 0.86302
 O660 O 0.13367 0.48174 0.83771
 O661 O 0.15909 0.48104 0.86230
 O662 O 0.13389 0.51702 0.83831
 O663 O 0.15620 0.51746 0.81829
 O664 O 0.18099 0.48122 0.84185
 O665 O 0.15571 0.48220 0.81742
 O666 O 0.18150 0.51624 0.84298
 Cu667 Cu 0.14423 0.49900 0.85235
 Cu668 Cu 0.17078 0.49935 0.82808
 C669 C 0.17483 0.52201 0.85742
 C670 C 0.14035 0.47603 0.82325
 C671 C 0.17437 0.47497 0.85614
 C672 C 0.14079 0.52342 0.82419
 C673 C 0.24315 0.38644 0.06790
 C674 C 0.26270 0.38779 0.06689
 C675 C 0.27301 0.37538 0.05701
 C676 C 0.26403 0.36123 0.04808
 C677 C 0.24451 0.35984 0.04905
 C678 C 0.23416 0.37238 0.05878
 C679 C 0.23228 0.39953 0.07852
 N680 N 0.21341 0.40059 0.07701
 N681 N 0.20369 0.41238 0.08662
 C682 C 0.21243 0.42352 0.09819
 N683 N 0.23129 0.42243 0.09971
 N684 N 0.24101 0.41071 0.09006
 C685 C 0.20171 0.43665 0.10891
 C686 C 0.21021 0.44548 0.12319
 C687 C 0.20025 0.45802 0.13322
 C688 C 0.18160 0.46215 0.12912
 C689 C 0.17305 0.45330 0.11488
 C690 C 0.18297 0.44060 0.10493
 H691 H 0.27007 0.39848 0.07371
 H692 H 0.28807 0.37665 0.05660
 H693 H 0.23724 0.34914 0.04216
 H694 H 0.21912 0.37094 0.05930
 H695 H 0.22459 0.44269 0.12666
 H696 H 0.20726 0.46463 0.14409
 H697 H 0.15869 0.45618 0.11142
 H698 H 0.17603 0.43406 0.09400
 C699 C 0.75606 0.61424 0.06787
 C700 C 0.73659 0.61257 0.06619
 C701 C 0.72645 0.62489 0.05600
 C702 C 0.73553 0.63924 0.04744
 C703 C 0.75498 0.64094 0.04909
 C704 C 0.76516 0.62850 0.05912
 C705 C 0.76674 0.60125 0.07882
 N706 N 0.78566 0.60039 0.07783
 N707 N 0.79521 0.58868 0.08769
 C708 C 0.78624 0.57741 0.09903
 N709 N 0.76733 0.57831 0.10004
 N710 N 0.75779 0.58995 0.09012
 C711 C 0.79678 0.56433 0.10999
 C712 C 0.78800 0.55541 0.12409
 C713 C 0.79778 0.54285 0.13429
 C714 C 0.81652 0.53877 0.13052
 C715 C 0.82535 0.54773 0.11647
 C716 C 0.81561 0.56045 0.10637
 H717 H 0.72915 0.60172 0.07271
 H718 H 0.71145 0.62338 0.05507
 H719 H 0.76231 0.65182 0.04250
 H720 H 0.78013 0.63018 0.06016
 H721 H 0.77354 0.55814 0.12729
 H722 H 0.79056 0.53614 0.14499
 H723 H 0.83979 0.54489 0.11326
 H724 H 0.82278 0.56706 0.09558
 C725 C 0.75965 0.38215 0.92919
 C726 C 0.74460 0.37281 0.92157
 C727 C 0.73422 0.36046 0.93147
 C728 C 0.73859 0.35719 0.94923
 C729 C 0.75381 0.36631 0.95679
 C730 C 0.76424 0.37864 0.94688
 C731 C 0.77023 0.39571 0.91882
 N732 N 0.78543 0.40409 0.92573
 N733 N 0.79468 0.41653 0.91650
 C734 C 0.78911 0.42115 0.89999
 N735 N 0.77395 0.41274 0.89308
 N736 N 0.76472 0.40028 0.90229
 C737 C 0.79918 0.43522 0.88980
 C738 C 0.79230 0.44111 0.87342
 C739 C 0.80161 0.45455 0.86391
 C740 C 0.81805 0.46235 0.87051
 C741 C 0.82501 0.45640 0.88683
 C742 C 0.81565 0.44301 0.89639
 H743 H 0.74076 0.37507 0.90795
 H744 H 0.72277 0.35343 0.92517
 H745 H 0.75739 0.36424 0.97050
 H746 H 0.77571 0.38562 0.95318
 H747 H 0.77965 0.43543 0.86795
 H748 H 0.79590 0.45880 0.85136
 H749 H 0.83765 0.46215 0.89228
 H750 H 0.82136 0.43878 0.90894
 C751 C 0.24826 0.60899 0.93026
 C752 C 0.23942 0.62323 0.93927
 C753 C 0.24985 0.63547 0.94924
 C754 C 0.26931 0.63360 0.95059
 C755 C 0.27815 0.61926 0.94179
 C756 C 0.26775 0.60714 0.93165
 C757 C 0.23726 0.59623 0.91940
 N758 N 0.24586 0.58497 0.90783
 N759 N 0.23598 0.57358 0.89797
 C760 C 0.21708 0.57292 0.89930
 N761 N 0.20848 0.58415 0.91090
 N762 N 0.21836 0.59560 0.92071
 C763 C 0.20613 0.56015 0.88840
 C764 C 0.18731 0.55656 0.89234
 C765 C 0.17712 0.54422 0.88225
 C766 C 0.18545 0.53537 0.86789
 C767 C 0.20418 0.53914 0.86380
 C768 C 0.21443 0.55132 0.87400
 H769 H 0.22444 0.62505 0.93847
 H770 H 0.24269 0.64632 0.95603
 H771 H 0.29315 0.61762 0.94250
 H772 H 0.27499 0.59630 0.92492
 H773 H 0.18051 0.56311 0.90336
 H774 H 0.16270 0.54163 0.88570
 H775 H 0.21102 0.53251 0.85285
 H776 H 0.22887 0.55384 0.87056
 C777 C 0.07028 0.24891 0.38861
 C778 C 0.06030 0.24070 0.37482
 C779 C 0.05023 0.25121 0.36281
 C780 C 0.04975 0.27013 0.36446
 C781 C 0.05961 0.27834 0.37828
 C782 C 0.06985 0.26785 0.39017
 C783 C 0.08108 0.23782 0.40129
 N784 N 0.09363 0.24566 0.41228
 N785 N 0.10333 0.23574 0.42372
 C786 C 0.10083 0.21755 0.42471
 N787 N 0.08826 0.20970 0.41373
 N788 N 0.07862 0.21962 0.40223
 C789 C 0.11150 0.20660 0.43760
 C790 C 0.10622 0.18871 0.44144
 C791 C 0.11603 0.17859 0.45397
 C792 C 0.13144 0.18608 0.46278
 C793 C 0.13687 0.20387 0.45875
 C794 C 0.12696 0.21404 0.44638
 H795 H 0.06037 0.22614 0.37323
 H796 H 0.04262 0.24455 0.35234
 H797 H 0.05959 0.29291 0.37975
 H798 H 0.07734 0.27461 0.40066
 H799 H 0.09435 0.18259 0.43495
 H800 H 0.11153 0.16490 0.45677
 H801 H 0.14866 0.21004 0.46534
 H802 H 0.13145 0.22775 0.44368
 C803 C 0.07115 0.75120 0.61099
 C804 C 0.08039 0.74186 0.62458
 C805 C 0.07035 0.73129 0.63654
 C806 C 0.05089 0.72967 0.63506
 C807 C 0.04164 0.73891 0.62144
 C808 C 0.05165 0.74964 0.60959
 C809 C 0.08180 0.76243 0.59833
 N810 N 0.07288 0.77400 0.58725
 N811 N 0.08246 0.78405 0.57582
 C812 C 0.10136 0.78289 0.57494
 N813 N 0.11028 0.77131 0.58602
 N814 N 0.10071 0.76133 0.59750
 C815 C 0.11200 0.79385 0.56205
 C816 C 0.13088 0.79004 0.55863
 C817 C 0.14080 0.80008 0.54614
 C818 C 0.13210 0.81427 0.53693
 C819 C 0.11330 0.81825 0.54052
 C820 C 0.10333 0.80809 0.55288
 H821 H 0.09540 0.74279 0.62606
 H822 H 0.07784 0.72417 0.64683
 H823 H 0.02661 0.73801 0.62012
 H824 H 0.04410 0.75662 0.59925
 H825 H 0.13798 0.77914 0.56543
 H826 H 0.15528 0.79671 0.54370
 H827 H 0.10620 0.82908 0.53361
 H828 H 0.08883 0.81143 0.55525
 C829 C 0.93039 0.75169 0.38803
 C830 C 0.94896 0.75593 0.38368
 C831 C 0.95889 0.74530 0.37167
 C832 C 0.95047 0.73021 0.36373
 C833 C 0.93186 0.72608 0.36795
 C834 C 0.92194 0.73668 0.37996
 C835 C 0.91993 0.76270 0.40103
 N836 N 0.90238 0.75796 0.40595
 N837 N 0.89302 0.76768 0.41777
 C838 C 0.90080 0.78259 0.42520
 N839 N 0.91835 0.78737 0.42025
 N840 N 0.92772 0.77762 0.40843
 C841 C 0.89038 0.79328 0.43847
 C842 C 0.89799 0.80921 0.44558
 C843 C 0.88812 0.81920 0.45815
 C844 C 0.87044 0.81346 0.46391
 C845 C 0.86284 0.79755 0.45679
 C846 C 0.87268 0.78760 0.44422
 H847 H 0.95593 0.76736 0.38968
 H848 H 0.97328 0.74871 0.36886
 H849 H 0.92489 0.71470 0.36184
 H850 H 0.90764 0.73306 0.38291
 H851 H 0.91159 0.81399 0.44145
 H852 H 0.89436 0.83141 0.46337
 H853 H 0.84925 0.79275 0.46093
 H854 H 0.86638 0.77540 0.43905
 C855 C 0.92691 0.24770 0.61304
 C856 C 0.91842 0.26269 0.62115
 C857 C 0.92835 0.27334 0.63310
 C858 C 0.94701 0.26927 0.63722
 C859 C 0.95547 0.25421 0.62923
 C860 C 0.94553 0.24354 0.61729
 C861 C 0.91648 0.23661 0.60010
 N862 N 0.92437 0.22171 0.59272
 N863 N 0.91507 0.21190 0.58093
 C864 C 0.89749 0.21657 0.57598
 N865 N 0.88959 0.23144 0.58338
 N866 N 0.89888 0.24124 0.59519
 C867 C 0.88722 0.20580 0.56267
 C868 C 0.86949 0.21132 0.55681
 C869 C 0.85992 0.20134 0.54407
 C870 C 0.86782 0.18557 0.53692
 C871 C 0.88549 0.17996 0.54285
 C872 C 0.89509 0.18997 0.55556
 H873 H 0.90408 0.26625 0.61826
 H874 H 0.92136 0.28470 0.63923
 H875 H 0.96990 0.25086 0.63195
 H876 H 0.95254 0.23213 0.61127
 H877 H 0.86300 0.22344 0.56198
 H878 H 0.84632 0.20602 0.53981
 H879 H 0.89196 0.16787 0.53761
 H880 H 0.90870 0.18530 0.55978
 C881 C 0.38867 0.06778 0.24632
 C882 C 0.37309 0.05901 0.23900
 C883 C 0.36069 0.04944 0.24975
 C884 C 0.36375 0.04826 0.26798
 C885 C 0.37940 0.05685 0.27529
 C886 C 0.39167 0.06660 0.26459
 C887 C 0.40165 0.07820 0.23503
 N888 N 0.41402 0.08994 0.24229
 N889 N 0.42565 0.09941 0.23219
 C890 C 0.42548 0.09749 0.21440
 N891 N 0.41315 0.08571 0.20713
 N892 N 0.40144 0.07630 0.21723
 C893 C 0.43852 0.10799 0.20325
 C894 C 0.44166 0.10317 0.18558
 C895 C 0.45433 0.11290 0.17524
 C896 C 0.46394 0.12778 0.18230
 C897 C 0.46060 0.13274 0.19988
 C898 C 0.44812 0.12290 0.21026
 H899 H 0.37037 0.05968 0.22498
 H900 H 0.34879 0.04280 0.24379
 H901 H 0.38198 0.05626 0.28933
 H902 H 0.40356 0.07315 0.27064
 H903 H 0.43451 0.09172 0.17980
 H904 H 0.45659 0.10877 0.16173
 H905 H 0.46783 0.14411 0.20572
 H906 H 0.44596 0.12704 0.22379
 C907 C 0.61398 0.06875 0.75424
 C908 C 0.61139 0.05000 0.75233
 C909 C 0.62278 0.04000 0.74099
 C910 C 0.63711 0.04850 0.73148
 C911 C 0.63987 0.06718 0.73352
 C912 C 0.62836 0.07723 0.74471
 C913 C 0.60159 0.07941 0.76590
 N914 N 0.60125 0.09776 0.76498
 N915 N 0.58981 0.10732 0.77522
 C916 C 0.57830 0.09894 0.78686
 N917 N 0.57873 0.08059 0.78785
 N918 N 0.59010 0.07103 0.77757
 C919 C 0.56526 0.10951 0.79797
 C920 C 0.55595 0.10127 0.81216
 C921 C 0.54320 0.11106 0.82231
 C922 C 0.53932 0.12926 0.81837
 C923 C 0.54875 0.13756 0.80430
 C924 C 0.56166 0.12782 0.79426
 H925 H 0.60043 0.04305 0.75945
 H926 H 0.62047 0.02558 0.73976
 H927 H 0.65074 0.07408 0.72622
 H928 H 0.63075 0.09163 0.74591
 H929 H 0.55847 0.08721 0.81542
 H930 H 0.53613 0.10426 0.83305
 H931 H 0.54609 0.15158 0.80097
 H932 H 0.56857 0.13457 0.78340
 C933 C 0.37745 0.93016 0.75946
 C934 C 0.36855 0.92170 0.74517
 C935 C 0.35645 0.93143 0.73427
 C936 C 0.35297 0.94986 0.73737
 C937 C 0.36157 0.95825 0.75185
 C938 C 0.37367 0.94851 0.76277
 C939 C 0.39092 0.91999 0.77052
 N940 N 0.39914 0.92783 0.78471
 N941 N 0.41162 0.91881 0.79433
 C942 C 0.41645 0.90156 0.79014
 N943 N 0.40817 0.89370 0.77599
 N944 N 0.39568 0.90271 0.76640
 C945 C 0.43069 0.89162 0.80052
 C946 C 0.43678 0.87442 0.79511
 C947 C 0.45051 0.86517 0.80459
 C948 C 0.45843 0.87286 0.81976
 C949 C 0.45224 0.88998 0.82530
 C950 C 0.43854 0.89928 0.81576
 H951 H 0.37101 0.90756 0.74229
 H952 H 0.34979 0.92450 0.72340
 H953 H 0.35934 0.97249 0.75446
 H954 H 0.38030 0.95547 0.77364
 H955 H 0.43107 0.86810 0.78343
 H956 H 0.45493 0.85199 0.79999
 H957 H 0.45807 0.89627 0.83693
 H958 H 0.43416 0.91249 0.82032
 C959 C 0.61341 0.93102 0.24583
 C960 C 0.61210 0.94996 0.24704
 C961 C 0.62423 0.95963 0.25794
 C962 C 0.63804 0.95060 0.26771
 C963 C 0.63945 0.93170 0.26641
 C964 C 0.62721 0.92200 0.25566
 C965 C 0.60038 0.92070 0.23449
 N966 N 0.59929 0.90240 0.23574
 N967 N 0.58745 0.89311 0.22570
 C968 C 0.57625 0.90172 0.21393
 N969 N 0.57740 0.92002 0.21263
 N970 N 0.58919 0.92931 0.22272
 C971 C 0.56292 0.89139 0.20294
 C972 C 0.55373 0.89968 0.18869
 C973 C 0.54097 0.88995 0.17849
 C974 C 0.53697 0.87179 0.18243
 C975 C 0.54620 0.86348 0.19663
 C976 C 0.55909 0.87314 0.20671
 H977 H 0.60161 0.95732 0.23967
 H978 H 0.62296 0.97422 0.25858
 H979 H 0.64987 0.92439 0.27393
 H980 H 0.62863 0.90743 0.25502
 H981 H 0.55641 0.91369 0.18538
 H982 H 0.53406 0.89674 0.16765
 H983 H 0.54347 0.84948 0.19997
 H984 H 0.56589 0.86635 0.21761
 C985 C 0.38468 0.24327 0.93232
 C986 C 0.36771 0.24903 0.92507
 C987 C 0.35523 0.25941 0.93494
 C988 C 0.35940 0.26475 0.95245
 C989 C 0.37671 0.25885 0.95951
 C990 C 0.38899 0.24819 0.94966
 C991 C 0.39786 0.23228 0.92179
 N992 N 0.41158 0.22257 0.92975
 N993 N 0.42349 0.21275 0.92027
 C994 C 0.42225 0.21231 0.90242
 N995 N 0.40855 0.22205 0.89445
 N996 N 0.39657 0.23178 0.90395
 C997 C 0.43568 0.20163 0.89188
 C998 C 0.43818 0.20523 0.87385
 C999 C 0.45130 0.19551 0.86404
 C1000 C 0.46198 0.18181 0.87200
 C1001 C 0.45924 0.17798 0.88994
 C1002 C 0.44633 0.18788 0.89981
 H1003 H 0.36401 0.24552 0.91167
 H1004 H 0.34282 0.26398 0.92818
 H1005 H 0.38066 0.26150 0.97299
 H1006 H 0.40196 0.24386 0.95567
 H1007 H 0.43022 0.21578 0.86738
 H1008 H 0.45308 0.19873 0.85022
 H1009 H 0.46732 0.16754 0.89645
 H1010 H 0.44466 0.18473 0.91366
 C1011 C 0.61359 0.75739 0.93216
 C1012 C 0.61104 0.73860 0.93378
 C1013 C 0.62352 0.72814 0.94360
 C1014 C 0.63894 0.73620 0.95186
 C1015 C 0.64155 0.75496 0.95026
 C1016 C 0.62894 0.76547 0.94059
 C1017 C 0.60037 0.76841 0.92165
 N1018 N 0.60031 0.78675 0.92282
 N1019 N 0.58836 0.79660 0.91336
 C1020 C 0.57606 0.78852 0.90226
 N1021 N 0.57617 0.77020 0.90106
 N1022 N 0.58805 0.76035 0.91058
 C1023 C 0.56269 0.79938 0.89175
 C1024 C 0.55279 0.79139 0.87780
 C1025 C 0.53992 0.80145 0.86804
 C1026 C 0.53650 0.81969 0.87210
 C1027 C 0.54645 0.82775 0.88597
 C1028 C 0.55950 0.81772 0.89563
 H1029 H 0.59935 0.73195 0.92749
 H1030 H 0.62129 0.71368 0.94450
 H1031 H 0.65325 0.76151 0.95662
 H1032 H 0.63132 0.77990 0.93959
 H1033 H 0.55498 0.77733 0.87440
 H1034 H 0.53245 0.79483 0.85746
 H1035 H 0.54414 0.84179 0.88939
 H1036 H 0.56687 0.82427 0.90631
 C1037 C 0.38586 0.75426 0.06779
 C1038 C 0.36934 0.74761 0.07530
 C1039 C 0.35730 0.73661 0.06557
 C1040 C 0.36157 0.73164 0.04806
 C1041 C 0.37827 0.73842 0.04065
 C1042 C 0.39011 0.74966 0.05032
 C1043 C 0.39869 0.76574 0.07819
 N1044 N 0.41193 0.77593 0.07010
 N1045 N 0.42363 0.78608 0.07948
 C1046 C 0.42264 0.78637 0.09734
 N1047 N 0.40940 0.77617 0.10543
 N1048 N 0.39763 0.76611 0.09605
 C1049 C 0.43593 0.79730 0.10779
 C1050 C 0.43867 0.79366 0.12578
 C1051 C 0.45162 0.80360 0.13554
 C1052 C 0.46189 0.81759 0.12759
 C1053 C 0.45893 0.82144 0.10968
 C1054 C 0.44618 0.81131 0.09985
 H1055 H 0.36568 0.75088 0.08877
 H1056 H 0.34508 0.73141 0.07224
 H1057 H 0.38201 0.73569 0.02711
 H1058 H 0.40272 0.75463 0.04412
 H1059 H 0.43103 0.78292 0.13227
 H1060 H 0.45356 0.80036 0.14934
 H1061 H 0.46668 0.83211 0.10319
 H1062 H 0.44432 0.81450 0.08604
 C1063 C 0.62167 0.24063 0.07045
 C1064 C 0.63098 0.25513 0.07857
 C1065 C 0.64347 0.26583 0.06905
 C1066 C 0.64695 0.26233 0.05116
 C1067 C 0.63794 0.24762 0.04310
 C1068 C 0.62545 0.23688 0.05264
 C1069 C 0.60780 0.22982 0.08042
 N1070 N 0.59933 0.21525 0.07300
 N1071 N 0.58655 0.20585 0.08188
 C1072 C 0.58166 0.21064 0.09853
 N1073 N 0.59017 0.22516 0.10594
 N1074 N 0.60296 0.23454 0.09708
 C1075 C 0.56720 0.20044 0.10837
 C1076 C 0.56103 0.20658 0.12489
 C1077 C 0.54731 0.19715 0.13416
 C1078 C 0.53946 0.18129 0.12719
 C1079 C 0.54564 0.17508 0.11070
 C1080 C 0.55933 0.18458 0.10136
 H1081 H 0.62854 0.25833 0.09229
 H1082 H 0.65043 0.27687 0.07571
 H1083 H 0.64017 0.24470 0.02929
 H1084 H 0.61851 0.22583 0.04596
 H1085 H 0.56674 0.21876 0.13068
 H1086 H 0.54289 0.20229 0.14685
 H1087 H 0.53986 0.16290 0.10497
 H1088 H 0.56377 0.17946 0.08868
 C1089 C 0.24302 0.07350 0.61679
 C1090 C 0.23856 0.05536 0.62048
 C1091 C 0.24881 0.04554 0.63291
 C1092 C 0.26373 0.05364 0.64197
 C1093 C 0.26799 0.07185 0.63848
 C1094 C 0.25778 0.08165 0.62603
 C1095 C 0.23257 0.08376 0.60318
 N1096 N 0.23792 0.10072 0.59852
 N1097 N 0.22877 0.10984 0.58608
 C1098 C 0.21386 0.10239 0.57777
 N1099 N 0.20846 0.08544 0.58247
 N1100 N 0.21763 0.07632 0.59490
 C1101 C 0.20381 0.11248 0.56378
 C1102 C 0.18760 0.10530 0.55604
 C1103 C 0.17820 0.11478 0.54279
 C1104 C 0.18484 0.13163 0.53692
 C1105 C 0.20104 0.13881 0.54464
 C1106 C 0.21039 0.12936 0.55794
 H1107 H 0.22731 0.04863 0.61358
 H1108 H 0.24533 0.03147 0.63513
 H1109 H 0.27921 0.07856 0.64544
 H1110 H 0.26153 0.09562 0.62362
 H1111 H 0.18212 0.09234 0.56023
 H1112 H 0.16576 0.10887 0.53711
 H1113 H 0.20650 0.15177 0.54044
 H1114 H 0.22285 0.13530 0.56357
 C1115 C 0.75263 0.06940 0.38859
 C1116 C 0.74683 0.07737 0.37273
 C1117 C 0.73665 0.06744 0.36039
 C1118 C 0.73164 0.04925 0.36365
 C1119 C 0.73744 0.04142 0.37974
 C1120 C 0.74791 0.05130 0.39192
 C1121 C 0.76347 0.07995 0.40161
 N1122 N 0.77339 0.07149 0.41446
 N1123 N 0.78312 0.08101 0.42618
 C1124 C 0.78324 0.09937 0.42560
 N1125 N 0.77329 0.10783 0.41278
 N1126 N 0.76366 0.09831 0.40099
 C1127 C 0.79388 0.10996 0.43874
 C1128 C 0.78986 0.12835 0.44149
 C1129 C 0.79965 0.13827 0.45413
 C1130 C 0.81386 0.13008 0.46410
 C1131 C 0.81805 0.11175 0.46119
 C1132 C 0.80807 0.10176 0.44874
 H1133 H 0.75020 0.09133 0.36979
 H1134 H 0.73209 0.07445 0.34864
 H1135 H 0.73464 0.02739 0.38278
 H1136 H 0.75222 0.04475 0.40402
 H1137 H 0.77897 0.13504 0.43404
 H1138 H 0.79614 0.15239 0.45604
 H1139 H 0.82889 0.10506 0.46872
 H1140 H 0.81155 0.08763 0.44688
 C1141 C 0.74848 0.93032 0.60708
 C1142 C 0.72900 0.93162 0.60511
 C1143 C 0.71831 0.94134 0.61725
 C1144 C 0.72684 0.94978 0.63171
 C1145 C 0.74629 0.94852 0.63369
 C1146 C 0.75701 0.93898 0.62145
 C1147 C 0.75979 0.91986 0.59431
 N1148 N 0.77868 0.92137 0.59402
 N1149 N 0.78884 0.91186 0.58260
 C1150 C 0.78054 0.90036 0.57108
 N1151 N 0.76164 0.89885 0.57139
 N1152 N 0.75148 0.90842 0.58274
 C1153 C 0.79180 0.88967 0.55846
 C1154 C 0.78375 0.87514 0.54929
 C1155 C 0.79432 0.86502 0.53738
 C1156 C 0.81313 0.86932 0.53422
 C1157 C 0.82119 0.88387 0.54336
 C1158 C 0.81067 0.89387 0.55543
 H1159 H 0.72200 0.92516 0.59416
 H1160 H 0.70332 0.94201 0.61551
 H1161 H 0.75321 0.95506 0.64465
 H1162 H 0.77197 0.93823 0.62336
 H1163 H 0.76928 0.87149 0.55136
 H1164 H 0.78768 0.85392 0.53051
 H1165 H 0.83567 0.88748 0.54123
 H1166 H 0.81728 0.90501 0.56225
 C1167 C 0.24822 0.93037 0.38889
 C1168 C 0.26774 0.93175 0.39024
 C1169 C 0.27788 0.94195 0.37805
 C1170 C 0.26875 0.95082 0.36415
 C1171 C 0.24925 0.94944 0.36274
 C1172 C 0.23908 0.93940 0.37504
 C1173 C 0.23750 0.91953 0.40181
 N1174 N 0.21861 0.92092 0.40278
 N1175 N 0.20899 0.91121 0.41445
 C1176 C 0.21784 0.89964 0.42558
 N1177 N 0.23671 0.89821 0.42457
 N1178 N 0.24634 0.90798 0.41296
 C1179 C 0.20717 0.88890 0.43863
 C1180 C 0.21570 0.87448 0.44766
 C1181 C 0.20571 0.86446 0.46011
 C1182 C 0.18704 0.86876 0.46393
 C1183 C 0.17849 0.88315 0.45489
 C1184 C 0.18842 0.89305 0.44230
 H1185 H 0.27522 0.92500 0.40077
 H1186 H 0.29292 0.94267 0.37933
 H1187 H 0.24187 0.95628 0.35221
 H1188 H 0.22407 0.93860 0.37361
 H1189 H 0.23009 0.87088 0.44509
 H1190 H 0.21270 0.85348 0.46688
 H1191 H 0.16410 0.88676 0.45752
 H1192 H 0.18145 0.90409 0.43561
 C1193 C 0.07224 0.38234 0.75358
 C1194 C 0.05321 0.37884 0.75664
 C1195 C 0.04341 0.36676 0.74592
 C1196 C 0.05242 0.35788 0.73194
 C1197 C 0.07153 0.36107 0.72913
 C1198 C 0.08131 0.37317 0.73981
 C1199 C 0.08246 0.39579 0.76436
 N1200 N 0.10028 0.40046 0.76026
 N1201 N 0.10935 0.41287 0.76964
 C1202 C 0.10101 0.42114 0.78353
 N1203 N 0.08322 0.41642 0.78769
 N1204 N 0.07413 0.40403 0.77829
 C1205 C 0.11107 0.43515 0.79378
 C1206 C 0.10306 0.44271 0.80900
 C1207 C 0.11256 0.45597 0.81858
 C1208 C 0.13023 0.46203 0.81311
 C1209 C 0.13821 0.45450 0.79788
 C1210 C 0.12877 0.44119 0.78835
 H1211 H 0.04577 0.38569 0.76711
 H1212 H 0.02865 0.36475 0.74829
 H1213 H 0.07893 0.35421 0.71865
 H1214 H 0.09598 0.37541 0.73715
 H1215 H 0.08946 0.43837 0.81357
 H1216 H 0.10602 0.46151 0.83026
 H1217 H 0.15182 0.45883 0.79333
 H1218 H 0.13534 0.43570 0.77668
 C1219 C 0.07329 0.61737 0.24507
 C1220 C 0.08157 0.62372 0.26063
 C1221 C 0.07208 0.63573 0.27163
 C1222 C 0.05391 0.64185 0.26747
 C1223 C 0.04591 0.63577 0.25151
 C1224 C 0.05544 0.62369 0.24055
 C1225 C 0.08312 0.60394 0.23392
 N1226 N 0.07516 0.59742 0.21898
 N1227 N 0.08384 0.58498 0.20927
 C1228 C 0.10086 0.57852 0.21410
 N1229 N 0.10883 0.58510 0.22900
 N1230 N 0.10016 0.59753 0.23869
 C1231 C 0.11045 0.56442 0.20356
 C1232 C 0.12776 0.55745 0.20907
 C1233 C 0.13675 0.54401 0.19935
 C1234 C 0.12869 0.53721 0.18385
 C1235 C 0.11142 0.54419 0.17826
 C1236 C 0.10239 0.55765 0.18802
 H1237 H 0.09543 0.61936 0.26442
 H1238 H 0.07944 0.64051 0.28314
 H1239 H 0.03187 0.63946 0.24774
 H1240 H 0.04862 0.61904 0.22866
 H1241 H 0.13439 0.56233 0.22097
 H1242 H 0.15006 0.53895 0.20401
 H1243 H 0.10485 0.53924 0.16636
 H1244 H 0.08907 0.56271 0.18339
 C1245 C 0.92802 0.38896 0.25026
 C1246 C 0.91923 0.37353 0.25711
 C1247 C 0.92901 0.36145 0.26786
 C1248 C 0.94788 0.36457 0.27235
 C1249 C 0.95653 0.38025 0.26550
 C1250 C 0.94678 0.39215 0.25453
 C1251 C 0.91769 0.40169 0.23876
 N1252 N 0.92696 0.41398 0.22874
 N1253 N 0.91767 0.42547 0.21843
 C1254 C 0.89873 0.42521 0.21778
 N1255 N 0.88945 0.41293 0.22781
 N1256 N 0.89874 0.40137 0.23804
 C1257 C 0.88843 0.43821 0.20654
 C1258 C 0.86928 0.44133 0.20922
 C1259 C 0.85971 0.45404 0.19897
 C1260 C 0.86904 0.46370 0.18567
 C1261 C 0.88810 0.46034 0.18278
 C1262 C 0.89772 0.44781 0.19317
 H1263 H 0.90474 0.37072 0.25411
 H1264 H 0.92137 0.35007 0.27316
 H1265 H 0.97111 0.38310 0.26790
 H1266 H 0.95399 0.40391 0.24943
 H1267 H 0.86173 0.43419 0.21943
 H1268 H 0.84502 0.45631 0.20148
 H1269 H 0.89567 0.46761 0.17266
 H1270 H 0.91244 0.44565 0.19072
 C1271 C 0.92970 0.61228 0.75139
 C1272 C 0.92109 0.62800 0.74496
 C1273 C 0.93083 0.63996 0.73407
 C1274 C 0.94947 0.63642 0.72903
 C1275 C 0.95794 0.62047 0.73549
 C1276 C 0.94824 0.60869 0.74660
 C1277 C 0.91937 0.59966 0.76297
 N1278 N 0.92861 0.58711 0.77274
 N1279 N 0.91931 0.57568 0.78308
 C1280 C 0.90038 0.57624 0.78401
 N1281 N 0.89115 0.58878 0.77424
 N1282 N 0.90045 0.60028 0.76397
 C1283 C 0.89005 0.56329 0.79523
 C1284 C 0.87087 0.56035 0.79261
 C1285 C 0.86126 0.54766 0.80281
 C1286 C 0.87056 0.53784 0.81601
 C1287 C 0.88966 0.54102 0.81887
 C1288 C 0.89933 0.55352 0.80850
 H1289 H 0.90676 0.63112 0.74836
 H1290 H 0.92332 0.65158 0.72909
 H1291 H 0.97237 0.61728 0.73266
 H1292 H 0.95530 0.59669 0.75139
 H1293 H 0.86334 0.56762 0.78246
 H1294 H 0.84654 0.54553 0.80034
 H1295 H 0.89721 0.53362 0.82891
 H1296 H 0.91408 0.55555 0.81091
 C1297 C 0.75883 0.61858 0.92890
 C1298 C 0.74385 0.62792 0.92110
 C1299 C 0.73339 0.64036 0.93081
 C1300 C 0.73760 0.64375 0.94859
 C1301 C 0.75276 0.63463 0.95633
 C1302 C 0.76326 0.62219 0.94660
 C1303 C 0.76950 0.60493 0.91869
 N1304 N 0.78465 0.59654 0.92573
 N1305 N 0.79398 0.58405 0.91662
 C1306 C 0.78853 0.57939 0.90010
 N1307 N 0.77341 0.58781 0.89306
 N1308 N 0.76411 0.60031 0.90215
 C1309 C 0.79869 0.56531 0.88999
 C1310 C 0.79190 0.55941 0.87360
 C1311 C 0.80130 0.54603 0.86411
 C1312 C 0.81778 0.53825 0.87073
 C1313 C 0.82465 0.54418 0.88708
 C1314 C 0.81519 0.55752 0.89662
 H1315 H 0.74011 0.62559 0.90747
 H1316 H 0.72201 0.64739 0.92437
 H1317 H 0.75623 0.63678 0.97005
 H1318 H 0.77468 0.61523 0.95304
 H1319 H 0.77923 0.56507 0.86809
 H1320 H 0.79564 0.54180 0.85155
 H1321 H 0.83730 0.53845 0.89255
 H1322 H 0.82083 0.56175 0.90919
 C1323 C 0.24298 0.38095 0.92755
 C1324 C 0.23819 0.37809 0.94531
 C1325 C 0.24849 0.36608 0.95575
 C1326 C 0.26382 0.35670 0.94868
 C1327 C 0.26842 0.35934 0.93087
 C1328 C 0.25814 0.37131 0.92044
 C1329 C 0.23256 0.39414 0.91655
 N1330 N 0.23778 0.39732 0.89964
 N1331 N 0.22879 0.40947 0.88984
 C1332 C 0.21420 0.41900 0.89648
 N1333 N 0.20888 0.41572 0.91337
 N1334 N 0.21788 0.40357 0.92321
 C1335 C 0.20444 0.43287 0.88562
 C1336 C 0.18798 0.44099 0.89175
 C1337 C 0.17851 0.45428 0.88209
 C1338 C 0.18472 0.46061 0.86560
 C1339 C 0.20091 0.45374 0.85775
 C1340 C 0.21178 0.43875 0.86825
 H1341 H 0.22661 0.38529 0.95123
 H1342 H 0.24471 0.36445 0.96947
 H1343 H 0.27996 0.35208 0.92496
 H1344 H 0.26218 0.37307 0.90681
 H1345 H 0.18217 0.43703 0.90434
 H1346 H 0.16592 0.45989 0.88781
 H1347 H 0.20881 0.44571 0.86094
 H1348 H 0.22628 0.43002 0.86541
 C1349 C 0.24470 0.61319 0.07014
 C1350 C 0.23852 0.61933 0.05364
 C1351 C 0.24938 0.63125 0.04365
 C1352 C 0.26689 0.63741 0.04981
 C1353 C 0.27285 0.63124 0.06653
 C1354 C 0.26194 0.61937 0.07648
 C1355 C 0.23338 0.60028 0.08065
 N1356 N 0.23957 0.59425 0.09652
 N1357 N 0.22960 0.58248 0.10589
 C1358 C 0.21299 0.57621 0.09982
 N1359 N 0.20675 0.58228 0.08397
 N1360 N 0.21673 0.59406 0.07459
 C1361 C 0.20209 0.56286 0.11019
 C1362 C 0.18492 0.55624 0.10395
 C1363 C 0.17489 0.54338 0.11363
 C1364 C 0.18182 0.53684 0.12975
 C1365 C 0.19890 0.54357 0.13604
 C1366 C 0.20890 0.55641 0.12640
 H1367 H 0.22533 0.61475 0.04828
 H1368 H 0.24421 0.63489 0.03074
 H1369 H 0.28565 0.63599 0.07246
 H1370 H 0.26708 0.61510 0.08924
 H1371 H 0.17923 0.56092 0.09154
 H1372 H 0.16177 0.53848 0.10841
 H1373 H 0.20464 0.53883 0.14842
 H1374 H 0.22205 0.56120 0.13163
 C1375 C 0.75687 0.38797 0.06791
 C1376 C 0.73845 0.39157 0.06272
 C1377 C 0.72844 0.37906 0.05269
 C1378 C 0.73645 0.36234 0.04776
 C1379 C 0.75503 0.35887 0.05307
 C1380 C 0.76510 0.37156 0.06285
 C1381 C 0.76735 0.40120 0.07869
 N1382 N 0.78625 0.40038 0.07990
 N1383 N 0.79563 0.41228 0.08964
 C1384 C 0.78647 0.42542 0.09869
 N1385 N 0.76757 0.42621 0.09752
 N1386 N 0.75821 0.41439 0.08769
 C1387 C 0.79682 0.43863 0.10960
 C1388 C 0.78751 0.44873 0.12258
 C1389 C 0.79720 0.46128 0.13283
 C1390 C 0.81637 0.46422 0.13016
 C1391 C 0.82570 0.45415 0.11716
 C1392 C 0.81606 0.44138 0.10708
 H1393 H 0.73168 0.40411 0.06644
 H1394 H 0.71410 0.38233 0.04959
 H1395 H 0.76222 0.34664 0.04918
 H1396 H 0.77933 0.36841 0.06658
 H1397 H 0.77272 0.44687 0.12490
 H1398 H 0.78961 0.46888 0.14270
 H1399 H 0.84048 0.45609 0.11483
 H1400 H 0.82362 0.43385 0.09714
 C1401 C 0.92639 0.75323 0.61486
 C1402 C 0.91925 0.73662 0.62073
 C1403 C 0.92929 0.72590 0.63257
 C1404 C 0.94691 0.73142 0.63901
 C1405 C 0.95381 0.74834 0.63324
 C1406 C 0.94373 0.75901 0.62134
 C1407 C 0.91592 0.76429 0.60184
 N1408 N 0.92291 0.78022 0.59584
 N1409 N 0.91366 0.78994 0.58388
 C1410 C 0.89702 0.78414 0.57742
 N1411 N 0.89001 0.76825 0.58348
 N1412 N 0.89925 0.75853 0.59543
 C1413 C 0.88688 0.79476 0.56384
 C1414 C 0.86980 0.78855 0.55702
 C1415 C 0.86044 0.79833 0.54395
 C1416 C 0.86794 0.81456 0.53738
 C1417 C 0.88493 0.82086 0.54430
 C1418 C 0.89429 0.81108 0.55737
 H1419 H 0.90581 0.73182 0.61618
 H1420 H 0.92273 0.71355 0.63702
 H1421 H 0.96743 0.75317 0.63713
 H1422 H 0.94972 0.77172 0.61704
 H1423 H 0.86366 0.77606 0.56170
 H1424 H 0.84737 0.79311 0.53892
 H1425 H 0.89108 0.83331 0.53953
 H1426 H 0.90740 0.81628 0.56232
 C1427 C 0.92671 0.24781 0.38728
 C1428 C 0.91980 0.26472 0.38195
 C1429 C 0.92969 0.27543 0.36999
 C1430 C 0.94691 0.26959 0.36287
 C1431 C 0.95363 0.25243 0.36818
 C1432 C 0.94371 0.24178 0.38020
 C1433 C 0.91631 0.23666 0.40025
 N1434 N 0.92317 0.22051 0.40588
 N1435 N 0.91391 0.21064 0.41770
 C1436 C 0.89738 0.21649 0.42439
 N1437 N 0.89051 0.23261 0.41873
 N1438 N 0.89977 0.24248 0.40693
 C1439 C 0.88713 0.20565 0.43772
 C1440 C 0.86996 0.21177 0.44445
 C1441 C 0.86039 0.20176 0.45719
 C1442 C 0.86775 0.18537 0.46354
 C1443 C 0.88485 0.17916 0.45675
 C1444 C 0.89443 0.18919 0.44399
 H1445 H 0.90664 0.26975 0.38698
 H1446 H 0.92328 0.28801 0.36596
 H1447 H 0.96699 0.24735 0.36378
 H1448 H 0.94953 0.22885 0.38409
 H1449 H 0.86389 0.22437 0.43994
 H1450 H 0.84725 0.20692 0.46212
 H1451 H 0.89090 0.16659 0.46135
 H1452 H 0.90761 0.18405 0.43910
 C1453 C 0.06911 0.24906 0.60932
 C1454 C 0.06475 0.26717 0.60562
 C1455 C 0.05467 0.27760 0.61767
 C1456 C 0.04889 0.27032 0.63401
 C1457 C 0.05344 0.25207 0.63761
 C1458 C 0.06324 0.24159 0.62538
 C1459 C 0.07982 0.23807 0.59651
 N1460 N 0.07978 0.21971 0.59744
 N1461 N 0.08941 0.20986 0.58589
 C1462 C 0.09959 0.21796 0.57301
 N1463 N 0.09967 0.23631 0.57212
 N1464 N 0.08994 0.24616 0.58359
 C1465 C 0.11036 0.20707 0.56018
 C1466 C 0.12477 0.21503 0.55029
 C1467 C 0.13490 0.20482 0.53811
 C1468 C 0.13067 0.18649 0.53534
 C1469 C 0.11623 0.17851 0.54518
 C1470 C 0.10628 0.18866 0.55758
 H1471 H 0.06911 0.27334 0.59335
 H1472 H 0.05223 0.29163 0.61434
 H1473 H 0.04885 0.24548 0.64958
 H1474 H 0.06632 0.22763 0.62860
 H1475 H 0.12831 0.22915 0.55204
 H1476 H 0.14590 0.21136 0.53068
 H1477 H 0.11269 0.16440 0.54336
 H1478 H 0.09522 0.18215 0.56495
 C1479 C 0.07331 0.75000 0.38954
 C1480 C 0.06721 0.75750 0.37356
 C1481 C 0.05727 0.74705 0.36145
 C1482 C 0.05281 0.72879 0.36507
 C1483 C 0.05889 0.72146 0.38128
 C1484 C 0.06911 0.73186 0.39323
 C1485 C 0.08398 0.76104 0.40232
 N1486 N 0.09410 0.75302 0.41530
 N1487 N 0.10367 0.76293 0.42682
 C1488 C 0.10343 0.78128 0.42591
 N1489 N 0.09329 0.78930 0.41296
 N1490 N 0.08382 0.77939 0.40137
 C1491 C 0.11388 0.79228 0.43888
 C1492 C 0.10960 0.81067 0.44130
 C1493 C 0.11914 0.82092 0.45386
 C1494 C 0.13337 0.81308 0.46408
 C1495 C 0.13784 0.79477 0.46148
 C1496 C 0.12811 0.78444 0.44911
 H1497 H 0.07019 0.77148 0.37035
 H1498 H 0.05247 0.75368 0.34957
 H1499 H 0.05654 0.70742 0.38461
 H1500 H 0.07366 0.72566 0.40543
 H1501 H 0.09867 0.81709 0.43366
 H1502 H 0.11543 0.83502 0.45553
 H1503 H 0.14869 0.78833 0.46920
 H1504 H 0.13179 0.77033 0.44751
 C1505 C 0.61143 0.93047 0.75283
 C1506 C 0.60441 0.93958 0.73806
 C1507 C 0.61642 0.94866 0.72657
 C1508 C 0.63583 0.94935 0.72983
 C1509 C 0.64270 0.94042 0.74497
 C1510 C 0.63068 0.93085 0.75613
 C1511 C 0.59866 0.92061 0.76469
 N1512 N 0.60412 0.90505 0.77272
 N1513 N 0.59238 0.89595 0.78307
 C1514 C 0.57481 0.90220 0.78597
 N1515 N 0.56941 0.91784 0.77806
 N1516 N 0.58106 0.92680 0.76754
 C1517 C 0.56168 0.89212 0.79731
 C1518 C 0.54832 0.90142 0.80736
 C1519 C 0.53566 0.89192 0.81787
 C1520 C 0.53579 0.87292 0.81813
 C1521 C 0.54909 0.86360 0.80802
 C1522 C 0.56212 0.87313 0.79789
 H1523 H 0.58958 0.93952 0.73525
 H1524 H 0.61024 0.95576 0.71555
 H1525 H 0.65748 0.94006 0.74788
 H1526 H 0.63643 0.92390 0.76747
 H1527 H 0.54775 0.91606 0.80717
 H1528 H 0.52547 0.89941 0.82549
 H1529 H 0.54948 0.84895 0.80806
 H1530 H 0.57224 0.86565 0.79019
 C1531 C 0.38068 0.92797 0.24341
 C1532 C 0.37497 0.92100 0.25973
 C1533 C 0.36319 0.93093 0.27075
 C1534 C 0.35665 0.94827 0.26582
 C1535 C 0.36218 0.95500 0.24917
 C1536 C 0.37403 0.94503 0.23820
 C1537 C 0.39376 0.91762 0.23208
 N1538 N 0.39985 0.92447 0.21649
 N1539 N 0.41196 0.91532 0.20658
 C1540 C 0.41851 0.89892 0.21184
 N1541 N 0.41234 0.89204 0.22738
 N1542 N 0.40024 0.90119 0.23728
 C1543 C 0.43238 0.88889 0.20109
 C1544 C 0.43932 0.87210 0.20686
 C1545 C 0.45281 0.86286 0.19707
 C1546 C 0.45969 0.87017 0.18125
 C1547 C 0.45259 0.88685 0.17534
 C1548 C 0.43909 0.89610 0.18515
 H1549 H 0.37961 0.90779 0.26410
 H1550 H 0.35884 0.92455 0.28289
 H1551 H 0.35821 0.96837 0.24477
 H1552 H 0.37821 0.95087 0.22572
 H1553 H 0.43447 0.86611 0.21904
 H1554 H 0.45795 0.85004 0.20199
 H1555 H 0.45759 0.89285 0.16321
 H1556 H 0.43405 0.90899 0.18030
 C1557 C 0.62030 0.07109 0.24204
 C1558 C 0.62893 0.07946 0.25652
 C1559 C 0.64074 0.06963 0.26763
 C1560 C 0.64419 0.05119 0.26455
 C1561 C 0.63583 0.04287 0.24991
 C1562 C 0.62402 0.05271 0.23877
 C1563 C 0.60717 0.08138 0.23071
 N1564 N 0.59909 0.07356 0.21643
 N1565 N 0.58692 0.08270 0.20656
 C1566 C 0.58228 0.10004 0.21056
 N1567 N 0.59042 0.10787 0.22479
 N1568 N 0.60261 0.09875 0.23464
 C1569 C 0.56832 0.11008 0.19992
 C1570 C 0.56249 0.12747 0.20502
 C1571 C 0.54892 0.13675 0.19535
 C1572 C 0.54090 0.12890 0.18030
 C1573 C 0.54689 0.11163 0.17504
 C1574 C 0.56043 0.10231 0.18476
 H1575 H 0.62650 0.09361 0.25939
 H1576 H 0.64721 0.07650 0.27864
 H1577 H 0.63804 0.02863 0.24729
 H1578 H 0.61759 0.04582 0.22776
 H1579 H 0.56826 0.13390 0.21661
 H1580 H 0.54466 0.15006 0.19974
 H1581 H 0.54098 0.10520 0.16351
 H1582 H 0.56461 0.08896 0.18042
 C1583 C 0.38597 0.06906 0.75531
 C1584 C 0.37037 0.06052 0.76286
 C1585 C 0.35780 0.05091 0.75234
 C1586 C 0.36073 0.04943 0.73410
 C1587 C 0.37641 0.05780 0.72657
 C1588 C 0.38884 0.06759 0.73704
 C1589 C 0.39915 0.07953 0.76635
 N1590 N 0.41158 0.09104 0.75882
 N1591 N 0.42340 0.10053 0.76869
 C1592 C 0.42337 0.09885 0.78650
 N1593 N 0.41097 0.08730 0.79405
 N1594 N 0.39907 0.07787 0.78418
 C1595 C 0.43665 0.10935 0.79740
 C1596 C 0.43991 0.10472 0.81511
 C1597 C 0.45284 0.11440 0.82518
 C1598 C 0.46260 0.12906 0.81782
 C1599 C 0.45913 0.13384 0.80020
 C1600 C 0.44639 0.12404 0.79008
 H1601 H 0.36774 0.06141 0.77688
 H1602 H 0.34588 0.04446 0.75847
 H1603 H 0.37889 0.05699 0.71252
 H1604 H 0.40074 0.07396 0.73081
 H1605 H 0.43266 0.09344 0.82112
 H1606 H 0.45519 0.11041 0.83873
 H1607 H 0.46646 0.14503 0.79412
 H1608 H 0.44416 0.12803 0.77652
 C1609 C 0.62053 0.76015 0.07045
 C1610 C 0.62402 0.76414 0.05263
 C1611 C 0.63622 0.75342 0.04273
 C1612 C 0.64524 0.73848 0.05043
 C1613 C 0.64203 0.73471 0.06833
 C1614 C 0.62982 0.74539 0.07821
 C1615 C 0.60699 0.77101 0.08080
 N1616 N 0.60244 0.76614 0.09752
 N1617 N 0.58994 0.77556 0.10670
 C1618 C 0.58143 0.79028 0.09958
 N1619 N 0.58605 0.79522 0.08290
 N1620 N 0.59854 0.78577 0.07370
 C1621 C 0.56718 0.80049 0.10971
 C1622 C 0.55920 0.81638 0.10284
 C1623 C 0.54548 0.82575 0.11227
 C1624 C 0.53938 0.81939 0.12875
 C1625 C 0.54744 0.80357 0.13567
 C1626 C 0.56120 0.79426 0.12629
 H1627 H 0.61709 0.77538 0.04621
 H1628 H 0.63824 0.75656 0.02893
 H1629 H 0.64901 0.72349 0.07473
 H1630 H 0.62759 0.74199 0.09192
 H1631 H 0.56349 0.82159 0.09014
 H1632 H 0.53954 0.83789 0.10656
 H1633 H 0.54309 0.79832 0.14834
 H1634 H 0.56702 0.78206 0.13199
 C1635 C 0.37805 0.23852 0.07147
 C1636 C 0.36834 0.25281 0.07955
 C1637 C 0.35598 0.26354 0.06986
 C1638 C 0.35306 0.26029 0.05184
 C1639 C 0.36242 0.24574 0.04383
 C1640 C 0.37476 0.23497 0.05354
 C1641 C 0.39189 0.22778 0.08160
 N1642 N 0.40074 0.21341 0.07418
 N1643 N 0.41356 0.20413 0.08315
 C1644 C 0.41812 0.20884 0.09990
 N1645 N 0.40922 0.22315 0.10733
 N1646 N 0.39639 0.23241 0.09838
 C1647 C 0.43273 0.19882 0.10977
 C1648 C 0.43873 0.20492 0.12637
 C1649 C 0.45276 0.19573 0.13553
 C1650 C 0.46107 0.18017 0.12836
 C1651 C 0.45498 0.17396 0.11184
 C1652 C 0.44100 0.18320 0.10263
 H1653 H 0.37039 0.25585 0.09336
 H1654 H 0.34874 0.27445 0.07649
 H1655 H 0.36061 0.24301 0.02992
 H1656 H 0.38201 0.22408 0.04688
 H1657 H 0.43269 0.21690 0.13227
 H1658 H 0.45710 0.20085 0.14825
 H1659 H 0.46111 0.16202 0.10595
 H1660 H 0.43671 0.17810 0.08990
 C1661 C 0.61506 0.24426 0.93333
 C1662 C 0.61248 0.26302 0.93511
 C1663 C 0.62493 0.27336 0.94506
 C1664 C 0.64035 0.26519 0.95327
 C1665 C 0.64297 0.24645 0.95151
 C1666 C 0.63039 0.23606 0.94173
 C1667 C 0.60191 0.23337 0.92265
 N1668 N 0.60182 0.21502 0.92372
 N1669 N 0.58996 0.20529 0.91409
 C1670 C 0.57778 0.21349 0.90292
 N1671 N 0.57792 0.23183 0.90183
 N1672 N 0.58971 0.24156 0.91152
 C1673 C 0.56455 0.20275 0.89220
 C1674 C 0.55491 0.21082 0.87811
 C1675 C 0.54221 0.20084 0.86812
 C1676 C 0.53868 0.18259 0.87211
 C1677 C 0.54835 0.17447 0.88615
 C1678 C 0.56124 0.18441 0.89603
 H1679 H 0.60080 0.26976 0.92886
 H1680 H 0.62269 0.28781 0.94608
 H1681 H 0.65468 0.23981 0.95783
 H1682 H 0.63279 0.22165 0.94060
 H1683 H 0.55720 0.22489 0.87475
 H1684 H 0.53495 0.20751 0.85742
 H1685 H 0.54596 0.16042 0.88952
 H1686 H 0.56840 0.17780 0.90682
 C1687 C 0.38290 0.75839 0.93333
 C1688 C 0.36365 0.75823 0.92972
 C1689 C 0.35169 0.74685 0.93917
 C1690 C 0.35886 0.73514 0.95206
 C1691 C 0.37805 0.73527 0.95569
 C1692 C 0.38994 0.74695 0.94656
 C1693 C 0.39568 0.77009 0.92313
 N1694 N 0.41206 0.77577 0.93022
 N1695 N 0.42382 0.78591 0.92088
 C1696 C 0.41976 0.79061 0.90401
 N1697 N 0.40338 0.78493 0.89691
 N1698 N 0.39153 0.77495 0.90632
 C1699 C 0.43315 0.80132 0.89347
 C1700 C 0.43362 0.79966 0.87504
 C1701 C 0.44686 0.80916 0.86515
 C1702 C 0.45957 0.82081 0.87346
 C1703 C 0.45882 0.82279 0.89185
 C1704 C 0.44588 0.81297 0.90178
 H1705 H 0.35785 0.76697 0.91965
 H1706 H 0.33690 0.74687 0.93618
 H1707 H 0.38381 0.72635 0.96564
 H1708 H 0.40472 0.74673 0.94956
 H1709 H 0.42403 0.79071 0.86831
 H1710 H 0.44709 0.80745 0.85098
 H1711 H 0.46851 0.83163 0.89858
 H1712 H 0.44577 0.81455 0.91596
 C1713 C 0.75754 0.92734 0.38267
 C1714 C 0.76151 0.94569 0.37952
 C1715 C 0.75080 0.95571 0.36758
 C1716 C 0.73590 0.94760 0.35850
 C1717 C 0.73217 0.92918 0.36141
 C1718 C 0.74284 0.91918 0.37335
 C1719 C 0.76836 0.91684 0.39585
 N1720 N 0.76343 0.89962 0.40000
 N1721 N 0.77281 0.89031 0.41215
 C1722 C 0.78756 0.89781 0.42067
 N1723 N 0.79257 0.91500 0.41646
 N1724 N 0.78316 0.92433 0.40433
 C1725 C 0.79774 0.88753 0.43446
 C1726 C 0.81376 0.89478 0.44248
 C1727 C 0.82312 0.88518 0.45570
 C1728 C 0.81662 0.86817 0.46124
 C1729 C 0.80067 0.86088 0.45316
 C1730 C 0.79137 0.87043 0.43990
 H1731 H 0.77271 0.95242 0.38648
 H1732 H 0.75389 0.96993 0.36578
 H1733 H 0.72099 0.92246 0.35440
 H1734 H 0.73946 0.90505 0.37534
 H1735 H 0.81908 0.90789 0.43860
 H1736 H 0.83537 0.89118 0.46166
 H1737 H 0.79532 0.84779 0.45709
 H1738 H 0.77907 0.86443 0.43403
 C1739 C 0.24541 0.93264 0.61219
 C1740 C 0.23604 0.94148 0.62600
 C1741 C 0.24601 0.95144 0.63850
 C1742 C 0.26551 0.95295 0.63733
 C1743 C 0.27486 0.94428 0.62345
 C1744 C 0.26494 0.93416 0.61106
 C1745 C 0.23494 0.92178 0.59911
 N1746 N 0.24405 0.91030 0.58810
 N1747 N 0.23468 0.90044 0.57640
 C1748 C 0.21581 0.90169 0.57514
 N1749 N 0.20669 0.91320 0.58612
 N1750 N 0.21606 0.92301 0.59789
 C1751 C 0.20545 0.89072 0.56206
 C1752 C 0.18671 0.89461 0.55804
 C1753 C 0.17710 0.88441 0.54547
 C1754 C 0.18595 0.86997 0.53680
 C1755 C 0.20462 0.86597 0.54096
 C1756 C 0.21428 0.87628 0.55337
 H1757 H 0.22102 0.94056 0.62727
 H1758 H 0.23845 0.95812 0.64901
 H1759 H 0.28991 0.94509 0.62234
 H1760 H 0.27259 0.92756 0.60058
 H1761 H 0.17952 0.90568 0.56446
 H1762 H 0.16271 0.88781 0.54257
 H1763 H 0.21186 0.85496 0.53448
 H1764 H 0.22868 0.87287 0.55620
 C1765 C 0.24568 0.07193 0.38504
 C1766 C 0.24125 0.05379 0.38139
 C1767 C 0.25169 0.04389 0.36917
 C1768 C 0.26678 0.05190 0.36028
 C1769 C 0.27105 0.07011 0.36375
 C1770 C 0.26065 0.07999 0.37599
 C1771 C 0.23497 0.08232 0.39837
 N1772 N 0.24026 0.09932 0.40297
 N1773 N 0.23084 0.10857 0.41511
 C1774 C 0.21570 0.10125 0.42319
 N1775 N 0.21037 0.08427 0.41856
 N1776 N 0.21981 0.07500 0.40643
 C1777 C 0.20532 0.11153 0.43683
 C1778 C 0.18888 0.10450 0.44428
 C1779 C 0.17916 0.11418 0.45718
 C1780 C 0.18569 0.13108 0.46298
 C1781 C 0.20213 0.13810 0.45554
 C1782 C 0.21181 0.12846 0.44260
 H1783 H 0.22984 0.04712 0.38815
 H1784 H 0.24818 0.02983 0.36697
 H1785 H 0.28239 0.07678 0.35692
 H1786 H 0.26439 0.09396 0.37837
 H1787 H 0.18346 0.09151 0.44015
 H1788 H 0.16655 0.10838 0.46265
 H1789 H 0.20753 0.15109 0.45969
 H1790 H 0.22443 0.13429 0.43718
 C1791 C 0.75267 0.07022 0.61347
 C1792 C 0.73792 0.07836 0.62277
 C1793 C 0.72714 0.06829 0.63456
 C1794 C 0.73078 0.04981 0.63732
 C1795 C 0.74567 0.04171 0.62819
 C1796 C 0.75651 0.05180 0.61641
 C1797 C 0.76375 0.08084 0.60058
 N1798 N 0.77882 0.07348 0.59240
 N1799 N 0.78854 0.08296 0.58062
 C1800 C 0.78360 0.10020 0.57647
 N1801 N 0.76856 0.10756 0.58468
 N1802 N 0.75886 0.09810 0.59648
 C1803 C 0.79420 0.11068 0.56313
 C1804 C 0.78786 0.12777 0.55759
 C1805 C 0.79762 0.13753 0.54478
 C1806 C 0.81401 0.13049 0.53727
 C1807 C 0.82045 0.11347 0.54291
 C1808 C 0.81064 0.10366 0.55566
 H1809 H 0.73464 0.09254 0.62093
 H1810 H 0.71598 0.07502 0.64161
 H1811 H 0.74871 0.02746 0.62985
 H1812 H 0.76773 0.04508 0.60945
 H1813 H 0.77524 0.13360 0.56303
 H1814 H 0.79229 0.15061 0.54076
 H1815 H 0.83303 0.10765 0.53737
 H1816 H 0.81595 0.09056 0.55963
 C1817 C 0.93030 0.61106 0.25105
 C1818 C 0.92101 0.62392 0.26150
 C1819 C 0.93108 0.63579 0.27219
 C1820 C 0.95066 0.63495 0.27281
 C1821 C 0.95997 0.62202 0.26250
 C1822 C 0.94991 0.61026 0.25167
 C1823 C 0.91963 0.59858 0.23958
 N1824 N 0.92847 0.58830 0.22732
 N1825 N 0.91889 0.57708 0.21702
 C1826 C 0.90006 0.57560 0.21857
 N1827 N 0.89121 0.58586 0.23084
 N1828 N 0.90079 0.59714 0.24110
 C1829 C 0.88945 0.56291 0.20725
 C1830 C 0.87069 0.55883 0.21095
 C1831 C 0.86087 0.54648 0.20056
 C1832 C 0.86954 0.53805 0.18612
 C1833 C 0.88820 0.54235 0.18225
 C1834 C 0.89807 0.55457 0.19273
 H1835 H 0.90593 0.62492 0.26134
 H1836 H 0.92356 0.64553 0.28014
 H1837 H 0.97507 0.62119 0.26260
 H1838 H 0.95751 0.60049 0.24382
 H1839 H 0.86363 0.56500 0.22205
 H1840 H 0.84650 0.54348 0.20387
 H1841 H 0.89529 0.53606 0.17124
 H1842 H 0.91247 0.55746 0.18945
 C1843 C 0.92984 0.38896 0.75068
 C1844 C 0.92021 0.37608 0.74054
 C1845 C 0.92994 0.36409 0.72967
 C1846 C 0.94950 0.36481 0.72857
 C1847 C 0.95914 0.37771 0.73861
 C1848 C 0.94943 0.38960 0.74962
 C1849 C 0.91950 0.40166 0.76223
 N1850 N 0.92866 0.41203 0.77419
 N1851 N 0.91936 0.42349 0.78451
 C1852 C 0.90052 0.42511 0.78327
 N1853 N 0.89136 0.41474 0.77131
 N1854 N 0.90065 0.40323 0.76104
 C1855 C 0.89019 0.43808 0.79455
 C1856 C 0.87140 0.44224 0.79101
 C1857 C 0.86179 0.45481 0.80134
 C1858 C 0.87067 0.46338 0.81556
 C1859 C 0.88936 0.45903 0.81928
 C1860 C 0.89904 0.44658 0.80884
 H1861 H 0.90513 0.37520 0.74105
 H1862 H 0.92215 0.35438 0.72194
 H1863 H 0.97423 0.37844 0.73814
 H1864 H 0.95729 0.39936 0.75723
 H1865 H 0.86416 0.43597 0.78009
 H1866 H 0.84738 0.45784 0.79815
 H1867 H 0.89661 0.46544 0.83012
 H1868 H 0.91347 0.44364 0.81198
 C1869 C 0.07221 0.61722 0.75460
 C1870 C 0.08112 0.62610 0.74053
 C1871 C 0.07124 0.63803 0.72971
 C1872 C 0.05218 0.64137 0.73265
 C1873 C 0.04332 0.63278 0.74691
 C1874 C 0.05322 0.62084 0.75776
 C1875 C 0.08258 0.60397 0.76557
 N1876 N 0.07430 0.59572 0.77954
 N1877 N 0.08352 0.58348 0.78908
 C1878 C 0.10140 0.57894 0.78504
 N1879 N 0.10968 0.58725 0.77113
 N1880 N 0.10048 0.59949 0.76161
 C1881 C 0.11157 0.56500 0.79535
 C1882 C 0.12946 0.55929 0.79011
 C1883 C 0.13893 0.54587 0.79951
 C1884 C 0.13079 0.53786 0.81445
 C1885 C 0.11299 0.54366 0.81982
 C1886 C 0.10347 0.55705 0.81036
 H1887 H 0.09575 0.62376 0.73776
 H1888 H 0.07854 0.64466 0.71902
 H1889 H 0.02860 0.63491 0.74940
 H1890 H 0.04590 0.61423 0.76845
 H1891 H 0.13614 0.56509 0.77862
 H1892 H 0.15264 0.54175 0.79504
 H1893 H 0.10633 0.53776 0.83127
 H1894 H 0.08973 0.56113 0.81479
 C1895 C 0.07014 0.38216 0.24404
 C1896 C 0.05100 0.37891 0.24140
 C1897 C 0.04127 0.36696 0.25235
 C1898 C 0.05045 0.35796 0.26619
 C1899 C 0.06966 0.36091 0.26858
 C1900 C 0.07938 0.37286 0.25766
 C1901 C 0.08035 0.39545 0.23298
 N1902 N 0.09839 0.39971 0.23658
 N1903 N 0.10745 0.41197 0.22699
 C1904 C 0.09890 0.42050 0.21334
 N1905 N 0.08088 0.41619 0.20967
 N1906 N 0.07179 0.40394 0.21930
 C1907 C 0.10895 0.43441 0.20289
 C1908 C 0.10060 0.44242 0.18804
 C1909 C 0.11003 0.45569 0.17836
 C1910 C 0.12800 0.46131 0.18337
 C1911 C 0.13637 0.45328 0.19819
 C1912 C 0.12698 0.43997 0.20781
 H1913 H 0.04343 0.38585 0.23105
 H1914 H 0.02643 0.36514 0.25029
 H1915 H 0.07721 0.35396 0.27893
 H1916 H 0.09414 0.37490 0.26001
 H1917 H 0.08674 0.43845 0.18386
 H1918 H 0.10320 0.46161 0.16702
 H1919 H 0.15021 0.45727 0.20239
 H1920 H 0.13384 0.43413 0.21918
   
