data_POSCAR
  _audit_creation_date              2014-09-24
  _audit_creation_method            'ToBaCCo'
  _symmetry_space_group_name_H-M    'P1'
  _symmetry_Int_Tables_number       1
  _symmetry_cell_setting            triclinic
  loop_
  _symmetry_equiv_pos_as_xyz
 x,y,z
_cell_length_a 43.4441
_cell_length_b 43.4628
_cell_length_c 43.8974
_cell_angle_alpha 91.595400
_cell_angle_beta 91.918200
_cell_angle_gamma 91.739000
loop_
  _atom_site_label
  _atom_site_type_symbol
  _atom_site_fract_x
  _atom_site_fract_y
  _atom_site_fract_z
N1 N 0.16081 0.23112 0.24054
 N2 N 0.16959 0.20679 0.25528
 C3 C 0.15043 0.20183 0.27826
 C4 C 0.12874 0.22430 0.27770
 C5 C 0.13590 0.24253 0.25364
 H6 H 0.15202 0.18331 0.29412
 H7 H 0.12372 0.26244 0.24613
 Cu8 Cu 0.20490 0.18393 0.24276
 Cu9 Cu 0.18168 0.24589 0.20513
 Cu10 Cu 0.24484 0.20544 0.18222
 N11 N 0.24031 0.16158 0.22964
 N12 N 0.25574 0.17006 0.20585
 C13 C 0.27861 0.15045 0.20133
 C14 C 0.27733 0.12866 0.22347
 C15 C 0.25292 0.13628 0.24112
 H16 H 0.29483 0.15184 0.18323
 H17 H 0.24490 0.12409 0.26062
 N18 N 0.23009 0.24185 0.16133
 N19 N 0.20588 0.25713 0.16988
 C20 C 0.20126 0.28031 0.15070
 C21 C 0.22367 0.27945 0.12928
 C22 C 0.24159 0.25498 0.13658
 H23 H 0.18298 0.29656 0.15209
 H24 H 0.26136 0.24726 0.12450
 H25 H 0.19852 0.20383 0.19166
 H26 H 0.22430 0.22920 0.21712
 N27 N 0.66169 0.73226 0.74110
 N28 N 0.67064 0.70785 0.75565
 C29 C 0.65161 0.70266 0.77868
 C30 C 0.62981 0.72505 0.77838
 C31 C 0.63681 0.74348 0.75441
 H32 H 0.65332 0.68402 0.79438
 H33 H 0.62447 0.76335 0.74705
 Cu34 Cu 0.70588 0.68512 0.74262
 Cu35 Cu 0.68229 0.74730 0.70561
 Cu36 Cu 0.74577 0.70760 0.68240
 N37 N 0.74202 0.66370 0.72983
 N38 N 0.75724 0.67237 0.70597
 C39 C 0.78042 0.65313 0.70140
 C40 C 0.77960 0.63142 0.72364
 C41 C 0.75513 0.63870 0.74136
 H42 H 0.79649 0.65465 0.68319
 H43 H 0.74731 0.62636 0.76085
 N44 N 0.73053 0.74382 0.66159
 N45 N 0.70622 0.75887 0.67028
 C46 C 0.70139 0.78212 0.65122
 C47 C 0.72377 0.78153 0.62976
 C48 C 0.74187 0.75715 0.63688
 H49 H 0.68299 0.79823 0.65272
 H50 H 0.76167 0.74964 0.62473
 H51 H 0.69949 0.70555 0.69176
 H52 H 0.72505 0.73078 0.71759
 N53 N 0.32386 0.74839 0.75595
 N54 N 0.31631 0.77332 0.77130
 C55 C 0.33669 0.77836 0.79493
 C56 C 0.35801 0.75540 0.79420
 C57 C 0.34915 0.73682 0.76924
 H58 H 0.33725 0.79826 0.81032
 H59 H 0.36130 0.71740 0.76029
 Cu60 Cu 0.28276 0.79862 0.75687
 Cu61 Cu 0.30323 0.73485 0.71767
 Cu62 Cu 0.24587 0.78075 0.68963
 N63 N 0.25083 0.82447 0.73992
 N64 N 0.23681 0.81743 0.71351
 C65 C 0.21620 0.83900 0.70698
 C66 C 0.21734 0.86064 0.73057
 C67 C 0.23947 0.85082 0.75115
 H68 H 0.20131 0.83878 0.68674
 H69 H 0.24660 0.86205 0.77264
 N70 N 0.25804 0.74274 0.66856
 N71 N 0.27977 0.72497 0.67924
 C72 C 0.28399 0.70194 0.65868
 C73 C 0.26401 0.70557 0.63402
 C74 C 0.24789 0.73153 0.64104
 H75 H 0.30131 0.68470 0.66071
 H76 H 0.23096 0.74219 0.62653
 H77 H 0.29126 0.77853 0.70548
 H78 H 0.26182 0.75508 0.72555
 N79 N 0.82801 0.25051 0.25393
 N80 N 0.82118 0.27660 0.26764
 C81 C 0.84126 0.28239 0.29136
 C82 C 0.86147 0.25849 0.29258
 C83 C 0.85238 0.23862 0.26864
 H84 H 0.84209 0.30304 0.30572
 H85 H 0.86397 0.21816 0.26130
 Cu86 Cu 0.78813 0.30143 0.25166
 Cu87 Cu 0.80783 0.23601 0.21559
 Cu88 Cu 0.74881 0.28004 0.18700
 N89 N 0.75442 0.32548 0.23578
 N90 N 0.73924 0.31703 0.21034
 C91 C 0.71744 0.33759 0.20430
 C92 C 0.71903 0.35995 0.22724
 C93 C 0.74262 0.35165 0.24687
 H94 H 0.70147 0.33626 0.18484
 H95 H 0.75044 0.36382 0.26766
 N96 N 0.76184 0.24193 0.16660
 N97 N 0.78463 0.22533 0.17710
 C98 C 0.78961 0.20241 0.15664
 C99 C 0.76881 0.20475 0.13241
 C100 C 0.75154 0.22985 0.13947
 H101 H 0.80768 0.18594 0.15862
 H102 H 0.73373 0.23935 0.12508
 H103 H 0.79481 0.27856 0.20102
 H104 H 0.76650 0.25628 0.22349
 N105 N 0.82701 0.73830 0.25609
 N106 N 0.81808 0.71245 0.24168
 C107 C 0.83825 0.70596 0.21993
 C108 C 0.86085 0.72893 0.22087
 C109 C 0.85309 0.74915 0.24395
 H110 H 0.83662 0.68611 0.20450
 H111 H 0.86554 0.77011 0.25130
 Cu112 Cu 0.78092 0.69016 0.25289
 Cu113 Cu 0.80454 0.75568 0.28989
 Cu114 Cu 0.73824 0.71559 0.31004
 N115 N 0.74374 0.66787 0.26412
 N116 N 0.72728 0.67771 0.28682
 C117 C 0.70431 0.65694 0.29138
 C118 C 0.70661 0.63306 0.27027
 C119 C 0.73165 0.64074 0.25328
 H120 H 0.68789 0.65856 0.30927
 H121 H 0.74110 0.62676 0.23531
 N122 N 0.75316 0.75434 0.33068
 N123 N 0.77859 0.76943 0.32337
 C124 C 0.78379 0.79343 0.34322
 C125 C 0.76049 0.79331 0.36379
 C126 C 0.74147 0.76843 0.35521
 H127 H 0.80367 0.80902 0.34354
 H128 H 0.72148 0.76036 0.36704
 H129 H 0.78520 0.71452 0.30364
 H130 H 0.76195 0.73706 0.27614
 N131 N 0.32798 0.23882 -0.24512
 N132 N 0.31875 0.21324 -0.25985
 C133 C 0.33885 0.20673 -0.28166
 C134 C 0.36170 0.22952 -0.28046
 C135 C 0.35417 0.24955 -0.25714
 H136 H 0.33700 0.18705 -0.29729
 H137 H 0.36685 0.27031 -0.24951
 Cu138 Cu 0.28157 0.19080 -0.24887
 Cu139 Cu 0.30571 0.25603 -0.21115
 Cu140 Cu 0.23934 0.21618 -0.19119
 N141 N 0.24431 0.16878 -0.23744
 N142 N 0.22810 0.17851 -0.21452
 C143 C 0.20526 0.15771 -0.20975
 C144 C 0.20736 0.13385 -0.23089
 C145 C 0.23220 0.14158 -0.24816
 H146 H 0.18911 0.15922 -0.19159
 H147 H 0.24154 0.12760 -0.26619
 N148 N 0.25442 0.25471 -0.17033
 N149 N 0.27994 0.26970 -0.17752
 C150 C 0.28534 0.29346 -0.15742
 C151 C 0.26206 0.29329 -0.13682
 C152 C 0.24284 0.26862 -0.14565
 H153 H 0.30534 0.30891 -0.15696
 H154 H 0.22280 0.26057 -0.13389
 H155 H 0.28624 0.21469 -0.19794
 H156 H 0.26301 0.23769 -0.22512
 N157 N 0.66637 0.25785 -0.25777
 N158 N 0.67652 0.28107 -0.27363
 C159 C 0.65587 0.28630 -0.29640
 C160 C 0.63181 0.26499 -0.29468
 C161 C 0.63920 0.24726 -0.27006
 H162 H 0.65765 0.30477 -0.31231
 H163 H 0.62506 0.22904 -0.26090
 Cu164 Cu 0.71483 0.30292 -0.26141
 Cu165 Cu 0.68730 0.24513 -0.22042
 Cu166 Cu 0.75535 0.28505 -0.19834
 N167 N 0.75275 0.32541 -0.24908
 N168 N 0.76875 0.31817 -0.22447
 C169 C 0.79254 0.33860 -0.21991
 C170 C 0.79119 0.35973 -0.24280
 C171 C 0.76571 0.35072 -0.26087
 H172 H 0.80847 0.33923 -0.20042
 H173 H 0.75642 0.36270 -0.28019
 N174 N 0.73778 0.25085 -0.17509
 N175 N 0.71180 0.23582 -0.18337
 C176 C 0.70555 0.21455 -0.16251
 C177 C 0.72867 0.21632 -0.14021
 C178 C 0.74874 0.23940 -0.14881
 H179 H 0.68573 0.19886 -0.16341
 H180 H 0.76970 0.24726 -0.13665
 H181 H 0.70875 0.28732 -0.20904
 H182 H 0.73108 0.25936 -0.23171
 N183 N 0.16836 0.75880 0.24281
 N184 N 0.17876 0.78191 0.22694
 C185 C 0.15831 0.78710 0.20399
 C186 C 0.13415 0.76590 0.20559
 C187 C 0.14126 0.74828 0.23033
 H188 H 0.16021 0.80555 0.18807
 H189 H 0.12691 0.73020 0.23944
 Cu190 Cu 0.21699 0.80369 0.23961
 Cu191 Cu 0.18862 0.74631 0.28055
 Cu192 Cu 0.25606 0.78665 0.30379
 N193 N 0.25469 0.82630 0.25240
 N194 N 0.26984 0.81969 0.27773
 C195 C 0.29361 0.84011 0.28255
 C196 C 0.29319 0.86044 0.25893
 C197 C 0.26831 0.85108 0.24023
 H198 H 0.30911 0.84094 0.30237
 H199 H 0.25994 0.86252 0.22016
 N200 N 0.23820 0.75239 0.32678
 N201 N 0.21244 0.73723 0.31804
 C202 C 0.20598 0.71580 0.33868
 C203 C 0.22877 0.71755 0.36127
 C204 C 0.24888 0.74080 0.35311
 H205 H 0.18629 0.69994 0.33735
 H206 H 0.26969 0.74862 0.36554
 H207 H 0.20976 0.78855 0.29194
 H208 H 0.23274 0.76048 0.27013
 N209 N 0.48569 0.41134 0.49109
 N210 N 0.46215 0.41977 0.50710
 C211 C 0.45825 0.39989 0.52971
 C212 C 0.48045 0.37797 0.52775
 C213 C 0.49755 0.38581 0.50303
 H214 H 0.44038 0.40091 0.54624
 H215 H 0.51689 0.37368 0.49424
 Cu216 Cu 0.43840 0.45554 0.49671
 Cu217 Cu 0.49860 0.43393 0.45569
 Cu218 Cu 0.45627 0.49717 0.43591
 N219 N 0.41428 0.49063 0.48488
 N220 N 0.42166 0.50688 0.46122
 C221 C 0.40144 0.52944 0.45780
 C222 C 0.38025 0.52718 0.48040
 C223 C 0.38894 0.50234 0.49725
 H224 H 0.40174 0.54607 0.43992
 H225 H 0.37744 0.49333 0.51672
 N226 N 0.49207 0.48379 0.41305
 N227 N 0.50811 0.45966 0.42067
 C228 C 0.53053 0.45594 0.40057
 C229 C 0.52848 0.47870 0.37941
 C230 C 0.50392 0.49601 0.38788
 H231 H 0.54698 0.43778 0.40091
 H232 H 0.49515 0.51571 0.37628
 H233 H 0.48203 0.47598 0.46918
 H234 H 0.45565 0.45053 0.44449
 N235 N -0.01379 -0.08937 0.99088
 N236 N -0.03710 -0.08057 1.00702
 C237 C -0.04116 -0.10037 1.02967
 C238 C -0.01928 -0.12260 1.02758
 C239 C -0.00223 -0.11505 1.00275
 H240 H -0.05889 -0.09907 1.04633
 H241 H 0.01687 -0.12747 0.99386
 Cu242 Cu -0.06039 -0.04447 0.99671
 Cu243 Cu -0.00071 -0.06706 0.95546
 Cu244 Cu -0.04207 -0.00318 0.93578
 N245 N -0.08412 -0.00916 0.98477
 N246 N -0.07657 0.00694 0.96106
 C247 C -0.09669 0.02957 0.95743
 C248 C -0.11796 0.02752 0.97998
 C249 C -0.10944 0.00273 0.99699
 H250 H -0.09631 0.04602 0.93941
 H251 H -0.12110 -0.00618 1.01641
 N252 N -0.00645 -0.01709 0.91296
 N253 N 0.00909 -0.04157 0.92044
 C254 C 0.03134 -0.04578 0.90026
 C255 C 0.02973 -0.02292 0.87914
 C256 C 0.00561 -0.00507 0.88779
 H257 H 0.04736 -0.06430 0.90066
 H258 H -0.00275 0.01485 0.87627
 H259 H -0.01655 -0.02465 0.96906
 H260 H -0.04342 -0.04971 0.94447
 N261 N 1.03042 0.60112 0.98194
 N262 N 1.05527 0.59496 0.99830
 C263 C 1.05797 0.61519 1.02227
 C264 C 1.03345 0.63481 1.02055
 C265 C 1.01658 0.62523 0.99472
 H266 H 1.07562 0.61501 1.04021
 H267 H 0.99509 0.63436 0.98650
 Cu268 Cu 1.07992 0.55965 0.98709
 Cu269 Cu 1.01569 0.57610 0.94688
 Cu270 Cu 1.05912 0.51420 0.92578
 N271 N 1.10486 0.52521 0.97419
 N272 N 1.09657 0.50804 0.94995
 C273 C 1.11651 0.48525 0.94664
 C274 C 1.13838 0.48806 0.97006
 C275 C 1.13043 0.51361 0.98723
 H276 H 1.11441 0.46707 0.92931
 H277 H 1.14173 0.52224 1.00820
 N278 N 1.02049 0.52429 0.90417
 N279 N 1.00429 0.54824 0.91211
 C280 C 0.97949 0.54950 0.89311
 C281 C 0.98008 0.52521 0.87235
 C282 C 1.00627 0.50958 0.87990
 H283 H 0.96220 0.56681 0.89427
 H284 H 1.01445 0.48929 0.86831
 H285 H 1.03531 0.53537 0.95989
 H286 H 1.05855 0.56078 0.93511
 N287 N 0.52922 0.10187 0.48050
 N288 N 0.55398 0.09565 0.49695
 C289 C 0.55660 0.11578 0.52100
 C290 C 0.53213 0.13543 0.51926
 C291 C 0.51535 0.12596 0.49331
 H292 H 0.57418 0.11552 0.53900
 H293 H 0.49389 0.13514 0.48505
 Cu294 Cu 0.57874 0.06044 0.48584
 Cu295 Cu 0.51469 0.07683 0.44527
 Cu296 Cu 0.55831 0.01494 0.42448
 N297 N 0.60381 0.02607 0.47305
 N298 N 0.59568 0.00887 0.44880
 C299 C 0.61569 -0.01388 0.44562
 C300 C 0.63743 -0.01099 0.46915
 C301 C 0.62934 0.01455 0.48623
 H302 H 0.61371 -0.03209 0.42832
 H303 H 0.64054 0.02324 0.50724
 N304 N 0.51978 0.02492 0.40268
 N305 N 0.50352 0.04890 0.41040
 C306 C 0.47878 0.04998 0.39129
 C307 C 0.47945 0.02549 0.37072
 C308 C 0.50564 0.00998 0.37850
 H309 H 0.46138 0.06719 0.39232
 H310 H 0.51380 -0.01048 0.36720
 H311 H 0.53427 0.03614 0.45843
 H312 H 0.55763 0.06155 0.43376
 N313 N -0.02658 0.11028 0.52680
 N314 N -0.05182 0.10211 0.51082
 C315 C -0.05535 0.12127 0.48747
 C316 C -0.03116 0.14261 0.48901
 C317 C -0.01332 0.13506 0.51419
 H318 H -0.07328 0.11898 0.46979
 H319 H 0.00853 0.14573 0.52173
 Cu320 Cu -0.07674 0.06596 0.52019
 Cu321 Cu -0.01105 0.08621 0.56065
 Cu322 Cu -0.04887 0.01639 0.57071
 N323 N -0.09463 0.02466 0.52310
 N324 N -0.08331 0.00541 0.54282
 C325 C -0.10058 -0.02077 0.54150
 C326 C -0.12399 -0.01775 0.51998
 C327 C -0.11967 0.01131 0.50857
 H328 H -0.09724 -0.04016 0.55604
 H329 H -0.13420 0.02225 0.49186
 N330 N -0.01366 0.03125 0.59685
 N331 N 0.00083 0.05800 0.59337
 C332 C 0.02439 0.06095 0.61423
 C333 C 0.02449 0.03477 0.63142
 C334 C 0.00016 0.01655 0.61988
 H335 H 0.04059 0.08033 0.61637
 H336 H -0.00653 -0.00607 0.62746
 H337 H -0.02869 0.04595 0.54006
 H338 H -0.05175 0.06401 0.57072
 N339 N 0.47350 0.60986 0.02694
 N340 N 0.44865 0.60130 0.01053
 C341 C 0.44519 0.62047 -0.01282
 C342 C 0.46902 0.64215 -0.01092
 C343 C 0.48659 0.63487 0.01456
 H344 H 0.42763 0.61790 -0.03085
 H345 H 0.50817 0.64588 0.02245
 Cu346 Cu 0.42445 0.56437 0.01882
 Cu347 Cu 0.48863 0.58606 0.06119
 Cu348 Cu 0.45039 0.51662 0.07220
 N349 N 0.40553 0.52377 0.02365
 N350 N 0.41619 0.50516 0.04432
 C351 C 0.39867 0.47915 0.04356
 C352 C 0.37583 0.48161 0.02136
 C353 C 0.38068 0.51015 0.00903
 H354 H 0.40155 0.46020 0.05875
 H355 H 0.36672 0.52047 -0.00856
 N356 N 0.48537 0.53182 0.09837
 N357 N 0.50012 0.55836 0.09452
 C358 C 0.52342 0.56155 0.11566
 C359 C 0.52303 0.53575 0.13344
 C360 C 0.49871 0.51752 0.12192
 H361 H 0.53984 0.58076 0.11758
 H362 H 0.49174 0.49514 0.12989
 H363 H 0.47178 0.54528 0.04149
 H364 H 0.44742 0.56432 0.07045
 N365 N 0.52288 -0.09665 0.02194
 N366 N 0.54481 -0.08647 0.00454
 C367 C 0.54504 -0.10430 -0.02096
 C368 C 0.52228 -0.12691 -0.01931
 C369 C 0.50855 -0.12153 0.00815
 H370 H 0.56101 -0.10168 -0.03915
 H371 H 0.48981 -0.13480 0.01745
 Cu372 Cu 0.57180 -0.05177 0.01742
 Cu373 Cu 0.51435 -0.07626 0.06069
 Cu374 Cu 0.56149 -0.01298 0.08326
 N375 N 0.59855 -0.01689 0.03031
 N376 N 0.59469 -0.00177 0.05621
 C377 C 0.61589 0.02159 0.05910
 C378 C 0.63378 0.02085 0.03362
 C379 C 0.62218 -0.00373 0.01589
 H380 H 0.61775 0.03820 0.07793
 H381 H 0.63018 -0.01105 -0.00615
 N382 N 0.52670 -0.02809 0.10735
 N383 N 0.50922 -0.05248 0.09894
 C384 C 0.48626 -0.05558 0.11858
 C385 C 0.48929 -0.03201 0.14018
 C386 C 0.51513 -0.01501 0.13256
 H387 H 0.46743 -0.07242 0.11626
 H388 H 0.52370 0.00629 0.14351
 H389 H 0.53178 -0.03309 0.05012
 H390 H 0.55865 -0.05899 0.07030
 N391 N 1.02217 0.40459 0.52086
 N392 N 1.04403 0.41524 0.50363
 C393 C 1.04480 0.39736 0.47817
 C394 C 1.02238 0.37438 0.47967
 C395 C 1.00839 0.37951 0.50700
 H396 H 1.06080 0.40034 0.46006
 H397 H 0.98973 0.36596 0.51611
 Cu398 Cu 1.07019 0.45064 0.51650
 Cu399 Cu 1.01294 0.42463 0.55943
 Cu400 Cu 1.05900 0.48815 0.58317
 N401 N 1.09690 0.48511 0.53079
 N402 N 1.09267 0.49985 0.55683
 C403 C 1.11394 0.52309 0.56042
 C404 C 1.13232 0.52268 0.53527
 C405 C 1.12091 0.49837 0.51703
 H406 H 1.11550 0.53945 0.57946
 H407 H 1.12924 0.49140 0.49503
 N408 N 1.02385 0.47251 0.60653
 N409 N 1.00688 0.44794 0.59763
 C410 C 0.98373 0.44412 0.61690
 C411 C 0.98607 0.46739 0.63885
 C412 C 1.01172 0.48499 0.63176
 H413 H 0.96540 0.42679 0.61419
 H414 H 1.01991 0.50613 0.64328
 H415 H 1.02988 0.46822 0.54956
 H416 H 1.05719 0.44238 0.56931
 C417 C 0.35388 0.02766 0.24055
 C418 C 0.33634 -0.00324 0.24075
 C419 C 0.35473 -0.02763 0.24536
 C420 C 0.38927 -0.01884 0.24957
 C421 C 0.37211 0.02978 0.27093
 C422 C 0.39089 0.00567 0.27559
 C423 C 0.37816 0.02376 0.21637
 C424 C 0.39674 -0.00057 0.22109
 H425 H 0.31137 -0.00550 0.23881
 H426 H 0.40423 -0.03872 0.25339
 H427 H 0.37243 0.05003 0.28605
 H428 H 0.38020 0.03887 0.19723
 C429 C 0.14487 -0.03666 0.74608
 C430 C 0.16366 -0.00688 0.75338
 C431 C 0.14610 0.01813 0.75843
 C432 C 0.11117 0.01101 0.75627
 C433 C 0.12373 -0.04026 0.77292
 C434 C 0.10596 -0.01554 0.77824
 C435 C 0.12342 -0.02907 0.71900
 C436 C 0.10594 -0.00396 0.72425
 H437 H 0.18864 -0.00533 0.75281
 H438 H 0.09686 0.03118 0.76092
 H439 H 0.12317 -0.06051 0.78688
 H440 H 0.12258 -0.04198 0.69743
 C441 C 0.64420 0.46265 0.24559
 C442 C 0.66298 0.49256 0.25232
 C443 C 0.64543 0.51739 0.25822
 C444 C 0.61058 0.50996 0.25753
 C445 C 0.62427 0.45870 0.27327
 C446 C 0.60667 0.48333 0.27969
 C447 C 0.62157 0.47017 0.21947
 C448 C 0.60412 0.49511 0.22562
 H449 H 0.68790 0.49425 0.25106
 H450 H 0.59625 0.52995 0.26295
 H451 H 0.62397 0.43785 0.28628
 H452 H 0.62035 0.45772 0.19765
 C453 C 0.85491 0.52962 0.74137
 C454 C 0.83596 0.49981 0.74428
 C455 C 0.85318 0.47480 0.75008
 C456 C 0.88819 0.48187 0.75195
 C457 C 0.87463 0.53278 0.77079
 C458 C 0.89233 0.50802 0.77619
 C459 C 0.87766 0.52273 0.71638
 C460 C 0.89502 0.49766 0.72182
 H461 H 0.81107 0.49863 0.74116
 H462 H 0.90213 0.46146 0.75662
 H463 H 0.87612 0.55366 0.78503
 H464 H 0.88042 0.53689 0.69659
 C465 C 0.24302 0.35636 0.02990
 C466 C 0.24453 0.33835 -0.00035
 C467 C 0.25006 0.35634 -0.02462
 C468 C 0.25384 0.39094 -0.01639
 C469 C 0.27353 0.37476 0.03306
 C470 C 0.27924 0.39295 0.00891
 C471 C 0.21864 0.38049 0.02448
 C472 C 0.22423 0.39855 0.00022
 H473 H 0.24214 0.31341 -0.00232
 H474 H 0.25864 0.40558 -0.03609
 H475 H 0.28795 0.37518 0.05375
 H476 H 0.19872 0.38304 0.03854
 C477 C 0.74650 0.14310 -0.03697
 C478 C 0.75258 0.16182 -0.00721
 C479 C 0.75848 0.14423 0.01746
 C480 C 0.75842 0.10942 0.01004
 C481 C 0.77486 0.12356 -0.04032
 C482 C 0.78126 0.10593 -0.01586
 C483 C 0.72034 0.12012 -0.03009
 C484 C 0.72647 0.10262 -0.00534
 H485 H 0.75099 0.18669 -0.00556
 H486 H 0.76381 0.09507 0.02990
 H487 H 0.78820 0.12339 -0.06076
 H488 H 0.69847 0.11869 -0.04286
 C489 C 0.24575 0.64383 0.46425
 C490 C 0.25284 0.66295 0.49355
 C491 C 0.25927 0.64581 0.51842
 C492 C 0.25781 0.61083 0.51172
 C493 C 0.27343 0.62340 0.46066
 C494 C 0.27992 0.60611 0.48535
 C495 C 0.21918 0.62179 0.47212
 C496 C 0.22534 0.60466 0.49713
 H497 H 0.25046 0.68774 0.49488
 H498 H 0.26319 0.59683 0.53186
 H499 H 0.28634 0.62250 0.43995
 H500 H 0.19721 0.62040 0.45953
 C501 C 0.74241 0.85810 0.53002
 C502 C 0.74351 0.83981 0.49990
 C503 C 0.74889 0.85752 0.47542
 C504 C 0.75300 0.89217 0.48332
 C505 C 0.77303 0.87633 0.53276
 C506 C 0.77865 0.89424 0.50839
 C507 C 0.71813 0.88232 0.52462
 C508 C 0.72361 0.90013 0.50014
 H509 H 0.74096 0.81487 0.49817
 H510 H 0.75770 0.90659 0.46344
 H511 H 0.78761 0.87690 0.55334
 H512 H 0.69828 0.88504 0.53875
 C513 C 0.02897 0.24306 0.35429
 C514 C -0.00180 0.24449 0.33669
 C515 C -0.02612 0.24989 0.35466
 C516 C -0.01742 0.25343 0.38894
 C517 C 0.03220 0.27342 0.37264
 C518 C 0.00803 0.27894 0.39086
 C519 C 0.02397 0.21848 0.37805
 C520 C -0.00026 0.22389 0.39631
 H521 H -0.00413 0.24182 0.31203
 H522 H -0.03719 0.25788 0.40364
 H523 H 0.05309 0.28779 0.37315
 H524 H 0.03842 0.19867 0.38009
 C525 C -0.03717 0.74505 0.14554
 C526 C -0.00679 0.75127 0.16358
 C527 C 0.01786 0.75628 0.14572
 C528 C 0.00983 0.75522 0.11132
 C529 C -0.04064 0.77282 0.12530
 C530 C -0.01614 0.77829 0.10739
 C531 C -0.03086 0.71813 0.12355
 C532 C -0.00614 0.72341 0.10570
 H533 H -0.00469 0.75039 0.18826
 H534 H 0.02974 0.75967 0.09668
 H535 H -0.06110 0.78652 0.12498
 H536 H -0.04434 0.69669 0.12284
 C537 C 0.46222 0.24518 0.64519
 C538 C 0.49261 0.25070 0.66336
 C539 C 0.51737 0.25569 0.64568
 C540 C 0.50944 0.25528 0.61124
 C541 C 0.45918 0.27332 0.62540
 C542 C 0.48378 0.27877 0.60760
 C543 C 0.46821 0.21851 0.62279
 C544 C 0.49305 0.22373 0.60508
 H545 H 0.49458 0.24954 0.68804
 H546 H 0.52947 0.25970 0.59674
 H547 H 0.43881 0.28714 0.62510
 H548 H 0.45443 0.19725 0.62172
 C549 C 0.52942 0.74261 0.85457
 C550 C 0.49891 0.74441 0.83662
 C551 C 0.47435 0.75005 0.85424
 C552 C 0.48259 0.75285 0.88867
 C553 C 0.53259 0.77274 0.87336
 C554 C 0.50817 0.77818 0.89131
 C555 C 0.52392 0.71776 0.87792
 C556 C 0.49948 0.72309 0.89592
 H557 H 0.49699 0.74092 0.81204
 H558 H 0.46257 0.75721 0.90311
 H559 H 0.55355 0.78702 0.87427
 H560 H 0.53842 0.69800 0.88012
 C561 C 0.06519 0.25846 0.30800
 C562 C 0.09927 0.25703 0.31905
 C563 C 0.10267 0.22831 0.29840
 C564 C 0.06889 0.22967 0.28711
 C565 C 0.09362 0.20712 0.32431
 C566 C 0.08986 0.23594 0.34524
 C567 C 0.05604 0.23733 0.33396
 C568 C 0.05946 0.20858 0.31328
 H569 H 0.05322 0.27964 0.30152
 H570 H 0.11599 0.27686 0.32117
 H571 H 0.06060 0.22701 0.26296
 H572 H 0.10551 0.18594 0.33088
 H573 H 0.09811 0.23864 0.36940
 H574 H 0.04270 0.18879 0.31118
 C575 C 0.56600 0.75859 0.80885
 C576 C 0.60002 0.75710 0.82008
 C577 C 0.60364 0.72869 0.79906
 C578 C 0.56991 0.73010 0.78760
 C579 C 0.59446 0.70710 0.82461
 C580 C 0.59048 0.73561 0.84591
 C581 C 0.55671 0.73706 0.83445
 C582 C 0.56035 0.70861 0.81340
 H583 H 0.55399 0.77980 0.80258
 H584 H 0.61664 0.77699 0.82260
 H585 H 0.56178 0.72778 0.76338
 H586 H 0.60638 0.68585 0.83093
 H587 H 0.59855 0.73794 0.87014
 H588 H 0.54368 0.68877 0.81089
 C589 C 0.41652 0.77339 0.85026
 C590 C 0.41076 0.78190 0.81651
 C591 C 0.38788 0.75431 0.81218
 C592 C 0.39304 0.74581 0.84574
 C593 C 0.41395 0.73334 0.80249
 C594 C 0.43698 0.76094 0.80683
 C595 C 0.44244 0.75232 0.84035
 C596 C 0.41951 0.72480 0.83615
 H597 H 0.41796 0.78985 0.87009
 H598 H 0.40695 0.80546 0.80829
 H599 H 0.37462 0.73957 0.86157
 H600 H 0.41332 0.71674 0.78279
 H601 H 0.45479 0.76759 0.79049
 H602 H 0.42342 0.70127 0.84440
 C603 C -0.08871 0.25822 0.35583
 C604 C -0.09616 0.28265 0.33170
 C605 C -0.11095 0.25704 0.31059
 C606 C -0.10412 0.23268 0.33444
 C607 C -0.07996 0.25166 0.29571
 C608 C -0.06484 0.27716 0.31692
 C609 C -0.05781 0.25280 0.34074
 C610 C -0.07280 0.22728 0.31967
 H611 H -0.09203 0.26094 0.38071
 H612 H -0.10585 0.30555 0.33652
 H613 H -0.12059 0.21441 0.34149
 H614 H -0.07644 0.24893 0.27086
 H615 H -0.04838 0.29542 0.30983
 H616 H -0.06296 0.20443 0.31493
 C617 C -0.09833 0.73511 0.15388
 C618 C -0.10270 0.70854 0.17626
 C619 C -0.11227 0.73206 0.20074
 C620 C -0.10825 0.75854 0.17861
 C621 C -0.07870 0.73655 0.21257
 C622 C -0.06873 0.71313 0.18783
 C623 C -0.06470 0.73967 0.16569
 C624 C -0.07439 0.76311 0.19022
 H625 H -0.10608 0.73457 0.12952
 H626 H -0.11452 0.68600 0.17064
 H627 H -0.12479 0.77717 0.17502
 H628 H -0.07091 0.73709 0.23692
 H629 H -0.05213 0.69454 0.19138
 H630 H -0.06247 0.78562 0.19578
 C631 C 0.43040 0.21316 0.68717
 C632 C 0.42080 0.23642 0.71222
 C633 C 0.38717 0.23243 0.70044
 C634 C 0.39635 0.20903 0.67568
 C635 C 0.39137 0.25913 0.67861
 C636 C 0.42532 0.26320 0.69013
 C637 C 0.43464 0.23989 0.66529
 C638 C 0.40094 0.23584 0.65358
 H639 H 0.44680 0.19433 0.69042
 H640 H 0.42872 0.23664 0.73653
 H641 H 0.38435 0.18664 0.66981
 H642 H 0.37504 0.27801 0.67532
 H643 H 0.43750 0.28553 0.69586
 H644 H 0.39306 0.23565 0.62926
 C645 C 0.58032 0.25832 0.64364
 C646 C 0.59211 0.28611 0.66430
 C647 C 0.60355 0.26351 0.68824
 C648 C 0.59236 0.23583 0.66784
 C649 C 0.57248 0.26408 0.70396
 C650 C 0.56061 0.28657 0.67988
 C651 C 0.54931 0.25888 0.65953
 C652 C 0.56099 0.23636 0.68344
 H653 H 0.58333 0.25586 0.61870
 H654 H 0.60510 0.30666 0.65651
 H655 H 0.60571 0.21497 0.66305
 H656 H 0.56942 0.26646 0.72892
 H657 H 0.54719 0.30739 0.68465
 H658 H 0.54798 0.21580 0.69118
 C659 C 0.08074 0.75907 0.14314
 C660 C 0.09268 0.78690 0.16365
 C661 C 0.10438 0.76437 0.18753
 C662 C 0.09299 0.73665 0.16727
 C663 C 0.07343 0.76494 0.20349
 C664 C 0.06132 0.78737 0.17950
 C665 C 0.04988 0.75964 0.15930
 C666 C 0.06180 0.73717 0.18314
 H667 H 0.08355 0.75657 0.11816
 H668 H 0.10566 0.80740 0.15576
 H669 H 0.10633 0.71580 0.16238
 H670 H 0.07063 0.76736 0.22848
 H671 H 0.04794 0.80820 0.18435
 H672 H 0.04887 0.71663 0.19103
 C673 C 0.30698 0.06366 0.25643
 C674 C 0.31838 0.09771 0.25599
 C675 C 0.29773 0.10210 0.22746
 C676 C 0.28605 0.06839 0.22784
 C677 C 0.32398 0.09336 0.20656
 C678 C 0.34490 0.08863 0.23517
 C679 C 0.33327 0.05487 0.23556
 C680 C 0.31257 0.05929 0.20702
 H681 H 0.30026 0.05109 0.27697
 H682 H 0.32053 0.11382 0.27607
 H683 H 0.26160 0.06041 0.22479
 H684 H 0.33086 0.10577 0.18598
 H685 H 0.36935 0.09658 0.23827
 H686 H 0.31042 0.04312 0.18698
 C687 C 0.80978 0.56730 0.75722
 C688 C 0.82165 0.60106 0.75543
 C689 C 0.80011 0.60492 0.72744
 C690 C 0.78803 0.57145 0.72915
 C691 C 0.82547 0.59513 0.70590
 C692 C 0.84729 0.59089 0.73400
 C693 C 0.83519 0.55738 0.73575
 C694 C 0.81363 0.56127 0.70772
 H695 H 0.80357 0.55553 0.77838
 H696 H 0.82471 0.61775 0.77499
 H697 H 0.76342 0.56377 0.72712
 H698 H 0.83175 0.60681 0.68471
 H699 H 0.87191 0.59848 0.73604
 H700 H 0.81060 0.54454 0.68820
 C701 C 0.84754 0.41808 0.77491
 C702 C 0.81310 0.41300 0.78215
 C703 C 0.80947 0.38932 0.75551
 C704 C 0.84372 0.39380 0.74831
 C705 C 0.80061 0.41472 0.73344
 C706 C 0.80425 0.43858 0.76009
 C707 C 0.83848 0.44335 0.75277
 C708 C 0.83499 0.41961 0.72619
 H709 H 0.86704 0.41984 0.79194
 H710 H 0.80395 0.41004 0.80524
 H711 H 0.85973 0.37500 0.74345
 H712 H 0.78127 0.41367 0.71624
 H713 H 0.78763 0.45670 0.76538
 H714 H 0.84419 0.42266 0.70314
 C715 C 0.31517 -0.07258 0.22758
 C716 C 0.33033 -0.10429 0.22859
 C717 C 0.31112 -0.11209 0.25628
 C718 C 0.29586 -0.08069 0.25531
 C719 C 0.33682 -0.09887 0.27829
 C720 C 0.35630 -0.09045 0.25048
 C721 C 0.34084 -0.05912 0.24949
 C722 C 0.32168 -0.06707 0.27720
 H723 H 0.30639 -0.06155 0.20664
 H724 H 0.33368 -0.11989 0.20861
 H725 H 0.27086 -0.07681 0.25733
 H726 H 0.34560 -0.10989 0.29923
 H727 H 0.38131 -0.09417 0.24842
 H728 H 0.31830 -0.05142 0.29715
 C729 C 0.18785 -0.06873 0.71538
 C730 C 0.21176 -0.08006 0.73920
 C731 C 0.19894 -0.11316 0.73362
 C732 C 0.17530 -0.10224 0.70966
 C733 C 0.17581 -0.10907 0.75903
 C734 C 0.18839 -0.07565 0.76469
 C735 C 0.16469 -0.06463 0.74083
 C736 C 0.15195 -0.09778 0.73519
 H737 H 0.19251 -0.05182 0.69748
 H738 H 0.23654 -0.07300 0.74084
 H739 H 0.16991 -0.11322 0.68690
 H740 H 0.17101 -0.12587 0.77700
 H741 H 0.19354 -0.06437 0.78737
 H742 H 0.12714 -0.10473 0.73354
 C743 C 0.65185 0.40151 0.23452
 C744 C 0.67403 0.39730 0.20793
 C745 C 0.69899 0.38703 0.23084
 C746 C 0.67705 0.39090 0.25732
 C747 C 0.71130 0.42040 0.23566
 C748 C 0.68609 0.43107 0.21287
 C749 C 0.66413 0.43493 0.23939
 C750 C 0.68915 0.42453 0.26222
 H751 H 0.62717 0.39404 0.23410
 H752 H 0.66794 0.38589 0.18551
 H753 H 0.67354 0.37409 0.27557
 H754 H 0.73597 0.42787 0.23611
 H755 H 0.68957 0.44792 0.19466
 H756 H 0.69520 0.43599 0.28464
 C757 C 0.64357 0.58019 0.26099
 C758 C 0.66350 0.59175 0.28929
 C759 C 0.68844 0.60333 0.26795
 C760 C 0.66877 0.59231 0.23976
 C761 C 0.70432 0.57223 0.26902
 C762 C 0.67925 0.56023 0.29027
 C763 C 0.65962 0.54915 0.26210
 C764 C 0.68453 0.56094 0.24079
 H765 H 0.61844 0.58331 0.25759
 H766 H 0.65500 0.60470 0.30929
 H767 H 0.66466 0.60582 0.21900
 H768 H 0.72947 0.56918 0.27231
 H769 H 0.68338 0.54668 0.31100
 H770 H 0.69307 0.54807 0.22074
 C771 C 0.18055 0.06103 0.78981
 C772 C 0.20522 0.07294 0.76807
 C773 C 0.18933 0.10404 0.76716
 C774 C 0.16479 0.09254 0.78900
 C775 C 0.16916 0.09291 0.73935
 C776 C 0.18493 0.06153 0.74022
 C777 C 0.16041 0.04986 0.76200
 C778 C 0.14437 0.08090 0.76109
 H779 H 0.18506 0.04757 0.81053
 H780 H 0.23042 0.06991 0.77095
 H781 H 0.15666 0.10557 0.80914
 H782 H 0.16467 0.10633 0.71861
 H783 H 0.19311 0.04855 0.72007
 H784 H 0.11921 0.08409 0.75814
 C785 C 0.23570 0.34751 0.09025
 C786 C 0.20677 0.32645 0.09406
 C787 C 0.22785 0.30025 0.10331
 C788 C 0.25667 0.32104 0.09987
 C789 C 0.22915 0.28875 0.06998
 C790 C 0.20818 0.31520 0.06035
 C791 C 0.23705 0.33601 0.05688
 C792 C 0.25806 0.30977 0.06624
 H793 H 0.23846 0.37193 0.09823
 H794 H 0.18561 0.33314 0.10572
 H795 H 0.27653 0.32320 0.11644
 H796 H 0.22640 0.26434 0.06197
 H797 H 0.18835 0.31307 0.04374
 H798 H 0.27920 0.30315 0.05450
 C799 C 0.70778 0.81719 0.56091
 C800 C 0.72881 0.79078 0.57049
 C801 C 0.72773 0.80239 0.60380
 C802 C 0.70659 0.82855 0.59460
 C803 C 0.75652 0.82316 0.60010
 C804 C 0.75768 0.81177 0.56650
 C805 C 0.73661 0.83798 0.55718
 C806 C 0.73549 0.84960 0.59053
 H807 H 0.68784 0.81499 0.54442
 H808 H 0.72602 0.76634 0.56257
 H809 H 0.68551 0.83530 0.60639
 H810 H 0.77650 0.82540 0.61653
 H811 H 0.77874 0.80511 0.55463
 H812 H 0.73831 0.87406 0.59836
 C813 C 0.75382 0.85820 0.41325
 C814 C 0.78126 0.83775 0.40515
 C815 C 0.75828 0.81267 0.39223
 C816 C 0.73094 0.83284 0.39979
 C817 C 0.75698 0.79774 0.42351
 C818 C 0.77986 0.82292 0.43678
 C819 C 0.75251 0.84305 0.44444
 C820 C 0.72960 0.81800 0.43133
 H821 H 0.75245 0.88324 0.40928
 H822 H 0.80259 0.84571 0.39414
 H823 H 0.71084 0.83670 0.38425
 H824 H 0.75831 0.77270 0.42754
 H825 H 0.79995 0.81902 0.45234
 H826 H 0.70826 0.80997 0.44229
 C827 C 0.28129 0.32208 -0.06344
 C828 C 0.25838 0.29711 -0.07708
 C829 C 0.25990 0.31237 -0.10819
 C830 C 0.28292 0.33723 -0.09490
 C831 C 0.23261 0.33258 -0.10054
 C832 C 0.23104 0.31739 -0.06919
 C833 C 0.25397 0.34222 -0.05570
 C834 C 0.25552 0.35771 -0.08672
 H835 H 0.30130 0.31795 -0.04785
 H836 H 0.25958 0.27202 -0.07328
 H837 H 0.30434 0.34521 -0.10575
 H838 H 0.21259 0.33668 -0.11611
 H839 H 0.20962 0.30934 -0.05839
 H840 H 0.25430 0.38280 -0.09045
 C841 C 0.71341 0.18466 -0.06928
 C842 C 0.73644 0.20974 -0.07992
 C843 C 0.73201 0.19692 -0.11282
 C844 C 0.70886 0.17211 -0.10259
 C845 C 0.75885 0.17513 -0.10813
 C846 C 0.76336 0.18774 -0.07496
 C847 C 0.74031 0.16286 -0.06463
 C848 C 0.73581 0.15009 -0.09758
 H849 H 0.69481 0.18833 -0.05295
 H850 H 0.73667 0.23449 -0.07293
 H851 H 0.68634 0.16581 -0.11414
 H852 H 0.77751 0.17141 -0.12436
 H853 H 0.78584 0.19401 -0.06331
 H854 H 0.73557 0.12533 -0.10455
 C855 C 0.21316 0.68570 0.43198
 C856 C 0.23655 0.71047 0.42140
 C857 C 0.23185 0.69786 0.38847
 C858 C 0.20833 0.67335 0.39863
 C859 C 0.25831 0.67561 0.39295
 C860 C 0.26311 0.68801 0.42615
 C861 C 0.23969 0.66343 0.43645
 C862 C 0.23492 0.65085 0.40346
 H863 H 0.19467 0.68956 0.44838
 H864 H 0.23719 0.73520 0.42853
 H865 H 0.18570 0.66748 0.38711
 H866 H 0.27685 0.67170 0.37662
 H867 H 0.28572 0.69387 0.43772
 H868 H 0.23427 0.62613 0.39635
 C869 C 0.23343 0.66384 0.56993
 C870 C 0.25308 0.65416 0.59800
 C871 C 0.26300 0.68813 0.60410
 C872 C 0.24338 0.69791 0.57640
 C873 C 0.29114 0.68435 0.58413
 C874 C 0.28119 0.65018 0.57747
 C875 C 0.26151 0.66018 0.54991
 C876 C 0.27151 0.69410 0.55623
 H877 H 0.20968 0.65517 0.56372
 H878 H 0.24546 0.63789 0.61549
 H879 H 0.22767 0.71756 0.57567
 H880 H 0.31493 0.69294 0.59026
 H881 H 0.29673 0.63038 0.57749
 H882 H 0.27938 0.71069 0.53914
 C883 C 0.74031 0.18318 0.06032
 C884 C 0.73875 0.16722 0.09127
 C885 C 0.76708 0.18672 0.10288
 C886 C 0.76868 0.20279 0.07218
 C887 C 0.78881 0.16178 0.09176
 C888 C 0.76038 0.14203 0.07963
 C889 C 0.76200 0.15828 0.04900
 C890 C 0.79033 0.17773 0.06065
 H891 H 0.72026 0.19188 0.04719
 H892 H 0.71753 0.16304 0.10413
 H893 H 0.77208 0.22794 0.06930
 H894 H 0.80881 0.15310 0.10496
 H895 H 0.75686 0.11690 0.08253
 H896 H 0.81151 0.18189 0.04771
 C897 C 0.46156 0.33120 0.58661
 C898 C 0.48840 0.35472 0.58277
 C899 C 0.48372 0.35106 0.54800
 C900 C 0.45699 0.32765 0.55167
 C901 C 0.50695 0.32502 0.54707
 C902 C 0.51154 0.32828 0.58227
 C903 C 0.48464 0.30496 0.58591
 C904 C 0.48012 0.30125 0.55109
 H905 H 0.44274 0.33461 0.60271
 H906 H 0.49184 0.37696 0.59566
 H907 H 0.43450 0.32752 0.53889
 H908 H 0.52562 0.32273 0.53058
 H909 H 0.53398 0.32824 0.59512
 H910 H 0.47663 0.27900 0.53823
 C911 C -0.03830 0.83078 0.08649
 C912 C -0.01136 0.85416 0.08256
 C913 C -0.01618 0.85050 0.04780
 C914 C -0.04302 0.82724 0.05156
 C915 C 0.00690 0.82433 0.04678
 C916 C 0.01163 0.82759 0.08195
 C917 C -0.01537 0.80443 0.08570
 C918 C -0.02002 0.80071 0.05089
 H919 H -0.05704 0.83425 0.10268
 H920 H -0.00775 0.87640 0.09541
 H921 H -0.06553 0.82724 0.03883
 H922 H 0.02550 0.82193 0.03022
 H923 H 0.03411 0.82743 0.09473
 H924 H -0.02367 0.77846 0.03806
 C925 C 0.01118 0.70640 0.04975
 C926 C 0.04181 0.68912 0.05258
 C927 C 0.02429 0.65882 0.04338
 C928 C -0.00618 0.67587 0.04026
 C929 C 0.01823 0.65238 0.07695
 C930 C 0.03556 0.68304 0.08650
 C931 C 0.00502 0.69990 0.08328
 C932 C -0.01236 0.66954 0.07399
 H933 H 0.00818 0.72884 0.03873
 H934 H 0.06421 0.69694 0.04358
 H935 H -0.02364 0.67321 0.02126
 H936 H 0.02130 0.62997 0.08799
 H937 H 0.05259 0.68634 0.10583
 H938 H -0.03478 0.66112 0.08244
 C939 C 0.51068 0.20712 0.54906
 C940 C 0.54096 0.18929 0.55198
 C941 C 0.52302 0.15937 0.54221
 C942 C 0.49290 0.17698 0.53900
 C943 C 0.51646 0.15262 0.57561
 C944 C 0.53421 0.18288 0.58573
 C945 C 0.50402 0.20031 0.58242
 C946 C 0.48622 0.17034 0.57256
 H947 H 0.50822 0.22976 0.53830
 H948 H 0.56360 0.19685 0.54334
 H949 H 0.47566 0.17481 0.51976
 H950 H 0.51902 0.13000 0.58640
 H951 H 0.55107 0.18564 0.60527
 H952 H 0.46356 0.16217 0.58067
 C953 C -0.01570 0.21346 0.45438
 C954 C -0.04409 0.19089 0.45347
 C955 C -0.02338 0.16543 0.46537
 C956 C 0.00484 0.18771 0.46669
 C957 C -0.01644 0.15515 0.43259
 C958 C -0.03699 0.18087 0.42035
 C959 C -0.00871 0.20304 0.42162
 C960 C 0.01190 0.17754 0.43369
 H961 H -0.01552 0.23769 0.46306
 H962 H -0.06720 0.19621 0.46190
 H963 H 0.02205 0.19061 0.48589
 H964 H -0.01680 0.13095 0.42378
 H965 H -0.05409 0.17829 0.40102
 H966 H 0.03512 0.17178 0.42592
 C967 C 0.48358 0.71294 0.95397
 C968 C 0.45566 0.68979 0.95295
 C969 C 0.47678 0.66491 0.96537
 C970 C 0.50453 0.68776 0.96679
 C971 C 0.48431 0.65449 0.93278
 C972 C 0.46334 0.67962 0.92003
 C973 C 0.49115 0.70238 0.92139
 C974 C 0.51219 0.67746 0.93398
 H975 H 0.48315 0.73722 0.96244
 H976 H 0.43232 0.69466 0.96105
 H977 H 0.52147 0.69112 0.98618
 H978 H 0.48458 0.63022 0.92423
 H979 H 0.44650 0.67647 0.90053
 H980 H 0.53565 0.67209 0.92657
 C981 C 0.48337 0.82352 0.92604
 C982 C 0.49421 0.81899 0.95966
 C983 C 0.51599 0.84742 0.95785
 C984 C 0.50515 0.85237 0.92472
 C985 C 0.54214 0.82721 0.94706
 C986 C 0.52042 0.79849 0.94852
 C987 C 0.50970 0.80344 0.91533
 C988 C 0.53135 0.83202 0.91374
 H989 H 0.45918 0.82171 0.91703
 H990 H 0.47898 0.81387 0.97880
 H991 H 0.49891 0.87481 0.91518
 H992 H 0.56639 0.82885 0.95591
 H993 H 0.52686 0.77608 0.95802
 H994 H 0.54663 0.83786 0.89484
 C995 C 0.02072 0.29971 0.44780
 C996 C 0.04242 0.32842 0.44604
 C997 C 0.01633 0.34869 0.45683
 C998 C -0.00543 0.32027 0.45893
 C999 C 0.00530 0.35342 0.42372
 C1000 C 0.03144 0.33299 0.41272
 C1001 C 0.00980 0.30443 0.41463
 C1002 C -0.01647 0.32458 0.42535
 H1003 H 0.02720 0.27738 0.45743
 H1004 H 0.06671 0.33014 0.45478
 H1005 H -0.02054 0.31528 0.47819
 H1006 H -0.00100 0.37580 0.41407
 H1007 H 0.04661 0.33868 0.39370
 H1008 H -0.04071 0.32270 0.41651
 C1009 C 0.33058 0.58144 0.51201
 C1010 C 0.32777 0.54585 0.50784
 C1011 C 0.35312 0.54715 0.48416
 C1012 C 0.35634 0.58232 0.48843
 C1013 C 0.32888 0.55036 0.45825
 C1014 C 0.30316 0.54939 0.48183
 C1015 C 0.30643 0.58461 0.48592
 C1016 C 0.33201 0.58569 0.46241
 H1017 H 0.33100 0.59449 0.53413
 H1018 H 0.32631 0.52923 0.52652
 H1019 H 0.37846 0.59574 0.49115
 H1020 H 0.32833 0.53741 0.43607
 H1021 H 0.28099 0.53606 0.47911
 H1022 H 0.33467 0.60194 0.44356
 C1023 C 0.80488 0.04942 -0.01885
 C1024 C 0.83054 0.05020 -0.04250
 C1025 C 0.85486 0.04748 -0.01656
 C1026 C 0.82956 0.04636 0.00717
 C1027 C 0.85789 0.08270 -0.01279
 C1028 C 0.83347 0.08559 -0.03882
 C1029 C 0.80797 0.08469 -0.01524
 C1030 C 0.83219 0.08200 0.01086
 H1031 H 0.78278 0.03594 -0.02135
 H1032 H 0.83001 0.03696 -0.06451
 H1033 H 0.82825 0.03000 0.02608
 H1034 H 0.87994 0.09627 -0.01027
 H1035 H 0.83595 0.10157 -0.05791
 H1036 H 0.83256 0.09534 0.03281
 C1037 C 0.70539 0.06136 0.03545
 C1038 C 0.67252 0.07076 0.04398
 C1039 C 0.65902 0.04286 0.02517
 C1040 C 0.69150 0.03315 0.01682
 C1041 C 0.65649 0.06227 -0.00352
 C1042 C 0.67027 0.09041 0.01512
 C1043 C 0.70275 0.08072 0.00669
 C1044 C 0.68919 0.05279 -0.01200
 H1045 H 0.72558 0.06095 0.05158
 H1046 H 0.66546 0.07803 0.06709
 H1047 H 0.70003 0.00935 0.01762
 H1048 H 0.63613 0.06249 -0.01946
 H1049 H 0.66175 0.11421 0.01430
 H1050 H 0.69628 0.04556 -0.03511
 C1051 C 0.20404 0.56337 0.53803
 C1052 C 0.17107 0.57270 0.54634
 C1053 C 0.15770 0.54484 0.52736
 C1054 C 0.19028 0.53519 0.51924
 C1055 C 0.15542 0.56435 0.49872
 C1056 C 0.16905 0.59245 0.51753
 C1057 C 0.20161 0.58280 0.50931
 C1058 C 0.18818 0.55490 0.49048
 H1059 H 0.22414 0.56298 0.55427
 H1060 H 0.16383 0.57990 0.56941
 H1061 H 0.19882 0.51140 0.52005
 H1062 H 0.13519 0.56465 0.48262
 H1063 H 0.16054 0.61626 0.51674
 H1064 H 0.19544 0.54772 0.46741
 C1065 C 0.20383 0.44305 -0.03730
 C1066 C 0.16876 0.43678 -0.04266
 C1067 C 0.16249 0.46534 -0.02252
 C1068 C 0.19726 0.47197 -0.01729
 C1069 C 0.16164 0.44563 0.00598
 C1070 C 0.16808 0.41688 -0.01406
 C1071 C 0.20286 0.42337 -0.00877
 C1072 C 0.19668 0.45191 0.01136
 H1073 H 0.22123 0.44193 -0.05521
 H1074 H 0.15728 0.43045 -0.06502
 H1075 H 0.20905 0.49488 -0.01867
 H1076 H 0.14409 0.44687 0.02374
 H1077 H 0.15626 0.39398 -0.01272
 H1078 H 0.20850 0.45784 0.03365
 C1079 C 0.70322 0.94443 0.46238
 C1080 C 0.66822 0.93791 0.45668
 C1081 C 0.66156 0.96640 0.47675
 C1082 C 0.69625 0.97328 0.48231
 C1083 C 0.66057 0.94667 0.50523
 C1084 C 0.66741 0.91799 0.48527
 C1085 C 0.70210 0.92474 0.49090
 C1086 C 0.69552 0.95321 0.51095
 H1087 H 0.72080 0.94346 0.44464
 H1088 H 0.65698 0.93153 0.43422
 H1089 H 0.70789 0.99628 0.48106
 H1090 H 0.64283 0.94777 0.52282
 H1091 H 0.65574 0.89500 0.48649
 H1092 H 0.70709 0.95921 0.53335
 C1093 C 0.82496 0.92728 0.48292
 C1094 C 0.82135 0.96165 0.49244
 C1095 C 0.84970 0.95976 0.51419
 C1096 C 0.85373 0.92586 0.50466
 C1097 C 0.82917 0.95018 0.54037
 C1098 C 0.80052 0.95173 0.51867
 C1099 C 0.80459 0.91779 0.50928
 C1100 C 0.83308 0.91611 0.53090
 H1101 H 0.82291 0.91748 0.45929
 H1102 H 0.81682 0.98065 0.47668
 H1103 H 0.87590 0.91544 0.49894
 H1104 H 0.83105 0.95982 0.56407
 H1105 H 0.77830 0.96205 0.52441
 H1106 H 0.83839 0.89740 0.54676
 C1107 C 0.32626 0.42548 -0.01586
 C1108 C 0.32213 0.46003 -0.00745
 C1109 C 0.34979 0.45892 0.01528
 C1110 C 0.35434 0.42485 0.00686
 C1111 C 0.32844 0.44996 0.04101
 C1112 C 0.30049 0.45071 0.01833
 C1113 C 0.30507 0.41659 0.01007
 C1114 C 0.33288 0.41571 0.03267
 H1115 H 0.32504 0.41500 -0.03924
 H1116 H 0.31801 0.47851 -0.02392
 H1117 H 0.37679 0.41448 0.00213
 H1118 H 0.32947 0.46027 0.06446
 H1119 H 0.27798 0.46099 0.02301
 H1120 H 0.33788 0.39752 0.04921
 C1121 C 0.58322 0.50978 0.33024
 C1122 C 0.54752 0.50656 0.32763
 C1123 C 0.54833 0.48222 0.35246
 C1124 C 0.58362 0.48554 0.35547
 C1125 C 0.55057 0.45631 0.32819
 C1126 C 0.55010 0.48055 0.30299
 C1127 C 0.58543 0.48370 0.30606
 C1128 C 0.58602 0.45952 0.33109
 H1129 H 0.59692 0.53178 0.33077
 H1130 H 0.53148 0.52591 0.32645
 H1131 H 0.59728 0.48763 0.37729
 H1132 H 0.53694 0.43426 0.32749
 H1133 H 0.53655 0.47849 0.28110
 H1134 H 0.60169 0.43996 0.33336
 C1135 C 0.06225 -0.04217 0.81003
 C1136 C 0.07411 -0.04234 0.84358
 C1137 C 0.04938 -0.01930 0.85201
 C1138 C 0.03733 -0.01911 0.81866
 C1139 C 0.07171 0.00799 0.84653
 C1140 C 0.09665 -0.01511 0.83785
 C1141 C 0.08472 -0.01500 0.80448
 C1142 C 0.06003 0.00816 0.81272
 H1143 H 0.05845 -0.06283 0.79477
 H1144 H 0.08006 -0.06329 0.85611
 H1145 H 0.01272 -0.02086 0.81100
 H1146 H 0.07539 0.02859 0.86189
 H1147 H 0.12126 -0.01341 0.84557
 H1148 H 0.05437 0.02897 0.79981
 C1149 C 0.06514 0.03712 0.70222
 C1150 C 0.07468 0.04537 0.66962
 C1151 C 0.04672 0.02631 0.65637
 C1152 C 0.03689 0.01822 0.68859
 C1153 C 0.06603 -0.00272 0.65443
 C1154 C 0.09425 0.01617 0.66798
 C1155 C 0.08439 0.00801 0.70021
 C1156 C 0.05641 -0.01093 0.68688
 H1157 H 0.06469 0.05368 0.72189
 H1158 H 0.08208 0.06860 0.66227
 H1159 H 0.01304 0.01915 0.69683
 H1160 H 0.06631 -0.01905 0.63455
 H1161 H 0.11810 0.01522 0.65977
 H1162 H 0.04906 -0.03418 0.69422
 C1163 C 0.56328 0.53689 0.20468
 C1164 C 0.57298 0.54598 0.17233
 C1165 C 0.54509 0.52720 0.15852
 C1166 C 0.53508 0.51830 0.19047
 C1167 C 0.56442 0.49822 0.15600
 C1168 C 0.59255 0.51682 0.17009
 C1169 C 0.58253 0.50782 0.20203
 C1170 C 0.55461 0.48920 0.18815
 H1171 H 0.56276 0.55289 0.22478
 H1172 H 0.58042 0.56942 0.16563
 H1173 H 0.51120 0.51905 0.19865
 H1174 H 0.56481 0.48238 0.13574
 H1175 H 0.61645 0.51608 0.16197
 H1176 H 0.54718 0.46576 0.19488
 C1177 C 0.45561 -0.01446 0.21035
 C1178 C 0.45499 -0.04361 0.18909
 C1179 C 0.46588 -0.02362 0.16291
 C1180 C 0.46690 0.00536 0.18385
 C1181 C 0.43234 -0.01782 0.15294
 C1182 C 0.42115 -0.03767 0.17937
 C1183 C 0.42209 -0.00866 0.20024
 C1184 C 0.43310 0.01127 0.17402
 H1185 H 0.46480 -0.01296 0.23427
 H1186 H 0.46429 -0.06625 0.19508
 H1187 H 0.48590 0.02303 0.18567
 H1188 H 0.42294 -0.01929 0.12909
 H1189 H 0.40204 -0.05525 0.17771
 H1190 H 0.42440 0.03398 0.16749
 C1191 C 0.94928 0.50829 0.69618
 C1192 C 0.96850 0.47882 0.69669
 C1193 C 0.96271 0.47464 0.66205
 C1194 C 0.94383 0.50397 0.66129
 C1195 C 0.93341 0.45482 0.66695
 C1196 C 0.93884 0.45913 0.70188
 C1197 C 0.91999 0.48848 0.70100
 C1198 C 0.91433 0.48425 0.66637
 H1199 H 0.95551 0.53036 0.70851
 H1200 H 0.99105 0.47656 0.70894
 H1201 H 0.94608 0.52238 0.64442
 H1202 H 0.92679 0.43269 0.65491
 H1203 H 0.93671 0.44058 0.71863
 H1204 H 0.89180 0.48650 0.65407
 C1205 C 0.90857 0.51372 0.83499
 C1206 C 0.93408 0.49110 0.84376
 C1207 C 0.95743 0.51843 0.84655
 C1208 C 0.93216 0.54099 0.83801
 C1209 C 0.96545 0.51409 0.81288
 C1210 C 0.94163 0.48673 0.80961
 C1211 C 0.91646 0.50948 0.80131
 C1212 C 0.94000 0.53665 0.80418
 H1213 H 0.88493 0.51346 0.84385
 H1214 H 0.93192 0.47243 0.86038
 H1215 H 0.92801 0.56350 0.84945
 H1216 H 0.98910 0.51434 0.80406
 H1217 H 0.94531 0.46435 0.79768
 H1218 H 0.94229 0.55537 0.78762
 C1219 C 0.40772 0.01289 0.33417
 C1220 C 0.43343 -0.00937 0.34326
 C1221 C 0.45665 0.01810 0.34515
 C1222 C 0.43119 0.04031 0.33628
 C1223 C 0.46435 0.01291 0.31149
 C1224 C 0.44065 -0.01459 0.30912
 C1225 C 0.41527 0.00781 0.30049
 C1226 C 0.43868 0.03512 0.30245
 H1227 H 0.38419 0.01275 0.34329
 H1228 H 0.43156 -0.02759 0.36038
 H1229 H 0.42708 0.06308 0.34721
 H1230 H 0.48788 0.01302 0.30240
 H1231 H 0.44430 -0.03724 0.29772
 H1232 H 0.44066 0.05337 0.28536
   
