data_POSCAR
  _audit_creation_date              2014-09-24
  _audit_creation_method            'ToBaCCo'
  _symmetry_space_group_name_H-M    'P1'
  _symmetry_Int_Tables_number       1
  _symmetry_cell_setting            triclinic
  loop_
  _symmetry_equiv_pos_as_xyz
 x,y,z
_cell_length_a 55.4322
_cell_length_b 37.5366
_cell_length_c 39.0047
_cell_angle_alpha 89.928400
_cell_angle_beta 89.950400
_cell_angle_gamma 89.982400
loop_
  _atom_site_label
  _atom_site_type_symbol
  _atom_site_fract_x
  _atom_site_fract_y
  _atom_site_fract_z
C1 C 0.00110 -0.00040 0.11028
 C2 C 0.00075 -0.00021 -0.11408
 C3 C -0.05502 -0.05869 0.05078
 C4 C -0.05502 0.05792 0.05079
 C5 C -0.05506 -0.05877 -0.05369
 C6 C 0.05613 -0.05561 -0.05725
 C7 C 0.05610 0.05499 -0.05723
 C8 C 0.05609 -0.05546 0.05331
 C9 C -0.05503 0.05829 -0.05356
 C10 C 0.05611 0.05471 0.05331
 O11 O -0.03301 -0.06651 -0.06147
 O12 O -0.06175 -0.03450 -0.03231
 O13 O -0.03299 0.06603 -0.06137
 O14 O -0.06173 0.03394 -0.03224
 O15 O 0.03408 0.06250 0.06108
 O16 O 0.06274 0.03229 0.03010
 O17 O 0.00053 0.03015 -0.09881
 O18 O 0.00055 -0.03061 -0.09882
 O19 O 0.00083 0.03002 0.09507
 O20 O 0.00082 -0.03082 0.09511
 O21 O 0.03405 -0.06338 -0.06481
 O22 O 0.06273 -0.03305 -0.03417
 O23 O -0.03295 -0.06632 0.05852
 O24 O -0.06173 -0.03456 0.02920
 O25 O 0.03407 -0.06328 0.06110
 O26 O 0.06272 -0.03303 0.03009
 O27 O 0.03404 0.06279 -0.06481
 O28 O 0.06272 0.03238 -0.03416
 O29 O 0.00172 0.09956 0.04955
 O30 O 0.00137 0.09948 -0.05432
 O31 O 0.00138 -0.10007 -0.05423
 O32 O 0.00173 -0.10030 0.04973
 O33 O -0.02033 -0.04722 -0.00177
 O34 O -0.02033 0.04654 -0.00179
 O35 O 0.02104 -0.04694 -0.00190
 O36 O -0.02147 -0.00037 0.04392
 O37 O -0.06173 0.03384 0.02922
 O38 O -0.03294 0.06553 0.05850
 O39 O 0.02265 -0.00039 0.04396
 O40 O 0.02262 -0.00031 -0.04795
 O41 O 0.02104 0.04626 -0.00193
 O42 O -0.02157 -0.00029 -0.04744
 Zr43 Zr 0.00052 0.04383 0.04272
 Zr44 Zr 0.00047 -0.04448 -0.04645
 Zr45 Zr -0.04091 -0.00034 -0.00165
 Zr46 Zr 0.00052 -0.04458 0.04275
 Zr47 Zr 0.00047 0.04388 -0.04645
 Zr48 Zr 0.04185 -0.00035 -0.00202
 H49 H 0.03077 -0.06904 -0.00190
 H50 H -0.03221 -0.00039 0.06418
 H51 H 0.03078 0.06835 -0.00192
 H52 H -0.03239 -0.00025 -0.06760
 H53 H -0.00370 0.10987 0.02751
 H54 H 0.00195 0.11008 -0.03115
 H55 H -0.00357 -0.11062 0.02767
 H56 H 0.00166 -0.11071 -0.03103
 C57 C 0.25042 0.24953 0.13714
 C58 C 0.25017 0.25002 0.36151
 C59 C 0.19428 0.30825 0.19703
 C60 C 0.19432 0.19141 0.19707
 C61 C 0.19411 0.30814 0.30156
 C62 C 0.30526 0.30538 0.30429
 C63 C 0.30528 0.19435 0.30439
 C64 C 0.30535 0.30530 0.19450
 C65 C 0.19421 0.19137 0.30138
 C66 C 0.30548 0.19413 0.19455
 O67 O 0.21616 0.31579 0.30936
 O68 O 0.18745 0.28402 0.28000
 O69 O 0.21626 0.18364 0.30914
 O70 O 0.18750 0.21563 0.27998
 O71 O 0.28344 0.18642 0.18675
 O72 O 0.31205 0.21690 0.21746
 O73 O 0.24990 0.21960 0.34636
 O74 O 0.24992 0.28042 0.34625
 O75 O 0.25017 0.21917 0.15246
 O76 O 0.25011 0.27994 0.15232
 O77 O 0.28320 0.31312 0.31202
 O78 O 0.31192 0.28266 0.28138
 O79 O 0.21635 0.31594 0.18934
 O80 O 0.18754 0.28400 0.21845
 O81 O 0.28333 0.31303 0.18667
 O82 O 0.31199 0.28257 0.21742
 O83 O 0.28325 0.18658 0.31213
 O84 O 0.31195 0.21706 0.28146
 O85 O 0.25094 0.14983 0.19783
 O86 O 0.25056 0.15013 0.30208
 O87 O 0.25073 0.34977 0.30079
 O88 O 0.25063 0.34946 0.19658
 O89 O 0.22890 0.29670 0.24921
 O90 O 0.22895 0.20295 0.24940
 O91 O 0.27023 0.29635 0.24927
 O92 O 0.22779 0.24972 0.20361
 O93 O 0.18757 0.21558 0.21853
 O94 O 0.21639 0.18376 0.18933
 O95 O 0.27198 0.24973 0.20335
 O96 O 0.27185 0.24988 0.29536
 O97 O 0.27028 0.20321 0.24947
 O98 O 0.22767 0.24986 0.29500
 Zr99 Zr 0.24984 0.20553 0.20484
 Zr100 Zr 0.24967 0.29406 0.29385
 Zr101 Zr 0.20834 0.24982 0.24927
 Zr102 Zr 0.24978 0.29389 0.20464
 Zr103 Zr 0.24971 0.20570 0.29403
 Zr104 Zr 0.29110 0.24979 0.24939
 H105 H 0.27990 0.31851 0.24927
 H106 H 0.21705 0.24975 0.18336
 H107 H 0.27997 0.18106 0.24950
 H108 H 0.21688 0.24982 0.31522
 H109 H 0.24613 0.13946 0.22014
 H110 H 0.25046 0.13942 0.27893
 H111 H 0.25034 0.36017 0.21972
 H112 H 0.24584 0.36011 0.27852
 C113 C 0.50004 -0.00147 0.11205
 C114 C 0.49992 -0.00181 -0.11169
 C115 C 0.55636 0.05635 0.05267
 C116 C 0.55640 -0.05961 0.05304
 C117 C 0.55638 0.05649 -0.05276
 C118 C 0.44510 0.05390 -0.05464
 C119 C 0.44512 -0.05721 -0.05444
 C120 C 0.44519 0.05407 0.05529
 C121 C 0.55633 -0.05991 -0.05248
 C122 C 0.44507 -0.05726 0.05568
 O123 O 0.53425 0.06422 -0.06023
 O124 O 0.56306 0.03241 -0.03106
 O125 O 0.53422 -0.06769 -0.05990
 O126 O 0.56303 -0.03583 -0.03089
 O127 O 0.46717 -0.06494 0.06331
 O128 O 0.43848 -0.03452 0.03266
 O129 O 0.50026 -0.03220 -0.09648
 O130 O 0.50026 0.02861 -0.09662
 O131 O 0.50034 -0.03194 0.09705
 O132 O 0.50037 0.02891 0.09684
 O133 O 0.46715 0.06165 -0.06243
 O134 O 0.43846 0.03115 -0.03168
 O135 O 0.53429 0.06402 0.06045
 O136 O 0.56306 0.03245 0.03088
 O137 O 0.46726 0.06179 0.06291
 O138 O 0.43852 0.03127 0.03246
 O139 O 0.46716 -0.06504 -0.06217
 O140 O 0.43847 -0.03447 -0.03156
 O141 O 0.49976 -0.10160 0.05182
 O142 O 0.50007 -0.10158 -0.05170
 O143 O 0.50010 0.09812 -0.05221
 O144 O 0.49978 0.09838 0.05127
 O145 O 0.52169 0.04526 0.00002
 O146 O 0.52166 -0.04861 0.00028
 O147 O 0.48020 0.04491 0.00015
 O148 O 0.52274 -0.00164 0.04567
 O149 O 0.56305 -0.03578 0.03108
 O150 O 0.53430 -0.06721 0.06083
 O151 O 0.47863 -0.00160 0.04621
 O152 O 0.47859 -0.00171 -0.04560
 O153 O 0.48018 -0.04827 0.00040
 O154 O 0.52273 -0.00173 -0.04550
 Zr155 Zr 0.50075 -0.04587 0.04485
 Zr156 Zr 0.50075 0.04251 -0.04442
 Zr157 Zr 0.54225 -0.00169 0.00006
 Zr158 Zr 0.50078 0.04262 0.04458
 Zr159 Zr 0.50075 -0.04594 -0.04419
 Zr160 Zr 0.45933 -0.00167 0.00040
 H161 H 0.47052 0.06706 0.00017
 H162 H 0.53345 -0.00160 0.06595
 H163 H 0.47049 -0.07040 0.00053
 H164 H 0.53344 -0.00175 -0.06581
 H165 H 0.50557 -0.11188 0.02998
 H166 H 0.49922 -0.11208 -0.02847
 H167 H 0.50557 0.10858 0.02936
 H168 H 0.49910 0.10869 -0.02906
 C169 C 0.75125 0.24916 0.13865
 C170 C 0.75096 0.24893 0.36238
 C171 C 0.69487 0.30703 0.19763
 C172 C 0.69505 0.19098 0.19771
 C173 C 0.69480 0.30710 0.30291
 C174 C 0.80595 0.30436 0.30570
 C175 C 0.80619 0.19379 0.30579
 C176 C 0.80600 0.30439 0.19518
 C177 C 0.69502 0.19071 0.30279
 C178 C 0.80619 0.19405 0.19508
 O179 O 0.71686 0.31493 0.31052
 O180 O 0.68814 0.28302 0.28132
 O181 O 0.71709 0.18290 0.31041
 O182 O 0.68828 0.21482 0.28125
 O183 O 0.78415 0.18620 0.18743
 O184 O 0.81280 0.21650 0.21826
 O185 O 0.75074 0.21854 0.34725
 O186 O 0.75064 0.27936 0.34724
 O187 O 0.75099 0.21871 0.15377
 O188 O 0.75090 0.27957 0.15375
 O189 O 0.78389 0.31216 0.31330
 O190 O 0.81267 0.28182 0.28266
 O191 O 0.71694 0.31472 0.18989
 O192 O 0.68818 0.28310 0.21944
 O193 O 0.78395 0.31216 0.18749
 O194 O 0.81268 0.28190 0.21832
 O195 O 0.78412 0.18594 0.31335
 O196 O 0.81279 0.21641 0.28269
 O197 O 0.75177 0.14909 0.19937
 O198 O 0.75134 0.14916 0.30267
 O199 O 0.75107 0.34885 0.30259
 O200 O 0.75153 0.34911 0.19928
 O201 O 0.72950 0.29598 0.25046
 O202 O 0.72965 0.20212 0.25048
 O203 O 0.77101 0.29567 0.25048
 O204 O 0.72856 0.24905 0.20489
 O205 O 0.68829 0.21486 0.21948
 O206 O 0.71714 0.18337 0.18998
 O207 O 0.77262 0.24915 0.20467
 O208 O 0.77258 0.24906 0.29640
 O209 O 0.77116 0.20244 0.25049
 O210 O 0.72846 0.24895 0.29605
 Zr211 Zr 0.75059 0.20485 0.20601
 Zr212 Zr 0.75037 0.29323 0.29497
 Zr213 Zr 0.70903 0.24901 0.25041
 Zr214 Zr 0.75044 0.29334 0.20599
 Zr215 Zr 0.75053 0.20478 0.29498
 Zr216 Zr 0.79189 0.24910 0.25051
 H217 H 0.78070 0.31780 0.25044
 H218 H 0.71786 0.24905 0.18460
 H219 H 0.78092 0.18037 0.25046
 H220 H 0.71769 0.24891 0.31629
 H221 H 0.74576 0.13887 0.22114
 H222 H 0.75267 0.13864 0.27952
 H223 H 0.74545 0.35928 0.22102
 H224 H 0.75222 0.35940 0.27941
 C225 C 0.00018 0.50035 0.11151
 C226 C 0.00007 0.50047 -0.11285
 C227 C -0.05580 0.44195 0.05179
 C228 C -0.05590 0.55866 0.05170
 C229 C -0.05586 0.44186 -0.05264
 C230 C 0.05526 0.44533 -0.05575
 C231 C 0.05516 0.55571 -0.05582
 C232 C 0.05528 0.44526 0.05465
 C233 C -0.05592 0.55889 -0.05260
 C234 C 0.05524 0.55574 0.05464
 O235 O -0.03379 0.43417 -0.06035
 O236 O -0.06258 0.46612 -0.03125
 O237 O -0.03387 0.56666 -0.06032
 O238 O -0.06262 0.53456 -0.03124
 O239 O 0.03318 0.56349 0.06235
 O240 O 0.06188 0.53323 0.03151
 O241 O -0.00022 0.53085 -0.09760
 O242 O -0.00016 0.47008 -0.09756
 O243 O -0.00011 0.53078 0.09632
 O244 O -0.00007 0.46995 0.09634
 O245 O 0.03324 0.43748 -0.06343
 O246 O 0.06189 0.46786 -0.03269
 O247 O -0.03373 0.43437 0.05959
 O248 O -0.06254 0.46608 0.03026
 O249 O 0.03324 0.43742 0.06238
 O250 O 0.06190 0.46780 0.03152
 O251 O 0.03313 0.56351 -0.06351
 O252 O 0.06184 0.53319 -0.03273
 O253 O 0.00076 0.60031 0.05098
 O254 O 0.00047 0.60021 -0.05307
 O255 O 0.00064 0.40067 -0.05290
 O256 O 0.00093 0.40051 0.05115
 O257 O -0.02115 0.45349 -0.00055
 O258 O -0.02121 0.54725 -0.00059
 O259 O 0.02022 0.45387 -0.00060
 O260 O -0.02234 0.50037 0.04508
 O261 O -0.06260 0.53452 0.03021
 O262 O -0.03385 0.56631 0.05950
 O263 O 0.02179 0.50043 0.04535
 O264 O 0.02178 0.50047 -0.04657
 O265 O 0.02015 0.54706 -0.00065
 O266 O -0.02241 0.50041 -0.04629
 Zr267 Zr -0.00036 0.54461 0.04396
 Zr268 Zr -0.00035 0.45626 -0.04518
 Zr269 Zr -0.04177 0.50034 -0.00055
 Zr270 Zr -0.00030 0.45620 0.04400
 Zr271 Zr -0.00041 0.54461 -0.04522
 Zr272 Zr 0.04100 0.50050 -0.00060
 H273 H 0.02996 0.43176 -0.00056
 H274 H -0.03311 0.50034 0.06533
 H275 H 0.02986 0.56918 -0.00064
 H276 H -0.03320 0.50041 -0.06649
 H277 H -0.00433 0.61069 0.02882
 H278 H 0.00050 0.61082 -0.02989
 H279 H -0.00409 0.39010 0.02900
 H280 H 0.00043 0.39005 -0.02970
 C281 C 0.25082 0.75069 0.13781
 C282 C 0.25054 0.75106 0.36158
 C283 C 0.19476 0.80935 0.19722
 C284 C 0.19444 0.69274 0.19726
 C285 C 0.19452 0.80955 0.30165
 C286 C 0.30563 0.80633 0.30448
 C287 C 0.30554 0.69521 0.30468
 C288 C 0.30597 0.80631 0.19449
 C289 C 0.19438 0.69259 0.30197
 C290 C 0.30556 0.69513 0.19484
 O291 O 0.21659 0.81726 0.30927
 O292 O 0.18780 0.78527 0.28031
 O293 O 0.21645 0.68484 0.30965
 O294 O 0.18771 0.71685 0.28049
 O295 O 0.28352 0.68744 0.18712
 O296 O 0.31225 0.71786 0.21769
 O297 O 0.25023 0.72063 0.34652
 O298 O 0.25029 0.78144 0.34636
 O299 O 0.25044 0.72030 0.15301
 O300 O 0.25060 0.78114 0.15284
 O301 O 0.28359 0.81418 0.31214
 O302 O 0.31231 0.78355 0.28166
 O303 O 0.21684 0.81691 0.18944
 O304 O 0.18795 0.78527 0.21877
 O305 O 0.28391 0.81408 0.18674
 O306 O 0.31250 0.78356 0.21753
 O307 O 0.28348 0.68753 0.31240
 O308 O 0.31225 0.71794 0.28176
 O309 O 0.25103 0.65089 0.19841
 O310 O 0.25068 0.65116 0.30226
 O311 O 0.25092 0.85075 0.30175
 O312 O 0.25142 0.85074 0.19760
 O313 O 0.22928 0.79782 0.24949
 O314 O 0.22911 0.70401 0.24977
 O315 O 0.27071 0.79747 0.24957
 O316 O 0.22814 0.75094 0.20405
 O317 O 0.18775 0.71687 0.21882
 O318 O 0.21652 0.68505 0.18952
 O319 O 0.27228 0.75074 0.20373
 O320 O 0.27216 0.75089 0.29560
 O321 O 0.27054 0.70429 0.24979
 O322 O 0.22798 0.75101 0.29531
 Zr323 Zr 0.25002 0.70662 0.20527
 Zr324 Zr 0.25005 0.79515 0.29406
 Zr325 Zr 0.20861 0.75098 0.24963
 Zr326 Zr 0.25026 0.79508 0.20502
 Zr327 Zr 0.24995 0.70674 0.29430
 Zr328 Zr 0.29147 0.75081 0.24965
 H329 H 0.28041 0.81959 0.24948
 H330 H 0.21741 0.75095 0.18379
 H331 H 0.28019 0.68210 0.24981
 H332 H 0.21719 0.75106 0.31553
 H333 H 0.24567 0.64060 0.22050
 H334 H 0.25118 0.64050 0.27910
 H335 H 0.24664 0.86124 0.21984
 H336 H 0.25059 0.86136 0.27855
 C337 C 0.49919 0.50015 0.11201
 C338 C 0.49942 0.49983 -0.11174
 C339 C 0.55552 0.55810 0.05269
 C340 C 0.55560 0.44202 0.05309
 C341 C 0.55555 0.55810 -0.05228
 C342 C 0.44444 0.55561 -0.05489
 C343 C 0.44445 0.44432 -0.05460
 C344 C 0.44444 0.55558 0.05496
 C345 C 0.55553 0.44170 -0.05197
 C346 C 0.44449 0.44463 0.05520
 O347 O 0.53350 0.56592 -0.05993
 O348 O 0.56226 0.53401 -0.03069
 O349 O 0.53348 0.43388 -0.05958
 O350 O 0.56225 0.46583 -0.03051
 O351 O 0.46651 0.43688 0.06302
 O352 O 0.43783 0.46729 0.03222
 O353 O 0.49972 0.46945 -0.09652
 O354 O 0.49971 0.53026 -0.09669
 O355 O 0.49953 0.46970 0.09697
 O356 O 0.49951 0.53055 0.09682
 O357 O 0.46649 0.56336 -0.06259
 O358 O 0.43778 0.53283 -0.03199
 O359 O 0.53345 0.56580 0.06040
 O360 O 0.56225 0.53412 0.03102
 O361 O 0.46646 0.56333 0.06271
 O362 O 0.43779 0.53286 0.03206
 O363 O 0.46650 0.43651 -0.06226
 O364 O 0.43779 0.46717 -0.03182
 O365 O 0.49900 0.40011 0.05180
 O366 O 0.49932 0.40012 -0.05188
 O367 O 0.49934 0.59975 -0.05241
 O368 O 0.49895 0.60001 0.05138
 O369 O 0.52090 0.54691 0.00005
 O370 O 0.52092 0.45305 0.00028
 O371 O 0.47947 0.54662 0.00003
 O372 O 0.52197 0.50006 0.04579
 O373 O 0.56229 0.46592 0.03125
 O374 O 0.53351 0.43437 0.06083
 O375 O 0.47787 0.50006 0.04600
 O376 O 0.47789 0.49995 -0.04585
 O377 O 0.47948 0.45343 0.00028
 O378 O 0.52203 0.49993 -0.04543
 Zr379 Zr 0.50003 0.45583 0.04477
 Zr380 Zr 0.50003 0.54415 -0.04447
 Zr381 Zr 0.54145 0.49997 0.00023
 Zr382 Zr 0.49999 0.54428 0.04454
 Zr383 Zr 0.50004 0.45573 -0.04423
 Zr384 Zr 0.45865 0.50003 0.00009
 H385 H 0.46979 0.56878 0.00000
 H386 H 0.53267 0.50009 0.06608
 H387 H 0.46981 0.43128 0.00035
 H388 H 0.53279 0.49989 -0.06569
 H389 H 0.50463 0.38980 0.02988
 H390 H 0.49862 0.38955 -0.02867
 H391 H 0.50442 0.61029 0.02934
 H392 H 0.49875 0.61039 -0.02925
 C393 C 0.75054 0.75031 0.13787
 C394 C 0.75031 0.75121 0.36160
 C395 C 0.69421 0.80852 0.19658
 C396 C 0.69427 0.69256 0.19729
 C397 C 0.69422 0.80913 0.30187
 C398 C 0.80531 0.80613 0.30468
 C399 C 0.80538 0.69560 0.30516
 C400 C 0.80539 0.80572 0.19408
 C401 C 0.69421 0.69271 0.30240
 C402 C 0.80535 0.69539 0.19460
 O403 O 0.71629 0.81698 0.30941
 O404 O 0.68751 0.78497 0.28041
 O405 O 0.71629 0.68494 0.31004
 O406 O 0.68750 0.71675 0.28074
 O407 O 0.78332 0.68754 0.18699
 O408 O 0.81201 0.71794 0.21764
 O409 O 0.75004 0.72073 0.34662
 O410 O 0.75001 0.78155 0.34631
 O411 O 0.75021 0.71994 0.15314
 O412 O 0.75023 0.78080 0.15283
 O413 O 0.78327 0.81405 0.31224
 O414 O 0.81200 0.78350 0.28172
 O415 O 0.71629 0.81615 0.18879
 O416 O 0.68751 0.78474 0.21854
 O417 O 0.78334 0.81351 0.18637
 O418 O 0.81203 0.78332 0.21735
 O419 O 0.78332 0.68781 0.31282
 O420 O 0.81204 0.71811 0.28199
 O421 O 0.75094 0.65057 0.19900
 O422 O 0.75051 0.65109 0.30236
 O423 O 0.75049 0.85079 0.30134
 O424 O 0.75090 0.85058 0.19810
 O425 O 0.72886 0.79770 0.24947
 O426 O 0.72888 0.70383 0.24995
 O427 O 0.77036 0.79736 0.24947
 O428 O 0.72784 0.75059 0.20415
 O429 O 0.68754 0.71654 0.21895
 O430 O 0.71634 0.68486 0.18957
 O431 O 0.77190 0.75058 0.20388
 O432 O 0.77187 0.75091 0.29561
 O433 O 0.77037 0.70412 0.24994
 O434 O 0.72776 0.75091 0.29531
 Zr435 Zr 0.74980 0.70635 0.20545
 Zr436 Zr 0.74974 0.79513 0.29398
 Zr437 Zr 0.70832 0.75076 0.24968
 Zr438 Zr 0.74979 0.79484 0.20500
 Zr439 Zr 0.74976 0.70668 0.29443
 Zr440 Zr 0.79117 0.75073 0.24971
 H441 H 0.78009 0.81945 0.24933
 H442 H 0.71714 0.75050 0.18386
 H443 H 0.78010 0.68201 0.24999
 H444 H 0.71700 0.75099 0.31556
 H445 H 0.74498 0.64044 0.22084
 H446 H 0.75169 0.64046 0.27925
 H447 H 0.74476 0.86084 0.21976
 H448 H 0.75175 0.86122 0.27812
 C449 C 0.00018 0.00087 0.38754
 C450 C -0.00015 0.00084 0.61185
 C451 C -0.05607 0.05912 0.44705
 C452 C -0.05592 -0.05752 0.44741
 C453 C -0.05607 0.05931 0.55164
 C454 C 0.05504 0.05605 0.55491
 C455 C 0.05506 -0.05432 0.55499
 C456 C 0.05505 0.05597 0.44433
 C457 C -0.05605 -0.05761 0.55173
 C458 C 0.05519 -0.05425 0.44446
 O459 O -0.03402 0.06706 0.55935
 O460 O -0.06276 0.03506 0.53026
 O461 O -0.03400 -0.06536 0.55946
 O462 O -0.06275 -0.03333 0.53034
 O463 O 0.03316 -0.06208 0.43674
 O464 O 0.06179 -0.03178 0.46761
 O465 O -0.00040 -0.02955 0.59666
 O466 O -0.00041 0.03125 0.59661
 O467 O -0.00010 -0.02954 0.40277
 O468 O -0.00015 0.03129 0.40268
 O469 O 0.03299 0.06390 0.56253
 O470 O 0.06171 0.03354 0.53182
 O471 O -0.03399 0.06674 0.43924
 O472 O -0.06276 0.03503 0.46870
 O473 O 0.03303 0.06379 0.43659
 O474 O 0.06169 0.03354 0.46754
 O475 O 0.03302 -0.06218 0.56264
 O476 O 0.06172 -0.03178 0.53187
 O477 O 0.00081 -0.09904 0.44814
 O478 O 0.00039 -0.09892 0.55214
 O479 O 0.00033 0.10066 0.55189
 O480 O 0.00065 0.10080 0.44805
 O481 O -0.02136 0.04777 0.49959
 O482 O -0.02130 -0.04600 0.49969
 O483 O 0.02001 0.04747 0.49962
 O484 O -0.02246 0.00084 0.45396
 O485 O -0.06267 -0.03338 0.46890
 O486 O -0.03385 -0.06512 0.43961
 O487 O 0.02166 0.00089 0.45378
 O488 O 0.02159 0.00087 0.54567
 O489 O 0.02007 -0.04574 0.49975
 O490 O -0.02257 0.00086 0.54533
 Zr491 Zr -0.00042 -0.04334 0.45514
 Zr492 Zr -0.00056 0.04506 0.54421
 Zr493 Zr -0.04191 0.00088 0.49959
 Zr494 Zr -0.00051 0.04508 0.45503
 Zr495 Zr -0.00053 -0.04332 0.54431
 Zr496 Zr 0.04085 0.00087 0.49972
 H497 H 0.02974 0.06957 0.49958
 H498 H -0.03320 0.00082 0.43371
 H499 H 0.02981 -0.06784 0.49975
 H500 H -0.03338 0.00086 0.56553
 H501 H -0.00434 -0.10943 0.47028
 H502 H 0.00043 -0.10953 0.52895
 H503 H -0.00481 0.11111 0.47006
 H504 H 0.00071 0.11125 0.52868
 C505 C 0.25023 0.24869 0.86322
 C506 C 0.25031 0.24942 0.63889
 C507 C 0.19414 0.19057 0.80327
 C508 C 0.19426 0.30755 0.80308
 C509 C 0.19418 0.19084 0.69878
 C510 C 0.30528 0.19361 0.69608
 C511 C 0.30536 0.30458 0.69607
 C512 C 0.30531 0.19322 0.80594
 C513 C 0.19423 0.30755 0.69883
 C514 C 0.30537 0.30444 0.80594
 O515 O 0.21624 0.18310 0.69107
 O516 O 0.18747 0.21500 0.72027
 O517 O 0.21629 0.31517 0.69101
 O518 O 0.18751 0.28337 0.72036
 O519 O 0.28333 0.31219 0.81371
 O520 O 0.31200 0.28170 0.78304
 O521 O 0.25006 0.27979 0.65413
 O522 O 0.25002 0.21897 0.65406
 O523 O 0.24997 0.27912 0.84804
 O524 O 0.24996 0.21832 0.84801
 O525 O 0.28325 0.18589 0.68832
 O526 O 0.31194 0.21624 0.71902
 O527 O 0.21619 0.18288 0.81105
 O528 O 0.18746 0.21482 0.78180
 O529 O 0.28326 0.18550 0.81371
 O530 O 0.31195 0.21601 0.78302
 O531 O 0.28333 0.31235 0.68831
 O532 O 0.31198 0.28183 0.71903
 O533 O 0.25060 0.34863 0.80370
 O534 O 0.25088 0.34907 0.69956
 O535 O 0.25064 0.14939 0.69857
 O536 O 0.25075 0.14903 0.80295
 O537 O 0.22888 0.20214 0.75103
 O538 O 0.22894 0.29590 0.75112
 O539 O 0.27021 0.20243 0.75101
 O540 O 0.22770 0.24893 0.79677
 O541 O 0.18753 0.28327 0.78178
 O542 O 0.21632 0.31521 0.81080
 O543 O 0.27189 0.24886 0.79708
 O544 O 0.27190 0.24912 0.70508
 O545 O 0.27027 0.29557 0.75109
 O546 O 0.22773 0.24918 0.70537
 Zr547 Zr 0.24976 0.29308 0.79570
 Zr548 Zr 0.24971 0.20497 0.70641
 Zr549 Zr 0.20832 0.24906 0.75107
 Zr550 Zr 0.24970 0.20470 0.79563
 Zr551 Zr 0.24976 0.29334 0.70651
 Zr552 Zr 0.29109 0.24897 0.75107
 H553 H 0.27987 0.18025 0.75099
 H554 H 0.21691 0.24895 0.81700
 H555 H 0.27997 0.31770 0.75107
 H556 H 0.21697 0.24922 0.68514
 H557 H 0.25089 0.35936 0.78054
 H558 H 0.24588 0.35936 0.72179
 H559 H 0.24652 0.13859 0.78048
 H560 H 0.24889 0.13869 0.72161
 C561 C 0.49925 0.00066 0.38815
 C562 C 0.49908 0.00009 0.61191
 C563 C 0.55540 -0.05750 0.44734
 C564 C 0.55543 0.05843 0.44752
 C565 C 0.55523 -0.05795 0.55233
 C566 C 0.44419 -0.05511 0.55471
 C567 C 0.44423 0.05583 0.55488
 C568 C 0.44434 -0.05488 0.44491
 C569 C 0.55529 0.05834 0.55252
 C570 C 0.44438 0.05607 0.44498
 O571 O 0.53317 -0.06580 0.55990
 O572 O 0.56199 -0.03381 0.53083
 O573 O 0.53324 0.06621 0.56010
 O574 O 0.56203 0.03430 0.53094
 O575 O 0.46643 0.06384 0.43726
 O576 O 0.43770 0.03335 0.46790
 O577 O 0.49939 0.03055 0.59682
 O578 O 0.49937 -0.03026 0.59672
 O579 O 0.49955 0.03106 0.40328
 O580 O 0.49952 -0.02979 0.40325
 O581 O 0.46620 -0.06298 0.56245
 O582 O 0.43757 -0.03231 0.53185
 O583 O 0.53335 -0.06517 0.43957
 O584 O 0.56208 -0.03365 0.46913
 O585 O 0.46638 -0.06265 0.43717
 O586 O 0.43767 -0.03221 0.46785
 O587 O 0.46625 0.06359 0.56263
 O588 O 0.43760 0.03318 0.53194
 O589 O 0.49890 0.10048 0.44858
 O590 O 0.49907 0.10009 0.55241
 O591 O 0.49898 -0.09953 0.55217
 O592 O 0.49883 -0.09941 0.44841
 O593 O 0.52070 -0.04657 0.49997
 O594 O 0.52073 0.04733 0.50007
 O595 O 0.47927 -0.04616 0.49992
 O596 O 0.52184 0.00049 0.45443
 O597 O 0.56210 0.03445 0.46925
 O598 O 0.53340 0.06620 0.43974
 O599 O 0.47777 0.00055 0.45406
 O600 O 0.47765 0.00033 0.54592
 O601 O 0.47932 0.04706 0.50002
 O602 O 0.52176 0.00027 0.54566
 Zr603 Zr 0.49991 0.04475 0.45554
 Zr604 Zr 0.49977 -0.04390 0.54444
 Zr605 Zr 0.54123 0.00035 0.50003
 Zr606 Zr 0.49987 -0.04371 0.45546
 Zr607 Zr 0.49980 0.04451 0.54457
 Zr608 Zr 0.45850 0.00048 0.49993
 H609 H 0.46958 -0.06830 0.49985
 H610 H 0.53258 0.00053 0.43416
 H611 H 0.46964 0.06922 0.50000
 H612 H 0.53248 0.00019 0.56592
 H613 H 0.50429 0.11075 0.47062
 H614 H 0.49870 0.11076 0.52922
 H615 H 0.50429 -0.10979 0.47040
 H616 H 0.49850 -0.11008 0.52897
 C617 C 0.75019 0.24910 0.86254
 C618 C 0.74983 0.24897 0.63881
 C619 C 0.69377 0.19100 0.80399
 C620 C 0.69384 0.30707 0.80334
 C621 C 0.69380 0.19077 0.69859
 C622 C 0.80486 0.19404 0.69538
 C623 C 0.80479 0.30450 0.69522
 C624 C 0.80492 0.19411 0.80588
 C625 C 0.69364 0.30706 0.69839
 C626 C 0.80492 0.30446 0.80571
 O627 O 0.71586 0.18299 0.69092
 O628 O 0.68707 0.21480 0.72018
 O629 O 0.71568 0.31494 0.69071
 O630 O 0.68697 0.28295 0.72002
 O631 O 0.78287 0.31222 0.81345
 O632 O 0.81155 0.28195 0.78259
 O633 O 0.74951 0.27940 0.65389
 O634 O 0.74954 0.21858 0.65402
 O635 O 0.74982 0.27952 0.84737
 O636 O 0.74986 0.21866 0.84750
 O637 O 0.78283 0.18607 0.68788
 O638 O 0.81152 0.21662 0.71838
 O639 O 0.71588 0.18341 0.81165
 O640 O 0.68705 0.21485 0.78209
 O641 O 0.78291 0.18621 0.81368
 O642 O 0.81153 0.21660 0.78270
 O643 O 0.78272 0.31230 0.68765
 O644 O 0.81148 0.28194 0.71829
 O645 O 0.75040 0.34906 0.80192
 O646 O 0.74984 0.34889 0.69832
 O647 O 0.75012 0.14920 0.69880
 O648 O 0.75054 0.14907 0.80198
 O649 O 0.72842 0.20204 0.75089
 O650 O 0.72837 0.29591 0.75071
 O651 O 0.76992 0.20254 0.75074
 O652 O 0.72739 0.24906 0.79639
 O653 O 0.68709 0.28309 0.78173
 O654 O 0.71589 0.31478 0.81101
 O655 O 0.77145 0.24912 0.79646
 O656 O 0.77136 0.24911 0.70472
 O657 O 0.76984 0.29580 0.75053
 O658 O 0.72725 0.24900 0.70521
 Zr659 Zr 0.74934 0.29332 0.79511
 Zr660 Zr 0.74929 0.20484 0.70631
 Zr661 Zr 0.70785 0.24893 0.75092
 Zr662 Zr 0.74934 0.20483 0.79529
 Zr663 Zr 0.74920 0.29328 0.70612
 Zr664 Zr 0.79067 0.24922 0.75054
 H665 H 0.77968 0.18046 0.75076
 H666 H 0.71670 0.24908 0.81671
 H667 H 0.77954 0.31793 0.75051
 H668 H 0.71650 0.24896 0.68498
 H669 H 0.74474 0.35934 0.78000
 H670 H 0.75072 0.35947 0.72149
 H671 H 0.74432 0.13888 0.78034
 H672 H 0.75140 0.13870 0.72198
 C673 C 0.00042 0.49999 0.38866
 C674 C 0.00019 0.50016 0.61297
 C675 C -0.05569 0.55836 0.44821
 C676 C -0.05564 0.44167 0.44855
 C677 C -0.05573 0.55867 0.55267
 C678 C 0.05539 0.55531 0.55582
 C679 C 0.05541 0.44482 0.55607
 C680 C 0.05547 0.55525 0.44529
 C681 C -0.05576 0.44162 0.55301
 C682 C 0.05547 0.44482 0.44548
 O683 O -0.03367 0.56639 0.56036
 O684 O -0.06244 0.53435 0.53138
 O685 O -0.03369 0.43389 0.56071
 O686 O -0.06245 0.46589 0.53157
 O687 O 0.03343 0.43703 0.43783
 O688 O 0.06211 0.46731 0.46860
 O689 O -0.00005 0.46974 0.59781
 O690 O -0.00007 0.53054 0.59768
 O691 O 0.00014 0.46959 0.40390
 O692 O 0.00015 0.53042 0.40378
 O693 O 0.03334 0.56314 0.56348
 O694 O 0.06206 0.53275 0.53278
 O695 O -0.03361 0.56595 0.44039
 O696 O -0.06241 0.53427 0.46984
 O697 O 0.03342 0.56302 0.43759
 O698 O 0.06210 0.53276 0.46849
 O699 O 0.03336 0.43703 0.56376
 O700 O 0.06207 0.46734 0.53293
 O701 O 0.00109 0.40012 0.44936
 O702 O 0.00069 0.40031 0.55330
 O703 O 0.00068 0.59988 0.55293
 O704 O 0.00104 0.59997 0.44910
 O705 O -0.02101 0.54694 0.50066
 O706 O -0.02100 0.45319 0.50085
 O707 O 0.02038 0.54664 0.50067
 O708 O -0.02213 0.50004 0.45511
 O709 O -0.06238 0.46581 0.47004
 O710 O -0.03357 0.43406 0.44075
 O711 O 0.02200 0.50003 0.45483
 O712 O 0.02195 0.50008 0.54672
 O713 O 0.02039 0.45346 0.50086
 O714 O -0.02224 0.50010 0.54646
 Zr715 Zr -0.00012 0.45583 0.45628
 Zr716 Zr -0.00021 0.54427 0.54527
 Zr717 Zr -0.04160 0.50007 0.50074
 Zr718 Zr -0.00014 0.54425 0.45610
 Zr719 Zr -0.00021 0.45591 0.54546
 Zr720 Zr 0.04122 0.50004 0.50074
 H721 H 0.03011 0.56874 0.50059
 H722 H -0.03288 0.50001 0.43487
 H723 H 0.03012 0.43135 0.50086
 H724 H -0.03305 0.50014 0.56667
 H725 H -0.00415 0.38977 0.47148
 H726 H 0.00081 0.38970 0.53012
 H727 H -0.00438 0.61029 0.47112
 H728 H 0.00120 0.61046 0.52972
 C729 C 0.25029 0.75064 0.86177
 C730 C 0.25024 0.75110 0.63800
 C731 C 0.19412 0.69248 0.80209
 C732 C 0.19408 0.80916 0.80245
 C733 C 0.19410 0.69256 0.69790
 C734 C 0.30522 0.69522 0.69496
 C735 C 0.30522 0.80634 0.69509
 C736 C 0.30520 0.69507 0.80485
 C737 C 0.19415 0.80953 0.69788
 C738 C 0.30524 0.80607 0.80496
 O739 O 0.21616 0.68480 0.69020
 O740 O 0.18738 0.71685 0.71925
 O741 O 0.21623 0.81724 0.69021
 O742 O 0.18741 0.78523 0.71926
 O743 O 0.28320 0.81388 0.81271
 O744 O 0.31187 0.78341 0.78198
 O745 O 0.24995 0.78147 0.65317
 O746 O 0.24993 0.72066 0.65311
 O747 O 0.24999 0.78110 0.84669
 O748 O 0.24997 0.72026 0.84663
 O749 O 0.28317 0.68753 0.68726
 O750 O 0.31188 0.71793 0.71786
 O751 O 0.21616 0.68477 0.80986
 O752 O 0.18740 0.71672 0.78067
 O753 O 0.28315 0.68735 0.81258
 O754 O 0.31187 0.71782 0.78192
 O755 O 0.28320 0.81420 0.68740
 O756 O 0.31188 0.78353 0.71793
 O757 O 0.25078 0.85068 0.80157
 O758 O 0.25051 0.85074 0.69765
 O759 O 0.25042 0.65117 0.69742
 O760 O 0.25066 0.65086 0.80169
 O761 O 0.22877 0.70402 0.74991
 O762 O 0.22879 0.79784 0.74999
 O763 O 0.27016 0.70417 0.74986
 O764 O 0.22764 0.75080 0.79558
 O765 O 0.18738 0.78511 0.78084
 O766 O 0.21616 0.81671 0.81024
 O767 O 0.27177 0.75073 0.79583
 O768 O 0.27179 0.75090 0.70396
 O769 O 0.27020 0.79737 0.74996
 O770 O 0.22762 0.75098 0.70428
 Zr771 Zr 0.24964 0.79500 0.79448
 Zr772 Zr 0.24962 0.70673 0.70536
 Zr773 Zr 0.20821 0.75097 0.74997
 Zr774 Zr 0.24963 0.70655 0.79440
 Zr775 Zr 0.24965 0.79513 0.70545
 Zr776 Zr 0.29101 0.75072 0.74991
 H777 H 0.27982 0.68199 0.74988
 H778 H 0.21688 0.75075 0.81582
 H779 H 0.27990 0.81950 0.75001
 H780 H 0.21684 0.75104 0.68407
 H781 H 0.24557 0.86110 0.77949
 H782 H 0.25079 0.86133 0.72084
 H783 H 0.24609 0.64044 0.77936
 H784 H 0.24998 0.64045 0.72058
 C785 C 0.49918 0.49973 0.38820
 C786 C 0.49908 0.49945 0.61194
 C787 C 0.55547 0.44163 0.44734
 C788 C 0.55543 0.55767 0.44737
 C789 C 0.55532 0.44133 0.55254
 C790 C 0.44420 0.44395 0.55496
 C791 C 0.44418 0.55517 0.55490
 C792 C 0.44432 0.44414 0.44497
 C793 C 0.55533 0.55774 0.55253
 C794 C 0.44432 0.55520 0.44500
 O795 O 0.53324 0.43352 0.56010
 O796 O 0.56207 0.46544 0.53098
 O797 O 0.53325 0.56553 0.56010
 O798 O 0.56208 0.53366 0.53097
 O799 O 0.46637 0.56294 0.43728
 O800 O 0.43763 0.53247 0.46794
 O801 O 0.49938 0.52988 0.59680
 O802 O 0.49939 0.46906 0.59681
 O803 O 0.49948 0.53013 0.40332
 O804 O 0.49949 0.46928 0.40331
 O805 O 0.46624 0.43616 0.56264
 O806 O 0.43755 0.46674 0.53207
 O807 O 0.53340 0.43399 0.43958
 O808 O 0.56215 0.46551 0.46914
 O809 O 0.46638 0.43641 0.43725
 O810 O 0.43764 0.46680 0.46793
 O811 O 0.46622 0.56292 0.56260
 O812 O 0.43754 0.53240 0.53204
 O813 O 0.49884 0.59961 0.44865
 O814 O 0.49909 0.59936 0.55228
 O815 O 0.49911 0.39970 0.55228
 O816 O 0.49888 0.39968 0.44871
 O817 O 0.52075 0.45266 0.50006
 O818 O 0.52074 0.54652 0.50006
 O819 O 0.47929 0.45300 0.50004
 O820 O 0.52185 0.49964 0.45448
 O821 O 0.56213 0.53373 0.46914
 O822 O 0.53337 0.56534 0.43961
 O823 O 0.47775 0.49964 0.45416
 O824 O 0.47765 0.49955 0.54599
 O825 O 0.47928 0.54618 0.50004
 O826 O 0.52180 0.49954 0.54567
 Zr827 Zr 0.49988 0.54387 0.45556
 Zr828 Zr 0.49980 0.45533 0.54455
 Zr829 Zr 0.54130 0.49959 0.50006
 Zr830 Zr 0.49989 0.45541 0.45555
 Zr831 Zr 0.49980 0.54376 0.54456
 Zr832 Zr 0.45844 0.49959 0.50003
 H833 H 0.46960 0.43086 0.50000
 H834 H 0.53258 0.49967 0.43420
 H835 H 0.46960 0.56833 0.49999
 H836 H 0.53251 0.49951 0.56595
 H837 H 0.50446 0.60986 0.47059
 H838 H 0.49833 0.60997 0.52910
 H839 H 0.50458 0.38939 0.47061
 H840 H 0.49827 0.38916 0.52909
 C841 C 0.75023 0.75025 0.86172
 C842 C 0.74991 0.75128 0.63799
 C843 C 0.69400 0.69244 0.80252
 C844 C 0.69380 0.80838 0.80314
 C845 C 0.69382 0.69274 0.69745
 C846 C 0.80495 0.69573 0.69440
 C847 C 0.80488 0.80622 0.69465
 C848 C 0.80504 0.69546 0.80490
 C849 C 0.69383 0.80910 0.69788
 C850 C 0.80496 0.80574 0.80515
 O851 O 0.71589 0.68498 0.68977
 O852 O 0.68712 0.71675 0.71911
 O853 O 0.71587 0.81699 0.69023
 O854 O 0.68712 0.78493 0.71939
 O855 O 0.78293 0.81351 0.81295
 O856 O 0.81160 0.78335 0.78192
 O857 O 0.74959 0.78161 0.65323
 O858 O 0.74964 0.72079 0.65303
 O859 O 0.74989 0.78076 0.84671
 O860 O 0.74990 0.71990 0.84651
 O861 O 0.78291 0.68790 0.68680
 O862 O 0.81162 0.71823 0.71748
 O863 O 0.71606 0.68476 0.81019
 O864 O 0.68723 0.71644 0.78087
 O865 O 0.78302 0.68756 0.81261
 O866 O 0.81166 0.71803 0.78179
 O867 O 0.78283 0.81413 0.68714
 O868 O 0.81158 0.78356 0.71762
 O869 O 0.75045 0.85055 0.80133
 O870 O 0.75005 0.85082 0.69804
 O871 O 0.75011 0.65113 0.69740
 O872 O 0.75067 0.65056 0.80085
 O873 O 0.72852 0.70381 0.74982
 O874 O 0.72845 0.79768 0.75011
 O875 O 0.77000 0.70413 0.74967
 O876 O 0.72748 0.75053 0.79553
 O877 O 0.68712 0.78461 0.78123
 O878 O 0.71588 0.81605 0.81082
 O879 O 0.77153 0.75059 0.79564
 O880 O 0.77146 0.75096 0.70390
 O881 O 0.76994 0.79739 0.74997
 O882 O 0.72735 0.75093 0.70436
 Zr883 Zr 0.74938 0.79482 0.79452
 Zr884 Zr 0.74936 0.70672 0.70524
 Zr885 Zr 0.70795 0.75072 0.75005
 Zr886 Zr 0.74948 0.70633 0.79422
 Zr887 Zr 0.74932 0.79516 0.70554
 Zr888 Zr 0.79076 0.75078 0.74974
 H889 H 0.77975 0.68204 0.74964
 H890 H 0.71679 0.75040 0.81586
 H891 H 0.77966 0.81950 0.75003
 H892 H 0.71659 0.75102 0.68413
 H893 H 0.74433 0.86082 0.77964
 H894 H 0.75125 0.86125 0.72124
 H895 H 0.74482 0.64040 0.77900
 H896 H 0.75121 0.64048 0.72054
 C897 C 0.00130 -0.00000 0.21566
 C898 C 0.00435 -0.03708 0.23174
 C899 C 0.00421 -0.03684 0.26669
 C900 C 0.00103 0.00046 0.28216
 C901 C -0.02226 0.01497 0.26611
 C902 C -0.02212 0.01473 0.23117
 C903 C 0.02150 0.02267 0.23141
 C904 C 0.02136 0.02291 0.26636
 C905 C 0.00139 -0.00025 0.17801
 C906 C 0.00132 -0.00038 0.14708
 C907 C 0.00083 0.00069 0.31981
 C908 C 0.00057 0.00082 0.35074
 H909 H 0.00645 -0.06139 0.21697
 H910 H 0.00619 -0.06094 0.28184
 H911 H -0.03753 0.02460 0.28089
 H912 H -0.03727 0.02416 0.21604
 H913 H 0.03475 0.03723 0.21642
 H914 H 0.03449 0.03768 0.28130
 C915 C 0.25080 0.24916 1.03513
 C916 C 0.24743 0.28623 1.01915
 C917 C 0.24740 0.28606 0.98421
 C918 C 0.25074 0.24884 0.96862
 C919 C 0.23065 0.22607 0.98459
 C920 C 0.23068 0.22624 1.01954
 C921 C 0.27424 0.23479 1.01936
 C922 C 0.27421 0.23462 0.98440
 C923 C 0.25078 0.24935 1.07279
 C924 C 0.25065 0.24947 1.10373
 C925 C 0.25065 0.24870 0.93096
 C926 C 0.25050 0.24865 0.90003
 H927 H 0.24527 0.31048 1.03398
 H928 H 0.24521 0.31017 0.96912
 H929 H 0.21755 0.21112 0.96976
 H930 H 0.21761 0.21143 1.03462
 H931 H 0.28953 0.22555 1.03433
 H932 H 0.28946 0.22524 0.96945
 C933 C 0.10881 0.10566 0.10850
 C934 C 0.13464 0.09631 0.09750
 C935 C 0.15193 0.11335 0.11611
 C936 C 0.14170 0.13805 0.14390
 C937 C 0.12512 0.11430 0.16565
 C938 C 0.10782 0.09727 0.14703
 C939 C 0.10737 0.14642 0.10617
 C940 C 0.12466 0.16345 0.12478
 C941 C 0.09017 0.08741 0.08847
 C942 C 0.07471 0.07248 0.07220
 C943 C 0.16035 0.15656 0.16371
 C944 C 0.17579 0.17221 0.17937
 H945 H 0.13897 0.07794 0.07692
 H946 H 0.17107 0.10955 0.11147
 H947 H 0.12681 0.11115 0.19321
 H948 H 0.09469 0.07950 0.15865
 H949 H 0.09395 0.16067 0.09122
 H950 H 0.12604 0.19228 0.12577
 C951 C 0.35831 0.35826 0.14178
 C952 C 0.37687 0.37673 0.16490
 C953 C 0.39436 0.39439 0.14718
 C954 C 0.39155 0.39182 0.10811
 C955 C 0.36598 0.40548 0.10068
 C956 C 0.34849 0.38781 0.11840
 C957 C 0.37319 0.33410 0.11812
 C958 C 0.39068 0.35176 0.10040
 C959 C 0.33949 0.33929 0.16077
 C960 C 0.32394 0.32373 0.17626
 C961 C 0.41036 0.41077 0.08909
 C962 C 0.42590 0.42629 0.07354
 H963 H 0.37632 0.37600 0.19271
 H964 H 0.40881 0.40881 0.15980
 H965 H 0.36197 0.42710 0.08308
 H966 H 0.32947 0.39429 0.11598
 H967 H 0.37025 0.30563 0.11551
 H968 H 0.40274 0.33844 0.08259
 C969 C 0.35870 0.14095 0.14181
 C970 C 0.36073 0.15228 0.10407
 C971 C 0.37826 0.13458 0.08642
 C972 C 0.39206 0.10727 0.10821
 C973 C 0.37255 0.08273 0.12316
 C974 C 0.35502 0.10042 0.14081
 C975 C 0.38411 0.14617 0.15662
 C976 C 0.40164 0.12847 0.13896
 C977 C 0.33979 0.16002 0.16080
 C978 C 0.32418 0.17563 0.17629
 C979 C 0.41097 0.08820 0.08919
 C980 C 0.42656 0.07259 0.07365
 H981 H 0.34940 0.17243 0.09226
 H982 H 0.38192 0.13958 0.05949
 H983 H 0.37250 0.05397 0.12016
 H984 H 0.33997 0.08681 0.15292
 H985 H 0.38799 0.16233 0.17900
 H986 H 0.42052 0.12949 0.14625
 C987 C 0.14140 0.36175 0.14433
 C988 C 0.15141 0.38776 0.11745
 C989 C 0.13397 0.40480 0.09908
 C990 C 0.10823 0.39416 0.10939
 C991 C 0.10681 0.40117 0.14812
 C992 C 0.12426 0.38412 0.16650
 C993 C 0.12494 0.33642 0.12420
 C994 C 0.10751 0.35346 0.10583
 C995 C 0.16020 0.34322 0.16390
 C996 C 0.17572 0.32754 0.17941
 C997 C 0.08944 0.41243 0.08960
 C998 C 0.07390 0.42740 0.07348
 H999 H 0.17052 0.39240 0.11324
 H1000 H 0.13813 0.42403 0.07913
 H1001 H 0.09330 0.41804 0.16006
 H1002 H 0.12570 0.38638 0.19417
 H1003 H 0.12681 0.30763 0.12436
 H1004 H 0.09445 0.33926 0.09026
 C1005 C 0.35822 0.14180 0.35764
 C1006 C 0.37740 0.12434 0.33474
 C1007 C 0.39488 0.10687 0.35264
 C1008 C 0.39146 0.10859 0.39167
 C1009 C 0.36598 0.09404 0.39812
 C1010 C 0.34850 0.11151 0.38023
 C1011 C 0.37240 0.16594 0.38214
 C1012 C 0.38989 0.14847 0.40004
 C1013 C 0.33941 0.16058 0.33843
 C1014 C 0.32387 0.17601 0.32278
 C1015 C 0.41027 0.08982 0.41088
 C1016 C 0.42581 0.07440 0.42656
 H1017 H 0.37725 0.12558 0.30693
 H1018 H 0.40972 0.09314 0.34017
 H1019 H 0.36203 0.07196 0.41524
 H1020 H 0.32956 0.10440 0.38200
 H1021 H 0.36901 0.19425 0.38517
 H1022 H 0.40148 0.16181 0.41841
 C1023 C 0.14128 0.36140 0.35478
 C1024 C 0.12660 0.33644 0.37801
 C1025 C 0.10927 0.35344 0.39661
 C1026 C 0.10828 0.39377 0.39019
 C1027 C 0.10512 0.39769 0.35125
 C1028 C 0.12247 0.38068 0.33263
 C1029 C 0.15127 0.39013 0.37888
 C1030 C 0.13393 0.40714 0.39749
 C1031 C 0.15999 0.34291 0.33495
 C1032 C 0.17549 0.32730 0.31928
 C1033 C 0.08957 0.41202 0.41024
 C1034 C 0.07409 0.42698 0.42653
 H1035 H 0.12957 0.30790 0.37970
 H1036 H 0.09740 0.33947 0.41422
 H1037 H 0.09055 0.41255 0.33934
 H1038 H 0.12275 0.38096 0.30480
 H1039 H 0.17030 0.39657 0.38112
 H1040 H 0.13811 0.42814 0.41566
 C1041 C 0.14126 0.13834 0.35412
 C1042 C 0.12682 0.16344 0.37744
 C1043 C 0.10933 0.14665 0.39592
 C1044 C 0.10801 0.10642 0.38927
 C1045 C 0.13352 0.09244 0.39656
 C1046 C 0.15102 0.10923 0.37807
 C1047 C 0.12232 0.11965 0.33182
 C1048 C 0.10482 0.10285 0.35032
 C1049 C 0.16009 0.15659 0.33447
 C1050 C 0.17564 0.17215 0.31894
 C1051 C 0.08919 0.08844 0.40917
 C1052 C 0.07365 0.07367 0.42540
 H1053 H 0.13004 0.19190 0.37926
 H1054 H 0.09757 0.16072 0.41359
 H1055 H 0.13749 0.07121 0.41463
 H1056 H 0.16998 0.10239 0.38028
 H1057 H 0.12263 0.11959 0.30399
 H1058 H 0.09012 0.08839 0.33833
 C1059 C 0.35820 0.35812 0.35756
 C1060 C 0.38342 0.35494 0.34157
 C1061 C 0.40086 0.37247 0.35947
 C1062 C 0.39138 0.39148 0.39161
 C1063 C 0.37858 0.36237 0.41246
 C1064 C 0.36114 0.34484 0.39457
 C1065 C 0.35365 0.39833 0.36077
 C1066 C 0.37110 0.41586 0.37867
 C1067 C 0.33940 0.33925 0.33833
 C1068 C 0.32387 0.32377 0.32267
 C1069 C 0.41019 0.41034 0.41085
 C1070 C 0.42572 0.42580 0.42653
 H1071 H 0.38724 0.34022 0.31825
 H1072 H 0.41962 0.37276 0.35146
 H1073 H 0.38283 0.35608 0.43896
 H1074 H 0.35046 0.32353 0.40574
 H1075 H 0.33811 0.41185 0.34993
 H1076 H 0.37048 0.44439 0.38315
 C1077 C 0.49922 -0.00065 0.21694
 C1078 C 0.50211 -0.03770 0.23310
 C1079 C 0.50199 -0.03730 0.26801
 C1080 C 0.49899 0.00012 0.28325
 C1081 C 0.47573 0.01480 0.26725
 C1082 C 0.47585 0.01439 0.23233
 C1083 C 0.51953 0.02191 0.23250
 C1084 C 0.51941 0.02231 0.26741
 C1085 C 0.49940 -0.00107 0.17948
 C1086 C 0.49965 -0.00133 0.14866
 C1087 C 0.49892 0.00050 0.32072
 C1088 C 0.49900 0.00067 0.35154
 H1089 H 0.50407 -0.06209 0.21842
 H1090 H 0.50385 -0.06134 0.28328
 H1091 H 0.46052 0.02463 0.28203
 H1092 H 0.46075 0.02388 0.21715
 H1093 H 0.53283 0.03628 0.21743
 H1094 H 0.53260 0.03704 0.28228
 C1095 C 0.75155 0.24917 1.03375
 C1096 C 0.75066 0.28663 1.01800
 C1097 C 0.75050 0.28662 0.98308
 C1098 C 0.75124 0.24914 0.96743
 C1099 C 0.72975 0.22938 0.98340
 C1100 C 0.72992 0.22939 1.01830
 C1101 C 0.77386 0.23146 1.01784
 C1102 C 0.77370 0.23145 0.98292
 C1103 C 0.75165 0.24918 1.07121
 C1104 C 0.75155 0.24919 1.10203
 C1105 C 0.75099 0.24914 0.92997
 C1106 C 0.75067 0.24913 0.89915
 H1107 H 0.75021 0.31101 1.03294
 H1108 H 0.74990 0.31098 0.96808
 H1109 H 0.71565 0.21651 0.96860
 H1110 H 0.71596 0.21653 1.03345
 H1111 H 0.78849 0.21996 1.03268
 H1112 H 0.78819 0.21994 0.96780
 C1113 C 0.60920 0.10800 0.10713
 C1114 C 0.63489 0.10148 0.09383
 C1115 C 0.65227 0.11794 0.11277
 C1116 C 0.64226 0.13931 0.14317
 C1117 C 0.62711 0.11258 0.16377
 C1118 C 0.60973 0.09612 0.14483
 C1119 C 0.60650 0.14867 0.10839
 C1120 C 0.62388 0.16513 0.12732
 C1121 C 0.59045 0.09015 0.08689
 C1122 C 0.57495 0.07504 0.07082
 C1123 C 0.66100 0.15716 0.16342
 C1124 C 0.67649 0.17227 0.17950
 H1125 H 0.63907 0.08537 0.07150
 H1126 H 0.67133 0.11591 0.10666
 H1127 H 0.62978 0.10707 0.19083
 H1128 H 0.59752 0.07651 0.15569
 H1129 H 0.59221 0.16326 0.09553
 H1130 H 0.62446 0.19383 0.13068
 C1131 C -0.14133 0.35570 0.14010
 C1132 C -0.12461 0.37897 0.16197
 C1133 C -0.10730 0.39612 0.14343
 C1134 C -0.10842 0.38831 0.10483
 C1135 C -0.13423 0.39804 0.09412
 C1136 C -0.15154 0.38089 0.11267
 C1137 C -0.12445 0.33041 0.12057
 C1138 C -0.10713 0.34757 0.10202
 C1139 C -0.15999 0.33733 0.16005
 C1140 C -0.17544 0.32230 0.17628
 C1141 C -0.08976 0.40694 0.08510
 C1142 C -0.07432 0.42267 0.06947
 H1143 H -0.12620 0.38173 0.18959
 H1144 H -0.09407 0.41358 0.15517
 H1145 H -0.13853 0.41673 0.07376
 H1146 H -0.17068 0.38489 0.10819
 H1147 H -0.12596 0.30158 0.12124
 H1148 H -0.09381 0.33345 0.08679
 C1149 C 0.89215 0.11104 0.10422
 C1150 C 0.87737 0.08596 0.12720
 C1151 C 0.86001 0.10288 0.14582
 C1152 C 0.85909 0.14325 0.13967
 C1153 C 0.85605 0.14747 0.10074
 C1154 C 0.87343 0.13054 0.08211
 C1155 C 0.90211 0.13956 0.12858
 C1156 C 0.88474 0.15649 0.14721
 C1157 C 0.91090 0.09262 0.08436
 C1158 C 0.92640 0.07705 0.06863
 C1159 C 0.84034 0.16143 0.15975
 C1160 C 0.82483 0.17630 0.17607
 H1161 H 0.88029 0.05739 0.12871
 H1162 H 0.84807 0.08881 0.16327
 H1163 H 0.84153 0.16246 0.08886
 H1164 H 0.87379 0.13102 0.05428
 H1165 H 0.92114 0.14592 0.13098
 H1166 H 0.88890 0.17734 0.16555
 C1167 C 0.64183 0.35878 0.14327
 C1168 C 0.65178 0.38171 0.11385
 C1169 C 0.63432 0.39822 0.09504
 C1170 C 0.60860 0.39021 0.10746
 C1171 C 0.60848 0.40061 0.14554
 C1172 C 0.62594 0.38410 0.16435
 C1173 C 0.62411 0.33291 0.12612
 C1174 C 0.60665 0.34942 0.10731
 C1175 C 0.66068 0.34087 0.16340
 C1176 C 0.67624 0.32574 0.17943
 C1177 C 0.58976 0.40813 0.08732
 C1178 C 0.57421 0.42328 0.07129
 H1179 H 0.67086 0.38471 0.10827
 H1180 H 0.63845 0.41534 0.07337
 H1181 H 0.59579 0.41931 0.15675
 H1182 H 0.62820 0.38866 0.19164
 H1183 H 0.62519 0.30413 0.12853
 H1184 H 0.59279 0.33478 0.09362
 C1185 C -0.14242 0.14444 0.35894
 C1186 C -0.12654 0.11962 0.33730
 C1187 C -0.10905 0.10270 0.35570
 C1188 C -0.10913 0.11223 0.39398
 C1189 C -0.13483 0.10391 0.40630
 C1190 C -0.15232 0.12084 0.38789
 C1191 C -0.12470 0.16994 0.37658
 C1192 C -0.10720 0.15302 0.39500
 C1193 C -0.16129 0.16262 0.33910
 C1194 C -0.17688 0.17756 0.32295
 C1195 C -0.09026 0.09381 0.41364
 C1196 C -0.07469 0.07825 0.42926
 H1197 H -0.12882 0.11568 0.30992
 H1198 H -0.09637 0.08428 0.34406
 H1199 H -0.13893 0.08631 0.42762
 H1200 H -0.17140 0.11771 0.39346
 H1201 H -0.12580 0.19876 0.37479
 H1202 H -0.09333 0.16734 0.40896
 C1203 C 0.64174 0.35875 0.35714
 C1204 C 0.62686 0.33308 0.37938
 C1205 C 0.60938 0.34951 0.39821
 C1206 C 0.60849 0.39002 0.39298
 C1207 C 0.60566 0.39522 0.35412
 C1208 C 0.62313 0.37878 0.33529
 C1209 C 0.65157 0.38665 0.38226
 C1210 C 0.63409 0.40308 0.40110
 C1211 C 0.66059 0.34093 0.33700
 C1212 C 0.67617 0.32583 0.32101
 C1213 C 0.58964 0.40785 0.41314
 C1214 C 0.57409 0.42294 0.42917
 H1215 H 0.62979 0.30449 0.38025
 H1216 H 0.59736 0.33501 0.41521
 H1217 H 0.59119 0.41047 0.34243
 H1218 H 0.62363 0.37996 0.30748
 H1219 H 0.67058 0.39295 0.38502
 H1220 H 0.63815 0.42344 0.41998
 C1221 C 0.64197 0.13969 0.35711
 C1222 C 0.62689 0.16585 0.37847
 C1223 C 0.60931 0.14981 0.39742
 C1224 C 0.60856 0.10921 0.39312
 C1225 C 0.63410 0.09640 0.40197
 C1226 C 0.65168 0.11244 0.38302
 C1227 C 0.62359 0.11911 0.33542
 C1228 C 0.60601 0.10308 0.35437
 C1229 C 0.66088 0.15709 0.33691
 C1230 C 0.67646 0.17200 0.32088
 C1231 C 0.58965 0.09183 0.41333
 C1232 C 0.57405 0.07698 0.42939
 H1233 H 0.62977 0.19446 0.37870
 H1234 H 0.59713 0.16466 0.41388
 H1235 H 0.63804 0.07650 0.42140
 H1236 H 0.67069 0.10627 0.38621
 H1237 H 0.62431 0.11730 0.30766
 H1238 H 0.59165 0.08751 0.34283
 C1239 C -0.14135 0.35563 0.36063
 C1240 C -0.11561 0.34816 0.34799
 C1241 C -0.09827 0.36525 0.36644
 C1242 C -0.10836 0.38814 0.39573
 C1243 C -0.12382 0.36260 0.41725
 C1244 C -0.14117 0.34549 0.39879
 C1245 C -0.14379 0.39635 0.36009
 C1246 C -0.12645 0.41344 0.37854
 C1247 C -0.16004 0.33730 0.34076
 C1248 C -0.17550 0.32228 0.32457
 C1249 C -0.08966 0.40672 0.41538
 C1250 C -0.07419 0.42242 0.43093
 H1251 H -0.11139 0.33095 0.32645
 H1252 H -0.07918 0.36268 0.36071
 H1253 H -0.12135 0.35831 0.44456
 H1254 H -0.15357 0.32655 0.41029
 H1255 H -0.15791 0.41053 0.34643
 H1256 H -0.12572 0.44226 0.38068
 C1257 C 0.00075 0.50019 0.21684
 C1258 C 0.01105 0.46589 0.23256
 C1259 C 0.01109 0.46582 0.26750
 C1260 C 0.00083 0.50006 0.28333
 C1261 C -0.02441 0.50410 0.26765
 C1262 C -0.02446 0.50416 0.23271
 C1263 C 0.01573 0.53042 0.23257
 C1264 C 0.01578 0.53035 0.26752
 C1265 C 0.00065 0.50026 0.17921
 C1266 C 0.00048 0.50031 0.14829
 C1267 C 0.00082 0.50000 0.32096
 C1268 C 0.00069 0.49998 0.35188
 H1269 H 0.01773 0.44362 0.21755
 H1270 H 0.01781 0.44350 0.28243
 H1271 H -0.04082 0.50668 0.28266
 H1272 H -0.04090 0.50680 0.21781
 H1273 H 0.02547 0.55012 0.21758
 H1274 H 0.02555 0.55000 0.28246
 C1275 C 0.25122 0.75056 1.03294
 C1276 C 0.24759 0.78766 1.01721
 C1277 C 0.24750 0.78765 0.98230
 C1278 C 0.25105 0.75053 0.96664
 C1279 C 0.23112 0.72740 0.98250
 C1280 C 0.23121 0.72741 1.01741
 C1281 C 0.27474 0.73658 1.01713
 C1282 C 0.27465 0.73656 0.98220
 C1283 C 0.25124 0.75059 1.07040
 C1284 C 0.25112 0.75063 1.10121
 C1285 C 0.25089 0.75053 0.92919
 C1286 C 0.25066 0.75056 0.89837
 H1287 H 0.24529 0.81181 1.03216
 H1288 H 0.24513 0.81178 0.96730
 H1289 H 0.21809 0.71234 0.96764
 H1290 H 0.21826 0.71237 1.03249
 H1291 H 0.29010 0.72751 1.03202
 H1292 H 0.28994 0.72747 0.96714
 C1293 C 0.10825 0.60699 0.10941
 C1294 C 0.13401 0.59657 0.09899
 C1295 C 0.15145 0.61361 0.11735
 C1296 C 0.14144 0.63943 0.14435
 C1297 C 0.12439 0.61683 0.16650
 C1298 C 0.10695 0.59978 0.14814
 C1299 C 0.10742 0.64772 0.10599
 C1300 C 0.12485 0.66475 0.12434
 C1301 C 0.08942 0.58868 0.08961
 C1302 C 0.07388 0.57367 0.07349
 C1303 C 0.16027 0.65796 0.16396
 C1304 C 0.17582 0.67358 0.17953
 H1305 H 0.13819 0.57747 0.07897
 H1306 H 0.17056 0.60909 0.11303
 H1307 H 0.12589 0.61441 0.19416
 H1308 H 0.09351 0.58277 0.16009
 H1309 H 0.09429 0.66194 0.09051
 H1310 H 0.12663 0.69356 0.12457
 C1311 C 0.39326 0.89189 0.10737
 C1312 C 0.37506 0.91694 0.12470
 C1313 C 0.35739 0.89959 0.14246
 C1314 C 0.35959 0.85882 0.14121
 C1315 C 0.38517 0.85080 0.15419
 C1316 C 0.40284 0.86816 0.13643
 C1317 C 0.37788 0.86701 0.08510
 C1318 C 0.36021 0.84966 0.10285
 C1319 C 0.41237 0.91065 0.08819
 C1320 C 0.42807 0.92606 0.07252
 C1321 C 0.34047 0.84006 0.16037
 C1322 C 0.32476 0.82467 0.17601
 H1323 H 0.37598 0.94579 0.12317
 H1324 H 0.34320 0.91361 0.15610
 H1325 H 0.38907 0.83305 0.17547
 H1326 H 0.42184 0.86523 0.14254
 H1327 H 0.38062 0.86333 0.05776
 H1328 H 0.34785 0.83115 0.09069
 C1329 C 0.35839 0.64209 0.14182
 C1330 C 0.36067 0.65417 0.10434
 C1331 C 0.37811 0.63649 0.08653
 C1332 C 0.39153 0.60849 0.10796
 C1333 C 0.37175 0.58401 0.12224
 C1334 C 0.35432 0.60168 0.14005
 C1335 C 0.38375 0.64652 0.15699
 C1336 C 0.40118 0.62885 0.13918
 C1337 C 0.33963 0.66108 0.16094
 C1338 C 0.32413 0.67667 0.17653
 C1339 C 0.41031 0.58951 0.08884
 C1340 C 0.42583 0.57397 0.07326
 H1341 H 0.34957 0.67478 0.09281
 H1342 H 0.38194 0.64195 0.05973
 H1343 H 0.37146 0.55533 0.11868
 H1344 H 0.33908 0.58815 0.15176
 H1345 H 0.38767 0.66215 0.17971
 H1346 H 0.42004 0.62933 0.14664
 C1347 C 0.10896 0.89414 0.10850
 C1348 C 0.12823 0.87588 0.08638
 C1349 C 0.14564 0.85912 0.10501
 C1350 C 0.14207 0.86226 0.14393
 C1351 C 0.11657 0.84792 0.15066
 C1352 C 0.09916 0.86469 0.13203
 C1353 C 0.12304 0.91919 0.13229
 C1354 C 0.14046 0.90242 0.15093
 C1355 C 0.09021 0.91210 0.08849
 C1356 C 0.07469 0.92686 0.07222
 C1357 C 0.16080 0.84403 0.16375
 C1358 C 0.17627 0.82851 0.17945
 H1359 H 0.12821 0.87611 0.05854
 H1360 H 0.16054 0.84497 0.09313
 H1361 H 0.11255 0.82651 0.16851
 H1362 H 0.08021 0.85764 0.13391
 H1363 H 0.11961 0.94760 0.13432
 H1364 H 0.15196 0.91643 0.16894
 C1365 C 0.35837 0.64200 0.35784
 C1366 C 0.37791 0.62544 0.33496
 C1367 C 0.39531 0.60771 0.35280
 C1368 C 0.39147 0.60829 0.39179
 C1369 C 0.36601 0.59323 0.39728
 C1370 C 0.34861 0.61096 0.37944
 C1371 C 0.37213 0.66563 0.38328
 C1372 C 0.38953 0.64791 0.40112
 C1373 C 0.33961 0.66107 0.33867
 C1374 C 0.32411 0.67670 0.32305
 C1375 C 0.41022 0.58923 0.41097
 C1376 C 0.42573 0.57364 0.42661
 H1377 H 0.37806 0.62744 0.30719
 H1378 H 0.41037 0.59453 0.34032
 H1379 H 0.36201 0.57064 0.41374
 H1380 H 0.32969 0.60355 0.38061
 H1381 H 0.36852 0.69380 0.38695
 H1382 H 0.40083 0.66089 0.42009
 C1383 C 0.14154 -0.13717 0.35449
 C1384 C 0.12977 -0.16078 0.38198
 C1385 C 0.11230 -0.14389 0.40041
 C1386 C 0.10828 -0.10503 0.38955
 C1387 C 0.10302 -0.10666 0.35093
 C1388 C 0.12051 -0.12356 0.33250
 C1389 C 0.15067 -0.10430 0.37393
 C1390 C 0.13319 -0.08740 0.39236
 C1391 C 0.16039 -0.15557 0.33485
 C1392 C 0.17593 -0.17118 0.31929
 C1393 C 0.08943 -0.08690 0.40941
 C1394 C 0.07386 -0.07204 0.42558
 H1395 H 0.13473 -0.18836 0.38658
 H1396 H 0.10230 -0.15700 0.42077
 H1397 H 0.08698 -0.09550 0.33910
 H1398 H 0.11945 -0.12688 0.30489
 H1399 H 0.16923 -0.09509 0.37325
 H1400 H 0.13677 -0.06371 0.40747
 C1401 C 0.14147 0.63907 0.35500
 C1402 C 0.12690 0.66385 0.37850
 C1403 C 0.10953 0.64676 0.39698
 C1404 C 0.10838 0.60652 0.39019
 C1405 C 0.13400 0.59285 0.39731
 C1406 C 0.15138 0.60995 0.37882
 C1407 C 0.12257 0.62023 0.33273
 C1408 C 0.10518 0.60312 0.35122
 C1409 C 0.16024 0.65767 0.33529
 C1410 C 0.17576 0.67336 0.31968
 C1411 C 0.08962 0.58816 0.41013
 C1412 C 0.07411 0.57315 0.42635
 H1413 H 0.12997 0.69234 0.38045
 H1414 H 0.09772 0.66061 0.41475
 H1415 H 0.13812 0.57159 0.41527
 H1416 H 0.17039 0.60332 0.38096
 H1417 H 0.12282 0.62030 0.30489
 H1418 H 0.09054 0.58855 0.33920
 C1419 C 0.35842 -0.14095 0.35770
 C1420 C 0.38417 -0.15185 0.34771
 C1421 C 0.40158 -0.13427 0.36560
 C1422 C 0.39151 -0.10753 0.39171
 C1423 C 0.37438 -0.12930 0.41448
 C1424 C 0.35698 -0.14688 0.39659
 C1425 C 0.35764 -0.10036 0.35296
 C1426 C 0.37505 -0.08278 0.37086
 C1427 C 0.33969 -0.15984 0.33849
 C1428 C 0.32419 -0.17533 0.32285
 C1429 C 0.41026 -0.08864 0.41090
 C1430 C 0.42577 -0.07318 0.42654
 H1431 H 0.38836 -0.17162 0.32831
 H1432 H 0.42069 -0.13897 0.36152
 H1433 H 0.37580 -0.13077 0.44221
 H1434 H 0.34347 -0.16343 0.40899
 H1435 H 0.34458 -0.08664 0.33697
 H1436 H 0.37690 -0.05399 0.37020
 C1437 C 0.49859 0.50010 0.21694
 C1438 C 0.50876 0.46572 0.23260
 C1439 C 0.50877 0.46564 0.26752
 C1440 C 0.49861 0.49995 0.28327
 C1441 C 0.47337 0.50418 0.26761
 C1442 C 0.47336 0.50426 0.23269
 C1443 C 0.51366 0.53024 0.23265
 C1444 C 0.51367 0.53016 0.26756
 C1445 C 0.49865 0.50017 0.17947
 C1446 C 0.49883 0.50019 0.14864
 C1447 C 0.49867 0.49986 0.32075
 C1448 C 0.49884 0.49979 0.35157
 H1449 H 0.51538 0.44341 0.21760
 H1450 H 0.51539 0.44326 0.28246
 H1451 H 0.45697 0.50687 0.28262
 H1452 H 0.45696 0.50701 0.21774
 H1453 H 0.52346 0.54989 0.21768
 H1454 H 0.52347 0.54974 0.28254
 C1455 C 0.75108 0.75000 1.03296
 C1456 C 0.75013 0.78746 1.01720
 C1457 C 0.75008 0.78744 0.98228
 C1458 C 0.75099 0.74998 0.96664
 C1459 C 0.72952 0.73007 0.98246
 C1460 C 0.72956 0.73008 1.01737
 C1461 C 0.77350 0.73245 1.01720
 C1462 C 0.77346 0.73243 0.98227
 C1463 C 0.75106 0.75006 1.07043
 C1464 C 0.75089 0.75015 1.10125
 C1465 C 0.75087 0.75000 0.92916
 C1466 C 0.75064 0.75009 0.89834
 H1467 H 0.74955 0.81183 1.03213
 H1468 H 0.74946 0.81180 0.96727
 H1469 H 0.71551 0.71710 0.96756
 H1470 H 0.71560 0.71713 1.03241
 H1471 H 0.78812 0.72105 1.03214
 H1472 H 0.78803 0.72102 0.96725
 C1473 C 0.60834 0.60972 0.10702
 C1474 C 0.63399 0.60333 0.09353
 C1475 C 0.65140 0.61975 0.11244
 C1476 C 0.64144 0.64094 0.14298
 C1477 C 0.62639 0.61408 0.16356
 C1478 C 0.60899 0.59766 0.14466
 C1479 C 0.60558 0.65037 0.10846
 C1480 C 0.62299 0.66679 0.12736
 C1481 C 0.58958 0.59192 0.08683
 C1482 C 0.57408 0.57682 0.07080
 C1483 C 0.66020 0.65873 0.16317
 C1484 C 0.67571 0.67383 0.17919
 H1485 H 0.63812 0.58734 0.07110
 H1486 H 0.67045 0.61781 0.10620
 H1487 H 0.62916 0.60845 0.19058
 H1488 H 0.59683 0.57796 0.15551
 H1489 H 0.59123 0.66498 0.09575
 H1490 H 0.62354 0.69547 0.13085
 C1491 C 0.89189 0.88835 0.10387
 C1492 C 0.87599 0.91380 0.12482
 C1493 C 0.85847 0.89699 0.14326
 C1494 C 0.85853 0.85636 0.13897
 C1495 C 0.88421 0.84466 0.14850
 C1496 C 0.90173 0.86148 0.13006
 C1497 C 0.87419 0.86699 0.08169
 C1498 C 0.85666 0.85017 0.10014
 C1499 C 0.91079 0.90665 0.08419
 C1500 C 0.92637 0.92217 0.06857
 C1501 C 0.83963 0.83830 0.15886
 C1502 C 0.82404 0.82347 0.17508
 H1503 H 0.87829 0.94253 0.12514
 H1504 H 0.84577 0.91132 0.15937
 H1505 H 0.88826 0.82490 0.16801
 H1506 H 0.92080 0.85611 0.13378
 H1507 H 0.87534 0.86522 0.05396
 H1508 H 0.84279 0.83399 0.08820
 C1509 C 0.89127 0.61200 0.10453
 C1510 C 0.87680 0.58713 0.12809
 C1511 C 0.85940 0.60414 0.14656
 C1512 C 0.85818 0.64436 0.13965
 C1513 C 0.85491 0.64777 0.10069
 C1514 C 0.87232 0.63074 0.08221
 C1515 C 0.90116 0.64115 0.12824
 C1516 C 0.88376 0.65817 0.14671
 C1517 C 0.91001 0.59351 0.08488
 C1518 C 0.92552 0.57786 0.06932
 C1519 C 0.83944 0.66260 0.15953
 C1520 C 0.82394 0.67754 0.17573
 H1521 H 0.87993 0.55865 0.13010
 H1522 H 0.84765 0.59025 0.16438
 H1523 H 0.84023 0.66229 0.08867
 H1524 H 0.87255 0.63067 0.05438
 H1525 H 0.92015 0.64785 0.13032
 H1526 H 0.88784 0.67945 0.16462
 C1527 C 0.60781 0.89074 0.10586
 C1528 C 0.62796 0.87418 0.08408
 C1529 C 0.64547 0.85789 0.10298
 C1530 C 0.64113 0.85973 0.14184
 C1531 C 0.61589 0.84382 0.14719
 C1532 C 0.59838 0.86011 0.12829
 C1533 C 0.62080 0.91585 0.13083
 C1534 C 0.63830 0.89956 0.14973
 C1535 C 0.58891 0.90844 0.08565
 C1536 C 0.57332 0.92349 0.06962
 C1537 C 0.66001 0.84206 0.16210
 C1538 C 0.67558 0.82709 0.17824
 H1539 H 0.62844 0.87515 0.05627
 H1540 H 0.66094 0.84491 0.09134
 H1541 H 0.61210 0.82169 0.16433
 H1542 H 0.57961 0.85192 0.12924
 H1543 H 0.61661 0.94398 0.13343
 H1544 H 0.64909 0.91373 0.16850
 C1545 C -0.14170 0.64433 0.36011
 C1546 C -0.12605 0.61912 0.33854
 C1547 C -0.10866 0.60204 0.35696
 C1548 C -0.10857 0.61182 0.39518
 C1549 C -0.13430 0.60400 0.40767
 C1550 C -0.15171 0.62108 0.38925
 C1551 C -0.12375 0.66967 0.37751
 C1552 C -0.10634 0.65258 0.39594
 C1553 C -0.16048 0.66267 0.34024
 C1554 C -0.17600 0.67768 0.32406
 C1555 C -0.08979 0.59325 0.41485
 C1556 C -0.07428 0.57758 0.43046
 H1557 H -0.12842 0.61504 0.31120
 H1558 H -0.09613 0.58334 0.34538
 H1559 H -0.13848 0.58660 0.42913
 H1560 H -0.17079 0.61830 0.39492
 H1561 H -0.12464 0.69849 0.37553
 H1562 H -0.09233 0.66677 0.40975
 C1563 C 0.64139 -0.13951 0.35640
 C1564 C 0.63020 -0.16377 0.38387
 C1565 C 0.61278 -0.14752 0.40294
 C1566 C 0.60826 -0.10863 0.39265
 C1567 C 0.60255 -0.10985 0.35415
 C1568 C 0.61997 -0.12609 0.33508
 C1569 C 0.65043 -0.10671 0.37602
 C1570 C 0.63301 -0.09047 0.39508
 C1571 C 0.66015 -0.15713 0.33607
 C1572 C 0.67566 -0.17215 0.31997
 C1573 C 0.58950 -0.09103 0.41300
 C1574 C 0.57398 -0.07608 0.42914
 H1575 H 0.63550 -0.19129 0.38799
 H1576 H 0.60316 -0.16111 0.42338
 H1577 H 0.58626 -0.09891 0.34285
 H1578 H 0.61861 -0.12906 0.30747
 H1579 H 0.66889 -0.09708 0.37502
 H1580 H 0.63654 -0.06693 0.41043
 C1581 C 0.64136 0.64088 0.35684
 C1582 C 0.62633 0.66652 0.37886
 C1583 C 0.60894 0.65000 0.39780
 C1584 C 0.60827 0.60946 0.39287
 C1585 C 0.63394 0.59672 0.40112
 C1586 C 0.65133 0.61323 0.38219
 C1587 C 0.62288 0.62053 0.33511
 C1588 C 0.60549 0.60401 0.35405
 C1589 C 0.66012 0.65878 0.33661
 C1590 C 0.67563 0.67394 0.32055
 C1591 C 0.58952 0.59156 0.41311
 C1592 C 0.57402 0.57641 0.42919
 H1593 H 0.62911 0.69514 0.37952
 H1594 H 0.59683 0.66447 0.41467
 H1595 H 0.63809 0.57651 0.42017
 H1596 H 0.67038 0.60716 0.38501
 H1597 H 0.62341 0.61921 0.30732
 H1598 H 0.59111 0.58854 0.34246
 C1599 C -0.14186 -0.14296 0.35956
 C1600 C -0.11641 -0.15781 0.35346
 C1601 C -0.09899 -0.14087 0.37190
 C1602 C -0.10874 -0.11076 0.39464
 C1603 C -0.12824 -0.12824 0.41696
 C1604 C -0.14567 -0.14519 0.39851
 C1605 C -0.13994 -0.10300 0.35167
 C1606 C -0.12253 -0.08607 0.37011
 C1607 C -0.16062 -0.16112 0.33970
 C1608 C -0.17612 -0.17602 0.32353
 C1609 C -0.08997 -0.09235 0.41426
 C1610 C -0.07447 -0.07673 0.42979
 H1611 H -0.11243 -0.17971 0.33620
 H1612 H -0.08008 -0.14826 0.37045
 H1613 H -0.12835 -0.12742 0.44478
 H1614 H -0.16072 -0.15888 0.41053
 H1615 H -0.15126 -0.08921 0.33323
 H1616 H -0.11894 -0.05777 0.36746
 C1617 C 0.00077 0.00014 0.78385
 C1618 C -0.00147 0.03756 0.76821
 C1619 C -0.00161 0.03774 0.73326
 C1620 C 0.00051 0.00050 0.71731
 C1621 C -0.02023 -0.02103 0.73321
 C1622 C -0.02010 -0.02121 0.76816
 C1623 C 0.02369 -0.01566 0.76780
 C1624 C 0.02356 -0.01547 0.73284
 C1625 C 0.00086 -0.00004 0.82153
 C1626 C 0.00085 -0.00015 0.85249
 C1627 C 0.00033 0.00069 0.67962
 C1628 C 0.00013 0.00080 0.64868
 H1629 H -0.00283 0.06178 0.78327
 H1630 H -0.00308 0.06213 0.71840
 H1631 H -0.03383 -0.03491 0.71833
 H1632 H -0.03358 -0.03525 0.78319
 H1633 H 0.03871 -0.02608 0.78259
 H1634 H 0.03846 -0.02573 0.71771
 C1635 C 0.25067 0.24990 0.46694
 C1636 C 0.26199 0.21631 0.48264
 C1637 C 0.26202 0.21621 0.51760
 C1638 C 0.25072 0.24972 0.53346
 C1639 C 0.22539 0.25209 0.51775
 C1640 C 0.22536 0.25219 0.48280
 C1641 C 0.26471 0.28108 0.48272
 C1642 C 0.26474 0.28099 0.51768
 C1643 C 0.25059 0.24999 0.42926
 C1644 C 0.25044 0.25003 0.39832
 C1645 C 0.25070 0.24961 0.57113
 C1646 C 0.25058 0.24952 0.60207
 H1647 H 0.26935 0.19452 0.46763
 H1648 H 0.26941 0.19434 0.53250
 H1649 H 0.20891 0.25357 0.53275
 H1650 H 0.20886 0.25375 0.46790
 H1651 H 0.27383 0.30144 0.46776
 H1652 H 0.27389 0.30126 0.53264
 C1653 C 0.10800 0.10646 0.61017
 C1654 C 0.13366 0.09929 0.59706
 C1655 C 0.15112 0.11598 0.61565
 C1656 C 0.14121 0.13821 0.64553
 C1657 C 0.12589 0.11217 0.66671
 C1658 C 0.10842 0.09547 0.64811
 C1659 C 0.10555 0.14718 0.61051
 C1660 C 0.12300 0.16387 0.62909
 C1661 C 0.08918 0.08853 0.59015
 C1662 C 0.07365 0.07378 0.57387
 C1663 C 0.16004 0.15636 0.66534
 C1664 C 0.17558 0.17179 0.68102
 H1665 H 0.13776 0.08257 0.57512
 H1666 H 0.17017 0.11355 0.60962
 H1667 H 0.12852 0.10728 0.69389
 H1668 H 0.09609 0.07627 0.65937
 H1669 H 0.09135 0.16165 0.59732
 H1670 H 0.12374 0.19263 0.63182
 C1671 C 0.35827 0.35746 0.64265
 C1672 C 0.37698 0.37601 0.66546
 C1673 C 0.39437 0.39365 0.64747
 C1674 C 0.39134 0.39100 0.60843
 C1675 C 0.36571 0.40459 0.60131
 C1676 C 0.34832 0.38696 0.61930
 C1677 C 0.37303 0.33327 0.61884
 C1678 C 0.39042 0.35090 0.60086
 C1679 C 0.33951 0.33849 0.66196
 C1680 C 0.32399 0.32296 0.67766
 C1681 C 0.41009 0.40998 0.58911
 C1682 C 0.42559 0.42553 0.57339
 H1683 H 0.37661 0.37536 0.69328
 H1684 H 0.40889 0.40811 0.65990
 H1685 H 0.36158 0.42616 0.58370
 H1686 H 0.32930 0.39343 0.61708
 H1687 H 0.37009 0.30480 0.61633
 H1688 H 0.40237 0.33754 0.58294
 C1689 C 0.35816 0.14123 0.64260
 C1690 C 0.36102 0.15469 0.60564
 C1691 C 0.37847 0.13728 0.58762
 C1692 C 0.39132 0.10814 0.60834
 C1693 C 0.37110 0.08363 0.62127
 C1694 C 0.35365 0.10104 0.63929
 C1695 C 0.38337 0.14445 0.65852
 C1696 C 0.40082 0.12704 0.64050
 C1697 C 0.33938 0.15995 0.66192
 C1698 C 0.32387 0.17533 0.67765
 C1699 C 0.41010 0.08944 0.58902
 C1700 C 0.42563 0.07408 0.57330
 H1701 H 0.35030 0.17601 0.59459
 H1702 H 0.38270 0.14367 0.56113
 H1703 H 0.37054 0.05511 0.61669
 H1704 H 0.33813 0.08745 0.65015
 H1705 H 0.38718 0.15909 0.68188
 H1706 H 0.41959 0.12676 0.64842
 C1707 C 0.14136 0.36106 0.64602
 C1708 C 0.15143 0.38686 0.61899
 C1709 C 0.13403 0.40394 0.60057
 C1710 C 0.10826 0.39355 0.61097
 C1711 C 0.10691 0.40077 0.64967
 C1712 C 0.12431 0.38369 0.66810
 C1713 C 0.12478 0.33576 0.62604
 C1714 C 0.10739 0.35284 0.60762
 C1715 C 0.16013 0.34250 0.66565
 C1716 C 0.17564 0.32681 0.68119
 C1717 C 0.08950 0.41188 0.59111
 C1718 C 0.07400 0.42690 0.57494
 H1719 H 0.17055 0.39133 0.61471
 H1720 H 0.13824 0.42303 0.58051
 H1721 H 0.09347 0.41781 0.66155
 H1722 H 0.12578 0.38608 0.69576
 H1723 H 0.12655 0.30695 0.62634
 H1724 H 0.09426 0.33866 0.59214
 C1725 C 0.39190 0.10680 0.89247
 C1726 C 0.40132 0.12697 0.86092
 C1727 C 0.38376 0.14455 0.84323
 C1728 C 0.35849 0.14025 0.85881
 C1729 C 0.36105 0.15255 0.89616
 C1730 C 0.37860 0.13497 0.91385
 C1731 C 0.37199 0.08227 0.87869
 C1732 C 0.35444 0.09985 0.86100
 C1733 C 0.41083 0.08787 0.91150
 C1734 C 0.42644 0.07235 0.92704
 C1735 C 0.33956 0.15919 0.83979
 C1736 C 0.32396 0.17474 0.82425
 H1737 H 0.42013 0.12739 0.85314
 H1738 H 0.38754 0.16003 0.82031
 H1739 H 0.35003 0.17324 0.90771
 H1740 H 0.38262 0.14060 0.94054
 H1741 H 0.37171 0.05362 0.88248
 H1742 H 0.33913 0.08625 0.84965
 C1743 C 0.10820 0.39405 0.88985
 C1744 C 0.10783 0.40270 0.85136
 C1745 C 0.12530 0.38552 0.83314
 C1746 C 0.14139 0.36142 0.85522
 C1747 C 0.12392 0.33614 0.87371
 C1748 C 0.10646 0.35330 0.89191
 C1749 C 0.13391 0.40296 0.90163
 C1750 C 0.15137 0.38579 0.88342
 C1751 C 0.08941 0.41242 0.90947
 C1752 C 0.07387 0.42744 0.92550
 C1753 C 0.16019 0.34277 0.83585
 C1754 C 0.17571 0.32696 0.82051
 H1755 H 0.09499 0.42073 0.83948
 H1756 H 0.12743 0.38882 0.80564
 H1757 H 0.12514 0.30730 0.87258
 H1758 H 0.09273 0.33917 0.90640
 H1759 H 0.13803 0.42116 0.92243
 H1760 H 0.17046 0.38928 0.88861
 C1761 C 0.10756 0.10462 0.89013
 C1762 C 0.12622 0.12352 0.91275
 C1763 C 0.14378 0.14057 0.89459
 C1764 C 0.14098 0.13705 0.85558
 C1765 C 0.11544 0.15070 0.84788
 C1766 C 0.09788 0.13365 0.86604
 C1767 C 0.12236 0.07974 0.86702
 C1768 C 0.13993 0.09680 0.84885
 C1769 C 0.08863 0.08632 0.90971
 C1770 C 0.07302 0.07130 0.92571
 C1771 C 0.15991 0.15560 0.83621
 C1772 C 0.17551 0.17129 0.82082
 H1773 H 0.12570 0.12351 0.94057
 H1774 H 0.15830 0.15516 0.90688
 H1775 H 0.11150 0.17187 0.82974
 H1776 H 0.07889 0.14022 0.86346
 H1777 H 0.11930 0.05125 0.86508
 H1778 H 0.15192 0.08292 0.83135
 C1779 C 0.39153 0.39118 0.89250
 C1780 C 0.39437 0.39383 0.85342
 C1781 C 0.37692 0.37612 0.83569
 C1782 C 0.35835 0.35751 0.85878
 C1783 C 0.34847 0.38698 0.88216
 C1784 C 0.36591 0.40468 0.89989
 C1785 C 0.39071 0.35108 0.90020
 C1786 C 0.37326 0.33338 0.88247
 C1787 C 0.41033 0.41023 0.91156
 C1788 C 0.42585 0.42583 0.92711
 C1789 C 0.33954 0.33847 0.83973
 C1790 C 0.32399 0.32288 0.82421
 H1791 H 0.40881 0.40833 0.84078
 H1792 H 0.37642 0.37546 0.80787
 H1793 H 0.32944 0.39339 0.88459
 H1794 H 0.36183 0.42625 0.91749
 H1795 H 0.40276 0.33776 0.91800
 H1796 H 0.37038 0.30490 0.88509
 C1797 C 0.49902 -0.00133 0.78329
 C1798 C 0.49251 0.03508 0.76791
 C1799 C 0.49239 0.03543 0.73299
 C1800 C 0.49878 -0.00067 0.71693
 C1801 C 0.48080 -0.02720 0.73260
 C1802 C 0.48093 -0.02754 0.76752
 C1803 C 0.52345 -0.01106 0.76729
 C1804 C 0.52332 -0.01071 0.73237
 C1805 C 0.49922 -0.00166 0.82081
 C1806 C 0.49949 -0.00180 0.85165
 C1807 C 0.49871 -0.00030 0.67942
 C1808 C 0.49881 -0.00007 0.64857
 H1809 H 0.48836 0.05851 0.78311
 H1810 H 0.48812 0.05915 0.71824
 H1811 H 0.46901 -0.04419 0.71758
 H1812 H 0.46924 -0.04483 0.78246
 H1813 H 0.53943 -0.01764 0.78207
 H1814 H 0.53920 -0.01700 0.71722
 C1815 C 0.75107 0.24889 0.46742
 C1816 C 0.76103 0.21445 0.48328
 C1817 C 0.76086 0.21446 0.51820
 C1818 C 0.75074 0.24890 0.53378
 C1819 C 0.72561 0.25329 0.51783
 C1820 C 0.72579 0.25328 0.48291
 C1821 C 0.76617 0.27893 0.48323
 C1822 C 0.76599 0.27894 0.51816
 C1823 C 0.75120 0.24888 0.42990
 C1824 C 0.75116 0.24890 0.39905
 C1825 C 0.75050 0.24892 0.57130
 C1826 C 0.75022 0.24894 0.60215
 H1827 H 0.76766 0.19206 0.46839
 H1828 H 0.76733 0.19208 0.53327
 H1829 H 0.70914 0.25615 0.53265
 H1830 H 0.70946 0.25614 0.46780
 H1831 H 0.77613 0.29845 0.46832
 H1832 H 0.77580 0.29847 0.53319
 C1833 C 0.60802 0.10922 0.60737
 C1834 C 0.63359 0.10420 0.59307
 C1835 C 0.65098 0.12029 0.61225
 C1836 C 0.64107 0.13980 0.64384
 C1837 C 0.62663 0.11161 0.66364
 C1838 C 0.60924 0.09553 0.64445
 C1839 C 0.60472 0.14967 0.61052
 C1840 C 0.62210 0.16576 0.62971
 C1841 C 0.58931 0.09178 0.58692
 C1842 C 0.57383 0.07690 0.57072
 C1843 C 0.65978 0.15724 0.66429
 C1844 C 0.67527 0.17214 0.68045
 H1845 H 0.63769 0.08934 0.56992
 H1846 H 0.66998 0.11921 0.60554
 H1847 H 0.62977 0.10489 0.69034
 H1848 H 0.59748 0.07499 0.65473
 H1849 H 0.59004 0.16438 0.59872
 H1850 H 0.62232 0.19427 0.63436
 C1851 C -0.14217 0.35576 0.64047
 C1852 C -0.12557 0.37905 0.66254
 C1853 C -0.10806 0.39607 0.64425
 C1854 C -0.10884 0.38815 0.60565
 C1855 C -0.13455 0.39793 0.59448
 C1856 C -0.15207 0.38091 0.61277
 C1857 C -0.12514 0.33036 0.62130
 C1858 C -0.10762 0.34739 0.60300
 C1859 C -0.16105 0.33748 0.66021
 C1860 C -0.17661 0.32248 0.67632
 C1861 C -0.08996 0.40667 0.58613
 C1862 C -0.07438 0.42234 0.57064
 H1863 H -0.12740 0.38192 0.69012
 H1864 H -0.09490 0.41351 0.65617
 H1865 H -0.13865 0.41656 0.57398
 H1866 H -0.17116 0.38497 0.60794
 H1867 H -0.12672 0.30154 0.62204
 H1868 H -0.09420 0.33315 0.58806
 C1869 C 0.89099 0.11206 0.60466
 C1870 C 0.87770 0.08729 0.62968
 C1871 C 0.86024 0.10397 0.64829
 C1872 C 0.85778 0.14378 0.64004
 C1873 C 0.85362 0.14550 0.60115
 C1874 C 0.87110 0.12881 0.58254
 C1875 C 0.90055 0.14266 0.62691
 C1876 C 0.88308 0.15935 0.64552
 C1877 C 0.90980 0.09391 0.58488
 C1878 C 0.92535 0.07844 0.56927
 C1879 C 0.83898 0.16167 0.66007
 C1880 C 0.82345 0.17638 0.67638
 H1881 H 0.88165 0.05911 0.63253
 H1882 H 0.84923 0.09009 0.66707
 H1883 H 0.83831 0.15868 0.58929
 H1884 H 0.87077 0.12768 0.55473
 H1885 H 0.91938 0.15054 0.62793
 H1886 H 0.88694 0.18153 0.66249
 C1887 C 0.64088 0.35853 0.64372
 C1888 C 0.65104 0.38106 0.61417
 C1889 C 0.63372 0.39745 0.59505
 C1890 C 0.60794 0.38970 0.60734
 C1891 C 0.60766 0.40054 0.64530
 C1892 C 0.62498 0.38414 0.66443
 C1893 C 0.62319 0.33254 0.62668
 C1894 C 0.60587 0.34893 0.60755
 C1895 C 0.65956 0.34077 0.66412
 C1896 C 0.67504 0.32572 0.68026
 C1897 C 0.58928 0.40748 0.58692
 C1898 C 0.57384 0.42258 0.57074
 H1899 H 0.67016 0.38389 0.60875
 H1900 H 0.63799 0.41432 0.57324
 H1901 H 0.59496 0.41944 0.65619
 H1902 H 0.62713 0.38898 0.69169
 H1903 H 0.62418 0.30378 0.62940
 H1904 H 0.59203 0.33424 0.59388
 C1905 C 0.89175 0.11159 0.89459
 C1906 C 0.90145 0.13786 0.86773
 C1907 C 0.88380 0.15470 0.84962
 C1908 C 0.85820 0.14359 0.86017
 C1909 C 0.85692 0.15043 0.89894
 C1910 C 0.87458 0.13358 0.91705
 C1911 C 0.87538 0.08608 0.87453
 C1912 C 0.85773 0.10291 0.85643
 C1913 C 0.91074 0.09327 0.91384
 C1914 C 0.92637 0.07763 0.92909
 C1915 C 0.83922 0.16161 0.84066
 C1916 C 0.82358 0.17640 0.82466
 H1917 H 0.92050 0.14283 0.86334
 H1918 H 0.88771 0.17410 0.82971
 H1919 H 0.84334 0.16704 0.91107
 H1920 H 0.87615 0.13574 0.94472
 H1921 H 0.87746 0.05731 0.87456
 H1922 H 0.84469 0.08858 0.84094
 C1923 C 0.60819 0.38995 0.89380
 C1924 C 0.60947 0.40314 0.85655
 C1925 C 0.62683 0.38669 0.83756
 C1926 C 0.64118 0.35869 0.85771
 C1927 C 0.62215 0.33303 0.87217
 C1928 C 0.60479 0.34948 0.89116
 C1929 C 0.63376 0.39501 0.90803
 C1930 C 0.65112 0.37857 0.88904
 C1931 C 0.58952 0.40776 0.91403
 C1932 C 0.57405 0.42290 0.93004
 C1933 C 0.65986 0.34090 0.83747
 C1934 C 0.67532 0.32579 0.82142
 H1935 H 0.59776 0.42360 0.84603
 H1936 H 0.63001 0.39303 0.81077
 H1937 H 0.62230 0.30446 0.86787
 H1938 H 0.59006 0.33502 0.90315
 H1939 H 0.63787 0.41016 0.93099
 H1940 H 0.67012 0.37962 0.89571
 C1941 C 0.60765 0.10706 0.89450
 C1942 C 0.62731 0.12467 0.91639
 C1943 C 0.64472 0.14136 0.89757
 C1944 C 0.64081 0.13887 0.85866
 C1945 C 0.61534 0.15375 0.85270
 C1946 C 0.59794 0.13705 0.87152
 C1947 C 0.62133 0.08213 0.87006
 C1948 C 0.63873 0.09883 0.85125
 C1949 C 0.58883 0.08891 0.91467
 C1950 C 0.57328 0.07359 0.93067
 C1951 C 0.65963 0.15699 0.83845
 C1952 C 0.67515 0.17222 0.82234
 H1953 H 0.62754 0.12408 0.94421
 H1954 H 0.65984 0.15506 0.90932
 H1955 H 0.61133 0.17549 0.83524
 H1956 H 0.57904 0.14452 0.87015
 H1957 H 0.61766 0.05383 0.86774
 H1958 H 0.64994 0.08482 0.83283
 C1959 C 0.89118 0.38825 0.89489
 C1960 C 0.89314 0.39394 0.85599
 C1961 C 0.87568 0.37686 0.83775
 C1962 C 0.85795 0.35575 0.86016
 C1963 C 0.84801 0.38293 0.88595
 C1964 C 0.86548 0.40001 0.90420
 C1965 C 0.89129 0.34766 0.89977
 C1966 C 0.87381 0.33057 0.88151
 C1967 C 0.91002 0.40683 0.91436
 C1968 C 0.92555 0.42254 0.92981
 C1969 C 0.83911 0.33741 0.84050
 C1970 C 0.82355 0.32239 0.82447
 H1971 H 0.90703 0.40997 0.84384
 H1972 H 0.87462 0.37827 0.80998
 H1973 H 0.82893 0.38827 0.88958
 H1974 H 0.86135 0.41997 0.92345
 H1975 H 0.90395 0.33359 0.91612
 H1976 H 0.87152 0.30186 0.88223
 C1977 C 0.00049 0.50039 0.78504
 C1978 C -0.00138 0.53773 0.76914
 C1979 C -0.00136 0.53767 0.73418
 C1980 C 0.00053 0.50028 0.71848
 C1981 C -0.02045 0.47923 0.73434
 C1982 C -0.02047 0.47928 0.76929
 C1983 C 0.02336 0.48408 0.76928
 C1984 C 0.02338 0.48402 0.73432
 C1985 C 0.00042 0.50045 0.82274
 C1986 C 0.00029 0.50048 0.85371
 C1987 C 0.00050 0.50023 0.68078
 C1988 C 0.00040 0.50019 0.64982
 H1989 H -0.00261 0.56208 0.78403
 H1990 H -0.00257 0.56197 0.71916
 H1991 H -0.03409 0.46548 0.71943
 H1992 H -0.03413 0.46558 0.78429
 H1993 H 0.03823 0.47351 0.78427
 H1994 H 0.03827 0.47340 0.71939
 C1995 C 0.25094 0.75121 0.46661
 C1996 C 0.25345 0.71391 0.48239
 C1997 C 0.25340 0.71393 0.51732
 C1998 C 0.25086 0.75123 0.53297
 C1999 C 0.22775 0.76666 0.51720
 C2000 C 0.22779 0.76665 0.48228
 C2001 C 0.27154 0.77308 0.48232
 C2002 C 0.27150 0.77309 0.51725
 C2003 C 0.25093 0.75117 0.42909
 C2004 C 0.25081 0.75112 0.39824
 C2005 C 0.25076 0.75123 0.57049
 C2006 C 0.25057 0.75118 0.60134
 H2007 H 0.25511 0.68965 0.46746
 H2008 H 0.25503 0.68967 0.53233
 H2009 H 0.21268 0.77672 0.53213
 H2010 H 0.21276 0.77669 0.46728
 H2011 H 0.28497 0.78728 0.46734
 H2012 H 0.28490 0.78730 0.53222
 C2013 C 0.10820 0.60656 0.61045
 C2014 C 0.13387 0.59948 0.59736
 C2015 C 0.15127 0.61657 0.61571
 C2016 C 0.14128 0.63906 0.64536
 C2017 C 0.12610 0.61314 0.66687
 C2018 C 0.10870 0.59604 0.64851
 C2019 C 0.10555 0.64726 0.61033
 C2020 C 0.12295 0.66435 0.62868
 C2021 C 0.08946 0.58825 0.59070
 C2022 C 0.07396 0.57323 0.57460
 C2023 C 0.16003 0.65761 0.66489
 C2024 C 0.17553 0.67330 0.68036
 H2025 H 0.13802 0.58254 0.57560
 H2026 H 0.17033 0.61426 0.60967
 H2027 H 0.12879 0.60861 0.69410
 H2028 H 0.09647 0.57686 0.66001
 H2029 H 0.09127 0.66142 0.59701
 H2030 H 0.12356 0.69315 0.63108
 C2031 C 0.39126 0.89231 0.60785
 C2032 C 0.37353 0.91724 0.62623
 C2033 C 0.35608 0.89970 0.64414
 C2034 C 0.35809 0.85899 0.64189
 C2035 C 0.38377 0.85031 0.65396
 C2036 C 0.40123 0.86785 0.63605
 C2037 C 0.37545 0.86817 0.58546
 C2038 C 0.35800 0.85064 0.60337
 C2039 C 0.41005 0.91113 0.58866
 C2040 C 0.42559 0.92657 0.57303
 C2041 C 0.33932 0.84016 0.66109
 C2042 C 0.32380 0.82469 0.67674
 H2043 H 0.37459 0.94611 0.62527
 H2044 H 0.34217 0.91354 0.65854
 H2045 H 0.38789 0.83202 0.67474
 H2046 H 0.42031 0.86459 0.64148
 H2047 H 0.37776 0.86513 0.55798
 H2048 H 0.34534 0.83255 0.59124
 C2049 C 0.35812 0.64205 0.64185
 C2050 C 0.36225 0.65670 0.60555
 C2051 C 0.37967 0.63897 0.58773
 C2052 C 0.39125 0.60832 0.60796
 C2053 C 0.37009 0.58456 0.61903
 C2054 C 0.35267 0.60229 0.63684
 C2055 C 0.38300 0.64315 0.65904
 C2056 C 0.40042 0.62542 0.64123
 C2057 C 0.33934 0.66112 0.66100
 C2058 C 0.32382 0.67674 0.67660
 C2059 C 0.41003 0.58924 0.58882
 C2060 C 0.42556 0.57364 0.57322
 H2061 H 0.35236 0.67903 0.59478
 H2062 H 0.38469 0.64611 0.56171
 H2063 H 0.36889 0.55630 0.61338
 H2064 H 0.33655 0.58921 0.64645
 H2065 H 0.38663 0.65665 0.68309
 H2066 H 0.41896 0.62373 0.65002
 C2067 C 0.10803 0.89490 0.60995
 C2068 C 0.12769 0.87779 0.58766
 C2069 C 0.14515 0.86090 0.60611
 C2070 C 0.14125 0.86278 0.64504
 C2071 C 0.11587 0.84762 0.65095
 C2072 C 0.09840 0.86451 0.63250
 C2073 C 0.12163 0.91956 0.63466
 C2074 C 0.13911 0.90267 0.65311
 C2075 C 0.08921 0.91300 0.59008
 C2076 C 0.07367 0.92787 0.57389
 C2077 C 0.16007 0.84440 0.66469
 C2078 C 0.17560 0.82879 0.68025
 H2079 H 0.12788 0.87884 0.55984
 H2080 H 0.16030 0.84749 0.59408
 H2081 H 0.11195 0.82559 0.66813
 H2082 H 0.07952 0.85694 0.63388
 H2083 H 0.11787 0.94780 0.63741
 H2084 H 0.15031 0.91642 0.67169
 C2085 C 0.39143 0.60858 0.89196
 C2086 C 0.40097 0.62851 0.86034
 C2087 C 0.38350 0.64613 0.84251
 C2088 C 0.35819 0.64210 0.85805
 C2089 C 0.36074 0.65458 0.89534
 C2090 C 0.37821 0.63696 0.91317
 C2091 C 0.37146 0.58413 0.87824
 C2092 C 0.35399 0.60175 0.86042
 C2093 C 0.41027 0.58962 0.91112
 C2094 C 0.42582 0.57406 0.92673
 C2095 C 0.33936 0.66107 0.83888
 C2096 C 0.32382 0.67662 0.82324
 H2097 H 0.41979 0.62875 0.85261
 H2098 H 0.38736 0.66146 0.81953
 H2099 H 0.34978 0.67542 0.90675
 H2100 H 0.38220 0.64271 0.93984
 H2101 H 0.37107 0.55550 0.88218
 H2102 H 0.33865 0.58820 0.84909
 C2103 C 0.10758 0.89485 0.88991
 C2104 C 0.11150 0.91034 0.85387
 C2105 C 0.12904 0.89333 0.83561
 C2106 C 0.14096 0.86249 0.85517
 C2107 C 0.12003 0.83811 0.86590
 C2108 C 0.10250 0.85511 0.88414
 C2109 C 0.13251 0.89608 0.90698
 C2110 C 0.15005 0.87908 0.88873
 C2111 C 0.08867 0.91311 0.90960
 C2112 C 0.07306 0.92810 0.92565
 C2113 C 0.15987 0.84400 0.83567
 C2114 C 0.17546 0.82837 0.82016
 H2115 H 0.10139 0.93270 0.84359
 H2116 H 0.13394 0.90112 0.80971
 H2117 H 0.11906 0.80996 0.85969
 H2118 H 0.08653 0.84151 0.89356
 H2119 H 0.13608 0.90915 0.93126
 H2120 H 0.16863 0.87761 0.89739
 C2121 C 0.10805 0.60676 0.88952
 C2122 C 0.12683 0.62564 0.91194
 C2123 C 0.14429 0.64264 0.89359
 C2124 C 0.14125 0.63909 0.85463
 C2125 C 0.11569 0.65279 0.84718
 C2126 C 0.09823 0.63577 0.86553
 C2127 C 0.12270 0.58182 0.86627
 C2128 C 0.14017 0.59884 0.84790
 C2129 C 0.08926 0.58854 0.90926
 C2130 C 0.07373 0.57359 0.92536
 C2131 C 0.16004 0.65756 0.83511
 C2132 C 0.17556 0.67322 0.81964
 H2133 H 0.12645 0.62564 0.93977
 H2134 H 0.15888 0.65723 0.90571
 H2135 H 0.11167 0.67395 0.82907
 H2136 H 0.07923 0.64236 0.86316
 H2137 H 0.11961 0.55333 0.86439
 H2138 H 0.15206 0.58495 0.83028
 C2139 C 0.39192 0.89073 0.89229
 C2140 C 0.39804 0.88530 0.85426
 C2141 C 0.38044 0.86809 0.83638
 C2142 C 0.35846 0.85801 0.85829
 C2143 C 0.35001 0.89312 0.87450
 C2144 C 0.36761 0.91032 0.89238
 C2145 C 0.38631 0.85331 0.90605
 C2146 C 0.36872 0.83610 0.88817
 C2147 C 0.41087 0.90926 0.91150
 C2148 C 0.42648 0.92454 0.92716
 C2149 C 0.33951 0.83949 0.83908
 C2150 C 0.32389 0.82425 0.82340
 H2151 H 0.41471 0.89419 0.84241
 H2152 H 0.38205 0.86224 0.80922
 H2153 H 0.33182 0.90355 0.87214
 H2154 H 0.36449 0.93549 0.90533
 H2155 H 0.39536 0.84137 0.92791
 H2156 H 0.36270 0.80942 0.89471
 C2157 C 0.49875 0.49960 0.78328
 C2158 C 0.49355 0.53627 0.76748
 C2159 C 0.49349 0.53620 0.73256
 C2160 C 0.49863 0.49947 0.71693
 C2161 C 0.47972 0.47454 0.73280
 C2162 C 0.47979 0.47461 0.76773
 C2163 C 0.52283 0.48783 0.76748
 C2164 C 0.52277 0.48776 0.73256
 C2165 C 0.49888 0.49968 0.82078
 C2166 C 0.49908 0.49975 0.85162
 C2167 C 0.49863 0.49942 0.67943
 C2168 C 0.49877 0.49941 0.64859
 H2169 H 0.49019 0.56016 0.78240
 H2170 H 0.49008 0.56004 0.71753
 H2171 H 0.46737 0.45829 0.71794
 H2172 H 0.46749 0.45842 0.78282
 H2173 H 0.53854 0.48021 0.78239
 H2174 H 0.53843 0.48009 0.71754
 C2175 C 0.75069 0.75151 0.46662
 C2176 C 0.75321 0.71422 0.48241
 C2177 C 0.75314 0.71424 0.51733
 C2178 C 0.75057 0.75154 0.53298
 C2179 C 0.72746 0.76694 0.51718
 C2180 C 0.72752 0.76692 0.48226
 C2181 C 0.77127 0.77341 0.48234
 C2182 C 0.77120 0.77343 0.51728
 C2183 C 0.75069 0.75145 0.42911
 C2184 C 0.75058 0.75136 0.39826
 C2185 C 0.75045 0.75152 0.57049
 C2186 C 0.75024 0.75144 0.60134
 H2187 H 0.75490 0.68995 0.46748
 H2188 H 0.75479 0.68998 0.53234
 H2189 H 0.71238 0.77698 0.53209
 H2190 H 0.71249 0.77694 0.46724
 H2191 H 0.78470 0.78763 0.46738
 H2192 H 0.78458 0.78766 0.53226
 C2193 C 0.60805 0.60959 0.60698
 C2194 C 0.63358 0.60524 0.59232
 C2195 C 0.65092 0.62175 0.61127
 C2196 C 0.64104 0.64099 0.64304
 C2197 C 0.62706 0.61242 0.66299
 C2198 C 0.60971 0.59591 0.64404
 C2199 C 0.60433 0.64996 0.61025
 C2200 C 0.62167 0.66647 0.62920
 C2201 C 0.58934 0.59168 0.58673
 C2202 C 0.57388 0.57652 0.57066
 C2203 C 0.65975 0.65888 0.66329
 C2204 C 0.67524 0.67401 0.67934
 H2205 H 0.63767 0.59051 0.56909
 H2206 H 0.66988 0.62114 0.60427
 H2207 H 0.63046 0.60574 0.68964
 H2208 H 0.59826 0.57508 0.65447
 H2209 H 0.58939 0.66432 0.59869
 H2210 H 0.62159 0.69498 0.63388
 C2211 C 0.89100 0.88920 0.60452
 C2212 C 0.87602 0.91437 0.62708
 C2213 C 0.85855 0.89748 0.64554
 C2214 C 0.85778 0.85709 0.63963
 C2215 C 0.88339 0.84396 0.64767
 C2216 C 0.90086 0.86085 0.62921
 C2217 C 0.87250 0.86955 0.58222
 C2218 C 0.85502 0.85265 0.60070
 C2219 C 0.90982 0.90756 0.58487
 C2220 C 0.92537 0.92316 0.56933
 C2221 C 0.83897 0.83898 0.65952
 C2222 C 0.82345 0.82408 0.67573
 H2223 H 0.87887 0.94295 0.62843
 H2224 H 0.84645 0.91159 0.66271
 H2225 H 0.88744 0.82322 0.66622
 H2226 H 0.91988 0.85458 0.63193
 H2227 H 0.87308 0.86894 0.55441
 H2228 H 0.84062 0.83756 0.58870
 C2229 C 0.89125 0.61226 0.60500
 C2230 C 0.87748 0.58776 0.62974
 C2231 C 0.85998 0.60479 0.64799
 C2232 C 0.85797 0.64466 0.63974
 C2233 C 0.85423 0.64647 0.60076
 C2234 C 0.87174 0.62943 0.58249
 C2235 C 0.90087 0.64266 0.62746
 C2236 C 0.88336 0.65969 0.64572
 C2237 C 0.91011 0.59374 0.58556
 C2238 C 0.92567 0.57802 0.57016
 C2239 C 0.83912 0.66292 0.65943
 C2240 C 0.82356 0.67788 0.67553
 H2241 H 0.88114 0.55950 0.63265
 H2242 H 0.84867 0.59113 0.66655
 H2243 H 0.83917 0.65997 0.58859
 H2244 H 0.87168 0.62832 0.55468
 H2245 H 0.91975 0.65015 0.62888
 H2246 H 0.88726 0.68178 0.66279
 C2247 C 0.60795 0.89089 0.60697
 C2248 C 0.62763 0.87293 0.58538
 C2249 C 0.64505 0.85679 0.60451
 C2250 C 0.64104 0.86022 0.64333
 C2251 C 0.61565 0.84528 0.64968
 C2252 C 0.59824 0.86143 0.63055
 C2253 C 0.62149 0.91651 0.63082
 C2254 C 0.63891 0.90037 0.64995
 C2255 C 0.58922 0.90839 0.58659
 C2256 C 0.57374 0.92335 0.57045
 C2257 C 0.65977 0.84272 0.66371
 C2258 C 0.67528 0.82777 0.67982
 H2259 H 0.62787 0.87289 0.55754
 H2260 H 0.66022 0.84290 0.59306
 H2261 H 0.61170 0.82393 0.66762
 H2262 H 0.57936 0.85390 0.63208
 H2263 H 0.61774 0.94485 0.63253
 H2264 H 0.65007 0.91484 0.66807
 C2265 C 0.89116 0.61229 0.89478
 C2266 C 0.90116 0.63854 0.86811
 C2267 C 0.88372 0.65551 0.84969
 C2268 C 0.85799 0.64457 0.85975
 C2269 C 0.85640 0.65137 0.89851
 C2270 C 0.87385 0.63439 0.91694
 C2271 C 0.87488 0.58692 0.87440
 C2272 C 0.85745 0.60389 0.85599
 C2273 C 0.90996 0.59384 0.91437
 C2274 C 0.92549 0.57818 0.92986
 C2275 C 0.83920 0.66276 0.83992
 C2276 C 0.82367 0.67766 0.82375
 H2277 H 0.92026 0.64338 0.86406
 H2278 H 0.88787 0.67489 0.82986
 H2279 H 0.84277 0.66806 0.91042
 H2280 H 0.87517 0.63652 0.94463
 H2281 H 0.87687 0.55814 0.87444
 H2282 H 0.84450 0.58965 0.84026
 C2283 C 0.60759 0.89037 0.89445
 C2284 C 0.61354 0.90994 0.86088
 C2285 C 0.63098 0.89368 0.84184
 C2286 C 0.64080 0.85942 0.85820
 C2287 C 0.61850 0.83605 0.86448
 C2288 C 0.60105 0.85230 0.88352
 C2289 C 0.63183 0.88683 0.91314
 C2290 C 0.64928 0.87057 0.89410
 C2291 C 0.58876 0.90805 0.91480
 C2292 C 0.57321 0.92312 0.93091
 C2293 C 0.65963 0.84179 0.83780
 C2294 C 0.67518 0.82688 0.82156
 H2295 H 0.60481 0.93443 0.85277
 H2296 H 0.63718 0.90424 0.81745
 H2297 H 0.61658 0.80908 0.85482
 H2298 H 0.58420 0.83926 0.89017
 H2299 H 0.63501 0.89624 0.93905
 H2300 H 0.66740 0.86608 0.90372
 C2301 C 0.60829 0.60969 0.89329
 C2302 C 0.62792 0.62758 0.91498
 C2303 C 0.64529 0.64398 0.89595
 C2304 C 0.64133 0.64085 0.85710
 C2305 C 0.61590 0.65569 0.85090
 C2306 C 0.59852 0.63929 0.86994
 C2307 C 0.62193 0.58434 0.86922
 C2308 C 0.63931 0.60074 0.85019
 C2309 C 0.58958 0.59193 0.91357
 C2310 C 0.57410 0.57684 0.92964
 C2311 C 0.66003 0.65861 0.83680
 C2312 C 0.67549 0.67370 0.82069
 H2313 H 0.62814 0.62741 0.94281
 H2314 H 0.66043 0.65786 0.90748
 H2315 H 0.61189 0.67717 0.83313
 H2316 H 0.57962 0.64673 0.86848
 H2317 H 0.61826 0.55600 0.86731
 H2318 H 0.65052 0.58647 0.83196
 C2319 C 0.89173 0.88820 0.89412
 C2320 C 0.89725 0.88517 0.85565
 C2321 C 0.87963 0.86839 0.83749
 C2322 C 0.85821 0.85627 0.85956
 C2323 C 0.84950 0.89006 0.87791
 C2324 C 0.86712 0.90685 0.89608
 C2325 C 0.88698 0.84985 0.90605
 C2326 C 0.86935 0.83306 0.88787
 C2327 C 0.91070 0.90647 0.91347
 C2328 C 0.92633 0.92202 0.92884
 C2329 C 0.83924 0.83827 0.83998
 C2330 C 0.82361 0.82347 0.82396
 H2331 H 0.91357 0.89532 0.84373
 H2332 H 0.88085 0.86415 0.81001
 H2333 H 0.83110 0.89993 0.87675
 H2334 H 0.86382 0.93110 0.91049
 H2335 H 0.89660 0.83704 0.92693
 H2336 H 0.86387 0.80583 0.89317
   
