data_POSCAR
  _audit_creation_date              2014-09-24
  _audit_creation_method            'ToBaCCo'
  _symmetry_space_group_name_H-M    'P1'
  _symmetry_Int_Tables_number       1
  _symmetry_cell_setting            triclinic
  loop_
  _symmetry_equiv_pos_as_xyz
 x,y,z
_cell_length_a 68.6904
_cell_length_b 70.0032
_cell_length_c 68.6152
_cell_angle_alpha 90.601200
_cell_angle_beta 89.736500
_cell_angle_gamma 90.045000
loop_
  _atom_site_label
  _atom_site_type_symbol
  _atom_site_fract_x
  _atom_site_fract_y
  _atom_site_fract_z
C1 C 0.37381 0.34622 0.31826
 C2 C 0.36315 0.35965 0.30775
 C3 C 0.34430 0.36496 0.31349
 C4 C 0.33595 0.35651 0.33006
 C5 C 0.34643 0.34300 0.34086
 C6 C 0.36546 0.33822 0.33506
 H7 H 0.36954 0.36589 0.29480
 H8 H 0.32141 0.36042 0.33451
 H9 H 0.37361 0.32819 0.34369
 C10 C 0.34776 0.84466 -0.18869
 C11 C 0.33915 0.83817 -0.17131
 C12 C 0.32215 0.84672 -0.16374
 C13 C 0.31390 0.86217 -0.17360
 C14 C 0.32223 0.86911 -0.19095
 C15 C 0.33929 0.86042 -0.19812
 H16 H 0.34592 0.82650 -0.16369
 H17 H 0.30114 0.86882 -0.16729
 H18 H 0.34573 0.86621 -0.21115
 C19 C 0.86533 0.32926 -0.13697
 C20 C 0.85813 0.34595 -0.14564
 C21 C 0.84056 0.35439 -0.13912
 C22 C 0.83020 0.34556 -0.12378
 C23 C 0.83749 0.32906 -0.11486
 C24 C 0.85501 0.32119 -0.12152
 H25 H 0.86627 0.35257 -0.15730
 H26 H 0.81620 0.35088 -0.11919
 H27 H 0.86054 0.30834 -0.11478
 C28 C 0.87370 0.81066 0.36077
 C29 C 0.86235 0.80391 0.37622
 C30 C 0.84562 0.81387 0.38247
 C31 C 0.83992 0.83038 0.37248
 C32 C 0.85098 0.83725 0.35662
 C33 C 0.86785 0.82721 0.35102
 H34 H 0.86652 0.79069 0.38309
 H35 H 0.82679 0.83754 0.37724
 H36 H 0.87614 0.83200 0.33852
 C37 C 0.63384 0.68421 0.35441
 C38 C 0.64050 0.66940 0.34210
 C39 C 0.65709 0.65872 0.34680
 C40 C 0.66736 0.66326 0.36397
 C41 C 0.66086 0.67802 0.37651
 C42 C 0.64421 0.68844 0.37146
 H43 H 0.63314 0.66636 0.32851
 H44 H 0.68075 0.65593 0.36711
 H45 H 0.63926 0.69999 0.38091
 C46 C 0.63845 0.14904 -0.15557
 C47 C 0.64945 0.13350 -0.16241
 C48 C 0.66674 0.12791 -0.15293
 C49 C 0.67244 0.13801 -0.13599
 C50 C 0.66164 0.15383 -0.12915
 C51 C 0.64488 0.15931 -0.13918
 H52 H 0.64397 0.12574 -0.17492
 H53 H 0.68576 0.13404 -0.12873
 H54 H 0.63705 0.17191 -0.13428
 C55 C 0.16813 0.64276 -0.17878
 C56 C 0.17676 0.62640 -0.18702
 C57 C 0.19335 0.61802 -0.17852
 C58 C 0.20125 0.62664 -0.16169
 C59 C 0.19279 0.64299 -0.15327
 C60 C 0.17639 0.65111 -0.16205
 H61 H 0.17046 0.62070 -0.20023
 H62 H 0.21409 0.62059 -0.15500
 H63 H 0.17065 0.66446 -0.15646
 C64 C 0.13178 0.16421 0.31576
 C65 C 0.14024 0.15035 0.30347
 C66 C 0.15906 0.14349 0.30695
 C67 C 0.16934 0.15034 0.32328
 C68 C 0.16116 0.16413 0.33581
 C69 C 0.14218 0.17071 0.33218
 H70 H 0.13227 0.14511 0.29090
 H71 H 0.18367 0.14480 0.32650
 H72 H 0.13532 0.18038 0.34245
 C73 C 0.64362 0.33271 0.69768
 C74 C 0.64881 0.32396 0.67988
 C75 C 0.66448 0.33082 0.66884
 C76 C 0.67535 0.34642 0.67595
 C77 C 0.67052 0.35528 0.69377
 C78 C 0.65472 0.34815 0.70465
 H79 H 0.64098 0.31151 0.67465
 H80 H 0.68792 0.35146 0.66795
 H81 H 0.65109 0.35424 0.71875
 C82 C 0.64158 0.83264 1.16788
 C83 C 0.64996 0.82781 1.14972
 C84 C 0.66718 0.83669 1.14327
 C85 C 0.67586 0.85079 1.15497
 C86 C 0.66785 0.85598 1.17320
 C87 C 0.65050 0.84713 1.17923
 H88 H 0.64296 0.81715 1.14059
 H89 H 0.68878 0.85772 1.14947
 H90 H 0.64416 0.85183 1.19287
 C91 C 0.11987 0.33216 1.16654
 C92 C 0.12514 0.32631 1.14748
 C93 C 0.13974 0.33598 1.13706
 C94 C 0.14888 0.35182 1.14555
 C95 C 0.14439 0.35751 1.16466
 C96 C 0.13010 0.34763 1.17513
 H97 H 0.11769 0.31437 1.14061
 H98 H 0.16032 0.35911 1.13762
 H99 H 0.12718 0.35246 1.18983
 C100 C 0.12909 0.84315 0.64866
 C101 C 0.13713 0.83507 0.63157
 C102 C 0.14850 0.84612 0.61877
 C103 C 0.15189 0.86545 0.62332
 C104 C 0.14368 0.87385 0.64009
 C105 C 0.13195 0.86280 0.65231
 H106 H 0.13518 0.81995 0.62880
 H107 H 0.16074 0.87396 0.61360
 H108 H 0.12528 0.86984 0.66472
 C109 C 0.35176 0.66684 0.64692
 C110 C 0.34283 0.64951 0.65192
 C111 C 0.32640 0.64286 0.64171
 C112 C 0.31876 0.65400 0.62670
 C113 C 0.32750 0.67140 0.62144
 C114 C 0.34386 0.67776 0.63178
 H115 H 0.34860 0.64150 0.66399
 H116 H 0.30567 0.64913 0.61951
 H117 H 0.35011 0.69150 0.62821
 C118 C 0.37535 0.17860 1.15301
 C119 C 0.36582 0.19029 1.13934
 C120 C 0.34908 0.18374 1.12957
 C121 C 0.34142 0.16569 1.13417
 C122 C 0.35046 0.15403 1.14786
 C123 C 0.36762 0.16040 1.15681
 H124 H 0.37118 0.20441 1.13605
 H125 H 0.32796 0.16083 1.12762
 H126 H 0.37515 0.15115 1.16682
 C127 C 0.85266 0.67986 1.16779
 C128 C 0.84145 0.68448 1.15133
 C129 C 0.82539 0.67321 1.14568
 C130 C 0.82044 0.65726 1.15681
 C131 C 0.83152 0.65214 1.17307
 C132 C 0.84747 0.66348 1.17852
 H133 H 0.84504 0.69724 1.14332
 H134 H 0.80765 0.64906 1.15289
 H135 H 0.85566 0.65905 1.19105
 C136 C 0.86514 0.15502 0.66680
 C137 C 0.85908 0.16214 0.64878
 C138 C 0.84219 0.15551 0.63980
 C139 C 0.83168 0.14058 0.64825
 C140 C 0.83775 0.13233 0.66587
 C141 C 0.85442 0.13994 0.67530
 H142 H 0.86703 0.17376 0.64203
 H143 H 0.81882 0.13520 0.64091
 H144 H 0.85892 0.13435 0.68910
 C145 C 0.35704 0.34028 0.64057
 C146 C 0.34842 0.33175 0.62409
 C147 C 0.35402 0.31333 0.61784
 C148 C 0.36798 0.30334 0.62859
 C149 C 0.37668 0.31164 0.64510
 C150 C 0.37150 0.33035 0.65062
 H151 H 0.33734 0.33941 0.61626
 H152 H 0.37205 0.28897 0.62413
 H153 H 0.37850 0.33729 0.66289
 C154 C 0.34749 0.86948 0.14010
 C155 C 0.34034 0.85990 0.12356
 C156 C 0.34856 0.84251 0.11725
 C157 C 0.36449 0.83508 0.12734
 C158 C 0.37185 0.84436 0.14396
 C159 C 0.36343 0.86173 0.15015
 H160 H 0.32843 0.86616 0.11558
 H161 H 0.37090 0.82169 0.12250
 H162 H 0.36963 0.86949 0.16230
 C163 C 0.82226 0.37064 0.17411
 C164 C 0.81321 0.36123 0.15829
 C165 C 0.82095 0.34403 0.15081
 C166 C 0.83777 0.33641 0.15920
 C167 C 0.84682 0.34539 0.17506
 C168 C 0.83913 0.36268 0.18223
 H169 H 0.80072 0.36754 0.15140
 H170 H 0.84372 0.32313 0.15350
 H171 H 0.84627 0.37019 0.19407
 C172 C 0.84372 0.84069 0.69130
 C173 C 0.83399 0.83225 0.67537
 C174 C 0.84093 0.81534 0.66664
 C175 C 0.85762 0.80662 0.67431
 C176 C 0.86759 0.81480 0.69012
 C177 C 0.86040 0.83176 0.69866
 H178 H 0.82071 0.83849 0.66990
 H179 H 0.86282 0.79321 0.66832
 H180 H 0.86743 0.83801 0.71127
 C181 C 0.66214 0.63238 0.69201
 C182 C 0.67167 0.63703 0.67443
 C183 C 0.66316 0.64995 0.66138
 C184 C 0.64509 0.65814 0.66604
 C185 C 0.63585 0.65438 0.68389
 C186 C 0.64438 0.64132 0.69662
 H187 H 0.68554 0.63064 0.67083
 H188 H 0.63839 0.66758 0.65564
 H189 H 0.63713 0.63814 0.71028
 C190 C 0.67833 0.11283 0.18102
 C191 C 0.66153 0.12150 0.18884
 C192 C 0.65369 0.13800 0.18054
 C193 C 0.66250 0.14548 0.16377
 C194 C 0.67951 0.13728 0.15593
 C195 C 0.68714 0.12076 0.16439
 H196 H 0.65469 0.11555 0.20170
 H197 H 0.65578 0.15731 0.15640
 H198 H 0.69985 0.11420 0.15781
 C199 C 0.16220 0.64019 0.14780
 C200 C 0.17128 0.64879 0.13175
 C201 C 0.16252 0.66422 0.12220
 C202 C 0.14431 0.67100 0.12889
 C203 C 0.13526 0.66270 0.14519
 C204 C 0.14426 0.64727 0.15433
 H205 H 0.18544 0.64391 0.12687
 H206 H 0.13701 0.68235 0.12132
 H207 H 0.13731 0.64084 0.16689
 C208 C 0.16324 0.15770 0.64638
 C209 C 0.16911 0.16801 0.62994
 C210 C 0.15820 0.18372 0.62352
 C211 C 0.14143 0.18911 0.63395
 C212 C 0.13531 0.17898 0.65042
 C213 C 0.14613 0.16307 0.65637
 H214 H 0.18246 0.16394 0.62259
 H215 H 0.13308 0.20134 0.62922
 H216 H 0.14095 0.15448 0.66830
 C217 C 0.33429 0.62823 0.32791
 C218 C 0.34960 0.63824 0.31901
 C219 C 0.35538 0.65625 0.32614
 C220 C 0.34568 0.66419 0.34247
 C221 C 0.33042 0.65418 0.35154
 C222 C 0.32515 0.63612 0.34438
 H223 H 0.35718 0.63203 0.30662
 H224 H 0.35041 0.67769 0.34860
 H225 H 0.31335 0.62840 0.35131
 C226 C 0.32551 0.12505 0.84073
 C227 C 0.34347 0.13256 0.83484
 C228 C 0.35146 0.14867 0.84412
 C229 C 0.34146 0.15705 0.85998
 C230 C 0.32347 0.14958 0.86621
 C231 C 0.31574 0.13348 0.85664
 H232 H 0.35108 0.12607 0.82257
 H233 H 0.34793 0.16887 0.86784
 H234 H 0.30212 0.12754 0.86177
 C235 C 0.85983 0.63486 0.85070
 C236 C 0.87873 0.64012 0.84505
 C237 C 0.88820 0.65569 0.85383
 C238 C 0.87879 0.66576 0.86895
 C239 C 0.85970 0.66117 0.87443
 C240 C 0.85023 0.64567 0.86528
 H241 H 0.88605 0.63219 0.83349
 H242 H 0.88611 0.67740 0.87639
 H243 H 0.83552 0.64213 0.86954
 C244 C 0.82361 0.13539 0.35187
 C245 C 0.81366 0.14516 0.36678
 C246 C 0.81862 0.16394 0.37193
 C247 C 0.83381 0.17311 0.36186
 C248 C 0.84436 0.16337 0.34720
 C249 C 0.83910 0.14455 0.34225
 H250 H 0.80181 0.13811 0.37436
 H251 H 0.83694 0.18795 0.36493
 H252 H 0.84740 0.13705 0.33113
 C253 C 0.67418 0.37002 0.34856
 C254 C 0.65875 0.36156 0.33821
 C255 C 0.65005 0.34461 0.34463
 C256 C 0.65677 0.33625 0.36188
 C257 C 0.67222 0.34443 0.37240
 C258 C 0.68105 0.36118 0.36542
 H259 H 0.65382 0.36770 0.32469
 H260 H 0.64989 0.32350 0.36745
 H261 H 0.69338 0.36745 0.37285
 C262 C 0.65340 0.85541 0.83354
 C263 C 0.63556 0.85077 0.82457
 C264 C 0.62436 0.83524 0.83115
 C265 C 0.63085 0.82475 0.84714
 C266 C 0.64853 0.82905 0.85621
 C267 C 0.65967 0.84451 0.84943
 H268 H 0.63007 0.85954 0.81300
 H269 H 0.62223 0.81285 0.85237
 H270 H 0.67310 0.84836 0.85667
 C271 C 0.17366 0.36296 0.82178
 C272 C 0.15638 0.35566 0.81374
 C273 C 0.14538 0.34188 0.82360
 C274 C 0.15159 0.33571 0.84204
 C275 C 0.16890 0.34283 0.85029
 C276 C 0.17962 0.35663 0.84013
 H277 H 0.15121 0.36080 0.79987
 H278 H 0.14262 0.32595 0.85020
 H279 H 0.19292 0.36227 0.84643
 C280 C 0.16776 0.88485 0.32376
 C281 C 0.15141 0.87752 0.31395
 C282 C 0.14282 0.86026 0.31977
 C283 C 0.15031 0.85069 0.33608
 C284 C 0.16646 0.85810 0.34619
 C285 C 0.17503 0.87508 0.33986
 H286 H 0.14534 0.88504 0.30170
 H287 H 0.14372 0.83748 0.34074
 H288 H 0.18768 0.88066 0.34743
 O289 O 0.27818 1.03025 0.21013
 O290 O 0.24196 0.99649 0.22868
 O291 O 0.24675 1.03339 0.23122
 O292 O 0.27470 0.99308 0.20961
 O293 O 0.29126 0.99078 0.23700
 O294 O 0.26382 1.03068 0.25827
 O295 O 0.25853 0.99400 0.25606
 O296 O 0.29509 1.02789 0.23729
 Cu297 Cu 0.25874 1.01354 0.21715
 Cu298 Cu 0.27887 1.01052 0.24985
 C299 C 0.29265 1.03502 0.22052
 C300 C 0.24400 0.98952 0.24552
 C301 C 0.25072 1.03889 0.24849
 C302 C 0.28772 0.98506 0.21981
 O303 O 0.23438 0.46702 0.70845
 O304 O 0.26451 0.50579 0.68816
 O305 O 0.26225 0.46874 0.68252
 O306 O 0.23571 0.50379 0.71254
 O307 O 0.25723 0.50059 0.73612
 O308 O 0.28329 0.46446 0.70632
 O309 O 0.28611 0.50147 0.71144
 O310 O 0.25558 0.46369 0.73227
 Cu311 Cu 0.24716 0.48666 0.69546
 Cu312 Cu 0.27276 0.48216 0.72386
 C313 C 0.23977 0.45895 0.72402
 C314 C 0.28035 0.51035 0.69653
 C315 C 0.27707 0.46041 0.68935
 C316 C 0.24191 0.50822 0.72936
 O317 O 0.76994 -0.03754 0.29152
 O318 O 0.75210 -0.00231 0.25677
 O319 O 0.75009 -0.03922 0.25911
 O320 O 0.77384 -0.00052 0.28735
 O321 O 0.80075 -0.00487 0.27012
 O322 O 0.77686 -0.04240 0.24141
 O323 O 0.77898 -0.00538 0.23925
 O324 O 0.79652 -0.04177 0.27376
 Cu325 Cu 0.75886 -0.01962 0.27554
 Cu326 Cu 0.79098 -0.02402 0.25443
 C327 C 0.78609 -0.04582 0.28854
 C328 C 0.76246 0.00234 0.24222
 C329 C 0.75949 -0.04719 0.24523
 C330 C 0.79132 0.00402 0.28327
 O331 O 0.72817 0.51887 0.78052
 O332 O 0.74760 0.48149 0.81295
 O333 O 0.75147 0.51846 0.81045
 O334 O 0.72225 0.48243 0.78491
 O335 O 0.74653 0.47657 0.76450
 O336 O 0.77571 0.51388 0.78968
 O337 O 0.77200 0.47678 0.79241
 O338 O 0.75224 0.51312 0.75983
 Cu339 Cu 0.73498 0.50086 0.79927
 Cu340 Cu 0.76406 0.49461 0.77456
 C341 C 0.73694 0.52220 0.76452
 C342 C 0.76311 0.47271 0.80807
 C343 C 0.76843 0.52246 0.80446
 C344 C 0.72933 0.47323 0.77056
 O345 O 0.22884 0.52055 0.22170
 O346 O 0.24517 0.48264 0.25455
 O347 O 0.25471 0.51808 0.24891
 O348 O 0.21897 0.48520 0.22718
 O349 O 0.24118 0.47534 0.20597
 O350 O 0.27648 0.50953 0.22671
 O351 O 0.26747 0.47401 0.23290
 O352 O 0.25020 0.51106 0.19948
 Cu353 Cu 0.23471 0.50250 0.24028
 Cu354 Cu 0.26101 0.49156 0.21403
 C355 C 0.23671 0.52227 0.20502
 C356 C 0.25924 0.47196 0.24936
 C357 C 0.27160 0.51955 0.24147
 C358 C 0.22407 0.47453 0.21301
 O359 O 0.77127 0.97064 0.74839
 O360 O 0.74291 1.00888 0.77321
 O361 O 0.73975 0.97170 0.76962
 O362 O 0.77506 1.00777 0.75279
 O363 O 0.75746 1.01233 0.72640
 O364 O 0.72285 0.97531 0.74261
 O365 O 0.72541 1.01221 0.74653
 O366 O 0.75442 0.97541 0.72154
 Cu367 Cu 0.75900 0.98935 0.76368
 Cu368 Cu 0.73835 0.99420 0.73160
 C369 C 0.76755 0.96653 0.73069
 C370 C 0.72926 1.01700 0.76396
 C371 C 0.72538 0.96723 0.75890
 C372 C 0.77213 1.01640 0.73689
 O373 O 0.73431 0.53557 0.22747
 O374 O 0.70721 0.50105 0.25692
 O375 O 0.71327 0.53774 0.25916
 O376 O 0.72924 0.49866 0.22611
 O377 O 0.75539 0.49471 0.24420
 O378 O 0.73904 0.53283 0.27757
 O379 O 0.73330 0.49606 0.27487
 O380 O 0.76028 0.53163 0.24588
 Cu381 Cu 0.71842 0.51875 0.24059
 Cu382 Cu 0.74962 0.51343 0.26246
 C383 C 0.75183 0.53954 0.23162
 C384 C 0.71564 0.49248 0.27069
 C385 C 0.72344 0.54180 0.27409
 C386 C 0.74505 0.48997 0.22965
 O387 O 0.22095 -0.01526 0.75492
 O388 O 0.20039 0.02660 0.73114
 O389 O 0.20271 -0.00961 0.72228
 O390 O 0.22064 0.02121 0.76245
 O391 O 0.24818 0.02514 0.74625
 O392 O 0.23038 -0.00529 0.70641
 O393 O 0.22793 0.03115 0.71507
 O394 O 0.24867 -0.01135 0.73899
 Cu395 Cu 0.20839 0.00529 0.74425
 Cu396 Cu 0.24154 0.01031 0.72502
 C397 C 0.23825 -0.02043 0.75117
 C398 C 0.21059 0.03614 0.71928
 C399 C 0.21360 -0.01272 0.70754
 C400 C 0.23757 0.02844 0.76109
 O401 O 0.22494 0.27148 0.98049
 O402 O 0.25394 0.24861 1.01894
 O403 O 0.25652 0.25108 0.98123
 O404 O 0.22173 0.26861 1.01844
 O405 O 0.20435 0.24226 1.01495
 O406 O 0.23900 0.22479 0.97790
 O407 O 0.23646 0.22231 1.01546
 O408 O 0.20750 0.24515 0.97715
 Cu409 Cu 0.24095 0.26264 1.00019
 Cu410 Cu 0.22003 0.23103 0.99608
 C411 C 0.21147 0.26211 0.97209
 C412 C 0.25027 0.23144 1.02354
 C413 C 0.25363 0.23489 0.97323
 C414 C 0.20714 0.25839 1.02304
 O415 O 0.20251 0.74425 0.49706
 O416 O 0.23656 0.72592 0.45932
 O417 O 0.23163 0.72036 0.49644
 O418 O 0.20591 0.74772 0.45942
 O419 O 0.22538 0.77236 0.46465
 O420 O 0.25115 0.74481 0.50236
 O421 O 0.25610 0.75039 0.46508
 O422 O 0.22216 0.76875 0.50212
 Cu423 Cu 0.21721 0.73210 0.47752
 Cu424 Cu 0.24068 0.76152 0.48408
 C425 C 0.20658 0.75977 0.50593
 C426 C 0.25218 0.73510 0.45585
 C427 C 0.24566 0.72779 0.50573
 C428 C 0.21116 0.76464 0.45570
 O429 O 0.22152 0.75562 -0.03747
 O430 O 0.24570 0.78698 -0.00168
 O431 O 0.24956 0.78058 -0.03897
 O432 O 0.21776 0.76183 -0.00017
 O433 O 0.23923 0.73913 0.00558
 O434 O 0.27095 0.75779 -0.03326
 O435 O 0.26718 0.76430 0.00413
 O436 O 0.24296 0.73289 -0.03170
 Cu437 Cu 0.23150 0.77354 -0.02014
 Cu438 Cu 0.25725 0.74627 -0.01319
 C439 C 0.22813 0.73896 -0.04072
 C440 C 0.26053 0.78098 0.00735
 C441 C 0.26561 0.77230 -0.04280
 C442 C 0.22308 0.74725 0.00929
 O443 O 0.26592 0.26588 0.45401
 O444 O 0.24402 0.23490 0.49114
 O445 O 0.23950 0.23914 0.45372
 O446 O 0.26998 0.26204 0.49156
 O447 O 0.24703 0.28363 0.49664
 O448 O 0.21657 0.26065 0.45925
 O449 O 0.22118 0.25649 0.49671
 O450 O 0.24290 0.28736 0.45919
 Cu451 Cu 0.25716 0.24833 0.47206
 Cu452 Cu 0.22960 0.27417 0.47848
 C453 C 0.25813 0.28186 0.45022
 C454 C 0.22896 0.24046 0.50034
 C455 C 0.22283 0.24607 0.45005
 C456 C 0.26362 0.27676 0.50054
 O457 O 0.74224 0.77436 0.97706
 O458 O 0.77090 0.74896 1.01282
 O459 O 0.76858 0.74744 0.97516
 O460 O 0.74103 0.77182 1.01506
 O461 O 0.71920 0.74867 1.01371
 O462 O 0.74712 0.72394 0.97595
 O463 O 0.74909 0.72579 1.01401
 O464 O 0.72090 0.75078 0.97562
 Cu465 Cu 0.75775 0.76299 0.99501
 Cu466 Cu 0.73193 0.73501 0.99481
 C467 C 0.72702 0.76699 0.96991
 C468 C 0.76503 0.73330 1.01972
 C469 C 0.76243 0.73129 0.96899
 C470 C 0.72532 0.76414 1.02112
 O471 O 0.72928 0.26985 0.53556
 O472 O 0.75395 0.24424 0.49500
 O473 O 0.74888 0.23805 0.53207
 O474 O 0.73233 0.27451 0.49809
 O475 O 0.75910 0.29131 0.50306
 O476 O 0.77567 0.25467 0.53767
 O477 O 0.78065 0.26097 0.50072
 O478 O 0.75613 0.28653 0.54061
 Cu479 Cu 0.73842 0.25499 0.51468
 Cu480 Cu 0.77055 0.27505 0.52113
 C481 C 0.73863 0.28265 0.54492
 C482 C 0.77154 0.24839 0.49097
 C483 C 0.76507 0.24005 0.54062
 C484 C 0.74284 0.28899 0.49458
 O485 O 0.75675 0.25781 -0.00017
 O486 O 0.73523 0.22660 0.03702
 O487 O 0.74024 0.22427 -0.00062
 O488 O 0.75262 0.25945 0.03736
 O489 O 0.72445 0.27401 0.03334
 O490 O 0.71167 0.23813 -0.00441
 O491 O 0.70693 0.24105 0.03325
 O492 O 0.72825 0.27171 -0.00441
 Cu493 Cu 0.74905 0.24058 0.01874
 Cu494 Cu 0.71494 0.25761 0.01400
 C495 C 0.74619 0.27012 -0.00856
 C496 C 0.71742 0.22872 0.04161
 C497 C 0.72384 0.22513 -0.00896
 C498 C 0.74077 0.27271 0.04185
 O499 O 0.79836 0.71536 0.50359
 O500 O 0.77143 0.68797 0.54031
 O501 O 0.77040 0.69026 0.50228
 O502 O 0.79852 0.71400 0.54138
 O503 O 0.77644 0.73688 0.54308
 O504 O 0.74836 0.71315 0.50427
 O505 O 0.74941 0.71088 0.54236
 O506 O 0.77629 0.73827 0.50513
 Cu507 Cu 0.78684 0.69957 0.52170
 Cu508 Cu 0.76037 0.72705 0.52388
 C509 C 0.79198 0.73142 0.49809
 C510 C 0.75599 0.69481 0.54778
 C511 C 0.75465 0.69780 0.49650
 C512 C 0.79225 0.72951 0.54886
 O513 O 1.00270 0.29427 0.27781
 O514 O 0.96548 0.26812 0.30565
 O515 O 1.00333 0.26701 0.30301
 O516 O 0.96486 0.29591 0.28072
 O517 O 0.96268 0.27499 0.25652
 O518 O 1.00092 0.24578 0.27910
 O519 O 0.96292 0.24710 0.28157
 O520 O 1.00055 0.27305 0.25387
 Cu521 Cu 0.98427 0.28344 0.29420
 Cu522 Cu 0.98144 0.25809 0.26536
 C523 C 1.00816 0.28799 0.26124
 C524 C 0.95783 0.25319 0.29835
 C525 C 1.00884 0.25162 0.29477
 C526 C 0.95727 0.29043 0.26480
 O527 O 0.47740 0.24486 0.74848
 O528 O 0.51322 0.21982 0.77867
 O529 O 0.47537 0.22256 0.77859
 O530 O 0.51516 0.24247 0.74894
 O531 O 0.51661 0.26751 0.76874
 O532 O 0.47686 0.24756 0.79843
 O533 O 0.51472 0.24482 0.79850
 O534 O 0.47879 0.26982 0.76839
 Cu535 Cu 0.49512 0.22989 0.76170
 Cu536 Cu 0.49690 0.25993 0.78552
 C537 C 0.47202 0.26162 0.75329
 C538 C 0.52014 0.22810 0.79367
 C539 C 0.46929 0.23169 0.79352
 C540 C 0.52265 0.25840 0.75379
 O541 O -0.01982 0.21364 0.76969
 O542 O 0.01844 0.24321 0.79124
 O543 O -0.01940 0.24539 0.79032
 O544 O 0.01824 0.21440 0.76709
 O545 O 0.01757 0.23298 0.74132
 O546 O -0.01914 0.26348 0.76414
 O547 O 0.01887 0.26174 0.76538
 O548 O -0.02021 0.23186 0.74361
 Cu549 Cu -0.00071 0.22732 0.78214
 Cu550 Cu -0.00081 0.24935 0.75107
 C551 C -0.02653 0.21754 0.75305
 C552 C 0.02538 0.25727 0.78208
 C553 C -0.02554 0.25984 0.78101
 C554 C 0.02441 0.21869 0.75015
 O555 O 0.54069 0.25188 0.22550
 O556 O 0.50212 0.27576 0.25454
 O557 O 0.53972 0.27239 0.25729
 O558 O 0.50330 0.25731 0.22141
 O559 O 0.49813 0.23080 0.23782
 O560 O 0.53525 0.24584 0.27380
 O561 O 0.49763 0.24912 0.27095
 O562 O 0.53558 0.22535 0.24188
 Cu563 Cu 0.52194 0.26698 0.23802
 Cu564 Cu 0.51618 0.23509 0.25770
 C565 C 0.54475 0.23452 0.22889
 C566 C 0.49333 0.26639 0.26772
 C567 C 0.54377 0.26181 0.27161
 C568 C 0.49434 0.24165 0.22356
 O569 O 1.04272 0.72646 0.77039
 O570 O 1.00105 0.75353 0.75104
 O571 O 1.03795 0.75083 0.74223
 O572 O 1.00573 0.72851 0.77827
 O573 O 1.01155 0.75202 0.79916
 O574 O 1.04398 0.77431 0.76309
 O575 O 1.00727 0.77702 0.77185
 O576 O 1.04856 0.75002 0.79123
 Cu577 Cu 1.02130 0.73746 0.75836
 Cu578 Cu 1.02851 0.76569 0.78341
 C579 C 1.05264 0.73365 0.78424
 C580 C 0.99705 0.76987 0.75826
 C581 C 1.04639 0.76643 0.74649
 C582 C 1.00304 0.73646 0.79477
 O583 O 0.51477 0.78858 0.26362
 O584 O 0.47356 0.76425 0.28697
 O585 O 0.51132 0.76033 0.28756
 O586 O 0.47703 0.79224 0.26244
 O587 O 0.47596 0.77192 0.23764
 O588 O 0.50963 0.73988 0.26289
 O589 O 0.47192 0.74397 0.26215
 O590 O 0.51373 0.76817 0.23888
 Cu591 Cu 0.49428 0.77839 0.27762
 Cu592 Cu 0.49264 0.75395 0.24790
 C593 C 0.52138 0.78250 0.24742
 C594 C 0.46568 0.75000 0.27857
 C595 C 0.51635 0.74469 0.27942
 C596 C 0.47069 0.78750 0.24571
 O597 O 0.03175 0.75353 0.26338
 O598 O -0.01029 0.72887 0.24277
 O599 O 0.02519 0.73398 0.23243
 O600 O -0.00637 0.75515 0.27078
 O601 O -0.01071 0.78045 0.25236
 O602 O 0.02037 0.75952 0.21445
 O603 O -0.01706 0.75394 0.22474
 O604 O 0.02579 0.77908 0.24572
 Cu605 Cu 0.01024 0.74082 0.25439
 Cu606 Cu 0.00358 0.77026 0.23228
 C607 C 0.03607 0.77034 0.25823
 C608 C -0.02091 0.73703 0.23037
 C609 C 0.02828 0.74340 0.21692
 C610 C -0.01380 0.77156 0.26803
 O611 O 0.50829 0.77543 0.74180
 O612 O 0.47279 0.74602 0.71455
 O613 O 0.51053 0.74577 0.71877
 O614 O 0.47051 0.77502 0.73856
 O615 O 0.47303 0.79443 0.71351
 O616 O 0.51331 0.76522 0.69377
 O617 O 0.47567 0.76544 0.68954
 O618 O 0.51084 0.79478 0.71670
 Cu619 Cu 0.49024 0.75860 0.73094
 Cu620 Cu 0.49343 0.78191 0.70086
 C621 C 0.51568 0.79006 0.73379
 C622 C 0.46822 0.75079 0.69735
 C623 C 0.51884 0.75057 0.70300
 C624 C 0.46493 0.78969 0.72942
 C625 C 0.39342 0.34088 0.31096
 C626 C 0.40247 0.32353 0.31505
 C627 C 0.42080 0.31712 0.30557
 C628 C 0.43174 0.30277 0.31449
 C629 C 0.44843 0.29541 0.30545
 C630 C 0.45437 0.30208 0.28708
 C631 C 0.44372 0.31677 0.27838
 C632 C 0.42703 0.32414 0.28742
 C633 C 0.47127 0.29384 0.27647
 C634 C 0.47777 0.27524 0.27946
 H635 H 0.39578 0.31385 0.32528
 H636 H 0.42730 0.29716 0.32848
 H637 H 0.45659 0.28456 0.31297
 H638 H 0.44800 0.32216 0.26425
 H639 H 0.41878 0.33482 0.27977
 H640 H 0.47780 0.30211 0.26489
 H641 H 0.40039 0.35063 0.30099
 H642 H 0.47064 0.26631 0.29010
 C643 C 0.36442 0.83506 0.80407
 C644 C 0.37358 0.83881 0.78618
 C645 C 0.39064 0.82804 0.77862
 C646 C 0.39458 0.82849 0.75853
 C647 C 0.41050 0.81867 0.75063
 C648 C 0.42301 0.80830 0.76274
 C649 C 0.41912 0.80784 0.78283
 C650 C 0.40321 0.81773 0.79076
 C651 C 0.43979 0.79737 0.75489
 C652 C 0.44878 0.80135 0.73709
 H653 H 0.36757 0.84917 0.77638
 H654 H 0.38514 0.83631 0.74883
 H655 H 0.41264 0.81895 0.73502
 H656 H 0.42855 0.79996 0.79247
 H657 H 0.40107 0.81743 0.80637
 H658 H 0.44563 0.78603 0.76377
 H659 H 0.37001 0.82340 0.81263
 H660 H 0.44415 0.81342 0.72857
 C661 C -0.11659 0.31952 0.85656
 C662 C -0.10865 0.32082 0.83787
 C663 C -0.09252 0.30834 0.83107
 C664 C -0.08032 0.31464 0.81602
 C665 C -0.06547 0.30290 0.80872
 C666 C -0.06277 0.28437 0.81607
 C667 C -0.07481 0.27818 0.83131
 C668 C -0.08961 0.28995 0.83866
 C669 C -0.04773 0.27117 0.80815
 C670 C -0.04023 0.27283 0.78934
 H671 H -0.11448 0.33100 0.82768
 H672 H -0.08223 0.32874 0.80995
 H673 H -0.05611 0.30853 0.79745
 H674 H -0.07305 0.26400 0.83724
 H675 H -0.09907 0.28431 0.84986
 H676 H -0.04317 0.25925 0.81699
 H677 H -0.11000 0.30976 0.86672
 H678 H -0.04548 0.28397 0.77993
 C679 C -0.10904 0.79959 0.35424
 C680 C -0.09317 0.80823 0.34505
 C681 C -0.07703 0.79780 0.33525
 C682 C -0.06142 0.80850 0.32787
 C683 C -0.04688 0.79979 0.31665
 C684 C -0.04768 0.78012 0.31246
 C685 C -0.06269 0.76918 0.32064
 C686 C -0.07736 0.77792 0.33179
 C687 C -0.03357 0.77097 0.29899
 C688 C -0.02618 0.78067 0.28292
 H689 H -0.09270 0.82368 0.34458
 H690 H -0.06069 0.82379 0.33041
 H691 H -0.03515 0.80854 0.31107
 H692 H -0.06351 0.75397 0.31770
 H693 H -0.08915 0.76910 0.33701
 H694 H -0.03055 0.75587 0.30051
 H695 H -0.10885 0.78445 0.35715
 H696 H -0.03068 0.79525 0.28034
 C697 C 0.61678 0.69616 0.34940
 C698 C 0.60223 0.69019 0.33650
 C699 C 0.58601 0.70247 0.32984
 C700 C 0.57052 0.69386 0.31975
 C701 C 0.55548 0.70489 0.31212
 C702 C 0.55567 0.72488 0.31430
 C703 C 0.57085 0.73349 0.32483
 C704 C 0.58597 0.72247 0.33238
 C705 C 0.54044 0.73710 0.30568
 C706 C 0.53025 0.73185 0.28891
 H707 H 0.60242 0.67560 0.33115
 H708 H 0.57011 0.67851 0.31763
 H709 H 0.54372 0.69768 0.30462
 H710 H 0.57129 0.74887 0.32675
 H711 H 0.59774 0.72981 0.33969
 H712 H 0.53829 0.75128 0.31180
 H713 H 0.61548 0.70988 0.35667
 H714 H 0.53333 0.71836 0.28170
 C715 C 0.62092 0.15492 0.83351
 C716 C 0.60548 0.16491 0.84222
 C717 C 0.58887 0.17314 0.83141
 C718 C 0.57705 0.18664 0.84102
 C719 C 0.56173 0.19549 0.83132
 C720 C 0.55789 0.19102 0.81168
 C721 C 0.56922 0.17700 0.80227
 C722 C 0.58457 0.16815 0.81197
 C723 C 0.54223 0.20051 0.80064
 C724 C 0.53477 0.21846 0.80565
 H725 H 0.60587 0.16758 0.85778
 H726 H 0.57983 0.19056 0.85607
 H727 H 0.55291 0.20568 0.83934
 H728 H 0.56635 0.17306 0.78724
 H729 H 0.59285 0.15744 0.80411
 H730 H 0.53724 0.19364 0.78734
 H731 H 0.62047 0.15126 0.81819
 H732 H 0.54032 0.22618 0.81818
 C733 C 1.15117 0.65145 0.81141
 C734 C 1.13738 0.66257 0.82138
 C735 C 1.12109 0.67284 0.81199
 C736 C 1.11108 0.68671 0.82301
 C737 C 1.09590 0.69715 0.81486
 C738 C 1.09038 0.69397 0.79539
 C739 C 1.09996 0.67970 0.78450
 C740 C 1.11520 0.66926 0.79265
 C741 C 1.07444 0.70490 0.78626
 C742 C 1.06898 0.72311 0.79270
 H743 H 1.13880 0.66434 0.83700
 H744 H 1.11508 0.68959 0.83801
 H745 H 1.08840 0.70747 0.82400
 H746 H 1.09574 0.67675 0.76957
 H747 H 1.12208 0.65838 0.78373
 H748 H 1.06721 0.69869 0.77370
 H749 H 1.14962 0.64874 0.79597
 H750 H 1.07693 0.73008 0.80434
 C751 C 1.11209 0.17148 0.31103
 C752 C 1.10510 0.18916 0.31770
 C753 C 1.08610 0.19752 0.31210
 C754 C 1.08273 0.21687 0.31651
 C755 C 1.06534 0.22566 0.31123
 C756 C 1.05076 0.21523 0.30150
 C757 C 1.05402 0.19586 0.29716
 C758 C 1.07142 0.18701 0.30255
 C759 C 1.03260 0.22439 0.29478
 C760 C 1.02503 0.24097 0.30337
 H761 H 1.11452 0.19808 0.32651
 H762 H 1.09376 0.22535 0.32382
 H763 H 1.06367 0.24076 0.31432
 H764 H 1.04303 0.18754 0.28961
 H765 H 1.07311 0.17199 0.29921
 H766 H 1.02501 0.21792 0.28257
 H767 H 1.10361 0.16322 0.30073
 H768 H 1.03155 0.24682 0.31646
 C769 C 0.62729 0.32554 0.70976
 C770 C 0.61134 0.31574 0.70192
 C771 C 0.59511 0.30781 0.71366
 C772 C 0.58262 0.29445 0.70481
 C773 C 0.56718 0.28641 0.71522
 C774 C 0.56388 0.29158 0.73482
 C775 C 0.57604 0.30530 0.74354
 C776 C 0.59150 0.31334 0.73313
 C777 C 0.54773 0.28340 0.74645
 C778 C 0.53850 0.26618 0.74179
 H779 H 0.61072 0.31342 0.68632
 H780 H 0.58486 0.29014 0.68976
 H781 H 0.55777 0.27642 0.70770
 H782 H 0.57362 0.30977 0.75852
 H783 H 0.60030 0.32400 0.74041
 H784 H 0.54344 0.29090 0.75969
 H785 H 0.62790 0.32848 0.72523
 H786 H 0.54319 0.25780 0.72930
 C787 C 0.62468 0.82278 0.17403
 C788 C 0.61657 0.82420 0.19281
 C789 C 0.59891 0.81387 0.19942
 C790 C 0.59543 0.81276 0.21955
 C791 C 0.57873 0.80390 0.22673
 C792 C 0.56489 0.79606 0.21390
 C793 C 0.56847 0.79678 0.19376
 C794 C 0.58524 0.80574 0.18653
 C795 C 0.54689 0.78688 0.22127
 C796 C 0.53836 0.79224 0.23901
 H797 H 0.62394 0.83237 0.20396
 H798 H 0.60573 0.81878 0.22984
 H799 H 0.57686 0.80303 0.24236
 H800 H 0.55808 0.79074 0.18360
 H801 H 0.58713 0.80657 0.17092
 H802 H 0.53990 0.77609 0.21229
 H803 H 0.61815 0.81279 0.16384
 H804 H 0.54435 0.80409 0.24728
 C805 C 1.10456 0.32242 0.17605
 C806 C 1.09750 0.32684 0.19480
 C807 C 1.08068 0.31719 0.20417
 C808 C 1.07818 0.31941 0.22439
 C809 C 1.06229 0.31121 0.23393
 C810 C 1.04832 0.30072 0.22339
 C811 C 1.05087 0.29830 0.20321
 C812 C 1.06678 0.30657 0.19363
 C813 C 1.03138 0.29167 0.23309
 C814 C 1.02381 0.29812 0.25091
 H815 H 1.10456 0.33764 0.20358
 H816 H 1.08866 0.32747 0.23291
 H817 H 1.06124 0.31289 0.24958
 H818 H 1.04035 0.29023 0.19477
 H819 H 1.06779 0.30487 0.17799
 H820 H 1.02443 0.27971 0.22577
 H821 H 1.09780 0.31071 0.16821
 H822 H 1.02969 0.31081 0.25781
 C823 C 1.11870 0.83134 0.66159
 C824 C 1.11347 0.83674 0.68064
 C825 C 1.10231 0.82447 0.69408
 C826 C 1.10336 0.82834 0.71415
 C827 C 1.09242 0.81773 0.72737
 C828 C 1.08014 0.80302 0.72084
 C829 C 1.07895 0.79917 0.70069
 C830 C 1.08994 0.80980 0.68744
 C831 C 1.06823 0.79278 0.73542
 C832 C 1.05890 0.77542 0.73178
 H833 H 1.11880 0.84999 0.68680
 H834 H 1.11263 0.83969 0.71964
 H835 H 1.09349 0.82112 0.74277
 H836 H 1.06919 0.78841 0.69496
 H837 H 1.08822 0.80684 0.67204
 H838 H 1.06694 0.79916 0.74983
 H839 H 1.11559 0.81684 0.65690
 H840 H 1.06064 0.76812 0.71793
 C841 C 0.36870 0.67365 0.65835
 C842 C 0.38260 0.68616 0.65078
 C843 C 0.39876 0.69459 0.66224
 C844 C 0.41422 0.70319 0.65218
 C845 C 0.42916 0.71246 0.66227
 C846 C 0.42883 0.71353 0.68275
 C847 C 0.41369 0.70447 0.69287
 C848 C 0.39870 0.69521 0.68276
 C849 C 0.44389 0.72412 0.69387
 C850 C 0.45409 0.73951 0.68605
 H851 H 0.38193 0.68974 0.63549
 H852 H 0.41469 0.70285 0.63639
 H853 H 0.44093 0.71868 0.65395
 H854 H 0.41315 0.70504 0.70865
 H855 H 0.38688 0.68911 0.69110
 H856 H 0.44600 0.72058 0.70905
 H857 H 0.37059 0.66799 0.67283
 H858 H 0.45109 0.74414 0.67138
 C859 C 0.39203 0.18421 0.16349
 C860 C 0.40193 0.20160 0.16183
 C861 C 0.41859 0.20647 0.17463
 C862 C 0.43331 0.21859 0.16775
 C863 C 0.44928 0.22323 0.17950
 C864 C 0.45066 0.21604 0.19854
 C865 C 0.43585 0.20404 0.20543
 C866 C 0.41993 0.19943 0.19372
 C867 C 0.46718 0.22060 0.21165
 C868 C 0.47922 0.23646 0.20933
 H869 H 0.39826 0.21158 0.15053
 H870 H 0.43260 0.22424 0.15313
 H871 H 0.46056 0.23217 0.17342
 H872 H 0.43647 0.19841 0.22006
 H873 H 0.40855 0.19059 0.19982
 H874 H 0.46915 0.21177 0.22438
 H875 H 0.39780 0.17406 0.17378
 H876 H 0.47689 0.24618 0.19743
 C877 C -0.13146 0.69183 0.17273
 C878 C -0.11970 0.68969 0.18923
 C879 C -0.10273 0.70201 0.19407
 C880 C -0.09507 0.70095 0.21295
 C881 C -0.07859 0.71142 0.21818
 C882 C -0.06917 0.72315 0.20456
 C883 C -0.07704 0.72470 0.18582
 C884 C -0.09356 0.71410 0.18051
 C885 C -0.05124 0.73380 0.20978
 C886 C -0.03798 0.72653 0.22313
 H887 H -0.12314 0.67890 0.19980
 H888 H -0.10184 0.69190 0.22376
 H889 H -0.07335 0.71039 0.23298
 H890 H -0.07010 0.73373 0.17511
 H891 H -0.09869 0.71515 0.16570
 H892 H -0.04813 0.74718 0.20259
 H893 H -0.12847 0.70374 0.16326
 H894 H -0.04033 0.71240 0.22896
 C895 C -0.11876 0.16408 0.67558
 C896 C -0.11135 0.16058 0.69416
 C897 C -0.09588 0.17287 0.70268
 C898 C -0.08290 0.16519 0.71623
 C899 C -0.06808 0.17649 0.72427
 C900 C -0.06615 0.19583 0.71910
 C901 C -0.07924 0.20352 0.70570
 C902 C -0.09406 0.19227 0.69773
 C903 C -0.05063 0.20831 0.72712
 C904 C -0.04174 0.20501 0.74498
 H905 H -0.11640 0.14861 0.70261
 H906 H -0.08402 0.15033 0.72034
 H907 H -0.05800 0.16988 0.73420
 H908 H -0.07815 0.21838 0.70156
 H909 H -0.10422 0.19896 0.68794
 H910 H -0.04676 0.22106 0.71915
 H911 H -0.11168 0.17523 0.66731
 H912 H -0.04634 0.19308 0.75377
 C913 C 0.33368 0.37873 0.30120
 C914 C 0.31714 0.38886 0.30716
 C915 C 0.30720 0.40259 0.29429
 C916 C 0.29656 0.41770 0.30266
 C917 C 0.28764 0.43131 0.29089
 C918 C 0.28901 0.42987 0.27045
 C919 C 0.29928 0.41451 0.26212
 C920 C 0.30813 0.40090 0.27386
 C921 C 0.28080 0.44443 0.25736
 C922 C 0.26611 0.45720 0.26277
 H923 H 0.31210 0.38790 0.32207
 H924 H 0.29555 0.41925 0.31836
 H925 H 0.28020 0.44315 0.29790
 H926 H 0.30046 0.41301 0.24643
 H927 H 0.31557 0.38907 0.26684
 H928 H 0.28639 0.44486 0.24257
 H929 H 0.33988 0.38168 0.28701
 H930 H 0.25928 0.45636 0.27697
 C931 C 0.31433 -0.11552 0.79857
 C932 C 0.29614 -0.10717 0.80220
 C933 C 0.28847 -0.09121 0.79053
 C934 C 0.26827 -0.08926 0.78865
 C935 C 0.26040 -0.07422 0.77806
 C936 C 0.27262 -0.06050 0.76944
 C937 C 0.29286 -0.06256 0.77118
 C938 C 0.30074 -0.07770 0.78170
 C939 C 0.26479 -0.04399 0.75861
 C940 C 0.24591 -0.03714 0.76136
 H941 H 0.28630 -0.11326 0.81276
 H942 H 0.25852 -0.09954 0.79523
 H943 H 0.24476 -0.07362 0.77653
 H944 H 0.30260 -0.05222 0.76468
 H945 H 0.31639 -0.07849 0.78324
 H946 H 0.27451 -0.03640 0.74890
 H947 H 0.32251 -0.11036 0.78615
 H948 H 0.23635 -0.04375 0.77188
 C949 C 0.83390 0.37100 0.85147
 C950 C 0.81759 0.38182 0.85720
 C951 C 0.81027 0.39857 0.84630
 C952 C 0.79777 0.41154 0.85585
 C953 C 0.79007 0.42722 0.84600
 C954 C 0.79457 0.43015 0.82624
 C955 C 0.80711 0.41721 0.81672
 C956 C 0.81477 0.40153 0.82654
 C957 C 0.78680 0.44647 0.81504
 C958 C 0.77068 0.45747 0.82064
 H959 H 0.81010 0.37870 0.87066
 H960 H 0.79400 0.40960 0.87105
 H961 H 0.78081 0.43702 0.85403
 H962 H 0.81080 0.41909 0.80149
 H963 H 0.82383 0.39163 0.81841
 H964 H 0.79364 0.44939 0.80112
 H965 H 0.84233 0.37599 0.83917
 H966 H 0.76284 0.45445 0.83395
 C967 C 0.84584 -0.14657 0.34569
 C968 C 0.82971 -0.13477 0.34914
 C969 C 0.82476 -0.11859 0.33626
 C970 C 0.81386 -0.10329 0.34389
 C971 C 0.80870 -0.08793 0.33211
 C972 C 0.81413 -0.08770 0.31231
 C973 C 0.82510 -0.10296 0.30470
 C974 C 0.83022 -0.11833 0.31646
 C975 C 0.80863 -0.07192 0.29919
 C976 C 0.79238 -0.06037 0.30246
 H977 H 0.82072 -0.13664 0.36193
 H978 H 0.80946 -0.10313 0.35907
 H979 H 0.80068 -0.07621 0.33867
 H980 H 0.82940 -0.10317 0.28949
 H981 H 0.83805 -0.13011 0.30981
 H982 H 0.81683 -0.07024 0.28579
 H983 H 0.85535 -0.14284 0.33370
 H984 H 0.78316 -0.06271 0.31503
 C985 C 0.31625 0.62481 0.64660
 C986 C 0.32454 0.61002 0.65729
 C987 C 0.31412 0.59199 0.66175
 C988 C 0.32498 0.57596 0.66724
 C989 C 0.31572 0.55875 0.67177
 C990 C 0.29531 0.55729 0.67103
 C991 C 0.28445 0.57324 0.66541
 C992 C 0.29368 0.59047 0.66103
 C993 C 0.28486 0.53953 0.67617
 C994 C 0.29215 0.52635 0.68938
 H995 H 0.33959 0.61111 0.66171
 H996 H 0.34071 0.57671 0.66793
 H997 H 0.32460 0.54662 0.67561
 H998 H 0.26871 0.57250 0.66483
 H999 H 0.28464 0.60256 0.65749
 H1000 H 0.27014 0.53769 0.67085
 H1001 H 0.30195 0.62273 0.64040
 H1002 H 0.30617 0.52873 0.69611
 C1003 C 0.34152 1.13533 0.15247
 C1004 C 0.34446 1.12592 0.17011
 C1005 C 0.33450 1.10797 0.17554
 C1006 C 0.34225 1.09708 0.19071
 C1007 C 0.33278 1.08059 0.19708
 C1008 C 0.31515 1.07479 0.18851
 C1009 C 0.30760 1.08549 0.17310
 C1010 C 0.31706 1.10196 0.16673
 C1011 C 0.30388 1.05809 0.19534
 C1012 C 0.30649 1.04938 0.21337
 H1013 H 0.35427 1.13202 0.18077
 H1014 H 0.35568 1.10139 0.19772
 H1015 H 0.33938 1.07256 0.20867
 H1016 H 0.29402 1.08136 0.16626
 H1017 H 0.31026 1.11013 0.15537
 H1018 H 0.29187 1.05334 0.18631
 H1019 H 0.33168 1.12928 0.14182
 H1020 H 0.31795 1.05395 0.22310
 C1021 C 0.82615 0.63555 0.18522
 C1022 C 0.81639 0.61959 0.17770
 C1023 C 0.80848 0.60382 0.18964
 C1024 C 0.79513 0.59122 0.18091
 C1025 C 0.78635 0.57675 0.19168
 C1026 C 0.79071 0.57454 0.21152
 C1027 C 0.80472 0.58652 0.22008
 C1028 C 0.81349 0.60108 0.20930
 C1029 C 0.78089 0.55994 0.22355
 C1030 C 0.76210 0.55352 0.21951
 H1031 H 0.81358 0.61894 0.16219
 H1032 H 0.79123 0.59276 0.16573
 H1033 H 0.77621 0.56730 0.18436
 H1034 H 0.80858 0.58487 0.23526
 H1035 H 0.82411 0.61003 0.21653
 H1036 H 0.78809 0.55508 0.23661
 H1037 H 0.83008 0.63618 0.20044
 H1038 H 0.75416 0.55940 0.20739
 C1039 C 0.82658 1.11704 0.67321
 C1040 C 0.83069 1.10639 0.68990
 C1041 C 0.81804 1.09044 0.69652
 C1042 C 0.82607 1.07591 0.70793
 C1043 C 0.81462 1.06055 0.71417
 C1044 C 0.79476 1.05951 0.70927
 C1045 C 0.78671 1.07414 0.69805
 C1046 C 0.79810 1.08951 0.69191
 C1047 C 0.78204 1.04340 0.71518
 C1048 C 0.78589 1.03142 0.73086
 H1049 H 0.84402 1.10877 0.69786
 H1050 H 0.84134 1.07628 0.71177
 H1051 H 0.82150 1.04940 0.72246
 H1052 H 0.77144 1.07378 0.69417
 H1053 H 0.79110 1.10072 0.68379
 H1054 H 0.76842 1.04157 0.70747
 H1055 H 0.81399 1.11277 0.66479
 H1056 H 0.79870 1.03368 0.73969
 C1057 C 0.66352 0.64356 0.33288
 C1058 C 0.67676 0.62911 0.33739
 C1059 C 0.68289 0.61388 0.32340
 C1060 C 0.69230 0.59766 0.33065
 C1061 C 0.69843 0.58298 0.31808
 C1062 C 0.69537 0.58428 0.29789
 C1063 C 0.68590 0.60042 0.29061
 C1064 C 0.67990 0.61518 0.30315
 C1065 C 0.70155 0.56897 0.28415
 C1066 C 0.71728 0.55695 0.28780
 H1067 H 0.68224 0.62816 0.35209
 H1068 H 0.69480 0.59624 0.34614
 H1069 H 0.70523 0.57053 0.32429
 H1070 H 0.68341 0.60176 0.27510
 H1071 H 0.67323 0.62758 0.29677
 H1072 H 0.69413 0.56778 0.27028
 H1073 H 0.65659 0.64332 0.31878
 H1074 H 0.72584 0.55899 0.30085
 C1075 C 0.67857 1.11274 0.84018
 C1076 C 0.67646 1.10386 0.82190
 C1077 C 0.68896 1.08806 0.81461
 C1078 C 0.69038 1.08515 0.79441
 C1079 C 0.70119 1.06998 0.78670
 C1080 C 0.71059 1.05705 0.79907
 C1081 C 0.70955 1.06016 0.81931
 C1082 C 0.69874 1.07546 0.82706
 C1083 C 0.72168 1.04047 0.79119
 C1084 C 0.71765 1.03238 0.77296
 H1085 H 0.66620 1.10944 0.81154
 H1086 H 0.68312 1.09471 0.78448
 H1087 H 0.70226 1.06862 0.77102
 H1088 H 0.71677 1.05049 0.82915
 H1089 H 0.69770 1.07705 0.84273
 H1090 H 0.73295 1.03424 0.80010
 H1091 H 0.69069 1.10840 0.84914
 H1092 H 0.70557 1.03768 0.76453
 C1093 C 0.20269 0.60170 0.81366
 C1094 C 0.19578 0.59075 0.79794
 C1095 C 0.20667 0.57455 0.78909
 C1096 C 0.19644 0.56128 0.77760
 C1097 C 0.20619 0.54641 0.76801
 C1098 C 0.22651 0.54463 0.76951
 C1099 C 0.23673 0.55757 0.78139
 C1100 C 0.22697 0.57251 0.79096
 C1101 C 0.23737 0.52964 0.75867
 C1102 C 0.23093 0.52241 0.74082
 H1103 H 0.18151 0.59341 0.79205
 H1104 H 0.18080 0.56246 0.77596
 H1105 H 0.19774 0.53633 0.75949
 H1106 H 0.25239 0.55645 0.78280
 H1107 H 0.23552 0.58267 0.79925
 H1108 H 0.25142 0.52523 0.76414
 H1109 H 0.21596 0.59709 0.82062
 H1110 H 0.21769 0.52788 0.73446
 C1111 C 0.16739 1.12881 0.29363
 C1112 C 0.18742 1.12696 0.29047
 C1113 C 0.19663 1.11143 0.27883
 C1114 C 0.21669 1.10846 0.28101
 C1115 C 0.22606 1.09353 0.27115
 C1116 C 0.21555 1.08117 0.25882
 C1117 C 0.19567 1.08461 0.25588
 C1118 C 0.18623 1.09954 0.26584
 C1119 C 0.22506 1.06468 0.24902
 C1120 C 0.24051 1.05509 0.25765
 H1121 H 0.19709 1.13706 0.29754
 H1122 H 0.22515 1.11757 0.29063
 H1123 H 0.24157 1.09178 0.27318
 H1124 H 0.18735 1.07548 0.24616
 H1125 H 0.17089 1.10164 0.26323
 H1126 H 0.21913 1.05935 0.23541
 H1127 H 0.15732 1.11950 0.28609
 H1128 H 0.24528 1.05938 0.27207
 C1129 C 0.68284 0.37132 0.70086
 C1130 C 0.67676 0.38459 0.71498
 C1131 C 0.68929 0.40009 0.72281
 C1132 C 0.68466 0.40792 0.74113
 C1133 C 0.69585 0.42265 0.74916
 C1134 C 0.71180 0.43020 0.73882
 C1135 C 0.71653 0.42229 0.72052
 C1136 C 0.70535 0.40745 0.71251
 C1137 C 0.72392 0.44593 0.74691
 C1138 C 0.71713 0.45849 0.76132
 H1139 H 0.66231 0.38342 0.72116
 H1140 H 0.67245 0.40244 0.74942
 H1141 H 0.69207 0.42777 0.76360
 H1142 H 0.72876 0.42779 0.71228
 H1143 H 0.70916 0.40212 0.69814
 H1144 H 0.73848 0.44788 0.74111
 H1145 H 0.69724 0.37264 0.69456
 H1146 H 0.70226 0.45749 0.76644
 C1147 C 0.67649 -0.13038 0.18572
 C1148 C 0.69526 -0.12292 0.18333
 C1149 C 0.70405 -0.10921 0.19726
 C1150 C 0.72434 -0.10902 0.19929
 C1151 C 0.73331 -0.09605 0.21195
 C1152 C 0.72216 -0.08263 0.22257
 C1153 C 0.70182 -0.08298 0.22074
 C1154 C 0.69282 -0.09607 0.20814
 C1155 C 0.73128 -0.06812 0.23550
 C1156 C 0.75051 -0.06214 0.23311
 H1157 H 0.70475 -0.12842 0.17201
 H1158 H 0.73329 -0.11908 0.19117
 H1159 H 0.74895 -0.09679 0.21343
 H1160 H 0.69290 -0.07284 0.22878
 H1161 H 0.67716 -0.09554 0.20661
 H1162 H 0.72229 -0.06116 0.24647
 H1163 H 0.66855 -0.12624 0.19877
 H1164 H 0.75933 -0.06798 0.22140
 C1165 C 0.15558 0.37289 0.17430
 C1166 C 0.16157 0.38915 0.16439
 C1167 C 0.17496 0.40321 0.17318
 C1168 C 0.17229 0.42272 0.16967
 C1169 C 0.18526 0.43618 0.17740
 C1170 C 0.20142 0.43020 0.18822
 C1171 C 0.20434 0.41066 0.19133
 C1172 C 0.19106 0.39726 0.18411
 C1173 C 0.21566 0.44408 0.19587
 C1174 C 0.20985 0.46112 0.20475
 H1175 H 0.15592 0.39189 0.14997
 H1176 H 0.16010 0.42754 0.16105
 H1177 H 0.18294 0.45118 0.17453
 H1178 H 0.21682 0.40580 0.19949
 H1179 H 0.19365 0.38223 0.18661
 H1180 H 0.23091 0.44011 0.19600
 H1181 H 0.15896 0.37150 0.18963
 H1182 H 0.19449 0.46402 0.20690
 C1183 C 0.14734 -0.10605 0.64584
 C1184 C 0.16489 -0.09667 0.64207
 C1185 C 0.17071 -0.07911 0.65281
 C1186 C 0.19059 -0.07563 0.65584
 C1187 C 0.19666 -0.06052 0.66781
 C1188 C 0.18291 -0.04841 0.67685
 C1189 C 0.16307 -0.05140 0.67318
 C1190 C 0.15700 -0.06646 0.66112
 C1191 C 0.18867 -0.03352 0.69118
 C1192 C 0.20721 -0.02544 0.69165
 H1193 H 0.17590 -0.10390 0.63341
 H1194 H 0.20144 -0.08514 0.64960
 H1195 H 0.21206 -0.05897 0.67059
 H1196 H 0.15221 -0.04220 0.67987
 H1197 H 0.14158 -0.06824 0.65858
 H1198 H 0.17794 -0.02887 0.70185
 H1199 H 0.13715 -0.09965 0.65604
 H1200 H 0.21759 -0.02866 0.68018
 C1201 C 0.33812 0.33359 0.35830
 C1202 C 0.31812 0.33141 0.36159
 C1203 C 0.30980 0.32095 0.37837
 C1204 C 0.29033 0.32432 0.38364
 C1205 C 0.28166 0.31432 0.39894
 C1206 C 0.29233 0.30063 0.40928
 C1207 C 0.31173 0.29710 0.40385
 C1208 C 0.32041 0.30712 0.38858
 C1209 C 0.28360 0.28914 0.42511
 C1210 C 0.26662 0.29420 0.43517
 H1211 H 0.30790 0.33748 0.35145
 H1212 H 0.28174 0.33467 0.37582
 H1213 H 0.26651 0.31708 0.40221
 H1214 H 0.32018 0.28641 0.41136
 H1215 H 0.33521 0.30355 0.38460
 H1216 H 0.29115 0.27623 0.42928
 H1217 H 0.34830 0.32754 0.36849
 H1218 H 0.25935 0.30754 0.43221
 C1219 C 0.31259 0.84030 -0.14545
 C1220 C 0.31631 0.82290 -0.13632
 C1221 C 0.30587 0.81646 -0.11854
 C1222 C 0.30638 0.79700 -0.11381
 C1223 C 0.29636 0.79018 -0.09750
 C1224 C 0.28568 0.80277 -0.08547
 C1225 C 0.28535 0.82225 -0.09002
 C1226 C 0.29549 0.82909 -0.10623
 C1227 C 0.27405 0.79601 -0.06866
 C1228 C 0.27817 0.77925 -0.05865
 H1229 H 0.32632 0.81288 -0.14303
 H1230 H 0.31429 0.78694 -0.12297
 H1231 H 0.29660 0.77500 -0.09473
 H1232 H 0.27728 0.83224 -0.08093
 H1233 H 0.29518 0.84428 -0.10884
 H1234 H 0.26203 0.80485 -0.06369
 H1235 H 0.30120 0.84938 -0.13963
 H1236 H 0.29100 0.77098 -0.06234
 C1237 C 0.82703 0.31891 -0.09915
 C1238 C 0.81264 0.32699 -0.08722
 C1239 C 0.80316 0.31606 -0.07145
 C1240 C 0.78410 0.32070 -0.06577
 C1241 C 0.77456 0.31018 -0.05136
 C1242 C 0.78403 0.29483 -0.04227
 C1243 C 0.80336 0.29073 -0.04747
 C1244 C 0.81286 0.30122 -0.06183
 C1245 C 0.77459 0.28286 -0.02726
 C1246 C 0.75466 0.28277 -0.02330
 H1247 H 0.80771 0.34142 -0.08968
 H1248 H 0.77646 0.33231 -0.07271
 H1249 H 0.75990 0.31429 -0.04742
 H1250 H 0.81114 0.27924 -0.04047
 H1251 H 0.82786 0.29776 -0.06516
 H1252 H 0.78380 0.27309 -0.01933
 H1253 H 0.83122 0.30423 -0.09674
 H1254 H 0.74483 0.29196 -0.03110
 C1255 C 0.83339 0.80695 0.39884
 C1256 C 0.84067 0.79534 0.41359
 C1257 C 0.82882 0.78698 0.42953
 C1258 C 0.83857 0.77738 0.44446
 C1259 C 0.82821 0.76833 0.45928
 C1260 C 0.80775 0.76859 0.45947
 C1261 C 0.79794 0.77863 0.44492
 C1262 C 0.80832 0.78761 0.42997
 C1263 C 0.79640 0.75849 0.47460
 C1264 C 0.80324 0.74194 0.48343
 H1265 H 0.85612 0.79234 0.41375
 H1266 H 0.85433 0.77674 0.44460
 H1267 H 0.83629 0.76125 0.47062
 H1268 H 0.78218 0.77912 0.44483
 H1269 H 0.80012 0.79461 0.41872
 H1270 H 0.78180 0.76344 0.47792
 H1271 H 0.81849 0.81186 0.39954
 H1272 H 0.81708 0.73594 0.47894
 C1273 C 0.66978 0.32069 0.65053
 C1274 C 0.67930 0.32960 0.63505
 C1275 C 0.68623 0.31942 0.61727
 C1276 C 0.70018 0.32843 0.60555
 C1277 C 0.70791 0.31915 0.58916
 C1278 C 0.70185 0.30055 0.58413
 C1279 C 0.68723 0.29186 0.59529
 C1280 C 0.67949 0.30115 0.61173
 C1281 C 0.71052 0.28995 0.56745
 C1282 C 0.72947 0.29337 0.56100
 H1283 H 0.68258 0.34469 0.63625
 H1284 H 0.70537 0.34263 0.60924
 H1285 H 0.71856 0.32666 0.58045
 H1286 H 0.68204 0.27770 0.59148
 H1287 H 0.66825 0.29392 0.61988
 H1288 H 0.70227 0.27837 0.56090
 H1289 H 0.66583 0.30578 0.64940
 H1290 H 0.73836 0.30395 0.56836
 C1291 C 0.67671 0.83174 1.12443
 C1292 C 0.67485 0.81395 1.11522
 C1293 C 0.68624 0.80813 1.09770
 C1294 C 0.68774 0.78859 1.09325
 C1295 C 0.69845 0.78228 1.07708
 C1296 C 0.70777 0.79544 1.06479
 C1297 C 0.70644 0.81498 1.06925
 C1298 C 0.69562 0.82132 1.08542
 C1299 C 0.71902 0.78897 1.04746
 C1300 C 0.71386 0.77248 1.03720
 H1301 H 0.66592 0.80314 1.12202
 H1302 H 0.68078 0.77809 1.10246
 H1303 H 0.69965 0.76706 1.07447
 H1304 H 0.71351 0.82538 1.06001
 H1305 H 0.69450 0.83654 1.08798
 H1306 H 0.73113 0.79756 1.04241
 H1307 H 0.68709 0.84191 1.11876
 H1308 H 0.70077 0.76487 1.04134
 C1309 C 0.14629 0.32978 1.11746
 C1310 C 0.14842 0.31056 1.11223
 C1311 C 0.15957 0.30395 1.09484
 C1312 C 0.15777 0.28485 1.08870
 C1313 C 0.16902 0.27767 1.07323
 C1314 C 0.18241 0.28953 1.06352
 C1315 C 0.18419 0.30863 1.06965
 C1316 C 0.17299 0.31578 1.08511
 C1317 C 0.19543 0.28253 1.04767
 C1318 C 0.19322 0.26502 1.03800
 H1319 H 0.14265 0.29976 1.12187
 H1320 H 0.14780 0.27533 1.09611
 H1321 H 0.16745 0.26275 1.06940
 H1322 H 0.19455 0.31803 1.06263
 H1323 H 0.17548 0.33038 1.08967
 H1324 H 0.20735 0.29172 1.04332
 H1325 H 0.15173 0.34075 1.10791
 H1326 H 0.18105 0.25579 1.04126
 C1327 C 0.15807 0.83781 0.60121
 C1328 C 0.15231 0.82073 0.59213
 C1329 C 0.16291 0.81206 0.57536
 C1330 C 0.16105 0.79235 0.57176
 C1331 C 0.17144 0.78350 0.55656
 C1332 C 0.18378 0.79430 0.54452
 C1333 C 0.18525 0.81406 0.54784
 C1334 C 0.17485 0.82289 0.56296
 C1335 C 0.19607 0.78558 0.52904
 C1336 C 0.19311 0.76746 0.52082
 H1337 H 0.14003 0.81288 0.59785
 H1338 H 0.15187 0.78369 0.58103
 H1339 H 0.17013 0.76820 0.55471
 H1340 H 0.19455 0.82273 0.53869
 H1341 H 0.17617 0.83820 0.56470
 H1342 H 0.20800 0.79415 0.52354
 H1343 H 0.17037 0.84558 0.59542
 H1344 H 0.18065 0.75893 0.52493
 C1345 C 0.31945 0.68367 0.60591
 C1346 C 0.30678 0.67695 0.59151
 C1347 C 0.29749 0.68935 0.57692
 C1348 C 0.27966 0.68351 0.56902
 C1349 C 0.27035 0.69449 0.55501
 C1350 C 0.27896 0.71143 0.54818
 C1351 C 0.29675 0.71737 0.55622
 C1352 C 0.30600 0.70644 0.57043
 C1353 C 0.26969 0.72323 0.53294
 C1354 C 0.25535 0.71614 0.52047
 H1355 H 0.30270 0.66204 0.59116
 H1356 H 0.27274 0.67048 0.57390
 H1357 H 0.25633 0.68966 0.54988
 H1358 H 0.30367 0.73038 0.55129
 H1359 H 0.31994 0.71119 0.57591
 H1360 H 0.27468 0.73780 0.53116
 H1361 H 0.32365 0.69858 0.60599
 H1362 H 0.25085 0.70138 0.52126
 C1363 C 0.33926 0.19623 1.11528
 C1364 C 0.32793 0.18876 1.10008
 C1365 C 0.31591 0.20013 1.08651
 C1366 C 0.30636 0.19037 1.07134
 C1367 C 0.29405 0.20001 1.05865
 C1368 C 0.29089 0.21975 1.06088
 C1369 C 0.30078 0.22967 1.07572
 C1370 C 0.31306 0.21998 1.08854
 C1371 C 0.27783 0.23030 1.04763
 C1372 C 0.26223 0.22156 1.03803
 H1373 H 0.32780 0.17343 1.09788
 H1374 H 0.30834 0.17512 1.06932
 H1375 H 0.28727 0.19196 1.04698
 H1376 H 0.29873 0.24492 1.07761
 H1377 H 0.31995 0.22810 1.10006
 H1378 H 0.28029 0.24546 1.04573
 H1379 H 0.34151 0.21147 1.11660
 H1380 H 0.25868 0.20680 1.04098
 C1381 C 0.81289 0.67793 1.12880
 C1382 C 0.81865 0.68991 1.11368
 C1383 C 0.80581 0.69512 1.09730
 C1384 C 0.80927 0.71245 1.08788
 C1385 C 0.79777 0.71800 1.07224
 C1386 C 0.78277 0.70607 1.06524
 C1387 C 0.77913 0.68879 1.07479
 C1388 C 0.79059 0.68328 1.09063
 C1389 C 0.77057 0.71163 1.04841
 C1390 C 0.77732 0.72440 1.03448
 H1391 H 0.83292 0.69642 1.11400
 H1392 H 0.82077 0.72189 1.09283
 H1393 H 0.80057 0.73183 1.06595
 H1394 H 0.76760 0.67940 1.06981
 H1395 H 0.78774 0.66961 1.09727
 H1396 H 0.75602 0.70579 1.04711
 H1397 H 0.79856 0.67153 1.12829
 H1398 H 0.79219 0.72946 1.03516
 C1399 C 0.83571 0.16510 0.62192
 C1400 C 0.81620 0.16952 0.61863
 C1401 C 0.80972 0.18335 0.60378
 C1402 C 0.78994 0.18388 0.59881
 C1403 C 0.78298 0.19746 0.58577
 C1404 C 0.79573 0.21084 0.57736
 C1405 C 0.81546 0.21042 0.58247
 C1406 C 0.82241 0.19689 0.59553
 C1407 C 0.78904 0.22580 0.56381
 C1408 C 0.77131 0.22504 0.55402
 H1409 H 0.80519 0.16342 0.62805
 H1410 H 0.77978 0.17389 0.60523
 H1411 H 0.76755 0.19760 0.58279
 H1412 H 0.82555 0.22072 0.57645
 H1413 H 0.83761 0.19758 0.59945
 H1414 H 0.79876 0.23766 0.56097
 H1415 H 0.84689 0.17087 0.61254
 H1416 H 0.76172 0.21291 0.55570
 C1417 C 0.67138 0.68362 0.39455
 C1418 C 0.68487 0.67205 0.40408
 C1419 C 0.69527 0.67820 0.42198
 C1420 C 0.71325 0.66980 0.42634
 C1421 C 0.72371 0.67551 0.44287
 C1422 C 0.71621 0.68965 0.45558
 C1423 C 0.69802 0.69772 0.45141
 C1424 C 0.68760 0.69204 0.43489
 C1425 C 0.72698 0.69695 0.47284
 C1426 C 0.74387 0.68873 0.48036
 H1427 H 0.68849 0.65817 0.39807
 H1428 H 0.71943 0.65903 0.41670
 H1429 H 0.73775 0.66904 0.44528
 H1430 H 0.69181 0.70854 0.46097
 H1431 H 0.67348 0.69839 0.43249
 H1432 H 0.72133 0.70969 0.47995
 H1433 H 0.66813 0.69760 0.40060
 H1434 H 0.74967 0.67563 0.47423
 C1435 C 0.66770 0.16580 -0.11230
 C1436 C 0.68008 0.15985 -0.09746
 C1437 C 0.68512 0.17240 -0.08068
 C1438 C 0.70269 0.16946 -0.07084
 C1439 C 0.70814 0.18142 -0.05532
 C1440 C 0.69599 0.19660 -0.04925
 C1441 C 0.67810 0.19907 -0.05870
 C1442 C 0.67267 0.18711 -0.07415
 C1443 C 0.70117 0.21019 -0.03331
 C1444 C 0.71924 0.21082 -0.02411
 H1445 H 0.68673 0.14586 -0.09827
 H1446 H 0.71239 0.15803 -0.07536
 H1447 H 0.72184 0.17858 -0.04829
 H1448 H 0.66828 0.21039 -0.05416
 H1449 H 0.65859 0.18935 -0.08072
 H1450 H 0.69030 0.22062 -0.02895
 H1451 H 0.66168 0.18006 -0.11150
 H1452 H 0.73061 0.20086 -0.02805
 C1453 C 0.20204 0.65189 -0.13596
 C1454 C 0.19163 0.66301 -0.12246
 C1455 C 0.20052 0.67390 -0.10611
 C1456 C 0.18903 0.68753 -0.09629
 C1457 C 0.19680 0.69877 -0.08131
 C1458 C 0.21637 0.69665 -0.07581
 C1459 C 0.22769 0.68257 -0.08511
 C1460 C 0.21992 0.67132 -0.10014
 C1461 C 0.22535 0.70871 -0.06044
 C1462 C 0.21836 0.72679 -0.05526
 H1463 H 0.17605 0.66439 -0.12427
 H1464 H 0.17397 0.68966 -0.10037
 H1465 H 0.18735 0.70895 -0.07402
 H1466 H 0.24272 0.68044 -0.08092
 H1467 H 0.22923 0.66069 -0.10686
 H1468 H 0.23865 0.70366 -0.05379
 H1469 H 0.21742 0.64941 -0.13400
 H1470 H 0.20584 0.73269 -0.06256
 C1471 C 0.17274 0.17109 0.35267
 C1472 C 0.16957 0.18882 0.36173
 C1473 C 0.18157 0.19658 0.37793
 C1474 C 0.18011 0.21612 0.38247
 C1475 C 0.19106 0.22420 0.39756
 C1476 C 0.20365 0.21283 0.40862
 C1477 C 0.20519 0.19330 0.40408
 C1478 C 0.19415 0.18518 0.38902
 C1479 C 0.21568 0.22100 0.42453
 C1480 C 0.21046 0.23752 0.43484
 H1481 H 0.15851 0.19814 0.35594
 H1482 H 0.17059 0.22527 0.37417
 H1483 H 0.18988 0.23942 0.40020
 H1484 H 0.21480 0.18424 0.41238
 H1485 H 0.19543 0.16999 0.38639
 H1486 H 0.22874 0.21341 0.42868
 H1487 H 0.18505 0.16253 0.35696
 H1488 H 0.19673 0.24446 0.43192
 C1489 C 0.35127 0.35944 0.64790
 C1490 C 0.33245 0.36672 0.64588
 C1491 C 0.32553 0.38470 0.65523
 C1492 C 0.30772 0.39235 0.64916
 C1493 C 0.29996 0.40863 0.65822
 C1494 C 0.30992 0.41770 0.67364
 C1495 C 0.32772 0.41005 0.67974
 C1496 C 0.33548 0.39374 0.67068
 C1497 C 0.30171 0.43432 0.68443
 C1498 C 0.28665 0.44563 0.67735
 H1499 H 0.32191 0.35861 0.63754
 H1500 H 0.29960 0.38554 0.63750
 H1501 H 0.28591 0.41359 0.65342
 H1502 H 0.33556 0.41657 0.69175
 H1503 H 0.34894 0.38811 0.67630
 H1504 H 0.30765 0.43766 0.69867
 H1505 H 0.36191 0.36730 0.65631
 H1506 H 0.28113 0.44334 0.66278
 C1507 C 0.33802 0.88760 0.14624
 C1508 C 0.33837 0.89457 0.16539
 C1509 C 0.32763 0.91183 0.17206
 C1510 C 0.32398 0.91419 0.19207
 C1511 C 0.31387 0.93014 0.19912
 C1512 C 0.30734 0.94428 0.18628
 C1513 C 0.31088 0.94192 0.16625
 C1514 C 0.32107 0.92597 0.15918
 C1515 C 0.29656 0.96134 0.19335
 C1516 C 0.29890 0.96873 0.21214
 H1517 H 0.34560 0.88627 0.17643
 H1518 H 0.32878 0.90352 0.20231
 H1519 H 0.31089 0.93110 0.21459
 H1520 H 0.30599 0.95260 0.15607
 H1521 H 0.32397 0.92499 0.14371
 H1522 H 0.28706 0.96864 0.18330
 H1523 H 0.32906 0.89470 0.13561
 H1524 H 0.30950 0.96246 0.22178
 C1525 C 0.81501 0.38892 0.18251
 C1526 C 0.79614 0.39601 0.18016
 C1527 C 0.78914 0.41346 0.19047
 C1528 C 0.77371 0.42396 0.18260
 C1529 C 0.76668 0.44038 0.19213
 C1530 C 0.77487 0.44647 0.20992
 C1531 C 0.79017 0.43582 0.21782
 C1532 C 0.79715 0.41947 0.20833
 C1533 C 0.76814 0.46363 0.22088
 C1534 C 0.75127 0.47401 0.21689
 H1535 H 0.78606 0.38875 0.17056
 H1536 H 0.76718 0.41955 0.16893
 H1537 H 0.75501 0.44821 0.18538
 H1538 H 0.79665 0.44004 0.23158
 H1539 H 0.80853 0.41141 0.21532
 H1540 H 0.77669 0.46793 0.23342
 H1541 H 0.82505 0.39688 0.19160
 H1542 H 0.74197 0.47009 0.20483
 C1543 C 0.83644 0.85827 0.70119
 C1544 C 0.82441 0.87161 0.69216
 C1545 C 0.81619 0.88876 0.70209
 C1546 C 0.79998 0.89762 0.69375
 C1547 C 0.79154 0.91373 0.70249
 C1548 C 0.79935 0.92161 0.71973
 C1549 C 0.81560 0.91277 0.72809
 C1550 C 0.82402 0.89658 0.71934
 C1551 C 0.79053 0.93848 0.72967
 C1552 C 0.77804 0.95115 0.72035
 H1553 H 0.82027 0.86927 0.67713
 H1554 H 0.79359 0.89188 0.68052
 H1555 H 0.77867 0.91960 0.69584
 H1556 H 0.82188 0.91848 0.74138
 H1557 H 0.83677 0.89052 0.72606
 H1558 H 0.79399 0.94100 0.74488
 H1559 H 0.84096 0.86070 0.71608
 H1560 H 0.77518 0.94953 0.70495
 C1561 C 0.67027 0.61869 0.70623
 C1562 C 0.68437 0.60494 0.70161
 C1563 C 0.69172 0.59071 0.71572
 C1564 C 0.70147 0.57449 0.70848
 C1565 C 0.70865 0.56067 0.72113
 C1566 C 0.70640 0.56286 0.74142
 C1567 C 0.69660 0.57901 0.74870
 C1568 C 0.68950 0.59290 0.73605
 C1569 C 0.71379 0.54846 0.75527
 C1570 C 0.72954 0.53656 0.75092
 H1571 H 0.68944 0.60362 0.68672
 H1572 H 0.70338 0.57238 0.69292
 H1573 H 0.71562 0.54816 0.71490
 H1574 H 0.69469 0.58104 0.76427
 H1575 H 0.68258 0.60537 0.74237
 H1576 H 0.70724 0.54785 0.76964
 H1577 H 0.66378 0.61872 0.72061
 H1578 H 0.73722 0.53806 0.73722
 C1579 C 0.68605 0.09558 0.19067
 C1580 C 0.70523 0.08907 0.18867
 C1581 C 0.71307 0.07262 0.19959
 C1582 C 0.72976 0.06323 0.19252
 C1583 C 0.73786 0.04795 0.20269
 C1584 C 0.72947 0.04188 0.22032
 C1585 C 0.71281 0.05133 0.22737
 C1586 C 0.70475 0.06657 0.21724
 C1587 C 0.73738 0.02597 0.23199
 C1588 C 0.75535 0.01706 0.22881
 H1589 H 0.71510 0.09620 0.17883
 H1590 H 0.73653 0.06769 0.17902
 H1591 H 0.75055 0.04100 0.19657
 H1592 H 0.70610 0.04707 0.24098
 H1593 H 0.69231 0.07377 0.22362
 H1594 H 0.72875 0.02147 0.24438
 H1595 H 0.67619 0.08810 0.20028
 H1596 H 0.76472 0.02120 0.21689
 C1597 C 0.17122 0.62447 0.15886
 C1598 C 0.18647 0.61301 0.15198
 C1599 C 0.19489 0.59756 0.16386
 C1600 C 0.20348 0.58172 0.15453
 C1601 C 0.21095 0.56663 0.16543
 C1602 C 0.21016 0.56727 0.18593
 C1603 C 0.20194 0.58329 0.19521
 C1604 C 0.19454 0.59835 0.18435
 C1605 C 0.21706 0.55141 0.19818
 C1606 C 0.23025 0.53746 0.19191
 H1607 H 0.19152 0.61440 0.13711
 H1608 H 0.20400 0.58083 0.13877
 H1609 H 0.21684 0.55438 0.15771
 H1610 H 0.20128 0.58420 0.21098
 H1611 H 0.18872 0.61062 0.19210
 H1612 H 0.21204 0.55114 0.21317
 H1613 H 0.16482 0.62123 0.17289
 H1614 H 0.23657 0.53798 0.17747
 C1615 C 0.17493 0.14104 0.65241
 C1616 C 0.17575 0.13506 0.67175
 C1617 C 0.18584 0.11758 0.67827
 C1618 C 0.18111 0.11046 0.69672
 C1619 C 0.18963 0.09372 0.70344
 C1620 C 0.20312 0.08364 0.69180
 C1621 C 0.20850 0.09112 0.67367
 C1622 C 0.19990 0.10790 0.66688
 C1623 C 0.21189 0.06556 0.69847
 C1624 C 0.20190 0.05332 0.71092
 H1625 H 0.16796 0.14325 0.68274
 H1626 H 0.17060 0.11779 0.70594
 H1627 H 0.18572 0.08883 0.71785
 H1628 H 0.21916 0.08380 0.66463
 H1629 H 0.20446 0.11319 0.65285
 H1630 H 0.22617 0.06155 0.69306
 H1631 H 0.18318 0.13360 0.64124
 H1632 H 0.18705 0.05656 0.71511
 C1633 C 0.32708 0.60970 0.32035
 C1634 C 0.32727 0.60474 0.30058
 C1635 C 0.31620 0.58830 0.29251
 C1636 C 0.32110 0.58110 0.27396
 C1637 C 0.31014 0.56644 0.26536
 C1638 C 0.29396 0.55872 0.27519
 C1639 C 0.28909 0.56594 0.29371
 C1640 C 0.30001 0.58056 0.30229
 C1641 C 0.28110 0.54401 0.26641
 C1642 C 0.28570 0.53311 0.24987
 H1643 H 0.33502 0.61367 0.29036
 H1644 H 0.33330 0.58703 0.26599
 H1645 H 0.31414 0.56166 0.25086
 H1646 H 0.27654 0.56047 0.30149
 H1647 H 0.29519 0.58612 0.31625
 H1648 H 0.26719 0.54158 0.27349
 H1649 H 0.31973 0.60052 0.33061
 H1650 H 0.29978 0.53433 0.24291
 C1651 C 0.31747 0.10852 0.82980
 C1652 C 0.29754 0.10463 0.82844
 C1653 C 0.28933 0.08964 0.81544
 C1654 C 0.27024 0.08324 0.81875
 C1655 C 0.26164 0.06977 0.80626
 C1656 C 0.27200 0.06252 0.79007
 C1657 C 0.29109 0.06893 0.78682
 C1658 C 0.29965 0.08237 0.79925
 C1659 C 0.26357 0.04884 0.77578
 C1660 C 0.24490 0.04093 0.77682
 H1661 H 0.28732 0.11317 0.83681
 H1662 H 0.26190 0.08876 0.83101
 H1663 H 0.24687 0.06540 0.80933
 H1664 H 0.29937 0.06375 0.77437
 H1665 H 0.31412 0.08734 0.79568
 H1666 H 0.27263 0.04498 0.76337
 H1667 H 0.32771 0.09985 0.82162
 H1668 H 0.23534 0.04394 0.78900
 C1669 C 0.85051 0.61853 0.84040
 C1670 C 0.83469 0.60829 0.84779
 C1671 C 0.82565 0.59184 0.83742
 C1672 C 0.81423 0.57902 0.84813
 C1673 C 0.80509 0.56356 0.83893
 C1674 C 0.80700 0.56069 0.81868
 C1675 C 0.81864 0.57332 0.80798
 C1676 C 0.82773 0.58885 0.81718
 C1677 C 0.79694 0.54482 0.80838
 C1678 C 0.77937 0.53730 0.81505
 H1679 H 0.82930 0.61167 0.86225
 H1680 H 0.81242 0.58093 0.86372
 H1681 H 0.79672 0.55380 0.84777
 H1682 H 0.82032 0.57142 0.79238
 H1683 H 0.83595 0.59862 0.80824
 H1684 H 0.80272 0.53996 0.79447
 H1685 H 0.85725 0.61375 0.82694
 H1686 H 0.77263 0.54320 0.82807
 C1687 C 0.81746 0.11562 0.34706
 C1688 C 0.82064 0.10696 0.32890
 C1689 C 0.81324 0.08772 0.32361
 C1690 C 0.82180 0.07807 0.30775
 C1691 C 0.81485 0.06024 0.30170
 C1692 C 0.79910 0.05162 0.31143
 C1693 C 0.79038 0.06135 0.32716
 C1694 C 0.79736 0.07920 0.33324
 C1695 C 0.79064 0.03324 0.30472
 C1696 C 0.80087 0.02016 0.29316
 H1697 H 0.82880 0.11452 0.31788
 H1698 H 0.83382 0.08445 0.29987
 H1699 H 0.82153 0.05363 0.28903
 H1700 H 0.77799 0.05520 0.33465
 H1701 H 0.78986 0.08641 0.34507
 H1702 H 0.77566 0.03015 0.30860
 H1703 H 0.80940 0.10802 0.35811
 H1704 H 0.81614 0.02242 0.29003
 C1705 C 0.68404 0.38754 0.34165
 C1706 C 0.67489 0.40099 0.32989
 C1707 C 0.68485 0.41782 0.32155
 C1708 C 0.67672 0.42633 0.30508
 C1709 C 0.68570 0.44196 0.29634
 C1710 C 0.70295 0.44971 0.30413
 C1711 C 0.71101 0.44130 0.32073
 C1712 C 0.70204 0.42558 0.32944
 C1713 C 0.71329 0.46590 0.29490
 C1714 C 0.70460 0.47802 0.28148
 H1715 H 0.65983 0.39882 0.32589
 H1716 H 0.66352 0.42061 0.29868
 H1717 H 0.67924 0.44752 0.28325
 H1718 H 0.72429 0.44695 0.32701
 H1719 H 0.70854 0.41978 0.34241
 H1720 H 0.72840 0.46827 0.29874
 H1721 H 0.69894 0.38979 0.34613
 H1722 H 0.68931 0.47665 0.27811
 C1723 C 0.66569 0.87174 0.82724
 C1724 C 0.66433 0.88047 0.80902
 C1725 C 0.67701 0.89649 0.80272
 C1726 C 0.67081 0.90806 0.78735
 C1727 C 0.68241 0.92311 0.78068
 C1728 C 0.70071 0.92679 0.78912
 C1729 C 0.70688 0.91521 0.80449
 C1730 C 0.69527 0.90019 0.81117
 C1731 C 0.71373 0.94245 0.78254
 C1732 C 0.71148 0.95240 0.76512
 H1733 H 0.65343 0.87561 0.79879
 H1734 H 0.65683 0.90553 0.78054
 H1735 H 0.67681 0.93183 0.76909
 H1736 H 0.72091 0.91765 0.81124
 H1737 H 0.70093 0.89134 0.82265
 H1738 H 0.72619 0.94584 0.79157
 H1739 H 0.67653 0.87680 0.83744
 H1740 H 0.69970 0.94898 0.75531
 C1741 C 0.18563 0.37745 0.81167
 C1742 C 0.18586 0.37957 0.79142
 C1743 C 0.19793 0.39388 0.78109
 C1744 C 0.19320 0.39844 0.76181
 C1745 C 0.20419 0.41179 0.75145
 C1746 C 0.22025 0.42088 0.76022
 C1747 C 0.22520 0.41602 0.77936
 C1748 C 0.21423 0.40268 0.78970
 C1749 C 0.23243 0.43519 0.75004
 C1750 C 0.22736 0.44408 0.73264
 H1751 H 0.17670 0.37046 0.78253
 H1752 H 0.18090 0.39167 0.75472
 H1753 H 0.20010 0.41467 0.73659
 H1754 H 0.23765 0.42258 0.78640
 H1755 H 0.21888 0.39915 0.80425
 H1756 H 0.24586 0.43949 0.75707
 H1757 H 0.19490 0.38634 0.82066
 H1758 H 0.21382 0.44074 0.72542
 C1759 C 0.17803 0.90240 0.31767
 C1760 C 0.17782 0.90943 0.29871
 C1761 C 0.19088 0.92499 0.29232
 C1762 C 0.18548 0.93617 0.27641
 C1763 C 0.19786 0.95046 0.26950
 C1764 C 0.21613 0.95360 0.27822
 C1765 C 0.22143 0.94252 0.29424
 C1766 C 0.20904 0.92828 0.30116
 C1767 C 0.23009 0.96811 0.27108
 C1768 C 0.22927 0.97601 0.25254
 H1769 H 0.16817 0.90321 0.28797
 H1770 H 0.17158 0.93388 0.26934
 H1771 H 0.19291 0.95900 0.25748
 H1772 H 0.23541 0.94460 0.30119
 H1773 H 0.21404 0.91956 0.31305
 H1774 H 0.24214 0.97197 0.28047
 H1775 H 0.18729 0.90927 0.32836
 H1776 H 0.21791 0.97191 0.24249
 C1777 C 0.39117 0.30049 0.65619
 C1778 C 0.39485 0.30389 0.67596
 C1779 C 0.40925 0.29331 0.68773
 C1780 C 0.40937 0.29645 0.70798
 C1781 C 0.42283 0.28720 0.71979
 C1782 C 0.43660 0.27462 0.71156
 C1783 C 0.43637 0.27126 0.69137
 C1784 C 0.42297 0.28061 0.67951
 C1785 C 0.45105 0.26457 0.72365
 C1786 C 0.45771 0.27182 0.74143
 H1787 H 0.38619 0.31450 0.68361
 H1788 H 0.39895 0.30609 0.71474
 H1789 H 0.42216 0.28972 0.73535
 H1790 H 0.44681 0.26157 0.68471
 H1791 H 0.42370 0.27794 0.66400
 H1792 H 0.45734 0.25147 0.71790
 H1793 H 0.39810 0.28863 0.64874
 H1794 H 0.45279 0.28563 0.74667
 C1795 C 0.38831 0.83536 0.15431
 C1796 C 0.39250 0.83857 0.17400
 C1797 C 0.40757 0.82774 0.18465
 C1798 C 0.41546 0.83562 0.20177
 C1799 C 0.42930 0.82556 0.21251
 C1800 C 0.43536 0.80723 0.20641
 C1801 C 0.42740 0.79938 0.18931
 C1802 C 0.41362 0.80942 0.17860
 C1803 C 0.44979 0.79569 0.21721
 C1804 C 0.45699 0.80022 0.23571
 H1805 H 0.38437 0.84921 0.18217
 H1806 H 0.41096 0.84965 0.20682
 H1807 H 0.43515 0.83233 0.22543
 H1808 H 0.43168 0.78526 0.18431
 H1809 H 0.40744 0.80250 0.16590
 H1810 H 0.45463 0.78249 0.21035
 H1811 H 0.39681 0.82498 0.14617
 H1812 H 0.45238 0.81301 0.24335
 C1813 C 0.86434 0.33627 0.18343
 C1814 C 0.87125 0.34003 0.20223
 C1815 C 0.88785 0.32967 0.21096
 C1816 C 0.88977 0.32976 0.23132
 C1817 C 0.90487 0.31976 0.24022
 C1818 C 0.91852 0.30956 0.22886
 C1819 C 0.91675 0.30962 0.20852
 C1820 C 0.90173 0.31972 0.19961
 C1821 C 0.93429 0.29822 0.23773
 C1822 C 0.94192 0.30220 0.25613
 H1823 H 0.86333 0.34985 0.21159
 H1824 H 0.87933 0.33732 0.24042
 H1825 H 0.90547 0.31968 0.25596
 H1826 H 0.92713 0.30193 0.19946
 H1827 H 0.90124 0.31976 0.18387
 H1828 H 0.94062 0.28671 0.22912
 H1829 H 0.87107 0.32501 0.17487
 H1830 H 0.93691 0.31455 0.26434
 C1831 C 0.88505 0.80475 0.69751
 C1832 C 0.89915 0.81322 0.70943
 C1833 C 0.91658 0.80288 0.71632
 C1834 C 0.92559 0.80906 0.73357
 C1835 C 0.94208 0.79973 0.74058
 C1836 C 0.95016 0.78414 0.73023
 C1837 C 0.94119 0.77804 0.71292
 C1838 C 0.92466 0.78734 0.70595
 C1839 C 0.96752 0.77365 0.73716
 C1840 C 0.98036 0.78088 0.75112
 H1841 H 0.89735 0.82782 0.71438
 H1842 H 0.91966 0.82100 0.74183
 H1843 H 0.94811 0.80464 0.75425
 H1844 H 0.94711 0.76611 0.70463
 H1845 H 0.91854 0.78249 0.69227
 H1846 H 0.97053 0.75976 0.73071
 H1847 H 0.88693 0.79001 0.69302
 H1848 H 0.97833 0.79505 0.75719
 C1849 C 0.63399 0.33632 0.33290
 C1850 C 0.62786 0.31728 0.33386
 C1851 C 0.61261 0.30921 0.32095
 C1852 C 0.60211 0.29308 0.32696
 C1853 C 0.58768 0.28507 0.31506
 C1854 C 0.58365 0.29297 0.29673
 C1855 C 0.59435 0.30894 0.29067
 C1856 C 0.60873 0.31692 0.30253
 C1857 C 0.56838 0.28542 0.28351
 C1858 C 0.55855 0.26808 0.28580
 H1859 H 0.63422 0.30782 0.34442
 H1860 H 0.60493 0.28679 0.34103
 H1861 H 0.57967 0.27292 0.32045
 H1862 H 0.59168 0.31524 0.27657
 H1863 H 0.61696 0.32888 0.29699
 H1864 H 0.56497 0.29395 0.27088
 H1865 H 0.62706 0.34569 0.32259
 H1866 H 0.56179 0.25876 0.29780
 C1867 C 0.60575 0.82942 0.82195
 C1868 C 0.60061 0.83387 0.80284
 C1869 C 0.58328 0.82564 0.79301
 C1870 C 0.58293 0.82500 0.77257
 C1871 C 0.56743 0.81639 0.76270
 C1872 C 0.55179 0.80839 0.77312
 C1873 C 0.55192 0.80937 0.79353
 C1874 C 0.56737 0.81808 0.80341
 C1875 C 0.53573 0.79811 0.76322
 C1876 C 0.53037 0.80162 0.74402
 H1877 H 0.61057 0.84211 0.79402
 H1878 H 0.59496 0.83072 0.76419
 H1879 H 0.56810 0.81552 0.74696
 H1880 H 0.54001 0.80337 0.80188
 H1881 H 0.56667 0.81883 0.81914
 H1882 H 0.52767 0.78758 0.77146
 H1883 H 0.59671 0.81963 0.83004
 H1884 H 0.53715 0.81314 0.73607
 C1885 C 0.12735 0.33458 0.81429
 C1886 C 0.11922 0.31680 0.81858
 C1887 C 0.10183 0.30866 0.80877
 C1888 C 0.09774 0.28922 0.81142
 C1889 C 0.08147 0.28079 0.80279
 C1890 C 0.06871 0.29167 0.79142
 C1891 C 0.07289 0.31103 0.78845
 C1892 C 0.08917 0.31954 0.79718
 C1893 C 0.05121 0.28297 0.78242
 C1894 C 0.04146 0.26785 0.79120
 H1895 H 0.12658 0.30775 0.82890
 H1896 H 0.10725 0.28045 0.82014
 H1897 H 0.07910 0.26566 0.80487
 H1898 H 0.06332 0.31968 0.77966
 H1899 H 0.09149 0.33463 0.79499
 H1900 H 0.04566 0.28884 0.76900
 H1901 H 0.12130 0.34294 0.80265
 H1902 H 0.04608 0.26307 0.80541
 C1903 C 0.12609 0.85265 0.30852
 C1904 C 0.12205 0.83312 0.30698
 C1905 C 0.10584 0.82493 0.29537
 C1906 C 0.10644 0.80541 0.29055
 C1907 C 0.09124 0.79680 0.28025
 C1908 C 0.07488 0.80751 0.27472
 C1909 C 0.07443 0.82712 0.27914
 C1910 C 0.08966 0.83576 0.28950
 C1911 C 0.05812 0.79854 0.26458
 C1912 C 0.05323 0.77938 0.26713
 H1913 H 0.13190 0.82313 0.31373
 H1914 H 0.11875 0.79675 0.29477
 H1915 H 0.09245 0.78179 0.27655
 H1916 H 0.06202 0.83569 0.27500
 H1917 H 0.08841 0.85075 0.29321
 H1918 H 0.04863 0.80752 0.25606
 H1919 H 0.11779 0.86265 0.29999
 H1920 H 0.06168 0.77071 0.27694
 C1921 C 0.61729 0.66376 0.68959
 C1922 C 0.61140 0.68133 0.68208
 C1923 C 0.59332 0.69149 0.68789
 C1924 C 0.59132 0.71072 0.68268
 C1925 C 0.57464 0.72103 0.68782
 C1926 C 0.55945 0.71224 0.69820
 C1927 C 0.56140 0.69301 0.70341
 C1928 C 0.57806 0.68265 0.69819
 C1929 C 0.54188 0.72289 0.70452
 C1930 C 0.53533 0.73938 0.69534
 H1931 H 0.62105 0.68872 0.67220
 H1932 H 0.60283 0.71791 0.67477
 H1933 H 0.57398 0.73597 0.68401
 H1934 H 0.54990 0.68594 0.71145
 H1935 H 0.57872 0.66777 0.70213
 H1936 H 0.53363 0.71736 0.71672
 H1937 H 0.60886 0.65720 0.70106
 H1938 H 0.54245 0.74439 0.68226
 C1939 C 0.63620 0.14698 0.18949
 C1940 C 0.63174 0.16635 0.18726
 C1941 C 0.61444 0.17594 0.19585
 C1942 C 0.60893 0.19377 0.18850
 C1943 C 0.59306 0.20371 0.19639
 C1944 C 0.58241 0.19607 0.21205
 C1945 C 0.58786 0.17817 0.21932
 C1946 C 0.60371 0.16822 0.21139
 C1947 C 0.56575 0.20615 0.22138
 C1948 C 0.56050 0.22509 0.21781
 H1949 H 0.64137 0.17518 0.17869
 H1950 H 0.61694 0.20006 0.17653
 H1951 H 0.58931 0.21726 0.19005
 H1952 H 0.57996 0.17194 0.23140
 H1953 H 0.60765 0.15475 0.21783
 H1954 H 0.55759 0.19839 0.23230
 H1955 H 0.62702 0.13807 0.19845
 H1956 H 0.56836 0.23359 0.20735
 C1957 C 0.11650 0.66954 0.15339
 C1958 C 0.10940 0.68809 0.15127
 C1959 C 0.09274 0.69551 0.16293
 C1960 C 0.09148 0.71523 0.16663
 C1961 C 0.07700 0.72260 0.17895
 C1962 C 0.06337 0.71036 0.18773
 C1963 C 0.06424 0.69074 0.18357
 C1964 C 0.07859 0.68339 0.17110
 C1965 C 0.04884 0.71746 0.20204
 C1966 C 0.04148 0.73599 0.20173
 H1967 H 0.11763 0.69820 0.14270
 H1968 H 0.10214 0.72490 0.16050
 H1969 H 0.07700 0.73777 0.18213
 H1970 H 0.05380 0.68105 0.19004
 H1971 H 0.07852 0.66821 0.16803
 H1972 H 0.04347 0.70764 0.21292
 H1973 H 0.10923 0.66012 0.16348
 H1974 H 0.04533 0.74541 0.18991
 C1975 C 0.11736 0.18528 0.66068
 C1976 C 0.11311 0.18120 0.68018
 C1977 C 0.09583 0.18894 0.69065
 C1978 C 0.08930 0.17999 0.70772
 C1979 C 0.07329 0.18719 0.71818
 C1980 C 0.06358 0.20365 0.71177
 C1981 C 0.07020 0.21260 0.69477
 C1982 C 0.08617 0.20547 0.68440
 C1983 C 0.04674 0.21230 0.72213
 C1984 C 0.03993 0.20733 0.74067
 H1985 H 0.12279 0.17213 0.68832
 H1986 H 0.09658 0.16732 0.71294
 H1987 H 0.06862 0.17978 0.73112
 H1988 H 0.06314 0.22540 0.68957
 H1989 H 0.09106 0.21330 0.67181
 H1990 H 0.03970 0.22411 0.71490
 H1991 H 0.10746 0.19410 0.65251
 H1992 H 0.04642 0.19576 0.74866
 C1993 C 0.37198 0.66593 0.31647
 C1994 C 0.37497 0.68569 0.31708
 C1995 C 0.39152 0.69543 0.30734
 C1996 C 0.39609 0.71421 0.31305
 C1997 C 0.41157 0.72399 0.30437
 C1998 C 0.42290 0.71514 0.28971
 C1999 C 0.41801 0.69656 0.28362
 C2000 C 0.40252 0.68678 0.29229
 C2001 C 0.43952 0.72490 0.28014
 C2002 C 0.44913 0.74064 0.28826
 H2003 H 0.36489 0.69458 0.32524
 H2004 H 0.38767 0.72136 0.32435
 H2005 H 0.41431 0.73853 0.30904
 H2006 H 0.42626 0.68953 0.27212
 H2007 H 0.39915 0.67263 0.28687
 H2008 H 0.44489 0.71899 0.26647
 H2009 H 0.38190 0.65696 0.30824
 H2010 H 0.44480 0.74621 0.30238
 C2011 C 0.37023 0.15614 0.83665
 C2012 C 0.37668 0.17490 0.83946
 C2013 C 0.39433 0.18255 0.82980
 C2014 C 0.40393 0.19830 0.83815
 C2015 C 0.42031 0.20622 0.82912
 C2016 C 0.42726 0.19867 0.81129
 C2017 C 0.41761 0.18293 0.80297
 C2018 C 0.40129 0.17501 0.81201
 C2019 C 0.44430 0.20664 0.80077
 C2020 C 0.45317 0.22407 0.80531
 H2021 H 0.36857 0.18453 0.84887
 H2022 H 0.39879 0.20443 0.85179
 H2023 H 0.42739 0.21812 0.83629
 H2024 H 0.42254 0.17688 0.78921
 H2025 H 0.39394 0.16331 0.80471
 H2026 H 0.44971 0.19864 0.78826
 H2027 H 0.37884 0.14655 0.82764
 H2028 H 0.44802 0.23278 0.81735
 C2029 C 0.90764 0.66130 0.84649
 C2030 C 0.91434 0.68015 0.84724
 C2031 C 0.93222 0.68700 0.83737
 C2032 C 0.93881 0.70555 0.84166
 C2033 C 0.95460 0.71335 0.83161
 C2034 C 0.96421 0.70268 0.81699
 C2035 C 0.95783 0.68402 0.81291
 C2036 C 0.94202 0.67623 0.82294
 C2037 C 0.97988 0.71081 0.80473
 C2038 C 0.98961 0.72787 0.80890
 H2039 H 0.90559 0.69086 0.85464
 H2040 H 0.93143 0.71424 0.85256
 H2041 H 0.95867 0.72792 0.83496
 H2042 H 0.96484 0.67556 0.80158
 H2043 H 0.93727 0.66208 0.81875
 H2044 H 0.98364 0.70313 0.79144
 H2045 H 0.91607 0.65045 0.83899
 H2046 H 0.98718 0.73541 0.82252
 C2047 C 0.86047 0.17259 0.33631
 C2048 C 0.87122 0.18800 0.34370
 C2049 C 0.88718 0.19750 0.33284
 C2050 C 0.90067 0.20862 0.34327
 C2051 C 0.91569 0.21819 0.33362
 C2052 C 0.91741 0.21704 0.31319
 C2053 C 0.90401 0.20581 0.30277
 C2054 C 0.88896 0.19625 0.31242
 C2055 C 0.93299 0.22711 0.30233
 C2056 C 0.94285 0.24307 0.30967
 H2057 H 0.86857 0.19279 0.35852
 H2058 H 0.89965 0.20982 0.35899
 H2059 H 0.92601 0.22622 0.34228
 H2060 H 0.90499 0.20468 0.28703
 H2061 H 0.87861 0.18826 0.30375
 H2062 H 0.93615 0.22233 0.28758
 H2063 H 0.86463 0.16625 0.32247
 H2064 H 0.93915 0.24888 0.32387
 C2065 C 0.34492 0.30373 0.60080
 C2066 C 0.33649 0.31369 0.58542
 C2067 C 0.32601 0.30445 0.56896
 C2068 C 0.31355 0.31572 0.55772
 C2069 C 0.30292 0.30768 0.54239
 C2070 C 0.30453 0.28808 0.53793
 C2071 C 0.31752 0.27693 0.54867
 C2072 C 0.32814 0.28498 0.56407
 C2073 C 0.29309 0.27895 0.52210
 C2074 C 0.27532 0.28620 0.51573
 H2075 H 0.33698 0.32913 0.58562
 H2076 H 0.31188 0.33082 0.56093
 H2077 H 0.29365 0.31693 0.53399
 H2078 H 0.31929 0.26188 0.54530
 H2079 H 0.33805 0.27587 0.57186
 H2080 H 0.29825 0.26551 0.51606
 H2081 H 0.34504 0.28829 0.60053
 H2082 H 0.26922 0.29885 0.52258
 C2083 C 0.34093 0.83175 0.10023
 C2084 C 0.32145 0.83261 0.09449
 C2085 C 0.31298 0.82124 0.07823
 C2086 C 0.29417 0.82584 0.07190
 C2087 C 0.28524 0.81530 0.05704
 C2088 C 0.29498 0.79985 0.04808
 C2089 C 0.31370 0.79510 0.05452
 C2090 C 0.32265 0.80565 0.06940
 C2091 C 0.28587 0.78789 0.03266
 C2092 C 0.26981 0.79363 0.02180
 H2093 H 0.31162 0.84190 0.10249
 H2094 H 0.28626 0.83760 0.07860
 H2095 H 0.27056 0.81911 0.05303
 H2096 H 0.32143 0.78311 0.04806
 H2097 H 0.33691 0.80117 0.07406
 H2098 H 0.29229 0.77405 0.02955
 H2099 H 0.35091 0.82222 0.09278
 H2100 H 0.26373 0.80776 0.02375
 C2101 C 0.81235 0.33349 0.13412
 C2102 C 0.79301 0.33494 0.12810
 C2103 C 0.78493 0.32201 0.11291
 C2104 C 0.76961 0.32821 0.10109
 C2105 C 0.76214 0.31628 0.08637
 C2106 C 0.76978 0.29780 0.08344
 C2107 C 0.78475 0.29152 0.09562
 C2108 C 0.79213 0.30336 0.11026
 C2109 C 0.76323 0.28475 0.06767
 C2110 C 0.74600 0.28670 0.05714
 H2111 H 0.78351 0.34565 0.13447
 H2112 H 0.76369 0.34245 0.10298
 H2113 H 0.75077 0.32177 0.07715
 H2114 H 0.79078 0.27730 0.09382
 H2115 H 0.80335 0.29772 0.11960
 H2116 H 0.77236 0.27246 0.06454
 H2117 H 0.82171 0.32325 0.12677
 H2118 H 0.73596 0.29820 0.06036
 C2119 C 0.82990 0.80678 0.65014
 C2120 C 0.83785 0.79341 0.63704
 C2121 C 0.82688 0.78399 0.62099
 C2122 C 0.83730 0.77326 0.60704
 C2123 C 0.82767 0.76374 0.59188
 C2124 C 0.80729 0.76466 0.59041
 C2125 C 0.79685 0.77550 0.60422
 C2126 C 0.80646 0.78494 0.61945
 C2127 C 0.79651 0.75491 0.57451
 C2128 C 0.80356 0.73891 0.56440
 H2129 H 0.85315 0.78996 0.63809
 H2130 H 0.85302 0.77228 0.60782
 H2131 H 0.83630 0.75596 0.58123
 H2132 H 0.78114 0.77647 0.60337
 H2133 H 0.79771 0.79264 0.63002
 H2134 H 0.78200 0.76002 0.57128
 H2135 H 0.81524 0.81188 0.64795
 H2136 H 0.81738 0.73266 0.56829
 C2137 C 0.31957 0.66190 0.36853
 C2138 C 0.31603 0.68136 0.37152
 C2139 C 0.30263 0.68879 0.38684
 C2140 C 0.30413 0.70799 0.39270
 C2141 C 0.29145 0.71564 0.40675
 C2142 C 0.27691 0.70417 0.41526
 C2143 C 0.27516 0.68510 0.40907
 C2144 C 0.28781 0.67746 0.39503
 C2145 C 0.26301 0.71159 0.43012
 C2146 C 0.26612 0.72823 0.44104
 H2147 H 0.32301 0.69163 0.36208
 H2148 H 0.31514 0.71713 0.38634
 H2149 H 0.29294 0.73058 0.41055
 H2150 H 0.26389 0.67604 0.41510
 H2151 H 0.28554 0.66284 0.39039
 H2152 H 0.25009 0.70320 0.43308
 H2153 H 0.31288 0.65163 0.37814
 H2154 H 0.27933 0.73642 0.43915
 C2155 C 0.31232 0.15789 0.88277
 C2156 C 0.31399 0.17687 0.88907
 C2157 C 0.30138 0.18523 0.90452
 C2158 C 0.30794 0.20127 0.91504
 C2159 C 0.29632 0.20960 0.92963
 C2160 C 0.27773 0.20215 0.93377
 C2161 C 0.27115 0.18623 0.92309
 C2162 C 0.28273 0.17793 0.90855
 C2163 C 0.26478 0.21016 0.94913
 C2164 C 0.26745 0.22784 0.95836
 H2165 H 0.32483 0.18608 0.88259
 H2166 H 0.32220 0.20723 0.91212
 H2167 H 0.30214 0.22164 0.93766
 H2168 H 0.25685 0.18027 0.92587
 H2169 H 0.27679 0.16606 0.90032
 H2170 H 0.25206 0.20183 0.95302
 H2171 H 0.30171 0.14873 0.88968
 H2172 H 0.27953 0.23697 0.95453
 C2173 C 0.85020 0.67295 0.88975
 C2174 C 0.83035 0.67724 0.88957
 C2175 C 0.82064 0.69022 0.90384
 C2176 C 0.80023 0.69030 0.90461
 C2177 C 0.79032 0.70207 0.91786
 C2178 C 0.80063 0.71406 0.93078
 C2179 C 0.82100 0.71457 0.92954
 C2180 C 0.83095 0.70277 0.91625
 C2181 C 0.79052 0.72599 0.94565
 C2182 C 0.77268 0.72054 0.95359
 H2183 H 0.82139 0.67088 0.87830
 H2184 H 0.79188 0.68110 0.89498
 H2185 H 0.77458 0.70183 0.91779
 H2186 H 0.82927 0.72392 0.93909
 H2187 H 0.84663 0.70377 0.91577
 H2188 H 0.79785 0.73852 0.95145
 H2189 H 0.85954 0.67939 0.90060
 H2190 H 0.76609 0.70720 0.94898
 C2191 C 0.80715 0.17360 0.38747
 C2192 C 0.81426 0.18877 0.39872
 C2193 C 0.80311 0.19795 0.41480
 C2194 C 0.80869 0.21626 0.42111
 C2195 C 0.79895 0.22533 0.43651
 C2196 C 0.78352 0.21611 0.44619
 C2197 C 0.77776 0.19790 0.43976
 C2198 C 0.78752 0.18881 0.42433
 C2199 C 0.77313 0.22517 0.46281
 C2200 C 0.78183 0.23889 0.47478
 H2201 H 0.82864 0.19436 0.39572
 H2202 H 0.82058 0.22364 0.41399
 H2203 H 0.80341 0.23963 0.44059
 H2204 H 0.76591 0.19053 0.44695
 H2205 H 0.78304 0.17450 0.42034
 H2206 H 0.75852 0.22033 0.46620
 H2207 H 0.79278 0.16799 0.39043
 H2208 H 0.79686 0.24288 0.47242
 C2209 C 0.67894 0.33468 0.39024
 C2210 C 0.69081 0.34311 0.40444
 C2211 C 0.69744 0.33271 0.42187
 C2212 C 0.71500 0.33808 0.43075
 C2213 C 0.72202 0.32812 0.44684
 C2214 C 0.71141 0.31266 0.45447
 C2215 C 0.69352 0.30779 0.44595
 C2216 C 0.68656 0.31770 0.42989
 C2217 C 0.71843 0.30082 0.47078
 C2218 C 0.73629 0.30304 0.48022
 H2219 H 0.69610 0.35752 0.40264
 H2220 H 0.72352 0.34978 0.42499
 H2221 H 0.73576 0.33255 0.45297
 H2222 H 0.68490 0.29612 0.45164
 H2223 H 0.67258 0.31363 0.42396
 H2224 H 0.70917 0.28904 0.47513
 H2225 H 0.67420 0.32008 0.39217
 H2226 H 0.74600 0.31467 0.47675
 C2227 C 0.65463 0.81731 0.87295
 C2228 C 0.67413 0.81419 0.87763
 C2229 C 0.68077 0.80242 0.89420
 C2230 C 0.70035 0.80381 0.89974
 C2231 C 0.70742 0.79335 0.91538
 C2232 C 0.69502 0.78123 0.92598
 C2233 C 0.67562 0.77922 0.92005
 C2234 C 0.66849 0.78975 0.90435
 C2235 C 0.70225 0.77046 0.94297
 C2236 C 0.71714 0.77773 0.95460
 H2237 H 0.68527 0.82087 0.86881
 H2238 H 0.71024 0.81313 0.89199
 H2239 H 0.72269 0.79466 0.91897
 H2240 H 0.66590 0.76969 0.92774
 H2241 H 0.65347 0.78770 0.90026
 H2242 H 0.69563 0.75687 0.94652
 H2243 H 0.64326 0.81037 0.88119
 H2244 H 0.72267 0.79194 0.95181
 C2245 C 0.17622 0.33649 0.86950
 C2246 C 0.17119 0.31909 0.87803
 C2247 C 0.17964 0.31211 0.89652
 C2248 C 0.16992 0.29756 0.90660
 C2249 C 0.17774 0.28995 0.92363
 C2250 C 0.19569 0.29659 0.93085
 C2251 C 0.20527 0.31133 0.92093
 C2252 C 0.19745 0.31894 0.90391
 C2253 C 0.20501 0.28850 0.94843
 C2254 C 0.20040 0.27061 0.95602
 H2255 H 0.16071 0.30989 0.87088
 H2256 H 0.15618 0.29204 0.90127
 H2257 H 0.16957 0.27900 0.93106
 H2258 H 0.21912 0.31671 0.92614
 H2259 H 0.20574 0.32976 0.89641
 H2260 H 0.21696 0.29643 0.95487
 H2261 H 0.18660 0.34572 0.87674
 H2262 H 0.18922 0.26189 0.94935
 C2263 C 0.17559 0.84815 0.36272
 C2264 C 0.16576 0.83550 0.37493
 C2265 C 0.17539 0.82552 0.39122
 C2266 C 0.16691 0.80876 0.39839
 C2267 C 0.17584 0.79855 0.41329
 C2268 C 0.19355 0.80492 0.42134
 C2269 C 0.20160 0.82209 0.41471
 C2270 C 0.19264 0.83233 0.39987
 C2271 C 0.20396 0.79427 0.43669
 C2272 C 0.20043 0.77509 0.44073
 H2273 H 0.15060 0.83229 0.37221
 H2274 H 0.15342 0.80341 0.39229
 H2275 H 0.16864 0.78584 0.41845
 H2276 H 0.21499 0.82755 0.42093
 H2277 H 0.19925 0.84562 0.39546
 H2278 H 0.21543 0.80160 0.44458
 H2279 H 0.19076 0.85127 0.36538
 H2280 H 0.18963 0.76714 0.43261
 C2281 C 0.67243 0.65540 0.64271
 C2282 C 0.69254 0.65578 0.63960
 C2283 C 0.70157 0.66428 0.62201
 C2284 C 0.72054 0.65890 0.61668
 C2285 C 0.72980 0.66719 0.60064
 C2286 C 0.72023 0.68117 0.58960
 C2287 C 0.70136 0.68672 0.59510
 C2288 C 0.69211 0.67842 0.61109
 C2289 C 0.72970 0.69099 0.57299
 C2290 C 0.74603 0.68393 0.56312
 H2291 H 0.70217 0.65010 0.65055
 H2292 H 0.72829 0.64832 0.62505
 H2293 H 0.74458 0.66293 0.59735
 H2294 H 0.69379 0.69768 0.58709
 H2295 H 0.67781 0.68358 0.61512
 H2296 H 0.72341 0.70434 0.56823
 H2297 H 0.66292 0.66067 0.63147
 H2298 H 0.75204 0.67018 0.56682
 C2299 C 0.68927 0.14560 0.13871
 C2300 C 0.68840 0.16516 0.13489
 C2301 C 0.69654 0.17434 0.11733
 C2302 C 0.68993 0.19269 0.11275
 C2303 C 0.69704 0.20214 0.09641
 C2304 C 0.71103 0.19342 0.08426
 C2305 C 0.71804 0.17524 0.08905
 C2306 C 0.71080 0.16570 0.10538
 C2307 C 0.71911 0.20335 0.06712
 C2308 C 0.70867 0.21721 0.05711
 H2309 H 0.68079 0.17439 0.14513
 H2310 H 0.67915 0.19979 0.12185
 H2311 H 0.69184 0.21643 0.09364
 H2312 H 0.72907 0.16839 0.08008
 H2313 H 0.71669 0.15180 0.10869
 H2314 H 0.73359 0.19951 0.06212
 H2315 H 0.69750 0.13614 0.12925
 H2316 H 0.69364 0.22006 0.06094
 C2317 C 0.17305 0.67265 0.10541
 C2318 C 0.16901 0.69052 0.09743
 C2319 C 0.18089 0.69885 0.08154
 C2320 C 0.17237 0.71217 0.06904
 C2321 C 0.18322 0.72040 0.05398
 C2322 C 0.20299 0.71567 0.05132
 C2323 C 0.21150 0.70245 0.06394
 C2324 C 0.20065 0.69421 0.07894
 C2325 C 0.21520 0.72379 0.03554
 C2326 C 0.21022 0.73982 0.02468
 H2327 H 0.15672 0.69875 0.10267
 H2328 H 0.15719 0.71603 0.07078
 H2329 H 0.17592 0.73020 0.04440
 H2330 H 0.22670 0.69859 0.06231
 H2331 H 0.20796 0.68452 0.08866
 H2332 H 0.22915 0.71707 0.03270
 H2333 H 0.18500 0.66442 0.09936
 H2334 H 0.19681 0.74742 0.02756
 C2335 C 0.16420 0.19531 0.60654
 C2336 C 0.17700 0.18882 0.59202
 C2337 C 0.18365 0.20067 0.57546
 C2338 C 0.19224 0.19156 0.55926
 C2339 C 0.19928 0.20217 0.54359
 C2340 C 0.19803 0.22222 0.54388
 C2341 C 0.18923 0.23134 0.55994
 C2342 C 0.18227 0.22074 0.57566
 C2343 C 0.20565 0.23402 0.52776
 C2344 C 0.22073 0.22804 0.51544
 H2345 H 0.18188 0.17414 0.59223
 H2346 H 0.19348 0.17613 0.55870
 H2347 H 0.20546 0.19457 0.53123
 H2348 H 0.18810 0.24677 0.56051
 H2349 H 0.17625 0.22844 0.58802
 H2350 H 0.20010 0.24843 0.52639
 H2351 H 0.15752 0.20920 0.60511
 H2352 H 0.22749 0.21426 0.51746
   
