data_POSCAR
  _audit_creation_date              2014-09-24
  _audit_creation_method            'ToBaCCo'
  _symmetry_space_group_name_H-M    'P1'
  _symmetry_Int_Tables_number       1
  _symmetry_cell_setting            triclinic
  loop_
  _symmetry_equiv_pos_as_xyz
 x,y,z
_cell_length_a 56.9132
_cell_length_b 57.8000
_cell_length_c 55.4507
_cell_angle_alpha 90.066100
_cell_angle_beta 90.355300
_cell_angle_gamma 89.901500
loop_
  _atom_site_label
  _atom_site_type_symbol
  _atom_site_fract_x
  _atom_site_fract_y
  _atom_site_fract_z
C1 C 0.72657 0.66946 0.97172
 H2 H 0.74043 0.67923 0.98030
 C3 C 0.70822 0.68121 0.95995
 H4 H 0.70833 0.69993 0.95919
 C5 C 0.70862 0.63344 0.96313
 H6 H 0.70806 0.61496 0.96550
 C7 C 0.69027 0.64436 0.95100
 H8 H 0.67607 0.63402 0.94365
 N9 N 0.72664 0.64590 0.97272
 C10 C 0.77827 0.63991 1.02824
 H11 H 0.76934 0.62556 1.03660
 C12 C 0.79648 0.65076 1.04071
 H13 H 0.80116 0.64445 1.05847
 C14 C 0.78447 0.66375 0.99419
 H15 H 0.78027 0.66814 0.97571
 C16 C 0.80273 0.67532 1.00617
 H17 H 0.81189 0.68908 0.99696
 Zn18 Zn 0.74991 0.62789 0.98889
 N19 N 0.77262 0.64639 1.00536
 C20 C 0.78912 0.61131 0.96284
 N21 N 0.76565 0.60834 0.96629
 C22 C 0.75346 0.59229 0.95331
 C23 C 0.76459 0.57927 0.93547
 C24 C 0.80096 0.59860 0.94525
 C25 C 0.72054 0.62320 1.02763
 C26 C 0.70792 0.61261 1.04597
 C27 C 0.72204 0.57559 1.03195
 C28 C 0.73460 0.58707 1.01395
 N29 N 0.73361 0.61045 1.01219
 H30 H 0.79875 0.62380 0.97344
 H31 H 0.73509 0.58938 0.95674
 H32 H 0.75453 0.56667 0.92530
 H33 H 0.81948 0.60173 0.94237
 H34 H 0.72034 0.64185 1.02597
 H35 H 0.69921 0.62409 1.05840
 H36 H 0.72274 0.55694 1.03162
 H37 H 0.74509 0.57724 1.00137
 C38 C 0.80916 0.66866 1.02971
 C39 C 0.68997 0.66851 0.94914
 C40 C 0.70819 0.58820 1.04873
 C41 C 0.78859 0.58258 0.93104
 C42 C 0.72769 0.34565 0.51768
 H43 H 0.74572 0.34443 0.52376
 C44 C 0.70985 0.33496 0.53097
 H45 H 0.71438 0.32549 0.54719
 C46 C 0.69958 0.36106 0.49044
 H47 H 0.69519 0.37185 0.47529
 C48 C 0.68141 0.35046 0.50287
 H49 H 0.66357 0.35273 0.49639
 N50 N 0.72225 0.35874 0.49800
 C51 C 0.77208 0.36071 0.44282
 H52 H 0.76078 0.37173 0.43229
 C53 C 0.79081 0.34992 0.43135
 H54 H 0.79255 0.35209 0.41207
 C55 C 0.78374 0.34494 0.48036
 H56 H 0.78124 0.34355 0.49961
 C57 C 0.80340 0.33455 0.46971
 H58 H 0.81578 0.32537 0.48109
 Zn59 Zn 0.74575 0.37703 0.48273
 N60 N 0.76894 0.35839 0.46699
 C61 C 0.78463 0.39755 0.50650
 N62 N 0.76088 0.39503 0.50687
 C63 C 0.74775 0.40477 0.52460
 C64 C 0.75854 0.41734 0.54316
 C65 C 0.79614 0.40978 0.52478
 C66 C 0.71974 0.38777 0.44050
 C67 C 0.70851 0.40186 0.42361
 C68 C 0.71996 0.43523 0.44707
 C69 C 0.73135 0.42047 0.46336
 N70 N 0.73098 0.39716 0.45990
 H71 H 0.79475 0.39000 0.49207
 H72 H 0.72886 0.40265 0.52439
 H73 H 0.74772 0.42513 0.55696
 H74 H 0.81511 0.41096 0.52440
 H75 H 0.71949 0.36918 0.43816
 H76 H 0.70027 0.39385 0.40807
 H77 H 0.72002 0.45366 0.45054
 H78 H 0.74025 0.42767 0.47890
 C79 C 0.80752 0.33749 0.44488
 C80 C 0.68626 0.33779 0.52386
 C81 C 0.70829 0.42597 0.42683
 C82 C 0.78312 0.41983 0.54354
 C83 C 0.22056 -0.16579 0.01532
 H84 H 0.23556 -0.17656 0.01116
 C85 C 0.19993 -0.17578 0.02421
 H86 H 0.19913 -0.19433 0.02677
 C87 C 0.20302 -0.12858 0.01634
 H88 H 0.20435 -0.11018 0.01305
 C89 C 0.18225 -0.13775 0.02522
 H90 H 0.16780 -0.12616 0.02915
 N91 N 0.22166 -0.14254 0.01164
 C92 C 0.26576 -0.16017 -0.03488
 H93 H 0.24865 -0.15873 -0.04320
 C94 C 0.28349 -0.17227 -0.04680
 H95 H 0.27969 -0.18016 -0.06411
 C96 C 0.29173 -0.15120 -0.00271
 H97 H 0.29499 -0.14277 0.01438
 C98 C 0.30999 -0.16313 -0.01402
 H99 H 0.32723 -0.16336 -0.00565
 Zn100 Zn 0.24795 -0.12748 -0.00180
 N101 N 0.27039 -0.14909 -0.01372
 C102 C 0.28286 -0.09722 0.01681
 N103 N 0.26217 -0.10789 0.02181
 C104 C 0.25179 -0.10521 0.04366
 C105 C 0.26210 -0.09136 0.06139
 C106 C 0.29425 -0.08385 0.03436
 C107 C 0.21966 -0.12023 -0.04193
 C108 C 0.20900 -0.10855 -0.06101
 C109 C 0.23217 -0.07494 -0.05106
 C110 C 0.24241 -0.08742 -0.03206
 N111 N 0.23614 -0.10973 -0.02799
 H112 H 0.29089 -0.09964 -0.00064
 H113 H 0.23545 -0.11382 0.04753
 H114 H 0.25287 -0.08906 0.07821
 H115 H 0.31119 -0.07651 0.03015
 H116 H 0.21415 -0.13766 -0.03774
 H117 H 0.19510 -0.11768 -0.07030
 H118 H 0.23872 -0.05766 -0.05399
 H119 H 0.25541 -0.07923 -0.02065
 C120 C 0.30621 -0.17309 -0.03683
 C121 C 0.18036 -0.16167 0.02907
 C122 C 0.21501 -0.08532 -0.06629
 C123 C 0.28392 -0.08073 0.05716
 C124 C 0.23134 0.16322 0.46671
 H125 H 0.24578 0.15672 0.45609
 C126 C 0.21250 0.17430 0.45524
 H127 H 0.21255 0.17611 0.43580
 C128 C 0.21291 0.16737 0.50466
 H129 H 0.21280 0.16420 0.52382
 C130 C 0.19367 0.17833 0.49392
 H131 H 0.17902 0.18366 0.50501
 N132 N 0.23085 0.15926 0.49090
 C133 C 0.29007 0.13898 0.53628
 H134 H 0.28611 0.12070 0.53711
 C135 C 0.30888 0.14781 0.54949
 H136 H 0.31944 0.13613 0.56032
 C137 C 0.28141 0.17611 0.52038
 H138 H 0.27061 0.18693 0.50889
 C139 C 0.30033 0.18571 0.53323
 H140 H 0.30395 0.20403 0.53171
 Zn141 Zn 0.25258 0.13802 0.50473
 N142 N 0.27686 0.15306 0.52202
 C143 C 0.28991 0.12041 0.47685
 N144 N 0.26618 0.12000 0.47967
 C145 C 0.25219 0.10792 0.46417
 C146 C 0.26204 0.09522 0.44526
 C147 C 0.30045 0.10803 0.45822
 C148 C 0.23222 0.12879 0.54913
 C149 C 0.22014 0.11658 0.56679
 C150 C 0.21739 0.08414 0.53946
 C151 C 0.22965 0.09700 0.52228
 N152 N 0.23645 0.11907 0.52723
 H153 H 0.30077 0.13060 0.48881
 H154 H 0.23332 0.10833 0.46636
 H155 H 0.25064 0.08546 0.43334
 H156 H 0.31934 0.10891 0.45617
 H157 H 0.23831 0.14614 0.55292
 H158 H 0.21717 0.12468 0.58412
 H159 H 0.21162 0.06681 0.53499
 H160 H 0.23349 0.08933 0.50500
 C161 C 0.31431 0.17143 0.54803
 C162 C 0.19294 0.18115 0.46880
 C163 C 0.21230 0.09402 0.56201
 C164 C 0.28652 0.09512 0.44216
 C165 C 0.15484 0.47001 0.22779
 H166 H 0.15703 0.46473 0.24638
 C167 C 0.16452 0.45659 0.20928
 H168 H 0.17418 0.44103 0.21381
 C169 C 0.13784 0.49556 0.19922
 H170 H 0.12660 0.51007 0.19509
 C171 C 0.14736 0.48288 0.18029
 H172 H 0.14399 0.48848 0.16196
 N173 N 0.14152 0.48893 0.22247
 C174 C 0.13144 0.52935 0.28796
 H175 H 0.11270 0.53167 0.28562
 C176 C 0.14258 0.53838 0.30823
 H177 H 0.13234 0.54797 0.32128
 C178 C 0.16733 0.51363 0.27383
 H179 H 0.17674 0.50371 0.26045
 C180 C 0.17931 0.52254 0.29398
 H181 H 0.19796 0.51937 0.29611
 Zn182 Zn 0.12438 0.50361 0.24746
 N183 N 0.14371 0.51677 0.27159
 C184 C 0.10966 0.47452 0.28523
 N185 N 0.10558 0.48044 0.26183
 C186 C 0.09006 0.46840 0.24794
 C187 C 0.07815 0.44936 0.25746
 C188 C 0.09815 0.45570 0.29543
 C189 C 0.11789 0.54528 0.22347
 C190 C 0.10597 0.56417 0.21372
 C191 C 0.06979 0.54871 0.22943
 C192 C 0.08237 0.52959 0.23814
 N193 N 0.10598 0.52818 0.23485
 H194 H 0.12243 0.48385 0.29589
 H195 H 0.08750 0.47317 0.22925
 H196 H 0.06637 0.43955 0.24596
 H197 H 0.10176 0.45126 0.31406
 H198 H 0.13676 0.54395 0.22155
 H199 H 0.11598 0.57674 0.20368
 H200 H 0.05117 0.54969 0.23302
 H201 H 0.07335 0.51615 0.24796
 C202 C 0.16668 0.53458 0.31175
 C203 C 0.16032 0.46271 0.18510
 C204 C 0.08153 0.56635 0.21676
 C205 C 0.08245 0.44259 0.28143
 C206 C -0.14674 0.03471 0.24439
 H207 H -0.14090 0.04318 0.26076
 C208 C -0.15847 0.04747 0.22664
 H209 H -0.16213 0.06549 0.23032
 C210 C -0.14909 0.00085 0.22055
 H211 H -0.14479 -0.01715 0.21786
 C212 C -0.16107 0.01284 0.20241
 H213 H -0.16515 0.00349 0.18602
 N214 N -0.14172 0.01199 0.24080
 C215 C -0.12378 -0.03164 0.30199
 H216 H -0.10502 -0.03266 0.29916
 C217 C -0.13407 -0.04438 0.32038
 H218 H -0.12300 -0.05494 0.33191
 C219 C -0.16081 -0.01628 0.29038
 H220 H -0.17107 -0.00540 0.27842
 C221 C -0.17189 -0.02874 0.30872
 H222 H -0.19075 -0.02744 0.31079
 Zn223 Zn -0.12082 -0.00282 0.26259
 N224 N -0.13716 -0.01797 0.28746
 C225 C -0.10194 0.02436 0.30032
 N226 N -0.10097 0.02024 0.27617
 C227 C -0.08808 0.03399 0.26140
 C228 C -0.07555 0.05277 0.27081
 C229 C -0.08991 0.04304 0.31042
 C230 C -0.11549 -0.04608 0.24187
 C231 C -0.10486 -0.06428 0.22958
 C232 C -0.06974 -0.04116 0.22610
 C233 C -0.08104 -0.02339 0.23872
 N234 N -0.10367 -0.02602 0.24597
 H235 H -0.11272 0.01370 0.31174
 H236 H -0.08822 0.03089 0.24216
 H237 H -0.06584 0.06390 0.25875
 H238 H -0.09116 0.04623 0.32962
 H239 H -0.13334 -0.04792 0.24817
 H240 H -0.11462 -0.08014 0.22684
 H241 H -0.05196 -0.03851 0.21990
 H242 H -0.07176 -0.00751 0.24246
 C243 C -0.15844 -0.04316 0.32387
 C244 C -0.16529 0.03684 0.20474
 C245 C -0.08176 -0.06192 0.22122
 C246 C -0.07673 0.05767 0.29558
 C247 C 0.35067 0.52130 0.73346
 H248 H 0.34729 0.52785 0.75139
 C249 C 0.34166 0.53299 0.71327
 H250 H 0.33133 0.54854 0.71585
 C251 C 0.36991 0.49426 0.70822
 H252 H 0.38175 0.47988 0.70598
 C253 C 0.36109 0.50515 0.68773
 H254 H 0.36563 0.49831 0.67017
 N255 N 0.36481 0.50248 0.73058
 C256 C 0.37276 0.46495 0.79819
 H257 H 0.39176 0.46441 0.79808
 C258 C 0.36052 0.45294 0.81577
 H259 H 0.37024 0.44341 0.82938
 C260 C 0.33717 0.47801 0.78035
 H261 H 0.32827 0.48751 0.76620
 C262 C 0.32411 0.46633 0.79791
 H263 H 0.30510 0.46693 0.79728
 Zn264 Zn 0.38113 0.48982 0.75751
 N265 N 0.36107 0.47705 0.78089
 C266 C 0.39611 0.52025 0.79468
 N267 N 0.39924 0.51388 0.77129
 C268 C 0.41398 0.52576 0.75662
 C269 C 0.42605 0.54511 0.76527
 C270 C 0.40800 0.53936 0.80412
 C271 C 0.38890 0.44690 0.73709
 C272 C 0.40131 0.42787 0.72854
 C273 C 0.43717 0.44541 0.74316
 C274 C 0.42405 0.46458 0.75073
 N275 N 0.40039 0.46505 0.74727
 H276 H 0.38392 0.51094 0.80591
 H277 H 0.41591 0.52047 0.73801
 H278 H 0.43756 0.55452 0.75329
 H279 H 0.40488 0.54451 0.82261
 H280 H 0.36999 0.44757 0.73500
 H281 H 0.39162 0.41444 0.71925
 H282 H 0.45588 0.44525 0.74662
 H283 H 0.43273 0.47890 0.75959
 C284 C 0.33590 0.45331 0.81565
 C285 C 0.34737 0.52521 0.69000
 C286 C 0.42586 0.42675 0.73154
 C287 C 0.42296 0.55223 0.78926
 C288 C 0.65934 0.96116 0.73715
 H289 H 0.65708 0.95286 0.75445
 C290 C 0.67088 0.94944 0.71852
 H291 H 0.67746 0.93211 0.72166
 C292 C 0.65153 0.99292 0.71133
 H293 H 0.64338 1.00950 0.70820
 C294 C 0.66307 0.98199 0.69240
 H295 H 0.66404 0.99063 0.67511
 N296 N 0.64937 0.98221 0.73302
 C297 C 0.62938 1.01809 0.79883
 H298 H 0.61073 1.01905 0.79502
 C299 C 0.63830 1.02778 0.81990
 H300 H 0.62612 1.03673 0.83158
 C301 C 0.66739 1.00630 0.78682
 H302 H 0.67853 0.99775 0.77381
 C303 C 0.67726 1.01622 0.80762
 H304 H 0.69601 1.01458 0.81045
 Zn305 Zn 0.62827 0.99459 0.75595
 N306 N 0.64379 1.00718 0.78308
 C307 C 0.60738 0.96460 0.78983
 N308 N 0.60808 0.97033 0.76606
 C309 C 0.59551 0.95820 0.74936
 C310 C 0.58100 0.93995 0.75649
 C311 C 0.59310 0.94662 0.79772
 C312 C 0.62310 1.03925 0.73846
 C313 C 0.61229 1.05819 0.72748
 C314 C 0.57657 1.03587 0.72406
 C315 C 0.58808 1.01732 0.73522
 N316 N 0.61108 1.01921 0.74175
 H317 H 0.61815 0.97367 0.80280
 H318 H 0.59682 0.96268 0.73048
 H319 H 0.57089 0.93066 0.74302
 H320 H 0.59303 0.94224 0.81671
 H321 H 0.64127 1.04040 0.74416
 H322 H 0.62222 1.07397 0.72508
 H323 H 0.55846 1.03384 0.71836
 H324 H 0.57868 1.00141 0.73835
 C325 C 0.66261 1.02682 0.82495
 C326 C 0.67209 0.95958 0.69554
 C327 C 0.58879 1.05657 0.71983
 C328 C 0.57957 0.93409 0.78102
 C329 C 0.02187 0.22385 -0.15701
 H330 H 0.03242 0.23920 -0.15429
 C331 C 0.03191 0.20414 -0.16737
 H332 H 0.05021 0.20451 -0.17260
 C333 C -0.01415 0.20411 -0.15145
 H334 H -0.03191 0.20402 -0.14463
 C335 C -0.00484 0.18405 -0.16168
 H336 H -0.01568 0.16871 -0.16298
 N337 N -0.00054 0.22324 -0.14870
 C338 C -0.03253 0.28998 -0.13216
 H339 H -0.03232 0.28846 -0.11272
 C340 C -0.04062 0.31024 -0.14284
 H341 H -0.04696 0.32415 -0.13149
 C342 C -0.02407 0.27371 -0.17041
 H343 H -0.01724 0.25948 -0.18095
 C344 C -0.03222 0.29381 -0.18195
 H345 H -0.03161 0.29501 -0.20142
 Zn346 Zn -0.01109 0.24721 -0.12827
 N347 N -0.02406 0.27238 -0.14590
 C348 C 0.02225 0.28074 -0.11346
 N349 N 0.01547 0.25835 -0.11039
 C350 C 0.02838 0.24373 -0.09631
 C351 C 0.04832 0.25170 -0.08399
 C352 C 0.04207 0.28935 -0.10163
 C353 C -0.05722 0.24241 -0.10999
 C354 C -0.07513 0.23314 -0.09595
 C355 C -0.04669 0.20784 -0.07731
 C356 C -0.02935 0.21768 -0.09176
 N357 N -0.03471 0.23489 -0.10753
 H358 H 0.01274 0.29200 -0.12552
 H359 H 0.02375 0.22570 -0.09513
 H360 H 0.05849 0.23978 -0.07305
 H361 H 0.04695 0.30727 -0.10421
 H362 H -0.06164 0.25512 -0.12351
 H363 H -0.09270 0.23917 -0.09990
 H364 H -0.04084 0.19506 -0.06441
 H365 H -0.01163 0.21121 -0.09051
 C366 C -0.04013 0.31255 -0.16799
 C367 C 0.01874 0.18366 -0.16902
 C368 C -0.07037 0.21538 -0.07898
 C369 C 0.05537 0.27479 -0.08666
 C370 C 0.46562 0.23409 0.16154
 H371 H 0.45516 0.24857 0.15533
 C372 C 0.45455 0.21502 0.17199
 H373 H 0.43561 0.21497 0.17370
 C374 C 0.50268 0.21559 0.16476
 H375 H 0.52130 0.21547 0.16124
 C376 C 0.49235 0.19618 0.17515
 H377 H 0.50322 0.18141 0.17975
 N378 N 0.48915 0.23366 0.15731
 C379 C 0.52955 0.29374 0.13531
 H380 H 0.53195 0.28838 0.11679
 C381 C 0.53880 0.31467 0.14315
 H382 H 0.54864 0.32523 0.13066
 C383 C 0.51294 0.28676 0.17376
 H384 H 0.50234 0.27596 0.18530
 C385 C 0.52207 0.30772 0.18246
 H386 H 0.51849 0.31306 0.20080
 Zn387 Zn 0.50192 0.25509 0.13513
 N388 N 0.51643 0.28056 0.15036
 C389 C 0.47306 0.28966 0.11469
 N390 N 0.47716 0.26647 0.11516
 C391 C 0.46305 0.25154 0.10279
 C392 C 0.44424 0.25989 0.08893
 C393 C 0.45457 0.29870 0.10109
 C394 C 0.54680 0.23753 0.12738
 C395 C 0.56520 0.22675 0.11526
 C396 C 0.53948 0.22156 0.08088
 C397 C 0.52157 0.23261 0.09365
 N398 N 0.52542 0.24006 0.11661
 H399 H 0.48382 0.30130 0.12518
 H400 H 0.46622 0.23312 0.10395
 H401 H 0.43332 0.24780 0.07903
 H402 H 0.45148 0.31719 0.10132
 H403 H 0.54959 0.24401 0.14548
 H404 H 0.58212 0.22523 0.12414
 H405 H 0.53591 0.21528 0.06283
 H406 H 0.50462 0.23506 0.08520
 C407 C 0.53458 0.32218 0.16677
 C408 C 0.46788 0.19535 0.17787
 C409 C 0.56165 0.21840 0.09174
 C410 C 0.43989 0.28380 0.08791
 C411 C 0.97539 0.72229 0.66199
 H412 H 0.96503 0.73708 0.65647
 C413 C 0.96418 0.70280 0.67140
 H414 H 0.94523 0.70279 0.67308
 C415 C 1.01231 0.70341 0.66427
 H416 H 1.03093 0.70332 0.66072
 C417 C 1.00183 0.68357 0.67360
 H418 H 1.01259 0.66854 0.67744
 N419 N 0.99893 0.72192 0.65774
 C420 C 1.04031 0.78188 0.63654
 H421 H 1.04290 0.77633 0.61811
 C422 C 1.04968 0.80283 0.64423
 H423 H 1.05983 0.81311 0.63174
 C424 C 1.02293 0.77564 0.67474
 H425 H 1.01191 0.76520 0.68622
 C426 C 1.03214 0.79665 0.68329
 H427 H 1.02824 0.80232 0.70144
 Zn428 Zn 1.01171 0.74390 0.63605
 N429 N 1.02678 0.76904 0.65153
 C430 C 0.98323 0.77930 0.61667
 N431 N 0.98685 0.75602 0.61667
 C432 C 0.97227 0.74160 0.60421
 C433 C 0.95345 0.75056 0.59078
 C434 C 0.96476 0.78894 0.60351
 C435 C 1.05623 0.72598 0.62707
 C436 C 1.07434 0.71547 0.61426
 C437 C 1.04798 0.71145 0.58022
 C438 C 1.03038 0.72223 0.59367
 N439 N 1.03470 0.72902 0.61677
 H440 H 0.99441 0.79055 0.62718
 H441 H 0.97509 0.72310 0.60495
 H442 H 0.94214 0.73887 0.58081
 H443 H 0.96208 0.80748 0.60412
 H444 H 1.05939 0.73193 0.64531
 H445 H 1.09141 0.71364 0.62276
 H446 H 1.04405 0.70575 0.56204
 H447 H 1.01331 0.72505 0.58561
 C448 C 1.04510 0.81077 0.66761
 C449 C 0.97734 0.68276 0.67625
 C450 C 1.07033 0.70790 0.59052
 C451 C 0.94959 0.77457 0.59027
 C452 C 0.53012 0.74309 0.34054
 H453 H 0.53961 0.75886 0.34432
 C454 C 0.54099 0.72546 0.32744
 H455 H 0.55873 0.72793 0.32100
 C456 C 0.49589 0.72028 0.34512
 H457 H 0.47849 0.71815 0.35248
 C458 C 0.50605 0.70225 0.33203
 H459 H 0.49639 0.68627 0.32968
 N460 N 0.50825 0.73992 0.34971
 C461 C 0.47796 0.80540 0.37227
 H462 H 0.48079 0.80360 0.39150
 C463 C 0.46847 0.82577 0.36308
 H464 H 0.46345 0.83897 0.37589
 C465 C 0.47995 0.78910 0.33318
 H466 H 0.48469 0.77472 0.32168
 C467 C 0.47027 0.80921 0.32311
 H468 H 0.46832 0.80998 0.30372
 Zn469 Zn 0.49650 0.76130 0.37254
 N470 N 0.48349 0.78761 0.35737
 C471 C 0.53502 0.78922 0.38300
 N472 N 0.52191 0.77170 0.39217
 C473 C 0.52730 0.76215 0.41394
 C474 C 0.54695 0.76970 0.42695
 C475 C 0.55456 0.79754 0.39556
 C476 C 0.45056 0.75503 0.39060
 C477 C 0.43267 0.74394 0.40318
 C478 C 0.46087 0.71549 0.41675
 C479 C 0.47813 0.72687 0.40349
 N480 N 0.47287 0.74653 0.39111
 H481 H 0.53036 0.79671 0.36576
 H482 H 0.51667 0.74847 0.42122
 H483 H 0.55131 0.76127 0.44382
 H484 H 0.56445 0.81171 0.38794
 H485 H 0.44641 0.77016 0.37999
 H486 H 0.41499 0.75077 0.40188
 H487 H 0.46576 0.70027 0.42696
 H488 H 0.49571 0.71978 0.40279
 C489 C 0.46444 0.82821 0.33805
 C490 C 0.52918 0.70444 0.32369
 C491 C 0.43768 0.72394 0.41668
 C492 C 0.56101 0.78756 0.41772
 C493 C 0.36116 0.00243 0.21622
 C494 C 0.37000 0.01557 0.23553
 C495 C 0.37901 0.03772 0.23122
 C496 C 0.37952 0.04666 0.20776
 C497 C 0.36966 0.03379 0.18875
 C498 C 0.36041 0.01153 0.19265
 C499 C 0.37061 0.00582 0.26015
 C500 C 0.38158 -0.01556 0.26448
 C501 C 0.38317 -0.02444 0.28798
 C502 C 0.37291 -0.01206 0.30702
 C503 C 0.36180 0.00932 0.30301
 C504 C 0.36086 0.01823 0.27946
 H505 H 0.35500 -0.01494 0.21974
 H506 H 0.38672 0.04748 0.24597
 H507 H 0.38969 -0.02480 0.24968
 H508 H 0.35271 0.03488 0.27612
 H509 H 0.36921 0.04137 0.17091
 H510 H 0.37338 -0.01927 0.32504
 C511 C 0.12959 1.01291 0.71721
 C512 C 0.12025 0.99962 0.73596
 C513 C 0.11105 0.97761 0.73099
 C514 C 0.11097 0.96882 0.70737
 C515 C 0.12093 0.98213 0.68884
 C516 C 0.13031 1.00414 0.69360
 C517 C 0.12039 1.00854 0.76090
 C518 C 0.10912 1.02942 0.76652
 C519 C 0.10832 1.03733 0.79047
 C520 C 0.11966 1.02445 0.80866
 C521 C 0.13140 1.00370 0.80317
 C522 C 0.13147 0.99581 0.77921
 H523 H 0.13700 1.02975 0.72120
 H524 H 0.10335 0.96765 0.74547
 H525 H 0.10017 1.03899 0.75239
 H526 H 0.14056 0.97993 0.77460
 H527 H 0.12131 0.97539 0.67061
 H528 H 0.11909 1.03047 0.82715
 C529 C 0.62720 0.52126 0.21040
 C530 C 0.61692 0.50983 0.22998
 C531 C 0.60666 0.48800 0.22654
 C532 C 0.60633 0.47773 0.20357
 C533 C 0.61727 0.48911 0.18429
 C534 C 0.62772 0.51085 0.18756
 C535 C 0.61694 0.52082 0.25401
 C536 C 0.60804 0.54329 0.25694
 C537 C 0.60850 0.55411 0.27964
 C538 C 0.61873 0.54240 0.29931
 C539 C 0.62764 0.51990 0.29656
 C540 C 0.62637 0.50908 0.27394
 H541 H 0.63534 0.53800 0.21312
 H542 H 0.59819 0.47945 0.24153
 H543 H 0.60067 0.55230 0.24151
 H544 H 0.63348 0.49181 0.27164
 H545 H 0.61738 0.48119 0.16657
 H546 H 0.61911 0.55045 0.31697
 C547 C 0.86476 0.49107 0.70629
 C548 C 0.87452 0.50296 0.72600
 C549 C 0.88519 0.52453 0.72242
 C550 C 0.88664 0.53406 0.69925
 C551 C 0.87641 0.52223 0.67971
 C552 C 0.86523 0.50076 0.68301
 C553 C 0.87426 0.49273 0.75038
 C554 C 0.88519 0.47132 0.75476
 C555 C 0.88707 0.46277 0.77838
 C556 C 0.87706 0.47533 0.79742
 C557 C 0.86564 0.49650 0.79324
 C558 C 0.86448 0.50518 0.76963
 H559 H 0.85684 0.47428 0.70917
 H560 H 0.89326 0.53342 0.73756
 H561 H 0.89326 0.46195 0.74003
 H562 H 0.85630 0.52182 0.76623
 H563 H 0.87688 0.53004 0.66197
 H564 H 0.87805 0.46846 0.81557
 C565 C 0.21563 0.34576 -0.00508
 C566 C 0.23347 0.35700 0.00786
 C567 C 0.22845 0.36709 0.03028
 C568 C 0.20558 0.36622 0.03971
 C569 C 0.18802 0.35434 0.02672
 C570 C 0.19283 0.34426 0.00423
 C571 C 0.25719 0.35883 -0.00255
 C572 C 0.26012 0.36852 -0.02554
 C573 C 0.28252 0.36998 -0.03583
 C574 C 0.30197 0.36136 -0.02297
 C575 C 0.29933 0.35161 0.00006
 C576 C 0.27682 0.35058 0.01024
 H577 H 0.21962 0.33793 -0.02235
 H578 H 0.24212 0.37650 0.03975
 H579 H 0.24494 0.37490 -0.03539
 H580 H 0.27449 0.34326 0.02805
 H581 H 0.17036 0.35343 0.03382
 H582 H 0.31928 0.36230 -0.03091
 C583 C 0.71843 0.13567 1.01934
 C584 C 0.73708 0.12424 1.00798
 C585 C 0.73304 0.11196 0.98652
 C586 C 0.71038 0.11091 0.97639
 C587 C 0.69201 0.12307 0.98760
 C588 C 0.69586 0.13546 1.00903
 C589 C 0.76093 0.12554 1.01833
 C590 C 0.76567 0.11638 1.04124
 C591 C 0.78837 0.11775 1.05123
 C592 C 0.80622 0.12878 1.03815
 C593 C 0.80157 0.13825 1.01529
 C594 C 0.77889 0.13634 1.00541
 H595 H 0.72170 0.14536 1.03577
 H596 H 0.74744 0.10274 0.97814
 H597 H 0.75166 0.10819 1.05125
 H598 H 0.77512 0.14338 0.98769
 H599 H 0.67455 0.12282 0.97969
 H600 H 0.82375 0.13003 1.04577
 C601 C 0.22728 0.63154 0.51161
 C602 C 0.24611 0.62161 0.49910
 C603 C 0.24208 0.61042 0.47699
 C604 C 0.21924 0.60880 0.46748
 C605 C 0.20061 0.61929 0.47990
 C606 C 0.20448 0.63083 0.50185
 C607 C 0.27016 0.62326 0.50887
 C608 C 0.27633 0.61167 0.53023
 C609 C 0.29960 0.61229 0.53891
 C610 C 0.31643 0.62511 0.52614
 C611 C 0.31028 0.63699 0.50500
 C612 C 0.28713 0.63596 0.49640
 H613 H 0.23056 0.64051 0.52847
 H614 H 0.25665 0.60248 0.46758
 H615 H 0.26319 0.60153 0.53950
 H616 H 0.28235 0.64487 0.47988
 H617 H 0.18298 0.61847 0.47246
 H618 H 0.33433 0.62621 0.53280
 C619 C 0.72529 0.84588 0.50256
 C620 C 0.74398 0.85571 0.51553
 C621 C 0.73975 0.86637 0.53782
 C622 C 0.71678 0.86795 0.54679
 C623 C 0.69820 0.85805 0.53352
 C624 C 0.70222 0.84696 0.51136
 C625 C 0.76760 0.85639 0.50474
 C626 C 0.77063 0.86682 0.48213
 C627 C 0.79294 0.86797 0.47161
 C628 C 0.81220 0.85816 0.48381
 C629 C 0.80948 0.84767 0.50648
 C630 C 0.78706 0.84700 0.51694
 H631 H 0.72886 0.83740 0.48553
 H632 H 0.75413 0.87452 0.54748
 H633 H 0.75559 0.87419 0.47282
 H634 H 0.78469 0.83924 0.53453
 H635 H 0.68045 0.85954 0.54027
 H636 H 0.82945 0.85891 0.47571
 C637 C -0.00466 0.22151 0.36107
 C638 C 0.00771 0.24094 0.36948
 C639 C 0.03013 0.23798 0.37981
 C640 C 0.03993 0.21580 0.38222
 C641 C 0.02748 0.19659 0.37340
 C642 C 0.00526 0.19931 0.36265
 C643 C -0.00281 0.26432 0.36758
 C644 C -0.02596 0.26834 0.37531
 C645 C -0.03596 0.29056 0.37376
 C646 C -0.02247 0.30864 0.36411
 C647 C 0.00037 0.30478 0.35562
 C648 C 0.01022 0.28260 0.35776
 H649 H -0.02176 0.22377 0.35268
 H650 H 0.03956 0.25285 0.38679
 H651 H -0.03611 0.25414 0.38252
 H652 H 0.02778 0.27933 0.35111
 H653 H 0.03505 0.17944 0.37509
 H654 H -0.02960 0.32601 0.36355
 C655 C 1.00312 0.72232 0.13668
 C656 C 0.99094 0.74026 0.12504
 C657 C 0.96944 0.73570 0.11362
 C658 C 0.96017 0.71331 0.11364
 C659 C 0.97261 0.69533 0.12494
 C660 C 0.99422 0.69955 0.13673
 C661 C 1.00074 0.76384 0.12476
 C662 C 1.02213 0.76818 0.11316
 C663 C 1.03087 0.79080 0.11173
 C664 C 1.01865 0.80889 0.12300
 C665 C 0.99755 0.80469 0.13518
 C666 C 0.98844 0.78213 0.13559
 H667 H 1.01928 0.72646 0.14611
 H668 H 0.95991 0.74959 0.10476
 H669 H 1.03141 0.75414 0.10439
 H670 H 0.97207 0.77866 0.14478
 H671 H 0.96548 0.67801 0.12393
 H672 H 1.02547 0.82637 0.12204
 C673 C 0.51775 0.21481 0.63983
 C674 C 0.50515 0.23392 0.63110
 C675 C 0.48202 0.23100 0.62268
 C676 C 0.47136 0.20914 0.62307
 C677 C 0.48404 0.19021 0.63225
 C678 C 0.50716 0.19290 0.64082
 C679 C 0.51542 0.25731 0.63224
 C680 C 0.53585 0.26272 0.61946
 C681 C 0.54459 0.28545 0.61949
 C682 C 0.53270 0.30259 0.63277
 C683 C 0.51248 0.29733 0.64619
 C684 C 0.50418 0.27443 0.64585
 H685 H 0.53538 0.21726 0.64687
 H686 H 0.47223 0.24587 0.61618
 H687 H 0.54436 0.24943 0.60882
 H688 H 0.48903 0.26957 0.65638
 H689 H 0.47601 0.17323 0.63241
 H690 H 0.53924 0.32013 0.63239
 C691 C 0.48809 0.71789 0.85870
 C692 C 0.50012 0.73740 0.86734
 C693 C 0.52320 0.73502 0.87610
 C694 C 0.53424 0.71326 0.87646
 C695 C 0.52189 0.69388 0.86782
 C696 C 0.49894 0.69607 0.85868
 C697 C 0.48879 0.76042 0.86645
 C698 C 0.46656 0.76390 0.87667
 C699 C 0.45564 0.78568 0.87552
 C700 C 0.46712 0.80395 0.86377
 C701 C 0.48936 0.80071 0.85343
 C702 C 0.50012 0.77888 0.85499
 H703 H 0.47036 0.71976 0.85170
 H704 H 0.53259 0.75015 0.88248
 H705 H 0.45778 0.74964 0.88552
 H706 H 0.51735 0.77619 0.84725
 H707 H 0.53023 0.67702 0.86796
 H708 H 0.45873 0.82076 0.86274
 C709 C 0.43235 -0.10985 0.31157
 C710 C 0.44632 -0.10954 0.33273
 C711 C 0.45730 -0.12982 0.34088
 C712 C 0.45459 -0.15104 0.32855
 C713 C 0.44139 -0.15093 0.30693
 C714 C 0.43040 -0.13075 0.29864
 C715 C 0.42003 -0.08794 0.30419
 C716 C 0.40514 -0.08640 0.28381
 C717 C 0.39343 -0.06573 0.27831
 C718 C 0.39622 -0.04616 0.29302
 C719 C 0.41141 -0.04739 0.31298
 C720 C 0.42318 -0.06799 0.31870
 C721 C 0.44912 -0.08905 0.34592
 C722 C 0.43781 -0.06873 0.33905
 H723 H 0.45999 -0.08878 0.36204
 H724 H 0.44032 -0.05341 0.35006
 H725 H 0.46848 -0.12869 0.35671
 H726 H 0.43830 -0.16667 0.29684
 H727 H 0.38176 -0.06521 0.26283
 H728 H 0.41404 -0.03221 0.32418
 H729 H 0.42013 -0.13202 0.28229
 H730 H 0.40207 -0.10097 0.27206
 C731 C 0.93577 0.37816 0.80472
 C732 C 0.92833 0.35741 0.79341
 C733 C 0.93703 0.33593 0.80152
 C734 C 0.95287 0.33490 0.82100
 C735 C 0.96110 0.35556 0.83122
 C736 C 0.95281 0.37688 0.82319
 C737 C 0.92462 0.40052 0.79710
 C738 C 0.92953 0.42171 0.80865
 C739 C 0.91758 0.44180 0.80209
 C740 C 0.90059 0.44146 0.78372
 C741 C 0.89605 0.42067 0.77146
 C742 C 0.90767 0.40014 0.77828
 C743 C 0.91184 0.35825 0.77455
 C744 C 0.90187 0.37916 0.76703
 H745 H 0.90628 0.34244 0.76569
 H746 H 0.88895 0.37882 0.75259
 H747 H 0.93070 0.32001 0.79344
 H748 H 0.97380 0.35520 0.84586
 H749 H 0.92151 0.45774 0.81159
 H750 H 0.88279 0.42032 0.75734
 H751 H 0.95972 0.39206 0.83201
 H752 H 0.94212 0.42315 0.82316
 C753 C 0.05422 1.11972 0.81385
 C754 C 0.05817 1.13972 0.79973
 C755 C 0.04627 1.16046 0.80502
 C756 C 0.03015 1.16152 0.82406
 C757 C 0.02580 1.14146 0.83752
 C758 C 0.03759 1.12086 0.83253
 C759 C 0.06797 1.09821 0.80832
 C760 C 0.06634 1.07789 0.82223
 C761 C 0.07959 1.05835 0.81646
 C762 C 0.09476 1.05844 0.79666
 C763 C 0.09662 1.07861 0.78270
 C764 C 0.08356 1.09850 0.78852
 C765 C 0.07399 1.13892 0.78049
 C766 C 0.08624 1.11870 0.77487
 H767 H 0.07693 1.15416 0.76956
 H768 H 0.09821 1.11897 0.75975
 H769 H 0.04955 1.17579 0.79432
 H770 H 0.01366 1.14184 0.85248
 H771 H 0.07768 1.04293 0.82737
 H772 H 0.10855 1.07891 0.76753
 H773 H 0.03351 1.10614 0.84364
 H774 H 0.05504 1.07668 0.83771
 C775 C 0.56345 0.64271 0.29789
 C776 C 0.57535 0.65813 0.31359
 C777 C 0.56445 0.67873 0.32096
 C778 C 0.54156 0.68417 0.31329
 C779 C 0.53001 0.66918 0.29726
 C780 C 0.54081 0.64878 0.28953
 C781 C 0.57519 0.62023 0.29163
 C782 C 0.56468 0.60347 0.27658
 C783 C 0.57576 0.58229 0.27239
 C784 C 0.59760 0.57723 0.28300
 C785 C 0.60853 0.59405 0.29746
 C786 C 0.59752 0.61539 0.30187
 C787 C 0.59775 0.65260 0.32248
 C788 C 0.60858 0.63168 0.31678
 H789 H 0.60689 0.66445 0.33443
 H790 H 0.62574 0.62805 0.32448
 H791 H 0.57340 0.69001 0.33365
 H792 H 0.51242 0.67313 0.29091
 H793 H 0.56685 0.56954 0.26131
 H794 H 0.62559 0.59044 0.30544
 H795 H 0.53092 0.63785 0.27742
 H796 H 0.54779 0.60618 0.26814
 C797 C 0.55955 0.39041 0.18417
 C798 C 0.56401 0.37183 0.20022
 C799 C 0.55502 0.34966 0.19513
 C800 C 0.54203 0.34571 0.17396
 C801 C 0.53702 0.36432 0.15858
 C802 C 0.54553 0.38635 0.16359
 C803 C 0.57054 0.41343 0.18936
 C804 C 0.56775 0.43265 0.17399
 C805 C 0.57922 0.45339 0.17890
 C806 C 0.59372 0.45568 0.19926
 C807 C 0.59617 0.43688 0.21511
 C808 C 0.58483 0.41576 0.21022
 C809 C 0.57789 0.37540 0.22085
 C810 C 0.58805 0.39689 0.22575
 H811 H 0.58124 0.36126 0.23323
 H812 H 0.59890 0.39866 0.24178
 H813 H 0.55892 0.33530 0.20708
 H814 H 0.52665 0.36170 0.14235
 H815 H 0.57666 0.46780 0.16668
 H816 H 0.60742 0.43850 0.23087
 H817 H 0.54119 0.39979 0.15086
 H818 H 0.55700 0.43207 0.15795
 C819 C 0.06915 0.87951 0.68485
 C820 C 0.07335 0.86110 0.70120
 C821 C 0.06478 0.83877 0.69606
 C822 C 0.05251 0.83444 0.67451
 C823 C 0.04803 0.85280 0.65864
 C824 C 0.05613 0.87501 0.66369
 C825 C 0.07921 0.90287 0.69050
 C826 C 0.07602 0.92218 0.67532
 C827 C 0.08627 0.94341 0.68096
 C828 C 0.10000 0.94609 0.70184
 C829 C 0.10300 0.92706 0.71733
 C830 C 0.09273 0.90555 0.71183
 C831 C 0.08651 0.86502 0.72225
 C832 C 0.09604 0.88672 0.72740
 H833 H 0.08974 0.85100 0.73481
 H834 H 0.10630 0.88877 0.74380
 H835 H 0.06837 0.82460 0.70835
 H836 H 0.03829 0.84991 0.64206
 H837 H 0.08320 0.95790 0.66897
 H838 H 0.11368 0.92887 0.73348
 H839 H 0.05224 0.88824 0.65059
 H840 H 0.06570 0.92136 0.65899
 C841 C 0.94081 0.61815 0.68590
 C842 C 0.93464 0.63765 0.70000
 C843 C 0.94672 0.65869 0.69711
 C844 C 0.96542 0.66039 0.68082
 C845 C 0.97206 0.64075 0.66763
 C846 C 0.95997 0.61994 0.67007
 C847 C 0.92680 0.59636 0.68859
 C848 C 0.93019 0.57677 0.67383
 C849 C 0.91682 0.55683 0.67713
 C850 C 0.89986 0.55578 0.69529
 C851 C 0.89605 0.57527 0.70989
 C852 C 0.90910 0.59564 0.70640
 C853 C 0.91655 0.63597 0.71694
 C854 C 0.90433 0.61531 0.72035
 H855 H 0.91192 0.65080 0.72791
 H856 H 0.89068 0.61484 0.73388
 H857 H 0.94168 0.67373 0.70759
 H858 H 0.98631 0.64165 0.65480
 H859 H 0.92006 0.54196 0.66570
 H860 H 0.88268 0.57467 0.72372
 H861 H 0.96593 0.60552 0.65936
 H862 H 0.94294 0.57650 0.65954
 C863 C 0.43199 0.13098 0.19044
 C864 C 0.42576 0.15091 0.20384
 C865 C 0.43761 0.17193 0.19999
 C866 C 0.45615 0.17314 0.18347
 C867 C 0.46287 0.15310 0.17101
 C868 C 0.45100 0.13232 0.17439
 C869 C 0.41824 0.10920 0.19411
 C870 C 0.42163 0.08923 0.17996
 C871 C 0.40865 0.06925 0.18423
 C872 C 0.39204 0.06855 0.20275
 C873 C 0.38816 0.08845 0.21671
 C874 C 0.40083 0.10887 0.21224
 C875 C 0.40790 0.14964 0.22108
 C876 C 0.39601 0.12897 0.22550
 H877 H 0.40323 0.16480 0.23154
 H878 H 0.38256 0.12881 0.23925
 H879 H 0.43253 0.18731 0.20990
 H880 H 0.47701 0.15364 0.15804
 H881 H 0.41197 0.05406 0.17329
 H882 H 0.37506 0.08809 0.23082
 H883 H 0.45704 0.11757 0.16424
 H884 H 0.43409 0.08865 0.16541
 C885 C 0.30391 0.41629 -0.12589
 C886 C 0.32101 0.40553 -0.14058
 C887 C 0.33026 0.41729 -0.16044
 C888 C 0.32309 0.43993 -0.16586
 C889 C 0.30527 0.45018 -0.15217
 C890 C 0.29574 0.43852 -0.13240
 C891 C 0.29620 0.40391 -0.10350
 C892 C 0.28018 0.41348 -0.08692
 C893 C 0.27514 0.40208 -0.06534
 C894 C 0.28588 0.38087 -0.05977
 C895 C 0.30097 0.37070 -0.07665
 C896 C 0.30631 0.38206 -0.09826
 C897 C 0.32950 0.38344 -0.13491
 C898 C 0.32229 0.37195 -0.11421
 H899 H 0.34241 0.37514 -0.14633
 H900 H 0.32984 0.35512 -0.11030
 H901 H 0.34374 0.40912 -0.17128
 H902 H 0.29947 0.46763 -0.15609
 H903 H 0.26347 0.41029 -0.05256
 H904 H 0.30900 0.35410 -0.07267
 H905 H 0.28253 0.44747 -0.12209
 H906 H 0.27182 0.42998 -0.08996
 C907 C 0.81345 0.91842 0.38369
 C908 C 0.82982 0.90809 0.36784
 C909 C 0.83809 0.92042 0.34786
 C910 C 0.83061 0.94317 0.34343
 C911 C 0.81374 0.95310 0.35858
 C912 C 0.80522 0.94092 0.37846
 C913 C 0.80632 0.90519 0.40575
 C914 C 0.79078 0.91413 0.42315
 C915 C 0.78595 0.90173 0.44415
 C916 C 0.79641 0.88010 0.44834
 C917 C 0.81120 0.87067 0.43073
 C918 C 0.81630 0.88302 0.40964
 C919 C 0.83838 0.88578 0.37232
 C920 C 0.83176 0.87351 0.39277
 H921 H 0.85077 0.87783 0.36006
 H922 H 0.83924 0.85647 0.39565
 H923 H 0.85077 0.91242 0.33594
 H924 H 0.80772 0.97065 0.35557
 H925 H 0.77458 0.90944 0.45754
 H926 H 0.81905 0.85379 0.43363
 H927 H 0.79262 0.94962 0.38974
 H928 H 0.78255 0.93084 0.42116
 C929 C 0.81122 0.07509 1.14334
 C930 C 0.80433 0.05181 1.14644
 C931 C 0.81136 0.03952 1.16711
 C932 C 0.82538 0.04995 1.18518
 C933 C 0.83092 0.07359 1.18247
 C934 C 0.82404 0.08590 1.16195
 C935 C 0.80486 0.08704 1.12018
 C936 C 0.81249 0.10958 1.11451
 C937 C 0.80693 0.11955 1.09227
 C938 C 0.79351 0.10744 1.07516
 C939 C 0.78553 0.08513 1.08074
 C940 C 0.79131 0.07479 1.10290
 C941 C 0.79066 0.04077 1.12876
 C942 C 0.78414 0.05208 1.10756
 H943 H 0.78511 0.02301 1.13123
 H944 H 0.77373 0.04270 1.09436
 H945 H 0.80547 0.02183 1.16909
 H946 H 0.84192 0.08257 1.19538
 H947 H 0.81312 0.13687 1.08842
 H948 H 0.77544 0.07552 1.06746
 H949 H 0.82936 0.10375 1.16086
 H950 H 0.82304 0.11969 1.12680
 C951 C 0.32868 0.56247 0.62518
 C952 C 0.31252 0.56114 0.64444
 C953 C 0.31858 0.54910 0.66567
 C954 C 0.34073 0.53855 0.66808
 C955 C 0.35695 0.54078 0.64926
 C956 C 0.35107 0.55248 0.62815
 C957 C 0.32141 0.57478 0.60257
 C958 C 0.33570 0.57565 0.58194
 C959 C 0.32839 0.58759 0.56142
 C960 C 0.30668 0.59910 0.56079
 C961 C 0.29200 0.59787 0.58105
 C962 C 0.29913 0.58567 0.60180
 C963 C 0.29052 0.57191 0.64240
 C964 C 0.28408 0.58415 0.62166
 H965 H 0.27814 0.57105 0.65714
 H966 H 0.26695 0.59236 0.62108
 H967 H 0.30595 0.54767 0.68014
 H968 H 0.37446 0.53358 0.65091
 H969 H 0.33976 0.58761 0.54584
 H970 H 0.27515 0.60664 0.58081
 H971 H 0.36443 0.55362 0.61452
 H972 H 0.35249 0.56705 0.58111
 C973 C 0.19581 0.56196 0.37771
 C974 C 0.17515 0.54836 0.37788
 C975 C 0.16652 0.53872 0.35642
 C976 C 0.17790 0.54257 0.33444
 C977 C 0.19891 0.55516 0.33432
 C978 C 0.20781 0.56479 0.35569
 C979 C 0.20342 0.57329 0.40088
 C980 C 0.22323 0.58784 0.40272
 C981 C 0.22870 0.59899 0.42445
 C982 C 0.21454 0.59593 0.44481
 C983 C 0.19529 0.58092 0.44336
 C984 C 0.18959 0.56971 0.42170
 C985 C 0.16276 0.54493 0.39929
 C986 C 0.16983 0.55537 0.42073
 H987 H 0.14705 0.53435 0.39939
 H988 H 0.15938 0.55252 0.43673
 H989 H 0.15051 0.52858 0.35670
 H990 H 0.20800 0.55828 0.31753
 H991 H 0.24366 0.61053 0.42516
 H992 H 0.18453 0.57811 0.45917
 H993 H 0.22375 0.57476 0.35449
 H994 H 0.23448 0.59114 0.38753
 C995 C 0.68796 0.05879 0.88940
 C996 C 0.66551 0.04840 0.88859
 C997 C 0.65761 0.03751 0.86749
 C998 C 0.67167 0.03644 0.84667
 C999 C 0.69458 0.04560 0.84811
 C1000 C 0.70253 0.05674 0.86905
 C1001 C 0.69499 0.07164 0.91187
 C1002 C 0.71617 0.08414 0.91403
 C1003 C 0.72133 0.09663 0.93504
 C1004 C 0.70559 0.09690 0.95442
 C1005 C 0.68476 0.08406 0.95260
 C1006 C 0.67922 0.07181 0.93152
 C1007 C 0.65090 0.04897 0.90880
 C1008 C 0.65771 0.06023 0.92988
 H1009 H 0.63381 0.04072 0.90827
 H1010 H 0.64567 0.06032 0.94496
 H1011 H 0.64051 0.02931 0.86770
 H1012 H 0.70611 0.04542 0.83268
 H1013 H 0.73744 0.10655 0.93587
 H1014 H 0.67265 0.08376 0.96761
 H1015 H 0.72003 0.06388 0.86882
 H1016 H 0.72872 0.08489 0.89957
 C1017 C 0.69481 0.92011 0.63366
 C1018 C 0.67489 0.93476 0.63232
 C1019 C 0.66791 0.94756 0.65251
 C1020 C 0.68042 0.94622 0.67434
 C1021 C 0.70012 0.93166 0.67577
 C1022 C 0.70731 0.91880 0.65569
 C1023 C 0.70141 0.90654 0.61157
 C1024 C 0.72089 0.89143 0.61073
 C1025 C 0.72600 0.87900 0.58972
 C1026 C 0.71179 0.88126 0.56909
 C1027 C 0.69261 0.89650 0.56967
 C1028 C 0.68731 0.90902 0.59059
 C1029 C 0.66183 0.93651 0.61093
 C1030 C 0.66791 0.92392 0.59052
 H1031 H 0.64659 0.94775 0.60996
 H1032 H 0.65718 0.92582 0.57442
 H1033 H 0.65229 0.95827 0.65133
 H1034 H 0.71011 0.93036 0.69241
 H1035 H 0.74089 0.86731 0.58971
 H1036 H 0.68184 0.89879 0.55365
 H1037 H 0.72260 0.90793 0.65781
 H1038 H 0.73232 0.88889 0.62609
 C1039 C 0.18189 0.41927 0.12563
 C1040 C 0.15977 0.43051 0.12541
 C1041 C 0.15291 0.44423 0.14498
 C1042 C 0.16787 0.44753 0.16490
 C1043 C 0.18975 0.43630 0.16524
 C1044 C 0.19671 0.42234 0.14589
 C1045 C 0.18851 0.40489 0.10411
 C1046 C 0.20989 0.39262 0.10248
 C1047 C 0.21532 0.37986 0.08178
 C1048 C 0.19962 0.37901 0.06217
 C1049 C 0.17825 0.39104 0.06376
 C1050 C 0.17254 0.40372 0.08447
 C1051 C 0.14463 0.42826 0.10556
 C1052 C 0.15095 0.41529 0.08547
 H1053 H 0.12771 0.43688 0.10543
 H1054 H 0.13869 0.41429 0.07047
 H1055 H 0.13571 0.45232 0.14471
 H1056 H 0.20170 0.43862 0.18032
 H1057 H 0.23181 0.37052 0.08119
 H1058 H 0.16613 0.39096 0.04860
 H1059 H 0.21381 0.41434 0.14703
 H1060 H 0.22263 0.39264 0.11696
 C1061 C -0.12765 0.31575 0.41106
 C1062 C -0.13638 0.30336 0.43107
 C1063 C -0.15784 0.30992 0.44165
 C1064 C -0.17023 0.32949 0.43331
 C1065 C -0.16063 0.34231 0.41421
 C1066 C -0.13989 0.33546 0.40311
 C1067 C -0.10499 0.30816 0.40000
 C1068 C -0.09635 0.31778 0.37852
 C1069 C -0.07443 0.31134 0.36973
 C1070 C -0.06034 0.29526 0.38213
 C1071 C -0.06949 0.28446 0.40278
 C1072 C -0.09185 0.29054 0.41153
 C1073 C -0.12320 0.28507 0.44083
 C1074 C -0.10115 0.27919 0.43166
 H1075 H -0.12970 0.27562 0.45629
 H1076 H -0.09132 0.26541 0.44034
 H1077 H -0.16469 0.29987 0.45650
 H1078 H -0.16881 0.35814 0.40802
 H1079 H -0.06843 0.31915 0.35313
 H1080 H -0.05904 0.27177 0.41244
 H1081 H -0.13338 0.34630 0.38882
 H1082 H -0.10629 0.33024 0.36817
 C1083 C 0.36656 0.80523 0.92210
 C1084 C 0.36447 0.79874 0.94662
 C1085 C 0.34444 0.80515 0.95980
 C1086 C 0.32626 0.81792 0.94887
 C1087 C 0.32804 0.82353 0.92434
 C1088 C 0.34782 0.81727 0.91111
 C1089 C 0.38887 0.79944 0.90911
 C1090 C 0.39329 0.80651 0.88524
 C1091 C 0.41479 0.80170 0.87434
 C1092 C 0.43239 0.78956 0.88680
 C1093 C 0.42802 0.78196 0.91038
 C1094 C 0.40658 0.78705 0.92169
 C1095 C 0.38253 0.78623 0.95792
 C1096 C 0.40304 0.78037 0.94568
 H1097 H 0.38088 0.78107 0.97662
 H1098 H 0.41657 0.77085 0.95531
 H1099 H 0.34310 0.80043 0.97865
 H1100 H 0.31442 0.83357 0.91548
 H1101 H 0.41770 0.80755 0.85605
 H1102 H 0.44166 0.77281 0.92023
 H1103 H 0.34818 0.82237 0.89242
 H1104 H 0.38059 0.81610 0.87476
 C1105 C 1.11480 0.81439 0.05839
 C1106 C 1.13620 0.80411 0.06597
 C1107 C 1.15758 0.81131 0.05582
 C1108 C 1.15790 0.82860 0.03802
 C1109 C 1.13648 0.83755 0.02950
 C1110 C 1.11525 0.83059 0.03947
 C1111 C 1.09264 0.80787 0.07112
 C1112 C 1.07102 0.81906 0.06668
 C1113 C 1.05110 0.81323 0.07979
 C1114 C 1.05206 0.79597 0.09745
 C1115 C 1.07334 0.78437 0.10181
 C1116 C 1.09373 0.79054 0.08913
 C1117 C 1.13611 0.78699 0.08386
 C1118 C 1.11528 0.78011 0.09492
 H1119 H 1.15241 0.77887 0.08949
 H1120 H 1.11617 0.76687 0.10873
 H1121 H 1.17399 0.80410 0.06241
 H1122 H 1.13614 0.85027 0.01517
 H1123 H 1.03478 0.82231 0.07615
 H1124 H 1.07417 0.77121 0.11571
 H1125 H 1.09946 0.83826 0.03220
 H1126 H 1.06918 0.83271 0.05358
 C1127 C 0.62775 0.31249 0.56565
 C1128 C 0.62688 0.33444 0.55441
 C1129 C 0.64619 0.34256 0.54142
 C1130 C 0.66652 0.32903 0.53875
 C1131 C 0.66752 0.30732 0.55003
 C1132 C 0.64841 0.29912 0.56333
 C1133 C 0.60654 0.30457 0.57939
 C1134 C 0.60554 0.28327 0.59174
 C1135 C 0.58540 0.27695 0.60451
 C1136 C 0.56573 0.29163 0.60523
 C1137 C 0.56648 0.31265 0.59265
 C1138 C 0.58664 0.31930 0.58006
 C1139 C 0.60668 0.34820 0.55596
 C1140 C 0.58695 0.34073 0.56837
 H1141 H 0.60606 0.36499 0.54729
 H1142 H 0.57173 0.35201 0.56895
 H1143 H 0.64537 0.35962 0.53335
 H1144 H 0.68293 0.29647 0.54818
 H1145 H 0.58539 0.26072 0.61424
 H1146 H 0.55124 0.32394 0.59259
 H1147 H 0.65007 0.28223 0.57141
 H1148 H 0.62017 0.27140 0.59200
 C1149 C 0.37745 0.19254 0.58514
 C1150 C 0.37238 0.20114 0.56177
 C1151 C 0.35119 0.19519 0.55015
 C1152 C 0.33498 0.18054 0.56142
 C1153 C 0.33955 0.17305 0.58504
 C1154 C 0.36040 0.17899 0.59680
 C1155 C 0.40106 0.19762 0.59610
 C1156 C 0.40839 0.18847 0.61848
 C1157 C 0.43103 0.19256 0.62727
 C1158 C 0.44694 0.20599 0.61415
 C1159 C 0.43965 0.21571 0.59214
 C1160 C 0.41701 0.21141 0.58292
 C1161 C 0.38877 0.21507 0.54989
 C1162 C 0.41052 0.22022 0.56030
 H1163 H 0.38484 0.22185 0.53210
 H1164 H 0.42268 0.23083 0.55022
 H1165 H 0.34784 0.20106 0.53188
 H1166 H 0.32706 0.16215 0.59432
 H1167 H 0.43616 0.18511 0.64444
 H1168 H 0.45194 0.22592 0.58176
 H1169 H 0.36294 0.17245 0.61483
 H1170 H 0.39713 0.17778 0.62932
 C1171 C 0.87086 0.69313 0.06752
 C1172 C 0.87042 0.69264 0.04201
 C1173 C 0.85008 0.68535 0.02968
 C1174 C 0.82977 0.67904 0.04240
 C1175 C 0.82980 0.68137 0.06763
 C1176 C 0.85003 0.68820 0.08004
 C1177 C 0.89353 0.69879 0.08007
 C1178 C 0.89663 0.69655 0.10521
 C1179 C 0.91833 0.70125 0.11598
 C1180 C 0.93729 0.70864 0.10204
 C1181 C 0.93450 0.71100 0.07704
 C1182 C 0.91296 0.70556 0.06590
 C1183 C 0.89035 0.69924 0.02901
 C1184 C 0.91099 0.70605 0.04071
 H1185 H 0.88997 0.69920 0.00946
 H1186 H 0.92588 0.71110 0.02983
 H1187 H 0.85043 0.68381 0.01021
 H1188 H 0.81418 0.67758 0.07793
 H1189 H 0.92035 0.69919 0.13530
 H1190 H 0.94937 0.71631 0.06625
 H1191 H 0.84899 0.68946 0.09942
 H1192 H 0.88270 0.69069 0.11679
 C1193 C 0.62755 0.69626 0.91596
 C1194 C 0.64120 0.67934 0.90396
 C1195 C 0.66223 0.67139 0.91432
 C1196 C 0.67001 0.67991 0.93666
 C1197 C 0.65729 0.69763 0.94789
 C1198 C 0.63629 0.70575 0.93770
 C1199 C 0.60402 0.70254 0.90540
 C1200 C 0.58826 0.71791 0.91669
 C1201 C 0.56586 0.72182 0.90699
 C1202 C 0.55863 0.71060 0.88576
 C1203 C 0.57453 0.69598 0.87391
 C1204 C 0.59692 0.69168 0.88364
 C1205 C 0.63346 0.66985 0.88208
 C1206 C 0.61186 0.67600 0.87207
 H1207 H 0.64407 0.65710 0.87278
 H1208 H 0.60647 0.66782 0.85532
 H1209 H 0.67224 0.65793 0.90538
 H1210 H 0.66303 0.70445 0.96515
 H1211 H 0.55389 0.73310 0.91656
 H1212 H 0.56930 0.68757 0.85724
 H1213 H 0.62691 0.71900 0.94742
 H1214 H 0.59263 0.72664 0.93332
 C1215 C 0.12886 0.20022 0.43180
 C1216 C 0.12870 0.18386 0.45079
 C1217 C 0.14954 0.17850 0.46320
 C1218 C 0.17093 0.18866 0.45666
 C1219 C 0.17120 0.20466 0.43769
 C1220 C 0.15043 0.21054 0.42549
 C1221 C 0.10613 0.20523 0.41887
 C1222 C 0.10396 0.22197 0.40048
 C1223 C 0.08243 0.22559 0.38875
 C1224 C 0.06267 0.21245 0.39487
 C1225 C 0.06454 0.19605 0.41336
 C1226 C 0.08592 0.19254 0.42553
 C1227 C 0.10791 0.17245 0.45692
 C1228 C 0.08705 0.17650 0.44439
 H1229 H 0.10785 0.15987 0.47141
 H1230 H 0.07152 0.16695 0.44961
 H1231 H 0.14928 0.16566 0.47744
 H1232 H 0.18755 0.21262 0.43227
 H1233 H 0.08128 0.23842 0.37457
 H1234 H 0.04916 0.18620 0.41849
 H1235 H 0.15170 0.22284 0.41095
 H1236 H 0.11862 0.23247 0.39496
 C1237 C 0.55596 0.11467 0.68403
 C1238 C 0.54311 0.10111 0.70061
 C1239 C 0.55384 0.08219 0.71215
 C1240 C 0.57730 0.07635 0.70736
 C1241 C 0.58985 0.08960 0.69062
 C1242 C 0.57940 0.10848 0.67912
 C1243 C 0.54398 0.13499 0.67244
 C1244 C 0.55541 0.15004 0.65632
 C1245 C 0.54347 0.16878 0.64610
 C1246 C 0.51984 0.17296 0.65158
 C1247 C 0.50832 0.15815 0.66767
 C1248 C 0.52018 0.13936 0.67818
 C1249 C 0.51964 0.10649 0.70561
 C1250 C 0.50839 0.12513 0.69454
 H1251 H 0.50978 0.09609 0.71825
 H1252 H 0.49019 0.12853 0.69898
 H1253 H 0.54400 0.07222 0.72519
 H1254 H 0.60782 0.08521 0.68619
 H1255 H 0.55269 0.17993 0.63366
 H1256 H 0.49016 0.16151 0.67236
 H1257 H 0.58998 0.11789 0.66642
 H1258 H 0.57356 0.14774 0.65139
 C1259 C 1.04549 0.62506 0.18484
 C1260 C 1.03299 0.60455 0.18991
 C1261 C 1.04474 0.58543 0.20004
 C1262 C 1.06864 0.58682 0.20666
 C1263 C 1.08030 0.60805 0.20337
 C1264 C 1.06905 0.62675 0.19236
 C1265 C 1.03287 0.64438 0.17227
 C1266 C 1.04459 0.66369 0.16275
 C1267 C 1.03212 0.68120 0.15099
 C1268 C 1.00747 0.68037 0.14890
 C1269 C 0.99575 0.66086 0.15816
 C1270 C 1.00831 0.64261 0.16894
 C1271 C 1.00879 0.60343 0.18522
 C1272 C 0.99658 0.62234 0.17571
 H1273 H 0.99904 0.58788 0.18945
 H1274 H 0.97779 0.62079 0.17289
 H1275 H 1.03516 0.56945 0.20246
 H1276 H 1.09824 0.61045 0.20939
 H1277 H 1.04204 0.69524 0.14319
 H1278 H 0.97680 0.65966 0.15700
 H1279 H 1.07893 0.64254 0.19031
 H1280 H 1.06348 0.66523 0.16358
 C1281 C 0.95010 0.88124 0.18252
 C1282 C 0.96383 0.89519 0.19818
 C1283 C 0.95344 0.91371 0.21065
 C1284 C 0.92950 0.91893 0.20751
 C1285 C 0.91619 0.90552 0.19132
 C1286 C 0.92625 0.88693 0.17906
 C1287 C 0.96167 0.86116 0.17016
 C1288 C 0.94925 0.84534 0.15548
 C1289 C 0.96088 0.82695 0.14434
 C1290 C 0.98514 0.82393 0.14739
 C1291 C 0.99762 0.83940 0.16217
 C1292 C 0.98608 0.85775 0.17374
 C1293 C 0.98783 0.89062 0.20124
 C1294 C 0.99877 0.87249 0.18906
 H1295 H 0.99839 0.90136 0.21311
 H1296 H 1.01744 0.86980 0.19190
 H1297 H 0.96396 0.92382 0.22314
 H1298 H 0.89786 0.90949 0.18796
 H1299 H 0.95091 0.81522 0.13299
 H1300 H 1.01633 0.83689 0.16496
 H1301 H 0.91508 0.87737 0.16686
 H1302 H 0.93058 0.84675 0.15247
 C1303 C 0.46265 0.36896 0.69953
 C1304 C 0.47465 0.38993 0.70390
 C1305 C 0.46276 0.40870 0.71443
 C1306 C 0.43930 0.40647 0.72203
 C1307 C 0.42842 0.38471 0.71980
 C1308 C 0.43976 0.36633 0.70846
 C1309 C 0.47501 0.35024 0.68596
 C1310 C 0.46320 0.33083 0.67662
 C1311 C 0.47530 0.31404 0.66356
 C1312 C 0.49971 0.31567 0.66000
 C1313 C 0.51152 0.33525 0.66917
 C1314 C 0.49920 0.35287 0.68118
 C1315 C 0.49846 0.39190 0.69792
 C1316 C 0.51068 0.37344 0.68759
 H1317 H 0.50789 0.40779 0.70167
 H1318 H 0.52918 0.37566 0.68369
 H1319 H 0.47177 0.42510 0.71616
 H1320 H 0.41096 0.38174 0.72673
 H1321 H 0.46522 0.29998 0.65586
 H1322 H 0.53029 0.33706 0.66685
 H1323 H 0.43046 0.35012 0.70710
 H1324 H 0.44446 0.32874 0.67850
 C1325 C 0.45466 0.61478 0.81671
 C1326 C 0.45513 0.59422 0.83057
 C1327 C 0.44488 0.57388 0.82149
 C1328 C 0.43444 0.57351 0.79851
 C1329 C 0.43449 0.59373 0.78457
 C1330 C 0.44441 0.61411 0.79351
 C1331 C 0.46533 0.63626 0.82729
 C1332 C 0.46471 0.65787 0.81552
 C1333 C 0.47524 0.67727 0.82597
 C1334 C 0.48673 0.67566 0.84834
 C1335 C 0.48709 0.65435 0.86043
 C1336 C 0.47635 0.63477 0.85020
 C1337 C 0.46594 0.59402 0.85333
 C1338 C 0.47653 0.61379 0.86282
 H1339 H 0.46640 0.57827 0.86390
 H1340 H 0.48486 0.61267 0.88041
 H1341 H 0.44523 0.55821 0.83223
 H1342 H 0.42639 0.59392 0.76684
 H1343 H 0.47485 0.69352 0.81626
 H1344 H 0.49561 0.65307 0.87792
 H1345 H 0.44385 0.62908 0.78194
 H1346 H 0.45623 0.66020 0.79826
 C1347 C -0.04396 0.11872 0.32528
 C1348 C -0.03127 0.10393 0.30965
 C1349 C -0.04208 0.08418 0.29982
 C1350 C -0.06529 0.07856 0.30578
 C1351 C -0.07768 0.09300 0.32158
 C1352 C -0.06725 0.11283 0.33117
 C1353 C -0.03191 0.13983 0.33509
 C1354 C -0.04336 0.15630 0.34970
 C1355 C -0.03131 0.17561 0.35848
 C1356 C -0.00753 0.17893 0.35308
 C1357 C 0.00399 0.16278 0.33839
 C1358 C -0.00803 0.14347 0.32918
 C1359 C -0.00780 0.10877 0.30417
 C1360 C 0.00363 0.12797 0.31392
 H1361 H 0.00197 0.09741 0.29232
 H1362 H 0.02187 0.13083 0.30928
 H1363 H -0.03230 0.07291 0.28787
 H1364 H -0.09568 0.08908 0.32630
 H1365 H -0.04052 0.18786 0.36981
 H1366 H 0.02228 0.16549 0.33380
 H1367 H -0.07769 0.12319 0.34323
 H1368 H -0.06161 0.15470 0.35449
 C1369 C 0.05036 0.38192 0.31242
 C1370 C 0.03713 0.39682 0.29724
 C1371 C 0.04769 0.41641 0.28699
 C1372 C 0.07136 0.42156 0.29168
 C1373 C 0.08450 0.40657 0.30643
 C1374 C 0.07421 0.38705 0.31666
 C1375 C 0.03828 0.36147 0.32345
 C1376 C 0.04974 0.34577 0.33907
 C1377 C 0.03752 0.32729 0.34928
 C1378 C 0.01360 0.32397 0.34422
 C1379 C 0.00215 0.33930 0.32840
 C1380 C 0.01420 0.35796 0.31812
 C1381 C 0.01339 0.39220 0.29254
 C1382 C 0.00219 0.37318 0.30272
 H1383 H 0.00327 0.40355 0.28089
 H1384 H -0.01624 0.37045 0.29861
 H1385 H 0.03733 0.42794 0.27575
 H1386 H 0.10293 0.40986 0.30995
 H1387 H 0.04673 0.31583 0.36157
 H1388 H -0.01625 0.33665 0.32403
 H1389 H 0.08526 0.37627 0.32783
 H1390 H 0.06803 0.34753 0.34385
 C1391 C 0.53869 0.87673 0.80741
 C1392 C 0.53875 0.89818 0.81976
 C1393 C 0.55156 0.91692 0.81066
 C1394 C 0.56457 0.91473 0.78935
 C1395 C 0.56396 0.89370 0.77674
 C1396 C 0.55120 0.87493 0.78560
 C1397 C 0.52560 0.85685 0.81838
 C1398 C 0.52511 0.83456 0.80804
 C1399 C 0.51323 0.81649 0.81935
 C1400 C 0.50147 0.82012 0.84119
 C1401 C 0.50162 0.84230 0.85149
 C1402 C 0.51362 0.86057 0.84036
 C1403 C 0.52630 0.90077 0.84130
 C1404 C 0.51396 0.88239 0.85135
 H1405 H 0.52625 0.91723 0.85068
 H1406 H 0.50476 0.88525 0.86815
 H1407 H 0.55156 0.93325 0.82030
 H1408 H 0.57394 0.89153 0.76033
 H1409 H 0.51313 0.79959 0.81089
 H1410 H 0.49286 0.84522 0.86853
 H1411 H 0.55165 0.85913 0.77526
 H1412 H 0.53388 0.83064 0.79135
 C1413 C 0.67166 0.55670 0.10641
 C1414 C 0.68884 0.54416 0.09358
 C1415 C 0.70085 0.55455 0.07433
 C1416 C 0.69591 0.57756 0.06693
 C1417 C 0.67767 0.58922 0.07935
 C1418 C 0.66596 0.57911 0.09863
 C1419 C 0.66004 0.54544 0.12755
 C1420 C 0.64420 0.55723 0.14271
 C1421 C 0.63390 0.54600 0.16222
 C1422 C 0.63897 0.52273 0.16703
 C1423 C 0.65488 0.51088 0.15224
 C1424 C 0.66569 0.52213 0.13283
 C1425 C 0.69399 0.52125 0.10005
 C1426 C 0.68240 0.51037 0.11899
 H1427 H 0.70704 0.51147 0.09016
 H1428 H 0.68687 0.49256 0.12311
 H1429 H 0.71483 0.54463 0.06622
 H1430 H 0.67127 0.60601 0.07388
 H1431 H 0.62167 0.55545 0.17344
 H1432 H 0.65922 0.49299 0.15620
 H1433 H 0.65216 0.58907 0.10693
 H1434 H 0.63971 0.57518 0.14001
 C1435 C 0.17441 1.05726 0.61728
 C1436 C 0.19070 1.04543 0.60249
 C1437 C 0.20281 1.05738 0.58435
 C1438 C 0.19888 1.08109 0.58054
 C1439 C 0.18227 1.09259 0.59483
 C1440 C 0.17020 1.08091 0.61292
 C1441 C 0.16243 1.04406 0.63697
 C1442 C 0.14675 1.05445 0.65335
 C1443 C 0.13635 1.04147 0.67162
 C1444 C 0.14118 1.01780 0.67398
 C1445 C 0.15671 1.00725 0.65775
 C1446 C 0.16746 1.02018 0.63947
 C1447 C 0.19492 1.02178 0.60597
 C1448 C 0.18344 1.00940 0.62395
 H1449 H 0.20731 1.01268 0.59460
 H1450 H 0.18733 0.99113 0.62588
 H1451 H 0.21569 1.04831 0.57354
 H1452 H 0.17846 1.11074 0.59192
 H1453 H 0.12431 1.04995 0.68384
 H1454 H 0.16084 0.98902 0.65971
 H1455 H 0.15767 1.09076 0.62323
 H1456 H 0.14237 1.07259 0.65252
 C1457 C 0.18017 0.95040 0.87712
 C1458 C 0.19240 0.96282 0.89518
 C1459 C 0.20426 0.95096 0.91380
 C1460 C 0.20436 0.92644 0.91504
 C1461 C 0.19270 0.91449 0.89613
 C1462 C 0.18090 0.92615 0.87771
 C1463 C 0.16713 0.96364 0.85800
 C1464 C 0.15357 0.95280 0.83990
 C1465 C 0.14190 0.96585 0.82240
 C1466 C 0.14338 0.99007 0.82237
 C1467 C 0.15653 1.00109 0.84056
 C1468 C 0.16826 0.98810 0.85837
 C1469 C 0.19262 0.98708 0.89467
 C1470 C 0.18100 0.99942 0.87656
 H1471 H 0.20203 0.99670 0.90844
 H1472 H 0.18184 1.01815 0.87693
 H1473 H 0.21218 0.96133 0.92787
 H1474 H 0.19331 0.89588 0.89447
 H1475 H 0.13146 0.95691 0.80892
 H1476 H 0.15792 1.01979 0.84067
 H1477 H 0.17271 0.91570 0.86392
 H1478 H 0.15155 0.93428 0.83898
 C1479 C 0.67361 0.46948 0.37401
 C1480 C 0.66462 0.44731 0.37953
 C1481 C 0.67552 0.43366 0.39727
 C1482 C 0.69604 0.44121 0.40909
 C1483 C 0.70510 0.46309 0.40332
 C1484 C 0.69402 0.47709 0.38615
 C1485 C 0.66144 0.48347 0.35489
 C1486 C 0.66799 0.50632 0.34911
 C1487 C 0.65660 0.51828 0.33054
 C1488 C 0.63861 0.50772 0.31717
 C1489 C 0.63149 0.48527 0.32317
 C1490 C 0.64249 0.47325 0.34210
 C1491 C 0.64515 0.43861 0.36690
 C1492 C 0.63458 0.45113 0.34831
 H1493 H 0.63832 0.42160 0.37107
 H1494 H 0.61991 0.44342 0.33872
 H1495 H 0.66803 0.41699 0.40171
 H1496 H 0.72115 0.46925 0.41168
 H1497 H 0.66224 0.53567 0.32620
 H1498 H 0.61726 0.47725 0.31313
 H1499 H 0.70203 0.49355 0.38226
 H1500 H 0.68182 0.51524 0.35868
 C1501 C 0.81957 0.45548 0.60132
 C1502 C 0.79894 0.44268 0.60610
 C1503 C 0.78713 0.43117 0.58726
 C1504 C 0.79524 0.43257 0.56341
 C1505 C 0.81525 0.44596 0.55868
 C1506 C 0.82728 0.45720 0.57730
 C1507 C 0.83207 0.46691 0.62205
 C1508 C 0.85357 0.47869 0.61948
 C1509 C 0.86437 0.48930 0.63927
 C1510 C 0.85404 0.48862 0.66219
 C1511 C 0.83283 0.47652 0.66500
 C1512 C 0.82198 0.46550 0.64527
 C1513 C 0.79014 0.44154 0.62961
 C1514 C 0.80122 0.45296 0.64869
 H1515 H 0.77428 0.43185 0.63328
 H1516 H 0.79354 0.45174 0.66648
 H1517 H 0.77179 0.42082 0.59129
 H1518 H 0.82159 0.44794 0.54043
 H1519 H 0.88102 0.49792 0.63660
 H1520 H 0.82453 0.47591 0.68253
 H1521 H 0.84244 0.46730 0.57244
 H1522 H 0.86247 0.47974 0.60241
 C1523 C 0.31848 -0.04051 0.11313
 C1524 C 0.30241 -0.05815 0.11920
 C1525 C 0.29189 -0.07156 0.10101
 C1526 C 0.29582 -0.06681 0.07646
 C1527 C 0.31097 -0.04848 0.07058
 C1528 C 0.32233 -0.03569 0.08859
 C1529 C 0.33007 -0.02724 0.13317
 C1530 C 0.34855 -0.01157 0.12931
 C1531 C 0.35860 0.00057 0.14857
 C1532 C 0.35019 -0.00215 0.17221
 C1533 C 0.33201 -0.01816 0.17616
 C1534 C 0.32247 -0.03112 0.15705
 C1535 C 0.29644 -0.06191 0.14336
 C1536 C 0.30574 -0.04824 0.16180
 H1537 H 0.28390 -0.07524 0.14803
 H1538 H 0.30012 -0.05147 0.18013
 H1539 H 0.28059 -0.08573 0.10620
 H1540 H 0.31388 -0.04365 0.05200
 H1541 H 0.37321 0.01192 0.14482
 H1542 H 0.32505 -0.02056 0.19411
 H1543 H 0.33358 -0.02172 0.08295
 H1544 H 0.35582 -0.00881 0.11162
 C1545 C 0.32015 0.05774 0.38432
 C1546 C 0.29843 0.06912 0.38027
 C1547 C 0.28742 0.08110 0.39919
 C1548 C 0.29765 0.08182 0.42230
 C1549 C 0.31889 0.07006 0.42633
 C1550 C 0.33001 0.05821 0.40768
 C1551 C 0.33158 0.04555 0.36356
 C1552 C 0.35360 0.03452 0.36553
 C1553 C 0.36337 0.02310 0.34581
 C1554 C 0.35152 0.02230 0.32357
 C1555 C 0.32978 0.03364 0.32126
 C1556 C 0.31981 0.04529 0.34099
 C1557 C 0.28783 0.06845 0.35741
 C1558 C 0.29820 0.05665 0.33826
 H1559 H 0.27117 0.07710 0.35430
 H1560 H 0.28919 0.05653 0.32097
 H1561 H 0.27108 0.09022 0.39578
 H1562 H 0.32693 0.06988 0.44408
 H1563 H 0.38042 0.01498 0.34797
 H1564 H 0.32040 0.03307 0.30420
 H1565 H 0.34623 0.04947 0.41203
 H1566 H 0.36367 0.03454 0.38206
 C1567 C 0.82376 0.54585 0.87377
 C1568 C 0.80095 0.55508 0.87013
 C1569 C 0.78955 0.56681 0.88892
 C1570 C 0.80055 0.56970 0.91145
 C1571 C 0.82316 0.56061 0.91500
 C1572 C 0.83463 0.54881 0.89649
 C1573 C 0.83528 0.53336 0.85324
 C1574 C 0.85779 0.52331 0.85508
 C1575 C 0.86761 0.51159 0.83556
 C1576 C 0.85533 0.50960 0.81365
 C1577 C 0.83302 0.51977 0.81150
 C1578 C 0.82290 0.53150 0.83108
 C1579 C 0.78968 0.55265 0.84775
 C1580 C 0.80043 0.54116 0.82864
 H1581 H 0.77225 0.55977 0.84494
 H1582 H 0.79094 0.53974 0.81170
 H1583 H 0.77221 0.57408 0.88587
 H1584 H 0.83195 0.56244 0.93228
 H1585 H 0.88499 0.50416 0.83757
 H1586 H 0.82329 0.51812 0.79472
 H1587 H 0.85195 0.54219 0.90039
 H1588 H 0.86812 0.52419 0.87141
 C1589 C 0.12656 0.67591 0.55034
 C1590 C 0.12396 0.67143 0.57527
 C1591 C 0.10543 0.68160 0.58810
 C1592 C 0.08947 0.69662 0.57663
 C1593 C 0.09220 0.70113 0.55196
 C1594 C 0.11041 0.69093 0.53895
 C1595 C 0.14652 0.66458 0.53728
 C1596 C 0.15020 0.66730 0.51233
 C1597 C 0.16900 0.65635 0.50100
 C1598 C 0.18471 0.64250 0.51419
 C1599 C 0.18128 0.63968 0.53903
 C1600 C 0.16225 0.65042 0.55059
 C1601 C 0.13996 0.65701 0.58732
 C1602 C 0.15878 0.64686 0.57528
 H1603 H 0.13801 0.65363 0.60642
 H1604 H 0.17075 0.63595 0.58547
 H1605 H 0.10338 0.67769 0.60709
 H1606 H 0.08046 0.71297 0.54271
 H1607 H 0.17142 0.65890 0.48183
 H1608 H 0.19319 0.62875 0.54927
 H1609 H 0.11164 0.69526 0.52010
 H1610 H 0.13875 0.67769 0.50119
 C1611 C 0.61828 0.18433 1.05406
 C1612 C 0.61512 0.18082 1.07908
 C1613 C 0.59650 0.19173 1.09111
 C1614 C 0.58100 0.20652 1.07872
 C1615 C 0.58430 0.21013 1.05395
 C1616 C 0.60263 0.19919 1.04175
 C1617 C 0.63825 0.17214 1.04187
 C1618 C 0.64246 0.17382 1.01691
 C1619 C 0.66117 0.16198 1.00640
 C1620 C 0.67627 0.14826 1.02045
 C1621 C 0.67234 0.14651 1.04532
 C1622 C 0.65340 0.15814 1.05605
 C1623 C 0.63060 0.16656 1.09203
 C1624 C 0.64942 0.15560 1.08080
 H1625 H 0.62821 0.16393 1.11121
 H1626 H 0.66095 0.14482 1.09165
 H1627 H 0.59400 0.18852 1.11017
 H1628 H 0.57290 0.22176 1.04400
 H1629 H 0.66399 0.16371 0.98718
 H1630 H 0.68376 0.13567 1.05623
 H1631 H 0.60431 0.20281 1.02278
 H1632 H 0.63146 0.18405 1.00513
 C1633 C 0.87481 0.18546 0.96191
 C1634 C 0.89653 0.17389 0.95947
 C1635 C 0.91475 0.18391 0.94603
 C1636 C 0.91209 0.20578 0.93472
 C1637 C 0.89034 0.21728 0.93811
 C1638 C 0.87219 0.20737 0.95133
 C1639 C 0.85556 0.17385 0.97573
 C1640 C 0.83290 0.18344 0.97811
 C1641 C 0.81552 0.17183 0.99093
 C1642 C 0.82024 0.15044 1.00182
 C1643 C 0.84271 0.14070 0.99960
 C1644 C 0.86027 0.15210 0.98646
 C1645 C 0.89998 0.15225 0.97034
 C1646 C 0.88232 0.14169 0.98371
 H1647 H 0.91664 0.14332 0.96856
 H1648 H 0.88593 0.12499 0.99182
 H1649 H 0.93043 0.17364 0.94358
 H1650 H 0.88721 0.23462 0.93162
 H1651 H 0.79832 0.17973 0.99253
 H1652 H 0.84637 0.12399 1.00767
 H1653 H 0.85633 0.21740 0.95326
 H1654 H 0.82813 0.19978 0.97010
 C1655 C 0.38205 0.68895 0.45495
 C1656 C 0.40121 0.67625 0.44556
 C1657 C 0.41905 0.68766 0.43289
 C1658 C 0.41874 0.71184 0.43017
 C1659 C 0.40017 0.72443 0.44044
 C1660 C 0.38202 0.71319 0.45252
 C1661 C 0.36291 0.67602 0.46756
 C1662 C 0.34197 0.68667 0.47535
 C1663 C 0.32477 0.67387 0.48721
 C1664 C 0.32818 0.65030 0.49184
 C1665 C 0.34871 0.63940 0.48385
 C1666 C 0.36584 0.65195 0.47133
 C1667 C 0.40265 0.65231 0.44918
 C1668 C 0.38559 0.64050 0.46221
 H1669 H 0.41742 0.64259 0.44217
 H1670 H 0.38771 0.62204 0.46487
 H1671 H 0.43308 0.67755 0.42499
 H1672 H 0.39971 0.74312 0.43942
 H1673 H 0.30888 0.68246 0.49313
 H1674 H 0.35110 0.62103 0.48701
 H1675 H 0.36836 0.72384 0.46013
 H1676 H 0.33843 0.70476 0.47224
 C1677 C 0.62299 0.81177 0.45548
 C1678 C 0.60332 0.80380 0.46853
 C1679 C 0.58314 0.79613 0.45620
 C1680 C 0.58239 0.79561 0.43087
 C1681 C 0.60234 0.80269 0.41806
 C1682 C 0.62229 0.81074 0.43011
 C1683 C 0.64381 0.82071 0.46929
 C1684 C 0.66333 0.83092 0.45803
 C1685 C 0.68216 0.83928 0.47168
 C1686 C 0.68225 0.83750 0.49694
 C1687 C 0.66282 0.82734 0.50830
 C1688 C 0.64353 0.81939 0.49476
 C1689 C 0.60397 0.80333 0.49378
 C1690 C 0.62379 0.81059 0.50659
 H1691 H 0.58900 0.79703 0.50380
 H1692 H 0.62349 0.80970 0.52611
 H1693 H 0.56792 0.79082 0.46643
 H1694 H 0.60269 0.80178 0.39856
 H1695 H 0.69649 0.84763 0.46236
 H1696 H 0.66263 0.82567 0.52776
 H1697 H 0.63704 0.81579 0.41922
 H1698 H 0.66423 0.83308 0.43874
 C1699 C 0.11641 0.30288 -0.05076
 C1700 C 0.10064 0.28847 -0.03807
 C1701 C 0.08109 0.27885 -0.05000
 C1702 C 0.07673 0.28371 -0.07440
 C1703 C 0.09250 0.29779 -0.08697
 C1704 C 0.11210 0.30720 -0.07540
 C1705 C 0.13674 0.31326 -0.03726
 C1706 C 0.15341 0.32777 -0.04826
 C1707 C 0.17165 0.33753 -0.03479
 C1708 C 0.17382 0.33311 -0.01002
 C1709 C 0.15752 0.31843 0.00107
 C1710 C 0.13909 0.30848 -0.01233
 C1711 C 0.10422 0.28408 -0.01349
 C1712 C 0.12299 0.29392 -0.00088
 H1713 H 0.09218 0.27305 -0.00375
 H1714 H 0.12484 0.29017 0.01818
 H1715 H 0.06886 0.26815 -0.04010
 H1716 H 0.08967 0.30152 -0.10591
 H1717 H 0.18385 0.34899 -0.04373
 H1718 H 0.15924 0.31469 0.02015
 H1719 H 0.12344 0.31797 -0.08607
 H1720 H 0.15265 0.33199 -0.06718
 C1721 C 0.38160 0.31374 0.04874
 C1722 C 0.37874 0.29266 0.06136
 C1723 C 0.39788 0.28268 0.07369
 C1724 C 0.42000 0.29340 0.07363
 C1725 C 0.42289 0.31393 0.06053
 C1726 C 0.40404 0.32398 0.04824
 C1727 C 0.36060 0.32421 0.03644
 C1728 C 0.36143 0.34558 0.02427
 C1729 C 0.34149 0.35449 0.01286
 C1730 C 0.32015 0.34241 0.01321
 C1731 C 0.31898 0.32132 0.02569
 C1732 C 0.33896 0.31221 0.03733
 C1733 C 0.35679 0.28174 0.06171
 C1734 C 0.33737 0.29122 0.04982
 H1735 H 0.35458 0.26556 0.07129
 H1736 H 0.32080 0.28204 0.05056
 H1737 H 0.39541 0.26687 0.08385
 H1738 H 0.43988 0.32230 0.05976
 H1739 H 0.34275 0.37103 0.00380
 H1740 H 0.30262 0.31176 0.02597
 H1741 H 0.40747 0.33974 0.03852
 H1742 H 0.37724 0.35577 0.02337
 C1743 C 0.89146 0.80662 0.55275
 C1744 C 0.88828 0.78532 0.56486
 C1745 C 0.90737 0.77463 0.57664
 C1746 C 0.92974 0.78484 0.57646
 C1747 C 0.93294 0.80554 0.56374
 C1748 C 0.91414 0.81630 0.55203
 C1749 C 0.87052 0.81790 0.54114
 C1750 C 0.87167 0.83963 0.52972
 C1751 C 0.85179 0.84929 0.51889
 C1752 C 0.83020 0.83763 0.51909
 C1753 C 0.82872 0.81621 0.53090
 C1754 C 0.84863 0.80634 0.54197
 C1755 C 0.86609 0.77488 0.56526
 C1756 C 0.84674 0.78507 0.55388
 H1757 H 0.86364 0.75853 0.57444
 H1758 H 0.82998 0.77623 0.55459
 H1759 H 0.90466 0.75867 0.58647
 H1760 H 0.95012 0.81351 0.56284
 H1761 H 0.85330 0.86609 0.51041
 H1762 H 0.81214 0.80700 0.53111
 H1763 H 0.91782 0.83215 0.54257
 H1764 H 0.88767 0.84954 0.52900
   
