data_POSCAR
  _audit_creation_date              2014-09-24
  _audit_creation_method            'ToBaCCo'
  _symmetry_space_group_name_H-M    'P1'
  _symmetry_Int_Tables_number       1
  _symmetry_cell_setting            triclinic
  loop_
  _symmetry_equiv_pos_as_xyz
 x,y,z
_cell_length_a 53.2233
_cell_length_b 54.0689
_cell_length_c 53.9132
_cell_angle_alpha 89.983400
_cell_angle_beta 90.424000
_cell_angle_gamma 90.131800
loop_
  _atom_site_label
  _atom_site_type_symbol
  _atom_site_fract_x
  _atom_site_fract_y
  _atom_site_fract_z
C1 C 0.35300 0.34775 0.32134
 C2 C 0.37270 0.33542 0.30947
 C3 C 0.38267 0.31355 0.31952
 C4 C 0.37331 0.30432 0.34201
 C5 C 0.35346 0.31629 0.35402
 C6 C 0.34335 0.33819 0.34373
 C7 C 0.34212 0.36892 0.31074
 C8 C 0.32161 0.38043 0.32214
 C9 C 0.31262 0.37138 0.34479
 C10 C 0.32312 0.35014 0.35548
 C11 C 0.31288 0.33998 0.37706
 C12 C 0.32213 0.31765 0.38667
 C13 C 0.34283 0.30621 0.37553
 H14 H 0.37995 0.34247 0.29209
 H15 H 0.38114 0.28749 0.34978
 H16 H 0.34898 0.37600 0.29323
 H17 H 0.29680 0.38039 0.35352
 H18 H 0.29692 0.34875 0.38580
 H19 H 0.34989 0.28894 0.38305
 C20 C 0.35957 0.85511 -0.17659
 C21 C 0.38092 0.84467 -0.18753
 C22 C 0.39129 0.82242 -0.17842
 C23 C 0.37938 0.81047 -0.15841
 C24 C 0.35799 0.82058 -0.14742
 C25 C 0.34802 0.84298 -0.15652
 C26 C 0.34922 0.87716 -0.18582
 C27 C 0.32750 0.88747 -0.17516
 C28 C 0.31603 0.87496 -0.15526
 C29 C 0.32619 0.85300 -0.14583
 C30 C 0.31460 0.84068 -0.12609
 C31 C 0.32431 0.81823 -0.11722
 C32 C 0.34615 0.80840 -0.12770
 H33 H 0.38896 0.85348 -0.20372
 H34 H 0.38707 0.79341 -0.15101
 H35 H 0.35760 0.88584 -0.20191
 H36 H 0.29936 0.88260 -0.14675
 H37 H 0.29778 0.84825 -0.11782
 H38 H 0.35358 0.79105 -0.12076
 C39 C 0.85474 0.35358 -0.17813
 C40 C 0.87406 0.34141 -0.19075
 C41 C 0.88208 0.31767 -0.18332
 C42 C 0.87158 0.30707 -0.16186
 C43 C 0.85239 0.31909 -0.14896
 C44 C 0.84377 0.34235 -0.15723
 C45 C 0.84554 0.37635 -0.18672
 C46 C 0.82542 0.38824 -0.17473
 C47 C 0.81469 0.37678 -0.15380
 C48 C 0.82380 0.35412 -0.14494
 C49 C 0.81273 0.34268 -0.12438
 C50 C 0.82103 0.31939 -0.11632
 C51 C 0.84110 0.30784 -0.12838
 H52 H 0.88192 0.34987 -0.20721
 H53 H 0.87837 0.28935 -0.15520
 H54 H 0.85322 0.38418 -0.20357
 H55 H 0.79931 0.38565 -0.14421
 H56 H 0.79719 0.35150 -0.11498
 H57 H 0.84734 0.28978 -0.12217
 C58 C 0.85681 0.85175 0.32183
 C59 C 0.87607 0.83912 0.30955
 C60 C 0.88561 0.81692 0.31922
 C61 C 0.87634 0.80770 0.34173
 C62 C 0.85685 0.81992 0.35402
 C63 C 0.84696 0.84201 0.34400
 C64 C 0.84694 0.87370 0.31200
 C65 C 0.82752 0.88651 0.32416
 C66 C 0.81731 0.87609 0.34590
 C67 C 0.82694 0.85409 0.35590
 C68 C 0.81668 0.84384 0.37750
 C69 C 0.82657 0.82197 0.38767
 C70 C 0.84669 0.81014 0.37586
 H71 H 0.88339 0.84628 0.29226
 H72 H 0.88396 0.79068 0.34928
 H73 H 0.85397 0.88047 0.29443
 H74 H 0.80232 0.88551 0.35556
 H75 H 0.80081 0.85268 0.38632
 H76 H 0.85413 0.79310 0.38353
 C77 C 0.64463 0.64487 0.32535
 C78 C 0.62288 0.65615 0.31587
 C79 C 0.61226 0.67656 0.32800
 C80 C 0.62374 0.68595 0.34956
 C81 C 0.64553 0.67495 0.35921
 C82 C 0.65597 0.65424 0.34718
 C83 C 0.65563 0.62483 0.31301
 C84 C 0.67788 0.61423 0.32216
 C85 C 0.68871 0.62313 0.34424
 C86 C 0.67805 0.64322 0.35670
 C87 C 0.68944 0.65288 0.37816
 C88 C 0.67917 0.67355 0.39011
 C89 C 0.65735 0.68462 0.38041
 H90 H 0.61436 0.64934 0.29885
 H91 H 0.61572 0.70194 0.35867
 H92 H 0.64733 0.61785 0.29596
 H93 H 0.70584 0.61475 0.35128
 H94 H 0.70646 0.64453 0.38547
 H95 H 0.64975 0.70092 0.38932
 C96 C 0.64313 0.14369 -0.17521
 C97 C 0.62068 0.15419 -0.18402
 C98 C 0.60954 0.17407 -0.17143
 C99 C 0.62094 0.18335 -0.14976
 C100 C 0.64351 0.17329 -0.14089
 C101 C 0.65465 0.15334 -0.15362
 C102 C 0.65494 0.12461 -0.18836
 C103 C 0.67867 0.11565 -0.18078
 C104 C 0.68936 0.12468 -0.15857
 C105 C 0.67774 0.14362 -0.14521
 C106 C 0.68954 0.15386 -0.12427
 C107 C 0.67913 0.17446 -0.11234
 C108 C 0.65580 0.18368 -0.12028
 H109 H 0.61228 0.14751 -0.20114
 H110 H 0.61258 0.19894 -0.14028
 H111 H 0.64639 0.11783 -0.20537
 H112 H 0.70703 0.11717 -0.15187
 H113 H 0.70750 0.14669 -0.11795
 H114 H 0.64779 0.19957 -0.11099
 C115 C 0.14343 0.64161 -0.17148
 C116 C 0.12329 0.65436 -0.18242
 C117 C 0.11548 0.67718 -0.17282
 C118 C 0.12725 0.68691 -0.15161
 C119 C 0.14739 0.67435 -0.14043
 C120 C 0.15553 0.65159 -0.15039
 C121 C 0.15213 0.61947 -0.18181
 C122 C 0.17283 0.60683 -0.17135
 C123 C 0.18476 0.61705 -0.15023
 C124 C 0.17626 0.63921 -0.13972
 C125 C 0.18882 0.64977 -0.11934
 C126 C 0.18121 0.67274 -0.10989
 C127 C 0.16021 0.68469 -0.12013
 H128 H 0.11411 0.64698 -0.19886
 H129 H 0.12123 0.70463 -0.14438
 H130 H 0.14258 0.61194 -0.19797
 H131 H 0.20153 0.60843 -0.14268
 H132 H 0.20505 0.64060 -0.11128
 H133 H 0.15446 0.70246 -0.11281
 C134 C 0.14747 0.14538 0.32195
 C135 C 0.12709 0.15755 0.31069
 C136 C 0.11864 0.18051 0.31979
 C137 C 0.12931 0.18985 0.34190
 C138 C 0.14944 0.17777 0.35355
 C139 C 0.15882 0.15564 0.34334
 C140 C 0.15776 0.12404 0.31118
 C141 C 0.18010 0.11370 0.32073
 C142 C 0.19041 0.12329 0.34286
 C143 C 0.18004 0.14420 0.35410
 C144 C 0.19143 0.15463 0.37517
 C145 C 0.18240 0.17685 0.38510
 C146 C 0.16115 0.18812 0.37453
 H147 H 0.11906 0.15005 0.29373
 H148 H 0.12218 0.20687 0.34981
 H149 H 0.14957 0.11674 0.29422
 H150 H 0.20703 0.11482 0.35091
 H151 H 0.20792 0.14604 0.38335
 H152 H 0.15437 0.20540 0.38214
 C153 C 0.64653 0.35567 0.67720
 C154 C 0.62577 0.34465 0.68861
 C155 C 0.61654 0.32175 0.68026
 C156 C 0.62713 0.31062 0.65928
 C157 C 0.64772 0.32160 0.64743
 C158 C 0.65765 0.34409 0.65657
 C159 C 0.65703 0.37748 0.68678
 C160 C 0.67844 0.38799 0.67592
 C161 C 0.68936 0.37654 0.65526
 C162 C 0.67916 0.35462 0.64555
 C163 C 0.69068 0.34252 0.62565
 C164 C 0.68110 0.31996 0.61680
 C165 C 0.65927 0.30990 0.62732
 H166 H 0.61737 0.35329 0.70469
 H167 H 0.61993 0.29296 0.65284
 H168 H 0.64902 0.38598 0.70312
 H169 H 0.70611 0.38449 0.64712
 H170 H 0.70753 0.35022 0.61748
 H171 H 0.65186 0.29254 0.62032
 C172 C 0.64639 0.85541 1.17957
 C173 C 0.62628 0.84408 1.19181
 C174 C 0.61472 0.82263 1.18208
 C175 C 0.62215 0.81417 1.15850
 C176 C 0.64210 0.82547 1.14591
 C177 C 0.65450 0.84598 1.15661
 C178 C 0.65924 0.87535 1.19047
 C179 C 0.68042 0.88557 1.17897
 C180 C 0.68817 0.87648 1.15587
 C181 C 0.67547 0.85660 1.14470
 C182 C 0.68402 0.84647 1.12237
 C183 C 0.67171 0.82606 1.11162
 C184 C 0.65066 0.81580 1.12339
 H185 H 0.61987 0.85174 1.20924
 H186 H 0.61354 0.79775 1.15059
 H187 H 0.65340 0.88237 1.20836
 H188 H 0.70452 0.88450 1.14703
 H189 H 0.70070 0.85395 1.11367
 H190 H 0.64143 0.79979 1.11530
 C191 C 0.14599 0.35918 1.17732
 C192 C 0.12377 0.34956 1.18746
 C193 C 0.11204 0.32851 1.17704
 C194 C 0.12310 0.31722 1.15624
 C195 C 0.14516 0.32667 1.14589
 C196 C 0.15669 0.34772 1.15640
 C197 C 0.15829 0.37940 1.18840
 C198 C 0.18111 0.38818 1.17883
 C199 C 0.19114 0.37732 1.15742
 C200 C 0.17935 0.35687 1.14641
 C201 C 0.19041 0.34472 1.12625
 C202 C 0.17926 0.32337 1.11624
 C203 C 0.15633 0.31483 1.12567
 H204 H 0.11629 0.35776 1.20420
 H205 H 0.11437 0.30105 1.14792
 H206 H 0.15059 0.38786 1.20491
 H207 H 0.20868 0.38427 1.15001
 H208 H 0.20813 0.35128 1.11890
 H209 H 0.14770 0.29843 1.11772
 C210 C 0.14670 0.85534 0.68149
 C211 C 0.12673 0.84396 0.69391
 C212 C 0.11593 0.82190 0.68483
 C213 C 0.12437 0.81228 0.66209
 C214 C 0.14471 0.82314 0.64978
 C215 C 0.15603 0.84469 0.65954
 C216 C 0.15803 0.87674 0.69111
 C217 C 0.17861 0.88761 0.67910
 C218 C 0.18818 0.87669 0.65752
 C219 C 0.17708 0.85524 0.64769
 C220 C 0.18718 0.84365 0.62674
 C221 C 0.17648 0.82171 0.61755
 C222 C 0.15473 0.81208 0.62855
 H223 H 0.11964 0.85218 0.71082
 H224 H 0.11625 0.79532 0.65484
 H225 H 0.15117 0.88479 0.70818
 H226 H 0.20442 0.88482 0.64859
 H227 H 0.20386 0.85117 0.61807
 H228 H 0.14636 0.79528 0.62118
 C229 C 0.35194 0.64356 0.67596
 C230 C 0.37411 0.65358 0.68603
 C231 C 0.38550 0.67430 0.67507
 C232 C 0.37448 0.68509 0.65396
 C233 C 0.35211 0.67554 0.64393
 C234 C 0.34073 0.65470 0.65494
 C235 C 0.34048 0.62292 0.68687
 C236 C 0.31800 0.61327 0.67707
 C237 C 0.30664 0.62468 0.65643
 C238 C 0.31787 0.64535 0.64527
 C239 C 0.30632 0.65724 0.62503
 C240 C 0.31733 0.67836 0.61448
 C241 C 0.34052 0.68700 0.62356
 H242 H 0.38236 0.64556 0.70263
 H243 H 0.38311 0.70127 0.64569
 H244 H 0.34899 0.61428 0.70302
 H245 H 0.28898 0.61752 0.64927
 H246 H 0.28846 0.65054 0.61789
 H247 H 0.34905 0.70320 0.61521
 C248 C 0.35618 0.14220 1.17600
 C249 C 0.37940 0.15135 1.18458
 C250 C 0.39109 0.17168 1.17290
 C251 C 0.37908 0.18250 1.15218
 C252 C 0.35595 0.17356 1.14342
 C253 C 0.34429 0.15350 1.15548
 C254 C 0.34417 0.12263 1.18831
 C255 C 0.31989 0.11482 1.18107
 C256 C 0.30855 0.12584 1.16010
 C257 C 0.32046 0.14515 1.14739
 C258 C 0.30856 0.15682 1.12722
 C259 C 0.32004 0.17696 1.11538
 C260 C 0.34391 0.18494 1.12324
 H261 H 0.38764 0.14348 1.20124
 H262 H 0.38782 0.19797 1.14274
 H263 H 0.35316 0.11438 1.20441
 H264 H 0.29034 0.11934 1.15367
 H265 H 0.29006 0.15079 1.12118
 H266 H 0.35269 0.20052 1.11402
 C267 C 0.85228 0.64102 1.17282
 C268 C 0.87355 0.65238 1.18337
 C269 C 0.88352 0.67402 1.17288
 C270 C 0.87295 0.68362 1.15097
 C271 C 0.85156 0.67266 1.14035
 C272 C 0.84118 0.65124 1.15128
 C273 C 0.84095 0.62063 1.18441
 C274 C 0.81796 0.61105 1.17544
 C275 C 0.80792 0.62046 1.15312
 C276 C 0.81913 0.64064 1.14123
 C277 C 0.80769 0.65138 1.12037
 C278 C 0.81705 0.67354 1.11041
 C279 C 0.83944 0.68365 1.11996
 H280 H 0.88168 0.64514 1.20037
 H281 H 0.88073 0.70034 1.14296
 H282 H 0.84899 0.61350 1.20151
 H283 H 0.79080 0.61254 1.14547
 H284 H 0.79055 0.64344 1.11278
 H285 H 0.84672 0.70071 1.11222
 C286 C 0.85939 0.13824 0.66972
 C287 C 0.87997 0.14994 0.68112
 C288 C 0.89062 0.17122 0.67056
 C289 C 0.88019 0.18120 0.64877
 C290 C 0.85957 0.16974 0.63716
 C291 C 0.84929 0.14801 0.64749
 C292 C 0.84831 0.11732 0.68049
 C293 C 0.82744 0.10592 0.66919
 C294 C 0.81774 0.11540 0.64687
 C295 C 0.82850 0.13641 0.63597
 C296 C 0.81832 0.14643 0.61414
 C297 C 0.82818 0.16831 0.60397
 C298 C 0.84869 0.17997 0.61574
 H299 H 0.88764 0.14268 0.69832
 H300 H 0.88816 0.19791 0.64093
 H301 H 0.85551 0.11017 0.69793
 H302 H 0.80149 0.10667 0.63833
 H303 H 0.80231 0.13755 0.60530
 H304 H 0.85588 0.19724 0.60840
 C305 C 0.35570 0.35845 0.67801
 C306 C 0.34486 0.37975 0.68818
 C307 C 0.32305 0.38998 0.67758
 C308 C 0.31187 0.37862 0.65684
 C309 C 0.32233 0.35720 0.64660
 C310 C 0.34441 0.34711 0.65712
 C311 C 0.37729 0.34795 0.68871
 C312 C 0.38802 0.32654 0.67853
 C313 C 0.37667 0.31532 0.65777
 C314 C 0.35486 0.32534 0.64710
 C315 C 0.34292 0.31359 0.62702
 C316 C 0.32058 0.32321 0.61700
 C317 C 0.31069 0.34530 0.62645
 H318 H 0.35314 0.38826 0.70453
 H319 H 0.29480 0.38634 0.64893
 H320 H 0.38567 0.35623 0.70512
 H321 H 0.38471 0.29857 0.65017
 H322 H 0.35055 0.29658 0.61958
 H323 H 0.29354 0.35277 0.61849
 C324 C 0.35957 0.86023 0.17422
 C325 C 0.34847 0.88127 0.18458
 C326 C 0.32738 0.89223 0.17329
 C327 C 0.31731 0.88190 0.15145
 C328 C 0.32852 0.86116 0.14054
 C329 C 0.34982 0.85034 0.15190
 C330 C 0.37952 0.84826 0.18639
 C331 C 0.38977 0.82653 0.17652
 C332 C 0.38110 0.81766 0.15352
 C333 C 0.36085 0.82911 0.14140
 C334 C 0.35068 0.81896 0.11964
 C335 C 0.32927 0.82939 0.10848
 C336 C 0.31824 0.85046 0.11902
 H337 H 0.35588 0.88888 0.20175
 H338 H 0.30052 0.88984 0.14321
 H339 H 0.38640 0.85522 0.20404
 H340 H 0.38933 0.80106 0.14576
 H341 H 0.35891 0.80245 0.11171
 H342 H 0.30135 0.85815 0.11073
 C343 C 0.85365 0.35635 0.17837
 C344 C 0.84159 0.37700 0.18847
 C345 C 0.82034 0.38715 0.17673
 C346 C 0.81066 0.37607 0.15514
 C347 C 0.82241 0.35531 0.14488
 C348 C 0.84411 0.34549 0.15642
 C349 C 0.87504 0.34632 0.18988
 C350 C 0.88709 0.32570 0.17961
 C351 C 0.87746 0.31484 0.15787
 C352 C 0.85609 0.32464 0.14615
 C353 C 0.84637 0.31382 0.12448
 C354 C 0.82478 0.32351 0.11297
 C355 C 0.81275 0.34410 0.12338
 H356 H 0.84871 0.38531 0.20543
 H357 H 0.79407 0.38377 0.14629
 H358 H 0.88242 0.35454 0.20677
 H359 H 0.88661 0.29867 0.15022
 H360 H 0.85548 0.29777 0.11656
 H361 H 0.79579 0.35125 0.11476
 C362 C 0.85625 0.85679 0.67937
 C363 C 0.84506 0.87793 0.68947
 C364 C 0.82345 0.88813 0.67848
 C365 C 0.81285 0.87694 0.65735
 C366 C 0.82383 0.85582 0.64702
 C367 C 0.84564 0.84567 0.65803
 C368 C 0.87755 0.84627 0.69056
 C369 C 0.88863 0.82502 0.68047
 C370 C 0.87800 0.81398 0.65926
 C371 C 0.85651 0.82409 0.64802
 C372 C 0.84526 0.81260 0.62740
 C373 C 0.82321 0.82231 0.61684
 C374 C 0.81295 0.84423 0.62631
 H375 H 0.85302 0.88645 0.70596
 H376 H 0.79584 0.88455 0.64923
 H377 H 0.88542 0.85441 0.70728
 H378 H 0.88634 0.79735 0.65173
 H379 H 0.85315 0.79569 0.61999
 H380 H 0.79601 0.85176 0.61797
 C381 C 0.64561 0.64159 0.67433
 C382 C 0.65619 0.62049 0.68522
 C383 C 0.67891 0.61090 0.67640
 C384 C 0.69009 0.62130 0.65534
 C385 C 0.67955 0.64226 0.64403
 C386 C 0.65743 0.65272 0.65379
 C387 C 0.62434 0.65267 0.68464
 C388 C 0.61529 0.67518 0.67524
 C389 C 0.62658 0.68588 0.65439
 C390 C 0.64771 0.67485 0.64366
 C391 C 0.66011 0.68628 0.62385
 C392 C 0.68223 0.67606 0.61430
 C393 C 0.69153 0.65376 0.62403
 H394 H 0.64761 0.61231 0.70147
 H395 H 0.70764 0.61381 0.64859
 H396 H 0.61556 0.64456 0.70082
 H397 H 0.61956 0.70333 0.64728
 H398 H 0.65308 0.70357 0.61637
 H399 H 0.70862 0.64594 0.61657
 C400 C 0.64963 0.14363 0.17848
 C401 C 0.65972 0.12195 0.18871
 C402 C 0.68054 0.11045 0.17781
 C403 C 0.69148 0.12096 0.15662
 C404 C 0.68135 0.14240 0.14590
 C405 C 0.66031 0.15379 0.15684
 C406 C 0.62942 0.15563 0.18983
 C407 C 0.61986 0.17771 0.17991
 C408 C 0.62990 0.18729 0.15789
 C409 C 0.65022 0.17559 0.14640
 C410 C 0.66098 0.18562 0.12497
 C411 C 0.68187 0.17433 0.11399
 C412 C 0.69215 0.15290 0.12470
 H413 H 0.65156 0.11408 0.20531
 H414 H 0.70797 0.11245 0.14862
 H415 H 0.62147 0.14818 0.20673
 H416 H 0.62221 0.20418 0.15010
 H417 H 0.65330 0.20238 0.11690
 H418 H 0.70864 0.14453 0.11654
 C419 C 0.15205 0.64676 0.17975
 C420 C 0.16390 0.62698 0.19195
 C421 C 0.18695 0.61786 0.18343
 C422 C 0.19795 0.62822 0.16222
 C423 C 0.18649 0.64811 0.14996
 C424 C 0.16338 0.65738 0.15865
 C425 C 0.12940 0.65650 0.18860
 C426 C 0.11772 0.67643 0.17639
 C427 C 0.12905 0.68685 0.15538
 C428 C 0.15184 0.67756 0.14652
 C429 C 0.16364 0.68855 0.12613
 C430 C 0.18701 0.67989 0.11799
 C431 C 0.19810 0.65937 0.12958
 H432 H 0.15546 0.61892 0.20833
 H433 H 0.21570 0.62103 0.15564
 H434 H 0.12095 0.64884 0.20516
 H435 H 0.12021 0.70244 0.14618
 H436 H 0.15506 0.70429 0.11694
 H437 H 0.21611 0.65270 0.12315
 C438 C 0.14680 0.14334 0.67950
 C439 C 0.15716 0.12203 0.69028
 C440 C 0.17846 0.11087 0.67996
 C441 C 0.18956 0.12123 0.65880
 C442 C 0.17935 0.14244 0.64772
 C443 C 0.15794 0.15364 0.65816
 C444 C 0.12558 0.15463 0.68978
 C445 C 0.11537 0.17602 0.67898
 C446 C 0.12672 0.18642 0.65798
 C447 C 0.14784 0.17528 0.64739
 C448 C 0.15908 0.18544 0.62626
 C449 C 0.18005 0.17404 0.61553
 C450 C 0.19026 0.15272 0.62648
 H451 H 0.14876 0.11410 0.70673
 H452 H 0.20626 0.11281 0.65112
 H453 H 0.11691 0.14679 0.70615
 H454 H 0.11901 0.20318 0.64993
 H455 H 0.15154 0.20218 0.61804
 H456 H 0.20663 0.14413 0.61833
 C457 C 0.35775 0.64304 0.33043
 C458 C 0.34764 0.62086 0.32123
 C459 C 0.32618 0.61034 0.33205
 C460 C 0.31481 0.62220 0.35222
 C461 C 0.32446 0.64458 0.36137
 C462 C 0.34597 0.65513 0.35041
 C463 C 0.37904 0.65369 0.31955
 C464 C 0.38865 0.67629 0.32832
 C465 C 0.37657 0.68850 0.34789
 C466 C 0.35532 0.67806 0.35904
 C467 C 0.34279 0.69050 0.37814
 C468 C 0.32104 0.68031 0.38863
 C469 C 0.31241 0.65704 0.38069
 H470 H 0.35610 0.61198 0.30533
 H471 H 0.29808 0.61423 0.36038
 H472 H 0.38813 0.64452 0.30416
 H473 H 0.38361 0.70629 0.35416
 H474 H 0.34950 0.70841 0.38440
 H475 H 0.29575 0.64911 0.38903
 C476 C 0.35760 0.14473 0.82713
 C477 C 0.34825 0.12268 0.81698
 C478 C 0.32693 0.11126 0.82703
 C479 C 0.31503 0.12188 0.84760
 C480 C 0.32416 0.14396 0.85798
 C481 C 0.34544 0.15555 0.84762
 C482 C 0.37850 0.15649 0.81672
 C483 C 0.38739 0.17892 0.82650
 C484 C 0.37516 0.18980 0.84673
 C485 C 0.35421 0.17826 0.85736
 C486 C 0.34144 0.18937 0.87709
 C487 C 0.32000 0.17812 0.88713
 C488 C 0.31186 0.15511 0.87796
 H489 H 0.35726 0.11453 0.80097
 H490 H 0.29828 0.11326 0.85502
 H491 H 0.38782 0.14835 0.80089
 H492 H 0.38182 0.20738 0.85389
 H493 H 0.34775 0.20708 0.88426
 H494 H 0.29545 0.14634 0.88594
 C495 C 0.85456 0.64618 0.82648
 C496 C 0.84409 0.62516 0.81525
 C497 C 0.82092 0.61578 0.82324
 C498 C 0.80886 0.62661 0.84357
 C499 C 0.81922 0.64754 0.85516
 C500 C 0.84202 0.65759 0.84640
 C501 C 0.87685 0.65653 0.81749
 C502 C 0.88665 0.67833 0.82789
 C503 C 0.87410 0.68971 0.84768
 C504 C 0.85194 0.67938 0.85713
 C505 C 0.83908 0.69087 0.87658
 C506 C 0.81636 0.68099 0.88524
 C507 C 0.80671 0.65915 0.87475
 H508 H 0.85340 0.61659 0.79964
 H509 H 0.79099 0.61923 0.84972
 H510 H 0.88637 0.64796 0.80200
 H511 H 0.88140 0.70684 0.85533
 H512 H 0.84641 0.70779 0.88470
 H513 H 0.78916 0.65160 0.88152
 C514 C 0.85588 0.14742 0.32223
 C515 C 0.84557 0.12562 0.31234
 C516 C 0.82302 0.11603 0.32168
 C517 C 0.81072 0.12822 0.34105
 C518 C 0.82083 0.14996 0.35120
 C519 C 0.84345 0.15970 0.34171
 C520 C 0.87819 0.15733 0.31274
 C521 C 0.88821 0.17939 0.32241
 C522 C 0.87570 0.19166 0.34166
 C523 C 0.85347 0.18188 0.35150
 C524 C 0.84091 0.19405 0.37072
 C525 C 0.81839 0.18443 0.38014
 C526 C 0.80858 0.16227 0.37050
 H527 H 0.85486 0.11620 0.29722
 H528 H 0.79324 0.12075 0.34809
 H529 H 0.88773 0.14805 0.29769
 H530 H 0.88320 0.20895 0.34875
 H531 H 0.84846 0.21113 0.37827
 H532 H 0.79130 0.15479 0.37800
 C533 C 0.64293 0.35469 0.32503
 C534 C 0.65377 0.37557 0.31391
 C535 C 0.67436 0.38757 0.32514
 C536 C 0.68449 0.37823 0.34733
 C537 C 0.67407 0.35720 0.35851
 C538 C 0.65313 0.34542 0.34742
 C539 C 0.62219 0.34280 0.31408
 C540 C 0.61124 0.32205 0.32545
 C541 C 0.62172 0.31266 0.34749
 C542 C 0.64262 0.32417 0.35853
 C543 C 0.65339 0.31462 0.38032
 C544 C 0.67425 0.32628 0.39138
 C545 C 0.68446 0.34757 0.38043
 H546 H 0.64627 0.38255 0.29652
 H547 H 0.70056 0.38735 0.35582
 H548 H 0.61444 0.34967 0.29675
 H549 H 0.61349 0.29642 0.35603
 H550 H 0.64581 0.29792 0.38857
 H551 H 0.70070 0.35642 0.38888
 C552 C 0.64383 0.85818 0.82128
 C553 C 0.65411 0.88000 0.81159
 C554 C 0.67383 0.89219 0.82403
 C555 C 0.68337 0.88236 0.84628
 C556 C 0.67342 0.86045 0.85612
 C557 C 0.65357 0.84827 0.84358
 C558 C 0.62444 0.84573 0.80871
 C559 C 0.61506 0.82323 0.81783
 C560 C 0.62454 0.81358 0.84017
 C561 C 0.64382 0.82590 0.85307
 C562 C 0.65396 0.81591 0.87494
 C563 C 0.67370 0.82799 0.88743
 C564 C 0.68338 0.85020 0.87796
 H565 H 0.64716 0.88729 0.79411
 H566 H 0.69881 0.89164 0.85570
 H567 H 0.61690 0.85322 0.79154
 H568 H 0.61722 0.79622 0.84718
 H569 H 0.64685 0.79853 0.88210
 H570 H 0.69883 0.85931 0.88753
 C571 C 0.14285 0.35545 0.82419
 C572 C 0.15593 0.37493 0.81292
 C573 C 0.17838 0.38389 0.82340
 C574 C 0.18748 0.37370 0.84567
 C575 C 0.17463 0.35418 0.85716
 C576 C 0.15220 0.34502 0.84642
 C577 C 0.12091 0.34584 0.81330
 C578 C 0.10829 0.32579 0.82419
 C579 C 0.11767 0.31547 0.84630
 C580 C 0.13939 0.32509 0.85761
 C581 C 0.14885 0.31474 0.87961
 C582 C 0.17114 0.32381 0.89043
 C583 C 0.18409 0.34333 0.87892
 H584 H 0.14897 0.38286 0.79572
 H585 H 0.20474 0.38082 0.85379
 H586 H 0.11382 0.35364 0.79609
 H587 H 0.10824 0.29964 0.85441
 H588 H 0.13904 0.29944 0.88825
 H589 H 0.20169 0.34985 0.88681
 C590 C 0.14172 0.85492 0.32182
 C591 C 0.15475 0.87431 0.31027
 C592 C 0.17640 0.88447 0.32136
 C593 C 0.18453 0.87565 0.34460
 C594 C 0.17197 0.85601 0.35617
 C595 C 0.15040 0.84567 0.34483
 C596 C 0.12060 0.84410 0.31042
 C597 C 0.10815 0.82412 0.32166
 C598 C 0.11697 0.81494 0.34446
 C599 C 0.13790 0.82566 0.35619
 C600 C 0.14697 0.81617 0.37871
 C601 C 0.16868 0.82610 0.38991
 C602 C 0.18113 0.84599 0.37847
 H603 H 0.14845 0.88115 0.29238
 H604 H 0.20107 0.88370 0.35328
 H605 H 0.11398 0.85095 0.29263
 H606 H 0.10774 0.79912 0.35281
 H607 H 0.13748 0.80067 0.38735
 H608 H 0.19829 0.85323 0.38667
 O609 O 0.25103 1.02446 0.22015
 O610 O 0.21906 0.97378 0.25317
 O611 O 0.21786 1.02260 0.25421
 O612 O 0.25288 0.97650 0.21797
 O613 O 0.28255 0.97575 0.24684
 O614 O 0.24828 1.02278 0.28229
 O615 O 0.24894 0.97413 0.28178
 O616 O 0.28163 1.02384 0.24808
 Cu617 Cu 0.23204 0.99904 0.23363
 Cu618 Cu 0.26825 0.99891 0.26770
 C619 C 0.27142 1.03322 0.22890
 C620 C 0.22877 0.96507 0.27291
 C621 C 0.22793 1.03161 0.27364
 C622 C 0.27381 0.96854 0.22610
 O623 O 0.28138 0.47829 0.74759
 O624 O 0.24462 0.52245 0.78441
 O625 O 0.24853 0.47434 0.78250
 O626 O 0.27800 0.52612 0.74918
 O627 O 0.24837 0.52383 0.72033
 O628 O 0.21727 0.47407 0.75526
 O629 O 0.21480 0.52211 0.75574
 O630 O 0.25018 0.47580 0.72038
 Cu631 Cu 0.26614 0.50058 0.76881
 Cu632 Cu 0.22956 0.49901 0.73512
 C633 C 0.27184 0.46929 0.72790
 C634 C 0.22337 0.52970 0.77642
 C635 C 0.22803 0.46527 0.77440
 C636 C 0.26860 0.53326 0.72869
 O637 O 0.75328 -0.02613 0.22022
 O638 O 0.78552 0.02395 0.25419
 O639 O 0.78799 -0.02421 0.25381
 O640 O 0.75147 0.02207 0.21904
 O641 O 0.72222 0.02153 0.24793
 O642 O 0.75892 -0.02469 0.28271
 O643 O 0.75581 0.02338 0.28265
 O644 O 0.72372 -0.02673 0.24880
 Cu645 Cu 0.77250 -0.00089 0.23390
 Cu646 Cu 0.73719 -0.00181 0.26839
 C647 C 0.73318 -0.03516 0.22900
 C648 C 0.77606 0.03221 0.27411
 C649 C 0.77980 -0.03229 0.27431
 C650 C 0.73071 0.02968 0.22756
 O651 O 0.75042 0.47469 0.71965
 O652 O 0.78391 0.52432 0.75267
 O653 O 0.78476 0.47607 0.75461
 O654 O 0.74888 0.52285 0.71949
 O655 O 0.72026 0.52334 0.74901
 O656 O 0.75524 0.47561 0.78312
 O657 O 0.75519 0.52382 0.78207
 O658 O 0.72063 0.47533 0.74798
 Cu659 Cu 0.76995 0.49926 0.73371
 Cu660 Cu 0.73492 0.49921 0.76851
 C661 C 0.72953 0.46702 0.72784
 C662 C 0.77489 0.53299 0.77257
 C663 C 0.77623 0.46811 0.77507
 C664 C 0.72891 0.53163 0.72878
 O665 O 0.28715 0.52228 0.26069
 O666 O 0.25343 0.47731 0.22146
 O667 O 0.25493 0.52612 0.22445
 O668 O 0.28510 0.47452 0.25771
 O669 O 0.25371 0.47403 0.28432
 O670 O 0.22318 0.52513 0.25064
 O671 O 0.22202 0.47677 0.24804
 O672 O 0.25544 0.52237 0.28692
 Cu673 Cu 0.27319 0.50025 0.23825
 Cu674 Cu 0.23541 0.49963 0.27013
 C675 C 0.27703 0.52995 0.28047
 C676 C 0.23250 0.46863 0.22862
 C677 C 0.23420 0.53468 0.23217
 C678 C 0.27418 0.46513 0.27635
 O679 O 0.75214 1.02401 0.71585
 O680 O 0.71621 0.97884 0.75237
 O681 O 0.71804 1.02709 0.74960
 O682 O 0.75056 0.97629 0.71779
 O683 O 0.77983 0.97599 0.74711
 O684 O 0.74804 1.02761 0.77811
 O685 O 0.74584 0.97926 0.78128
 O686 O 0.78229 1.02353 0.74427
 Cu687 Cu 0.73112 1.00138 0.73110
 Cu688 Cu 0.76685 1.00161 0.76575
 C689 C 0.77351 1.03115 0.72370
 C690 C 0.72487 0.97144 0.77308
 C691 C 0.72799 1.03652 0.76887
 C692 C 0.77093 0.96784 0.72679
 O693 O 0.77849 0.47542 0.24557
 O694 O 0.74571 0.52392 0.28025
 O695 O 0.74517 0.47537 0.28115
 O696 O 0.77828 0.52342 0.24550
 O697 O 0.74770 0.52286 0.21758
 O698 O 0.71431 0.47546 0.25354
 O699 O 0.71491 0.52359 0.25251
 O700 O 0.74755 0.47452 0.21802
 Cu701 Cu 0.76495 0.49928 0.26600
 Cu702 Cu 0.72805 0.49885 0.23259
 C703 C 0.76881 0.46700 0.22571
 C704 C 0.72521 0.53260 0.27182
 C705 C 0.72394 0.46752 0.27360
 C706 C 0.76814 0.53191 0.22589
 O707 O 0.28551 0.02383 0.75467
 O708 O 0.25154 -0.02523 0.72108
 O709 O 0.25017 0.02276 0.72096
 O710 O 0.28605 -0.02421 0.75559
 O711 O 0.25628 -0.02540 0.78390
 O712 O 0.22198 0.02360 0.75085
 O713 O 0.22168 -0.02443 0.74934
 O714 O 0.25728 0.02243 0.78452
 Cu715 Cu 0.27125 -0.00069 0.73514
 Cu716 Cu 0.23635 -0.00101 0.77006
 C717 C 0.27744 0.03111 0.77552
 C718 C 0.23057 -0.03279 0.72923
 C719 C 0.22999 0.03119 0.73008
 C720 C 0.27730 -0.03272 0.77573
 O721 O 0.24279 0.28071 0.97754
 O722 O 0.27928 0.24692 1.02478
 O723 O 0.27767 0.24667 0.97594
 O724 O 0.24516 0.28053 1.02551
 O725 O 0.21626 0.25113 1.02686
 O726 O 0.24816 0.21790 0.97660
 O727 O 0.25039 0.21753 1.02530
 O728 O 0.21340 0.25183 0.97857
 Cu729 Cu 0.26429 0.26650 1.00064
 Cu730 Cu 0.22919 0.23160 1.00175
 C731 C 0.22164 0.27233 0.97041
 C732 C 0.27054 0.22700 1.03379
 C733 C 0.26814 0.22681 0.96747
 C734 C 0.22556 0.27121 1.03506
 O735 O 0.24057 0.78371 0.47745
 O736 O 0.27715 0.74978 0.52456
 O737 O 0.27643 0.75055 0.47578
 O738 O 0.24202 0.78235 0.52549
 O739 O 0.21389 0.75220 0.52568
 O740 O 0.24760 0.72111 0.47524
 O741 O 0.24902 0.71967 0.52390
 O742 O 0.21191 0.75412 0.47741
 Cu743 Cu 0.26202 0.76950 0.50062
 Cu744 Cu 0.22782 0.73371 0.50033
 C745 C 0.21974 0.77498 0.46982
 C746 C 0.26878 0.72944 0.53295
 C747 C 0.26759 0.73064 0.46676
 C748 C 0.22253 0.77229 0.53450
 O749 O 0.28712 0.75173 -0.02433
 O750 O 0.25538 0.71883 0.02651
 O751 O 0.25503 0.71597 -0.02206
 O752 O 0.28822 0.75430 0.02396
 O753 O 0.25824 0.78243 0.02144
 O754 O 0.22363 0.74263 -0.02254
 O755 O 0.22541 0.74707 0.02603
 O756 O 0.25557 0.77818 -0.02649
 Cu757 Cu 0.27450 0.73240 0.00125
 Cu758 Cu 0.23751 0.76524 -0.00039
 C759 C 0.27631 0.77006 -0.03454
 C760 C 0.23537 0.72787 0.03537
 C761 C 0.23402 0.72314 -0.03065
 C762 C 0.27907 0.77499 0.03029
 O763 O 0.22043 0.24294 0.47731
 O764 O 0.25107 0.27866 0.52718
 O765 O 0.25210 0.27899 0.47824
 O766 O 0.21895 0.24244 0.52532
 O767 O 0.25061 0.21609 0.52666
 O768 O 0.28354 0.25237 0.47902
 O769 O 0.28280 0.25236 0.52759
 O770 O 0.25188 0.21631 0.47808
 Cu771 Cu 0.23259 0.26358 0.50207
 Cu772 Cu 0.27040 0.23163 0.50306
 C773 C 0.23129 0.22390 0.46879
 C774 C 0.27189 0.27133 0.53615
 C775 C 0.27290 0.27130 0.46985
 C776 C 0.22910 0.22300 0.53393
 O777 O 0.71159 0.75406 1.02376
 O778 O 0.74409 0.72105 0.97370
 O779 O 0.74428 0.71827 1.02247
 O780 O 0.71152 0.75644 0.97601
 O781 O 0.74315 0.78302 0.97634
 O782 O 0.77471 0.74604 1.02469
 O783 O 0.77568 0.74758 0.97609
 O784 O 0.74187 0.78211 1.02424
 Cu785 Cu 0.72492 0.73451 0.99889
 Cu786 Cu 0.76210 0.76730 1.00062
 C787 C 0.72085 0.77415 1.03194
 C788 C 0.76513 0.72901 0.96605
 C789 C 0.76470 0.72602 1.03202
 C790 C 0.72175 0.77620 0.96828
 O791 O 0.74738 0.28296 0.47835
 O792 O 0.78332 0.24412 0.52197
 O793 O 0.78095 0.24896 0.47410
 O794 O 0.75006 0.27962 0.52660
 O795 O 0.72051 0.25083 0.52650
 O796 O 0.74996 0.22170 0.47233
 O797 O 0.75343 0.21576 0.52036
 O798 O 0.71645 0.25560 0.47863
 Cu799 Cu 0.76846 0.26676 0.50054
 Cu800 Cu 0.73207 0.23312 0.49946
 C801 C 0.72582 0.27581 0.47103
 C802 C 0.77474 0.22308 0.52819
 C803 C 0.77031 0.23054 0.46387
 C804 C 0.73019 0.27033 0.53560
 O805 O 0.78421 0.25202 -0.02418
 O806 O 0.75195 0.21602 0.02426
 O807 O 0.75257 0.21600 -0.02399
 O808 O 0.78558 0.25135 0.02447
 O809 O 0.75563 0.27958 0.02363
 O810 O 0.72115 0.24266 -0.02292
 O811 O 0.72211 0.24435 0.02551
 O812 O 0.75282 0.27870 -0.02463
 Cu813 Cu 0.77174 0.23114 0.00033
 Cu814 Cu 0.73483 0.26407 0.00061
 C815 C 0.77338 0.27087 -0.03339
 C816 C 0.73150 0.22415 0.03308
 C817 C 0.73149 0.22358 -0.03202
 C818 C 0.77646 0.27163 0.03201
 O819 O 0.78588 0.75265 0.47661
 O820 O 0.75366 0.71793 0.52560
 O821 O 0.75249 0.71732 0.47720
 O822 O 0.78559 0.75377 0.52523
 O823 O 0.75436 0.78065 0.52532
 O824 O 0.72198 0.74498 0.47670
 O825 O 0.72251 0.74490 0.52487
 O826 O 0.75565 0.78061 0.47683
 Cu827 Cu 0.77254 0.73272 0.50100
 Cu828 Cu 0.73557 0.76560 0.50063
 C829 C 0.77640 0.77263 0.46858
 C830 C 0.73293 0.72578 0.53397
 C831 C 0.73138 0.72485 0.46908
 C832 C 0.77504 0.77283 0.53413
 O833 O 0.97739 0.25695 0.22068
 O834 O 1.02782 0.22287 0.25274
 O835 O 0.97852 0.22159 0.25367
 O836 O 1.02577 0.25767 0.21988
 O837 O 1.02530 0.28616 0.24923
 O838 O 0.97941 0.24898 0.28404
 O839 O 1.02848 0.25129 0.28217
 O840 O 0.97666 0.28428 0.25117
 Cu841 Cu 1.00224 0.23681 0.23386
 Cu842 Cu 1.00242 0.27038 0.26977
 C843 C 0.96869 0.27654 0.23032
 C844 C 1.03737 0.23182 0.27245
 C845 C 0.97100 0.22905 0.27466
 C846 C 1.03329 0.27825 0.22856
 O847 O 0.47571 0.25089 0.78485
 O848 O 0.52631 0.28318 0.75186
 O849 O 0.47726 0.28509 0.75043
 O850 O 0.52414 0.24949 0.78611
 O851 O 0.52308 0.22027 0.75746
 O852 O 0.47653 0.25597 0.72168
 O853 O 0.52576 0.25421 0.72298
 O854 O 0.47470 0.22215 0.75570
 Cu855 Cu 0.50083 0.27021 0.77109
 Cu856 Cu 0.50000 0.23536 0.73641
 C857 C 0.46696 0.23080 0.77613
 C858 C 0.53504 0.27389 0.73211
 C859 C 0.46890 0.27654 0.73004
 C860 C 0.53118 0.22857 0.77807
 O861 O 0.02147 0.25363 0.78043
 O862 O -0.02290 0.21576 0.74394
 O863 O 0.02562 0.21885 0.74702
 O864 O -0.02733 0.24972 0.77743
 O865 O -0.02692 0.27898 0.74882
 O866 O 0.02408 0.24638 0.71674
 O867 O -0.02454 0.24504 0.71533
 O868 O 0.02226 0.28129 0.75026
 Cu869 Cu -0.00062 0.23170 0.76526
 Cu870 Cu -0.00116 0.26591 0.72992
 C871 C 0.02953 0.27382 0.77143
 C872 C -0.03145 0.22412 0.72355
 C873 C 0.03332 0.22693 0.72632
 C874 C -0.03644 0.26932 0.76807
 O875 O 0.47438 0.27529 0.25097
 O876 O 0.52777 0.24575 0.21976
 O877 O 0.47892 0.24214 0.21623
 O878 O 0.52306 0.27873 0.25420
 O879 O 0.52398 0.24879 0.28209
 O880 O 0.47894 0.21265 0.24455
 O881 O 0.52756 0.21564 0.24751
 O882 O 0.47474 0.24564 0.27920
 Cu883 Cu 0.50095 0.26343 0.23243
 Cu884 Cu 0.50131 0.22777 0.26626
 C885 C 0.46533 0.26532 0.27027
 C886 C 0.53686 0.22583 0.22846
 C887 C 0.47142 0.22116 0.22384
 C888 C 0.53121 0.26987 0.27451
 O889 O 1.02566 0.72078 0.75821
 O890 O 0.97633 0.75490 0.72491
 O891 O 1.02537 0.75531 0.72556
 O892 O 0.97656 0.72066 0.75897
 O893 O 0.97665 0.74917 0.78831
 O894 O 1.02589 0.78338 0.75533
 O895 O 0.97697 0.78370 0.75399
 O896 O 1.02559 0.74876 0.78811
 Cu897 Cu 1.00074 0.73505 0.73895
 Cu898 Cu 1.00104 0.76912 0.77442
 C899 C 1.03447 0.72927 0.77843
 C900 C 0.96857 0.77529 0.73355
 C901 C 1.03462 0.77473 0.73529
 C902 C 0.96850 0.72892 0.77946
 O903 O 0.52437 0.78342 0.25238
 O904 O 0.47556 0.74842 0.28534
 O905 O 0.52406 0.74947 0.28634
 O906 O 0.47514 0.78275 0.25098
 O907 O 0.47635 0.75401 0.22190
 O908 O 0.52405 0.72007 0.25785
 O909 O 0.47570 0.71988 0.25603
 O910 O 0.52576 0.75418 0.22385
 Cu911 Cu 0.49958 0.76907 0.27152
 Cu912 Cu 0.50052 0.73431 0.23680
 C913 C 0.53406 0.77428 0.23301
 C914 C 0.46771 0.72797 0.27661
 C915 C 0.53198 0.72885 0.27830
 C916 C 0.46720 0.77382 0.23059
 O917 O -0.02523 0.77660 0.24877
 O918 O 0.02415 0.74410 0.21399
 O919 O -0.02517 0.74457 0.21322
 O920 O 0.02360 0.77809 0.24812
 O921 O 0.02317 0.74903 0.27697
 O922 O -0.02463 0.71453 0.24104
 O923 O 0.02451 0.71468 0.24243
 O924 O -0.02553 0.74638 0.27641
 Cu925 Cu -0.00055 0.76375 0.22812
 Cu926 Cu -0.00032 0.72810 0.26199
 C927 C -0.03420 0.76663 0.26816
 C928 C 0.03268 0.72379 0.22236
 C929 C -0.03374 0.72430 0.22152
 C930 C 0.03126 0.76956 0.26872
 O931 O 0.47705 0.78026 0.74812
 O932 O 0.52464 0.74428 0.71445
 O933 O 0.47547 0.74500 0.71490
 O934 O 0.52586 0.77978 0.74626
 O935 O 0.52563 0.75275 0.77704
 O936 O 0.47685 0.71661 0.74437
 O937 O 0.52584 0.71728 0.74522
 O938 O 0.47684 0.75193 0.77764
 Cu939 Cu 0.50048 0.76507 0.72784
 Cu940 Cu 0.50112 0.73182 0.76408
 C941 C 0.46910 0.77232 0.76881
 C942 C 0.53404 0.72521 0.72466
 C943 C 0.46790 0.72471 0.72404
 C944 C 0.53457 0.77197 0.76679
 C945 C 0.39993 0.27568 0.29740
 C946 C 0.40290 0.30024 0.30631
 C947 C 0.42560 0.31275 0.30231
 C948 C 0.44547 0.30119 0.29038
 C949 C 0.44341 0.27667 0.28232
 C950 C 0.42043 0.26374 0.28546
 C951 C 0.37680 0.26298 0.29935
 C952 C 0.37407 0.23900 0.29020
 C953 C 0.39410 0.22731 0.27868
 C954 C 0.41703 0.23952 0.27615
 H955 H 0.36050 0.27153 0.30753
 H956 H 0.35622 0.22952 0.29184
 H957 H 0.39178 0.20879 0.27139
 H958 H 0.43183 0.22993 0.26649
 H959 H 0.42802 0.33160 0.30872
 H960 H 0.46278 0.31139 0.28776
 C961 C 0.43392 0.82451 0.80209
 C962 C 0.41211 0.81119 0.80982
 C963 C 0.41089 0.78561 0.80507
 C964 C 0.42954 0.77363 0.79187
 C965 C 0.45026 0.78657 0.78279
 C966 C 0.45294 0.81212 0.78822
 C967 C 0.43837 0.84924 0.80957
 C968 C 0.45994 0.86186 0.80227
 C969 C 0.47798 0.85001 0.78809
 C970 C 0.47478 0.82533 0.78140
 H971 H 0.42576 0.85890 0.82181
 H972 H 0.46291 0.88082 0.80806
 H973 H 0.49486 0.85982 0.78279
 H974 H 0.48994 0.81667 0.77144
 H975 H 0.39468 0.77480 0.81052
 H976 H 0.42742 0.75403 0.78816
 C977 C -0.10140 0.27948 0.79647
 C978 C -0.09930 0.30500 0.80307
 C979 C -0.07765 0.31810 0.79593
 C980 C -0.05768 0.30623 0.78450
 C981 C -0.05859 0.28088 0.77955
 C982 C -0.08078 0.26735 0.78486
 C983 C -0.12421 0.26623 0.79919
 C984 C -0.12616 0.24150 0.79219
 C985 C -0.10581 0.22955 0.78160
 C986 C -0.08346 0.24232 0.77763
 H987 H -0.14108 0.27495 0.80592
 H988 H -0.14373 0.23169 0.79454
 H989 H -0.10756 0.21044 0.77583
 H990 H -0.06869 0.23249 0.76822
 H991 H -0.07549 0.33753 0.80040
 H992 H -0.04101 0.31686 0.78008
 C993 C -0.09866 0.77880 0.29660
 C994 C -0.09477 0.80320 0.30556
 C995 C -0.07172 0.81500 0.30138
 C996 C -0.05239 0.80290 0.28909
 C997 C -0.05538 0.77849 0.28096
 C998 C -0.07867 0.76619 0.28457
 C999 C -0.12224 0.76693 0.29860
 C1000 C -0.12587 0.74304 0.28953
 C1001 C -0.10624 0.73055 0.27820
 C1002 C -0.08288 0.74192 0.27568
 H1003 H -0.13822 0.77609 0.30674
 H1004 H -0.14406 0.73423 0.29116
 H1005 H -0.10921 0.71207 0.27104
 H1006 H -0.06845 0.73165 0.26623
 H1007 H -0.06859 0.83372 0.30790
 H1008 H -0.03476 0.81253 0.28626
 C1009 C 0.56689 0.67713 0.31255
 C1010 C 0.59013 0.68929 0.31711
 C1011 C 0.59280 0.71425 0.31065
 C1012 C 0.57342 0.72691 0.29883
 C1013 C 0.55087 0.71497 0.29277
 C1014 C 0.54713 0.69005 0.30014
 C1015 C 0.56259 0.65265 0.32063
 C1016 C 0.53953 0.64108 0.31630
 C1017 C 0.52029 0.65365 0.30410
 C1018 C 0.52392 0.67791 0.29613
 H1019 H 0.57678 0.64240 0.33073
 H1020 H 0.53650 0.62232 0.32265
 H1021 H 0.50236 0.64464 0.30100
 H1022 H 0.50825 0.68713 0.28725
 H1023 H 0.61033 0.72387 0.31422
 H1024 H 0.57641 0.74600 0.29368
 C1025 C 0.56475 0.17511 0.81121
 C1026 C 0.58765 0.18714 0.81754
 C1027 C 0.59032 0.21246 0.81266
 C1028 C 0.57142 0.22563 0.80072
 C1029 C 0.54938 0.21389 0.79270
 C1030 C 0.54549 0.18858 0.79857
 C1031 C 0.56027 0.15023 0.81779
 C1032 C 0.53751 0.13878 0.81182
 C1033 C 0.51874 0.15189 0.79949
 C1034 C 0.52254 0.17657 0.79299
 H1035 H 0.57405 0.13955 0.82800
 H1036 H 0.53432 0.11970 0.81705
 H1037 H 0.50100 0.14297 0.79519
 H1038 H 0.50714 0.18618 0.78409
 H1039 H 0.60755 0.22205 0.81759
 H1040 H 0.57444 0.24506 0.79707
 C1041 C 1.09936 0.70134 0.79012
 C1042 C 1.09571 0.69151 0.81422
 C1043 C 1.07284 0.69533 0.82629
 C1044 C 1.05328 0.70791 0.81454
 C1045 C 1.05597 0.71675 0.79031
 C1046 C 1.07925 0.71388 0.77796
 C1047 C 1.12279 0.69958 0.77810
 C1048 C 1.12623 0.70967 0.75457
 C1049 C 1.10654 0.72175 0.74260
 C1050 C 1.08328 0.72387 0.75409
 H1051 H 1.13878 0.69079 0.78688
 H1052 H 1.14432 0.70825 0.74564
 H1053 H 1.10936 0.72972 0.72441
 H1054 H 1.06873 0.73377 0.74423
 H1055 H 1.07000 0.68819 0.84484
 H1056 H 1.03572 0.71033 0.82426
 C1057 C 1.10212 0.21987 0.30173
 C1058 C 1.09993 0.19401 0.30683
 C1059 C 1.07828 0.18141 0.29860
 C1060 C 1.05838 0.19399 0.28750
 C1061 C 1.05935 0.21959 0.28398
 C1062 C 1.08157 0.23272 0.29045
 C1063 C 1.12497 0.23286 0.30555
 C1064 C 1.12703 0.25794 0.29999
 C1065 C 1.10678 0.27054 0.28973
 C1066 C 1.08440 0.25810 0.28465
 H1067 H 1.14182 0.22373 0.31201
 H1068 H 1.14464 0.26753 0.30319
 H1069 H 1.10862 0.28993 0.28506
 H1070 H 1.06976 0.26852 0.27546
 H1071 H 1.07612 0.16174 0.30185
 H1072 H 1.04173 0.18366 0.28213
 C1073 C 0.59980 0.30199 0.71955
 C1074 C 0.59658 0.30883 0.69429
 C1075 C 0.57393 0.30329 0.68209
 C1076 C 0.55429 0.29181 0.69462
 C1077 C 0.55655 0.28590 0.71982
 C1078 C 0.57947 0.29087 0.73253
 C1079 C 0.62305 0.30526 0.73200
 C1080 C 0.62593 0.29852 0.75681
 C1081 C 0.60594 0.28815 0.76962
 C1082 C 0.58299 0.28421 0.75764
 H1083 H 0.63935 0.31260 0.72268
 H1084 H 0.64384 0.30120 0.76609
 H1085 H 0.60831 0.28284 0.78886
 H1086 H 0.56822 0.27566 0.76821
 H1087 H 0.57135 0.30815 0.66274
 H1088 H 0.53697 0.28791 0.68466
 C1089 C 0.59811 0.80490 0.22163
 C1090 C 0.59601 0.80979 0.19563
 C1091 C 0.57437 0.80151 0.18294
 C1092 C 0.55467 0.79019 0.19541
 C1093 C 0.55553 0.78689 0.22111
 C1094 C 0.57743 0.79412 0.23452
 C1095 C 0.62100 0.80844 0.23478
 C1096 C 0.62278 0.80373 0.26013
 C1097 C 0.60218 0.79465 0.27288
 C1098 C 0.57985 0.78956 0.26026
 H1099 H 0.63807 0.81402 0.22561
 H1100 H 0.64039 0.80678 0.26985
 H1101 H 0.60371 0.79085 0.29255
 H1102 H 0.56486 0.78152 0.27092
 H1103 H 0.57209 0.80470 0.16321
 H1104 H 0.53824 0.78441 0.18490
 C1105 C 1.06961 0.33091 0.19683
 C1106 C 1.09095 0.31738 0.18846
 C1107 C 1.09140 0.29162 0.19212
 C1108 C 1.07250 0.27957 0.20496
 C1109 C 1.05215 0.29259 0.21458
 C1110 C 1.05014 0.31838 0.21007
 C1111 C 1.06607 0.35610 0.19062
 C1112 C 1.04477 0.36886 0.19824
 C1113 C 1.02617 0.35678 0.21157
 C1114 C 1.02859 0.33176 0.21722
 H1115 H 1.07922 0.36602 0.17911
 H1116 H 1.04245 0.38814 0.19334
 H1117 H 1.00948 0.36671 0.21707
 H1118 H 1.01306 0.32300 0.22658
 H1119 H 1.10727 0.28067 0.18613
 H1120 H 1.07416 0.25982 0.20799
 C1121 C 1.09921 0.80410 0.72410
 C1122 C 1.09698 0.80950 0.69825
 C1123 C 1.07518 0.80191 0.68547
 C1124 C 1.05524 0.79093 0.69786
 C1125 C 1.05633 0.78689 0.72345
 C1126 C 1.07864 0.79294 0.73679
 C1127 C 1.12216 0.80748 0.73718
 C1128 C 1.12436 0.80139 0.76220
 C1129 C 1.10410 0.79119 0.77467
 C1130 C 1.08157 0.78674 0.76216
 H1131 H 1.13897 0.81397 0.72813
 H1132 H 1.14205 0.80416 0.77184
 H1133 H 1.10604 0.78612 0.79401
 H1134 H 1.06696 0.77766 0.77252
 H1135 H 1.07304 0.80542 0.66578
 H1136 H 1.03855 0.78588 0.68738
 C1137 C 0.43076 0.67340 0.69109
 C1138 C 0.40781 0.68610 0.68681
 C1139 C 0.40569 0.71090 0.69405
 C1140 C 0.42550 0.72304 0.70580
 C1141 C 0.44799 0.71072 0.71103
 C1142 C 0.45098 0.68578 0.70346
 C1143 C 0.43439 0.64895 0.68267
 C1144 C 0.45715 0.63683 0.68676
 C1145 C 0.47680 0.64886 0.69896
 C1146 C 0.47391 0.67315 0.70712
 H1147 H 0.41990 0.63911 0.67252
 H1148 H 0.45963 0.61808 0.68021
 H1149 H 0.49449 0.63942 0.70186
 H1150 H 0.48990 0.68196 0.71593
 H1151 H 0.38834 0.72090 0.69084
 H1152 H 0.42306 0.74215 0.71132
 C1153 C 0.43402 0.16877 0.19226
 C1154 C 0.41309 0.18264 0.18315
 C1155 C 0.41378 0.20857 0.18542
 C1156 C 0.43314 0.22047 0.19805
 C1157 C 0.45283 0.20711 0.20884
 C1158 C 0.45391 0.18111 0.20533
 C1159 C 0.43665 0.14326 0.18704
 C1160 C 0.45739 0.13002 0.19562
 C1161 C 0.47637 0.14192 0.20886
 C1162 C 0.47490 0.16723 0.21342
 H1163 H 0.42319 0.13342 0.17562
 H1164 H 0.45899 0.11049 0.19153
 H1165 H 0.49263 0.13160 0.21511
 H1166 H 0.49078 0.17578 0.22263
 H1167 H 0.39832 0.21986 0.17883
 H1168 H 0.43213 0.24036 0.20030
 C1169 C -0.09938 0.71206 0.19487
 C1170 C -0.09603 0.68764 0.18581
 C1171 C -0.07287 0.67583 0.18927
 C1172 C -0.05290 0.68797 0.20090
 C1173 C -0.05534 0.71245 0.20895
 C1174 C -0.07873 0.72475 0.20607
 C1175 C -0.12305 0.72386 0.19384
 C1176 C -0.12612 0.74778 0.20291
 C1177 C -0.10585 0.76038 0.21332
 C1178 C -0.08240 0.74907 0.21496
 H1179 H -0.13952 0.71462 0.18649
 H1180 H -0.14438 0.75652 0.20201
 H1181 H -0.10837 0.77890 0.22049
 H1182 H -0.06747 0.75945 0.22376
 H1183 H -0.07021 0.65706 0.18278
 H1184 H -0.03525 0.67829 0.20334
 C1185 C -0.06461 0.17236 0.68753
 C1186 C -0.08814 0.18394 0.68314
 C1187 C -0.09191 0.20825 0.69121
 C1188 C -0.07316 0.22096 0.70401
 C1189 C -0.05013 0.20968 0.70939
 C1190 C -0.04550 0.18529 0.70097
 C1191 C -0.05936 0.14852 0.67826
 C1192 C -0.03603 0.13754 0.68245
 C1193 C -0.01746 0.15008 0.69574
 C1194 C -0.02203 0.17373 0.70491
 H1195 H -0.07302 0.13832 0.66737
 H1196 H -0.03227 0.11927 0.67518
 H1197 H 0.00067 0.14152 0.69877
 H1198 H -0.00689 0.18293 0.71472
 H1199 H -0.10974 0.21736 0.68790
 H1200 H -0.07684 0.23965 0.71026
 C1201 C 0.28335 0.39953 0.30146
 C1202 C 0.30864 0.40133 0.30980
 C1203 C 0.32190 0.42345 0.30648
 C1204 C 0.31036 0.44393 0.29569
 C1205 C 0.28511 0.44302 0.28825
 C1206 C 0.27137 0.42062 0.29087
 C1207 C 0.26997 0.37696 0.30265
 C1208 C 0.24528 0.37529 0.29401
 C1209 C 0.23349 0.39591 0.28390
 C1210 C 0.24630 0.41835 0.28228
 H1211 H 0.27854 0.36028 0.30981
 H1212 H 0.23533 0.35784 0.29497
 H1213 H 0.21439 0.39445 0.27699
 H1214 H 0.23647 0.43357 0.27369
 H1215 H 0.34131 0.42493 0.31250
 H1216 H 0.32118 0.46075 0.29337
 C1217 C 0.32997 -0.06949 0.80777
 C1218 C 0.31617 -0.09109 0.81463
 C1219 C 0.29004 -0.09145 0.81050
 C1220 C 0.27798 -0.07222 0.79824
 C1221 C 0.29139 -0.05172 0.78972
 C1222 C 0.31745 -0.04975 0.79513
 C1223 C 0.35538 -0.06612 0.81494
 C1224 C 0.36841 -0.04463 0.80874
 C1225 C 0.35634 -0.02572 0.79595
 C1226 C 0.33108 -0.02802 0.78942
 H1227 H 0.36526 -0.07959 0.82613
 H1228 H 0.38786 -0.04244 0.81434
 H1229 H 0.36645 -0.00890 0.79156
 H1230 H 0.32229 -0.01230 0.78059
 H1231 H 0.27886 -0.10744 0.81548
 H1232 H 0.25797 -0.07379 0.79463
 C1233 C 0.82905 0.43029 0.80599
 C1234 C 0.81461 0.41000 0.81514
 C1235 C 0.78828 0.41107 0.81296
 C1236 C 0.77648 0.43022 0.80032
 C1237 C 0.79034 0.44931 0.78949
 C1238 C 0.81682 0.45001 0.79299
 C1239 C 0.85508 0.43245 0.81115
 C1240 C 0.86889 0.45261 0.80263
 C1241 C 0.85707 0.47147 0.78953
 C1242 C 0.83129 0.47045 0.78503
 H1243 H 0.86491 0.41907 0.82249
 H1244 H 0.88881 0.45386 0.80668
 H1245 H 0.86784 0.48730 0.78337
 H1246 H 0.82289 0.48625 0.77598
 H1247 H 0.77658 0.39611 0.81967
 H1248 H 0.75622 0.42958 0.79822
 C1249 C 0.83235 -0.07241 0.30316
 C1250 C 0.81732 -0.09151 0.31385
 C1251 C 0.79105 -0.08892 0.31313
 C1252 C 0.77970 -0.06942 0.30066
 C1253 C 0.79393 -0.05155 0.28822
 C1254 C 0.82063 -0.05269 0.28969
 C1255 C 0.85866 -0.07143 0.30715
 C1256 C 0.87327 -0.05290 0.29655
 C1257 C 0.86205 -0.03454 0.28234
 C1258 C 0.83607 -0.03417 0.27914
 H1259 H 0.86819 -0.08447 0.31912
 H1260 H 0.89338 -0.05261 0.29967
 H1261 H 0.87348 -0.02005 0.27431
 H1262 H 0.82855 -0.01874 0.26890
 H1263 H 0.77889 -0.10293 0.32097
 H1264 H 0.75935 -0.06887 0.29994
 C1265 C 0.30184 0.56890 0.67698
 C1266 C 0.30580 0.59183 0.68923
 C1267 C 0.29823 0.59454 0.71391
 C1268 C 0.28636 0.57528 0.72636
 C1269 C 0.28145 0.55278 0.71446
 C1270 C 0.28944 0.54924 0.68966
 C1271 C 0.31065 0.56480 0.65268
 C1272 C 0.30710 0.54200 0.64106
 C1273 C 0.29495 0.52285 0.65340
 C1274 C 0.28624 0.52631 0.67747
 H1275 H 0.32070 0.57894 0.64260
 H1276 H 0.31401 0.53912 0.62246
 H1277 H 0.29247 0.50513 0.64436
 H1278 H 0.27741 0.51072 0.68647
 H1279 H 0.30134 0.61186 0.72357
 H1280 H 0.28060 0.57810 0.74539
 C1281 C 0.28166 1.09803 0.20182
 C1282 C 0.30730 1.09602 0.19444
 C1283 C 0.32053 1.07432 0.20050
 C1284 C 0.30857 1.05428 0.21157
 C1285 C 0.28300 1.05515 0.21720
 C1286 C 0.26941 1.07735 0.21299
 C1287 C 0.26854 1.12075 0.20034
 C1288 C 0.24376 1.12268 0.20827
 C1289 C 0.23164 1.10231 0.21838
 C1290 C 0.24428 1.07994 0.22094
 H1291 H 0.27745 1.13752 0.19393
 H1292 H 0.23407 1.14021 0.20695
 H1293 H 0.21250 1.10401 0.22483
 H1294 H 0.23430 1.06507 0.22989
 H1295 H 0.34010 1.07228 0.19551
 H1296 H 0.31930 1.03765 0.21528
 C1297 C 0.77874 0.59472 0.19451
 C1298 C 0.80487 0.59276 0.18896
 C1299 C 0.81813 0.57193 0.19743
 C1300 C 0.80587 0.55248 0.20919
 C1301 C 0.77993 0.55314 0.21312
 C1302 C 0.76618 0.57465 0.20642
 C1303 C 0.76530 0.61698 0.19050
 C1304 C 0.74002 0.61895 0.19666
 C1305 C 0.72766 0.59916 0.20757
 C1306 C 0.74054 0.57735 0.21267
 H1307 H 0.77427 0.63346 0.18345
 H1308 H 0.73010 0.63611 0.19339
 H1309 H 0.70812 0.60093 0.21271
 H1310 H 0.73027 0.56314 0.22233
 H1311 H 0.83807 0.57010 0.19395
 H1312 H 0.81673 0.53651 0.21488
 C1313 C 0.82634 1.06251 0.68749
 C1314 C 0.81441 1.08528 0.68182
 C1315 C 0.78943 1.08901 0.68889
 C1316 C 0.77645 1.07104 0.70208
 C1317 C 0.78810 1.04885 0.70883
 C1318 C 0.81311 1.04417 0.70124
 C1319 C 0.85087 1.05730 0.67923
 C1320 C 0.86220 1.03468 0.68460
 C1321 C 0.84932 1.01680 0.69808
 C1322 C 0.82501 1.02138 0.70632
 H1323 H 0.86135 1.07044 0.66823
 H1324 H 0.88099 1.03091 0.67808
 H1325 H 0.85813 0.99918 0.70200
 H1326 H 0.81558 1.00675 0.71629
 H1327 H 0.78004 1.10627 0.68460
 H1328 H 0.75729 1.07474 0.70763
 C1329 C 0.71460 0.59750 0.29771
 C1330 C 0.69043 0.59428 0.30816
 C1331 C 0.67799 0.57157 0.30547
 C1332 C 0.68944 0.55183 0.29342
 C1333 C 0.71378 0.55415 0.28405
 C1334 C 0.72651 0.57719 0.28582
 C1335 C 0.72692 0.62068 0.29820
 C1336 C 0.75054 0.62367 0.28759
 C1337 C 0.76230 0.60377 0.27624
 C1338 C 0.75050 0.58075 0.27533
 H1339 H 0.71829 0.63680 0.30637
 H1340 H 0.75969 0.64156 0.28804
 H1341 H 0.78057 0.60622 0.26788
 H1342 H 0.76022 0.56601 0.26598
 H1343 H 0.65939 0.56901 0.31309
 H1344 H 0.67940 0.53445 0.29183
 C1345 C 0.71759 1.09980 0.79916
 C1346 C 0.69149 1.09781 0.80489
 C1347 C 0.67807 1.07705 0.79629
 C1348 C 0.69021 1.05762 0.78448
 C1349 C 0.71615 1.05826 0.78055
 C1350 C 0.72998 1.07978 0.78710
 C1351 C 0.73121 1.12199 0.80326
 C1352 C 0.75652 1.12387 0.79711
 C1353 C 0.76869 1.10412 0.78600
 C1354 C 0.75559 1.08242 0.78069
 H1355 H 0.72236 1.13843 0.81043
 H1356 H 0.76661 1.14096 0.80052
 H1357 H 0.78824 1.10585 0.78087
 H1358 H 0.76563 1.06819 0.77085
 H1359 H 0.65818 1.07508 0.79998
 H1360 H 0.67931 1.04154 0.77902
 C1361 C 0.19166 0.56437 0.82991
 C1362 C 0.18282 0.58564 0.81678
 C1363 C 0.18526 0.58612 0.79080
 C1364 C 0.19793 0.56758 0.77824
 C1365 C 0.20863 0.54766 0.79098
 C1366 C 0.20484 0.54541 0.81692
 C1367 C 0.18603 0.56055 0.85524
 C1368 C 0.19439 0.53953 0.86775
 C1369 C 0.20782 0.52147 0.85523
 C1370 C 0.21274 0.52412 0.83003
 H1371 H 0.17443 0.57330 0.86548
 H1372 H 0.18999 0.53702 0.88716
 H1373 H 0.21391 0.50500 0.86496
 H1374 H 0.22208 0.50894 0.82093
 H1375 H 0.17881 0.60184 0.78006
 H1376 H 0.20028 0.56935 0.75836
 C1377 C 0.21867 1.09590 0.30212
 C1378 C 0.19257 1.09463 0.30785
 C1379 C 0.17876 1.07372 0.30034
 C1380 C 0.19057 1.05349 0.28951
 C1381 C 0.21652 1.05352 0.28550
 C1382 C 0.23073 1.07515 0.29103
 C1383 C 0.23260 1.11809 0.30514
 C1384 C 0.25784 1.11944 0.29867
 C1385 C 0.26969 1.09906 0.28845
 C1386 C 0.25634 1.07724 0.28443
 H1387 H 0.22403 1.13495 0.31165
 H1388 H 0.26812 1.13657 0.30115
 H1389 H 0.28921 1.10032 0.28306
 H1390 H 0.26628 1.06251 0.27535
 H1391 H 0.15879 1.07249 0.30393
 H1392 H 0.17938 1.03743 0.28462
 C1393 C 0.67822 0.43243 0.69171
 C1394 C 0.69080 0.40968 0.68765
 C1395 C 0.71569 0.40693 0.69583
 C1396 C 0.72793 0.42587 0.70854
 C1397 C 0.71559 0.44804 0.71375
 C1398 C 0.69069 0.45174 0.70501
 C1399 C 0.65380 0.43669 0.68225
 C1400 C 0.64180 0.45924 0.68615
 C1401 C 0.65392 0.47804 0.69923
 C1402 C 0.67817 0.47448 0.70848
 H1403 H 0.64394 0.42287 0.67141
 H1404 H 0.62308 0.46223 0.67878
 H1405 H 0.64458 0.49558 0.70199
 H1406 H 0.68707 0.48981 0.71798
 H1407 H 0.72559 0.38971 0.69282
 H1408 H 0.74707 0.42296 0.71488
 C1409 C 0.72005 -0.09856 0.20022
 C1410 C 0.69503 -0.09479 0.19172
 C1411 C 0.68325 -0.07209 0.19609
 C1412 C 0.69593 -0.05301 0.20824
 C1413 C 0.72081 -0.05601 0.21622
 C1414 C 0.73308 -0.07895 0.21247
 C1415 C 0.73212 -0.12165 0.19759
 C1416 C 0.75653 -0.12519 0.20642
 C1417 C 0.76928 -0.10603 0.21830
 C1418 C 0.75771 -0.08316 0.22147
 H1419 H 0.72277 -0.13727 0.18904
 H1420 H 0.76552 -0.14299 0.20425
 H1421 H 0.78814 -0.10897 0.22534
 H1422 H 0.76815 -0.06904 0.23133
 H1423 H 0.66407 -0.06910 0.18995
 H1424 H 0.68631 -0.03562 0.21122
 C1425 C 0.21971 0.40441 0.20162
 C1426 C 0.19516 0.40811 0.19184
 C1427 C 0.18364 0.43122 0.19451
 C1428 C 0.19614 0.45071 0.20619
 C1429 C 0.22075 0.44786 0.21506
 C1430 C 0.23282 0.42457 0.21282
 C1431 C 0.23118 0.38084 0.20135
 C1432 C 0.25522 0.37740 0.21115
 C1433 C 0.26827 0.39720 0.22150
 C1434 C 0.25727 0.42054 0.22239
 H1435 H 0.22157 0.36475 0.19406
 H1436 H 0.26371 0.35923 0.21084
 H1437 H 0.28688 0.39440 0.22922
 H1438 H 0.26800 0.43512 0.23112
 H1439 H 0.16479 0.43420 0.18742
 H1440 H 0.18659 0.46827 0.20821
 C1441 C 0.17859 -0.06789 0.69454
 C1442 C 0.19125 -0.09054 0.69020
 C1443 C 0.21647 -0.09295 0.69738
 C1444 C 0.22896 -0.07382 0.70956
 C1445 C 0.21654 -0.05177 0.71520
 C1446 C 0.19130 -0.04838 0.70730
 C1447 C 0.15381 -0.06396 0.68589
 C1448 C 0.14174 -0.04148 0.68999
 C1449 C 0.15409 -0.02249 0.70256
 C1450 C 0.17863 -0.02579 0.71111
 H1451 H 0.14372 -0.07798 0.67553
 H1452 H 0.12276 -0.03872 0.68320
 H1453 H 0.14468 -0.00501 0.70549
 H1454 H 0.18762 -0.01033 0.72030
 H1455 H 0.22643 -0.11008 0.69406
 H1456 H 0.24833 -0.07650 0.71526
 C1457 C 0.28379 0.29654 0.40453
 C1458 C 0.30879 0.30535 0.40728
 C1459 C 0.32132 0.30246 0.43002
 C1460 C 0.30931 0.29158 0.45016
 C1461 C 0.28430 0.28367 0.44827
 C1462 C 0.27130 0.28596 0.42527
 C1463 C 0.27123 0.29728 0.38134
 C1464 C 0.24681 0.28824 0.37875
 C1465 C 0.23447 0.27822 0.39904
 C1466 C 0.24649 0.27703 0.42205
 H1467 H 0.28024 0.30438 0.36489
 H1468 H 0.23749 0.28886 0.36084
 H1469 H 0.21557 0.27103 0.39688
 H1470 H 0.23624 0.26854 0.43700
 H1471 H 0.34053 0.30883 0.43221
 H1472 H 0.31956 0.28951 0.46747
 C1473 C 0.28662 0.79542 -0.09991
 C1474 C 0.31136 0.80485 -0.09706
 C1475 C 0.32411 0.80175 -0.07446
 C1476 C 0.31250 0.79021 -0.05449
 C1477 C 0.28772 0.78171 -0.05645
 C1478 C 0.27458 0.78397 -0.07936
 C1479 C 0.27386 0.79646 -0.12296
 C1480 C 0.24969 0.78678 -0.12561
 C1481 C 0.23782 0.77581 -0.10550
 C1482 C 0.25005 0.77437 -0.08260
 H1483 H 0.28254 0.80433 -0.13923
 H1484 H 0.24019 0.78764 -0.14341
 H1485 H 0.21914 0.76813 -0.10772
 H1486 H 0.24023 0.76518 -0.06776
 H1487 H 0.34311 0.80866 -0.07216
 H1488 H 0.32279 0.78833 -0.03717
 C1489 C 0.78254 0.29879 -0.09800
 C1490 C 0.80793 0.30657 -0.09585
 C1491 C 0.82128 0.30195 -0.07386
 C1492 C 0.80976 0.29037 -0.05385
 C1493 C 0.78445 0.28333 -0.05511
 C1494 C 0.77059 0.28731 -0.07740
 C1495 C 0.76902 0.30141 -0.12051
 C1496 C 0.74422 0.29330 -0.12258
 C1497 C 0.73246 0.28230 -0.10245
 C1498 C 0.74541 0.27926 -0.08010
 H1499 H 0.77754 0.30933 -0.13684
 H1500 H 0.73415 0.29537 -0.13997
 H1501 H 0.71328 0.27579 -0.10423
 H1502 H 0.73558 0.26997 -0.06534
 H1503 H 0.84078 0.30755 -0.07213
 H1504 H 0.82061 0.28715 -0.03708
 C1505 C 0.81171 0.82275 0.43262
 C1506 C 0.81466 0.81032 0.40961
 C1507 C 0.80567 0.78606 0.40702
 C1508 C 0.79351 0.77422 0.42643
 C1509 C 0.78957 0.78635 0.44896
 C1510 C 0.79880 0.81072 0.45238
 C1511 C 0.82197 0.84651 0.43676
 C1512 C 0.81903 0.85837 0.45952
 C1513 C 0.80617 0.84675 0.47867
 C1514 C 0.79625 0.82310 0.47528
 H1515 H 0.83269 0.85598 0.42268
 H1516 H 0.82698 0.87661 0.46239
 H1517 H 0.80412 0.85600 0.49634
 H1518 H 0.78690 0.81454 0.49084
 H1519 H 0.80781 0.77627 0.38963
 H1520 H 0.78670 0.75550 0.42370
 C1521 C 0.70447 0.28245 0.60048
 C1522 C 0.69441 0.30650 0.59689
 C1523 C 0.69722 0.31820 0.57387
 C1524 C 0.70912 0.30629 0.55431
 C1525 C 0.71829 0.28222 0.55710
 C1526 C 0.71620 0.27012 0.58031
 C1527 C 0.70382 0.27064 0.62387
 C1528 C 0.71385 0.24704 0.62708
 C1529 C 0.72496 0.23487 0.60726
 C1530 C 0.72627 0.24630 0.58413
 H1531 H 0.69599 0.27959 0.63997
 H1532 H 0.71318 0.23822 0.64509
 H1533 H 0.73286 0.21662 0.60989
 H1534 H 0.73550 0.23649 0.56937
 H1535 H 0.68987 0.33666 0.57095
 H1536 H 0.71078 0.31576 0.53668
 C1537 C 0.68751 0.82610 1.06699
 C1538 C 0.68253 0.81363 1.08961
 C1539 C 0.68881 0.78858 1.09192
 C1540 C 0.70062 0.77608 1.07279
 C1541 C 0.70706 0.78826 1.05087
 C1542 C 0.70009 0.81336 1.04752
 C1543 C 0.67962 0.85070 1.06298
 C1544 C 0.68439 0.86260 1.04055
 C1545 C 0.69684 0.85024 1.02164
 C1546 C 0.70458 0.82585 1.02497
 H1547 H 0.66931 0.86079 1.07690
 H1548 H 0.67819 0.88146 1.03773
 H1549 H 0.70029 0.85952 1.00420
 H1550 H 0.71366 0.81682 1.00957
 H1551 H 0.68503 0.77869 1.10898
 H1552 H 0.70536 0.75685 1.07546
 C1553 C 0.20008 0.28456 1.09983
 C1554 C 0.19201 0.30934 1.09640
 C1555 C 0.19593 0.32103 1.07358
 C1556 C 0.20692 0.30839 1.05397
 C1557 C 0.21392 0.28357 1.05646
 C1558 C 0.21077 0.27143 1.07959
 C1559 C 0.19848 0.27278 1.12318
 C1560 C 0.20673 0.24853 1.12637
 C1561 C 0.21683 0.23559 1.10654
 C1562 C 0.21889 0.24683 1.08338
 H1563 H 0.19132 0.28228 1.13928
 H1564 H 0.20545 0.23980 1.14439
 H1565 H 0.22339 0.21683 1.10917
 H1566 H 0.22739 0.23617 1.06876
 H1567 H 0.19015 0.34004 1.07084
 H1568 H 0.20961 0.31797 1.03654
 C1569 C 0.19772 0.78364 0.59987
 C1570 C 0.18868 0.80819 0.59701
 C1571 C 0.19140 0.82023 0.57418
 C1572 C 0.20234 0.80826 0.55412
 C1573 C 0.21037 0.78371 0.55612
 C1574 C 0.20813 0.77111 0.57911
 C1575 C 0.19747 0.77157 0.62313
 C1576 C 0.20650 0.74753 0.62570
 C1577 C 0.21608 0.73507 0.60531
 C1578 C 0.21695 0.74666 0.58225
 H1579 H 0.19081 0.78068 0.63966
 H1580 H 0.20622 0.73857 0.64366
 H1581 H 0.22322 0.71645 0.60744
 H1582 H 0.22512 0.73638 0.56718
 H1583 H 0.18489 0.83907 0.57185
 H1584 H 0.20429 0.81817 0.53678
 C1585 C 0.29649 0.71708 0.59750
 C1586 C 0.30418 0.69214 0.59448
 C1587 C 0.29956 0.68013 0.57188
 C1588 C 0.28817 0.69254 0.55215
 C1589 C 0.28147 0.71748 0.55424
 C1590 C 0.28545 0.72999 0.57712
 C1591 C 0.29877 0.72920 0.62064
 C1592 C 0.29093 0.75360 0.62351
 C1593 C 0.28056 0.76635 0.60355
 C1594 C 0.27778 0.75477 0.58061
 H1595 H 0.30614 0.71987 0.63687
 H1596 H 0.29273 0.76259 0.64137
 H1597 H 0.27430 0.78524 0.60592
 H1598 H 0.26900 0.76534 0.56597
 H1599 H 0.30507 0.66100 0.56944
 H1600 H 0.28484 0.68268 0.53494
 C1601 C 0.29952 0.21562 1.09799
 C1602 C 0.30667 0.19050 1.09537
 C1603 C 0.30123 0.17801 1.07321
 C1604 C 0.28955 0.19015 1.05347
 C1605 C 0.28333 0.21524 1.05514
 C1606 C 0.28805 0.22820 1.07763
 C1607 C 0.30279 0.22829 1.12073
 C1608 C 0.29535 0.25285 1.12323
 C1609 C 0.28442 0.26523 1.10332
 C1610 C 0.28075 0.25313 1.08076
 H1611 H 0.31065 0.21927 1.13690
 H1612 H 0.29790 0.26226 1.14079
 H1613 H 0.27847 0.28424 1.10543
 H1614 H 0.27162 0.26343 1.06614
 H1615 H 0.30632 0.15874 1.07111
 H1616 H 0.28565 0.17995 1.03657
 C1617 C 0.77729 0.69447 1.09448
 C1618 C 0.80261 0.68698 1.09098
 C1619 C 0.81464 0.69274 1.06867
 C1620 C 0.80201 0.70529 1.04979
 C1621 C 0.77676 0.71194 1.05234
 C1622 C 0.76407 0.70640 1.07475
 C1623 C 0.76507 0.69122 1.11747
 C1624 C 0.74015 0.69836 1.12054
 C1625 C 0.72700 0.70920 1.10102
 C1626 C 0.73880 0.71336 1.07842
 H1627 H 0.77465 0.68362 1.13346
 H1628 H 0.73104 0.69562 1.13822
 H1629 H 0.70765 0.71475 1.10352
 H1630 H 0.72794 0.72226 1.06403
 H1631 H 0.83403 0.68744 1.06585
 H1632 H 0.81197 0.70965 1.03288
 C1633 C 0.82847 0.18862 0.56109
 C1634 C 0.81545 0.18023 0.58243
 C1635 C 0.78946 0.18401 0.58391
 C1636 C 0.77657 0.19688 0.56553
 C1637 C 0.78929 0.20724 0.54541
 C1638 C 0.81535 0.20255 0.54259
 C1639 C 0.85402 0.18286 0.55731
 C1640 C 0.86655 0.19119 0.53628
 C1641 C 0.85386 0.20503 0.51842
 C1642 C 0.82848 0.21053 0.52136
 H1643 H 0.86442 0.17144 0.57024
 H1644 H 0.88615 0.18663 0.53367
 H1645 H 0.86363 0.21120 0.50200
 H1646 H 0.81925 0.22057 0.50658
 H1647 H 0.77905 0.17752 0.59985
 H1648 H 0.75655 0.19945 0.56755
 C1649 C 0.67982 0.68880 0.43481
 C1650 C 0.69213 0.68461 0.41192
 C1651 C 0.71721 0.69206 0.40922
 C1652 C 0.72981 0.70444 0.42824
 C1653 C 0.71761 0.71011 0.45039
 C1654 C 0.69256 0.70196 0.45407
 C1655 C 0.65536 0.67969 0.43921
 C1656 C 0.64349 0.68402 0.46176
 C1657 C 0.65578 0.69719 0.48042
 C1658 C 0.68010 0.70599 0.47674
 H1659 H 0.64535 0.66880 0.42551
 H1660 H 0.62473 0.67694 0.46485
 H1661 H 0.64653 0.70036 0.49794
 H1662 H 0.68912 0.71563 0.49192
 H1663 H 0.72694 0.68887 0.39193
 H1664 H 0.74902 0.71041 0.42529
 C1665 C 0.71744 0.19792 -0.09665
 C1666 C 0.69339 0.18732 -0.09246
 C1667 C 0.68250 0.18925 -0.06896
 C1668 C 0.69516 0.20099 -0.04955
 C1669 C 0.71929 0.21067 -0.05294
 C1670 C 0.73075 0.20914 -0.07658
 C1671 C 0.72819 0.19840 -0.12055
 C1672 C 0.75181 0.20885 -0.12439
 C1673 C 0.76512 0.21915 -0.10465
 C1674 C 0.75477 0.21936 -0.08099
 H1675 H 0.71836 0.19118 -0.13661
 H1676 H 0.75976 0.20909 -0.14281
 H1677 H 0.78340 0.22736 -0.10774
 H1678 H 0.76563 0.22807 -0.06643
 H1679 H 0.66403 0.18152 -0.06561
 H1680 H 0.68617 0.20231 -0.03163
 C1681 C 0.22102 0.69324 -0.09376
 C1682 C 0.19598 0.68504 -0.09004
 C1683 C 0.18428 0.68954 -0.06731
 C1684 C 0.19701 0.70165 -0.04819
 C1685 C 0.22194 0.70931 -0.05110
 C1686 C 0.23424 0.70519 -0.07403
 C1687 C 0.23288 0.69069 -0.11700
 C1688 C 0.25730 0.69925 -0.12057
 C1689 C 0.27032 0.71065 -0.10127
 C1690 C 0.25900 0.71367 -0.07825
 H1691 H 0.22334 0.68249 -0.13274
 H1692 H 0.26609 0.69722 -0.13850
 H1693 H 0.28920 0.71748 -0.10422
 H1694 H 0.26974 0.72320 -0.06414
 H1695 H 0.16504 0.68369 -0.06440
 H1696 H 0.18732 0.70503 -0.03091
 C1697 C 0.22105 0.19763 0.40360
 C1698 C 0.19597 0.18897 0.40589
 C1699 C 0.18332 0.19215 0.42834
 C1700 C 0.19518 0.20326 0.44857
 C1701 C 0.22020 0.21114 0.44713
 C1702 C 0.23341 0.20847 0.42449
 C1703 C 0.23380 0.19660 0.38072
 C1704 C 0.25827 0.20553 0.37859
 C1705 C 0.27047 0.21577 0.39904
 C1706 C 0.25826 0.21729 0.42176
 H1707 H 0.22491 0.18935 0.36415
 H1708 H 0.26775 0.20468 0.36091
 H1709 H 0.28941 0.22288 0.39723
 H1710 H 0.26838 0.22595 0.43686
 H1711 H 0.16406 0.18591 0.43021
 H1712 H 0.18476 0.20561 0.46559
 C1713 C 0.32283 0.43487 0.69206
 C1714 C 0.31076 0.41158 0.68926
 C1715 C 0.28626 0.40843 0.69806
 C1716 C 0.27389 0.42755 0.71008
 C1717 C 0.28571 0.45037 0.71394
 C1718 C 0.31024 0.45439 0.70467
 C1719 C 0.34682 0.43942 0.68202
 C1720 C 0.35827 0.46251 0.68463
 C1721 C 0.34605 0.48151 0.69706
 C1722 C 0.32225 0.47761 0.70696
 H1723 H 0.35677 0.42538 0.67175
 H1724 H 0.37666 0.46574 0.67679
 H1725 H 0.35496 0.49944 0.69884
 H1726 H 0.31326 0.49303 0.71604
 H1727 H 0.27675 0.39080 0.69598
 H1728 H 0.25511 0.42430 0.71701
 C1729 C 0.30948 0.93606 0.17392
 C1730 C 0.31452 0.91310 0.18576
 C1731 C 0.30697 0.90956 0.21034
 C1732 C 0.29418 0.92790 0.22306
 C1733 C 0.28804 0.95027 0.21156
 C1734 C 0.29590 0.95472 0.18687
 C1735 C 0.31830 0.94123 0.14983
 C1736 C 0.31337 0.96394 0.13855
 C1737 C 0.29993 0.98203 0.15110
 C1738 C 0.29138 0.97763 0.17508
 H1739 H 0.32943 0.92804 0.13964
 H1740 H 0.32023 0.96762 0.12006
 H1741 H 0.29637 0.99970 0.14231
 H1742 H 0.28161 0.99246 0.18435
 H1743 H 0.31073 0.89222 0.21973
 H1744 H 0.28862 0.92433 0.24196
 C1745 C 0.82019 0.43190 0.19127
 C1746 C 0.80769 0.40897 0.18757
 C1747 C 0.78258 0.40642 0.19478
 C1748 C 0.77009 0.42570 0.20648
 C1749 C 0.78242 0.44803 0.21155
 C1750 C 0.80749 0.45155 0.20351
 C1751 C 0.84481 0.43597 0.18252
 C1752 C 0.85677 0.45867 0.18614
 C1753 C 0.84442 0.47781 0.19820
 C1754 C 0.81998 0.47443 0.20670
 H1755 H 0.85489 0.42188 0.17246
 H1756 H 0.87564 0.46150 0.17932
 H1757 H 0.85371 0.49547 0.20073
 H1758 H 0.81091 0.49002 0.21537
 H1759 H 0.77272 0.38909 0.19187
 H1760 H 0.75087 0.42289 0.21236
 C1761 C 0.80723 0.93237 0.67727
 C1762 C 0.81100 0.90969 0.69002
 C1763 C 0.80235 0.90712 0.71437
 C1764 C 0.78952 0.92624 0.72595
 C1765 C 0.78466 0.94840 0.71345
 C1766 C 0.79374 0.95182 0.68901
 C1767 C 0.81722 0.93642 0.65341
 C1768 C 0.81370 0.95894 0.64128
 C1769 C 0.80037 0.97786 0.65265
 C1770 C 0.79050 0.97445 0.67629
 H1771 H 0.82819 0.92246 0.64410
 H1772 H 0.82152 0.96179 0.62302
 H1773 H 0.79787 0.99537 0.64322
 H1774 H 0.78071 0.98984 0.68455
 H1775 H 0.80524 0.88998 0.72439
 H1776 H 0.78294 0.92356 0.74474
 C1777 C 0.70098 0.59527 0.71512
 C1778 C 0.69211 0.59131 0.69054
 C1779 C 0.69612 0.56844 0.67908
 C1780 C 0.70814 0.54931 0.69174
 C1781 C 0.71610 0.55239 0.71635
 C1782 C 0.71264 0.57551 0.72830
 C1783 C 0.69925 0.61870 0.72663
 C1784 C 0.70817 0.62238 0.75072
 C1785 C 0.71909 0.60296 0.76378
 C1786 C 0.72136 0.57977 0.75277
 H1787 H 0.69145 0.63452 0.71706
 H1788 H 0.70675 0.64044 0.75924
 H1789 H 0.72614 0.60595 0.78242
 H1790 H 0.73050 0.56550 0.76351
 H1791 H 0.68975 0.56534 0.66020
 H1792 H 0.71094 0.53181 0.68238
 C1793 C 0.69565 0.06569 0.17697
 C1794 C 0.69195 0.08837 0.18972
 C1795 C 0.69971 0.09047 0.21453
 C1796 C 0.71168 0.07100 0.22654
 C1797 C 0.71661 0.04889 0.21405
 C1798 C 0.70832 0.04586 0.18920
 C1799 C 0.68645 0.06200 0.15261
 C1800 C 0.69016 0.03957 0.14042
 C1801 C 0.70275 0.02033 0.15228
 C1802 C 0.71164 0.02329 0.17648
 H1803 H 0.67598 0.07617 0.14292
 H1804 H 0.68302 0.03704 0.12174
 H1805 H 0.70537 0.00290 0.14277
 H1806 H 0.72075 0.00764 0.18520
 H1807 H 0.69693 0.10760 0.22457
 H1808 H 0.71781 0.07345 0.24560
 C1809 C 0.22377 0.60040 0.20805
 C1810 C 0.19975 0.59745 0.19680
 C1811 C 0.18757 0.57449 0.19811
 C1812 C 0.19901 0.55438 0.20968
 C1813 C 0.22309 0.55655 0.22005
 C1814 C 0.23561 0.57974 0.21963
 C1815 C 0.23596 0.62364 0.20876
 C1816 C 0.25938 0.62635 0.22022
 C1817 C 0.27099 0.60615 0.23140
 C1818 C 0.25926 0.58307 0.23124
 H1819 H 0.22740 0.63999 0.20087
 H1820 H 0.26846 0.64428 0.22063
 H1821 H 0.28906 0.60842 0.24046
 H1822 H 0.26878 0.56807 0.24060
 H1823 H 0.16912 0.57206 0.18981
 H1824 H 0.18913 0.53684 0.21025
 C1825 C 0.19351 0.06618 0.67976
 C1826 C 0.19005 0.08907 0.69215
 C1827 C 0.19846 0.09173 0.71669
 C1828 C 0.21096 0.07257 0.72874
 C1829 C 0.21572 0.05026 0.71653
 C1830 C 0.20666 0.04667 0.69199
 C1831 C 0.18360 0.06200 0.65575
 C1832 C 0.18690 0.03931 0.64394
 C1833 C 0.19991 0.02034 0.65580
 C1834 C 0.20968 0.02387 0.67960
 H1835 H 0.17285 0.07600 0.64608
 H1836 H 0.17915 0.03636 0.62556
 H1837 H 0.20225 0.00271 0.64660
 H1838 H 0.21921 0.00844 0.68826
 H1839 H 0.19581 0.10903 0.72645
 H1840 H 0.21757 0.07541 0.74759
 C1841 C 0.32719 0.56551 0.31731
 C1842 C 0.31421 0.58813 0.32085
 C1843 C 0.28923 0.59020 0.31273
 C1844 C 0.27733 0.57079 0.30045
 C1845 C 0.29010 0.54877 0.29561
 C1846 C 0.31509 0.54573 0.30437
 C1847 C 0.35169 0.56186 0.32683
 C1848 C 0.36415 0.53950 0.32324
 C1849 C 0.35242 0.52029 0.31043
 C1850 C 0.32808 0.52323 0.30117
 H1851 H 0.36127 0.57603 0.33745
 H1852 H 0.38294 0.53699 0.33063
 H1853 H 0.36212 0.50291 0.30789
 H1854 H 0.31946 0.50761 0.29190
 H1855 H 0.27902 0.60732 0.31531
 H1856 H 0.25822 0.57333 0.29385
 C1857 C 0.31262 0.06626 0.82667
 C1858 C 0.31580 0.08935 0.81458
 C1859 C 0.30777 0.09208 0.78993
 C1860 C 0.29590 0.07277 0.77746
 C1861 C 0.29151 0.05019 0.78931
 C1862 C 0.30031 0.04650 0.81392
 C1863 C 0.32198 0.06215 0.85089
 C1864 C 0.31910 0.03919 0.86234
 C1865 C 0.30710 0.01990 0.84989
 C1866 C 0.29784 0.02339 0.82589
 H1867 H 0.33194 0.07643 0.86102
 H1868 H 0.32642 0.03628 0.88089
 H1869 H 0.30515 0.00205 0.85879
 H1870 H 0.28915 0.00773 0.81673
 H1871 H 0.31021 0.10956 0.78040
 H1872 H 0.28945 0.07571 0.75857
 C1873 C 0.80107 0.59789 0.78428
 C1874 C 0.80868 0.59533 0.80944
 C1875 C 0.80455 0.57292 0.82178
 C1876 C 0.79363 0.55292 0.80950
 C1877 C 0.78690 0.55460 0.78441
 C1878 C 0.79045 0.57726 0.77153
 C1879 C 0.80300 0.62079 0.77176
 C1880 C 0.79518 0.62315 0.74715
 C1881 C 0.78517 0.60293 0.73458
 C1882 C 0.78275 0.58022 0.74655
 H1883 H 0.81011 0.63718 0.78092
 H1884 H 0.79673 0.64083 0.73785
 H1885 H 0.77892 0.60492 0.71553
 H1886 H 0.77427 0.56532 0.73611
 H1887 H 0.81000 0.57087 0.84108
 H1888 H 0.79067 0.53583 0.81959
 C1889 C 0.82235 0.06984 0.31336
 C1890 C 0.81167 0.09367 0.31047
 C1891 C 0.78947 0.09649 0.29665
 C1892 C 0.77811 0.07626 0.28518
 C1893 C 0.78856 0.05264 0.28732
 C1894 C 0.81054 0.04912 0.30183
 C1895 C 0.84417 0.06605 0.32790
 C1896 C 0.85407 0.04236 0.33099
 C1897 C 0.84232 0.02208 0.31996
 C1898 C 0.82068 0.02534 0.30560
 H1899 H 0.85359 0.08123 0.33718
 H1900 H 0.87078 0.03970 0.34223
 H1901 H 0.84989 0.00371 0.32272
 H1902 H 0.81169 0.00914 0.29785
 H1903 H 0.78107 0.11460 0.29447
 H1904 H 0.76116 0.07908 0.27429
 C1905 C 0.67278 0.43146 0.30793
 C1906 C 0.68615 0.40934 0.31310
 C1907 C 0.71153 0.40765 0.30661
 C1908 C 0.72354 0.42697 0.29440
 C1909 C 0.71050 0.44852 0.28805
 C1910 C 0.68502 0.45117 0.29517
 C1911 C 0.64775 0.43474 0.31579
 C1912 C 0.63495 0.45667 0.31082
 C1913 C 0.64684 0.47585 0.29828
 C1914 C 0.67166 0.47328 0.29064
 H1915 H 0.63797 0.42063 0.32618
 H1916 H 0.61577 0.45890 0.31696
 H1917 H 0.63688 0.49293 0.29471
 H1918 H 0.68031 0.48892 0.28158
 H1919 H 0.72205 0.39096 0.31061
 H1920 H 0.74304 0.42477 0.28922
 C1921 C 0.67257 0.93592 0.80628
 C1922 C 0.68596 0.91411 0.81264
 C1923 C 0.71163 0.91257 0.80732
 C1924 C 0.72391 0.93165 0.79508
 C1925 C 0.71089 0.95282 0.78749
 C1926 C 0.68512 0.95541 0.79347
 C1927 C 0.64717 0.93908 0.81293
 C1928 C 0.63433 0.96071 0.80678
 C1929 C 0.64656 0.97969 0.79423
 C1930 C 0.67173 0.97722 0.78774
 H1931 H 0.63712 0.92512 0.82328
 H1932 H 0.61486 0.96287 0.81201
 H1933 H 0.63656 0.99654 0.78975
 H1934 H 0.68062 0.99271 0.77863
 H1935 H 0.72216 0.89610 0.81214
 H1936 H 0.74365 0.92952 0.79077
 C1937 C 0.21677 0.40070 0.80114
 C1938 C 0.19231 0.40404 0.81089
 C1939 C 0.18036 0.42695 0.80817
 C1940 C 0.19230 0.44658 0.79637
 C1941 C 0.21664 0.44396 0.78712
 C1942 C 0.22910 0.42089 0.78927
 C1943 C 0.22893 0.37752 0.80212
 C1944 C 0.25276 0.37441 0.79203
 C1945 C 0.26483 0.39414 0.78055
 C1946 C 0.25316 0.41714 0.77904
 H1947 H 0.22006 0.36150 0.81031
 H1948 H 0.26182 0.35652 0.79292
 H1949 H 0.28323 0.39154 0.77255
 H1950 H 0.26305 0.43176 0.76951
 H1951 H 0.16160 0.42967 0.81532
 H1952 H 0.18253 0.46406 0.79458
 C1953 C 0.21664 0.90166 0.30262
 C1954 C 0.19079 0.90419 0.30846
 C1955 C 0.17822 0.92602 0.30193
 C1956 C 0.19084 0.94542 0.29039
 C1957 C 0.21658 0.94387 0.28543
 C1958 C 0.22975 0.92182 0.29150
 C1959 C 0.22957 0.87920 0.30679
 C1960 C 0.25494 0.87694 0.30107
 C1961 C 0.26788 0.89676 0.29080
 C1962 C 0.25547 0.91891 0.28590
 H1963 H 0.22019 0.86303 0.31404
 H1964 H 0.26457 0.85963 0.30444
 H1965 H 0.28756 0.89486 0.28628
 H1966 H 0.26626 0.93351 0.27745
 H1967 H 0.15844 0.92815 0.30602
 H1968 H 0.18048 0.96200 0.28563
 C1969 C 0.43322 0.32718 0.69478
 C1970 C 0.41005 0.31469 0.69068
 C1971 C 0.40742 0.29013 0.69860
 C1972 C 0.42688 0.27809 0.71095
 C1973 C 0.44952 0.29028 0.71610
 C1974 C 0.45305 0.31492 0.70780
 C1975 C 0.43745 0.35128 0.68559
 C1976 C 0.46037 0.36321 0.68961
 C1977 C 0.47962 0.35133 0.70250
 C1978 C 0.47615 0.32736 0.71140
 H1979 H 0.42331 0.36098 0.67489
 H1980 H 0.46331 0.38170 0.68247
 H1981 H 0.49744 0.36063 0.70536
 H1982 H 0.49184 0.31862 0.72075
 H1983 H 0.38991 0.28028 0.69555
 H1984 H 0.42402 0.25920 0.71706
 C1985 C 0.40440 0.78745 0.19842
 C1986 C 0.40869 0.81229 0.19092
 C1987 C 0.43135 0.82393 0.19741
 C1988 C 0.44997 0.81124 0.21047
 C1989 C 0.44670 0.78640 0.21703
 C1990 C 0.42374 0.77428 0.21115
 C1991 C 0.38101 0.77564 0.19429
 C1992 C 0.37710 0.75123 0.20168
 C1993 C 0.39617 0.73822 0.21360
 C1994 C 0.41921 0.74959 0.21846
 H1995 H 0.36535 0.78517 0.18576
 H1996 H 0.35910 0.74245 0.19832
 H1997 H 0.39300 0.71931 0.21941
 H1998 H 0.43323 0.73893 0.22822
 H1999 H 0.43473 0.84297 0.19210
 H2000 H 0.46732 0.82076 0.21509
 C2001 C 0.93311 0.31320 0.18074
 C2002 C 0.90927 0.31480 0.19222
 C2003 C 0.90612 0.30528 0.21618
 C2004 C 0.92578 0.29341 0.22844
 C2005 C 0.94910 0.29053 0.21702
 C2006 C 0.95317 0.30085 0.19321
 C2007 C 0.93765 0.32415 0.15741
 C2008 C 0.96130 0.32272 0.14654
 C2009 C 0.98087 0.31059 0.15869
 C2010 C 0.97696 0.29977 0.18182
 H2011 H 0.92316 0.33423 0.14756
 H2012 H 0.96452 0.33126 0.12867
 H2013 H 0.99924 0.30972 0.15024
 H2014 H 0.99281 0.29094 0.19077
 H2015 H 0.88807 0.30657 0.22525
 H2016 H 0.92258 0.28581 0.24675
 C2017 C 0.93338 0.82581 0.69774
 C2018 C 0.91035 0.81324 0.69315
 C2019 C 0.90753 0.78875 0.70120
 C2020 C 0.92670 0.77683 0.71409
 C2021 C 0.94921 0.78909 0.71966
 C2022 C 0.95292 0.81368 0.71128
 C2023 C 0.93776 0.84988 0.68851
 C2024 C 0.96057 0.86188 0.69295
 C2025 C 0.97955 0.85010 0.70631
 C2026 C 0.97592 0.82619 0.71529
 H2027 H 0.92384 0.85949 0.67746
 H2028 H 0.96363 0.88033 0.68577
 H2029 H 0.99729 0.85944 0.70950
 H2030 H 0.99142 0.81755 0.72503
 H2031 H 0.89012 0.77886 0.69777
 H2032 H 0.92377 0.75795 0.72019
 C2033 C 0.56631 0.32175 0.30873
 C2034 C 0.58935 0.30946 0.31374
 C2035 C 0.59191 0.28451 0.30724
 C2036 C 0.57254 0.27190 0.29520
 C2037 C 0.55008 0.28388 0.28901
 C2038 C 0.54660 0.30891 0.29604
 C2039 C 0.56213 0.34631 0.31661
 C2040 C 0.53938 0.35809 0.31163
 C2041 C 0.52026 0.34564 0.29904
 C2042 C 0.52369 0.32126 0.29142
 H2043 H 0.57617 0.35650 0.32701
 H2044 H 0.53647 0.37692 0.31777
 H2045 H 0.50256 0.35483 0.29542
 H2046 H 0.50811 0.31213 0.28227
 H2047 H 0.60931 0.27483 0.31107
 H2048 H 0.57544 0.25277 0.28995
 C2049 C 0.59918 0.80066 0.77943
 C2050 C 0.59535 0.80961 0.80387
 C2051 C 0.57225 0.80548 0.81546
 C2052 C 0.55282 0.79322 0.80313
 C2053 C 0.55576 0.78507 0.77870
 C2054 C 0.57909 0.78863 0.76659
 C2055 C 0.62279 0.80267 0.76778
 C2056 C 0.62636 0.79357 0.74388
 C2057 C 0.60666 0.78218 0.73119
 C2058 C 0.58326 0.77966 0.74235
 H2059 H 0.63882 0.81085 0.77710
 H2060 H 0.64458 0.79520 0.73523
 H2061 H 0.60960 0.77497 0.71271
 H2062 H 0.56877 0.77017 0.73193
 H2063 H 0.56918 0.81199 0.83420
 H2064 H 0.53517 0.79037 0.81263
 C2065 C 0.06284 0.31063 0.82268
 C2066 C 0.08652 0.31426 0.81124
 C2067 C 0.09009 0.30594 0.78690
 C2068 C 0.07114 0.29343 0.77418
 C2069 C 0.04811 0.28852 0.78548
 C2070 C 0.04354 0.29744 0.80975
 C2071 C 0.05766 0.32037 0.84639
 C2072 C 0.03427 0.31672 0.85732
 C2073 C 0.01553 0.30365 0.84479
 C2074 C 0.01998 0.29419 0.82118
 H2075 H 0.07140 0.33121 0.85652
 H2076 H 0.03058 0.32429 0.87552
 H2077 H -0.00264 0.30107 0.85330
 H2078 H 0.00467 0.28470 0.81188
 H2079 H 0.10800 0.30862 0.77784
 H2080 H 0.07477 0.28685 0.75556
 C2081 C 0.06306 0.80812 0.31952
 C2082 C 0.08706 0.81149 0.30864
 C2083 C 0.09163 0.80177 0.28501
 C2084 C 0.07326 0.78832 0.27240
 C2085 C 0.04985 0.78386 0.28315
 C2086 C 0.04438 0.79397 0.30674
 C2087 C 0.05693 0.81908 0.34246
 C2088 C 0.03322 0.81573 0.35279
 C2089 C 0.01510 0.80171 0.34043
 C2090 C 0.02048 0.79099 0.31757
 H2091 H 0.07018 0.83066 0.35241
 H2092 H 0.02881 0.82425 0.37039
 H2093 H -0.00333 0.79933 0.34847
 H2094 H 0.00568 0.78067 0.30840
 H2095 H 0.10980 0.80423 0.27642
 H2096 H 0.07749 0.78094 0.25422
 C2097 C 0.59898 0.69773 0.71298
 C2098 C 0.59528 0.68856 0.68856
 C2099 C 0.57221 0.69232 0.67649
 C2100 C 0.55260 0.70433 0.68845
 C2101 C 0.55539 0.71261 0.71292
 C2102 C 0.57877 0.70953 0.72541
 C2103 C 0.62259 0.69609 0.72505
 C2104 C 0.62606 0.70539 0.74893
 C2105 C 0.60625 0.71662 0.76121
 C2106 C 0.58285 0.71874 0.74966
 H2107 H 0.63872 0.68804 0.71606
 H2108 H 0.64427 0.70405 0.75789
 H2109 H 0.60909 0.72400 0.77969
 H2110 H 0.56830 0.72813 0.75979
 H2111 H 0.56932 0.68569 0.65772
 H2112 H 0.53493 0.70685 0.67867
 C2113 C 0.60270 0.21506 0.20281
 C2114 C 0.59943 0.19095 0.19284
 C2115 C 0.57630 0.17886 0.19552
 C2116 C 0.55631 0.19042 0.20727
 C2117 C 0.55877 0.21450 0.21646
 C2118 C 0.58213 0.22699 0.21459
 C2119 C 0.62618 0.22728 0.20207
 C2120 C 0.62918 0.25080 0.21229
 C2121 C 0.60906 0.26248 0.22367
 C2122 C 0.58577 0.25074 0.22496
 H2123 H 0.64251 0.21870 0.19399
 H2124 H 0.64729 0.25991 0.21159
 H2125 H 0.61158 0.28064 0.23178
 H2126 H 0.57086 0.26031 0.23447
 H2127 H 0.57366 0.16034 0.18825
 H2128 H 0.53861 0.18061 0.20888
 C2129 C 0.07211 0.67399 0.19051
 C2130 C 0.09454 0.68766 0.18659
 C2131 C 0.09529 0.71281 0.19289
 C2132 C 0.07476 0.72428 0.20375
 C2133 C 0.05289 0.71093 0.20896
 C2134 C 0.05117 0.68569 0.20197
 C2135 C 0.06974 0.64916 0.18269
 C2136 C 0.04752 0.63603 0.18652
 C2137 C 0.02718 0.64738 0.19787
 C2138 C 0.02883 0.67199 0.20541
 H2139 H 0.08479 0.63979 0.17319
 H2140 H 0.04600 0.61701 0.18043
 H2141 H 0.00991 0.63715 0.20057
 H2142 H 0.01233 0.68023 0.21352
 H2143 H 0.11221 0.72356 0.18990
 H2144 H 0.07627 0.74361 0.20890
 C2145 C 0.07019 0.19130 0.67725
 C2146 C 0.09324 0.18809 0.69026
 C2147 C 0.09556 0.19677 0.71465
 C2148 C 0.07584 0.20911 0.72602
 C2149 C 0.05328 0.21342 0.71327
 C2150 C 0.05009 0.20424 0.68879
 C2151 C 0.06638 0.18126 0.65333
 C2152 C 0.04350 0.18420 0.64094
 C2153 C 0.02395 0.19696 0.65212
 C2154 C 0.02709 0.20686 0.67581
 H2155 H 0.08083 0.17070 0.64415
 H2156 H 0.04085 0.17635 0.62263
 H2157 H 0.00615 0.19900 0.64249
 H2158 H 0.01119 0.21616 0.68392
 H2159 H 0.11297 0.19427 0.72487
 H2160 H 0.07837 0.21578 0.74483
 C2161 C 0.43296 0.69423 0.32870
 C2162 C 0.41043 0.68798 0.31590
 C2163 C 0.40820 0.69332 0.29056
 C2164 C 0.42727 0.70564 0.27807
 C2165 C 0.44902 0.71342 0.29057
 C2166 C 0.45240 0.70713 0.31595
 C2167 C 0.43693 0.68729 0.35367
 C2168 C 0.45935 0.69311 0.36587
 C2169 C 0.47832 0.70567 0.35345
 C2170 C 0.47502 0.71256 0.32873
 H2171 H 0.42300 0.67691 0.36385
 H2172 H 0.46214 0.68760 0.38500
 H2173 H 0.49581 0.70987 0.36294
 H2174 H 0.49057 0.72165 0.31970
 H2175 H 0.39126 0.68838 0.28044
 H2176 H 0.42466 0.70967 0.25859
 C2177 C 0.43199 0.19582 0.82702
 C2178 C 0.40878 0.19166 0.81460
 C2179 C 0.40568 0.19962 0.79005
 C2180 C 0.42484 0.21211 0.77788
 C2181 C 0.44761 0.21719 0.78996
 C2182 C 0.45159 0.20874 0.81459
 C2183 C 0.43643 0.18676 0.85122
 C2184 C 0.45957 0.19049 0.86296
 C2185 C 0.47873 0.20306 0.85081
 C2186 C 0.47490 0.21207 0.82686
 H2187 H 0.42227 0.17643 0.86114
 H2188 H 0.46273 0.18338 0.88149
 H2189 H 0.49673 0.20567 0.85993
 H2190 H 0.49049 0.22126 0.81800
 H2191 H 0.38810 0.19635 0.78030
 H2192 H 0.42173 0.21823 0.75896
 C2193 C 0.93122 0.69568 0.83014
 C2194 C 0.90892 0.69026 0.81658
 C2195 C 0.90743 0.69652 0.79138
 C2196 C 0.92716 0.70857 0.77968
 C2197 C 0.94894 0.71504 0.79284
 C2198 C 0.95136 0.70832 0.81820
 C2199 C 0.93428 0.68818 0.85506
 C2200 C 0.95642 0.69339 0.86805
 C2201 C 0.97601 0.70582 0.85645
 C2202 C 0.97366 0.71311 0.83174
 H2203 H 0.91985 0.67790 0.86463
 H2204 H 0.95848 0.68752 0.88716
 H2205 H 0.99324 0.70958 0.86657
 H2206 H 0.98961 0.72213 0.82335
 H2207 H 0.89058 0.69241 0.78074
 H2208 H 0.92513 0.71347 0.76028
 C2209 C 0.93308 0.19589 0.32496
 C2210 C 0.91092 0.19054 0.31114
 C2211 C 0.90990 0.19641 0.28585
 C2212 C 0.92988 0.20826 0.27436
 C2213 C 0.95149 0.21483 0.28779
 C2214 C 0.95353 0.20821 0.31319
 C2215 C 0.93566 0.18866 0.35002
 C2216 C 0.95767 0.19376 0.36327
 C2217 C 0.97760 0.20578 0.35180
 C2218 C 0.97572 0.21281 0.32698
 H2219 H 0.92095 0.17868 0.35948
 H2220 H 0.95936 0.18811 0.38247
 H2221 H 0.99474 0.20941 0.36213
 H2222 H 0.99198 0.22141 0.31868
 H2223 H 0.89317 0.19233 0.27501
 H2224 H 0.92812 0.21306 0.25490
 C2225 C 0.28293 0.29923 0.60048
 C2226 C 0.30714 0.30968 0.59701
 C2227 C 0.31917 0.30683 0.57417
 C2228 C 0.30743 0.29436 0.55466
 C2229 C 0.28324 0.28457 0.55734
 C2230 C 0.27083 0.28667 0.58044
 C2231 C 0.27081 0.30023 0.62370
 C2232 C 0.24724 0.28946 0.62696
 C2233 C 0.23540 0.27727 0.60738
 C2234 C 0.24704 0.27574 0.58436
 H2235 H 0.27952 0.30895 0.63963
 H2236 H 0.23821 0.29037 0.64487
 H2237 H 0.21721 0.26873 0.61010
 H2238 H 0.23735 0.26561 0.56990
 H2239 H 0.33778 0.31446 0.57140
 H2240 H 0.31722 0.29253 0.53720
 C2241 C 0.31254 0.82820 0.06396
 C2242 C 0.31706 0.81662 0.08721
 C2243 C 0.30970 0.79196 0.09066
 C2244 C 0.29773 0.77884 0.07183
 C2245 C 0.29241 0.79000 0.04900
 C2246 C 0.29994 0.81480 0.04473
 C2247 C 0.32091 0.85251 0.05911
 C2248 C 0.31655 0.86351 0.03608
 C2249 C 0.30412 0.85048 0.01739
 C2250 C 0.29600 0.82631 0.02152
 H2251 H 0.33119 0.86310 0.07285
 H2252 H 0.32306 0.88217 0.03264
 H2253 H 0.30101 0.85907 -0.00051
 H2254 H 0.28698 0.81668 0.00628
 H2255 H 0.31301 0.78284 0.10828
 H2256 H 0.29210 0.75988 0.07529
 C2257 C 0.80942 0.32354 0.06803
 C2258 C 0.81385 0.31108 0.09085
 C2259 C 0.80720 0.28609 0.09307
 C2260 C 0.79559 0.27360 0.07357
 C2261 C 0.78996 0.28575 0.05132
 C2262 C 0.79718 0.31079 0.04816
 C2263 C 0.81752 0.34814 0.06426
 C2264 C 0.81317 0.36004 0.04169
 C2265 C 0.80105 0.34767 0.02238
 C2266 C 0.79323 0.32323 0.02543
 H2267 H 0.82762 0.35825 0.07847
 H2268 H 0.81947 0.37891 0.03908
 H2269 H 0.79794 0.35695 0.00483
 H2270 H 0.78449 0.31414 0.00971
 H2271 H 0.81056 0.27628 0.11030
 H2272 H 0.79032 0.25440 0.07613
 C2273 C 0.78554 0.79932 0.59916
 C2274 C 0.81019 0.80897 0.59645
 C2275 C 0.82275 0.80592 0.57392
 C2276 C 0.81109 0.79413 0.55392
 C2277 C 0.78639 0.78543 0.55575
 C2278 C 0.77337 0.78785 0.57853
 C2279 C 0.77302 0.80012 0.62218
 C2280 C 0.74889 0.79041 0.62467
 C2281 C 0.73681 0.77963 0.60443
 C2282 C 0.74883 0.77831 0.58160
 H2283 H 0.78185 0.80780 0.63859
 H2284 H 0.73959 0.79110 0.64244
 H2285 H 0.71814 0.77196 0.60650
 H2286 H 0.73883 0.76926 0.56668
 H2287 H 0.84169 0.81293 0.57173
 H2288 H 0.82129 0.79210 0.53673
 C2289 C 0.28130 0.70124 0.40369
 C2290 C 0.30676 0.69433 0.40748
 C2291 C 0.31886 0.70061 0.42978
 C2292 C 0.30597 0.71272 0.44860
 C2293 C 0.28049 0.71857 0.44585
 C2294 C 0.26797 0.71313 0.42315
 C2295 C 0.26897 0.69725 0.38071
 C2296 C 0.24398 0.70416 0.37724
 C2297 C 0.23087 0.71542 0.39635
 C2298 C 0.24271 0.72000 0.41904
 H2299 H 0.27857 0.68919 0.36508
 H2300 H 0.23481 0.70095 0.35954
 H2301 H 0.21151 0.72090 0.39351
 H2302 H 0.23197 0.72926 0.43312
 H2303 H 0.33837 0.69571 0.43279
 H2304 H 0.31581 0.71703 0.46573
 C2305 C 0.28006 0.19745 0.90394
 C2306 C 0.30571 0.19083 0.90691
 C2307 C 0.31826 0.19668 0.92909
 C2308 C 0.30579 0.20839 0.94842
 C2309 C 0.28025 0.21422 0.94638
 C2310 C 0.26713 0.20886 0.92397
 C2311 C 0.26718 0.19381 0.88120
 C2312 C 0.24202 0.20046 0.87851
 C2313 C 0.22929 0.21115 0.89819
 C2314 C 0.24167 0.21547 0.92064
 H2315 H 0.27643 0.18624 0.86514
 H2316 H 0.23242 0.19750 0.86099
 H2317 H 0.20979 0.21642 0.89596
 H2318 H 0.23115 0.22429 0.93516
 H2319 H 0.33791 0.19200 0.93151
 H2320 H 0.31609 0.21263 0.96531
 C2321 C 0.77819 0.70411 0.90105
 C2322 C 0.80240 0.69383 0.90508
 C2323 C 0.81381 0.69594 0.92849
 C2324 C 0.80144 0.70743 0.94801
 C2325 C 0.77722 0.71694 0.94476
 C2326 C 0.76544 0.71566 0.92109
 C2327 C 0.76671 0.70390 0.87733
 C2328 C 0.74313 0.71448 0.87355
 C2329 C 0.73066 0.72570 0.89312
 C2330 C 0.74166 0.72643 0.91665
 H2331 H 0.77595 0.69596 0.86143
 H2332 H 0.73460 0.71419 0.85526
 H2333 H 0.71246 0.73411 0.89001
 H2334 H 0.73148 0.73582 0.93111
 H2335 H 0.83240 0.68841 0.93171
 H2336 H 0.81074 0.70864 0.96592
 C2337 C 0.78057 0.20676 0.39791
 C2338 C 0.80531 0.19731 0.40054
 C2339 C 0.81800 0.19990 0.42324
 C2340 C 0.80641 0.21092 0.44345
 C2341 C 0.78167 0.21947 0.44166
 C2342 C 0.76861 0.21785 0.41869
 C2343 C 0.76774 0.20613 0.37488
 C2344 C 0.74361 0.21589 0.37248
 C2345 C 0.73192 0.22666 0.39277
 C2346 C 0.74424 0.22778 0.41564
 H2347 H 0.77632 0.19852 0.35846
 H2348 H 0.73404 0.21530 0.35470
 H2349 H 0.71329 0.23443 0.39072
 H2350 H 0.73462 0.23682 0.43070
 H2351 H 0.83698 0.19296 0.42543
 H2352 H 0.81669 0.21238 0.46080
 C2353 C 0.67401 0.31065 0.43603
 C2354 C 0.68670 0.31513 0.41338
 C2355 C 0.71195 0.30825 0.41115
 C2356 C 0.72443 0.29629 0.43042
 C2357 C 0.71202 0.29059 0.45248
 C2358 C 0.68676 0.29813 0.45571
 C2359 C 0.64917 0.31885 0.43979
 C2360 C 0.63704 0.31445 0.46221
 C2361 C 0.64945 0.30213 0.48136
 C2362 C 0.67412 0.29414 0.47829
 H2363 H 0.63904 0.32904 0.42567
 H2364 H 0.61799 0.32085 0.46483
 H2365 H 0.64000 0.29900 0.49880
 H2366 H 0.68325 0.28524 0.49390
 H2367 H 0.72193 0.31161 0.39402
 H2368 H 0.74374 0.29063 0.42774
 C2369 C 0.67192 0.81225 0.93183
 C2370 C 0.68535 0.81648 0.90960
 C2371 C 0.71045 0.80896 0.90796
 C2372 C 0.72206 0.79653 0.92748
 C2373 C 0.70889 0.79110 0.94918
 C2374 C 0.68379 0.79940 0.95181
 C2375 C 0.64716 0.82099 0.93486
 C2376 C 0.63435 0.81706 0.95699
 C2377 C 0.64594 0.80458 0.97652
 C2378 C 0.67043 0.79585 0.97407
 H2379 H 0.63764 0.83124 0.92036
 H2380 H 0.61540 0.82394 0.95908
 H2381 H 0.63599 0.80181 0.99374
 H2382 H 0.67885 0.78674 0.98992
 H2383 H 0.72095 0.81220 0.89112
 H2384 H 0.74128 0.79038 0.92532
 C2385 C 0.18924 0.32471 0.93446
 C2386 C 0.18194 0.31154 0.91276
 C2387 C 0.18570 0.28592 0.91180
 C2388 C 0.19757 0.27349 0.93115
 C2389 C 0.20674 0.28630 0.95188
 C2390 C 0.20200 0.31204 0.95405
 C2391 C 0.18349 0.35002 0.93745
 C2392 C 0.19070 0.36269 0.95887
 C2393 C 0.20337 0.35041 0.97785
 C2394 C 0.20884 0.32532 0.97564
 H2395 H 0.17297 0.36014 0.92356
 H2396 H 0.18617 0.38209 0.96087
 H2397 H 0.20866 0.36030 0.99456
 H2398 H 0.21797 0.31642 0.99121
 H2399 H 0.18000 0.27546 0.89555
 H2400 H 0.20037 0.25378 0.92946
 C2401 C 0.18664 0.82713 0.43405
 C2402 C 0.17970 0.81399 0.41223
 C2403 C 0.18401 0.78845 0.41111
 C2404 C 0.19598 0.77611 0.43043
 C2405 C 0.20478 0.78891 0.45131
 C2406 C 0.19953 0.81455 0.45364
 C2407 C 0.18039 0.85230 0.43718
 C2408 C 0.18721 0.86494 0.45875
 C2409 C 0.19996 0.85275 0.47774
 C2410 C 0.20594 0.82778 0.47538
 H2411 H 0.16977 0.86232 0.42330
 H2412 H 0.18229 0.88424 0.46086
 H2413 H 0.20494 0.86260 0.49455
 H2414 H 0.21508 0.81893 0.49097
 H2415 H 0.17864 0.77798 0.39476
 H2416 H 0.19911 0.75645 0.42862
 C2417 C 0.72113 0.69788 0.59809
 C2418 C 0.69615 0.68922 0.59459
 C2419 C 0.68389 0.69340 0.57192
 C2420 C 0.69610 0.70535 0.55257
 C2421 C 0.72111 0.71303 0.55509
 C2422 C 0.73388 0.70950 0.57804
 C2423 C 0.73342 0.69605 0.62135
 C2424 C 0.75784 0.70487 0.62462
 C2425 C 0.77045 0.71582 0.60496
 C2426 C 0.75867 0.71819 0.58191
 H2427 H 0.72418 0.68827 0.63736
 H2428 H 0.76696 0.70338 0.64257
 H2429 H 0.78934 0.72282 0.60766
 H2430 H 0.76906 0.72742 0.56749
 H2431 H 0.66469 0.68723 0.56913
 H2432 H 0.68598 0.70834 0.53535
 C2433 C 0.69718 0.17352 0.06925
 C2434 C 0.69394 0.18600 0.09218
 C2435 C 0.70245 0.21042 0.09469
 C2436 C 0.71442 0.22240 0.07525
 C2437 C 0.71857 0.21027 0.05275
 C2438 C 0.70980 0.18572 0.04942
 C2439 C 0.68745 0.14951 0.06526
 C2440 C 0.69056 0.13763 0.04254
 C2441 C 0.70306 0.14946 0.02328
 C2442 C 0.71248 0.17333 0.02654
 H2443 H 0.67703 0.13985 0.07943
 H2444 H 0.68302 0.11921 0.03977
 H2445 H 0.70521 0.14020 0.00563
 H2446 H 0.72152 0.18202 0.01089
 H2447 H 0.70003 0.22025 0.11202
 H2448 H 0.72087 0.24125 0.07792
 C2449 C 0.20884 0.71763 0.10023
 C2450 C 0.20029 0.69287 0.09775
 C2451 C 0.20451 0.68005 0.07560
 C2452 C 0.21622 0.69159 0.05567
 C2453 C 0.22384 0.71633 0.05727
 C2454 C 0.22061 0.72950 0.07977
 C2455 C 0.20661 0.73064 0.12283
 C2456 C 0.21545 0.75483 0.12510
 C2457 C 0.22687 0.76645 0.10510
 C2458 C 0.22956 0.75397 0.08266
 H2459 H 0.19843 0.72217 0.13906
 H2460 H 0.21363 0.76454 0.14255
 H2461 H 0.23391 0.78515 0.10704
 H2462 H 0.23904 0.76357 0.06785
 H2463 H 0.19834 0.66104 0.07362
 H2464 H 0.21891 0.68129 0.03866
 C2465 C 0.17878 0.18825 0.57053
 C2466 C 0.19194 0.18497 0.59329
 C2467 C 0.21704 0.19263 0.59524
 C2468 C 0.22892 0.20424 0.57550
 C2469 C 0.21602 0.20875 0.55326
 C2470 C 0.19088 0.20040 0.55039
 C2471 C 0.15408 0.17920 0.56711
 C2472 C 0.14147 0.18243 0.54459
 C2473 C 0.15324 0.19440 0.52499
 C2474 C 0.17774 0.20320 0.52772
 H2475 H 0.14443 0.16923 0.58160
 H2476 H 0.12254 0.17539 0.54226
 H2477 H 0.14343 0.19664 0.50747
 H2478 H 0.18635 0.21180 0.51179
 H2479 H 0.22736 0.19011 0.61245
 H2480 H 0.24814 0.21050 0.57790
   
