data_POSCAR
  _audit_creation_date              2014-09-24
  _audit_creation_method            'ToBaCCo'
  _symmetry_space_group_name_H-M    'P1'
  _symmetry_Int_Tables_number       1
  _symmetry_cell_setting            triclinic
  loop_
  _symmetry_equiv_pos_as_xyz
 x,y,z
_cell_length_a 46.2586
_cell_length_b 46.2586
_cell_length_c 46.2262
_cell_angle_alpha 89.986000
_cell_angle_beta 89.986700
_cell_angle_gamma 89.985500
loop_
  _atom_site_label
  _atom_site_type_symbol
  _atom_site_fract_x
  _atom_site_fract_y
  _atom_site_fract_z
C1 C 0.33456 1.37312 0.33487
 C2 C 0.34694 1.38515 0.30989
 C3 C 0.37163 1.37263 0.29751
 C4 C 0.38423 1.34813 0.31013
 C5 C 0.37213 1.33584 0.33509
 C6 C 0.34718 1.34833 0.34754
 C7 C 0.30953 1.38512 0.34714
 C8 C 0.29704 1.37259 0.37178
 C9 C 0.30961 1.34808 0.38443
 C10 C 0.33462 1.33580 0.37244
 C11 C 0.34702 1.31094 0.38460
 C12 C 0.37167 1.29853 0.37212
 C13 C 0.38425 1.31098 0.34754
 H14 H 0.33720 1.40403 0.29993
 H15 H 0.40325 1.33845 0.30036
 H16 H 0.29962 1.40401 0.33736
 H17 H 0.29976 1.33838 0.40341
 H18 H 0.33736 1.30103 0.40355
 H19 H 0.40324 1.30110 0.33795
 C20 C 0.33434 0.87289 0.83568
 C21 C 0.34675 0.88496 0.81074
 C22 C 0.37141 0.87244 0.79836
 C23 C 0.38398 0.84791 0.81090
 C24 C 0.37186 0.83557 0.83582
 C25 C 0.34692 0.84806 0.84829
 C26 C 0.30932 0.88489 0.84795
 C27 C 0.29678 0.87230 0.87254
 C28 C 0.30931 0.84774 0.88514
 C29 C 0.33432 0.83547 0.87314
 C30 C 0.34670 0.81055 0.88523
 C31 C 0.37135 0.79815 0.87272
 C32 C 0.38395 0.81066 0.84819
 H33 H 0.33709 0.90385 0.80075
 H34 H 0.40297 0.83829 0.80105
 H35 H 0.29944 0.90381 0.83820
 H36 H 0.29942 0.83800 0.90408
 H37 H 0.33702 0.80058 0.90414
 H38 H 0.40293 0.80079 0.83858
 C39 C 0.83530 1.37294 0.83463
 C40 C 0.84754 1.38497 0.80959
 C41 C 0.87215 1.37245 0.79706
 C42 C 0.88482 1.34794 0.80961
 C43 C 0.87286 1.33564 0.83464
 C44 C 0.84798 1.34815 0.84723
 C45 C 0.81034 1.38494 0.84703
 C46 C 0.79800 1.37239 0.87171
 C47 C 0.81061 1.34791 0.88430
 C48 C 0.83555 1.33563 0.87219
 C49 C 0.84799 1.31077 0.88430
 C50 C 0.87256 1.29833 0.87169
 C51 C 0.88502 1.31077 0.84703
 H52 H 0.83774 1.40385 0.79968
 H53 H 0.90378 1.33826 0.79973
 H54 H 0.80031 1.40380 0.83735
 H55 H 0.80079 1.33827 0.90331
 H56 H 0.83842 1.30087 0.90329
 H57 H 0.90395 1.30086 0.83735
 C58 C 0.83556 0.87311 0.33454
 C59 C 0.84788 0.88517 0.30956
 C60 C 0.87248 0.87262 0.29706
 C61 C 0.88507 0.84803 0.30958
 C62 C 0.87301 0.83571 0.33456
 C63 C 0.84814 0.84826 0.34711
 C64 C 0.81060 0.88514 0.34688
 C65 C 0.79815 0.87257 0.37148
 C66 C 0.81064 0.84803 0.38407
 C67 C 0.83559 0.83572 0.37201
 C68 C 0.84793 0.81080 0.38410
 C69 C 0.87250 0.79832 0.37155
 C70 C 0.88507 0.81077 0.34694
 H71 H 0.83815 0.90410 0.29968
 H72 H 0.90402 0.83833 0.29971
 H73 H 0.80065 0.90405 0.33721
 H74 H 0.80073 0.83838 0.40301
 H75 H 0.83828 0.80089 0.40305
 H76 H 0.90400 0.80083 0.33729
 C77 C 0.66446 0.62700 0.33455
 C78 C 0.65211 0.61498 0.30958
 C79 C 0.62748 0.62754 0.29714
 C80 C 0.61490 0.65209 0.30971
 C81 C 0.62698 0.66437 0.33468
 C82 C 0.65188 0.65182 0.34718
 C83 C 0.68945 0.61496 0.34685
 C84 C 0.70191 0.62750 0.37146
 C85 C 0.68940 0.65201 0.38408
 C86 C 0.66444 0.66433 0.37207
 C87 C 0.65209 0.68922 0.38420
 C88 C 0.62750 0.70170 0.37169
 C89 C 0.61492 0.68928 0.34710
 H90 H 0.66184 0.59607 0.29965
 H91 H 0.59593 0.66180 0.29989
 H92 H 0.69940 0.59608 0.33715
 H93 H 0.69932 0.66164 0.40303
 H94 H 0.66176 0.69912 0.40314
 H95 H 0.59597 0.69922 0.33748
 C96 C 0.66576 0.12748 0.83526
 C97 C 0.65340 0.11543 0.81030
 C98 C 0.62869 0.12788 0.79795
 C99 C 0.61603 0.15232 0.81055
 C100 C 0.62809 0.16466 0.83548
 C101 C 0.65309 0.15223 0.84793
 C102 C 0.69082 0.11554 0.84751
 C103 C 0.70329 0.12810 0.87214
 C104 C 0.69067 0.15259 0.88478
 C105 C 0.66562 0.16480 0.87280
 C106 C 0.65314 0.18964 0.88495
 C107 C 0.62844 0.20198 0.87247
 C108 C 0.61590 0.18948 0.84791
 H109 H 0.66313 0.09659 0.80028
 H110 H 0.59700 0.16189 0.80073
 H111 H 0.70077 0.09667 0.83773
 H112 H 0.70050 0.16231 0.90375
 H113 H 0.66277 0.19960 0.90388
 H114 H 0.59688 0.19930 0.83833
 C115 C 1.16555 0.62692 0.83546
 C116 C 1.15316 0.61483 0.81054
 C117 C 1.12851 0.62734 0.79814
 C118 C 1.11593 0.65187 0.81065
 C119 C 1.12804 0.66424 0.83555
 C120 C 1.15298 0.65176 0.84804
 C121 C 1.19056 0.61491 0.84775
 C122 C 1.20309 0.62750 0.87232
 C123 C 1.19057 0.65209 0.88489
 C124 C 1.16556 0.66437 0.87287
 C125 C 1.15317 0.68931 0.88493
 C126 C 1.12851 0.70169 0.87241
 C127 C 1.11593 0.68914 0.84789
 H128 H 1.16282 0.59592 0.80058
 H129 H 1.09695 0.66148 0.80079
 H130 H 1.20043 0.59597 0.83802
 H131 H 1.20046 0.66183 0.90381
 H132 H 1.16283 0.69929 0.90383
 H133 H 1.09694 0.69899 0.83827
 C134 C 1.16573 0.12721 0.33447
 C135 C 1.15339 0.11518 0.30948
 C136 C 1.12870 0.12770 0.29706
 C137 C 1.11609 0.15221 0.30967
 C138 C 1.12816 0.16449 0.33464
 C139 C 1.15310 0.15199 0.34712
 C140 C 1.19074 0.11520 0.34679
 C141 C 1.20318 0.12772 0.37146
 C142 C 1.19058 0.15223 0.38408
 C143 C 1.16561 0.16450 0.37204
 C144 C 1.15318 0.18935 0.38419
 C145 C 1.12855 0.20177 0.37169
 C146 C 1.11602 0.18935 0.34708
 H147 H 1.16313 0.09630 0.29953
 H148 H 1.09708 0.16188 0.29989
 H149 H 1.20068 0.09631 0.33703
 H150 H 1.20039 0.16191 0.40307
 H151 H 1.16280 0.19924 0.40316
 H152 H 1.09704 0.19923 0.33748
 C153 C 0.66539 1.37287 0.66458
 C154 C 0.65298 1.38491 0.68952
 C155 C 0.62832 1.37240 0.70189
 C156 C 0.61574 1.34790 0.68932
 C157 C 0.62786 1.33557 0.66440
 C158 C 0.65282 1.34806 0.65194
 C159 C 0.69042 1.38487 0.65232
 C160 C 0.70296 1.37231 0.62772
 C161 C 0.69043 1.34777 0.61510
 C162 C 0.66541 1.33550 0.62709
 C163 C 0.65303 1.31060 0.61497
 C164 C 0.62838 1.29820 0.62746
 C165 C 0.61577 1.31069 0.65200
 H166 H 0.66264 1.40379 0.69952
 H167 H 0.59675 1.33828 0.69916
 H168 H 0.70030 1.40378 0.66209
 H169 H 0.70032 1.33805 0.59616
 H170 H 0.66272 1.30065 0.59606
 H171 H 0.59678 1.30083 0.66160
 C172 C 0.66436 0.87311 1.16537
 C173 C 0.65200 0.88517 1.19032
 C174 C 0.62738 0.87261 1.20280
 C175 C 0.61483 0.84804 1.19027
 C176 C 0.62692 0.83572 1.16532
 C177 C 0.65181 0.84826 1.15279
 C178 C 0.68932 0.88515 1.15304
 C179 C 0.70181 0.87260 1.12845
 C180 C 0.68934 0.84804 1.11586
 C181 C 0.66438 0.83572 1.12791
 C182 C 0.65205 0.81079 1.11582
 C183 C 0.62746 0.79833 1.12837
 C184 C 0.61488 0.81079 1.15294
 H185 H 0.66170 0.90409 1.20021
 H186 H 0.59587 0.83833 1.20011
 H187 H 0.69924 0.90407 1.16270
 H188 H 0.69927 0.83839 1.09693
 H189 H 0.66172 0.80087 1.09689
 H190 H 0.59593 0.80087 1.16258
 C191 C 1.16535 1.37317 1.16426
 C192 C 1.15294 1.38527 1.18917
 C193 C 1.12824 1.37281 1.20152
 C194 C 1.11561 1.34835 1.18896
 C195 C 1.12773 1.33597 1.16406
 C196 C 1.15274 1.34839 1.15163
 C197 C 1.19042 1.38510 1.15206
 C198 C 1.20299 1.37248 1.12752
 C199 C 1.19044 1.34795 1.11488
 C200 C 1.16536 1.33575 1.12682
 C201 C 1.15294 1.31086 1.11473
 C202 C 1.12824 1.29854 1.12721
 C203 C 1.11561 1.31111 1.15169
 H204 H 1.16264 1.40412 1.19919
 H205 H 1.09659 1.33877 1.19879
 H206 H 1.20033 1.40399 1.16183
 H207 H 1.20036 1.33818 1.09599
 H208 H 1.16265 1.30084 1.09586
 H209 H 1.09659 1.30129 1.16128
 C210 C 1.16563 0.87286 0.66446
 C211 C 1.15323 0.88497 0.68938
 C212 C 1.12856 0.87250 0.70176
 C213 C 1.11595 0.84800 0.68925
 C214 C 1.12805 0.83561 0.66435
 C215 C 1.15303 0.84804 0.65187
 C216 C 1.19066 0.88481 0.65219
 C217 C 1.20320 0.87219 0.62763
 C218 C 1.19066 0.84763 0.61504
 C219 C 1.16562 0.83540 0.62705
 C220 C 1.15320 0.81049 0.61499
 C221 C 1.12851 0.79816 0.62750
 C222 C 1.11593 0.81073 0.65201
 H223 H 1.16292 0.90385 0.69935
 H224 H 1.09694 0.83843 0.69911
 H225 H 1.20056 0.90373 0.66192
 H226 H 1.20054 0.83787 0.59613
 H227 H 1.16287 0.80049 0.59610
 H228 H 1.09692 0.80092 0.66163
 C229 C 0.33584 0.62644 0.66398
 C230 C 0.34812 0.61438 0.68895
 C231 C 0.37266 0.62694 0.70148
 C232 C 0.38526 0.65150 0.68903
 C233 C 0.37326 0.66385 0.66405
 C234 C 0.34842 0.65131 0.65145
 C235 C 0.31090 0.61443 0.65163
 C236 C 0.29844 0.62704 0.62707
 C237 C 0.31094 0.65160 0.61450
 C238 C 0.33588 0.66390 0.62657
 C239 C 0.34821 0.68887 0.61456
 C240 C 0.37275 0.70133 0.62719
 C241 C 0.38531 0.68882 0.65176
 H242 H 0.33843 0.59547 0.69888
 H243 H 0.40415 0.66116 0.69901
 H244 H 0.30094 0.59552 0.66129
 H245 H 0.30101 0.66130 0.59559
 H246 H 0.33856 0.69884 0.59565
 H247 H 0.40420 0.69875 0.66146
 C248 C 0.33540 0.12688 1.16543
 C249 C 0.34766 0.11485 1.19045
 C250 C 0.37227 0.12738 1.20295
 C251 C 0.38492 0.15189 1.19038
 C252 C 0.37292 0.16418 1.16537
 C253 C 0.34804 0.15167 1.15282
 C254 C 0.31043 0.11489 1.15307
 C255 C 0.29804 0.12744 1.12842
 C256 C 0.31062 0.15193 1.11581
 C257 C 0.33557 0.16420 1.12788
 C258 C 0.34798 0.18908 1.11578
 C259 C 0.37255 0.20151 1.12836
 C260 C 0.38505 0.18907 1.15298
 H261 H 0.33788 0.09597 1.20037
 H262 H 0.40387 0.16158 1.20025
 H263 H 0.30042 0.09602 1.16276
 H264 H 0.30076 0.16158 1.09683
 H265 H 0.33837 0.19900 1.09681
 H266 H 0.40398 0.19897 1.16265
 C267 C 0.83610 0.62656 1.16388
 C268 C 0.84852 0.61448 1.18878
 C269 C 0.87312 0.62704 1.20118
 C270 C 0.88565 0.65161 1.18867
 C271 C 0.87352 0.66397 1.16377
 C272 C 0.84861 0.65144 1.15129
 C273 C 0.81109 0.61456 1.15165
 C274 C 0.79850 0.62720 1.12716
 C275 C 0.81092 0.65178 1.11456
 C276 C 0.83594 0.66406 1.12650
 C277 C 0.84820 0.68905 1.11446
 C278 C 0.87281 0.70149 1.12697
 C279 C 0.88550 0.68895 1.15145
 H280 H 0.83888 0.59557 1.19875
 H281 H 0.90459 0.66127 1.19856
 H282 H 0.80119 0.59564 1.16134
 H283 H 0.80089 0.66149 1.09571
 H284 H 0.83844 0.69905 1.09561
 H285 H 0.90444 0.69887 1.16107
 C286 C 0.83438 0.12732 0.66551
 C287 C 0.84674 0.11529 0.69051
 C288 C 0.87141 0.12781 0.70293
 C289 C 0.88399 0.15233 0.69032
 C290 C 0.87191 0.16462 0.66535
 C291 C 0.84699 0.15211 0.65286
 C292 C 0.80940 0.11528 0.65318
 C293 C 0.79695 0.12781 0.62850
 C294 C 0.80952 0.15233 0.61589
 C295 C 0.83448 0.16463 0.62794
 C296 C 0.84689 0.18949 0.61578
 C297 C 0.87150 0.20191 0.62830
 C298 C 0.88403 0.18948 0.65291
 H299 H 0.83701 0.09639 0.70045
 H300 H 0.90299 0.16201 0.70010
 H301 H 0.79949 0.09638 0.66293
 H302 H 0.79972 0.16201 0.59688
 H303 H 0.83727 0.19938 0.59681
 H304 H 0.90300 0.19937 0.66252
 C305 C 1.37255 0.33393 0.66593
 C306 C 1.38454 0.34622 0.69097
 C307 C 1.37203 0.37091 0.70339
 C308 C 1.34757 0.38357 0.69074
 C309 C 1.33531 0.37155 0.66573
 C310 C 1.34781 0.34662 0.65324
 C311 C 1.38456 0.30893 0.65358
 C312 C 1.37208 0.29655 0.62885
 C313 C 1.34762 0.30920 0.61621
 C314 C 1.33534 0.33417 0.62827
 C315 C 1.31054 0.34666 0.61607
 C316 C 1.29813 0.37129 0.62858
 C317 C 1.31051 0.38376 0.65325
 H318 H 1.40339 0.33644 0.70093
 H319 H 1.33790 0.40258 0.70053
 H320 H 1.40342 0.29896 0.66336
 H321 H 1.33797 0.29946 0.59716
 H322 H 1.30069 0.33709 0.59706
 H323 H 1.30064 0.40274 0.66285
 C324 C 1.37273 0.83448 1.16447
 C325 C 1.38486 0.84693 1.18936
 C326 C 1.37242 0.87167 1.20165
 C327 C 1.34795 0.88429 1.18908
 C328 C 1.33555 0.87213 1.16423
 C329 C 1.34794 0.84710 1.15184
 C330 C 1.38464 0.80937 1.15228
 C331 C 1.37199 0.79679 1.12776
 C332 C 1.34745 0.80936 1.11514
 C333 C 1.33528 0.83446 1.12706
 C334 C 1.31037 0.84689 1.11497
 C335 C 1.29809 0.87163 1.12742
 C336 C 1.31069 0.88427 1.15187
 H337 H 1.40372 0.83723 1.19937
 H338 H 1.33840 0.90334 1.19887
 H339 H 1.40354 0.79946 1.16205
 H340 H 1.33766 0.79944 1.09626
 H341 H 1.30034 0.83718 1.09613
 H342 H 1.30090 0.90332 1.16143
 C343 C 0.87312 0.33457 1.16443
 C344 C 0.88529 0.34700 1.18929
 C345 C 0.87280 0.37163 1.20171
 C346 C 0.84821 0.38419 1.18928
 C347 C 0.83577 0.37205 1.16444
 C348 C 0.84822 0.34711 1.15192
 C349 C 0.88511 0.30957 1.15214
 C350 C 0.87244 0.29698 1.12764
 C351 C 0.84779 0.30946 1.11513
 C352 C 0.83553 0.33448 1.12716
 C353 C 0.81053 0.34683 1.11518
 C354 C 0.79818 0.37150 1.12773
 C355 C 0.81080 0.38411 1.15218
 H356 H 0.90424 0.33735 1.19919
 H357 H 0.83862 0.40316 1.19917
 H358 H 0.90409 0.29973 1.16181
 H359 H 0.83798 0.29953 1.09627
 H360 H 0.80048 0.33714 1.09634
 H361 H 0.80097 0.40310 1.16182
 C362 C 0.87332 0.83582 0.66415
 C363 C 0.88534 0.84817 0.68911
 C364 C 0.87275 0.87275 0.70155
 C365 C 0.84821 0.88533 0.68902
 C366 C 0.83592 0.87326 0.66406
 C367 C 0.84848 0.84838 0.65154
 C368 C 0.88537 0.81085 0.65186
 C369 C 0.87281 0.79835 0.62730
 C370 C 0.84827 0.81083 0.61467
 C371 C 0.83595 0.83580 0.62667
 C372 C 0.81101 0.84812 0.61459
 C373 C 0.79853 0.87269 0.62713
 C374 C 0.81098 0.88530 0.65169
 H375 H 0.90423 0.83850 0.69909
 H376 H 0.83854 0.90425 0.69893
 H377 H 0.90426 0.80091 0.66157
 H378 H 0.83862 0.80088 0.59575
 H379 H 0.80109 0.83843 0.59567
 H380 H 0.80103 0.90422 0.66133
 C381 C 0.62671 0.66432 0.66418
 C382 C 0.61465 0.65201 0.68915
 C383 C 0.62721 0.62745 0.70165
 C384 C 0.65177 0.61485 0.68917
 C385 C 0.66411 0.62687 0.66419
 C386 C 0.65156 0.65174 0.65162
 C387 C 0.61468 0.68927 0.65184
 C388 C 0.62727 0.70174 0.62727
 C389 C 0.65182 0.68925 0.61468
 C390 C 0.66413 0.66429 0.62673
 C391 C 0.68908 0.65195 0.61469
 C392 C 0.70155 0.62739 0.62728
 C393 C 0.68906 0.61482 0.65186
 H394 H 0.59574 0.66169 0.69909
 H395 H 0.66143 0.59594 0.69913
 H396 H 0.59577 0.69923 0.66151
 H397 H 0.66150 0.69918 0.59575
 H398 H 0.69902 0.66161 0.59576
 H399 H 0.69900 0.59591 0.66154
 C400 C 0.62692 1.16553 1.16438
 C401 C 0.61475 1.15305 1.18921
 C402 C 0.62724 1.12840 1.20159
 C403 C 0.65185 1.11588 1.18915
 C404 C 0.66430 1.12807 1.16432
 C405 C 0.65183 1.15304 1.15185
 C406 C 0.61492 1.19055 1.15214
 C407 C 0.62760 1.20321 1.12768
 C408 C 0.65226 1.19078 1.11514
 C409 C 0.66452 1.16574 1.12711
 C410 C 0.68953 1.15343 1.11510
 C411 C 0.70190 1.12875 1.12759
 C412 C 0.68928 1.11606 1.15203
 H413 H 0.59579 1.16266 1.19913
 H414 H 0.66145 1.09689 1.19901
 H415 H 0.59594 1.20036 1.16184
 H416 H 0.66206 1.20076 1.09629
 H417 H 0.69957 1.16318 1.09627
 H418 H 0.69913 1.09706 1.16163
 C419 C 0.12719 0.66565 1.16566
 C420 C 0.11516 0.65331 1.19066
 C421 C 0.12763 0.62858 1.20303
 C422 C 0.15207 0.61592 1.19037
 C423 C 0.16436 0.62798 1.16541
 C424 C 0.15192 0.65297 1.15296
 C425 C 0.11522 0.69070 1.15338
 C426 C 0.12775 0.70315 1.12871
 C427 C 0.15223 0.69052 1.11604
 C428 C 0.16446 0.66548 1.12804
 C429 C 0.18928 0.65298 1.11586
 C430 C 0.20162 0.62830 1.12834
 C431 C 0.18916 0.61578 1.15294
 H432 H 0.09632 0.66309 1.20065
 H433 H 0.16171 0.59687 1.20013
 H434 H 0.09637 0.70066 1.16318
 H435 H 0.16192 0.70032 1.09704
 H436 H 0.19920 0.66260 1.09690
 H437 H 0.19899 0.59676 1.16252
 C438 C 0.12675 1.16430 0.66510
 C439 C 0.11480 1.15202 0.69015
 C440 C 0.12737 1.12738 0.70260
 C441 C 0.15183 1.11474 0.68994
 C442 C 0.16405 1.12674 0.66490
 C443 C 0.15149 1.15164 0.65239
 C444 C 0.11473 1.18930 0.65278
 C445 C 0.12722 1.20169 0.62809
 C446 C 0.15165 1.18910 0.61540
 C447 C 0.16395 1.16413 0.62742
 C448 C 0.18878 1.15172 0.61523
 C449 C 0.20126 1.12715 0.62776
 C450 C 0.18889 1.11462 0.65242
 H451 H 0.09596 1.16181 0.70015
 H452 H 0.16155 1.09577 0.69976
 H453 H 0.09591 1.19933 0.66254
 H454 H 0.16125 1.19896 0.59639
 H455 H 0.19864 1.16135 0.59624
 H456 H 0.19884 1.09568 0.66205
 C457 C 1.37293 0.66556 0.33457
 C458 C 1.38496 0.65316 0.30960
 C459 C 1.37246 0.62844 0.29726
 C460 C 1.34799 0.61584 0.30993
 C461 C 1.33570 0.62796 0.33486
 C462 C 1.34817 0.65294 0.34727
 C463 C 1.38491 0.69061 0.34681
 C464 C 1.37237 0.70311 0.37145
 C465 C 1.34788 0.69053 0.38412
 C466 C 1.33563 0.66551 0.37216
 C467 C 1.31079 0.65309 0.38434
 C468 C 1.29841 0.62842 0.37190
 C469 C 1.31087 0.61583 0.34733
 H470 H 1.40382 0.66290 0.29960
 H471 H 1.33833 0.59680 0.30019
 H472 H 1.40378 0.70054 0.33701
 H473 H 1.33818 0.70038 0.40309
 H474 H 1.30086 0.66275 0.40328
 H475 H 1.30101 0.59682 0.33777
 C476 C 1.37302 1.16540 0.83547
 C477 C 1.38505 1.15308 0.81046
 C478 C 1.37254 1.12842 0.79807
 C479 C 1.34808 1.11579 0.81066
 C480 C 1.33578 1.12782 0.83563
 C481 C 1.34825 1.15276 0.84812
 C482 C 1.38501 1.19041 0.84776
 C483 C 1.37247 1.20286 0.87242
 C484 C 1.34796 1.19026 0.88506
 C485 C 1.33571 1.16527 0.87303
 C486 C 1.31085 1.15282 0.88517
 C487 C 1.29847 1.12819 0.87264
 C488 C 1.31094 1.11567 0.84804
 H489 H 1.40390 1.16279 0.80045
 H490 H 1.33848 1.09681 0.80080
 H491 H 1.40389 1.20035 0.83798
 H492 H 1.33826 1.20008 0.90404
 H493 H 1.30091 1.16244 0.90412
 H494 H 1.30108 1.09669 0.83842
 C495 C 0.87278 0.66464 0.83556
 C496 C 0.88485 0.65227 0.81063
 C497 C 0.87231 0.62768 0.79818
 C498 C 0.84774 0.61512 0.81067
 C499 C 0.83538 0.62721 0.83560
 C500 C 0.84791 0.65210 0.84813
 C501 C 0.88480 0.68960 0.84786
 C502 C 0.87220 0.70211 0.87242
 C503 C 0.84763 0.68966 0.88500
 C504 C 0.83532 0.66469 0.87298
 C505 C 0.81037 0.65237 0.88504
 C506 C 0.79792 0.62778 0.87249
 C507 C 0.81043 0.61517 0.84795
 H508 H 0.90378 0.66192 0.80068
 H509 H 0.83809 0.59619 0.80076
 H510 H 0.90373 0.69952 0.83819
 H511 H 0.83795 0.69961 0.90391
 H512 H 0.80042 0.66206 0.90394
 H513 H 0.80052 0.59624 0.83831
 C514 C 0.87334 1.16437 0.33499
 C515 C 0.88544 1.15208 0.31003
 C516 C 0.87291 1.12751 0.29748
 C517 C 0.84831 1.11492 0.30995
 C518 C 0.83594 1.12694 0.33491
 C519 C 0.84846 1.15179 0.34751
 C520 C 0.88534 1.18931 0.34738
 C521 C 0.87272 1.20174 0.37196
 C522 C 0.84815 1.18924 0.38449
 C523 C 0.83586 1.16431 0.37239
 C524 C 0.81091 1.15196 0.38440
 C525 C 0.79846 1.12741 0.37178
 C526 C 0.81098 1.11487 0.34721
 H527 H 0.90438 1.16182 0.30018
 H528 H 0.83862 1.09599 0.30004
 H529 H 0.90427 1.19927 0.33776
 H530 H 0.83845 1.19914 0.40342
 H531 H 0.80094 1.16159 0.40333
 H532 H 0.80107 1.09596 0.33751
 C533 C 0.62681 0.33574 0.33515
 C534 C 0.61472 0.34809 0.31021
 C535 C 0.62726 0.37270 0.29772
 C536 C 0.65185 0.38526 0.31021
 C537 C 0.66421 0.37318 0.33515
 C538 C 0.65168 0.34829 0.34769
 C539 C 0.61481 0.31076 0.34749
 C540 C 0.62742 0.29827 0.37204
 C541 C 0.65198 0.31074 0.38459
 C542 C 0.66427 0.33571 0.37255
 C543 C 0.68922 0.34803 0.38458
 C544 C 0.70167 0.37261 0.37202
 C545 C 0.68916 0.38521 0.34747
 H546 H 0.59579 0.33838 0.30034
 H547 H 0.66155 0.40422 0.30034
 H548 H 0.59589 0.30083 0.33784
 H549 H 0.66168 0.30080 0.40350
 H550 H 0.69918 0.33834 0.40349
 H551 H 0.69908 0.40415 0.33781
 C552 C 0.62669 0.83593 0.83580
 C553 C 0.61465 0.84827 0.81083
 C554 C 0.62723 0.87283 0.79836
 C555 C 0.65177 0.88541 0.81085
 C556 C 0.66408 0.87336 0.83582
 C557 C 0.65154 0.84849 0.84838
 C558 C 0.61465 0.81098 0.84812
 C559 C 0.62722 0.79848 0.87269
 C560 C 0.65177 0.81095 0.88529
 C561 C 0.66410 0.83592 0.87325
 C562 C 0.68904 0.84825 0.88530
 C563 C 0.70150 0.87283 0.87272
 C564 C 0.68902 0.88541 0.84815
 H565 H 0.59575 0.83860 0.80088
 H566 H 0.66143 0.90433 0.80091
 H567 H 0.59574 0.80105 0.83844
 H568 H 0.66143 0.80100 0.90421
 H569 H 0.69898 0.83858 0.90422
 H570 H 0.69894 0.90433 0.83848
 C571 C 0.12712 0.33423 0.83546
 C572 C 0.11509 0.34666 0.81052
 C573 C 0.12759 0.37134 0.79819
 C574 C 0.15207 0.38392 0.81079
 C575 C 0.16439 0.37179 0.83571
 C576 C 0.15191 0.34681 0.84813
 C577 C 0.11513 0.30919 0.84768
 C578 C 0.12768 0.29663 0.87227
 C579 C 0.15220 0.30916 0.88493
 C580 C 0.16446 0.33420 0.87298
 C581 C 0.18934 0.34658 0.88513
 C582 C 0.20173 0.37126 0.87268
 C583 C 0.18925 0.38388 0.84814
 H584 H 0.09622 0.33699 0.80050
 H585 H 0.16168 0.40293 0.80097
 H586 H 0.09624 0.29930 0.83789
 H587 H 0.16191 0.29925 0.90387
 H588 H 0.19928 0.33688 0.90404
 H589 H 0.19911 0.40289 0.83857
 C590 C 0.12702 0.83469 0.33476
 C591 C 0.11494 0.84703 0.30979
 C592 C 0.12742 0.87172 0.29736
 C593 C 0.15193 0.88434 0.30993
 C594 C 0.16427 0.87227 0.33487
 C595 C 0.15181 0.84732 0.34737
 C596 C 0.11505 0.80966 0.34707
 C597 C 0.12764 0.79720 0.37170
 C598 C 0.15215 0.80978 0.38429
 C599 C 0.16439 0.83479 0.37225
 C600 C 0.18925 0.84722 0.38436
 C601 C 0.20162 0.87186 0.37184
 C602 C 0.18913 0.88441 0.34727
 H603 H 0.09606 0.83728 0.29987
 H604 H 0.16157 0.90336 0.30012
 H605 H 0.09617 0.79973 0.33733
 H606 H 0.16188 0.79995 0.40326
 H607 H 0.19920 0.83758 0.40330
 H608 H 0.19898 0.90340 0.33765
 O609 O 0.97210 0.89589 0.85611
 O610 O 0.97198 0.86230 0.82226
 C611 C 0.96218 0.88582 0.83256
 C612 C 0.93851 0.90124 0.81747
 C613 C 0.92838 0.89146 0.79054
 H614 H 0.93843 0.87301 0.78014
 O615 O 1.02826 1.10424 0.85546
 O616 O 1.02838 1.13790 0.82167
 C617 C 1.03821 1.11439 0.83195
 C618 C 1.06198 1.09907 0.81691
 C619 C 1.07222 1.10893 0.79005
 H620 H 1.06215 1.12735 0.77961
 O621 O 0.85595 0.97238 0.89557
 O622 O 0.82214 0.97223 0.86194
 C623 C 0.83241 0.96246 0.88549
 C624 C 0.81730 0.93884 0.90097
 C625 C 0.79039 0.92867 0.89120
 H626 H 0.78000 0.93865 0.87271
 O627 O 1.14430 1.02822 0.89568
 O628 O 1.17817 1.02821 0.86210
 C629 C 1.16787 1.03806 0.88561
 C630 C 1.18297 1.06169 0.90105
 C631 C 1.20985 1.07192 0.89125
 H632 H 1.22026 1.06198 0.87275
 O633 O 0.89558 0.85658 0.97190
 O634 O 0.86194 0.82280 0.97187
 C635 C 0.88544 0.83305 0.96200
 C636 C 0.90081 0.81791 0.93832
 C637 C 0.89094 0.79104 0.92815
 H638 H 0.87243 0.78072 0.93816
 O639 O 1.10442 1.14385 0.97169
 O640 O 1.13808 1.17761 0.97168
 C641 C 1.11460 1.16734 0.96174
 C642 C 1.09936 1.18241 0.93791
 C643 C 1.10931 1.20922 0.92764
 H644 H 1.12778 1.21957 0.93768
 O645 O 0.89547 1.02867 0.85570
 O646 O 0.86182 1.02857 0.82192
 C647 C 0.88531 1.03848 0.83213
 C648 C 0.90060 1.06217 0.81693
 C649 C 0.89050 1.07248 0.79018
 H650 H 0.87190 1.06255 0.77996
 O651 O 1.10463 0.97198 0.85604
 O652 O 1.13833 0.97188 0.82228
 C653 C 1.11479 0.96207 0.83251
 C654 C 1.09943 0.93842 0.81739
 C655 C 1.10932 0.92824 0.79052
 H656 H 1.12781 0.93827 0.78017
 O657 O 1.02841 0.85598 0.89557
 O658 O 1.02836 0.82221 0.86190
 C659 C 1.03823 0.83241 0.88543
 C660 C 1.06186 0.81722 0.90083
 C661 C 1.07215 0.79039 0.89094
 H662 H 1.06227 0.78008 0.87235
 O663 O 0.97199 1.14390 0.89515
 O664 O 0.97203 1.17776 0.86156
 C665 C 0.96218 1.16749 0.88508
 C666 C 0.93859 1.18269 0.90053
 C667 C 0.92844 1.20956 0.89066
 H668 H 0.93840 1.21986 0.87210
 O669 O 0.85609 1.10495 0.97168
 O670 O 0.82239 1.13868 0.97166
 C671 C 0.83259 1.11516 0.96177
 C672 C 0.81746 1.09988 0.93801
 C673 C 0.79068 1.10987 0.92769
 H674 H 0.78037 1.12842 0.93765
 O675 O 1.14388 0.89525 0.97191
 O676 O 1.17772 0.86166 0.97190
 C677 C 1.16743 0.88514 0.96201
 C678 C 1.18255 0.90050 0.93827
 C679 C 1.20936 0.89055 0.92798
 H680 H 1.21967 0.87200 0.93793
 O681 O 0.97181 1.10457 0.85527
 O682 O 0.97184 1.13825 0.82150
 C683 C 0.96190 1.11478 0.83176
 C684 C 0.93807 1.09954 0.81671
 C685 C 0.92760 1.10954 0.78997
 H686 H 0.93752 1.12806 0.77958
 O687 O 1.02850 0.89570 0.85605
 O688 O 1.02846 0.86212 0.82219
 C689 C 1.03836 0.88559 0.83248
 C690 C 1.06206 0.90096 0.81736
 C691 C 1.07231 0.89112 0.79049
 H692 H 1.06236 0.87261 0.78011
 O693 O 1.14415 0.97181 0.89567
 O694 O 1.17802 0.97172 0.86209
 C695 C 1.16767 0.96184 0.88556
 C696 C 1.18267 0.93804 0.90090
 C697 C 1.20948 0.92773 0.89098
 H698 H 1.21987 0.93774 0.87250
 O699 O 0.85602 1.02879 0.89545
 O700 O 0.82221 1.02870 0.86183
 C701 C 0.83249 1.03865 0.88530
 C702 C 0.81741 1.06243 0.90060
 C703 C 0.79064 1.07275 0.89063
 H704 H 0.78030 1.06278 0.87211
 O705 O 0.89597 1.14426 0.97175
 O706 O 0.86243 1.17815 0.97172
 C707 C 0.88591 1.16782 0.96186
 C708 C 0.90129 1.18286 0.93811
 C709 C 0.89148 1.20973 0.92788
 H710 H 0.87304 1.22017 0.93791
 O711 O 1.10421 0.85574 0.97207
 O712 O 1.13789 0.82199 0.97205
 C713 C 1.11438 0.83223 0.96219
 C714 C 1.09909 0.81713 0.93846
 C715 C 1.10902 0.79031 0.92824
 H716 H 1.12748 0.77995 0.93831
 O717 O 1.10483 1.02836 0.85590
 O718 O 1.13853 1.02833 0.82215
 C719 C 1.11500 1.03821 0.83235
 C720 C 1.09962 1.06185 0.81713
 C721 C 1.10953 1.07207 0.79026
 H722 H 1.12811 1.06215 0.77997
 O723 O 0.89570 0.97227 0.85608
 O724 O 0.86207 0.97210 0.82227
 C725 C 0.88560 0.96231 0.83256
 C726 C 0.90103 0.93864 0.81747
 C727 C 0.89126 0.92849 0.79055
 H728 H 0.87279 0.93850 0.78015
 O729 O 1.02837 1.14384 0.89502
 O730 O 1.02849 1.17768 0.86142
 C731 C 1.03832 1.16736 0.88493
 C732 C 1.06205 1.18241 0.90033
 C733 C 1.07235 1.20922 0.89042
 H734 H 1.06243 1.21957 0.87187
 O735 O 0.97202 0.85629 0.89569
 O736 O 0.97188 0.82251 0.86203
 C737 C 0.96205 0.83280 0.88555
 C738 C 0.93831 0.81777 0.90093
 C739 C 0.92809 0.79091 0.89111
 H740 H 0.93811 0.78049 0.87265
 O741 O 1.14407 1.10432 0.97197
 O742 O 1.17788 1.13792 0.97200
 C743 C 1.16765 1.11441 0.96216
 C744 C 1.18285 1.09903 0.93854
 C745 C 1.20973 1.10892 0.92842
 H746 H 1.22005 1.12741 0.93847
 O747 O 0.85602 0.89621 0.97201
 O748 O 0.82222 0.86260 0.97200
 C749 C 0.83248 0.88611 0.96215
 C750 C 0.81733 0.90149 0.93849
 C751 C 0.79043 0.89167 0.92838
 H752 H 0.78006 0.87322 0.93846
 Cu753 Cu 1.00029 0.87932 0.87923
 Cu754 Cu 1.00016 0.83891 0.83870
 Cu755 Cu 1.00009 1.12075 0.87857
 Cu756 Cu 1.00020 1.16128 0.83815
 Cu757 Cu 0.87915 1.00054 0.87907
 Cu758 Cu 0.83867 1.00037 0.83860
 Cu759 Cu 1.12111 1.00012 0.87919
 Cu760 Cu 1.16167 1.00003 0.83878
 C761 C 0.92486 0.92504 0.83062
 H762 H 0.93227 0.93245 0.85157
 C763 C 0.90490 0.90505 0.77714
 C764 C 1.07565 1.07532 0.83012
 H765 H 1.06814 1.06786 0.85102
 C766 C 1.09585 1.09547 0.77678
 C767 C 0.83044 0.92528 0.92482
 H768 H 0.85138 0.93272 0.93221
 C769 C 0.77702 0.90523 0.90489
 C770 C 1.16980 1.07521 0.92490
 H771 H 1.14888 1.06774 0.93231
 C772 C 1.22317 1.09540 0.90492
 C773 C 0.92470 0.83095 0.92474
 H774 H 0.93218 0.85186 0.93218
 C775 C 0.90455 0.77761 0.90469
 C776 C 1.07553 1.16932 0.92427
 H777 H 1.06798 1.14847 0.93178
 C778 C 1.09584 1.22256 0.90404
 C779 C 0.92458 1.07566 0.82985
 H780 H 0.93222 1.06808 0.85067
 C781 C 0.90395 1.09603 0.77675
 C782 C 1.07559 0.92481 0.83048
 H783 H 1.06810 0.93227 0.85139
 C784 C 1.09580 0.90474 0.77713
 C785 C 1.07530 0.83025 0.92480
 H786 H 1.06779 0.85113 0.93229
 C787 C 1.09560 0.77699 0.90463
 C788 C 0.92505 1.16966 0.92447
 H789 H 0.93248 1.14874 0.93195
 C790 C 0.90502 1.22302 0.90429
 C791 C 0.83049 1.07596 0.92449
 H792 H 0.85133 1.06839 0.93204
 C793 C 0.77732 1.09633 0.90413
 C794 C 1.16952 0.92444 0.92475
 H795 H 1.14867 0.93199 0.93226
 C796 C 1.22277 0.90413 0.90448
 O797 O 1.02831 0.89549 1.14455
 O798 O 1.02813 0.86184 1.17835
 C799 C 1.03808 0.88532 1.16813
 C800 C 1.06177 0.90060 1.18331
 C801 C 1.07204 0.89057 1.21009
 H802 H 1.06206 0.87202 1.22038
 O803 O 0.97210 1.10463 1.14455
 O804 O 0.97207 1.13830 1.17832
 C805 C 0.96222 1.11478 1.16809
 C806 C 0.93852 1.09943 1.18321
 C807 C 0.92831 1.10929 1.21008
 H808 H 0.93832 1.12776 1.22046
 O809 O 0.85620 1.02869 1.10474
 O810 O 0.82238 1.02878 1.13836
 C811 C 0.83267 1.03862 1.11484
 C812 C 0.81759 1.06232 1.09940
 C813 C 0.79073 1.07261 1.10923
 H814 H 0.78035 1.06270 1.12776
 O815 O 1.14374 0.97163 1.10494
 O816 O 1.17766 0.97156 1.13845
 C817 C 1.16732 0.96174 1.11496
 C818 C 1.18241 0.93810 1.09946
 C819 C 1.20932 0.92789 1.10920
 H820 H 1.21973 0.93781 1.12771
 O821 O 1.10447 0.85560 1.02854
 O822 O 1.13816 0.82187 1.02859
 C823 C 1.11467 0.83211 1.03850
 C824 C 1.09941 0.81707 1.06235
 C825 C 1.10942 0.79033 1.07280
 H826 H 1.12795 0.77998 1.06286
 O827 O 0.89583 1.14430 1.02825
 O828 O 0.86228 1.17817 1.02827
 C829 C 0.88573 1.16783 1.03817
 C830 C 0.90103 1.18287 1.06199
 C831 C 0.89106 1.20967 1.07226
 H832 H 0.87259 1.22003 1.06222
 O833 O 0.89570 0.97215 1.14431
 O834 O 0.86205 0.97215 1.17812
 C835 C 0.88554 0.96224 1.16784
 C836 C 0.90083 0.93844 1.18291
 C837 C 0.89088 0.92817 1.20974
 H838 H 0.87239 0.93817 1.22010
 O839 O 1.10432 1.02810 1.14468
 O840 O 1.13806 1.02809 1.17837
 C841 C 1.11456 1.03802 1.16815
 C842 C 1.09939 1.06187 1.18323
 C843 C 1.10949 1.07221 1.20995
 H844 H 1.12799 1.06215 1.22026
 O845 O 0.97204 0.85612 1.10463
 O846 O 0.97179 0.82227 1.13823
 C847 C 0.96207 0.83259 1.11468
 C848 C 0.93844 0.81755 1.09917
 C849 C 0.92835 0.79057 1.10880
 H850 H 0.93839 0.78007 1.12720
 O851 O 1.02835 1.14422 1.10478
 O852 O 1.02842 1.17810 1.13833
 C853 C 1.03822 1.16779 1.11481
 C854 C 1.06182 1.18289 1.09928
 C855 C 1.07205 1.20980 1.10899
 H856 H 1.06214 1.22021 1.12751
 O857 O 0.85603 0.89608 1.02845
 O858 O 0.82224 0.86246 1.02850
 C859 C 0.83251 0.88595 1.03837
 C860 C 0.81741 0.90130 1.06210
 C861 C 0.79057 0.89142 1.07237
 H862 H 0.78022 0.87291 1.06239
 O863 O 1.14378 1.10434 1.02841
 O864 O 1.17760 1.13794 1.02848
 C865 C 1.16729 1.11445 1.03835
 C866 C 1.18235 1.09908 1.06211
 C867 C 1.20921 1.10892 1.07234
 H868 H 1.21959 1.12740 1.06235
 O869 O 1.02852 1.10476 1.14457
 O870 O 1.02859 1.13845 1.17832
 C871 C 1.03846 1.11493 1.16808
 C872 C 1.06220 1.09956 1.18319
 C873 C 1.07267 1.10956 1.20992
 H874 H 1.06287 1.12820 1.22022
 O875 O 0.97190 0.89564 1.14430
 O876 O 0.97165 0.86197 1.17809
 C877 C 0.96189 0.88551 1.16780
 C878 C 0.93817 0.90091 1.18288
 C879 C 0.92787 0.89100 1.20970
 H880 H 0.93780 0.87245 1.22005
 O881 O 1.14371 1.02803 1.10490
 O882 O 1.17763 1.02803 1.13842
 C883 C 1.16728 1.03790 1.11494
 C884 C 1.18235 1.06161 1.09953
 C885 C 1.20921 1.07179 1.10939
 H886 H 1.21958 1.06176 1.12788
 O887 O 0.85608 0.97228 1.10476
 O888 O 0.82226 0.97230 1.13839
 C889 C 0.83252 0.96243 1.11488
 C890 C 0.81741 0.93874 1.09952
 C891 C 0.79057 0.92852 1.10944
 H892 H 0.78022 0.93852 1.12795
 O893 O 1.10428 1.14405 1.02816
 O894 O 1.13794 1.17781 1.02819
 C895 C 1.11441 1.16759 1.03801
 C896 C 1.09906 1.18279 1.06165
 C897 C 1.10893 1.20969 1.07170
 H898 H 1.12737 1.22002 1.06157
 O899 O 0.89569 0.85654 1.02832
 O900 O 0.86207 0.82275 1.02834
 C901 C 0.88559 0.83297 1.03816
 C902 C 0.90103 0.81775 1.06174
 C903 C 0.89128 0.79076 1.07171
 H904 H 0.87284 0.78042 1.06161
 O905 O 1.10433 0.97165 1.14478
 O906 O 1.13808 0.97156 1.17847
 C907 C 1.11454 0.96172 1.16828
 C908 C 1.09922 0.93798 1.18340
 C909 C 1.10916 0.92760 1.21019
 H910 H 1.12770 0.93751 1.22054
 O911 O 0.89574 1.02857 1.14443
 O912 O 0.86209 1.02864 1.17824
 C913 C 0.88562 1.03845 1.16799
 C914 C 0.90103 1.06208 1.18315
 C915 C 0.89116 1.07229 1.21003
 H916 H 0.87264 1.06233 1.22037
 O917 O 0.97196 1.14419 1.10490
 O918 O 0.97192 1.17805 1.13848
 C919 C 0.96204 1.16773 1.11499
 C920 C 0.93831 1.18282 1.09959
 C921 C 0.92798 1.20962 1.10951
 H922 H 0.93787 1.21995 1.12808
 O923 O 1.02844 0.85590 1.10495
 O924 O 1.02826 0.82209 1.13858
 C925 C 1.03825 0.83234 1.11512
 C926 C 1.06201 0.81720 1.09985
 C927 C 1.07235 0.79046 1.10993
 H928 H 1.06240 0.78021 1.12852
 O929 O 1.14370 0.89552 1.02836
 O930 O 1.17756 0.86195 1.02839
 C931 C 1.16726 0.88544 1.03823
 C932 C 1.18237 0.90083 1.06189
 C933 C 1.20927 0.89098 1.07195
 H934 H 1.21964 0.87254 1.06185
 O935 O 0.85627 1.10471 1.02815
 O936 O 0.82255 1.13843 1.02819
 C937 C 0.83276 1.11490 1.03805
 C938 C 0.81764 1.09960 1.06179
 C939 C 0.79079 1.10953 1.07195
 H940 H 0.78045 1.12799 1.06186
 Cu941 Cu 1.00020 0.87916 1.12124
 Cu942 Cu 0.99992 0.83865 1.16170
 Cu943 Cu 1.00024 1.12108 1.12135
 Cu944 Cu 1.00025 1.16161 1.16175
 Cu945 Cu 0.87920 0.87973 1.00017
 Cu946 Cu 0.83872 0.83927 1.00018
 Cu947 Cu 1.12068 0.87888 1.00022
 Cu948 Cu 1.16123 0.83848 1.00023
 Cu949 Cu 0.87940 1.12118 0.99995
 Cu950 Cu 0.83904 1.16176 0.99996
 Cu951 Cu 1.12076 1.12078 1.00006
 Cu952 Cu 1.16126 1.16121 1.00009
 Cu953 Cu 0.87930 1.00043 1.12119
 Cu954 Cu 0.83881 1.00048 1.16167
 Cu955 Cu 1.12063 0.99984 1.12148
 Cu956 Cu 1.16125 0.99980 1.16181
 C957 C 1.07532 0.92451 1.17030
 H958 H 1.06779 0.93210 1.14945
 C959 C 1.09559 0.90402 1.22348
 C960 C 0.92492 1.07562 1.17007
 H961 H 0.93239 1.06816 1.14916
 C962 C 0.90477 1.09575 1.22343
 C963 C 0.83072 1.07579 1.07548
 H964 H 0.85161 1.06827 1.06804
 C965 C 0.77739 1.09607 1.09552
 C966 C 1.16926 0.92460 1.07559
 H967 H 1.14832 0.93205 1.06821
 C968 C 1.22268 0.90446 1.09546
 C969 C 1.07551 0.83017 1.07587
 H970 H 1.06793 0.85097 1.06822
 C971 C 1.09592 0.77708 1.09645
 C972 C 0.92485 1.16976 1.07563
 H973 H 0.93240 1.14891 1.06811
 C974 C 0.90449 1.22299 1.09588
 C975 C 0.92468 0.92484 1.16980
 H976 H 0.93222 0.93235 1.14893
 C977 C 0.90437 0.90458 1.22307
 C978 C 1.07554 1.07552 1.17017
 H979 H 1.06789 1.06793 1.14937
 C980 C 1.09619 1.09591 1.22325
 C981 C 0.92482 0.83082 1.07543
 H982 H 0.93220 0.85182 1.06814
 C983 C 0.90491 0.77724 1.09509
 C984 C 1.07529 1.16971 1.07540
 H985 H 1.06783 1.14877 1.06804
 C986 C 1.09547 1.22313 1.09522
 C987 C 0.83050 0.92516 1.07565
 H988 H 0.85138 0.93265 1.06814
 C989 C 0.77721 0.90500 1.09590
 C990 C 1.16923 1.07522 1.07569
 H991 H 1.14834 1.06776 1.06821
 C992 C 1.22258 1.09530 1.09584
 O993 O 0.97228 0.39550 0.35602
 O994 O 0.97229 0.36189 0.32219
 C995 C 0.96243 0.38538 0.33246
 C996 C 0.93878 0.40074 0.31730
 C997 C 0.92865 0.39084 0.29043
 H998 H 0.93869 0.37235 0.28009
 O999 O 1.02871 0.60470 0.35586
 O1000 O 1.02859 0.63827 0.32198
 C1001 C 1.03853 0.61482 0.33229
 C1002 C 1.06227 0.59955 0.31716
 C1003 C 1.07251 0.60957 0.29036
 H1004 H 1.06248 0.62809 0.28007
 O1005 O 0.85629 0.47171 0.39545
 O1006 O 0.82260 0.47170 0.36170
 C1007 C 0.83277 0.46187 0.38527
 C1008 C 0.81755 0.43826 0.40065
 C1009 C 0.79066 0.42818 0.39078
 H1010 H 0.78035 0.43821 0.37226
 O1011 O 1.14442 0.52837 0.39542
 O1012 O 1.17822 0.52839 0.36176
 C1013 C 1.16796 0.53824 0.38529
 C1014 C 1.18304 0.56192 0.40065
 C1015 C 1.20989 0.57216 0.39081
 H1016 H 1.22030 0.56217 0.37232
 O1017 O 0.89555 0.35605 0.47180
 O1018 O 0.86197 0.32222 0.47163
 C1019 C 0.88549 0.33252 0.46185
 C1020 C 0.90097 0.31744 0.43819
 C1021 C 0.89118 0.29057 0.42795
 H1022 H 0.87266 0.28020 0.43789
 O1023 O 1.10465 0.64444 0.47136
 O1024 O 1.13835 0.67816 0.47147
 C1025 C 1.11486 0.66797 0.46152
 C1026 C 1.09957 0.68312 0.43778
 C1027 C 1.10952 0.70990 0.42743
 H1028 H 1.12806 0.72023 0.43736
 O1029 O 0.89610 0.52802 0.35595
 O1030 O 0.86259 0.52805 0.32202
 C1031 C 0.88607 0.53788 0.33235
 C1032 C 0.90151 0.56151 0.31722
 C1033 C 0.89179 0.57153 0.29023
 H1034 H 0.87339 0.56145 0.27981
 O1035 O 1.10466 0.47213 0.35590
 O1036 O 1.13826 0.47205 0.32204
 C1037 C 1.11475 0.46223 0.33235
 C1038 C 1.09938 0.43855 0.31728
 C1039 C 1.10917 0.42844 0.29036
 H1040 H 1.12758 0.43853 0.27993
 O1041 O 1.02863 0.35582 0.39560
 O1042 O 1.02867 0.32206 0.36192
 C1043 C 1.03851 0.33229 0.38545
 C1044 C 1.06218 0.31715 0.40080
 C1045 C 1.07241 0.29033 0.39087
 H1046 H 1.06242 0.27999 0.37235
 O1047 O 0.97219 0.64417 0.39543
 O1048 O 0.97203 0.67789 0.36170
 C1049 C 0.96222 0.66765 0.38524
 C1050 C 0.93850 0.68272 0.40058
 C1051 C 0.92830 0.70957 0.39069
 H1052 H 0.93834 0.71994 0.37221
 O1053 O 0.85615 0.60438 0.47143
 O1054 O 0.82235 0.63801 0.47141
 C1055 C 0.83262 0.61451 0.46154
 C1056 C 0.81755 0.59915 0.43782
 C1057 C 0.79069 0.60898 0.42755
 H1058 H 0.78029 0.62747 0.43751
 O1059 O 1.14437 0.39552 0.47155
 O1060 O 1.17813 0.36186 0.47155
 C1061 C 1.16788 0.38536 0.46163
 C1062 C 1.18296 0.40069 0.43785
 C1063 C 1.20974 0.39074 0.42748
 H1064 H 1.22007 0.37219 0.43740
 O1065 O 0.97233 0.60448 0.35591
 O1066 O 0.97216 0.63804 0.32201
 C1067 C 0.96241 0.61451 0.33234
 C1068 C 0.93884 0.59900 0.31721
 C1069 C 0.92877 0.60868 0.29022
 H1070 H 0.93878 0.62713 0.27980
 O1071 O 1.02865 0.39559 0.35613
 O1072 O 1.02871 0.36199 0.32228
 C1073 C 1.03853 0.38551 0.33256
 C1074 C 1.06213 0.40097 0.31739
 C1075 C 1.07229 0.39119 0.29046
 H1076 H 1.06235 0.37267 0.28010
 O1077 O 1.14439 0.47196 0.39533
 O1078 O 1.17816 0.47189 0.36166
 C1079 C 1.16789 0.46201 0.38516
 C1080 C 1.18295 0.43822 0.40046
 C1081 C 1.20973 0.42792 0.39046
 H1082 H 1.22006 0.43793 0.37194
 O1083 O 0.85630 0.52809 0.39534
 O1084 O 0.82262 0.52814 0.36158
 C1085 C 0.83281 0.53799 0.38512
 C1086 C 0.81765 0.56168 0.40043
 C1087 C 0.79081 0.57184 0.39051
 H1088 H 0.78049 0.56180 0.37201
 O1089 O 0.89570 0.64399 0.47147
 O1090 O 0.86208 0.67780 0.47147
 C1091 C 0.88559 0.66754 0.46161
 C1092 C 0.90098 0.68268 0.43794
 C1093 C 0.89112 0.70954 0.42769
 H1094 H 0.87259 0.71989 0.43765
 O1095 O 1.10490 0.35583 0.47169
 O1096 O 1.13848 0.32198 0.47172
 C1097 C 1.11499 0.33226 0.46185
 C1098 C 1.09962 0.31713 0.43819
 C1099 C 1.10951 0.29030 0.42793
 H1100 H 1.12804 0.27996 0.43789
 O1101 O 1.10497 0.52853 0.35569
 O1102 O 1.13858 0.52854 0.32185
 C1103 C 1.11510 0.53844 0.33214
 C1104 C 1.09977 0.56220 0.31706
 C1105 C 1.10969 0.57259 0.29026
 H1106 H 1.12823 0.56270 0.27988
 O1107 O 0.89595 0.47164 0.35588
 O1108 O 0.86242 0.47161 0.32196
 C1109 C 0.88589 0.46176 0.33230
 C1110 C 0.90131 0.43809 0.31722
 C1111 C 0.89150 0.42785 0.29034
 H1112 H 0.87300 0.43780 0.27994
 O1113 O 1.02859 0.64442 0.39531
 O1114 O 1.02849 0.67815 0.36158
 C1115 C 1.03840 0.66795 0.38510
 C1116 C 1.06211 0.68310 0.40038
 C1117 C 1.07238 0.70988 0.39038
 H1118 H 1.06239 0.72019 0.37184
 O1119 O 0.97222 0.35603 0.39573
 O1120 O 0.97220 0.32225 0.36207
 C1121 C 0.96232 0.33252 0.38558
 C1122 C 0.93857 0.31743 0.40090
 C1123 C 0.92843 0.29056 0.39102
 H1124 H 0.93852 0.28018 0.37258
 O1125 O 1.14409 0.60469 0.47142
 O1126 O 1.17796 0.63824 0.47155
 C1127 C 1.16769 0.61477 0.46164
 C1128 C 1.18289 0.59939 0.43802
 C1129 C 1.20974 0.60929 0.42785
 H1130 H 1.22003 0.62782 0.43783
 O1131 O 0.85590 0.39559 0.47181
 O1132 O 0.82213 0.36195 0.47164
 C1133 C 0.83240 0.38548 0.46185
 C1134 C 0.81736 0.40089 0.43814
 C1135 C 0.79047 0.39114 0.42793
 H1136 H 0.78003 0.37270 0.43795
 Cu1137 Cu 1.00046 0.37909 0.37925
 Cu1138 Cu 1.00047 0.33865 0.33873
 Cu1139 Cu 1.00047 0.62108 0.37902
 Cu1140 Cu 1.00028 0.66147 0.33842
 Cu1141 Cu 0.87952 0.49986 0.37904
 Cu1142 Cu 0.83918 0.49988 0.33841
 Cu1143 Cu 1.12125 0.50027 0.37896
 Cu1144 Cu 1.16169 0.50020 0.33844
 C1145 C 0.92515 0.42456 0.33038
 H1146 H 0.93258 0.43205 0.35130
 C1147 C 0.90515 0.40436 0.27701
 C1148 C 1.07586 0.57567 0.33019
 H1149 H 1.06834 0.56808 0.35104
 C1150 C 1.09607 0.59614 0.27697
 C1151 C 0.83058 0.42466 0.42453
 H1152 H 0.85150 0.43204 0.43201
 C1153 C 0.77718 0.40476 0.40439
 C1154 C 1.16987 0.57550 0.42447
 H1155 H 1.14897 0.56801 0.43192
 C1156 C 1.22318 0.59571 0.40438
 C1157 C 0.92487 0.33055 0.42469
 H1158 H 0.93229 0.35146 0.43217
 C1159 C 0.90488 0.27719 0.40451
 C1160 C 1.07567 0.67006 0.42428
 H1161 H 1.06813 0.64922 0.43185
 C1162 C 1.09595 0.72323 0.40386
 C1163 C 0.92525 0.57520 0.33040
 H1164 H 0.93260 0.56787 0.35140
 C1165 C 0.90540 0.59498 0.27680
 C1166 C 1.07565 0.42485 0.33048
 H1167 H 1.06823 0.43226 0.35143
 C1168 C 1.09567 0.40491 0.27701
 C1169 C 1.07574 0.33023 0.42466
 H1170 H 1.06825 0.35111 0.43217
 C1171 C 1.09594 0.27696 0.40441
 C1172 C 0.92488 0.66960 0.42441
 H1173 H 0.93235 0.64871 0.43189
 C1174 C 0.90476 0.72292 0.40421
 C1175 C 0.83070 0.57530 0.42429
 H1176 H 0.85159 0.56785 0.43180
 C1177 C 0.77738 0.59534 0.40403
 C1178 C 1.16989 0.42463 0.42435
 H1179 H 1.14906 0.43218 0.43193
 C1180 C 1.22307 0.40433 0.40392
 O1181 O 1.02792 0.39553 0.64403
 O1182 O 1.02801 0.36184 0.67781
 C1183 C 1.03785 0.38536 0.66755
 C1184 C 1.06158 0.40066 0.68263
 C1185 C 1.07179 0.39073 0.70948
 H1186 H 1.06172 0.37228 0.71986
 O1187 O 0.97203 0.60418 0.64382
 O1188 O 0.97194 0.63777 0.67767
 C1189 C 0.96210 0.61428 0.66736
 C1190 C 0.93839 0.59891 0.68245
 C1191 C 0.92821 0.60876 0.70934
 H1192 H 0.93824 0.62722 0.71973
 O1193 O 0.85598 0.52792 0.60421
 O1194 O 0.82217 0.52812 0.63786
 C1195 C 0.83246 0.53788 0.61431
 C1196 C 0.81739 0.56155 0.59886
 C1197 C 0.79047 0.57170 0.60863
 H1198 H 0.78006 0.56167 0.62709
 O1199 O 1.14422 0.47144 0.60436
 O1200 O 1.17800 0.47148 0.63801
 C1201 C 1.16778 0.46161 0.61450
 C1202 C 1.18296 0.43795 0.59916
 C1203 C 1.20973 0.42766 0.60917
 H1204 H 1.21999 0.43758 0.62776
 O1205 O 1.10469 0.35612 0.52811
 O1206 O 1.13826 0.32225 0.52823
 C1207 C 1.11475 0.33258 0.53806
 C1208 C 1.09928 0.31751 0.56175
 C1209 C 1.10904 0.29061 0.57201
 H1210 H 1.12756 0.28022 0.56208
 O1211 O 0.89577 0.64382 0.52790
 O1212 O 0.86216 0.67764 0.52798
 C1213 C 0.88566 0.66735 0.53782
 C1214 C 0.90107 0.68244 0.56150
 C1215 C 0.89131 0.70936 0.57164
 H1216 H 0.87286 0.71977 0.56161
 O1217 O 0.89537 0.47154 0.64405
 O1218 O 0.86174 0.47167 0.67787
 C1219 C 0.88521 0.46173 0.66762
 C1220 C 0.90051 0.43802 0.68278
 C1221 C 0.89056 0.42776 0.70960
 H1222 H 0.87204 0.43776 0.71993
 O1223 O 1.10449 0.52780 0.64389
 O1224 O 1.13813 0.52787 0.67770
 C1225 C 1.11462 0.53770 0.66743
 C1226 C 1.09928 0.56139 0.68256
 C1227 C 1.10919 0.57156 0.70941
 H1228 H 1.12767 0.56151 0.71976
 O1229 O 0.97156 0.35589 0.60445
 O1230 O 0.97159 0.32205 0.63806
 C1231 C 0.96171 0.33233 0.61457
 C1232 C 0.93802 0.31722 0.59921
 C1233 C 0.92775 0.29042 0.60915
 H1234 H 0.93771 0.28008 0.62768
 O1235 O 1.02846 0.64392 0.60436
 O1236 O 1.02844 0.67768 0.63803
 C1237 C 1.03831 0.66746 0.61451
 C1238 C 1.06196 0.68263 0.59911
 C1239 C 1.07221 0.70947 0.60900
 H1240 H 1.06229 0.71979 0.62757
 O1241 O 0.85573 0.39542 0.52825
 O1242 O 0.82197 0.36177 0.52818
 C1243 C 0.83220 0.38525 0.53811
 C1244 C 0.81708 0.40055 0.56187
 C1245 C 0.79029 0.39060 0.57220
 H1246 H 0.77995 0.37209 0.56223
 O1247 O 1.14384 0.60447 0.52782
 O1248 O 1.17772 0.63801 0.52802
 C1249 C 1.16738 0.61449 0.53778
 C1250 C 1.18245 0.59898 0.56142
 C1251 C 1.20940 0.60868 0.57152
 H1252 H 1.21981 0.62714 0.56150
 O1253 O 1.02844 0.60422 0.64390
 O1254 O 1.02843 0.63780 0.67775
 C1255 C 1.03829 0.61431 0.66747
 C1256 C 1.06196 0.59890 0.68259
 C1257 C 1.07223 0.60875 0.70945
 H1258 H 1.06230 0.62727 0.71982
 O1259 O 0.97151 0.39543 0.64412
 O1260 O 0.97154 0.36175 0.67790
 C1261 C 0.96164 0.38525 0.66767
 C1262 C 0.93791 0.40057 0.68280
 C1263 C 0.92762 0.39065 0.70963
 H1264 H 0.93757 0.37212 0.71999
 O1265 O 1.14388 0.52783 0.60409
 O1266 O 1.17769 0.52793 0.63772
 C1267 C 1.16740 0.53776 0.61419
 C1268 C 1.18247 0.56145 0.59878
 C1269 C 1.20942 0.57151 0.60852
 H1270 H 1.21984 0.56142 0.62694
 O1271 O 0.85578 0.47152 0.60445
 O1272 O 0.82198 0.47164 0.63810
 C1273 C 0.83223 0.46170 0.61461
 C1274 C 0.81710 0.43797 0.59932
 C1275 C 0.79031 0.42769 0.60930
 H1276 H 0.77999 0.43766 0.62783
 O1277 O 1.10440 0.64419 0.52780
 O1278 O 1.13810 0.67790 0.52799
 C1279 C 1.11456 0.66766 0.53778
 C1280 C 1.09923 0.68272 0.56151
 C1281 C 1.10912 0.70954 0.57173
 H1282 H 1.12757 0.71992 0.56166
 O1283 O 0.89540 0.35592 0.52822
 O1284 O 0.86181 0.32209 0.52814
 C1285 C 0.88528 0.33236 0.53806
 C1286 C 0.90062 0.31724 0.56177
 C1287 C 0.89068 0.29043 0.57204
 H1288 H 0.87216 0.28011 0.56207
 O1289 O 1.10446 0.47141 0.64384
 O1290 O 1.13808 0.47142 0.67766
 C1291 C 1.11458 0.46155 0.66741
 C1292 C 1.09917 0.43790 0.68256
 C1293 C 1.10905 0.42762 0.70942
 H1294 H 1.12760 0.43751 0.71975
 O1295 O 0.89556 0.52794 0.64383
 O1296 O 0.86193 0.52814 0.67766
 C1297 C 0.88546 0.53790 0.66736
 C1298 C 0.90089 0.56157 0.68245
 C1299 C 0.89106 0.57177 0.70934
 H1300 H 0.87256 0.56181 0.71972
 O1301 O 0.97207 0.64376 0.60421
 O1302 O 0.97197 0.67754 0.63787
 C1303 C 0.96216 0.66729 0.61434
 C1304 C 0.93851 0.68241 0.59893
 C1305 C 0.92840 0.70933 0.60871
 H1306 H 0.93844 0.71971 0.62717
 O1307 O 1.02798 0.35611 0.60429
 O1308 O 1.02806 0.32226 0.63789
 C1309 C 1.03791 0.33259 0.61439
 C1310 C 1.06165 0.31752 0.59904
 C1311 C 1.07176 0.29063 0.60891
 H1312 H 1.06165 0.28025 0.62734
 O1313 O 1.14452 0.39545 0.52801
 O1314 O 1.17828 0.36177 0.52810
 C1315 C 1.16803 0.38529 0.53793
 C1316 C 1.18310 0.40061 0.56167
 C1317 C 1.20987 0.39065 0.57202
 H1318 H 1.22023 0.37213 0.56206
 O1319 O 0.85614 0.60429 0.52787
 O1320 O 0.82233 0.63792 0.52793
 C1321 C 0.83259 0.61440 0.53776
 C1322 C 0.81745 0.59899 0.56142
 C1323 C 0.79053 0.60879 0.57154
 H1324 H 0.78016 0.62726 0.56151
 Cu1325 Cu 0.99972 0.37912 0.62086
 Cu1326 Cu 0.99981 0.33858 0.66130
 Cu1327 Cu 1.00027 0.62065 0.62070
 Cu1328 Cu 1.00018 0.66108 0.66123
 Cu1329 Cu 0.87900 0.37912 0.50004
 Cu1330 Cu 0.83858 0.33862 0.49988
 Cu1331 Cu 1.12127 0.37911 0.49983
 Cu1332 Cu 1.16168 0.33858 0.49991
 Cu1333 Cu 0.87931 0.62075 0.49966
 Cu1334 Cu 0.83884 0.66123 0.49971
 Cu1335 Cu 1.12085 0.62110 0.49957
 Cu1336 Cu 1.16143 0.66146 0.49978
 Cu1337 Cu 0.87904 0.49971 0.62076
 Cu1338 Cu 0.83856 0.49992 0.66126
 Cu1339 Cu 1.12089 0.49960 0.62068
 Cu1340 Cu 1.16137 0.49968 0.66116
 C1341 C 1.07524 0.42444 0.66950
 H1342 H 1.06776 0.43195 0.64860
 C1343 C 1.09537 0.40417 0.72281
 C1344 C 0.92476 0.57511 0.66932
 H1345 H 0.93221 0.56764 0.64840
 C1346 C 0.90469 0.59523 0.72272
 C1347 C 0.83056 0.57516 0.57505
 H1348 H 0.85150 0.56773 0.56765
 C1349 C 0.77711 0.59517 0.59500
 C1350 C 1.16997 0.42447 0.57520
 H1351 H 1.14913 0.43200 0.56762
 C1352 C 1.22312 0.40415 0.59563
 C1353 C 1.07538 0.33065 0.57526
 H1354 H 1.06797 0.35157 0.56778
 C1355 C 1.09530 0.27724 0.59544
 C1356 C 0.92488 0.66928 0.57511
 H1357 H 0.93227 0.64834 0.56770
 C1358 C 0.90495 0.72274 0.59510
 C1359 C 0.92439 0.42445 0.66971
 H1360 H 0.93192 0.43197 0.64884
 C1361 C 0.90408 0.40422 0.72298
 C1362 C 1.07546 0.57502 0.66947
 H1363 H 1.06796 0.56756 0.64856
 C1364 C 1.09571 0.59509 0.72280
 C1365 C 0.92449 0.33031 0.57532
 H1366 H 0.93201 0.35117 0.56779
 C1367 C 0.90422 0.27708 0.59559
 C1368 C 1.07544 0.66958 0.57516
 H1369 H 1.06796 0.64870 0.56767
 C1370 C 1.09566 0.72286 0.59532
 C1371 C 0.83015 0.42443 0.57541
 H1372 H 0.85100 0.43197 0.56785
 C1373 C 0.77695 0.40415 0.59577
 C1374 C 1.16930 0.57516 0.57502
 H1375 H 1.14833 0.56781 0.56763
 C1376 C 1.22282 0.59498 0.59492
 O1377 O 0.47167 0.89569 0.35594
 O1378 O 0.47166 0.86214 0.32205
 C1379 C 0.46181 0.88562 0.33237
 C1380 C 0.43815 0.90100 0.31726
 C1381 C 0.42802 0.89112 0.29039
 H1382 H 0.43808 0.87266 0.28003
 O1383 O 0.52769 1.10456 0.35596
 O1384 O 0.52774 1.13823 0.32218
 C1385 C 0.53756 1.11469 0.33240
 C1386 C 0.56118 1.09931 0.31721
 C1387 C 0.57132 1.10921 0.29033
 H1388 H 0.56131 1.12772 0.28001
 O1389 O 0.35564 0.97191 0.39550
 O1390 O 0.32187 0.97186 0.36182
 C1391 C 0.33212 0.96202 0.38535
 C1392 C 0.31702 0.93831 0.40071
 C1393 C 0.29019 0.92807 0.39082
 H1394 H 0.27982 0.93807 0.37232
 O1395 O 0.64379 1.02827 0.39512
 O1396 O 0.67750 1.02833 0.36138
 C1397 C 0.66732 1.03813 0.38495
 C1398 C 0.68255 1.06170 0.40037
 C1399 C 0.70944 1.07181 0.39049
 H1400 H 0.71972 1.06183 0.37193
 O1401 O 0.39522 0.85572 0.47135
 O1402 O 0.36160 0.82193 0.47138
 C1403 C 0.38507 0.83220 0.46144
 C1404 C 0.40038 0.81713 0.43765
 C1405 C 0.39043 0.79037 0.42724
 H1406 H 0.37188 0.78002 0.43714
 O1407 O 0.60473 1.14377 0.47169
 O1408 O 0.63829 1.17763 0.47148
 C1409 C 0.61477 1.16731 0.46173
 C1410 C 0.59926 1.18241 0.43809
 C1411 C 0.60903 1.20931 0.42788
 H1412 H 0.62757 1.21966 0.43779
 O1413 O 0.39526 1.02829 0.35590
 O1414 O 0.36168 1.02831 0.32204
 C1415 C 0.38515 1.03818 0.33234
 C1416 C 0.40047 1.06192 0.31726
 C1417 C 0.39060 1.07214 0.29040
 H1418 H 0.37216 1.06210 0.28000
 O1419 O 0.60412 0.97189 0.35556
 O1420 O 0.63767 0.97192 0.32166
 C1421 C 0.61422 0.96202 0.33199
 C1422 C 0.59890 0.93829 0.31692
 C1423 C 0.60882 0.92804 0.29008
 H1424 H 0.62730 0.93806 0.27970
 O1425 O 0.52798 0.85595 0.39545
 O1426 O 0.52804 0.82221 0.36174
 C1427 C 0.53787 0.83244 0.38528
 C1428 C 0.56154 0.81731 0.40063
 C1429 C 0.57171 0.79045 0.39077
 H1430 H 0.56166 0.78008 0.37230
 O1431 O 0.47145 1.14429 0.39567
 O1432 O 0.47145 1.17812 0.36204
 C1433 C 0.46161 1.16786 0.38556
 C1434 C 0.43797 1.18302 0.40097
 C1435 C 0.42776 1.20988 0.39110
 H1436 H 0.43774 1.22023 0.37258
 O1437 O 0.35563 1.10484 0.47164
 O1438 O 0.32180 1.13843 0.47163
 C1439 C 0.33211 1.11497 0.46170
 C1440 C 0.31707 1.09964 0.43789
 C1441 C 0.29032 1.10961 0.42745
 H1442 H 0.27999 1.12819 0.43731
 O1443 O 0.64386 0.89570 0.47134
 O1444 O 0.67766 0.86207 0.47132
 C1445 C 0.66738 0.88557 0.46144
 C1446 C 0.68246 0.90093 0.43772
 C1447 C 0.70934 0.89112 0.42749
 H1448 H 0.71974 0.87265 0.43748
 O1449 O 0.47130 1.10467 0.35606
 O1450 O 0.47130 1.13833 0.32227
 C1451 C 0.46143 1.11483 0.33251
 C1452 C 0.43776 1.09947 0.31736
 C1453 C 0.42754 1.10935 0.29049
 H1454 H 0.43748 1.12789 0.28016
 O1455 O 0.52805 0.89545 0.35573
 O1456 O 0.52810 0.86188 0.32186
 C1457 C 0.53794 0.88537 0.33215
 C1458 C 0.56161 0.90076 0.31701
 C1459 C 0.57188 0.89085 0.29017
 H1460 H 0.56196 0.87230 0.27984
 O1461 O 0.64371 0.97191 0.39514
 O1462 O 0.67743 0.97191 0.36140
 C1463 C 0.66722 0.96204 0.38495
 C1464 C 0.68238 0.93837 0.40029
 C1465 C 0.70925 0.92823 0.39040
 H1466 H 0.71959 0.93826 0.37190
 O1467 O 0.35570 1.02835 0.39550
 O1468 O 0.32195 1.02837 0.36182
 C1469 C 0.33220 1.03827 0.38532
 C1470 C 0.31712 1.06207 0.40057
 C1471 C 0.29038 1.07238 0.39050
 H1472 H 0.28009 1.06236 0.37198
 O1473 O 0.39529 1.14435 0.47192
 O1474 O 0.36164 1.17813 0.47193
 C1475 C 0.38517 1.16790 0.46209
 C1476 C 0.40056 1.18305 0.43843
 C1477 C 0.39070 1.20990 0.42822
 H1478 H 0.37220 1.22026 0.43822
 O1479 O 0.60435 0.85605 0.47145
 O1480 O 0.63797 0.82224 0.47145
 C1481 C 0.61446 0.83249 0.46160
 C1482 C 0.59905 0.81734 0.43797
 C1483 C 0.60888 0.79046 0.42777
 H1484 H 0.62740 0.78011 0.43773
 O1485 O 0.60399 1.02830 0.35570
 O1486 O 0.63754 1.02840 0.32178
 C1487 C 0.61405 1.03822 0.33213
 C1488 C 0.59862 1.06190 0.31708
 C1489 C 0.60842 1.07215 0.29019
 H1490 H 0.62690 1.06219 0.27977
 O1491 O 0.39528 0.97189 0.35590
 O1492 O 0.36169 0.97184 0.32205
 C1493 C 0.38520 0.96200 0.33234
 C1494 C 0.40062 0.93832 0.31723
 C1495 C 0.39082 0.92807 0.29034
 H1496 H 0.37230 0.93800 0.27995
 O1497 O 0.52787 1.14398 0.39570
 O1498 O 0.52793 1.17782 0.36209
 C1499 C 0.53781 1.16749 0.38557
 C1500 C 0.56160 1.18251 0.40088
 C1501 C 0.57173 1.20940 0.39102
 H1502 H 0.56161 1.21983 0.37262
 O1503 O 0.47157 0.85581 0.39524
 O1504 O 0.47158 0.82210 0.36152
 C1505 C 0.46167 0.83231 0.38503
 C1506 C 0.43790 0.81720 0.40028
 C1507 C 0.42762 0.79044 0.39023
 H1508 H 0.43764 0.78015 0.37170
 O1509 O 0.64432 1.10419 0.47172
 O1510 O 0.67807 1.13785 0.47151
 C1511 C 0.66780 1.11432 0.46172
 C1512 C 0.68281 1.09896 0.43796
 C1513 C 0.70969 1.10872 0.42774
 H1514 H 0.72016 1.12712 0.43779
 O1515 O 0.35579 0.89549 0.47157
 O1516 O 0.32199 0.86188 0.47159
 C1517 C 0.33224 0.88540 0.46173
 C1518 C 0.31708 0.90081 0.43809
 C1519 C 0.29025 0.89092 0.42786
 H1520 H 0.27993 0.87239 0.43783
 Cu1521 Cu 0.49983 0.87908 0.37898
 Cu1522 Cu 0.49985 0.83870 0.33840
 Cu1523 Cu 0.49956 1.12100 0.37922
 Cu1524 Cu 0.49961 1.16153 0.33876
 Cu1525 Cu 0.37883 1.00010 0.37907
 Cu1526 Cu 0.33841 1.00008 0.33855
 Cu1527 Cu 0.62053 1.00010 0.37876
 Cu1528 Cu 0.66091 1.00015 0.33815
 C1529 C 0.42449 0.92481 0.33036
 H1530 H 0.43193 0.93228 0.35128
 C1531 C 0.40450 0.90461 0.27699
 C1532 C 0.57479 1.07545 0.33027
 H1533 H 0.56737 1.06795 0.35119
 C1534 C 0.59480 1.09567 0.27688
 C1535 C 0.33014 0.92471 0.42455
 H1536 H 0.35102 0.93219 0.43204
 C1537 C 0.27686 0.90452 0.40437
 C1538 C 0.66956 1.07524 0.42431
 H1539 H 0.64864 1.06785 0.43180
 C1540 C 0.72295 1.09517 0.40414
 C1541 C 0.42432 0.83021 0.42418
 H1542 H 0.43186 0.85103 0.43180
 C1543 C 0.40403 0.77707 0.40367
 C1544 C 0.57534 1.16933 0.42461
 H1545 H 0.56792 1.14841 0.43208
 C1546 C 0.59530 1.22274 0.40449
 C1547 C 0.42425 1.07555 0.33042
 H1548 H 0.43173 1.06806 0.35132
 C1549 C 0.40410 1.09571 0.27707
 C1550 C 0.57509 0.92468 0.33006
 H1551 H 0.56758 0.93218 0.35095
 C1552 C 0.59535 0.90446 0.27676
 C1553 C 0.57517 0.83043 0.42444
 H1554 H 0.56773 0.85134 0.43190
 C1555 C 0.59523 0.77708 0.40431
 C1556 C 0.42441 1.16994 0.42485
 H1557 H 0.43187 1.14903 0.43232
 C1558 C 0.40427 1.22326 0.40470
 C1559 C 0.33015 1.07568 0.42446
 H1560 H 0.35095 1.06811 0.43209
 C1561 C 0.27704 1.09601 0.40388
 C1562 C 0.66931 0.92476 0.42415
 H1563 H 0.64840 0.93220 0.43164
 C1564 C 0.72267 0.90475 0.40397
 O1565 O 0.52792 0.89595 0.64376
 O1566 O 0.52805 0.86232 0.67759
 C1567 C 0.53785 0.88584 0.66729
 C1568 C 0.56152 0.90123 0.68238
 C1569 C 0.57161 0.89147 0.70934
 H1570 H 0.56153 0.87306 0.71977
 O1571 O 0.47190 1.10446 0.64364
 O1572 O 0.47190 1.13804 0.67751
 C1573 C 0.46203 1.11456 0.66721
 C1574 C 0.43831 1.09922 0.68232
 C1575 C 0.42815 1.10913 0.70918
 H1576 H 0.43822 1.12758 0.71954
 O1577 O 0.35578 1.02806 0.60419
 O1578 O 0.32200 1.02812 0.63786
 C1579 C 0.33222 1.03792 0.61431
 C1580 C 0.31704 1.06151 0.59889
 C1581 C 0.29010 1.07155 0.60870
 H1582 H 0.27974 1.06146 0.62716
 O1583 O 0.64409 0.97208 0.60398
 O1584 O 0.67782 0.97186 0.63769
 C1585 C 0.66758 0.96211 0.61413
 C1586 C 0.68268 0.93846 0.59870
 C1587 C 0.70960 0.92833 0.60847
 H1588 H 0.72000 0.93836 0.62693
 O1589 O 0.60427 0.85628 0.52787
 O1590 O 0.63788 0.82246 0.52794
 C1591 C 0.61438 0.83275 0.53778
 C1592 C 0.59898 0.81766 0.56147
 C1593 C 0.60874 0.79074 0.57160
 H1594 H 0.62719 0.78033 0.56155
 O1595 O 0.39505 1.14428 0.52837
 O1596 O 0.36138 1.17803 0.52849
 C1597 C 0.38489 1.16776 0.53835
 C1598 C 0.40025 1.18281 0.56215
 C1599 C 0.39023 1.20951 0.57268
 H1600 H 0.37159 1.21981 0.56290
 O1601 O 0.39544 0.97186 0.64398
 O1602 O 0.36184 0.97191 0.67783
 C1603 C 0.38533 0.96204 0.66757
 C1604 C 0.40067 0.93838 0.68273
 C1605 C 0.39076 0.92820 0.70959
 H1606 H 0.37227 0.93823 0.71993
 O1607 O 0.60457 1.02847 0.64362
 O1608 O 0.63812 1.02832 0.67752
 C1609 C 0.61466 1.03827 0.66721
 C1610 C 0.59934 1.06196 0.68235
 C1611 C 0.60930 1.07215 0.70918
 H1612 H 0.62780 1.06213 0.71949
 O1613 O 0.47159 0.85623 0.60425
 O1614 O 0.47167 0.82241 0.63789
 C1615 C 0.46180 0.83265 0.61436
 C1616 C 0.43823 0.81743 0.59893
 C1617 C 0.42820 0.79048 0.60872
 H1618 H 0.43822 0.78014 0.62722
 O1619 O 0.52822 1.14420 0.60406
 O1620 O 0.52830 1.17795 0.63774
 C1621 C 0.53814 1.16770 0.61420
 C1622 C 0.56187 1.18277 0.59884
 C1623 C 0.57212 1.20961 0.60868
 H1624 H 0.56211 1.22003 0.62715
 O1625 O 0.35586 0.89532 0.52801
 O1626 O 0.32208 0.86169 0.52813
 C1627 C 0.33237 0.88517 0.53800
 C1628 C 0.31732 0.90049 0.56180
 C1629 C 0.29054 0.89053 0.57215
 H1630 H 0.28020 0.87202 0.56219
 O1631 O 0.64464 1.10453 0.52818
 O1632 O 0.67837 1.13821 0.52808
 C1633 C 0.66816 1.11474 0.53805
 C1634 C 0.68324 1.09948 0.56186
 C1635 C 0.70995 1.10950 0.57235
 H1636 H 0.72028 1.12807 0.56246
 O1637 O 0.52832 1.10470 0.64380
 O1638 O 0.52837 1.13829 0.67765
 C1639 C 0.53823 1.11480 0.66735
 C1640 C 0.56196 1.09943 0.68243
 C1641 C 0.57228 1.10930 0.70927
 H1642 H 0.56235 1.12782 0.71966
 O1643 O 0.47153 0.89567 0.64403
 O1644 O 0.47158 0.86203 0.67784
 C1645 C 0.46169 0.88553 0.66759
 C1646 C 0.43801 0.90089 0.68275
 C1647 C 0.42774 0.89102 0.70961
 H1648 H 0.43768 0.87249 0.71997
 O1649 O 0.64441 1.02847 0.60428
 O1650 O 0.67812 1.02832 0.63802
 C1651 C 0.66794 1.03828 0.61451
 C1652 C 0.68311 1.06202 0.59928
 C1653 C 0.70982 1.07236 0.60941
 H1654 H 0.72005 1.06239 0.62801
 O1655 O 0.35591 0.97164 0.60435
 O1656 O 0.32213 0.97165 0.63803
 C1657 C 0.33240 0.96173 0.61453
 C1658 C 0.31734 0.93793 0.59925
 C1659 C 0.29056 0.92762 0.60924
 H1660 H 0.28023 0.93759 0.62778
 O1661 O 0.60476 1.14383 0.52809
 O1662 O 0.63831 1.17769 0.52797
 C1663 C 0.61483 1.16742 0.53788
 C1664 C 0.59941 1.18260 0.56150
 C1665 C 0.60930 1.20944 0.57168
 H1666 H 0.62785 1.21974 0.56170
 O1667 O 0.39556 0.85586 0.52780
 O1668 O 0.36197 0.82204 0.52792
 C1669 C 0.38548 0.83232 0.53771
 C1670 C 0.40091 0.81725 0.56139
 C1671 C 0.39122 0.79030 0.57152
 H1672 H 0.37283 0.77984 0.56145
 O1673 O 0.60450 0.97208 0.64362
 O1674 O 0.63805 0.97189 0.67750
 C1675 C 0.61453 0.96214 0.66719
 C1676 C 0.59904 0.93855 0.68232
 C1677 C 0.60877 0.92844 0.70927
 H1678 H 0.62725 0.93843 0.71967
 O1679 O 0.39544 1.02826 0.64375
 O1680 O 0.36184 1.02838 0.67760
 C1681 C 0.38533 1.03821 0.66729
 C1682 C 0.40074 1.06193 0.68235
 C1683 C 0.39092 1.07221 0.70923
 H1684 H 0.37240 1.06230 0.71962
 O1685 O 0.47176 1.14426 0.60427
 O1686 O 0.47178 1.17800 0.63797
 C1687 C 0.46183 1.16775 0.61449
 C1688 C 0.43795 1.18280 0.59933
 C1689 C 0.42760 1.20950 0.60949
 H1690 H 0.43765 1.21978 0.62799
 O1691 O 0.52796 0.85629 0.60425
 O1692 O 0.52810 0.82248 0.63790
 C1693 C 0.53790 0.83277 0.61436
 C1694 C 0.56156 0.81767 0.59893
 C1695 C 0.57168 0.79074 0.60871
 H1696 H 0.56164 0.78034 0.62717
 O1697 O 0.64395 0.89574 0.52776
 O1698 O 0.67775 0.86211 0.52782
 C1699 C 0.66750 0.88563 0.53764
 C1700 C 0.68265 0.90104 0.56128
 C1701 C 0.70957 0.89125 0.57139
 H1702 H 0.71995 0.87278 0.56135
 O1703 O 0.35564 1.10451 0.52807
 O1704 O 0.32178 1.13807 0.52817
 C1705 C 0.33207 1.11454 0.53795
 C1706 C 0.31695 1.09902 0.56154
 C1707 C 0.29002 1.10872 0.57170
 H1708 H 0.27959 1.12720 0.56173
 Cu1709 Cu 0.49972 0.87941 0.62071
 Cu1710 Cu 0.49986 0.83892 0.66120
 Cu1711 Cu 0.50006 1.12105 0.62056
 Cu1712 Cu 0.50009 1.16145 0.66110
 Cu1713 Cu 0.37898 0.87896 0.49966
 Cu1714 Cu 0.33852 0.83850 0.49976
 Cu1715 Cu 0.62074 0.87932 0.49960
 Cu1716 Cu 0.66121 0.83883 0.49964
 Cu1717 Cu 0.37877 1.12114 0.50000
 Cu1718 Cu 0.33826 1.16155 0.50007
 Cu1719 Cu 0.62127 1.12069 0.49995
 Cu1720 Cu 0.66165 1.16123 0.49973
 Cu1721 Cu 0.37901 0.99996 0.62069
 Cu1722 Cu 0.33856 1.00003 0.66122
 Cu1723 Cu 0.62104 1.00029 0.62049
 Cu1724 Cu 0.66141 1.00006 0.66108
 C1725 C 0.57521 0.92498 0.66918
 H1726 H 0.56783 0.93237 0.64821
 C1727 C 0.59509 0.90505 0.72272
 C1728 C 0.42464 1.07542 0.66922
 H1729 H 0.43209 1.06791 0.64831
 C1730 C 0.40460 1.09567 0.72258
 C1731 C 0.33014 1.07520 0.57509
 H1732 H 0.35110 1.06785 0.56767
 C1733 C 0.27666 1.09500 0.59514
 C1734 C 0.66953 0.92485 0.57490
 H1735 H 0.64858 0.93227 0.56750
 C1736 C 0.72298 0.90487 0.59484
 C1737 C 0.57518 0.83081 0.57511
 H1738 H 0.56778 0.85176 0.56771
 C1739 C 0.59512 0.77734 0.59506
 C1740 C 0.42430 1.16979 0.57546
 H1741 H 0.43190 1.14902 0.56777
 C1742 C 0.40388 1.22280 0.59622
 C1743 C 0.42450 0.92477 0.66964
 H1744 H 0.43201 0.93225 0.64874
 C1745 C 0.40425 0.90466 0.72297
 C1746 C 0.57548 1.07556 0.66930
 H1747 H 0.56794 1.06809 0.64842
 C1748 C 0.59581 1.09568 0.72259
 C1749 C 0.42462 0.83049 0.57506
 H1750 H 0.43196 0.85146 0.56765
 C1751 C 0.40484 0.77698 0.59504
 C1752 C 0.57549 1.16958 0.57505
 H1753 H 0.56800 1.14869 0.56759
 C1754 C 0.59570 1.22289 0.59512
 C1755 C 0.33040 0.92438 0.57533
 H1756 H 0.35123 0.93193 0.56775
 C1757 C 0.27721 0.90406 0.59572
 C1758 C 0.67017 1.07554 0.57532
 H1759 H 0.64939 1.06795 0.56765
 C1760 C 0.72319 1.09596 0.59599
 O1761 O 0.60423 0.52816 1.14446
 O1762 O 0.63790 0.52829 1.17822
 C1763 C 0.61438 0.53812 1.16795
 C1764 C 0.59904 0.56187 1.18302
 C1765 C 0.60898 0.57217 1.20983
 H1766 H 0.62750 0.56221 1.22017
 O1767 O 0.39539 0.47180 1.14476
 O1768 O 0.36170 0.47174 1.17852
 C1769 C 0.38523 0.46190 1.16829
 C1770 C 0.40055 0.43818 1.18342
 C1771 C 0.39054 0.42791 1.21022
 H1772 H 0.37201 0.43790 1.22052
 O1773 O 0.52775 0.64409 1.10483
 O1774 O 0.52777 0.67791 1.13845
 C1775 C 0.53762 0.66764 1.11494
 C1776 C 0.56129 0.68276 1.09955
 C1777 C 0.57151 0.70961 1.10943
 H1778 H 0.56150 0.71997 1.12793
 O1779 O 0.47182 0.35605 1.10515
 O1780 O 0.47182 0.32221 1.13876
 C1781 C 0.46200 0.33247 1.11522
 C1782 C 0.43843 0.31728 1.09976
 C1783 C 0.42832 0.29038 1.10959
 H1784 H 0.43829 0.28005 1.12813
 O1785 O 0.64351 0.60439 1.02853
 O1786 O 0.67732 0.63799 1.02852
 C1787 C 0.66707 0.61448 1.03837
 C1788 C 0.68226 0.59904 1.06197
 C1789 C 0.70924 0.60877 1.07197
 H1790 H 0.71960 0.62721 1.06189
 O1791 O 0.35615 0.39524 1.02865
 O1792 O 0.32239 0.36158 1.02880
 C1793 C 0.33265 0.38510 1.03862
 C1794 C 0.31753 0.40047 1.06234
 C1795 C 0.29066 0.39059 1.07253
 H1796 H 0.28033 0.37210 1.06251
 O1797 O 0.47147 0.60441 1.14452
 O1798 O 0.47144 0.63806 1.17831
 C1799 C 0.46159 0.61455 1.16807
 C1800 C 0.43787 0.59925 1.18321
 C1801 C 0.42762 0.60929 1.20999
 H1802 H 0.43763 0.62781 1.22028
 O1803 O 0.52804 0.39568 1.14489
 O1804 O 0.52811 0.36203 1.17869
 C1805 C 0.53793 0.38555 1.16843
 C1806 C 0.56162 0.40091 1.18354
 C1807 C 0.57186 0.39105 1.21040
 H1808 H 0.56186 0.37257 1.22079
 O1809 O 0.64385 0.47165 1.10500
 O1810 O 0.67770 0.47167 1.13858
 C1811 C 0.66741 0.46178 1.11509
 C1812 C 0.68251 0.43810 1.09968
 C1813 C 0.70937 0.42780 1.10950
 H1814 H 0.71975 0.43771 1.12803
 O1815 O 0.35569 0.52806 1.10503
 O1816 O 0.32183 0.52807 1.13862
 C1817 C 0.33210 0.53790 1.11510
 C1818 C 0.31695 0.56152 1.09964
 C1819 C 0.29012 0.57181 1.10952
 H1820 H 0.27979 0.56193 1.12811
 O1821 O 0.39502 0.64376 1.02861
 O1822 O 0.36132 0.67749 1.02861
 C1823 C 0.38483 0.66727 1.03852
 C1824 C 0.40012 0.68240 1.06227
 C1825 C 0.39016 0.70921 1.07253
 H1826 H 0.37163 0.71952 1.06255
 O1827 O 0.60425 0.35608 1.02862
 O1828 O 0.63788 0.32228 1.02863
 C1829 C 0.61440 0.33256 1.03854
 C1830 C 0.59912 0.31749 1.06233
 C1831 C 0.60906 0.29066 1.07254
 H1832 H 0.62751 0.28030 1.06246
 O1833 O 0.39522 0.52823 1.14473
 O1834 O 0.36154 0.52826 1.17850
 C1835 C 0.38504 0.53815 1.16825
 C1836 C 0.40037 0.56192 1.18332
 C1837 C 0.39043 0.57233 1.21011
 H1838 H 0.37187 0.56245 1.22048
 O1839 O 0.60429 0.47175 1.14467
 O1840 O 0.63796 0.47179 1.17844
 C1841 C 0.61444 0.46192 1.16824
 C1842 C 0.59908 0.43828 1.18344
 C1843 C 0.60898 0.42807 1.21030
 H1844 H 0.62751 0.43804 1.22062
 O1845 O 0.52820 0.35611 1.10527
 O1846 O 0.52828 0.32228 1.13889
 C1847 C 0.53814 0.33258 1.11538
 C1848 C 0.56185 0.31750 1.09996
 C1849 C 0.57215 0.29066 1.10982
 H1850 H 0.56224 0.28031 1.12838
 O1851 O 0.47133 0.64396 1.10487
 O1852 O 0.47128 0.67778 1.13849
 C1853 C 0.46139 0.66747 1.11501
 C1854 C 0.43760 0.68251 1.09968
 C1855 C 0.42729 0.70932 1.10958
 H1856 H 0.43728 0.71971 1.12807
 O1857 O 0.35557 0.60404 1.02845
 O1858 O 0.32171 0.63761 1.02844
 C1859 C 0.33201 0.61412 1.03831
 C1860 C 0.31691 0.59878 1.06203
 C1861 C 0.29008 0.60871 1.07224
 H1862 H 0.27973 0.62719 1.06219
 O1863 O 0.64380 0.39567 1.02851
 O1864 O 0.67760 0.36203 1.02851
 C1865 C 0.66734 0.38552 1.03838
 C1866 C 0.68247 0.40083 1.06209
 C1867 C 0.70932 0.39090 1.07223
 H1868 H 0.71966 0.37244 1.06214
 O1869 O 0.47162 0.39552 1.14488
 O1870 O 0.47160 0.36187 1.17868
 C1871 C 0.46170 0.38536 1.16841
 C1872 C 0.43793 0.40069 1.18349
 C1873 C 0.42755 0.39075 1.21029
 H1874 H 0.43746 0.37221 1.22065
 O1875 O 0.52790 0.60446 1.14442
 O1876 O 0.52793 0.63811 1.17821
 C1877 C 0.53782 0.61461 1.16794
 C1878 C 0.56159 0.59930 1.18303
 C1879 C 0.57189 0.60924 1.20984
 H1880 H 0.56192 0.62776 1.22018
 O1881 O 0.35593 0.47165 1.10505
 O1882 O 0.32205 0.47158 1.13863
 C1883 C 0.33240 0.46170 1.11514
 C1884 C 0.31740 0.43794 1.09977
 C1885 C 0.29053 0.42769 1.10959
 H1886 H 0.28011 0.43770 1.12806
 O1887 O 0.64377 0.52804 1.10481
 O1888 O 0.67764 0.52815 1.13838
 C1889 C 0.66732 0.53794 1.11486
 C1890 C 0.68240 0.56158 1.09939
 C1891 C 0.70937 0.57166 1.10904
 H1892 H 0.71984 0.56160 1.12745
 O1893 O 0.39582 0.35571 1.02853
 O1894 O 0.36223 0.32189 1.02869
 C1895 C 0.38574 0.33219 1.03848
 C1896 C 0.40115 0.31713 1.06219
 C1897 C 0.39137 0.29023 1.07237
 H1898 H 0.37296 0.27979 1.06232
 O1899 O 0.60400 0.64407 1.02858
 O1900 O 0.63763 0.67785 1.02860
 C1901 C 0.61413 0.66760 1.03846
 C1902 C 0.59876 0.68273 1.06215
 C1903 C 0.60863 0.70957 1.07237
 H1904 H 0.62714 0.71991 1.06238
 Cu1905 Cu 0.62066 0.49988 1.12137
 Cu1906 Cu 0.66119 0.49998 1.16180
 Cu1907 Cu 0.37893 0.49996 1.12154
 Cu1908 Cu 0.33839 0.49991 1.16195
 Cu1909 Cu 0.49962 0.62086 1.12129
 Cu1910 Cu 0.49960 0.66135 1.16175
 Cu1911 Cu 0.49992 0.37922 1.12169
 Cu1912 Cu 0.49995 0.33871 1.16215
 C1913 C 0.57514 0.57541 1.16994
 H1914 H 0.56761 0.56787 1.14908
 C1915 C 0.59544 0.59571 1.22318
 C1916 C 0.42444 0.42461 1.17039
 H1917 H 0.43202 0.43214 1.14953
 C1918 C 0.40399 0.40434 1.22360
 C1919 C 0.57489 0.66965 1.07571
 H1920 H 0.56741 0.64875 1.06823
 C1921 C 0.59503 0.72296 1.09587
 C1922 C 0.42488 0.33033 1.07585
 H1923 H 0.43228 0.35127 1.06840
 C1924 C 0.40493 0.27692 1.09592
 C1925 C 0.66916 0.57524 1.07564
 H1926 H 0.64817 0.56787 1.06833
 C1927 C 0.72273 0.59511 1.09536
 C1928 C 0.33058 0.42434 1.07594
 H1929 H 0.35148 0.43183 1.06848
 C1930 C 0.27722 0.40416 1.09601
 C1931 C 0.42429 0.57537 1.17020
 H1932 H 0.43182 0.56777 1.14936
 C1933 C 0.40404 0.59588 1.22339
 C1934 C 0.57519 0.42474 1.17039
 H1935 H 0.56770 0.43220 1.14948
 C1936 C 0.59540 0.40460 1.22372
 C1937 C 0.66939 0.42463 1.07577
 H1938 H 0.64849 0.43214 1.06833
 C1939 C 0.72271 0.40434 1.09579
 C1940 C 0.33002 0.57498 1.07568
 H1941 H 0.35090 0.56747 1.06820
 C1942 C 0.27675 0.59527 1.09584
 C1943 C 0.42404 0.66937 1.07583
 H1944 H 0.43159 0.64852 1.06832
 C1945 C 0.40371 0.72262 1.09604
 C1946 C 0.57532 0.33059 1.07601
 H1947 H 0.56779 0.35147 1.06853
 C1948 C 0.59561 0.27730 1.09614
 O1949 O 0.60406 0.47175 0.85627
 O1950 O 0.63769 0.47180 0.82244
 C1951 C 0.61421 0.46190 0.83271
 C1952 C 0.59891 0.43821 0.81755
 C1953 C 0.60887 0.42806 0.79070
 H1954 H 0.62736 0.43811 0.78039
 O1955 O 0.39545 0.52757 0.85615
 O1956 O 0.36183 0.52766 0.82233
 C1957 C 0.38535 0.53748 0.83261
 C1958 C 0.40074 0.56117 0.81752
 C1959 C 0.39104 0.57125 0.79055
 H1960 H 0.37267 0.56114 0.78007
 O1961 O 0.47135 0.64396 0.89587
 O1962 O 0.47123 0.67773 0.86219
 C1963 C 0.46142 0.66747 0.88573
 C1964 C 0.43774 0.68256 0.90113
 C1965 C 0.42749 0.70943 0.89131
 H1966 H 0.43745 0.71982 0.87280
 O1967 O 0.52796 0.35584 0.89568
 O1968 O 0.52817 0.32200 0.86208
 C1969 C 0.53794 0.33231 0.88560
 C1970 C 0.56163 0.31728 0.90105
 C1971 C 0.57196 0.29045 0.89122
 H1972 H 0.56206 0.28006 0.87268
 O1973 O 0.64386 0.39555 0.97207
 O1974 O 0.67765 0.36191 0.97202
 C1975 C 0.66738 0.38541 0.96215
 C1976 C 0.68247 0.40078 0.93841
 C1977 C 0.70930 0.39091 0.92810
 H1978 H 0.71969 0.37240 0.93805
 O1979 O 0.35566 0.60413 0.97197
 O1980 O 0.32181 0.63771 0.97192
 C1981 C 0.33214 0.61425 0.96202
 C1982 C 0.31710 0.59893 0.93822
 C1983 C 0.29034 0.60893 0.92787
 H1984 H 0.28001 0.62746 0.93783
 O1985 O 0.52780 0.60442 0.85631
 O1986 O 0.52777 0.63800 0.82245
 C1987 C 0.53765 0.61452 0.83274
 C1988 C 0.56131 0.59914 0.81760
 C1989 C 0.57145 0.60893 0.79067
 H1990 H 0.56143 0.62740 0.78028
 O1991 O 0.47147 0.39518 0.85592
 O1992 O 0.47160 0.36151 0.82216
 C1993 C 0.46162 0.38498 0.83240
 C1994 C 0.43780 0.40017 0.81729
 C1995 C 0.42746 0.39005 0.79057
 H1996 H 0.43747 0.37152 0.78029
 O1997 O 0.64360 0.52817 0.89587
 O1998 O 0.67739 0.52827 0.86221
 C1999 C 0.66711 0.53809 0.88574
 C2000 C 0.68221 0.56177 0.90111
 C2001 C 0.70908 0.57195 0.89127
 H2002 H 0.71947 0.56194 0.87279
 O2003 O 0.35576 0.47132 0.89581
 O2004 O 0.32192 0.47130 0.86222
 C2005 C 0.33221 0.46145 0.88574
 C2006 C 0.31714 0.43778 0.90119
 C2007 C 0.29030 0.42750 0.89138
 H2008 H 0.27989 0.43743 0.87287
 O2009 O 0.60391 0.64403 0.97216
 O2010 O 0.63753 0.67782 0.97210
 C2011 C 0.61402 0.66757 0.96226
 C2012 C 0.59864 0.68269 0.93859
 C2013 C 0.60845 0.70957 0.92842
 H2014 H 0.62691 0.71995 0.93844
 O2015 O 0.39555 0.35556 0.97206
 O2016 O 0.36195 0.32175 0.97215
 C2017 C 0.38540 0.33202 0.96219
 C2018 C 0.40069 0.31694 0.93839
 C2019 C 0.39073 0.29014 0.92807
 H2020 H 0.37223 0.27979 0.93806
 O2021 O 0.39507 0.47115 0.85589
 O2022 O 0.36141 0.47114 0.82211
 C2023 C 0.38490 0.46123 0.83236
 C2024 C 0.40022 0.43745 0.81727
 C2025 C 0.39020 0.42697 0.79054
 H2026 H 0.37159 0.43681 0.78022
 O2027 O 0.60401 0.52814 0.85627
 O2028 O 0.63763 0.52824 0.82244
 C2029 C 0.61411 0.53805 0.83272
 C2030 C 0.59871 0.56170 0.81759
 C2031 C 0.60851 0.57183 0.79067
 H2032 H 0.62696 0.56179 0.78027
 O2033 O 0.47157 0.35568 0.89561
 O2034 O 0.47169 0.32184 0.86202
 C2035 C 0.46176 0.33211 0.88550
 C2036 C 0.43806 0.31698 0.90087
 C2037 C 0.42777 0.29020 0.89091
 H2038 H 0.43772 0.27989 0.87235
 O2039 O 0.52773 0.64399 0.89592
 O2040 O 0.52771 0.67776 0.86224
 C2041 C 0.53758 0.66753 0.88576
 C2042 C 0.56123 0.68268 0.90114
 C2043 C 0.57139 0.70957 0.89130
 H2044 H 0.56138 0.71994 0.87281
 O2045 O 0.35602 0.39523 0.97220
 O2046 O 0.32226 0.36159 0.97229
 C2047 C 0.33247 0.38509 0.96239
 C2048 C 0.31728 0.40042 0.93871
 C2049 C 0.29044 0.39049 0.92857
 H2050 H 0.28014 0.37198 0.93862
 O2051 O 0.64352 0.60447 0.97211
 O2052 O 0.67732 0.63809 0.97205
 C2053 C 0.66705 0.61459 0.96221
 C2054 C 0.68217 0.59921 0.93852
 C2055 C 0.70905 0.60905 0.92834
 H2056 H 0.71941 0.62753 0.93834
 O2057 O 0.52790 0.39539 0.85600
 O2058 O 0.52812 0.36173 0.82222
 C2059 C 0.53788 0.38528 0.83249
 C2060 C 0.56158 0.40071 0.81742
 C2061 C 0.57190 0.39089 0.79057
 H2062 H 0.56200 0.37238 0.78016
 O2063 O 0.47143 0.60420 0.85643
 O2064 O 0.47133 0.63778 0.82255
 C2065 C 0.46155 0.61425 0.83285
 C2066 C 0.43800 0.59875 0.81767
 C2067 C 0.42796 0.60847 0.79069
 H2068 H 0.43795 0.62696 0.78032
 O2069 O 0.35568 0.52775 0.89557
 O2070 O 0.32187 0.52782 0.86195
 C2071 C 0.33216 0.53770 0.88544
 C2072 C 0.31711 0.56150 0.90076
 C2073 C 0.29034 0.57186 0.89076
 H2074 H 0.28002 0.56192 0.87222
 O2075 O 0.64368 0.47178 0.89584
 O2076 O 0.67747 0.47182 0.86217
 C2077 C 0.66723 0.46193 0.88568
 C2078 C 0.68238 0.43825 0.90101
 C2079 C 0.70921 0.42806 0.89106
 H2080 H 0.71952 0.43809 0.87254
 O2081 O 0.60416 0.35607 0.97215
 O2082 O 0.63779 0.32227 0.97213
 C2083 C 0.61428 0.33253 0.96227
 C2084 C 0.59896 0.31739 0.93859
 C2085 C 0.60892 0.29056 0.92841
 H2086 H 0.62742 0.28025 0.93846
 O2087 O 0.39518 0.64379 0.97216
 O2088 O 0.36149 0.67753 0.97212
 C2089 C 0.38502 0.66732 0.96229
 C2090 C 0.40038 0.68249 0.93863
 C2091 C 0.39048 0.70935 0.92848
 H2092 H 0.37199 0.71968 0.93853
 Cu2093 Cu 0.62047 0.49995 0.87944
 Cu2094 Cu 0.66094 0.50004 0.83892
 Cu2095 Cu 0.37886 0.49943 0.87922
 Cu2096 Cu 0.33837 0.49949 0.83877
 Cu2097 Cu 0.62036 0.62087 1.00035
 Cu2098 Cu 0.66084 0.66133 1.00032
 Cu2099 Cu 0.62065 0.37921 1.00033
 Cu2100 Cu 0.66111 0.33873 1.00032
 Cu2101 Cu 0.37873 0.62056 1.00030
 Cu2102 Cu 0.33818 0.66096 1.00027
 Cu2103 Cu 0.37926 0.37880 1.00034
 Cu2104 Cu 0.33883 0.33831 1.00050
 Cu2105 Cu 0.49958 0.62078 0.87952
 Cu2106 Cu 0.49949 0.66121 0.83896
 Cu2107 Cu 0.49972 0.37890 0.87916
 Cu2108 Cu 0.49992 0.33838 0.83873
 C2109 C 0.57505 0.42457 0.83059
 H2110 H 0.56751 0.43201 0.85149
 C2111 C 0.59541 0.40455 0.77727
 C2112 C 0.42444 0.57489 0.83077
 H2113 H 0.43178 0.56752 0.85176
 C2114 C 0.40463 0.59475 0.77719
 C2115 C 0.42421 0.66942 0.92500
 H2116 H 0.43170 0.64851 0.93244
 C2117 C 0.40400 0.72276 0.90497
 C2118 C 0.57511 0.33043 0.92495
 H2119 H 0.56756 0.35131 0.93239
 C2120 C 0.59547 0.27715 0.90487
 C2121 C 0.66933 0.42464 0.92489
 H2122 H 0.64846 0.43212 0.93243
 C2123 C 0.72262 0.40454 0.90456
 C2124 C 0.33017 0.57502 0.92468
 H2125 H 0.35099 0.56744 0.93226
 C2126 C 0.27701 0.59543 0.90428
 C2127 C 0.57491 0.57532 0.83074
 H2128 H 0.56750 0.56790 0.85170
 C2129 C 0.59490 0.59530 0.77726
 C2130 C 0.42421 0.42406 0.83031
 H2131 H 0.43180 0.43172 0.85110
 C2132 C 0.40380 0.40340 0.77724
 C2133 C 0.66907 0.57537 0.92494
 H2134 H 0.64816 0.56792 0.93240
 C2135 C 0.72244 0.59545 0.90485
 C2136 C 0.33030 0.42427 0.92507
 H2137 H 0.35120 0.43179 0.93249
 C2138 C 0.27701 0.40399 0.90505
 C2139 C 0.57483 0.66956 0.92498
 H2140 H 0.56740 0.64864 0.93244
 C2141 C 0.59486 0.72296 0.90492
 C2142 C 0.42454 0.33002 0.92480
 H2143 H 0.43208 0.35087 0.93235
 C2144 C 0.40425 0.27683 0.90447
 C2145 C 1.11738 1.11655 1.27223
 C2146 C 1.10755 1.10701 1.25004
 C2147 C 1.11661 0.61557 0.77192
 C2148 C 1.10689 0.60608 0.74967
 C2149 C 0.61678 1.11614 0.77170
 C2150 C 0.60704 1.10667 0.74946
 C2151 C 0.61626 0.61640 1.27227
 C2152 C 0.60660 0.60682 1.25003
 C2153 C 0.88365 0.88381 1.27219
 C2154 C 0.89325 0.89345 1.24994
 C2155 C 0.88329 0.38359 0.77215
 C2156 C 0.89293 0.39316 0.74987
 C2157 C 0.38333 0.88418 0.77211
 C2158 C 0.39306 0.89366 0.74986
 C2159 C 0.38293 0.38375 1.27266
 C2160 C 0.39272 0.39328 1.25043
 C2161 C 0.88274 1.11667 0.72776
 C2162 C 0.89259 1.10713 0.74995
 C2163 C 0.88490 0.61534 0.22748
 C2164 C 0.89443 0.60587 0.24981
 C2165 C 0.38340 1.11627 0.22786
 C2166 C 0.39301 1.10674 0.25015
 C2167 C 0.38431 0.61520 0.72782
 C2168 C 0.39374 0.60569 0.75018
 C2169 C 1.11667 0.88427 0.72799
 C2170 C 1.10697 0.89376 0.75025
 C2171 C 1.11639 0.38453 0.22778
 C2172 C 1.10674 0.39398 0.25007
 C2173 C 0.61616 0.88377 0.22765
 C2174 C 0.60650 0.89336 0.24990
 C2175 C 0.61639 0.38413 0.72813
 C2176 C 0.60664 0.39359 0.75038
 C2177 C 1.27176 1.11575 1.11658
 C2178 C 1.24949 1.10628 1.10694
 C2179 C 1.27213 0.61536 0.61534
 C2180 C 1.24980 0.60588 0.60586
 C2181 C 0.77214 1.11664 0.61719
 C2182 C 0.74996 1.10708 0.60736
 C2183 C 0.77213 0.61551 1.11556
 C2184 C 0.74976 0.60603 1.10618
 C2185 C 1.27189 0.88344 0.88371
 C2186 C 1.24964 0.89302 0.89335
 C2187 C 1.27216 0.38371 0.38299
 C2188 C 1.24992 0.39326 0.39270
 C2189 C 0.77187 0.88430 0.38328
 C2190 C 0.74958 0.89379 0.39289
 C2191 C 0.77175 0.38409 0.88363
 C2192 C 0.74949 0.39355 0.89336
 C2193 C 0.72807 0.88438 1.11663
 C2194 C 0.75033 0.89394 1.10701
 C2195 C 0.72784 0.38346 0.61656
 C2196 C 0.75010 0.39305 0.60693
 C2197 C 0.22810 0.88333 0.61647
 C2198 C 0.25035 0.89294 0.60686
 C2199 C 0.22796 0.38355 1.11647
 C2200 C 0.25028 0.39311 1.10698
 C2201 C 0.72820 1.11700 0.88332
 C2202 C 0.75046 1.10744 0.89298
 C2203 C 0.72819 0.61577 0.38326
 C2204 C 0.75048 0.60630 0.39290
 C2205 C 0.22802 1.11660 0.38275
 C2206 C 0.25023 1.10708 0.39256
 C2207 C 0.22796 0.61630 0.88350
 C2208 C 0.25018 0.60663 0.89312
 C2209 C 1.11635 1.27230 1.11550
 C2210 C 1.10663 1.25004 1.10609
 C2211 C 1.11658 0.77195 0.61578
 C2212 C 1.10683 0.74972 0.60632
 C2213 C 0.61651 1.27199 0.61566
 C2214 C 0.60684 1.24976 0.60614
 C2215 C 0.61567 0.77208 1.11654
 C2216 C 0.60610 0.74983 1.10695
 C2217 C 0.88441 1.27213 0.88353
 C2218 C 0.89399 1.24989 0.89317
 C2219 C 0.88425 0.77207 0.38341
 C2220 C 0.89375 0.74981 0.39308
 C2221 C 0.38353 1.27234 0.38399
 C2222 C 0.39316 1.25012 0.39360
 C2223 C 0.38320 0.77191 0.88449
 C2224 C 0.39287 0.74965 0.89399
 C2225 C 1.11657 0.72791 0.88415
 C2226 C 1.10681 0.75014 0.89362
 C2227 C 1.11668 0.22794 0.38359
 C2228 C 1.10705 0.25014 0.39326
 C2229 C 0.61575 0.72794 0.38356
 C2230 C 0.60624 0.75019 0.39320
 C2231 C 0.61647 0.22814 0.88430
 C2232 C 0.60671 0.25033 0.89385
 C2233 C 0.88448 0.72785 1.11531
 C2234 C 0.89396 0.75021 1.10590
 C2235 C 0.88339 0.22808 0.61639
 C2236 C 0.89306 0.25027 0.60674
 C2237 C 0.38447 0.72766 0.61550
 C2238 C 0.39394 0.74999 0.60601
 C2239 C 0.38437 0.22775 1.11655
 C2240 C 0.39393 0.25001 1.10698
 C2241 C 1.11633 1.11621 0.72754
 C2242 C 1.10686 1.10657 0.74985
 C2243 C 1.11654 0.61728 0.22789
 C2244 C 1.10708 0.60745 0.25012
 C2245 C 0.61540 1.11649 0.22778
 C2246 C 0.60582 1.10682 0.25001
 C2247 C 0.61545 0.61574 0.72797
 C2248 C 0.60590 0.60626 0.75029
 C2249 C 0.88446 0.88452 0.72786
 C2250 C 0.89395 0.89406 0.75018
 C2251 C 0.88462 0.38352 0.22790
 C2252 C 0.89415 0.39320 0.25014
 C2253 C 0.38415 0.88362 0.22786
 C2254 C 0.39357 0.89340 0.25011
 C2255 C 0.38316 0.38221 0.72824
 C2256 C 0.39270 0.39204 0.75044
 C2257 C 1.11624 0.88299 1.27252
 C2258 C 1.10668 0.89275 1.25031
 C2259 C 1.11587 0.38327 0.77195
 C2260 C 1.10638 0.39299 0.74969
 C2261 C 0.61551 0.88457 0.77204
 C2262 C 0.60602 0.89408 0.74970
 C2263 C 0.61609 0.38389 1.27286
 C2264 C 0.60649 0.39351 1.25060
 C2265 C 0.88409 1.11639 1.27260
 C2266 C 0.89370 1.10681 1.25033
 C2267 C 0.88410 0.61587 0.77192
 C2268 C 0.89366 0.60629 0.74964
 C2269 C 0.38424 1.11656 0.77178
 C2270 C 0.39366 1.10685 0.74949
 C2271 C 0.38355 0.61708 1.27242
 C2272 C 0.39302 0.60722 1.25021
 C2273 C 1.11654 1.27172 0.88338
 C2274 C 1.10695 1.24945 0.89296
 C2275 C 1.11654 0.77232 0.38293
 C2276 C 1.10701 0.75008 0.39265
 C2277 C 0.61571 1.27197 0.38383
 C2278 C 0.60624 1.24967 0.39342
 C2279 C 0.61544 0.77219 0.88442
 C2280 C 0.60588 0.74989 0.89392
 C2281 C 0.88362 1.27210 1.11650
 C2282 C 0.89330 1.24985 1.10695
 C2283 C 0.88453 0.77203 0.61559
 C2284 C 0.89401 0.74971 0.60607
 C2285 C 0.38323 1.27174 0.61751
 C2286 C 0.39278 1.24956 0.60763
 C2287 C 0.38307 0.77184 1.11667
 C2288 C 0.39262 0.74953 1.10710
 C2289 C 0.88396 0.72840 0.88416
 C2290 C 0.89351 0.75069 0.89369
 C2291 C 0.88443 0.22801 0.38380
 C2292 C 0.89392 0.25028 0.39342
 C2293 C 0.38348 0.72800 0.38266
 C2294 C 0.39299 0.75024 0.39240
 C2295 C 0.38359 0.22774 0.88362
 C2296 C 0.39315 0.24998 0.89330
 C2297 C 1.11661 0.72803 1.11747
 C2298 C 1.10704 0.75026 1.10773
 C2299 C 1.11556 0.22800 0.61626
 C2300 C 1.10618 0.25030 0.60658
 C2301 C 0.61556 0.72805 0.61553
 C2302 C 0.60607 0.75037 0.60602
 C2303 C 0.61643 0.22812 1.11662
 C2304 C 0.60677 0.25040 1.10713
 C2305 C 1.27227 1.11627 0.88443
 C2306 C 1.25004 1.10657 0.89394
 C2307 C 1.27223 0.61654 0.38376
 C2308 C 1.25002 0.60686 0.39334
 C2309 C 0.77218 1.11564 0.38352
 C2310 C 0.74988 1.10613 0.39308
 C2311 C 0.77164 0.61602 0.88427
 C2312 C 0.74936 0.60647 0.89382
 C2313 C 1.27185 0.88355 1.11573
 C2314 C 1.24959 0.89329 1.10634
 C2315 C 1.27203 0.38325 0.61661
 C2316 C 1.24988 0.39295 0.60688
 C2317 C 0.77224 0.88440 0.61535
 C2318 C 0.74993 0.89390 0.60582
 C2319 C 0.77189 0.38340 1.11608
 C2320 C 0.74962 0.39314 1.10670
 C2321 C 0.72820 1.11692 1.11590
 C2322 C 0.75048 1.10724 1.10646
 C2323 C 0.72785 0.61565 0.61553
 C2324 C 0.75015 0.60615 0.60599
 C2325 C 0.22747 1.11539 0.61588
 C2326 C 0.24974 1.10592 0.60623
 C2327 C 0.22776 0.61630 1.11648
 C2328 C 0.24994 0.60652 1.10692
 C2329 C 0.72779 0.88461 0.88446
 C2330 C 0.75008 0.89418 0.89394
 C2331 C 0.72795 0.38434 0.38378
 C2332 C 0.75025 0.39383 0.39334
 C2333 C 0.22781 0.88375 0.38368
 C2334 C 0.25002 0.89340 0.39327
 C2335 C 0.22793 0.38312 0.88451
 C2336 C 0.25015 0.39281 0.89405
   
