data_POSCAR
  _audit_creation_date              2014-09-24
  _audit_creation_method            'ToBaCCo'
  _symmetry_space_group_name_H-M    'P1'
  _symmetry_Int_Tables_number       1
  _symmetry_cell_setting            triclinic
  loop_
  _symmetry_equiv_pos_as_xyz
 x,y,z
_cell_length_a 105.8495
_cell_length_b 105.7889
_cell_length_c 105.8404
_cell_angle_alpha 90.054900
_cell_angle_beta 90.032000
_cell_angle_gamma 90.030300
loop_
  _atom_site_label
  _atom_site_type_symbol
  _atom_site_fract_x
  _atom_site_fract_y
  _atom_site_fract_z
N1 N 0.31398 0.42739 0.90121
 N2 N 0.32297 0.43595 0.90107
 C3 C 0.32079 0.44406 0.89152
 C4 C 0.30982 0.44042 0.88531
 C5 C 0.30580 0.42976 0.89177
 H6 H 0.32670 0.45210 0.88936
 H7 H 0.29743 0.42421 0.88992
 Cu8 Cu 0.33643 0.43596 0.91363
 Cu9 Cu 0.31320 0.41414 0.91392
 Cu10 Cu 0.33643 0.41427 0.93695
 N11 N 0.34907 0.43613 0.92703
 N12 N 0.34907 0.42759 0.93602
 C13 C 0.35854 0.43006 0.94413
 C14 C 0.36490 0.44082 0.94009
 C15 C 0.35856 0.44436 0.92914
 H16 H 0.36045 0.42449 0.95247
 H17 H 0.36054 0.45239 0.92318
 N18 N 0.32284 0.40156 0.93633
 N19 N 0.31399 0.40152 0.92756
 C20 C 0.30582 0.39206 0.92998
 C21 C 0.30967 0.38583 0.94084
 C22 C 0.32054 0.39214 0.94455
 H23 H 0.29754 0.39004 0.92437
 H24 H 0.32625 0.39019 0.95278
 H25 H 0.32243 0.42438 0.92780
 H26 H 0.33232 0.41364 0.91787
 N27 N 0.42746 0.84927 0.43607
 N28 N 0.43634 0.84907 0.42742
 C29 C 0.44443 0.85867 0.42957
 C30 C 0.44046 0.86527 0.44023
 C31 C 0.42959 0.85896 0.44404
 H32 H 0.45268 0.86055 0.42387
 H33 H 0.42371 0.86105 0.45210
 Cu34 Cu 0.43663 0.83602 0.41442
 Cu35 Cu 0.41412 0.83661 0.43680
 Cu36 Cu 0.41415 0.81356 0.41349
 N37 N 0.43642 0.82314 0.40125
 N38 N 0.42753 0.81449 0.40089
 C39 C 0.42970 0.80665 0.39112
 C40 C 0.44058 0.81055 0.38495
 C41 C 0.44456 0.82109 0.39169
 H42 H 0.42387 0.79857 0.38885
 H43 H 0.45286 0.82675 0.38990
 N44 N 0.40144 0.81421 0.42709
 N45 N 0.40144 0.82298 0.43596
 C46 C 0.39203 0.82053 0.44416
 C47 C 0.38580 0.80965 0.44034
 C48 C 0.39204 0.80596 0.42943
 H49 H 0.39007 0.82612 0.45247
 H50 H 0.39009 0.79771 0.42374
 H51 H 0.42403 0.82226 0.42794
 H52 H 0.41411 0.83263 0.41767
 N53 N 0.92689 0.90094 0.81443
 N54 N 0.93550 0.90089 0.82337
 C55 C 0.94368 0.89140 0.82116
 C56 C 0.94003 0.88512 0.81023
 C57 C 0.92929 0.89150 0.80625
 H58 H 0.95177 0.88932 0.82702
 H59 H 0.92372 0.88959 0.79791
 Cu60 Cu 0.93546 0.91346 0.83683
 Cu61 Cu 0.91351 0.91353 0.81373
 Cu62 Cu 0.91357 0.93660 0.83695
 N63 N 0.93556 0.92684 0.84949
 N64 N 0.92697 0.93579 0.84952
 C65 C 0.92939 0.94389 0.85902
 C66 C 0.94015 0.93988 0.86538
 C67 C 0.94376 0.92896 0.85899
 H68 H 0.92377 0.95218 0.86096
 H69 H 0.95182 0.92303 0.86098
 N70 N 0.90078 0.93585 0.82344
 N71 N 0.90076 0.92706 0.81460
 C72 C 0.89117 0.92932 0.80654
 C73 C 0.88482 0.94009 0.81045
 C74 C 0.89121 0.94393 0.82124
 H75 H 0.88913 0.92363 0.79831
 H76 H 0.88919 0.95214 0.82697
 H77 H 0.92365 0.92753 0.82288
 H78 H 0.91308 0.91751 0.83284
 N79 N 0.42677 -0.09906 0.31396
 N80 N 0.43572 -0.09878 0.32257
 C81 C 0.44387 -0.10830 0.32037
 C82 C 0.43987 -0.11490 0.30976
 C83 C 0.42894 -0.10872 0.30599
 H84 H 0.45219 -0.11014 0.32597
 H85 H 0.42308 -0.11091 0.29791
 Cu86 Cu 0.43603 -0.08573 0.33553
 Cu87 Cu 0.41334 -0.08651 0.31331
 Cu88 Cu 0.41349 -0.06340 0.33657
 N89 N 0.43589 -0.07285 0.34866
 N90 N 0.42699 -0.06421 0.34904
 C91 C 0.42923 -0.05632 0.35876
 C92 C 0.44015 -0.06020 0.36488
 C93 C 0.44408 -0.07077 0.35817
 H94 H 0.42341 -0.04826 0.36104
 H95 H 0.45237 -0.07644 0.35996
 N96 N 0.40065 -0.06419 0.32311
 N97 N 0.40060 -0.07298 0.31426
 C98 C 0.39104 -0.07066 0.30620
 C99 C 0.38475 -0.05985 0.31011
 C100 C 0.39113 -0.05605 0.32090
 H101 H 0.38899 -0.07630 0.29794
 H102 H 0.38918 -0.04782 0.32661
 H103 H 0.42324 -0.07212 0.32206
 H104 H 0.41347 -0.08252 0.33244
 N105 N 0.81369 0.32275 0.34851
 N106 N 0.82260 0.31413 0.34857
 C107 C 0.82025 0.30581 0.35790
 C108 C 0.80924 0.30939 0.36405
 C109 C 0.80538 0.32023 0.35778
 H110 H 0.82605 0.29766 0.35992
 H111 H 0.79702 0.32578 0.35964
 Cu112 Cu 0.83621 0.31424 0.33619
 Cu113 Cu 0.81311 0.33622 0.33604
 Cu114 Cu 0.83642 0.33621 0.31312
 N115 N 0.84887 0.31417 0.32284
 N116 N 0.84893 0.32278 0.31391
 C117 C 0.85841 0.32033 0.30582
 C118 C 0.86469 0.30955 0.30984
 C119 C 0.85833 0.30593 0.32071
 H120 H 0.86041 0.32590 0.29751
 H121 H 0.86031 0.29782 0.32657
 N122 N 0.82296 0.34903 0.31386
 N123 N 0.81410 0.34906 0.32261
 C124 C 0.80608 0.35866 0.32033
 C125 C 0.81003 0.36503 0.30959
 C126 C 0.82081 0.35863 0.30579
 H127 H 0.79783 0.36071 0.32598
 H128 H 0.82657 0.36064 0.29762
 H129 H 0.82230 0.32605 0.32211
 H130 H 0.83223 0.33662 0.33221
 N131 N -0.17733 0.84929 0.81355
 N132 N -0.18625 0.84902 0.82216
 C133 C -0.19441 0.85855 0.81999
 C134 C -0.19041 0.86521 0.80939
 C135 C -0.17947 0.85899 0.80562
 H136 H -0.20270 0.86035 0.82564
 H137 H -0.17353 0.86117 0.79762
 Cu138 Cu -0.18650 0.83591 0.83507
 Cu139 Cu -0.16383 0.83677 0.81291
 Cu140 Cu -0.16404 0.81354 0.83604
 N141 N -0.18656 0.82287 0.84805
 N142 N -0.17767 0.81421 0.84839
 C143 C -0.18005 0.80617 0.85794
 C144 C -0.19107 0.80992 0.86395
 C145 C -0.19491 0.82060 0.85738
 H146 H -0.17425 0.79807 0.86016
 H147 H -0.20325 0.82621 0.85911
 N148 N -0.15107 0.81446 0.82270
 N149 N -0.15101 0.82326 0.81388
 C150 C -0.14135 0.82102 0.80590
 C151 C -0.13501 0.81026 0.80984
 C152 C -0.14146 0.80640 0.82056
 H153 H -0.13926 0.82671 0.79769
 H154 H -0.13948 0.79820 0.82628
 H155 H -0.17374 0.82231 0.82154
 H156 H -0.16393 0.83262 0.83196
 N157 N 0.93621 0.34918 0.42747
 N158 N 0.92751 0.34888 0.43630
 C159 C 0.92959 0.35841 0.44450
 C160 C 0.94022 0.36510 0.44062
 C161 C 0.94409 0.35891 0.42969
 H162 H 0.92389 0.36014 0.45278
 H163 H 0.95211 0.36115 0.42381
 Cu164 Cu 0.91468 0.33569 0.43643
 Cu165 Cu 0.93703 0.33666 0.41397
 Cu166 Cu 0.91401 0.31331 0.41391
 N167 N 0.90178 0.32258 0.43634
 N168 N 0.90154 0.31392 0.42744
 C169 C 0.89203 0.30581 0.42974
 C170 C 0.88596 0.30949 0.44076
 C171 C 0.89244 0.32022 0.44466
 H172 H 0.88985 0.29773 0.42389
 H173 H 0.89068 0.32576 0.45305
 N174 N 0.92748 0.31431 0.40108
 N175 N 0.93626 0.32316 0.40113
 C176 C 0.94436 0.32097 0.39157
 C177 C 0.94055 0.31018 0.38517
 C178 C 0.92977 0.30626 0.39149
 H179 H 0.95256 0.32670 0.38958
 H180 H 0.92411 0.29801 0.38944
 H181 H 0.91802 0.33239 0.41387
 H182 H 0.92838 0.32214 0.42378
 N183 N 0.43570 0.42677 0.84882
 N184 N 0.42666 0.43526 0.84900
 C185 C 0.42886 0.44346 0.85849
 C186 C 0.43989 0.43992 0.86464
 C187 C 0.44392 0.42924 0.85820
 H188 H 0.42294 0.45149 0.86063
 H189 H 0.45229 0.42371 0.86006
 Cu190 Cu 0.41312 0.43517 0.83653
 Cu191 Cu 0.43641 0.41342 0.83621
 Cu192 Cu 0.41328 0.41349 0.81310
 N193 N 0.40062 0.43534 0.82302
 N194 N 0.40072 0.42688 0.81393
 C195 C 0.39134 0.42944 0.80574
 C196 C 0.38499 0.44014 0.80985
 C197 C 0.39118 0.44360 0.82088
 H198 H 0.38944 0.42397 0.79732
 H199 H 0.38910 0.45162 0.82685
 N200 N 0.42678 0.40071 0.81385
 N201 N 0.43558 0.40069 0.82267
 C202 C 0.44363 0.39110 0.82043
 C203 C 0.43975 0.38473 0.80965
 C204 C 0.42900 0.39112 0.80577
 H205 H 0.45182 0.38904 0.82615
 H206 H 0.42329 0.38909 0.79756
 H207 H 0.42717 0.42372 0.82234
 H208 H 0.41728 0.41288 0.83220
 N209 N 0.81393 0.90137 0.92720
 N210 N 0.82258 0.90176 0.93609
 C211 C 0.82035 0.89244 0.94445
 C212 C 0.80968 0.88583 0.94064
 C213 C 0.80590 0.89180 0.92960
 H214 H 0.82597 0.89075 0.95280
 H215 H 0.79778 0.88956 0.92384
 Cu216 Cu 0.83561 0.91474 0.93604
 Cu217 Cu 0.81319 0.91374 0.91359
 Cu218 Cu 0.83647 0.93685 0.91332
 N219 N 0.84872 0.92763 0.93573
 N220 N 0.84904 0.93619 0.92675
 C221 C 0.85877 0.94410 0.92887
 C222 C 0.86494 0.94034 0.93980
 C223 C 0.85827 0.92981 0.94387
 H224 H 0.86102 0.95210 0.92295
 H225 H 0.86009 0.92424 0.95222
 N226 N 0.82290 0.93592 0.90058
 N227 N 0.81406 0.92713 0.90067
 C228 C 0.80592 0.92936 0.89115
 C229 C 0.80976 0.94012 0.88474
 C230 C 0.82060 0.94398 0.89101
 H231 H 0.79764 0.92371 0.88923
 H232 H 0.82628 0.95220 0.88895
 H233 H 0.83226 0.91778 0.91347
 H234 H 0.82200 0.92826 0.92326
 N235 N 0.31320 0.84784 0.32169
 N236 N 0.32250 0.84825 0.31351
 C237 C 0.32100 0.85844 0.30604
 C238 C 0.31010 0.86474 0.30970
 C239 C 0.30544 0.85770 0.31971
 H240 H 0.32726 0.86091 0.29838
 H241 H 0.29687 0.85937 0.32500
 Cu242 Cu 0.33528 0.83504 0.31291
 Cu243 Cu 0.31131 0.83409 0.33368
 Cu244 Cu 0.33665 0.81355 0.33643
 N245 N 0.34859 0.82241 0.31373
 N246 N 0.34927 0.81428 0.32307
 C247 C 0.35917 0.80655 0.32116
 C248 C 0.36507 0.80997 0.30997
 C249 C 0.35807 0.82013 0.30556
 H250 H 0.36167 0.79882 0.32734
 H251 H 0.35959 0.82535 0.29693
 N252 N 0.32266 0.81413 0.34869
 N253 N 0.31288 0.82173 0.34744
 C254 C 0.30454 0.81932 0.35673
 C255 C 0.30922 0.80963 0.36417
 C256 C 0.32077 0.80662 0.35878
 H257 H 0.29559 0.82410 0.35778
 H258 H 0.32722 0.79931 0.36178
 H259 H 0.33064 0.83225 0.33523
 H260 H 0.32253 0.82016 0.32520
 N261 N 0.81375 0.40128 0.42734
 N262 N 0.82245 0.40163 0.43619
 C263 C 0.82023 0.39230 0.44454
 C264 C 0.80953 0.38572 0.44076
 C265 C 0.80574 0.39171 0.42973
 H266 H 0.82587 0.39059 0.45288
 H267 H 0.79763 0.38945 0.42395
 Cu268 Cu 0.83546 0.41463 0.43616
 Cu269 Cu 0.81303 0.41364 0.41372
 Cu270 Cu 0.83626 0.43678 0.41348
 N271 N 0.84855 0.42754 0.43587
 N272 N 0.84881 0.43615 0.42694
 C273 C 0.85853 0.44408 0.42906
 C274 C 0.86472 0.44030 0.43998
 C275 C 0.85810 0.42972 0.44400
 H276 H 0.86077 0.45208 0.42314
 H277 H 0.85995 0.42412 0.45232
 N278 N 0.82274 0.43582 0.40072
 N279 N 0.81392 0.42701 0.40078
 C280 C 0.80580 0.42922 0.39123
 C281 C 0.80966 0.43997 0.38482
 C282 C 0.82047 0.44385 0.39112
 H283 H 0.79755 0.42354 0.38928
 H284 H 0.82615 0.45207 0.38907
 H285 H 0.83213 0.41767 0.41358
 H286 H 0.82185 0.42811 0.42341
 N287 N 0.92690 0.84888 -0.06418
 N288 N 0.93629 0.84814 -0.07226
 C289 C 0.94451 0.85757 -0.06993
 C290 C 0.94010 0.86460 -0.05979
 C291 C 0.92885 0.85877 -0.05643
 H292 H 0.95320 0.85901 -0.07508
 H293 H 0.92265 0.86131 -0.04873
 Cu294 Cu 0.93714 0.83482 -0.08487
 Cu295 Cu 0.91350 0.83630 -0.06350
 Cu296 Cu 0.91622 0.81094 -0.08408
 N297 N 0.93637 0.82218 -0.09820
 N298 N 0.92815 0.81289 -0.09786
 C299 C 0.93009 0.80519 -0.10779
 C300 C 0.94012 0.80988 -0.11480
 C301 C 0.94381 0.82073 -0.10840
 H302 H 0.92478 0.79664 -0.10952
 H303 H 0.95151 0.82699 -0.11082
 N304 N 0.90246 0.81251 -0.07173
 N305 N 0.90122 0.82231 -0.06413
 C306 C 0.89113 0.82041 -0.05661
 C307 C 0.88574 0.80885 -0.05962
 C308 C 0.89318 0.80416 -0.06932
 H309 H 0.88813 0.82686 -0.04929
 H310 H 0.89213 0.79519 -0.07409
 H311 H 0.92468 0.82212 -0.07008
 H312 H 0.91478 0.83028 -0.08221
 N313 N 0.31421 0.34892 0.82266
 N314 N 0.32291 0.34860 0.81382
 C315 C 0.32087 0.35815 0.80567
 C316 C 0.31029 0.36483 0.80957
 C317 C 0.30635 0.35865 0.82043
 H318 H 0.32658 0.35998 0.79741
 H319 H 0.29826 0.36090 0.82623
 Cu320 Cu 0.33580 0.33546 0.81369
 Cu321 Cu 0.31329 0.33635 0.83606
 Cu322 Cu 0.33637 0.31310 0.83622
 N323 N 0.34883 0.32248 0.81399
 N324 N 0.34903 0.31384 0.82289
 C325 C 0.35870 0.30588 0.82076
 C326 C 0.36496 0.30968 0.80990
 C327 C 0.35840 0.32030 0.80589
 H328 H 0.36085 0.29780 0.82661
 H329 H 0.36031 0.32593 0.79761
 N330 N 0.32274 0.31395 0.84887
 N331 N 0.31396 0.32279 0.84881
 C332 C 0.30570 0.32047 0.85820
 C333 C 0.30941 0.30961 0.86450
 C334 C 0.32030 0.30578 0.85830
 H335 H 0.29744 0.32614 0.86011
 H336 H 0.32590 0.29750 0.86031
 H337 H 0.33237 0.33222 0.83622
 H338 H 0.32206 0.32190 0.82626
 N339 N 0.15177 0.57260 0.56340
 N340 N 0.15168 0.56401 0.57234
 C341 C 0.14234 0.55568 0.56999
 C342 C 0.13619 0.55924 0.55897
 C343 C 0.14247 0.57007 0.55509
 H344 H 0.14032 0.54754 0.57580
 H345 H 0.14059 0.57563 0.54675
 Cu346 Cu 0.16407 0.56411 0.58597
 Cu347 Cu 0.16422 0.58610 0.56285
 Cu348 Cu 0.18733 0.58599 0.58596
 N349 N 0.17769 0.56389 0.59836
 N350 N 0.18669 0.57243 0.59833
 C351 C 0.19498 0.56981 0.60761
 C352 C 0.19103 0.55897 0.61382
 C353 C 0.17998 0.55550 0.60765
 H354 H 0.20336 0.57532 0.60952
 H355 H 0.17412 0.54738 0.60962
 N356 N 0.18643 0.59894 0.57264
 N357 N 0.17762 0.59899 0.56384
 C358 C 0.17980 0.60867 0.55588
 C359 C 0.19055 0.61505 0.55982
 C360 C 0.19445 0.60859 0.57052
 H361 H 0.17408 0.61075 0.54769
 H362 H 0.20266 0.61060 0.57625
 H363 H 0.17815 0.57578 0.57198
 H364 H 0.16823 0.58648 0.58197
 N365 N 0.59902 0.67727 0.06395
 N366 N 0.59882 0.68612 0.07264
 C367 C 0.60824 0.69438 0.07039
 C368 C 0.61474 0.69050 0.05969
 C369 C 0.60858 0.67956 0.05589
 H370 H 0.61005 0.70270 0.07603
 H371 H 0.61071 0.67377 0.04776
 Cu372 Cu 0.58609 0.68627 0.08588
 Cu373 Cu 0.58636 0.66393 0.06308
 Cu374 Cu 0.56122 0.66662 0.08379
 N375 N 0.57248 0.68660 0.09824
 N376 N 0.56284 0.67885 0.09740
 C377 C 0.55462 0.68137 0.10675
 C378 C 0.55932 0.69132 0.11388
 C379 C 0.57072 0.69437 0.10817
 H380 H 0.54576 0.67646 0.10805
 H381 H 0.57716 0.70181 0.11089
 N382 N 0.56259 0.65291 0.07131
 N383 N 0.57230 0.65173 0.06359
 C384 C 0.57034 0.64168 0.05602
 C385 C 0.55883 0.63624 0.05911
 C386 C 0.55424 0.64362 0.06891
 H387 H 0.57673 0.63872 0.04865
 H388 H 0.54535 0.64250 0.07378
 H389 H 0.57281 0.67553 0.07042
 H390 H 0.58046 0.66435 0.08181
 N391 N 0.67836 0.18739 0.65221
 N392 N 0.68662 0.17815 0.65174
 C393 C 0.69402 0.17973 0.64152
 C394 C 0.69024 0.19061 0.63525
 C395 C 0.68023 0.19518 0.64236
 H396 H 0.70172 0.17354 0.63899
 H397 H 0.67485 0.20371 0.64073
 Cu398 Cu 0.68738 0.16538 0.66494
 Cu399 Cu 0.66641 0.18914 0.66603
 Cu400 Cu 0.66414 0.16380 0.68667
 N401 N 0.68702 0.15220 0.67773
 N402 N 0.67778 0.15147 0.68597
 C403 C 0.67998 0.14174 0.69384
 C404 C 0.69125 0.13602 0.69039
 C405 C 0.69541 0.14294 0.68007
 H406 H 0.67393 0.13924 0.70166
 H407 H 0.70403 0.14152 0.67480
 N408 N 0.65169 0.17764 0.68612
 N409 N 0.65275 0.18742 0.67849
 C410 C 0.64336 0.19563 0.68095
 C411 C 0.63604 0.19086 0.69070
 C412 C 0.64162 0.17940 0.69369
 H413 H 0.64213 0.20456 0.67616
 H414 H 0.63876 0.17291 0.70103
 H415 H 0.67514 0.17804 0.67991
 H416 H 0.66505 0.16981 0.66795
 N417 N 1.09806 0.07178 0.18710
 N418 N 1.09781 0.06286 0.17847
 C419 C 1.10720 0.05459 0.18077
 C420 C 1.11371 0.05852 0.19147
 C421 C 1.10761 0.06951 0.19518
 H422 H 1.10900 0.04623 0.17521
 H423 H 1.10974 0.07534 0.20329
 Cu424 Cu 1.08481 0.06269 0.16546
 Cu425 Cu 1.08553 0.08525 0.18775
 Cu426 Cu 1.06239 0.08507 0.16450
 N427 N 1.07185 0.06264 0.15242
 N428 N 1.06317 0.07150 0.15207
 C429 C 1.05514 0.06909 0.14251
 C430 C 1.05893 0.05807 0.13651
 C431 C 1.06962 0.05427 0.14308
 H432 H 1.04701 0.07485 0.14031
 H433 H 1.07523 0.04592 0.14137
 N434 N 1.06321 0.09796 0.17795
 N435 N 1.07200 0.09802 0.18679
 C436 C 1.06960 0.10751 0.19493
 C437 C 1.05874 0.11374 0.19109
 C438 C 1.05501 0.10741 0.18024
 H439 H 1.07520 0.10951 0.20323
 H440 H 1.04674 0.10931 0.17457
 H441 H 1.07113 0.07534 0.17900
 H442 H 1.08144 0.08524 0.16868
 N443 N 0.07254 0.15137 1.06364
 N444 N 0.06365 0.15175 1.07229
 C445 C 0.05529 0.14241 1.07004
 C446 C 0.05912 0.13580 1.05938
 C447 C 0.07015 0.14180 1.05562
 H448 H 0.04692 0.14073 1.07562
 H449 H 0.07592 0.13958 1.04749
 Cu450 Cu 0.06361 0.16487 1.08520
 Cu451 Cu 0.08615 0.16377 1.06295
 Cu452 Cu 0.08622 0.18711 1.08601
 N453 N 0.06374 0.17792 1.09817
 N454 N 0.07263 0.18657 1.09844
 C455 C 0.07029 0.19469 1.10794
 C456 C 0.05928 0.19098 1.11401
 C457 C 0.05542 0.18025 1.10751
 H458 H 0.07608 0.20283 1.11008
 H459 H 0.04706 0.17468 1.10927
 N460 N 0.09912 0.18603 1.07260
 N461 N 0.09909 0.17715 1.06384
 C462 C 0.10873 0.17926 1.05582
 C463 C 0.11516 0.19002 1.05964
 C464 C 0.10878 0.19402 1.07036
 H465 H 0.11074 0.17349 1.04764
 H466 H 0.11084 0.20227 1.07601
 H467 H 0.08616 0.16803 1.08199
 H468 H 0.07638 0.17835 1.07157
 N469 N 0.15162 0.68664 0.67771
 N470 N 0.15201 0.67802 0.68663
 C471 C 0.14266 0.68026 0.69496
 C472 C 0.13603 0.69088 0.69108
 C473 C 0.14202 0.69463 0.68005
 H474 H 0.14097 0.67470 0.70334
 H475 H 0.13976 0.70270 0.67422
 Cu476 Cu 0.16505 0.66508 0.68664
 Cu477 Cu 0.16399 0.68733 0.66410
 Cu478 Cu 0.18721 0.66418 0.66401
 N479 N 0.17805 0.65208 0.68654
 N480 N 0.18663 0.65175 0.67758
 C481 C 0.19467 0.64218 0.67986
 C482 C 0.19098 0.63614 0.69088
 C483 C 0.18035 0.64271 0.69482
 H484 H 0.20272 0.63996 0.67399
 H485 H 0.17482 0.64098 0.70322
 N486 N 0.18619 0.67761 0.65114
 N487 N 0.17737 0.68641 0.65118
 C488 C 0.17953 0.69447 0.64158
 C489 C 0.19028 0.69061 0.63517
 C490 C 0.19420 0.67985 0.64152
 H491 H 0.17383 0.70268 0.63959
 H492 H 0.20243 0.67417 0.63947
 H493 H 0.16814 0.66827 0.66407
 H494 H 0.17853 0.67866 0.67385
 N495 N 1.17761 0.15129 0.18613
 N496 N 1.18648 0.15161 0.17746
 C497 C 1.19478 0.14222 0.17967
 C498 C 1.19092 0.13563 0.19032
 C499 C 1.17994 0.14169 0.19412
 H500 H 1.20313 0.14049 0.17408
 H501 H 1.17416 0.13948 0.20223
 Cu502 Cu 1.18651 0.16462 0.16447
 Cu503 Cu 1.16414 0.16380 0.18695
 Cu504 Cu 1.16397 0.18694 0.16376
 N505 N 1.18623 0.17752 0.15137
 N506 N 1.17732 0.18616 0.15111
 C507 C 1.17945 0.19405 0.14138
 C508 C 1.19033 0.19021 0.13516
 C509 C 1.19435 0.17965 0.14181
 H510 H 1.17359 0.20210 0.13916
 H511 H 1.20267 0.17404 0.13998
 N512 N 1.15131 0.18614 0.17739
 N513 N 1.15136 0.17732 0.18619
 C514 C 1.14196 0.17967 0.19444
 C515 C 1.13568 0.19055 0.19072
 C516 C 1.14188 0.19434 0.17983
 H517 H 1.14005 0.17402 0.20271
 H518 H 1.13989 0.20261 0.17421
 H519 H 1.16399 0.16788 0.16789
 H520 H 1.17393 0.17824 0.17816
 N521 N 0.65257 1.06294 0.57135
 N522 N 0.65187 1.07247 0.56344
 C523 C 0.64189 1.07072 0.55574
 C524 C 0.63603 1.05943 0.55897
 C525 C 0.64310 1.05480 0.56896
 H526 H 0.63925 1.07708 0.54822
 H527 H 0.64175 1.04599 0.57394
 Cu528 Cu 0.66462 1.08575 0.56351
 Cu529 Cu 0.66623 1.06124 0.58351
 Cu530 Cu 0.68691 1.08649 0.58623
 N531 N 0.67752 1.09884 0.56391
 N532 N 0.68604 1.09919 0.57293
 C533 C 0.69403 1.10885 0.57075
 C534 C 0.69036 1.11493 0.55973
 C535 C 0.67980 1.10828 0.55569
 H536 H 0.70210 1.11102 0.57661
 H537 H 0.67431 1.11000 0.54726
 N538 N 0.68637 1.07243 0.59844
 N539 N 0.67867 1.06271 0.59724
 C540 C 0.68102 1.05438 0.60655
 C541 C 0.69078 1.05900 0.61396
 C542 C 0.69389 1.07051 0.60852
 H543 H 0.67616 1.04548 0.60764
 H544 H 0.70126 1.07692 0.61151
 H545 H 0.66821 1.08050 0.58556
 H546 H 0.67985 1.07266 0.57485
 N547 N 0.57218 0.56323 0.15175
 N548 N 0.56330 0.57190 0.15198
 C549 C 0.55504 0.56960 0.14257
 C550 C 0.55893 0.55888 0.13608
 C551 C 0.56989 0.55515 0.14221
 H552 H 0.54670 0.57518 0.14075
 H553 H 0.57568 0.54701 0.14009
 Cu554 Cu 0.56317 0.58492 0.16497
 Cu555 Cu 0.58563 0.56256 0.16432
 Cu556 Cu 0.58551 0.58581 0.18747
 N557 N 0.56316 0.59799 0.17793
 N558 N 0.57200 0.59831 0.18664
 C559 C 0.56962 0.60789 0.19466
 C560 C 0.55866 0.61395 0.19083
 C561 C 0.55486 0.60738 0.18012
 H562 H 0.57536 0.61007 0.20282
 H563 H 0.54654 0.60912 0.17447
 N564 N 0.59833 0.57232 0.18668
 N565 N 0.59837 0.56348 0.17787
 C566 C 0.60784 0.55533 0.18026
 C567 C 0.61407 0.55915 0.19114
 C568 C 0.60776 0.57000 0.19490
 H569 H 0.60983 0.54705 0.17464
 H570 H 0.60968 0.57566 0.20318
 H571 H 0.57573 0.57134 0.17868
 H572 H 0.58569 0.58164 0.16841
 N573 N 0.65195 0.67783 0.18640
 N574 N 0.65169 0.68628 0.17732
 C575 C 0.64228 0.69453 0.17962
 C576 C 0.63632 0.69111 0.19078
 C577 C 0.64275 0.68042 0.19477
 H578 H 0.64008 0.70253 0.17368
 H579 H 0.64109 0.67505 0.20328
 Cu580 Cu 0.66400 0.68611 0.16365
 Cu581 Cu 0.66455 0.66450 0.18709
 Cu582 Cu 0.68747 0.66450 0.16383
 N583 N 0.67742 0.68620 0.15106
 N584 N 0.68654 0.67779 0.15120
 C585 C 0.69469 0.68031 0.14179
 C586 C 0.69052 0.69092 0.13535
 C587 C 0.67948 0.69437 0.14153
 H588 H 0.70317 0.67493 0.13998
 H589 H 0.67346 0.70232 0.13937
 N590 N 0.68684 0.65180 0.17739
 N591 N 0.67808 0.65178 0.18624
 C592 C 0.68046 0.64230 0.19437
 C593 C 0.69128 0.63603 0.19051
 C594 C 0.69503 0.64234 0.17967
 H595 H 0.67484 0.64031 0.20265
 H596 H 0.70325 0.64036 0.17396
 H597 H 0.67827 0.67471 0.17768
 H598 H 0.66837 0.66382 0.16790
 N599 N 0.15169 0.07247 1.06339
 N600 N 0.15162 0.06384 1.07230
 C601 C 0.14229 0.05551 1.06992
 C602 C 0.13614 0.05911 1.05891
 C603 C 0.14241 0.06996 1.05508
 H604 H 0.14027 0.04735 1.07569
 H605 H 0.14054 0.07554 1.04674
 Cu606 Cu 0.16402 0.06387 1.08589
 Cu607 Cu 0.16417 0.08594 1.06287
 Cu608 Cu 0.18723 0.08577 1.08603
 N609 N 0.17756 0.06365 1.09834
 N610 N 0.18654 0.07221 1.09839
 C611 C 0.19478 0.06958 1.10770
 C612 C 0.19081 0.05872 1.11387
 C613 C 0.17981 0.05525 1.10763
 H614 H 0.20315 0.07509 1.10967
 H615 H 0.17395 0.04711 1.10955
 N616 N 0.18638 0.09872 1.07271
 N617 N 0.17759 0.09878 1.06388
 C618 C 0.17983 0.10843 1.05590
 C619 C 0.19060 0.11478 1.05984
 C620 C 0.19445 0.10833 1.07057
 H621 H 0.17415 0.11050 1.04768
 H622 H 0.20267 0.11032 1.07629
 H623 H 0.17810 0.07564 1.07197
 H624 H 0.16813 0.08626 1.08198
 N625 N 0.59880 0.18646 0.57220
 N626 N 0.59847 0.17777 0.56334
 C627 C 0.60802 0.17980 0.55519
 C628 C 0.61473 0.19037 0.55915
 C629 C 0.60856 0.19430 0.57002
 H630 H 0.60983 0.17411 0.54691
 H631 H 0.61082 0.20238 0.57584
 Cu632 Cu 0.58526 0.16495 0.56314
 Cu633 Cu 0.58623 0.18738 0.58560
 Cu634 Cu 0.56288 0.16437 0.58561
 N635 N 0.57218 0.15201 0.56327
 N636 N 0.56354 0.15180 0.57217
 C637 C 0.55543 0.14228 0.56988
 C638 C 0.55913 0.13614 0.55891
 C639 C 0.56985 0.14261 0.55500
 H640 H 0.54730 0.14019 0.57568
 H641 H 0.57541 0.14078 0.54665
 N642 N 0.56381 0.17792 0.59835
 N643 N 0.57266 0.18670 0.59833
 C644 C 0.57032 0.19495 0.60773
 C645 C 0.55944 0.19124 0.61400
 C646 C 0.55562 0.18036 0.60777
 H647 H 0.57599 0.20322 0.60967
 H648 H 0.54732 0.17476 0.60973
 H649 H 0.58200 0.16833 0.58567
 H650 H 0.57175 0.17870 0.57574
 N651 N 0.09831 0.57225 0.68684
 N652 N 0.09809 0.56335 0.67818
 C653 C 0.10750 0.55510 0.68046
 C654 C 0.11400 0.55901 0.69117
 C655 C 0.10787 0.56998 0.69491
 H656 H 0.10931 0.54675 0.67488
 H657 H 0.10998 0.57578 0.70305
 Cu658 Cu 0.08510 0.56318 0.66517
 Cu659 Cu 0.08574 0.58569 0.68752
 Cu660 Cu 0.06261 0.58551 0.66427
 N661 N 0.07215 0.56314 0.65212
 N662 N 0.06344 0.57198 0.65179
 C663 C 0.05543 0.56957 0.64222
 C664 C 0.05926 0.55859 0.63618
 C665 C 0.06996 0.55480 0.64275
 H666 H 0.04727 0.57530 0.64003
 H667 H 0.07559 0.54648 0.64101
 N668 N 0.06338 0.59836 0.67775
 N669 N 0.07217 0.59843 0.68659
 C670 C 0.06977 0.60792 0.69473
 C671 C 0.05890 0.61413 0.69089
 C672 C 0.05516 0.60779 0.68004
 H673 H 0.07537 0.60994 0.70302
 H674 H 0.04690 0.60969 0.67437
 H675 H 0.07139 0.57576 0.67874
 H676 H 0.08167 0.58572 0.66845
 N677 N 0.65152 0.56362 0.07202
 N678 N 0.65182 0.57231 0.06317
 C679 C 0.64245 0.57004 0.05485
 C680 C 0.63593 0.55931 0.05867
 C681 C 0.64201 0.55553 0.06964
 H682 H 0.64064 0.57568 0.04657
 H683 H 0.63985 0.54739 0.07540
 Cu684 Cu 0.66471 0.58544 0.06336
 Cu685 Cu 0.66401 0.56289 0.08556
 Cu686 Cu 0.68708 0.58621 0.08575
 N687 N 0.67763 0.59853 0.06344
 N688 N 0.68628 0.59883 0.07235
 C689 C 0.69420 0.60853 0.07018
 C690 C 0.69035 0.61473 0.05929
 C691 C 0.67976 0.60808 0.05531
 H692 H 0.70227 0.61076 0.07603
 H693 H 0.67410 0.60993 0.04704
 N694 N 0.68627 0.57261 0.09847
 N695 N 0.67748 0.56377 0.09841
 C696 C 0.67985 0.55555 0.10783
 C697 C 0.69070 0.55933 0.11413
 C698 C 0.69445 0.57024 0.10792
 H699 H 0.67425 0.54723 0.10972
 H700 H 0.70272 0.57587 0.10991
 H701 H 0.66806 0.58196 0.08582
 H702 H 0.67840 0.57178 0.07578
 N703 N 0.07260 0.68675 0.59836
 N704 N 0.06397 0.67783 0.59839
 C705 C 0.05566 0.68017 0.60775
 C706 C 0.05927 0.69116 0.61394
 C707 C 0.07011 0.69503 0.60769
 H708 H 0.04749 0.67438 0.60974
 H709 H 0.07571 0.70335 0.60960
 Cu710 Cu 0.06401 0.66427 0.58593
 Cu711 Cu 0.08605 0.68735 0.58587
 Cu712 Cu 0.08593 0.66420 0.56277
 N713 N 0.06384 0.65177 0.57241
 N714 N 0.07242 0.65175 0.56346
 C715 C 0.06985 0.64240 0.55523
 C716 C 0.05900 0.63618 0.55916
 C717 C 0.05548 0.64243 0.57015
 H718 H 0.07539 0.64044 0.54689
 H719 H 0.04734 0.64047 0.57598
 N720 N 0.09883 0.67759 0.56363
 N721 N 0.09887 0.68641 0.57244
 C722 C 0.10849 0.69444 0.57021
 C723 C 0.11483 0.69055 0.55943
 C724 C 0.10841 0.67979 0.55556
 H725 H 0.11054 0.70267 0.57590
 H726 H 0.11040 0.67408 0.54733
 H727 H 0.07579 0.67824 0.57190
 H728 H 0.08639 0.66823 0.58188
 N729 N 0.57100 1.06249 0.65253
 N730 N 0.56301 1.07195 0.65181
 C731 C 0.55523 1.07004 0.64191
 C732 C 0.55849 1.05873 0.63606
 C733 C 0.56864 1.05427 0.64311
 H734 H 0.54764 1.07636 0.63935
 H735 H 0.57382 1.04559 0.64175
 Cu736 Cu 0.56313 1.08555 0.66424
 Cu737 Cu 0.58330 1.06109 0.66610
 Cu738 Cu 0.58542 1.08610 0.68708
 N739 N 0.56306 1.09825 0.67757
 N740 N 0.57190 1.09855 0.68627
 C741 C 0.56943 1.10801 0.69441
 C742 C 0.55835 1.11402 0.69069
 C743 C 0.55464 1.10750 0.67989
 H744 H 0.57519 1.11010 0.70258
 H745 H 0.54633 1.10916 0.67421
 N746 N 0.59787 1.07226 0.68649
 N747 N 0.59692 1.06261 0.67866
 C748 C 0.60634 1.05440 0.68104
 C749 C 0.61356 1.05903 0.69095
 C750 C 0.60790 1.07042 0.69411
 H751 H 0.60764 1.04558 0.67608
 H752 H 0.61068 1.07679 0.70158
 H753 H 0.57411 1.07236 0.67957
 H754 H 0.58515 1.08038 0.66830
 N755 N 0.43634 0.34922 0.92735
 N756 N 0.42770 0.34889 0.93624
 C757 C 0.42981 0.35840 0.94444
 C758 C 0.44040 0.36512 0.94051
 C759 C 0.44423 0.35894 0.92956
 H760 H 0.42412 0.36015 0.95272
 H761 H 0.45225 0.36117 0.92365
 Cu762 Cu 0.41485 0.33572 0.93640
 Cu763 Cu 0.43707 0.33673 0.91380
 Cu764 Cu 0.41404 0.31337 0.91388
 N765 N 0.40194 0.32261 0.93639
 N766 N 0.40166 0.31395 0.92750
 C767 C 0.39216 0.30584 0.92984
 C768 C 0.38612 0.30955 0.94086
 C769 C 0.39261 0.32028 0.94473
 H770 H 0.39000 0.29772 0.92404
 H771 H 0.39084 0.32586 0.95308
 N772 N 0.42740 0.31439 0.90096
 N773 N 0.43619 0.32324 0.90094
 C774 C 0.44419 0.32106 0.89129
 C775 C 0.44031 0.31029 0.88490
 C776 C 0.42959 0.30636 0.89133
 H777 H 0.45238 0.32679 0.88923
 H778 H 0.42391 0.29813 0.88931
 H779 H 0.41805 0.33248 0.91382
 H780 H 0.42848 0.32221 0.92364
 N781 N 0.93589 0.42704 0.34957
 N782 N 0.92720 0.43590 0.34938
 C783 C 0.92936 0.44405 0.35892
 C784 C 0.94004 0.44014 0.36551
 C785 C 0.94386 0.42926 0.35923
 H786 H 0.92364 0.45228 0.36082
 H787 H 0.95201 0.42348 0.36126
 Cu788 Cu 0.91405 0.43594 0.33652
 Cu789 Cu 0.93655 0.41354 0.33705
 Cu790 Cu 0.91335 0.41363 0.31390
 N791 N 0.90115 0.43600 0.32340
 N792 N 0.90090 0.42716 0.31467
 C793 C 0.89122 0.42942 0.30673
 C794 C 0.88501 0.44027 0.31065
 C795 C 0.89162 0.44416 0.32129
 H796 H 0.88910 0.42371 0.29856
 H797 H 0.88971 0.45241 0.32701
 N798 N 0.92680 0.40077 0.31472
 N799 N 0.93562 0.40073 0.32353
 C800 C 0.94366 0.39114 0.32123
 C801 C 0.93976 0.38480 0.31044
 C802 C 0.92901 0.39122 0.30660
 H803 H 0.95190 0.38909 0.32689
 H804 H 0.92332 0.38925 0.29836
 H805 H 0.92769 0.42343 0.32277
 H806 H 0.91742 0.41340 0.33301
 N807 N 0.31472 0.92716 0.40081
 N808 N 0.32287 0.93650 0.40147
 C809 C 0.32059 0.94465 0.39197
 C810 C 0.31042 0.94022 0.38498
 C811 C 0.30698 0.92905 0.39091
 H812 H 0.32582 0.95328 0.39044
 H813 H 0.29925 0.92285 0.38842
 Cu814 Cu 0.33550 0.93734 0.41481
 Cu815 Cu 0.31398 0.91381 0.41345
 Cu816 Cu 0.33470 0.91642 0.43866
 N817 N 0.34868 0.93683 0.42764
 N818 N 0.34836 0.92855 0.43687
 C819 C 0.35821 0.93055 0.44464
 C820 C 0.36518 0.94073 0.44010
 C821 C 0.35879 0.94439 0.42921
 H822 H 0.35993 0.92512 0.45310
 H823 H 0.36114 0.95211 0.42296
 N824 N 0.32228 0.90267 0.43713
 N825 N 0.31459 0.90150 0.42740
 C826 C 0.30702 0.89144 0.42930
 C827 C 0.31008 0.88599 0.44081
 C828 C 0.31986 0.89336 0.44545
 H829 H 0.29964 0.88851 0.42289
 H830 H 0.32469 0.89226 0.45437
 H831 H 0.32072 0.92498 0.42762
 H832 H 0.33271 0.91498 0.41936
 O833 O 0.23349 0.50085 0.71643
 O834 O 0.23548 0.47913 0.72046
 O835 O 0.21632 0.51607 0.74933
 O836 O 0.21994 0.51620 0.77028
 O837 O 0.24906 0.53379 0.73371
 O838 O 0.27119 0.52939 0.73470
 O839 O 0.25110 0.48338 0.78284
 O840 O 0.22933 0.48588 0.77947
 O841 O 0.26680 0.46739 0.75109
 O842 O 0.26562 0.47158 0.72817
 O843 O 0.28296 0.49928 0.76646
 O844 O 0.27860 0.52208 0.76556
 O845 O 0.26621 0.49869 0.78286
 O846 O 0.26443 0.52230 0.77847
 O847 O 0.28314 0.48413 0.75124
 O848 O 0.27854 0.48579 0.72777
 O849 O 0.25192 0.46736 0.76655
 O850 O 0.22884 0.47099 0.76224
 O851 O 0.24881 0.51599 0.71629
 O852 O 0.27138 0.51494 0.72090
 O853 O 0.23391 0.53377 0.74893
 O854 O 0.23609 0.52872 0.77185
 O855 O 0.21643 0.50110 0.73389
 O856 O 0.22141 0.47828 0.73691
 Zr857 Zr 0.23467 0.49316 0.73472
 O858 O 0.24610 0.48111 0.74568
 Zr859 Zr 0.23471 0.51552 0.75686
 O860 O 0.24576 0.50423 0.76896
 Zr861 Zr 0.25683 0.51551 0.73456
 O862 O 0.26908 0.50457 0.74580
 Zr863 Zr 0.24295 0.48502 0.76485
 O864 O 0.23050 0.49625 0.75395
 Zr865 Zr 0.26524 0.48533 0.74270
 O866 O 0.25388 0.49628 0.73046
 Zr867 Zr 0.26493 0.50748 0.76502
 O868 O 0.25388 0.51980 0.75377
 O869 O 0.23780 0.51230 0.73781
 O870 O 0.26207 0.48833 0.76183
 C871 C 0.23974 0.50977 0.71102
 C872 C 0.21102 0.50995 0.74024
 C873 C 0.24010 0.53912 0.73995
 C874 C 0.26033 0.48938 0.78802
 C875 C 0.26110 0.46223 0.76049
 C876 C 0.28824 0.49009 0.76053
 H877 H 0.24411 0.47219 0.74372
 H878 H 0.27795 0.50671 0.74381
 H879 H 0.23236 0.51767 0.73244
 H880 H 0.24365 0.50606 0.77788
 H881 H 0.22128 0.48845 0.77546
 H882 H 0.22201 0.50994 0.77690
 H883 H 0.28454 0.49276 0.72948
 H884 H 0.27066 0.50667 0.71657
 H885 H 0.22938 0.46502 0.76944
 H886 H 0.21492 0.47902 0.73018
 H887 H 0.28369 0.52148 0.75775
 H888 H 0.27103 0.53328 0.74321
 H889 H 0.24410 0.47946 0.71684
 H890 H 0.25799 0.46625 0.72906
 H891 H 0.24380 0.53379 0.77031
 H892 H 0.25763 0.52040 0.78459
 O893 O 0.21644 0.01624 0.24908
 O894 O 0.22057 0.01462 0.27075
 O895 O 0.24924 0.03342 0.23350
 O896 O 0.27016 0.02986 0.23324
 O897 O 0.23358 0.00033 0.21626
 O898 O 0.23466 -0.02172 0.22091
 O899 O 0.28298 -0.00075 0.26646
 O900 O 0.27949 0.02097 0.26374
 O901 O 0.25142 -0.01646 0.28278
 O902 O 0.22846 -0.01546 0.27870
 O903 O 0.26670 -0.03290 0.25115
 O904 O 0.26543 -0.02871 0.22803
 O905 O 0.28299 -0.01606 0.25134
 O906 O 0.27866 -0.01493 0.22794
 O907 O 0.25149 -0.03303 0.26626
 O908 O 0.22797 -0.02849 0.26462
 O909 O 0.26681 -0.00148 0.28256
 O910 O 0.26232 0.02152 0.27868
 O911 O 0.21628 0.00072 0.23414
 O912 O 0.22100 -0.02183 0.23542
 O913 O 0.24873 0.01558 0.21603
 O914 O 0.27171 0.01353 0.22102
 O915 O 0.23386 0.03344 0.24850
 O916 O 0.23698 0.02874 0.27139
 Zr917 Zr 0.23477 0.01529 0.25667
 O918 O 0.24582 0.00406 0.26883
 Zr919 Zr 0.25679 0.01505 0.23424
 O920 O 0.26897 0.00421 0.24562
 Zr921 Zr 0.23458 -0.00719 0.23463
 O922 O 0.24593 -0.01926 0.24568
 Zr923 Zr 0.26495 0.00726 0.26481
 O924 O 0.25396 0.01952 0.25345
 Zr925 Zr 0.24290 -0.01516 0.26487
 O926 O 0.23057 -0.00399 0.25382
 Zr927 Zr 0.26510 -0.01504 0.24264
 O928 O 0.25375 -0.00420 0.23022
 O929 O 0.23776 0.01191 0.23757
 O930 O 0.26199 -0.01193 0.26174
 C931 C 0.21101 0.00983 0.24027
 C932 C 0.24017 0.03876 0.23958
 C933 C 0.23974 0.00928 0.21079
 C934 C 0.28817 -0.01002 0.26056
 C935 C 0.26084 -0.01065 0.28782
 C936 C 0.26081 -0.03812 0.26038
 H937 H 0.24389 0.00615 0.27773
 H938 H 0.24397 -0.02817 0.24365
 H939 H 0.23234 0.01726 0.23216
 H940 H 0.27787 0.00635 0.24374
 H941 H 0.27542 0.02897 0.26109
 H942 H 0.27673 0.02800 0.23962
 H943 H 0.22970 -0.03463 0.25778
 H944 H 0.21671 -0.02102 0.24369
 H945 H 0.26957 0.02112 0.28461
 H946 H 0.23026 0.03522 0.27056
 H947 H 0.25811 -0.03439 0.22926
 H948 H 0.24321 -0.02173 0.21715
 H949 H 0.21707 0.00595 0.27063
 H950 H 0.22936 -0.00776 0.28393
 H951 H 0.27019 0.00572 0.21609
 H952 H 0.28447 -0.00777 0.22947
 O953 O 0.50090 0.71683 0.23316
 O954 O 0.47924 0.72094 0.23499
 O955 O 0.51634 0.74975 0.21611
 O956 O 0.51665 0.77068 0.21981
 O957 O 0.53384 0.73392 0.24888
 O958 O 0.52938 0.73491 0.27098
 O959 O 0.48365 0.78329 0.25074
 O960 O 0.48622 0.77993 0.22900
 O961 O 0.46744 0.75159 0.26631
 O962 O 0.47154 0.72867 0.26521
 O963 O 0.49923 0.76689 0.28266
 O964 O 0.52223 0.76570 0.27832
 O965 O 0.49887 0.78327 0.26592
 O966 O 0.52233 0.77891 0.26449
 O967 O 0.48408 0.75168 0.28280
 O968 O 0.48572 0.72816 0.27812
 O969 O 0.46755 0.76706 0.25144
 O970 O 0.47129 0.76272 0.22841
 O971 O 0.51595 0.71660 0.24857
 O972 O 0.51486 0.72123 0.27116
 O973 O 0.53394 0.74916 0.23375
 O974 O 0.52898 0.77215 0.23608
 O975 O 0.50137 0.73433 0.21612
 O976 O 0.47850 0.73743 0.22101
 Zr977 Zr 0.49332 0.73516 0.23432
 O978 O 0.48126 0.74614 0.24571
 Zr979 Zr 0.51575 0.75722 0.23452
 O980 O 0.50445 0.76934 0.24552
 Zr981 Zr 0.51553 0.73488 0.25660
 O982 O 0.50458 0.74616 0.26883
 Zr983 Zr 0.48525 0.76530 0.24259
 O984 O 0.49651 0.75439 0.23018
 Zr985 Zr 0.48536 0.74314 0.26488
 O986 O 0.49632 0.73086 0.25354
 Zr987 Zr 0.50758 0.76538 0.26471
 O988 O 0.51992 0.75408 0.25370
 O989 O 0.51244 0.73816 0.23755
 O990 O 0.48845 0.76226 0.26174
 C991 C 0.50976 0.71136 0.23946
 C992 C 0.51025 0.74068 0.21077
 C993 C 0.53923 0.74013 0.23993
 C994 C 0.48961 0.78845 0.25999
 C995 C 0.46234 0.76101 0.26059
 C996 C 0.49002 0.76098 0.28790
 H997 H 0.47234 0.74421 0.24368
 H998 H 0.50667 0.74416 0.27770
 H999 H 0.51780 0.73276 0.23213
 H1000 H 0.50632 0.77825 0.24343
 H1001 H 0.48880 0.77592 0.22095
 H1002 H 0.51030 0.77724 0.22176
 H1003 H 0.49259 0.72989 0.28423
 H1004 H 0.50658 0.71693 0.27039
 H1005 H 0.46536 0.76996 0.22889
 H1006 H 0.47929 0.73076 0.21446
 H1007 H 0.52118 0.75821 0.28382
 H1008 H 0.53316 0.74347 0.27099
 H1009 H 0.47946 0.71735 0.24362
 H1010 H 0.46632 0.72953 0.25751
 H1011 H 0.53401 0.77053 0.24380
 H1012 H 0.52064 0.78487 0.25751
 O1013 O 0.03361 0.73349 0.74921
 O1014 O 0.02959 0.73530 0.77090
 O1015 O 0.00063 0.71650 0.73382
 O1016 O -0.02030 0.72024 0.73367
 O1017 O 0.01648 0.74930 0.71639
 O1018 O 0.01552 0.77144 0.72095
 O1019 O -0.03270 0.75117 0.76679
 O1020 O -0.02945 0.72941 0.76407
 O1021 O -0.00094 0.76666 0.78290
 O1022 O 0.02204 0.76539 0.77870
 O1023 O -0.01616 0.78314 0.75120
 O1024 O -0.01527 0.77895 0.72837
 O1025 O -0.03264 0.76642 0.75164
 O1026 O -0.02827 0.76483 0.72802
 O1027 O -0.00094 0.78315 0.76634
 O1028 O 0.02247 0.77847 0.76467
 O1029 O -0.01643 0.75180 0.78277
 O1030 O -0.01221 0.72872 0.77893
 O1031 O 0.03384 0.74893 0.73422
 O1032 O 0.02932 0.77151 0.73538
 O1033 O 0.00118 0.73421 0.71627
 O1034 O -0.02174 0.73649 0.72130
 O1035 O 0.01606 0.71645 0.74878
 O1036 O 0.01307 0.72130 0.77164
 Zr1037 Zr 0.01533 0.73466 0.75686
 O1038 O 0.00442 0.74603 0.76901
 Zr1039 Zr -0.00679 0.73493 0.73450
 O1040 O -0.01884 0.74596 0.74588
 Zr1041 Zr 0.01561 0.75699 0.73472
 O1042 O 0.00442 0.76921 0.74577
 Zr1043 Zr -0.01476 0.74297 0.76505
 O1044 O -0.00392 0.73056 0.75372
 Zr1045 Zr 0.00749 0.76520 0.76496
 O1046 O 0.01968 0.75388 0.75391
 Zr1047 Zr -0.01481 0.76515 0.74283
 O1048 O -0.00361 0.75414 0.73040
 O1049 O 0.01227 0.73793 0.73776
 O1050 O -0.01164 0.76212 0.76193
 C1051 C 0.03906 0.73980 0.74036
 C1052 C 0.00968 0.71112 0.73991
 C1053 C 0.01021 0.74038 0.71098
 C1054 C -0.03783 0.76048 0.76090
 C1055 C -0.01037 0.76095 0.78798
 C1056 C -0.01020 0.78833 0.76044
 H1057 H 0.00636 0.74397 0.77791
 H1058 H 0.00646 0.77809 0.74371
 H1059 H 0.01763 0.73251 0.73237
 H1060 H -0.02777 0.74389 0.74403
 H1061 H -0.02548 0.72136 0.76143
 H1062 H -0.02689 0.72228 0.73996
 H1063 H 0.02084 0.78450 0.75771
 H1064 H 0.03361 0.77076 0.74366
 H1065 H -0.01940 0.72924 0.78491
 H1066 H 0.01976 0.71478 0.77083
 H1067 H -0.00741 0.78397 0.72899
 H1068 H 0.00702 0.77129 0.71703
 H1069 H 0.03320 0.74393 0.77069
 H1070 H 0.02102 0.75779 0.78404
 H1071 H -0.02015 0.74424 0.71631
 H1072 H -0.03442 0.75804 0.72986
 O1073 O 0.03378 0.01624 0.00084
 O1074 O 0.02970 0.01456 -0.02085
 O1075 O 0.00089 0.03325 0.01634
 O1076 O -0.02004 0.02958 0.01649
 O1077 O 0.01662 0.00029 0.03360
 O1078 O 0.01564 -0.02179 0.02893
 O1079 O -0.03266 -0.00113 -0.01671
 O1080 O -0.02924 0.02059 -0.01401
 O1081 O -0.00097 -0.01676 -0.03294
 O1082 O 0.02196 -0.01559 -0.02882
 O1083 O -0.01615 -0.03326 -0.00122
 O1084 O -0.01531 -0.02915 0.02154
 O1085 O -0.03261 -0.01646 -0.00165
 O1086 O -0.02816 -0.01494 0.02199
 O1087 O -0.00097 -0.03329 -0.01637
 O1088 O 0.02248 -0.02861 -0.01474
 O1089 O -0.01644 -0.00188 -0.03277
 O1090 O -0.01205 0.02118 -0.02891
 O1091 O 0.03397 0.00075 0.01578
 O1092 O 0.02938 -0.02182 0.01448
 O1093 O 0.00139 0.01543 0.03380
 O1094 O -0.02157 0.01328 0.02873
 O1095 O 0.01630 0.03332 0.00138
 O1096 O 0.01322 0.02858 -0.02153
 Zr1097 Zr 0.01548 0.01516 -0.00681
 O1098 O 0.00451 0.00385 -0.01899
 Zr1099 Zr -0.00660 0.01484 0.01556
 O1100 O -0.01871 0.00392 0.00414
 Zr1101 Zr 0.01571 -0.00727 0.01523
 O1102 O 0.00445 -0.01941 0.00416
 Zr1103 Zr -0.01465 0.00695 -0.01503
 O1104 O -0.00375 0.01928 -0.00364
 Zr1105 Zr 0.00750 -0.01535 -0.01502
 O1106 O 0.01976 -0.00409 -0.00394
 Zr1107 Zr -0.01476 -0.01529 0.00714
 O1108 O -0.00348 -0.00438 0.01960
 O1109 O 0.01244 0.01181 0.01228
 O1110 O -0.01162 -0.01223 -0.01197
 C1111 C 0.03922 0.00989 0.00967
 C1112 C 0.00995 0.03863 0.01029
 C1113 C 0.01039 0.00918 0.03906
 C1114 C -0.03782 -0.01044 -0.01085
 C1115 C -0.01040 -0.01103 -0.03801
 C1116 C -0.01021 -0.03847 -0.01043
 H1117 H 0.00645 0.00592 -0.02789
 H1118 H 0.00645 -0.02830 0.00620
 H1119 H 0.01783 0.01719 0.01771
 H1120 H -0.02762 0.00601 0.00601
 H1121 H -0.02522 0.02861 -0.01136
 H1122 H -0.02660 0.02764 0.01013
 H1123 H 0.02082 -0.03468 -0.00784
 H1124 H 0.03370 -0.02099 0.00623
 H1125 H -0.01926 0.02069 -0.03488
 H1126 H 0.01990 0.03511 -0.02068
 H1127 H -0.00742 -0.03412 0.02099
 H1128 H 0.00715 -0.02166 0.03286
 H1129 H 0.03325 0.00590 -0.02073
 H1130 H 0.02104 -0.00790 -0.03405
 H1131 H -0.01998 0.00555 0.03374
 H1132 H -0.03432 -0.00816 0.02015
 O1133 O 0.00096 0.53341 0.51679
 O1134 O -0.02073 0.52941 0.51508
 O1135 O 0.01632 0.50037 0.53370
 O1136 O 0.01649 0.47945 0.52994
 O1137 O 0.03367 0.51622 0.50085
 O1138 O 0.02906 0.51524 0.47877
 O1139 O -0.01680 0.46704 0.49923
 O1140 O -0.01404 0.47037 0.52095
 O1141 O -0.03293 0.49882 0.48376
 O1142 O -0.02870 0.52177 0.48495
 O1143 O -0.00138 0.48346 0.46720
 O1144 O 0.02166 0.48452 0.47140
 O1145 O -0.00172 0.46704 0.48392
 O1146 O 0.02179 0.47129 0.48519
 O1147 O -0.01642 0.49877 0.46719
 O1148 O -0.01466 0.52224 0.47192
 O1149 O -0.03279 0.48332 0.49861
 O1150 O -0.02888 0.48763 0.52164
 O1151 O 0.01588 0.53360 0.50129
 O1152 O 0.01461 0.52900 0.47870
 O1153 O 0.03381 0.50095 0.51595
 O1154 O 0.02873 0.47799 0.51362
 O1155 O 0.00141 0.51584 0.53381
 O1156 O -0.02148 0.51290 0.52905
 Zr1157 Zr -0.00674 0.51512 0.51565
 O1158 O -0.01895 0.50420 0.50432
 Zr1159 Zr 0.01557 0.49296 0.51527
 O1160 O 0.00412 0.48090 0.50431
 Zr1161 Zr 0.01531 0.51534 0.49324
 O1162 O 0.00420 0.50413 0.48105
 Zr1163 Zr -0.01503 0.48502 0.50737
 O1164 O -0.00362 0.49586 0.51973
 Zr1165 Zr -0.01497 0.50723 0.48513
 O1166 O -0.00386 0.51943 0.49642
 Zr1167 Zr 0.00712 0.48488 0.48510
 O1168 O 0.01960 0.49610 0.49606
 O1169 O 0.01233 0.51203 0.51229
 O1170 O -0.01197 0.48809 0.48821
 C1171 C 0.00979 0.53885 0.51044
 C1172 C 0.01028 0.50943 0.53911
 C1173 C 0.03909 0.50999 0.50977
 C1174 C -0.01095 0.46187 0.48992
 C1175 C -0.03802 0.48939 0.48949
 C1176 C -0.01058 0.48945 0.46202
 H1177 H -0.02784 0.50616 0.50641
 H1178 H 0.00624 0.50614 0.47217
 H1179 H 0.01776 0.51740 0.51770
 H1180 H 0.00596 0.47198 0.50637
 H1181 H -0.01136 0.47436 0.52898
 H1182 H 0.01012 0.47290 0.52798
 H1183 H -0.00782 0.52052 0.46578
 H1184 H 0.00636 0.53334 0.47951
 H1185 H -0.03485 0.48042 0.52117
 H1186 H -0.02062 0.51957 0.53558
 H1187 H 0.02062 0.49202 0.46593
 H1188 H 0.03277 0.50666 0.47872
 H1189 H -0.02057 0.53299 0.50645
 H1190 H -0.03393 0.52085 0.49264
 H1191 H 0.03369 0.47958 0.50586
 H1192 H 0.02014 0.46534 0.49220
 O1193 O 0.53356 0.01665 0.50082
 O1194 O 0.52961 0.01474 0.47912
 O1195 O 0.50063 0.03382 0.51599
 O1196 O 0.47968 0.03016 0.51608
 O1197 O 0.51630 0.00106 0.53362
 O1198 O 0.51520 -0.02111 0.52918
 O1199 O 0.46726 -0.00087 0.48301
 O1200 O 0.47059 0.02088 0.48568
 O1201 O 0.49899 -0.01654 0.46713
 O1202 O 0.52195 -0.01537 0.47143
 O1203 O 0.48358 -0.03284 0.49886
 O1204 O 0.48435 -0.02855 0.52163
 O1205 O 0.46720 -0.01608 0.49820
 O1206 O 0.47149 -0.01430 0.52189
 O1207 O 0.49883 -0.03296 0.48378
 O1208 O 0.52226 -0.02838 0.48554
 O1209 O 0.48357 -0.00162 0.46710
 O1210 O 0.48788 0.02146 0.47088
 O1211 O 0.53368 0.00128 0.51589
 O1212 O 0.52905 -0.02131 0.51478
 O1213 O 0.50108 0.01622 0.53361
 O1214 O 0.47813 0.01395 0.52851
 O1215 O 0.51610 0.03374 0.50108
 O1216 O 0.51316 0.02878 0.47822
 Zr1217 Zr 0.51531 0.01550 0.49308
 O1218 O 0.50439 0.00411 0.48094
 Zr1219 Zr 0.49312 0.01541 0.51536
 O1220 O 0.48105 0.00439 0.50397
 Zr1221 Zr 0.51541 -0.00672 0.51533
 O1222 O 0.50420 -0.01895 0.50430
 Zr1223 Zr 0.48522 0.00728 0.48480
 O1224 O 0.49608 0.01969 0.49613
 Zr1225 Zr 0.50735 -0.01505 0.48510
 O1226 O 0.51956 -0.00372 0.49615
 Zr1227 Zr 0.48497 -0.01481 0.50713
 O1228 O 0.49620 -0.00379 0.51956
 O1229 O 0.51217 0.01232 0.51218
 O1230 O 0.48823 -0.01187 0.48803
 C1231 C 0.53895 0.01038 0.50974
 C1232 C 0.50973 0.03913 0.50991
 C1233 C 0.51009 0.01006 0.53895
 C1234 C 0.46208 -0.01016 0.48888
 C1235 C 0.48962 -0.01081 0.46196
 C1236 C 0.48953 -0.03808 0.48967
 H1237 H 0.50638 0.00612 0.47204
 H1238 H 0.50618 -0.02783 0.50641
 H1239 H 0.51754 0.01776 0.51757
 H1240 H 0.47213 0.00649 0.50577
 H1241 H 0.47458 0.02894 0.48830
 H1242 H 0.47309 0.02811 0.50978
 H1243 H 0.52055 -0.03438 0.49250
 H1244 H 0.53339 -0.02059 0.50653
 H1245 H 0.48070 0.02095 0.46488
 H1246 H 0.51986 0.03530 0.47904
 H1247 H 0.49225 -0.03351 0.52118
 H1248 H 0.50671 -0.02088 0.53309
 H1249 H 0.53318 0.00610 0.47938
 H1250 H 0.52099 -0.00779 0.46606
 H1251 H 0.47970 0.00625 0.53357
 H1252 H 0.46529 -0.00759 0.51991
 O1253 O 0.53326 0.51675 0.00066
 O1254 O 0.52917 0.51494 -0.02107
 O1255 O 0.50039 0.53388 0.01605
 O1256 O 0.47944 0.53027 0.01618
 O1257 O 0.51605 0.50101 0.03346
 O1258 O 0.51498 0.47888 0.02891
 O1259 O 0.46681 0.49944 -0.01696
 O1260 O 0.47024 0.52116 -0.01427
 O1261 O 0.49846 0.48371 -0.03305
 O1262 O 0.52142 0.48481 -0.02885
 O1263 O 0.48319 0.46734 -0.00126
 O1264 O 0.48397 0.47151 0.02144
 O1265 O 0.46680 0.48415 -0.00185
 O1266 O 0.47122 0.48584 0.02186
 O1267 O 0.49837 0.46723 -0.01642
 O1268 O 0.52182 0.47181 -0.01476
 O1269 O 0.48307 0.49866 -0.03295
 O1270 O 0.48748 0.52172 -0.02912
 O1271 O 0.53340 0.50132 0.01566
 O1272 O 0.52873 0.47873 0.01447
 O1273 O 0.50082 0.51616 0.03358
 O1274 O 0.47786 0.51400 0.02850
 O1275 O 0.51581 0.53385 0.00109
 O1276 O 0.51274 0.52904 -0.02178
 Zr1277 Zr 0.51496 0.51566 -0.00701
 O1278 O 0.50397 0.50433 -0.01916
 Zr1279 Zr 0.49285 0.51549 0.01534
 O1280 O 0.48072 0.50455 0.00394
 Zr1281 Zr 0.51512 0.49333 0.01513
 O1282 O 0.50383 0.48118 0.00409
 Zr1283 Zr 0.48482 0.50750 -0.01523
 O1284 O 0.49574 0.51985 -0.00388
 Zr1285 Zr 0.50691 0.48514 -0.01510
 O1286 O 0.51919 0.49641 -0.00406
 Zr1287 Zr 0.48462 0.48534 0.00702
 O1288 O 0.49592 0.49627 0.01945
 O1289 O 0.51189 0.51240 0.01208
 O1290 O 0.48780 0.48833 -0.01209
 C1291 C 0.53868 0.51042 0.00952
 C1292 C 0.50947 0.53921 0.00998
 C1293 C 0.50982 0.50994 0.03887
 C1294 C 0.46163 0.49015 -0.01110
 C1295 C 0.48908 0.48948 -0.03815
 C1296 C 0.48911 0.46209 -0.01047
 H1297 H 0.50593 0.50637 -0.02807
 H1298 H 0.50580 0.47229 0.00617
 H1299 H 0.51728 0.51779 0.01749
 H1300 H 0.47181 0.50667 0.00578
 H1301 H 0.47427 0.52919 -0.01164
 H1302 H 0.47287 0.52830 0.00984
 H1303 H 0.52016 0.46582 -0.00779
 H1304 H 0.53307 0.47950 0.00623
 H1305 H 0.48028 0.52124 -0.03510
 H1306 H 0.51948 0.53552 -0.02097
 H1307 H 0.49193 0.46664 0.02103
 H1308 H 0.50651 0.47909 0.03286
 H1309 H 0.53274 0.50630 -0.02085
 H1310 H 0.52051 0.49246 -0.03414
 H1311 H 0.47944 0.50629 0.03355
 H1312 H 0.46498 0.49251 0.01988
 O1313 O 0.75131 0.26662 0.46645
 O1314 O 0.72960 0.26482 0.47037
 O1315 O 0.76652 0.28366 0.49950
 O1316 O 0.76657 0.27996 0.52043
 O1317 O 0.78403 0.25085 0.48377
 O1318 O 0.77949 0.22870 0.48473
 O1319 O 0.73341 0.24905 0.53270
 O1320 O 0.73612 0.27080 0.52943
 O1321 O 0.71745 0.23351 0.50087
 O1322 O 0.72176 0.23469 0.47794
 O1323 O 0.74916 0.21704 0.51626
 O1324 O 0.77192 0.22125 0.51554
 O1325 O 0.74855 0.23380 0.53273
 O1326 O 0.77222 0.23545 0.52846
 O1327 O 0.73406 0.21700 0.50100
 O1328 O 0.73583 0.22165 0.47758
 O1329 O 0.71748 0.24840 0.51635
 O1330 O 0.72134 0.27146 0.51213
 O1331 O 0.76630 0.25117 0.46631
 O1332 O 0.76512 0.22861 0.47085
 O1333 O 0.78406 0.26596 0.49905
 O1334 O 0.77893 0.26371 0.52195
 O1335 O 0.75164 0.28368 0.48399
 O1336 O 0.72876 0.27883 0.48688
 Zr1337 Zr 0.74355 0.26548 0.48470
 O1338 O 0.73136 0.25412 0.49556
 Zr1339 Zr 0.76580 0.26524 0.50694
 O1340 O 0.75437 0.25425 0.51894
 Zr1341 Zr 0.76570 0.24315 0.48456
 O1342 O 0.75461 0.23095 0.49571
 Zr1343 Zr 0.73521 0.25722 0.51475
 O1344 O 0.74660 0.26961 0.50395
 Zr1345 Zr 0.73544 0.23494 0.49255
 O1346 O 0.74654 0.24625 0.48039
 Zr1347 Zr 0.75746 0.23505 0.51495
 O1348 O 0.76993 0.24603 0.50380
 O1349 O 0.76263 0.26221 0.48786
 O1350 O 0.73837 0.23806 0.51169
 C1351 C 0.76019 0.26029 0.46105
 C1352 C 0.76048 0.28902 0.49041
 C1353 C 0.78939 0.25978 0.49004
 C1354 C 0.73926 0.23975 0.53786
 C1355 C 0.71230 0.23925 0.51025
 C1356 C 0.73996 0.21183 0.51027
 H1357 H 0.72247 0.25617 0.49357
 H1358 H 0.75670 0.22207 0.49370
 H1359 H 0.76805 0.26763 0.48251
 H1360 H 0.75617 0.25633 0.52787
 H1361 H 0.73878 0.27885 0.52547
 H1362 H 0.76024 0.27794 0.52699
 H1363 H 0.74276 0.21561 0.47927
 H1364 H 0.75686 0.22935 0.46653
 H1365 H 0.71534 0.27096 0.51930
 H1366 H 0.72960 0.28535 0.48021
 H1367 H 0.77143 0.21629 0.50763
 H1368 H 0.78339 0.22889 0.49323
 H1369 H 0.72982 0.25618 0.46677
 H1370 H 0.71646 0.24233 0.47887
 H1371 H 0.78396 0.25598 0.52038
 H1372 H 0.77030 0.24220 0.53464
 O1373 O 0.75071 0.76708 -0.03364
 O1374 O 0.72899 0.76536 -0.02956
 O1375 O 0.76632 0.78385 -0.00071
 O1376 O 0.76656 0.78011 0.02020
 O1377 O 0.78340 0.75086 -0.01664
 O1378 O 0.77861 0.72878 -0.01575
 O1379 O 0.73322 0.74953 0.03274
 O1380 O 0.73610 0.77122 0.02947
 O1381 O 0.71682 0.73415 0.00102
 O1382 O 0.72090 0.73532 -0.02192
 O1383 O 0.74855 0.71735 0.01605
 O1384 O 0.77131 0.72138 0.01521
 O1385 O 0.74820 0.73411 0.03260
 O1386 O 0.77184 0.73553 0.02812
 O1387 O 0.73330 0.71747 0.00095
 O1388 O 0.73487 0.72220 -0.02249
 O1389 O 0.71712 0.74903 0.01652
 O1390 O 0.72117 0.77205 0.01229
 O1391 O 0.76558 0.75151 -0.03394
 O1392 O 0.76411 0.72891 -0.02949
 O1393 O 0.78371 0.76596 -0.00135
 O1394 O 0.77874 0.76373 0.02160
 O1395 O 0.75128 0.78405 -0.01607
 O1396 O 0.72840 0.77939 -0.01303
 Zr1397 Zr 0.74306 0.76591 -0.01534
 O1398 O 0.73087 0.75464 -0.00438
 Zr1399 Zr 0.76551 0.76542 0.00669
 O1400 O 0.75408 0.75452 0.01879
 Zr1401 Zr 0.76500 0.74339 -0.01573
 O1402 O 0.75391 0.73127 -0.00449
 Zr1403 Zr 0.73492 0.75767 0.01478
 O1404 O 0.74632 0.76997 0.00389
 Zr1405 Zr 0.73474 0.73543 -0.00747
 O1406 O 0.74582 0.74666 -0.01971
 Zr1407 Zr 0.75697 0.73530 0.01474
 O1408 O 0.76943 0.74618 0.00347
 O1409 O 0.76214 0.76246 -0.01236
 O1410 O 0.73787 0.73849 0.01166
 C1411 C 0.75952 0.76073 -0.03912
 C1412 C 0.76024 0.78929 -0.00972
 C1413 C 0.78891 0.75972 -0.01040
 C1414 C 0.73905 0.74018 0.03785
 C1415 C 0.71180 0.73994 0.01046
 C1416 C 0.73927 0.71222 0.01013
 H1417 H 0.72198 0.75678 -0.00629
 H1418 H 0.75590 0.72237 -0.00654
 H1419 H 0.76758 0.76785 -0.01771
 H1420 H 0.75599 0.75657 0.02770
 H1421 H 0.73879 0.77925 0.02549
 H1422 H 0.76025 0.77816 0.02680
 H1423 H 0.74179 0.71612 -0.02091
 H1424 H 0.75584 0.72980 -0.03377
 H1425 H 0.71525 0.77162 0.01954
 H1426 H 0.72922 0.78588 -0.01974
 H1427 H 0.77075 0.71647 0.00728
 H1428 H 0.78260 0.72888 -0.00729
 H1429 H 0.72917 0.75675 -0.03322
 H1430 H 0.71574 0.74305 -0.02098
 H1431 H 0.78371 0.75597 0.01995
 H1432 H 0.77004 0.74229 0.03432
 O1433 O 1.01629 0.24893 0.21642
 O1434 O 1.01449 0.27066 0.22045
 O1435 O 1.03353 0.23361 0.24923
 O1436 O 1.03002 0.23358 0.27020
 O1437 O 1.00058 0.21612 0.23375
 O1438 O 0.97848 0.22068 0.23481
 O1439 O 0.99919 0.26662 0.28290
 O1440 O 1.02090 0.26398 0.27941
 O1441 O 0.98335 0.28266 0.25127
 O1442 O 0.98442 0.27847 0.22832
 O1443 O 0.96706 0.25086 0.26659
 O1444 O 0.97130 0.22809 0.26576
 O1445 O 0.98393 0.25147 0.28296
 O1446 O 0.98556 0.22781 0.27859
 O1447 O 0.96689 0.26599 0.25138
 O1448 O 0.97143 0.26433 0.22792
 O1449 O 0.99835 0.28261 0.26663
 O1450 O 1.02137 0.27884 0.26217
 O1451 O 1.00089 0.23388 0.21634
 O1452 O 0.97834 0.23510 0.22101
 O1453 O 1.01579 0.21605 0.24893
 O1454 O 1.01378 0.22118 0.27185
 O1455 O 1.03345 0.24857 0.23381
 O1456 O 1.02862 0.27145 0.23686
 Zr1457 Zr 1.01526 0.25664 0.23471
 O1458 O 1.00397 0.26880 0.24571
 Zr1459 Zr 1.01518 0.23433 0.25685
 O1460 O 1.00427 0.24572 0.26899
 Zr1461 Zr 0.99295 0.23446 0.23463
 O1462 O 0.98083 0.24550 0.24593
 Zr1463 Zr 1.00720 0.26490 0.26486
 O1464 O 1.01952 0.25356 0.25392
 Zr1465 Zr 0.98478 0.26470 0.24282
 O1466 O 0.99601 0.25366 0.23053
 Zr1467 Zr 0.98506 0.24260 0.26513
 O1468 O 0.99596 0.23018 0.25383
 O1469 O 1.01202 0.23754 0.23781
 O1470 O 0.98803 0.26172 0.26193
 C1471 C 1.00997 0.24002 0.21104
 C1472 C 1.03883 0.23969 0.24013
 C1473 C 1.00951 0.21072 0.23997
 C1474 C 0.98993 0.26074 0.28810
 C1475 C 0.98914 0.28778 0.26065
 C1476 C 0.96179 0.26004 0.26066
 H1477 H 1.00600 0.27771 0.24374
 H1478 H 0.97194 0.24340 0.24397
 H1479 H 1.01739 0.23211 0.23241
 H1480 H 1.00642 0.24389 0.27789
 H1481 H 1.02891 0.26135 0.27536
 H1482 H 1.02803 0.23987 0.27681
 H1483 H 0.96543 0.25735 0.22960
 H1484 H 0.97912 0.24334 0.21666
 H1485 H 1.02092 0.28482 0.26937
 H1486 H 1.03510 0.27063 0.23013
 H1487 H 0.96627 0.22861 0.25791
 H1488 H 0.97869 0.21676 0.24330
 H1489 H 1.00583 0.27043 0.21693
 H1490 H 0.99207 0.28376 0.22921
 H1491 H 1.00602 0.21617 0.27035
 H1492 H 0.99234 0.22973 0.28473
 O1493 O 0.74919 1.03341 0.73306
 O1494 O 0.77089 1.02930 0.73494
 O1495 O 0.73374 1.00044 0.71613
 O1496 O 0.73354 0.97949 0.71988
 O1497 O 0.71631 1.01640 0.74884
 O1498 O 0.72080 1.01548 0.77097
 O1499 O 0.76656 0.96703 0.75088
 O1500 O 0.76393 0.97028 0.72911
 O1501 O 0.78271 0.99882 0.76637
 O1502 O 0.77860 1.02176 0.76511
 O1503 O 0.75086 0.98371 0.78278
 O1504 O 0.72814 0.98455 0.77856
 O1505 O 0.75139 0.96717 0.76610
 O1506 O 0.72772 0.97165 0.76434
 O1507 O 0.76607 0.99886 0.78281
 O1508 O 0.76446 1.02232 0.77807
 O1509 O 0.78260 0.98327 0.75155
 O1510 O 0.77885 0.98748 0.72847
 O1511 O 0.73417 1.03371 0.74846
 O1512 O 0.73530 1.02922 0.77106
 O1513 O 0.71618 1.00107 0.73377
 O1514 O 0.72116 0.97809 0.73612
 O1515 O 0.74875 1.01583 0.71609
 O1516 O 0.77160 1.01275 0.72097
 Zr1517 Zr 0.75681 1.01509 0.73429
 O1518 O 0.76889 1.00416 0.74571
 Zr1519 Zr 0.73438 0.99302 0.73456
 O1520 O 0.74571 0.98095 0.74560
 Zr1521 Zr 0.73461 1.01548 0.75656
 O1522 O 0.74559 1.00427 0.76881
 Zr1523 Zr 0.76491 0.98498 0.74266
 O1524 O 0.75362 0.99584 0.73022
 Zr1525 Zr 0.76480 1.00728 0.76486
 O1526 O 0.75382 1.01949 0.75349
 Zr1527 Zr 0.74260 0.98502 0.76477
 O1528 O 0.73024 0.99626 0.75374
 O1529 O 0.73770 1.01209 0.73754
 O1530 O 0.76173 0.98813 0.76179
 C1531 C 0.74033 1.03889 0.73934
 C1532 C 0.73984 1.00948 0.71077
 C1533 C 0.71090 1.01014 0.73992
 C1534 C 0.76065 0.96194 0.76019
 C1535 C 0.78781 0.98936 0.76070
 C1536 C 0.76009 0.98965 0.78799
 H1537 H 0.77781 1.00609 0.74367
 H1538 H 0.74350 1.00632 0.77768
 H1539 H 0.73232 1.01746 0.73210
 H1540 H 0.74385 0.97202 0.74354
 H1541 H 0.76132 0.97425 0.72105
 H1542 H 0.73983 0.97290 0.72192
 H1543 H 0.75754 1.02066 0.78413
 H1544 H 0.74356 1.03354 0.77027
 H1545 H 0.78480 0.98026 0.72902
 H1546 H 0.77082 1.01942 0.71443
 H1547 H 0.72862 0.99251 0.78343
 H1548 H 0.71683 1.00700 0.77081
 H1549 H 0.77065 1.03297 0.74354
 H1550 H 0.78387 1.02081 0.75745
 H1551 H 0.71608 0.97976 0.74379
 H1552 H 0.72966 0.96538 0.75768
 O1553 O 0.74944 0.53379 0.23336
 O1554 O 0.77112 0.52973 0.23516
 O1555 O 0.73404 0.50092 0.21617
 O1556 O 0.73396 0.47995 0.21973
 O1557 O 0.71655 0.51653 0.24902
 O1558 O 0.72105 0.51555 0.27111
 O1559 O 0.76694 0.46734 0.25072
 O1560 O 0.76439 0.47074 0.22899
 O1561 O 0.78300 0.49912 0.26646
 O1562 O 0.77881 0.52203 0.26538
 O1563 O 0.75115 0.48377 0.28271
 O1564 O 0.72841 0.48458 0.27842
 O1565 O 0.75174 0.46733 0.26590
 O1566 O 0.72810 0.47173 0.26418
 O1567 O 0.76631 0.49896 0.28287
 O1568 O 0.76461 0.52246 0.27827
 O1569 O 0.78296 0.48363 0.25158
 O1570 O 0.77925 0.48798 0.22850
 O1571 O 0.73438 0.53393 0.24872
 O1572 O 0.73550 0.52931 0.27129
 O1573 O 0.71648 0.50129 0.23386
 O1574 O 0.72156 0.47835 0.23594
 O1575 O 0.74900 0.51635 0.21624
 O1576 O 0.77186 0.51324 0.22109
 Zr1577 Zr 0.75708 0.51548 0.23444
 O1578 O 0.76919 0.50453 0.24581
 Zr1579 Zr 0.73473 0.49335 0.23453
 O1580 O 0.74608 0.48124 0.24550
 Zr1581 Zr 0.73487 0.51566 0.25670
 O1582 O 0.74585 0.50439 0.26888
 Zr1583 Zr 0.76528 0.48535 0.24263
 O1584 O 0.75396 0.49625 0.23025
 Zr1585 Zr 0.76505 0.50750 0.26497
 O1586 O 0.75406 0.51975 0.25367
 Zr1587 Zr 0.74293 0.48517 0.26469
 O1588 O 0.73055 0.49644 0.25373
 O1589 O 0.73797 0.51241 0.23765
 O1590 O 0.76205 0.48836 0.26178
 C1591 C 0.74056 0.53921 0.23966
 C1592 C 0.74012 0.51001 0.21087
 C1593 C 0.71116 0.51028 0.24009
 C1594 C 0.76101 0.46216 0.25996
 C1595 C 0.78813 0.48970 0.26075
 C1596 C 0.76034 0.48970 0.28798
 H1597 H 0.77810 0.50650 0.24380
 H1598 H 0.74374 0.50638 0.27776
 H1599 H 0.73257 0.51780 0.23226
 H1600 H 0.74425 0.47233 0.24337
 H1601 H 0.76179 0.47475 0.22095
 H1602 H 0.74031 0.47339 0.22170
 H1603 H 0.75772 0.52072 0.28433
 H1604 H 0.74375 0.53366 0.27053
 H1605 H 0.78523 0.48079 0.22902
 H1606 H 0.77107 0.51996 0.21460
 H1607 H 0.72893 0.49246 0.28343
 H1608 H 0.71715 0.50705 0.27095
 H1609 H 0.77090 0.53331 0.24380
 H1610 H 0.78408 0.52116 0.25771
 H1611 H 0.71651 0.47989 0.24366
 H1612 H 0.73002 0.46556 0.25743
 O1613 O 0.53347 0.23310 0.74896
 O1614 O 0.52941 0.23481 0.77067
 O1615 O 0.50058 0.21617 0.73341
 O1616 O 0.47964 0.21983 0.73331
 O1617 O 0.51633 0.24914 0.71621
 O1618 O 0.51543 0.27121 0.72092
 O1619 O 0.46710 0.25065 0.76652
 O1620 O 0.47041 0.22890 0.76377
 O1621 O 0.49884 0.26615 0.78275
 O1622 O 0.52173 0.26498 0.77865
 O1623 O 0.48366 0.28270 0.75100
 O1624 O 0.48453 0.27854 0.72820
 O1625 O 0.46718 0.26596 0.75143
 O1626 O 0.47158 0.26440 0.72782
 O1627 O 0.49881 0.28269 0.76620
 O1628 O 0.52229 0.27798 0.76454
 O1629 O 0.48333 0.25130 0.78256
 O1630 O 0.48762 0.22824 0.77868
 O1631 O 0.53369 0.24861 0.73403
 O1632 O 0.52917 0.27119 0.73537
 O1633 O 0.50106 0.23401 0.71599
 O1634 O 0.47812 0.23616 0.72105
 O1635 O 0.51597 0.21606 0.74841
 O1636 O 0.51289 0.22080 0.77132
 Zr1637 Zr 0.51518 0.23422 0.75661
 O1638 O 0.50423 0.24555 0.76879
 Zr1639 Zr 0.49309 0.23458 0.73422
 O1640 O 0.48101 0.24552 0.74564
 Zr1641 Zr 0.51546 0.25667 0.73459
 O1642 O 0.50423 0.26882 0.74565
 Zr1643 Zr 0.48506 0.24249 0.76482
 O1644 O 0.49594 0.23013 0.75343
 Zr1645 Zr 0.50727 0.26475 0.76482
 O1646 O 0.51950 0.25347 0.75377
 Zr1647 Zr 0.48501 0.26473 0.74264
 O1648 O 0.49626 0.25380 0.73020
 O1649 O 0.51214 0.23759 0.73752
 O1650 O 0.48815 0.26165 0.76175
 C1651 C 0.53892 0.23945 0.74012
 C1652 C 0.50962 0.21077 0.73947
 C1653 C 0.51007 0.24026 0.71074
 C1654 C 0.46198 0.25998 0.76066
 C1655 C 0.48939 0.26043 0.78781
 C1656 C 0.48959 0.28788 0.76025
 H1657 H 0.50617 0.24347 0.77769
 H1658 H 0.50625 0.27771 0.74361
 H1659 H 0.51751 0.23221 0.73209
 H1660 H 0.47209 0.24345 0.74377
 H1661 H 0.47441 0.22085 0.76113
 H1662 H 0.47307 0.22179 0.73965
 H1663 H 0.52060 0.28410 0.75769
 H1664 H 0.53351 0.27033 0.74362
 H1665 H 0.48040 0.22872 0.78464
 H1666 H 0.51956 0.21427 0.77047
 H1667 H 0.49238 0.28358 0.72884
 H1668 H 0.50695 0.27110 0.71697
 H1669 H 0.53300 0.24345 0.77052
 H1670 H 0.52085 0.25725 0.78383
 H1671 H 0.47971 0.24391 0.71606
 H1672 H 0.46541 0.25762 0.72966
 O1673 O 0.26676 0.78395 0.49918
 O1674 O 0.26495 0.77988 0.52090
 O1675 O 0.28376 0.75109 0.48372
 O1676 O 0.28012 0.73010 0.48364
 O1677 O 0.25089 0.76677 0.46637
 O1678 O 0.22879 0.76578 0.47095
 O1679 O 0.24927 0.71750 0.51665
 O1680 O 0.27099 0.72087 0.51399
 O1681 O 0.23370 0.74923 0.53285
 O1682 O 0.23483 0.77216 0.52871
 O1683 O 0.21722 0.73399 0.50103
 O1684 O 0.22142 0.73487 0.47825
 O1685 O 0.23400 0.71753 0.50151
 O1686 O 0.23558 0.72195 0.47790
 O1687 O 0.21718 0.74917 0.51622
 O1688 O 0.22184 0.77264 0.51460
 O1689 O 0.24858 0.73377 0.53271
 O1690 O 0.27161 0.73808 0.52890
 O1691 O 0.25132 0.78413 0.48417
 O1692 O 0.22874 0.77956 0.48543
 O1693 O 0.26602 0.75152 0.46623
 O1694 O 0.26386 0.72858 0.47124
 O1695 O 0.28380 0.76648 0.49873
 O1696 O 0.27901 0.76340 0.52160
 Zr1697 Zr 0.26562 0.76565 0.50684
 O1698 O 0.25429 0.75467 0.51896
 Zr1699 Zr 0.26537 0.74354 0.48445
 O1700 O 0.25441 0.73143 0.49581
 Zr1701 Zr 0.24327 0.76587 0.48471
 O1702 O 0.23110 0.75461 0.49572
 Zr1703 Zr 0.25739 0.73550 0.51499
 O1704 O 0.26976 0.74641 0.50367
 Zr1705 Zr 0.23511 0.75767 0.51491
 O1706 O 0.24639 0.76993 0.50390
 Zr1707 Zr 0.23521 0.73539 0.49274
 O1708 O 0.24616 0.74666 0.48034
 O1709 O 0.26232 0.76259 0.48774
 O1710 O 0.23823 0.73853 0.51186
 C1711 C 0.26046 0.78937 0.49030
 C1712 C 0.28912 0.76016 0.48981
 C1713 C 0.25981 0.76054 0.46096
 C1714 C 0.23998 0.71234 0.51075
 C1715 C 0.23945 0.73982 0.53794
 C1716 C 0.21201 0.73992 0.51025
 H1717 H 0.25635 0.75662 0.52787
 H1718 H 0.22222 0.75662 0.49365
 H1719 H 0.26771 0.76797 0.48234
 H1720 H 0.25649 0.72251 0.49394
 H1721 H 0.27903 0.72488 0.51136
 H1722 H 0.27808 0.72346 0.48988
 H1723 H 0.21579 0.77097 0.50767
 H1724 H 0.22957 0.78389 0.49368
 H1725 H 0.27113 0.73086 0.53485
 H1726 H 0.28551 0.77011 0.52080
 H1727 H 0.21642 0.74273 0.47884
 H1728 H 0.22895 0.75730 0.46700
 H1729 H 0.25633 0.78349 0.52067
 H1730 H 0.24253 0.77128 0.53395
 H1731 H 0.25611 0.73014 0.46624
 H1732 H 0.24237 0.71580 0.47975
 O1733 O 0.28394 0.25110 0.98361
 O1734 O 0.27997 0.22935 0.98537
 O1735 O 0.25099 0.26635 0.96654
 O1736 O 0.23004 0.26645 0.97018
 O1737 O 0.26665 0.28380 0.99947
 O1738 O 0.26559 0.27919 1.02158
 O1739 O 0.21757 0.23322 1.00091
 O1740 O 0.22094 0.23596 0.97919
 O1741 O 0.24932 0.21716 1.01649
 O1742 O 0.27225 0.22144 1.01540
 O1743 O 0.23394 0.24886 1.03301
 O1744 O 0.23473 0.27165 1.02890
 O1745 O 0.21752 0.24836 1.01619
 O1746 O 0.22188 0.27202 1.01468
 O1747 O 0.24917 0.23375 1.03304
 O1748 O 0.27262 0.23550 1.02847
 O1749 O 0.23389 0.21724 1.00157
 O1750 O 0.23821 0.22114 0.97856
 O1751 O 0.28404 0.26606 0.99911
 O1752 O 0.27943 0.26480 1.02165
 O1753 O 0.25143 0.28388 0.98430
 O1754 O 0.22849 0.27877 0.98647
 O1755 O 0.26645 0.25144 0.96652
 O1756 O 0.26353 0.22855 0.97129
 Zr1757 Zr 0.26567 0.24333 0.98469
 O1758 O 0.25473 0.23112 0.99596
 Zr1759 Zr 0.24349 0.26562 0.98493
 O1760 O 0.23141 0.25417 0.99584
 Zr1761 Zr 0.26578 0.26545 1.00708
 O1762 O 0.25456 0.25434 1.01920
 Zr1763 Zr 0.23556 0.23500 0.99282
 O1764 O 0.24644 0.24641 0.98051
 Zr1765 Zr 0.25769 0.23515 1.01515
 O1766 O 0.26991 0.24627 1.00393
 Zr1767 Zr 0.23534 0.25722 1.01505
 O1768 O 0.24657 0.26971 1.00416
 O1769 O 0.26254 0.26242 0.98801
 O1770 O 0.23856 0.23811 1.01199
 C1771 C 0.28932 0.25998 0.98997
 C1772 C 0.26007 0.26030 0.96118
 C1773 C 0.26042 0.28920 0.99054
 C1774 C 0.21237 0.23910 1.01019
 C1775 C 0.23994 0.21203 1.01071
 C1776 C 0.23989 0.23964 1.03820
 H1777 H 0.25671 0.22223 0.99388
 H1778 H 0.25654 0.25640 1.02809
 H1779 H 0.26791 0.26785 0.98263
 H1780 H 0.22250 0.25599 0.99374
 H1781 H 0.22495 0.23864 0.97117
 H1782 H 0.22347 0.26011 0.97215
 H1783 H 0.27093 0.24243 1.03452
 H1784 H 0.28377 0.25654 1.02087
 H1785 H 0.23102 0.21515 0.97901
 H1786 H 0.27023 0.22940 0.96480
 H1787 H 0.24262 0.27114 1.03388
 H1788 H 0.25710 0.28312 1.02138
 H1789 H 0.28355 0.22959 0.99400
 H1790 H 0.27135 0.21617 1.00773
 H1791 H 0.23007 0.28380 0.99420
 H1792 H 0.21574 0.27015 1.00788
 C1793 C 0.29265 0.39668 0.79140
 C1794 C 0.28752 0.39169 0.80249
 C1795 C 0.29325 0.38138 0.80841
 C1796 C 0.30425 0.37588 0.80332
 C1797 C 0.30935 0.38102 0.79216
 C1798 C 0.30358 0.39134 0.78625
 C1799 C 0.28679 0.40738 0.78541
 C1800 C 0.28190 0.41645 0.78055
 C1801 C 0.27615 0.42743 0.77497
 C1802 C 0.26548 0.43286 0.78056
 C1803 C 0.26032 0.44397 0.77561
 C1804 C 0.26579 0.44981 0.76498
 C1805 C 0.27636 0.44410 0.75927
 C1806 C 0.28150 0.43300 0.76425
 H1807 H 0.27907 0.39578 0.80658
 H1808 H 0.28900 0.37777 0.81696
 H1809 H 0.31778 0.37712 0.78792
 H1810 H 0.30767 0.39516 0.77768
 H1811 H 0.26128 0.42865 0.78889
 H1812 H 0.25222 0.44811 0.78029
 H1813 H 0.28086 0.44836 0.75113
 H1814 H 0.28979 0.42889 0.75987
 C1815 C 0.29271 -0.10306 0.29199
 C1816 C 0.28756 -0.10813 0.30304
 C1817 C 0.29328 -0.11849 0.30888
 C1818 C 0.30427 -0.12396 0.30374
 C1819 C 0.30946 -0.11865 0.29269
 C1820 C 0.30371 -0.10829 0.28687
 C1821 C 0.28673 -0.09248 0.28593
 C1822 C 0.28173 -0.08355 0.28093
 C1823 C 0.27588 -0.07274 0.27515
 C1824 C 0.26508 -0.06739 0.28056
 C1825 C 0.25988 -0.05637 0.27548
 C1826 C 0.26544 -0.05053 0.26490
 C1827 C 0.27612 -0.05620 0.25933
 C1828 C 0.28129 -0.06723 0.26443
 H1829 H 0.27908 -0.10410 0.30712
 H1830 H 0.28902 -0.12218 0.31739
 H1831 H 0.31788 -0.12253 0.28842
 H1832 H 0.30781 -0.10438 0.27835
 H1833 H 0.26083 -0.07160 0.28886
 H1834 H 0.25171 -0.05226 0.28005
 H1835 H 0.28069 -0.05195 0.25122
 H1836 H 0.28967 -0.07130 0.26018
 C1837 C 0.79188 0.89656 0.79181
 C1838 C 0.78661 0.89120 0.80266
 C1839 C 0.79245 0.88090 0.80851
 C1840 C 0.80373 0.87572 0.80359
 C1841 C 0.80894 0.88130 0.79265
 C1842 C 0.80306 0.89160 0.78684
 C1843 C 0.78590 0.90722 0.78584
 C1844 C 0.78099 0.91624 0.78090
 C1845 C 0.77531 0.92716 0.77513
 C1846 C 0.76456 0.93267 0.78050
 C1847 C 0.75951 0.94375 0.77537
 C1848 C 0.76516 0.94949 0.76479
 C1849 C 0.77579 0.94369 0.75928
 C1850 C 0.78082 0.93261 0.76443
 H1851 H 0.77797 0.89501 0.80662
 H1852 H 0.78803 0.87707 0.81687
 H1853 H 0.81756 0.87781 0.78845
 H1854 H 0.80725 0.89571 0.77845
 H1855 H 0.76024 0.92854 0.78881
 H1856 H 0.75136 0.94796 0.77991
 H1857 H 0.78043 0.94787 0.75118
 H1858 H 0.78917 0.92845 0.76021
 C1859 C 0.45825 0.85373 0.29151
 C1860 C 0.44715 0.85876 0.28643
 C1861 C 0.44114 0.86891 0.29237
 C1862 C 0.44616 0.87419 0.30353
 C1863 C 0.45732 0.86899 0.30857
 C1864 C 0.46331 0.85884 0.30260
 C1865 C 0.46433 0.84318 0.28546
 C1866 C 0.46930 0.83423 0.28048
 C1867 C 0.47502 0.82334 0.27470
 C1868 C 0.46945 0.81778 0.26408
 C1869 C 0.47447 0.80667 0.25899
 C1870 C 0.48514 0.80095 0.26449
 C1871 C 0.49087 0.80681 0.27499
 C1872 C 0.48583 0.81793 0.28005
 H1873 H 0.44311 0.85482 0.27787
 H1874 H 0.43259 0.87257 0.28816
 H1875 H 0.46150 0.87271 0.31712
 H1876 H 0.47187 0.85496 0.30665
 H1877 H 0.46106 0.82188 0.25989
 H1878 H 0.46977 0.80240 0.25096
 H1879 H 0.49906 0.80266 0.27951
 H1880 H 0.49020 0.82215 0.28830
 C1881 C -0.04156 0.85370 0.79201
 C1882 C -0.05266 0.85873 0.78693
 C1883 C -0.05866 0.86891 0.79284
 C1884 C -0.05363 0.87424 0.80397
 C1885 C -0.04244 0.86907 0.80900
 C1886 C -0.03647 0.85888 0.80306
 C1887 C -0.03550 0.84310 0.78599
 C1888 C -0.03055 0.83412 0.78102
 C1889 C -0.02483 0.82320 0.77524
 C1890 C -0.03034 0.81771 0.76454
 C1891 C -0.02531 0.80661 0.75943
 C1892 C -0.01468 0.80082 0.76497
 C1893 C -0.00902 0.80663 0.77553
 C1894 C -0.01407 0.81773 0.78062
 H1895 H -0.05672 0.85476 0.77840
 H1896 H -0.06723 0.87254 0.78865
 H1897 H -0.03824 0.87284 0.81752
 H1898 H -0.02789 0.85503 0.80710
 H1899 H -0.03869 0.82185 0.76031
 H1900 H -0.02996 0.80239 0.75134
 H1901 H -0.00087 0.80243 0.78008
 H1902 H -0.00973 0.82190 0.78892
 C1903 C -0.04154 -0.10400 -0.04151
 C1904 C -0.05270 -0.10898 -0.03650
 C1905 C -0.05871 -0.11914 -0.04246
 C1906 C -0.05363 -0.12447 -0.05354
 C1907 C -0.04241 -0.11933 -0.05851
 C1908 C -0.03642 -0.10918 -0.05253
 C1909 C -0.03547 -0.09343 -0.03549
 C1910 C -0.03048 -0.08444 -0.03056
 C1911 C -0.02474 -0.07351 -0.02487
 C1912 C -0.03021 -0.06797 -0.01418
 C1913 C -0.02520 -0.05681 -0.00919
 C1914 C -0.01465 -0.05101 -0.01485
 C1915 C -0.00902 -0.05686 -0.02539
 C1916 C -0.01405 -0.06803 -0.03036
 H1917 H -0.05677 -0.10501 -0.02798
 H1918 H -0.06729 -0.12279 -0.03830
 H1919 H -0.03820 -0.12307 -0.06704
 H1920 H -0.02780 -0.10535 -0.05652
 H1921 H -0.03851 -0.07214 -0.00988
 H1922 H -0.02982 -0.05256 -0.00111
 H1923 H -0.00093 -0.05264 -0.03003
 H1924 H -0.00976 -0.07223 -0.03865
 C1925 C -0.04235 0.39638 0.45863
 C1926 C -0.05331 0.39107 0.46372
 C1927 C -0.05911 0.38078 0.45777
 C1928 C -0.05404 0.37560 0.44657
 C1929 C -0.04300 0.38115 0.44152
 C1930 C -0.03723 0.39142 0.44752
 C1931 C -0.03644 0.40703 0.46469
 C1932 C -0.03151 0.41605 0.46964
 C1933 C -0.02576 0.42698 0.47534
 C1934 C -0.03125 0.43258 0.48598
 C1935 C -0.02616 0.44369 0.49102
 C1936 C -0.01551 0.44938 0.48545
 C1937 C -0.00987 0.44349 0.47493
 C1938 C -0.01498 0.43238 0.46991
 H1939 H -0.05739 0.39488 0.47230
 H1940 H -0.06757 0.37699 0.46204
 H1941 H -0.03869 0.37765 0.43296
 H1942 H -0.02876 0.39551 0.44347
 H1943 H -0.03962 0.42850 0.49023
 H1944 H -0.03079 0.44798 0.49908
 H1945 H -0.00171 0.44763 0.47036
 H1946 H -0.01068 0.42815 0.46164
 C1947 C 0.45817 -0.10343 0.45799
 C1948 C 0.44708 -0.10851 0.46301
 C1949 C 0.44119 -0.11878 0.45714
 C1950 C 0.44631 -0.12421 0.44607
 C1951 C 0.45749 -0.11890 0.44107
 C1952 C 0.46333 -0.10861 0.44699
 C1953 C 0.46416 -0.09281 0.46404
 C1954 C 0.46909 -0.08382 0.46905
 C1955 C 0.47481 -0.07293 0.47486
 C1956 C 0.46924 -0.06737 0.48549
 C1957 C 0.47430 -0.05628 0.49062
 C1958 C 0.48502 -0.05058 0.48517
 C1959 C 0.49075 -0.05646 0.47469
 C1960 C 0.48567 -0.06754 0.46958
 H1961 H 0.44296 -0.10453 0.47150
 H1962 H 0.43265 -0.12240 0.46140
 H1963 H 0.46183 -0.12259 0.43260
 H1964 H 0.47189 -0.10469 0.44297
 H1965 H 0.46083 -0.07145 0.48964
 H1966 H 0.46961 -0.05200 0.49864
 H1967 H 0.49897 -0.05233 0.47021
 H1968 H 0.49005 -0.07177 0.46135
 C1969 C 0.45784 0.39645 -0.04157
 C1970 C 0.44699 0.39104 -0.03636
 C1971 C 0.44118 0.38073 -0.04227
 C1972 C 0.44615 0.37562 -0.05356
 C1973 C 0.45710 0.38127 -0.05871
 C1974 C 0.46286 0.39156 -0.05275
 C1975 C 0.46375 0.40712 -0.03554
 C1976 C 0.46865 0.41616 -0.03061
 C1977 C 0.47439 0.42712 -0.02494
 C1978 C 0.46897 0.43266 -0.01423
 C1979 C 0.47403 0.44380 -0.00923
 C1980 C 0.48460 0.44957 -0.01490
 C1981 C 0.49018 0.44372 -0.02547
 C1982 C 0.48509 0.43258 -0.03045
 H1983 H 0.44299 0.39479 -0.02771
 H1984 H 0.43281 0.37686 -0.03790
 H1985 H 0.46133 0.37782 -0.06733
 H1986 H 0.47124 0.39572 -0.05690
 H1987 H 0.46067 0.42852 -0.00991
 H1988 H 0.46946 0.44806 -0.00113
 H1989 H 0.49827 0.44791 -0.03012
 H1990 H 0.48935 0.42838 -0.03876
 C1991 C 0.79112 0.35491 0.45990
 C1992 C 0.78612 0.35964 0.44862
 C1993 C 0.79211 0.36961 0.44237
 C1994 C 0.80323 0.37502 0.44732
 C1995 C 0.80819 0.37014 0.45867
 C1996 C 0.80217 0.36017 0.46490
 C1997 C 0.78506 0.34448 0.46616
 C1998 C 0.78009 0.33558 0.47122
 C1999 C 0.77434 0.32467 0.47694
 C2000 C 0.76358 0.31926 0.47148
 C2001 C 0.75870 0.30794 0.47623
 C2002 C 0.76456 0.30185 0.48651
 C2003 C 0.77510 0.30764 0.49223
 C2004 C 0.77996 0.31896 0.48745
 H2005 H 0.77760 0.35559 0.44463
 H2006 H 0.78798 0.37302 0.43368
 H2007 H 0.81671 0.37397 0.46280
 H2008 H 0.80616 0.35653 0.47359
 H2009 H 0.75917 0.32359 0.46332
 H2010 H 0.75060 0.30376 0.47157
 H2011 H 0.77988 0.30322 0.50012
 H2012 H 0.78832 0.32306 0.49172
 C2013 C 0.79127 0.85499 -0.04027
 C2014 C 0.80243 0.86010 -0.03537
 C2015 C 0.80845 0.87008 -0.04158
 C2016 C 0.80339 0.87511 -0.05282
 C2017 C 0.79217 0.86983 -0.05767
 C2018 C 0.78617 0.85985 -0.05145
 C2019 C 0.78518 0.84457 -0.03401
 C2020 C 0.78017 0.83569 -0.02896
 C2021 C 0.77435 0.82481 -0.02325
 C2022 C 0.77995 0.81906 -0.01275
 C2023 C 0.77501 0.80779 -0.00795
 C2024 C 0.76440 0.80209 -0.01364
 C2025 C 0.75857 0.80822 -0.02390
 C2026 C 0.76353 0.81949 -0.02867
 H2027 H 0.80650 0.85634 -0.02676
 H2028 H 0.81706 0.87380 -0.03752
 H2029 H 0.78794 0.87336 -0.06627
 H2030 H 0.77757 0.85590 -0.05537
 H2031 H 0.78835 0.82310 -0.00849
 H2032 H 0.77976 0.80333 -0.00006
 H2033 H 0.75042 0.80411 -0.02854
 H2034 H 0.75914 0.82387 -0.03682
 C2035 C 0.79055 0.29051 0.39486
 C2036 C 0.80162 0.28545 0.38973
 C2037 C 0.80771 0.29156 0.37973
 C2038 C 0.80280 0.30287 0.37470
 C2039 C 0.79163 0.30785 0.37995
 C2040 C 0.78557 0.30171 0.38994
 C2041 C 0.78449 0.28441 0.40539
 C2042 C 0.77955 0.27949 0.41438
 C2043 C 0.77387 0.27388 0.42538
 C2044 C 0.77924 0.26312 0.43085
 C2045 C 0.77445 0.25835 0.44219
 C2046 C 0.76421 0.26432 0.44825
 C2047 C 0.75861 0.27489 0.44242
 C2048 C 0.76343 0.27964 0.43108
 H2049 H 0.80559 0.27680 0.39351
 H2050 H 0.81625 0.28739 0.37601
 H2051 H 0.78753 0.31651 0.37642
 H2052 H 0.77703 0.30575 0.39389
 H2053 H 0.78735 0.25860 0.42653
 H2054 H 0.77902 0.25022 0.44640
 H2055 H 0.75075 0.27976 0.44681
 H2056 H 0.75922 0.28800 0.42693
 C2057 C 0.79014 0.79153 -0.10498
 C2058 C 0.80140 0.78658 -0.10979
 C2059 C 0.80752 0.79257 -0.11985
 C2060 C 0.80247 0.80363 -0.12527
 C2061 C 0.79113 0.80853 -0.12031
 C2062 C 0.78503 0.80252 -0.11025
 C2063 C 0.78400 0.78547 -0.09447
 C2064 C 0.77902 0.78049 -0.08552
 C2065 C 0.77332 0.77475 -0.07459
 C2066 C 0.77877 0.76400 -0.06916
 C2067 C 0.77393 0.75907 -0.05790
 C2068 C 0.76357 0.76487 -0.05188
 C2069 C 0.75789 0.77543 -0.05768
 C2070 C 0.76276 0.78033 -0.06894
 H2071 H 0.80548 0.77811 -0.10575
 H2072 H 0.81621 0.78847 -0.12331
 H2073 H 0.78692 0.81700 -0.12414
 H2074 H 0.77634 0.80646 -0.10655
 H2075 H 0.78697 0.75962 -0.07344
 H2076 H 0.77857 0.75098 -0.05371
 H2077 H 0.74994 0.78016 -0.05332
 H2078 H 0.75848 0.78867 -0.07305
 C2079 C 0.29167 0.45863 0.85376
 C2080 C 0.30261 0.46385 0.85903
 C2081 C 0.30852 0.45795 0.86927
 C2082 C 0.30358 0.44670 0.87439
 C2083 C 0.29255 0.44155 0.86898
 C2084 C 0.28666 0.44747 0.85875
 C2085 C 0.28570 0.46457 0.84307
 C2086 C 0.28078 0.46941 0.83401
 C2087 C 0.27505 0.47499 0.82301
 C2088 C 0.28037 0.48579 0.81754
 C2089 C 0.27532 0.49074 0.80638
 C2090 C 0.26486 0.48493 0.80052
 C2091 C 0.25941 0.47424 0.80627
 C2092 C 0.26449 0.46931 0.81743
 H2093 H 0.30659 0.47248 0.85521
 H2094 H 0.31695 0.46226 0.87312
 H2095 H 0.28842 0.43292 0.87257
 H2096 H 0.27821 0.44332 0.85472
 H2097 H 0.28857 0.49024 0.82175
 H2098 H 0.27980 0.49893 0.80220
 H2099 H 0.25142 0.46947 0.80201
 H2100 H 0.26032 0.46093 0.82157
 C2101 C 0.29232 -0.04182 0.35327
 C2102 C 0.30327 -0.03658 0.35850
 C2103 C 0.30919 -0.04243 0.36876
 C2104 C 0.30423 -0.05363 0.37396
 C2105 C 0.29321 -0.05883 0.36858
 C2106 C 0.28731 -0.05296 0.35832
 C2107 C 0.28633 -0.03588 0.34261
 C2108 C 0.28141 -0.03099 0.33358
 C2109 C 0.27569 -0.02532 0.32262
 C2110 C 0.28113 -0.01460 0.31711
 C2111 C 0.27605 -0.00956 0.30601
 C2112 C 0.26545 -0.01519 0.30025
 C2113 C 0.25989 -0.02581 0.30604
 C2114 C 0.26499 -0.03083 0.31714
 H2115 H 0.30725 -0.02798 0.35463
 H2116 H 0.31765 -0.03813 0.37254
 H2117 H 0.28905 -0.06739 0.37227
 H2118 H 0.27885 -0.05712 0.35432
 H2119 H 0.28943 -0.01028 0.32127
 H2120 H 0.28061 -0.00142 0.30180
 H2121 H 0.25177 -0.03043 0.30185
 H2122 H 0.26073 -0.03915 0.32131
 C2123 C -0.04177 -0.04254 -0.10345
 C2124 C -0.05275 -0.03730 -0.10857
 C2125 C -0.05873 -0.04309 -0.11883
 C2126 C -0.05384 -0.05430 -0.12420
 C2127 C -0.04275 -0.05948 -0.11887
 C2128 C -0.03680 -0.05364 -0.10861
 C2129 C -0.03572 -0.03661 -0.09279
 C2130 C -0.03080 -0.03169 -0.08377
 C2131 C -0.02512 -0.02594 -0.07282
 C2132 C -0.03069 -0.01530 -0.06727
 C2133 C -0.02566 -0.01017 -0.05618
 C2134 C -0.01497 -0.01564 -0.05045
 C2135 C -0.00927 -0.02617 -0.05627
 C2136 C -0.01432 -0.03127 -0.06737
 H2137 H -0.05671 -0.02872 -0.10462
 H2138 H -0.06719 -0.03868 -0.12246
 H2139 H -0.03856 -0.06804 -0.12254
 H2140 H -0.02832 -0.05781 -0.10467
 H2141 H -0.03907 -0.01112 -0.07140
 H2142 H -0.03033 -0.00211 -0.05195
 H2143 H -0.00107 -0.03066 -0.05211
 H2144 H -0.00995 -0.03953 -0.07156
 C2145 C -0.04223 0.45812 0.39666
 C2146 C -0.03715 0.44701 0.39164
 C2147 C -0.04298 0.44104 0.38138
 C2148 C -0.05407 0.44610 0.37593
 C2149 C -0.05908 0.45731 0.38116
 C2150 C -0.05321 0.46324 0.39142
 C2151 C -0.03621 0.46419 0.40726
 C2152 C -0.03122 0.46915 0.41623
 C2153 C -0.02541 0.47485 0.42714
 C2154 C -0.01477 0.46927 0.43265
 C2155 C -0.00965 0.47429 0.44376
 C2156 C -0.01513 0.48496 0.44953
 C2157 C -0.02563 0.49068 0.44371
 C2158 C -0.03074 0.48564 0.43260
 H2159 H -0.02867 0.44292 0.39569
 H2160 H -0.03874 0.43244 0.37787
 H2161 H -0.06756 0.46160 0.37747
 H2162 H -0.05727 0.47182 0.39525
 H2163 H -0.01058 0.46089 0.42850
 H2164 H -0.00159 0.46960 0.44798
 H2165 H -0.03013 0.49887 0.44789
 H2166 H -0.03898 0.49003 0.42842
 C2167 C 0.45851 -0.04241 0.39655
 C2168 C 0.44746 -0.03723 0.39152
 C2169 C 0.44147 -0.04301 0.38127
 C2170 C 0.44646 -0.05412 0.37587
 C2171 C 0.45758 -0.05927 0.38105
 C2172 C 0.46355 -0.05346 0.39132
 C2173 C 0.46456 -0.03649 0.40719
 C2174 C 0.46947 -0.03157 0.41621
 C2175 C 0.47511 -0.02579 0.42715
 C2176 C 0.46952 -0.01513 0.43261
 C2177 C 0.47449 -0.00998 0.44372
 C2178 C 0.48513 -0.01545 0.44953
 C2179 C 0.49085 -0.02601 0.44378
 C2180 C 0.48585 -0.03114 0.43268
 H2181 H 0.44345 -0.02870 0.39555
 H2182 H 0.43297 -0.03871 0.37761
 H2183 H 0.46174 -0.06779 0.37724
 H2184 H 0.47208 -0.05759 0.39518
 H2185 H 0.46117 -0.01094 0.42842
 H2186 H 0.46980 -0.00189 0.44789
 H2187 H 0.49901 -0.03051 0.44801
 H2188 H 0.49023 -0.03942 0.42854
 C2189 C 0.45803 0.45832 -0.10388
 C2190 C 0.44701 0.46343 -0.10908
 C2191 C 0.44110 0.45747 -0.11930
 C2192 C 0.44614 0.44628 -0.12448
 C2193 C 0.45725 0.44125 -0.11916
 C2194 C 0.46314 0.44723 -0.10894
 C2195 C 0.46396 0.46430 -0.09319
 C2196 C 0.46883 0.46918 -0.08412
 C2197 C 0.47447 0.47482 -0.07310
 C2198 C 0.46896 0.48550 -0.06756
 C2199 C 0.47395 0.49053 -0.05641
 C2200 C 0.48454 0.48492 -0.05061
 C2201 C 0.49017 0.47435 -0.05642
 C2202 C 0.48515 0.46934 -0.06758
 H2203 H 0.44297 0.47201 -0.10521
 H2204 H 0.43261 0.46169 -0.12309
 H2205 H 0.46145 0.43268 -0.12280
 H2206 H 0.47165 0.44317 -0.10497
 H2207 H 0.46065 0.48979 -0.07174
 H2208 H 0.46933 0.49862 -0.05219
 H2209 H 0.49827 0.46974 -0.05220
 H2210 H 0.48946 0.46105 -0.07176
 C2211 C 0.45880 0.79276 0.35318
 C2212 C 0.46385 0.80383 0.35839
 C2213 C 0.45792 0.80965 0.36867
 C2214 C 0.44682 0.80449 0.37390
 C2215 C 0.44181 0.79338 0.36851
 C2216 C 0.44775 0.78759 0.35824
 C2217 C 0.46487 0.78678 0.34258
 C2218 C 0.46982 0.78179 0.33361
 C2219 C 0.47552 0.77595 0.32273
 C2220 C 0.48624 0.78134 0.31719
 C2221 C 0.49125 0.77620 0.30610
 C2222 C 0.48559 0.76557 0.30039
 C2223 C 0.47502 0.76002 0.30626
 C2224 C 0.47004 0.76518 0.31735
 H2225 H 0.47236 0.80796 0.35449
 H2226 H 0.46209 0.81818 0.37246
 H2227 H 0.43331 0.78908 0.37219
 H2228 H 0.44372 0.77906 0.35424
 H2229 H 0.49056 0.78968 0.32128
 H2230 H 0.49936 0.78076 0.30183
 H2231 H 0.47039 0.75188 0.30212
 H2232 H 0.46174 0.76094 0.32157
 C2233 C -0.04210 0.79266 0.85296
 C2234 C -0.03702 0.80366 0.85823
 C2235 C -0.04287 0.80936 0.86861
 C2236 C -0.05391 0.80411 0.87389
 C2237 C -0.05901 0.79311 0.86837
 C2238 C -0.05313 0.78743 0.85800
 C2239 C -0.03602 0.78674 0.84236
 C2240 C -0.03101 0.78180 0.83341
 C2241 C -0.02523 0.77600 0.82257
 C2242 C -0.01445 0.78138 0.81713
 C2243 C -0.00932 0.77622 0.80612
 C2244 C -0.01493 0.76559 0.80038
 C2245 C -0.02558 0.76006 0.80613
 C2246 C -0.03068 0.76524 0.81714
 H2247 H -0.02850 0.80781 0.85436
 H2248 H -0.03863 0.81780 0.87252
 H2249 H -0.06750 0.78880 0.87204
 H2250 H -0.05718 0.77894 0.85393
 H2251 H -0.01018 0.78973 0.82126
 H2252 H -0.00116 0.78076 0.80193
 H2253 H -0.03017 0.75191 0.80196
 H2254 H -0.03904 0.76102 0.82127
 C2255 C 0.39675 0.79193 0.29194
 C2256 C 0.39172 0.78690 0.30306
 C2257 C 0.38146 0.79277 0.30895
 C2258 C 0.37608 0.80380 0.30380
 C2259 C 0.38126 0.80878 0.29261
 C2260 C 0.39152 0.80289 0.28673
 C2261 C 0.40742 0.78599 0.28597
 C2262 C 0.41647 0.78113 0.28106
 C2263 C 0.42745 0.77552 0.27535
 C2264 C 0.43297 0.76480 0.28075
 C2265 C 0.44411 0.75981 0.27570
 C2266 C 0.44990 0.76552 0.26517
 C2267 C 0.44409 0.77614 0.25964
 C2268 C 0.43296 0.78110 0.26471
 H2269 H 0.39573 0.77844 0.30719
 H2270 H 0.37778 0.78859 0.31751
 H2271 H 0.37748 0.81725 0.28834
 H2272 H 0.39538 0.80690 0.27815
 H2273 H 0.42881 0.76043 0.28901
 H2274 H 0.44833 0.75167 0.28024
 H2275 H 0.44830 0.78081 0.25157
 H2276 H 0.42877 0.78943 0.26048
 C2277 C -0.10342 0.79192 0.79187
 C2278 C -0.10865 0.78684 0.80288
 C2279 C -0.11887 0.79280 0.80874
 C2280 C -0.12405 0.80397 0.80367
 C2281 C -0.11868 0.80899 0.79257
 C2282 C -0.10845 0.80300 0.78674
 C2283 C -0.09275 0.78589 0.78596
 C2284 C -0.08371 0.78094 0.78111
 C2285 C -0.07273 0.77522 0.77548
 C2286 C -0.06717 0.76462 0.78108
 C2287 C -0.05604 0.75954 0.77609
 C2288 C -0.05030 0.76503 0.76542
 C2289 C -0.05614 0.77552 0.75969
 C2290 C -0.06727 0.78058 0.76471
 H2291 H -0.10480 0.77827 0.80696
 H2292 H -0.12267 0.78860 0.81724
 H2293 H -0.12232 0.81753 0.78834
 H2294 H -0.10445 0.80704 0.77823
 H2295 H -0.07129 0.76042 0.78945
 H2296 H -0.05178 0.75152 0.78080
 H2297 H -0.05197 0.78004 0.75152
 H2298 H -0.07147 0.78881 0.76032
 C2299 C 0.85513 0.29075 0.45955
 C2300 C 0.86020 0.28566 0.44846
 C2301 C 0.87017 0.29176 0.44232
 C2302 C 0.87525 0.30308 0.44720
 C2303 C 0.87001 0.30813 0.45835
 C2304 C 0.86004 0.30200 0.46446
 C2305 C 0.84471 0.28457 0.46570
 C2306 C 0.83581 0.27951 0.47069
 C2307 C 0.82493 0.27369 0.47638
 C2308 C 0.81932 0.26314 0.47069
 C2309 C 0.80805 0.25822 0.47549
 C2310 C 0.80220 0.26383 0.48605
 C2311 C 0.80819 0.27414 0.49199
 C2312 C 0.81946 0.27904 0.48716
 H2313 H 0.85643 0.27697 0.44455
 H2314 H 0.87385 0.28754 0.43378
 H2315 H 0.87355 0.31683 0.46239
 H2316 H 0.85614 0.30606 0.47302
 H2317 H 0.82346 0.25895 0.46232
 H2318 H 0.80371 0.25030 0.47066
 H2319 H 0.80396 0.27872 0.50010
 H2320 H 0.82371 0.28723 0.49161
 C2321 C 0.85477 0.79011 -0.04113
 C2322 C 0.85989 0.78505 -0.05220
 C2323 C 0.86988 0.79118 -0.05828
 C2324 C 0.87491 0.80249 -0.05334
 C2325 C 0.86961 0.80752 -0.04222
 C2326 C 0.85962 0.80137 -0.03617
 C2327 C 0.84434 0.78391 -0.03501
 C2328 C 0.83544 0.77889 -0.03000
 C2329 C 0.82454 0.77318 -0.02424
 C2330 C 0.81880 0.76267 -0.02987
 C2331 C 0.80749 0.75790 -0.02501
 C2332 C 0.80174 0.76362 -0.01446
 C2333 C 0.80785 0.77389 -0.00859
 C2334 C 0.81916 0.77864 -0.01348
 H2335 H 0.85614 0.77638 -0.05617
 H2336 H 0.87358 0.78704 -0.06685
 H2337 H 0.87320 0.81615 -0.03808
 H2338 H 0.85568 0.80539 -0.02762
 H2339 H 0.82288 0.75839 -0.03823
 H2340 H 0.80305 0.75000 -0.02979
 H2341 H 0.80370 0.77855 -0.00048
 H2342 H 0.82351 0.78680 -0.00907
 C2343 C -0.10333 -0.04166 -0.04211
 C2344 C -0.10855 -0.05265 -0.03695
 C2345 C -0.11882 -0.05853 -0.04283
 C2346 C -0.12403 -0.05351 -0.05400
 C2347 C -0.11865 -0.04246 -0.05913
 C2348 C -0.10838 -0.03660 -0.05322
 C2349 C -0.09270 -0.03567 -0.03611
 C2350 C -0.08370 -0.03073 -0.03117
 C2351 C -0.07276 -0.02501 -0.02546
 C2352 C -0.06732 -0.03043 -0.01471
 C2353 C -0.05618 -0.02541 -0.00966
 C2354 C -0.05032 -0.01489 -0.01533
 C2355 C -0.05608 -0.00932 -0.02596
 C2356 C -0.06721 -0.01436 -0.03098
 H2357 H -0.10467 -0.05668 -0.02838
 H2358 H -0.12262 -0.06700 -0.03857
 H2359 H -0.12232 -0.03826 -0.06767
 H2360 H -0.10437 -0.02813 -0.05733
 H2361 H -0.07153 -0.03869 -0.01037
 H2362 H -0.05201 -0.02997 -0.00151
 H2363 H -0.05182 -0.00126 -0.03061
 H2364 H -0.07134 -0.01011 -0.03932
 C2365 C -0.10355 0.45828 0.45807
 C2366 C -0.10849 0.46326 0.44688
 C2367 C -0.11877 0.45741 0.44097
 C2368 C -0.12427 0.44647 0.44619
 C2369 C -0.11918 0.44154 0.45745
 C2370 C -0.10890 0.44741 0.46333
 C2371 C -0.09288 0.46423 0.46406
 C2372 C -0.08385 0.46912 0.46899
 C2373 C -0.07289 0.47478 0.47472
 C2374 C -0.06737 0.48550 0.46929
 C2375 C -0.05625 0.49053 0.47435
 C2376 C -0.05047 0.48488 0.48492
 C2377 C -0.05628 0.47427 0.49048
 C2378 C -0.06740 0.46926 0.48540
 H2379 H -0.10439 0.47166 0.44270
 H2380 H -0.12235 0.46153 0.43234
 H2381 H -0.12308 0.43316 0.46179
 H2382 H -0.10512 0.44345 0.47198
 H2383 H -0.07153 0.48982 0.46100
 H2384 H -0.05203 0.49866 0.46979
 H2385 H -0.05208 0.46963 0.49858
 H2386 H -0.07158 0.46094 0.48965
 C2387 C 0.39704 -0.04190 0.45705
 C2388 C 0.39211 -0.03711 0.44578
 C2389 C 0.38168 -0.04291 0.44009
 C2390 C 0.37596 -0.05363 0.44560
 C2391 C 0.38119 -0.05842 0.45690
 C2392 C 0.39161 -0.05260 0.46255
 C2393 C 0.40769 -0.03586 0.46297
 C2394 C 0.41667 -0.03088 0.46793
 C2395 C 0.42751 -0.02510 0.47375
 C2396 C 0.43302 -0.01437 0.46833
 C2397 C 0.44402 -0.00921 0.47353
 C2398 C 0.44968 -0.01474 0.48423
 C2399 C 0.44387 -0.02535 0.48978
 C2400 C 0.43287 -0.03048 0.48456
 H2401 H 0.39629 -0.02885 0.44141
 H2402 H 0.37815 -0.03883 0.43142
 H2403 H 0.37729 -0.06665 0.46153
 H2404 H 0.39542 -0.05643 0.47125
 H2405 H 0.42896 -0.01015 0.45994
 H2406 H 0.44825 -0.00110 0.46895
 H2407 H 0.44799 -0.02989 0.49797
 H2408 H 0.42869 -0.03880 0.48881
 C2409 C 0.39595 0.45906 -0.04230
 C2410 C 0.39090 0.44803 -0.03709
 C2411 C 0.38067 0.44200 -0.04288
 C2412 C 0.37528 0.44689 -0.05407
 C2413 C 0.38053 0.45803 -0.05921
 C2414 C 0.39075 0.46404 -0.05336
 C2415 C 0.40662 0.46511 -0.03640
 C2416 C 0.41568 0.47002 -0.03152
 C2417 C 0.42667 0.47566 -0.02582
 C2418 C 0.43212 0.47018 -0.01510
 C2419 C 0.44327 0.47514 -0.01004
 C2420 C 0.44914 0.48569 -0.01564
 C2421 C 0.44340 0.49131 -0.02625
 C2422 C 0.43225 0.48632 -0.03130
 H2423 H 0.39489 0.44406 -0.02854
 H2424 H 0.37711 0.43349 -0.03850
 H2425 H 0.37682 0.46223 -0.06774
 H2426 H 0.39463 0.47256 -0.05751
 H2427 H 0.42789 0.46190 -0.01081
 H2428 H 0.44744 0.47052 -0.00192
 H2429 H 0.44768 0.49938 -0.03087
 H2430 H 0.42813 0.49062 -0.03962
 C2431 C 0.35376 0.45896 0.79177
 C2432 C 0.35870 0.44784 0.78660
 C2433 C 0.36882 0.44172 0.79247
 C2434 C 0.37418 0.44663 0.80363
 C2435 C 0.36911 0.45784 0.80874
 C2436 C 0.35898 0.46394 0.80284
 C2437 C 0.34317 0.46509 0.78584
 C2438 C 0.33417 0.47005 0.78094
 C2439 C 0.32323 0.47573 0.77522
 C2440 C 0.31783 0.47028 0.76445
 C2441 C 0.30668 0.47522 0.75938
 C2442 C 0.30076 0.48572 0.76504
 C2443 C 0.30647 0.49134 0.77568
 C2444 C 0.31761 0.48636 0.78073
 H2445 H 0.35471 0.44388 0.77804
 H2446 H 0.37237 0.43313 0.78822
 H2447 H 0.37291 0.46196 0.81728
 H2448 H 0.35521 0.47254 0.80694
 H2449 H 0.32208 0.46202 0.76013
 H2450 H 0.30254 0.47060 0.75124
 H2451 H 0.30215 0.49937 0.78034
 H2452 H 0.32170 0.49064 0.78909
 C2453 C 0.35356 -0.04124 0.29181
 C2454 C 0.35858 -0.05233 0.28668
 C2455 C 0.36868 -0.05841 0.29263
 C2456 C 0.37392 -0.05346 0.30383
 C2457 C 0.36875 -0.04229 0.30891
 C2458 C 0.35865 -0.03624 0.30293
 C2459 C 0.34301 -0.03514 0.28581
 C2460 C 0.33404 -0.03017 0.28087
 C2461 C 0.32313 -0.02446 0.27515
 C2462 C 0.31774 -0.02986 0.26435
 C2463 C 0.30660 -0.02488 0.25930
 C2464 C 0.30068 -0.01442 0.26503
 C2465 C 0.30637 -0.00887 0.27571
 C2466 C 0.31751 -0.01387 0.28074
 H2467 H 0.35466 -0.05631 0.27809
 H2468 H 0.37231 -0.06697 0.28840
 H2469 H 0.37243 -0.03816 0.31750
 H2470 H 0.35479 -0.02767 0.30701
 H2471 H 0.32200 -0.03809 0.25999
 H2472 H 0.30247 -0.02944 0.25112
 H2473 H 0.30205 -0.00087 0.28041
 H2474 H 0.32158 -0.00966 0.28914
 C2475 C 0.14495 0.54028 0.70977
 C2476 C 0.13998 0.55145 0.71479
 C2477 C 0.12997 0.55756 0.70874
 C2478 C 0.12475 0.55259 0.69753
 C2479 C 0.12988 0.54135 0.69255
 C2480 C 0.13990 0.53526 0.69863
 C2481 C 0.15545 0.53416 0.71587
 C2482 C 0.16440 0.52920 0.72085
 C2483 C 0.17536 0.52353 0.72656
 C2484 C 0.18093 0.52913 0.73717
 C2485 C 0.19226 0.52436 0.74200
 C2486 C 0.19819 0.51392 0.73625
 C2487 C 0.19224 0.50809 0.72586
 C2488 C 0.18092 0.51288 0.72105
 H2489 H 0.14388 0.55546 0.72337
 H2490 H 0.12636 0.56617 0.71289
 H2491 H 0.12622 0.53721 0.68396
 H2492 H 0.14373 0.52665 0.69462
 H2493 H 0.17671 0.53740 0.74149
 H2494 H 0.19657 0.52912 0.74998
 H2495 H 0.19653 0.50006 0.72117
 H2496 H 0.17669 0.50849 0.71282
 C2497 C 0.14470 0.03985 0.21007
 C2498 C 0.13951 0.03470 0.19906
 C2499 C 0.12948 0.04077 0.19298
 C2500 C 0.12447 0.05211 0.19784
 C2501 C 0.12981 0.05721 0.20893
 C2502 C 0.13984 0.05112 0.21498
 C2503 C 0.15522 0.03377 0.21614
 C2504 C 0.16421 0.02883 0.22109
 C2505 C 0.17521 0.02323 0.22677
 C2506 C 0.18069 0.01247 0.22137
 C2507 C 0.19207 0.00775 0.22612
 C2508 C 0.19815 0.01376 0.23633
 C2509 C 0.19230 0.02430 0.24198
 C2510 C 0.18092 0.02900 0.23720
 H2511 H 0.14326 0.02602 0.19513
 H2512 H 0.12571 0.03653 0.18448
 H2513 H 0.12630 0.06590 0.21300
 H2514 H 0.14383 0.05522 0.22348
 H2515 H 0.17635 0.00795 0.21327
 H2516 H 0.19630 -0.00036 0.22152
 H2517 H 0.19670 0.02919 0.24982
 H2518 H 0.17677 0.03736 0.24143
 C2519 C 0.60556 0.71001 0.20957
 C2520 C 0.61075 0.71514 0.19856
 C2521 C 0.62074 0.70903 0.19245
 C2522 C 0.62570 0.69766 0.19727
 C2523 C 0.62041 0.69262 0.20839
 C2524 C 0.61042 0.69875 0.21447
 C2525 C 0.59498 0.71605 0.21562
 C2526 C 0.58595 0.72092 0.22056
 C2527 C 0.57490 0.72649 0.22622
 C2528 C 0.56945 0.73728 0.22089
 C2529 C 0.55811 0.74205 0.22568
 C2530 C 0.55203 0.73606 0.23589
 C2531 C 0.55781 0.72544 0.24144
 C2532 C 0.56916 0.72069 0.23661
 H2533 H 0.60702 0.72384 0.19465
 H2534 H 0.62453 0.71327 0.18397
 H2535 H 0.62389 0.68390 0.21242
 H2536 H 0.60644 0.69465 0.22296
 H2537 H 0.57380 0.74182 0.21281
 H2538 H 0.55392 0.75021 0.22114
 H2539 H 0.55339 0.72054 0.24925
 H2540 H 0.57327 0.71229 0.24079
 C2541 C 0.10503 0.70925 0.70994
 C2542 C 0.11003 0.71440 0.69886
 C2543 C 0.12007 0.70843 0.69271
 C2544 C 0.12527 0.69717 0.69755
 C2545 C 0.12011 0.69206 0.70871
 C2546 C 0.11007 0.69806 0.71484
 C2547 C 0.09454 0.71529 0.71611
 C2548 C 0.08560 0.72026 0.72110
 C2549 C 0.07467 0.72599 0.72679
 C2550 C 0.06922 0.73671 0.72132
 C2551 C 0.05791 0.74158 0.72608
 C2552 C 0.05186 0.73573 0.73639
 C2553 C 0.05768 0.72522 0.74211
 C2554 C 0.06900 0.72038 0.73732
 H2555 H 0.10615 0.72303 0.69495
 H2556 H 0.12371 0.71269 0.68418
 H2557 H 0.12376 0.68341 0.71274
 H2558 H 0.10621 0.69395 0.72338
 H2559 H 0.07353 0.74111 0.71314
 H2560 H 0.05371 0.74966 0.72142
 H2561 H 0.05331 0.72047 0.75004
 H2562 H 0.07312 0.71205 0.74161
 C2563 C 0.64657 0.20803 0.54100
 C2564 C 0.64161 0.21314 0.55212
 C2565 C 0.63130 0.20740 0.55804
 C2566 C 0.62578 0.19641 0.55291
 C2567 C 0.63089 0.19134 0.54171
 C2568 C 0.64120 0.19711 0.53582
 C2569 C 0.65727 0.21389 0.53502
 C2570 C 0.66634 0.21876 0.53016
 C2571 C 0.67735 0.22447 0.52459
 C2572 C 0.68287 0.23508 0.53024
 C2573 C 0.69402 0.24017 0.52532
 C2574 C 0.69982 0.23468 0.51468
 C2575 C 0.69402 0.22417 0.50890
 C2576 C 0.68286 0.21911 0.51384
 H2577 H 0.64573 0.22158 0.55624
 H2578 H 0.62772 0.21163 0.56662
 H2579 H 0.62697 0.18291 0.53745
 H2580 H 0.64500 0.19304 0.52722
 H2581 H 0.67869 0.23928 0.53859
 H2582 H 0.69823 0.24822 0.53005
 H2583 H 0.69824 0.21966 0.50074
 H2584 H 0.67868 0.21087 0.50942
 C2585 C 0.64619 0.70889 0.04159
 C2586 C 0.64108 0.69786 0.03641
 C2587 C 0.63088 0.69187 0.04229
 C2588 C 0.62563 0.69684 0.05347
 C2589 C 0.63089 0.70796 0.05859
 C2590 C 0.64108 0.71392 0.05269
 C2591 C 0.65683 0.71492 0.03565
 C2592 C 0.66586 0.71984 0.03077
 C2593 C 0.67683 0.72549 0.02509
 C2594 C 0.68221 0.72008 0.01430
 C2595 C 0.69336 0.72504 0.00926
 C2596 C 0.69931 0.73549 0.01499
 C2597 C 0.69365 0.74104 0.02568
 C2598 C 0.68249 0.73606 0.03069
 H2599 H 0.64499 0.69385 0.02784
 H2600 H 0.62717 0.68336 0.03801
 H2601 H 0.62719 0.71209 0.06717
 H2602 H 0.64501 0.72245 0.05681
 H2603 H 0.67793 0.71186 0.00993
 H2604 H 0.69748 0.72048 0.00108
 H2605 H 0.69799 0.74904 0.03037
 H2606 H 0.67843 0.74029 0.03908
 C2607 C 0.10538 0.04019 0.04009
 C2608 C 0.11026 0.05145 0.03518
 C2609 C 0.12023 0.05760 0.04129
 C2610 C 0.12549 0.05258 0.05244
 C2611 C 0.12049 0.04124 0.05729
 C2612 C 0.11051 0.03510 0.05115
 C2613 C 0.09488 0.03407 0.03398
 C2614 C 0.08591 0.02912 0.02900
 C2615 C 0.07493 0.02348 0.02330
 C2616 C 0.06922 0.02922 0.01285
 C2617 C 0.05788 0.02447 0.00804
 C2618 C 0.05205 0.01390 0.01366
 C2619 C 0.05812 0.00792 0.02388
 C2620 C 0.06947 0.01270 0.02866
 H2621 H 0.10631 0.05551 0.02665
 H2622 H 0.12372 0.06630 0.03725
 H2623 H 0.12422 0.03704 0.06581
 H2624 H 0.10677 0.02642 0.05507
 H2625 H 0.07336 0.03759 0.00865
 H2626 H 0.05347 0.02933 0.00019
 H2627 H 0.05391 -0.00020 0.02845
 H2628 H 0.07380 0.00820 0.03677
 C2629 C 0.10524 0.54044 0.54029
 C2630 C 0.11054 0.53523 0.55122
 C2631 C 0.12058 0.54132 0.55731
 C2632 C 0.12549 0.55274 0.55255
 C2633 C 0.12006 0.55788 0.54153
 C2634 C 0.11003 0.55178 0.53547
 C2635 C 0.09470 0.53435 0.53421
 C2636 C 0.08571 0.52940 0.52924
 C2637 C 0.07472 0.52375 0.52353
 C2638 C 0.06928 0.51295 0.52887
 C2639 C 0.05797 0.50811 0.52404
 C2640 C 0.05191 0.51405 0.51379
 C2641 C 0.05770 0.52466 0.50821
 C2642 C 0.06901 0.52947 0.51307
 H2643 H 0.10688 0.52648 0.55506
 H2644 H 0.12445 0.53702 0.56572
 H2645 H 0.12347 0.56665 0.53756
 H2646 H 0.10596 0.55593 0.52704
 H2647 H 0.07360 0.50846 0.53700
 H2648 H 0.05378 0.49997 0.52860
 H2649 H 0.05329 0.52952 0.50036
 H2650 H 0.07312 0.53786 0.50889
 C2651 C 0.60475 0.04119 0.54041
 C2652 C 0.60980 0.05235 0.53546
 C2653 C 0.61989 0.05835 0.54152
 C2654 C 0.62509 0.05326 0.55266
 C2655 C 0.61986 0.04206 0.55760
 C2656 C 0.60977 0.03608 0.55151
 C2657 C 0.59427 0.03510 0.53426
 C2658 C 0.58534 0.03010 0.52925
 C2659 C 0.57444 0.02434 0.52353
 C2660 C 0.56884 0.02987 0.51291
 C2661 C 0.55758 0.02497 0.50805
 C2662 C 0.55173 0.01448 0.51378
 C2663 C 0.55770 0.00872 0.52418
 C2664 C 0.56897 0.01363 0.52902
 H2665 H 0.60594 0.05641 0.52689
 H2666 H 0.62363 0.06691 0.53738
 H2667 H 0.62348 0.03786 0.56617
 H2668 H 0.60587 0.02748 0.55547
 H2669 H 0.57300 0.03817 0.50860
 H2670 H 0.55326 0.02967 0.50005
 H2671 H 0.55347 0.00066 0.52886
 H2672 H 0.57322 0.00930 0.53726
 C2673 C 0.60483 0.54094 0.03986
 C2674 C 0.60966 0.53597 0.05111
 C2675 C 0.61970 0.54196 0.05726
 C2676 C 0.62510 0.55305 0.05224
 C2677 C 0.62011 0.55798 0.04092
 C2678 C 0.61006 0.55196 0.03479
 C2679 C 0.59430 0.53488 0.03373
 C2680 C 0.58531 0.52990 0.02879
 C2681 C 0.57434 0.52418 0.02314
 C2682 C 0.56881 0.51351 0.02867
 C2683 C 0.55749 0.50865 0.02388
 C2684 C 0.55151 0.51445 0.01350
 C2685 C 0.55740 0.52490 0.00774
 C2686 C 0.56872 0.52973 0.01255
 H2687 H 0.60561 0.52748 0.05515
 H2688 H 0.62319 0.53784 0.06592
 H2689 H 0.62393 0.56648 0.03674
 H2690 H 0.60634 0.55595 0.02613
 H2691 H 0.57307 0.50915 0.03690
 H2692 H 0.55323 0.50062 0.02857
 H2693 H 0.55307 0.52963 -0.00023
 H2694 H 0.57291 0.53800 0.00822
 C2695 C 0.04056 0.03911 0.10551
 C2696 C 0.05159 0.03407 0.11075
 C2697 C 0.05758 0.04022 0.12080
 C2698 C 0.05263 0.05155 0.12576
 C2699 C 0.04152 0.05653 0.12037
 C2700 C 0.03556 0.05035 0.11033
 C2701 C 0.03458 0.03297 0.09495
 C2702 C 0.02966 0.02803 0.08594
 C2703 C 0.02401 0.02244 0.07490
 C2704 C 0.02961 0.01193 0.06918
 C2705 C 0.02484 0.00724 0.05778
 C2706 C 0.01440 0.01305 0.05193
 C2707 C 0.00856 0.02335 0.05802
 C2708 C 0.01336 0.02801 0.06941
 H2709 H 0.05558 0.02540 0.10704
 H2710 H 0.06609 0.03606 0.12462
 H2711 H 0.03739 0.06519 0.12384
 H2712 H 0.02706 0.05438 0.10629
 H2713 H 0.03789 0.00756 0.07333
 H2714 H 0.02959 -0.00067 0.05336
 H2715 H 0.00053 0.02808 0.05379
 H2716 H 0.00897 0.03618 0.07376
 C2717 C 0.04089 0.53954 0.60525
 C2718 C 0.03577 0.55068 0.61017
 C2719 C 0.04175 0.55690 0.62018
 C2720 C 0.05298 0.55205 0.62543
 C2721 C 0.05805 0.54083 0.62036
 C2722 C 0.05204 0.53464 0.61034
 C2723 C 0.03485 0.53334 0.59476
 C2724 C 0.02988 0.52836 0.58579
 C2725 C 0.02415 0.52273 0.57483
 C2726 C 0.01343 0.52826 0.56942
 C2727 C 0.00855 0.52358 0.55808
 C2728 C 0.01437 0.51329 0.55195
 C2729 C 0.02487 0.50751 0.55772
 C2730 C 0.02973 0.51222 0.56907
 H2731 H 0.02717 0.55460 0.60624
 H2732 H 0.03752 0.56548 0.62374
 H2733 H 0.06667 0.53679 0.62405
 H2734 H 0.05613 0.52605 0.60655
 H2735 H 0.00905 0.53642 0.57380
 H2736 H 0.00047 0.52828 0.55392
 H2737 H 0.02961 0.49960 0.55326
 H2738 H 0.03805 0.50789 0.57316
 C2739 C 0.54060 0.04088 0.60494
 C2740 C 0.53604 0.05241 0.60949
 C2741 C 0.54198 0.05837 0.61969
 C2742 C 0.55261 0.05286 0.62559
 C2743 C 0.55712 0.04125 0.62079
 C2744 C 0.55117 0.03534 0.61058
 C2745 C 0.53456 0.03482 0.59436
 C2746 C 0.52962 0.02983 0.58538
 C2747 C 0.52394 0.02408 0.57443
 C2748 C 0.51322 0.02950 0.56891
 C2749 C 0.50834 0.02458 0.55765
 C2750 C 0.51417 0.01418 0.55172
 C2751 C 0.52469 0.00854 0.55759
 C2752 C 0.52954 0.01348 0.56886
 H2753 H 0.52789 0.05681 0.60514
 H2754 H 0.53810 0.06727 0.62290
 H2755 H 0.56527 0.03661 0.62483
 H2756 H 0.55483 0.02644 0.60708
 H2757 H 0.50883 0.03773 0.57314
 H2758 H 0.50027 0.02920 0.55340
 H2759 H 0.52945 0.00057 0.55329
 H2760 H 0.53787 0.00924 0.57303
 C2761 C 0.54023 0.54028 0.10505
 C2762 C 0.55137 0.53525 0.11006
 C2763 C 0.55747 0.54129 0.12011
 C2764 C 0.55251 0.55251 0.12531
 C2765 C 0.54129 0.55749 0.12016
 C2766 C 0.53522 0.55141 0.11011
 C2767 C 0.53414 0.53419 0.09452
 C2768 C 0.52918 0.52923 0.08554
 C2769 C 0.52351 0.52355 0.07456
 C2770 C 0.52915 0.51302 0.06889
 C2771 C 0.52436 0.50821 0.05755
 C2772 C 0.51386 0.51392 0.05170
 C2773 C 0.50799 0.52424 0.05773
 C2774 C 0.51281 0.52902 0.06907
 H2775 H 0.55537 0.52666 0.10617
 H2776 H 0.56605 0.53713 0.12374
 H2777 H 0.53716 0.56609 0.12381
 H2778 H 0.52663 0.55543 0.10625
 H2779 H 0.53746 0.50873 0.07305
 H2780 H 0.52914 0.50030 0.05317
 H2781 H 0.49992 0.52889 0.05350
 H2782 H 0.50839 0.53719 0.07337
 C2783 C 0.20953 0.53993 0.64467
 C2784 C 0.21446 0.55124 0.63995
 C2785 C 0.20846 0.55743 0.62994
 C2786 C 0.19740 0.55239 0.62448
 C2787 C 0.19254 0.54097 0.62933
 C2788 C 0.19857 0.53481 0.63934
 C2789 C 0.21552 0.53380 0.65523
 C2790 C 0.22042 0.52885 0.66425
 C2791 C 0.22605 0.52323 0.67528
 C2792 C 0.23674 0.52875 0.68078
 C2793 C 0.24154 0.52404 0.69215
 C2794 C 0.23569 0.51373 0.69819
 C2795 C 0.22520 0.50798 0.69234
 C2796 C 0.22042 0.51272 0.68097
 H2797 H 0.22291 0.55533 0.64404
 H2798 H 0.21250 0.56618 0.62657
 H2799 H 0.18409 0.53675 0.62544
 H2800 H 0.19465 0.52607 0.64296
 H2801 H 0.24116 0.53692 0.67647
 H2802 H 0.24959 0.52874 0.69638
 H2803 H 0.22042 0.50006 0.69672
 H2804 H 0.21212 0.50839 0.67681
 C2805 C 0.20921 0.03952 0.14467
 C2806 C 0.21427 0.05075 0.13989
 C2807 C 0.20830 0.05699 0.12990
 C2808 C 0.19714 0.05209 0.12452
 C2809 C 0.19214 0.04077 0.12944
 C2810 C 0.19814 0.03455 0.13944
 C2811 C 0.21521 0.03331 0.15518
 C2812 C 0.22014 0.02831 0.16414
 C2813 C 0.22585 0.02266 0.17512
 C2814 C 0.23664 0.02811 0.18049
 C2815 C 0.24152 0.02339 0.19182
 C2816 C 0.23563 0.01316 0.19797
 C2817 C 0.22505 0.00747 0.19223
 C2818 C 0.22019 0.01221 0.18090
 H2819 H 0.22281 0.05472 0.14391
 H2820 H 0.21246 0.06566 0.12647
 H2821 H 0.18360 0.03666 0.12562
 H2822 H 0.19411 0.02588 0.14311
 H2823 H 0.24108 0.03623 0.17610
 H2824 H 0.24966 0.02803 0.19595
 H2825 H 0.22024 -0.00038 0.19670
 H2826 H 0.21181 0.00795 0.17684
 C2827 C 0.70763 0.20815 0.60295
 C2828 C 0.71288 0.19720 0.60817
 C2829 C 0.70716 0.19141 0.61857
 C2830 C 0.69610 0.19651 0.62393
 C2831 C 0.69083 0.20745 0.61849
 C2832 C 0.69657 0.21322 0.60809
 C2833 C 0.71358 0.21414 0.59231
 C2834 C 0.71852 0.21910 0.58334
 C2835 C 0.72429 0.22488 0.57248
 C2836 C 0.73512 0.21952 0.56712
 C2837 C 0.74028 0.22464 0.55610
 C2838 C 0.73465 0.23519 0.55027
 C2839 C 0.72395 0.24070 0.55594
 C2840 C 0.71881 0.23556 0.56696
 H2841 H 0.72142 0.19317 0.60423
 H2842 H 0.71153 0.18303 0.62243
 H2843 H 0.68230 0.21164 0.62222
 H2844 H 0.69239 0.22166 0.60407
 H2845 H 0.73942 0.21123 0.57131
 H2846 H 0.74848 0.22011 0.55198
 H2847 H 0.71932 0.24878 0.55169
 H2848 H 0.71041 0.23976 0.57103
 C2849 C 0.70846 0.70950 0.10392
 C2850 C 0.69755 0.71465 0.10930
 C2851 C 0.69171 0.70863 0.11951
 C2852 C 0.69671 0.69735 0.12449
 C2853 C 0.70772 0.69228 0.11900
 C2854 C 0.71353 0.69832 0.10879
 C2855 C 0.71428 0.71549 0.09319
 C2856 C 0.71909 0.72033 0.08408
 C2857 C 0.72467 0.72589 0.07300
 C2858 C 0.71917 0.73654 0.06744
 C2859 C 0.72409 0.74146 0.05622
 C2860 C 0.73460 0.73575 0.05038
 C2861 C 0.74023 0.72520 0.05621
 C2862 C 0.73528 0.72031 0.06744
 H2863 H 0.69351 0.72329 0.10557
 H2864 H 0.68331 0.71289 0.12346
 H2865 H 0.71188 0.68364 0.12248
 H2866 H 0.72195 0.69422 0.10466
 H2867 H 0.71092 0.74091 0.07166
 H2868 H 0.71947 0.74954 0.05198
 H2869 H 0.74827 0.72052 0.05197
 H2870 H 0.73959 0.71203 0.07164
 C2871 C 0.54118 0.70998 0.14513
 C2872 C 0.55243 0.71482 0.14019
 C2873 C 0.55841 0.70871 0.13011
 C2874 C 0.55318 0.69766 0.12481
 C2875 C 0.54190 0.69284 0.12996
 C2876 C 0.53595 0.69896 0.14003
 C2877 C 0.53508 0.71619 0.15556
 C2878 C 0.53004 0.72124 0.16444
 C2879 C 0.52423 0.72699 0.17528
 C2880 C 0.52973 0.73763 0.18090
 C2881 C 0.52481 0.74248 0.19215
 C2882 C 0.51432 0.73671 0.19797
 C2883 C 0.50857 0.72631 0.19196
 C2884 C 0.51351 0.72149 0.18071
 H2885 H 0.55659 0.72332 0.14413
 H2886 H 0.56705 0.71275 0.12647
 H2887 H 0.53762 0.68432 0.12627
 H2888 H 0.52728 0.69508 0.14384
 H2889 H 0.53805 0.74194 0.17679
 H2890 H 0.52950 0.75047 0.19651
 H2891 H 0.50050 0.72162 0.19616
 H2892 H 0.50920 0.71323 0.17643
 C2893 C 0.04046 0.70986 0.64482
 C2894 C 0.03549 0.69868 0.63981
 C2895 C 0.04158 0.69258 0.62979
 C2896 C 0.05278 0.69759 0.62463
 C2897 C 0.05769 0.70886 0.62978
 C2898 C 0.05157 0.71493 0.63979
 C2899 C 0.03438 0.71596 0.65535
 C2900 C 0.02945 0.72094 0.66433
 C2901 C 0.02382 0.72665 0.67531
 C2902 C 0.01310 0.72123 0.68082
 C2903 C 0.00831 0.72605 0.69215
 C2904 C 0.01423 0.73636 0.69817
 C2905 C 0.02475 0.74201 0.69231
 C2906 C 0.02952 0.73717 0.68097
 H2907 H 0.02691 0.69464 0.64368
 H2908 H 0.03748 0.68395 0.62617
 H2909 H 0.06626 0.71304 0.62615
 H2910 H 0.05554 0.72356 0.64364
 H2911 H 0.00864 0.71306 0.67653
 H2912 H 0.00023 0.72143 0.69638
 H2913 H 0.02958 0.74992 0.69667
 H2914 H 0.03785 0.74142 0.67681
 C2915 C 0.53978 0.64501 0.20915
 C2916 C 0.53484 0.63988 0.19801
 C2917 C 0.54097 0.62982 0.19202
 C2918 C 0.55217 0.62472 0.19710
 C2919 C 0.55705 0.62999 0.20832
 C2920 C 0.55090 0.64005 0.21428
 C2921 C 0.53366 0.65557 0.21515
 C2922 C 0.52872 0.66458 0.22007
 C2923 C 0.52311 0.67560 0.22574
 C2924 C 0.51268 0.68137 0.22004
 C2925 C 0.50796 0.69274 0.22484
 C2926 C 0.51366 0.69852 0.23541
 C2927 C 0.52387 0.69238 0.24133
 C2928 C 0.52856 0.68101 0.23650
 H2929 H 0.52626 0.64370 0.19392
 H2930 H 0.53689 0.62611 0.18342
 H2931 H 0.56561 0.62641 0.21256
 H2932 H 0.55485 0.64399 0.22287
 H2933 H 0.50841 0.67727 0.21169
 H2934 H 0.50011 0.69719 0.22002
 H2935 H 0.52851 0.69656 0.24944
 H2936 H 0.53667 0.67663 0.24097
 C2937 C 0.03983 0.64485 0.70960
 C2938 C 0.05099 0.63993 0.71465
 C2939 C 0.05721 0.62998 0.70858
 C2940 C 0.05235 0.62479 0.69731
 C2941 C 0.04109 0.62985 0.69232
 C2942 C 0.03489 0.63980 0.69843
 C2943 C 0.03365 0.65534 0.71566
 C2944 C 0.02866 0.66431 0.72061
 C2945 C 0.02302 0.67531 0.72628
 C2946 C 0.02854 0.68080 0.73696
 C2947 C 0.02385 0.69218 0.74176
 C2948 C 0.01356 0.69826 0.73589
 C2949 C 0.00779 0.69240 0.72541
 C2950 C 0.01251 0.68101 0.72064
 H2951 H 0.05494 0.64382 0.72327
 H2952 H 0.06583 0.62643 0.71275
 H2953 H 0.03701 0.62619 0.68370
 H2954 H 0.02628 0.64358 0.69439
 H2955 H 0.03670 0.67648 0.74138
 H2956 H 0.02854 0.69641 0.74981
 H2957 H -0.00010 0.69680 0.72063
 H2958 H 0.00819 0.67685 0.71234
 C2959 C 0.04021 0.10475 0.04102
 C2960 C 0.05149 0.10951 0.03608
 C2961 C 0.05764 0.11957 0.04204
 C2962 C 0.05261 0.12503 0.05309
 C2963 C 0.04124 0.12012 0.05799
 C2964 C 0.03511 0.11006 0.05200
 C2965 C 0.03404 0.09422 0.03499
 C2966 C 0.02907 0.08524 0.03002
 C2967 C 0.02344 0.07427 0.02427
 C2968 C 0.02899 0.06883 0.01358
 C2969 C 0.02425 0.05750 0.00866
 C2970 C 0.01389 0.05144 0.01442
 C2971 C 0.00811 0.05726 0.02490
 C2972 C 0.01287 0.06858 0.02979
 H2973 H 0.05556 0.10542 0.02762
 H2974 H 0.06635 0.12299 0.03795
 H2975 H 0.03704 0.12399 0.06646
 H2976 H 0.02641 0.10639 0.05595
 H2977 H 0.03719 0.07315 0.00924
 H2978 H 0.02896 0.05331 0.00061
 H2979 H 0.00015 0.05286 0.02960
 H2980 H 0.00852 0.07270 0.03809
 C2981 C 0.04000 0.60523 0.54069
 C2982 C 0.05109 0.61024 0.53555
 C2983 C 0.05727 0.62027 0.54155
 C2984 C 0.05244 0.62548 0.55281
 C2985 C 0.04125 0.62035 0.55789
 C2986 C 0.03510 0.61031 0.55187
 C2987 C 0.03387 0.59467 0.53468
 C2988 C 0.02893 0.58565 0.52975
 C2989 C 0.02330 0.57462 0.52410
 C2990 C 0.02878 0.56912 0.51340
 C2991 C 0.02405 0.55774 0.50860
 C2992 C 0.01377 0.55168 0.51448
 C2993 C 0.00805 0.55754 0.52498
 C2994 C 0.01281 0.56892 0.52975
 H2995 H 0.05501 0.60634 0.52693
 H2996 H 0.06583 0.62387 0.53731
 H2997 H 0.03721 0.62403 0.56651
 H2998 H 0.02654 0.60646 0.55596
 H2999 H 0.03693 0.57344 0.50897
 H3000 H 0.02871 0.55351 0.50054
 H3001 H 0.00014 0.55316 0.52977
 H3002 H 0.00851 0.57308 0.53806
 C3003 C 0.54032 0.10523 0.54022
 C3004 C 0.55138 0.11033 0.53510
 C3005 C 0.55753 0.12034 0.54117
 C3006 C 0.55269 0.12540 0.55249
 C3007 C 0.54156 0.12015 0.55756
 C3008 C 0.53544 0.11015 0.55147
 C3009 C 0.53416 0.09474 0.53413
 C3010 C 0.52913 0.08579 0.52918
 C3011 C 0.52339 0.07483 0.52353
 C3012 C 0.51289 0.06917 0.52922
 C3013 C 0.50805 0.05783 0.52444
 C3014 C 0.51370 0.05198 0.51391
 C3015 C 0.52397 0.05801 0.50798
 C3016 C 0.52878 0.06935 0.51278
 H3017 H 0.55528 0.10653 0.52642
 H3018 H 0.56606 0.12404 0.53695
 H3019 H 0.53752 0.12371 0.56624
 H3020 H 0.52692 0.10622 0.55556
 H3021 H 0.50867 0.07333 0.53757
 H3022 H 0.50017 0.05345 0.52928
 H3023 H 0.52857 0.05378 0.49988
 H3024 H 0.53693 0.07365 0.50831
 C3025 C 0.54013 0.60510 0.04073
 C3026 C 0.53505 0.61031 0.05175
 C3027 C 0.54117 0.62036 0.05779
 C3028 C 0.55248 0.62536 0.05286
 C3029 C 0.55753 0.61997 0.04179
 C3030 C 0.55139 0.60992 0.03578
 C3031 C 0.53394 0.59463 0.03463
 C3032 C 0.52891 0.58570 0.02964
 C3033 C 0.52319 0.57478 0.02390
 C3034 C 0.51259 0.56916 0.02944
 C3035 C 0.50774 0.55787 0.02457
 C3036 C 0.51348 0.55201 0.01408
 C3037 C 0.52386 0.55800 0.00831
 C3038 C 0.52868 0.56929 0.01320
 H3039 H 0.52638 0.60659 0.05571
 H3040 H 0.53700 0.62414 0.06631
 H3041 H 0.56617 0.62352 0.03766
 H3042 H 0.55544 0.60590 0.02728
 H3043 H 0.50828 0.57332 0.03775
 H3044 H 0.49977 0.55352 0.02929
 H3045 H 0.52854 0.55376 0.00025
 H3046 H 0.53691 0.57355 0.00886
 C3047 C 0.70877 0.14617 0.54126
 C3048 C 0.69773 0.14101 0.53614
 C3049 C 0.69172 0.13088 0.54214
 C3050 C 0.69668 0.12575 0.55338
 C3051 C 0.70782 0.13105 0.55842
 C3052 C 0.71380 0.14117 0.55240
 C3053 C 0.71478 0.15677 0.53523
 C3054 C 0.71971 0.16579 0.53031
 C3055 C 0.72541 0.17677 0.52465
 C3056 C 0.71996 0.18229 0.51395
 C3057 C 0.72496 0.19347 0.50899
 C3058 C 0.73550 0.19929 0.51468
 C3059 C 0.74110 0.19346 0.52525
 C3060 C 0.73608 0.18229 0.53019
 H3061 H 0.69373 0.14483 0.52753
 H3062 H 0.68320 0.12715 0.53793
 H3063 H 0.71197 0.12742 0.56701
 H3064 H 0.72233 0.14512 0.55647
 H3065 H 0.71168 0.17812 0.50961
 H3066 H 0.72037 0.19770 0.50089
 H3067 H 0.74918 0.19769 0.52991
 H3068 H 0.74035 0.17809 0.53849
 C3069 C 0.70814 0.64651 0.04113
 C3070 C 0.69723 0.64115 0.03593
 C3071 C 0.69140 0.63088 0.04186
 C3072 C 0.69640 0.62580 0.05310
 C3073 C 0.70736 0.63134 0.05826
 C3074 C 0.71317 0.64161 0.05231
 C3075 C 0.71407 0.65719 0.03513
 C3076 C 0.71898 0.66623 0.03024
 C3077 C 0.72469 0.67720 0.02457
 C3078 C 0.71917 0.68277 0.01394
 C3079 C 0.72418 0.69392 0.00894
 C3080 C 0.73481 0.69968 0.01453
 C3081 C 0.74049 0.69379 0.02503
 C3082 C 0.73545 0.68264 0.03001
 H3083 H 0.69320 0.64492 0.02730
 H3084 H 0.68300 0.62697 0.03756
 H3085 H 0.71152 0.62779 0.06688
 H3086 H 0.72157 0.64574 0.05646
 H3087 H 0.71083 0.67864 0.00967
 H3088 H 0.71952 0.69820 0.00090
 H3089 H 0.74865 0.69796 0.02961
 H3090 H 0.73980 0.67841 0.03826
 C3091 C 0.20949 0.60512 0.70958
 C3092 C 0.19831 0.61011 0.71452
 C3093 C 0.19226 0.62015 0.70845
 C3094 C 0.19732 0.62537 0.69730
 C3095 C 0.20858 0.62023 0.69241
 C3096 C 0.21460 0.61018 0.69851
 C3097 C 0.21558 0.59462 0.71570
 C3098 C 0.22057 0.58567 0.72067
 C3099 C 0.22630 0.57473 0.72633
 C3100 C 0.23690 0.56917 0.72073
 C3101 C 0.24176 0.55786 0.72550
 C3102 C 0.23604 0.55193 0.73595
 C3103 C 0.22566 0.55786 0.74179
 C3104 C 0.22082 0.56917 0.73699
 H3105 H 0.19423 0.60620 0.72306
 H3106 H 0.18362 0.62376 0.71252
 H3107 H 0.21281 0.62391 0.68388
 H3108 H 0.22323 0.60634 0.69456
 H3109 H 0.24119 0.57339 0.71245
 H3110 H 0.24973 0.55357 0.72075
 H3111 H 0.22101 0.55357 0.74983
 H3112 H 0.21260 0.57339 0.74138
 C3113 C 0.20976 0.10462 0.20872
 C3114 C 0.21461 0.10958 0.19748
 C3115 C 0.20848 0.11962 0.19146
 C3116 C 0.19738 0.12485 0.19661
 C3117 C 0.19258 0.11973 0.20791
 C3118 C 0.19873 0.10970 0.21390
 C3119 C 0.21593 0.09415 0.21480
 C3120 C 0.22091 0.08522 0.21981
 C3121 C 0.22658 0.07431 0.22560
 C3122 C 0.23722 0.06868 0.22013
 C3123 C 0.24201 0.05740 0.22503
 C3124 C 0.23619 0.05155 0.23547
 C3125 C 0.22578 0.05755 0.24118
 C3126 C 0.22101 0.06884 0.23626
 H3127 H 0.22311 0.10565 0.19333
 H3128 H 0.21248 0.12320 0.18277
 H3129 H 0.18409 0.12342 0.21221
 H3130 H 0.19485 0.10588 0.22257
 H3131 H 0.24159 0.07283 0.21186
 H3132 H 0.25002 0.05305 0.22037
 H3133 H 0.22105 0.05333 0.24921
 H3134 H 0.21276 0.07311 0.24055
 C3135 C 0.71009 1.10502 0.70883
 C3136 C 0.71514 1.11022 0.69779
 C3137 C 0.70902 1.12026 0.69176
 C3138 C 0.69772 1.12526 0.69670
 C3139 C 0.69272 1.11991 0.70782
 C3140 C 0.69886 1.10988 0.71381
 C3141 C 0.71622 1.09450 0.71485
 C3142 C 0.72118 1.08552 0.71979
 C3143 C 0.72682 1.07454 0.72548
 C3144 C 0.73729 1.06878 0.71982
 C3145 C 0.74206 1.05746 0.72466
 C3146 C 0.73638 1.05170 0.73523
 C3147 C 0.72613 1.05781 0.74110
 C3148 C 0.72138 1.06914 0.73624
 H3149 H 0.72380 1.10649 0.69381
 H3150 H 0.71317 1.12402 0.68323
 H3151 H 0.68408 1.12344 0.71196
 H3152 H 0.69483 1.10588 0.72233
 H3153 H 0.74156 1.07287 0.71146
 H3154 H 0.74994 1.05302 0.71987
 H3155 H 0.72149 1.05366 0.74922
 H3156 H 0.71325 1.07350 0.74067
 C3157 C 0.71014 0.60518 0.20916
 C3158 C 0.71507 0.61016 0.19797
 C3159 C 0.70893 0.62014 0.19187
 C3160 C 0.69774 0.62530 0.19689
 C3161 C 0.69285 0.62016 0.20815
 C3162 C 0.69901 0.61018 0.21422
 C3163 C 0.71630 0.59473 0.21528
 C3164 C 0.72130 0.58580 0.22027
 C3165 C 0.72700 0.57487 0.22597
 C3166 C 0.73751 0.56919 0.22033
 C3167 C 0.74231 0.55787 0.22513
 C3168 C 0.73661 0.55204 0.23564
 C3169 C 0.72633 0.55809 0.24153
 C3170 C 0.72156 0.56942 0.23671
 H3171 H 0.72365 0.60630 0.19393
 H3172 H 0.71301 0.62374 0.18323
 H3173 H 0.68427 0.62378 0.21233
 H3174 H 0.69507 0.60635 0.22285
 H3175 H 0.74177 0.57333 0.21199
 H3176 H 0.75021 0.55348 0.22034
 H3177 H 0.72169 0.55388 0.24962
 H3178 H 0.71340 0.57373 0.24113
 C3179 C 0.53972 0.14452 0.70882
 C3180 C 0.55097 0.13974 0.71378
 C3181 C 0.55714 0.12970 0.70781
 C3182 C 0.55215 0.12421 0.69670
 C3183 C 0.54076 0.12917 0.69182
 C3184 C 0.53463 0.13923 0.69783
 C3185 C 0.53358 0.15508 0.71483
 C3186 C 0.52864 0.16408 0.71977
 C3187 C 0.52304 0.17509 0.72550
 C3188 C 0.52862 0.18055 0.73617
 C3189 C 0.52392 0.19189 0.74108
 C3190 C 0.51356 0.19795 0.73533
 C3191 C 0.50774 0.19213 0.72485
 C3192 C 0.51247 0.18079 0.71997
 H3193 H 0.55504 0.14382 0.72225
 H3194 H 0.56583 0.12635 0.71198
 H3195 H 0.53648 0.12540 0.68334
 H3196 H 0.52593 0.14290 0.69387
 H3197 H 0.53683 0.17623 0.74051
 H3198 H 0.52866 0.19609 0.74912
 H3199 H 0.49979 0.19652 0.72016
 H3200 H 0.50810 0.17665 0.71169
 C3201 C 1.03966 0.14439 0.20986
 C3202 C 1.03473 0.13936 0.19868
 C3203 C 1.04093 0.12943 0.19255
 C3204 C 1.05219 0.12437 0.19753
 C3205 C 1.05705 0.12954 0.20881
 C3206 C 1.05083 0.13946 0.21491
 C3207 C 1.03350 0.15488 0.21593
 C3208 C 1.02852 0.16386 0.22086
 C3209 C 1.02287 0.17487 0.22649
 C3210 C 1.01240 0.18057 0.22080
 C3211 C 1.00768 0.19197 0.22552
 C3212 C 1.01341 0.19785 0.23600
 C3213 C 1.02366 0.19178 0.24193
 C3214 C 1.02836 0.18038 0.23719
 H3215 H 1.02612 0.14316 0.19465
 H3216 H 1.03686 0.12580 0.18392
 H3217 H 1.06567 0.12598 0.21298
 H3218 H 1.05476 0.14334 0.22354
 H3219 H 1.00811 0.17640 0.21248
 H3220 H 0.99981 0.19638 0.22069
 H3221 H 1.02833 0.19603 0.25000
 H3222 H 1.03650 0.17606 0.24165
 C3223 C 0.20875 0.64670 0.54181
 C3224 C 0.19770 0.64159 0.53667
 C3225 C 0.19175 0.63135 0.54253
 C3226 C 0.19679 0.62604 0.55365
 C3227 C 0.20792 0.63130 0.55874
 C3228 C 0.21384 0.64154 0.55285
 C3229 C 0.21476 0.65736 0.53587
 C3230 C 0.21968 0.66639 0.53098
 C3231 C 0.22538 0.67737 0.52531
 C3232 C 0.21993 0.68286 0.51459
 C3233 C 0.22494 0.69400 0.50957
 C3234 C 0.23549 0.69983 0.51523
 C3235 C 0.24108 0.69405 0.52583
 C3236 C 0.23605 0.68290 0.53082
 H3237 H 0.19365 0.64554 0.52814
 H3238 H 0.18323 0.62765 0.53828
 H3239 H 0.21213 0.62755 0.56725
 H3240 H 0.22239 0.64544 0.55694
 H3241 H 0.21164 0.67867 0.51027
 H3242 H 0.22035 0.69820 0.50145
 H3243 H 0.24916 0.69829 0.53047
 H3244 H 0.24032 0.67875 0.53914
 C3245 C 0.20892 0.14632 1.04179
 C3246 C 0.19786 0.14123 1.03664
 C3247 C 0.19188 0.13102 1.04250
 C3248 C 0.19689 0.12572 1.05364
 C3249 C 0.20803 0.13095 1.05873
 C3250 C 0.21398 0.14117 1.05284
 C3251 C 0.21492 0.15698 1.03586
 C3252 C 0.21982 0.16604 1.03098
 C3253 C 0.22546 0.17704 1.02532
 C3254 C 0.21992 0.18255 1.01466
 C3255 C 0.22488 0.19372 1.00964
 C3256 C 0.23547 0.19954 1.01523
 C3257 C 0.24115 0.19374 1.02577
 C3258 C 0.23616 0.18257 1.03077
 H3259 H 0.19383 0.14518 1.02810
 H3260 H 0.18336 0.12733 1.03825
 H3261 H 0.21222 0.12721 1.06726
 H3262 H 0.22253 0.14507 1.05694
 H3263 H 0.21160 0.17836 1.01039
 H3264 H 0.22022 0.19793 1.00156
 H3265 H 0.24926 0.19797 1.03036
 H3266 H 0.24050 0.17840 1.03905
 C3267 C 0.20838 0.70890 0.60365
 C3268 C 0.19733 0.71398 0.60881
 C3269 C 0.19143 0.70804 0.61902
 C3270 C 0.19650 0.69690 0.62425
 C3271 C 0.20764 0.69188 0.61896
 C3272 C 0.21351 0.69784 0.60874
 C3273 C 0.21429 0.71486 0.59297
 C3274 C 0.21915 0.71973 0.58390
 C3275 C 0.22480 0.72533 0.57288
 C3276 C 0.21941 0.73608 0.56741
 C3277 C 0.22442 0.74106 0.55625
 C3278 C 0.23490 0.73532 0.55040
 C3279 C 0.24042 0.72466 0.55615
 C3280 C 0.23538 0.71971 0.56730
 H3281 H 0.19325 0.72252 0.60491
 H3282 H 0.18291 0.71224 0.62276
 H3283 H 0.21187 0.68336 0.62264
 H3284 H 0.22205 0.69381 0.60480
 H3285 H 0.21118 0.74047 0.57162
 H3286 H 0.21989 0.74923 0.55207
 H3287 H 0.24844 0.71996 0.55189
 H3288 H 0.23960 0.71135 0.57144
 C3289 C 0.20850 0.20815 1.10349
 C3290 C 0.19755 0.21339 1.10869
 C3291 C 0.19161 0.20755 1.11893
 C3292 C 0.19655 0.19634 1.12415
 C3293 C 0.20756 0.19113 1.11878
 C3294 C 0.21348 0.19700 1.10853
 C3295 C 0.21454 0.21414 1.09288
 C3296 C 0.21949 0.21910 1.08390
 C3297 C 0.22522 0.22487 1.07301
 C3298 C 0.21973 0.23557 1.06753
 C3299 C 0.22477 0.24068 1.05645
 C3300 C 0.23540 0.23513 1.05068
 C3301 C 0.24105 0.22456 1.05647
 C3302 C 0.23598 0.21948 1.06755
 H3303 H 0.19358 0.22200 1.10482
 H3304 H 0.18319 0.21189 1.12273
 H3305 H 0.21166 0.18252 1.12243
 H3306 H 0.22192 0.19283 1.10454
 H3307 H 0.21138 0.23981 1.07167
 H3308 H 0.22014 0.24877 1.05224
 H3309 H 0.24919 0.22000 1.05228
 H3310 H 0.24030 0.21118 1.07171
 C3311 C 0.70951 0.54042 0.14486
 C3312 C 0.69837 0.53541 0.13981
 C3313 C 0.69224 0.54154 0.12985
 C3314 C 0.69717 0.55283 0.12478
 C3315 C 0.70838 0.55779 0.12998
 C3316 C 0.71449 0.55163 0.13994
 C3317 C 0.71563 0.53428 0.15534
 C3318 C 0.72061 0.52930 0.16428
 C3319 C 0.72633 0.52362 0.17523
 C3320 C 0.72078 0.51302 0.18085
 C3321 C 0.72559 0.50823 0.19218
 C3322 C 0.73604 0.51402 0.19807
 C3323 C 0.74182 0.52441 0.19209
 C3324 C 0.73698 0.52917 0.18076
 H3325 H 0.69439 0.52677 0.14361
 H3326 H 0.68366 0.53739 0.12619
 H3327 H 0.71250 0.56642 0.12641
 H3328 H 0.72307 0.55564 0.14383
 H3329 H 0.71250 0.50867 0.17667
 H3330 H 0.72086 0.50027 0.19652
 H3331 H 0.74984 0.52914 0.19637
 H3332 H 0.74134 0.53740 0.17651
 C3333 C 0.70904 1.04030 0.64511
 C3334 C 0.71403 1.05155 0.64030
 C3335 C 0.70805 1.05770 0.63026
 C3336 C 0.69697 1.05266 0.62485
 C3337 C 0.69200 1.04137 0.62985
 C3338 C 0.69799 1.03525 0.63989
 C3339 C 0.71512 1.03406 0.65554
 C3340 C 0.72011 1.02899 0.66442
 C3341 C 0.72588 1.02321 0.67528
 C3342 C 0.73669 1.02860 0.68067
 C3343 C 0.74161 1.02376 0.69192
 C3344 C 0.73575 1.01345 0.69797
 C3345 C 0.72517 1.00779 0.69219
 C3346 C 0.72026 1.01267 0.68094
 H3347 H 0.72255 1.05558 0.64432
 H3348 H 0.71222 1.06633 0.62671
 H3349 H 0.68345 1.03723 0.62607
 H3350 H 0.69400 1.02658 0.64360
 H3351 H 0.74109 1.03678 0.67637
 H3352 H 0.74974 1.02837 0.69609
 H3353 H 0.72038 0.99989 0.69659
 H3354 H 0.71188 1.00844 0.67685
 C3355 C 0.54054 0.21034 0.64454
 C3356 C 0.55175 0.21526 0.63960
 C3357 C 0.55793 0.20906 0.62971
 C3358 C 0.55295 0.19780 0.62459
 C3359 C 0.54164 0.19295 0.62966
 C3360 C 0.53550 0.19918 0.63955
 C3361 C 0.53441 0.21650 0.65499
 C3362 C 0.52941 0.22145 0.66394
 C3363 C 0.52370 0.22705 0.67492
 C3364 C 0.52930 0.23757 0.68066
 C3365 C 0.52451 0.24225 0.69204
 C3366 C 0.51407 0.23642 0.69787
 C3367 C 0.50823 0.22612 0.69176
 C3368 C 0.51304 0.22147 0.68038
 H3369 H 0.55577 0.22387 0.64345
 H3370 H 0.56659 0.21312 0.62614
 H3371 H 0.53748 0.18434 0.62606
 H3372 H 0.52685 0.19525 0.64336
 H3373 H 0.53758 0.24194 0.67653
 H3374 H 0.52927 0.25016 0.69648
 H3375 H 0.50020 0.22137 0.69598
 H3376 H 0.50866 0.21329 0.67603
 C3377 C 1.04047 0.20954 0.14497
 C3378 C 1.03535 0.19853 0.13973
 C3379 C 1.04145 0.19248 0.12969
 C3380 C 1.05281 0.19735 0.12474
 C3381 C 1.05787 0.20843 0.13013
 C3382 C 1.05174 0.21446 0.14017
 C3383 C 1.03433 0.21560 0.15549
 C3384 C 1.02934 0.22056 0.16445
 C3385 C 1.02365 0.22626 0.17541
 C3386 C 1.01296 0.22079 0.18093
 C3387 C 1.00814 0.22562 0.19224
 C3388 C 1.01399 0.23599 0.19822
 C3389 C 1.02447 0.24170 0.19233
 C3390 C 1.02926 0.23685 0.18102
 H3391 H 1.02665 0.19460 0.14343
 H3392 H 1.03723 0.18398 0.12589
 H3393 H 1.06657 0.21250 0.12667
 H3394 H 1.05583 0.22294 0.14420
 H3395 H 1.00856 0.21257 0.17667
 H3396 H 1.00009 0.22096 0.19650
 H3397 H 1.02923 0.24966 0.19666
 H3398 H 1.03756 0.24114 0.17684
 C3399 C 0.60483 0.20909 0.70935
 C3400 C 0.60990 0.21428 0.69831
 C3401 C 0.61997 0.20832 0.69219
 C3402 C 0.62514 0.19705 0.69703
 C3403 C 0.61989 0.19188 0.70812
 C3404 C 0.60982 0.19787 0.71421
 C3405 C 0.59435 0.21513 0.71552
 C3406 C 0.58541 0.22007 0.72056
 C3407 C 0.57448 0.22573 0.72633
 C3408 C 0.56909 0.23658 0.72105
 C3409 C 0.55779 0.24140 0.72590
 C3410 C 0.55171 0.23539 0.73610
 C3411 C 0.55747 0.22474 0.74162
 C3412 C 0.56876 0.21995 0.73674
 H3413 H 0.60606 0.22293 0.69442
 H3414 H 0.62363 0.21256 0.68366
 H3415 H 0.62358 0.18327 0.71219
 H3416 H 0.60593 0.19374 0.72273
 H3417 H 0.57342 0.24111 0.71297
 H3418 H 0.55363 0.24958 0.72139
 H3419 H 0.55305 0.21985 0.74944
 H3420 H 0.57285 0.21152 0.74088
 C3421 C 1.10499 0.20932 0.20975
 C3422 C 1.10993 0.21435 0.19858
 C3423 C 1.11987 0.20826 0.19238
 C3424 C 1.12505 0.19701 0.19727
 C3425 C 1.11999 0.19206 0.20855
 C3426 C 1.11005 0.19818 0.21472
 C3427 C 1.09448 0.21539 0.21589
 C3428 C 1.08550 0.22033 0.22086
 C3429 C 1.07450 0.22598 0.22652
 C3430 C 1.06895 0.23662 0.22098
 C3431 C 1.05761 0.24144 0.22574
 C3432 C 1.05163 0.23563 0.23612
 C3433 C 1.05754 0.22519 0.24188
 C3434 C 1.06888 0.22040 0.23709
 H3435 H 1.10604 0.22295 0.19461
 H3436 H 1.12343 0.21240 0.18376
 H3437 H 1.12365 0.18346 0.21265
 H3438 H 1.10626 0.19417 0.22334
 H3439 H 1.07321 0.24100 0.21277
 H3440 H 1.05334 0.24946 0.22104
 H3441 H 1.05320 0.22045 0.24984
 H3442 H 1.07308 0.21213 0.24143
 C3443 C 0.14627 0.70879 0.54111
 C3444 C 0.14114 0.69772 0.53603
 C3445 C 0.13095 0.69176 0.54198
 C3446 C 0.12574 0.69681 0.55314
 C3447 C 0.13101 0.70796 0.55817
 C3448 C 0.14119 0.71389 0.55219
 C3449 C 0.15691 0.71477 0.53512
 C3450 C 0.16595 0.71969 0.53023
 C3451 C 0.17693 0.72539 0.52459
 C3452 C 0.18247 0.71993 0.51390
 C3453 C 0.19365 0.72493 0.50894
 C3454 C 0.19947 0.73546 0.51465
 C3455 C 0.19364 0.74107 0.52522
 C3456 C 0.18246 0.73605 0.53015
 H3457 H 0.14503 0.69365 0.52747
 H3458 H 0.12724 0.68322 0.53778
 H3459 H 0.12734 0.71218 0.56671
 H3460 H 0.14512 0.72244 0.55624
 H3461 H 0.17828 0.71166 0.50954
 H3462 H 0.19788 0.72033 0.50084
 H3463 H 0.19787 0.74914 0.52990
 H3464 H 0.17827 0.74033 0.53845
 C3465 C 0.14672 0.20800 1.04129
 C3466 C 0.14164 0.21320 1.05232
 C3467 C 0.13142 0.20736 1.05831
 C3468 C 0.12611 0.19619 1.05335
 C3469 C 0.13134 0.19105 1.04223
 C3470 C 0.14156 0.19692 1.03627
 C3471 C 0.15738 0.21392 1.03526
 C3472 C 0.16642 0.21879 1.03034
 C3473 C 0.17740 0.22446 1.02467
 C3474 C 0.18280 0.23527 1.03006
 C3475 C 0.19395 0.24030 1.02508
 C3476 C 0.19988 0.23457 1.01464
 C3477 C 0.19419 0.22386 1.00911
 C3478 C 0.18304 0.21885 1.01411
 H3479 H 0.14559 0.22177 1.05631
 H3480 H 0.12774 0.21165 1.06681
 H3481 H 0.12760 0.18249 1.03808
 H3482 H 0.14545 0.19278 1.02774
 H3483 H 0.17854 0.23966 1.03826
 H3484 H 0.19808 0.24850 1.02962
 H3485 H 0.19851 0.21916 1.00111
 H3486 H 0.17896 0.21045 1.00989
 C3487 C 0.64478 0.54037 0.21009
 C3488 C 0.63977 0.55154 0.21507
 C3489 C 0.62982 0.55767 0.20892
 C3490 C 0.62472 0.55270 0.19766
 C3491 C 0.62985 0.54143 0.19276
 C3492 C 0.63980 0.53533 0.19894
 C3493 C 0.65529 0.53430 0.21620
 C3494 C 0.66429 0.52937 0.22114
 C3495 C 0.67532 0.52374 0.22674
 C3496 C 0.68100 0.52939 0.23727
 C3497 C 0.69240 0.52467 0.24197
 C3498 C 0.69831 0.51424 0.23617
 C3499 C 0.69226 0.50837 0.22585
 C3500 C 0.68086 0.51311 0.22117
 H3501 H 0.64360 0.55556 0.22368
 H3502 H 0.62620 0.56629 0.21302
 H3503 H 0.62626 0.53727 0.18415
 H3504 H 0.64366 0.52671 0.19497
 H3505 H 0.67680 0.53765 0.24162
 H3506 H 0.69678 0.52945 0.24990
 H3507 H 0.69653 0.50035 0.22113
 H3508 H 0.67656 0.50870 0.21299
 C3509 C 0.64488 1.04072 0.70938
 C3510 C 0.63970 1.03553 0.69838
 C3511 C 0.62959 1.04151 0.69234
 C3512 C 0.62449 1.05280 0.69722
 C3513 C 0.62984 1.05796 0.70827
 C3514 C 0.63995 1.05196 0.71429
 C3515 C 0.65542 1.03466 0.71547
 C3516 C 0.66440 1.02970 0.72044
 C3517 C 0.67536 1.02400 0.72613
 C3518 C 0.68083 1.01328 0.72067
 C3519 C 0.69212 1.00840 0.72550
 C3520 C 0.69812 1.01424 0.73586
 C3521 C 0.69229 1.02476 0.74155
 C3522 C 0.68100 1.02961 0.73670
 H3523 H 0.64349 1.02687 0.69445
 H3524 H 0.62585 1.03725 0.68384
 H3525 H 0.62622 1.06659 0.71237
 H3526 H 0.64393 1.05609 0.72278
 H3527 H 0.67656 1.00888 0.71246
 H3528 H 0.69634 1.00032 0.72085
 H3529 H 0.69664 1.02952 0.74951
 H3530 H 0.67685 1.03793 0.74099
 C3531 C 0.85336 0.45856 0.29274
 C3532 C 0.85874 0.46377 0.30363
 C3533 C 0.86901 0.45783 0.30946
 C3534 C 0.87406 0.44656 0.30448
 C3535 C 0.86852 0.44140 0.29352
 C3536 C 0.85826 0.44736 0.28771
 C3537 C 0.84275 0.46461 0.28676
 C3538 C 0.83376 0.46951 0.28176
 C3539 C 0.82285 0.47513 0.27592
 C3540 C 0.81737 0.48597 0.28116
 C3541 C 0.80632 0.49098 0.27595
 C3542 C 0.80055 0.48519 0.26544
 C3543 C 0.80631 0.47445 0.26007
 C3544 C 0.81737 0.46946 0.26530
 H3545 H 0.85501 0.47242 0.30765
 H3546 H 0.87291 0.46210 0.31788
 H3547 H 0.87201 0.43273 0.28939
 H3548 H 0.85413 0.44321 0.27930
 H3549 H 0.82152 0.49041 0.28940
 H3550 H 0.80213 0.49921 0.28037
 H3551 H 0.80212 0.46971 0.25202
 H3552 H 0.82151 0.46105 0.26119
 C3553 C 0.85325 0.95831 0.79235
 C3554 C 0.85836 0.94726 0.78722
 C3555 C 0.86858 0.94132 0.79310
 C3556 C 0.87387 0.94635 0.80424
 C3557 C 0.86862 0.95749 0.80932
 C3558 C 0.85839 0.96340 0.80342
 C3559 C 0.84259 0.96429 0.78638
 C3560 C 0.83356 0.96917 0.78145
 C3561 C 0.82260 0.97479 0.77568
 C3562 C 0.81708 0.96915 0.76507
 C3563 C 0.80598 0.97413 0.75992
 C3564 C 0.80023 0.98484 0.76535
 C3565 C 0.80602 0.99060 0.77586
 C3566 C 0.81712 0.98560 0.78099
 H3567 H 0.85442 0.94320 0.77868
 H3568 H 0.87228 0.93279 0.78886
 H3569 H 0.87235 0.96169 0.81785
 H3570 H 0.85448 0.97194 0.80750
 H3571 H 0.82122 0.96076 0.76091
 H3572 H 0.80177 0.96940 0.75187
 H3573 H 0.80183 0.99880 0.78033
 H3574 H 0.82129 0.99002 0.78924
 C3575 C 0.39661 0.29155 0.79186
 C3576 C 0.39158 0.28656 0.80300
 C3577 C 0.38134 0.29246 0.80888
 C3578 C 0.37596 0.30348 0.80371
 C3579 C 0.38115 0.30844 0.79251
 C3580 C 0.39140 0.30252 0.78665
 C3581 C 0.40724 0.28553 0.78589
 C3582 C 0.41624 0.28057 0.78099
 C3583 C 0.42716 0.27480 0.77531
 C3584 C 0.43270 0.26417 0.78089
 C3585 C 0.44379 0.25905 0.77586
 C3586 C 0.44952 0.26453 0.76517
 C3587 C 0.44369 0.27504 0.75946
 C3588 C 0.43260 0.28013 0.76451
 H3589 H 0.39557 0.27809 0.80715
 H3590 H 0.37768 0.28832 0.81747
 H3591 H 0.37736 0.31689 0.78821
 H3592 H 0.39526 0.30650 0.77805
 H3593 H 0.42859 0.25999 0.78928
 H3594 H 0.44804 0.25101 0.78055
 H3595 H 0.44785 0.27954 0.75128
 H3596 H 0.42841 0.28838 0.76014
 C3597 C 0.89612 0.29098 0.29185
 C3598 C 0.89083 0.28589 0.30282
 C3599 C 0.88063 0.29191 0.30869
 C3600 C 0.87557 0.30315 0.30366
 C3601 C 0.88101 0.30817 0.29260
 C3602 C 0.89120 0.30213 0.28676
 C3603 C 0.90676 0.28492 0.28592
 C3604 C 0.91579 0.28000 0.28102
 C3605 C 0.92676 0.27436 0.27530
 C3606 C 0.93235 0.26370 0.28075
 C3607 C 0.94351 0.25875 0.27573
 C3608 C 0.94926 0.26443 0.26516
 C3609 C 0.94337 0.27496 0.25955
 C3610 C 0.93221 0.27988 0.26460
 H3611 H 0.89460 0.27728 0.30688
 H3612 H 0.87677 0.28771 0.31716
 H3613 H 0.87747 0.31678 0.28841
 H3614 H 0.89526 0.30619 0.27829
 H3615 H 0.92822 0.25937 0.28905
 H3616 H 0.94779 0.25067 0.28032
 H3617 H 0.94754 0.27961 0.25145
 H3618 H 0.92797 0.28816 0.26032
 C3619 C 0.35514 0.79060 0.45916
 C3620 C 0.36013 0.78565 0.44798
 C3621 C 0.37007 0.79183 0.44184
 C3622 C 0.37517 0.80309 0.44681
 C3623 C 0.37005 0.80796 0.45810
 C3624 C 0.36012 0.80176 0.46421
 C3625 C 0.34466 0.78444 0.46527
 C3626 C 0.33570 0.77946 0.47024
 C3627 C 0.32473 0.77379 0.47595
 C3628 C 0.31905 0.76323 0.47035
 C3629 C 0.30774 0.75842 0.47520
 C3630 C 0.30192 0.76416 0.48571
 C3631 C 0.30795 0.77451 0.49152
 C3632 C 0.31927 0.77929 0.48665
 H3633 H 0.35631 0.77704 0.44395
 H3634 H 0.37367 0.78775 0.43320
 H3635 H 0.37364 0.81658 0.46226
 H3636 H 0.35629 0.80571 0.47284
 H3637 H 0.32318 0.75892 0.46203
 H3638 H 0.30335 0.75048 0.47044
 H3639 H 0.30375 0.77919 0.49959
 H3640 H 0.32357 0.78749 0.49104
 C3641 C 0.35520 0.29090 0.95963
 C3642 C 0.36002 0.28601 0.94834
 C3643 C 0.37003 0.29208 0.94222
 C3644 C 0.37539 0.30316 0.94731
 C3645 C 0.37042 0.30800 0.95868
 C3646 C 0.36041 0.30191 0.96477
 C3647 C 0.34473 0.28477 0.96575
 C3648 C 0.33579 0.27974 0.97071
 C3649 C 0.32487 0.27394 0.97635
 C3650 C 0.31925 0.26344 0.97061
 C3651 C 0.30796 0.25851 0.97538
 C3652 C 0.30211 0.26407 0.98596
 C3653 C 0.30810 0.27436 0.99193
 C3654 C 0.31939 0.27926 0.98714
 H3655 H 0.35601 0.27752 0.94424
 H3656 H 0.37349 0.28802 0.93352
 H3657 H 0.37421 0.31650 0.96292
 H3658 H 0.35671 0.30581 0.97348
 H3659 H 0.32340 0.25926 0.96223
 H3660 H 0.30362 0.25061 0.97051
 H3661 H 0.30388 0.27891 1.00007
 H3662 H 0.32365 0.28742 0.99164
 C3663 C 0.79120 0.45831 0.35354
 C3664 C 0.80234 0.46335 0.35856
 C3665 C 0.80836 0.45738 0.36868
 C3666 C 0.80332 0.44625 0.37396
 C3667 C 0.79211 0.44126 0.36880
 C3668 C 0.78610 0.44725 0.35867
 C3669 C 0.78517 0.46433 0.34296
 C3670 C 0.78027 0.46929 0.33395
 C3671 C 0.77463 0.47504 0.32300
 C3672 C 0.78017 0.48574 0.31757
 C3673 C 0.77525 0.49081 0.30641
 C3674 C 0.76471 0.48521 0.30051
 C3675 C 0.75901 0.47464 0.30625
 C3676 C 0.76396 0.46959 0.31740
 H3677 H 0.80640 0.47189 0.35462
 H3678 H 0.81696 0.46155 0.37230
 H3679 H 0.78791 0.43272 0.37252
 H3680 H 0.77751 0.44323 0.35482
 H3681 H 0.78846 0.49001 0.32180
 H3682 H 0.77991 0.49891 0.30225
 H3683 H 0.75093 0.47004 0.30196
 H3684 H 0.75962 0.46128 0.32151
 C3685 C 0.79118 0.95853 0.85357
 C3686 C 0.80232 0.96358 0.85857
 C3687 C 0.80838 0.95760 0.86867
 C3688 C 0.80337 0.94644 0.87394
 C3689 C 0.79214 0.94146 0.86881
 C3690 C 0.78610 0.94746 0.85871
 C3691 C 0.78513 0.96453 0.84299
 C3692 C 0.78020 0.96946 0.83398
 C3693 C 0.77452 0.97515 0.82302
 C3694 C 0.78001 0.98585 0.81754
 C3695 C 0.77504 0.99086 0.80637
 C3696 C 0.76450 0.98521 0.80053
 C3697 C 0.75885 0.97464 0.80632
 C3698 C 0.76384 0.96965 0.81748
 H3699 H 0.80636 0.97213 0.85464
 H3700 H 0.81698 0.96177 0.87227
 H3701 H 0.78795 0.93292 0.87253
 H3702 H 0.77749 0.94345 0.85488
 H3703 H 0.78830 0.99016 0.82174
 H3704 H 0.77967 0.99896 0.80217
 H3705 H 0.75078 0.97001 0.80206
 H3706 H 0.75954 0.96134 0.82163
 C3707 C 0.29056 0.79118 0.39522
 C3708 C 0.30179 0.78621 0.39035
 C3709 C 0.30792 0.79225 0.38033
 C3710 C 0.30289 0.80336 0.37502
 C3711 C 0.29162 0.80831 0.38006
 C3712 C 0.28551 0.80225 0.39008
 C3713 C 0.28437 0.78508 0.40565
 C3714 C 0.27932 0.78009 0.41455
 C3715 C 0.27356 0.77437 0.42544
 C3716 C 0.27894 0.76358 0.43085
 C3717 C 0.27409 0.75871 0.44212
 C3718 C 0.26381 0.76460 0.44816
 C3719 C 0.25818 0.77518 0.44237
 C3720 C 0.26304 0.78003 0.43110
 H3721 H 0.30582 0.77767 0.39430
 H3722 H 0.31653 0.78810 0.37673
 H3723 H 0.28748 0.81688 0.37635
 H3724 H 0.27686 0.80622 0.39384
 H3725 H 0.28710 0.75915 0.42656
 H3726 H 0.27869 0.75058 0.44631
 H3727 H 0.25028 0.77999 0.44676
 H3728 H 0.25883 0.78840 0.42699
 C3729 C 0.29034 0.29085 0.89515
 C3730 C 0.30150 0.28580 0.89021
 C3731 C 0.30772 0.29189 0.88028
 C3732 C 0.30286 0.30316 0.87513
 C3733 C 0.29161 0.30815 0.88021
 C3734 C 0.28541 0.30203 0.89013
 C3735 C 0.28416 0.28475 0.90560
 C3736 C 0.27917 0.27978 0.91455
 C3737 C 0.27351 0.27407 0.92550
 C3738 C 0.27905 0.26339 0.93098
 C3739 C 0.27433 0.25855 0.94232
 C3740 C 0.26400 0.26436 0.94836
 C3741 C 0.25822 0.27483 0.94252
 C3742 C 0.26297 0.27965 0.93118
 H3743 H 0.30543 0.27717 0.89407
 H3744 H 0.31633 0.28772 0.87672
 H3745 H 0.28753 0.31678 0.87658
 H3746 H 0.27680 0.30606 0.89394
 H3747 H 0.28724 0.25902 0.92667
 H3748 H 0.27904 0.25051 0.94654
 H3749 H 0.25028 0.27957 0.94691
 H3750 H 0.25863 0.28794 0.92704
 C3751 C 0.45840 0.29206 0.85331
 C3752 C 0.46349 0.30317 0.85838
 C3753 C 0.45761 0.30912 0.86861
 C3754 C 0.44652 0.30404 0.87394
 C3755 C 0.44149 0.29286 0.86873
 C3756 C 0.44739 0.28693 0.85850
 C3757 C 0.46434 0.28604 0.84266
 C3758 C 0.46920 0.28108 0.83362
 C3759 C 0.47481 0.27532 0.82266
 C3760 C 0.48566 0.28059 0.81725
 C3761 C 0.49067 0.27549 0.80614
 C3762 C 0.48486 0.26504 0.80026
 C3763 C 0.47411 0.25965 0.80594
 C3764 C 0.46913 0.26477 0.81706
 H3765 H 0.47200 0.30724 0.85441
 H3766 H 0.46181 0.31768 0.87229
 H3767 H 0.43300 0.28862 0.87249
 H3768 H 0.44334 0.27835 0.85463
 H3769 H 0.49011 0.28879 0.82148
 H3770 H 0.49891 0.27993 0.80200
 H3771 H 0.46935 0.25166 0.80166
 H3772 H 0.46070 0.26065 0.82114
 C3773 C 0.95898 0.29198 0.35378
 C3774 C 0.94796 0.28680 0.35889
 C3775 C 0.94195 0.29271 0.36906
 C3776 C 0.94688 0.30393 0.37429
 C3777 C 0.95800 0.30904 0.36905
 C3778 C 0.96398 0.30310 0.35887
 C3779 C 0.96500 0.28601 0.34314
 C3780 C 0.96989 0.28110 0.33410
 C3781 C 0.97553 0.27541 0.32311
 C3782 C 0.97006 0.26466 0.31767
 C3783 C 0.97501 0.25961 0.30651
 C3784 C 0.98551 0.26527 0.30061
 C3785 C 0.99112 0.27591 0.30634
 C3786 C 0.98615 0.28093 0.31750
 H3787 H 0.94397 0.27820 0.35498
 H3788 H 0.93345 0.28843 0.37276
 H3789 H 0.96213 0.31763 0.37274
 H3790 H 0.97250 0.30723 0.35496
 H3791 H 0.96182 0.26033 0.32192
 H3792 H 0.97040 0.25147 0.30235
 H3793 H 0.99915 0.28056 0.30204
 H3794 H 0.99043 0.28928 0.32162
 C3795 C 0.45807 0.35329 0.79140
 C3796 C 0.44701 0.35838 0.78628
 C3797 C 0.44102 0.36856 0.79222
 C3798 C 0.44602 0.37381 0.80339
 C3799 C 0.45715 0.36855 0.80846
 C3800 C 0.46311 0.35838 0.80251
 C3801 C 0.46414 0.34271 0.78538
 C3802 C 0.46914 0.33374 0.78046
 C3803 C 0.47492 0.32283 0.77476
 C3804 C 0.46957 0.31737 0.76397
 C3805 C 0.47463 0.30624 0.75896
 C3806 C 0.48512 0.30040 0.76469
 C3807 C 0.49064 0.30618 0.77535
 C3808 C 0.48556 0.31731 0.78034
 H3809 H 0.44299 0.35447 0.77771
 H3810 H 0.43249 0.37226 0.78799
 H3811 H 0.46132 0.37224 0.81703
 H3812 H 0.47165 0.35447 0.80658
 H3813 H 0.46132 0.32156 0.75959
 H3814 H 0.47010 0.30205 0.75078
 H3815 H 0.49868 0.30193 0.78004
 H3816 H 0.48976 0.32146 0.78871
 C3817 C 0.95777 0.35319 0.29213
 C3818 C 0.94671 0.35835 0.28708
 C3819 C 0.94083 0.36858 0.29303
 C3820 C 0.94594 0.37383 0.30416
 C3821 C 0.95706 0.36851 0.30917
 C3822 C 0.96292 0.35828 0.30319
 C3823 C 0.96372 0.34255 0.28609
 C3824 C 0.96862 0.33353 0.28114
 C3825 C 0.97432 0.32258 0.27542
 C3826 C 0.96888 0.31709 0.26469
 C3827 C 0.97395 0.30599 0.25961
 C3828 C 0.98454 0.30021 0.26523
 C3829 C 0.99010 0.30598 0.27587
 C3830 C 0.98501 0.31708 0.28092
 H3831 H 0.94260 0.35444 0.27854
 H3832 H 0.93230 0.37232 0.28885
 H3833 H 0.96131 0.37219 0.31770
 H3834 H 0.97145 0.35431 0.30723
 H3835 H 0.96058 0.32124 0.26039
 H3836 H 0.96938 0.30178 0.25148
 H3837 H 0.99820 0.30178 0.28049
 H3838 H 0.98927 0.32123 0.28926
 C3839 C 0.29148 0.85499 0.45946
 C3840 C 0.28658 0.85982 0.44818
 C3841 C 0.29266 0.86983 0.44206
 C3842 C 0.30376 0.87516 0.44715
 C3843 C 0.30863 0.87015 0.45848
 C3844 C 0.30252 0.86015 0.46457
 C3845 C 0.28531 0.84456 0.46563
 C3846 C 0.28027 0.83568 0.47067
 C3847 C 0.27448 0.82481 0.47644
 C3848 C 0.26372 0.81937 0.47100
 C3849 C 0.25878 0.80813 0.47588
 C3850 C 0.26458 0.80214 0.48625
 C3851 C 0.27513 0.80796 0.49193
 C3852 C 0.28004 0.81920 0.48703
 H3853 H 0.27806 0.85586 0.44411
 H3854 H 0.28857 0.87339 0.43342
 H3855 H 0.31717 0.87388 0.46267
 H3856 H 0.30643 0.85642 0.47327
 H3857 H 0.25936 0.82362 0.46278
 H3858 H 0.25069 0.80391 0.47124
 H3859 H 0.27987 0.80362 0.49989
 H3860 H 0.28840 0.82333 0.49129
 C3861 C 0.29098 0.35508 0.95986
 C3862 C 0.28593 0.36001 0.94869
 C3863 C 0.29201 0.36996 0.94248
 C3864 C 0.30326 0.37515 0.94736
 C3865 C 0.30826 0.37008 0.95861
 C3866 C 0.30216 0.36013 0.96479
 C3867 C 0.28488 0.34465 0.96607
 C3868 C 0.27990 0.33573 0.97112
 C3869 C 0.27418 0.32482 0.97686
 C3870 C 0.26346 0.31933 0.97141
 C3871 C 0.25860 0.30803 0.97622
 C3872 C 0.26446 0.30202 0.98656
 C3873 C 0.27497 0.30789 0.99226
 C3874 C 0.27979 0.31919 0.98742
 H3875 H 0.27731 0.35613 0.94475
 H3876 H 0.28783 0.37352 0.93387
 H3877 H 0.31688 0.37373 0.96269
 H3878 H 0.30619 0.35634 0.97340
 H3879 H 0.25905 0.32359 0.96321
 H3880 H 0.25053 0.30379 0.97157
 H3881 H 0.27974 0.30353 1.00019
 H3882 H 0.28812 0.32335 0.99170
 C3883 C 0.79199 0.39653 0.29121
 C3884 C 0.80308 0.39140 0.28620
 C3885 C 0.80897 0.38120 0.29218
 C3886 C 0.80384 0.37595 0.30328
 C3887 C 0.79266 0.38123 0.30823
 C3888 C 0.78680 0.39143 0.30223
 C3889 C 0.78606 0.40718 0.28518
 C3890 C 0.78119 0.41621 0.28024
 C3891 C 0.77554 0.42718 0.27453
 C3892 C 0.78110 0.43274 0.26392
 C3893 C 0.77612 0.44389 0.25888
 C3894 C 0.76549 0.44966 0.26443
 C3895 C 0.75978 0.44381 0.27493
 C3896 C 0.76479 0.43266 0.27994
 H3897 H 0.80721 0.39531 0.27769
 H3898 H 0.81753 0.37748 0.28804
 H3899 H 0.78839 0.37753 0.31673
 H3900 H 0.77823 0.39536 0.30622
 H3901 H 0.78945 0.42860 0.25968
 H3902 H 0.78080 0.44816 0.25085
 H3903 H 0.75164 0.44800 0.27949
 H3904 H 0.76043 0.42845 0.28819
   
