data_POSCAR
  _audit_creation_date              2014-09-24
  _audit_creation_method            'ToBaCCo'
  _symmetry_space_group_name_H-M    'P1'
  _symmetry_Int_Tables_number       1
  _symmetry_cell_setting            triclinic
  loop_
  _symmetry_equiv_pos_as_xyz
 x,y,z
_cell_length_a 66.7488
_cell_length_b 67.1441
_cell_length_c 69.4284
_cell_angle_alpha 90.135200
_cell_angle_beta 90.580600
_cell_angle_gamma 88.164100
loop_
  _atom_site_label
  _atom_site_type_symbol
  _atom_site_fract_x
  _atom_site_fract_y
  _atom_site_fract_z
C1 C 0.18973 0.20191 0.21399
 C2 C 0.20397 0.18675 0.21845
 C3 C 0.22081 0.18327 0.20679
 C4 C 0.22331 0.19528 0.19049
 C5 C 0.20924 0.21059 0.18583
 C6 C 0.19251 0.21381 0.19770
 H7 H 0.20217 0.17795 0.23134
 H8 H 0.23596 0.19239 0.18112
 H9 H 0.18161 0.22560 0.19427
 C10 C 0.69856 0.72373 0.71986
 C11 C 0.70020 0.73533 0.70318
 C12 C 0.71528 0.73103 0.68969
 C13 C 0.72884 0.71498 0.69310
 C14 C 0.72749 0.70325 0.70973
 C15 C 0.71223 0.70770 0.72301
 H16 H 0.68970 0.74771 0.70069
 H17 H 0.74019 0.71130 0.68250
 H18 H 0.71129 0.69902 0.73608
 C19 C 0.31266 0.79473 0.71670
 C20 C 0.31096 0.78219 0.70065
 C21 C 0.29662 0.78632 0.68623
 C22 C 0.28392 0.80329 0.68792
 C23 C 0.28517 0.81620 0.70396
 C24 C 0.29978 0.81160 0.71830
 H25 H 0.32082 0.76912 0.69939
 H26 H 0.27259 0.80587 0.67687
 H27 H 0.30168 0.82134 0.73058
 C28 C 0.80157 0.28801 0.21904
 C29 C 0.79608 0.27458 0.20437
 C30 C 0.77908 0.27826 0.19266
 C31 C 0.76735 0.29569 0.19559
 C32 C 0.77235 0.30931 0.21006
 C33 C 0.78932 0.30532 0.22173
 H34 H 0.80435 0.26060 0.20255
 H35 H 0.75458 0.29890 0.18622
 H36 H 0.79321 0.31623 0.23250
 C37 C 0.80281 0.71547 0.26750
 C38 C 0.79065 0.69917 0.26382
 C39 C 0.77471 0.69486 0.27604
 C40 C 0.77102 0.70715 0.29212
 C41 C 0.78299 0.72352 0.29603
 C42 C 0.79886 0.72756 0.28365
 H43 H 0.79329 0.69011 0.25111
 H44 H 0.75911 0.70367 0.30193
 H45 H 0.80817 0.74016 0.28660
 C46 C 0.30951 0.20752 -0.22545
 C47 C 0.29633 0.19195 -0.22948
 C48 C 0.28100 0.18720 -0.21677
 C49 C 0.27860 0.19822 -0.19974
 C50 C 0.29143 0.21373 -0.19522
 C51 C 0.30682 0.21823 -0.20805
 H52 H 0.29820 0.18290 -0.24228
 H53 H 0.26672 0.19466 -0.18994
 H54 H 0.31625 0.23053 -0.20453
 C55 C 0.69692 0.28885 -0.20384
 C56 C 0.70108 0.27613 -0.18802
 C57 C 0.71767 0.27893 -0.17583
 C58 C 0.73036 0.29469 -0.17940
 C59 C 0.72663 0.30763 -0.19494
 C60 C 0.71001 0.30461 -0.20705
 H61 H 0.69214 0.26323 -0.18561
 H62 H 0.74318 0.29691 -0.17002
 H63 H 0.70681 0.31538 -0.21832
 C64 C 0.18412 0.77851 0.27916
 C65 C 0.18685 0.76672 0.29568
 C66 C 0.20260 0.77003 0.30864
 C67 C 0.21585 0.78535 0.30495
 C68 C 0.21365 0.79746 0.28839
 C69 C 0.19761 0.79369 0.27555
 H70 H 0.17689 0.75460 0.29829
 H71 H 0.22821 0.78732 0.31489
 H72 H 0.19475 0.80328 0.26327
 C73 C 0.48010 0.44921 0.48093
 C74 C 0.49199 0.45146 0.46455
 C75 C 0.48802 0.46709 0.45151
 C76 C 0.47199 0.48061 0.45511
 C77 C 0.45993 0.47862 0.47141
 C78 C 0.46410 0.46285 0.48424
 H79 H 0.50403 0.44069 0.46169
 H80 H 0.46885 0.49274 0.44515
 H81 H 0.45519 0.46146 0.49709
 C82 C -0.03359 -0.05831 0.96606
 C83 C -0.04946 -0.04466 0.96988
 C84 C -0.05299 -0.02749 0.95839
 C85 C -0.03977 -0.02439 0.94294
 C86 C -0.02368 -0.03777 0.93912
 C87 C -0.02075 -0.05467 0.95073
 H88 H -0.05869 -0.04750 0.98218
 H89 H -0.04207 -0.01186 0.93336
 H90 H -0.00843 -0.06508 0.94775
 C91 C 1.03420 0.54350 0.97258
 C92 C 1.05007 0.52942 0.97484
 C93 C 1.05277 0.51365 0.96168
 C94 C 1.03929 0.51205 0.94612
 C95 C 1.02330 0.52596 0.94361
 C96 C 1.02089 0.54163 0.95692
 H97 H 1.06036 0.53074 0.98690
 H98 H 1.04125 0.49993 0.93592
 H99 H 1.00860 0.55240 0.95509
 C100 C 0.54352 0.06842 0.47527
 C101 C 0.52981 0.06445 0.46044
 C102 C 0.53281 0.04802 0.44821
 C103 C 0.54973 0.03534 0.45099
 C104 C 0.56390 0.03890 0.46579
 C105 C 0.56046 0.05568 0.47780
 H106 H 0.51649 0.07394 0.45866
 H107 H 0.55227 0.02337 0.44077
 H108 H 0.57060 0.05874 0.48960
 C109 C -0.04164 0.06630 0.51886
 C110 C -0.05775 0.05372 0.51577
 C111 C -0.06025 0.03658 0.52714
 C112 C -0.04589 0.03241 0.54184
 C113 C -0.02974 0.04495 0.54519
 C114 C -0.02773 0.06182 0.53358
 H115 H -0.06768 0.05692 0.50368
 H116 H -0.04745 0.01975 0.55122
 H117 H -0.01561 0.07182 0.53634
 C118 C 0.45076 0.56685 0.02243
 C119 C 0.43499 0.55370 0.02007
 C120 C 0.43272 0.53776 0.03287
 C121 C 0.44644 0.53516 0.04823
 C122 C 0.46230 0.54821 0.05083
 C123 C 0.46430 0.56401 0.03785
 H124 H 0.42481 0.55553 0.00790
 H125 H 0.44481 0.52291 0.05815
 H126 H 0.47620 0.57442 0.04000
 C127 C 0.53114 -0.06520 0.04446
 C128 C 0.54465 -0.04985 0.04079
 C129 C 0.54827 -0.03481 0.05438
 C130 C 0.53767 -0.03451 0.07168
 C131 C 0.52382 -0.04914 0.07564
 C132 C 0.52092 -0.06451 0.06224
 H133 H 0.55191 -0.04876 0.02703
 H134 H 0.54051 -0.02310 0.08233
 H135 H 0.51078 -0.07601 0.06613
 C136 C 1.03259 0.45056 0.52257
 C137 C 1.02165 0.45329 0.53955
 C138 C 1.02625 0.46854 0.55255
 C139 C 1.04205 0.48113 0.54838
 C140 C 1.05335 0.47878 0.53138
 C141 C 1.04825 0.46334 0.51856
 H142 H 1.00989 0.44313 0.54289
 H143 H 1.04472 0.49344 0.55805
 H144 H 1.05682 0.46063 0.50563
 C145 C 0.40438 -0.00320 0.24444
 H146 H 0.40504 0.00935 0.25420
 C147 C 0.41739 -0.00460 0.22888
 H148 H 0.42820 0.00688 0.22685
 C149 C 0.38957 -0.03352 0.23548
 H150 H 0.37869 -0.04474 0.23814
 C151 C 0.40235 -0.03553 0.21972
 H152 H 0.40099 -0.04821 0.21018
 N153 N 0.39060 -0.01735 0.24725
 C154 C 0.34060 0.01291 0.27606
 H155 H 0.33948 0.00408 0.28899
 C156 C 0.32672 0.02852 0.27247
 H157 H 0.31508 0.03181 0.28286
 C158 C 0.35704 0.01920 0.24670
 H159 H 0.36855 0.01528 0.23645
 C160 C 0.34355 0.03494 0.24258
 H161 H 0.34490 0.04297 0.22917
 Zn162 Zn 0.37316 -0.01343 0.26829
 N163 N 0.35546 0.00864 0.26329
 C164 C 0.38667 0.00810 0.30108
 N165 N 0.38934 -0.00869 0.29029
 C166 C 0.40445 -0.02216 0.29427
 C167 C 0.41749 -0.01913 0.30978
 C168 C 0.39935 0.01172 0.31674
 C169 C 0.34276 -0.03956 0.25874
 C170 C 0.32975 -0.05520 0.26134
 C171 C 0.34718 -0.06342 0.29107
 C172 C 0.35970 -0.04750 0.28800
 N173 N 0.35734 -0.03598 0.27201
 H174 H 0.37483 0.01882 0.29749
 H175 H 0.40649 -0.03520 0.28522
 H176 H 0.42961 -0.02989 0.31250
 H177 H 0.39685 0.02507 0.32527
 H178 H 0.34099 -0.02996 0.24630
 H179 H 0.31791 -0.05739 0.25086
 H180 H 0.34953 -0.07252 0.30379
 H181 H 0.37116 -0.04428 0.29853
 C182 C 0.32812 0.03977 0.25553
 C183 C 0.41633 -0.02080 0.21614
 C184 C 0.33180 -0.06736 0.27775
 C185 C 0.41506 -0.00197 0.32123
 C186 C 0.08711 -0.00681 0.71675
 H187 H 0.08668 -0.01964 0.72612
 C188 C 0.07388 -0.00510 0.70109
 H189 H 0.06346 -0.01682 0.69833
 C190 C 0.10113 0.02415 0.70913
 H191 H 0.11146 0.03572 0.71254
 C192 C 0.08825 0.02641 0.69326
 H193 H 0.08882 0.03976 0.68459
 N194 N 0.10043 0.00766 0.72043
 C195 C 0.14993 -0.01905 0.75382
 H196 H 0.15017 -0.00879 0.76586
 C197 C 0.16446 -0.03440 0.75255
 H198 H 0.17595 -0.03573 0.76363
 C199 C 0.13500 -0.02918 0.72443
 H200 H 0.12362 -0.02698 0.71341
 C201 C 0.14919 -0.04481 0.72264
 H202 H 0.14827 -0.05473 0.71037
 Zn203 Zn 0.11686 0.00481 0.74270
 N204 N 0.13552 -0.01680 0.73995
 C205 C 0.10254 -0.01594 0.77516
 N206 N 0.09981 0.00039 0.76376
 C207 C 0.08436 0.01371 0.76670
 C208 C 0.07112 0.01109 0.78186
 C209 C 0.08969 -0.01911 0.79051
 C210 C 0.14616 0.03222 0.73401
 C211 C 0.15831 0.04852 0.73692
 C212 C 0.14073 0.05572 0.76650
 C213 C 0.12894 0.03925 0.76305
 N214 N 0.13176 0.02796 0.74695
 H215 H 0.11461 -0.02660 0.77232
 H216 H 0.08239 0.02644 0.75727
 H217 H 0.05911 0.02203 0.78417
 H218 H 0.09201 -0.03227 0.79934
 H219 H 0.14827 0.02281 0.72148
 H220 H 0.16960 0.05175 0.72638
 H221 H 0.13849 0.06433 0.77955
 H222 H 0.11780 0.03536 0.77343
 C223 C 0.16420 -0.04759 0.73682
 C224 C 0.07433 0.01171 0.68913
 C225 C 0.15571 0.06048 0.75339
 C226 C 0.07376 -0.00547 0.79405
 C227 C 0.58033 0.49920 0.22165
 H228 H 0.57968 0.48623 0.23081
 C229 C 0.56623 0.50210 0.20685
 H230 H 0.55489 0.49114 0.20455
 C231 C 0.59605 0.52915 0.21351
 H232 H 0.60750 0.53980 0.21630
 C233 C 0.58230 0.53259 0.19849
 H234 H 0.58332 0.54593 0.18986
 N235 N 0.59498 0.51252 0.22456
 C236 C 0.64548 0.48030 0.25174
 H237 H 0.64799 0.48959 0.26424
 C238 C 0.65785 0.46349 0.24849
 H239 H 0.66979 0.45978 0.25866
 C240 C 0.62661 0.47372 0.22347
 H241 H 0.61458 0.47784 0.21362
 C242 C 0.63854 0.45672 0.21973
 H243 H 0.63554 0.44793 0.20698
 Zn244 Zn 0.61332 0.50747 0.24510
 N245 N 0.63002 0.48491 0.23946
 C246 C 0.60116 0.48590 0.27800
 N247 N 0.59805 0.50274 0.26738
 C248 C 0.58338 0.51640 0.27198
 C249 C 0.57137 0.51358 0.28803
 C250 C 0.58956 0.48253 0.29423
 C251 C 0.64338 0.53393 0.23532
 C252 C 0.65577 0.55017 0.23763
 C253 C 0.64040 0.55691 0.26842
 C254 C 0.62839 0.54050 0.26557
 N255 N 0.62985 0.52957 0.24909
 H256 H 0.61255 0.47498 0.27389
 H257 H 0.58105 0.52954 0.26315
 H258 H 0.55996 0.52476 0.29162
 H259 H 0.59217 0.46899 0.30244
 H260 H 0.64441 0.52484 0.22246
 H261 H 0.66619 0.55365 0.22637
 H262 H 0.63903 0.56541 0.28164
 H263 H 0.61793 0.53655 0.27657
 C264 C 0.65428 0.45132 0.23241
 C265 C 0.56718 0.51893 0.19498
 C266 C 0.65423 0.56200 0.25429
 C267 C 0.57445 0.49648 0.29943
 C268 C 0.90479 0.50629 0.71907
 H269 H 0.90682 0.51910 0.72828
 C270 C 0.91626 0.50383 0.70247
 H271 H 0.92699 0.51495 0.69885
 C272 C 0.88816 0.47631 0.71257
 H273 H 0.87743 0.46545 0.71668
 C274 C 0.89922 0.47332 0.69580
 H275 H 0.89687 0.46014 0.68716
 N276 N 0.89089 0.49275 0.72366
 C277 C 0.84508 0.52388 0.75770
 H278 H 0.84494 0.51445 0.77030
 C279 C 0.83152 0.54008 0.75610
 H280 H 0.82114 0.54320 0.76768
 C281 C 0.85882 0.53119 0.72727
 H282 H 0.86921 0.52748 0.71590
 C283 C 0.84558 0.54757 0.72511
 H284 H 0.84593 0.55630 0.71203
 Zn285 Zn 0.87582 0.49715 0.74635
 N286 N 0.85848 0.51985 0.74347
 C287 C 0.89282 0.51725 0.77840
 N288 N 0.89414 0.50079 0.76697
 C289 C 0.90890 0.48660 0.76970
 C290 C 0.92278 0.48841 0.78473
 C291 C 0.90634 0.51961 0.79365
 C292 C 0.84430 0.47172 0.73871
 C293 C 0.83166 0.45586 0.74167
 C294 C 0.85043 0.44757 0.77064
 C295 C 0.86271 0.46359 0.76713
 N296 N 0.85959 0.47514 0.75124
 H297 H 0.88131 0.52860 0.77574
 H298 H 0.90974 0.47377 0.76025
 H299 H 0.93418 0.47677 0.78691
 H300 H 0.90509 0.53282 0.80259
 H301 H 0.84193 0.48137 0.72638
 H302 H 0.81948 0.45348 0.73159
 H303 H 0.85339 0.43833 0.78318
 H304 H 0.87468 0.46675 0.77713
 C305 C 0.83169 0.55219 0.73964
 C306 C 0.91342 0.48724 0.69052
 C307 C 0.83468 0.44350 0.75780
 C308 C 0.92151 0.50502 0.79703
 C309 C 0.23098 0.39393 0.00976
 H310 H 0.24042 0.39445 0.02250
 C311 C 0.21486 0.40752 0.00760
 H312 H 0.21180 0.41832 0.01888
 C313 C 0.22369 0.37929 -0.02050
 H314 H 0.22742 0.36856 -0.03160
 C315 C 0.20734 0.39254 -0.02321
 H316 H 0.19863 0.39185 -0.03642
 N317 N 0.23506 0.38015 -0.00416
 C318 C 0.26907 0.33155 0.02391
 H319 H 0.28232 0.33075 0.01505
 C320 C 0.26709 0.31820 0.03913
 H321 H 0.27885 0.30705 0.04181
 C322 C 0.23744 0.34680 0.03079
 H323 H 0.22584 0.35785 0.02743
 C324 C 0.23485 0.33376 0.04614
 H325 H 0.22138 0.33522 0.05465
 Zn326 Zn 0.25813 0.36338 -0.00058
 N327 N 0.25447 0.34565 0.02020
 C328 C 0.29144 0.37794 0.02067
 N329 N 0.27975 0.38023 0.00461
 C330 C 0.28257 0.39535 -0.00798
 C331 C 0.29784 0.40873 -0.00484
 C332 C 0.30695 0.39096 0.02434
 C333 C 0.24999 0.33386 -0.02802
 C334 C 0.25296 0.32236 -0.04461
 C335 C 0.28334 0.33990 -0.05043
 C336 C 0.27986 0.35097 -0.03369
 N337 N 0.26322 0.34802 -0.02304
 H338 H 0.28868 0.36616 0.03076
 H339 H 0.27288 0.39698 -0.02050
 H340 H 0.30000 0.42049 -0.01518
 H341 H 0.31600 0.38902 0.03727
 H342 H 0.23700 0.33166 -0.01917
 H343 H 0.24206 0.31143 -0.04857
 H344 H 0.29665 0.34247 -0.05874
 H345 H 0.29048 0.36193 -0.02928
 C346 C 0.24983 0.31926 0.05054
 C347 C 0.20284 0.40697 -0.00909
 C348 C 0.26973 0.32547 -0.05614
 C349 C 0.31029 0.40661 0.01150
 C350 C 0.71267 0.08819 -0.00144
 H351 H 0.72075 0.08830 -0.01488
 C352 C 0.69702 0.07519 0.00088
 H353 H 0.69291 0.06556 -0.01096
 C354 C 0.70855 0.10035 0.03039
 H355 H 0.71335 0.10995 0.04196
 C356 C 0.69271 0.08761 0.03331
 H357 H 0.68546 0.08745 0.04719
 N358 N 0.71832 0.10027 0.01327
 C359 C 0.75044 0.14826 -0.01415
 H360 H 0.76352 0.14904 -0.00497
 C361 C 0.74747 0.16224 -0.02885
 H362 H 0.75851 0.17349 -0.03095
 C363 C 0.71943 0.13378 -0.02160
 H364 H 0.70821 0.12307 -0.01853
 C365 C 0.71588 0.14743 -0.03646
 H366 H 0.70222 0.14660 -0.04493
 Zn367 Zn 0.74116 0.11608 0.00986
 N368 N 0.73664 0.13418 -0.01094
 C369 C 0.78228 0.10692 0.00221
 N370 N 0.76404 0.09898 0.00509
 C371 C 0.76200 0.07887 0.00530
 C372 C 0.77843 0.06602 0.00203
 C373 C 0.79922 0.09457 -0.00084
 C374 C 0.73364 0.14758 0.03559
 C375 C 0.73756 0.16032 0.05101
 C376 C 0.76617 0.13910 0.05962
 C377 C 0.76171 0.12678 0.04403
 N378 N 0.74584 0.13136 0.03225
 H379 H 0.78387 0.12284 0.00274
 H380 H 0.74769 0.07261 0.00823
 H381 H 0.77619 0.05012 0.00182
 H382 H 0.81361 0.10127 -0.00263
 H383 H 0.72117 0.15090 0.02592
 H384 H 0.72807 0.17352 0.05305
 H385 H 0.77892 0.13526 0.06879
 H386 H 0.77107 0.11369 0.04124
 C387 C 0.73001 0.16192 -0.04027
 C388 C 0.68699 0.07459 0.01852
 C389 C 0.75420 0.15630 0.06311
 C390 C 0.79743 0.07377 -0.00103
 C391 C 0.22552 0.59453 0.49665
 H392 H 0.23506 0.59171 0.48437
 C393 C 0.20937 0.58233 0.50004
 H394 H 0.20667 0.57003 0.49035
 C395 C 0.21805 0.61353 0.52461
 H396 H 0.22160 0.62552 0.53432
 C397 C 0.20172 0.60178 0.52850
 H398 H 0.19265 0.60518 0.54100
 N399 N 0.22947 0.60985 0.50880
 C400 C 0.26222 0.65386 0.47678
 H401 H 0.27505 0.65544 0.48624
 C402 C 0.26011 0.66572 0.46036
 H403 H 0.27135 0.67653 0.45735
 C404 C 0.23165 0.63827 0.46969
 H405 H 0.22049 0.62770 0.47348
 C406 C 0.22894 0.64983 0.45312
 H407 H 0.21583 0.64775 0.44411
 Zn408 Zn 0.25207 0.62531 0.50385
 N409 N 0.24819 0.64034 0.48102
 C410 C 0.28618 0.60786 0.48550
 N411 N 0.27457 0.60762 0.50148
 C412 C 0.27836 0.59429 0.51589
 C413 C 0.29463 0.58074 0.51472
 C414 C 0.30264 0.59466 0.48379
 C415 C 0.24213 0.65871 0.52619
 C416 C 0.24400 0.67265 0.54097
 C417 C 0.27471 0.65558 0.55114
 C418 C 0.27227 0.64197 0.53612
 N419 N 0.25601 0.64360 0.52420
 H420 H 0.28266 0.61820 0.47397
 H421 H 0.26872 0.59423 0.52832
 H422 H 0.29759 0.57042 0.52645
 H423 H 0.31164 0.59500 0.47091
 H424 H 0.22952 0.65983 0.51629
 H425 H 0.23282 0.68461 0.54226
 H426 H 0.28749 0.65376 0.56077
 H427 H 0.28333 0.63008 0.53411
 C428 C 0.24330 0.66377 0.44825
 C429 C 0.19720 0.58589 0.51617
 C430 C 0.26039 0.67112 0.55379
 C431 C 0.30707 0.58091 0.49854
 C432 C 0.72895 0.90237 0.50148
 H433 H 0.73799 0.90339 0.51444
 C434 C 0.71232 0.91526 0.49881
 H435 H 0.70850 0.92598 0.50995
 C436 C 0.72295 0.88697 0.47132
 H437 H 0.72731 0.87616 0.46049
 C438 C 0.70621 0.89957 0.46805
 H439 H 0.69786 0.89829 0.45468
 N440 N 0.73379 0.88842 0.48793
 C441 C 0.76704 0.84067 0.51793
 H442 H 0.78002 0.83918 0.50877
 C443 C 0.76534 0.82826 0.53390
 H444 H 0.77702 0.81708 0.53680
 C445 C 0.73592 0.85689 0.52497
 H446 H 0.72443 0.86799 0.52141
 C447 C 0.73365 0.84485 0.54112
 H448 H 0.72055 0.84714 0.55003
 Zn449 Zn 0.75670 0.87168 0.49258
 N450 N 0.75261 0.85487 0.51397
 C451 C 0.78925 0.88654 0.51437
 N452 N 0.77855 0.88833 0.49765
 C453 C 0.78279 0.90245 0.48442
 C454 C 0.79870 0.91512 0.48752
 C455 C 0.80528 0.89888 0.51805
 C456 C 0.74866 0.84103 0.46638
 C457 C 0.75203 0.82825 0.45076
 C458 C 0.78320 0.84446 0.44503
 C459 C 0.77926 0.85689 0.46078
 N460 N 0.76210 0.85513 0.47096
 H461 H 0.78534 0.87563 0.52497
 H462 H 0.77386 0.90374 0.47137
 H463 H 0.80210 0.92599 0.47663
 H464 H 0.81354 0.89731 0.53149
 H465 H 0.73531 0.83972 0.47493
 H466 H 0.74123 0.81701 0.44748
 H467 H 0.79676 0.84637 0.43691
 H468 H 0.78998 0.86788 0.46484
 C469 C 0.74858 0.83042 0.54590
 C470 C 0.70065 0.91391 0.48193
 C471 C 0.76948 0.82991 0.43980
 C472 C 0.81026 0.91335 0.50448
 C473 C 0.01390 0.23130 0.39742
 H474 H 0.02710 0.24024 0.39757
 C475 C 0.01250 0.21540 0.41021
 H476 H 0.02469 0.21226 0.42027
 C477 C -0.01833 0.22511 0.38457
 H478 H -0.03046 0.22909 0.37478
 C479 C -0.02034 0.20907 0.39708
 H480 H -0.03386 0.20061 0.39642
 N481 N -0.00131 0.23572 0.38480
 C482 C 0.02517 0.26717 0.33691
 H483 H 0.01539 0.28032 0.33637
 C484 C 0.04039 0.26457 0.32339
 H485 H 0.04211 0.27575 0.31238
 C486 C 0.03432 0.23636 0.35164
 H487 H 0.03180 0.22530 0.36254
 C488 C 0.04976 0.23318 0.33845
 H489 H 0.05922 0.21984 0.33964
 Zn490 Zn 0.00147 0.25795 0.36841
 N491 N 0.02257 0.25327 0.35079
 C492 C 0.02370 0.29071 0.38186
 N493 N 0.00693 0.28007 0.38433
 C494 C -0.00595 0.28429 0.39894
 C495 C -0.00229 0.29989 0.41169
 C496 C 0.02791 0.30648 0.39424
 C497 C -0.02770 0.24871 0.34090
 C498 C -0.04497 0.25153 0.32960
 C499 C -0.05043 0.28371 0.34462
 C500 C -0.03311 0.28022 0.35571
 N501 N -0.02227 0.26283 0.35382
 H502 H 0.03396 0.28692 0.37040
 H503 H -0.01900 0.27535 0.40077
 H504 H -0.01256 0.30278 0.42342
 H505 H 0.04121 0.31492 0.39188
 H506 H -0.01865 0.23514 0.33949
 H507 H -0.04926 0.23987 0.31973
 H508 H -0.05871 0.29774 0.34618
 H509 H -0.02826 0.29150 0.36569
 C510 C 0.05300 0.24742 0.32410
 C511 C -0.00479 0.20402 0.41014
 C512 C -0.05663 0.26922 0.33139
 C513 C 0.01486 0.31122 0.40945
 C514 C -0.01213 0.72071 0.08542
 H515 H -0.02527 0.73055 0.08472
 C516 C -0.00972 0.70529 0.07205
 H517 H -0.02121 0.70319 0.06118
 C518 C 0.01876 0.71150 0.10058
 H519 H 0.02995 0.71414 0.11155
 C520 C 0.02171 0.69581 0.08756
 H521 H 0.03523 0.68651 0.08863
 N522 N 0.00193 0.72344 0.09941
 C523 C -0.02814 0.75275 0.14776
 H524 H -0.01921 0.76581 0.14953
 C525 C -0.04363 0.74921 0.16057
 H526 H -0.04646 0.75959 0.17226
 C527 C -0.03472 0.72299 0.13076
 H528 H -0.03108 0.71266 0.11928
 C529 C -0.05033 0.71887 0.14322
 H530 H -0.05878 0.70557 0.14091
 Zn531 Zn -0.00240 0.74498 0.11667
 N532 N -0.02409 0.73978 0.13312
 C533 C -0.02448 0.77996 0.10480
 N534 N -0.00795 0.76807 0.10169
 C535 C 0.00511 0.77210 0.08741
 C536 C 0.00207 0.78895 0.07589
 C537 C -0.02806 0.79703 0.09366
 C538 C 0.02533 0.73461 0.14589
 C539 C 0.04184 0.73690 0.15813
 C540 C 0.04834 0.76799 0.14228
 C541 C 0.03162 0.76520 0.13046
 N542 N 0.02061 0.74862 0.13232
 H543 H -0.03492 0.77629 0.11593
 H544 H 0.01802 0.76226 0.08512
 H545 H 0.01286 0.79212 0.06486
 H546 H -0.04130 0.80633 0.09632
 H547 H 0.01619 0.72168 0.14722
 H548 H 0.04547 0.72555 0.16878
 H549 H 0.05683 0.78135 0.14070
 H550 H 0.02741 0.77641 0.11993
 C551 C -0.05496 0.73205 0.15839
 C552 C 0.00735 0.69256 0.07307
 C553 C 0.05360 0.75375 0.15635
 C554 C -0.01464 0.80174 0.07903
 C555 C 0.49969 0.22870 0.60697
 H556 H 0.48604 0.23777 0.60584
 C557 C 0.50271 0.21239 0.59472
 H558 H 0.49118 0.20882 0.58430
 C559 C 0.53129 0.22240 0.62199
 H560 H 0.54257 0.22655 0.63237
 C561 C 0.53488 0.20590 0.61009
 H562 H 0.54894 0.19748 0.61148
 N563 N 0.51381 0.23328 0.62039
 C564 C 0.48244 0.26594 0.66603
 H565 H 0.49106 0.27930 0.66664
 C566 C 0.46678 0.26343 0.67889
 H567 H 0.46324 0.27508 0.68924
 C568 C 0.47663 0.23455 0.65170
 H569 H 0.48072 0.22317 0.64133
 C570 C 0.46083 0.23145 0.66426
 H571 H 0.45292 0.21764 0.66339
 Zn572 Zn 0.50870 0.25597 0.63607
 N573 N 0.48692 0.25169 0.65265
 C574 C 0.48550 0.28877 0.62098
 N575 N 0.50284 0.27772 0.61942
 C576 C 0.51627 0.28142 0.60539
 C577 C 0.51267 0.29697 0.59238
 C578 C 0.48133 0.30453 0.60832
 C579 C 0.53661 0.24761 0.66550
 C580 C 0.55291 0.25082 0.67775
 C581 C 0.55765 0.28227 0.66186
 C582 C 0.54128 0.27843 0.64989
 N583 N 0.53127 0.26123 0.65177
 H584 H 0.47483 0.28540 0.63199
 H585 H 0.52979 0.27217 0.60427
 H586 H 0.52345 0.29948 0.58116
 H587 H 0.46760 0.31337 0.61003
 H588 H 0.52821 0.23418 0.66686
 H589 H 0.55714 0.23961 0.68834
 H590 H 0.56529 0.29615 0.66028
 H591 H 0.53650 0.28932 0.63923
 C592 C 0.45569 0.24602 0.67806
 C593 C 0.52048 0.20071 0.59624
 C594 C 0.56369 0.26835 0.67601
 C595 C 0.49501 0.30883 0.59377
 C596 C 0.51346 0.72965 0.90319
 H597 H 0.52688 0.73814 0.90472
 C598 C 0.51053 0.71340 0.91519
 H599 H 0.52174 0.70961 0.92607
 C600 C 0.48233 0.72477 0.88744
 H601 H 0.47128 0.72938 0.87675
 C602 C 0.47881 0.70836 0.89915
 H603 H 0.46519 0.70025 0.89705
 N604 N 0.49960 0.73484 0.88947
 C605 C 0.53349 0.76524 0.84574
 H606 H 0.52523 0.77935 0.84508
 C607 C 0.54939 0.76139 0.83321
 H608 H 0.55312 0.77263 0.82280
 C609 C 0.53784 0.73314 0.85954
 H610 H 0.53311 0.72201 0.86958
 C611 C 0.55393 0.72873 0.84740
 H612 H 0.56168 0.71437 0.84861
 Zn613 Zn 0.50545 0.75709 0.87406
 N614 N 0.52804 0.75118 0.85857
 C615 C 0.52945 0.78566 0.89273
 N616 N 0.51076 0.77830 0.89115
 C617 C 0.49564 0.78504 0.90266
 C618 C 0.49880 0.80030 0.91590
 C619 C 0.53342 0.80056 0.90618
 C620 C 0.47840 0.75026 0.84380
 C621 C 0.46281 0.75460 0.83075
 C622 C 0.45890 0.78726 0.84513
 C623 C 0.47458 0.78231 0.85786
 N624 N 0.48378 0.76395 0.85720
 H625 H 0.54142 0.77965 0.88387
 H626 H 0.48102 0.77863 0.90139
 H627 H 0.48622 0.80586 0.92427
 H628 H 0.54858 0.80569 0.90753
 H629 H 0.48630 0.73596 0.84324
 H630 H 0.45888 0.74355 0.82010
 H631 H 0.45155 0.80183 0.84616
 H632 H 0.47947 0.79329 0.86811
 C633 C 0.55984 0.74289 0.83388
 C634 C 0.49309 0.70239 0.91317
 C635 C 0.45277 0.77330 0.83136
 C636 C 0.51796 0.80824 0.91798
 C637 C 0.14486 0.19205 0.24510
 C638 C 0.13860 0.21143 0.25113
 C639 C 0.14966 0.22770 0.24449
 C640 C 0.16604 0.22455 0.23217
 C641 C 0.17203 0.20527 0.22646
 C642 C 0.16128 0.18911 0.23303
 C643 C 0.14449 0.24704 0.25030
 C644 C 0.12877 0.25070 0.26289
 C645 C 0.11735 0.23507 0.27010
 C646 C 0.12199 0.21516 0.26370
 C647 C 0.10982 0.19969 0.27000
 C648 C 0.09403 0.20335 0.28249
 C649 C 0.08978 0.22249 0.28941
 C650 C 0.10136 0.23866 0.28341
 C651 C 0.09654 0.25771 0.29124
 C652 C 0.08089 0.26046 0.30427
 C653 C 0.06945 0.24443 0.31001
 C654 C 0.07399 0.22548 0.30242
 H655 H 0.13765 0.17877 0.24963
 H656 H 0.17448 0.23713 0.22738
 H657 H 0.16556 0.17406 0.22872
 H658 H 0.15282 0.25955 0.24517
 H659 H 0.12584 0.26610 0.26653
 H660 H 0.11192 0.18446 0.26538
 H661 H 0.08513 0.19096 0.28691
 H662 H 0.10475 0.27078 0.28791
 H663 H 0.07800 0.27521 0.31018
 H664 H 0.06510 0.21298 0.30655
 C665 C 0.66367 0.75243 0.75338
 C666 C 0.65196 0.73724 0.76122
 C667 C 0.65580 0.71744 0.75474
 C668 C 0.67110 0.71315 0.74148
 C669 C 0.68259 0.72836 0.73402
 C670 C 0.67866 0.74800 0.74000
 C671 C 0.64432 0.70199 0.76143
 C672 C 0.62878 0.70570 0.77421
 C673 C 0.62426 0.72511 0.78112
 C674 C 0.63647 0.74103 0.77501
 C675 C 0.63297 0.76013 0.78311
 C676 C 0.61780 0.76371 0.79633
 C677 C 0.60524 0.74857 0.80179
 C678 C 0.60810 0.72909 0.79415
 C679 C 0.59445 0.71450 0.79970
 C680 C 0.57897 0.71904 0.81250
 C681 C 0.57648 0.73820 0.82032
 C682 C 0.58976 0.75289 0.81486
 H683 H 0.66147 0.76793 0.75701
 H684 H 0.67384 0.69794 0.73664
 H685 H 0.68737 0.76000 0.73444
 H686 H 0.64727 0.68681 0.75662
 H687 H 0.62082 0.69284 0.77870
 H688 H 0.64198 0.77267 0.77982
 H689 H 0.61577 0.77860 0.80221
 H690 H 0.59498 0.69952 0.79411
 H691 H 0.56864 0.70750 0.81599
 H692 H 0.58814 0.76776 0.82088
 C693 C 0.34577 0.76623 0.75241
 C694 C 0.35871 0.78100 0.75938
 C695 C 0.35589 0.80059 0.75202
 C696 C 0.34062 0.80506 0.73849
 C697 C 0.32811 0.79020 0.73169
 C698 C 0.33081 0.77081 0.73880
 C699 C 0.36846 0.81563 0.75801
 C700 C 0.38411 0.81167 0.77088
 C701 C 0.38775 0.79240 0.77853
 C702 C 0.37449 0.77694 0.77311
 C703 C 0.37739 0.75799 0.78166
 C704 C 0.39291 0.75408 0.79468
 C705 C 0.40636 0.76874 0.79959
 C706 C 0.40411 0.78809 0.79155
 C707 C 0.41853 0.80223 0.79675
 C708 C 0.43419 0.79737 0.80954
 C709 C 0.43613 0.77831 0.81764
 C710 C 0.42211 0.76407 0.81254
 H711 H 0.34694 0.75089 0.75688
 H712 H 0.33880 0.82006 0.73282
 H713 H 0.32125 0.75908 0.73380
 H714 H 0.36629 0.83066 0.75253
 H715 H 0.39296 0.82421 0.77473
 H716 H 0.36772 0.74578 0.77881
 H717 H 0.39448 0.73930 0.80089
 H718 H 0.41841 0.81710 0.79098
 H719 H 0.44504 0.80856 0.81287
 H720 H 0.42333 0.74931 0.81884
 C721 C -0.14716 0.26981 0.23471
 C722 C -0.14553 0.27757 0.25360
 C723 C -0.16232 0.28842 0.26096
 C724 C -0.17964 0.29177 0.24959
 C725 C -0.18102 0.28428 0.23066
 C726 C -0.16448 0.27307 0.22358
 C727 C -0.16186 0.29588 0.27970
 C728 C -0.14510 0.29283 0.29143
 C729 C -0.12787 0.28228 0.28479
 C730 C -0.12794 0.27485 0.26543
 C731 C -0.11034 0.26520 0.25847
 C732 C -0.09336 0.26265 0.27000
 C733 C -0.09321 0.26935 0.28900
 C734 C -0.11046 0.27912 0.29679
 C735 C -0.10952 0.28522 0.31633
 C736 C -0.09215 0.28198 0.32740
 C737 C -0.07508 0.27258 0.31951
 C738 C -0.07578 0.26630 0.30025
 H739 H -0.13535 0.26108 0.22800
 H740 H -0.19234 0.29959 0.25602
 H741 H -0.16433 0.26739 0.20898
 H742 H -0.17466 0.30421 0.28543
 H743 H -0.14608 0.29926 0.30561
 H744 H -0.10900 0.25966 0.24397
 H745 H -0.08019 0.25523 0.26396
 H746 H -0.12199 0.29228 0.32365
 H747 H -0.09222 0.28661 0.34235
 H748 H -0.06261 0.25920 0.29388
 C749 C -0.16139 0.74379 0.23648
 C750 C -0.14843 0.72846 0.22923
 C751 C -0.15191 0.70866 0.23512
 C752 C -0.16777 0.70457 0.24750
 C753 C -0.18045 0.71992 0.25443
 C754 C -0.17706 0.73953 0.24883
 C755 C -0.13956 0.69298 0.22866
 C756 C -0.12370 0.69638 0.21647
 C757 C -0.11953 0.71576 0.21008
 C758 C -0.13221 0.73206 0.21644
 C759 C -0.12832 0.75138 0.20970
 C760 C -0.11264 0.75474 0.19727
 C761 C -0.10007 0.73909 0.19108
 C762 C -0.10320 0.71938 0.19743
 C763 C -0.08978 0.70414 0.19081
 C764 C -0.07424 0.70834 0.17830
 C765 C -0.07140 0.72780 0.17192
 C766 C -0.08437 0.74312 0.17847
 H767 H -0.15989 0.75927 0.23297
 H768 H -0.17009 0.68936 0.25198
 H769 H -0.18675 0.75167 0.25385
 H770 H -0.14216 0.67781 0.23311
 H771 H -0.11507 0.68333 0.21219
 H772 H -0.13723 0.76436 0.21363
 H773 H -0.11032 0.76983 0.19245
 H774 H -0.09071 0.68879 0.19506
 H775 H -0.06421 0.69625 0.17379
 H776 H -0.08246 0.75823 0.17349
 C777 C 0.33839 0.21208 0.72883
 C778 C 0.35654 0.22031 0.73519
 C779 C 0.35843 0.22476 0.75506
 C780 C 0.34291 0.22073 0.76790
 C781 C 0.32503 0.21212 0.76150
 C782 C 0.32311 0.20807 0.74166
 C783 C 0.37591 0.23305 0.76216
 C784 C 0.39168 0.23702 0.75002
 C785 C 0.39069 0.23273 0.73012
 C786 C 0.37283 0.22420 0.72257
 C787 C 0.37193 0.21964 0.70271
 C788 C 0.38783 0.22321 0.69064
 C789 C 0.40530 0.23149 0.69772
 C790 C 0.40703 0.23652 0.71752
 C791 C 0.42512 0.24506 0.72379
 C792 C 0.44072 0.24820 0.71100
 C793 C 0.43894 0.24297 0.69155
 C794 C 0.42110 0.23470 0.68502
 H795 H 0.33532 0.20866 0.71396
 H796 H 0.34542 0.22351 0.78308
 H797 H 0.30939 0.20245 0.73562
 H798 H 0.37747 0.23651 0.77736
 H799 H 0.40455 0.24337 0.75683
 H800 H 0.35916 0.21310 0.69593
 H801 H 0.38644 0.21936 0.67551
 H802 H 0.42781 0.24948 0.73848
 H803 H 0.45441 0.25448 0.71647
 H804 H 0.41943 0.23090 0.66991
 C805 C 0.64635 0.27356 0.77869
 C806 C 0.64616 0.27961 0.75919
 C807 C 0.66344 0.28885 0.75226
 C808 C 0.67998 0.29198 0.76446
 C809 C 0.68007 0.28587 0.78387
 C810 C 0.66289 0.27659 0.79067
 C811 C 0.66429 0.29484 0.73308
 C812 C 0.64840 0.29180 0.72049
 C813 C 0.63081 0.28264 0.72660
 C814 C 0.62955 0.27669 0.74635
 C815 C 0.61171 0.26809 0.75260
 C816 C 0.59577 0.26517 0.74006
 C817 C 0.59688 0.27053 0.72075
 C818 C 0.61438 0.27931 0.71365
 C819 C 0.61467 0.28425 0.69382
 C820 C 0.59829 0.28071 0.68176
 C821 C 0.58104 0.27213 0.68893
 C822 C 0.58048 0.26711 0.70849
 H823 H 0.63396 0.26640 0.78529
 H824 H 0.69316 0.29840 0.75835
 H825 H 0.66164 0.27225 0.80559
 H826 H 0.67746 0.30195 0.72769
 H827 H 0.65041 0.29697 0.70601
 H828 H 0.60944 0.26351 0.76724
 H829 H 0.58240 0.25852 0.74557
 H830 H 0.62735 0.29068 0.68703
 H831 H 0.59928 0.28444 0.66664
 H832 H 0.56711 0.26070 0.71428
 C833 C 0.13195 0.76707 0.26102
 C834 C 0.13399 0.76776 0.24075
 C835 C 0.15291 0.77281 0.23338
 C836 C 0.16914 0.77626 0.24589
 C837 C 0.16692 0.77511 0.26591
 C838 C 0.14812 0.77068 0.27328
 C839 C 0.15560 0.77435 0.21357
 C840 C 0.13987 0.77128 0.20079
 C841 C 0.12073 0.76618 0.20732
 C842 C 0.11790 0.76384 0.22760
 C843 C 0.09920 0.75737 0.23405
 C844 C 0.08362 0.75378 0.22125
 C845 C 0.08587 0.75670 0.20155
 C846 C 0.10436 0.76310 0.19424
 C847 C 0.10554 0.76637 0.17412
 C848 C 0.08915 0.76325 0.16196
 C849 C 0.07107 0.75668 0.16930
 C850 C 0.06958 0.75337 0.18913
 H851 H 0.11801 0.76411 0.26795
 H852 H 0.18362 0.77960 0.23998
 H853 H 0.14579 0.77024 0.28869
 H854 H 0.17005 0.77811 0.20785
 H855 H 0.14337 0.77270 0.18577
 H856 H 0.09614 0.75456 0.24897
 H857 H 0.06957 0.74877 0.22691
 H858 H 0.11877 0.77165 0.16731
 H859 H 0.09067 0.76588 0.14666
 H860 H 0.05551 0.74862 0.19497
 C861 C 0.27038 0.15507 0.21479
 C862 C 0.26436 0.13648 0.22203
 C863 C 0.24351 0.13370 0.22403
 C864 C 0.22950 0.14882 0.21880
 C865 C 0.23574 0.16713 0.21174
 C866 C 0.25629 0.17005 0.20978
 C867 C 0.23666 0.11587 0.23130
 C868 C 0.25001 0.10065 0.23686
 C869 C 0.27093 0.10257 0.23524
 C870 C 0.27822 0.12067 0.22741
 C871 C 0.29910 0.12227 0.22509
 C872 C 0.31242 0.10687 0.23025
 C873 C 0.30560 0.08930 0.23811
 C874 C 0.28481 0.08689 0.24095
 C875 C 0.27885 0.06885 0.24942
 C876 C 0.29290 0.05381 0.25434
 C877 C 0.31334 0.05615 0.25106
 C878 C 0.31957 0.07403 0.24307
 H879 H 0.28584 0.15870 0.21304
 H880 H 0.21362 0.14626 0.22015
 H881 H 0.26158 0.18415 0.20467
 H882 H 0.22073 0.11365 0.23280
 H883 H 0.24332 0.08741 0.24221
 H884 H 0.30575 0.13522 0.21905
 H885 H 0.32831 0.10878 0.22805
 H886 H 0.26348 0.06580 0.25249
 H887 H 0.28766 0.04010 0.26041
 H888 H 0.33542 0.07613 0.24081
 C889 C 0.77611 0.67251 0.71199
 C890 C 0.76996 0.65394 0.71915
 C891 C 0.74938 0.65218 0.72353
 C892 C 0.73569 0.66823 0.72051
 C893 C 0.74204 0.68638 0.71319
 C894 C 0.76237 0.68835 0.70908
 C895 C 0.74247 0.63438 0.73082
 C896 C 0.75549 0.61814 0.73391
 C897 C 0.77610 0.61898 0.72969
 C898 C 0.78344 0.63715 0.72207
 C899 C 0.80397 0.63785 0.71746
 C900 C 0.81689 0.62149 0.72015
 C901 C 0.81003 0.60375 0.72761
 C902 C 0.78960 0.60220 0.73265
 C903 C 0.78361 0.58384 0.74042
 C904 C 0.79727 0.56781 0.74278
 C905 C 0.81733 0.56942 0.73750
 C906 C 0.82360 0.58751 0.73000
 H907 H 0.79142 0.67542 0.70855
 H908 H 0.71995 0.66647 0.72358
 H909 H 0.76777 0.70232 0.70376
 H910 H 0.72676 0.63295 0.73420
 H911 H 0.74876 0.60503 0.73950
 H912 H 0.81062 0.65084 0.71153
 H913 H 0.83250 0.62275 0.71628
 H914 H 0.76851 0.58126 0.74485
 H915 H 0.79198 0.55394 0.74847
 H916 H 0.83919 0.58901 0.72616
 C917 C 0.75892 0.35225 0.81389
 C918 C 0.76509 0.35727 0.79508
 C919 C 0.75835 0.34530 0.77960
 C920 C 0.74590 0.32922 0.78295
 C921 C 0.73991 0.32457 0.80164
 C922 C 0.74658 0.33621 0.81703
 C923 C 0.76404 0.34939 0.76081
 C924 C 0.77634 0.36511 0.75689
 C925 C 0.78349 0.37756 0.77170
 C926 C 0.77768 0.37364 0.79112
 C927 C 0.78458 0.38627 0.80589
 C928 C 0.79677 0.40207 0.80196
 C929 C 0.80269 0.40598 0.78321
 C930 C 0.79621 0.39383 0.76776
 C931 C 0.80283 0.39853 0.74902
 C932 C 0.81519 0.41457 0.74589
 C933 C 0.82147 0.42651 0.76123
 C934 C 0.81511 0.42209 0.77986
 H935 H 0.76330 0.36036 0.82655
 H936 H 0.74103 0.32013 0.77096
 H937 H 0.74199 0.33307 0.83160
 H938 H 0.75891 0.34029 0.74893
 H939 H 0.77988 0.36713 0.74195
 H940 H 0.78079 0.38445 0.82080
 H941 H 0.80166 0.41134 0.81381
 H942 H 0.79888 0.39010 0.73642
 H943 H 0.82012 0.41744 0.73138
 H944 H 0.81964 0.43139 0.79183
 C945 C 0.24475 -0.16579 0.26246
 C946 C 0.25475 -0.15613 0.27774
 C947 C 0.25014 -0.16187 0.29676
 C948 C 0.23673 -0.17715 0.30014
 C949 C 0.22709 -0.18697 0.28485
 C950 C 0.23121 -0.18077 0.26597
 C951 C 0.25884 -0.15230 0.31243
 C952 C 0.27192 -0.13693 0.30973
 C953 C 0.27715 -0.13066 0.29110
 C954 C 0.26892 -0.14085 0.27483
 C955 C 0.27542 -0.13566 0.25626
 C956 C 0.28913 -0.12081 0.25360
 C957 C 0.29665 -0.11022 0.26922
 C958 C 0.29060 -0.11477 0.28819
 C959 C 0.29810 -0.10300 0.30342
 C960 C 0.31134 -0.08778 0.29995
 C961 C 0.31769 -0.08368 0.28124
 C962 C 0.31021 -0.09503 0.26593
 H963 H 0.24689 -0.16204 0.24757
 H964 H 0.23321 -0.18065 0.31492
 H965 H 0.22465 -0.18802 0.25359
 H966 H 0.25543 -0.15667 0.32703
 H967 H 0.27806 -0.13056 0.32266
 H968 H 0.27051 -0.14312 0.24339
 H969 H 0.29377 -0.11747 0.23907
 H970 H 0.29373 -0.10482 0.31818
 H971 H 0.31632 -0.07892 0.31203
 H972 H 0.31505 -0.09214 0.25137
 C973 C 0.25049 -0.14090 0.69077
 C974 C 0.24439 -0.13347 0.70893
 C975 C 0.25237 -0.14320 0.72552
 C976 C 0.26611 -0.15941 0.72383
 C977 C 0.27194 -0.16687 0.70567
 C978 C 0.26386 -0.15721 0.68923
 C979 C 0.24640 -0.13693 0.74380
 C980 C 0.23234 -0.12145 0.74606
 C981 C 0.22378 -0.11132 0.73002
 C982 C 0.23042 -0.11699 0.71117
 C983 C 0.22297 -0.10591 0.69523
 C984 C 0.20915 -0.09023 0.69749
 C985 C 0.20190 -0.08508 0.71563
 C986 C 0.20895 -0.09559 0.73218
 C987 C 0.20061 -0.09003 0.75017
 C988 C 0.18619 -0.07458 0.75157
 C989 C 0.17953 -0.06406 0.73519
 C990 C 0.18753 -0.06944 0.71726
 H991 H 0.24505 -0.13467 0.67737
 H992 H 0.27130 -0.16684 0.73686
 H993 H 0.26831 -0.16171 0.67488
 H994 H 0.25254 -0.14423 0.75657
 H995 H 0.22871 -0.11759 0.76070
 H996 H 0.22776 -0.10875 0.68069
 H997 H 0.20392 -0.08215 0.68480
 H998 H 0.20457 -0.09754 0.76342
 H999 H 0.17997 -0.07109 0.76557
 H1000 H 0.18269 -0.06130 0.70448
 C1001 C 0.75765 0.36350 0.21941
 C1002 C 0.73643 0.36346 0.21883
 C1003 C 0.72731 0.34511 0.21472
 C1004 C 0.73904 0.32761 0.21192
 C1005 C 0.76001 0.32791 0.21286
 C1006 C 0.76914 0.34605 0.21648
 C1007 C 0.70652 0.34423 0.21347
 C1008 C 0.69442 0.36120 0.21603
 C1009 C 0.70266 0.37986 0.22024
 C1010 C 0.72400 0.38092 0.22206
 C1011 C 0.73217 0.39933 0.22733
 C1012 C 0.72003 0.41617 0.23046
 C1013 C 0.69930 0.41551 0.22828
 C1014 C 0.69026 0.39745 0.22294
 C1015 C 0.66915 0.39784 0.22043
 C1016 C 0.65766 0.41528 0.22342
 C1017 C 0.66668 0.43294 0.22903
 C1018 C 0.68754 0.43293 0.23141
 H1019 H 0.76593 0.37679 0.22183
 H1020 H 0.73178 0.31364 0.20923
 H1021 H 0.78532 0.34683 0.21680
 H1022 H 0.69947 0.33024 0.21039
 H1023 H 0.67855 0.35905 0.21492
 H1024 H 0.74798 0.40122 0.22951
 H1025 H 0.72701 0.42992 0.23460
 H1026 H 0.66099 0.38502 0.21600
 H1027 H 0.64155 0.41487 0.22157
 H1028 H 0.69469 0.44663 0.23544
 C1029 C 0.75857 0.64304 0.26210
 C1030 C 0.73755 0.64423 0.26479
 C1031 C 0.72907 0.66262 0.27137
 C1032 C 0.74118 0.67901 0.27480
 C1033 C 0.76194 0.67754 0.27206
 C1034 C 0.77047 0.65940 0.26569
 C1035 C 0.70854 0.66463 0.27457
 C1036 C 0.69612 0.64870 0.27171
 C1037 C 0.70372 0.62999 0.26531
 C1038 C 0.72471 0.62783 0.26137
 C1039 C 0.73214 0.60942 0.25405
 C1040 C 0.71966 0.59354 0.25102
 C1041 C 0.69933 0.59520 0.25530
 C1042 C 0.69102 0.61337 0.26260
 C1043 C 0.67034 0.61403 0.26707
 C1044 C 0.65857 0.59743 0.26430
 C1045 C 0.66687 0.57961 0.25696
 C1046 C 0.68727 0.57864 0.25242
 H1047 H 0.76643 0.62962 0.25753
 H1048 H 0.73435 0.69304 0.27951
 H1049 H 0.78652 0.65772 0.26377
 H1050 H 0.70197 0.67869 0.27949
 H1051 H 0.68048 0.65169 0.27449
 H1052 H 0.74759 0.60677 0.25028
 H1053 H 0.72608 0.57971 0.24536
 H1054 H 0.66274 0.62702 0.27294
 H1055 H 0.64280 0.59862 0.26780
 H1056 H 0.69390 0.56481 0.24699
 C1057 C 0.26309 0.13664 0.76752
 C1058 C 0.24207 0.13849 0.77007
 C1059 C 0.23419 0.15688 0.77729
 C1060 C 0.24690 0.17262 0.78154
 C1061 C 0.26762 0.17051 0.77879
 C1062 C 0.27554 0.15238 0.77181
 C1063 C 0.21367 0.15955 0.78022
 C1064 C 0.20063 0.14434 0.77629
 C1065 C 0.20761 0.12570 0.76912
 C1066 C 0.22866 0.12277 0.76581
 C1067 C 0.23560 0.10426 0.75832
 C1068 C 0.22258 0.08906 0.75437
 C1069 C 0.20211 0.09156 0.75772
 C1070 C 0.19425 0.10987 0.76514
 C1071 C 0.17331 0.11143 0.76835
 C1072 C 0.16093 0.09551 0.76443
 C1073 C 0.16886 0.07751 0.75714
 C1074 C 0.18949 0.07570 0.75377
 H1075 H 0.27051 0.12323 0.76236
 H1076 H 0.24060 0.18667 0.78678
 H1077 H 0.29155 0.15025 0.76987
 H1078 H 0.20757 0.17359 0.78569
 H1079 H 0.18506 0.14779 0.77900
 H1080 H 0.25111 0.10095 0.75522
 H1081 H 0.22865 0.07512 0.74866
 H1082 H 0.16594 0.12467 0.77395
 H1083 H 0.14500 0.09737 0.76698
 H1084 H 0.19584 0.06172 0.74840
 C1085 C 0.19803 0.24005 0.14023
 C1086 C 0.21700 0.24743 0.13543
 C1087 C 0.23345 0.24228 0.14774
 C1088 C 0.23085 0.23024 0.16400
 C1089 C 0.21195 0.22314 0.16851
 C1090 C 0.19563 0.22816 0.15646
 C1091 C 0.25243 0.24922 0.14386
 C1092 C 0.25557 0.26136 0.12811
 C1093 C 0.23976 0.26708 0.11541
 C1094 C 0.22019 0.25981 0.11901
 C1095 C 0.20447 0.26515 0.10606
 C1096 C 0.20759 0.27735 0.09036
 C1097 C 0.22643 0.28484 0.08685
 C1098 C 0.24284 0.27984 0.09924
 C1099 C 0.26160 0.28799 0.09493
 C1100 C 0.26380 0.30055 0.07914
 C1101 C 0.24749 0.30547 0.06704
 C1102 C 0.22886 0.29743 0.07097
 H1103 H 0.18466 0.24319 0.13185
 H1104 H 0.24354 0.22666 0.17337
 H1105 H 0.18091 0.22268 0.15948
 H1106 H 0.26506 0.24527 0.15320
 H1107 H 0.27073 0.26596 0.12629
 H1108 H 0.18943 0.26011 0.10758
 H1109 H 0.19502 0.28107 0.08088
 H1110 H 0.27489 0.28520 0.10354
 H1111 H 0.27832 0.30675 0.07662
 H1112 H 0.21617 0.30089 0.06155
 C1113 C 0.70108 0.75983 0.64439
 C1114 C 0.71990 0.76581 0.63754
 C1115 C 0.73716 0.76037 0.64865
 C1116 C 0.73553 0.74913 0.66555
 C1117 C 0.71682 0.74317 0.67195
 C1118 C 0.69965 0.74873 0.66128
 C1119 C 0.75603 0.76616 0.64288
 C1120 C 0.75828 0.77738 0.62634
 C1121 C 0.74165 0.78321 0.61469
 C1122 C 0.72217 0.77703 0.62020
 C1123 C 0.70567 0.78210 0.60808
 C1124 C 0.70798 0.79304 0.59137
 C1125 C 0.72673 0.79958 0.58605
 C1126 C 0.74385 0.79488 0.59763
 C1127 C 0.76245 0.80225 0.59166
 C1128 C 0.76387 0.81359 0.57494
 C1129 C 0.74693 0.81802 0.56349
 C1130 C 0.72838 0.81089 0.56917
 H1131 H 0.68712 0.76352 0.63716
 H1132 H 0.74888 0.74518 0.67391
 H1133 H 0.68501 0.74422 0.66586
 H1134 H 0.76928 0.76199 0.65129
 H1135 H 0.77343 0.78103 0.62299
 H1136 H 0.69065 0.77765 0.61097
 H1137 H 0.69485 0.79652 0.58253
 H1138 H 0.77619 0.79984 0.59968
 H1139 H 0.77833 0.81924 0.57116
 H1140 H 0.71517 0.81404 0.56035
 C1141 C 0.75538 0.75469 0.33349
 C1142 C 0.77110 0.76122 0.34560
 C1143 C 0.79092 0.75469 0.34107
 C1144 C 0.79468 0.74253 0.32493
 C1145 C 0.77894 0.73637 0.31306
 C1146 C 0.75930 0.74249 0.31757
 C1147 C 0.80696 0.76027 0.35265
 C1148 C 0.80387 0.77216 0.36879
 C1149 C 0.78448 0.77916 0.37398
 C1150 C 0.76785 0.77388 0.36201
 C1151 C 0.74859 0.78160 0.36672
 C1152 C 0.74557 0.79389 0.38259
 C1153 C 0.76151 0.79886 0.39459
 C1154 C 0.78118 0.79148 0.39062
 C1155 C 0.79670 0.79673 0.40356
 C1156 C 0.79282 0.80903 0.41942
 C1157 C 0.77341 0.81655 0.42305
 C1158 C 0.75781 0.81129 0.41056
 H1159 H 0.73984 0.75857 0.33593
 H1160 H 0.80991 0.73758 0.32174
 H1161 H 0.74687 0.73800 0.30857
 H1162 H 0.82214 0.75535 0.34923
 H1163 H 0.81716 0.77580 0.37677
 H1164 H 0.73540 0.77868 0.35826
 H1165 H 0.73050 0.79953 0.38554
 H1166 H 0.81200 0.79147 0.40204
 H1167 H 0.80511 0.81246 0.42905
 H1168 H 0.74274 0.81715 0.41309
 C1169 C 0.28132 0.22633 -0.14285
 C1170 C 0.28255 0.24735 -0.14243
 C1171 C 0.28735 0.25702 -0.15986
 C1172 C 0.29021 0.24605 -0.17692
 C1173 C 0.28865 0.22528 -0.17710
 C1174 C 0.28431 0.21558 -0.15987
 C1175 C 0.28921 0.27762 -0.16025
 C1176 C 0.28660 0.28897 -0.14369
 C1177 C 0.28175 0.28017 -0.12594
 C1178 C 0.27931 0.25906 -0.12539
 C1179 C 0.27344 0.25040 -0.10788
 C1180 C 0.27032 0.26183 -0.09144
 C1181 C 0.27308 0.28230 -0.09162
 C1182 C 0.27901 0.29181 -0.10878
 C1183 C 0.28207 0.31259 -0.10794
 C1184 C 0.27909 0.32333 -0.09091
 C1185 C 0.27294 0.31387 -0.07413
 C1186 C 0.26997 0.29332 -0.07461
 H1187 H 0.27831 0.21762 -0.13027
 H1188 H 0.29338 0.25376 -0.19019
 H1189 H 0.28343 0.19951 -0.15949
 H1190 H 0.29281 0.28509 -0.17354
 H1191 H 0.28822 0.30476 -0.14542
 H1192 H 0.27082 0.23475 -0.10640
 H1193 H 0.26573 0.25450 -0.07838
 H1194 H 0.28693 0.32104 -0.12008
 H1195 H 0.28140 0.33922 -0.09095
 H1196 H 0.26552 0.28581 -0.06160
 C1197 C 0.74508 0.24449 -0.14049
 C1198 C 0.72942 0.23803 -0.12859
 C1199 C 0.70980 0.24584 -0.13245
 C1200 C 0.70614 0.25917 -0.14772
 C1201 C 0.72178 0.26516 -0.15946
 C1202 C 0.74126 0.25780 -0.15561
 C1203 C 0.69383 0.24030 -0.12110
 C1204 C 0.69676 0.22708 -0.10595
 C1205 C 0.71593 0.21869 -0.10151
 C1206 C 0.73252 0.22415 -0.11311
 C1207 C 0.75159 0.21539 -0.10895
 C1208 C 0.75443 0.20181 -0.09406
 C1209 C 0.73849 0.19644 -0.08258
 C1210 C 0.71902 0.20486 -0.08599
 C1211 C 0.70348 0.19902 -0.07366
 C1212 C 0.70714 0.18525 -0.05892
 C1213 C 0.72634 0.17678 -0.05584
 C1214 C 0.74197 0.18257 -0.06770
 H1215 H 0.76048 0.23960 -0.13857
 H1216 H 0.69105 0.26505 -0.15041
 H1217 H 0.75359 0.26210 -0.16455
 H1218 H 0.67880 0.24624 -0.12400
 H1219 H 0.68351 0.22361 -0.09809
 H1220 H 0.76476 0.21854 -0.11707
 H1221 H 0.76934 0.19542 -0.09152
 H1222 H 0.68831 0.20485 -0.07485
 H1223 H 0.69485 0.18139 -0.04972
 H1224 H 0.75688 0.17599 -0.06556
 C1225 C 0.19094 0.74092 0.35362
 C1226 C 0.21003 0.73312 0.35944
 C1227 C 0.22670 0.73777 0.34795
 C1228 C 0.22421 0.74982 0.33153
 C1229 C 0.20521 0.75741 0.32606
 C1230 C 0.18866 0.75281 0.33723
 C1231 C 0.24580 0.73035 0.35282
 C1232 C 0.24888 0.71830 0.36884
 C1233 C 0.23287 0.71317 0.38083
 C1234 C 0.21314 0.72086 0.37615
 C1235 C 0.19721 0.71611 0.38839
 C1236 C 0.20032 0.70423 0.40452
 C1237 C 0.21935 0.69646 0.40916
 C1238 C 0.23593 0.70071 0.39740
 C1239 C 0.25488 0.69222 0.40279
 C1240 C 0.25715 0.68029 0.41916
 C1241 C 0.24072 0.67632 0.43076
 C1242 C 0.22184 0.68445 0.42560
 H1243 H 0.17740 0.73813 0.36129
 H1244 H 0.23707 0.75304 0.32279
 H1245 H 0.17384 0.75864 0.33339
 H1246 H 0.25859 0.73388 0.34409
 H1247 H 0.26415 0.71334 0.37148
 H1248 H 0.18202 0.72145 0.38602
 H1249 H 0.18760 0.70105 0.41348
 H1250 H 0.26829 0.69434 0.39467
 H1251 H 0.27186 0.67393 0.42262
 H1252 H 0.20904 0.68168 0.43459
 C1253 C 0.30991 0.75244 0.64423
 C1254 C 0.29090 0.74623 0.63770
 C1255 C 0.27378 0.75356 0.64773
 C1256 C 0.27575 0.76668 0.66336
 C1257 C 0.29466 0.77268 0.66953
 C1258 C 0.31167 0.76540 0.65986
 C1259 C 0.25472 0.74773 0.64222
 C1260 C 0.25215 0.73455 0.62705
 C1261 C 0.26864 0.72669 0.61659
 C1262 C 0.28831 0.73291 0.62177
 C1263 C 0.30471 0.72571 0.61077
 C1264 C 0.30210 0.71268 0.59549
 C1265 C 0.28314 0.70610 0.59057
 C1266 C 0.26610 0.71290 0.60104
 C1267 C 0.24726 0.70543 0.59554
 C1268 C 0.24553 0.69202 0.58028
 C1269 C 0.26240 0.68551 0.56992
 C1270 C 0.28118 0.69266 0.57517
 H1271 H 0.32377 0.74748 0.63773
 H1272 H 0.26251 0.77197 0.67099
 H1273 H 0.32646 0.76990 0.66432
 H1274 H 0.24158 0.75336 0.64979
 H1275 H 0.23688 0.73099 0.62380
 H1276 H 0.31988 0.73001 0.61346
 H1277 H 0.31516 0.70759 0.58747
 H1278 H 0.23355 0.70938 0.60284
 H1279 H 0.23088 0.68645 0.57679
 H1280 H 0.29433 0.68790 0.56714
 C1281 C 0.74834 0.24517 0.16018
 C1282 C 0.76311 0.23569 0.14848
 C1283 C 0.78335 0.24074 0.15170
 C1284 C 0.78837 0.25464 0.16595
 C1285 C 0.77357 0.26379 0.17741
 C1286 C 0.75354 0.25894 0.17434
 C1287 C 0.79855 0.23192 0.14070
 C1288 C 0.79425 0.21808 0.12652
 C1289 C 0.77440 0.21244 0.12266
 C1290 C 0.75855 0.22144 0.13379
 C1291 C 0.73868 0.21591 0.12981
 C1292 C 0.73438 0.20217 0.11551
 C1293 C 0.74960 0.19330 0.10456
 C1294 C 0.76986 0.19818 0.10798
 C1295 C 0.78469 0.18856 0.09648
 C1296 C 0.77953 0.17495 0.08218
 C1297 C 0.75950 0.17035 0.07878
 C1298 C 0.74461 0.17956 0.09012
 H1299 H 0.73262 0.24227 0.15891
 H1300 H 0.80390 0.25849 0.16801
 H1301 H 0.74181 0.26560 0.18316
 H1302 H 0.81404 0.23575 0.14310
 H1303 H 0.80698 0.21211 0.11879
 H1304 H 0.72595 0.22199 0.13747
 H1305 H 0.71887 0.19848 0.11297
 H1306 H 0.80044 0.19120 0.09800
 H1307 H 0.79134 0.16828 0.07347
 H1308 H 0.72906 0.17592 0.08779
 C1309 C 0.50805 0.41221 0.51335
 C1310 C 0.49241 0.40094 0.52102
 C1311 C 0.47255 0.40579 0.51478
 C1312 C 0.46867 0.42151 0.50183
 C1313 C 0.48433 0.43259 0.49458
 C1314 C 0.50401 0.42772 0.50038
 C1315 C 0.45660 0.39494 0.52144
 C1316 C 0.45982 0.37917 0.53410
 C1317 C 0.47926 0.37368 0.54083
 C1318 C 0.49578 0.38500 0.53448
 C1319 C 0.51507 0.38017 0.54199
 C1320 C 0.51822 0.36469 0.55498
 C1321 C 0.50241 0.35321 0.56092
 C1322 C 0.48270 0.35738 0.55387
 C1323 C 0.46733 0.34491 0.56011
 C1324 C 0.47138 0.32929 0.57295
 C1325 C 0.49082 0.32547 0.58007
 C1326 C 0.50627 0.33754 0.57393
 H1327 H 0.52362 0.40940 0.51691
 H1328 H 0.45341 0.42497 0.49715
 H1329 H 0.51637 0.43611 0.49502
 H1330 H 0.44139 0.39863 0.51677
 H1331 H 0.44659 0.37175 0.53854
 H1332 H 0.52816 0.38825 0.53832
 H1333 H 0.53330 0.36162 0.56039
 H1334 H 0.45203 0.34657 0.55518
 H1335 H 0.45921 0.31996 0.57709
 H1336 H 0.52136 0.33487 0.57947
 C1337 C -0.02327 0.88782 -0.01976
 C1338 C -0.02515 0.88829 0.00055
 C1339 C -0.03002 0.90694 0.00926
 C1340 C -0.03254 0.92424 -0.00197
 C1341 C -0.03056 0.92345 -0.02203
 C1342 C -0.02594 0.90508 -0.03076
 C1343 C -0.03240 0.90828 0.02913
 C1344 C -0.03027 0.89150 0.04069
 C1345 C -0.02544 0.87255 0.03283
 C1346 C -0.02249 0.87098 0.01246
 C1347 C -0.01680 0.85220 0.00470
 C1348 C -0.01425 0.83550 0.01630
 C1349 C -0.01741 0.83670 0.03607
 C1350 C -0.02323 0.85515 0.04467
 C1351 C -0.02665 0.85530 0.06479
 C1352 C -0.02403 0.83800 0.07578
 C1353 C -0.01791 0.81996 0.06720
 C1354 C -0.01473 0.81943 0.04730
 H1355 H -0.02002 0.87434 -0.02771
 H1356 H -0.03590 0.93841 0.00499
 H1357 H -0.02471 0.90397 -0.04627
 H1358 H -0.03606 0.92251 0.03587
 H1359 H -0.03230 0.89401 0.05587
 H1360 H -0.01390 0.84985 -0.01037
 H1361 H -0.00976 0.82144 0.00967
 H1362 H -0.03146 0.86847 0.07255
 H1363 H -0.02649 0.83884 0.09116
 H1364 H -0.01034 0.80544 0.04046
 C1365 C 0.03204 0.57246 0.01955
 C1366 C 0.02687 0.59209 0.01340
 C1367 C 0.02380 0.59523 -0.00662
 C1368 C 0.02626 0.57943 -0.01977
 C1369 C 0.03157 0.56016 -0.01343
 C1370 C 0.03433 0.55686 0.00634
 C1371 C 0.01829 0.61411 -0.01349
 C1372 C 0.01552 0.63006 -0.00096
 C1373 C 0.01836 0.62783 0.01912
 C1374 C 0.02453 0.60862 0.02639
 C1375 C 0.02835 0.60662 0.04635
 C1376 C 0.02596 0.62266 0.05884
 C1377 C 0.01950 0.64132 0.05208
 C1378 C 0.01544 0.64422 0.03217
 C1379 C 0.00846 0.66343 0.02624
 C1380 C 0.00588 0.67895 0.03949
 C1381 C 0.01017 0.67600 0.05906
 C1382 C 0.01700 0.65711 0.06524
 H1383 H 0.03418 0.56851 0.03446
 H1384 H 0.02427 0.58222 -0.03506
 H1385 H 0.03802 0.54204 0.01170
 H1386 H 0.01600 0.61661 -0.02879
 H1387 H 0.01136 0.64408 -0.00759
 H1388 H 0.03350 0.59283 0.05286
 H1389 H 0.02915 0.62038 0.07403
 H1390 H 0.00465 0.66700 0.01152
 H1391 H 0.00068 0.69345 0.03433
 H1392 H 0.02004 0.65459 0.08043
 C1393 C 0.52973 0.12060 0.49269
 C1394 C 0.53296 0.11924 0.51286
 C1395 C 0.54015 0.10068 0.52032
 C1396 C 0.54349 0.08424 0.50808
 C1397 C 0.54003 0.08585 0.48819
 C1398 C 0.53321 0.10419 0.48067
 C1399 C 0.54396 0.09853 0.53998
 C1400 C 0.54100 0.11444 0.55253
 C1401 C 0.53386 0.13327 0.54593
 C1402 C 0.52942 0.13561 0.52581
 C1403 C 0.52141 0.15417 0.51935
 C1404 C 0.51806 0.16996 0.53195
 C1405 C 0.52270 0.16807 0.55148
 C1406 C 0.53081 0.14979 0.55881
 C1407 C 0.53563 0.14893 0.57873
 C1408 C 0.53229 0.16540 0.59072
 C1409 C 0.52403 0.18328 0.58340
 C1410 C 0.51928 0.18448 0.56373
 H1411 H 0.52475 0.13416 0.48563
 H1412 H 0.54856 0.07006 0.51411
 H1413 H 0.53077 0.10596 0.46531
 H1414 H 0.54938 0.08435 0.54577
 H1415 H 0.54426 0.11134 0.56746
 H1416 H 0.51726 0.15700 0.50456
 H1417 H 0.51181 0.18388 0.52630
 H1418 H 0.54214 0.13585 0.58555
 H1419 H 0.53601 0.16405 0.60589
 H1420 H 0.51319 0.19838 0.55786
 C1421 C -0.05393 0.11305 0.49006
 C1422 C -0.03510 0.11789 0.48241
 C1423 C -0.01837 0.10521 0.48715
 C1424 C -0.02055 0.08864 0.49917
 C1425 C -0.03931 0.08410 0.50654
 C1426 C -0.05592 0.09646 0.50187
 C1427 C 0.00046 0.10900 0.47976
 C1428 C 0.00314 0.12495 0.46750
 C1429 C -0.01299 0.13800 0.46218
 C1430 C -0.03234 0.13466 0.47009
 C1431 C -0.04825 0.14825 0.46550
 C1432 C -0.04556 0.16427 0.45333
 C1433 C -0.02699 0.16739 0.44506
 C1434 C -0.01041 0.15434 0.44928
 C1435 C 0.00801 0.15816 0.44021
 C1436 C 0.00976 0.17422 0.42767
 C1437 C -0.00668 0.18708 0.42366
 C1438 C -0.02501 0.18356 0.43251
 H1439 H -0.06753 0.12160 0.48709
 H1440 H -0.00765 0.07898 0.50249
 H1441 H -0.07057 0.09334 0.50750
 H1442 H 0.01331 0.09940 0.48341
 H1443 H 0.01820 0.12672 0.46256
 H1444 H -0.06309 0.14709 0.47123
 H1445 H -0.05825 0.17427 0.45024
 H1446 H 0.02132 0.14889 0.44222
 H1447 H 0.02402 0.17637 0.42079
 H1448 H -0.03779 0.19355 0.42974
 C1449 C 0.43909 0.61113 0.98994
 C1450 C 0.45824 0.61582 0.98291
 C1451 C 0.47483 0.60354 0.98892
 C1452 C 0.47225 0.58768 1.00171
 C1453 C 0.45325 0.58348 1.00870
 C1454 C 0.43671 0.59524 1.00258
 C1455 C 0.49396 0.60711 0.98221
 C1456 C 0.49717 0.62264 0.96959
 C1457 C 0.48128 0.63546 0.96323
 C1458 C 0.46152 0.63216 0.97019
 C1459 C 0.44579 0.64547 0.96442
 C1460 C 0.44914 0.66141 0.95230
 C1461 C 0.46820 0.66468 0.94521
 C1462 C 0.48454 0.65167 0.95035
 C1463 C 0.50347 0.65548 0.94235
 C1464 C 0.50606 0.67175 0.93026
 C1465 C 0.48997 0.68481 0.92562
 C1466 C 0.47101 0.68105 0.93305
 H1467 H 0.42558 0.61935 0.98594
 H1468 H 0.48509 0.57841 1.00610
 H1469 H 0.42186 0.59232 1.00782
 H1470 H 0.50668 0.59778 0.98677
 H1471 H 0.51247 0.62433 0.96534
 H1472 H 0.43061 0.64421 0.96926
 H1473 H 0.43660 0.67131 0.94842
 H1474 H 0.51662 0.64616 0.94495
 H1475 H 0.52077 0.67398 0.92435
 H1476 H 0.45845 0.69111 0.92966
 C1477 C 0.50742 0.89246 1.01807
 C1478 C 0.52160 0.88764 1.00372
 C1479 C 0.53864 0.89953 1.00254
 C1480 C 0.54192 0.91465 1.01614
 C1481 C 0.52789 0.91927 1.03074
 C1482 C 0.51042 0.90797 1.03109
 C1483 C 0.55240 0.89631 0.98776
 C1484 C 0.54928 0.88192 0.97374
 C1485 C 0.53261 0.86953 0.97442
 C1486 C 0.51920 0.87171 0.99027
 C1487 C 0.50422 0.85755 0.99248
 C1488 C 0.50198 0.84218 0.97929
 C1489 C 0.51403 0.84074 0.96302
 C1490 C 0.52921 0.85466 0.96009
 C1491 C 0.54005 0.85333 0.94270
 C1492 C 0.53627 0.83850 0.92913
 C1493 C 0.52181 0.82420 0.93245
 C1494 C 0.51085 0.82546 0.94961
 H1495 H 0.49339 0.88502 1.01912
 H1496 H 0.55592 0.92225 1.01541
 H1497 H 0.49832 0.91137 1.04089
 H1498 H 0.56558 0.90527 0.98681
 H1499 H 0.56063 0.88034 0.96287
 H1500 H 0.49440 0.85753 1.00470
 H1501 H 0.49043 0.83150 0.98171
 H1502 H 0.55107 0.86398 0.93886
 H1503 H 0.54454 0.83852 0.91580
 H1504 H 0.49979 0.81448 0.95269
 C1505 C 0.00369 0.41496 0.49118
 C1506 C 0.01912 0.40279 0.48295
 C1507 C 0.03916 0.40656 0.48851
 C1508 C 0.04339 0.42205 0.50138
 C1509 C 0.02794 0.43407 0.50914
 C1510 C 0.00809 0.43028 0.50403
 C1511 C 0.05495 0.39486 0.48122
 C1512 C 0.05142 0.37936 0.46854
 C1513 C 0.03180 0.37494 0.46244
 C1514 C 0.01540 0.38704 0.46953
 C1515 C -0.00413 0.38312 0.46283
 C1516 C -0.00761 0.36785 0.44984
 C1517 C 0.00812 0.35570 0.44309
 C1518 C 0.02805 0.35893 0.44933
 C1519 C 0.04337 0.34588 0.44221
 C1520 C 0.03902 0.33056 0.42936
 C1521 C 0.01933 0.32762 0.42309
 C1522 C 0.00395 0.34029 0.43007
 H1523 H -0.01197 0.41305 0.48811
 H1524 H 0.05879 0.42463 0.50556
 H1525 H -0.00411 0.43940 0.50983
 H1526 H 0.07029 0.39772 0.48541
 H1527 H 0.06456 0.37125 0.46361
 H1528 H -0.01719 0.39175 0.46717
 H1529 H -0.02287 0.36547 0.44508
 H1530 H 0.05887 0.34685 0.44641
 H1531 H 0.05116 0.32075 0.42455
 H1532 H -0.01134 0.33829 0.42520
 C1533 C 0.42909 0.52692 0.47443
 C1534 C 0.41021 0.52051 0.48070
 C1535 C 0.40834 0.49991 0.48446
 C1536 C 0.42455 0.48642 0.48154
 C1537 C 0.44298 0.49300 0.47497
 C1538 C 0.44509 0.51337 0.47163
 C1539 C 0.39026 0.49278 0.49101
 C1540 C 0.37385 0.50559 0.49392
 C1541 C 0.37476 0.52622 0.49021
 C1542 C 0.39320 0.53378 0.48331
 C1543 C 0.39392 0.55428 0.47899
 C1544 C 0.37733 0.56699 0.48127
 C1545 C 0.35934 0.55992 0.48810
 C1546 C 0.35777 0.53951 0.49289
 C1547 C 0.33919 0.53333 0.50014
 C1548 C 0.32293 0.54677 0.50211
 C1549 C 0.32453 0.56678 0.49695
 C1550 C 0.34286 0.57326 0.49007
 H1551 H 0.43213 0.54228 0.47166
 H1552 H 0.42269 0.47065 0.48405
 H1553 H 0.45930 0.51895 0.46696
 H1554 H 0.38876 0.47704 0.49391
 H1555 H 0.36051 0.49871 0.49888
 H1556 H 0.40708 0.56107 0.47349
 H1557 H 0.37860 0.58258 0.47760
 H1558 H 0.33663 0.51825 0.50446
 H1559 H 0.30889 0.54137 0.50740
 H1560 H 0.34435 0.58882 0.48637
 C1561 C 0.91485 0.01949 -0.04054
 C1562 C 0.89763 0.01348 -0.03074
 C1563 C 0.89753 -0.00637 -0.02395
 C1564 C 0.91358 -0.01978 -0.02779
 C1565 C 0.93066 -0.01384 -0.03784
 C1566 C 0.93095 0.00618 -0.04393
 C1567 C 0.88133 -0.01288 -0.01340
 C1568 C 0.86536 0.00001 -0.00901
 C1569 C 0.86467 0.01993 -0.01550
 C1570 C 0.88065 0.02653 -0.02724
 C1571 C 0.87886 0.04572 -0.03549
 C1572 C 0.86224 0.05817 -0.03213
 C1573 C 0.84701 0.05230 -0.01999
 C1574 C 0.84821 0.03330 -0.01112
 C1575 C 0.83296 0.02857 0.00195
 C1576 C 0.81684 0.04179 0.00535
 C1577 C 0.81517 0.06017 -0.00418
 C1578 C 0.83050 0.06536 -0.01673
 H1579 H 0.91668 0.03458 -0.04528
 H1580 H 0.91211 -0.03510 -0.02340
 H1581 H 0.94396 0.01217 -0.05070
 H1582 H 0.88107 -0.02811 -0.00827
 H1583 H 0.85342 -0.00633 -0.00097
 H1584 H 0.88982 0.05136 -0.04518
 H1585 H 0.86139 0.07265 -0.03902
 H1586 H 0.83326 0.01496 0.01016
 H1587 H 0.80572 0.03762 0.01572
 H1588 H 0.82949 0.07949 -0.02425
 C1589 C 0.57406 0.01474 0.05242
 C1590 C 0.59275 0.00948 0.04399
 C1591 C 0.59615 -0.01072 0.03860
 C1592 C 0.58162 -0.02493 0.04196
 C1593 C 0.56334 -0.01951 0.05053
 C1594 C 0.55968 0.00047 0.05561
 C1595 C 0.61407 -0.01676 0.02995
 C1596 C 0.62882 -0.00322 0.02638
 C1597 C 0.62633 0.01708 0.03150
 C1598 C 0.60812 0.02349 0.04072
 C1599 C 0.60601 0.04361 0.04655
 C1600 C 0.62102 0.05705 0.04342
 C1601 C 0.63867 0.05114 0.03418
 C1602 C 0.64156 0.03113 0.02790
 C1603 C 0.65961 0.02609 0.01822
 C1604 C 0.67411 0.04021 0.01521
 C1605 C 0.67126 0.05985 0.02167
 C1606 C 0.65347 0.06520 0.03117
 H1607 H 0.56992 0.02975 0.05658
 H1608 H 0.58472 -0.04039 0.03815
 H1609 H 0.54553 0.00516 0.06194
 H1610 H 0.61675 -0.03221 0.02585
 H1611 H 0.64217 -0.00931 0.01976
 H1612 H 0.59297 0.04950 0.05388
 H1613 H 0.61873 0.07231 0.04827
 H1614 H 0.66305 0.01142 0.01265
 H1615 H 0.68781 0.03563 0.00798
 H1616 H 0.65103 0.08045 0.03600
 C1617 C 0.09094 0.50778 0.50429
 C1618 C 0.10211 0.51670 0.51924
 C1619 C 0.09666 0.51253 0.53844
 C1620 C 0.08049 0.50031 0.54232
 C1621 C 0.06944 0.49147 0.52735
 C1622 C 0.07507 0.49545 0.50829
 C1623 C 0.10747 0.52041 0.55378
 C1624 C 0.12379 0.53219 0.55058
 C1625 C 0.12992 0.53681 0.53174
 C1626 C 0.11857 0.52937 0.51581
 C1627 C 0.12395 0.53500 0.49701
 C1628 C 0.14001 0.54716 0.49382
 C1629 C 0.15157 0.55401 0.50912
 C1630 C 0.14687 0.54883 0.52831
 C1631 C 0.15950 0.55579 0.54322
 C1632 C 0.17572 0.56765 0.53921
 C1633 C 0.18003 0.57304 0.52026
 C1634 C 0.16787 0.56608 0.50527
 H1635 H 0.09411 0.50985 0.48927
 H1636 H 0.07730 0.49697 0.55721
 H1637 H 0.06677 0.48971 0.49613
 H1638 H 0.10333 0.51734 0.56852
 H1639 H 0.13112 0.53772 0.56330
 H1640 H 0.11585 0.53051 0.48433
 H1641 H 0.14348 0.55114 0.47912
 H1642 H 0.15752 0.55212 0.55815
 H1643 H 0.18514 0.57238 0.55105
 H1644 H 0.17093 0.57025 0.49055
 C1645 C 0.08260 0.46459 -0.03651
 C1646 C 0.10193 0.47051 -0.03066
 C1647 C 0.10459 0.49109 -0.02724
 C1648 C 0.08864 0.50499 -0.02993
 C1649 C 0.06965 0.49886 -0.03577
 C1650 C 0.06682 0.47855 -0.03899
 C1651 C 0.12314 0.49778 -0.02111
 C1652 C 0.13918 0.48451 -0.01800
 C1653 C 0.13741 0.46384 -0.02110
 C1654 C 0.11859 0.45676 -0.02794
 C1655 C 0.11714 0.43623 -0.03201
 C1656 C 0.13332 0.42302 -0.02926
 C1657 C 0.15156 0.42957 -0.02216
 C1658 C 0.15389 0.45002 -0.01780
 C1659 C 0.17264 0.45571 -0.01016
 C1660 C 0.18832 0.44174 -0.00731
 C1661 C 0.18598 0.42165 -0.01195
 C1662 C 0.16752 0.41568 -0.01937
 H1663 H 0.07899 0.44928 -0.03902
 H1664 H 0.09110 0.52070 -0.02761
 H1665 H 0.05221 0.47333 -0.04315
 H1666 H 0.12527 0.51352 -0.01857
 H1667 H 0.15293 0.49106 -0.01338
 H1668 H 0.10370 0.42983 -0.03763
 H1669 H 0.13148 0.40741 -0.03268
 H1670 H 0.17572 0.47078 -0.00605
 H1671 H 0.20248 0.44677 -0.00167
 H1672 H 0.16547 0.40009 -0.02272
 C1673 C 0.61582 1.02060 0.47933
 C1674 C 0.61581 1.00031 0.47379
 C1675 C 0.59797 0.99317 0.46546
 C1676 C 0.58102 1.00588 0.46284
 C1677 C 0.58112 1.02608 0.46842
 C1678 C 0.59891 1.03310 0.47672
 C1679 C 0.59698 0.97328 0.45985
 C1680 C 0.61332 0.96020 0.46226
 C1681 C 0.63151 0.96649 0.47046
 C1682 C 0.63281 0.98691 0.47627
 C1683 C 0.65104 0.99323 0.48437
 C1684 C 0.66739 0.98017 0.48679
 C1685 C 0.66635 0.96026 0.48132
 C1686 C 0.64845 0.95305 0.47306
 C1687 C 0.64833 0.93264 0.46781
 C1688 C 0.66521 0.92012 0.47066
 C1689 C 0.68280 0.92737 0.47883
 C1690 C 0.68323 0.94751 0.48409
 H1691 H 0.62869 1.02746 0.48563
 H1692 H 0.56746 0.99955 0.45714
 H1693 H 0.60032 1.04861 0.48059
 H1694 H 0.58335 0.96770 0.45347
 H1695 H 0.61113 0.94517 0.45747
 H1696 H 0.65329 1.00829 0.48905
 H1697 H 0.68105 0.98576 0.49308
 H1698 H 0.63546 0.92575 0.46155
 H1699 H 0.66435 0.90455 0.46670
 H1700 H 0.69686 0.95337 0.49018
 C1701 C 0.88905 1.01917 0.51233
 C1702 C 0.89020 0.99865 0.51690
 C1703 C 0.90835 0.99105 0.52516
 C1704 C 0.92453 1.00353 0.52856
 C1705 C 0.92332 1.02395 0.52385
 C1706 C 0.90520 1.03144 0.51570
 C1707 C 0.91042 0.97093 0.52992
 C1708 C 0.89486 0.95808 0.52673
 C1709 C 0.87642 0.96482 0.51854
 C1710 C 0.87403 0.98546 0.51354
 C1711 C 0.85560 0.99221 0.50531
 C1712 C 0.84004 0.97937 0.50210
 C1713 C 0.84210 0.95927 0.50688
 C1714 C 0.86027 0.95163 0.51517
 C1715 C 0.86143 0.93106 0.51973
 C1716 C 0.84528 0.91880 0.51623
 C1717 C 0.82740 0.92649 0.50807
 C1718 C 0.82596 0.94678 0.50341
 H1719 H 0.87583 1.02640 0.50625
 H1720 H 0.93838 0.99687 0.53413
 H1721 H 0.90293 1.04712 0.51253
 H1722 H 0.92428 0.96500 0.53623
 H1723 H 0.89786 0.94284 0.53089
 H1724 H 0.85261 1.00744 0.50112
 H1725 H 0.82619 0.98529 0.49576
 H1726 H 0.87457 0.92385 0.52598
 H1727 H 0.84691 0.90312 0.51973
 H1728 H 0.81210 0.95296 0.49732
 C1729 C 0.38143 0.51756 0.02181
 C1730 C 0.38460 0.49673 0.02419
 C1731 C 0.40407 0.48978 0.02983
 C1732 C 0.41959 0.50316 0.03261
 C1733 C 0.41620 0.52369 0.03003
 C1734 C 0.39698 0.53071 0.02468
 C1735 C 0.40805 0.46949 0.03261
 C1736 C 0.39313 0.45579 0.03002
 C1737 C 0.37349 0.46182 0.02435
 C1738 C 0.36919 0.48262 0.02121
 C1739 C 0.34969 0.48858 0.01502
 C1740 C 0.33489 0.47484 0.01205
 C1741 C 0.33876 0.45460 0.01521
 C1742 C 0.35802 0.44773 0.02154
 C1743 C 0.36092 0.42699 0.02481
 C1744 C 0.34545 0.41381 0.02166
 C1745 C 0.32658 0.42072 0.01513
 C1746 C 0.32335 0.44118 0.01202
 H1747 H 0.36713 0.52430 0.01789
 H1748 H 0.43447 0.49751 0.03652
 H1749 H 0.39384 0.54653 0.02291
 H1750 H 0.42292 0.46411 0.03689
 H1751 H 0.39765 0.44046 0.03243
 H1752 H 0.34532 0.50385 0.01211
 H1753 H 0.32018 0.48017 0.00720
 H1754 H 0.37490 0.42038 0.02985
 H1755 H 0.34838 0.39805 0.02407
 H1756 H 0.30868 0.44673 0.00729
 C1757 C 0.53320 0.46870 0.41888
 C1758 C 0.52453 0.47419 0.40085
 C1759 C 0.50342 0.47724 0.39997
 C1760 C 0.49168 0.47466 0.41639
 C1761 C 0.50052 0.46929 0.43410
 C1762 C 0.52136 0.46632 0.43513
 C1763 C 0.49405 0.48293 0.38274
 C1764 C 0.50514 0.48603 0.36629
 C1765 C 0.52622 0.48338 0.36633
 C1766 C 0.53604 0.47694 0.38379
 C1767 C 0.55700 0.47336 0.38357
 C1768 C 0.56806 0.47626 0.36706
 C1769 C 0.55882 0.48301 0.35011
 C1770 C 0.53780 0.48681 0.34946
 C1771 C 0.52932 0.49407 0.33193
 C1772 C 0.54121 0.49718 0.31586
 C1773 C 0.56191 0.49317 0.31658
 C1774 C 0.57059 0.48606 0.33379
 H1775 H 0.54909 0.46641 0.42106
 H1776 H 0.47553 0.47673 0.41532
 H1777 H 0.52863 0.46248 0.44870
 H1778 H 0.47790 0.48516 0.38197
 H1779 H 0.49660 0.49033 0.35366
 H1780 H 0.56542 0.46807 0.39594
 H1781 H 0.58412 0.47326 0.36761
 H1782 H 0.51360 0.49771 0.33012
 H1783 H 0.53411 0.50256 0.30269
 H1784 H 0.58667 0.48322 0.33459
 C1785 C 0.02382 -0.03386 0.91011
 C1786 C 0.01651 -0.02773 0.89175
 C1787 C -0.00452 -0.02478 0.88946
 C1788 C -0.01748 -0.02803 0.90488
 C1789 C -0.00995 -0.03419 0.92288
 C1790 C 0.01079 -0.03702 0.92532
 C1791 C -0.01259 -0.01864 0.87179
 C1792 C -0.00032 -0.01528 0.85621
 C1793 C 0.02072 -0.01802 0.85761
 C1794 C 0.02927 -0.02446 0.87566
 C1795 C 0.05028 -0.02750 0.87698
 C1796 C 0.06253 -0.02436 0.86134
 C1797 C 0.05448 -0.01801 0.84373
 C1798 C 0.03350 -0.01464 0.84155
 C1799 C 0.02626 -0.00800 0.82332
 C1800 C 0.03930 -0.00502 0.80807
 C1801 C 0.05997 -0.00854 0.81034
 C1802 C 0.06743 -0.01501 0.82827
 H1803 H 0.03951 -0.03628 0.91334
 H1804 H -0.03353 -0.02603 0.90277
 H1805 H 0.01702 -0.04150 0.93917
 H1806 H -0.02866 -0.01637 0.86997
 H1807 H -0.00792 -0.01062 0.84316
 H1808 H 0.05786 -0.03245 0.88994
 H1809 H 0.07857 -0.02696 0.86307
 H1810 H 0.01063 -0.00494 0.82027
 H1811 H 0.03311 -0.00019 0.79431
 H1812 H 0.08345 -0.01747 0.83027
 C1813 C 0.01914 0.03977 0.57336
 C1814 C 0.01283 0.03361 0.59178
 C1815 C -0.00794 0.03067 0.59427
 C1816 C -0.02164 0.03430 0.57910
 C1817 C -0.01514 0.04070 0.56108
 C1818 C 0.00538 0.04324 0.55837
 C1819 C -0.01501 0.02423 0.61193
 C1820 C -0.00197 0.02056 0.62730
 C1821 C 0.01882 0.02341 0.62572
 C1822 C 0.02632 0.03029 0.60773
 C1823 C 0.04698 0.03392 0.60639
 C1824 C 0.05990 0.03093 0.62197
 C1825 C 0.05291 0.02401 0.63948
 C1826 C 0.03234 0.01989 0.64162
 C1827 C 0.02623 0.01242 0.65963
 C1828 C 0.03987 0.00963 0.67483
 C1829 C 0.06005 0.01415 0.67271
 C1830 C 0.06647 0.02125 0.65493
 H1831 H 0.03461 0.04192 0.56992
 H1832 H -0.03751 0.03248 0.58147
 H1833 H 0.01088 0.04780 0.54448
 H1834 H -0.03087 0.02198 0.61392
 H1835 H -0.00883 0.01577 0.64039
 H1836 H 0.05372 0.03943 0.59352
 H1837 H 0.07562 0.03410 0.62026
 H1838 H 0.01104 0.00850 0.66253
 H1839 H 0.03450 0.00422 0.68847
 H1840 H 0.08215 0.02446 0.65305
 C1841 C 0.51107 0.54522 0.07930
 C1842 C 0.50477 0.54000 0.09801
 C1843 C 0.48400 0.53726 0.10071
 C1844 C 0.47030 0.54000 0.08538
 C1845 C 0.47682 0.54531 0.06702
 C1846 C 0.49732 0.54782 0.06417
 C1847 C 0.47694 0.53182 0.11869
 C1848 C 0.49001 0.52880 0.13416
 C1849 C 0.51084 0.53129 0.13232
 C1850 C 0.51831 0.53729 0.11402
 C1851 C 0.53902 0.54054 0.11238
 C1852 C 0.55205 0.53779 0.12790
 C1853 C 0.54511 0.53157 0.14568
 C1854 C 0.52445 0.52811 0.14821
 C1855 C 0.51837 0.52148 0.16655
 C1856 C 0.53219 0.51857 0.18159
 C1857 C 0.55252 0.52218 0.17898
 C1858 C 0.55885 0.52871 0.16096
 H1859 H 0.52653 0.54722 0.07573
 H1860 H 0.45444 0.53821 0.08782
 H1861 H 0.50283 0.55155 0.05006
 H1862 H 0.46108 0.52977 0.12085
 H1863 H 0.48317 0.52469 0.14748
 H1864 H 0.54575 0.54545 0.09927
 H1865 H 0.56782 0.54051 0.12591
 H1866 H 0.50309 0.51823 0.16981
 H1867 H 0.52689 0.51364 0.19542
 H1868 H 0.57461 0.53124 0.15870
 C1869 C 0.49732 -0.06437 0.12116
 C1870 C 0.48822 -0.04616 0.12746
 C1871 C 0.49163 -0.02887 0.11643
 C1872 C 0.50341 -0.02996 0.09981
 C1873 C 0.51205 -0.04813 0.09367
 C1874 C 0.50897 -0.06527 0.10455
 C1875 C 0.48316 -0.01052 0.12188
 C1876 C 0.47116 -0.00883 0.13801
 C1877 C 0.46704 -0.02554 0.14946
 C1878 C 0.47581 -0.04452 0.14417
 C1879 C 0.47180 -0.06120 0.15572
 C1880 C 0.45961 -0.05951 0.17175
 C1881 C 0.45084 -0.04121 0.17699
 C1882 C 0.45441 -0.02393 0.16599
 C1883 C 0.44507 -0.00575 0.17202
 C1884 C 0.43285 -0.00489 0.18819
 C1885 C 0.42943 -0.02200 0.19899
 C1886 C 0.43847 -0.04015 0.19326
 H1887 H 0.49573 -0.07826 0.12862
 H1888 H 0.50552 -0.01664 0.09135
 H1889 H 0.51571 -0.07946 0.10027
 H1890 H 0.48578 0.00275 0.11351
 H1891 H 0.46531 0.00595 0.14105
 H1892 H 0.47786 -0.07592 0.15277
 H1893 H 0.45696 -0.07277 0.18012
 H1894 H 0.44673 0.00813 0.16458
 H1895 H 0.42579 0.00928 0.19211
 H1896 H 0.43608 -0.05346 0.20163
 C1897 C 1.01327 0.47882 0.60479
 C1898 C 0.99218 0.47704 0.60494
 C1899 C 0.98259 0.47202 0.58734
 C1900 C 0.99370 0.46937 0.57040
 C1901 C 1.01454 0.47137 0.57051
 C1902 C 1.02416 0.47603 0.58789
 C1903 C 0.96194 0.46968 0.58666
 C1904 C 0.95045 0.47197 0.60310
 C1905 C 0.95917 0.47696 0.62103
 C1906 C 0.98033 0.47992 0.62189
 C1907 C 0.98888 0.48588 0.63959
 C1908 C 0.97732 0.48858 0.65595
 C1909 C 0.95683 0.48529 0.65548
 C1910 C 0.94741 0.47928 0.63810
 C1911 C 0.92661 0.47572 0.63863
 C1912 C 0.91575 0.47827 0.65559
 C1913 C 0.92512 0.48448 0.67259
 C1914 C 0.94570 0.48796 0.67241
 H1915 H 1.02193 0.48209 0.61751
 H1916 H 0.98604 0.46595 0.55701
 H1917 H 1.04030 0.47726 0.58850
 H1918 H 0.95453 0.46592 0.57322
 H1919 H 0.93463 0.46996 0.60115
 H1920 H 1.00454 0.48887 0.64131
 H1921 H 0.98458 0.49324 0.66918
 H1922 H 0.91822 0.47077 0.62630
 H1923 H 0.89984 0.47558 0.65532
 H1924 H 0.95315 0.49246 0.68560
 C1925 C 0.97505 0.52592 0.91428
 C1926 C 0.98179 0.52079 0.89556
 C1927 C 1.00265 0.51712 0.89314
 C1928 C 1.01604 0.51889 0.90876
 C1929 C 1.00909 0.52412 0.92713
 C1930 C 0.98849 0.52753 0.92970
 C1931 C 1.01014 0.51170 0.87515
 C1932 C 0.99740 0.50963 0.85941
 C1933 C 0.97650 0.51308 0.86095
 C1934 C 0.96859 0.51908 0.87926
 C1935 C 0.94779 0.52334 0.88062
 C1936 C 0.93509 0.52157 0.86482
 C1937 C 0.94247 0.51536 0.84702
 C1938 C 0.96323 0.51089 0.84477
 C1939 C 0.96974 0.50428 0.82639
 C1940 C 0.95624 0.50241 0.81104
 C1941 C 0.93582 0.50707 0.81337
 C1942 C 0.92907 0.51354 0.83143
 H1943 H 0.95949 0.52856 0.91764
 H1944 H 1.03198 0.51640 0.90654
 H1945 H 0.98265 0.53121 0.94381
 H1946 H 1.02609 0.50894 0.87321
 H1947 H 1.00456 0.50547 0.84611
 H1948 H 0.94075 0.52833 0.89372
 H1949 H 0.91925 0.52506 0.86659
 H1950 H 0.98513 0.50028 0.82334
 H1951 H 0.96187 0.49749 0.79719
 H1952 H 0.91322 0.51686 0.83347
 C1953 C 0.49726 0.05664 0.40592
 C1954 C 0.49068 0.03722 0.40174
 C1955 C 0.49831 0.02137 0.41345
 C1956 C 0.51202 0.02496 0.42845
 C1957 C 0.51836 0.04426 0.43230
 C1958 C 0.51082 0.06001 0.42091
 C1959 C 0.49221 0.00199 0.41020
 C1960 C 0.47862 -0.00215 0.39558
 C1961 C 0.47056 0.01300 0.38344
 C1962 C 0.47683 0.03300 0.38646
 C1963 C 0.46914 0.04808 0.37404
 C1964 C 0.45579 0.04390 0.35925
 C1965 C 0.44940 0.02459 0.35622
 C1966 C 0.45656 0.00883 0.36828
 C1967 C 0.44933 -0.01045 0.36458
 C1968 C 0.43588 -0.01383 0.34947
 C1969 C 0.42907 0.00179 0.33752
 C1970 C 0.43589 0.02099 0.34106
 H1971 H 0.49224 0.06963 0.39796
 H1972 H 0.51758 0.01270 0.43737
 H1973 H 0.51562 0.07506 0.42347
 H1974 H 0.49801 -0.01017 0.41909
 H1975 H 0.47488 -0.01755 0.39413
 H1976 H 0.47324 0.06341 0.37520
 H1977 H 0.45038 0.05599 0.35005
 H1978 H 0.45362 -0.02328 0.37310
 H1979 H 0.43061 -0.02876 0.34728
 H1980 H 0.43093 0.03317 0.33176
   
