data_POSCAR
  _audit_creation_date              2014-09-24
  _audit_creation_method            'ToBaCCo'
  _symmetry_space_group_name_H-M    'P1'
  _symmetry_Int_Tables_number       1
  _symmetry_cell_setting            triclinic
  loop_
  _symmetry_equiv_pos_as_xyz
 x,y,z
_cell_length_a 26.8622
_cell_length_b 26.8727
_cell_length_c 25.3376
_cell_angle_alpha 90.000000
_cell_angle_beta 90.000000
_cell_angle_gamma 90.000000
loop_
  _atom_site_label
  _atom_site_type_symbol
  _atom_site_fract_x
  _atom_site_fract_y
  _atom_site_fract_z
C1 C 0.36684 0.00000 0.25000
 C2 C 0.13316 -0.00000 0.75000
 C3 C 0.63561 0.50000 0.25000
 C4 C 0.86439 0.50000 0.75000
 C5 C 0.25000 0.38480 1.00000
 C6 C 0.75000 0.11469 1.00000
 C7 C 0.25000 0.61520 0.50000
 C8 C 0.75000 0.88531 0.50000
 C9 C 0.00097 0.25012 0.37343
 C10 C 0.00097 0.74988 0.12657
 C11 C 0.49903 0.25012 0.62657
 C12 C 0.49903 0.74988 0.87343
 C13 C -0.25000 0.61706 1.00000
 C14 C -0.25000 0.38294 0.50000
 C15 C 0.25000 -0.11426 0.00000
 C16 C 0.25000 1.11426 0.50000
 C17 C 0.13495 0.50000 0.25000
 C18 C -0.13533 1.00000 0.25000
 C19 C 0.36505 0.50000 -0.25000
 C20 C 0.63533 0.00000 -0.25000
 C21 C -0.00004 0.25087 0.87678
 C22 C 0.50004 0.25086 0.12322
 C23 C -0.00004 0.74913 0.62322
 C24 C 0.50004 0.74914 0.37678
 B25 B -0.02691 0.02401 1.05173
 B26 B -0.05604 0.01793 0.99200
 B27 B -0.00905 0.05976 0.99850
 B28 B 0.03423 0.03466 1.04068
 B29 B 0.01383 -0.02272 1.05757
 B30 B -0.04248 -0.03231 1.02746
 B31 B 0.02698 -0.02313 0.95076
 B32 B 0.05605 -0.01726 1.01028
 B33 B 0.00866 -0.05936 1.00433
 B34 B -0.03428 -0.03427 0.96216
 B35 B -0.01375 0.02259 0.94518
 B36 B 0.04233 0.03324 0.97544
 B37 B 0.47309 0.52145 0.55082
 B38 B 0.44425 0.51776 0.49091
 B39 B 0.49233 0.55863 0.49876
 B40 B 0.53455 0.53126 0.54043
 B41 B 0.51270 0.47397 0.55552
 B42 B 0.45645 0.46630 0.52444
 B43 B 0.52665 0.47611 0.44870
 B44 B 0.55542 0.47971 0.50868
 B45 B 0.50729 0.43874 0.50080
 B46 B 0.46512 0.46620 0.45916
 B47 B 0.48697 0.52343 0.44410
 B48 B 0.54317 0.53125 0.47522
 B49 B 0.52691 0.97599 0.55173
 B50 B 0.55604 0.98207 0.49200
 B51 B 0.50905 0.94024 0.49850
 B52 B 0.46577 0.96534 0.54069
 B53 B 0.48617 1.02272 0.55757
 B54 B 0.54248 1.03231 0.52746
 B55 B 0.47302 1.02313 0.45076
 B56 B 0.44395 1.01726 0.51028
 B57 B 0.49134 1.05936 0.50433
 B58 B 0.53428 1.03427 0.46216
 B59 B 0.51375 0.97741 0.44518
 B60 B 0.45767 0.96676 0.47544
 B61 B 0.02691 0.47855 1.05082
 B62 B 0.05575 0.48224 0.99091
 B63 B 0.00767 0.44137 0.99876
 B64 B -0.03455 0.46874 1.04043
 B65 B -0.01270 0.52603 1.05552
 B66 B 0.04355 0.53370 1.02444
 B67 B -0.02665 0.52389 0.94870
 B68 B -0.05542 0.52029 1.00868
 B69 B -0.00729 0.56126 1.00080
 B70 B 0.03488 0.53380 0.95916
 B71 B 0.01303 0.47657 0.94410
 B72 B -0.04317 0.46875 0.97522
 B73 B 0.02691 0.52145 0.44918
 B74 B 0.05575 0.51776 0.50909
 B75 B 0.00767 0.55863 0.50124
 B76 B -0.03455 0.53126 0.45957
 B77 B -0.01270 0.47397 0.44448
 B78 B 0.04355 0.46630 0.47556
 B79 B -0.02665 0.47611 0.55129
 B80 B -0.05542 0.47971 0.49132
 B81 B -0.00729 0.43874 0.49919
 B82 B 0.03488 0.46620 0.54084
 B83 B 0.01303 0.52343 0.55590
 B84 B -0.04317 0.53125 0.52478
 B85 B 0.52691 0.02401 -0.05173
 B86 B 0.55604 0.01793 0.00800
 B87 B 0.50905 0.05976 0.00150
 B88 B 0.46577 0.03466 -0.04068
 B89 B 0.48617 -0.02272 -0.05756
 B90 B 0.54248 -0.03231 -0.02746
 B91 B 0.47302 -0.02313 0.04924
 B92 B 0.44396 -0.01726 -0.01028
 B93 B 0.49134 -0.05936 -0.00432
 B94 B 0.53428 -0.03427 0.03784
 B95 B 0.51375 0.02259 0.05482
 B96 B 0.45767 0.03324 0.02456
 B97 B 0.47309 0.47854 -0.05082
 B98 B 0.44425 0.48224 0.00908
 B99 B 0.49233 0.44137 0.00124
 B100 B 0.53455 0.46874 -0.04043
 B101 B 0.51270 0.52603 -0.05552
 B102 B 0.45645 0.53370 -0.02444
 B103 B 0.52665 0.52389 0.05129
 B104 B 0.55542 0.52029 -0.00868
 B105 B 0.50729 0.56126 -0.00081
 B106 B 0.46512 0.53380 0.04084
 B107 B 0.48697 0.47657 0.05590
 B108 B 0.54317 0.46875 0.02478
 B109 B -0.02691 0.97599 0.44827
 B110 B -0.05604 0.98207 0.50800
 B111 B -0.00905 0.94024 0.50150
 B112 B 0.03423 0.96534 0.45931
 B113 B 0.01383 1.02272 0.44243
 B114 B -0.04248 1.03231 0.47254
 B115 B 0.02698 1.02313 0.54924
 B116 B 0.05605 1.01726 0.48972
 B117 B 0.00866 1.05936 0.49567
 B118 B -0.03428 1.03427 0.53784
 B119 B -0.01375 0.97741 0.55482
 B120 B 0.04233 0.96676 0.52456
 B121 B 0.77455 0.22390 0.19770
 B122 B 0.76835 0.19442 0.25720
 B123 B 0.81013 0.24148 0.25116
 B124 B 0.78503 0.28494 0.20916
 B125 B 0.72770 0.26454 0.19202
 B126 B 0.71817 0.20806 0.22166
 B127 B 0.72704 0.27709 0.29892
 B128 B 0.73297 0.30644 0.23957
 B129 B 0.69096 0.25896 0.24516
 B130 B 0.71604 0.21587 0.28707
 B131 B 0.77282 0.23642 0.30434
 B132 B 0.78345 0.29266 0.27444
 B133 B 0.72545 0.77610 0.69770
 B134 B 0.73165 0.80558 0.75720
 B135 B 0.68988 0.75852 0.75116
 B136 B 0.71497 0.71506 0.70916
 B137 B 0.77231 0.73546 0.69202
 B138 B 0.78183 0.79194 0.72165
 B139 B 0.77296 0.72291 0.79892
 B140 B 0.76703 0.69356 0.73957
 B141 B 0.80905 0.74104 0.74516
 B142 B 0.78396 0.78413 0.78707
 B143 B 0.72718 0.76358 0.80433
 B144 B 0.71655 0.70734 0.77444
 B145 B 0.27136 0.27694 0.80074
 B146 B 0.26759 0.30576 0.74084
 B147 B 0.30852 0.25774 0.74865
 B148 B 0.28122 0.21552 0.79035
 B149 B 0.22390 0.23730 0.80549
 B150 B 0.21614 0.29352 0.77441
 B151 B 0.22597 0.22334 0.69867
 B152 B 0.22965 0.19460 0.75865
 B153 B 0.18859 0.24267 0.75081
 B154 B 0.21600 0.28485 0.70913
 B155 B 0.27326 0.26306 0.69402
 B156 B 0.28116 0.20690 0.72515
 B157 B 0.22864 0.72306 0.30074
 B158 B 0.23241 0.69424 0.24084
 B159 B 0.19148 0.74226 0.24865
 B160 B 0.21878 0.78448 0.29035
 B161 B 0.27610 0.76270 0.30549
 B162 B 0.28386 0.70648 0.27441
 B163 B 0.27402 0.77666 0.19867
 B164 B 0.27034 0.80540 0.25865
 B165 B 0.31140 0.75734 0.25081
 B166 B 0.28400 0.71516 0.20913
 B167 B 0.22674 0.73694 0.19403
 B168 B 0.21884 0.79310 0.22515
 B169 B 0.27136 0.72306 0.69926
 B170 B 0.26759 0.69424 0.75916
 B171 B 0.30852 0.74226 0.75135
 B172 B 0.28122 0.78448 0.70965
 B173 B 0.22390 0.76270 0.69451
 B174 B 0.21614 0.70648 0.72559
 B175 B 0.22598 0.77666 0.80133
 B176 B 0.22966 0.80540 0.74135
 B177 B 0.18860 0.75734 0.74919
 B178 B 0.21600 0.71515 0.79087
 B179 B 0.27326 0.73694 0.80597
 B180 B 0.28116 0.79310 0.77485
 B181 B 0.22864 0.27694 0.19926
 B182 B 0.23241 0.30576 0.25916
 B183 B 0.19148 0.25774 0.25135
 B184 B 0.21878 0.21552 0.20965
 B185 B 0.27610 0.23730 0.19451
 B186 B 0.28386 0.29352 0.22559
 B187 B 0.27402 0.22334 0.30133
 B188 B 0.27034 0.19460 0.24135
 B189 B 0.31140 0.24267 0.24919
 B190 B 0.28400 0.28485 0.29087
 B191 B 0.22674 0.26306 0.30597
 B192 B 0.21884 0.20690 0.27485
 B193 B 0.77455 0.77610 0.30230
 B194 B 0.76835 0.80558 0.24280
 B195 B 0.81012 0.75852 0.24884
 B196 B 0.78503 0.71506 0.29084
 B197 B 0.72769 0.73546 0.30798
 B198 B 0.71817 0.79194 0.27834
 B199 B 0.72704 0.72291 0.20108
 B200 B 0.73297 0.69356 0.26043
 B201 B 0.69095 0.74104 0.25484
 B202 B 0.71604 0.78413 0.21293
 B203 B 0.77282 0.76358 0.19566
 B204 B 0.78345 0.70734 0.22556
 B205 B 0.72545 0.22390 0.80230
 B206 B 0.73164 0.19443 0.74280
 B207 B 0.68987 0.24149 0.74884
 B208 B 0.71496 0.28494 0.79084
 B209 B 0.77230 0.26454 0.80798
 B210 B 0.78183 0.20806 0.77835
 B211 B 0.77296 0.27709 0.70108
 B212 B 0.76703 0.30644 0.76043
 B213 B 0.80904 0.25896 0.75484
 B214 B 0.78396 0.21587 0.71293
 B215 B 0.72718 0.23642 0.69567
 B216 B 0.71655 0.29266 0.72556
 C217 C 0.47372 1.02738 0.33560
 C218 C 0.44549 0.97983 0.31791
 C219 C 0.40127 1.01111 0.29844
 C220 C 0.42996 1.05909 0.31428
 C221 C 0.37746 1.00923 0.35331
 C222 C 0.42037 0.97733 0.37202
 C223 C 0.44835 1.02561 0.39076
 C224 C 0.40569 1.05707 0.36963
 H225 H 0.51359 1.03539 0.32789
 H226 H 0.46366 0.94817 0.29745
 H227 H 0.43527 1.09320 0.29032
 H228 H 0.33881 0.99827 0.36324
 H229 H 0.41205 0.94104 0.39094
 H230 H 0.39340 1.09130 0.38834
 C231 C -0.08068 0.47862 0.87137
 C232 C -0.12377 0.51058 0.85325
 C233 C -0.10090 0.51179 0.79801
 C234 C -0.05646 0.48049 0.81686
 C235 C -0.07163 0.55975 0.81277
 C236 C -0.09492 0.55834 0.86861
 C237 C -0.05204 0.52672 0.88916
 C238 C -0.02764 0.52796 0.83353
 H239 H -0.08920 0.44263 0.89027
 H240 H -0.16226 0.49967 0.86395
 H241 H -0.03879 0.44846 0.79659
 H242 H -0.06677 0.59372 0.78848
 H243 H -0.10628 0.59302 0.88711
 H244 H 0.01213 0.53565 0.82495
 C245 C 0.09431 -0.05707 0.86963
 C246 C 0.07004 -0.05909 0.81427
 C247 C 0.09873 -0.01111 0.79844
 C248 C 0.12254 -0.00923 0.85331
 C249 C 0.05451 0.02017 0.81790
 C250 C 0.02628 -0.02738 0.83559
 C251 C 0.05165 -0.02561 0.89076
 C252 C 0.07963 0.02267 0.87202
 H253 H 0.10660 -0.09130 0.88833
 H254 H 0.06473 -0.09320 0.79032
 H255 H 0.16119 0.00173 0.86324
 H256 H 0.03634 0.05183 0.79745
 H257 H -0.01359 -0.03539 0.82788
 H258 H 0.08794 0.05896 0.89093
 C259 C 0.59492 0.44166 0.36861
 C260 C 0.57163 0.44025 0.31277
 C261 C 0.60090 0.48821 0.29801
 C262 C 0.62377 0.48942 0.35325
 C263 C 0.55646 0.51951 0.31686
 C264 C 0.52764 0.47204 0.33353
 C265 C 0.55204 0.47328 0.38915
 C266 C 0.58068 0.52138 0.37137
 H267 H 0.60628 0.40698 0.38711
 H268 H 0.56677 0.40628 0.28848
 H269 H 0.66226 0.50033 0.36395
 H270 H 0.53879 0.55154 0.29658
 H271 H 0.48787 0.46435 0.32495
 H272 H 0.58920 0.55737 0.39027
 C273 C 0.52764 0.52796 0.16647
 C274 C 0.55646 0.48049 0.18314
 C275 C 0.60090 0.51179 0.20199
 C276 C 0.57163 0.55975 0.18723
 C277 C 0.62377 0.51058 0.14675
 C278 C 0.58068 0.47862 0.12863
 C279 C 0.55204 0.52671 0.11084
 C280 C 0.59492 0.55834 0.13138
 H281 H 0.48787 0.53565 0.17505
 H282 H 0.53879 0.44846 0.20341
 H283 H 0.56677 0.59372 0.21152
 H284 H 0.66226 0.49967 0.13605
 H285 H 0.58921 0.44263 0.10973
 H286 H 0.60628 0.59302 0.11289
 C287 C 0.02628 1.02738 0.66441
 C288 C 0.05451 0.97983 0.68210
 C289 C 0.09873 1.01111 0.70156
 C290 C 0.07004 1.05909 0.68572
 C291 C 0.12254 1.00923 0.64669
 C292 C 0.07963 0.97733 0.62798
 C293 C 0.05165 1.02561 0.60924
 C294 C 0.09431 1.05707 0.63037
 H295 H -0.01359 1.03539 0.67212
 H296 H 0.03634 0.94817 0.70255
 H297 H 0.06473 1.09320 0.70968
 H298 H 0.16119 0.99827 0.63676
 H299 H 0.08794 0.94104 0.60906
 H300 H 0.10660 1.09130 0.61166
 C301 C -0.09492 0.44166 0.63138
 C302 C -0.07163 0.44025 0.68723
 C303 C -0.10090 0.48821 0.70199
 C304 C -0.12377 0.48942 0.64675
 C305 C -0.05646 0.51951 0.68314
 C306 C -0.02764 0.47204 0.66647
 C307 C -0.05204 0.47328 0.61084
 C308 C -0.08068 0.52138 0.62863
 H309 H -0.10628 0.40698 0.61289
 H310 H -0.06677 0.40628 0.71152
 H311 H -0.16226 0.50033 0.63605
 H312 H -0.03879 0.55154 0.70341
 H313 H 0.01213 0.46435 0.67505
 H314 H -0.08920 0.55737 0.60973
 C315 C 0.40569 -0.05707 0.13038
 C316 C 0.42996 -0.05909 0.18573
 C317 C 0.40127 -0.01111 0.20156
 C318 C 0.37746 -0.00923 0.14669
 C319 C 0.44549 0.02017 0.18210
 C320 C 0.47372 -0.02738 0.16441
 C321 C 0.44835 -0.02561 0.10924
 C322 C 0.42037 0.02267 0.12798
 H323 H 0.39340 -0.09130 0.11167
 H324 H 0.43527 -0.09320 0.20968
 H325 H 0.33881 0.00173 0.13676
 H326 H 0.46366 0.05183 0.20255
 H327 H 0.51359 -0.03539 0.17212
 H328 H 0.41206 0.05896 0.10907
 C329 C 0.33934 0.48674 -0.00697
 C330 C 0.32855 0.43782 -0.03598
 C331 C 0.29735 0.41839 0.01062
 C332 C 0.30740 0.46802 0.04022
 C333 C 0.34466 0.39619 0.03585
 C334 C 0.37510 0.41411 -0.01146
 C335 C 0.38678 0.46315 0.01685
 C336 C 0.35556 0.44560 0.06485
 H337 H 0.33677 0.52422 -0.02518
 H338 H 0.31919 0.43971 -0.07784
 H339 H 0.27934 0.49063 0.06166
 H340 H 0.35069 0.35939 0.05395
 H341 H 0.40179 0.38849 -0.03065
 H342 H 0.36589 0.44929 0.10708
 C343 C -0.16398 0.99084 0.51817
 C344 C -0.18262 0.95710 0.47315
 C345 C -0.20322 0.91884 0.51278
 C346 C -0.18590 0.95306 0.55871
 C347 C -0.15233 0.89258 0.51480
 C348 C -0.13265 0.92915 0.47401
 C349 C -0.11336 0.96300 0.51811
 C350 C -0.13449 0.92644 0.55965
 H351 H -0.16891 1.03181 0.51980
 H352 H -0.20253 0.97513 0.44000
 H353 H -0.20795 0.96313 0.59419
 H354 H -0.14280 0.85282 0.51140
 H355 H -0.11265 0.91080 0.44210
 H356 H -0.11778 0.91389 0.59721
 C357 C -0.13265 0.07085 1.02599
 C358 C -0.15233 0.10742 0.98519
 C359 C -0.20322 0.08116 0.98722
 C360 C -0.18262 0.04290 1.02685
 C361 C -0.18590 0.04694 0.94128
 C362 C -0.13449 0.07357 0.94035
 C363 C -0.11337 0.03700 0.98188
 C364 C -0.16398 0.00916 0.98183
 H365 H -0.11265 0.08920 1.05789
 H366 H -0.14280 0.14718 0.98860
 H367 H -0.20253 0.02487 1.06000
 H368 H -0.20795 0.03687 0.90581
 H369 H -0.11778 0.08611 0.90279
 H370 H -0.16891 -0.03181 0.98020
 C371 C 0.37510 0.58589 0.51146
 C372 C 0.34466 0.60381 0.46414
 C373 C 0.29735 0.58161 0.48938
 C374 C 0.32855 0.56218 0.53598
 C375 C 0.30740 0.53198 0.45978
 C376 C 0.35556 0.55440 0.43515
 C377 C 0.38678 0.53685 0.48315
 C378 C 0.33934 0.51326 0.50697
 H379 H 0.40179 0.61151 0.53064
 H380 H 0.35069 0.64061 0.44605
 H381 H 0.31919 0.56029 0.57784
 H382 H 0.27934 0.50937 0.43834
 H383 H 0.36589 0.55071 0.39292
 H384 H 0.33677 0.47578 0.52517
 C385 C 0.14444 0.55440 0.56485
 C386 C 0.19260 0.53198 0.54022
 C387 C 0.20265 0.58161 0.51062
 C388 C 0.15534 0.60381 0.53585
 C389 C 0.17145 0.56218 0.46402
 C390 C 0.16066 0.51326 0.49303
 C391 C 0.11322 0.53685 0.51685
 C392 C 0.12490 0.58588 0.48854
 H393 H 0.13412 0.55071 0.60708
 H394 H 0.22066 0.50937 0.56166
 H395 H 0.14931 0.64061 0.55395
 H396 H 0.18081 0.56029 0.42216
 H397 H 0.16323 0.47578 0.47483
 H398 H 0.09821 0.61151 0.46935
 C399 C 0.63449 0.07356 0.05966
 C400 C 0.68590 0.04694 0.05872
 C401 C 0.70322 0.08116 0.01278
 C402 C 0.65233 0.10742 0.01481
 C403 C 0.68262 0.04290 -0.02685
 C404 C 0.66398 0.00916 0.01818
 C405 C 0.61337 0.03700 0.01812
 C406 C 0.63265 0.07085 -0.02598
 H407 H 0.61778 0.08611 0.09721
 H408 H 0.70795 0.03687 0.09419
 H409 H 0.64280 0.14718 0.01140
 H410 H 0.70253 0.02488 -0.05999
 H411 H 0.66891 -0.03181 0.01980
 H412 H 0.61265 0.08920 -0.05789
 C413 C 0.63265 0.92915 0.52599
 C414 C 0.65233 0.89258 0.48519
 C415 C 0.70322 0.91884 0.48722
 C416 C 0.68262 0.95710 0.52685
 C417 C 0.68590 0.95306 0.44128
 C418 C 0.63449 0.92644 0.44035
 C419 C 0.61336 0.96300 0.48188
 C420 C 0.66398 0.99084 0.48183
 H421 H 0.61265 0.91080 0.55789
 H422 H 0.64280 0.85282 0.48860
 H423 H 0.70253 0.97513 0.55999
 H424 H 0.70795 0.96313 0.40581
 H425 H 0.61778 0.91389 0.40279
 H426 H 0.66891 1.03181 0.48020
 C427 C 0.14444 0.44560 0.93515
 C428 C 0.19260 0.46802 0.95978
 C429 C 0.20265 0.41839 0.98938
 C430 C 0.15534 0.39619 0.96415
 C431 C 0.17145 0.43782 1.03598
 C432 C 0.16066 0.48674 1.00697
 C433 C 0.11322 0.46315 0.98315
 C434 C 0.12490 0.41412 1.01146
 H435 H 0.13411 0.44929 0.89292
 H436 H 0.22066 0.49063 0.93834
 H437 H 0.14931 0.35939 0.94605
 H438 H 0.18081 0.43971 1.07784
 H439 H 0.16323 0.52422 1.02517
 H440 H 0.09821 0.38849 1.03065
 C441 C -0.01038 0.32415 0.49630
 C442 C -0.04598 0.31114 0.44993
 C443 C -0.00172 0.29639 0.41347
 C444 C 0.03385 0.30789 0.46043
 C445 C 0.00294 0.35055 0.39517
 C446 C -0.04140 0.36520 0.43019
 C447 C -0.00615 0.37880 0.47673
 C448 C 0.03856 0.36189 0.44120
 H449 H -0.01596 0.31186 0.53768
 H450 H -0.08170 0.29157 0.45683
 H451 H 0.06686 0.28697 0.47415
 H452 H 0.00515 0.36705 0.35539
 H453 H -0.07126 0.38687 0.41163
 H454 H 0.07661 0.37730 0.43819
 C455 C 0.45380 -0.13403 -0.07227
 C456 C 0.49569 -0.14861 -0.11034
 C457 C 0.49524 -0.20212 -0.08931
 C458 C 0.45287 -0.18752 -0.05027
 C459 C 0.53374 -0.18727 -0.04643
 C460 C 0.53433 -0.13388 -0.06828
 C461 C 0.49178 -0.11800 -0.02929
 C462 C 0.49148 -0.17182 -0.00758
 H463 H 0.42312 -0.11350 -0.09052
 H464 H 0.49480 -0.13616 -0.15208
 H465 H 0.41782 -0.20598 -0.03861
 H466 H 0.56830 -0.20714 -0.03531
 H467 H 0.56995 -0.11509 -0.07802
 H468 H 0.48947 -0.18275 0.03460
 C469 C 0.04620 -0.13403 1.07228
 C470 C 0.00431 -0.14861 1.11034
 C471 C 0.00476 -0.20212 1.08931
 C472 C 0.04713 -0.18752 1.05027
 C473 C -0.03374 -0.18727 1.04643
 C474 C -0.03433 -0.13388 1.06828
 C475 C 0.00822 -0.11799 1.02929
 C476 C 0.00852 -0.17182 1.00758
 H477 H 0.07688 -0.11350 1.09052
 H478 H 0.00520 -0.13616 1.15208
 H479 H 0.08218 -0.20597 1.03861
 H480 H -0.06830 -0.20714 1.03531
 H481 H -0.06995 -0.11509 1.07801
 H482 H 0.01053 -0.18275 0.96540
 C483 C 0.51038 0.32415 0.50370
 C484 C 0.54598 0.31114 0.55007
 C485 C 0.50172 0.29639 0.58653
 C486 C 0.46615 0.30789 0.53957
 C487 C 0.49705 0.35055 0.60483
 C488 C 0.54140 0.36520 0.56980
 C489 C 0.50615 0.37880 0.52327
 C490 C 0.46144 0.36189 0.55879
 H491 H 0.51597 0.31186 0.46232
 H492 H 0.58170 0.29157 0.54317
 H493 H 0.43314 0.28697 0.52584
 H494 H 0.49485 0.36705 0.64461
 H495 H 0.57126 0.38687 0.58837
 H496 H 0.42339 0.37730 0.56181
 C497 C 0.45380 1.13403 0.57228
 C498 C 0.49568 1.14861 0.61034
 C499 C 0.49524 1.20212 0.58931
 C500 C 0.45287 1.18752 0.55027
 C501 C 0.53374 1.18727 0.54643
 C502 C 0.53433 1.13388 0.56828
 C503 C 0.49178 1.11799 0.52929
 C504 C 0.49148 1.17182 0.50758
 H505 H 0.42312 1.11350 0.59052
 H506 H 0.49479 1.13616 0.65208
 H507 H 0.41782 1.20598 0.53861
 H508 H 0.56830 1.20714 0.53531
 H509 H 0.56995 1.11509 0.57802
 H510 H 0.48947 1.18275 0.46540
 C511 C -0.01038 0.67585 1.00370
 C512 C -0.04598 0.68886 1.05007
 C513 C -0.00172 0.70361 1.08653
 C514 C 0.03385 0.69211 1.03957
 C515 C 0.00294 0.64945 1.10483
 C516 C -0.04140 0.63480 1.06980
 C517 C -0.00615 0.62120 1.02327
 C518 C 0.03856 0.63811 1.05879
 H519 H -0.01597 0.68814 0.96232
 H520 H -0.08170 0.70843 1.04317
 H521 H 0.06686 0.71303 1.02584
 H522 H 0.00515 0.63295 1.14461
 H523 H -0.07126 0.61313 1.08837
 H524 H 0.07661 0.62271 1.06181
 C525 C 0.46144 0.63810 -0.05880
 C526 C 0.46615 0.69211 -0.03957
 C527 C 0.50173 0.70360 -0.08653
 C528 C 0.49706 0.64945 -0.10483
 C529 C 0.54598 0.68886 -0.05007
 C530 C 0.51038 0.67585 -0.00370
 C531 C 0.50615 0.62120 -0.02327
 C532 C 0.54140 0.63480 -0.06981
 H533 H 0.42339 0.62270 -0.06182
 H534 H 0.43314 0.71303 -0.02585
 H535 H 0.49486 0.63295 -0.14461
 H536 H 0.58170 0.70843 -0.04317
 H537 H 0.51597 0.68814 0.03768
 H538 H 0.57127 0.61313 -0.08837
 C539 C -0.03433 1.13388 0.43172
 C540 C -0.03374 1.18727 0.45357
 C541 C 0.00476 1.20212 0.41069
 C542 C 0.00432 1.14861 0.38966
 C543 C 0.04713 1.18752 0.44973
 C544 C 0.00852 1.17182 0.49242
 C545 C 0.00822 1.11799 0.47071
 C546 C 0.04620 1.13403 0.42772
 H547 H -0.06995 1.11509 0.42198
 H548 H -0.06830 1.20714 0.46469
 H549 H 0.00521 1.13616 0.34792
 H550 H 0.08218 1.20598 0.46139
 H551 H 0.01053 1.18274 0.53460
 H552 H 0.07688 1.11350 0.40948
 C553 C 0.77736 0.72386 0.91422
 C554 C 0.72981 0.69565 0.93202
 C555 C 0.76111 0.65147 0.95151
 C556 C 0.80909 0.68013 0.93558
 C557 C 0.75919 0.62761 0.89668
 C558 C 0.72726 0.67047 0.87794
 C559 C 0.77553 0.69843 0.85908
 C560 C 0.80703 0.65580 0.88026
 H561 H 0.78538 0.76372 0.92187
 H562 H 0.69814 0.71382 0.95248
 H563 H 0.84323 0.68544 0.95951
 H564 H 0.74823 0.58896 0.88676
 H565 H 0.69092 0.66211 0.85913
 H566 H 0.84128 0.64342 0.86163
 C567 C 0.27802 0.22224 0.41653
 C568 C 0.23052 0.19343 0.43317
 C569 C 0.26182 0.14899 0.45200
 C570 C 0.30980 0.17826 0.43727
 C571 C 0.26062 0.12617 0.39674
 C572 C 0.22865 0.16926 0.37864
 C573 C 0.27678 0.19790 0.36088
 C574 C 0.30840 0.15502 0.38140
 H575 H 0.28572 0.26199 0.42514
 H576 H 0.19848 0.21111 0.45344
 H577 H 0.34378 0.18312 0.46156
 H578 H 0.24968 0.08769 0.38605
 H579 H 0.19266 0.16075 0.35972
 H580 H 0.34307 0.14372 0.36284
 C581 C 0.77274 0.32953 0.37794
 C582 C 0.74081 0.37239 0.39668
 C583 C 0.73889 0.34853 0.45151
 C584 C 0.77020 0.30435 0.43202
 C585 C 0.69091 0.31987 0.43558
 C586 C 0.69297 0.34420 0.38026
 C587 C 0.72447 0.30157 0.35908
 C588 C 0.72264 0.27614 0.41422
 H589 H 0.80908 0.33789 0.35913
 H590 H 0.75177 0.41104 0.38676
 H591 H 0.80186 0.28618 0.45248
 H592 H 0.65677 0.31456 0.45951
 H593 H 0.65872 0.35658 0.36163
 H594 H 0.71462 0.23628 0.42187
 C595 C 0.22198 0.77776 0.91653
 C596 C 0.26948 0.80657 0.93317
 C597 C 0.23818 0.85101 0.95200
 C598 C 0.19020 0.82174 0.93727
 C599 C 0.23938 0.87383 0.89674
 C600 C 0.27135 0.83074 0.87864
 C601 C 0.22322 0.80210 0.86088
 C602 C 0.19160 0.84498 0.88140
 H603 H 0.21428 0.73801 0.92515
 H604 H 0.30152 0.78889 0.95344
 H605 H 0.15622 0.81688 0.96156
 H606 H 0.25032 0.91231 0.88605
 H607 H 0.30734 0.83925 0.85972
 H608 H 0.15693 0.85628 0.86284
 C609 C 0.22865 0.83074 0.12136
 C610 C 0.26062 0.87383 0.10326
 C611 C 0.26182 0.85101 0.04800
 C612 C 0.23052 0.80657 0.06683
 C613 C 0.30980 0.82174 0.06273
 C614 C 0.30840 0.84498 0.11860
 C615 C 0.27678 0.80211 0.13912
 C616 C 0.27802 0.77776 0.08347
 H617 H 0.19266 0.83925 0.14028
 H618 H 0.24968 0.91231 0.11395
 H619 H 0.19848 0.78889 0.04656
 H620 H 0.34378 0.81688 0.03844
 H621 H 0.34307 0.85628 0.13716
 H622 H 0.28571 0.73801 0.07486
 C623 C 0.80703 0.34420 0.61974
 C624 C 0.80909 0.31987 0.56442
 C625 C 0.76111 0.34853 0.54849
 C626 C 0.75919 0.37239 0.60332
 C627 C 0.72981 0.30435 0.56798
 C628 C 0.77736 0.27614 0.58578
 C629 C 0.77553 0.30157 0.64092
 C630 C 0.72726 0.32953 0.62206
 H631 H 0.84128 0.35658 0.63837
 H632 H 0.84323 0.31456 0.54049
 H633 H 0.74823 0.41104 0.61324
 H634 H 0.69814 0.28618 0.54752
 H635 H 0.78538 0.23628 0.57813
 H636 H 0.69092 0.33789 0.64087
 C637 C 0.22198 0.22224 0.58347
 C638 C 0.26948 0.19343 0.56683
 C639 C 0.23818 0.14899 0.54800
 C640 C 0.19020 0.17826 0.56273
 C641 C 0.23938 0.12617 0.60326
 C642 C 0.27135 0.16926 0.62136
 C643 C 0.22322 0.19790 0.63912
 C644 C 0.19160 0.15502 0.61860
 H645 H 0.21428 0.26199 0.57485
 H646 H 0.30151 0.21111 0.54656
 H647 H 0.15622 0.18312 0.53844
 H648 H 0.25032 0.08769 0.61395
 H649 H 0.30733 0.16075 0.64028
 H650 H 0.15693 0.14372 0.63716
 C651 C 0.77274 0.67047 0.12206
 C652 C 0.74081 0.62761 0.10332
 C653 C 0.73889 0.65147 0.04849
 C654 C 0.77019 0.69565 0.06798
 C655 C 0.69091 0.68013 0.06441
 C656 C 0.69297 0.65580 0.11974
 C657 C 0.72447 0.69843 0.14092
 C658 C 0.72264 0.72386 0.08578
 H659 H 0.80908 0.66211 0.14087
 H660 H 0.75177 0.58896 0.11324
 H661 H 0.80186 0.71382 0.04752
 H662 H 0.65676 0.68544 0.04049
 H663 H 0.65872 0.64342 0.13837
 H664 H 0.71462 0.76372 0.07813
 C665 C 0.23691 0.58935 0.25696
 C666 C 0.18796 0.57857 0.28594
 C667 C 0.16855 0.54735 0.23935
 C668 C 0.21822 0.55739 0.20977
 C669 C 0.14636 0.59462 0.21407
 C670 C 0.16425 0.62509 0.26137
 C671 C 0.21333 0.63676 0.23309
 C672 C 0.19580 0.60552 0.18510
 H673 H 0.27440 0.58679 0.27519
 H674 H 0.18982 0.56924 0.32781
 H675 H 0.24085 0.52934 0.18837
 H676 H 0.10956 0.60063 0.19593
 H677 H 0.13860 0.65177 0.28053
 H678 H 0.19951 0.61581 0.14286
 C679 C 0.67642 0.11586 0.69120
 C680 C 0.70328 0.06461 0.69236
 C681 C 0.66879 0.04709 0.73799
 C682 C 0.64227 0.09789 0.73575
 C683 C 0.70665 0.06794 0.77798
 C684 C 0.74062 0.08672 0.73320
 C685 C 0.71255 0.13714 0.73305
 C686 C 0.67844 0.11777 0.77691
 H687 H 0.66405 0.13251 0.65355
 H688 H 0.71397 0.04279 0.65695
 H689 H 0.60262 0.10781 0.73844
 H690 H 0.72534 0.04868 0.81113
 H691 H 0.78164 0.08201 0.73192
 H692 H 0.66031 0.13760 0.80924
 C693 C 0.82358 0.11586 0.30880
 C694 C 0.79672 0.06461 0.30764
 C695 C 0.83121 0.04709 0.26202
 C696 C 0.85773 0.09789 0.26425
 C697 C 0.79335 0.06794 0.22202
 C698 C 0.75938 0.08672 0.26680
 C699 C 0.78744 0.13714 0.26696
 C700 C 0.82155 0.11777 0.22309
 H701 H 0.83595 0.13251 0.34645
 H702 H 0.78603 0.04279 0.34305
 H703 H 0.89738 0.10781 0.26155
 H704 H 0.77466 0.04867 0.18888
 H705 H 0.71836 0.08200 0.26809
 H706 H 0.83969 0.13760 0.19076
 C707 C 0.33575 0.62509 0.73862
 C708 C 0.35364 0.59462 0.78593
 C709 C 0.33145 0.54735 0.76065
 C710 C 0.31204 0.57857 0.71406
 C711 C 0.28178 0.55739 0.79022
 C712 C 0.30420 0.60551 0.81490
 C713 C 0.28667 0.63676 0.76691
 C714 C 0.26309 0.58935 0.74304
 H715 H 0.36140 0.65177 0.71947
 H716 H 0.39045 0.60063 0.80407
 H717 H 0.31018 0.56924 0.67219
 H718 H 0.25915 0.52933 0.81163
 H719 H 0.30049 0.61581 0.85714
 H720 H 0.22560 0.58679 0.72481
 C721 C 0.33575 0.37491 0.76137
 C722 C 0.35364 0.40538 0.71407
 C723 C 0.33145 0.45265 0.73935
 C724 C 0.31204 0.42143 0.78593
 C725 C 0.28178 0.44261 0.70977
 C726 C 0.30420 0.39449 0.68510
 C727 C 0.28667 0.36324 0.73309
 C728 C 0.26309 0.41065 0.75696
 H729 H 0.36140 0.34823 0.78053
 H730 H 0.39044 0.39937 0.69592
 H731 H 0.31018 0.43076 0.82781
 H732 H 0.25915 0.47067 0.68837
 H733 H 0.30048 0.38419 0.64286
 H734 H 0.22560 0.41321 0.77519
 C735 C 0.82155 0.88223 0.27691
 C736 C 0.85773 0.90211 0.23575
 C737 C 0.83121 0.95291 0.23798
 C738 C 0.79335 0.93206 0.27798
 C739 C 0.79672 0.93539 0.19236
 C740 C 0.82358 0.88414 0.19120
 C741 C 0.78744 0.86286 0.23304
 C742 C 0.75938 0.91328 0.23320
 H743 H 0.83968 0.86240 0.30924
 H744 H 0.89738 0.89219 0.23845
 H745 H 0.77466 0.95133 0.31112
 H746 H 0.78603 0.95721 0.15695
 H747 H 0.83595 0.86749 0.15355
 H748 H 0.71835 0.91800 0.23191
 C749 C 0.74062 0.91328 0.76680
 C750 C 0.70665 0.93206 0.72202
 C751 C 0.66879 0.95291 0.76202
 C752 C 0.70328 0.93539 0.80764
 C753 C 0.64228 0.90211 0.76425
 C754 C 0.67845 0.88223 0.72309
 C755 C 0.71256 0.86286 0.76695
 C756 C 0.67642 0.88414 0.80880
 H757 H 0.78165 0.91799 0.76808
 H758 H 0.72534 0.95133 0.68888
 H759 H 0.71398 0.95721 0.84305
 H760 H 0.60262 0.89219 0.76156
 H761 H 0.66031 0.86240 0.69076
 H762 H 0.66405 0.86749 0.84645
 C763 C 0.23691 0.41065 0.24304
 C764 C 0.18796 0.42143 0.21406
 C765 C 0.16855 0.45265 0.26065
 C766 C 0.21822 0.44261 0.29023
 C767 C 0.14636 0.40538 0.28593
 C768 C 0.16425 0.37491 0.23862
 C769 C 0.21333 0.36324 0.26691
 C770 C 0.19580 0.39449 0.31490
 H771 H 0.27440 0.41321 0.22481
 H772 H 0.18982 0.43076 0.17219
 H773 H 0.24085 0.47067 0.31163
 H774 H 0.10956 0.39937 0.30407
 H775 H 0.13860 0.34823 0.21947
 H776 H 0.19951 0.38419 0.35714
 C777 C 0.11508 0.20851 0.81992
 C778 C 0.10043 0.25284 0.85495
 C779 C 0.04624 0.24815 0.83670
 C780 C 0.06098 0.20391 0.80023
 C781 C 0.05770 0.28371 0.78972
 C782 C 0.11174 0.28843 0.80890
 C783 C 0.12864 0.24374 0.77336
 C784 C 0.07396 0.23949 0.75385
 H785 H 0.13680 0.17865 0.83844
 H786 H 0.11694 0.25509 0.89473
 H787 H 0.04139 0.16820 0.79337
 H788 H 0.03676 0.31669 0.77599
 H789 H 0.12713 0.32648 0.81191
 H790 H 0.06163 0.23390 0.71247
 C791 C 0.61616 0.70368 0.32269
 C792 C 0.60159 0.74562 0.36067
 C793 C 0.54807 0.74521 0.33957
 C794 C 0.56267 0.70278 0.30061
 C795 C 0.56302 0.78362 0.29665
 C796 C 0.61640 0.78417 0.31856
 C797 C 0.63228 0.74157 0.27967
 C798 C 0.57847 0.74131 0.25789
 H799 H 0.63663 0.67294 0.34093
 H800 H 0.61401 0.74484 0.40242
 H801 H 0.54419 0.66777 0.28893
 H802 H 0.54316 0.81816 0.28545
 H803 H 0.63524 0.81979 0.32821
 H804 H 0.56760 0.73924 0.21569
 C805 C 0.57847 0.25870 0.24211
 C806 C 0.56267 0.29722 0.19939
 C807 C 0.54807 0.25479 0.16043
 C808 C 0.56302 0.21638 0.20335
 C809 C 0.60159 0.25438 0.13933
 C810 C 0.61616 0.29632 0.17731
 C811 C 0.63229 0.25843 0.22032
 C812 C 0.61640 0.21583 0.18144
 H813 H 0.56760 0.26076 0.28431
 H814 H 0.54419 0.33223 0.21107
 H815 H 0.54316 0.18184 0.21455
 H816 H 0.61401 0.25516 0.09758
 H817 H 0.63663 0.32706 0.15907
 H818 H 0.63524 0.18021 0.17179
 C819 C 0.07396 0.76051 0.74615
 C820 C 0.06098 0.79609 0.69977
 C821 C 0.04624 0.75185 0.66330
 C822 C 0.05770 0.71630 0.71028
 C823 C 0.10043 0.74716 0.64505
 C824 C 0.11509 0.79149 0.68008
 C825 C 0.12864 0.75626 0.72664
 C826 C 0.11174 0.71157 0.69110
 H827 H 0.06163 0.76610 0.78753
 H828 H 0.04139 0.83180 0.70663
 H829 H 0.03676 0.68331 0.72401
 H830 H 0.11694 0.74491 0.60527
 H831 H 0.13680 0.82135 0.66156
 H832 H 0.12713 0.67352 0.68809
 C833 C 0.88360 0.78417 0.68144
 C834 C 0.93698 0.78362 0.70335
 C835 C 0.95193 0.74521 0.66043
 C836 C 0.89841 0.74562 0.63933
 C837 C 0.93733 0.70278 0.69939
 C838 C 0.92153 0.74131 0.74211
 C839 C 0.86771 0.74157 0.72032
 C840 C 0.88384 0.70368 0.67731
 H841 H 0.86476 0.81979 0.67179
 H842 H 0.95684 0.81816 0.71455
 H843 H 0.88599 0.74484 0.59758
 H844 H 0.95581 0.66777 0.71107
 H845 H 0.93240 0.73924 0.78431
 H846 H 0.86337 0.67294 0.65907
 C847 C 0.38492 0.20851 0.18008
 C848 C 0.39957 0.25283 0.14505
 C849 C 0.45376 0.24815 0.16330
 C850 C 0.43902 0.20391 0.19977
 C851 C 0.44230 0.28370 0.21028
 C852 C 0.38826 0.28843 0.19110
 C853 C 0.37136 0.24374 0.22664
 C854 C 0.42604 0.23949 0.24615
 H855 H 0.36320 0.17865 0.16156
 H856 H 0.38306 0.25509 0.10527
 H857 H 0.45861 0.16820 0.20663
 H858 H 0.46324 0.31669 0.22401
 H859 H 0.37287 0.32648 0.18809
 H860 H 0.43837 0.23390 0.28753
 C861 C 0.38491 0.79149 0.31992
 C862 C 0.39957 0.74716 0.35495
 C863 C 0.45376 0.75185 0.33670
 C864 C 0.43902 0.79609 0.30023
 C865 C 0.44230 0.71630 0.28972
 C866 C 0.38826 0.71157 0.30890
 C867 C 0.37136 0.75626 0.27336
 C868 C 0.42604 0.76051 0.25385
 H869 H 0.36320 0.82135 0.33844
 H870 H 0.38306 0.74491 0.39473
 H871 H 0.45861 0.83180 0.29337
 H872 H 0.46324 0.68331 0.27599
 H873 H 0.37287 0.67352 0.31191
 H874 H 0.43837 0.76611 0.21247
 C875 C 0.88360 0.21583 0.81856
 C876 C 0.93698 0.21639 0.79665
 C877 C 0.95193 0.25479 0.83957
 C878 C 0.89841 0.25438 0.86067
 C879 C 0.93733 0.29722 0.80061
 C880 C 0.92153 0.25870 0.75789
 C881 C 0.86771 0.25843 0.77968
 C882 C 0.88384 0.29632 0.82269
 H883 H 0.86476 0.18021 0.82821
 H884 H 0.95683 0.18184 0.78545
 H885 H 0.88599 0.25516 0.90242
 H886 H 0.95581 0.33223 0.78893
 H887 H 0.93240 0.26076 0.71569
 H888 H 0.86337 0.32706 0.84093
 C889 C 0.52854 0.99185 0.66210
 C890 C 0.55615 0.95265 0.69571
 C891 C 0.60076 0.98905 0.70180
 C892 C 0.57257 1.02809 0.66928
 C893 C 0.62367 0.96754 0.65152
 C894 C 0.57947 0.93112 0.64452
 C895 C 0.55260 0.97058 0.61080
 C896 C 0.59693 1.00691 0.61969
 H897 H 0.48880 1.00160 0.66830
 H898 H 0.53664 0.93133 0.72694
 H899 H 0.56609 1.06829 0.67473
 H900 H 0.66259 0.96476 0.64106
 H901 H 0.58170 0.89049 0.63735
 H902 H 0.61884 1.02986 0.59157
 C903 C 0.02723 0.47330 1.16570
 C904 C 0.07075 0.44096 1.18665
 C905 C 0.10031 0.48857 1.20192
 C906 C 0.05637 0.52041 1.18286
 C907 C 0.12361 0.48981 1.14688
 C908 C 0.09447 0.44242 1.13098
 C909 C 0.05207 0.47462 1.11028
 C910 C 0.08102 0.52226 1.12856
 H911 H -0.01268 0.46597 1.17388
 H912 H 0.06551 0.40694 1.21078
 H913 H 0.03883 0.55247 1.20319
 H914 H 0.16226 0.50052 1.13659
 H915 H 0.10606 0.40777 1.11251
 H916 H 0.09059 0.55793 1.10978
 C917 C -0.09693 -0.00690 1.11969
 C918 C -0.07258 -0.02809 1.16928
 C919 C -0.10076 0.01095 1.20180
 C920 C -0.12367 0.03246 1.15152
 C921 C -0.05615 0.04734 1.19571
 C922 C -0.02854 0.00814 1.16209
 C923 C -0.05260 0.02942 1.11080
 C924 C -0.07947 0.06888 1.14452
 H925 H -0.11884 -0.02985 1.09156
 H926 H -0.06609 -0.06830 1.17472
 H927 H -0.16259 0.03525 1.14106
 H928 H -0.03664 0.06866 1.22695
 H929 H 0.01120 -0.00161 1.16830
 H930 H -0.08169 0.10951 1.13736
 C931 C 0.41898 0.47774 0.62855
 C932 C 0.44363 0.47959 0.68286
 C933 C 0.39969 0.51143 0.70192
 C934 C 0.37639 0.51019 0.64688
 C935 C 0.42925 0.55904 0.68665
 C936 C 0.47277 0.52670 0.66570
 C937 C 0.44793 0.52538 0.61028
 C938 C 0.40553 0.55758 0.63098
 H939 H 0.40941 0.44207 0.60978
 H940 H 0.46117 0.44752 0.70319
 H941 H 0.33774 0.49948 0.63659
 H942 H 0.43449 0.59306 0.71077
 H943 H 0.51268 0.53403 0.67388
 H944 H 0.39394 0.59223 0.61251
 C945 C 0.40553 0.44242 -0.13098
 C946 C 0.37640 0.48981 -0.14689
 C947 C 0.39969 0.48857 -0.20192
 C948 C 0.42925 0.44095 -0.18665
 C949 C 0.44363 0.52041 -0.18286
 C950 C 0.41898 0.52226 -0.12856
 C951 C 0.44793 0.47462 -0.11028
 C952 C 0.47277 0.47330 -0.16570
 H953 H 0.39394 0.40777 -0.11251
 H954 H 0.33774 0.50052 -0.13659
 H955 H 0.43449 0.40693 -0.21078
 H956 H 0.46118 0.55247 -0.20319
 H957 H 0.40941 0.55792 -0.10978
 H958 H 0.51268 0.46596 -0.17388
 C959 C -0.07946 0.93112 0.35548
 C960 C -0.12367 0.96753 0.34848
 C961 C -0.10076 0.98904 0.29820
 C962 C -0.05615 0.95266 0.30429
 C963 C -0.07258 1.02809 0.33072
 C964 C -0.09693 1.00690 0.38031
 C965 C -0.05260 0.97058 0.38920
 C966 C -0.02854 0.99186 0.33790
 H967 H -0.08169 0.89049 0.36264
 H968 H -0.16259 0.96475 0.35893
 H969 H -0.03663 0.93134 0.27305
 H970 H -0.06609 1.06830 0.32528
 H971 H -0.11884 1.02985 0.40844
 H972 H 0.01120 1.00160 0.33170
 C973 C 0.08102 0.47774 0.37144
 C974 C 0.05637 0.47959 0.31714
 C975 C 0.10031 0.51143 0.29808
 C976 C 0.12361 0.51019 0.35312
 C977 C 0.07075 0.55904 0.31335
 C978 C 0.02723 0.52670 0.33430
 C979 C 0.05207 0.52538 0.38972
 C980 C 0.09447 0.55758 0.36902
 H981 H 0.09059 0.44207 0.39022
 H982 H 0.03883 0.44753 0.29681
 H983 H 0.16226 0.49948 0.36341
 H984 H 0.06551 0.59307 0.28922
 H985 H -0.01268 0.53403 0.32612
 H986 H 0.10606 0.59223 0.38749
 C987 C 0.59693 -0.00691 -0.11969
 C988 C 0.57257 -0.02809 -0.16928
 C989 C 0.60076 0.01095 -0.20180
 C990 C 0.62367 0.03245 -0.15152
 C991 C 0.55616 0.04735 -0.19570
 C992 C 0.52854 0.00815 -0.16209
 C993 C 0.55260 0.02942 -0.11079
 C994 C 0.57947 0.06888 -0.14452
 H995 H 0.61884 -0.02986 -0.09156
 H996 H 0.56608 -0.06830 -0.17473
 H997 H 0.66260 0.03523 -0.14106
 H998 H 0.53664 0.06867 -0.22694
 H999 H 0.48880 -0.00159 -0.16830
 H1000 H 0.58171 0.10951 -0.13735
 C1001 C 0.62496 0.58790 0.01222
 C1002 C 0.67153 0.56385 0.03640
 C1003 C 0.70262 0.58345 -0.01020
 C1004 C 0.65535 0.60600 -0.03506
 C1005 C 0.69226 0.53405 -0.04012
 C1006 C 0.66040 0.51517 0.00706
 C1007 C 0.61298 0.53912 -0.01643
 C1008 C 0.64415 0.55683 -0.06441
 H1009 H 0.59823 0.61353 0.03140
 H1010 H 0.68121 0.56158 0.07818
 H1011 H 0.64943 0.64318 -0.05238
 H1012 H 0.72015 0.51142 -0.06178
 H1013 H 0.66286 0.47754 0.02495
 H1014 H 0.63366 0.55348 -0.10663
 C1015 C 0.14539 1.05334 0.43460
 C1016 C 0.15622 1.10262 0.46395
 C1017 C 0.20315 1.08035 0.48931
 C1018 C 0.19333 1.03080 0.45947
 C1019 C 0.17178 1.06074 0.53569
 C1020 C 0.12544 1.08457 0.51094
 C1021 C 0.11383 1.03561 0.48228
 C1022 C 0.16109 1.01192 0.50640
 H1023 H 0.13531 1.04978 0.39229
 H1024 H 0.15090 1.13993 0.44671
 H1025 H 0.22155 1.00832 0.43812
 H1026 H 0.18118 1.05881 0.57758
 H1027 H 0.09857 1.11030 0.52975
 H1028 H 0.16349 0.97434 0.52443
 C1029 C 0.14539 -0.05334 1.06540
 C1030 C 0.15622 -0.10262 1.03604
 C1031 C 0.20315 -0.08035 1.01069
 C1032 C 0.19333 -0.03080 1.04053
 C1033 C 0.17178 -0.06074 0.96431
 C1034 C 0.12544 -0.08457 0.98906
 C1035 C 0.11383 -0.03561 1.01771
 C1036 C 0.16109 -0.01192 0.99360
 H1037 H 0.13531 -0.04978 1.10771
 H1038 H 0.15090 -0.13993 1.05329
 H1039 H 0.22155 -0.00832 1.06188
 H1040 H 0.18118 -0.05881 0.92242
 H1041 H 0.09857 -0.11030 0.97025
 H1042 H 0.16349 0.02566 0.97557
 C1043 C 0.66040 0.48483 0.49294
 C1044 C 0.69226 0.46595 0.54012
 C1045 C 0.70262 0.41655 0.51020
 C1046 C 0.67153 0.43615 0.46360
 C1047 C 0.65535 0.39400 0.53505
 C1048 C 0.64414 0.44317 0.56441
 C1049 C 0.61298 0.46088 0.51643
 C1050 C 0.62496 0.41210 0.48778
 H1051 H 0.66286 0.52246 0.47505
 H1052 H 0.72015 0.48858 0.56178
 H1053 H 0.68121 0.43842 0.42182
 H1054 H 0.64943 0.35682 0.55238
 H1055 H 0.63365 0.44652 0.60663
 H1056 H 0.59823 0.38647 0.46860
 C1057 C -0.12495 0.41210 0.51222
 C1058 C -0.17152 0.43615 0.53640
 C1059 C -0.20262 0.41655 0.48980
 C1060 C -0.15535 0.39400 0.46495
 C1061 C -0.19226 0.46595 0.45988
 C1062 C -0.16040 0.48483 0.50706
 C1063 C -0.11298 0.46088 0.48357
 C1064 C -0.14414 0.44317 0.43559
 H1065 H -0.09823 0.38647 0.53140
 H1066 H -0.18121 0.43842 0.57818
 H1067 H -0.14943 0.35682 0.44762
 H1068 H -0.22015 0.48858 0.43822
 H1069 H -0.16286 0.52246 0.52495
 H1070 H -0.13366 0.44652 0.39337
 C1071 C 0.33891 -0.01192 0.00640
 C1072 C 0.30667 -0.03080 -0.04053
 C1073 C 0.29685 -0.08035 -0.01069
 C1074 C 0.32822 -0.06074 0.03569
 C1075 C 0.34378 -0.10262 -0.03604
 C1076 C 0.35461 -0.05334 -0.06540
 C1077 C 0.38617 -0.03562 -0.01771
 C1078 C 0.37456 -0.08457 0.01094
 H1079 H 0.33652 0.02566 0.02443
 H1080 H 0.27846 -0.00832 -0.06188
 H1081 H 0.31882 -0.05881 0.07758
 H1082 H 0.34910 -0.13993 -0.05329
 H1083 H 0.36469 -0.04978 -0.10771
 H1084 H 0.40143 -0.11030 0.02975
 C1085 C 0.35461 1.05334 0.56540
 C1086 C 0.34378 1.10262 0.53605
 C1087 C 0.29685 1.08035 0.51069
 C1088 C 0.30667 1.03080 0.54054
 C1089 C 0.32822 1.06074 0.46432
 C1090 C 0.37456 1.08457 0.48906
 C1091 C 0.38617 1.03561 0.51772
 C1092 C 0.33891 1.01192 0.49360
 H1093 H 0.36469 1.04978 0.60771
 H1094 H 0.34910 1.13993 0.55329
 H1095 H 0.27845 1.00832 0.56188
 H1096 H 0.31882 1.05881 0.42242
 H1097 H 0.40143 1.11030 0.47025
 H1098 H 0.33651 0.97434 0.47557
 C1099 C -0.14414 0.55684 1.06441
 C1100 C -0.15535 0.60600 1.03505
 C1101 C -0.20262 0.58345 1.01020
 C1102 C -0.19226 0.53405 1.04012
 C1103 C -0.17152 0.56385 0.96360
 C1104 C -0.12495 0.58790 0.98778
 C1105 C -0.11298 0.53912 1.01643
 C1106 C -0.16040 0.51517 0.99294
 H1107 H -0.13366 0.55348 1.10663
 H1108 H -0.14943 0.64318 1.05238
 H1109 H -0.22015 0.51142 1.06177
 H1110 H -0.18121 0.56158 0.92182
 H1111 H -0.09823 0.61353 0.96860
 H1112 H -0.16286 0.47755 0.97505
 C1113 C 0.04076 0.63107 0.57175
 C1114 C 0.04860 0.68443 0.55135
 C1115 C 0.00341 0.70179 0.58496
 C1116 C -0.00456 0.64818 0.60410
 C1117 C -0.03065 0.69097 0.53662
 C1118 C 0.01448 0.67222 0.50345
 C1119 C 0.00700 0.61833 0.52363
 C1120 C -0.03858 0.63746 0.55647
 H1121 H 0.06938 0.60856 0.59162
 H1122 H 0.08511 0.70188 0.54397
 H1123 H -0.01035 0.63270 0.64393
 H1124 H -0.06090 0.71518 0.52144
 H1125 H 0.02238 0.68320 0.46206
 H1126 H -0.07701 0.62265 0.55819
 C1127 C 0.52332 0.12509 0.08430
 C1128 C 0.55093 0.17354 0.07238
 C1129 C 0.50256 0.20289 0.08481
 C1130 C 0.47495 0.15350 0.09480
 C1131 C 0.48844 0.19840 0.02496
 C1132 C 0.53682 0.16831 0.01322
 C1133 C 0.50968 0.11878 0.02462
 C1134 C 0.46127 0.14875 0.03583
 H1135 H 0.53727 0.09856 0.11437
 H1136 H 0.58993 0.17660 0.08519
 H1137 H 0.44797 0.14120 0.12482
 H1138 H 0.47251 0.22676 -0.00182
 H1139 H 0.56197 0.17601 -0.02055
 H1140 H 0.42344 0.14004 0.02080
 C1141 C -0.03682 0.16831 0.98678
 C1142 C 0.01156 0.19840 0.97504
 C1143 C -0.00256 0.20289 0.91519
 C1144 C -0.05093 0.17354 0.92762
 C1145 C 0.02505 0.15350 0.90520
 C1146 C 0.03873 0.14875 0.96417
 C1147 C -0.00967 0.11878 0.97539
 C1148 C -0.02332 0.12509 0.91570
 H1149 H -0.06197 0.17601 1.02055
 H1150 H 0.02749 0.22676 1.00183
 H1151 H -0.08993 0.17660 0.91481
 H1152 H 0.05204 0.14120 0.87518
 H1153 H 0.07656 0.14004 0.97920
 H1154 H -0.03727 0.09856 0.88563
 C1155 C 0.48552 0.67222 0.49655
 C1156 C 0.53065 0.69097 0.46338
 C1157 C 0.49659 0.70179 0.41504
 C1158 C 0.45140 0.68443 0.44865
 C1159 C 0.50456 0.64818 0.39590
 C1160 C 0.53858 0.63746 0.44353
 C1161 C 0.49300 0.61833 0.47637
 C1162 C 0.45925 0.63107 0.42825
 H1163 H 0.47763 0.68320 0.53794
 H1164 H 0.56090 0.71518 0.47856
 H1165 H 0.41489 0.70188 0.45603
 H1166 H 0.51035 0.63270 0.35607
 H1167 H 0.57701 0.62265 0.44181
 H1168 H 0.43062 0.60856 0.40838
 C1169 C 0.53682 0.83169 0.48678
 C1170 C 0.48844 0.80160 0.47504
 C1171 C 0.50256 0.79711 0.41519
 C1172 C 0.55093 0.82646 0.42762
 C1173 C 0.47495 0.84650 0.40520
 C1174 C 0.46127 0.85125 0.46417
 C1175 C 0.50967 0.88122 0.47539
 C1176 C 0.52332 0.87491 0.41570
 H1177 H 0.56197 0.82399 0.52055
 H1178 H 0.47251 0.77324 0.50183
 H1179 H 0.58993 0.82340 0.41481
 H1180 H 0.44796 0.85880 0.37519
 H1181 H 0.42344 0.85996 0.47920
 H1182 H 0.53727 0.90144 0.38563
 C1183 C -0.03858 0.36254 0.94353
 C1184 C -0.00456 0.35182 0.89590
 C1185 C 0.00341 0.29821 0.91504
 C1186 C -0.03065 0.30904 0.96338
 C1187 C 0.04860 0.31557 0.94865
 C1188 C 0.04076 0.36893 0.92824
 C1189 C 0.00700 0.38167 0.97637
 C1190 C 0.01448 0.32778 0.99655
 H1191 H -0.07701 0.37735 0.94181
 H1192 H -0.01035 0.36730 0.85607
 H1193 H -0.06090 0.28482 0.97856
 H1194 H 0.08511 0.29812 0.95603
 H1195 H 0.06938 0.39144 0.90838
 H1196 H 0.02238 0.31680 1.03794
 C1197 C 0.48552 0.32778 0.00345
 C1198 C 0.53065 0.30903 0.03662
 C1199 C 0.49659 0.29821 0.08496
 C1200 C 0.45140 0.31557 0.05135
 C1201 C 0.50456 0.35182 0.10410
 C1202 C 0.53858 0.36254 0.05647
 C1203 C 0.49300 0.38167 0.02363
 C1204 C 0.45925 0.36892 0.07175
 H1205 H 0.47762 0.31680 -0.03794
 H1206 H 0.56090 0.28482 0.02144
 H1207 H 0.41489 0.29812 0.04397
 H1208 H 0.51035 0.36730 0.14393
 H1209 H 0.57701 0.37735 0.05819
 H1210 H 0.43062 0.39144 0.09162
 C1211 C 0.03873 0.85125 0.53583
 C1212 C 0.02505 0.84650 0.59480
 C1213 C -0.00256 0.79711 0.58481
 C1214 C 0.01156 0.80160 0.52496
 C1215 C -0.05092 0.82646 0.57238
 C1216 C -0.02332 0.87491 0.58430
 C1217 C -0.00967 0.88122 0.52461
 C1218 C -0.03682 0.83169 0.51322
 H1219 H 0.07656 0.85996 0.52080
 H1220 H 0.05204 0.85880 0.62481
 H1221 H 0.02749 0.77324 0.49817
 H1222 H -0.08993 0.82340 0.58519
 H1223 H -0.03727 0.90144 0.61437
 H1224 H -0.06197 0.82399 0.47945
 C1225 C 0.22332 0.27718 0.08439
 C1226 C 0.19096 0.32067 0.06343
 C1227 C 0.23859 0.35019 0.04810
 C1228 C 0.27045 0.30628 0.06717
 C1229 C 0.23988 0.37352 0.10312
 C1230 C 0.19247 0.34442 0.11908
 C1231 C 0.22469 0.30204 0.13979
 C1232 C 0.27234 0.33095 0.12146
 H1233 H 0.21596 0.23727 0.07625
 H1234 H 0.15691 0.31542 0.03933
 H1235 H 0.30249 0.28871 0.04682
 H1236 H 0.25060 0.41215 0.11339
 H1237 H 0.15783 0.35603 0.13758
 H1238 H 0.30803 0.34053 0.14021
 C1239 C 0.74347 0.77872 0.58782
 C1240 C 0.70382 0.80441 0.55307
 C1241 C 0.73815 0.85076 0.54814
 C1242 C 0.77760 0.82450 0.58190
 C1243 C 0.71397 0.87235 0.59780
 C1244 C 0.67980 0.82635 0.60377
 C1245 C 0.71979 0.80158 0.63860
 C1246 C 0.75389 0.84773 0.63082
 H1247 H 0.75544 0.73960 0.58166
 H1248 H 0.68401 0.78457 0.52092
 H1249 H 0.81825 0.82003 0.57805
 H1250 H 0.70597 0.91033 0.60849
 H1251 H 0.63904 0.82679 0.61061
 H1252 H 0.77526 0.87040 0.65963
 C1253 C 0.27668 0.72282 0.58439
 C1254 C 0.30904 0.67933 0.56343
 C1255 C 0.26141 0.64981 0.54810
 C1256 C 0.22956 0.69372 0.56717
 C1257 C 0.26013 0.62648 0.60312
 C1258 C 0.30753 0.65558 0.61908
 C1259 C 0.27531 0.69796 0.63979
 C1260 C 0.22766 0.66905 0.62146
 H1261 H 0.28404 0.76273 0.57625
 H1262 H 0.34309 0.68458 0.53933
 H1263 H 0.19751 0.71129 0.54682
 H1264 H 0.24940 0.58785 0.61339
 H1265 H 0.34217 0.64397 0.63758
 H1266 H 0.19197 0.65947 0.64021
 C1267 C 0.82020 0.17365 0.10377
 C1268 C 0.78603 0.12765 0.09780
 C1269 C 0.76185 0.14924 0.04814
 C1270 C 0.79619 0.19559 0.05307
 C1271 C 0.72240 0.17551 0.08190
 C1272 C 0.74610 0.15227 0.13082
 C1273 C 0.78021 0.19842 0.13860
 C1274 C 0.75653 0.22128 0.08782
 H1275 H 0.86096 0.17321 0.11061
 H1276 H 0.79402 0.08967 0.10849
 H1277 H 0.81599 0.21542 0.02092
 H1278 H 0.68175 0.17998 0.07805
 H1279 H 0.72473 0.12960 0.15963
 H1280 H 0.74456 0.26040 0.08166
 C1281 C 0.74347 0.22128 0.91218
 C1282 C 0.70382 0.19560 0.94694
 C1283 C 0.73815 0.14924 0.95186
 C1284 C 0.77760 0.17550 0.91810
 C1285 C 0.71396 0.12765 0.90220
 C1286 C 0.67980 0.17366 0.89623
 C1287 C 0.71979 0.19842 0.86140
 C1288 C 0.75389 0.15227 0.86918
 H1289 H 0.75545 0.26040 0.91834
 H1290 H 0.68401 0.21543 0.97908
 H1291 H 0.81824 0.17997 0.92194
 H1292 H 0.70596 0.08968 0.89151
 H1293 H 0.63903 0.17322 0.88940
 H1294 H 0.77525 0.12960 0.84037
 C1295 C 0.27234 0.66905 0.37854
 C1296 C 0.27045 0.69372 0.43283
 C1297 C 0.23859 0.64981 0.45190
 C1298 C 0.23987 0.62648 0.39688
 C1299 C 0.19096 0.67933 0.43657
 C1300 C 0.22332 0.72282 0.41561
 C1301 C 0.22469 0.69796 0.36021
 C1302 C 0.19247 0.65558 0.38092
 H1303 H 0.30803 0.65947 0.35979
 H1304 H 0.30249 0.71129 0.45318
 H1305 H 0.25060 0.58785 0.38661
 H1306 H 0.15691 0.68458 0.46067
 H1307 H 0.21596 0.76273 0.42375
 H1308 H 0.15783 0.64397 0.36242
 C1309 C 0.82020 0.82635 0.39623
 C1310 C 0.78603 0.87235 0.40220
 C1311 C 0.76185 0.85076 0.45186
 C1312 C 0.79619 0.80441 0.44693
 C1313 C 0.72240 0.82449 0.41810
 C1314 C 0.74610 0.84773 0.36918
 C1315 C 0.78021 0.80158 0.36139
 C1316 C 0.75653 0.77872 0.41218
 H1317 H 0.86096 0.82679 0.38939
 H1318 H 0.79401 0.91033 0.39151
 H1319 H 0.81599 0.78458 0.47908
 H1320 H 0.68175 0.82002 0.42195
 H1321 H 0.72473 0.87040 0.34037
 H1322 H 0.74456 0.73960 0.41834
 C1323 C 0.27668 0.27718 0.91561
 C1324 C 0.30904 0.32067 0.93656
 C1325 C 0.26141 0.35019 0.95190
 C1326 C 0.22955 0.30628 0.93283
 C1327 C 0.26012 0.37352 0.89688
 C1328 C 0.30753 0.34442 0.88092
 C1329 C 0.27531 0.30204 0.86021
 C1330 C 0.22766 0.33095 0.87854
 H1331 H 0.28404 0.23727 0.92375
 H1332 H 0.34309 0.31542 0.96067
 H1333 H 0.19751 0.28871 0.95318
 H1334 H 0.24940 0.41215 0.88661
 H1335 H 0.34217 0.35603 0.86241
 H1336 H 0.19197 0.34053 0.85979
 C1337 C 0.76191 0.41135 0.74356
 C1338 C 0.78085 0.44355 0.79049
 C1339 C 0.83046 0.45322 0.76066
 C1340 C 0.81079 0.42189 0.71429
 C1341 C 0.85263 0.40629 0.78606
 C1342 C 0.80330 0.39562 0.81540
 C1343 C 0.78551 0.36410 0.76772
 C1344 C 0.83452 0.37554 0.73908
 H1345 H 0.72433 0.41381 0.72553
 H1346 H 0.75843 0.47183 0.81180
 H1347 H 0.80887 0.43120 0.67237
 H1348 H 0.88994 0.40091 0.80331
 H1349 H 0.79967 0.38556 0.85771
 H1350 H 0.86021 0.34860 0.72032
 C1351 C 0.26502 0.91032 0.24296
 C1352 C 0.28384 0.94220 0.29015
 C1353 C 0.33325 0.95262 0.26024
 C1354 C 0.31370 0.92151 0.21364
 C1355 C 0.35587 0.90540 0.28510
 C1356 C 0.30671 0.89413 0.31444
 C1357 C 0.28905 0.86296 0.26645
 C1358 C 0.33783 0.87500 0.23782
 H1359 H 0.22738 0.91271 0.22506
 H1360 H 0.26116 0.97004 0.31180
 H1361 H 0.31144 0.93121 0.17186
 H1362 H 0.39306 0.89950 0.30245
 H1363 H 0.30336 0.88362 0.35665
 H1364 H 0.36352 0.84831 0.21866
 C1365 C 0.19329 0.89413 0.68556
 C1366 C 0.14412 0.90540 0.71490
 C1367 C 0.16675 0.95262 0.73976
 C1368 C 0.21616 0.94220 0.70985
 C1369 C 0.18630 0.92151 0.78637
 C1370 C 0.16217 0.87500 0.76218
 C1371 C 0.21095 0.86296 0.73355
 C1372 C 0.23498 0.91032 0.75704
 H1373 H 0.19664 0.88362 0.64335
 H1374 H 0.10694 0.89950 0.69755
 H1375 H 0.23884 0.97004 0.68820
 H1376 H 0.18856 0.93121 0.82814
 H1377 H 0.13648 0.84831 0.78134
 H1378 H 0.27262 0.91271 0.77494
 C1379 C 0.66548 0.37554 0.26092
 C1380 C 0.68921 0.42189 0.28571
 C1381 C 0.66954 0.45322 0.23934
 C1382 C 0.64737 0.40629 0.21394
 C1383 C 0.71915 0.44355 0.20951
 C1384 C 0.73809 0.41135 0.25643
 C1385 C 0.71449 0.36409 0.23228
 C1386 C 0.69670 0.39561 0.18460
 H1387 H 0.63979 0.34860 0.27968
 H1388 H 0.69113 0.43120 0.32763
 H1389 H 0.61006 0.40091 0.19669
 H1390 H 0.74157 0.47183 0.18820
 H1391 H 0.77567 0.41380 0.27447
 H1392 H 0.70033 0.38556 0.14229
 C1393 C 0.69670 0.60439 0.31540
 C1394 C 0.64737 0.59371 0.28606
 C1395 C 0.66954 0.54678 0.26066
 C1396 C 0.71915 0.55645 0.29049
 C1397 C 0.68921 0.57811 0.21429
 C1398 C 0.66548 0.62446 0.23908
 C1399 C 0.71449 0.63591 0.26772
 C1400 C 0.73809 0.58865 0.24356
 H1401 H 0.70033 0.61444 0.35771
 H1402 H 0.61006 0.59909 0.30331
 H1403 H 0.74157 0.52817 0.31180
 H1404 H 0.69113 0.56880 0.17237
 H1405 H 0.63979 0.65140 0.22032
 H1406 H 0.77567 0.58620 0.22553
 C1407 C 0.16217 0.12500 0.73782
 C1408 C 0.18630 0.07849 0.71363
 C1409 C 0.16675 0.04738 0.76024
 C1410 C 0.14412 0.09460 0.78510
 C1411 C 0.21616 0.05780 0.79015
 C1412 C 0.23498 0.08968 0.74296
 C1413 C 0.21095 0.13704 0.76645
 C1414 C 0.19329 0.10587 0.81444
 H1415 H 0.13648 0.15169 0.71866
 H1416 H 0.18856 0.06879 0.67186
 H1417 H 0.10694 0.10050 0.80245
 H1418 H 0.23884 0.02996 0.81180
 H1419 H 0.27262 0.08729 0.72506
 H1420 H 0.19664 0.11638 0.85665
 C1421 C 0.33783 0.12500 0.26218
 C1422 C 0.31370 0.07849 0.28637
 C1423 C 0.33325 0.04738 0.23976
 C1424 C 0.35588 0.09460 0.21490
 C1425 C 0.28384 0.05780 0.20985
 C1426 C 0.26502 0.08968 0.25704
 C1427 C 0.28905 0.13704 0.23355
 C1428 C 0.30671 0.10587 0.18556
 H1429 H 0.36352 0.15169 0.28134
 H1430 H 0.31144 0.06879 0.32814
 H1431 H 0.39306 0.10050 0.19755
 H1432 H 0.26116 0.02996 0.18820
 H1433 H 0.22738 0.08729 0.27494
 H1434 H 0.30336 0.11638 0.14335
 C1435 C 0.80330 0.60439 0.68460
 C1436 C 0.85263 0.59371 0.71394
 C1437 C 0.83046 0.54678 0.73934
 C1438 C 0.78085 0.55645 0.70951
 C1439 C 0.81079 0.57811 0.78571
 C1440 C 0.83452 0.62446 0.76092
 C1441 C 0.78551 0.63591 0.73227
 C1442 C 0.76191 0.58865 0.75643
 H1443 H 0.79967 0.61444 0.64229
 H1444 H 0.88994 0.59909 0.69669
 H1445 H 0.75843 0.52817 0.68820
 H1446 H 0.80887 0.56880 0.82763
 H1447 H 0.86021 0.65140 0.77968
 H1448 H 0.72433 0.58620 0.77447
 C1449 C 0.91866 0.78629 0.23689
 C1450 C 0.94869 0.73795 0.22486
 C1451 C 0.95305 0.75230 0.16506
 C1452 C 0.92376 0.80063 0.17777
 C1453 C 0.90360 0.72478 0.15507
 C1454 C 0.89898 0.71087 0.21400
 C1455 C 0.86908 0.75923 0.22552
 C1456 C 0.87524 0.77311 0.16587
 H1457 H 0.92644 0.81131 0.27074
 H1458 H 0.97706 0.72188 0.25153
 H1459 H 0.92682 0.83965 0.16505
 H1460 H 0.89120 0.69797 0.12494
 H1461 H 0.89028 0.67300 0.22887
 H1462 H 0.84865 0.78718 0.13593
 C1463 C 0.38087 0.29078 0.67799
 C1464 C 0.43424 0.29870 0.69835
 C1465 C 0.45164 0.25351 0.66479
 C1466 C 0.39801 0.24545 0.64569
 C1467 C 0.44088 0.21951 0.71318
 C1468 C 0.42210 0.26463 0.74631
 C1469 C 0.36819 0.25708 0.72618
 C1470 C 0.38736 0.21149 0.69338
 H1471 H 0.35831 0.31938 0.65815
 H1472 H 0.45163 0.33523 0.70571
 H1473 H 0.38255 0.23956 0.60586
 H1474 H 0.46515 0.18931 0.72837
 H1475 H 0.43309 0.27259 0.78768
 H1476 H 0.37260 0.17306 0.69175
 C1477 C 0.38736 0.78851 0.80662
 C1478 C 0.39802 0.75455 0.85431
 C1479 C 0.45164 0.74649 0.83521
 C1480 C 0.44089 0.78049 0.78682
 C1481 C 0.43424 0.70130 0.80165
 C1482 C 0.38087 0.70922 0.82201
 C1483 C 0.36820 0.74292 0.77382
 C1484 C 0.42211 0.73537 0.75369
 H1485 H 0.37260 0.82694 0.80826
 H1486 H 0.38255 0.76044 0.89414
 H1487 H 0.46515 0.81069 0.77163
 H1488 H 0.45163 0.66477 0.79429
 H1489 H 0.35831 0.68062 0.84185
 H1490 H 0.43309 0.72741 0.71232
 C1491 C 0.87524 0.22689 0.33413
 C1492 C 0.92376 0.19937 0.32223
 C1493 C 0.95305 0.24770 0.33494
 C1494 C 0.90360 0.27522 0.34493
 C1495 C 0.94869 0.26205 0.27514
 C1496 C 0.91866 0.21371 0.26310
 C1497 C 0.86908 0.24077 0.27448
 C1498 C 0.89898 0.28913 0.28600
 H1499 H 0.84865 0.21282 0.36407
 H1500 H 0.92683 0.16035 0.33494
 H1501 H 0.89120 0.30203 0.37506
 H1502 H 0.97706 0.27813 0.24847
 H1503 H 0.92644 0.18869 0.22926
 H1504 H 0.89028 0.32700 0.27113
 C1505 C 0.11264 0.21149 0.30662
 C1506 C 0.10198 0.24545 0.35431
 C1507 C 0.04836 0.25351 0.33521
 C1508 C 0.05911 0.21951 0.28682
 C1509 C 0.06576 0.29870 0.30165
 C1510 C 0.11913 0.29078 0.32201
 C1511 C 0.13181 0.25708 0.27382
 C1512 C 0.07790 0.26463 0.25369
 H1513 H 0.12740 0.17306 0.30825
 H1514 H 0.11745 0.23956 0.39414
 H1515 H 0.03485 0.18931 0.27163
 H1516 H 0.04837 0.33523 0.29429
 H1517 H 0.14169 0.31938 0.34185
 H1518 H 0.06691 0.27259 0.21232
 C1519 C 0.58134 0.78629 0.76310
 C1520 C 0.55131 0.73795 0.77514
 C1521 C 0.54695 0.75230 0.83494
 C1522 C 0.57624 0.80063 0.82223
 C1523 C 0.59640 0.72478 0.84493
 C1524 C 0.60102 0.71087 0.78600
 C1525 C 0.63092 0.75923 0.77448
 C1526 C 0.62476 0.77311 0.83413
 H1527 H 0.57356 0.81131 0.72926
 H1528 H 0.52294 0.72188 0.74847
 H1529 H 0.57317 0.83965 0.83494
 H1530 H 0.60880 0.69797 0.87506
 H1531 H 0.60972 0.67300 0.77113
 H1532 H 0.65135 0.78718 0.86407
 C1533 C 0.58134 0.21371 0.73690
 C1534 C 0.55131 0.26205 0.72486
 C1535 C 0.54695 0.24770 0.66506
 C1536 C 0.57624 0.19938 0.67777
 C1537 C 0.59640 0.27522 0.65507
 C1538 C 0.60102 0.28913 0.71400
 C1539 C 0.63092 0.24077 0.72552
 C1540 C 0.62476 0.22689 0.66587
 H1541 H 0.57356 0.18869 0.77074
 H1542 H 0.52294 0.27813 0.75153
 H1543 H 0.57317 0.16035 0.66506
 H1544 H 0.60880 0.30203 0.62494
 H1545 H 0.60972 0.32700 0.72887
 H1546 H 0.65135 0.21282 0.63593
 C1547 C 0.07789 0.73537 0.24631
 C1548 C 0.05911 0.78049 0.21318
 C1549 C 0.04836 0.74649 0.16479
 C1550 C 0.06576 0.70130 0.19835
 C1551 C 0.10198 0.75455 0.14569
 C1552 C 0.11264 0.78851 0.19338
 C1553 C 0.13181 0.74292 0.22618
 C1554 C 0.11913 0.70922 0.17799
 H1555 H 0.06691 0.72741 0.28768
 H1556 H 0.03485 0.81069 0.22837
 H1557 H 0.04836 0.66477 0.20571
 H1558 H 0.11745 0.76044 0.10586
 H1559 H 0.12740 0.82694 0.19174
 H1560 H 0.14169 0.68062 0.15815
   
