data_POSCAR
  _audit_creation_date              2014-09-24
  _audit_creation_method            'ToBaCCo'
  _symmetry_space_group_name_H-M    'P1'
  _symmetry_Int_Tables_number       1
  _symmetry_cell_setting            triclinic
  loop_
  _symmetry_equiv_pos_as_xyz
 x,y,z
_cell_length_a 93.6862
_cell_length_b 93.7454
_cell_length_c 93.9847
_cell_angle_alpha 89.968400
_cell_angle_beta 89.976500
_cell_angle_gamma 89.953200
loop_
  _atom_site_label
  _atom_site_type_symbol
  _atom_site_fract_x
  _atom_site_fract_y
  _atom_site_fract_z
N1 N 0.36112 0.32152 0.33172
 N2 N 0.36107 0.33159 0.32199
 C3 C 0.37235 0.32970 0.31330
 C4 C 0.37991 0.31780 0.31781
 C5 C 0.37239 0.31290 0.32955
 H6 H 0.37491 0.33660 0.30446
 H7 H 0.37491 0.30378 0.33612
 Cu8 Cu 0.34649 0.34639 0.32200
 Cu9 Cu 0.34688 0.32061 0.34681
 Cu10 Cu 0.32068 0.34677 0.34680
 N11 N 0.33167 0.36094 0.32197
 N12 N 0.32159 0.36098 0.33170
 C13 C 0.31296 0.37224 0.32952
 C14 C 0.31786 0.37976 0.31779
 C15 C 0.32978 0.37221 0.31328
 H16 H 0.30383 0.37476 0.33609
 H17 H 0.33668 0.37478 0.30444
 N18 N 0.32161 0.33148 0.36119
 N19 N 0.33157 0.32153 0.36119
 C20 C 0.32957 0.31294 0.37251
 C21 C 0.31777 0.31769 0.38006
 C22 C 0.31301 0.32948 0.37250
 H23 H 0.33633 0.30399 0.37512
 H24 H 0.30405 0.33623 0.37510
 H25 H 0.33083 0.33075 0.33566
 H26 H 0.34222 0.34215 0.34727
 N27 N 0.36113 0.82155 -0.16855
 N28 N 0.36138 0.83185 -0.17802
 C29 C 0.37301 0.83028 -0.18630
 C30 C 0.38054 0.81830 -0.18180
 C31 C 0.37258 0.81308 -0.17044
 H32 H 0.37570 0.83735 -0.19497
 H33 H 0.37476 0.80376 -0.16404
 Cu34 Cu 0.34629 0.84615 -0.17900
 Cu35 Cu 0.34573 0.81960 -0.15482
 Cu36 Cu 0.32118 0.84712 -0.15329
 N37 N 0.33174 0.86102 -0.17838
 N38 N 0.32196 0.86131 -0.16838
 C39 C 0.31341 0.87266 -0.17042
 C40 C 0.31805 0.88003 -0.18240
 C41 C 0.32975 0.87222 -0.18714
 H42 H 0.30454 0.87531 -0.16356
 H43 H 0.33644 0.87450 -0.19622
 N44 N 0.32204 0.83178 -0.13899
 N45 N 0.33136 0.82126 -0.13960
 C46 C 0.32940 0.81261 -0.12832
 C47 C 0.31824 0.81791 -0.12017
 C48 C 0.31386 0.83009 -0.12732
 H49 H 0.33571 0.80320 -0.12619
 H50 H 0.30540 0.83728 -0.12425
 H51 H 0.32993 0.83112 -0.16533
 H52 H 0.34264 0.84131 -0.15386
 N53 N 0.86073 0.32184 -0.16846
 N54 N 0.86060 0.33183 -0.17827
 C55 C 0.87186 0.32992 -0.18697
 C56 C 0.87951 0.31811 -0.18237
 C57 C 0.87205 0.31328 -0.17057
 H58 H 0.87445 0.33682 -0.19580
 H59 H 0.87467 0.30426 -0.16390
 Cu60 Cu 0.84600 0.34660 -0.17825
 Cu61 Cu 0.84659 0.32102 -0.15327
 Cu62 Cu 0.82043 0.34725 -0.15323
 N63 N 0.83125 0.36123 -0.17825
 N64 N 0.82130 0.36140 -0.16840
 C65 C 0.81277 0.37275 -0.17047
 C66 C 0.81758 0.38022 -0.18232
 C67 C 0.82936 0.37248 -0.18696
 H68 H 0.80380 0.37534 -0.16373
 H69 H 0.83629 0.37496 -0.19579
 N70 N 0.82141 0.33198 -0.13880
 N71 N 0.83136 0.32202 -0.13882
 C72 C 0.82937 0.31345 -0.12749
 C73 C 0.81760 0.31822 -0.11991
 C74 C 0.81283 0.33000 -0.12747
 H75 H 0.83613 0.30448 -0.12490
 H76 H 0.80387 0.33676 -0.12486
 H77 H 0.83045 0.33113 -0.16429
 H78 H 0.84199 0.34261 -0.15292
 N79 N 0.86092 0.82186 0.33167
 N80 N 0.86091 0.83195 0.32197
 C81 C 0.87217 0.83004 0.31326
 C82 C 0.87969 0.81810 0.31774
 C83 C 0.87217 0.81321 0.32948
 H84 H 0.87474 0.83691 0.30439
 H85 H 0.87472 0.80415 0.33611
 Cu86 Cu 0.84627 0.84669 0.32197
 Cu87 Cu 0.84669 0.82095 0.34677
 Cu88 Cu 0.82051 0.84713 0.34678
 N89 N 0.83151 0.86131 0.32195
 N90 N 0.82144 0.86135 0.33167
 C91 C 0.81279 0.87260 0.32949
 C92 C 0.81766 0.88014 0.31772
 C93 C 0.82961 0.87255 0.31323
 H94 H 0.80375 0.87510 0.33617
 H95 H 0.83651 0.87504 0.30437
 N96 N 0.82144 0.83184 0.36116
 N97 N 0.83140 0.82189 0.36116
 C98 C 0.82940 0.81330 0.37248
 C99 C 0.81761 0.81806 0.38004
 C100 C 0.81285 0.82984 0.37248
 H101 H 0.83615 0.80433 0.37507
 H102 H 0.80387 0.83658 0.37507
 H103 H 0.83063 0.83111 0.33560
 H104 H 0.84206 0.84253 0.34720
 N105 N 0.63915 0.67868 0.33167
 N106 N 0.63930 0.66873 0.32184
 C107 C 0.62800 0.67060 0.31318
 C108 C 0.62031 0.68235 0.31784
 C109 C 0.62779 0.68721 0.32960
 H110 H 0.62553 0.66380 0.30424
 H111 H 0.62514 0.69617 0.33631
 Cu112 Cu 0.65393 0.65398 0.32167
 Cu113 Cu 0.65337 0.67958 0.34674
 Cu114 Cu 0.67955 0.65345 0.34671
 N115 N 0.66873 0.63939 0.32181
 N116 N 0.67868 0.63923 0.33165
 C117 C 0.68719 0.62785 0.32960
 C118 C 0.68233 0.62037 0.31784
 C119 C 0.67058 0.62809 0.31317
 H120 H 0.69614 0.62517 0.33634
 H121 H 0.66377 0.62561 0.30424
 N122 N 0.67861 0.66868 0.36112
 N123 N 0.66866 0.67864 0.36111
 C124 C 0.67059 0.68716 0.37247
 C125 C 0.68232 0.68235 0.38008
 C126 C 0.68713 0.67061 0.37249
 H127 H 0.66382 0.69611 0.37508
 H128 H 0.69608 0.66384 0.37512
 H129 H 0.66927 0.66938 0.33574
 H130 H 0.65777 0.65786 0.34716
 N131 N 0.63897 0.17808 -0.16814
 N132 N 0.63914 0.16816 -0.17800
 C133 C 0.62785 0.17005 -0.18667
 C134 C 0.62015 0.18181 -0.18201
 C135 C 0.62759 0.18661 -0.17019
 H136 H 0.62543 0.16330 -0.19566
 H137 H 0.62491 0.19555 -0.16345
 Cu138 Cu 0.65402 0.15364 -0.17850
 Cu139 Cu 0.65324 0.17901 -0.15314
 Cu140 Cu 0.67941 0.15291 -0.15316
 N141 N 0.66859 0.13880 -0.17803
 N142 N 0.67852 0.13864 -0.16818
 C143 C 0.68708 0.12729 -0.17025
 C144 C 0.68229 0.11981 -0.18208
 C145 C 0.67049 0.12754 -0.18672
 H146 H 0.69602 0.12468 -0.16348
 H147 H 0.66369 0.12518 -0.19568
 N148 N 0.67853 0.16822 -0.13880
 N149 N 0.66857 0.17816 -0.13881
 C150 C 0.67056 0.18676 -0.12751
 C151 C 0.68237 0.18204 -0.11996
 C152 C 0.68712 0.17024 -0.12750
 H153 H 0.66377 0.19569 -0.12489
 H154 H 0.69607 0.16347 -0.12486
 H155 H 0.66940 0.16908 -0.16431
 H156 H 0.65778 0.15743 -0.15310
 N157 N 0.13897 0.67837 -0.16823
 N158 N 0.13906 0.66841 -0.17804
 C159 C 0.12777 0.67035 -0.18668
 C160 C 0.12016 0.68217 -0.18206
 C161 C 0.12766 0.68699 -0.17029
 H162 H 0.12523 0.66355 -0.19557
 H163 H 0.12504 0.69600 -0.16359
 Cu164 Cu 0.15365 0.65363 -0.17820
 Cu165 Cu 0.15318 0.67921 -0.15314
 Cu166 Cu 0.17925 0.65310 -0.15312
 N167 N 0.16840 0.63901 -0.17802
 N168 N 0.17837 0.63890 -0.16820
 C169 C 0.18696 0.62757 -0.17026
 C170 C 0.18213 0.62008 -0.18203
 C171 C 0.17032 0.62772 -0.18665
 H172 H 0.19597 0.62493 -0.16355
 H173 H 0.16351 0.62520 -0.19554
 N174 N 0.17836 0.66833 -0.13874
 N175 N 0.16842 0.67829 -0.13875
 C176 C 0.17045 0.68690 -0.12746
 C177 C 0.18225 0.68216 -0.11992
 C178 C 0.18698 0.67035 -0.12746
 H179 H 0.16372 0.69589 -0.12487
 H180 H 0.19595 0.66360 -0.12486
 H181 H 0.16918 0.66908 -0.16444
 H182 H 0.15756 0.65750 -0.15291
 N183 N 0.13894 0.17843 0.33168
 N184 N 0.13929 0.16867 0.32166
 C185 C 0.12812 0.17065 0.31285
 C186 C 0.12029 0.18228 0.31762
 C187 C 0.12756 0.18693 0.32961
 H188 H 0.12578 0.16397 0.30380
 H189 H 0.12475 0.19576 0.33645
 Cu190 Cu 0.15399 0.15401 0.32176
 Cu191 Cu 0.15296 0.17917 0.34701
 Cu192 Cu 0.18060 0.15456 0.34543
 N193 N 0.16849 0.13915 0.32191
 N194 N 0.17884 0.13939 0.33133
 C195 C 0.18733 0.12798 0.32936
 C196 C 0.18204 0.12007 0.31806
 C197 C 0.17004 0.12754 0.31361
 H198 H 0.19668 0.12570 0.33570
 H199 H 0.16290 0.12472 0.30505
 N200 N 0.17880 0.16879 0.36079
 N201 N 0.16826 0.17812 0.36140
 C202 C 0.16991 0.18624 0.37310
 C203 C 0.18207 0.18183 0.38027
 C204 C 0.18740 0.17071 0.37211
 H205 H 0.16272 0.19470 0.37616
 H206 H 0.19684 0.16444 0.37421
 H207 H 0.16899 0.17039 0.33522
 H208 H 0.15888 0.15779 0.34683
 N209 N 0.63889 0.32162 0.66829
 N210 N 0.63901 0.33160 0.67810
 C211 C 0.62774 0.32973 0.68679
 C212 C 0.62009 0.31792 0.68220
 C213 C 0.62757 0.31307 0.67041
 H214 H 0.62523 0.33656 0.69570
 H215 H 0.62494 0.30409 0.66373
 Cu216 Cu 0.65366 0.34633 0.67822
 Cu217 Cu 0.65313 0.32074 0.65320
 Cu218 Cu 0.67929 0.34686 0.65320
 N219 N 0.66842 0.36094 0.67811
 N220 N 0.67841 0.36107 0.66830
 C221 C 0.68698 0.37238 0.67042
 C222 C 0.68212 0.37983 0.68222
 C223 C 0.67029 0.37220 0.68681
 H224 H 0.69598 0.37501 0.66375
 H225 H 0.66345 0.37469 0.69572
 N226 N 0.67837 0.33160 0.63881
 N227 N 0.66841 0.32166 0.63882
 C228 C 0.67042 0.31306 0.62752
 C229 C 0.68222 0.31779 0.61997
 C230 C 0.68697 0.32958 0.62751
 H231 H 0.66367 0.30411 0.62492
 H232 H 0.69594 0.33631 0.62490
 H233 H 0.66921 0.33080 0.66427
 H234 H 0.65773 0.34229 0.65286
 N235 N 0.63884 0.82186 1.16824
 N236 N 0.63894 0.83185 1.17802
 C237 C 0.62762 0.83001 1.18668
 C238 C 0.61995 0.81823 1.18205
 C239 C 0.62747 0.81335 1.17030
 H240 H 0.62509 0.83683 1.19559
 H241 H 0.62489 0.80433 1.16365
 Cu242 Cu 0.65372 0.84643 1.17827
 Cu243 Cu 0.65315 0.82088 1.15323
 Cu244 Cu 0.67934 0.84698 1.15323
 N245 N 0.66833 0.86116 1.17801
 N246 N 0.67835 0.86125 1.16823
 C247 C 0.68688 0.87258 1.17030
 C248 C 0.68200 0.88009 1.18204
 C249 C 0.67019 0.87246 1.18666
 H250 H 0.69593 0.87515 1.16365
 H251 H 0.66336 0.87500 1.19557
 N252 N 0.67849 0.83163 1.13893
 N253 N 0.66852 0.82170 1.13893
 C254 C 0.67057 0.81308 1.12765
 C255 C 0.68239 0.81779 1.12013
 C256 C 0.68713 0.82958 1.12766
 H257 H 0.66380 0.80414 1.12504
 H258 H 0.69610 0.83632 1.12506
 H259 H 0.66928 0.83093 1.16439
 H260 H 0.65777 0.84248 1.15297
 N261 N 0.13896 0.32173 1.16834
 N262 N 0.13907 0.33171 1.17814
 C263 C 0.12769 0.32993 1.18672
 C264 C 0.12002 0.31815 1.18209
 C265 C 0.12756 0.31325 1.17037
 H266 H 0.12514 0.33677 1.19559
 H267 H 0.12499 0.30420 1.16374
 Cu268 Cu 0.15387 0.34626 1.17849
 Cu269 Cu 0.15332 0.32074 1.15341
 Cu270 Cu 0.17945 0.34684 1.15335
 N271 N 0.16843 0.36104 1.17812
 N272 N 0.17842 0.36115 1.16831
 C273 C 0.18691 0.37253 1.17033
 C274 C 0.18200 0.38007 1.18203
 C275 C 0.17020 0.37242 1.18668
 H276 H 0.19597 0.37508 1.16368
 H277 H 0.16334 0.37498 1.19554
 N278 N 0.17861 0.33148 1.13909
 N279 N 0.16866 0.32154 1.13910
 C280 C 0.17066 0.31296 1.12779
 C281 C 0.18246 0.31769 1.12024
 C282 C 0.18721 0.32946 1.12778
 H283 H 0.16387 0.30404 1.12515
 H284 H 0.19615 0.33624 1.12515
 H285 H 0.16943 0.33079 1.16457
 H286 H 0.15785 0.34237 1.15320
 N287 N 0.13880 0.82191 0.66805
 N288 N 0.13921 0.83155 0.67817
 C289 C 0.12800 0.82959 0.68693
 C290 C 0.12011 0.81805 0.68206
 C291 C 0.12737 0.81346 0.67004
 H292 H 0.12572 0.83615 0.69609
 H293 H 0.12455 0.80470 0.66315
 Cu294 Cu 0.15406 0.84606 0.67874
 Cu295 Cu 0.15297 0.82113 0.65294
 Cu296 Cu 0.18057 0.84556 0.65452
 N297 N 0.16834 0.86112 0.67779
 N298 N 0.17862 0.86090 0.66829
 C299 C 0.18704 0.87237 0.67015
 C300 C 0.18177 0.88030 0.68145
 C301 C 0.16985 0.87279 0.68600
 H302 H 0.19638 0.87462 0.66379
 H303 H 0.16280 0.87554 0.69467
 N304 N 0.17887 0.83126 0.63927
 N305 N 0.16831 0.82198 0.63864
 C306 C 0.16998 0.81384 0.62696
 C307 C 0.18217 0.81819 0.61981
 C308 C 0.18750 0.82929 0.62798
 H309 H 0.16276 0.80542 0.62386
 H310 H 0.19694 0.83556 0.62587
 H311 H 0.16907 0.82973 0.66496
 H312 H 0.15888 0.84253 0.65358
 N313 N 0.36083 0.67854 0.66835
 N314 N 0.36105 0.66827 0.67786
 C315 C 0.37266 0.66985 0.68614
 C316 C 0.38015 0.68180 0.68162
 C317 C 0.37225 0.68702 0.67027
 H318 H 0.37535 0.66286 0.69487
 H319 H 0.37455 0.69632 0.66386
 Cu320 Cu 0.34598 0.65397 0.67882
 Cu321 Cu 0.34545 0.68047 0.65460
 Cu322 Cu 0.32099 0.65291 0.65299
 N323 N 0.33146 0.63912 0.67818
 N324 N 0.32180 0.63872 0.66806
 C325 C 0.31331 0.62733 0.67006
 C326 C 0.31785 0.62010 0.68212
 C327 C 0.32942 0.62796 0.68697
 H328 H 0.30458 0.62448 0.66311
 H329 H 0.33594 0.62573 0.69618
 N330 N 0.32185 0.66827 0.63870
 N331 N 0.33113 0.67880 0.63934
 C332 C 0.32919 0.68742 0.62803
 C333 C 0.31806 0.68212 0.61986
 C334 C 0.31372 0.66993 0.62700
 H335 H 0.33549 0.69683 0.62589
 H336 H 0.30531 0.66271 0.62389
 H337 H 0.32960 0.66892 0.66505
 H338 H 0.34237 0.65877 0.65362
 N339 N 0.36154 0.17780 1.16781
 N340 N 0.36060 0.16878 1.17847
 C341 C 0.37137 0.17127 1.18762
 C342 C 0.37955 0.18245 1.18242
 C343 C 0.37291 0.18631 1.16979
 H344 H 0.37321 0.16521 1.19722
 H345 H 0.37623 0.19448 1.16238
 Cu346 Cu 0.34591 0.15412 1.17898
 Cu347 Cu 0.34851 0.17714 1.15172
 Cu348 Cu 0.31915 0.15499 1.15513
 N349 N 0.33190 0.13886 1.17778
 N350 N 0.32145 0.13927 1.16848
 C351 C 0.31305 0.12777 1.17031
 C352 C 0.31854 0.11963 1.18137
 C353 C 0.33055 0.12704 1.18581
 H354 H 0.30356 0.12568 1.16412
 H355 H 0.33773 0.12417 1.19434
 N356 N 0.32124 0.16892 1.13955
 N357 N 0.33246 0.17730 1.13819
 C358 C 0.33087 0.18537 1.12645
 C359 C 0.31803 0.18188 1.12000
 C360 C 0.31224 0.17138 1.12866
 H361 H 0.33857 0.19313 1.12283
 H362 H 0.30222 0.16587 1.12717
 H363 H 0.33199 0.17065 1.16435
 H364 H 0.34068 0.15628 1.15367
 N365 N 0.86109 0.67832 1.16837
 N366 N 0.86108 0.66822 1.17803
 C367 C 0.87238 0.67008 1.18673
 C368 C 0.87987 0.68203 1.18226
 C369 C 0.87232 0.68697 1.17056
 H370 H 0.87499 0.66316 1.19554
 H371 H 0.87483 0.69607 1.16398
 Cu372 Cu 0.84645 0.65351 1.17811
 Cu373 Cu 0.84685 0.67926 1.15328
 Cu374 Cu 0.82068 0.65311 1.15328
 N375 N 0.83175 0.63888 1.17801
 N376 N 0.82164 0.63888 1.16836
 C377 C 0.81301 0.62764 1.17054
 C378 C 0.81795 0.62008 1.18223
 C379 C 0.82990 0.62757 1.18670
 H380 H 0.80389 0.62513 1.16397
 H381 H 0.83682 0.62494 1.19551
 N382 N 0.82159 0.66842 1.13891
 N383 N 0.83155 0.67836 1.13890
 C384 C 0.82954 0.68695 1.12759
 C385 C 0.81776 0.68221 1.12004
 C386 C 0.81300 0.67043 1.12760
 H387 H 0.83630 0.69590 1.12497
 H388 H 0.80404 0.66368 1.12500
 H389 H 0.83077 0.66913 1.16440
 H390 H 0.84221 0.65770 1.15282
 N391 N 0.86107 0.17823 0.66818
 N392 N 0.86085 0.16836 0.67809
 C393 C 0.87216 0.17020 0.68674
 C394 C 0.87989 0.18192 0.68203
 C395 C 0.87245 0.18672 0.67021
 H396 H 0.87462 0.16344 0.69572
 H397 H 0.87511 0.19568 0.66348
 Cu398 Cu 0.84604 0.15382 0.67854
 Cu399 Cu 0.84683 0.17914 0.65314
 Cu400 Cu 0.82072 0.15301 0.65313
 N401 N 0.83153 0.13899 0.67807
 N402 N 0.82167 0.13877 0.66816
 C403 C 0.81318 0.12738 0.67018
 C404 C 0.81799 0.11994 0.68199
 C405 C 0.82970 0.12766 0.68671
 H406 H 0.80422 0.12473 0.66345
 H407 H 0.83646 0.12520 0.69568
 N408 N 0.82159 0.16831 0.63880
 N409 N 0.83153 0.17826 0.63879
 C410 C 0.82952 0.18685 0.62748
 C411 C 0.81773 0.18210 0.61994
 C412 C 0.81299 0.17032 0.62750
 H413 H 0.83628 0.19579 0.62485
 H414 H 0.80405 0.16355 0.62489
 H415 H 0.83061 0.16918 0.66431
 H416 H 0.84232 0.15750 0.65316
 N417 N 0.32159 0.36109 0.66810
 N418 N 0.33164 0.36102 0.67783
 C419 C 0.32981 0.37233 0.68646
 C420 C 0.31789 0.37989 0.68198
 C421 C 0.31297 0.37237 0.67026
 H422 H 0.33660 0.37477 0.69538
 H423 H 0.30388 0.37496 0.66366
 Cu424 Cu 0.34618 0.34619 0.67831
 Cu425 Cu 0.32065 0.34683 0.65309
 Cu426 Cu 0.34682 0.32067 0.65310
 N427 N 0.36102 0.33166 0.67783
 N428 N 0.36109 0.32161 0.66811
 C429 C 0.37238 0.31299 0.67028
 C430 C 0.37990 0.31790 0.68200
 C431 C 0.37233 0.32982 0.68648
 H432 H 0.37496 0.30390 0.66369
 H433 H 0.37478 0.33661 0.69539
 N434 N 0.33151 0.32158 0.63875
 N435 N 0.32156 0.33153 0.63875
 C436 C 0.31293 0.32949 0.62748
 C437 C 0.31766 0.31768 0.61996
 C438 C 0.32947 0.31295 0.62749
 H439 H 0.30394 0.33623 0.62490
 H440 H 0.33621 0.30396 0.62491
 H441 H 0.33073 0.33077 0.66417
 H442 H 0.34230 0.34231 0.65286
 N443 N 0.32179 0.86133 0.16787
 N444 N 0.33168 0.86114 0.17776
 C445 C 0.32982 0.87245 0.18639
 C446 C 0.31810 0.88019 0.18169
 C447 C 0.31329 0.87273 0.16989
 H448 H 0.33659 0.87492 0.19536
 H449 H 0.30430 0.87537 0.16319
 Cu450 Cu 0.34622 0.84629 0.17821
 Cu451 Cu 0.32088 0.84706 0.15286
 Cu452 Cu 0.34700 0.82090 0.15292
 N453 N 0.36105 0.83173 0.17782
 N454 N 0.36125 0.82182 0.16795
 C455 C 0.37264 0.81332 0.17000
 C456 C 0.38009 0.81815 0.18180
 C457 C 0.37236 0.82988 0.18647
 H458 H 0.37528 0.80433 0.16331
 H459 H 0.37483 0.83666 0.19542
 N460 N 0.33169 0.82177 0.13858
 N461 N 0.32174 0.83172 0.13855
 C462 C 0.31313 0.82969 0.12727
 C463 C 0.31787 0.81787 0.11975
 C464 C 0.32967 0.81314 0.12730
 H465 H 0.30417 0.83645 0.12465
 H466 H 0.33643 0.80418 0.12472
 H467 H 0.33082 0.83088 0.16408
 H468 H 0.34250 0.84251 0.15286
 N469 N 0.82152 0.36117 0.16803
 N470 N 0.83156 0.36113 0.17778
 C471 C 0.82995 0.37269 0.18613
 C472 C 0.81822 0.38041 0.18142
 C473 C 0.81316 0.37271 0.16987
 H474 H 0.83681 0.37522 0.19501
 H475 H 0.80405 0.37522 0.16328
 Cu476 Cu 0.84581 0.34598 0.17887
 Cu477 Cu 0.81979 0.34602 0.15403
 Cu478 Cu 0.84580 0.31996 0.15406
 N479 N 0.86091 0.33169 0.17782
 N480 N 0.86094 0.32165 0.16809
 C481 C 0.87246 0.31328 0.16993
 C482 C 0.88018 0.31833 0.18147
 C483 C 0.87247 0.33006 0.18618
 H484 H 0.87496 0.30417 0.16335
 H485 H 0.87503 0.33692 0.19504
 N486 N 0.83122 0.32147 0.13904
 N487 N 0.82128 0.33143 0.13902
 C488 C 0.81304 0.32979 0.12740
 C489 C 0.81799 0.31819 0.11967
 C490 C 0.82957 0.31322 0.12743
 H491 H 0.80410 0.33658 0.12479
 H492 H 0.83636 0.30428 0.12483
 H493 H 0.82993 0.33013 0.16545
 H494 H 0.84140 0.34155 0.15382
 N495 N 0.82169 0.86141 0.66809
 N496 N 0.83171 0.86136 0.67785
 C497 C 0.82979 0.87261 0.68655
 C498 C 0.81802 0.88029 0.68188
 C499 C 0.81321 0.87282 0.67008
 H500 H 0.83666 0.87517 0.69544
 H501 H 0.80414 0.87536 0.66346
 Cu502 Cu 0.84611 0.84638 0.67860
 Cu503 Cu 0.82077 0.84714 0.65311
 Cu504 Cu 0.84682 0.82103 0.65316
 N505 N 0.86105 0.83195 0.67790
 N506 N 0.86108 0.82192 0.66816
 C507 C 0.87250 0.81343 0.67015
 C508 C 0.87999 0.81825 0.68193
 C509 C 0.87232 0.83002 0.68659
 H510 H 0.87503 0.80437 0.66352
 H511 H 0.87490 0.83690 0.69547
 N512 N 0.83153 0.82187 0.63883
 N513 N 0.82158 0.83183 0.63881
 C514 C 0.81303 0.82986 0.62746
 C515 C 0.81779 0.81806 0.61992
 C516 C 0.82957 0.81330 0.62750
 H517 H 0.80414 0.83668 0.62478
 H518 H 0.83638 0.80440 0.62485
 H519 H 0.83067 0.83102 0.66443
 H520 H 0.84242 0.84270 0.65325
 N521 N 0.67839 0.63886 0.66839
 N522 N 0.66841 0.63899 0.67821
 C523 C 0.67027 0.62769 0.68689
 C524 C 0.68212 0.62007 0.68231
 C525 C 0.68698 0.62755 0.67053
 H526 H 0.66339 0.62513 0.69575
 H527 H 0.69608 0.62503 0.66394
 Cu528 Cu 0.65353 0.65351 0.67819
 Cu529 Cu 0.67930 0.65307 0.65329
 Cu530 Cu 0.65309 0.67927 0.65330
 N531 N 0.63900 0.66838 0.67822
 N532 N 0.63887 0.67836 0.66841
 C533 C 0.62756 0.68695 0.67056
 C534 C 0.62008 0.68210 0.68234
 C535 C 0.62770 0.67024 0.68690
 H536 H 0.62504 0.69606 0.66397
 H537 H 0.62514 0.66337 0.69577
 N538 N 0.66840 0.67833 0.63892
 N539 N 0.67836 0.66837 0.63891
 C540 C 0.68695 0.67037 0.62760
 C541 C 0.68220 0.68217 0.62006
 C542 C 0.67040 0.68692 0.62761
 H543 H 0.69592 0.66361 0.62501
 H544 H 0.66365 0.69589 0.62502
 H545 H 0.66923 0.66918 0.66447
 H546 H 0.65780 0.65777 0.65294
 N547 N 0.67877 0.13900 0.16830
 N548 N 0.66832 0.13861 0.17761
 C549 C 0.66969 0.12680 0.18565
 C550 C 0.68172 0.11937 0.18122
 C551 C 0.68719 0.12751 0.17014
 H552 H 0.66253 0.12395 0.19420
 H553 H 0.69668 0.12540 0.16395
 Cu554 Cu 0.65431 0.15391 0.17882
 Cu555 Cu 0.68105 0.15475 0.15496
 Cu556 Cu 0.65171 0.17698 0.15159
 N557 N 0.63962 0.16862 0.17835
 N558 N 0.63869 0.17765 0.16770
 C559 C 0.62732 0.18619 0.16970
 C560 C 0.62068 0.18232 0.18232
 C561 C 0.62886 0.17112 0.18751
 H562 H 0.62400 0.19437 0.16230
 H563 H 0.62701 0.16505 0.19711
 N564 N 0.66776 0.17714 0.13808
 N565 N 0.67898 0.16874 0.13941
 C566 C 0.68800 0.17122 0.12852
 C567 C 0.68221 0.18177 0.11990
 C568 C 0.66937 0.18525 0.12636
 H569 H 0.69801 0.16570 0.12700
 H570 H 0.66166 0.19304 0.12277
 H571 H 0.66819 0.17045 0.16419
 H572 H 0.65949 0.15611 0.15350
 N573 N 0.17828 0.63882 0.16807
 N574 N 0.16814 0.63880 0.17773
 C575 C 0.16999 0.62750 0.18638
 C576 C 0.18194 0.61997 0.18190
 C577 C 0.18690 0.62754 0.17022
 H578 H 0.16302 0.62488 0.19514
 H579 H 0.19609 0.62507 0.16372
 Cu580 Cu 0.15342 0.65346 0.17774
 Cu581 Cu 0.17922 0.65306 0.15298
 Cu582 Cu 0.15306 0.67928 0.15300
 N583 N 0.13880 0.66822 0.17776
 N584 N 0.13883 0.67836 0.16811
 C585 C 0.12756 0.68700 0.17028
 C586 C 0.11998 0.68204 0.18196
 C587 C 0.12750 0.67008 0.18642
 H588 H 0.12510 0.69619 0.16378
 H589 H 0.12486 0.66311 0.19518
 N590 N 0.16838 0.67836 0.13862
 N591 N 0.17833 0.66840 0.13862
 C592 C 0.18695 0.67043 0.12733
 C593 C 0.18222 0.68224 0.11979
 C594 C 0.17042 0.68698 0.12734
 H595 H 0.19593 0.66368 0.12473
 H596 H 0.16369 0.69597 0.12475
 H597 H 0.16909 0.66912 0.16409
 H598 H 0.15767 0.65775 0.15249
 N599 N 0.17847 0.13881 0.66843
 N600 N 0.16804 0.13846 0.67775
 C601 C 0.16957 0.12680 0.68603
 C602 C 0.18173 0.11950 0.68175
 C603 C 0.18707 0.12751 0.67053
 H604 H 0.16240 0.12390 0.69457
 H605 H 0.19652 0.12537 0.66430
 Cu606 Cu 0.15332 0.15314 0.67792
 Cu607 Cu 0.18035 0.15413 0.65453
 Cu608 Cu 0.15278 0.17882 0.65302
 N609 N 0.13887 0.16807 0.67812
 N610 N 0.13865 0.17797 0.66823
 C611 C 0.12739 0.18661 0.67044
 C612 C 0.12002 0.18187 0.68234
 C613 C 0.12765 0.17002 0.68690
 H614 H 0.12474 0.19557 0.66372
 H615 H 0.12519 0.16326 0.69589
 N616 N 0.16816 0.17788 0.63870
 N617 N 0.17867 0.16852 0.63928
 C618 C 0.18729 0.17048 0.62798
 C619 C 0.18200 0.18165 0.61985
 C620 C 0.16984 0.18605 0.62704
 H621 H 0.19670 0.16417 0.62583
 H622 H 0.16267 0.19455 0.62401
 H623 H 0.16868 0.16982 0.66495
 H624 H 0.15870 0.15743 0.65300
 N625 N 0.32149 0.63890 0.33158
 N626 N 0.33127 0.63922 0.32158
 C627 C 0.32932 0.62805 0.31279
 C628 C 0.31763 0.62028 0.31750
 C629 C 0.31294 0.62757 0.32947
 H630 H 0.33607 0.62563 0.30379
 H631 H 0.30408 0.62482 0.33627
 Cu632 Cu 0.34614 0.65371 0.32173
 Cu633 Cu 0.32075 0.65291 0.34689
 Cu634 Cu 0.34538 0.68046 0.34534
 N635 N 0.36084 0.66838 0.32186
 N636 N 0.36056 0.67872 0.33127
 C637 C 0.37193 0.68724 0.32925
 C638 C 0.37988 0.68194 0.31798
 C639 C 0.37248 0.66991 0.31358
 H640 H 0.37415 0.69662 0.33555
 H641 H 0.37538 0.66274 0.30506
 N642 N 0.33111 0.67871 0.36069
 N643 N 0.32178 0.66819 0.36130
 C644 C 0.31366 0.66984 0.37300
 C645 C 0.31806 0.68199 0.38018
 C646 C 0.32919 0.68730 0.37201
 H647 H 0.30519 0.66266 0.37607
 H648 H 0.33549 0.69671 0.37412
 H649 H 0.32965 0.66885 0.33502
 H650 H 0.34216 0.65879 0.34675
 N651 N 0.32153 0.13867 0.83177
 N652 N 0.33162 0.13870 0.82206
 C653 C 0.32974 0.12744 0.81337
 C654 C 0.31781 0.11990 0.81786
 C655 C 0.31290 0.12742 0.82959
 H656 H 0.33664 0.12487 0.80452
 H657 H 0.30382 0.12488 0.83620
 Cu658 Cu 0.34642 0.15326 0.82209
 Cu659 Cu 0.32062 0.15287 0.84688
 Cu660 Cu 0.34679 0.17902 0.84690
 N661 N 0.36101 0.16804 0.82209
 N662 N 0.36102 0.17812 0.83180
 C663 C 0.37226 0.18676 0.82960
 C664 C 0.37979 0.18188 0.81787
 C665 C 0.37226 0.16995 0.81338
 H666 H 0.37478 0.19584 0.83621
 H667 H 0.37484 0.16308 0.80452
 N668 N 0.33150 0.17808 0.86128
 N669 N 0.32155 0.16813 0.86128
 C670 C 0.31295 0.17014 0.87259
 C671 C 0.31769 0.18191 0.88014
 C672 C 0.32948 0.18667 0.87259
 H673 H 0.30397 0.16340 0.87518
 H674 H 0.33621 0.19564 0.87518
 H675 H 0.33079 0.16891 0.83571
 H676 H 0.34220 0.15748 0.84734
 N677 N 0.82188 0.63861 0.83203
 N678 N 0.83153 0.63902 0.82190
 C679 C 0.82958 0.62781 0.81316
 C680 C 0.81804 0.61992 0.81805
 C681 C 0.81344 0.62717 0.83006
 H682 H 0.83615 0.62552 0.80400
 H683 H 0.80467 0.62435 0.83697
 Cu684 Cu 0.84604 0.65387 0.82129
 Cu685 Cu 0.82106 0.65276 0.84713
 Cu686 Cu 0.84549 0.68037 0.84547
 N687 N 0.86109 0.66817 0.82220
 N688 N 0.86086 0.67844 0.83170
 C689 C 0.87232 0.68686 0.82982
 C690 C 0.88028 0.68161 0.81851
 C691 C 0.87277 0.66969 0.81398
 H692 H 0.87456 0.69619 0.83617
 H693 H 0.87554 0.66266 0.80531
 N694 N 0.83119 0.67866 0.86074
 N695 N 0.82191 0.66811 0.86139
 C696 C 0.81375 0.66979 0.87307
 C697 C 0.81810 0.68199 0.88019
 C698 C 0.82922 0.68730 0.87201
 H699 H 0.80533 0.66258 0.87618
 H700 H 0.83549 0.69673 0.87409
 H701 H 0.82963 0.66881 0.83507
 H702 H 0.84245 0.65864 0.84646
 N703 N 0.82167 0.13869 0.33171
 N704 N 0.83177 0.13871 0.32201
 C705 C 0.82994 0.12741 0.31337
 C706 C 0.81804 0.11984 0.31789
 C707 C 0.81309 0.12739 0.32959
 H708 H 0.83691 0.12478 0.30461
 H709 H 0.80396 0.12488 0.33615
 Cu710 Cu 0.84662 0.15323 0.32203
 Cu711 Cu 0.82078 0.15289 0.34681
 Cu712 Cu 0.84690 0.17906 0.34680
 N713 N 0.86111 0.16810 0.32199
 N714 N 0.86110 0.17819 0.33168
 C715 C 0.87237 0.18681 0.32953
 C716 C 0.87992 0.18190 0.31783
 C717 C 0.87240 0.16997 0.31333
 H718 H 0.87485 0.19595 0.33609
 H719 H 0.87504 0.16302 0.30456
 N720 N 0.83162 0.17812 0.36119
 N721 N 0.82168 0.16816 0.36120
 C722 C 0.81308 0.17016 0.37251
 C723 C 0.81781 0.18195 0.38005
 C724 C 0.82960 0.18671 0.37250
 H725 H 0.80412 0.16342 0.37511
 H726 H 0.83632 0.19568 0.37509
 H727 H 0.83095 0.16891 0.33566
 H728 H 0.84237 0.15752 0.34727
 N729 N 0.67827 0.36115 0.33180
 N730 N 0.66826 0.36110 0.32201
 C731 C 0.67007 0.37247 0.31346
 C732 C 0.68195 0.38003 0.31801
 C733 C 0.68686 0.37246 0.32971
 H734 H 0.66322 0.37499 0.30457
 H735 H 0.69591 0.37503 0.33635
 Cu736 Cu 0.65379 0.34621 0.32137
 Cu737 Cu 0.67923 0.34683 0.34674
 Cu738 Cu 0.65315 0.32075 0.34675
 N739 N 0.63890 0.33175 0.32202
 N740 N 0.63884 0.32173 0.33180
 C741 C 0.62753 0.31313 0.32969
 C742 C 0.61999 0.31805 0.31798
 C743 C 0.62755 0.32994 0.31345
 H744 H 0.62496 0.30407 0.33632
 H745 H 0.62504 0.33678 0.30456
 N746 N 0.66849 0.32155 0.36104
 N747 N 0.67843 0.33149 0.36103
 C748 C 0.68704 0.32948 0.37233
 C749 C 0.68230 0.31769 0.37989
 C750 C 0.67051 0.31294 0.37234
 H751 H 0.69596 0.33627 0.37495
 H752 H 0.66373 0.30401 0.37497
 H753 H 0.66924 0.33074 0.33553
 H754 H 0.65758 0.34237 0.34676
 N755 N 0.67849 0.86093 0.83167
 N756 N 0.66823 0.86115 0.82216
 C757 C 0.66979 0.87279 0.81392
 C758 C 0.68171 0.88030 0.81845
 C759 C 0.68695 0.87237 0.82978
 H760 H 0.66277 0.87552 0.80522
 H761 H 0.69624 0.87467 0.83619
 Cu762 Cu 0.65388 0.84612 0.82132
 Cu763 Cu 0.68041 0.84557 0.84546
 Cu764 Cu 0.65279 0.82113 0.84712
 N765 N 0.63905 0.83158 0.82187
 N766 N 0.63861 0.82195 0.83202
 C767 C 0.62720 0.81348 0.83003
 C768 C 0.61999 0.81803 0.81796
 C769 C 0.62788 0.82957 0.81309
 H770 H 0.62433 0.80477 0.83698
 H771 H 0.62566 0.83610 0.80388
 N772 N 0.66815 0.82200 0.86140
 N773 N 0.67871 0.83127 0.86073
 C774 C 0.68735 0.82932 0.87201
 C775 C 0.68204 0.81822 0.88021
 C776 C 0.66983 0.81387 0.87310
 H777 H 0.69679 0.83557 0.87409
 H778 H 0.66261 0.80546 0.87622
 H779 H 0.66886 0.82972 0.83508
 H780 H 0.65870 0.84248 0.84650
 N781 N 0.17819 0.36106 0.83179
 N782 N 0.16808 0.36108 0.82211
 C783 C 0.16996 0.37237 0.81345
 C784 C 0.18192 0.37986 0.81793
 C785 C 0.18684 0.37229 0.82962
 H786 H 0.16304 0.37500 0.80465
 H787 H 0.19595 0.37479 0.83620
 Cu788 Cu 0.15332 0.34649 0.82214
 Cu789 Cu 0.17909 0.34684 0.84690
 Cu790 Cu 0.15294 0.32071 0.84692
 N791 N 0.13871 0.33173 0.82213
 N792 N 0.13873 0.32162 0.83182
 C793 C 0.12749 0.31298 0.82966
 C794 C 0.11992 0.31790 0.81796
 C795 C 0.12742 0.32985 0.81347
 H796 H 0.12499 0.30387 0.83624
 H797 H 0.12479 0.33678 0.80467
 N798 N 0.16823 0.32162 0.86131
 N799 N 0.17818 0.33157 0.86130
 C800 C 0.18680 0.32953 0.87259
 C801 C 0.18205 0.31774 0.88014
 C802 C 0.17026 0.31300 0.87260
 H803 H 0.19580 0.33624 0.87515
 H804 H 0.16355 0.30401 0.87517
 H805 H 0.16896 0.33084 0.83573
 H806 H 0.15752 0.34227 0.84735
 N807 N 0.17833 0.86117 0.33160
 N808 N 0.16824 0.86116 0.32190
 C809 C 0.17011 0.87246 0.31324
 C810 C 0.18204 0.87998 0.31773
 C811 C 0.18696 0.87242 0.32943
 H812 H 0.16316 0.87509 0.30445
 H813 H 0.19608 0.87492 0.33600
 Cu814 Cu 0.15341 0.84662 0.32194
 Cu815 Cu 0.17920 0.84696 0.34672
 Cu816 Cu 0.15304 0.82084 0.34677
 N817 N 0.13885 0.83181 0.32195
 N818 N 0.13883 0.82173 0.33166
 C819 C 0.12757 0.81311 0.32951
 C820 C 0.12002 0.81804 0.31780
 C821 C 0.12755 0.82995 0.31329
 H822 H 0.12506 0.80399 0.33608
 H823 H 0.12494 0.83689 0.30450
 N824 N 0.16832 0.82176 0.36117
 N825 N 0.17828 0.83170 0.36114
 C826 C 0.18690 0.82968 0.37243
 C827 C 0.18216 0.81790 0.38000
 C828 C 0.17036 0.81315 0.37246
 H829 H 0.19590 0.83639 0.37499
 H830 H 0.16365 0.80416 0.37506
 H831 H 0.16903 0.83093 0.33558
 H832 H 0.15762 0.84236 0.34718
 C833 C 0.24476 1.04504 0.25499
 C834 C 0.25529 1.04504 0.24485
 C835 C 0.25839 1.03087 0.24188
 N836 N 0.25003 1.02230 0.24991
 C837 C 0.24167 1.03087 0.25794
 C838 C 0.26871 1.02628 0.23183
 C839 C 0.27199 1.01185 0.22859
 C840 C 0.28178 1.00752 0.21838
 C841 C 0.28179 0.99283 0.21838
 C842 C 0.27200 0.98849 0.22860
 N843 N 0.26623 1.00017 0.23480
 C844 C 0.26874 0.97406 0.23184
 C845 C 0.25841 0.96946 0.24188
 C846 C 0.25531 0.95529 0.24482
 C847 C 0.24478 0.95529 0.25495
 C848 C 0.24169 0.96946 0.25793
 N849 N 0.25006 0.97803 0.24992
 C850 C 0.23134 0.97405 0.26796
 C851 C 0.22807 0.98848 0.27121
 C852 C 0.21828 0.99281 0.28143
 C853 C 0.21828 1.00751 0.28143
 C854 C 0.22807 1.01183 0.27122
 N855 N 0.23384 1.00016 0.26502
 C856 C 0.23135 1.02626 0.26799
 H857 H 0.23996 1.05444 0.25965
 H858 H 0.26010 1.05445 0.24020
 H859 H 0.24096 1.00016 0.25671
 H860 H 0.28827 1.01424 0.21160
 H861 H 0.28828 0.98612 0.21160
 H862 H 0.26010 0.94589 0.24015
 H863 H 0.23996 0.94589 0.25960
 H864 H 0.21178 1.01423 0.28820
 H865 H 0.25910 1.00017 0.24309
 H866 H 0.21179 0.98609 0.28821
 C867 C 0.24469 0.45507 0.75507
 C868 C 0.25521 0.45509 0.74493
 C869 C 0.25830 0.46927 0.74199
 N870 N 0.24994 0.47782 0.75003
 C871 C 0.24159 0.46923 0.75805
 C872 C 0.26864 0.47388 0.73196
 C873 C 0.27188 0.48831 0.72871
 C874 C 0.28170 0.49265 0.71853
 C875 C 0.28168 0.50735 0.71852
 C876 C 0.27186 0.51167 0.72871
 N877 N 0.26608 0.49998 0.73488
 C878 C 0.26858 0.52609 0.73197
 C879 C 0.25823 0.53066 0.74202
 C880 C 0.25512 0.54482 0.74501
 C881 C 0.24460 0.54480 0.75514
 C882 C 0.24150 0.53063 0.75808
 N883 N 0.24987 0.52207 0.75003
 C884 C 0.23117 0.52602 0.76811
 C885 C 0.22792 0.51158 0.77135
 C886 C 0.21811 0.50723 0.78153
 C887 C 0.21814 0.49254 0.78154
 C888 C 0.22797 0.48823 0.77135
 N889 N 0.23374 0.49991 0.76518
 C890 C 0.23126 0.47380 0.76810
 H891 H 0.23990 0.44565 0.75972
 H892 H 0.26000 0.44569 0.74026
 H893 H 0.24094 0.49992 0.75695
 H894 H 0.28823 0.48594 0.71178
 H895 H 0.28818 0.51409 0.71178
 H896 H 0.25992 0.55424 0.74038
 H897 H 0.23980 0.55420 0.75982
 H898 H 0.21164 0.48581 0.78830
 H899 H 0.25889 0.49997 0.74312
 H900 H 0.21158 0.51395 0.78827
 C901 C 0.75549 0.04465 0.25510
 C902 C 0.74499 0.04468 0.24494
 C903 C 0.74189 0.03052 0.24198
 N904 N 0.75021 0.02192 0.25002
 C905 C 0.75856 0.03047 0.25806
 C906 C 0.73158 0.02596 0.23190
 C907 C 0.72828 0.01154 0.22869
 C908 C 0.71847 0.00722 0.21850
 C909 C 0.71842 -0.00748 0.21855
 C910 C 0.72822 -0.01182 0.22876
 N911 N 0.73402 -0.00015 0.23491
 C912 C 0.73146 -0.02625 0.23202
 C913 C 0.74177 -0.03088 0.24206
 C914 C 0.74484 -0.04506 0.24501
 C915 C 0.75538 -0.04509 0.25512
 C916 C 0.75850 -0.03093 0.25809
 N917 N 0.75015 -0.02234 0.25007
 C918 C 0.76883 -0.02637 0.26813
 C919 C 0.77212 -0.01195 0.27136
 C920 C 0.78194 -0.00765 0.28155
 C921 C 0.78194 0.00705 0.28155
 C922 C 0.77213 0.01140 0.27136
 N923 N 0.76634 -0.00026 0.26519
 C924 C 0.76888 0.02585 0.26811
 H925 H 0.76030 0.05404 0.25976
 H926 H 0.74022 0.05410 0.24027
 H927 H 0.75917 -0.00025 0.25694
 H928 H 0.71198 0.01394 0.21172
 H929 H 0.71191 -0.01419 0.21182
 H930 H 0.74002 -0.05446 0.24037
 H931 H 0.76019 -0.05451 0.25976
 H932 H 0.78845 0.01375 0.28830
 H933 H 0.74119 -0.00016 0.24316
 H934 H 0.78845 -0.01438 0.28830
 C935 C 0.74486 0.45499 0.74511
 C936 C 0.75537 0.45499 0.75526
 C937 C 0.75843 0.46917 0.75822
 N938 N 0.75009 0.47773 0.75016
 C939 C 0.74177 0.46916 0.74212
 C940 C 0.76874 0.47377 0.76828
 C941 C 0.77201 0.48820 0.77151
 C942 C 0.78192 0.49252 0.78160
 C943 C 0.78190 0.50722 0.78160
 C944 C 0.77198 0.51155 0.77151
 N945 N 0.76613 0.49988 0.76542
 C946 C 0.76869 0.52598 0.76827
 C947 C 0.75836 0.53057 0.75821
 C948 C 0.75527 0.54474 0.75522
 C949 C 0.74476 0.54474 0.74508
 C950 C 0.74169 0.53056 0.74212
 N951 N 0.75003 0.52200 0.75017
 C952 C 0.73139 0.52596 0.73205
 C953 C 0.72813 0.51153 0.72882
 C954 C 0.71823 0.50720 0.71872
 C955 C 0.71825 0.49250 0.71872
 C956 C 0.72816 0.48818 0.72882
 N957 N 0.73401 0.49986 0.73491
 C958 C 0.73146 0.47375 0.73205
 H959 H 0.74006 0.44559 0.74047
 H960 H 0.76018 0.44559 0.75991
 H961 H 0.74140 0.49986 0.74296
 H962 H 0.78850 0.48579 0.78829
 H963 H 0.78847 0.51393 0.78830
 H964 H 0.76008 0.55414 0.75986
 H965 H 0.73995 0.55414 0.74041
 H966 H 0.71169 0.48578 0.71203
 H967 H 0.75874 0.49987 0.75738
 H968 H 0.71165 0.51392 0.71202
 C969 C 0.25526 0.45507 0.25501
 C970 C 0.24471 0.45509 0.24491
 C971 C 0.24161 0.46926 0.24196
 N972 N 0.24997 0.47782 0.24997
 C973 C 0.25834 0.46924 0.25798
 C974 C 0.23128 0.47387 0.23193
 C975 C 0.22801 0.48830 0.22868
 C976 C 0.21820 0.49264 0.21849
 C977 C 0.21822 0.50734 0.21847
 C978 C 0.22803 0.51165 0.22866
 N979 N 0.23379 0.49997 0.23485
 C980 C 0.23131 0.52608 0.23189
 C981 C 0.24164 0.53065 0.24193
 C982 C 0.24472 0.54481 0.24490
 C983 C 0.25526 0.54480 0.25500
 C984 C 0.25837 0.53063 0.25795
 N985 N 0.25001 0.52207 0.24993
 C986 C 0.26871 0.52603 0.26798
 C987 C 0.27197 0.51160 0.27123
 C988 C 0.28178 0.50726 0.28142
 C989 C 0.28177 0.49256 0.28143
 C990 C 0.27195 0.48825 0.27125
 N991 N 0.26618 0.49993 0.26506
 C992 C 0.26866 0.47382 0.26802
 H993 H 0.26009 0.44566 0.25963
 H994 H 0.23988 0.44569 0.24026
 H995 H 0.25900 0.49995 0.25682
 H996 H 0.21168 0.48594 0.21174
 H997 H 0.21173 0.51406 0.21170
 H998 H 0.23989 0.55422 0.24027
 H999 H 0.26006 0.55420 0.25965
 H1000 H 0.28827 0.48583 0.28819
 H1001 H 0.24096 0.49995 0.24311
 H1002 H 0.28830 0.51396 0.28818
 C1003 C 0.75514 1.04501 0.74505
 C1004 C 0.74461 1.04503 0.75519
 C1005 C 0.74151 1.03087 0.75817
 N1006 N 0.74987 1.02228 0.75015
 C1007 C 0.75823 1.03084 0.74211
 C1008 C 0.73117 1.02629 0.76822
 C1009 C 0.72792 1.01185 0.77147
 C1010 C 0.71812 1.00752 0.78168
 C1011 C 0.71814 0.99283 0.78170
 C1012 C 0.72794 0.98849 0.77150
 N1013 N 0.73371 1.00017 0.76530
 C1014 C 0.73122 0.97405 0.76828
 C1015 C 0.74155 0.96944 0.75821
 C1016 C 0.74464 0.95527 0.75525
 C1017 C 0.75517 0.95526 0.74511
 C1018 C 0.75826 0.96943 0.74214
 N1019 N 0.74990 0.97801 0.75017
 C1020 C 0.76859 0.97403 0.73209
 C1021 C 0.77185 0.98845 0.72883
 C1022 C 0.78165 0.99277 0.71863
 C1023 C 0.78164 1.00746 0.71862
 C1024 C 0.77182 1.01179 0.72882
 N1025 N 0.76605 1.00012 0.73501
 C1026 C 0.76855 1.02622 0.73206
 H1027 H 0.75995 1.05441 0.74038
 H1028 H 0.73980 1.05444 0.75983
 H1029 H 0.75888 1.00012 0.74327
 H1030 H 0.71162 1.01425 0.78843
 H1031 H 0.71164 0.98610 0.78846
 H1032 H 0.73985 0.94587 0.75991
 H1033 H 0.75997 0.94585 0.74047
 H1034 H 0.78813 1.01418 0.71186
 H1035 H 0.74087 1.00016 0.75703
 H1036 H 0.78816 0.98605 0.71187
 C1037 C 0.74474 0.45520 0.25509
 C1038 C 0.75523 0.45521 0.24492
 C1039 C 0.75832 0.46937 0.24195
 N1040 N 0.75000 0.47794 0.25003
 C1041 C 0.74166 0.46937 0.25808
 C1042 C 0.76862 0.47396 0.23187
 C1043 C 0.77191 0.48839 0.22865
 C1044 C 0.78182 0.49273 0.21855
 C1045 C 0.78182 0.50743 0.21857
 C1046 C 0.77192 0.51174 0.22868
 N1047 N 0.76606 0.50006 0.23477
 C1048 C 0.76864 0.52616 0.23194
 C1049 C 0.75833 0.53076 0.24200
 C1050 C 0.75526 0.54494 0.24498
 C1051 C 0.74478 0.54495 0.25515
 C1052 C 0.74169 0.53078 0.25813
 N1053 N 0.75001 0.52220 0.25007
 C1054 C 0.73139 0.52619 0.26820
 C1055 C 0.72810 0.51176 0.27143
 C1056 C 0.71819 0.50744 0.28153
 C1057 C 0.71817 0.49274 0.28152
 C1058 C 0.72807 0.48840 0.27141
 N1059 N 0.73395 0.50008 0.26532
 C1060 C 0.73134 0.47397 0.26815
 H1061 H 0.73994 0.44579 0.25974
 H1062 H 0.76002 0.44581 0.24024
 H1063 H 0.74133 0.50008 0.25726
 H1064 H 0.78839 0.48601 0.21184
 H1065 H 0.78838 0.51416 0.21189
 H1066 H 0.76006 0.55434 0.24031
 H1067 H 0.74000 0.55436 0.25982
 H1068 H 0.71159 0.48602 0.28821
 H1069 H 0.75867 0.50006 0.24283
 H1070 H 0.71163 0.51416 0.28823
 C1071 C 0.24492 -0.04517 0.74483
 C1072 C 0.25546 -0.04522 0.75494
 C1073 C 0.25856 -0.03106 0.75794
 N1074 N 0.25019 -0.02246 0.74995
 C1075 C 0.24182 -0.03099 0.74192
 C1076 C 0.26892 -0.02650 0.76796
 C1077 C 0.27216 -0.01207 0.77124
 C1078 C 0.28195 -0.00777 0.78146
 C1079 C 0.28193 0.00693 0.78150
 C1080 C 0.27212 0.01129 0.77131
 N1081 N 0.26638 -0.00037 0.76508
 C1082 C 0.26883 0.02574 0.76811
 C1083 C 0.25850 0.03036 0.75808
 C1084 C 0.25539 0.04454 0.75516
 C1085 C 0.24486 0.04457 0.74504
 C1086 C 0.24177 0.03041 0.74205
 N1087 N 0.25014 0.02181 0.75004
 C1088 C 0.23145 0.02585 0.73199
 C1089 C 0.22819 0.01143 0.72873
 C1090 C 0.21841 0.00713 0.71850
 C1091 C 0.21843 -0.00756 0.71847
 C1092 C 0.22821 -0.01192 0.72869
 N1093 N 0.23394 -0.00026 0.73492
 C1094 C 0.23149 -0.02636 0.73189
 H1095 H 0.24011 -0.05455 0.74013
 H1096 H 0.26027 -0.05465 0.75956
 H1097 H 0.24104 -0.00029 0.74324
 H1098 H 0.28845 -0.01451 0.78820
 H1099 H 0.28843 0.01362 0.78827
 H1100 H 0.26018 0.05394 0.75982
 H1101 H 0.24004 0.05399 0.74042
 H1102 H 0.21195 -0.01427 0.71168
 H1103 H 0.25926 -0.00035 0.75678
 H1104 H 0.21191 0.01387 0.71174
 C1105 C 0.24481 0.25498 0.95534
 C1106 C 0.25511 0.24458 0.95535
 C1107 C 0.25813 0.24155 0.96949
 N1108 N 0.24997 0.24981 0.97803
 C1109 C 0.24180 0.25804 0.96947
 C1110 C 0.26830 0.23131 0.97408
 C1111 C 0.27158 0.22806 0.98847
 C1112 C 0.28162 0.21806 0.99280
 C1113 C 0.28165 0.21809 1.00746
 C1114 C 0.27162 0.22810 1.01177
 N1115 N 0.26559 0.23404 1.00012
 C1116 C 0.26837 0.23140 1.02616
 C1117 C 0.25819 0.24165 1.03073
 C1118 C 0.25517 0.24471 1.04486
 C1119 C 0.24486 0.25509 1.04485
 C1120 C 0.24184 0.25812 1.03071
 N1121 N 0.25002 0.24988 1.02217
 C1122 C 0.23166 0.26836 1.02612
 C1123 C 0.22839 0.27162 1.01173
 C1124 C 0.21836 0.28163 1.00740
 C1125 C 0.21835 0.28161 0.99274
 C1126 C 0.22838 0.27159 0.98843
 N1127 N 0.23439 0.26564 1.00008
 C1128 C 0.23163 0.26829 0.97404
 H1129 H 0.24010 0.25972 0.94595
 H1130 H 0.25983 0.23982 0.94598
 H1131 H 0.24219 0.25796 1.00009
 H1132 H 0.28827 0.21141 0.98610
 H1133 H 0.28830 0.21147 1.01417
 H1134 H 0.25990 0.23996 1.05424
 H1135 H 0.24014 0.25985 1.05423
 H1136 H 0.21170 0.28824 0.98603
 H1137 H 0.25779 0.24171 1.00011
 H1138 H 0.21171 0.28827 1.01410
 C1139 C 0.24500 0.75537 0.54473
 C1140 C 0.25533 0.74501 0.54474
 C1141 C 0.25835 0.74196 0.53060
 N1142 N 0.25015 0.75017 0.52206
 C1143 C 0.24196 0.75840 0.53060
 C1144 C 0.26854 0.73173 0.52602
 C1145 C 0.27179 0.72843 0.51163
 C1146 C 0.28180 0.71839 0.50732
 C1147 C 0.28179 0.71837 0.49266
 C1148 C 0.27178 0.72840 0.48833
 N1149 N 0.26580 0.73441 0.49998
 C1150 C 0.26851 0.73166 0.47394
 C1151 C 0.25831 0.74187 0.46935
 C1152 C 0.25527 0.74489 0.45522
 C1153 C 0.24493 0.75525 0.45522
 C1154 C 0.24192 0.75830 0.46935
 N1155 N 0.25012 0.75009 0.47790
 C1156 C 0.23173 0.76853 0.47393
 C1157 C 0.22847 0.77183 0.48832
 C1158 C 0.21847 0.78188 0.49262
 C1159 C 0.21848 0.78190 0.50729
 C1160 C 0.22849 0.77187 0.51162
 N1161 N 0.23446 0.76585 0.49997
 C1162 C 0.23177 0.76862 0.52601
 H1163 H 0.24028 0.76012 0.55411
 H1164 H 0.26007 0.74027 0.55412
 H1165 H 0.24218 0.75810 0.49997
 H1166 H 0.28844 0.71175 0.51403
 H1167 H 0.28842 0.71171 0.48596
 H1168 H 0.25999 0.74014 0.44584
 H1169 H 0.24019 0.75998 0.44584
 H1170 H 0.21186 0.78857 0.51398
 H1171 H 0.25807 0.74215 0.49997
 H1172 H 0.21184 0.78852 0.48592
 C1173 C 0.24510 0.74479 -0.04493
 C1174 C 0.25548 0.75508 -0.04496
 C1175 C 0.25853 0.75813 -0.03083
 N1176 N 0.25029 0.74999 -0.02226
 C1177 C 0.24205 0.74180 -0.03078
 C1178 C 0.26876 0.76831 -0.02628
 C1179 C 0.27201 0.77160 -0.01190
 C1180 C 0.28200 0.78165 -0.00760
 C1181 C 0.28198 0.78169 0.00706
 C1182 C 0.27198 0.77166 0.01140
 N1183 N 0.26604 0.76562 -0.00024
 C1184 C 0.26869 0.76844 0.02580
 C1185 C 0.25847 0.75827 0.03041
 C1186 C 0.25542 0.75529 0.04455
 C1187 C 0.24506 0.74498 0.04459
 C1188 C 0.24202 0.74192 0.03046
 N1189 N 0.25024 0.75008 0.02189
 C1190 C 0.23180 0.73173 0.02591
 C1191 C 0.22853 0.72845 0.01153
 C1192 C 0.21854 0.71841 0.00724
 C1193 C 0.21854 0.71839 -0.00742
 C1194 C 0.22853 0.72841 -0.01177
 N1195 N 0.23449 0.73444 -0.00014
 C1196 C 0.23181 0.73165 -0.02617
 H1197 H 0.24035 0.74006 -0.05430
 H1198 H 0.26024 0.75978 -0.05435
 H1199 H 0.24215 0.74224 -0.00016
 H1200 H 0.28863 0.78829 -0.01432
 H1201 H 0.28859 0.78835 0.01376
 H1202 H 0.26016 0.76003 0.05392
 H1203 H 0.24031 0.74028 0.05399
 H1204 H 0.21191 0.71173 -0.01411
 H1205 H 0.25839 0.75782 -0.00021
 H1206 H 0.21191 0.71178 0.01396
 C1207 C 0.24477 0.24464 0.45528
 C1208 C 0.25508 0.25501 0.45528
 C1209 C 0.25810 0.25804 0.46941
 N1210 N 0.24992 0.24982 0.47796
 C1211 C 0.24174 0.24161 0.46942
 C1212 C 0.26829 0.26826 0.47399
 C1213 C 0.27155 0.27152 0.48838
 C1214 C 0.28158 0.28152 0.49269
 C1215 C 0.28157 0.28152 0.50735
 C1216 C 0.27154 0.27152 0.51168
 N1217 N 0.26555 0.26556 0.50003
 C1218 C 0.26826 0.26826 0.52607
 C1219 C 0.25808 0.25804 0.53066
 C1220 C 0.25505 0.25500 0.54480
 C1221 C 0.24473 0.24464 0.54480
 C1222 C 0.24171 0.24160 0.53067
 N1223 N 0.24990 0.24982 0.52212
 C1224 C 0.23154 0.23138 0.52609
 C1225 C 0.22827 0.22813 0.51170
 C1226 C 0.21824 0.21813 0.50738
 C1227 C 0.21825 0.21813 0.49272
 C1228 C 0.22828 0.22813 0.48840
 N1229 N 0.23427 0.23410 0.50005
 C1230 C 0.23156 0.23138 0.47401
 H1231 H 0.24005 0.23990 0.44590
 H1232 H 0.25981 0.25975 0.44589
 H1233 H 0.24204 0.24179 0.50004
 H1234 H 0.28824 0.28814 0.48598
 H1235 H 0.28822 0.28814 0.51405
 H1236 H 0.25977 0.25974 0.55418
 H1237 H 0.24000 0.23989 0.55418
 H1238 H 0.21161 0.21150 0.48602
 H1239 H 0.25776 0.25788 0.50003
 H1240 H 0.21159 0.21149 0.51408
 C1241 C 0.74486 0.75526 1.04472
 C1242 C 0.75513 0.74484 1.04472
 C1243 C 0.75815 0.74179 1.03059
 N1244 N 0.75001 0.75006 1.02204
 C1245 C 0.74186 0.75832 1.03058
 C1246 C 0.76832 0.73154 1.02602
 C1247 C 0.77160 0.72828 1.01163
 C1248 C 0.78174 0.71837 1.00732
 C1249 C 0.78176 0.71839 0.99266
 C1250 C 0.77164 0.72830 0.98833
 N1251 N 0.76551 0.73416 0.99997
 C1252 C 0.76840 0.73159 0.97393
 C1253 C 0.75825 0.74185 0.96935
 C1254 C 0.75525 0.74491 0.95521
 C1255 C 0.74500 0.75535 0.95521
 C1256 C 0.74198 0.75841 0.96934
 N1257 N 0.75011 0.75013 0.97789
 C1258 C 0.73183 0.76868 0.97392
 C1259 C 0.72853 0.77192 0.98831
 C1260 C 0.71839 0.78182 0.99262
 C1261 C 0.71835 0.78179 1.00728
 C1262 C 0.72847 0.77188 1.01161
 N1263 N 0.73460 0.76602 0.99996
 C1264 C 0.73171 0.76858 1.02600
 H1265 H 0.74015 0.76003 1.05410
 H1266 H 0.75984 0.74008 1.05411
 H1267 H 0.74262 0.75857 0.99997
 H1268 H 0.78845 0.71180 1.01403
 H1269 H 0.78849 0.71182 0.98596
 H1270 H 0.75996 0.74014 0.94583
 H1271 H 0.74030 0.76013 0.94582
 H1272 H 0.71162 0.78835 1.01398
 H1273 H 0.75749 0.74160 0.99997
 H1274 H 0.71169 0.78841 0.98591
 C1275 C 0.74472 0.25498 0.54471
 C1276 C 0.75505 0.24462 0.54470
 C1277 C 0.75808 0.24160 0.53056
 N1278 N 0.74989 0.24983 0.52203
 C1279 C 0.74170 0.25804 0.53058
 C1280 C 0.76828 0.23138 0.52597
 C1281 C 0.77153 0.22811 0.51158
 C1282 C 0.78154 0.21807 0.50726
 C1283 C 0.78154 0.21807 0.49260
 C1284 C 0.77153 0.22811 0.48829
 N1285 N 0.76554 0.23410 0.49994
 C1286 C 0.76827 0.23140 0.47390
 C1287 C 0.75810 0.24165 0.46933
 C1288 C 0.75509 0.24471 0.45520
 C1289 C 0.74478 0.25510 0.45521
 C1290 C 0.74175 0.25812 0.46934
 N1291 N 0.74991 0.24987 0.47788
 C1292 C 0.73157 0.26835 0.47393
 C1293 C 0.72829 0.27161 0.48832
 C1294 C 0.71828 0.28164 0.49264
 C1295 C 0.71826 0.28162 0.50730
 C1296 C 0.72827 0.27158 0.51162
 N1297 N 0.73426 0.26560 0.49997
 C1298 C 0.73153 0.26828 0.52601
 H1299 H 0.73999 0.25971 0.55410
 H1300 H 0.75977 0.23986 0.55408
 H1301 H 0.74201 0.25788 0.49996
 H1302 H 0.78818 0.21142 0.51397
 H1303 H 0.78817 0.21143 0.48590
 H1304 H 0.75982 0.23998 0.44581
 H1305 H 0.74008 0.25987 0.44583
 H1306 H 0.71162 0.28826 0.51401
 H1307 H 0.75780 0.24182 0.49994
 H1308 H 0.71165 0.28830 0.48594
 C1309 C 0.74471 0.24494 -0.04473
 C1310 C 0.75501 0.25532 -0.04474
 C1311 C 0.75805 0.25834 -0.03061
 N1312 N 0.74989 0.25010 -0.02205
 C1313 C 0.74170 0.24188 -0.03059
 C1314 C 0.76822 0.26856 -0.02604
 C1315 C 0.77151 0.27182 -0.01165
 C1316 C 0.78152 0.28184 -0.00735
 C1317 C 0.78154 0.28182 0.00732
 C1318 C 0.77155 0.27179 0.01165
 N1319 N 0.76555 0.26581 0.00001
 C1320 C 0.76832 0.26850 0.02605
 C1321 C 0.75815 0.25827 0.03064
 C1322 C 0.75515 0.25521 0.04478
 C1323 C 0.74484 0.24484 0.04479
 C1324 C 0.74179 0.24182 0.03066
 N1325 N 0.74995 0.25006 0.02210
 C1326 C 0.73161 0.23159 0.02609
 C1327 C 0.72832 0.22834 0.01170
 C1328 C 0.71833 0.21831 0.00739
 C1329 C 0.71831 0.21832 -0.00727
 C1330 C 0.72830 0.22836 -0.01160
 N1331 N 0.73428 0.23434 0.00004
 C1332 C 0.73155 0.23163 -0.02600
 H1333 H 0.73998 0.24021 -0.05411
 H1334 H 0.75971 0.26008 -0.05413
 H1335 H 0.74200 0.24208 0.00003
 H1336 H 0.78814 0.28849 -0.01406
 H1337 H 0.78818 0.28845 0.01401
 H1338 H 0.75988 0.25994 0.05415
 H1339 H 0.74013 0.24008 0.05417
 H1340 H 0.71168 0.21167 -0.01397
 H1341 H 0.75782 0.25809 0.00001
 H1342 H 0.71171 0.21165 0.01410
 C1343 C 0.74475 0.74495 0.45533
 C1344 C 0.75505 0.75532 0.45531
 C1345 C 0.75808 0.75836 0.46943
 N1346 N 0.74992 0.75013 0.47800
 C1347 C 0.74174 0.74191 0.46947
 C1348 C 0.76826 0.76858 0.47399
 C1349 C 0.77155 0.77184 0.48837
 C1350 C 0.78161 0.78182 0.49265
 C1351 C 0.78164 0.78182 0.50732
 C1352 C 0.77160 0.77184 0.51166
 N1353 N 0.76556 0.76589 0.50003
 C1354 C 0.76836 0.76857 0.52606
 C1355 C 0.75818 0.75835 0.53066
 C1356 C 0.75518 0.75531 0.54480
 C1357 C 0.74487 0.74494 0.54483
 C1358 C 0.74183 0.74190 0.53071
 N1359 N 0.74999 0.75012 0.52214
 C1360 C 0.73164 0.73168 0.52615
 C1361 C 0.72835 0.72841 0.51177
 C1362 C 0.71829 0.71843 0.50747
 C1363 C 0.71827 0.71843 0.49280
 C1364 C 0.72832 0.72841 0.48847
 N1365 N 0.73435 0.73435 0.50011
 C1366 C 0.73157 0.73168 0.47407
 H1367 H 0.74002 0.74021 0.44595
 H1368 H 0.75977 0.76007 0.44592
 H1369 H 0.74218 0.74199 0.50009
 H1370 H 0.78825 0.78843 0.48593
 H1371 H 0.78831 0.78844 0.51400
 H1372 H 0.75991 0.76006 0.55418
 H1373 H 0.74017 0.74021 0.55423
 H1374 H 0.71161 0.71182 0.48611
 H1375 H 0.75773 0.75826 0.50005
 H1376 H 0.71163 0.71181 0.51417
 C1377 C 1.04485 0.25538 0.24504
 C1378 C 1.04483 0.24480 0.25512
 C1379 C 1.03065 0.24170 0.25804
 N1380 N 1.02208 0.25008 0.25004
 C1381 C 1.03067 0.25847 0.24206
 C1382 C 1.02605 0.23133 0.26804
 C1383 C 1.01161 0.22806 0.27126
 C1384 C 1.00727 0.21821 0.28141
 C1385 C 0.99256 0.21823 0.28140
 C1386 C 0.98824 0.22808 0.27124
 N1387 N 0.99993 0.23388 0.26510
 C1388 C 0.97380 0.23136 0.26798
 C1389 C 0.96921 0.24171 0.25795
 C1390 C 0.95504 0.24478 0.25496
 C1391 C 0.95505 0.25532 0.24484
 C1392 C 0.96923 0.25843 0.24191
 N1393 N 0.97780 0.25008 0.24996
 C1394 C 0.97384 0.26876 0.23187
 C1395 C 0.98828 0.27206 0.22869
 C1396 C 0.99263 0.28190 0.21853
 C1397 C 1.00733 0.28192 0.21859
 C1398 C 1.01165 0.27209 0.22877
 N1399 N 0.99995 0.26627 0.23489
 C1400 C 1.02608 0.26882 0.23203
 H1401 H 1.05427 0.26020 0.24043
 H1402 H 1.05423 0.23997 0.25976
 H1403 H 0.99994 0.25906 0.24310
 H1404 H 1.01398 0.21167 0.28814
 H1405 H 0.98583 0.21171 0.28813
 H1406 H 0.94562 0.23996 0.25958
 H1407 H 0.94565 0.26010 0.24015
 H1408 H 1.01408 0.28845 0.21188
 H1409 H 0.99995 0.24109 0.25688
 H1410 H 0.98592 0.28842 0.21176
 C1411 C 0.54488 0.24458 0.75518
 C1412 C 0.54488 0.25512 0.74506
 C1413 C 0.53070 0.25822 0.74209
 N1414 N 0.52213 0.24987 0.75012
 C1415 C 0.53070 0.24150 0.75814
 C1416 C 0.52611 0.26854 0.73203
 C1417 C 0.51167 0.27180 0.72877
 C1418 C 0.50735 0.28163 0.71858
 C1419 C 0.49264 0.28163 0.71857
 C1420 C 0.48830 0.27182 0.72875
 N1421 N 0.49999 0.26601 0.73492
 C1422 C 0.47387 0.26857 0.73201
 C1423 C 0.46927 0.25823 0.74203
 C1424 C 0.45509 0.25514 0.74499
 C1425 C 0.45508 0.24461 0.75510
 C1426 C 0.46926 0.24151 0.75807
 N1427 N 0.47784 0.24986 0.75005
 C1428 C 0.47385 0.23118 0.76812
 C1429 C 0.48828 0.22792 0.77139
 C1430 C 0.49261 0.21809 0.78157
 C1431 C 0.50731 0.21808 0.78159
 C1432 C 0.51165 0.22790 0.77141
 N1433 N 0.49998 0.23371 0.76524
 C1434 C 0.52610 0.23115 0.76817
 H1435 H 0.55429 0.23976 0.75981
 H1436 H 0.55429 0.25992 0.74041
 H1437 H 0.49999 0.24092 0.75702
 H1438 H 0.51408 0.28814 0.71185
 H1439 H 0.48593 0.28814 0.71181
 H1440 H 0.44568 0.25996 0.74034
 H1441 H 0.44566 0.23981 0.75974
 H1442 H 0.51403 0.21156 0.78834
 H1443 H 0.49998 0.25880 0.74314
 H1444 H 0.48587 0.21157 0.78831
 C1445 C 0.04470 0.25518 0.75518
 C1446 C 0.04469 0.24464 0.74509
 C1447 C 0.03051 0.24154 0.74216
 N1448 N 0.02194 0.24992 0.75017
 C1449 C 0.03052 0.25829 0.75815
 C1450 C 0.02591 0.23121 0.73214
 C1451 C 0.01147 0.22795 0.72892
 C1452 C 0.00714 0.21817 0.71871
 C1453 C -0.00757 0.21819 0.71872
 C1454 C -0.01189 0.22798 0.72892
 N1455 N -0.00021 0.23372 0.73513
 C1456 C -0.02634 0.23128 0.73215
 C1457 C -0.03093 0.24165 0.74215
 C1458 C -0.04511 0.24476 0.74511
 C1459 C -0.04510 0.25535 0.75517
 C1460 C -0.03091 0.25844 0.75809
 N1461 N -0.02234 0.25003 0.75011
 C1462 C -0.02630 0.26880 0.76809
 C1463 C -0.01186 0.27204 0.77132
 C1464 C -0.00753 0.28183 0.78153
 C1465 C 0.00717 0.28177 0.78156
 C1466 C 0.01150 0.27197 0.77137
 N1467 N -0.00018 0.26625 0.76515
 C1468 C 0.02593 0.26866 0.76815
 H1469 H 0.05412 0.25999 0.75979
 H1470 H 0.05410 0.23984 0.74042
 H1471 H -0.00019 0.25915 0.75683
 H1472 H 0.01386 0.21166 0.71194
 H1473 H -0.01430 0.21171 0.71196
 H1474 H -0.05452 0.23993 0.74050
 H1475 H -0.05450 0.26019 0.75980
 H1476 H 0.01389 0.28824 0.78834
 H1477 H -0.00020 0.24081 0.74345
 H1478 H -0.01426 0.28836 0.78826
 C1479 C 0.54500 0.24458 0.24482
 C1480 C 0.54500 0.25513 0.25491
 C1481 C 0.53082 0.25822 0.25789
 N1482 N 0.52224 0.24984 0.24990
 C1483 C 0.53082 0.24148 0.24188
 C1484 C 0.52623 0.26857 0.26790
 C1485 C 0.51179 0.27181 0.27118
 C1486 C 0.50745 0.28165 0.28134
 C1487 C 0.49275 0.28163 0.28137
 C1488 C 0.48842 0.27178 0.27122
 N1489 N 0.50011 0.26598 0.26506
 C1490 C 0.47398 0.26849 0.26801
 C1491 C 0.46939 0.25817 0.25797
 C1492 C 0.45521 0.25508 0.25503
 C1493 C 0.45521 0.24456 0.24492
 C1494 C 0.46939 0.24148 0.24193
 N1495 N 0.47797 0.24983 0.24994
 C1496 C 0.47399 0.23116 0.23188
 C1497 C 0.48843 0.22787 0.22863
 C1498 C 0.49276 0.21803 0.21847
 C1499 C 0.50747 0.21803 0.21847
 C1500 C 0.51179 0.22786 0.22863
 N1501 N 0.50011 0.23367 0.23478
 C1502 C 0.52623 0.23114 0.23186
 H1503 H 0.55441 0.23977 0.24017
 H1504 H 0.55442 0.25995 0.25952
 H1505 H 0.50011 0.24089 0.24298
 H1506 H 0.51417 0.28818 0.28806
 H1507 H 0.48602 0.28815 0.28810
 H1508 H 0.44579 0.25989 0.25969
 H1509 H 0.44581 0.23974 0.24029
 H1510 H 0.51420 0.21150 0.21174
 H1511 H 0.50011 0.25875 0.25687
 H1512 H 0.48604 0.21152 0.21174
 C1513 C 1.04485 0.75533 0.74509
 C1514 C 1.04483 0.74480 0.75521
 C1515 C 1.03065 0.74171 0.75815
 N1516 N 1.02209 0.75008 0.75012
 C1517 C 1.03068 0.75843 0.74211
 C1518 C 1.02603 0.73137 0.76817
 C1519 C 1.01158 0.72813 0.77140
 C1520 C 1.00723 0.71829 0.78156
 C1521 C 0.99253 0.71832 0.78156
 C1522 C 0.98821 0.72818 0.77141
 N1523 N 0.99991 0.73396 0.76526
 C1524 C 0.97377 0.73148 0.76817
 C1525 C 0.96919 0.74180 0.75810
 C1526 C 0.95502 0.74490 0.75511
 C1527 C 0.95505 0.75543 0.74498
 C1528 C 0.96924 0.75851 0.74204
 N1529 N 0.97779 0.75014 0.75008
 C1530 C 0.97386 0.76885 0.73201
 C1531 C 0.98831 0.77210 0.72878
 C1532 C 0.99266 0.78195 0.71863
 C1533 C 1.00736 0.78192 0.71864
 C1534 C 1.01168 0.77207 0.72880
 N1535 N 0.99998 0.76627 0.73494
 C1536 C 1.02611 0.76877 0.73205
 H1537 H 1.05428 0.76012 0.74046
 H1538 H 1.05423 0.73998 0.75987
 H1539 H 0.99995 0.75903 0.74313
 H1540 H 1.01394 0.71175 0.78829
 H1541 H 0.98580 0.71181 0.78830
 H1542 H 0.94560 0.74010 0.75975
 H1543 H 0.94565 0.76024 0.74032
 H1544 H 1.01410 0.78844 0.71192
 H1545 H 0.99992 0.74121 0.75707
 H1546 H 0.98594 0.78849 0.71190
 C1547 C 0.45505 0.74482 0.25510
 C1548 C 0.45508 0.75537 0.24500
 C1549 C 0.46926 0.75846 0.24208
 N1550 N 0.47782 0.75009 0.25011
 C1551 C 0.46923 0.74172 0.25810
 C1552 C 0.47389 0.76881 0.23207
 C1553 C 0.48834 0.77209 0.22888
 C1554 C 0.49269 0.78190 0.21870
 C1555 C 0.50740 0.78190 0.21874
 C1556 C 0.51171 0.77208 0.22894
 N1557 N 0.50001 0.76631 0.23509
 C1558 C 0.52614 0.76879 0.23219
 C1559 C 0.53070 0.75846 0.24224
 C1560 C 0.54488 0.75535 0.24522
 C1561 C 0.54485 0.74481 0.25533
 C1562 C 0.53066 0.74173 0.25826
 N1563 N 0.52210 0.75010 0.25023
 C1564 C 0.52604 0.73138 0.26827
 C1565 C 0.51159 0.72809 0.27147
 C1566 C 0.50724 0.71828 0.28164
 C1567 C 0.49254 0.71827 0.28160
 C1568 C 0.48823 0.72808 0.27140
 N1569 N 0.49992 0.73386 0.26524
 C1570 C 0.47380 0.73137 0.26814
 H1571 H 0.44564 0.74000 0.25972
 H1572 H 0.44568 0.76019 0.24033
 H1573 H 0.49993 0.74101 0.25697
 H1574 H 0.48599 0.78841 0.21193
 H1575 H 0.51413 0.78841 0.21200
 H1576 H 0.55430 0.76015 0.24059
 H1577 H 0.55425 0.73998 0.25999
 H1578 H 0.48580 0.71175 0.28834
 H1579 H 0.49998 0.75915 0.24336
 H1580 H 0.51395 0.71178 0.28842
 C1581 C -0.04497 0.75534 0.25511
 C1582 C -0.04497 0.74479 0.24502
 C1583 C -0.03079 0.74169 0.24206
 N1584 N -0.02222 0.75007 0.25004
 C1585 C -0.03080 0.75844 0.25804
 C1586 C -0.02620 0.73134 0.23204
 C1587 C -0.01176 0.72805 0.22880
 C1588 C -0.00743 0.71821 0.21864
 C1589 C 0.00727 0.71822 0.21862
 C1590 C 0.01160 0.72806 0.22877
 N1591 N -0.00008 0.73385 0.23495
 C1592 C 0.02604 0.73137 0.23197
 C1593 C 0.03063 0.74171 0.24198
 C1594 C 0.04482 0.74481 0.24490
 C1595 C 0.04482 0.75535 0.25501
 C1596 C 0.03063 0.75844 0.25798
 N1597 N 0.02206 0.75007 0.25000
 C1598 C 0.02604 0.76879 0.26799
 C1599 C 0.01160 0.77207 0.27124
 C1600 C 0.00726 0.78191 0.28140
 C1601 C -0.00744 0.78191 0.28141
 C1602 C -0.01177 0.77208 0.27126
 N1603 N -0.00009 0.76628 0.26508
 C1604 C -0.02620 0.76880 0.26804
 H1605 H -0.05439 0.76015 0.25975
 H1606 H -0.05439 0.73997 0.24041
 H1607 H -0.00009 0.75911 0.25684
 H1608 H -0.01416 0.71169 0.21192
 H1609 H 0.01399 0.71171 0.21188
 H1610 H 0.05422 0.74001 0.24024
 H1611 H 0.05423 0.76016 0.25963
 H1612 H -0.01417 0.78844 0.28814
 H1613 H -0.00009 0.74104 0.24318
 H1614 H 0.01398 0.78842 0.28813
 C1615 C 0.45486 0.74493 0.74510
 C1616 C 0.45485 0.75541 0.75528
 C1617 C 0.46903 0.75850 0.75823
 N1618 N 0.47761 0.75017 0.75017
 C1619 C 0.46903 0.74184 0.74212
 C1620 C 0.47364 0.76882 0.76828
 C1621 C 0.48809 0.77207 0.77150
 C1622 C 0.49242 0.78191 0.78165
 C1623 C 0.50712 0.78192 0.78162
 C1624 C 0.51146 0.77207 0.77148
 N1625 N 0.49977 0.76625 0.76535
 C1626 C 0.52590 0.76880 0.76822
 C1627 C 0.53050 0.75845 0.75818
 C1628 C 0.54467 0.75537 0.75520
 C1629 C 0.54468 0.74483 0.74509
 C1630 C 0.53050 0.74174 0.74215
 N1631 N 0.52192 0.75009 0.75018
 C1632 C 0.52590 0.73141 0.73211
 C1633 C 0.51145 0.72817 0.72887
 C1634 C 0.50712 0.71832 0.71873
 C1635 C 0.49242 0.71838 0.71869
 C1636 C 0.48808 0.72823 0.72883
 N1637 N 0.49976 0.73401 0.73500
 C1638 C 0.47363 0.73152 0.73205
 H1639 H 0.44546 0.74015 0.74043
 H1640 H 0.44543 0.76017 0.75996
 H1641 H 0.49976 0.74128 0.74316
 H1642 H 0.48568 0.78843 0.78838
 H1643 H 0.51384 0.78847 0.78833
 H1644 H 0.55408 0.76019 0.75982
 H1645 H 0.55411 0.74004 0.74043
 H1646 H 0.48569 0.71187 0.71195
 H1647 H 0.49978 0.75900 0.75718
 H1648 H 0.51385 0.71177 0.71203
 C1649 C 0.41220 0.29394 0.31183
 C1650 C 0.41839 0.30022 0.29983
 C1651 C 0.41204 0.31224 0.29368
 C1652 C 0.39956 0.31797 0.29950
 C1653 C 0.39321 0.31174 0.31159
 C1654 C 0.39972 0.29964 0.31768
 C1655 C 0.43100 0.29407 0.29359
 C1656 C 0.44136 0.28869 0.28819
 C1657 C 0.45317 0.28208 0.28159
 C1658 C 0.46289 0.27612 0.27564
 H1659 H 0.41699 0.28458 0.31665
 H1660 H 0.41670 0.31715 0.28433
 H1661 H 0.39494 0.32726 0.29447
 H1662 H 0.39525 0.29451 0.32696
 C1663 C 0.41221 0.81309 0.79454
 C1664 C 0.41834 0.80085 0.80045
 C1665 C 0.41208 0.79452 0.81238
 C1666 C 0.39967 0.80031 0.81832
 C1667 C 0.39325 0.81259 0.81241
 C1668 C 0.39982 0.81894 0.80045
 C1669 C 0.43083 0.79459 0.79405
 C1670 C 0.44113 0.78917 0.78856
 C1671 C 0.45290 0.78253 0.78190
 C1672 C 0.46257 0.77651 0.77591
 H1673 H 0.41693 0.81807 0.78526
 H1674 H 0.41673 0.78502 0.81705
 H1675 H 0.39517 0.79499 0.82749
 H1676 H 0.39540 0.82832 0.79542
 C1677 C -0.08841 0.31245 0.79344
 C1678 C -0.08195 0.30057 0.79973
 C1679 C -0.08802 0.29444 0.81187
 C1680 C -0.10051 0.30014 0.81770
 C1681 C -0.10716 0.31209 0.81145
 C1682 C -0.10091 0.31818 0.79924
 C1683 C -0.06932 0.29441 0.79352
 C1684 C -0.05892 0.28906 0.78818
 C1685 C -0.04707 0.28247 0.78164
 C1686 C -0.03736 0.27648 0.77570
 H1687 H -0.08385 0.31723 0.78397
 H1688 H -0.08314 0.28519 0.81679
 H1689 H -0.10491 0.29509 0.82706
 H1690 H -0.10566 0.32731 0.79404
 C1691 C -0.08798 0.79428 0.31183
 C1692 C -0.08180 0.80054 0.29981
 C1693 C -0.08815 0.81257 0.29366
 C1694 C -0.10063 0.81830 0.29948
 C1695 C -0.10699 0.81206 0.31156
 C1696 C -0.10046 0.79998 0.31768
 C1697 C -0.06919 0.79439 0.29357
 C1698 C -0.05882 0.78902 0.28819
 C1699 C -0.04699 0.78244 0.28162
 C1700 C -0.03728 0.77646 0.27566
 H1701 H -0.08320 0.78492 0.31664
 H1702 H -0.08350 0.81746 0.28430
 H1703 H -0.10527 0.82756 0.29442
 H1704 H -0.10495 0.79483 0.32694
 C1705 C 0.58782 0.70599 0.31208
 C1706 C 0.58174 0.69980 0.29999
 C1707 C 0.58816 0.68786 0.29377
 C1708 C 0.60065 0.68214 0.29959
 C1709 C 0.60694 0.68832 0.31172
 C1710 C 0.60031 0.70030 0.31792
 C1711 C 0.56911 0.70593 0.29376
 C1712 C 0.55872 0.71126 0.28839
 C1713 C 0.54685 0.71780 0.28183
 C1714 C 0.53712 0.72374 0.27590
 H1715 H 0.58297 0.71527 0.31695
 H1716 H 0.58356 0.68300 0.28437
 H1717 H 0.60532 0.67291 0.29451
 H1718 H 0.60471 0.70536 0.32726
 C1719 C 0.58777 0.20558 0.81205
 C1720 C 0.58161 0.19929 0.80004
 C1721 C 0.58797 0.18726 0.79393
 C1722 C 0.60046 0.18155 0.79977
 C1723 C 0.60681 0.18781 0.81183
 C1724 C 0.60026 0.19989 0.81791
 C1725 C 0.56902 0.20545 0.79375
 C1726 C 0.55867 0.21082 0.78833
 C1727 C 0.54686 0.21744 0.78173
 C1728 C 0.53717 0.22345 0.77577
 H1729 H 0.58298 0.21494 0.81683
 H1730 H 0.58334 0.18234 0.78458
 H1731 H 0.60511 0.17229 0.79472
 H1732 H 0.60476 0.20507 0.82715
 C1733 C 1.08796 0.68761 0.79391
 C1734 C 1.08161 0.69965 0.80002
 C1735 C 1.08779 0.70595 0.81202
 C1736 C 1.10026 0.70026 0.81788
 C1737 C 1.10680 0.68817 0.81181
 C1738 C 1.10044 0.68190 0.79977
 C1739 C 1.06901 0.70578 0.79375
 C1740 C 1.05864 0.71112 0.78833
 C1741 C 1.04681 0.71770 0.78172
 C1742 C 1.03711 0.72368 0.77577
 H1743 H 1.08330 0.68267 0.78457
 H1744 H 1.08300 0.71532 0.81681
 H1745 H 1.10475 0.70542 0.82712
 H1746 H 1.10508 0.67262 0.79476
 C1747 C 1.08827 0.18787 0.29341
 C1748 C 1.08174 0.19970 0.29971
 C1749 C 1.08774 0.20583 0.31188
 C1750 C 1.10024 0.20016 0.31772
 C1751 C 1.10696 0.18827 0.31145
 C1752 C 1.10077 0.18217 0.29922
 C1753 C 1.06911 0.20581 0.29348
 C1754 C 1.05871 0.21114 0.28811
 C1755 C 1.04685 0.21768 0.28156
 C1756 C 1.03713 0.22365 0.27563
 H1757 H 1.08374 0.18309 0.28394
 H1758 H 1.08281 0.21504 0.31681
 H1759 H 1.10458 0.20517 0.32712
 H1760 H 1.10553 0.17303 0.29407
 C1761 C 0.58792 0.31238 0.70629
 C1762 C 0.58160 0.30036 0.70015
 C1763 C 0.58779 0.29410 0.68814
 C1764 C 0.60025 0.29982 0.68228
 C1765 C 0.60676 0.31190 0.68838
 C1766 C 0.60039 0.31813 0.70046
 C1767 C 0.56903 0.29417 0.70642
 C1768 C 0.55868 0.28878 0.71184
 C1769 C 0.54689 0.28217 0.71844
 C1770 C 0.53720 0.27618 0.72441
 H1771 H 0.58326 0.31727 0.71565
 H1772 H 0.58303 0.28474 0.68333
 H1773 H 0.60474 0.29468 0.67301
 H1774 H 0.60501 0.32740 0.70550
 C1775 C 0.58773 0.81280 0.20609
 C1776 C 0.58155 0.80061 0.20013
 C1777 C 0.58784 0.79421 0.18825
 C1778 C 0.60028 0.79995 0.18234
 C1779 C 0.60665 0.81219 0.18826
 C1780 C 0.60017 0.81856 0.20021
 C1781 C 0.56901 0.79440 0.20647
 C1782 C 0.55871 0.78899 0.21193
 C1783 C 0.54694 0.78237 0.21859
 C1784 C 0.53725 0.77641 0.22457
 H1785 H 0.58298 0.81781 0.21534
 H1786 H 0.58319 0.78473 0.18358
 H1787 H 0.60485 0.79471 0.17317
 H1788 H 0.60466 0.82798 0.20509
 C1789 C 1.08787 0.29421 0.18824
 C1790 C 1.08163 0.30054 0.20018
 C1791 C 1.08791 0.31263 0.20625
 C1792 C 1.10037 0.31837 0.20038
 C1793 C 1.10676 0.31209 0.18833
 C1794 C 1.10031 0.29992 0.18235
 C1795 C 1.06906 0.29438 0.20648
 C1796 C 1.05871 0.28900 0.21189
 C1797 C 1.04690 0.28242 0.21849
 C1798 C 1.03718 0.27646 0.22443
 H1799 H 1.08317 0.28476 0.18353
 H1800 H 1.08324 0.31756 0.21558
 H1801 H 1.10493 0.32772 0.20532
 H1802 H 1.10483 0.29474 0.17311
 C1803 C 1.08781 0.79424 0.68805
 C1804 C 1.08166 0.80048 0.70010
 C1805 C 1.08802 0.81248 0.70624
 C1806 C 1.10047 0.81823 0.70038
 C1807 C 1.10680 0.81202 0.68826
 C1808 C 1.10026 0.79996 0.68216
 C1809 C 1.06909 0.79431 0.70640
 C1810 C 1.05874 0.78894 0.71184
 C1811 C 1.04693 0.78235 0.71846
 C1812 C 1.03722 0.77640 0.72443
 H1813 H 1.08302 0.78489 0.68325
 H1814 H 1.08340 0.81737 0.71562
 H1815 H 1.10509 0.82750 0.70541
 H1816 H 1.10474 0.79482 0.67289
 C1817 C 0.41239 0.68721 0.70560
 C1818 C 0.41861 0.69938 0.69962
 C1819 C 0.41241 0.70568 0.68762
 C1820 C 0.39998 0.69994 0.68171
 C1821 C 0.39354 0.68777 0.68772
 C1822 C 0.39996 0.68145 0.69972
 C1823 C 0.43106 0.70566 0.70606
 C1824 C 0.44130 0.71111 0.71161
 C1825 C 0.45298 0.71781 0.71835
 C1826 C 0.46258 0.72385 0.72440
 H1827 H 0.41705 0.68226 0.71493
 H1828 H 0.41711 0.71513 0.68291
 H1829 H 0.39542 0.70516 0.67251
 H1830 H 0.39538 0.67214 0.70473
 C1831 C 0.41205 0.20603 0.18813
 C1832 C 0.41804 0.19995 0.20034
 C1833 C 0.41145 0.18821 0.20675
 C1834 C 0.39894 0.18253 0.20096
 C1835 C 0.39280 0.18854 0.18865
 C1836 C 0.39953 0.20038 0.18232
 C1837 C 0.43075 0.20597 0.20648
 C1838 C 0.44121 0.21121 0.21180
 C1839 C 0.45313 0.21766 0.21832
 C1840 C 0.46289 0.22355 0.22425
 H1841 H 0.41702 0.21519 0.18314
 H1842 H 0.41595 0.18346 0.21625
 H1843 H 0.39416 0.17344 0.20618
 H1844 H 0.39517 0.20539 0.17292
 C1845 C -0.08806 0.68764 0.20641
 C1846 C -0.08175 0.69967 0.20027
 C1847 C -0.08794 0.70595 0.18826
 C1848 C -0.10037 0.70021 0.18238
 C1849 C -0.10685 0.68809 0.18846
 C1850 C -0.10050 0.68187 0.20055
 C1851 C -0.06917 0.70583 0.20652
 C1852 C -0.05881 0.71118 0.21191
 C1853 C -0.04699 0.71774 0.21849
 C1854 C -0.03728 0.72370 0.22444
 H1855 H -0.08340 0.68275 0.21577
 H1856 H -0.08319 0.71533 0.18347
 H1857 H -0.10485 0.70535 0.17311
 H1858 H -0.10511 0.67259 0.20559
 C1859 C -0.08787 0.20576 0.68807
 C1860 C -0.08172 0.19948 0.70010
 C1861 C -0.08804 0.18744 0.70620
 C1862 C -0.10049 0.18170 0.70033
 C1863 C -0.10681 0.18794 0.68823
 C1864 C -0.10031 0.20005 0.68217
 C1865 C -0.06918 0.20567 0.70642
 C1866 C -0.05887 0.21107 0.71188
 C1867 C -0.04710 0.21768 0.71853
 C1868 C -0.03742 0.22365 0.72452
 H1869 H -0.08310 0.21514 0.68329
 H1870 H -0.08342 0.18253 0.71557
 H1871 H -0.10510 0.17241 0.70535
 H1872 H -0.10478 0.20521 0.67290
 C1873 C 0.31232 0.41188 0.29369
 C1874 C 0.30030 0.41823 0.29985
 C1875 C 0.29401 0.41204 0.31184
 C1876 C 0.29970 0.39956 0.31768
 C1877 C 0.31181 0.39305 0.31158
 C1878 C 0.31805 0.39940 0.29950
 C1879 C 0.29416 0.43085 0.29362
 C1880 C 0.28880 0.44121 0.28823
 C1881 C 0.28222 0.45302 0.28163
 C1882 C 0.27627 0.46273 0.27566
 H1883 H 0.31724 0.41655 0.28434
 H1884 H 0.28465 0.41682 0.31666
 H1885 H 0.29457 0.39508 0.32695
 H1886 H 0.32734 0.39479 0.29446
 C1887 C 0.31263 -0.08857 0.79363
 C1888 C 0.30062 -0.08221 0.79975
 C1889 C 0.29444 -0.08829 0.81185
 C1890 C 0.30019 -0.10072 0.81779
 C1891 C 0.31228 -0.10735 0.81170
 C1892 C 0.31843 -0.10100 0.79951
 C1893 C 0.29445 -0.06962 0.79344
 C1894 C 0.28912 -0.05922 0.78803
 C1895 C 0.28258 -0.04735 0.78147
 C1896 C 0.27661 -0.03761 0.77554
 H1897 H 0.31750 -0.08399 0.78422
 H1898 H 0.28509 -0.08348 0.81667
 H1899 H 0.29499 -0.10507 0.82709
 H1900 H 0.32767 -0.10556 0.79436
 C1901 C 0.81225 0.41166 0.79375
 C1902 C 0.80037 0.41813 0.80001
 C1903 C 0.79421 0.41208 0.81213
 C1904 C 0.79988 0.39959 0.81798
 C1905 C 0.81188 0.39287 0.81180
 C1906 C 0.81797 0.39917 0.79956
 C1907 C 0.79423 0.43075 0.79379
 C1908 C 0.78890 0.44115 0.78842
 C1909 C 0.78235 0.45300 0.78187
 C1910 C 0.77639 0.46271 0.77591
 H1911 H 0.81704 0.41620 0.78428
 H1912 H 0.78495 0.41697 0.81703
 H1913 H 0.79474 0.39530 0.82734
 H1914 H 0.82711 0.39452 0.79430
 C1915 C 0.81244 -0.08833 0.29390
 C1916 C 0.80040 -0.08201 0.30000
 C1917 C 0.79410 -0.08818 0.31199
 C1918 C 0.79978 -0.10065 0.31786
 C1919 C 0.81193 -0.10723 0.31183
 C1920 C 0.81818 -0.10080 0.29974
 C1921 C 0.79426 -0.06940 0.29374
 C1922 C 0.78894 -0.05902 0.28834
 C1923 C 0.78240 -0.04717 0.28174
 C1924 C 0.77645 -0.03746 0.27577
 H1925 H 0.81737 -0.08369 0.28456
 H1926 H 0.78471 -0.08340 0.31677
 H1927 H 0.79452 -0.10505 0.32711
 H1928 H 0.82746 -0.10534 0.29462
 C1929 C 0.29411 0.58774 0.68803
 C1930 C 0.30036 0.58161 0.70008
 C1931 C 0.31236 0.58797 0.70622
 C1932 C 0.31807 0.60045 0.70038
 C1933 C 0.31184 0.60678 0.68828
 C1934 C 0.29979 0.60022 0.68217
 C1935 C 0.29421 0.56903 0.70638
 C1936 C 0.28886 0.55867 0.71181
 C1937 C 0.28226 0.54687 0.71842
 C1938 C 0.27626 0.53718 0.72438
 H1939 H 0.28476 0.58294 0.68322
 H1940 H 0.31727 0.58336 0.71559
 H1941 H 0.32731 0.60510 0.70544
 H1942 H 0.29461 0.60473 0.67292
 C1943 C 0.31298 1.08749 0.20545
 C1944 C 0.30089 1.08123 0.19937
 C1945 C 0.29469 1.08736 0.18728
 C1946 C 0.30049 1.09974 0.18135
 C1947 C 0.31259 1.10623 0.18744
 C1948 C 0.31880 1.09988 0.19954
 C1949 C 0.29457 1.06881 0.20579
 C1950 C 0.28908 1.05860 0.21134
 C1951 C 0.28237 1.04694 0.21810
 C1952 C 0.27635 1.03733 0.22416
 H1953 H 0.31783 1.08288 0.21485
 H1954 H 0.28530 1.08263 0.18251
 H1955 H 0.29540 1.10422 0.17204
 H1956 H 0.32806 1.10450 0.20460
 C1957 C 0.81235 0.58802 0.20637
 C1958 C 0.80032 0.58172 0.20023
 C1959 C 0.79405 0.58790 0.18822
 C1960 C 0.79978 0.60033 0.18235
 C1961 C 0.81190 0.60681 0.18843
 C1962 C 0.81812 0.60046 0.20052
 C1963 C 0.79417 0.56914 0.20647
 C1964 C 0.78882 0.55877 0.21185
 C1965 C 0.78225 0.54694 0.21841
 C1966 C 0.77629 0.53723 0.22434
 H1967 H 0.81723 0.58335 0.21573
 H1968 H 0.78467 0.58315 0.18344
 H1969 H 0.79464 0.60480 0.17307
 H1970 H 0.82741 0.60507 0.20555
 C1971 C 0.79414 1.08771 0.68800
 C1972 C 0.80041 1.08155 0.70002
 C1973 C 0.81244 1.08787 0.70614
 C1974 C 0.81819 1.10031 0.70028
 C1975 C 0.81196 1.10664 0.68818
 C1976 C 0.79986 1.10015 0.68211
 C1977 C 0.79421 1.06901 0.70633
 C1978 C 0.78881 1.05870 0.71178
 C1979 C 0.78218 1.04695 0.71842
 C1980 C 0.77620 1.03728 0.72441
 H1981 H 0.78476 1.08294 0.68321
 H1982 H 0.81734 1.08324 0.71551
 H1983 H 0.82747 1.10493 0.70531
 H1984 H 0.79471 1.10463 0.67284
 C1985 C 0.68784 0.58828 0.29373
 C1986 C 0.69983 0.58189 0.29990
 C1987 C 0.70600 0.58793 0.31202
 C1988 C 0.70027 0.60037 0.31791
 C1989 C 0.68828 0.60700 0.31173
 C1990 C 0.68208 0.60072 0.29960
 C1991 C 0.70599 0.56931 0.29362
 C1992 C 0.71132 0.55892 0.28825
 C1993 C 0.71783 0.54704 0.28172
 C1994 C 0.72375 0.53728 0.27580
 H1995 H 0.68299 0.58371 0.28432
 H1996 H 0.71532 0.58310 0.31687
 H1997 H 0.70531 0.60476 0.32727
 H1998 H 0.67282 0.60537 0.29455
 C1999 C 0.68747 1.08826 0.79411
 C2000 C 0.69950 1.08190 0.80020
 C2001 C 0.70579 1.08804 0.81220
 C2002 C 0.70012 1.10053 0.81808
 C2003 C 0.68800 1.10715 0.81204
 C2004 C 0.68175 1.10074 0.79995
 C2005 C 0.70564 1.06929 0.79389
 C2006 C 0.71098 1.05892 0.78846
 C2007 C 0.71754 1.04709 0.78183
 C2008 C 0.72351 1.03738 0.77586
 H2009 H 0.68254 1.08364 0.78477
 H2010 H 0.71516 1.08324 0.81697
 H2011 H 0.70539 1.10491 0.82732
 H2012 H 0.67249 1.10530 0.79483
 C2013 C 0.20585 0.58769 0.81207
 C2014 C 0.19954 0.58154 0.80006
 C2015 C 0.18750 0.58790 0.79395
 C2016 C 0.18181 0.60039 0.79980
 C2017 C 0.18810 0.60673 0.81185
 C2018 C 0.20018 0.60017 0.81793
 C2019 C 0.20566 0.56895 0.79378
 C2020 C 0.21099 0.55859 0.78835
 C2021 C 0.21755 0.54678 0.78172
 C2022 C 0.22351 0.53708 0.77574
 H2023 H 0.21522 0.58289 0.81685
 H2024 H 0.18256 0.58326 0.78461
 H2025 H 0.17253 0.60504 0.79480
 H2026 H 0.20535 0.60464 0.82717
 C2027 C 0.20566 1.08758 0.31233
 C2028 C 0.19947 1.08150 0.30024
 C2029 C 0.18749 1.08789 0.29406
 C2030 C 0.18175 1.10035 0.29989
 C2031 C 0.18795 1.10666 0.31201
 C2032 C 0.19995 1.10004 0.31819
 C2033 C 0.20570 1.06898 0.29389
 C2034 C 0.21111 1.05870 0.28839
 C2035 C 0.21774 1.04698 0.28169
 C2036 C 0.22372 1.03733 0.27565
 H2037 H 0.21498 1.08275 0.31718
 H2038 H 0.18264 1.08330 0.28465
 H2039 H 0.17254 1.10504 0.29478
 H2040 H 0.20501 1.10445 0.32753
 C2041 C 0.68763 0.41197 0.70632
 C2042 C 0.69967 0.41829 0.70019
 C2043 C 0.70595 0.41211 0.68818
 C2044 C 0.70023 0.39966 0.68232
 C2045 C 0.68813 0.39315 0.68841
 C2046 C 0.68189 0.39951 0.70049
 C2047 C 0.70585 0.43085 0.70647
 C2048 C 0.71123 0.44119 0.71188
 C2049 C 0.71784 0.45298 0.71848
 C2050 C 0.72381 0.46267 0.72444
 H2051 H 0.68273 0.41661 0.71568
 H2052 H 0.71532 0.41687 0.68338
 H2053 H 0.70539 0.39518 0.67305
 H2054 H 0.67260 0.39489 0.70552
 C2055 C 0.68744 -0.08774 0.20604
 C2056 C 0.69962 -0.08156 0.20005
 C2057 C 0.70605 -0.08787 0.18819
 C2058 C 0.70033 -0.10030 0.18231
 C2059 C 0.68806 -0.10665 0.18825
 C2060 C 0.68168 -0.10017 0.20019
 C2061 C 0.70581 -0.06902 0.20635
 C2062 C 0.71121 -0.05873 0.21179
 C2063 C 0.71783 -0.04698 0.21843
 C2064 C 0.72381 -0.03731 0.22440
 H2065 H 0.68243 -0.08298 0.21529
 H2066 H 0.71555 -0.08322 0.18353
 H2067 H 0.70558 -0.10487 0.17315
 H2068 H 0.67225 -0.10465 0.20507
 C2069 C 0.18749 0.41218 0.20612
 C2070 C 0.19957 0.41846 0.20002
 C2071 C 0.20594 0.41221 0.18810
 C2072 C 0.20024 0.39976 0.18225
 C2073 C 0.18806 0.39333 0.18825
 C2074 C 0.18177 0.39971 0.20029
 C2075 C 0.20572 0.43103 0.20628
 C2076 C 0.21109 0.44136 0.21170
 C2077 C 0.21768 0.45313 0.21832
 C2078 C 0.22364 0.46281 0.22430
 H2079 H 0.18255 0.41686 0.21544
 H2080 H 0.21538 0.41692 0.18337
 H2081 H 0.20545 0.39524 0.17303
 H2082 H 0.17243 0.39514 0.20526
 C2083 C 0.20573 -0.08754 0.68747
 C2084 C 0.19943 -0.08134 0.69945
 C2085 C 0.18727 -0.08754 0.70547
 C2086 C 0.18147 -0.09994 0.69958
 C2087 C 0.18776 -0.10635 0.68756
 C2088 C 0.19995 -0.09993 0.68155
 C2089 C 0.20571 -0.06889 0.70585
 C2090 C 0.21117 -0.05867 0.71139
 C2091 C 0.21785 -0.04700 0.71813
 C2092 C 0.22386 -0.03740 0.72420
 H2093 H 0.21519 -0.08285 0.68276
 H2094 H 0.18233 -0.08287 0.71480
 H2095 H 0.17212 -0.10448 0.70457
 H2096 H 0.20513 -0.10446 0.67231
 C2097 C 0.29390 0.31211 0.41233
 C2098 C 0.30013 0.30009 0.41859
 C2099 C 0.31217 0.29386 0.41234
 C2100 C 0.31793 0.29958 0.39986
 C2101 C 0.31172 0.31165 0.39340
 C2102 C 0.29964 0.31786 0.39985
 C2103 C 0.29392 0.29388 0.43116
 C2104 C 0.28853 0.28849 0.44149
 C2105 C 0.28192 0.28188 0.45327
 C2106 C 0.27594 0.27590 0.46294
 H2107 H 0.28454 0.31698 0.41704
 H2108 H 0.31705 0.28450 0.41706
 H2109 H 0.32721 0.29446 0.39531
 H2110 H 0.29451 0.32713 0.39529
 C2111 C 0.29461 0.81239 -0.08768
 C2112 C 0.30078 0.80028 -0.08154
 C2113 C 0.31271 0.79398 -0.08792
 C2114 C 0.31842 0.79972 -0.10042
 C2115 C 0.31228 0.81188 -0.10676
 C2116 C 0.30030 0.81816 -0.10019
 C2117 C 0.29456 0.79403 -0.06898
 C2118 C 0.28913 0.78859 -0.05869
 C2119 C 0.28245 0.78193 -0.04698
 C2120 C 0.27642 0.77593 -0.03734
 H2121 H 0.28532 0.81732 -0.08287
 H2122 H 0.31753 0.78455 -0.08329
 H2123 H 0.32762 0.79455 -0.10507
 H2124 H 0.29519 0.82746 -0.10469
 C2125 C 0.81202 0.29434 -0.08765
 C2126 C 0.79999 0.30057 -0.08138
 C2127 C 0.79376 0.31260 -0.08762
 C2128 C 0.79949 0.31838 -0.10009
 C2129 C 0.81157 0.31217 -0.10656
 C2130 C 0.81778 0.30009 -0.10012
 C2131 C 0.79378 0.29434 -0.06882
 C2132 C 0.78839 0.28891 -0.05851
 C2133 C 0.78179 0.28225 -0.04676
 C2134 C 0.77583 0.27624 -0.03710
 H2135 H 0.81689 0.28497 -0.08295
 H2136 H 0.78440 0.31747 -0.08290
 H2137 H 0.79437 0.32766 -0.10463
 H2138 H 0.82705 0.29497 -0.10469
 C2139 C 0.79375 0.81245 0.41230
 C2140 C 0.79998 0.80042 0.41854
 C2141 C 0.81202 0.79420 0.41230
 C2142 C 0.81779 0.79995 0.39984
 C2143 C 0.81157 0.81201 0.39338
 C2144 C 0.79949 0.81822 0.39984
 C2145 C 0.79377 0.79420 0.43110
 C2146 C 0.78839 0.78880 0.44143
 C2147 C 0.78182 0.78220 0.45323
 C2148 C 0.77588 0.77622 0.46292
 H2149 H 0.78438 0.81731 0.41703
 H2150 H 0.81690 0.78485 0.41703
 H2151 H 0.82708 0.79484 0.39530
 H2152 H 0.79437 0.82750 0.39530
 C2153 C 0.68783 0.29391 0.58774
 C2154 C 0.69985 0.30013 0.58147
 C2155 C 0.70610 0.31213 0.58772
 C2156 C 0.70037 0.31790 0.60020
 C2157 C 0.68828 0.31172 0.60665
 C2158 C 0.68208 0.29965 0.60022
 C2159 C 0.70602 0.29393 0.56888
 C2160 C 0.71138 0.28854 0.55853
 C2161 C 0.71795 0.28193 0.54674
 C2162 C 0.72391 0.27594 0.53706
 H2163 H 0.68294 0.28456 0.58304
 H2164 H 0.71546 0.31699 0.58299
 H2165 H 0.70550 0.32715 0.60474
 H2166 H 0.67281 0.29454 0.60478
 C2167 C 0.70624 0.81218 1.08784
 C2168 C 0.69998 0.80020 1.08157
 C2169 C 0.68797 0.79397 1.08785
 C2170 C 0.68223 0.79968 1.10034
 C2171 C 0.68845 0.81174 1.10679
 C2172 C 0.70053 0.81793 1.10033
 C2173 C 0.70614 0.79404 1.06895
 C2174 C 0.71149 0.78870 1.05857
 C2175 C 0.71806 0.78215 1.04675
 C2176 C 0.72404 0.77620 1.03705
 H2177 H 0.71560 0.81705 1.08311
 H2178 H 0.68308 0.78463 1.08312
 H2179 H 0.67296 0.79457 1.10490
 H2180 H 0.70567 0.82717 1.10489
 C2181 C 0.18801 0.29388 1.08794
 C2182 C 0.20004 0.30009 1.08168
 C2183 C 0.20627 0.31210 1.08792
 C2184 C 0.20054 0.31787 1.10039
 C2185 C 0.18847 0.31167 1.10686
 C2186 C 0.18225 0.29962 1.10042
 C2187 C 0.20622 0.29390 1.06908
 C2188 C 0.21155 0.28855 1.05870
 C2189 C 0.21809 0.28199 1.04687
 C2190 C 0.22403 0.27602 1.03717
 H2191 H 0.18314 0.28452 1.08325
 H2192 H 0.21564 0.31696 1.08321
 H2193 H 0.20566 0.32713 1.10493
 H2194 H 0.17298 0.29451 1.10498
 C2195 C 0.18768 0.79458 0.58736
 C2196 C 0.19982 0.80070 0.58122
 C2197 C 0.20612 0.81262 0.58758
 C2198 C 0.20036 0.81836 0.60006
 C2199 C 0.18819 0.81224 0.60640
 C2200 C 0.18190 0.80029 0.59983
 C2201 C 0.20607 0.79447 0.56869
 C2202 C 0.21151 0.78902 0.55840
 C2203 C 0.21815 0.78234 0.54669
 C2204 C 0.22414 0.77630 0.53705
 H2205 H 0.18275 0.78530 0.58257
 H2206 H 0.21557 0.81741 0.58296
 H2207 H 0.20553 0.82755 0.60470
 H2208 H 0.17258 0.79521 0.60433
 C2209 C 0.31243 0.70613 0.58768
 C2210 C 0.30054 0.69980 0.58129
 C2211 C 0.29440 0.68768 0.58743
 C2212 C 0.30011 0.68190 0.59991
 C2213 C 0.31208 0.68817 0.60648
 C2214 C 0.31817 0.70037 0.60016
 C2215 C 0.29433 0.70604 0.56872
 C2216 C 0.28891 0.71146 0.55842
 C2217 C 0.28224 0.71810 0.54670
 C2218 C 0.27621 0.72409 0.53706
 H2219 H 0.31722 0.71558 0.58307
 H2220 H 0.28511 0.68277 0.58263
 H2221 H 0.29501 0.67260 0.60441
 H2222 H 0.32734 0.70555 0.60483
 C2223 C 0.29373 0.18787 1.08814
 C2224 C 0.30016 0.19966 1.08165
 C2225 C 0.31244 0.20563 1.08764
 C2226 C 0.31828 0.19984 1.10007
 C2227 C 0.31189 0.18799 1.10672
 C2228 C 0.29954 0.18206 1.10056
 C2229 C 0.29395 0.20586 1.06908
 C2230 C 0.28857 0.21124 1.05873
 C2231 C 0.28198 0.21781 1.04692
 C2232 C 0.27601 0.22377 1.03723
 H2233 H 0.28417 0.18320 1.08362
 H2234 H 0.31746 0.21482 1.08276
 H2235 H 0.32772 0.20479 1.10446
 H2236 H 0.29432 0.17292 1.10526
 C2237 C 0.81218 0.70602 1.08772
 C2238 C 0.80017 0.69978 1.08147
 C2239 C 0.79394 0.68777 1.08773
 C2240 C 0.79967 0.68202 1.10022
 C2241 C 0.81173 0.68823 1.10668
 C2242 C 0.81793 0.70030 1.10021
 C2243 C 0.79396 0.70597 1.06888
 C2244 C 0.78857 0.71135 1.05854
 C2245 C 0.78196 0.71794 1.04675
 C2246 C 0.77597 0.72391 1.03708
 H2247 H 0.81705 0.71537 1.08300
 H2248 H 0.78459 0.68289 1.08302
 H2249 H 0.79455 0.67275 1.10478
 H2250 H 0.82719 0.70542 1.10476
 C2251 C 0.81210 0.20592 0.58765
 C2252 C 0.80010 0.19966 0.58140
 C2253 C 0.79387 0.18766 0.58767
 C2254 C 0.79961 0.18192 0.60016
 C2255 C 0.81167 0.18813 0.60659
 C2256 C 0.81786 0.20021 0.60014
 C2257 C 0.79391 0.20583 0.56880
 C2258 C 0.78853 0.21119 0.55846
 C2259 C 0.78192 0.21777 0.54668
 C2260 C 0.77593 0.22374 0.53701
 H2261 H 0.81695 0.21528 0.58293
 H2262 H 0.78452 0.18278 0.58296
 H2263 H 0.79449 0.17266 0.60472
 H2264 H 0.82711 0.20535 0.60469
 C2265 C 0.68790 0.70621 0.41231
 C2266 C 0.70001 0.70006 0.41849
 C2267 C 0.70618 0.68796 0.41232
 C2268 C 0.70036 0.68211 0.39994
 C2269 C 0.68829 0.68832 0.39348
 C2270 C 0.68206 0.70038 0.39993
 C2271 C 0.70623 0.70630 0.43102
 C2272 C 0.71156 0.71165 0.44139
 C2273 C 0.71805 0.71815 0.45327
 C2274 C 0.72395 0.72406 0.46302
 H2275 H 0.68303 0.71559 0.41699
 H2276 H 0.71557 0.68311 0.41702
 H2277 H 0.70542 0.67278 0.39544
 H2278 H 0.67272 0.70542 0.39544
 C2279 C 0.70626 0.18775 -0.08774
 C2280 C 0.69998 0.19975 -0.08148
 C2281 C 0.68796 0.20597 -0.08776
 C2282 C 0.68222 0.20022 -0.10023
 C2283 C 0.68843 0.18813 -0.10665
 C2284 C 0.70054 0.18198 -0.10021
 C2285 C 0.70613 0.20594 -0.06887
 C2286 C 0.71147 0.21133 -0.05852
 C2287 C 0.71801 0.21795 -0.04673
 C2288 C 0.72395 0.22396 -0.03705
 H2289 H 0.71564 0.18291 -0.08303
 H2290 H 0.68307 0.21533 -0.08306
 H2291 H 0.67295 0.20533 -0.10480
 H2292 H 0.70570 0.17273 -0.10476
 C2293 C 0.18792 0.70604 -0.08772
 C2294 C 0.19993 0.69979 -0.08146
 C2295 C 0.20616 0.68776 -0.08772
 C2296 C 0.20042 0.68201 -0.10018
 C2297 C 0.18834 0.68823 -0.10662
 C2298 C 0.18215 0.70032 -0.10019
 C2299 C 0.20614 0.70598 -0.06890
 C2300 C 0.21154 0.71138 -0.05859
 C2301 C 0.21817 0.71800 -0.04684
 C2302 C 0.22416 0.72399 -0.03720
 H2303 H 0.18305 0.71540 -0.08303
 H2304 H 0.21551 0.68288 -0.08301
 H2305 H 0.20555 0.67274 -0.10474
 H2306 H 0.17289 0.70546 -0.10475
 C2307 C 0.20596 0.18735 0.41251
 C2308 C 0.19963 0.19926 0.41888
 C2309 C 0.18749 0.20539 0.41276
 C2310 C 0.18173 0.19970 0.40027
 C2311 C 0.18806 0.18776 0.39369
 C2312 C 0.20023 0.18163 0.40002
 C2313 C 0.20589 0.20550 0.43140
 C2314 C 0.21132 0.21096 0.44167
 C2315 C 0.21796 0.21766 0.45336
 C2316 C 0.22394 0.22370 0.46298
 H2317 H 0.21541 0.18255 0.41713
 H2318 H 0.18253 0.21466 0.41756
 H2319 H 0.17240 0.20478 0.39579
 H2320 H 0.20542 0.17245 0.39537
 C2321 C 0.31235 0.41196 0.70618
 C2322 C 0.30028 0.41828 0.70009
 C2323 C 0.29402 0.41215 0.68806
 C2324 C 0.29976 0.39973 0.68215
 C2325 C 0.31186 0.39319 0.68820
 C2326 C 0.31813 0.39953 0.70028
 C2327 C 0.29413 0.43086 0.70639
 C2328 C 0.28879 0.44123 0.71182
 C2329 C 0.28225 0.45306 0.71842
 C2330 C 0.27630 0.46279 0.72436
 H2331 H 0.31726 0.41659 0.71553
 H2332 H 0.28463 0.41692 0.68329
 H2333 H 0.29464 0.39529 0.67285
 H2334 H 0.32745 0.39494 0.70528
 C2335 C 0.31254 0.91225 0.20586
 C2336 C 0.30049 0.91860 0.19976
 C2337 C 0.29421 0.91245 0.18775
 C2338 C 0.29994 0.90001 0.18185
 C2339 C 0.31206 0.89348 0.18789
 C2340 C 0.31829 0.89980 0.19999
 C2341 C 0.29432 0.93117 0.20607
 C2342 C 0.28894 0.94150 0.21153
 C2343 C 0.28234 0.95328 0.21820
 C2344 C 0.27638 0.96297 0.22419
 H2345 H 0.31746 0.91687 0.21521
 H2346 H 0.28484 0.91723 0.18296
 H2347 H 0.29478 0.89554 0.17257
 H2348 H 0.32759 0.89518 0.20499
 C2349 C 0.81275 0.41259 0.20546
 C2350 C 0.80061 0.41885 0.19944
 C2351 C 0.79433 0.41269 0.18743
 C2352 C 0.80010 0.40028 0.18151
 C2353 C 0.81226 0.39380 0.18752
 C2354 C 0.81855 0.40018 0.19956
 C2355 C 0.79435 0.43133 0.20585
 C2356 C 0.78892 0.44159 0.21138
 C2357 C 0.78226 0.45329 0.21812
 C2358 C 0.77626 0.46291 0.22419
 H2359 H 0.81768 0.41724 0.21479
 H2360 H 0.78489 0.41741 0.18272
 H2361 H 0.79490 0.39576 0.17229
 H2362 H 0.82786 0.39559 0.20456
 C2363 C 0.79410 0.91251 0.68801
 C2364 C 0.80028 0.91850 0.70016
 C2365 C 0.81217 0.91199 0.70639
 C2366 C 0.81793 0.89959 0.70045
 C2367 C 0.81186 0.89348 0.68819
 C2368 C 0.79984 0.90011 0.68204
 C2369 C 0.79415 0.93107 0.70647
 C2370 C 0.78879 0.94141 0.71192
 C2371 C 0.78223 0.95324 0.71853
 C2372 C 0.77626 0.96295 0.72448
 H2373 H 0.78482 0.91739 0.68316
 H2374 H 0.81697 0.91646 0.71588
 H2375 H 0.82711 0.89483 0.70556
 H2376 H 0.79482 0.89578 0.67265
 C2377 C 0.68762 0.58788 0.70634
 C2378 C 0.69962 0.58150 0.70017
 C2379 C 0.70594 0.58772 0.68821
 C2380 C 0.70029 0.60026 0.68242
 C2381 C 0.68820 0.60678 0.68852
 C2382 C 0.68195 0.60041 0.70058
 C2383 C 0.70576 0.56888 0.70643
 C2384 C 0.71114 0.55853 0.71184
 C2385 C 0.71774 0.54672 0.71844
 C2386 C 0.72373 0.53703 0.72442
 H2387 H 0.68269 0.58323 0.71568
 H2388 H 0.71530 0.58293 0.68340
 H2389 H 0.70545 0.60475 0.67315
 H2390 H 0.67267 0.60502 0.70565
 C2391 C 0.68736 0.08729 0.20540
 C2392 C 0.69947 0.08102 0.19935
 C2393 C 0.70566 0.08712 0.18724
 C2394 C 0.69982 0.09949 0.18126
 C2395 C 0.68770 0.10599 0.18733
 C2396 C 0.68150 0.09966 0.19945
 C2397 C 0.70580 0.06858 0.20579
 C2398 C 0.71128 0.05835 0.21135
 C2399 C 0.71797 0.04667 0.21813
 C2400 C 0.72397 0.03704 0.22421
 H2401 H 0.68250 0.08270 0.21481
 H2402 H 0.71507 0.08239 0.18248
 H2403 H 0.70491 0.10394 0.17194
 H2404 H 0.67222 0.10428 0.20449
 C2405 C 0.18761 0.58799 0.20617
 C2406 C 0.19967 0.58167 0.20005
 C2407 C 0.20595 0.58783 0.18804
 C2408 C 0.20018 0.60024 0.18212
 C2409 C 0.18804 0.60673 0.18817
 C2410 C 0.18182 0.60041 0.20027
 C2411 C 0.20582 0.56908 0.20632
 C2412 C 0.21117 0.55872 0.21173
 C2413 C 0.21774 0.54690 0.21833
 C2414 C 0.22369 0.53718 0.22428
 H2415 H 0.18271 0.58336 0.21553
 H2416 H 0.21534 0.58307 0.18326
 H2417 H 0.20530 0.60469 0.17282
 H2418 H 0.17250 0.60499 0.20528
 C2419 C 0.18734 0.08737 0.70584
 C2420 C 0.19950 0.08116 0.69981
 C2421 C 0.20579 0.08738 0.68782
 C2422 C 0.19998 0.09977 0.68190
 C2423 C 0.18778 0.10618 0.68791
 C2424 C 0.18151 0.09977 0.69994
 C2425 C 0.20576 0.06865 0.70616
 C2426 C 0.21119 0.05835 0.71163
 C2427 C 0.21783 0.04660 0.71832
 C2428 C 0.22382 0.03694 0.72434
 H2429 H 0.18242 0.08269 0.71517
 H2430 H 0.21525 0.08270 0.68310
 H2431 H 0.20515 0.10430 0.67266
 H2432 H 0.17218 0.10434 0.70494
 C2433 C 0.31210 0.58824 0.29331
 C2434 C 0.30026 0.58171 0.29962
 C2435 C 0.29411 0.58774 0.31177
 C2436 C 0.29975 0.60025 0.31760
 C2437 C 0.31166 0.60695 0.31134
 C2438 C 0.31777 0.60075 0.29911
 C2439 C 0.29417 0.56907 0.29342
 C2440 C 0.28886 0.55866 0.28807
 C2441 C 0.28231 0.54681 0.28153
 C2442 C 0.27635 0.53710 0.27560
 H2443 H 0.31691 0.58371 0.28386
 H2444 H 0.28489 0.58283 0.31671
 H2445 H 0.29469 0.60462 0.32697
 H2446 H 0.32689 0.60552 0.29393
 C2447 C 0.31240 0.08770 0.79384
 C2448 C 0.30039 0.08134 0.80000
 C2449 C 0.29409 0.08753 0.81199
 C2450 C 0.29974 0.10003 0.81781
 C2451 C 0.31181 0.10657 0.81170
 C2452 C 0.31808 0.10021 0.79964
 C2453 C 0.29428 0.06871 0.79376
 C2454 C 0.28894 0.05834 0.78836
 C2455 C 0.28239 0.04651 0.78176
 C2456 C 0.27645 0.03681 0.77578
 H2457 H 0.31734 0.08306 0.78451
 H2458 H 0.28474 0.08273 0.81682
 H2459 H 0.29458 0.10452 0.82707
 H2460 H 0.32734 0.10485 0.79458
 C2461 C 0.81247 0.58784 0.79391
 C2462 C 0.80047 0.58148 0.80008
 C2463 C 0.79421 0.58764 0.81211
 C2464 C 0.79992 0.60009 0.81797
 C2465 C 0.81200 0.60662 0.81186
 C2466 C 0.81821 0.60030 0.79975
 C2467 C 0.79431 0.56890 0.79381
 C2468 C 0.78893 0.55856 0.78841
 C2469 C 0.78233 0.54676 0.78181
 C2470 C 0.77635 0.53707 0.77586
 H2471 H 0.81736 0.58322 0.78454
 H2472 H 0.78486 0.58285 0.81693
 H2473 H 0.79477 0.60457 0.82725
 H2474 H 0.82748 0.60493 0.79470
 C2475 C 0.81255 0.08775 0.29378
 C2476 C 0.80055 0.08137 0.29993
 C2477 C 0.79423 0.08756 0.31192
 C2478 C 0.79990 0.10004 0.31777
 C2479 C 0.81199 0.10656 0.31168
 C2480 C 0.81825 0.10023 0.29960
 C2481 C 0.79445 0.06876 0.29368
 C2482 C 0.78911 0.05841 0.28827
 C2483 C 0.78252 0.04661 0.28166
 C2484 C 0.77654 0.03692 0.27571
 H2485 H 0.81748 0.08311 0.28443
 H2486 H 0.78486 0.08276 0.31672
 H2487 H 0.79474 0.10451 0.32704
 H2488 H 0.82751 0.10486 0.29455
 C2489 C 0.68754 0.41206 0.29380
 C2490 C 0.69959 0.41838 0.29989
 C2491 C 0.70586 0.41223 0.31192
 C2492 C 0.70012 0.39981 0.31785
 C2493 C 0.68801 0.39331 0.31180
 C2494 C 0.68178 0.39963 0.29970
 C2495 C 0.70575 0.43095 0.29358
 C2496 C 0.71109 0.44132 0.28818
 C2497 C 0.71766 0.45317 0.28163
 C2498 C 0.72365 0.46289 0.27572
 H2499 H 0.68265 0.41667 0.28441
 H2500 H 0.71526 0.41698 0.31667
 H2501 H 0.70526 0.39535 0.32714
 H2502 H 0.67248 0.39503 0.29469
 C2503 C 0.68706 0.91270 0.79464
 C2504 C 0.69919 0.91893 0.80069
 C2505 C 0.70550 0.91267 0.81265
 C2506 C 0.69979 0.90018 0.81848
 C2507 C 0.68764 0.89374 0.81242
 C2508 C 0.68133 0.90021 0.80044
 C2509 C 0.70545 0.93143 0.79432
 C2510 C 0.71090 0.94168 0.78879
 C2511 C 0.71757 0.95338 0.78205
 C2512 C 0.72358 0.96300 0.77597
 H2513 H 0.68211 0.91741 0.78534
 H2514 H 0.71493 0.91737 0.81740
 H2515 H 0.70500 0.89559 0.82766
 H2516 H 0.67203 0.89564 0.79541
 C2517 C 0.20584 0.41205 0.81189
 C2518 C 0.19957 0.41822 0.79988
 C2519 C 0.18753 0.41191 0.79376
 C2520 C 0.18177 0.39947 0.79963
 C2521 C 0.18799 0.39313 0.81172
 C2522 C 0.20011 0.39962 0.81779
 C2523 C 0.20571 0.43081 0.79361
 C2524 C 0.21106 0.44118 0.78821
 C2525 C 0.21763 0.45300 0.78163
 C2526 C 0.22360 0.46271 0.77569
 H2527 H 0.21522 0.41681 0.81668
 H2528 H 0.18262 0.41655 0.78440
 H2529 H 0.17248 0.39486 0.79460
 H2530 H 0.20525 0.39514 0.82707
 C2531 C 0.20591 0.91224 0.31173
 C2532 C 0.19961 0.91843 0.29973
 C2533 C 0.18759 0.91208 0.29360
 C2534 C 0.18186 0.89962 0.29944
 C2535 C 0.18810 0.89327 0.31153
 C2536 C 0.20020 0.89977 0.31760
 C2537 C 0.20574 0.93104 0.29347
 C2538 C 0.21109 0.94141 0.28806
 C2539 C 0.21768 0.95323 0.28148
 C2540 C 0.22366 0.96295 0.27555
 H2541 H 0.21527 0.91701 0.31652
 H2542 H 0.18267 0.91673 0.28425
 H2543 H 0.17258 0.89501 0.29442
 H2544 H 0.20535 0.89530 0.32688
 C2545 C 0.41213 0.29400 0.68815
 C2546 C 0.41826 0.30026 0.70018
 C2547 C 0.41194 0.31233 0.70625
 C2548 C 0.39953 0.31812 0.70033
 C2549 C 0.39319 0.31187 0.68824
 C2550 C 0.39972 0.29976 0.68220
 C2551 C 0.43084 0.29411 0.70649
 C2552 C 0.44120 0.28877 0.71192
 C2553 C 0.45304 0.28222 0.71851
 C2554 C 0.46277 0.27625 0.72444
 H2555 H 0.41690 0.28461 0.68339
 H2556 H 0.41657 0.31723 0.71561
 H2557 H 0.39494 0.32744 0.70531
 H2558 H 0.39529 0.29465 0.67290
 C2559 C 0.41219 0.81265 0.20596
 C2560 C 0.41853 0.80060 0.19987
 C2561 C 0.41238 0.79430 0.18787
 C2562 C 0.39993 0.80001 0.18196
 C2563 C 0.39340 0.81212 0.18800
 C2564 C 0.39973 0.81838 0.20008
 C2565 C 0.43109 0.79443 0.20621
 C2566 C 0.44140 0.78904 0.21170
 C2567 C 0.45315 0.78243 0.21839
 C2568 C 0.46282 0.77646 0.22441
 H2569 H 0.41682 0.81758 0.21530
 H2570 H 0.41717 0.78493 0.18310
 H2571 H 0.39546 0.79485 0.17270
 H2572 H 0.39510 0.82768 0.20507
 C2573 C 0.91249 0.29445 0.18745
 C2574 C 0.91867 0.30074 0.19945
 C2575 C 0.91243 0.31288 0.20546
 C2576 C 0.90000 0.31866 0.19957
 C2577 C 0.89359 0.31237 0.18756
 C2578 C 0.90006 0.30022 0.18154
 C2579 C 0.93117 0.29448 0.20584
 C2580 C 0.94144 0.28904 0.21136
 C2581 C 0.95316 0.28239 0.21810
 C2582 C 0.96278 0.27639 0.22417
 H2583 H 0.91720 0.28501 0.18273
 H2584 H 0.91708 0.31781 0.21479
 H2585 H 0.89541 0.32798 0.20457
 H2586 H 0.89552 0.29502 0.17233
 C2587 C 0.91228 0.79440 0.68795
 C2588 C 0.91832 0.80058 0.70008
 C2589 C 0.91181 0.81245 0.70633
 C2590 C 0.89938 0.81820 0.70043
 C2591 C 0.89322 0.81212 0.68819
 C2592 C 0.89985 0.80012 0.68202
 C2593 C 0.93091 0.79444 0.70638
 C2594 C 0.94125 0.78908 0.71182
 C2595 C 0.95308 0.78251 0.71844
 C2596 C 0.96280 0.77653 0.72439
 H2597 H 0.91717 0.78513 0.68309
 H2598 H 0.91632 0.81725 0.71579
 H2599 H 0.89463 0.82737 0.70555
 H2600 H 0.89549 0.79509 0.67264
 C2601 C 0.58808 0.31240 0.29363
 C2602 C 0.58177 0.30032 0.29968
 C2603 C 0.58788 0.29405 0.31173
 C2604 C 0.60025 0.29982 0.31772
 C2605 C 0.60674 0.31197 0.31172
 C2606 C 0.60046 0.31819 0.29960
 C2607 C 0.56922 0.29416 0.29334
 C2608 C 0.55887 0.28882 0.28791
 C2609 C 0.54703 0.28225 0.28135
 C2610 C 0.53731 0.27626 0.27545
 H2611 H 0.58350 0.31730 0.28424
 H2612 H 0.58313 0.28463 0.31645
 H2613 H 0.60468 0.29468 0.32702
 H2614 H 0.60506 0.32751 0.29462
 C2615 C 0.58761 0.79430 0.81207
 C2616 C 0.58146 0.80056 0.80003
 C2617 C 0.58783 0.81255 0.79388
 C2618 C 0.60033 0.81825 0.79969
 C2619 C 0.60666 0.81203 0.81179
 C2620 C 0.60010 0.79997 0.81791
 C2621 C 0.56886 0.79442 0.79377
 C2622 C 0.55849 0.78906 0.78837
 C2623 C 0.54667 0.78247 0.78178
 C2624 C 0.53698 0.77647 0.77582
 H2625 H 0.58281 0.78496 0.81689
 H2626 H 0.58321 0.81746 0.78451
 H2627 H 0.60498 0.82749 0.79461
 H2628 H 0.60461 0.79479 0.82715
 C2629 C 0.08772 0.29399 0.81195
 C2630 C 0.08154 0.30027 0.79993
 C2631 C 0.08787 0.31231 0.79381
 C2632 C 0.10031 0.31806 0.79966
 C2633 C 0.10665 0.31183 0.81176
 C2634 C 0.10016 0.29972 0.81783
 C2635 C 0.06894 0.29414 0.79367
 C2636 C 0.05857 0.28881 0.78827
 C2637 C 0.04674 0.28225 0.78169
 C2638 C 0.03703 0.27630 0.77575
 H2639 H 0.08295 0.28461 0.81674
 H2640 H 0.08324 0.31721 0.78444
 H2641 H 0.10493 0.32734 0.79463
 H2642 H 0.10463 0.29458 0.82712
 C2643 C 0.08778 0.79418 0.31176
 C2644 C 0.08161 0.80048 0.29976
 C2645 C 0.08797 0.81250 0.29363
 C2646 C 0.10042 0.81822 0.29949
 C2647 C 0.10674 0.81198 0.31159
 C2648 C 0.10023 0.79988 0.31765
 C2649 C 0.06901 0.79436 0.29348
 C2650 C 0.05865 0.78902 0.28807
 C2651 C 0.04684 0.78243 0.28148
 C2652 C 0.03713 0.77646 0.27555
 H2653 H 0.08299 0.78481 0.31655
 H2654 H 0.08334 0.81742 0.28427
 H2655 H 0.10504 0.82751 0.29447
 H2656 H 0.10469 0.79473 0.32694
 C2657 C 0.58775 0.70595 0.68830
 C2658 C 0.58152 0.69963 0.70026
 C2659 C 0.58790 0.68763 0.70643
 C2660 C 0.60043 0.68195 0.70065
 C2661 C 0.60681 0.68819 0.68858
 C2662 C 0.60029 0.70029 0.68249
 C2663 C 0.56890 0.70579 0.70653
 C2664 C 0.55853 0.71117 0.71193
 C2665 C 0.54670 0.71777 0.71853
 C2666 C 0.53699 0.72375 0.72449
 H2667 H 0.58296 0.71532 0.68350
 H2668 H 0.58326 0.68271 0.71577
 H2669 H 0.60504 0.67267 0.70570
 H2670 H 0.60478 0.70544 0.67322
 C2671 C 0.58876 0.18809 0.20666
 C2672 C 0.58216 0.19984 0.20027
 C2673 C 0.58815 0.20593 0.18806
 C2674 C 0.60068 0.20027 0.18224
 C2675 C 0.60742 0.18842 0.18856
 C2676 C 0.60128 0.18241 0.20087
 C2677 C 0.56946 0.20588 0.20643
 C2678 C 0.55900 0.21114 0.21176
 C2679 C 0.54708 0.21761 0.21830
 C2680 C 0.53733 0.22352 0.22424
 H2681 H 0.58426 0.18333 0.21616
 H2682 H 0.58318 0.21509 0.18307
 H2683 H 0.60504 0.20529 0.17284
 H2684 H 0.60606 0.17330 0.20607
 C2685 C 0.08796 0.68768 0.20619
 C2686 C 0.08163 0.69973 0.20008
 C2687 C 0.08782 0.70603 0.18808
 C2688 C 0.10025 0.70028 0.18217
 C2689 C 0.10673 0.68814 0.18822
 C2690 C 0.10039 0.68191 0.20031
 C2691 C 0.06903 0.70588 0.20634
 C2692 C 0.05867 0.71123 0.21176
 C2693 C 0.04686 0.71781 0.21837
 C2694 C 0.03714 0.72375 0.22434
 H2695 H 0.08331 0.68277 0.21554
 H2696 H 0.08305 0.71542 0.18330
 H2697 H 0.10471 0.70540 0.17289
 H2698 H 0.10498 0.67259 0.20532
 C2699 C 0.08793 0.18748 0.70651
 C2700 C 0.08158 0.19950 0.70036
 C2701 C 0.08774 0.20575 0.68833
 C2702 C 0.10020 0.20003 0.68246
 C2703 C 0.10673 0.18794 0.68856
 C2704 C 0.10040 0.18173 0.70066
 C2705 C 0.06895 0.20566 0.70661
 C2706 C 0.05856 0.21101 0.71198
 C2707 C 0.04671 0.21758 0.71855
 C2708 C 0.03700 0.22355 0.72451
 H2709 H 0.08329 0.18260 0.71588
 H2710 H 0.08296 0.21512 0.68353
 H2711 H 0.10468 0.20518 0.67319
 H2712 H 0.10503 0.17246 0.70571
 C2713 C 0.41233 0.70561 0.31226
 C2714 C 0.41845 0.69944 0.30016
 C2715 C 0.41210 0.68746 0.29397
 C2716 C 0.39962 0.68172 0.29978
 C2717 C 0.39329 0.68788 0.31191
 C2718 C 0.39986 0.69988 0.31811
 C2719 C 0.43099 0.70567 0.29385
 C2720 C 0.44130 0.71109 0.28841
 C2721 C 0.45306 0.71773 0.28176
 C2722 C 0.46272 0.72373 0.27576
 H2723 H 0.41713 0.71491 0.31712
 H2724 H 0.41670 0.68264 0.28456
 H2725 H 0.39493 0.67254 0.29465
 H2726 H 0.39541 0.70495 0.32744
 C2727 C 0.41205 0.20573 0.81188
 C2728 C 0.41824 0.19946 0.79987
 C2729 C 0.41190 0.18744 0.79373
 C2730 C 0.39943 0.18171 0.79957
 C2731 C 0.39308 0.18793 0.81166
 C2732 C 0.39958 0.20002 0.81774
 C2733 C 0.43084 0.20560 0.79363
 C2734 C 0.44121 0.21097 0.78824
 C2735 C 0.45304 0.21756 0.78167
 C2736 C 0.46275 0.22353 0.77572
 H2737 H 0.41682 0.21509 0.81669
 H2738 H 0.41655 0.18254 0.78438
 H2739 H 0.39481 0.17244 0.79452
 H2740 H 0.39509 0.20516 0.82702
 C2741 C 0.91249 0.68718 0.79449
 C2742 C 0.91867 0.69934 0.80051
 C2743 C 0.91244 0.70561 0.81249
 C2744 C 0.90004 0.69981 0.81841
 C2745 C 0.89364 0.68762 0.81240
 C2746 C 0.90008 0.68135 0.80039
 C2747 C 0.93113 0.70565 0.79411
 C2748 C 0.94136 0.71114 0.78857
 C2749 C 0.95305 0.71783 0.78184
 C2750 C 0.96269 0.72384 0.77581
 H2751 H 0.91718 0.68226 0.78517
 H2752 H 0.91710 0.71507 0.81721
 H2753 H 0.89549 0.70497 0.82765
 H2754 H 0.89556 0.67200 0.79541
 C2755 C 0.91197 0.18751 0.29363
 C2756 C 0.91830 0.19953 0.29977
 C2757 C 0.91211 0.20583 0.31176
 C2758 C 0.89965 0.20011 0.31764
 C2759 C 0.89317 0.18799 0.31158
 C2760 C 0.89952 0.18177 0.29949
 C2761 C 0.93089 0.20567 0.29349
 C2762 C 0.94122 0.21105 0.28807
 C2763 C 0.95301 0.21767 0.28146
 C2764 C 0.96270 0.22367 0.27553
 H2765 H 0.91662 0.18260 0.28428
 H2766 H 0.91687 0.21521 0.31653
 H2767 H 0.89517 0.20524 0.32691
 H2768 H 0.89492 0.17249 0.29446
 C2769 C 0.29386 0.31216 0.58765
 C2770 C 0.30011 0.30015 0.58138
 C2771 C 0.31211 0.29390 0.58766
 C2772 C 0.31783 0.29958 0.60016
 C2773 C 0.31161 0.31164 0.60662
 C2774 C 0.29955 0.31787 0.60015
 C2775 C 0.29391 0.29395 0.56881
 C2776 C 0.28851 0.28855 0.55850
 C2777 C 0.28189 0.28191 0.54676
 C2778 C 0.27590 0.27591 0.53711
 H2779 H 0.28452 0.31705 0.58291
 H2780 H 0.31701 0.28455 0.58293
 H2781 H 0.32708 0.29443 0.60474
 H2782 H 0.29441 0.32712 0.60472
 C2783 C 0.31230 0.79400 0.08752
 C2784 C 0.30030 0.80025 0.08124
 C2785 C 0.29404 0.81226 0.08748
 C2786 C 0.29975 0.81802 0.09996
 C2787 C 0.31182 0.81181 0.10643
 C2788 C 0.31804 0.79973 0.10000
 C2789 C 0.29415 0.79407 0.06864
 C2790 C 0.28881 0.78870 0.05829
 C2791 C 0.28225 0.78210 0.04649
 C2792 C 0.27631 0.77611 0.03682
 H2793 H 0.31719 0.78464 0.08282
 H2794 H 0.28469 0.81714 0.08274
 H2795 H 0.29461 0.82728 0.10450
 H2796 H 0.32730 0.79460 0.10457
 C2797 C 0.81255 0.29448 0.08727
 C2798 C 0.80051 0.30070 0.08102
 C2799 C 0.79430 0.31275 0.08725
 C2800 C 0.80003 0.31851 0.09972
 C2801 C 0.81209 0.31228 0.10620
 C2802 C 0.81831 0.30022 0.09975
 C2803 C 0.79422 0.29440 0.06854
 C2804 C 0.78873 0.28891 0.05832
 C2805 C 0.78201 0.28219 0.04667
 C2806 C 0.77597 0.27616 0.03708
 H2807 H 0.81742 0.28511 0.08258
 H2808 H 0.78494 0.31762 0.08253
 H2809 H 0.79490 0.32777 0.10428
 H2810 H 0.82756 0.29508 0.10432
 C2811 C 0.81228 0.79425 0.58760
 C2812 C 0.80025 0.80047 0.58134
 C2813 C 0.79402 0.81250 0.58757
 C2814 C 0.79975 0.81828 0.60004
 C2815 C 0.81181 0.81207 0.60652
 C2816 C 0.81804 0.80000 0.60007
 C2817 C 0.79405 0.79425 0.56877
 C2818 C 0.78865 0.78884 0.55847
 C2819 C 0.78201 0.78220 0.54674
 C2820 C 0.77602 0.77621 0.53709
 H2821 H 0.81716 0.78488 0.58292
 H2822 H 0.78465 0.81736 0.58285
 H2823 H 0.79459 0.82753 0.60459
 H2824 H 0.82729 0.79486 0.60465
 C2825 C 0.29444 0.68749 0.41263
 C2826 C 0.30056 0.69963 0.41875
 C2827 C 0.31249 0.70592 0.41238
 C2828 C 0.31825 0.70015 0.39991
 C2829 C 0.31212 0.68799 0.39358
 C2830 C 0.30016 0.68171 0.40017
 C2831 C 0.29431 0.70589 0.43128
 C2832 C 0.28886 0.71133 0.44156
 C2833 C 0.28219 0.71799 0.45327
 C2834 C 0.27617 0.72400 0.46290
 H2835 H 0.28514 0.68257 0.41744
 H2836 H 0.31729 0.71536 0.41699
 H2837 H 0.32745 0.70532 0.39526
 H2838 H 0.29507 0.67239 0.39569
 C2839 C 0.29383 0.18749 0.91242
 C2840 C 0.30005 0.19950 0.91867
 C2841 C 0.31207 0.20573 0.91241
 C2842 C 0.31784 0.20001 0.89994
 C2843 C 0.31164 0.18795 0.89349
 C2844 C 0.29957 0.18174 0.89994
 C2845 C 0.29385 0.20568 0.93125
 C2846 C 0.28847 0.21106 0.94159
 C2847 C 0.28188 0.21766 0.95337
 C2848 C 0.27592 0.22364 0.96304
 H2849 H 0.28447 0.18260 0.91714
 H2850 H 0.31694 0.21508 0.91714
 H2851 H 0.32711 0.20513 0.89539
 H2852 H 0.29446 0.17247 0.89539
 C2853 C 0.81249 0.70599 0.91235
 C2854 C 0.80057 0.69969 0.91874
 C2855 C 0.79445 0.68755 0.91264
 C2856 C 0.80018 0.68174 0.90018
 C2857 C 0.81214 0.68802 0.89358
 C2858 C 0.81825 0.70021 0.89989
 C2859 C 0.79432 0.70596 0.93126
 C2860 C 0.78886 0.71138 0.94154
 C2861 C 0.78216 0.71800 0.95327
 C2862 C 0.77611 0.72397 0.96290
 H2863 H 0.81728 0.71544 0.91694
 H2864 H 0.78516 0.68263 0.91744
 H2865 H 0.79510 0.67242 0.89571
 H2866 H 0.82744 0.70537 0.89523
 C2867 C 0.79394 0.18752 0.41232
 C2868 C 0.80014 0.19956 0.41855
 C2869 C 0.81216 0.20579 0.41231
 C2870 C 0.81795 0.20005 0.39985
 C2871 C 0.81176 0.18798 0.39340
 C2872 C 0.79970 0.18176 0.39986
 C2873 C 0.79391 0.20576 0.43111
 C2874 C 0.78850 0.21115 0.44143
 C2875 C 0.78188 0.21776 0.45320
 C2876 C 0.77590 0.22375 0.46286
 H2877 H 0.78458 0.18265 0.41704
 H2878 H 0.81701 0.21516 0.41701
 H2879 H 0.82722 0.20517 0.39529
 H2880 H 0.79461 0.17248 0.39532
 C2881 C 0.70606 0.31220 0.41224
 C2882 C 0.69981 0.30021 0.41852
 C2883 C 0.68783 0.29394 0.41225
 C2884 C 0.68211 0.29962 0.39973
 C2885 C 0.68832 0.31168 0.39326
 C2886 C 0.70037 0.31791 0.39972
 C2887 C 0.70600 0.29403 0.43111
 C2888 C 0.71138 0.28865 0.44145
 C2889 C 0.71798 0.28203 0.45322
 C2890 C 0.72395 0.27603 0.46289
 H2891 H 0.71539 0.31710 0.41697
 H2892 H 0.68295 0.28460 0.41698
 H2893 H 0.67287 0.29447 0.39515
 H2894 H 0.70550 0.32716 0.39514
 C2895 C 0.68765 0.79458 0.91265
 C2896 C 0.69980 0.80071 0.91874
 C2897 C 0.70608 0.81263 0.91234
 C2898 C 0.70028 0.81837 0.89988
 C2899 C 0.68809 0.81226 0.89359
 C2900 C 0.68183 0.80029 0.90019
 C2901 C 0.70609 0.79448 0.93126
 C2902 C 0.71154 0.78904 0.94154
 C2903 C 0.71820 0.78237 0.95325
 C2904 C 0.72420 0.77635 0.96288
 H2905 H 0.68275 0.78529 0.91746
 H2906 H 0.71554 0.81742 0.91693
 H2907 H 0.70543 0.82757 0.89522
 H2908 H 0.67250 0.79521 0.89572
 C2909 C 0.18766 0.29390 0.91243
 C2910 C 0.19970 0.30010 0.91866
 C2911 C 0.20591 0.31214 0.91242
 C2912 C 0.20016 0.31791 0.89995
 C2913 C 0.18810 0.31169 0.89349
 C2914 C 0.18189 0.29964 0.89996
 C2915 C 0.20595 0.29387 0.93121
 C2916 C 0.21136 0.28848 0.94153
 C2917 C 0.21799 0.28188 0.95330
 C2918 C 0.22398 0.27592 0.96298
 H2919 H 0.18278 0.28455 0.91716
 H2920 H 0.21526 0.31702 0.91713
 H2921 H 0.20525 0.32720 0.89541
 H2922 H 0.17259 0.29455 0.89544
 C2923 C 0.18778 0.79409 0.41232
 C2924 C 0.19982 0.80031 0.41854
 C2925 C 0.20602 0.81234 0.41227
 C2926 C 0.20027 0.81809 0.39980
 C2927 C 0.18821 0.81187 0.39336
 C2928 C 0.18200 0.79982 0.39984
 C2929 C 0.20606 0.79411 0.43110
 C2930 C 0.21147 0.78872 0.44143
 C2931 C 0.21809 0.78213 0.45320
 C2932 C 0.22408 0.77616 0.46287
 H2933 H 0.18291 0.78475 0.41706
 H2934 H 0.21537 0.81723 0.41698
 H2935 H 0.20536 0.82737 0.39525
 H2936 H 0.17271 0.79472 0.39533
 C2937 C 0.68787 0.70608 0.58785
 C2938 C 0.69992 0.69987 0.58162
 C2939 C 0.70613 0.68782 0.58785
 C2940 C 0.70035 0.68202 0.60029
 C2941 C 0.68826 0.68822 0.60672
 C2942 C 0.68207 0.70031 0.60029
 C2943 C 0.70613 0.70609 0.56905
 C2944 C 0.71150 0.71147 0.55871
 C2945 C 0.71808 0.71807 0.54691
 C2946 C 0.72403 0.72404 0.53722
 H2947 H 0.68301 0.71546 0.58315
 H2948 H 0.71550 0.68296 0.58314
 H2949 H 0.70545 0.67274 0.60483
 H2950 H 0.67278 0.70541 0.60484
 C2951 C 0.68772 0.20556 0.08757
 C2952 C 0.70001 0.19961 0.08155
 C2953 C 0.70647 0.18781 0.08800
 C2954 C 0.70069 0.18199 0.10044
 C2955 C 0.68833 0.18790 0.10663
 C2956 C 0.68192 0.19976 0.10000
 C2957 C 0.70619 0.20584 0.06897
 C2958 C 0.71154 0.21126 0.05863
 C2959 C 0.71809 0.21790 0.04684
 C2960 C 0.72402 0.22391 0.03715
 H2961 H 0.68267 0.21476 0.08271
 H2962 H 0.71603 0.18315 0.08346
 H2963 H 0.70593 0.17284 0.10512
 H2964 H 0.67248 0.20471 0.10442
 C2965 C 0.18786 0.70611 0.08753
 C2966 C 0.19989 0.69988 0.08128
 C2967 C 0.20610 0.68783 0.08752
 C2968 C 0.20035 0.68206 0.09999
 C2969 C 0.18828 0.68829 0.10645
 C2970 C 0.18208 0.70036 0.10000
 C2971 C 0.20613 0.70610 0.06873
 C2972 C 0.21154 0.71151 0.05841
 C2973 C 0.21817 0.71813 0.04665
 C2974 C 0.22416 0.72411 0.03698
 H2975 H 0.18299 0.71547 0.08281
 H2976 H 0.21545 0.68295 0.08280
 H2977 H 0.20546 0.67278 0.10453
 H2978 H 0.17281 0.70549 0.10455
 C2979 C 0.18750 0.20535 0.58745
 C2980 C 0.19964 0.19924 0.58130
 C2981 C 0.20595 0.18729 0.58764
 C2982 C 0.20019 0.18151 0.60010
 C2983 C 0.18801 0.18763 0.60645
 C2984 C 0.18171 0.19960 0.59990
 C2985 C 0.20590 0.20550 0.56878
 C2986 C 0.21132 0.21097 0.55850
 C2987 C 0.21794 0.21766 0.54678
 C2988 C 0.22392 0.22370 0.53714
 H2989 H 0.18256 0.21465 0.58267
 H2990 H 0.21540 0.18250 0.58301
 H2991 H 0.20535 0.17229 0.60472
 H2992 H 0.17237 0.20467 0.60439
   
