data_POSCAR
  _audit_creation_date              2014-09-24
  _audit_creation_method            'ToBaCCo'
  _symmetry_space_group_name_H-M    'P1'
  _symmetry_Int_Tables_number       1
  _symmetry_cell_setting            triclinic
  loop_
  _symmetry_equiv_pos_as_xyz
 x,y,z
_cell_length_a 67.1832
_cell_length_b 66.5798
_cell_length_c 67.9411
_cell_angle_alpha 89.898200
_cell_angle_beta 89.945200
_cell_angle_gamma 90.080100
loop_
  _atom_site_label
  _atom_site_type_symbol
  _atom_site_fract_x
  _atom_site_fract_y
  _atom_site_fract_z
O1 O 0.37480 0.34547 -0.01845
 O2 O 0.34729 0.37247 0.02025
 O3 O 0.37526 0.34520 0.01981
 O4 O 0.34699 0.37264 -0.01805
 O5 O 0.32415 0.34886 -0.01786
 O6 O 0.35240 0.32139 0.01996
 O7 O 0.32445 0.34865 0.02036
 O8 O 0.35195 0.32165 -0.01825
 Cu9 Cu 0.36337 0.36134 0.00091
 Cu10 Cu 0.33595 0.33276 0.00110
 C11 C 0.36811 0.32890 -0.02493
 C12 C 0.33107 0.36526 0.02681
 C13 C 0.36877 0.32849 0.02623
 C14 C 0.33069 0.36549 -0.02447
 O15 O 0.63300 0.65787 -0.02448
 O16 O 0.65729 0.63044 0.01597
 O17 O 0.62941 0.65751 0.01364
 O18 O 0.66117 0.63104 -0.02218
 O19 O 0.68365 0.65502 -0.01968
 O20 O 0.65186 0.68161 0.01576
 O21 O 0.67964 0.65460 0.01845
 O22 O 0.65560 0.68181 -0.02228
 Cu23 Cu 0.64297 0.64179 -0.00451
 Cu24 Cu 0.66996 0.67065 -0.00171
 C25 C 0.64009 0.67457 -0.03027
 C26 C 0.67260 0.63786 0.02418
 C27 C 0.63519 0.67416 0.02077
 C28 C 0.67791 0.63848 -0.02708
 O29 O 0.65434 0.37494 0.98062
 O30 O 0.62726 0.34854 1.02014
 O31 O 0.65410 0.37690 1.01882
 O32 O 0.62789 0.34638 0.98168
 O33 O 0.65164 0.32362 0.98343
 O34 O 0.67793 0.35423 1.02009
 O35 O 0.65114 0.32590 1.02161
 O36 O 0.67803 0.35207 0.98191
 Cu37 Cu 0.63847 0.36394 1.00021
 Cu38 Cu 0.66705 0.33668 1.00195
 C39 C 0.67081 0.36800 0.97447
 C40 C 0.63457 0.33270 1.02765
 C41 C 0.67065 0.37087 1.02572
 C42 C 0.63537 0.32980 0.97614
 O43 O 0.36667 0.65747 1.01871
 O44 O 0.33788 0.63079 0.98065
 O45 O 0.36515 0.65870 0.98052
 O46 O 0.33949 0.62952 1.01910
 O47 O 0.31620 0.65272 1.02074
 O48 O 0.34145 0.68158 0.98178
 O49 O 0.31436 0.65378 0.98259
 O50 O 0.34333 0.68069 1.02017
 Cu51 Cu 0.35462 0.64177 0.99959
 Cu52 Cu 0.32652 0.66953 1.00151
 C53 C 0.35994 0.67370 1.02591
 C54 C 0.32118 0.63773 0.97510
 C55 C 0.35763 0.67509 0.97449
 C56 C 0.32344 0.63612 1.02660
 O57 O -0.02250 0.37539 0.34661
 O58 O 0.01548 0.34482 0.37202
 O59 O 0.01629 0.37356 0.34579
 O60 O -0.02314 0.34709 0.37322
 O61 O -0.02503 0.32451 0.34962
 O62 O 0.01458 0.35078 0.32233
 O63 O 0.01350 0.32217 0.34845
 O64 O -0.02418 0.35257 0.32317
 Cu65 Cu -0.00326 0.36252 0.36175
 Cu66 Cu -0.00544 0.33528 0.33351
 C67 C -0.02991 0.36909 0.33055
 C68 C 0.02087 0.32817 0.36460
 C69 C 0.02222 0.36668 0.32938
 C70 C -0.03087 0.33123 0.36615
 O71 O 0.02303 0.65266 0.62904
 O72 O -0.01676 0.62594 0.65561
 O73 O -0.01564 0.65266 0.62746
 O74 O 0.02199 0.62657 0.65768
 O75 O 0.02058 0.65105 0.67946
 O76 O -0.01673 0.67707 0.64929
 O77 O -0.01812 0.65044 0.67736
 O78 O 0.02192 0.67707 0.65091
 Cu79 Cu 0.00326 0.63699 0.64028
 Cu80 Cu 0.00177 0.66634 0.66644
 C81 C 0.02928 0.66945 0.63540
 C82 C -0.02427 0.63358 0.67103
 C83 C -0.02258 0.66945 0.63316
 C84 C 0.02773 0.63441 0.67376
 O85 O 1.02273 0.63338 0.34135
 O86 O 0.98253 0.65711 0.36994
 O87 O 0.98419 0.63016 0.34229
 O88 O 1.02118 0.66064 0.36898
 O89 O 1.01871 0.68428 0.34638
 O90 O 0.98170 0.65399 0.31984
 O91 O 0.98018 0.68097 0.34751
 O92 O 1.02018 0.65713 0.31883
 Cu93 Cu 1.00295 0.64296 0.35792
 Cu94 Cu 0.99996 0.67148 0.33091
 C95 C 1.02820 0.64108 0.32509
 C96 C 0.97448 0.67312 0.36362
 C97 C 0.97666 0.63686 0.32644
 C98 C 1.02625 0.67776 0.36231
 O99 O 0.98196 0.34820 0.62253
 O100 O 1.02093 0.37526 0.65012
 O101 O 1.02083 0.34838 0.62242
 O102 O 0.98226 0.37556 0.65015
 O103 O 0.98238 0.35176 0.67276
 O104 O 1.02051 0.32432 0.64473
 O105 O 1.02101 0.35111 0.67239
 O106 O 0.98182 0.32446 0.64519
 Cu107 Cu 1.00144 0.36423 0.63402
 Cu108 Cu 1.00136 0.33551 0.66100
 C109 C 0.97527 0.33164 0.62913
 C110 C 1.02768 0.36774 0.66597
 C111 C 1.02737 0.33170 0.62884
 C112 C 0.97591 0.36846 0.66634
 O113 O 0.37369 0.01835 0.34418
 O114 O 0.34306 -0.01998 0.36895
 O115 O 0.37034 -0.02034 0.34173
 O116 O 0.34593 0.01914 0.37120
 O117 O 0.32306 0.02243 0.34815
 O118 O 0.34724 -0.01694 0.31893
 O119 O 0.31994 -0.01653 0.34618
 O120 O 0.35056 0.02188 0.32139
 Cu121 Cu 0.36052 -0.00101 0.35887
 Cu122 Cu 0.33287 0.00303 0.33140
 C123 C 0.36743 0.02657 0.32848
 C124 C 0.32631 -0.02490 0.36177
 C125 C 0.36298 -0.02531 0.32521
 C126 C 0.33034 0.02762 0.36461
 O127 O 0.62965 0.01524 0.65929
 O128 O 0.65860 -0.02321 0.63279
 O129 O 0.63146 -0.02381 0.66005
 O130 O 0.65678 0.01601 0.63174
 O131 O 0.68025 0.01751 0.65437
 O132 O 0.65477 -0.02198 0.68282
 O133 O 0.68195 -0.02150 0.65554
 O134 O 0.65315 0.01697 0.68187
 Cu135 Cu 0.64180 -0.00406 0.64366
 Cu136 Cu 0.66988 -0.00205 0.67090
 C137 C 0.63640 0.02260 0.67520
 C138 C 0.67519 -0.02903 0.63972
 C139 C 0.63877 -0.02968 0.67631
 C140 C 0.67290 0.02354 0.63819
 O141 O 0.34280 1.02172 0.63121
 O142 O 0.36655 0.98254 0.66148
 O143 O 0.33991 0.98290 0.63349
 O144 O 0.36948 1.02151 0.65896
 O145 O 0.34583 1.02442 0.68132
 O146 O 0.31616 0.98607 0.65570
 O147 O 0.34272 0.98560 0.68362
 O148 O 0.31914 1.02483 0.65352
 Cu149 Cu 0.35709 1.00182 0.64407
 Cu150 Cu 0.32860 1.00554 0.67078
 C151 C 0.32683 1.02992 0.63716
 C152 C 0.35872 0.97740 0.67777
 C153 C 0.32288 0.97802 0.64011
 C154 C 0.36272 1.02955 0.67454
 O155 O 0.65537 1.01505 0.37312
 O156 O 0.62882 0.97609 0.34510
 O157 O 0.65691 0.97614 0.37163
 O158 O 0.62765 1.01519 0.34616
 O159 O 0.65054 1.01676 0.32292
 O160 O 0.67970 0.97792 0.34831
 O161 O 0.65170 0.97766 0.32186
 O162 O 0.67822 1.01673 0.34989
 Cu163 Cu 0.63987 0.99546 0.36131
 Cu164 Cu 0.66728 0.99746 0.33338
 C165 C 0.67149 1.02242 0.36647
 C166 C 0.63570 0.97019 0.32869
 C167 C 0.67343 0.97049 0.36439
 C168 C 0.63409 1.02261 0.33012
 C169 C 0.80956 0.80584 0.51266
 C170 C 0.80998 0.80706 0.49261
 C171 C 0.82410 0.79509 0.48052
 C172 C 0.79683 0.82115 0.48176
 C173 C 0.79499 0.81753 0.52450
 C174 C 0.82419 0.79361 0.52384
 C175 C 0.83617 0.80487 0.46662
 C176 C 0.84996 0.79407 0.45551
 C177 C 0.85201 0.77321 0.45804
 C178 C 0.83953 0.76333 0.47162
 C179 C 0.82561 0.77415 0.48265
 C180 C 0.79754 0.84188 0.48544
 C181 C 0.78485 0.85496 0.47540
 C182 C 0.77131 0.84756 0.46140
 C183 C 0.77090 0.82683 0.45751
 C184 C 0.78363 0.81377 0.46753
 C185 C 0.77444 0.81628 0.52082
 C186 C 0.76112 0.82851 0.53111
 C187 C 0.76807 0.84192 0.54552
 C188 C 0.78854 0.84253 0.54971
 C189 C 0.80186 0.83045 0.53931
 C190 C 0.81743 0.77936 0.53753
 C191 C 0.83097 0.76791 0.54835
 C192 C 0.85158 0.77058 0.54577
 C193 C 0.85832 0.78501 0.53216
 C194 C 0.84475 0.79652 0.52140
 H195 H 0.83513 0.82097 0.46458
 H196 H 0.85897 0.80209 0.44486
 H197 H 0.84078 0.74730 0.47398
 H198 H 0.81616 0.76622 0.49300
 H199 H 0.80786 0.84789 0.49618
 H200 H 0.78543 0.87083 0.47880
 H201 H 0.78302 0.79784 0.46437
 H202 H 0.76878 0.80608 0.50976
 H203 H 0.74539 0.82750 0.52781
 H204 H 0.79434 0.85283 0.56062
 H205 H 0.81763 0.83161 0.54242
 H206 H 0.80162 0.77699 0.53971
 H207 H 0.82533 0.75680 0.55860
 H208 H 0.87409 0.78767 0.53012
 H209 H 0.85028 0.80779 0.51126
 H210 H 0.76086 0.82075 0.44658
 C211 C 0.18834 0.18948 0.50665
 C212 C 0.18789 0.19048 0.48661
 C213 C 0.17330 0.20332 0.47609
 C214 C 0.20128 0.17806 0.47419
 C215 C 0.20102 0.17471 0.51715
 C216 C 0.17515 0.20211 0.51911
 C217 C 0.15277 0.20093 0.47917
 C218 C 0.13921 0.21353 0.46968
 C219 C 0.14593 0.22863 0.45678
 C220 C 0.16649 0.23065 0.45337
 C221 C 0.18003 0.21803 0.46287
 C222 C 0.19306 0.16545 0.45982
 C223 C 0.20527 0.15304 0.44853
 C224 C 0.22602 0.15309 0.45127
 C225 C 0.23428 0.16604 0.46542
 C226 C 0.22202 0.17849 0.47671
 C227 C 0.21443 0.18133 0.53155
 C228 C 0.22584 0.16753 0.54214
 C229 C 0.22387 0.14681 0.53866
 C230 C 0.21039 0.14022 0.52423
 C231 C 0.19901 0.15404 0.51362
 C232 C 0.17443 0.22307 0.51684
 C233 C 0.16093 0.23448 0.52779
 C234 C 0.14814 0.22517 0.54147
 C235 C 0.14956 0.20429 0.54429
 C236 C 0.16289 0.19291 0.53321
 H237 H 0.14729 0.18943 0.48909
 H238 H 0.12349 0.21169 0.47271
 H239 H 0.17208 0.24190 0.44325
 H240 H 0.19582 0.21994 0.46016
 H241 H 0.17710 0.16487 0.45766
 H242 H 0.19841 0.14306 0.43796
 H243 H 0.22869 0.18839 0.48750
 H244 H 0.21599 0.19722 0.53462
 H245 H 0.23586 0.17304 0.55339
 H246 H 0.20865 0.12436 0.52115
 H247 H 0.18846 0.14861 0.50282
 H248 H 0.18405 0.23054 0.50632
 H249 H 0.16018 0.25051 0.52520
 H250 H 0.14031 0.19671 0.55504
 H251 H 0.16333 0.17679 0.53536
 H252 H 0.25022 0.16663 0.46766
 C253 C 0.19042 0.81125 0.49053
 C254 C 0.19023 0.81257 0.51055
 C255 C 0.17688 0.79994 0.52286
 C256 C 0.20310 0.82704 0.52124
 C257 C 0.20460 0.82315 0.47838
 C258 C 0.17603 0.79836 0.47978
 C259 C 0.16387 0.80914 0.53622
 C260 C 0.15111 0.79755 0.54784
 C261 C 0.15123 0.77648 0.54647
 C262 C 0.16448 0.76727 0.53322
 C263 C 0.17724 0.77890 0.52157
 C264 C 0.20210 0.84772 0.51730
 C265 C 0.21440 0.86113 0.52739
 C266 C 0.22782 0.85411 0.54171
 C267 C 0.22855 0.83343 0.54581
 C268 C 0.21623 0.82004 0.53574
 C269 C 0.22518 0.82246 0.48192
 C270 C 0.23816 0.83485 0.47132
 C271 C 0.23083 0.84788 0.45673
 C272 C 0.21032 0.84791 0.45266
 C273 C 0.19734 0.83565 0.46337
 C274 C 0.18299 0.78389 0.46650
 C275 C 0.16962 0.77152 0.45646
 C276 C 0.14900 0.77351 0.45940
 C277 C 0.14205 0.78828 0.47248
 C278 C 0.15544 0.80065 0.48250
 H279 H 0.16338 0.82535 0.53743
 H280 H 0.14090 0.80513 0.55767
 H281 H 0.16514 0.75107 0.53205
 H282 H 0.18745 0.77150 0.51160
 H283 H 0.19183 0.85343 0.50637
 H284 H 0.21360 0.87697 0.52383
 H285 H 0.21706 0.80415 0.53910
 H286 H 0.23115 0.81257 0.49312
 H287 H 0.25393 0.83426 0.47453
 H288 H 0.20424 0.85789 0.44160
 H289 H 0.18153 0.83635 0.46034
 H290 H 0.19882 0.78204 0.46406
 H291 H 0.17541 0.76052 0.44623
 H292 H 0.12627 0.79010 0.47517
 H293 H 0.14975 0.81199 0.49242
 H294 H 0.23850 0.82762 0.55698
 C295 C 0.81351 0.18356 0.49029
 C296 C 0.81466 0.18348 0.51032
 C297 C 0.82948 0.19605 0.52088
 C298 C 0.80197 0.17012 0.52265
 C299 C 0.80037 0.16955 0.47931
 C300 C 0.82606 0.19712 0.47811
 C301 C 0.84993 0.19398 0.51714
 C302 C 0.86375 0.20581 0.52722
 C303 C 0.85740 0.21982 0.54135
 C304 C 0.83691 0.22169 0.54520
 C305 C 0.82310 0.20983 0.53513
 C306 C 0.81092 0.15758 0.53669
 C307 C 0.79944 0.14430 0.54785
 C308 C 0.77871 0.14320 0.54521
 C309 C 0.76967 0.15620 0.53154
 C310 C 0.78117 0.16964 0.52048
 C311 C 0.78684 0.17723 0.46553
 C312 C 0.77503 0.16428 0.45437
 C313 C 0.77662 0.14336 0.45667
 C314 C 0.79018 0.13568 0.47054
 C315 C 0.80204 0.14866 0.48167
 C316 C 0.82548 0.21805 0.48053
 C317 C 0.83755 0.23050 0.46895
 C318 C 0.85029 0.22222 0.45466
 C319 C 0.85066 0.20126 0.45221
 C320 C 0.83861 0.18887 0.46375
 H321 H 0.85517 0.18318 0.50643
 H322 H 0.87941 0.20411 0.52385
 H323 H 0.83158 0.23210 0.55623
 H324 H 0.80739 0.21147 0.53835
 H325 H 0.82690 0.15783 0.53878
 H326 H 0.80684 0.13487 0.55858
 H327 H 0.77389 0.17947 0.51003
 H328 H 0.78543 0.19329 0.46343
 H329 H 0.76457 0.17066 0.44398
 H330 H 0.79198 0.11964 0.47241
 H331 H 0.81273 0.14243 0.49191
 H332 H 0.81564 0.22471 0.49132
 H333 H 0.83674 0.24660 0.47100
 H334 H 0.86053 0.19438 0.44158
 H335 H 0.83929 0.17275 0.46168
 H336 H 0.75376 0.15570 0.52909
 C337 C 0.50627 0.81118 0.81293
 C338 C 0.48612 0.81315 0.81435
 C339 C 0.47498 0.82822 0.80263
 C340 C 0.47435 0.80043 0.82799
 C341 C 0.51746 0.79784 0.82652
 C342 C 0.51813 0.82269 0.79825
 C343 C 0.48007 0.84866 0.80336
 C344 C 0.47010 0.86258 0.79155
 C345 C 0.45472 0.85633 0.77892
 C346 C 0.44930 0.83592 0.77866
 C347 C 0.45929 0.82202 0.79048
 C348 C 0.46416 0.80930 0.84375
 C349 C 0.45421 0.79732 0.85751
 C350 C 0.45392 0.77634 0.85544
 C351 C 0.46355 0.76753 0.83927
 C352 C 0.47381 0.77950 0.82569
 C353 C 0.52984 0.78277 0.81894
 C354 C 0.54025 0.77003 0.83165
 C355 C 0.53850 0.77221 0.85216
 C356 C 0.52636 0.78757 0.85968
 C357 C 0.51606 0.80036 0.84698
 C358 C 0.51311 0.82256 0.77818
 C359 C 0.52371 0.83440 0.76477
 C360 C 0.53978 0.84626 0.77113
 C361 C 0.54523 0.84578 0.79109
 C362 C 0.53451 0.83411 0.80451
 H363 H 0.49189 0.85379 0.81296
 H364 H 0.47436 0.87824 0.79236
 H365 H 0.43766 0.83060 0.76897
 H366 H 0.45512 0.80632 0.78977
 H367 H 0.46443 0.82544 0.84570
 H368 H 0.44674 0.80442 0.86980
 H369 H 0.48153 0.77245 0.81353
 H370 H 0.53121 0.78071 0.80319
 H371 H 0.54940 0.75825 0.82544
 H372 H 0.52504 0.78986 0.87541
 H373 H 0.50702 0.81226 0.85311
 H374 H 0.50083 0.81347 0.77295
 H375 H 0.51940 0.83424 0.74942
 H376 H 0.55745 0.85489 0.79642
 H377 H 0.53869 0.83437 0.81990
 H378 H 0.46357 0.75138 0.83744
 C379 C 0.51321 0.18815 0.18916
 C380 C 0.49293 0.18813 0.18893
 C381 C 0.48129 0.17562 0.20287
 C382 C 0.48124 0.20004 0.17451
 C383 C 0.52513 0.20109 0.17571
 C384 C 0.52448 0.17443 0.20232
 C385 C 0.46916 0.16018 0.19561
 C386 C 0.45846 0.14794 0.20854
 C387 C 0.45940 0.15122 0.22893
 C388 C 0.47123 0.16698 0.23617
 C389 C 0.48221 0.17902 0.22323
 C390 C 0.48428 0.19791 0.15417
 C391 C 0.47295 0.20908 0.14081
 C392 C 0.45819 0.22236 0.14756
 C393 C 0.45505 0.22425 0.16793
 C394 C 0.46642 0.21316 0.18125
 C395 C 0.52176 0.22186 0.17436
 C396 C 0.53245 0.23354 0.16085
 C397 C 0.54692 0.22472 0.14864
 C398 C 0.55075 0.20405 0.15061
 C399 C 0.53998 0.19238 0.16398
 C400 C 0.53842 0.18227 0.21561
 C401 C 0.54929 0.16946 0.22787
 C402 C 0.54651 0.14854 0.22696
 C403 C 0.53265 0.14073 0.21348
 C404 C 0.52183 0.15354 0.20121
 H405 H 0.46825 0.15742 0.17992
 H406 H 0.44928 0.13601 0.20262
 H407 H 0.47219 0.16974 0.25185
 H408 H 0.49141 0.19100 0.22903
 H409 H 0.49533 0.18752 0.14864
 H410 H 0.47548 0.20705 0.12520
 H411 H 0.46378 0.21494 0.19688
 H412 H 0.51066 0.22898 0.18356
 H413 H 0.52907 0.24939 0.15967
 H414 H 0.56212 0.19685 0.14179
 H415 H 0.54299 0.17643 0.16492
 H416 H 0.54075 0.19834 0.21657
 H417 H 0.55974 0.17594 0.23819
 H418 H 0.53046 0.12468 0.21214
 H419 H 0.51151 0.14716 0.19069
 H420 H 0.44394 0.23451 0.17358
 C421 C 0.49338 0.18599 0.81612
 C422 C 0.51358 0.18757 0.81480
 C423 C 0.52553 0.17356 0.80256
 C424 C 0.52477 0.20286 0.82629
 C425 C 0.48186 0.19786 0.83070
 C426 C 0.48178 0.17189 0.80361
 C427 C 0.52382 0.15268 0.80499
 C428 C 0.53507 0.13964 0.79336
 C429 C 0.54843 0.14723 0.77924
 C430 C 0.55037 0.16816 0.77710
 C431 C 0.53907 0.18118 0.78870
 C432 C 0.54043 0.19683 0.83859
 C433 C 0.55018 0.21081 0.85048
 C434 C 0.54446 0.23111 0.85028
 C435 C 0.52921 0.23725 0.83747
 C436 C 0.51957 0.22327 0.82545
 C437 C 0.46620 0.21018 0.82438
 C438 C 0.45524 0.22136 0.83797
 C439 C 0.45961 0.22023 0.85818
 C440 C 0.47514 0.20764 0.86449
 C441 C 0.48611 0.19650 0.85088
 C442 C 0.48403 0.17168 0.78305
 C443 C 0.47316 0.15813 0.77159
 C444 C 0.45961 0.14475 0.78043
 C445 C 0.45707 0.14536 0.80097
 C446 C 0.46804 0.15877 0.81241
 H447 H 0.51382 0.14649 0.81595
 H448 H 0.53353 0.12361 0.79562
 H449 H 0.56043 0.17445 0.76625
 H450 H 0.54069 0.19725 0.78670
 H451 H 0.54471 0.18117 0.83942
 H452 H 0.56177 0.20562 0.86031
 H453 H 0.50783 0.22832 0.81573
 H454 H 0.46258 0.21125 0.80888
 H455 H 0.44316 0.23067 0.83271
 H456 H 0.47892 0.20656 0.87995
 H457 H 0.49793 0.18681 0.85607
 H458 H 0.49425 0.18195 0.77589
 H459 H 0.47555 0.15798 0.75583
 H460 H 0.44645 0.13560 0.80822
 H461 H 0.46591 0.15880 0.82822
 H462 H 0.52474 0.25285 0.83678
 C463 C 0.48951 0.81684 0.18188
 C464 C 0.50973 0.81614 0.18039
 C465 C 0.52281 0.82814 0.19352
 C466 C 0.51982 0.80391 0.16511
 C467 C 0.47645 0.80408 0.16944
 C468 C 0.47941 0.83081 0.19566
 C469 C 0.53672 0.84144 0.18527
 C470 C 0.54870 0.85332 0.19735
 C471 C 0.54715 0.85201 0.21795
 C472 C 0.53347 0.83835 0.22619
 C473 C 0.52148 0.82645 0.21408
 C474 C 0.51566 0.80675 0.14505
 C475 C 0.52556 0.79539 0.13080
 C476 C 0.53989 0.78109 0.13636
 C477 C 0.54410 0.77841 0.15646
 C478 C 0.53422 0.78978 0.17068
 C479 C 0.47857 0.78311 0.16910
 C480 C 0.46649 0.77140 0.15690
 C481 C 0.45194 0.78045 0.14493
 C482 C 0.44964 0.80143 0.14562
 C483 C 0.46171 0.81310 0.15781
 C484 C 0.46586 0.82328 0.20954
 C485 C 0.45637 0.83623 0.22270
 C486 C 0.46017 0.85700 0.22211
 C487 C 0.47355 0.86454 0.20797
 C488 C 0.48299 0.85157 0.19479
 H489 H 0.53797 0.84296 0.16944
 H490 H 0.55888 0.86387 0.19053
 H491 H 0.53215 0.83676 0.24200
 H492 H 0.51109 0.81599 0.22072
 H493 H 0.50484 0.81784 0.14044
 H494 H 0.52193 0.79772 0.11544
 H495 H 0.53776 0.78754 0.18608
 H496 H 0.48961 0.77583 0.17826
 H497 H 0.46841 0.75526 0.15694
 H498 H 0.43878 0.80890 0.13641
 H499 H 0.45983 0.82925 0.15787
 H500 H 0.46285 0.80731 0.21037
 H501 H 0.44629 0.82995 0.23353
 H502 H 0.47649 0.88049 0.20691
 H503 H 0.49306 0.85773 0.18388
 H504 H 0.55530 0.76777 0.16118
 C505 C 0.81637 0.50879 0.81498
 C506 C 0.81647 0.48835 0.81376
 C507 C 0.80326 0.47577 0.82626
 C508 C 0.83025 0.47743 0.80046
 C509 C 0.82901 0.52152 0.80204
 C510 C 0.80388 0.51945 0.82967
 C511 C 0.81164 0.46121 0.83865
 C512 C 0.79957 0.44971 0.85104
 C513 C 0.77881 0.45241 0.85116
 C514 C 0.77039 0.46674 0.83841
 C515 C 0.78251 0.47825 0.82600
 C516 C 0.85092 0.48035 0.80154
 C517 C 0.86371 0.46950 0.78930
 C518 C 0.85606 0.45534 0.77594
 C519 C 0.83536 0.45240 0.77499
 C520 C 0.82260 0.46329 0.78718
 C521 C 0.82810 0.51989 0.78145
 C522 C 0.84046 0.53172 0.76956
 C523 C 0.85378 0.54553 0.77804
 C524 C 0.85434 0.54735 0.79865
 C525 C 0.84203 0.53553 0.81050
 C526 C 0.79012 0.53389 0.82334
 C527 C 0.77799 0.54375 0.83693
 C528 C 0.77949 0.53944 0.85715
 C529 C 0.79357 0.52522 0.86348
 C530 C 0.80574 0.51540 0.84987
 H531 H 0.82761 0.45907 0.83905
 H532 H 0.80654 0.43901 0.86086
 H533 H 0.75444 0.46895 0.83795
 H534 H 0.77574 0.48917 0.81627
 H535 H 0.85715 0.49084 0.81203
 H536 H 0.87960 0.47184 0.79061
 H537 H 0.80670 0.46075 0.78621
 H538 H 0.81786 0.50945 0.77462
 H539 H 0.83946 0.53020 0.75373
 H540 H 0.86462 0.55764 0.80565
 H541 H 0.84293 0.53702 0.82635
 H542 H 0.78855 0.53726 0.80782
 H543 H 0.76716 0.55448 0.83159
 H544 H 0.79532 0.52185 0.87898
 H545 H 0.81659 0.50462 0.85507
 H546 H 0.82902 0.44176 0.76471
 C547 C 0.18236 0.50787 0.18394
 C548 C 0.18258 0.48740 0.18307
 C549 C 0.19482 0.47640 0.16844
 C550 C 0.17001 0.47488 0.19628
 C551 C 0.16868 0.51874 0.19740
 C552 C 0.19510 0.52047 0.17091
 C553 C 0.19259 0.47986 0.14817
 C554 C 0.20424 0.46934 0.13460
 C555 C 0.21822 0.45507 0.14107
 C556 C 0.22017 0.45145 0.16137
 C557 C 0.20851 0.46196 0.17490
 C558 C 0.15656 0.46114 0.18807
 C559 C 0.14415 0.44967 0.20015
 C560 C 0.14504 0.45157 0.22074
 C561 C 0.15881 0.46510 0.22896
 C562 C 0.17126 0.47659 0.21684
 C563 C 0.17641 0.53249 0.21102
 C564 C 0.16373 0.54277 0.22382
 C565 C 0.14305 0.53958 0.22314
 C566 C 0.13532 0.52601 0.20926
 C567 C 0.14801 0.51578 0.19643
 C568 C 0.21575 0.51745 0.16962
 C569 C 0.22722 0.52874 0.15643
 C570 C 0.21831 0.54352 0.14453
 C571 C 0.19777 0.54703 0.14649
 C572 C 0.18631 0.53563 0.15951
 H573 H 0.18185 0.49071 0.14288
 H574 H 0.20248 0.47253 0.11907
 H575 H 0.23053 0.44030 0.16678
 H576 H 0.21028 0.45893 0.19047
 H577 H 0.15537 0.45961 0.17224
 H578 H 0.13353 0.43961 0.19333
 H579 H 0.18180 0.48686 0.22347
 H580 H 0.19231 0.53505 0.21189
 H581 H 0.17015 0.55297 0.23446
 H582 H 0.11943 0.52352 0.20813
 H583 H 0.14172 0.50558 0.18570
 H584 H 0.22293 0.50613 0.17860
 H585 H 0.24298 0.52558 0.15526
 H586 H 0.19050 0.55863 0.13794
 H587 H 0.17045 0.53839 0.16042
 H588 H 0.16006 0.46669 0.24477
 C589 C 0.80964 0.49399 0.18838
 C590 C 0.81043 0.51444 0.18862
 C591 C 0.79762 0.52691 0.17566
 C592 C 0.82480 0.52546 0.20120
 C593 C 0.82234 0.48161 0.20153
 C594 C 0.79680 0.48289 0.17433
 C595 C 0.80649 0.54099 0.16302
 C596 C 0.79483 0.55262 0.15043
 C597 C 0.77401 0.55052 0.15032
 C598 C 0.76510 0.53659 0.16320
 C599 C 0.77681 0.52495 0.17584
 C600 C 0.84536 0.52217 0.19946
 C601 C 0.85875 0.53302 0.21105
 C602 C 0.85182 0.54752 0.22443
 C603 C 0.83121 0.55082 0.22604
 C604 C 0.81785 0.53995 0.21446
 C605 C 0.82186 0.48401 0.22206
 C606 C 0.83441 0.47260 0.23410
 C607 C 0.84749 0.45846 0.22582
 C608 C 0.84765 0.45590 0.20528
 C609 C 0.83514 0.46730 0.19329
 C610 C 0.78318 0.46863 0.18142
 C611 C 0.77135 0.45769 0.16838
 C612 C 0.77302 0.46068 0.14796
 C613 C 0.78676 0.47493 0.14088
 C614 C 0.79863 0.48584 0.15394
 H615 H 0.82252 0.54271 0.16264
 H616 H 0.80217 0.56299 0.14049
 H617 H 0.74908 0.53484 0.16363
 H618 H 0.76966 0.51442 0.18575
 H619 H 0.85104 0.51136 0.18897
 H620 H 0.87454 0.53040 0.20922
 H621 H 0.80204 0.54275 0.21592
 H622 H 0.81184 0.49476 0.22872
 H623 H 0.83375 0.47470 0.24989
 H624 H 0.85775 0.44537 0.19841
 H625 H 0.83575 0.46524 0.17749
 H626 H 0.78165 0.46607 0.19710
 H627 H 0.76077 0.44697 0.17429
 H628 H 0.78865 0.47731 0.12522
 H629 H 0.80940 0.49644 0.14815
 H630 H 0.82541 0.56173 0.23635
 C631 C 0.18680 0.48550 0.81513
 C632 C 0.18721 0.50596 0.81400
 C633 C 0.20141 0.51808 0.82587
 C634 C 0.17303 0.51710 0.80125
 C635 C 0.17403 0.47329 0.80190
 C636 C 0.19859 0.47434 0.83004
 C637 C 0.19432 0.53378 0.83769
 C638 C 0.20734 0.54448 0.84981
 C639 C 0.22771 0.53971 0.85031
 C640 C 0.23488 0.52442 0.83798
 C641 C 0.22189 0.51382 0.82574
 C642 C 0.15242 0.51415 0.80316
 C643 C 0.13921 0.52394 0.79053
 C644 C 0.14633 0.53708 0.77590
 C645 C 0.16695 0.54047 0.77443
 C646 C 0.18017 0.53061 0.78704
 C647 C 0.17533 0.47528 0.78136
 C648 C 0.16272 0.46422 0.76911
 C649 C 0.14870 0.45082 0.77719
 C650 C 0.14776 0.44857 0.79775
 C651 C 0.16035 0.45963 0.80997
 C652 C 0.21162 0.45909 0.82405
 C653 C 0.22282 0.44853 0.83794
 C654 C 0.22104 0.45289 0.85810
 C655 C 0.20773 0.46798 0.86408
 C656 C 0.19656 0.47857 0.85018
 H657 H 0.17860 0.53737 0.83796
 H658 H 0.20136 0.55611 0.85925
 H659 H 0.25056 0.52067 0.83779
 H660 H 0.22775 0.50210 0.81636
 H661 H 0.14659 0.50413 0.81434
 H662 H 0.12340 0.52134 0.79229
 H663 H 0.19602 0.53315 0.78542
 H664 H 0.18606 0.48547 0.77483
 H665 H 0.16403 0.46604 0.75333
 H666 H 0.13697 0.43857 0.80444
 H667 H 0.15913 0.45788 0.82578
 H668 H 0.21323 0.45549 0.80859
 H669 H 0.23272 0.43677 0.83292
 H670 H 0.20612 0.47174 0.87950
 H671 H 0.18633 0.49007 0.85511
 H672 H 0.17290 0.55040 0.76323
 C673 C 0.32685 0.39462 0.04951
 C674 C 0.31570 0.40545 0.06326
 C675 C 0.29701 0.39847 0.06949
 C676 C 0.28994 0.38004 0.06216
 C677 C 0.30110 0.36919 0.04846
 C678 C 0.31961 0.37643 0.04186
 C679 C 0.28560 0.41050 0.08396
 C680 C 0.26569 0.40976 0.08547
 C681 C 0.25411 0.42188 0.09976
 C682 C 0.23391 0.42555 0.09593
 C683 C 0.22231 0.43649 0.10920
 C684 C 0.23063 0.44385 0.12673
 C685 C 0.25083 0.44009 0.13064
 C686 C 0.26244 0.42918 0.11735
 H687 H 0.34109 0.40058 0.04481
 H688 H 0.32160 0.41948 0.06885
 H689 H 0.27593 0.37379 0.06712
 H690 H 0.29517 0.35513 0.04299
 H691 H 0.29390 0.42107 0.09283
 H692 H 0.25730 0.40063 0.07524
 H693 H 0.22706 0.41991 0.08260
 H694 H 0.20672 0.43886 0.10591
 H695 H 0.25769 0.44565 0.14398
 H696 H 0.27778 0.42621 0.12116
 C697 C 0.67599 0.60753 0.04585
 C698 C 0.68546 0.59709 0.06105
 C699 C 0.70154 0.60570 0.07119
 C700 C 0.70760 0.62531 0.06613
 C701 C 0.69818 0.63571 0.05089
 C702 C 0.68236 0.62690 0.04050
 C703 C 0.71132 0.59382 0.08696
 C704 C 0.72980 0.59754 0.09353
 C705 C 0.73994 0.58535 0.10879
 C706 C 0.75583 0.59404 0.11913
 C707 C 0.76656 0.58289 0.13291
 C708 C 0.76178 0.56267 0.13655
 C709 C 0.74575 0.55397 0.12637
 C710 C 0.73497 0.56515 0.11258
 H711 H 0.66378 0.60035 0.03820
 H712 H 0.68036 0.58211 0.06474
 H713 H 0.71938 0.63289 0.07399
 H714 H 0.70326 0.65072 0.04731
 H715 H 0.70302 0.58130 0.09297
 H716 H 0.73816 0.61004 0.08758
 H717 H 0.76001 0.60953 0.11646
 H718 H 0.77867 0.59010 0.14070
 H719 H 0.74196 0.53831 0.12858
 H720 H 0.72326 0.55766 0.10451
 C721 C 0.67522 0.39732 0.95165
 C722 C 0.68574 0.40736 0.93684
 C723 C 0.70298 0.39894 0.92860
 C724 C 0.70923 0.37990 0.93526
 C725 C 0.69878 0.36992 0.95014
 C726 C 0.68172 0.37854 0.95857
 C727 C 0.71372 0.41044 0.91310
 C728 C 0.73242 0.40649 0.90732
 C729 C 0.74323 0.41841 0.89226
 C730 C 0.75904 0.40933 0.88215
 C731 C 0.77029 0.42022 0.86852
 C732 C 0.76613 0.44056 0.86484
 C733 C 0.75023 0.44966 0.87489
 C734 C 0.73892 0.43874 0.88849
 H735 H 0.66209 0.40435 0.95780
 H736 H 0.68046 0.42190 0.93193
 H737 H 0.72199 0.37241 0.92898
 H738 H 0.70402 0.35535 0.95497
 H739 H 0.70584 0.42288 0.90645
 H740 H 0.74042 0.39399 0.91365
 H741 H 0.76272 0.39372 0.88483
 H742 H 0.78228 0.41269 0.86085
 H743 H 0.74692 0.46542 0.87269
 H744 H 0.72730 0.44650 0.89645
 C745 C 0.29015 0.63341 0.95518
 C746 C 0.27918 0.62360 0.94062
 C747 C 0.28727 0.60731 0.93026
 C748 C 0.30684 0.60116 0.93471
 C749 C 0.31778 0.61092 0.94939
 C750 C 0.30956 0.62716 0.95976
 C751 C 0.27487 0.59764 0.91482
 C752 C 0.27898 0.57986 0.90645
 C753 C 0.26597 0.57018 0.89153
 C754 C 0.26761 0.54938 0.88859
 C755 C 0.25540 0.53954 0.87503
 C756 C 0.24128 0.55031 0.86404
 C757 C 0.23992 0.57119 0.86660
 C758 C 0.25221 0.58107 0.88008
 H759 H 0.28337 0.64589 0.96287
 H760 H 0.26423 0.62877 0.93748
 H761 H 0.31398 0.58909 0.92682
 H762 H 0.33278 0.60588 0.95244
 H763 H 0.26124 0.60529 0.91092
 H764 H 0.29173 0.57134 0.91134
 H765 H 0.27818 0.54064 0.89705
 H766 H 0.25669 0.52341 0.87347
 H767 H 0.22945 0.57992 0.85802
 H768 H 0.25097 0.59720 0.88124
 C769 C 0.04148 0.29696 0.36679
 C770 C 0.05503 0.28465 0.37663
 C771 C 0.06326 0.29058 0.39468
 C772 C 0.05746 0.30910 0.40283
 C773 C 0.04386 0.32143 0.39298
 C774 C 0.03569 0.31547 0.37487
 C775 C 0.07713 0.27664 0.40475
 C776 C 0.09035 0.28241 0.41842
 C777 C 0.10429 0.26826 0.42812
 C778 C 0.12217 0.27574 0.43588
 C779 C 0.13571 0.26289 0.44511
 C780 C 0.13156 0.24228 0.44695
 C781 C 0.11351 0.23483 0.43948
 C782 C 0.09999 0.24767 0.43022
 H783 H 0.03543 0.29187 0.35290
 H784 H 0.05911 0.27041 0.37008
 H785 H 0.06297 0.31397 0.41699
 H786 H 0.03956 0.33553 0.39968
 H787 H 0.07700 0.26116 0.39992
 H788 H 0.09188 0.29817 0.42195
 H789 H 0.12573 0.29157 0.43469
 H790 H 0.14932 0.26914 0.45104
 H791 H 0.10991 0.21902 0.44064
 H792 H 0.08609 0.24141 0.42503
 C793 C 0.05222 0.67294 0.60647
 C794 C 0.06691 0.68337 0.59605
 C795 C 0.07487 0.70137 0.60339
 C796 C 0.06810 0.70846 0.62174
 C797 C 0.05335 0.69806 0.63213
 C798 C 0.04517 0.68026 0.62456
 C799 C 0.09021 0.71198 0.59150
 C800 C 0.09533 0.73128 0.59413
 C801 C 0.11021 0.74191 0.58179
 C802 C 0.11992 0.75874 0.58966
 C803 C 0.13347 0.76972 0.57833
 C804 C 0.13746 0.76426 0.55875
 C805 C 0.12777 0.74739 0.55084
 C806 C 0.11425 0.73634 0.56220
 H807 H 0.04628 0.65922 0.60026
 H808 H 0.07192 0.67745 0.58206
 H809 H 0.07421 0.72185 0.62837
 H810 H 0.04841 0.70397 0.64615
 H811 H 0.09726 0.70347 0.57987
 H812 H 0.08856 0.73991 0.60580
 H813 H 0.11703 0.76340 0.60466
 H814 H 0.14088 0.78249 0.58495
 H815 H 0.13020 0.74305 0.53568
 H816 H 0.10658 0.72390 0.55535
 C817 C 0.95030 0.67324 0.39179
 C818 C 0.93533 0.68255 0.40279
 C819 C 0.92840 0.70170 0.39760
 C820 C 0.93629 0.71113 0.38075
 C821 C 0.95114 0.70178 0.36967
 C822 C 0.95844 0.68280 0.37515
 C823 C 0.91274 0.71126 0.40975
 C824 C 0.91124 0.73123 0.41174
 C825 C 0.89600 0.74116 0.42412
 C826 C 0.90007 0.76037 0.43153
 C827 C 0.88593 0.77059 0.44276
 C828 C 0.86721 0.76195 0.44660
 C829 C 0.86311 0.74268 0.43917
 C830 C 0.87734 0.73238 0.42802
 H831 H 0.95550 0.65856 0.39632
 H832 H 0.92934 0.67489 0.41558
 H833 H 0.93085 0.72562 0.37593
 H834 H 0.95698 0.70947 0.35685
 H835 H 0.90303 0.70150 0.41817
 H836 H 0.92227 0.74082 0.40485
 H837 H 0.91431 0.76748 0.42870
 H838 H 0.88973 0.78525 0.44852
 H839 H 0.84871 0.73575 0.44155
 H840 H 0.87345 0.71784 0.42207
 C841 C 0.95219 0.32809 0.60028
 C842 C 0.93800 0.31721 0.58963
 C843 C 0.93137 0.29840 0.59632
 C844 C 0.93878 0.29094 0.61427
 C845 C 0.95291 0.30182 0.62493
 C846 C 0.95989 0.32045 0.61800
 C847 C 0.91643 0.28723 0.58456
 C848 C 0.91468 0.26715 0.58510
 C849 C 0.89993 0.25567 0.57337
 C850 C 0.90356 0.23527 0.56969
 C851 C 0.88987 0.22370 0.55916
 C852 C 0.87209 0.23224 0.55223
 C853 C 0.86835 0.25264 0.55603
 C854 C 0.88209 0.26424 0.56651
 H855 H 0.95717 0.34244 0.59458
 H856 H 0.93236 0.32340 0.57597
 H857 H 0.93352 0.27685 0.62030
 H858 H 0.95838 0.29559 0.63862
 H859 H 0.90739 0.29583 0.57442
 H860 H 0.92508 0.25849 0.59381
 H861 H 0.91707 0.22822 0.57499
 H862 H 0.89304 0.20795 0.55675
 H863 H 0.85481 0.25966 0.55081
 H864 H 0.87844 0.27975 0.56951
 C865 C 0.40062 0.04219 0.32165
 C866 C 0.41269 0.05562 0.31121
 C867 C 0.40434 0.06895 0.29752
 C868 C 0.38368 0.06847 0.29426
 C869 C 0.37166 0.05480 0.30443
 C870 C 0.38001 0.04151 0.31821
 C871 C 0.41762 0.08222 0.28598
 C872 C 0.41210 0.10047 0.27972
 C873 C 0.42509 0.11322 0.26731
 C874 C 0.42400 0.13419 0.26904
 C875 C 0.43554 0.14658 0.25691
 C876 C 0.44799 0.13819 0.24251
 C877 C 0.44901 0.11721 0.24070
 C878 C 0.43774 0.10483 0.25304
 H879 H 0.40749 0.03202 0.33207
 H880 H 0.42860 0.05559 0.31382
 H881 H 0.37687 0.07822 0.28343
 H882 H 0.35582 0.05456 0.30145
 H883 H 0.43261 0.07700 0.28312
 H884 H 0.39790 0.10658 0.28430
 H885 H 0.41420 0.14097 0.27981
 H886 H 0.43438 0.16273 0.25843
 H887 H 0.45851 0.11042 0.22968
 H888 H 0.43854 0.08873 0.25100
 C889 C 0.60584 0.04383 0.67934
 C890 C 0.59452 0.05763 0.69005
 C891 C 0.60174 0.06572 0.70773
 C892 C 0.62050 0.05949 0.71463
 C893 C 0.63181 0.04569 0.70393
 C894 C 0.62460 0.03767 0.68619
 C895 C 0.58895 0.07981 0.71894
 C896 C 0.59608 0.09303 0.73207
 C897 C 0.58331 0.10685 0.74361
 C898 C 0.59187 0.12429 0.75154
 C899 C 0.58054 0.13746 0.76296
 C900 C 0.56040 0.13337 0.76688
 C901 C 0.55184 0.11583 0.75909
 C902 C 0.56316 0.10268 0.74763
 H903 H 0.59981 0.03787 0.66577
 H904 H 0.58005 0.06201 0.68449
 H905 H 0.62635 0.06481 0.72850
 H906 H 0.64612 0.04111 0.70972
 H907 H 0.57320 0.07970 0.71561
 H908 H 0.61200 0.09448 0.73399
 H909 H 0.60741 0.12774 0.74889
 H910 H 0.58765 0.15068 0.76901
 H911 H 0.53633 0.11232 0.76179
 H912 H 0.55613 0.08911 0.74232
 C913 C 0.36003 0.95639 0.70836
 C914 C 0.36931 0.94208 0.72027
 C915 C 0.38721 0.93307 0.71437
 C916 C 0.39539 0.93829 0.69597
 C917 C 0.38610 0.95262 0.68404
 C918 C 0.36838 0.96191 0.69016
 C919 C 0.39651 0.91802 0.72759
 C920 C 0.41592 0.91333 0.72708
 C921 C 0.42531 0.89865 0.74065
 C922 C 0.44596 0.89966 0.74364
 C923 C 0.45547 0.88605 0.75615
 C924 C 0.44455 0.87099 0.76587
 C925 C 0.42390 0.86982 0.76273
 C926 C 0.41438 0.88343 0.75021
 H927 H 0.34635 0.96320 0.71349
 H928 H 0.36258 0.93820 0.73426
 H929 H 0.40878 0.93120 0.69054
 H930 H 0.39280 0.95639 0.67001
 H931 H 0.38709 0.91149 0.73883
 H932 H 0.42569 0.92126 0.71706
 H933 H 0.45477 0.91107 0.73629
 H934 H 0.47145 0.88711 0.75795
 H935 H 0.41506 0.85843 0.77006
 H936 H 0.39856 0.88168 0.74787
 C937 C 0.60641 0.94734 0.32394
 C938 C 0.59604 0.93294 0.31306
 C939 C 0.60385 0.92547 0.29535
 C940 C 0.62262 0.93242 0.28900
 C941 C 0.63295 0.94688 0.29986
 C942 C 0.62492 0.95459 0.31738
 C943 C 0.59199 0.91042 0.28424
 C944 C 0.59504 0.90591 0.26523
 C945 C 0.58265 0.89141 0.25407
 C946 C 0.59080 0.88235 0.23727
 C947 C 0.57943 0.86928 0.22578
 C948 C 0.55953 0.86513 0.23072
 C949 C 0.55135 0.87415 0.24757
 C950 C 0.56274 0.88720 0.25910
 H951 H 0.59982 0.95291 0.33742
 H952 H 0.58172 0.92777 0.31841
 H953 H 0.62960 0.92667 0.27585
 H954 H 0.64729 0.95198 0.29453
 H955 H 0.57999 0.90311 0.29212
 H956 H 0.60709 0.91295 0.25723
 H957 H 0.60606 0.88540 0.23301
 H958 H 0.58625 0.86240 0.21302
 H959 H 0.53593 0.87160 0.25152
 H960 H 0.55566 0.89439 0.27152
 C961 C 0.39676 0.32599 0.95157
 C962 C 0.40751 0.31535 0.93738
 C963 C 0.40118 0.29628 0.93123
 C964 C 0.38349 0.28827 0.93914
 C965 C 0.37271 0.29894 0.95327
 C966 C 0.37930 0.31785 0.95975
 C967 C 0.41308 0.28543 0.91627
 C968 C 0.41326 0.26534 0.91475
 C969 C 0.42541 0.25434 0.90010
 C970 C 0.43061 0.23433 0.90402
 C971 C 0.44182 0.22331 0.89051
 C972 C 0.44789 0.23201 0.87263
 C973 C 0.44250 0.25198 0.86857
 C974 C 0.43135 0.26304 0.88212
 H975 H 0.40218 0.34057 0.95616
 H976 H 0.42096 0.32194 0.93136
 H977 H 0.37775 0.27393 0.93428
 H978 H 0.35922 0.29232 0.95914
 H979 H 0.42283 0.29433 0.90703
 H980 H 0.40501 0.25641 0.92531
 H981 H 0.42603 0.22720 0.91765
 H982 H 0.44547 0.20785 0.89390
 H983 H 0.44702 0.25911 0.85494
 H984 H 0.42715 0.27822 0.87828
 C985 C 0.63821 0.70384 0.94656
 C986 C 0.62843 0.71474 0.93188
 C987 C 0.61025 0.70798 0.92420
 C988 C 0.60234 0.68966 0.93102
 C989 C 0.61215 0.67871 0.94565
 C990 C 0.63009 0.68578 0.95372
 C991 C 0.60012 0.72028 0.90903
 C992 C 0.58034 0.72009 0.90637
 C993 C 0.57001 0.73326 0.89205
 C994 C 0.55005 0.73830 0.89553
 C995 C 0.53982 0.75091 0.88258
 C996 C 0.54930 0.75856 0.86571
 C997 C 0.56915 0.75316 0.86196
 C998 C 0.57942 0.74062 0.87497
 H999 H 0.65207 0.70964 0.95237
 H1000 H 0.63494 0.72869 0.92673
 H1001 H 0.58870 0.68361 0.92499
 H1002 H 0.60560 0.66476 0.95071
 H1003 H 0.60919 0.73084 0.90084
 H1004 H 0.57110 0.71099 0.91593
 H1005 H 0.54239 0.73264 0.90845
 H1006 H 0.52443 0.75453 0.88567
 H1007 H 0.57683 0.75885 0.84909
 H1008 H 0.59460 0.73657 0.87146
 C1009 C 0.39069 0.67809 0.04637
 C1010 C 0.40170 0.68852 0.06051
 C1011 C 0.39390 0.70570 0.06964
 C1012 C 0.37454 0.71198 0.06459
 C1013 C 0.36357 0.70159 0.05039
 C1014 C 0.37154 0.68458 0.04106
 C1015 C 0.40636 0.71629 0.08444
 C1016 C 0.40296 0.73514 0.09060
 C1017 C 0.41573 0.74577 0.10503
 C1018 C 0.40752 0.76178 0.11569
 C1019 C 0.41915 0.77279 0.12888
 C1020 C 0.43937 0.76816 0.13156
 C1021 C 0.44762 0.75211 0.12092
 C1022 C 0.43597 0.74105 0.10776
 H1023 H 0.39725 0.66500 0.03951
 H1024 H 0.41648 0.68323 0.06419
 H1025 H 0.36757 0.72468 0.07164
 H1026 H 0.34876 0.70684 0.04681
 H1027 H 0.41901 0.70817 0.09021
 H1028 H 0.39028 0.74336 0.08508
 H1029 H 0.39201 0.76579 0.11382
 H1030 H 0.41227 0.78491 0.13701
 H1031 H 0.46325 0.74844 0.12235
 H1032 H 0.44307 0.72929 0.09936
 C1033 C 0.60635 0.33023 0.05178
 C1034 C 0.59603 0.31995 0.06660
 C1035 C 0.60262 0.30114 0.07321
 C1036 C 0.62016 0.29304 0.06516
 C1037 C 0.63056 0.30336 0.05046
 C1038 C 0.62370 0.32199 0.04349
 C1039 C 0.59118 0.29054 0.08874
 C1040 C 0.59064 0.27045 0.09017
 C1041 C 0.57897 0.25948 0.10527
 C1042 C 0.57290 0.23976 0.10122
 C1043 C 0.56233 0.22862 0.11518
 C1044 C 0.55782 0.23685 0.13370
 C1045 C 0.56395 0.25661 0.13781
 C1046 C 0.57444 0.26782 0.12376
 H1047 H 0.60076 0.34462 0.04684
 H1048 H 0.58268 0.32660 0.07272
 H1049 H 0.62607 0.27889 0.07035
 H1050 H 0.64396 0.29668 0.04450
 H1051 H 0.58204 0.29954 0.09843
 H1052 H 0.59821 0.26149 0.07918
 H1053 H 0.57625 0.23297 0.08712
 H1054 H 0.55756 0.21358 0.11139
 H1055 H 0.56104 0.26326 0.15205
 H1056 H 0.57939 0.28276 0.12763
 C1057 C 0.32542 0.05162 0.60697
 C1058 C 0.31568 0.06569 0.59511
 C1059 C 0.29715 0.07352 0.60073
 C1060 C 0.28885 0.06754 0.61884
 C1061 C 0.29861 0.05355 0.63073
 C1062 C 0.31691 0.04529 0.62485
 C1063 C 0.28711 0.08814 0.58763
 C1064 C 0.26727 0.09029 0.58711
 C1065 C 0.25687 0.10470 0.57404
 C1066 C 0.23681 0.10116 0.56946
 C1067 C 0.22621 0.11466 0.55774
 C1068 C 0.23539 0.13214 0.55049
 C1069 C 0.25547 0.13574 0.55510
 C1070 C 0.26611 0.12220 0.56678
 H1071 H 0.33956 0.04563 0.60208
 H1072 H 0.32249 0.07024 0.58134
 H1073 H 0.27495 0.07379 0.62401
 H1074 H 0.29174 0.04914 0.64450
 H1075 H 0.29634 0.09647 0.57741
 H1076 H 0.25804 0.08046 0.59597
 H1077 H 0.22929 0.08792 0.57504
 H1078 H 0.21066 0.11164 0.55472
 H1079 H 0.26295 0.14906 0.54967
 H1080 H 0.28138 0.12577 0.57042
 C1081 C 0.67504 0.04282 0.39620
 C1082 C 0.68603 0.05624 0.40768
 C1083 C 0.70424 0.06395 0.40092
 C1084 C 0.71132 0.05786 0.38237
 C1085 C 0.70034 0.04446 0.37085
 C1086 C 0.68210 0.03662 0.37765
 C1087 C 0.71574 0.07751 0.41401
 C1088 C 0.72981 0.09023 0.40752
 C1089 C 0.74140 0.10365 0.42064
 C1090 C 0.75029 0.12085 0.41253
 C1091 C 0.76163 0.13375 0.42423
 C1092 C 0.76448 0.12964 0.44432
 C1093 C 0.75580 0.11228 0.45243
 C1094 C 0.74442 0.09938 0.44073
 H1095 H 0.66111 0.03715 0.40204
 H1096 H 0.68030 0.06056 0.42196
 H1097 H 0.72557 0.06293 0.37683
 H1098 H 0.70640 0.03999 0.35674
 H1099 H 0.71180 0.07746 0.42946
 H1100 H 0.73245 0.09167 0.39187
 H1101 H 0.74844 0.12435 0.39706
 H1102 H 0.76842 0.14681 0.41746
 H1103 H 0.75771 0.10874 0.46788
 H1104 H 0.73836 0.08596 0.44743
 C1105 C 0.70608 0.95039 0.63559
 C1106 C 0.71691 0.93539 0.62606
 C1107 C 0.70873 0.92479 0.61013
 C1108 C 0.68924 0.92955 0.60402
 C1109 C 0.67845 0.94468 0.61349
 C1110 C 0.68673 0.95523 0.62940
 C1111 C 0.72103 0.90887 0.60079
 C1112 C 0.71630 0.89923 0.58407
 C1113 C 0.72930 0.88386 0.57482
 C1114 C 0.72711 0.87992 0.55464
 C1115 C 0.73942 0.86604 0.54519
 C1116 C 0.75418 0.85571 0.55576
 C1117 C 0.75601 0.85917 0.57607
 C1118 C 0.74363 0.87297 0.58554
 H1119 H 0.71290 0.95822 0.64781
 H1120 H 0.73181 0.93205 0.63119
 H1121 H 0.68204 0.92163 0.59214
 H1122 H 0.66349 0.94794 0.60849
 H1123 H 0.73510 0.90558 0.60781
 H1124 H 0.70301 0.90330 0.57609
 H1125 H 0.71608 0.88793 0.54606
 H1126 H 0.73775 0.86378 0.52950
 H1127 H 0.76697 0.85109 0.58466
 H1128 H 0.74529 0.87486 0.60126
 C1129 C 0.29456 0.95563 0.36555
 C1130 C 0.28316 0.94080 0.37485
 C1131 C 0.29108 0.92940 0.39039
 C1132 C 0.31089 0.93300 0.39623
 C1133 C 0.32222 0.94794 0.38703
 C1134 C 0.31419 0.95942 0.37160
 C1135 C 0.27830 0.91378 0.39967
 C1136 C 0.28221 0.90511 0.41711
 C1137 C 0.26906 0.88996 0.42662
 C1138 C 0.27120 0.88645 0.44689
 C1139 C 0.25900 0.87259 0.45660
 C1140 C 0.24438 0.86187 0.44623
 C1141 C 0.24248 0.86502 0.42587
 C1142 C 0.25476 0.87880 0.41611
 H1143 H 0.28794 0.96418 0.35367
 H1144 H 0.26804 0.93829 0.36991
 H1145 H 0.31792 0.92422 0.40765
 H1146 H 0.33740 0.95032 0.39187
 H1147 H 0.26465 0.91008 0.39208
 H1148 H 0.29500 0.90993 0.42550
 H1149 H 0.28217 0.89468 0.45534
 H1150 H 0.26069 0.87061 0.47234
 H1151 H 0.23159 0.85666 0.41744
 H1152 H 0.25307 0.88039 0.40037
 C1153 C 0.04957 0.39777 0.67158
 C1154 C 0.06410 0.40791 0.68245
 C1155 C 0.07269 0.39900 0.69915
 C1156 C 0.06679 0.37941 0.70444
 C1157 C 0.05221 0.36933 0.69363
 C1158 C 0.04335 0.37842 0.67716
 C1159 C 0.08787 0.41049 0.71037
 C1160 C 0.09271 0.40646 0.72913
 C1161 C 0.10761 0.41805 0.74054
 C1162 C 0.11650 0.40885 0.75691
 C1163 C 0.13006 0.41935 0.76859
 C1164 C 0.13490 0.43942 0.76429
 C1165 C 0.12602 0.44867 0.74788
 C1166 C 0.11248 0.43814 0.73615
 H1167 H 0.04309 0.40516 0.65891
 H1168 H 0.06850 0.42288 0.67791
 H1169 H 0.07350 0.37160 0.71670
 H1170 H 0.04795 0.35432 0.69816
 H1171 H 0.09497 0.42291 0.70284
 H1172 H 0.08565 0.39407 0.73672
 H1173 H 0.11296 0.39343 0.76067
 H1174 H 0.13681 0.41172 0.78099
 H1175 H 0.12913 0.46425 0.74443
 H1176 H 0.10548 0.44602 0.72408
 C1177 C 0.05020 0.63960 0.29530
 C1178 C 0.06431 0.62980 0.28366
 C1179 C 0.07220 0.61122 0.28949
 C1180 C 0.06617 0.60293 0.30762
 C1181 C 0.05208 0.61276 0.31929
 C1182 C 0.04378 0.63111 0.31317
 C1183 C 0.08681 0.60117 0.27644
 C1184 C 0.08981 0.58125 0.27636
 C1185 C 0.10374 0.57105 0.26269
 C1186 C 0.10072 0.55063 0.25852
 C1187 C 0.11342 0.54043 0.24567
 C1188 C 0.12957 0.55041 0.23683
 C1189 C 0.13281 0.57077 0.24124
 C1190 C 0.12009 0.58098 0.25407
 H1191 H 0.04419 0.65376 0.29020
 H1192 H 0.06886 0.63662 0.26988
 H1193 H 0.07241 0.58899 0.31297
 H1194 H 0.04759 0.60590 0.33307
 H1195 H 0.09432 0.61049 0.26567
 H1196 H 0.08087 0.57175 0.28584
 H1197 H 0.08840 0.54256 0.26513
 H1198 H 0.11075 0.52466 0.24284
 H1199 H 0.14509 0.57889 0.23462
 H1200 H 0.12332 0.59653 0.25735
 C1201 C 0.94990 0.40053 0.32630
 C1202 C 0.93536 0.41162 0.31633
 C1203 C 0.92523 0.40338 0.30016
 C1204 C 0.92963 0.38353 0.29449
 C1205 C 0.94423 0.37254 0.30435
 C1206 C 0.95460 0.38092 0.32030
 C1207 C 0.91004 0.41575 0.28988
 C1208 C 0.90376 0.41197 0.27150
 C1209 C 0.88865 0.42411 0.26096
 C1210 C 0.87849 0.41521 0.24519
 C1211 C 0.86482 0.42622 0.23411
 C1212 C 0.86114 0.44651 0.23841
 C1213 C 0.87115 0.45542 0.25433
 C1214 C 0.88481 0.44437 0.26548
 H1215 H 0.95756 0.40738 0.33860
 H1216 H 0.93214 0.42677 0.32116
 H1217 H 0.92170 0.37617 0.28270
 H1218 H 0.94726 0.35734 0.29956
 H1219 H 0.90411 0.42850 0.29779
 H1220 H 0.90974 0.39930 0.26354
 H1221 H 0.88117 0.39966 0.24137
 H1222 H 0.85715 0.41882 0.22213
 H1223 H 0.86890 0.47113 0.25777
 H1224 H 0.89274 0.45197 0.27714
 C1225 C 0.95372 0.60350 0.67565
 C1226 C 0.93895 0.59309 0.68598
 C1227 C 0.92997 0.60154 0.70268
 C1228 C 0.93575 0.62098 0.70853
 C1229 C 0.95056 0.63138 0.69822
 C1230 C 0.95980 0.62271 0.68174
 C1231 C 0.91459 0.58965 0.71329
 C1232 C 0.90910 0.59314 0.73197
 C1233 C 0.89428 0.58079 0.74278
 C1234 C 0.88464 0.58926 0.75910
 C1235 C 0.87123 0.57797 0.77030
 C1236 C 0.86729 0.55781 0.76554
 C1237 C 0.87687 0.54932 0.74916
 C1238 C 0.89027 0.56063 0.73792
 H1239 H 0.96048 0.59642 0.66296
 H1240 H 0.93469 0.57823 0.68102
 H1241 H 0.92878 0.62843 0.72086
 H1242 H 0.95473 0.64626 0.70316
 H1243 H 0.90795 0.57726 0.70536
 H1244 H 0.91561 0.60554 0.73996
 H1245 H 0.88751 0.60471 0.76322
 H1246 H 0.86392 0.58503 0.78269
 H1247 H 0.87445 0.53371 0.74537
 H1248 H 0.89787 0.55329 0.72589
 C1249 C 0.70863 0.63662 0.95368
 C1250 C 0.72076 0.62672 0.94011
 C1251 C 0.71487 0.60833 0.93194
 C1252 C 0.69633 0.60016 0.93736
 C1253 C 0.68414 0.61007 0.95092
 C1254 C 0.69013 0.62844 0.95931
 C1255 C 0.72815 0.59860 0.91735
 C1256 C 0.72778 0.57887 0.91335
 C1257 C 0.74127 0.56926 0.89887
 C1258 C 0.74531 0.54867 0.90070
 C1259 C 0.75780 0.53901 0.88726
 C1260 C 0.76639 0.54973 0.87156
 C1261 C 0.76216 0.57029 0.86957
 C1262 C 0.74969 0.57996 0.88302
 H1263 H 0.71382 0.65075 0.95969
 H1264 H 0.73488 0.63344 0.93605
 H1265 H 0.69095 0.58634 0.93093
 H1266 H 0.66996 0.60332 0.95471
 H1267 H 0.73928 0.60802 0.91043
 H1268 H 0.71798 0.56910 0.92164
 H1269 H 0.73883 0.54003 0.91262
 H1270 H 0.76050 0.52307 0.88898
 H1271 H 0.76860 0.57897 0.85766
 H1272 H 0.74646 0.59569 0.88070
 C1273 C 0.32691 0.39437 0.95351
 C1274 C 0.31598 0.40491 0.93938
 C1275 C 0.29761 0.39758 0.93273
 C1276 C 0.29058 0.37914 0.94012
 C1277 C 0.30152 0.36853 0.95419
 C1278 C 0.31981 0.37603 0.96119
 C1279 C 0.28653 0.40921 0.91770
 C1280 C 0.26669 0.40826 0.91566
 C1281 C 0.25552 0.42003 0.90080
 C1282 C 0.23536 0.42427 0.90427
 C1283 C 0.22421 0.43507 0.89051
 C1284 C 0.23294 0.44165 0.87283
 C1285 C 0.25306 0.43723 0.86924
 C1286 C 0.26424 0.42651 0.88304
 H1287 H 0.34094 0.40066 0.95838
 H1288 H 0.32182 0.41897 0.93376
 H1289 H 0.27680 0.37266 0.93487
 H1290 H 0.29558 0.35440 0.95954
 H1291 H 0.29499 0.41969 0.90880
 H1292 H 0.25805 0.39929 0.92588
 H1293 H 0.22823 0.41926 0.91772
 H1294 H 0.20866 0.43798 0.89355
 H1295 H 0.26020 0.44216 0.85578
 H1296 H 0.27956 0.42303 0.87955
 C1297 C 0.32159 0.60690 0.04851
 C1298 C 0.31163 0.59587 0.06305
 C1299 C 0.29334 0.60251 0.07054
 C1300 C 0.28547 0.62078 0.06370
 C1301 C 0.29546 0.63191 0.04930
 C1302 C 0.31360 0.62506 0.04135
 C1303 C 0.28302 0.59032 0.08570
 C1304 C 0.26314 0.58986 0.08737
 C1305 C 0.25241 0.57748 0.10208
 C1306 C 0.23290 0.57135 0.09788
 C1307 C 0.22199 0.56014 0.11153
 C1308 C 0.23022 0.55507 0.12990
 C1309 C 0.24978 0.56126 0.13415
 C1310 C 0.26077 0.57236 0.12039
 H1311 H 0.33556 0.60114 0.04291
 H1312 H 0.31810 0.58194 0.06824
 H1313 H 0.27172 0.62669 0.06962
 H1314 H 0.28886 0.64588 0.04439
 H1315 H 0.29201 0.58058 0.09486
 H1316 H 0.25417 0.59805 0.07682
 H1317 H 0.22611 0.57514 0.08391
 H1318 H 0.20712 0.55533 0.10760
 H1319 H 0.25644 0.55794 0.14828
 H1320 H 0.27557 0.57733 0.12435
 C1321 C 0.67338 0.40122 0.04588
 C1322 C 0.68394 0.41300 0.05935
 C1323 C 0.70225 0.40647 0.06691
 C1324 C 0.71000 0.38800 0.06044
 C1325 C 0.69949 0.37622 0.04700
 C1326 C 0.68102 0.38264 0.03950
 C1327 C 0.71316 0.41959 0.08086
 C1328 C 0.72665 0.41262 0.09371
 C1329 C 0.73790 0.42555 0.10756
 C1330 C 0.74646 0.41665 0.12425
 C1331 C 0.75770 0.42807 0.13742
 C1332 C 0.76078 0.44868 0.13410
 C1333 C 0.75233 0.45761 0.11732
 C1334 C 0.74104 0.44619 0.10415
 H1335 H 0.65928 0.40679 0.04044
 H1336 H 0.67772 0.42725 0.06393
 H1337 H 0.72439 0.38274 0.06535
 H1338 H 0.70603 0.36213 0.04236
 H1339 H 0.70923 0.43535 0.08099
 H1340 H 0.72911 0.39660 0.09482
 H1341 H 0.74449 0.40076 0.12711
 H1342 H 0.76431 0.42067 0.15002
 H1343 H 0.75439 0.47347 0.11441
 H1344 H 0.73521 0.45353 0.09118
 C1345 C 0.95675 0.67181 0.60353
 C1346 C 0.94295 0.68227 0.59202
 C1347 C 0.93522 0.70073 0.59833
 C1348 C 0.94190 0.70877 0.61628
 C1349 C 0.95570 0.69838 0.62779
 C1350 C 0.96334 0.67973 0.62161
 C1351 C 0.92087 0.71153 0.58555
 C1352 C 0.90765 0.72485 0.59251
 C1353 C 0.89337 0.73597 0.57995
 C1354 C 0.87617 0.74392 0.58869
 C1355 C 0.86256 0.75500 0.57758
 C1356 C 0.86595 0.75858 0.55747
 C1357 C 0.88325 0.75078 0.54871
 C1358 C 0.89684 0.73962 0.55981
 H1359 H 0.96230 0.65756 0.59816
 H1360 H 0.93821 0.67584 0.57815
 H1361 H 0.93687 0.72329 0.62136
 H1362 H 0.96048 0.70514 0.64149
 H1363 H 0.92072 0.70765 0.57009
 H1364 H 0.90655 0.72721 0.60823
 H1365 H 0.87325 0.74155 0.60421
 H1366 H 0.84954 0.76109 0.58483
 H1367 H 0.88622 0.75324 0.53322
 H1368 H 0.91019 0.73427 0.55263
 C1369 C 0.94797 0.32770 0.39533
 C1370 C 0.93345 0.31718 0.40592
 C1371 C 0.92476 0.29971 0.39821
 C1372 C 0.93054 0.29328 0.37931
 C1373 C 0.94513 0.30371 0.36877
 C1374 C 0.95418 0.32100 0.37666
 C1375 C 0.90971 0.28886 0.41028
 C1376 C 0.90417 0.26978 0.40702
 C1377 C 0.88961 0.25876 0.41939
 C1378 C 0.87955 0.24235 0.41113
 C1379 C 0.86647 0.23081 0.42244
 C1380 C 0.86332 0.23526 0.44241
 C1381 C 0.87326 0.25180 0.45069
 C1382 C 0.88631 0.26342 0.43934
 H1383 H 0.95444 0.34099 0.40193
 H1384 H 0.92916 0.32260 0.42034
 H1385 H 0.92380 0.28038 0.37237
 H1386 H 0.94925 0.29817 0.35434
 H1387 H 0.90330 0.29695 0.42255
 H1388 H 0.91038 0.26158 0.39477
 H1389 H 0.88186 0.23840 0.39583
 H1390 H 0.85883 0.21835 0.41553
 H1391 H 0.87143 0.25538 0.46613
 H1392 H 0.89424 0.27555 0.44644
 C1393 C 0.05059 0.32963 0.60111
 C1394 C 0.06546 0.31938 0.59082
 C1395 C 0.07213 0.30057 0.59732
 C1396 C 0.06404 0.29239 0.61467
 C1397 C 0.04929 0.30267 0.62506
 C1398 C 0.04226 0.32140 0.61838
 C1399 C 0.08781 0.29007 0.58600
 C1400 C 0.08912 0.27000 0.58532
 C1401 C 0.10439 0.25921 0.57373
 C1402 C 0.10004 0.23982 0.56697
 C1403 C 0.11414 0.22892 0.55634
 C1404 C 0.13310 0.23703 0.55253
 C1405 C 0.13752 0.25643 0.55943
 C1406 C 0.12332 0.26742 0.56993
 H1407 H 0.04572 0.34405 0.59551
 H1408 H 0.07162 0.32606 0.57760
 H1409 H 0.06929 0.27820 0.62045
 H1410 H 0.04345 0.29587 0.63836
 H1411 H 0.09774 0.29914 0.57709
 H1412 H 0.07790 0.26097 0.59262
 H1413 H 0.08560 0.23314 0.56976
 H1414 H 0.11010 0.21417 0.55096
 H1415 H 0.15209 0.26297 0.55707
 H1416 H 0.12738 0.28210 0.57544
 C1417 C 0.04570 0.70867 0.36542
 C1418 C 0.05909 0.72067 0.37584
 C1419 C 0.06736 0.71398 0.39362
 C1420 C 0.06178 0.69499 0.40091
 C1421 C 0.04838 0.68294 0.39049
 C1422 C 0.04008 0.68962 0.37261
 C1423 C 0.08108 0.72758 0.40435
 C1424 C 0.09420 0.72132 0.41790
 C1425 C 0.10794 0.73509 0.42839
 C1426 C 0.12558 0.72728 0.43636
 C1427 C 0.13891 0.73973 0.44638
 C1428 C 0.13480 0.76027 0.44881
 C1429 C 0.11699 0.76804 0.44112
 C1430 C 0.10366 0.75560 0.43108
 H1431 H 0.03967 0.71446 0.35176
 H1432 H 0.06301 0.73529 0.36995
 H1433 H 0.06731 0.68950 0.41485
 H1434 H 0.04435 0.66847 0.39664
 H1435 H 0.08086 0.74326 0.40015
 H1436 H 0.09580 0.70542 0.42081
 H1437 H 0.12912 0.71150 0.43473
 H1438 H 0.15233 0.73321 0.45245
 H1439 H 0.11342 0.78381 0.44270
 H1440 H 0.08994 0.76210 0.42575
 C1441 C 0.63510 0.94947 0.70682
 C1442 C 0.62536 0.93463 0.71776
 C1443 C 0.60888 0.92437 0.70999
 C1444 C 0.60256 0.92907 0.69075
 C1445 C 0.61224 0.94402 0.67985
 C1446 C 0.62857 0.95442 0.68779
 C1447 C 0.59909 0.90881 0.72237
 C1448 C 0.58089 0.90125 0.71887
 C1449 C 0.57092 0.88644 0.73197
 C1450 C 0.55012 0.88460 0.73108
 C1451 C 0.54003 0.87131 0.74354
 C1452 C 0.55055 0.85952 0.75715
 C1453 C 0.57140 0.86091 0.75770
 C1454 C 0.58152 0.87410 0.74516
 H1455 H 0.64766 0.95717 0.71336
 H1456 H 0.63067 0.93125 0.73245
 H1457 H 0.59037 0.92118 0.68386
 H1458 H 0.60700 0.94732 0.66513
 H1459 H 0.60695 0.90430 0.73554
 H1460 H 0.57225 0.90691 0.70665
 H1461 H 0.54159 0.89376 0.72095
 H1462 H 0.52393 0.87063 0.74288
 H1463 H 0.57991 0.85167 0.76777
 H1464 H 0.59759 0.87438 0.74581
 C1465 C 0.36444 0.95311 0.29509
 C1466 C 0.37392 0.93882 0.28337
 C1467 C 0.39212 0.93040 0.28918
 C1468 C 0.40041 0.93617 0.30734
 C1469 C 0.39089 0.95045 0.31912
 C1470 C 0.37286 0.95918 0.31305
 C1471 C 0.40167 0.91543 0.27611
 C1472 C 0.42128 0.91162 0.27613
 C1473 C 0.43084 0.89729 0.26237
 C1474 C 0.45110 0.89973 0.25789
 C1475 C 0.46062 0.88669 0.24483
 C1476 C 0.45011 0.87077 0.23610
 C1477 C 0.42992 0.86808 0.24087
 C1478 C 0.42039 0.88113 0.25391
 H1479 H 0.35052 0.95946 0.29003
 H1480 H 0.36712 0.93449 0.26956
 H1481 H 0.41408 0.92955 0.31267
 H1482 H 0.39768 0.95468 0.33296
 H1483 H 0.39226 0.90828 0.26526
 H1484 H 0.43099 0.92018 0.28566
 H1485 H 0.45955 0.91190 0.26439
 H1486 H 0.47628 0.88894 0.24172
 H1487 H 0.42141 0.85598 0.23435
 H1488 H 0.40494 0.87832 0.25745
 C1489 C 0.60387 0.04455 0.32701
 C1490 C 0.59255 0.05869 0.31669
 C1491 C 0.59942 0.06675 0.29882
 C1492 C 0.61782 0.06014 0.29133
 C1493 C 0.62913 0.04601 0.30162
 C1494 C 0.62228 0.03801 0.31956
 C1495 C 0.58662 0.08119 0.28801
 C1496 C 0.59368 0.09430 0.27468
 C1497 C 0.58095 0.10831 0.26327
 C1498 C 0.58982 0.12525 0.25458
 C1499 C 0.57861 0.13843 0.24303
 C1500 C 0.55827 0.13487 0.23975
 C1501 C 0.54936 0.11790 0.24842
 C1502 C 0.56056 0.10473 0.26000
 H1503 H 0.59812 0.03862 0.34074
 H1504 H 0.57835 0.06335 0.32271
 H1505 H 0.62337 0.06541 0.27729
 H1506 H 0.64315 0.04116 0.29537
 H1507 H 0.57097 0.08136 0.29177
 H1508 H 0.60958 0.09541 0.27234
 H1509 H 0.60553 0.12825 0.25665
 H1510 H 0.58599 0.15117 0.23629
 H1511 H 0.53369 0.11481 0.24625
 H1512 H 0.55324 0.09157 0.26593
 C1513 C 0.39198 0.05290 0.67636
 C1514 C 0.40340 0.06714 0.68641
 C1515 C 0.39797 0.07335 0.70538
 C1516 C 0.38048 0.06557 0.71388
 C1517 C 0.36896 0.05149 0.70377
 C1518 C 0.37468 0.04486 0.68498
 C1519 C 0.41055 0.08819 0.71577
 C1520 C 0.41241 0.08837 0.73541
 C1521 C 0.42510 0.10286 0.74614
 C1522 C 0.43266 0.09734 0.76459
 C1523 C 0.44413 0.11078 0.77553
 C1524 C 0.44804 0.13023 0.76838
 C1525 C 0.44045 0.13577 0.74987
 C1526 C 0.42909 0.12224 0.73885
 H1527 H 0.39669 0.04821 0.66183
 H1528 H 0.41669 0.07309 0.67948
 H1529 H 0.37551 0.07051 0.72824
 H1530 H 0.35564 0.04569 0.71076
 H1531 H 0.41938 0.09839 0.70690
 H1532 H 0.40514 0.07679 0.74404
 H1533 H 0.42975 0.08251 0.77054
 H1534 H 0.45000 0.10589 0.78957
 H1535 H 0.44285 0.15076 0.74412
 H1536 H 0.42300 0.12722 0.72494
 C1537 C 0.60425 0.67684 0.04134
 C1538 C 0.59227 0.68724 0.05472
 C1539 C 0.59809 0.70613 0.06184
 C1540 C 0.61642 0.71422 0.05567
 C1541 C 0.62842 0.70382 0.04236
 C1542 C 0.62245 0.68505 0.03498
 C1543 C 0.58513 0.71658 0.07621
 C1544 C 0.58510 0.73660 0.07845
 C1545 C 0.57266 0.74727 0.09311
 C1546 C 0.56862 0.76773 0.09014
 C1547 C 0.55772 0.77862 0.10400
 C1548 C 0.55076 0.76932 0.12127
 C1549 C 0.55477 0.74883 0.12425
 C1550 C 0.56563 0.73791 0.11037
 H1551 H 0.59927 0.66236 0.03601
 H1552 H 0.57833 0.68057 0.05941
 H1553 H 0.62178 0.72840 0.06136
 H1554 H 0.64243 0.71048 0.03790
 H1555 H 0.57477 0.70746 0.08455
 H1556 H 0.59406 0.74579 0.06870
 H1557 H 0.57404 0.77536 0.07709
 H1558 H 0.55514 0.79446 0.10143
 H1559 H 0.54952 0.74123 0.13738
 H1560 H 0.56888 0.72233 0.11350
 C1561 C 0.39875 0.32454 0.04787
 C1562 C 0.41017 0.31337 0.06112
 C1563 C 0.40361 0.29452 0.06780
 C1564 C 0.38538 0.28697 0.06075
 C1565 C 0.37395 0.29814 0.04750
 C1566 C 0.38052 0.31703 0.04086
 C1567 C 0.41653 0.28295 0.08140
 C1568 C 0.40973 0.26837 0.09332
 C1569 C 0.42263 0.25683 0.10695
 C1570 C 0.41389 0.24759 0.12341
 C1571 C 0.42541 0.23643 0.13657
 C1572 C 0.44596 0.23409 0.13345
 C1573 C 0.45469 0.24305 0.11680
 C1574 C 0.44317 0.25427 0.10366
 H1575 H 0.40429 0.33899 0.04298
 H1576 H 0.42422 0.31947 0.06617
 H1577 H 0.38007 0.27224 0.06499
 H1578 H 0.36009 0.29183 0.04223
 H1579 H 0.43203 0.28731 0.08216
 H1580 H 0.39392 0.26531 0.09395
 H1581 H 0.39807 0.24910 0.12616
 H1582 H 0.41819 0.22942 0.14907
 H1583 H 0.47050 0.24154 0.11404
 H1584 H 0.45037 0.26061 0.09083
 C1585 C 0.63214 0.29823 0.95647
 C1586 C 0.62293 0.28680 0.94188
 C1587 C 0.60660 0.29437 0.93135
 C1588 C 0.59969 0.31383 0.93579
 C1589 C 0.60886 0.32524 0.95051
 C1590 C 0.62522 0.31759 0.96096
 C1591 C 0.59774 0.28152 0.91577
 C1592 C 0.58050 0.28534 0.90651
 C1593 C 0.57184 0.27177 0.89144
 C1594 C 0.55127 0.27250 0.88794
 C1595 C 0.54241 0.25955 0.87433
 C1596 C 0.55399 0.24564 0.86385
 C1597 C 0.57466 0.24530 0.86689
 C1598 C 0.58353 0.25831 0.88042
 H1599 H 0.64473 0.29188 0.96423
 H1600 H 0.62866 0.27193 0.93878
 H1601 H 0.58747 0.32057 0.92786
 H1602 H 0.60329 0.34019 0.95351
 H1603 H 0.60560 0.26777 0.91241
 H1604 H 0.57166 0.29818 0.91073
 H1605 H 0.54194 0.28284 0.89607
 H1606 H 0.52642 0.26007 0.87239
 H1607 H 0.58399 0.23503 0.85869
 H1608 H 0.59954 0.25783 0.88199
 C1609 C 0.35723 0.70100 0.94776
 C1610 C 0.36675 0.71185 0.93284
 C1611 C 0.38707 0.70898 0.92905
 C1612 C 0.39762 0.69462 0.94007
 C1613 C 0.38801 0.68350 0.95475
 C1614 C 0.36775 0.68669 0.95884
 C1615 C 0.39674 0.72079 0.91324
 C1616 C 0.41564 0.72710 0.91447
 C1617 C 0.42509 0.73962 0.89908
 C1618 C 0.43910 0.75417 0.90463
 C1619 C 0.44828 0.76627 0.89045
 C1620 C 0.44397 0.76367 0.87040
 C1621 C 0.43028 0.74881 0.86476
 C1622 C 0.42080 0.73696 0.87899
 H1623 H 0.34156 0.70365 0.95048
 H1624 H 0.35830 0.72271 0.92442
 H1625 H 0.41320 0.69174 0.93715
 H1626 H 0.39647 0.67252 0.96301
 H1627 H 0.38763 0.72553 0.90093
 H1628 H 0.42407 0.72419 0.92775
 H1629 H 0.44276 0.75634 0.92001
 H1630 H 0.45897 0.77748 0.89510
 H1631 H 0.42678 0.74652 0.84937
 H1632 H 0.41041 0.72552 0.87423
 C1633 C 0.70436 0.94978 0.36736
 C1634 C 0.71641 0.93630 0.37764
 C1635 C 0.71008 0.92801 0.39557
 C1636 C 0.69135 0.93358 0.40312
 C1637 C 0.67929 0.94711 0.39284
 C1638 C 0.68570 0.95544 0.37489
 C1639 C 0.72382 0.91446 0.40631
 C1640 C 0.71788 0.90104 0.41985
 C1641 C 0.73190 0.88763 0.43038
 C1642 C 0.72492 0.86918 0.43766
 C1643 C 0.73771 0.85614 0.44766
 C1644 C 0.75771 0.86142 0.45082
 C1645 C 0.76462 0.88005 0.44387
 C1646 C 0.75186 0.89305 0.43379
 H1647 H 0.70980 0.95596 0.35361
 H1648 H 0.73081 0.93239 0.37156
 H1649 H 0.68615 0.92799 0.41717
 H1650 H 0.66507 0.95130 0.39911
 H1651 H 0.73938 0.91507 0.40218
 H1652 H 0.70215 0.89896 0.42267
 H1653 H 0.70956 0.86477 0.43546
 H1654 H 0.73188 0.84203 0.45315
 H1655 H 0.77996 0.88451 0.44604
 H1656 H 0.75764 0.90741 0.42898
 C1657 C 0.29160 0.95785 0.63636
 C1658 C 0.27969 0.94441 0.62586
 C1659 C 0.28654 0.93579 0.60829
 C1660 C 0.30559 0.94106 0.60130
 C1661 C 0.31750 0.95452 0.61181
 C1662 C 0.31061 0.96312 0.62942
 C1663 C 0.27308 0.92216 0.59732
 C1664 C 0.27946 0.90853 0.58424
 C1665 C 0.26586 0.89493 0.57341
 C1666 C 0.27328 0.87661 0.56638
 C1667 C 0.26095 0.86337 0.55610
 C1668 C 0.24096 0.86829 0.55242
 C1669 C 0.23362 0.88681 0.55911
 C1670 C 0.24593 0.90003 0.56945
 H1671 H 0.28580 0.96427 0.64983
 H1672 H 0.26503 0.94074 0.63149
 H1673 H 0.31120 0.93528 0.58752
 H1674 H 0.33200 0.95843 0.60596
 H1675 H 0.25739 0.92287 0.60090
 H1676 H 0.29526 0.90641 0.58203
 H1677 H 0.28863 0.87244 0.56900
 H1678 H 0.26712 0.84935 0.55083
 H1679 H 0.21827 0.89100 0.55653
 H1680 H 0.23982 0.91429 0.57405
 C1681 C 0.32607 0.04778 0.39557
 C1682 C 0.31632 0.06275 0.40633
 C1683 C 0.30077 0.07388 0.39786
 C1684 C 0.29559 0.07012 0.37813
 C1685 C 0.30521 0.05511 0.36745
 C1686 C 0.32047 0.04367 0.37607
 C1687 C 0.29058 0.08939 0.40992
 C1688 C 0.27229 0.09635 0.40581
 C1689 C 0.26167 0.11163 0.41769
 C1690 C 0.24598 0.12218 0.40883
 C1691 C 0.23475 0.13596 0.41958
 C1692 C 0.23882 0.13939 0.43957
 C1693 C 0.25468 0.12903 0.44845
 C1694 C 0.26598 0.11524 0.43765
 H1695 H 0.33784 0.03930 0.40258
 H1696 H 0.32078 0.06547 0.42141
 H1697 H 0.28433 0.07885 0.37066
 H1698 H 0.30077 0.05256 0.35234
 H1699 H 0.29839 0.09487 0.42275
 H1700 H 0.26443 0.09074 0.39307
 H1701 H 0.24232 0.11969 0.39350
 H1702 H 0.22281 0.14390 0.41224
 H1703 H 0.25795 0.13108 0.46392
 H1704 H 0.27755 0.10704 0.44522
 C1705 C 0.67443 0.04788 0.60996
 C1706 C 0.68442 0.06264 0.59908
 C1707 C 0.70357 0.06894 0.60455
 C1708 C 0.71230 0.06066 0.62154
 C1709 C 0.70226 0.04603 0.63249
 C1710 C 0.68329 0.03935 0.62675
 C1711 C 0.71388 0.08437 0.59254
 C1712 C 0.73376 0.08511 0.59084
 C1713 C 0.74446 0.10010 0.57864
 C1714 C 0.76343 0.09523 0.57150
 C1715 C 0.77437 0.10909 0.56045
 C1716 C 0.76671 0.12834 0.55654
 C1717 C 0.74769 0.13325 0.56373
 C1718 C 0.73667 0.11930 0.57468
 H1719 H 0.65976 0.04317 0.60523
 H1720 H 0.67730 0.06895 0.58618
 H1721 H 0.72676 0.06563 0.62657
 H1722 H 0.70944 0.03989 0.64543
 H1723 H 0.70477 0.09456 0.58399
 H1724 H 0.74267 0.07359 0.59785
 H1725 H 0.76979 0.08058 0.57438
 H1726 H 0.78880 0.10466 0.55487
 H1727 H 0.74151 0.14806 0.56129
 H1728 H 0.72234 0.12379 0.58043
 C1729 C 0.95578 0.60583 0.32271
 C1730 C 0.94217 0.59418 0.31214
 C1731 C 0.93439 0.60106 0.29419
 C1732 C 0.94081 0.61976 0.28683
 C1733 C 0.95438 0.63141 0.29741
 C1734 C 0.96202 0.62459 0.31547
 C1735 C 0.92025 0.58807 0.28329
 C1736 C 0.90728 0.59518 0.26999
 C1737 C 0.89317 0.58236 0.25886
 C1738 C 0.87641 0.59141 0.25033
 C1739 C 0.86295 0.58009 0.23929
 C1740 C 0.86602 0.55944 0.23640
 C1741 C 0.88287 0.55036 0.24480
 C1742 C 0.89636 0.56169 0.25587
 H1743 H 0.96145 0.60009 0.33654
 H1744 H 0.93764 0.57975 0.31805
 H1745 H 0.93577 0.62532 0.27273
 H1746 H 0.95906 0.64569 0.29129
 H1747 H 0.92004 0.57229 0.28709
 H1748 H 0.90624 0.61122 0.26761
 H1749 H 0.87373 0.60734 0.25218
 H1750 H 0.85031 0.58760 0.23271
 H1751 H 0.88560 0.53446 0.24289
 H1752 H 0.90937 0.55422 0.26167
 C1753 C 0.95397 0.39847 0.67125
 C1754 C 0.94067 0.40963 0.68266
 C1755 C 0.93413 0.40243 0.70099
 C1756 C 0.94133 0.38382 0.70778
 C1757 C 0.95462 0.37265 0.69636
 C1758 C 0.96115 0.37988 0.67801
 C1759 C 0.92059 0.41514 0.71290
 C1760 C 0.90875 0.40786 0.72715
 C1761 C 0.89537 0.42057 0.73921
 C1762 C 0.87895 0.41154 0.74845
 C1763 C 0.86616 0.42284 0.76027
 C1764 C 0.86962 0.44342 0.76326
 C1765 C 0.88619 0.45245 0.75421
 C1766 C 0.89897 0.44116 0.74235
 H1767 H 0.95877 0.40452 0.65722
 H1768 H 0.93550 0.42399 0.67716
 H1769 H 0.93721 0.37801 0.72208
 H1770 H 0.96003 0.35849 0.70209
 H1771 H 0.91986 0.43092 0.70915
 H1772 H 0.90805 0.39182 0.72963
 H1773 H 0.87598 0.39567 0.74650
 H1774 H 0.85372 0.41537 0.76732
 H1775 H 0.88921 0.46830 0.75622
 H1776 H 0.91180 0.44857 0.73601
 C1777 C 0.04965 0.63304 0.70352
 C1778 C 0.06393 0.62348 0.71514
 C1779 C 0.07166 0.60474 0.70967
 C1780 C 0.06507 0.59590 0.69202
 C1781 C 0.05079 0.60550 0.68036
 C1782 C 0.04287 0.62415 0.68602
 C1783 C 0.08686 0.59528 0.72251
 C1784 C 0.09053 0.57548 0.72286
 C1785 C 0.10517 0.56608 0.73636
 C1786 C 0.10279 0.54578 0.74140
 C1787 C 0.11612 0.53638 0.75422
 C1788 C 0.13228 0.54706 0.76216
 C1789 C 0.13493 0.56728 0.75681
 C1790 C 0.12157 0.57670 0.74401
 H1791 H 0.04395 0.64745 0.70828
 H1792 H 0.06886 0.63071 0.72856
 H1793 H 0.07111 0.58178 0.68695
 H1794 H 0.04601 0.59834 0.66686
 H1795 H 0.09440 0.60499 0.73287
 H1796 H 0.08167 0.56550 0.71386
 H1797 H 0.09045 0.53718 0.73553
 H1798 H 0.11390 0.52067 0.75777
 H1799 H 0.14723 0.57591 0.76269
 H1800 H 0.12433 0.59218 0.74000
 C1801 C 0.04536 0.39592 0.32485
 C1802 C 0.06018 0.40601 0.31427
 C1803 C 0.06808 0.39776 0.29693
 C1804 C 0.06108 0.37887 0.29064
 C1805 C 0.04620 0.36884 0.30118
 C1806 C 0.03811 0.37728 0.31835
 C1807 C 0.08364 0.40926 0.28614
 C1808 C 0.08876 0.40574 0.26736
 C1809 C 0.10391 0.41760 0.25647
 C1810 C 0.11316 0.40881 0.24010
 C1811 C 0.12682 0.41967 0.22878
 C1812 C 0.13138 0.43970 0.23345
 C1813 C 0.12223 0.44851 0.24992
 C1814 C 0.10859 0.43762 0.26129
 H1815 H 0.03950 0.40281 0.33806
 H1816 H 0.06537 0.42043 0.31956
 H1817 H 0.06713 0.37152 0.27781
 H1818 H 0.04111 0.35437 0.29592
 H1819 H 0.09086 0.42132 0.29406
 H1820 H 0.08176 0.39365 0.25934
 H1821 H 0.10978 0.39345 0.23602
 H1822 H 0.13379 0.41236 0.21634
 H1823 H 0.12513 0.46404 0.25366
 H1824 H 0.10132 0.44518 0.27339
   
