data_POSCAR
  _audit_creation_date              2014-09-24
  _audit_creation_method            'ToBaCCo'
  _symmetry_space_group_name_H-M    'P1'
  _symmetry_Int_Tables_number       1
  _symmetry_cell_setting            triclinic
  loop_
  _symmetry_equiv_pos_as_xyz
 x,y,z
_cell_length_a 48.1101
_cell_length_b 48.3319
_cell_length_c 60.7672
_cell_angle_alpha 89.983800
_cell_angle_beta 89.999300
_cell_angle_gamma 90.006000
loop_
  _atom_site_label
  _atom_site_type_symbol
  _atom_site_fract_x
  _atom_site_fract_y
  _atom_site_fract_z
Zr1 Zr 0.24691 0.25193 0.28718
 O2 O 0.26810 0.27484 0.31169
 O3 O 0.21926 0.22823 0.30609
 O4 O 0.21974 0.27902 0.30371
 O5 O 0.29763 0.20159 0.28169
 O6 O 0.19803 0.30280 0.27612
 O7 O 0.27251 0.22642 0.30676
 O8 O 0.19363 0.20515 0.28032
 O9 O 0.21086 0.25291 0.26790
 O10 O 0.24618 0.21475 0.26965
 O11 O 0.25063 0.28746 0.26737
 O12 O 0.28468 0.25082 0.26952
 Zr13 Zr 0.25098 0.24950 0.21061
 Zr14 Zr 0.21553 0.28704 0.24695
 Zr15 Zr 0.28236 0.21438 0.25080
 Zr16 Zr 0.21119 0.21640 0.24967
 O17 O 0.32632 0.21592 0.25081
 O18 O 0.16806 0.22517 0.24803
 O19 O 0.24727 0.21360 0.23022
 O20 O 0.21355 0.25053 0.22847
 O21 O 0.25175 0.28694 0.22786
 O22 O 0.28675 0.24853 0.23012
 C23 C 0.19978 0.21159 0.30029
 C24 C 0.29106 0.20841 0.30148
 C25 C 0.20238 0.29710 0.29649
 O26 O 0.17174 0.28535 0.24400
 O27 O 0.20374 0.30317 0.21606
 O28 O 0.22776 0.27719 0.19108
 C29 C 0.21068 0.29659 0.19630
 O30 O 0.30480 0.30094 0.27740
 Zr31 Zr 0.28667 0.28504 0.24813
 O32 O 0.27863 0.27321 0.19171
 O33 O 0.22091 0.33048 0.24773
 O34 O 0.28174 0.32862 0.24720
 O35 O 0.33016 0.27793 0.24785
 O36 O 0.30184 0.29887 0.21737
 C37 C 0.29641 0.29167 0.19744
 O38 O 0.22823 0.22825 0.18601
 O39 O 0.27696 0.17101 0.25294
 O40 O 0.27571 0.22026 0.19399
 O41 O 0.29620 0.19542 0.22160
 O42 O 0.21447 0.17278 0.25243
 O43 O 0.19588 0.19721 0.22063
 C44 C 0.29156 0.20085 0.20121
 H45 H 0.24548 0.19822 0.27926
 H46 H 0.19731 0.25053 0.21846
 H47 H 0.30409 0.24699 0.22145
 H48 H 0.25128 0.30442 0.27648
 H49 H 0.15799 0.20812 0.25233
 H50 H 0.16501 0.30473 0.24406
 H51 H 0.20217 0.33878 0.24627
 H52 H 0.30004 0.33672 0.24341
 H53 H 0.19573 0.16555 0.25602
 H54 H 0.29578 0.16281 0.25417
 H55 H 0.33294 0.19651 0.25109
 H56 H 0.33930 0.29562 0.24387
 H57 H 0.17951 0.18569 0.22433
 H58 H 0.23597 0.23392 0.17156
 H59 H 0.26051 0.26900 0.32615
 H60 H 0.31811 0.31582 0.27361
 Zr61 Zr 0.75469 0.75006 0.28798
 O62 O 0.73363 0.72716 0.31258
 O63 O 0.78269 0.77349 0.30677
 O64 O 0.78185 0.72272 0.30429
 O65 O 0.70398 0.80055 0.28295
 O66 O 0.80328 0.69907 0.27650
 O67 O 0.72933 0.77555 0.30777
 O68 O 0.80811 0.79664 0.28090
 O69 O 0.79056 0.74909 0.26848
 O70 O 0.75533 0.78733 0.27056
 O71 O 0.75071 0.71463 0.26809
 O72 O 0.71676 0.75131 0.27054
 Zr73 Zr 0.74991 0.75284 0.21143
 Zr74 Zr 0.78562 0.71507 0.24747
 Zr75 Zr 0.71897 0.78785 0.25193
 Zr76 Zr 0.79013 0.78568 0.25035
 O77 O 0.67501 0.78643 0.25222
 O78 O 0.83319 0.77671 0.24833
 O79 O 0.75385 0.78864 0.23113
 O80 O 0.78750 0.75166 0.22907
 O81 O 0.74923 0.71532 0.22859
 O82 O 0.71433 0.75380 0.23118
 C83 C 0.80222 0.79004 0.30089
 C84 C 0.71074 0.79360 0.30268
 C85 C 0.79905 0.70459 0.29691
 O86 O 0.82940 0.71665 0.24434
 O87 O 0.79717 0.69912 0.21648
 O88 O 0.77300 0.72525 0.19168
 C89 C 0.79012 0.70581 0.19677
 O90 O 0.69656 0.70131 0.27843
 Zr91 Zr 0.71451 0.71719 0.24907
 O92 O 0.72209 0.72920 0.19263
 O93 O 0.78013 0.67164 0.24812
 O94 O 0.71948 0.67362 0.24805
 O95 O 0.67100 0.72419 0.24900
 O96 O 0.69905 0.70348 0.21836
 C97 C 0.70435 0.71072 0.19841
 O98 O 0.77237 0.77423 0.18674
 O99 O 0.72456 0.83120 0.25409
 O100 O 0.72496 0.78212 0.19505
 O101 O 0.70481 0.80689 0.22284
 O102 O 0.78730 0.82930 0.25335
 O103 O 0.80492 0.80508 0.22122
 C104 C 0.70918 0.80150 0.20241
 H105 H 0.75619 0.80380 0.28021
 H106 H 0.80365 0.75169 0.21897
 H107 H 0.69690 0.75537 0.22262
 H108 H 0.75009 0.69762 0.27717
 H109 H 0.84340 0.79369 0.25260
 H110 H 0.83606 0.69724 0.24422
 H111 H 0.79884 0.66330 0.24652
 H112 H 0.70117 0.66551 0.24431
 H113 H 0.80621 0.83634 0.25659
 H114 H 0.70579 0.83945 0.25547
 H115 H 0.66844 0.80586 0.25257
 H116 H 0.66188 0.70646 0.24514
 H117 H 0.82171 0.81609 0.22468
 H118 H 0.76450 0.76861 0.17232
 H119 H 0.74138 0.73291 0.32700
 H120 H 0.68346 0.68621 0.27472
 Zr121 Zr 0.75370 0.24964 -0.28754
 O122 O 0.73244 0.27237 -0.31214
 O123 O 0.78174 0.22630 -0.30637
 O124 O 0.78067 0.27709 -0.30395
 O125 O 0.70333 0.19884 -0.28227
 O126 O 0.80203 0.30093 -0.27622
 O127 O 0.72840 0.22393 -0.30722
 O128 O 0.80743 0.20340 -0.28052
 O129 O 0.78963 0.25090 -0.26813
 O130 O 0.75465 0.21243 -0.27005
 O131 O 0.74956 0.28508 -0.26770
 O132 O 0.71584 0.24816 -0.27002
 Zr133 Zr 0.74922 0.24703 -0.21098
 Zr134 Zr 0.78454 0.28493 -0.24714
 Zr135 Zr 0.71838 0.21169 -0.25132
 Zr136 Zr 0.78952 0.21435 -0.24994
 O137 O 0.67441 0.21277 -0.25145
 O138 O 0.83256 0.22350 -0.24807
 O139 O 0.75334 0.21120 -0.23062
 O140 O 0.78674 0.24840 -0.22871
 O141 O 0.74821 0.28449 -0.22821
 O142 O 0.71357 0.24577 -0.23062
 C143 C 0.80138 0.20987 -0.30051
 C144 C 0.70995 0.20576 -0.30204
 C145 C 0.79781 0.29531 -0.29662
 O146 O 0.82833 0.28364 -0.24407
 O147 O 0.79606 0.30105 -0.21620
 O148 O 0.77218 0.27478 -0.19132
 C149 C 0.78913 0.29432 -0.19646
 O150 O 0.69526 0.29803 -0.27794
 Zr151 Zr 0.71343 0.28231 -0.24861
 O152 O 0.72135 0.27061 -0.19217
 O153 O 0.77879 0.32833 -0.24788
 O154 O 0.71786 0.32595 -0.24782
 O155 O 0.67001 0.27470 -0.24835
 O156 O 0.69814 0.29616 -0.21790
 C157 C 0.70355 0.28904 -0.19795
 O158 O 0.77194 0.22587 -0.18632
 O159 O 0.72425 0.16839 -0.25350
 O160 O 0.72460 0.21760 -0.19449
 O161 O 0.70456 0.19255 -0.22217
 O162 O 0.78675 0.17071 -0.25282
 O163 O 0.80470 0.19519 -0.22083
 C164 C 0.70901 0.19803 -0.20177
 H165 H 0.75557 0.19594 -0.27968
 H166 H 0.80292 0.24851 -0.21864
 H167 H 0.69620 0.24410 -0.22199
 H168 H 0.74880 0.30206 -0.27680
 H169 H 0.84281 0.20654 -0.25232
 H170 H 0.83488 0.30308 -0.24401
 H171 H 0.79745 0.33679 -0.24634
 H172 H 0.69945 0.33387 -0.24411
 H173 H 0.80563 0.16371 -0.25624
 H174 H 0.70552 0.15999 -0.25476
 H175 H 0.66799 0.19329 -0.25171
 H176 H 0.66068 0.29226 -0.24432
 H177 H 0.82128 0.18393 -0.22442
 H178 H 0.76407 0.23144 -0.17188
 H179 H 0.74016 0.26659 -0.32657
 H180 H 0.68152 0.31253 -0.27417
 Zr181 Zr 0.24547 0.74997 -0.28800
 O182 O 0.26679 0.72717 -0.31251
 O183 O 0.21779 0.77363 -0.30695
 O184 O 0.21842 0.72283 -0.30466
 O185 O 0.29630 0.80017 -0.28223
 O186 O 0.19654 0.69904 -0.27715
 O187 O 0.27126 0.77556 -0.30744
 O188 O 0.19207 0.79660 -0.28123
 O189 O 0.20932 0.74897 -0.26883
 O190 O 0.24471 0.78710 -0.27042
 O191 O 0.24900 0.71438 -0.26820
 O192 O 0.28314 0.75092 -0.27018
 Zr193 Zr 0.24911 0.75213 -0.21137
 Zr194 Zr 0.21379 0.71479 -0.24789
 Zr195 Zr 0.28078 0.78732 -0.25143
 Zr196 Zr 0.20962 0.78543 -0.25055
 O197 O 0.32474 0.78575 -0.25128
 O198 O 0.16647 0.77670 -0.24893
 O199 O 0.24559 0.78809 -0.23096
 O200 O 0.21179 0.75127 -0.22938
 O201 O 0.24989 0.71473 -0.22867
 O202 O 0.28498 0.75311 -0.23077
 C203 C 0.19818 0.79016 -0.30120
 C204 C 0.28986 0.79350 -0.30209
 C205 C 0.20104 0.70472 -0.29750
 O206 O 0.16997 0.71660 -0.24524
 O207 O 0.20156 0.69878 -0.21706
 O208 O 0.22549 0.72461 -0.19196
 C209 C 0.20827 0.70534 -0.19724
 O210 O 0.30325 0.70084 -0.27806
 Zr211 Zr 0.28492 0.71664 -0.24882
 O212 O 0.27655 0.72822 -0.19240
 O213 O 0.21907 0.67134 -0.24861
 O214 O 0.27978 0.67308 -0.24804
 O215 O 0.32845 0.72355 -0.24834
 O216 O 0.29989 0.70265 -0.21803
 C217 C 0.29434 0.70974 -0.19809
 O218 O 0.22640 0.77344 -0.18680
 O219 O 0.27541 0.83070 -0.25350
 O220 O 0.27387 0.78124 -0.19466
 O221 O 0.29450 0.80618 -0.22214
 O222 O 0.21280 0.82905 -0.25338
 O223 O 0.19442 0.80470 -0.22151
 C224 C 0.28976 0.80067 -0.20178
 H225 H 0.24407 0.80364 -0.28002
 H226 H 0.19548 0.75131 -0.21944
 H227 H 0.30229 0.75456 -0.22203
 H228 H 0.24969 0.69743 -0.27734
 H229 H 0.15642 0.79377 -0.25323
 H230 H 0.16320 0.69724 -0.24527
 H231 H 0.20030 0.66309 -0.24715
 H232 H 0.29800 0.66487 -0.24413
 H233 H 0.19401 0.83623 -0.25688
 H234 H 0.29424 0.83889 -0.25469
 H235 H 0.33139 0.80515 -0.25146
 H236 H 0.33748 0.70578 -0.24443
 H237 H 0.17790 0.81604 -0.22515
 H238 H 0.23407 0.76774 -0.17233
 H239 H 0.25927 0.73307 -0.32697
 H240 H 0.31633 0.68576 -0.27426
 Zr241 Zr 1.25481 1.24965 0.78761
 O242 O 1.23373 1.22660 0.81211
 O243 O 1.28319 1.27257 0.80645
 O244 O 1.28184 1.22182 0.80352
 O245 O 1.20464 1.30078 0.78330
 O246 O 1.30274 1.19828 0.77542
 O247 O 1.22991 1.27515 0.80777
 O248 O 1.30862 1.29579 0.78063
 O249 O 1.29049 1.24858 0.76790
 O250 O 1.25569 1.28715 0.77050
 O251 O 1.25027 1.21455 0.76745
 O252 O 1.21673 1.25156 0.77041
 Zr253 Zr 1.24934 1.25357 0.71111
 Zr254 Zr 1.28499 1.21491 0.74662
 Zr255 Zr 1.21917 1.28833 0.75209
 Zr256 Zr 1.29027 1.28542 0.75008
 O257 O 1.17520 1.28732 0.75265
 O258 O 1.33326 1.27619 0.74777
 O259 O 1.25386 1.28904 0.73109
 O260 O 1.28707 1.25173 0.72853
 O261 O 1.24843 1.21582 0.72795
 O262 O 1.21397 1.25462 0.73108
 C263 C 1.30281 1.28903 0.80059
 C264 C 1.21150 1.29350 0.80293
 C265 C 1.29878 1.20361 0.79591
 O266 O 1.32875 1.21611 0.74327
 O267 O 1.29607 1.19931 0.71540
 O268 O 1.27194 1.22604 0.69098
 C269 C 1.28890 1.20636 0.69579
 O270 O 1.19608 1.20154 0.77794
 Zr271 Zr 1.21393 1.21778 0.74866
 O272 O 1.22105 1.23051 0.69227
 O273 O 1.27907 1.17153 0.74690
 O274 O 1.21838 1.17417 0.74722
 O275 O 1.17051 1.22538 0.74894
 O276 O 1.19803 1.20468 0.71794
 C277 C 1.20315 1.21216 0.69802
 O278 O 1.27184 1.27506 0.68650
 O279 O 1.22520 1.33158 0.75463
 O280 O 1.22459 1.28339 0.69513
 O281 O 1.20497 1.30796 0.72327
 O282 O 1.28765 1.32902 0.75344
 O283 O 1.30523 1.30497 0.72106
 C284 C 1.20911 1.30285 0.70277
 H285 H 1.25680 1.30348 0.78029
 H286 H 1.30313 1.25173 0.71834
 H287 H 1.19647 1.25651 0.72263
 H288 H 1.24955 1.19743 0.77637
 H289 H 1.34362 1.29306 0.75209
 H290 H 1.33522 1.19665 0.74292
 H291 H 1.29767 1.16303 0.74508
 H292 H 1.19994 1.16631 0.74349
 H293 H 1.30657 1.33592 0.75684
 H294 H 1.20651 1.34001 0.75610
 H295 H 1.16882 1.30680 0.75313
 H296 H 1.16110 1.20787 0.74486
 H297 H 1.32178 1.31627 0.72467
 H298 H 1.26375 1.26979 0.67207
 H299 H 1.24165 1.23207 0.82655
 H300 H 1.18256 1.18686 0.77411
 Zr301 Zr 0.74634 0.75156 0.78723
 O302 O 0.76771 0.77377 0.81205
 O303 O 0.71748 0.72879 0.80570
 O304 O 0.71963 0.77939 0.80344
 O305 O 0.79571 0.69979 0.78237
 O306 O 0.69912 0.80377 0.77560
 O307 O 0.77071 0.72524 0.80712
 O308 O 0.69177 0.70651 0.77954
 O309 O 0.71077 0.75352 0.76745
 O310 O 0.74500 0.71443 0.76965
 O311 O 0.75140 0.78703 0.76754
 O312 O 0.78444 0.74950 0.77009
 Zr313 Zr 0.75204 0.74914 0.71072
 Zr314 Zr 0.71677 0.78755 0.74662
 Zr315 Zr 0.78157 0.71315 0.75130
 Zr316 Zr 0.71053 0.71704 0.74918
 O317 O 0.82554 0.71353 0.75207
 O318 O 0.66770 0.72695 0.74674
 O319 O 0.74696 0.71331 0.73022
 O320 O 0.71427 0.75112 0.72808
 O321 O 0.75338 0.78656 0.72801
 O322 O 0.78730 0.74723 0.73076
 C323 C 0.69755 0.71287 0.79959
 C324 C 0.78885 0.70672 0.80207
 C325 C 0.70290 0.79793 0.79603
 O326 O 0.67300 0.78703 0.74324
 O327 O 0.70578 0.80377 0.71559
 O328 O 0.72970 0.77724 0.69091
 C329 C 0.71283 0.79692 0.69591
 O330 O 0.80568 0.79913 0.77831
 Zr331 Zr 0.78776 0.78371 0.74879
 O332 O 0.78069 0.77222 0.69224
 O333 O 0.72331 0.83083 0.74740
 O334 O 0.78380 0.82739 0.74778
 O335 O 0.83109 0.77565 0.74917
 O336 O 0.80409 0.79709 0.71828
 C337 C 0.79892 0.79010 0.69827
 O338 O 0.72945 0.72838 0.68578
 O339 O 0.77489 0.66993 0.75315
 O340 O 0.77658 0.71945 0.69441
 O341 O 0.79581 0.69404 0.72226
 O342 O 0.71235 0.67336 0.75215
 O343 O 0.69564 0.69817 0.71987
 C344 C 0.79187 0.69970 0.70182
 H345 H 0.74358 0.69793 0.77923
 H346 H 0.69825 0.75151 0.71787
 H347 H 0.80482 0.74530 0.72236
 H348 H 0.75231 0.80396 0.77668
 H349 H 0.65706 0.71017 0.75085
 H350 H 0.66679 0.80659 0.74317
 H351 H 0.70482 0.83962 0.74571
 H352 H 0.80233 0.83510 0.74417
 H353 H 0.69326 0.66674 0.75530
 H354 H 0.79343 0.66121 0.75465
 H355 H 0.83165 0.69395 0.75241
 H356 H 0.84072 0.79314 0.74539
 H357 H 0.67877 0.68723 0.72322
 H358 H 0.73763 0.73388 0.67144
 H359 H 0.75964 0.76813 0.82640
 H360 H 0.81916 0.81394 0.77472
 Zr361 Zr 1.25375 0.74997 0.21262
 O362 O 1.23262 0.77253 0.18786
 O363 O 1.28248 0.72713 0.19408
 O364 O 1.28063 0.77788 0.19666
 O365 O 1.20417 0.69831 0.21705
 O366 O 1.30104 0.80200 0.22467
 O367 O 1.22929 0.72398 0.19251
 O368 O 1.30798 0.70445 0.22017
 O369 O 1.28926 0.75169 0.23249
 O370 O 1.25493 0.71268 0.23000
 O371 O 1.24866 0.78525 0.23251
 O372 O 1.21556 0.74782 0.22965
 Zr373 Zr 1.24774 0.74684 0.28911
 Zr374 Zr 1.28322 0.78553 0.25351
 Zr375 Zr 1.21829 0.71128 0.24824
 Zr376 Zr 1.28934 0.71504 0.25056
 O377 O 1.17432 0.71177 0.24744
 O378 O 1.33218 0.72488 0.25297
 O379 O 1.25283 0.71120 0.26940
 O380 O 1.28559 0.74893 0.27186
 O381 O 1.24652 0.78441 0.27201
 O382 O 1.21254 0.74515 0.26897
 C383 C 1.30220 0.71091 0.20013
 C384 C 1.21107 0.70546 0.19740
 C385 C 1.29733 0.79636 0.20421
 O386 O 1.32697 0.78480 0.25707
 O387 O 1.29396 0.80155 0.28466
 O388 O 1.26989 0.77486 0.30915
 C389 C 1.28675 0.79461 0.30429
 O390 O 1.19450 0.79757 0.22165
 Zr391 Zr 1.21221 0.78181 0.25114
 O392 O 1.21894 0.76965 0.30762
 O393 O 1.27687 0.82884 0.25290
 O394 O 1.21614 0.82547 0.25245
 O395 O 1.16888 0.77374 0.25057
 O396 O 1.19571 0.79486 0.28168
 C397 C 1.20075 0.78761 0.30166
 O398 O 1.27028 0.72595 0.31402
 O399 O 1.22486 0.66808 0.24608
 O400 O 1.22324 0.71689 0.30518
 O401 O 1.20405 0.69183 0.27713
 O402 O 1.28747 0.67137 0.24753
 O403 O 1.30412 0.69600 0.27985
 C404 C 1.20800 0.69721 0.29761
 H405 H 1.25630 0.69625 0.22034
 H406 H 1.30157 0.74922 0.28212
 H407 H 1.19500 0.74312 0.27732
 H408 H 1.24782 0.80227 0.22347
 H409 H 1.34278 0.70810 0.24882
 H410 H 1.33325 0.80433 0.25730
 H411 H 1.29538 0.83754 0.25474
 H412 H 1.19757 0.83313 0.25600
 H413 H 1.30657 0.66473 0.24446
 H414 H 1.20630 0.65941 0.24449
 H415 H 1.16817 0.69221 0.24697
 H416 H 1.15923 0.79120 0.25442
 H417 H 1.32112 0.68523 0.27652
 H418 H 1.26200 0.73131 0.32835
 H419 H 1.24072 0.76698 0.17350
 H420 H 1.18091 0.81225 0.22528
 Zr421 Zr 0.74702 1.24886 0.21232
 O422 O 0.76854 1.22652 0.18766
 O423 O 0.71884 1.27223 0.19360
 O424 O 0.72030 1.22139 0.19569
 O425 O 0.79708 1.29986 0.21801
 O426 O 0.69914 1.19698 0.22321
 O427 O 0.77224 1.27492 0.19283
 O428 O 0.69296 1.29466 0.21957
 O429 O 0.71106 1.24712 0.23168
 O430 O 0.74576 1.28589 0.23004
 O431 O 0.75138 1.21324 0.23197
 O432 O 0.78481 1.25041 0.22996
 Zr433 Zr 0.75128 1.25070 0.28895
 Zr434 Zr 0.71633 1.21289 0.25246
 Zr435 Zr 0.78197 1.28668 0.24885
 Zr436 Zr 0.71087 1.28348 0.25010
 O437 O 0.82595 1.28594 0.24885
 O438 O 0.66790 1.27398 0.25183
 O439 O 0.74695 1.28669 0.26951
 O440 O 0.71384 1.24923 0.27111
 O441 O 0.75259 1.21339 0.27152
 O442 O 0.78696 1.25243 0.26936
 C443 C 0.69906 1.28845 0.19955
 C444 C 0.79059 1.29310 0.19818
 C445 C 0.70332 1.20291 0.20285
 O446 O 0.67251 1.21385 0.25529
 O447 O 0.70455 1.19655 0.28330
 O448 O 0.72830 1.22265 0.30837
 C449 C 0.71131 1.20317 0.30310
 O450 O 0.80577 1.20075 0.22179
 Zr451 Zr 0.78741 1.21606 0.25118
 O452 O 0.77941 1.22727 0.30766
 O453 O 0.72246 1.16956 0.25160
 O454 O 0.78302 1.17242 0.25191
 O455 O 0.83081 1.22372 0.25138
 O456 O 0.80305 1.20231 0.28182
 C457 C 0.79758 1.20925 0.30180
 O458 O 0.72839 1.27139 0.31375
 O459 O 0.77579 1.32996 0.24688
 O460 O 0.77557 1.28023 0.30565
 O461 O 0.79552 1.30567 0.27814
 O462 O 0.71320 1.32718 0.24749
 O463 O 0.69560 1.30221 0.27934
 C464 C 0.79102 1.30001 0.29851
 H465 H 0.74476 1.30247 0.22051
 H466 H 0.69761 1.24893 0.28112
 H467 H 0.80431 1.25419 0.27800
 H468 H 0.75230 1.19636 0.22277
 H469 H 0.65753 1.29093 0.24771
 H470 H 0.66610 1.19436 0.25519
 H471 H 0.70385 1.16094 0.25303
 H472 H 0.80141 1.16451 0.25571
 H473 H 0.69423 1.33404 0.24423
 H474 H 0.79445 1.33849 0.24564
 H475 H 0.83222 1.30547 0.24864
 H476 H 0.84020 1.20608 0.25512
 H477 H 0.67879 1.31320 0.27588
 H478 H 0.73630 1.26573 0.32815
 H479 H 0.76082 1.23235 0.17324
 H480 H 0.81898 1.18573 0.22545
 O481 O 0.46749 1.05233 0.01487
 O482 O 0.53141 0.94674 0.01565
 O483 O 0.44644 0.96770 0.01520
 O484 O 0.55249 1.03135 0.01522
 O485 O 0.48468 0.95229 0.02760
 O486 O 0.51411 1.04693 0.02720
 O487 O 0.54688 0.98504 0.02763
 O488 O 0.45189 1.01421 0.02712
 C489 C 0.45500 1.03928 0.02952
 C490 C 0.54366 0.96002 0.03030
 C491 C 0.45951 0.95555 0.03002
 C492 C 0.53925 1.04368 0.02984
 O493 O 0.53193 1.05184 -0.01532
 O494 O 0.46732 0.94665 -0.01497
 O495 O 0.44683 1.03144 -0.01547
 O496 O 0.55243 0.96709 -0.01475
 O497 O 0.51406 0.95179 -0.02697
 O498 O 0.48531 1.04660 -0.02759
 O499 O 0.54727 1.01343 -0.02718
 O500 O 0.45210 0.98486 -0.02735
 Co501 Co 0.49969 1.04456 -0.00018
 Co502 Co 0.49939 0.95425 0.00030
 Co503 Co 0.45421 0.99954 -0.00011
 Co504 Co 0.54488 0.99925 0.00022
 O505 O 0.49954 0.99940 0.00006
 C506 C 0.54422 1.03846 -0.02989
 C507 C 0.45496 0.95974 -0.02966
 C508 C 0.46017 1.04337 -0.03025
 C509 C 0.53924 0.95490 -0.02947
 O510 O 0.98500 0.54717 0.52706
 O511 O 1.01420 0.45236 0.52797
 O512 O 0.95197 0.48576 0.52799
 O513 O 1.04730 0.51389 0.52726
 O514 O 0.96737 0.44720 0.51641
 O515 O 1.03167 0.55199 0.51493
 O516 O 1.05241 0.46723 0.51520
 O517 O 0.94665 0.53195 0.51490
 C518 C 0.95986 0.54394 0.52967
 C519 C 1.03938 0.45570 0.53031
 C520 C 0.95538 0.46080 0.53100
 C521 C 1.04384 0.53893 0.52974
 O522 O 1.01419 0.54613 0.47234
 O523 O 0.98420 0.45154 0.47350
 O524 O 0.95172 0.51328 0.47284
 O525 O 1.04682 0.48434 0.47276
 O526 O 1.03102 0.44636 0.48523
 O527 O 0.96758 0.55171 0.48431
 O528 O 1.05246 0.53098 0.48477
 O529 O 0.94617 0.46714 0.48600
 Co530 Co 0.99959 0.54444 0.49972
 Co531 Co 0.99922 0.45418 0.50072
 Co532 Co 0.95403 0.49951 0.50041
 Co533 Co 1.04485 0.49913 0.50001
 O534 O 0.99942 0.49931 0.50021
 C535 C 1.03931 0.54266 0.46979
 C536 C 0.95903 0.45493 0.47115
 C537 C 0.95523 0.53823 0.46983
 C538 C 1.04324 0.45930 0.47037
 O539 O 1.01964 0.46904 0.04113
 O540 O 1.01817 0.53232 -0.04317
 O541 O 1.01864 0.44764 -0.02612
 O542 O 1.01963 0.55374 0.02410
 O543 O 1.03376 0.48578 -0.03875
 O544 O 1.03507 0.51559 0.03647
 O545 O 1.03428 0.54802 -0.01315
 O546 O 1.03457 0.45327 0.01075
 C547 C 1.03789 0.45635 0.03071
 C548 C 1.03679 0.54507 -0.03319
 C549 C 1.03672 0.46061 -0.03659
 C550 C 1.03795 0.54077 0.03428
 O551 O 0.98153 0.53306 0.04120
 O552 O 0.98004 0.46833 -0.04235
 O553 O 0.98096 0.44804 0.02514
 O554 O 0.98015 0.55328 -0.02628
 O555 O 0.96462 0.51493 -0.03814
 O556 O 0.96594 0.48640 0.03740
 O557 O 0.96552 0.54832 0.01099
 O558 O 0.96499 0.45319 -0.01181
 Co559 Co 1.00047 0.50099 0.03511
 Co560 Co 0.99922 0.50038 -0.03666
 Co561 Co 0.99979 0.45551 -0.00054
 Co562 Co 0.99989 0.54587 -0.00105
 O563 O 0.99985 0.50069 -0.00078
 C564 C 0.96288 0.54555 0.03104
 C565 C 0.96174 0.45585 -0.03181
 C566 C 0.96304 0.46117 0.03565
 C567 C 0.96173 0.54013 -0.03619
 O568 O 0.51812 0.96831 0.54231
 O569 O 0.51847 1.02993 0.45798
 O570 O 0.51703 0.94550 0.47521
 O571 O 0.51738 1.05280 0.52512
 O572 O 0.53301 0.98334 0.46288
 O573 O 0.53291 1.01490 0.53775
 O574 O 0.53357 1.04638 0.48815
 O575 O 0.53309 0.95182 0.51211
 C576 C 0.53642 0.95545 0.53202
 C577 C 0.53676 1.04289 0.46820
 C578 C 0.53548 0.95812 0.46491
 C579 C 0.53557 1.04010 0.53563
 O580 O 0.47885 1.03181 0.54148
 O581 O 0.47882 0.96671 0.45885
 O582 O 0.47971 0.94662 0.52651
 O583 O 0.48018 1.05182 0.47377
 O584 O 0.46431 1.01348 0.46234
 O585 O 0.46403 0.98501 0.53799
 O586 O 0.46404 1.04723 0.51085
 O587 O 0.46360 0.95167 0.48944
 Co588 Co 0.49848 0.99993 0.53600
 Co589 Co 0.49865 0.99844 0.46440
 Co590 Co 0.49837 0.95396 0.50075
 Co591 Co 0.49878 1.04450 0.49954
 O592 O 0.49856 0.99921 0.50018
 C593 C 0.46074 1.04454 0.53086
 C594 C 0.46040 0.95437 0.46941
 C595 C 0.46148 0.95972 0.53667
 C596 C 0.46188 1.03878 0.46367
 O597 O 1.04966 1.03364 0.48760
 O598 O 0.95478 1.03472 0.51251
 O599 O 0.98800 1.03472 0.46238
 O600 O 1.01639 1.03472 0.53766
 O601 O 0.94928 1.02085 0.47544
 O602 O 1.05484 1.01998 0.52475
 O603 O 0.96976 1.01832 0.54252
 O604 O 1.03432 1.01731 0.45770
 C605 C 1.04666 1.03612 0.46760
 C606 C 0.95771 1.03725 0.53251
 C607 C 0.96287 1.03851 0.46498
 C608 C 1.04157 1.03805 0.53502
 O609 O 1.04916 0.96544 0.51219
 O610 O 0.95383 0.96633 0.48831
 O611 O 1.01496 0.96512 0.46242
 O612 O 0.98805 0.96569 0.53803
 O613 O 0.94938 0.98032 0.52545
 O614 O 1.05392 0.97903 0.47497
 O615 O 1.03476 0.98212 0.54225
 O616 O 0.96860 0.98247 0.45815
 Co617 Co 1.04709 0.99957 0.49990
 Co618 Co 0.95663 1.00051 0.50040
 Co619 Co 1.00151 0.99992 0.46415
 Co620 Co 1.00220 1.00020 0.53612
 O621 O 1.00186 1.00005 0.50014
 C622 C 1.04659 0.96308 0.53224
 C623 C 0.95644 0.96372 0.46828
 C624 C 1.04009 0.96124 0.46486
 C625 C 0.96284 0.96232 0.53563
 O626 O 0.55314 0.52277 -0.02491
 O627 O 0.44896 0.52178 0.02428
 O628 O 0.46800 0.51762 -0.04288
 O629 O 0.53420 0.51802 0.04219
 O630 O 0.45350 0.53450 -0.01300
 O631 O 0.54839 0.53526 0.01234
 O632 O 0.48773 0.53558 0.03753
 O633 O 0.51413 0.53601 -0.03806
 C634 C 0.53917 0.54028 -0.03529
 C635 C 0.46261 0.53940 0.03480
 C636 C 0.45556 0.53642 -0.03309
 C637 C 0.54616 0.53715 0.03242
 O638 O 0.55359 0.48012 0.02423
 O639 O 0.44932 0.47931 -0.02495
 O640 O 0.53447 0.48448 -0.04285
 O641 O 0.46835 0.48371 0.04215
 O642 O 0.45406 0.46670 0.01226
 O643 O 0.54897 0.46754 -0.01300
 O644 O 0.51485 0.46612 0.03739
 O645 O 0.48830 0.46607 -0.03815
 Co646 Co 0.54632 0.50138 -0.00034
 Co647 Co 0.45617 0.50062 -0.00035
 Co648 Co 0.50123 0.50104 -0.03641
 Co649 Co 0.50128 0.50086 0.03574
 O650 O 0.50125 0.50098 -0.00034
 C651 C 0.54000 0.46238 0.03468
 C652 C 0.46325 0.46184 -0.03538
 C653 C 0.54670 0.46554 -0.03307
 C654 C 0.45630 0.46470 0.03233
 C655 C 0.30598 1.18445 0.18530
 C656 C 0.31877 1.17097 0.17209
 C657 C 0.33462 1.15526 0.15647
 C658 C 0.32552 1.12909 0.14980
 C659 C 0.34110 1.11386 0.13464
 C660 C 0.36598 1.12466 0.12601
 C661 C 0.37498 1.15095 0.13291
 C662 C 0.35937 1.16614 0.14804
 C663 C 0.38229 1.10877 0.10965
 C664 C 0.41151 1.10812 0.11073
 C665 C 0.42683 1.09363 0.09496
 C666 C 0.41314 1.07966 0.07797
 C667 C 0.38411 1.08003 0.07685
 C668 C 0.36875 1.09448 0.09258
 C669 C 0.42873 1.06537 0.06135
 C670 C 0.44115 1.05345 0.04702
 H671 H 0.30645 1.12045 0.15633
 H672 H 0.33383 1.09354 0.12982
 H673 H 0.39385 1.15995 0.12633
 H674 H 0.36656 1.18640 0.15312
 H675 H 0.42247 1.11867 0.12383
 H676 H 0.44932 1.09341 0.09597
 H677 H 0.37334 1.06937 0.06368
 H678 H 0.34632 1.09493 0.09115
 C679 C 0.80660 0.68326 0.68608
 C680 C 0.81975 0.66985 0.67304
 C681 C 0.83612 0.65431 0.65762
 C682 C 0.82909 0.62695 0.65257
 C683 C 0.84520 0.61190 0.63764
 C684 C 0.86859 0.62406 0.62763
 C685 C 0.87552 0.65155 0.63290
 C686 C 0.85936 0.66655 0.64780
 C687 C 0.88540 0.60839 0.61143
 C688 C 0.91458 0.61054 0.61135
 C689 C 0.93029 0.59662 0.59549
 C690 C 0.91704 0.58042 0.57956
 C691 C 0.88808 0.57783 0.57971
 C692 C 0.87234 0.59170 0.59555
 C693 C 0.93292 0.56727 0.56251
 C694 C 0.94562 0.55651 0.54775
 H695 H 0.81120 0.61725 0.66018
 H696 H 0.83955 0.59069 0.63408
 H697 H 0.89315 0.66160 0.62523
 H698 H 0.86495 0.68774 0.65160
 H699 H 0.92523 0.62295 0.62355
 H700 H 0.95272 0.59872 0.59550
 H701 H 0.87763 0.56544 0.56737
 H702 H 0.84991 0.58993 0.59502
 C703 C 0.69439 0.81779 0.18664
 C704 C 0.68116 0.83109 0.17357
 C705 C 0.66464 0.84647 0.15817
 C706 C 0.67606 0.86892 0.14680
 C707 C 0.65987 0.88367 0.13174
 C708 C 0.63206 0.87606 0.12786
 C709 C 0.62076 0.85354 0.13947
 C710 C 0.63696 0.83886 0.15453
 C711 C 0.61504 0.89126 0.11153
 C712 C 0.59741 0.87679 0.09708
 C713 C 0.58189 0.89102 0.08130
 C714 C 0.58375 0.91983 0.07979
 C715 C 0.60099 0.93445 0.09423
 C716 C 0.61655 0.92026 0.11003
 C717 C 0.56891 0.93422 0.06280
 C718 C 0.55702 0.94610 0.04816
 H719 H 0.69749 0.87492 0.14950
 H720 H 0.66924 0.90069 0.12283
 H721 H 0.59932 0.84743 0.13704
 H722 H 0.62791 0.82156 0.16333
 H723 H 0.59610 0.85444 0.09765
 H724 H 0.56876 0.87951 0.07007
 H725 H 0.60258 0.95677 0.09316
 H726 H 0.62967 0.93196 0.12112
 C727 C 1.19442 0.31963 0.68724
 C728 C 1.18126 0.33342 0.67445
 C729 C 1.16479 0.34941 0.65940
 C730 C 1.13614 0.35192 0.66284
 C731 C 1.11980 0.36667 0.64791
 C732 C 1.13193 0.37910 0.62932
 C733 C 1.16081 0.37674 0.62613
 C734 C 1.17713 0.36195 0.64109
 C735 C 1.11444 0.39386 0.61301
 C736 C 1.12373 0.41863 0.60332
 C737 C 1.10767 0.43190 0.58733
 C738 C 1.08217 0.42060 0.58087
 C739 C 1.07257 0.39620 0.59062
 C740 C 1.08858 0.38290 0.60661
 C741 C 1.06649 0.43335 0.56350
 C742 C 1.05380 0.44370 0.54855
 H743 H 1.12642 0.34231 0.67699
 H744 H 1.09769 0.36843 0.65094
 H745 H 1.17068 0.38578 0.61182
 H746 H 1.19928 0.36004 0.63826
 H747 H 1.14338 0.42773 0.60812
 H748 H 1.11529 0.45078 0.57984
 H749 H 1.05293 0.38721 0.58561
 H750 H 1.08106 0.36367 0.61356
 C751 C 0.69463 1.18155 -0.18589
 C752 C 0.68188 1.16809 -0.17264
 C753 C 0.66605 1.15255 -0.15690
 C754 C 0.66165 1.12420 -0.15998
 C755 C 0.64554 1.10932 -0.14496
 C756 C 0.63359 1.12269 -0.12670
 C757 C 0.63825 1.15117 -0.12371
 C758 C 0.65438 1.16599 -0.13874
 C759 C 0.61647 1.10701 -0.11072
 C760 C 0.59207 1.11868 -0.10195
 C761 C 0.57646 1.10428 -0.08632
 C762 C 0.58502 1.07808 -0.07930
 C763 C 0.60903 1.06613 -0.08813
 C764 C 0.62466 1.08047 -0.10378
 C765 C 0.56989 1.06396 -0.06232
 C766 C 0.55780 1.05226 -0.04770
 H767 H 0.67050 1.11367 -0.17407
 H768 H 0.64206 1.08748 -0.14779
 H769 H 0.62968 1.16193 -0.10964
 H770 H 0.65769 1.18794 -0.13623
 H771 H 0.58505 1.13892 -0.10721
 H772 H 0.55789 1.11370 -0.07955
 H773 H 0.61590 1.04590 -0.08268
 H774 H 0.64351 1.07111 -0.11005
 C775 C 1.19336 0.68046 0.31318
 C776 C 1.18026 0.66670 0.32602
 C777 C 1.16387 0.65067 0.34111
 C778 C 1.17620 0.63860 0.35961
 C779 C 1.15999 0.62364 0.37453
 C780 C 1.13121 0.62062 0.37110
 C781 C 1.11908 0.63264 0.35234
 C782 C 1.13532 0.64758 0.33745
 C783 C 1.11384 0.60556 0.38731
 C784 C 1.08757 0.61587 0.39336
 C785 C 1.07166 0.60229 0.40927
 C786 C 1.08175 0.57825 0.41928
 C787 C 1.10765 0.56759 0.41315
 C788 C 1.12361 0.58113 0.39724
 C789 C 1.06617 0.56528 0.43659
 C790 C 1.05359 0.55478 0.45153
 H791 H 1.19827 0.64099 0.36261
 H792 H 1.16985 0.61496 0.38898
 H793 H 1.09705 0.63039 0.34913
 H794 H 1.12560 0.65684 0.32315
 H795 H 1.07965 0.63482 0.38622
 H796 H 1.05170 0.61080 0.41402
 H797 H 1.11565 0.54899 0.42084
 H798 H 1.14358 0.57251 0.39271
 C799 C 0.30404 0.81700 -0.18576
 C800 C 0.31657 0.83037 -0.17233
 C801 C 0.33199 0.84589 -0.15633
 C802 C 0.33318 0.83672 -0.13453
 C803 C 0.34879 0.85133 -0.11904
 C804 C 0.36343 0.87530 -0.12520
 C805 C 0.36204 0.88441 -0.14716
 C806 C 0.34640 0.86976 -0.16263
 C807 C 0.38013 0.89066 -0.10877
 C808 C 0.40650 0.90119 -0.11428
 C809 C 0.42233 0.91535 -0.09863
 C810 C 0.41195 0.91916 -0.07734
 C811 C 0.38571 0.90888 -0.07175
 C812 C 0.36988 0.89472 -0.08734
 C813 C 0.42804 0.93358 -0.06110
 C814 C 0.44080 0.94558 -0.04701
 H815 H 0.32224 0.81815 -0.12955
 H816 H 0.34978 0.84361 -0.10232
 H817 H 0.37283 0.90298 -0.15231
 H818 H 0.34561 0.87699 -0.17950
 H819 H 0.41505 0.89809 -0.13058
 H820 H 0.44266 0.92321 -0.10309
 H821 H 0.37747 0.91183 -0.05532
 H822 H 0.34950 0.88719 -0.08271
 C823 C 0.80511 0.31660 0.31449
 C824 C 0.81757 0.33026 0.32779
 C825 C 0.83302 0.34619 0.34354
 C826 C 0.82877 0.34204 0.36607
 C827 C 0.84454 0.35678 0.38140
 C828 C 0.86480 0.37583 0.37436
 C829 C 0.86877 0.37998 0.35167
 C830 C 0.85296 0.36523 0.33636
 C831 C 0.88190 0.39101 0.39066
 C832 C 0.91059 0.39478 0.38722
 C833 C 0.92680 0.40835 0.40296
 C834 C 0.91453 0.41833 0.42226
 C835 C 0.88598 0.41497 0.42569
 C836 C 0.86974 0.40141 0.41001
 C837 C 0.93113 0.43147 0.43888
 C838 C 0.94434 0.44227 0.45334
 H839 H 0.81349 0.32721 0.37178
 H840 H 0.84127 0.35285 0.39875
 H841 H 0.88398 0.39474 0.34577
 H842 H 0.85640 0.36855 0.31894
 H843 H 0.92057 0.38672 0.37260
 H844 H 0.94892 0.41079 0.40020
 H845 H 0.87628 0.42269 0.44057
 H846 H 0.84766 0.39916 0.41296
 C847 C 1.19823 0.31211 0.17870
 C848 C 1.18747 0.32527 0.16412
 C849 C 1.17419 0.34107 0.14695
 C850 C 1.16208 0.36667 0.15184
 C851 C 1.14823 0.38161 0.13546
 C852 C 1.14625 0.37114 0.11389
 C853 C 1.15884 0.34555 0.10907
 C854 C 1.17269 0.33063 0.12550
 C855 C 1.13017 0.38638 0.09682
 C856 C 1.11279 0.37200 0.08210
 C857 C 1.09605 0.38641 0.06716
 C858 C 1.09648 0.41536 0.06664
 C859 C 1.11424 0.42984 0.08079
 C860 C 1.13101 0.41548 0.09575
 C861 C 1.07706 0.43014 0.05293
 C862 C 1.05976 0.44227 0.04226
 H863 H 1.16302 0.37493 0.16840
 H864 H 1.13843 0.40100 0.13983
 H865 H 1.15799 0.33707 0.09259
 H866 H 1.18202 0.31086 0.12150
 H867 H 1.11134 0.34966 0.08267
 H868 H 1.08220 0.37497 0.05644
 H869 H 1.11467 0.45225 0.08061
 H870 H 1.14443 0.42715 0.10662
 C871 C 0.70048 0.81221 0.67815
 C872 C 0.68952 0.82494 0.66342
 C873 C 0.67571 0.83999 0.64610
 C874 C 0.68307 0.86742 0.64152
 C875 C 0.66868 0.88238 0.62541
 C876 C 0.64669 0.87008 0.61365
 C877 C 0.63976 0.84235 0.61817
 C878 C 0.65416 0.82746 0.63427
 C879 C 0.63027 0.88632 0.59740
 C880 C 0.62075 0.87401 0.57780
 C881 C 0.60361 0.88873 0.56333
 C882 C 0.59581 0.91595 0.56819
 C883 C 0.60573 0.92860 0.58737
 C884 C 0.62287 0.91393 0.60185
 C885 C 0.57601 0.93019 0.55446
 C886 C 0.55848 0.94188 0.54373
 H887 H 0.69972 0.87735 0.65056
 H888 H 0.67473 0.90357 0.62216
 H889 H 0.62269 0.83239 0.60969
 H890 H 0.64817 0.80629 0.63774
 H891 H 0.62635 0.85293 0.57375
 H892 H 0.59598 0.87867 0.54858
 H893 H 0.59963 0.94957 0.59141
 H894 H 0.62949 0.92390 0.61692
 C895 C 1.19647 0.69155 -0.18130
 C896 C 1.18519 0.67879 -0.16671
 C897 C 1.17122 0.66359 -0.14952
 C898 C 1.14824 0.67521 -0.13882
 C899 C 1.13403 0.66021 -0.12265
 C900 C 1.14254 0.63326 -0.11697
 C901 C 1.16583 0.62186 -0.12767
 C902 C 1.18005 0.63693 -0.14382
 C903 C 1.12662 0.61689 -0.10046
 C904 C 1.12120 0.58862 -0.10401
 C905 C 1.10486 0.57359 -0.08917
 C906 C 1.09378 0.58652 -0.07052
 C907 C 1.09952 0.61448 -0.06659
 C908 C 1.11584 0.62957 -0.08143
 C909 C 1.07489 0.57162 -0.05638
 C910 C 1.05810 0.55934 -0.04529
 H911 H 1.14110 0.69575 -0.14316
 H912 H 1.11595 0.66944 -0.11499
 H913 H 1.17309 0.60131 -0.12352
 H914 H 1.19781 0.62771 -0.15196
 H915 H 1.12884 0.57832 -0.11863
 H916 H 1.10034 0.55204 -0.09253
 H917 H 1.09098 0.62476 -0.05226
 H918 H 1.11990 0.65119 -0.07807
 C919 C 0.69855 1.18782 0.32070
 C920 C 0.68738 1.17506 0.33534
 C921 C 0.67345 1.15996 0.35262
 C922 C 0.65093 1.17193 0.36368
 C923 C 0.63666 1.15703 0.37987
 C924 C 0.64466 1.12983 0.38527
 C925 C 0.66755 1.11809 0.37424
 C926 C 0.68182 1.13306 0.35805
 C927 C 0.62854 1.11354 0.40174
 C928 C 0.62278 1.08534 0.39812
 C929 C 0.60611 1.07048 0.41285
 C930 C 0.59499 1.08350 0.43145
 C931 C 0.60110 1.11137 0.43547
 C932 C 0.61778 1.12627 0.42077
 C933 C 0.57568 1.06886 0.44542
 C934 C 0.55852 1.05684 0.45635
 H935 H 0.64416 1.19268 0.35958
 H936 H 0.61891 1.16656 0.38776
 H937 H 0.67447 1.09735 0.37816
 H938 H 0.69923 1.12356 0.34964
 H939 H 0.63039 1.07498 0.38352
 H940 H 0.60132 1.04900 0.40942
 H941 H 0.59254 1.12173 0.44975
 H942 H 0.62210 1.14783 0.42422
 C943 C 0.80254 0.69036 0.17911
 C944 C 0.81342 0.67713 0.16462
 C945 C 0.82698 0.66109 0.14773
 C946 C 0.82518 0.66901 0.12560
 C947 C 0.83916 0.65384 0.10938
 C948 C 0.85516 0.63051 0.11507
 C949 C 0.85656 0.62259 0.13734
 C950 C 0.84259 0.63776 0.15351
 C951 C 0.87113 0.61503 0.09808
 C952 C 0.87351 0.58602 0.09917
 C953 C 0.89021 0.57169 0.08416
 C954 C 0.90471 0.58608 0.06779
 C955 C 0.90192 0.61484 0.06620
 C956 C 0.88521 0.62923 0.08118
 C957 C 0.92409 0.57160 0.05381
 C958 C 0.94125 0.55959 0.04291
 H959 H 0.81314 0.68701 0.12091
 H960 H 0.83739 0.66033 0.09238
 H961 H 0.86903 0.60504 0.14236
 H962 H 0.84427 0.63148 0.17058
 H963 H 0.86265 0.57441 0.11176
 H964 H 0.89227 0.54943 0.08562
 H965 H 0.91324 0.62626 0.05373
 H966 H 0.88412 0.65155 0.08002
 C967 C 0.30098 1.19106 0.67791
 C968 C 0.31156 1.17797 0.66320
 C969 C 0.32475 1.16207 0.64604
 C970 C 0.33616 1.13614 0.65090
 C971 C 0.35004 1.12109 0.63461
 C972 C 0.35278 1.13176 0.61316
 C973 C 0.34091 1.15771 0.60835
 C974 C 0.32700 1.17274 0.62468
 C975 C 0.36890 1.11634 0.59623
 C976 C 0.38723 1.13042 0.58205
 C977 C 0.40398 1.11575 0.56727
 C978 C 0.40259 1.08684 0.56636
 C979 C 0.38390 1.07269 0.57997
 C980 C 0.36714 1.08732 0.59478
 C981 C 0.42189 1.07164 0.55279
 C982 C 0.43904 1.05910 0.54226
 H983 H 0.33468 1.12773 0.66738
 H984 H 0.35929 1.10142 0.63897
 H985 H 0.34240 1.16637 0.59196
 H986 H 0.31823 1.19277 0.62071
 H987 H 0.38939 1.15269 0.58294
 H988 H 0.41855 1.12693 0.55698
 H989 H 0.38271 1.05032 0.57949
 H990 H 0.35300 1.07589 0.60524
 C991 C 0.80149 0.30982 -0.17881
 C992 C 0.81225 0.32297 -0.16422
 C993 C 0.82561 0.33882 -0.14713
 C994 C 0.82788 0.32816 -0.12578
 C995 C 0.84187 0.34316 -0.10947
 C996 C 0.85378 0.36907 -0.11431
 C997 C 0.85105 0.37974 -0.13576
 C998 C 0.83709 0.36471 -0.15202
 C999 C 0.86991 0.38448 -0.09738
 C1000 C 0.86811 0.41350 -0.09590
 C1001 C 0.88481 0.42811 -0.08105
 C1002 C 0.90348 0.41395 -0.06743
 C1003 C 0.90491 0.38505 -0.06839
 C1004 C 0.88823 0.37040 -0.08321
 C1005 C 0.92275 0.42909 -0.05382
 C1006 C 0.93994 0.44149 -0.04324
 H1007 H 0.81905 0.30816 -0.12178
 H1008 H 0.84336 0.33450 -0.09308
 H1009 H 0.86035 0.39938 -0.14013
 H1010 H 0.83560 0.37312 -0.16851
 H1011 H 0.85397 0.42492 -0.10637
 H1012 H 0.88359 0.45049 -0.08053
 H1013 H 0.91948 0.37388 -0.05810
 H1014 H 0.89041 0.34813 -0.08413
 C1015 C 0.29878 0.81004 0.32214
 C1016 C 0.30943 0.82312 0.33682
 C1017 C 0.32281 0.83889 0.35398
 C1018 C 0.32531 0.82802 0.37525
 C1019 C 0.33946 0.84285 0.39157
 C1020 C 0.35135 0.86881 0.38683
 C1021 C 0.34836 0.87970 0.36547
 C1022 C 0.33422 0.86484 0.34920
 C1023 C 0.36772 0.88403 0.40376
 C1024 C 0.36627 0.91307 0.40529
 C1025 C 0.38318 0.92747 0.42013
 C1026 C 0.40171 0.91308 0.43371
 C1027 C 0.40281 0.88416 0.43271
 C1028 C 0.38593 0.86973 0.41789
 C1029 C 0.42116 0.92798 0.44736
 C1030 C 0.43847 0.94021 0.45796
 H1031 H 0.31656 0.80795 0.37917
 H1032 H 0.34111 0.83402 0.40789
 H1033 H 0.35761 0.89939 0.36114
 H1034 H 0.33255 0.87343 0.33278
 H1035 H 0.35223 0.92468 0.39487
 H1036 H 0.38221 0.94985 0.42067
 H1037 H 0.41726 0.87280 0.44298
 H1038 H 0.38788 0.84744 0.41694
 C1039 C 1.18414 1.19862 0.31752
 C1040 C 1.17150 1.18736 0.33211
 C1041 C 1.15693 1.17341 0.34956
 C1042 C 1.17021 1.15238 0.36138
 C1043 C 1.15600 1.13820 0.37795
 C1044 C 1.12824 1.14488 0.38296
 C1045 C 1.11515 1.16629 0.37115
 C1046 C 1.12943 1.18045 0.35456
 C1047 C 1.11278 1.12880 0.39983
 C1048 C 1.08502 1.12093 0.39611
 C1049 C 1.07109 1.10408 0.41120
 C1050 C 1.08466 1.09492 0.43023
 C1051 C 1.11203 1.10320 0.43437
 C1052 C 1.12600 1.12008 0.41930
 C1053 C 1.07118 1.07531 0.44448
 C1054 C 1.05996 1.05792 0.45558
 H1055 H 1.19148 1.14671 0.35760
 H1056 H 1.16653 1.12155 0.38647
 H1057 H 1.09391 1.17211 0.37477
 H1058 H 1.11897 1.19675 0.34554
 H1059 H 1.07438 1.12695 0.38116
 H1060 H 1.04999 1.09757 0.40773
 H1061 H 1.12277 1.09613 0.44900
 H1062 H 1.14724 1.12608 0.42277
 C1063 C 0.68073 0.70085 -0.18345
 C1064 C 0.66691 0.69054 -0.16909
 C1065 C 0.65076 0.67778 -0.15195
 C1066 C 0.65993 0.67877 -0.13011
 C1067 C 0.64499 0.66516 -0.11360
 C1068 C 0.62070 0.65027 -0.11876
 C1069 C 0.61142 0.64983 -0.14073
 C1070 C 0.62635 0.66351 -0.15719
 C1071 C 0.60582 0.63414 -0.10158
 C1072 C 0.57662 0.63230 -0.10170
 C1073 C 0.56283 0.61521 -0.08668
 C1074 C 0.57800 0.59988 -0.07128
 C1075 C 0.60697 0.60221 -0.07058
 C1076 C 0.62081 0.61924 -0.08560
 C1077 C 0.56411 0.57999 -0.05753
 C1078 C 0.55263 0.56236 -0.04685
 H1079 H 0.67880 0.68979 -0.12587
 H1080 H 0.65249 0.66620 -0.09682
 H1081 H 0.59309 0.63821 -0.14534
 H1082 H 0.61913 0.66254 -0.17406
 H1083 H 0.56445 0.64379 -0.11358
 H1084 H 0.54040 0.61344 -0.08744
 H1085 H 0.61893 0.59022 -0.05886
 H1086 H 0.64330 0.61988 -0.08524
 C1087 C 0.81738 1.19724 0.68231
 C1088 C 0.83035 1.18630 0.66774
 C1089 C 0.84531 1.17275 0.65030
 C1090 C 0.83281 1.15100 0.63878
 C1091 C 0.84737 1.13729 0.62216
 C1092 C 0.87472 1.14514 0.61680
 C1093 C 0.88704 1.16723 0.62833
 C1094 C 0.87240 1.18094 0.64497
 C1095 C 0.89056 1.12959 0.59985
 C1096 C 0.91868 1.12284 0.60331
 C1097 C 0.93295 1.10623 0.58825
 C1098 C 0.91938 1.09623 0.56949
 C1099 C 0.89167 1.10351 0.56555
 C1100 C 0.87736 1.12013 0.58059
 C1101 C 0.93315 1.07663 0.55540
 C1102 C 0.94448 1.05919 0.54443
 H1103 H 0.81188 1.14444 0.64282
 H1104 H 0.83746 1.12009 0.61387
 H1105 H 0.90794 1.17393 0.62445
 H1106 H 0.88225 1.19780 0.65376
 H1107 H 0.92934 1.12949 0.61808
 H1108 H 0.95432 1.10052 0.59156
 H1109 H 0.88094 1.09580 0.55113
 H1110 H 0.85586 1.12529 0.57730
 C1111 C 0.31858 0.69846 0.18310
 C1112 C 0.33183 0.68762 0.16864
 C1113 C 0.34710 0.67414 0.15134
 C1114 C 0.33471 0.65259 0.13950
 C1115 C 0.34960 0.63889 0.12306
 C1116 C 0.37715 0.64655 0.11820
 C1117 C 0.38933 0.66846 0.13003
 C1118 C 0.37437 0.68216 0.14649
 C1119 C 0.39334 0.63095 0.10150
 C1120 C 0.42127 0.62390 0.10550
 C1121 C 0.43587 0.60733 0.09061
 C1122 C 0.42284 0.59767 0.07152
 C1123 C 0.39532 0.60519 0.06708
 C1124 C 0.38066 0.62177 0.08194
 C1125 C 0.43700 0.57827 0.05751
 C1126 C 0.44875 0.56104 0.04661
 H1127 H 0.31364 0.64616 0.14317
 H1128 H 0.33978 0.62183 0.11452
 H1129 H 0.41039 0.67502 0.12652
 H1130 H 0.38413 0.69887 0.15552
 H1131 H 0.43151 0.63031 0.12052
 H1132 H 0.45709 0.60142 0.09431
 H1133 H 0.38500 0.59773 0.05238
 H1134 H 0.35932 0.62715 0.07826
 C1135 C 1.18368 0.80161 0.68315
 C1136 C 1.17053 0.81239 0.66858
 C1137 C 1.15519 0.82563 0.65117
 C1138 C 1.16592 0.82611 0.62976
 C1139 C 1.15168 0.84004 0.61303
 C1140 C 1.12649 0.85373 0.61750
 C1141 C 1.11565 0.85272 0.63901
 C1142 C 1.12992 0.83877 0.65571
 C1143 C 1.11217 0.87002 0.60010
 C1144 C 1.08296 0.87035 0.59871
 C1145 C 1.06953 0.88731 0.58339
 C1146 C 1.08508 0.90408 0.56920
 C1147 C 1.11413 0.90334 0.57005
 C1148 C 1.12760 0.88642 0.58536
 C1149 C 1.07130 0.92373 0.55511
 C1150 C 1.05993 0.94117 0.54414
 H1151 H 1.18545 0.81597 0.62606
 H1152 H 1.16041 0.84014 0.59661
 H1153 H 1.09653 0.86336 0.64308
 H1154 H 1.12146 0.83862 0.67224
 H1155 H 1.07050 0.85770 0.60962
 H1156 H 1.04702 0.88780 0.58294
 H1157 H 1.12637 0.91643 0.55930
 H1158 H 1.15008 0.88696 0.58619
 C1159 C 0.68283 0.30107 0.18247
 C1160 C 0.66941 0.31197 0.16813
 C1161 C 0.65361 0.32541 0.15108
 C1162 C 0.66383 0.32635 0.12952
 C1163 C 0.64904 0.34041 0.11315
 C1164 C 0.62381 0.35374 0.11815
 C1165 C 0.61353 0.35231 0.13981
 C1166 C 0.62835 0.33826 0.15614
 C1167 C 0.60882 0.37002 0.10114
 C1168 C 0.57960 0.36961 0.10003
 C1169 C 0.56549 0.38652 0.08505
 C1170 C 0.58039 0.40398 0.07095
 C1171 C 0.60946 0.40402 0.07155
 C1172 C 0.62361 0.38714 0.08650
 C1173 C 0.56590 0.42344 0.05716
 C1174 C 0.55396 0.44069 0.04640
 H1175 H 0.68334 0.31644 0.12540
 H1176 H 0.65734 0.34088 0.09659
 H1177 H 0.59440 0.36269 0.14427
 H1178 H 0.62031 0.33778 0.17280
 H1179 H 0.56765 0.35641 0.11089
 H1180 H 0.54297 0.38640 0.08479
 H1181 H 0.62119 0.41766 0.06087
 H1182 H 0.64607 0.38822 0.08714
 C1183 C 0.81837 0.80254 0.31804
 C1184 C 0.83162 0.81327 0.33255
 C1185 C 0.84712 0.82648 0.34987
 C1186 C 0.83728 0.82577 0.37154
 C1187 C 0.85164 0.83969 0.38820
 C1188 C 0.87606 0.85452 0.38338
 C1189 C 0.88601 0.85473 0.36160
 C1190 C 0.87160 0.84083 0.34497
 C1191 C 0.89049 0.87072 0.40073
 C1192 C 0.91970 0.87172 0.40155
 C1193 C 0.93320 0.88867 0.41684
 C1194 C 0.91769 0.90476 0.43153
 C1195 C 0.88865 0.90336 0.43122
 C1196 C 0.87511 0.88641 0.41597
 C1197 C 0.93146 0.92442 0.44558
 C1198 C 0.94291 0.94185 0.45649
 H1199 H 0.81835 0.81469 0.37552
 H1200 H 0.84363 0.83890 0.40484
 H1201 H 0.90450 0.86630 0.35729
 H1202 H 0.87933 0.84162 0.32823
 H1203 H 0.93211 0.85963 0.39022
 H1204 H 0.95570 0.88969 0.41686
 H1205 H 0.87644 0.91596 0.44236
 H1206 H 0.85261 0.88639 0.41557
 C1207 C 0.31907 0.30135 -0.18225
 C1208 C 0.33231 0.31208 -0.16774
 C1209 C 0.34766 0.32543 -0.15043
 C1210 C 0.33514 0.34648 -0.13813
 C1211 C 0.35017 0.36021 -0.12178
 C1212 C 0.37800 0.35308 -0.11750
 C1213 C 0.39032 0.33162 -0.12976
 C1214 C 0.37522 0.31790 -0.14612
 C1215 C 0.39437 0.36886 -0.10101
 C1216 C 0.42197 0.37663 -0.10555
 C1217 C 0.43664 0.39344 -0.09089
 C1218 C 0.42401 0.40263 -0.07149
 C1219 C 0.39685 0.39437 -0.06650
 C1220 C 0.38213 0.37755 -0.08114
 C1221 C 0.43811 0.42234 -0.05771
 C1222 C 0.44972 0.43985 -0.04701
 H1223 H 0.31385 0.35254 -0.14139
 H1224 H 0.34023 0.37692 -0.11290
 H1225 H 0.41161 0.32547 -0.12669
 H1226 H 0.38510 0.30159 -0.15552
 H1227 H 0.43185 0.37061 -0.12082
 H1228 H 0.45757 0.39994 -0.09501
 H1229 H 0.38684 0.40146 -0.05156
 H1230 H 0.36104 0.37161 -0.07706
 C1231 C 1.19791 0.30759 -0.17924
 C1232 C 1.18635 0.32011 -0.16469
 C1233 C 1.17231 0.33569 -0.14778
 C1234 C 1.14849 0.32499 -0.13766
 C1235 C 1.13399 0.34077 -0.12214
 C1236 C 1.14307 0.36756 -0.11654
 C1237 C 1.16731 0.37794 -0.12656
 C1238 C 1.18179 0.36212 -0.14206
 C1239 C 1.12677 0.38490 -0.10094
 C1240 C 1.12281 0.41331 -0.10505
 C1241 C 1.10619 0.42931 -0.09108
 C1242 C 1.09337 0.41722 -0.07277
 C1243 C 1.09760 0.38912 -0.06831
 C1244 C 1.11420 0.37307 -0.08226
 C1245 C 1.07447 0.43315 -0.05941
 C1246 C 1.05777 0.44603 -0.04869
 H1247 H 1.14084 0.30464 -0.14204
 H1248 H 1.11522 0.33228 -0.11498
 H1249 H 1.17507 0.39832 -0.12242
 H1250 H 1.20020 0.37064 -0.14978
 H1251 H 1.13184 0.42299 -0.11944
 H1252 H 1.10287 0.45098 -0.09483
 H1253 H 1.08771 0.37949 -0.05424
 H1254 H 1.11709 0.35137 -0.07847
 C1255 C 0.69676 0.80764 0.32035
 C1256 C 0.68491 0.81997 0.33487
 C1257 C 0.67054 0.83518 0.35183
 C1258 C 0.64570 0.82495 0.36065
 C1259 C 0.63110 0.84029 0.37638
 C1260 C 0.64110 0.86616 0.38352
 C1261 C 0.66628 0.87610 0.37474
 C1262 C 0.68086 0.86071 0.35901
 C1263 C 0.62487 0.88302 0.39950
 C1264 C 0.62243 0.91186 0.39677
 C1265 C 0.60593 0.92751 0.41107
 C1266 C 0.59169 0.91463 0.42835
 C1267 C 0.59441 0.88606 0.43149
 C1268 C 0.61089 0.87036 0.41720
 C1269 C 0.57291 0.93039 0.44196
 C1270 C 0.55634 0.94328 0.45280
 H1271 H 0.63742 0.80530 0.35513
 H1272 H 0.61160 0.83221 0.38254
 H1273 H 0.67473 0.89575 0.38006
 H1274 H 0.70006 0.86886 0.35232
 H1275 H 0.63259 0.92221 0.38317
 H1276 H 0.60382 0.94956 0.40836
 H1277 H 0.58343 0.87583 0.44476
 H1278 H 0.61261 0.84829 0.41995
 C1279 C 0.80212 0.69198 -0.18030
 C1280 C 0.81350 0.67881 -0.16603
 C1281 C 0.82742 0.66236 -0.14961
 C1282 C 0.82687 0.67011 -0.12742
 C1283 C 0.84086 0.65417 -0.11167
 C1284 C 0.85553 0.63023 -0.11793
 C1285 C 0.85575 0.62255 -0.14027
 C1286 C 0.84181 0.63850 -0.15596
 C1287 C 0.87130 0.61374 -0.10147
 C1288 C 0.87187 0.58465 -0.10269
 C1289 C 0.88834 0.56926 -0.08819
 C1290 C 0.90440 0.58269 -0.07223
 C1291 C 0.90342 0.61156 -0.07052
 C1292 C 0.88696 0.62699 -0.08499
 C1293 C 0.92343 0.56711 -0.05875
 C1294 C 0.94034 0.55448 -0.04808
 H1295 H 0.81573 0.68849 -0.12230
 H1296 H 0.84007 0.66049 -0.09459
 H1297 H 0.86721 0.60452 -0.14570
 H1298 H 0.84247 0.63234 -0.17309
 H1299 H 0.85976 0.57381 -0.11499
 H1300 H 0.88898 0.54693 -0.08973
 H1301 H 0.91595 0.62220 -0.05835
 H1302 H 0.88726 0.64934 -0.08377
 C1303 C 0.30521 1.19415 0.31892
 C1304 C 0.31741 1.18138 0.33299
 C1305 C 0.33244 1.16541 0.34910
 C1306 C 0.36011 1.15811 0.34508
 C1307 C 0.37455 1.14158 0.36009
 C1308 C 0.36150 1.13202 0.37938
 C1309 C 0.33374 1.13973 0.38342
 C1310 C 0.31930 1.15627 0.36834
 C1311 C 0.37684 1.11396 0.39504
 C1312 C 0.37431 1.11770 0.41793
 C1313 C 0.38981 1.10142 0.43252
 C1314 C 0.40790 1.08114 0.42443
 C1315 C 0.41010 1.07691 0.40173
 C1316 C 0.39467 1.09313 0.38713
 C1317 C 0.42555 1.06573 0.43915
 C1318 C 0.44148 1.05316 0.45077
 H1319 H 0.37050 1.16504 0.33025
 H1320 H 0.39602 1.13641 0.35666
 H1321 H 0.32304 1.13249 0.39800
 H1322 H 0.29782 1.16165 0.37156
 H1323 H 0.36096 1.13372 0.42452
 H1324 H 0.38808 1.10501 0.45007
 H1325 H 0.42407 1.06131 0.39527
 H1326 H 0.39675 1.08941 0.36964
 C1327 C 1.19772 0.69103 0.17964
 C1328 C 1.18628 0.67817 0.16522
 C1329 C 1.17230 0.66213 0.14856
 C1330 C 1.16928 0.67242 0.12716
 C1331 C 1.15512 0.65693 0.11123
 C1332 C 1.14380 0.63088 0.11651
 C1333 C 1.14718 0.62066 0.13803
 C1334 C 1.16131 0.63617 0.15390
 C1335 C 1.12779 0.61476 0.09993
 C1336 C 1.13008 0.58573 0.09892
 C1337 C 1.11361 0.57045 0.08433
 C1338 C 1.09469 0.58394 0.07051
 C1339 C 1.09274 0.61283 0.07101
 C1340 C 1.10918 0.62815 0.08557
 C1341 C 1.07589 0.56815 0.05696
 C1342 C 1.05915 0.55534 0.04623
 H1343 H 1.17774 0.69246 0.12280
 H1344 H 1.15315 0.66527 0.09476
 H1345 H 1.13835 0.60093 0.14276
 H1346 H 1.16342 0.62801 0.17043
 H1347 H 1.14446 0.57482 0.10952
 H1348 H 1.11527 0.54810 0.08414
 H1349 H 1.07800 0.62349 0.06052
 H1350 H 1.10663 0.65039 0.08611
 C1351 C 0.69600 1.19147 0.68041
 C1352 C 0.68414 1.17873 0.66613
 C1353 C 0.66975 1.16282 0.64960
 C1354 C 0.66266 1.17475 0.62936
 C1355 C 0.64811 1.15933 0.61362
 C1356 C 0.64045 1.13172 0.61790
 C1357 C 0.64789 1.11989 0.63824
 C1358 C 0.66242 1.13533 0.65393
 C1359 C 0.62407 1.11552 0.60158
 C1360 C 0.62929 1.08714 0.59830
 C1361 C 0.61283 1.07163 0.58385
 C1362 C 0.59097 1.08426 0.57243
 C1363 C 0.58596 1.11257 0.57526
 C1364 C 0.60237 1.12810 0.58969
 C1365 C 0.57263 1.06805 0.55879
 C1366 C 0.55630 1.05495 0.54789
 H1367 H 0.66826 1.19600 0.62579
 H1368 H 0.64298 1.16897 0.59806
 H1369 H 0.64195 1.09887 0.64223
 H1370 H 0.66769 1.12589 0.66956
 H1371 H 0.64606 1.07691 0.60696
 H1372 H 0.61689 1.04973 0.58184
 H1373 H 0.56897 1.12253 0.56665
 H1374 H 0.59752 1.14977 0.59203
 C1375 C 0.80468 0.30759 0.18079
 C1376 C 0.81684 0.32053 0.16677
 C1377 C 0.83179 0.33675 0.15073
 C1378 C 0.85426 0.35307 0.15747
 C1379 C 0.86862 0.36934 0.14222
 C1380 C 0.86072 0.36958 0.11991
 C1381 C 0.83818 0.35298 0.11324
 C1382 C 0.82379 0.33673 0.12857
 C1383 C 0.87618 0.38692 0.10377
 C1384 C 0.88258 0.37671 0.08267
 C1385 C 0.89842 0.39253 0.06798
 C1386 C 0.90797 0.41879 0.07412
 C1387 C 0.90122 0.42934 0.09488
 C1388 C 0.88542 0.41358 0.10959
 C1389 C 0.92620 0.43419 0.05978
 C1390 C 0.94242 0.44678 0.04838
 H1391 H 0.86070 0.35324 0.17456
 H1392 H 0.88615 0.38147 0.14785
 H1393 H 0.83142 0.35289 0.09625
 H1394 H 0.80636 0.32427 0.12316
 H1395 H 0.87606 0.35618 0.07777
 H1396 H 0.90370 0.38403 0.05202
 H1397 H 0.90857 0.44958 0.09987
 H1398 H 0.88052 0.42221 0.12556
 C1399 C 0.30290 0.80646 0.68214
 C1400 C 0.31524 0.81918 0.66807
 C1401 C 0.33042 0.83516 0.65200
 C1402 C 0.35546 0.84785 0.65797
 C1403 C 0.36995 0.86413 0.64279
 C1404 C 0.35963 0.86802 0.62134
 C1405 C 0.33454 0.85499 0.61540
 C1406 C 0.32002 0.83872 0.63065
 C1407 C 0.37510 0.88556 0.60533
 C1408 C 0.37775 0.87754 0.58315
 C1409 C 0.39351 0.89343 0.56844
 C1410 C 0.40673 0.91761 0.57565
 C1411 C 0.40371 0.92605 0.59755
 C1412 C 0.38800 0.91021 0.61227
 C1413 C 0.42481 0.93288 0.56109
 C1414 C 0.44094 0.94538 0.54955
 H1415 H 0.36375 0.84526 0.67442
 H1416 H 0.38941 0.87346 0.64780
 H1417 H 0.32589 0.85777 0.59910
 H1418 H 0.30058 0.82913 0.62586
 H1419 H 0.36832 0.85855 0.57733
 H1420 H 0.39584 0.88656 0.55158
 H1421 H 0.41387 0.94467 0.60336
 H1422 H 0.38602 0.91722 0.62911
 C1423 C 0.31445 1.18783 -0.18848
 C1424 C 0.32758 1.17442 -0.17541
 C1425 C 0.34315 1.15832 -0.15982
 C1426 C 0.37112 1.15219 -0.16380
 C1427 C 0.38626 1.13658 -0.14859
 C1428 C 0.37356 1.12690 -0.12920
 C1429 C 0.34539 1.13313 -0.12540
 C1430 C 0.33031 1.14874 -0.14062
 C1431 C 0.38967 1.11074 -0.11283
 C1432 C 0.37752 1.08803 -0.10198
 C1433 C 0.39236 1.07348 -0.08596
 C1434 C 0.41950 1.08139 -0.08061
 C1435 C 0.43192 1.10368 -0.09152
 C1436 C 0.41713 1.11827 -0.10756
 C1437 C 0.43415 1.06741 -0.06327
 C1438 C 0.44618 1.05616 -0.04837
 H1439 H 0.38122 1.15945 -0.17866
 H1440 H 0.40781 1.13186 -0.15209
 H1441 H 0.33515 1.12632 -0.11049
 H1442 H 0.30867 1.15343 -0.13738
 H1443 H 0.35656 1.08152 -0.10590
 H1444 H 0.38256 1.05625 -0.07759
 H1445 H 0.45287 1.11006 -0.08740
 H1446 H 0.42692 1.13585 -0.11542
 C1447 C 0.81463 0.68902 0.31268
 C1448 C 0.82765 0.67553 0.32574
 C1449 C 0.84301 0.65904 0.34118
 C1450 C 0.86541 0.67050 0.35269
 C1451 C 0.88023 0.65441 0.36777
 C1452 C 0.87275 0.62666 0.37151
 C1453 C 0.85029 0.61531 0.35976
 C1454 C 0.83554 0.63142 0.34469
 C1455 C 0.88797 0.60977 0.38792
 C1456 C 0.87337 0.59213 0.40226
 C1457 C 0.88756 0.57676 0.41814
 C1458 C 0.91648 0.57878 0.41986
 C1459 C 0.93125 0.59603 0.40554
 C1460 C 0.91708 0.61145 0.38964
 C1461 C 0.93074 0.56400 0.43696
 C1462 C 0.94220 0.55198 0.45173
 H1463 H 0.87132 0.69189 0.35009
 H1464 H 0.89719 0.66380 0.37678
 H1465 H 0.84428 0.59392 0.36211
 H1466 H 0.81829 0.62235 0.33578
 H1467 H 0.85093 0.59069 0.40153
 H1468 H 0.87595 0.56360 0.42927
 H1469 H 0.95365 0.59775 0.40678
 H1470 H 0.92888 0.62461 0.37864
 C1471 C 0.68776 1.18759 0.18689
 C1472 C 0.67450 1.17456 0.17367
 C1473 C 0.65851 1.15892 0.15805
 C1474 C 0.62962 1.16205 0.15720
 C1475 C 0.61401 1.14683 0.14205
 C1476 C 0.62713 1.12827 0.12756
 C1477 C 0.65619 1.12520 0.12861
 C1478 C 0.67176 1.14045 0.14377
 C1479 C 0.61064 1.11249 0.11120
 C1480 C 0.61689 1.08462 0.10666
 C1481 C 0.60178 1.07004 0.09080
 C1482 C 0.58026 1.08311 0.07932
 C1483 C 0.57372 1.11072 0.08387
 C1484 C 0.58878 1.12533 0.09971
 C1485 C 0.56552 1.06859 0.06231
 C1486 C 0.55338 1.05692 0.04769
 H1487 H 0.61916 1.17622 0.16826
 H1488 H 0.59165 1.14938 0.14182
 H1489 H 0.66692 1.11137 0.11747
 H1490 H 0.69412 1.13791 0.14429
 H1491 H 0.63337 1.07408 0.11544
 H1492 H 0.60701 1.04866 0.08738
 H1493 H 0.55720 1.12107 0.07496
 H1494 H 0.58372 1.14685 0.10262
 C1495 C 1.18545 0.68944 0.68655
 C1496 C 1.17225 0.67624 0.67341
 C1497 C 1.15647 0.66017 0.65795
 C1498 C 1.14371 0.67304 0.63997
 C1499 C 1.12848 0.65733 0.62491
 C1500 C 1.12585 0.62854 0.62766
 C1501 C 1.13865 0.61584 0.64586
 C1502 C 1.15385 0.63159 0.66091
 C1503 C 1.11021 0.61178 0.61142
 C1504 C 1.12055 0.58601 0.60442
 C1505 C 1.10629 0.57062 0.58858
 C1506 C 1.08154 0.58073 0.57959
 C1507 C 1.07088 0.60616 0.58664
 C1508 C 1.08511 0.62161 0.60247
 C1509 C 1.06774 0.56557 0.56246
 C1510 C 1.05660 0.55319 0.54772
 H1511 H 1.14567 0.69516 0.63754
 H1512 H 1.11917 0.66763 0.61090
 H1513 H 1.13669 0.59378 0.64855
 H1514 H 1.16357 0.62147 0.67484
 H1515 H 1.13999 0.57808 0.61080
 H1516 H 1.11479 0.55103 0.58311
 H1517 H 1.05172 0.61416 0.57975
 H1518 H 1.07647 0.64120 0.60774
 C1519 C 0.68711 0.81333 -0.18822
 C1520 C 0.67369 0.82625 -0.17503
 C1521 C 0.65754 0.84156 -0.15932
 C1522 C 0.63237 0.83078 -0.15161
 C1523 C 0.61676 0.84548 -0.13617
 C1524 C 0.62615 0.87117 -0.12822
 C1525 C 0.65140 0.88192 -0.13619
 C1526 C 0.66699 0.86718 -0.15165
 C1527 C 0.60995 0.88643 -0.11138
 C1528 C 0.60713 0.91538 -0.11255
 C1529 C 0.59229 0.92971 -0.09639
 C1530 C 0.58013 0.91529 -0.07890
 C1531 C 0.58267 0.88650 -0.07767
 C1532 C 0.59747 0.87214 -0.09380
 C1533 C 0.56550 0.92991 -0.06190
 C1534 C 0.55341 0.94163 -0.04728
 H1535 H 0.62485 0.81100 -0.15752
 H1536 H 0.59723 0.83684 -0.13055
 H1537 H 0.65934 0.90147 -0.13018
 H1538 H 0.68648 0.87566 -0.15750
 H1539 H 0.61622 0.92690 -0.12604
 H1540 H 0.59040 0.95201 -0.09748
 H1541 H 0.57343 0.87517 -0.06413
 H1542 H 0.59961 0.84992 -0.09227
 C1543 C 1.18656 0.31218 0.31240
 C1544 C 1.17314 0.32498 0.32565
 C1545 C 1.15710 0.34032 0.34140
 C1546 C 1.15886 0.36920 0.34199
 C1547 C 1.14342 0.38414 0.35741
 C1548 C 1.12604 0.37032 0.37244
 C1549 C 1.12428 0.34128 0.37160
 C1550 C 1.13974 0.32639 0.35617
 C1551 C 1.11024 0.38609 0.38920
 C1552 C 1.10838 0.37623 0.41093
 C1553 C 1.09405 0.39133 0.42688
 C1554 C 1.08139 0.41643 0.42135
 C1555 C 1.08293 0.42636 0.39975
 C1556 C 1.09728 0.41128 0.38375
 C1557 C 1.06737 0.43212 0.43805
 C1558 C 1.05609 0.44483 0.45254
 H1559 H 1.17230 0.38016 0.33064
 H1560 H 1.14547 0.40644 0.35785
 H1561 H 1.11081 0.33010 0.38278
 H1562 H 1.13817 0.30403 0.35576
 H1563 H 1.11847 0.35712 0.41569
 H1564 H 1.09307 0.38355 0.44359
 H1565 H 1.07317 0.44578 0.39532
 H1566 H 1.09809 0.41921 0.36709
 C1567 C 0.31301 0.81201 0.18854
 C1568 C 0.32610 0.82521 0.17532
 C1569 C 0.34150 0.84100 0.15943
 C1570 C 0.37055 0.84175 0.16033
 C1571 C 0.38550 0.85689 0.14470
 C1572 C 0.37151 0.87143 0.12797
 C1573 C 0.34229 0.87064 0.12731
 C1574 C 0.32741 0.85551 0.14294
 C1575 C 0.38730 0.88703 0.11108
 C1576 C 0.37903 0.88616 0.08889
 C1577 C 0.39392 0.90068 0.07291
 C1578 C 0.41723 0.91626 0.07887
 C1579 C 0.42564 0.91732 0.10090
 C1580 C 0.41077 0.90277 0.11693
 C1581 C 0.43262 0.93074 0.06221
 C1582 C 0.44512 0.94237 0.04776
 H1583 H 0.38165 0.83051 0.17301
 H1584 H 0.40799 0.85682 0.14546
 H1585 H 0.33094 0.88191 0.11480
 H1586 H 0.30491 0.85511 0.14216
 H1587 H 0.36131 0.87389 0.08383
 H1588 H 0.38735 0.89962 0.05588
 H1589 H 0.44366 0.92935 0.10566
 H1590 H 0.41744 0.90406 0.13392
 C1591 C 0.81347 0.31079 0.68761
 C1592 C 0.82675 0.32416 0.67464
 C1593 C 0.84260 0.34045 0.65939
 C1594 C 0.85755 0.32757 0.64252
 C1595 C 0.87285 0.34349 0.62765
 C1596 C 0.87336 0.37251 0.62949
 C1597 C 0.85838 0.38524 0.64659
 C1598 C 0.84311 0.36928 0.66145
 C1599 C 0.88903 0.38942 0.61338
 C1600 C 0.87744 0.41391 0.60487
 C1601 C 0.89170 0.42927 0.58901
 C1602 C 0.91771 0.42040 0.58155
 C1603 C 0.92962 0.39632 0.59016
 C1604 C 0.91538 0.38090 0.60600
 C1605 C 0.93152 0.43522 0.56424
 C1606 C 0.94266 0.44718 0.54929
 H1607 H 0.85725 0.30526 0.64080
 H1608 H 0.88388 0.33315 0.61447
 H1609 H 0.85866 0.40750 0.64856
 H1610 H 0.83170 0.37941 0.67454
 H1611 H 0.85703 0.42078 0.61004
 H1612 H 0.88223 0.44779 0.58231
 H1613 H 0.94974 0.38928 0.58443
 H1614 H 0.92495 0.36233 0.61247
 C1615 C 1.18741 1.19912 0.68089
 C1616 C 1.17408 1.18800 0.66661
 C1617 C 1.15809 1.17442 0.64978
 C1618 C 1.13341 1.16079 0.65533
 C1619 C 1.11823 1.14680 0.63920
 C1620 C 1.12756 1.14623 0.61725
 C1621 C 1.15225 1.16026 0.61178
 C1622 C 1.16740 1.17427 0.62796
 C1623 C 1.11210 1.13015 0.60041
 C1624 C 1.12648 1.11381 0.58499
 C1625 C 1.11194 1.09698 0.57025
 C1626 C 1.08287 1.09633 0.57065
 C1627 C 1.06835 1.11308 0.58550
 C1628 C 1.08284 1.12992 0.60026
 C1629 C 1.06808 1.07687 0.55711
 C1630 C 1.05585 1.05964 0.54655
 H1631 H 1.12608 1.16067 0.67219
 H1632 H 1.09957 1.13583 0.64402
 H1633 H 1.15981 1.16043 0.59500
 H1634 H 1.18646 1.18480 0.62349
 H1635 H 1.14898 1.11324 0.58487
 H1636 H 1.12339 1.08390 0.55896
 H1637 H 1.04584 1.11264 0.58601
 H1638 H 1.07118 1.14254 0.61173
 C1639 C 0.68913 0.69718 0.18122
 C1640 C 0.67649 0.68571 0.16673
 C1641 C 0.66155 0.67176 0.14948
 C1642 C 0.63488 0.68057 0.14352
 C1643 C 0.62013 0.66653 0.12713
 C1644 C 0.63190 0.64347 0.11649
 C1645 C 0.65886 0.63499 0.12246
 C1646 C 0.67356 0.64906 0.13883
 C1647 C 0.61586 0.62770 0.09979
 C1648 C 0.62907 0.61698 0.08096
 C1649 C 0.61435 0.60054 0.06604
 C1650 C 0.58625 0.59468 0.06968
 C1651 C 0.57274 0.60581 0.08806
 C1652 C 0.58741 0.62224 0.10300
 C1653 C 0.57185 0.57554 0.05559
 C1654 C 0.55999 0.55854 0.04454
 H1655 H 0.62543 0.69818 0.15162
 H1656 H 0.59956 0.67374 0.12275
 H1657 H 0.66834 0.61708 0.11484
 H1658 H 0.69417 0.64203 0.14336
 H1659 H 0.65084 0.62112 0.07787
 H1660 H 0.62504 0.59194 0.05192
 H1661 H 0.55105 0.60118 0.09114
 H1662 H 0.57672 0.62986 0.11746
 C1663 C 1.18455 0.80034 0.31865
 C1664 C 1.17096 0.81108 0.33293
 C1665 C 1.15485 0.82417 0.34992
 C1666 C 1.16506 0.82544 0.37146
 C1667 C 1.14993 0.83918 0.38777
 C1668 C 1.12438 0.85184 0.38272
 C1669 C 1.11407 0.85000 0.36110
 C1670 C 1.12923 0.83627 0.34481
 C1671 C 1.10916 0.86806 0.39960
 C1672 C 1.07995 0.86716 0.40077
 C1673 C 1.06561 0.88418 0.41551
 C1674 C 1.08027 0.90221 0.42929
 C1675 C 1.10933 0.90270 0.42866
 C1676 C 1.12371 0.88572 0.41396
 C1677 C 1.06561 0.92184 0.44274
 C1678 C 1.05373 0.93930 0.45328
 H1679 H 1.18484 0.81607 0.37558
 H1680 H 1.15825 0.83999 0.40432
 H1681 H 1.09468 0.85987 0.35661
 H1682 H 1.12118 0.83546 0.32817
 H1683 H 1.06821 0.85352 0.39012
 H1684 H 1.04310 0.88373 0.41580
 H1685 H 1.12086 0.91678 0.43911
 H1686 H 1.14615 0.88719 0.41324
 C1687 C 0.68847 0.30272 -0.18076
 C1688 C 0.67597 0.31440 -0.16631
 C1689 C 0.66122 0.32866 -0.14912
 C1690 C 0.63444 0.32023 -0.14310
 C1691 C 0.61987 0.33463 -0.12680
 C1692 C 0.63192 0.35767 -0.11633
 C1693 C 0.65898 0.36575 -0.12236
 C1694 C 0.67350 0.35134 -0.13863
 C1695 C 0.61605 0.37386 -0.09978
 C1696 C 0.62937 0.38476 -0.08107
 C1697 C 0.61482 0.40159 -0.06632
 C1698 C 0.58677 0.40766 -0.07003
 C1699 C 0.57316 0.39638 -0.08829
 C1700 C 0.58766 0.37956 -0.10306
 C1701 C 0.57248 0.42706 -0.05608
 C1702 C 0.56063 0.44416 -0.04513
 H1703 H 0.62477 0.30266 -0.15108
 H1704 H 0.59921 0.32770 -0.12237
 H1705 H 0.66868 0.38364 -0.11487
 H1706 H 0.69418 0.35808 -0.14322
 H1707 H 0.65110 0.38046 -0.07793
 H1708 H 0.62558 0.41030 -0.05228
 H1709 H 0.55151 0.40114 -0.09141
 H1710 H 0.57689 0.37182 -0.11744
 C1711 C 0.81325 1.19604 0.31891
 C1712 C 0.82644 1.18493 0.33328
 C1713 C 0.84220 1.17150 0.35035
 C1714 C 0.86886 1.18093 0.35571
 C1715 C 0.88446 1.16735 0.37186
 C1716 C 0.87354 1.14415 0.38287
 C1717 C 0.84658 1.13505 0.37753
 C1718 C 0.83105 1.14863 0.36137
 C1719 C 0.89048 1.12882 0.39927
 C1720 C 0.87821 1.11825 0.41854
 C1721 C 0.89370 1.10204 0.43313
 C1722 C 0.92164 1.09625 0.42870
 C1723 C 0.93424 1.10729 0.40989
 C1724 C 0.91880 1.12353 0.39529
 C1725 C 0.93668 1.07713 0.44239
 C1726 C 0.94889 1.06007 0.45315
 H1727 H 0.87766 1.19866 0.34732
 H1728 H 0.90502 1.17501 0.37577
 H1729 H 0.83776 1.11701 0.38546
 H1730 H 0.81047 1.14110 0.35730
 H1731 H 0.85656 1.12227 0.42221
 H1732 H 0.88371 1.09350 0.44760
 H1733 H 0.95578 1.10272 0.40618
 H1734 H 0.92875 1.13107 0.38047
 C1735 C 0.30935 0.69605 -0.18083
 C1736 C 0.32193 0.68445 -0.16636
 C1737 C 0.33693 0.67033 -0.14919
 C1738 C 0.36308 0.67986 -0.14254
 C1739 C 0.37799 0.66563 -0.12633
 C1740 C 0.36692 0.64162 -0.11656
 C1741 C 0.34044 0.63243 -0.12319
 C1742 C 0.32558 0.64670 -0.13939
 C1743 C 0.38320 0.62571 -0.10004
 C1744 C 0.36996 0.61335 -0.08186
 C1745 C 0.38505 0.59700 -0.06709
 C1746 C 0.41357 0.59287 -0.07022
 C1747 C 0.42704 0.60554 -0.08797
 C1748 C 0.41200 0.62187 -0.10277
 C1749 C 0.42859 0.57406 -0.05621
 C1750 C 0.44102 0.55740 -0.04519
 H1751 H 0.37204 0.69818 -0.14998
 H1752 H 0.39814 0.67345 -0.12141
 H1753 H 0.33148 0.61382 -0.11626
 H1754 H 0.30537 0.63910 -0.14444
 H1755 H 0.34791 0.61618 -0.07912
 H1756 H 0.37438 0.58719 -0.05346
 H1757 H 0.44906 0.60226 -0.09067
 H1758 H 0.42276 0.63073 -0.11674
 C1759 C 0.81505 0.80306 0.68134
 C1760 C 0.82870 0.81401 0.66718
 C1761 C 0.84508 0.82731 0.65045
 C1762 C 0.86937 0.84145 0.65625
 C1763 C 0.88493 0.85510 0.64015
 C1764 C 0.87634 0.85484 0.61802
 C1765 C 0.85205 0.84029 0.61231
 C1766 C 0.83654 0.82661 0.62844
 C1767 C 0.89207 0.87068 0.60121
 C1768 C 0.87790 0.88659 0.58539
 C1769 C 0.89264 0.90328 0.57067
 C1770 C 0.92169 0.90420 0.57151
 C1771 C 0.93601 0.88788 0.58677
 C1772 C 0.92132 0.87118 0.60152
 C1773 C 0.93658 0.92356 0.55796
 C1774 C 0.94876 0.94075 0.54732
 H1775 H 0.87610 0.84221 0.67325
 H1776 H 0.90327 0.86648 0.64512
 H1777 H 0.84508 0.83950 0.59537
 H1778 H 0.81778 0.81566 0.62378
 H1779 H 0.85541 0.88694 0.58493
 H1780 H 0.88135 0.91606 0.55907
 H1781 H 0.95850 0.88854 0.58761
 H1782 H 0.93280 0.85889 0.61333
 C1783 C 0.31157 0.30517 0.18021
 C1784 C 0.32425 0.31656 0.16571
 C1785 C 0.33933 0.33035 0.14846
 C1786 C 0.36607 0.32150 0.14274
 C1787 C 0.38101 0.33543 0.12641
 C1788 C 0.36936 0.35842 0.11559
 C1789 C 0.34232 0.36691 0.12128
 C1790 C 0.32743 0.35296 0.13761
 C1791 C 0.38566 0.37415 0.09903
 C1792 C 0.37281 0.38460 0.07996
 C1793 C 0.38775 0.40105 0.06518
 C1794 C 0.41571 0.40718 0.06924
 C1795 C 0.42886 0.39632 0.08787
 C1796 C 0.41396 0.37987 0.10267
 C1797 C 0.43031 0.42633 0.05529
 C1798 C 0.44232 0.44333 0.04435
 H1799 H 0.37543 0.30396 0.15101
 H1800 H 0.40165 0.32822 0.12222
 H1801 H 0.33294 0.38477 0.11349
 H1802 H 0.30677 0.36002 0.14196
 H1803 H 0.35114 0.38027 0.07658
 H1804 H 0.37735 0.40945 0.05085
 H1805 H 0.45042 0.40117 0.09128
 H1806 H 0.42434 0.37246 0.11734
   
