data_POSCAR
  _audit_creation_date              2014-09-24
  _audit_creation_method            'ToBaCCo'
  _symmetry_space_group_name_H-M    'P1'
  _symmetry_Int_Tables_number       1
  _symmetry_cell_setting            triclinic
  loop_
  _symmetry_equiv_pos_as_xyz
 x,y,z
_cell_length_a 67.2399
_cell_length_b 67.5062
_cell_length_c 67.4196
_cell_angle_alpha 89.978600
_cell_angle_beta 89.950100
_cell_angle_gamma 89.886300
loop_
  _atom_site_label
  _atom_site_type_symbol
  _atom_site_fract_x
  _atom_site_fract_y
  _atom_site_fract_z
N1 N 0.37503 0.32025 0.33440
 N2 N 0.37480 0.33416 0.32074
 C3 C 0.39057 0.33164 0.30865
 C4 C 0.40108 0.31523 0.31502
 C5 C 0.39084 0.30836 0.33141
 H6 H 0.39381 0.34063 0.29577
 H7 H 0.39425 0.29528 0.34004
 Cu8 Cu 0.35338 0.35358 0.31905
 Cu9 Cu 0.35384 0.31765 0.35379
 Cu10 Cu 0.31710 0.35342 0.35365
 N11 N 0.33372 0.37475 0.32088
 N12 N 0.31962 0.37468 0.33441
 C13 C 0.30756 0.39035 0.33149
 C14 C 0.31452 0.40081 0.31530
 C15 C 0.33116 0.39056 0.30896
 H16 H 0.29433 0.39354 0.34006
 H17 H 0.34029 0.39403 0.29621
 N18 N 0.31915 0.33296 0.37439
 N19 N 0.33328 0.31936 0.37450
 C20 C 0.33059 0.30738 0.39025
 C21 C 0.31395 0.31373 0.40045
 C22 C 0.30707 0.32998 0.39005
 H23 H 0.33978 0.29472 0.39384
 H24 H 0.29403 0.33874 0.39349
 H25 H 0.33153 0.33148 0.33803
 H26 H 0.34731 0.34766 0.35405
 N27 N 0.37506 0.82029 -0.16646
 N28 N 0.37503 0.83420 -0.18013
 C29 C 0.39071 0.83142 -0.19227
 C30 C 0.40095 0.81479 -0.18593
 C31 C 0.39068 0.80815 -0.16946
 H32 H 0.39415 0.84046 -0.20506
 H33 H 0.39397 0.79513 -0.16068
 Cu34 Cu 0.35408 0.85416 -0.18146
 Cu35 Cu 0.35395 0.81805 -0.14693
 Cu36 Cu 0.31788 0.85442 -0.14687
 N37 N 0.33419 0.87516 -0.18017
 N38 N 0.32025 0.87536 -0.16647
 C39 C 0.30815 0.89097 -0.16952
 C40 C 0.31485 0.90105 -0.18607
 C41 C 0.33147 0.89072 -0.19239
 H42 H 0.29510 0.89437 -0.16076
 H43 H 0.34053 0.89400 -0.20524
 N44 N 0.31975 0.83408 -0.12605
 N45 N 0.33353 0.82011 -0.12611
 C46 C 0.33058 0.80808 -0.11045
 C47 C 0.31418 0.81481 -0.10011
 C48 C 0.30770 0.83132 -0.11033
 H49 H 0.33943 0.79513 -0.10702
 H50 H 0.29486 0.84033 -0.10681
 H51 H 0.33191 0.83234 -0.16267
 H52 H 0.34797 0.84812 -0.14651
 N53 N 0.87621 0.32218 -0.16459
 N54 N 0.87548 0.33546 -0.17884
 C55 C 0.89030 0.33190 -0.19180
 C56 C 0.90086 0.31557 -0.18528
 C57 C 0.89155 0.30975 -0.16795
 H58 H 0.89298 0.34031 -0.20519
 H59 H 0.89536 0.29715 -0.15876
 Cu60 Cu 0.85502 0.35590 -0.17953
 Cu61 Cu 0.85632 0.32108 -0.14363
 Cu62 Cu 0.81629 0.35315 -0.14813
 N63 N 0.83407 0.37590 -0.17930
 N64 N 0.81890 0.37466 -0.16705
 C65 C 0.80614 0.38963 -0.17067
 C66 C 0.81376 0.40085 -0.18607
 C67 C 0.83152 0.39175 -0.19116
 H68 H 0.79222 0.39196 -0.16292
 H69 H 0.84154 0.39603 -0.20297
 N70 N 0.81889 0.33395 -0.12635
 N71 N 0.83437 0.32208 -0.12430
 C72 C 0.83160 0.31061 -0.10817
 C73 C 0.81355 0.31558 -0.09970
 C74 C 0.80591 0.33042 -0.11154
 H75 H 0.84163 0.29908 -0.10324
 H76 H 0.79177 0.33786 -0.10965
 H77 H 0.83465 0.33204 -0.16181
 H78 H 0.84676 0.35057 -0.14500
 N79 N 0.87455 0.82010 0.33399
 N80 N 0.87473 0.83423 0.32055
 C81 C 0.89051 0.83153 0.30852
 C82 C 0.90060 0.81478 0.31468
 C83 C 0.89010 0.80789 0.33089
 H84 H 0.89410 0.84068 0.29585
 H85 H 0.89323 0.79468 0.33941
 Cu86 Cu 0.85387 0.85430 0.31933
 Cu87 Cu 0.85336 0.81785 0.35346
 Cu88 Cu 0.81728 0.85425 0.35345
 N89 N 0.83378 0.87515 0.32034
 N90 N 0.81964 0.87520 0.33384
 C91 C 0.80747 0.89074 0.33066
 C92 C 0.81435 0.90095 0.31426
 C93 C 0.83113 0.89075 0.30815
 H94 H 0.79428 0.89402 0.33925
 H95 H 0.84037 0.89416 0.29547
 N96 N 0.81907 0.83386 0.37428
 N97 N 0.83283 0.81988 0.37424
 C98 C 0.82989 0.80788 0.38993
 C99 C 0.81350 0.81464 0.40027
 C100 C 0.80702 0.83114 0.39002
 H101 H 0.83875 0.79496 0.39342
 H102 H 0.79423 0.84020 0.39357
 H103 H 0.83154 0.83232 0.33766
 H104 H 0.84742 0.84794 0.35416
 N105 N 0.62519 0.68012 0.33429
 N106 N 0.62511 0.66606 0.32080
 C107 C 0.60930 0.66868 0.30882
 C108 C 0.59908 0.68533 0.31507
 C109 C 0.60954 0.69223 0.33128
 H110 H 0.60582 0.65960 0.29608
 H111 H 0.60637 0.70542 0.33981
 Cu112 Cu 0.64623 0.64631 0.31914
 Cu113 Cu 0.64644 0.68252 0.35363
 Cu114 Cu 0.68234 0.64595 0.35383
 N115 N 0.66588 0.62510 0.32072
 N116 N 0.67986 0.62491 0.33436
 C117 C 0.69188 0.60923 0.33131
 C118 C 0.68502 0.59905 0.31492
 C119 C 0.66848 0.60945 0.30861
 H120 H 0.70502 0.60587 0.33992
 H121 H 0.65945 0.60620 0.29575
 N122 N 0.68057 0.66640 0.37455
 N123 N 0.66689 0.68047 0.37441
 C124 C 0.66986 0.69253 0.39003
 C125 C 0.68618 0.68572 0.40043
 C126 C 0.69259 0.66913 0.39028
 H127 H 0.66107 0.70552 0.39342
 H128 H 0.70532 0.66002 0.39389
 H129 H 0.66844 0.66809 0.33798
 H130 H 0.65220 0.65242 0.35411
 N131 N 0.62553 0.17982 -0.16635
 N132 N 0.62519 0.16545 -0.17952
 C133 C 0.60952 0.16816 -0.19168
 C134 C 0.59964 0.18514 -0.18579
 C135 C 0.61017 0.19218 -0.16969
 H136 H 0.60578 0.15878 -0.20412
 H137 H 0.60712 0.20551 -0.16133
 Cu138 Cu 0.64559 0.14494 -0.17952
 Cu139 Cu 0.64660 0.18208 -0.14667
 Cu140 Cu 0.68262 0.14546 -0.14639
 N141 N 0.66603 0.12447 -0.17952
 N142 N 0.68032 0.12456 -0.16619
 C143 C 0.69264 0.10919 -0.16955
 C144 C 0.68571 0.09895 -0.18589
 C145 C 0.66877 0.10898 -0.19182
 H146 H 0.70591 0.10600 -0.16105
 H147 H 0.65942 0.10546 -0.20438
 N148 N 0.68067 0.16589 -0.12556
 N149 N 0.66697 0.17995 -0.12575
 C150 C 0.66986 0.19200 -0.11011
 C151 C 0.68614 0.18520 -0.09965
 C152 C 0.69261 0.16862 -0.10977
 H153 H 0.66107 0.20500 -0.10676
 H154 H 0.70537 0.15954 -0.10614
 H155 H 0.66825 0.16716 -0.16229
 H156 H 0.65262 0.15208 -0.14509
 N157 N 0.12550 0.67988 -0.16602
 N158 N 0.12527 0.66572 -0.17942
 C159 C 0.10946 0.66841 -0.19139
 C160 C 0.09939 0.68517 -0.18522
 C161 C 0.10994 0.69208 -0.16908
 H162 H 0.10585 0.65925 -0.20404
 H163 H 0.10685 0.70532 -0.16058
 Cu164 Cu 0.14617 0.64569 -0.18078
 Cu165 Cu 0.14676 0.68222 -0.14670
 Cu166 Cu 0.18254 0.64554 -0.14640
 N167 N 0.16594 0.62455 -0.17937
 N168 N 0.17999 0.62444 -0.16581
 C169 C 0.19201 0.60875 -0.16885
 C170 C 0.18509 0.59849 -0.18516
 C171 C 0.16851 0.60886 -0.19145
 H172 H 0.20518 0.60541 -0.16026
 H173 H 0.15942 0.60552 -0.20423
 N174 N 0.18089 0.66610 -0.12575
 N175 N 0.16725 0.68021 -0.12594
 C176 C 0.17029 0.69234 -0.11038
 C177 C 0.18660 0.68554 -0.09996
 C178 C 0.19294 0.66887 -0.11005
 H179 H 0.16153 0.70537 -0.10703
 H180 H 0.20566 0.65975 -0.10642
 H181 H 0.16861 0.66757 -0.16237
 H182 H 0.15247 0.65214 -0.14593
 N183 N 0.12489 0.17962 0.33426
 N184 N 0.12513 0.16576 0.32056
 C185 C 0.10946 0.16840 0.30840
 C186 C 0.09899 0.18486 0.31477
 C187 C 0.10916 0.19161 0.33122
 H188 H 0.10625 0.15947 0.29550
 H189 H 0.10576 0.20467 0.33988
 Cu190 Cu 0.14646 0.14621 0.31895
 Cu191 Cu 0.14599 0.18206 0.35373
 Cu192 Cu 0.18272 0.14630 0.35355
 N193 N 0.16602 0.12494 0.32086
 N194 N 0.18010 0.12498 0.33438
 C195 C 0.19208 0.10923 0.33152
 C196 C 0.18508 0.09875 0.31538
 C197 C 0.16850 0.10906 0.30901
 H198 H 0.20529 0.10601 0.34009
 H199 H 0.15937 0.10560 0.29628
 N200 N 0.18069 0.16676 0.37427
 N201 N 0.16653 0.18034 0.37443
 C202 C 0.16923 0.19232 0.39017
 C203 C 0.18591 0.18600 0.40031
 C204 C 0.19280 0.16977 0.38989
 H205 H 0.16003 0.20497 0.39379
 H206 H 0.20585 0.16103 0.39329
 H207 H 0.16830 0.16827 0.33794
 H208 H 0.15252 0.15204 0.35395
 N209 N 0.62539 0.31984 0.66650
 N210 N 0.62514 0.33405 0.67986
 C211 C 0.60946 0.33133 0.69202
 C212 C 0.59950 0.31450 0.68594
 C213 C 0.60998 0.30759 0.66973
 H214 H 0.60576 0.34059 0.70458
 H215 H 0.60687 0.29438 0.66121
 Cu216 Cu 0.64566 0.35437 0.67991
 Cu217 Cu 0.64645 0.31761 0.64672
 Cu218 Cu 0.68244 0.35419 0.64656
 N219 N 0.66582 0.37505 0.67987
 N220 N 0.68002 0.37506 0.66643
 C221 C 0.69218 0.39052 0.66971
 C222 C 0.68520 0.40075 0.68604
 C223 C 0.66844 0.39059 0.69213
 H224 H 0.70539 0.39382 0.66116
 H225 H 0.65916 0.39406 0.70478
 N226 N 0.68053 0.33383 0.62564
 N227 N 0.66684 0.31981 0.62576
 C228 C 0.66976 0.30783 0.61005
 C229 C 0.68605 0.31463 0.59962
 C230 C 0.69249 0.33114 0.60983
 H231 H 0.66097 0.29488 0.60663
 H232 H 0.70524 0.34020 0.60623
 H233 H 0.66824 0.33227 0.66215
 H234 H 0.65246 0.34760 0.64533
 N235 N 0.62543 0.82019 1.16617
 N236 N 0.62542 0.83412 1.17980
 C237 C 0.60965 0.83146 1.19185
 C238 C 0.59939 0.81494 1.18547
 C239 C 0.60977 0.80815 1.16914
 H240 H 0.60622 0.84046 1.20467
 H241 H 0.60654 0.79506 1.16048
 Cu242 Cu 0.64652 0.85382 1.18142
 Cu243 Cu 0.64662 0.81779 1.14675
 Cu244 Cu 0.68254 0.85419 1.14660
 N245 N 0.66617 0.87496 1.17987
 N246 N 0.68009 0.87517 1.16616
 C247 C 0.69209 0.89081 1.16919
 C248 C 0.68528 0.90096 1.18565
 C249 C 0.66879 0.89056 1.19203
 H250 H 0.70518 0.89419 1.16050
 H251 H 0.65980 0.89380 1.20494
 N252 N 0.68073 0.83383 1.12580
 N253 N 0.66703 0.81984 1.12592
 C254 C 0.66996 0.80782 1.11024
 C255 C 0.68628 0.81458 1.09982
 C256 C 0.69273 0.83109 1.11002
 H257 H 0.66115 0.79488 1.10683
 H258 H 0.70548 0.84014 1.10642
 H259 H 0.66867 0.83202 1.16238
 H260 H 0.65242 0.84784 1.14640
 N261 N 0.12542 0.32011 1.16616
 N262 N 0.12526 0.33418 1.17965
 C263 C 0.10952 0.33148 1.19172
 C264 C 0.09943 0.31479 1.18552
 C265 C 0.10989 0.30794 1.16926
 H266 H 0.10593 0.34061 1.20441
 H267 H 0.10672 0.29480 1.16067
 Cu268 Cu 0.14606 0.35424 1.18083
 Cu269 Cu 0.14649 0.31792 1.14656
 Cu270 Cu 0.18238 0.35437 1.14639
 N271 N 0.16602 0.37513 1.17967
 N272 N 0.18007 0.37523 1.16609
 C273 C 0.19215 0.39080 1.16921
 C274 C 0.18527 0.40101 1.18560
 C275 C 0.16865 0.39073 1.19185
 H276 H 0.20527 0.39414 1.16057
 H277 H 0.15952 0.39411 1.20462
 N278 N 0.18051 0.33405 1.12550
 N279 N 0.16682 0.32006 1.12562
 C280 C 0.16969 0.30811 1.10987
 C281 C 0.18595 0.31492 1.09940
 C282 C 0.19243 0.33139 1.10964
 H283 H 0.16088 0.29518 1.10644
 H284 H 0.20517 0.34046 1.10602
 H285 H 0.16834 0.33237 1.16222
 H286 H 0.15224 0.34801 1.14590
 N287 N 0.12489 0.82051 0.66608
 N288 N 0.12506 0.83440 0.67975
 C289 C 0.10942 0.83173 0.69197
 C290 C 0.09905 0.81524 0.68566
 C291 C 0.10924 0.80849 0.66919
 H292 H 0.10612 0.84070 0.70485
 H293 H 0.10586 0.79546 0.66051
 Cu294 Cu 0.14616 0.85412 0.68105
 Cu295 Cu 0.14589 0.81814 0.64645
 Cu296 Cu 0.18264 0.85372 0.64670
 N297 N 0.16626 0.87487 0.67977
 N298 N 0.18039 0.87475 0.66626
 C299 C 0.19258 0.89024 0.66935
 C300 C 0.18569 0.90063 0.68562
 C301 C 0.16895 0.89053 0.69184
 H302 H 0.20579 0.89341 0.66076
 H303 H 0.15978 0.89406 0.70455
 N304 N 0.18051 0.83345 0.62577
 N305 N 0.16636 0.81991 0.62562
 C306 C 0.16903 0.80798 0.60982
 C307 C 0.18568 0.81427 0.59964
 C308 C 0.19258 0.83045 0.61009
 H309 H 0.15985 0.79535 0.60621
 H310 H 0.20565 0.83912 0.60670
 H311 H 0.16809 0.83191 0.66233
 H312 H 0.15245 0.84810 0.64611
 N313 N 0.37492 0.68027 0.66669
 N314 N 0.37509 0.66597 0.67997
 C315 C 0.39057 0.66873 0.69233
 C316 C 0.40054 0.68564 0.68646
 C317 C 0.39023 0.69259 0.67016
 H318 H 0.39414 0.65941 0.70489
 H319 H 0.39338 0.70588 0.66176
 Cu320 Cu 0.35465 0.64555 0.67982
 Cu321 Cu 0.35403 0.68254 0.64679
 Cu322 Cu 0.31762 0.64647 0.64668
 N323 N 0.33421 0.62513 0.67966
 N324 N 0.31989 0.62543 0.66637
 C325 C 0.30756 0.61010 0.66963
 C326 C 0.31453 0.59963 0.68581
 C327 C 0.33146 0.60953 0.69182
 H328 H 0.29426 0.60703 0.66116
 H329 H 0.34079 0.60584 0.70436
 N330 N 0.31971 0.66688 0.62582
 N331 N 0.33368 0.68062 0.62581
 C332 C 0.33095 0.69260 0.61006
 C333 C 0.31446 0.68612 0.59977
 C334 C 0.30771 0.66979 0.61010
 H335 H 0.33997 0.70537 0.60656
 H336 H 0.29477 0.66097 0.60660
 H337 H 0.33224 0.66803 0.66248
 H338 H 0.34767 0.65262 0.64534
 N339 N 0.37610 0.17860 1.16497
 N340 N 0.37657 0.16421 1.17811
 C341 C 0.39168 0.16746 1.19081
 C342 C 0.40111 0.18479 1.18529
 C343 C 0.39085 0.19148 1.16886
 H344 H 0.39534 0.15819 1.20338
 H345 H 0.39374 0.20488 1.16055
 Cu346 Cu 0.35687 0.14307 1.17794
 Cu347 Cu 0.35615 0.17988 1.14414
 Cu348 Cu 0.32019 0.14324 1.14388
 N349 N 0.33591 0.12318 1.17803
 N350 N 0.32163 0.12336 1.16472
 C351 C 0.30883 0.10855 1.16861
 C352 C 0.31544 0.09856 1.18523
 C353 C 0.33266 0.10820 1.19085
 H354 H 0.29548 0.10549 1.16023
 H355 H 0.34183 0.10480 1.20358
 N356 N 0.32119 0.16460 1.12401
 N357 N 0.33480 0.17867 1.12421
 C358 C 0.33115 0.19140 1.10925
 C359 C 0.31449 0.18500 1.09917
 C360 C 0.30856 0.16798 1.10887
 H361 H 0.33977 0.20452 1.10604
 H362 H 0.29575 0.15899 1.10536
 H363 H 0.33439 0.16509 1.16006
 H364 H 0.35017 0.14987 1.14303
 N365 N 0.87469 0.67981 1.16626
 N366 N 0.87415 0.66635 1.18035
 C367 C 0.88986 0.66893 1.19245
 C368 C 0.90068 0.68494 1.18563
 C369 C 0.89067 0.69148 1.16897
 H370 H 0.89282 0.66030 1.20565
 H371 H 0.89431 0.70423 1.15996
 Cu372 Cu 0.85218 0.64773 1.18258
 Cu373 Cu 0.85356 0.68239 1.14678
 Cu374 Cu 0.81772 0.64574 1.14654
 N375 N 0.83377 0.62561 1.18035
 N376 N 0.82043 0.62480 1.16612
 C377 C 0.80889 0.60876 1.16885
 C378 C 0.81538 0.59901 1.18567
 C379 C 0.83123 0.61004 1.19257
 H380 H 0.79622 0.60492 1.15977
 H381 H 0.83976 0.60731 1.20589
 N382 N 0.81963 0.66610 1.12568
 N383 N 0.83326 0.68016 1.12584
 C384 C 0.83030 0.69221 1.11019
 C385 C 0.81404 0.68541 1.09975
 C386 C 0.80766 0.66882 1.10990
 H387 H 0.83902 0.70523 1.10684
 H388 H 0.79492 0.65975 1.10631
 H389 H 0.83073 0.66872 1.16173
 H390 H 0.84770 0.65239 1.14717
 N391 N 0.87454 0.18018 0.66630
 N392 N 0.87479 0.16596 0.67967
 C393 C 0.89055 0.16860 0.69171
 C394 C 0.90055 0.18540 0.68560
 C395 C 0.89002 0.19237 0.66944
 H396 H 0.89427 0.15931 0.70425
 H397 H 0.89313 0.20558 0.66092
 Cu398 Cu 0.85408 0.14583 0.67986
 Cu399 Cu 0.85340 0.18249 0.64661
 Cu400 Cu 0.81748 0.14577 0.64647
 N401 N 0.83403 0.12504 0.67990
 N402 N 0.81989 0.12493 0.66640
 C403 C 0.80779 0.10943 0.66969
 C404 C 0.81472 0.09927 0.68609
 C405 C 0.83141 0.10951 0.69220
 H406 H 0.79464 0.10607 0.66112
 H407 H 0.84064 0.10610 0.70488
 N408 N 0.81935 0.16617 0.62554
 N409 N 0.83299 0.18025 0.62567
 C410 C 0.83003 0.19224 0.60998
 C411 C 0.81379 0.18539 0.59954
 C412 C 0.80741 0.16883 0.60973
 H413 H 0.83877 0.20524 0.60657
 H414 H 0.79470 0.15973 0.60612
 H415 H 0.83154 0.16784 0.66187
 H416 H 0.84747 0.15252 0.64522
 N417 N 0.31938 0.37419 0.66609
 N418 N 0.33431 0.37534 0.67861
 C419 C 0.33201 0.39164 0.68991
 C420 C 0.31465 0.40104 0.68421
 C421 C 0.30701 0.38959 0.66907
 H422 H 0.34176 0.39595 0.70190
 H423 H 0.29317 0.39194 0.66123
 Cu424 Cu 0.35413 0.35437 0.68024
 Cu425 Cu 0.31619 0.35194 0.64811
 Cu426 Cu 0.35822 0.32255 0.64212
 N427 N 0.37477 0.33420 0.67959
 N428 N 0.37621 0.32163 0.66475
 C429 C 0.39167 0.30934 0.66801
 C430 C 0.40037 0.31457 0.68583
 C431 C 0.38934 0.33042 0.69275
 H432 H 0.39618 0.29746 0.65820
 H433 H 0.39177 0.33856 0.70634
 N434 N 0.33519 0.32156 0.62404
 N435 N 0.31918 0.33265 0.62647
 C436 C 0.30602 0.32845 0.61205
 C437 C 0.31406 0.31390 0.60009
 C438 C 0.33255 0.30982 0.60810
 H439 H 0.29161 0.33540 0.61041
 H440 H 0.34313 0.29891 0.60287
 H441 H 0.33538 0.33062 0.66025
 H442 H 0.34617 0.35115 0.64513
 N443 N 0.32034 0.87546 0.16567
 N444 N 0.33376 0.87467 0.17982
 C445 C 0.33120 0.89026 0.19203
 C446 C 0.31525 0.90127 0.18520
 C447 C 0.30872 0.89149 0.16844
 H448 H 0.33980 0.89303 0.20529
 H449 H 0.29600 0.89532 0.15940
 Cu450 Cu 0.35235 0.85260 0.18196
 Cu451 Cu 0.31774 0.85455 0.14603
 Cu452 Cu 0.35368 0.81786 0.14623
 N453 N 0.37430 0.83384 0.17976
 N454 N 0.37479 0.82033 0.16573
 C455 C 0.39075 0.80858 0.16845
 C456 C 0.40080 0.81510 0.18507
 C457 C 0.39002 0.83120 0.19185
 H458 H 0.39436 0.79579 0.15948
 H459 H 0.39302 0.83984 0.20502
 N460 N 0.33339 0.82015 0.12528
 N461 N 0.31972 0.83422 0.12513
 C462 C 0.30777 0.83155 0.10932
 C463 C 0.31421 0.81498 0.09914
 C464 C 0.33049 0.80815 0.10960
 H465 H 0.29501 0.84064 0.10573
 H466 H 0.33926 0.79513 0.10623
 H467 H 0.33087 0.83159 0.16125
 H468 H 0.34775 0.84786 0.14658
 N469 N 0.81985 0.37523 0.16559
 N470 N 0.83403 0.37521 0.17903
 C471 C 0.83138 0.39080 0.19124
 C472 C 0.81461 0.40098 0.18514
 C473 C 0.80767 0.39073 0.16884
 H474 H 0.84063 0.39427 0.20389
 H475 H 0.79446 0.39402 0.16029
 Cu476 Cu 0.85416 0.35442 0.17914
 Cu477 Cu 0.81748 0.35430 0.14580
 Cu478 Cu 0.85342 0.31748 0.14619
 N479 N 0.87479 0.33411 0.17913
 N480 N 0.87452 0.31979 0.16589
 C481 C 0.88997 0.30752 0.16917
 C482 C 0.90049 0.31456 0.18527
 C483 C 0.89052 0.33148 0.19123
 H484 H 0.89308 0.29423 0.16076
 H485 H 0.89424 0.34084 0.20369
 N486 N 0.83304 0.31968 0.12523
 N487 N 0.81940 0.33381 0.12500
 C488 C 0.80747 0.33111 0.10920
 C489 C 0.81387 0.31449 0.09911
 C490 C 0.83011 0.30762 0.10960
 H491 H 0.79477 0.34024 0.10553
 H492 H 0.83885 0.29458 0.10627
 H493 H 0.83160 0.33235 0.16142
 H494 H 0.84747 0.34749 0.14457
 N495 N 0.81976 0.87544 0.66614
 N496 N 0.83404 0.87552 0.67948
 C497 C 0.83130 0.89101 0.69178
 C498 C 0.81440 0.90106 0.68582
 C499 C 0.80745 0.89081 0.66953
 H500 H 0.84059 0.89452 0.70437
 H501 H 0.79416 0.89402 0.66108
 Cu502 Cu 0.85445 0.85499 0.67949
 Cu503 Cu 0.81748 0.85457 0.64632
 Cu504 Cu 0.85340 0.81787 0.64661
 N505 N 0.87484 0.83444 0.67950
 N506 N 0.87447 0.82007 0.66632
 C507 C 0.88981 0.80768 0.66968
 C508 C 0.90035 0.81469 0.68579
 C509 C 0.89050 0.83170 0.69166
 H510 H 0.89284 0.79434 0.66132
 H511 H 0.89426 0.84107 0.70410
 N512 N 0.83303 0.82004 0.62566
 N513 N 0.81937 0.83415 0.62548
 C514 C 0.80741 0.83145 0.60970
 C515 C 0.81381 0.81484 0.59958
 C516 C 0.83008 0.80799 0.61003
 H517 H 0.79469 0.84057 0.60607
 H518 H 0.83883 0.79496 0.60668
 H519 H 0.83178 0.83281 0.66220
 H520 H 0.84748 0.84786 0.64503
 N521 N 0.67978 0.62495 0.66637
 N522 N 0.66567 0.62486 0.67991
 C523 C 0.66838 0.60914 0.69193
 C524 C 0.68506 0.59895 0.68557
 C525 C 0.69193 0.60935 0.66932
 H526 H 0.65927 0.60563 0.70467
 H527 H 0.70516 0.60620 0.66074
 Cu528 Cu 0.64563 0.64578 0.68113
 Cu529 Cu 0.68221 0.64601 0.64682
 Cu530 Cu 0.64645 0.68250 0.64710
 N531 N 0.62489 0.66600 0.67999
 N532 N 0.62524 0.68019 0.66661
 C533 C 0.60973 0.69247 0.66963
 C534 C 0.59911 0.68559 0.68575
 C535 C 0.60907 0.66876 0.69195
 H536 H 0.60677 0.70577 0.66117
 H537 H 0.60536 0.65959 0.70457
 N538 N 0.66688 0.68054 0.62624
 N539 N 0.68054 0.66647 0.62607
 C540 C 0.69260 0.66923 0.61033
 C541 C 0.68621 0.68585 0.60020
 C542 C 0.66989 0.69265 0.61063
 H543 H 0.70534 0.66012 0.60671
 H544 H 0.66111 0.70566 0.60727
 H545 H 0.66801 0.66775 0.66280
 H546 H 0.65206 0.65239 0.64621
 N547 N 0.68033 0.12460 0.16610
 N548 N 0.66589 0.12434 0.17928
 C549 C 0.66861 0.10879 0.19155
 C550 C 0.68568 0.09892 0.18574
 C551 C 0.69274 0.10933 0.16956
 H552 H 0.65924 0.10516 0.20407
 H553 H 0.70620 0.10632 0.16128
 Cu554 Cu 0.64546 0.14486 0.17926
 Cu555 Cu 0.68273 0.14558 0.14636
 Cu556 Cu 0.64664 0.18214 0.14653
 N557 N 0.62496 0.16531 0.17922
 N558 N 0.62542 0.17977 0.16613
 C559 C 0.61010 0.19218 0.16952
 C560 C 0.59946 0.18511 0.18555
 C561 C 0.60924 0.16803 0.19135
 H562 H 0.60723 0.20563 0.16128
 H563 H 0.60543 0.15865 0.20379
 N564 N 0.66713 0.18006 0.12566
 N565 N 0.68085 0.16602 0.12552
 C566 C 0.69283 0.16873 0.10974
 C567 C 0.68638 0.18529 0.09955
 C568 C 0.67006 0.19209 0.10999
 H569 H 0.70559 0.15964 0.10613
 H570 H 0.66123 0.20505 0.10657
 H571 H 0.66824 0.16729 0.16227
 H572 H 0.65275 0.15222 0.14495
 N573 N 0.18034 0.62491 0.16578
 N574 N 0.16597 0.62480 0.17904
 C575 C 0.16864 0.60928 0.19134
 C576 C 0.18561 0.59926 0.18548
 C577 C 0.19266 0.60956 0.16923
 H578 H 0.15927 0.60575 0.20389
 H579 H 0.20601 0.60638 0.16085
 Cu580 Cu 0.14553 0.64531 0.17896
 Cu581 Cu 0.18274 0.64585 0.14598
 Cu582 Cu 0.14692 0.68265 0.14628
 N583 N 0.12514 0.66587 0.17889
 N584 N 0.12566 0.68032 0.16580
 C585 C 0.11034 0.69273 0.16910
 C586 C 0.09962 0.68565 0.18508
 C587 C 0.10936 0.66857 0.19094
 H588 H 0.10744 0.70614 0.16080
 H589 H 0.10548 0.65916 0.20332
 N590 N 0.16740 0.68053 0.12543
 N591 N 0.18100 0.66637 0.12519
 C592 C 0.19299 0.66908 0.10941
 C593 C 0.18667 0.68576 0.09935
 C594 C 0.17042 0.69263 0.10983
 H595 H 0.20568 0.65992 0.10574
 H596 H 0.16170 0.70569 0.10651
 H597 H 0.16840 0.66755 0.16194
 H598 H 0.15275 0.65267 0.14460
 N599 N 0.18119 0.12551 0.66681
 N600 N 0.16607 0.12412 0.67910
 C601 C 0.16866 0.10813 0.69077
 C602 C 0.18643 0.09919 0.68556
 C603 C 0.19403 0.11060 0.67032
 H604 H 0.15872 0.10372 0.70261
 H605 H 0.20795 0.10842 0.66257
 Cu606 Cu 0.14497 0.14395 0.67962
 Cu607 Cu 0.18354 0.14715 0.64802
 Cu608 Cu 0.14270 0.17807 0.64313
 N609 N 0.12448 0.16439 0.67904
 N610 N 0.12350 0.17757 0.66470
 C611 C 0.10806 0.18983 0.66809
 C612 C 0.09898 0.18405 0.68556
 C613 C 0.10974 0.16786 0.69211
 H614 H 0.10392 0.20215 0.65870
 H615 H 0.10727 0.15950 0.70560
 N616 N 0.16487 0.17775 0.62406
 N617 N 0.18062 0.16624 0.62622
 C618 C 0.19352 0.16993 0.61138
 C619 C 0.18547 0.18441 0.59934
 C620 C 0.16729 0.18899 0.60773
 H621 H 0.20783 0.16282 0.60956
 H622 H 0.15691 0.20012 0.60261
 H623 H 0.16465 0.16795 0.66150
 H624 H 0.15299 0.14888 0.64493
 N625 N 0.31988 0.62503 0.33395
 N626 N 0.33394 0.62494 0.32038
 C627 C 0.33131 0.60919 0.30841
 C628 C 0.31467 0.59902 0.31476
 C629 C 0.30777 0.60945 0.33100
 H630 H 0.34043 0.60568 0.29567
 H631 H 0.29461 0.60625 0.33964
 Cu632 Cu 0.35384 0.64585 0.31885
 Cu633 Cu 0.31752 0.64615 0.35337
 Cu634 Cu 0.35399 0.68201 0.35327
 N635 N 0.37482 0.66572 0.31998
 N636 N 0.37495 0.67968 0.33358
 C637 C 0.39054 0.69174 0.33041
 C638 C 0.40074 0.68496 0.31396
 C639 C 0.39043 0.66840 0.30773
 H640 H 0.39388 0.70483 0.33903
 H641 H 0.39376 0.65936 0.29491
 N642 N 0.33363 0.68019 0.37418
 N643 N 0.31960 0.66653 0.37417
 C644 C 0.30760 0.66948 0.38990
 C645 C 0.31442 0.68576 0.40024
 C646 C 0.33095 0.69217 0.38993
 H647 H 0.29463 0.66070 0.39341
 H648 H 0.34004 0.70488 0.39344
 H649 H 0.33181 0.66799 0.33756
 H650 H 0.34765 0.65199 0.35378
 N651 N 0.32031 0.12436 0.83425
 N652 N 0.33432 0.12452 0.82063
 C653 C 0.33179 0.10886 0.80853
 C654 C 0.31527 0.09847 0.81486
 C655 C 0.30835 0.10869 0.83123
 H656 H 0.34089 0.10554 0.79572
 H657 H 0.29524 0.10531 0.83988
 Cu658 Cu 0.35404 0.14561 0.81922
 Cu659 Cu 0.31777 0.14538 0.85375
 Cu660 Cu 0.35348 0.18200 0.85347
 N661 N 0.37490 0.16559 0.82058
 N662 N 0.37469 0.17969 0.83403
 C663 C 0.39024 0.19185 0.83097
 C664 C 0.40077 0.18495 0.81477
 C665 C 0.39069 0.16824 0.80857
 H666 H 0.39335 0.20504 0.83950
 H667 H 0.39430 0.15909 0.79590
 N668 N 0.33308 0.17989 0.87433
 N669 N 0.31946 0.16584 0.87449
 C670 C 0.30748 0.16852 0.89029
 C671 C 0.31387 0.18506 0.90048
 C672 C 0.33013 0.19190 0.89001
 H673 H 0.29479 0.15940 0.89393
 H674 H 0.33890 0.20487 0.89342
 H675 H 0.33162 0.16745 0.83784
 H676 H 0.34783 0.15191 0.85413
 N677 N 0.82009 0.62451 0.83389
 N678 N 0.83432 0.62447 0.82048
 C679 C 0.83165 0.60896 0.80820
 C680 C 0.81485 0.59886 0.81425
 C681 C 0.80788 0.60910 0.83058
 H682 H 0.84092 0.60547 0.79556
 H683 H 0.79464 0.60585 0.83909
 Cu684 Cu 0.85462 0.64503 0.82039
 Cu685 Cu 0.81773 0.64540 0.85372
 Cu686 Cu 0.85341 0.68220 0.85323
 N687 N 0.87490 0.66560 0.82031
 N688 N 0.87447 0.67998 0.83348
 C689 C 0.88978 0.69234 0.83014
 C690 C 0.90038 0.68531 0.81404
 C691 C 0.89057 0.66833 0.80815
 H692 H 0.89276 0.70567 0.83850
 H693 H 0.89440 0.65893 0.79573
 N694 N 0.83312 0.67998 0.87426
 N695 N 0.81955 0.66585 0.87453
 C696 C 0.80766 0.66851 0.89039
 C697 C 0.81401 0.68513 0.90048
 C698 C 0.83018 0.69202 0.88992
 H699 H 0.79501 0.65937 0.89411
 H700 H 0.83888 0.70506 0.89322
 H701 H 0.83183 0.66718 0.83775
 H702 H 0.84769 0.65220 0.85486
 N703 N 0.82042 0.12435 0.33414
 N704 N 0.83436 0.12455 0.32046
 C705 C 0.83181 0.10889 0.30835
 C706 C 0.81535 0.09846 0.31475
 C707 C 0.80849 0.10864 0.33116
 H708 H 0.84084 0.10562 0.29547
 H709 H 0.79542 0.10523 0.33986
 Cu710 Cu 0.85400 0.14572 0.31895
 Cu711 Cu 0.81786 0.14540 0.35361
 Cu712 Cu 0.85335 0.18222 0.35308
 N713 N 0.87480 0.16575 0.32025
 N714 N 0.87456 0.17989 0.33366
 C715 C 0.89007 0.19208 0.33055
 C716 C 0.90060 0.18517 0.31437
 C717 C 0.89057 0.16842 0.30822
 H718 H 0.89314 0.20531 0.33905
 H719 H 0.89419 0.15926 0.29556
 N720 N 0.83297 0.18012 0.37397
 N721 N 0.81946 0.16595 0.37426
 C722 C 0.80747 0.16868 0.39004
 C723 C 0.81372 0.18537 0.40007
 C724 C 0.82992 0.19225 0.38954
 H725 H 0.79484 0.15950 0.39376
 H726 H 0.83857 0.20532 0.39281
 H727 H 0.83149 0.16750 0.33757
 H728 H 0.84786 0.15211 0.35386
 N729 N 0.67999 0.37527 0.33378
 N730 N 0.66592 0.37522 0.32024
 C731 C 0.66851 0.39087 0.30813
 C732 C 0.68507 0.40118 0.31440
 C733 C 0.69200 0.39091 0.33073
 H734 H 0.65939 0.39428 0.29539
 H735 H 0.70512 0.39424 0.33935
 Cu736 Cu 0.64602 0.35431 0.31902
 Cu737 Cu 0.68245 0.35429 0.35334
 Cu738 Cu 0.64669 0.31772 0.35307
 N739 N 0.62536 0.33413 0.32014
 N740 N 0.62560 0.31996 0.33354
 C741 C 0.61010 0.30778 0.33044
 C742 C 0.59959 0.31469 0.31425
 C743 C 0.60963 0.33143 0.30810
 H744 H 0.60698 0.29458 0.33898
 H745 H 0.60599 0.34062 0.29548
 N746 N 0.66704 0.31979 0.37395
 N747 N 0.68068 0.33384 0.37411
 C748 C 0.69262 0.33114 0.38992
 C749 C 0.68621 0.31458 0.40007
 C750 C 0.66997 0.30776 0.38962
 H751 H 0.70531 0.34025 0.39358
 H752 H 0.66119 0.29480 0.39304
 H753 H 0.66845 0.33242 0.33743
 H754 H 0.65236 0.34787 0.35394
 N755 N 0.67962 0.87546 0.83433
 N756 N 0.66556 0.87540 0.82078
 C757 C 0.66808 0.89112 0.80873
 C758 C 0.68464 0.90144 0.81502
 C759 C 0.69160 0.89113 0.83131
 H760 H 0.65897 0.89449 0.79595
 H761 H 0.70477 0.89442 0.83988
 Cu762 Cu 0.64590 0.85428 0.81927
 Cu763 Cu 0.68228 0.85429 0.85365
 Cu764 Cu 0.64639 0.81784 0.85350
 N765 N 0.62492 0.83445 0.82080
 N766 N 0.62508 0.82036 0.83426
 C767 C 0.60947 0.80827 0.83127
 C768 C 0.59896 0.81521 0.81509
 C769 C 0.60910 0.83186 0.80883
 H770 H 0.60635 0.79507 0.83980
 H771 H 0.60554 0.84099 0.79613
 N772 N 0.66694 0.81973 0.87418
 N773 N 0.68063 0.83372 0.87429
 C774 C 0.69271 0.83090 0.88998
 C775 C 0.68632 0.81433 0.90014
 C776 C 0.66996 0.80762 0.88978
 H777 H 0.70545 0.83996 0.89356
 H778 H 0.66115 0.79467 0.89320
 H779 H 0.66830 0.83229 0.83779
 H780 H 0.65221 0.84791 0.85415
 N781 N 0.17844 0.37650 0.83479
 N782 N 0.16413 0.37662 0.82151
 C783 C 0.16737 0.39151 0.80860
 C784 C 0.18458 0.40120 0.81415
 C785 C 0.19121 0.39132 0.83083
 H786 H 0.15818 0.39485 0.79587
 H787 H 0.20450 0.39451 0.83926
 Cu788 Cu 0.14310 0.35683 0.82177
 Cu789 Cu 0.17990 0.35673 0.85575
 Cu790 Cu 0.14385 0.32018 0.85572
 N791 N 0.12336 0.33575 0.82176
 N792 N 0.12384 0.32142 0.83497
 C793 C 0.10901 0.30859 0.83125
 C794 C 0.09871 0.31522 0.81482
 C795 C 0.10818 0.33247 0.80914
 H796 H 0.10604 0.29531 0.83971
 H797 H 0.10451 0.34168 0.79653
 N798 N 0.16524 0.32141 0.87558
 N799 N 0.17889 0.33544 0.87572
 C800 C 0.19152 0.33209 0.89086
 C801 C 0.18554 0.31513 0.90063
 C802 C 0.16887 0.30873 0.89059
 H803 H 0.20434 0.34107 0.89435
 H804 H 0.16021 0.29566 0.89387
 H805 H 0.16561 0.33489 0.83970
 H806 H 0.14992 0.35021 0.85673
 N807 N 0.18064 0.87388 0.33315
 N808 N 0.16546 0.87532 0.32095
 C809 C 0.16802 0.89128 0.30923
 C810 C 0.18574 0.90025 0.31437
 C811 C 0.19336 0.88884 0.32962
 H812 H 0.15806 0.89576 0.29747
 H813 H 0.20727 0.89110 0.33733
 Cu814 Cu 0.14450 0.85548 0.32084
 Cu815 Cu 0.18330 0.85201 0.35178
 Cu816 Cu 0.14167 0.82225 0.35773
 N817 N 0.12486 0.83436 0.32054
 N818 N 0.12373 0.82140 0.33506
 C819 C 0.10850 0.80897 0.33156
 C820 C 0.09972 0.81439 0.31382
 C821 C 0.11047 0.83051 0.30720
 H822 H 0.10406 0.79700 0.34124
 H823 H 0.10790 0.83884 0.29373
 N824 N 0.16463 0.82149 0.37590
 N825 N 0.18055 0.83265 0.37345
 C826 C 0.19369 0.82859 0.38797
 C827 C 0.18566 0.81417 0.40007
 C828 C 0.16724 0.80997 0.39202
 H829 H 0.20807 0.83556 0.38961
 H830 H 0.15669 0.79912 0.39733
 H831 H 0.16384 0.83131 0.33939
 H832 H 0.15328 0.85108 0.35569
 C833 C 0.24230 1.06219 0.25765
 C834 C 0.25739 1.06235 0.24398
 C835 C 0.26182 1.04273 0.23977
 N836 N 0.24993 1.03065 0.25048
 C837 C 0.23798 1.04247 0.26145
 C838 C 0.27625 1.03651 0.22579
 C839 C 0.28050 1.01650 0.22097
 C840 C 0.29256 1.01068 0.20531
 C841 C 0.29265 0.99033 0.20513
 C842 C 0.28063 0.98417 0.22067
 N843 N 0.27358 1.00023 0.23047
 C844 C 0.27659 0.96406 0.22517
 C845 C 0.26224 0.95752 0.23906
 C846 C 0.25789 0.93779 0.24281
 C847 C 0.24280 0.93762 0.25647
 C848 C 0.23839 0.95725 0.26074
 N849 N 0.25029 0.96934 0.25004
 C850 C 0.22388 0.96346 0.27465
 C851 C 0.21946 0.98347 0.27932
 C852 C 0.20737 0.98929 0.29495
 C853 C 0.20728 1.00964 0.29513
 C854 C 0.21934 1.01581 0.27962
 N855 N 0.22640 0.99974 0.26982
 C856 C 0.22355 1.03592 0.27526
 H857 H 0.23536 1.07517 0.26409
 H858 H 0.26423 1.07547 0.23777
 H859 H 0.23437 0.99988 0.25668
 H860 H 0.30031 1.02011 0.19488
 H861 H 0.30048 0.98112 0.19454
 H862 H 0.26473 0.92483 0.23624
 H863 H 0.23589 0.92449 0.26255
 H864 H 0.19947 1.01884 0.30573
 H865 H 0.26570 1.00009 0.24366
 H866 H 0.19967 0.97986 0.30542
 C867 C 0.24200 0.43753 0.75507
 C868 C 0.25708 0.43768 0.74139
 C869 C 0.26148 0.45740 0.73766
 N870 N 0.24962 0.46923 0.74871
 C871 C 0.23770 0.45716 0.75938
 C872 C 0.27603 0.46392 0.72397
 C873 C 0.28048 0.48402 0.71983
 C874 C 0.29269 0.49021 0.70444
 C875 C 0.29276 0.51056 0.70477
 C876 C 0.28058 0.51636 0.72036
 N877 N 0.27348 0.50006 0.72969
 C878 C 0.27630 0.53635 0.72517
 C879 C 0.26182 0.54258 0.73908
 C880 C 0.25733 0.56221 0.74321
 C881 C 0.24222 0.56207 0.75685
 C882 C 0.23795 0.54234 0.76071
 N883 N 0.24995 0.53051 0.74982
 C884 C 0.22356 0.53581 0.77456
 C885 C 0.21940 0.51571 0.77894
 C886 C 0.20749 0.50953 0.79456
 C887 C 0.20745 0.48919 0.79427
 C888 C 0.21934 0.48338 0.77846
 N889 N 0.22626 0.49967 0.76898
 C890 C 0.22342 0.46338 0.77350
 H891 H 0.23513 0.42442 0.76124
 H892 H 0.26399 0.42470 0.73494
 H893 H 0.23399 0.49985 0.75570
 H894 H 0.30048 0.48103 0.69379
 H895 H 0.30062 0.52001 0.69444
 H896 H 0.26416 0.57533 0.73699
 H897 H 0.23525 0.57504 0.76325
 H898 H 0.19976 0.47974 0.80472
 H899 H 0.26540 0.49989 0.74276
 H900 H 0.19984 0.51872 0.80530
 C901 C 0.74323 0.06193 0.24331
 C902 C 0.75838 0.06184 0.25688
 C903 C 0.76263 0.04213 0.26092
 N904 N 0.75058 0.03025 0.25020
 C905 C 0.73870 0.04228 0.23940
 C906 C 0.77701 0.03567 0.27482
 C907 C 0.78112 0.01560 0.27946
 C908 C 0.79320 0.00955 0.29500
 C909 C 0.79312 -0.01080 0.29503
 C910 C 0.78097 -0.01673 0.27951
 N911 N 0.77403 -0.00053 0.26987
 C912 C 0.77668 -0.03676 0.27492
 C913 C 0.76221 -0.04306 0.26108
 C914 C 0.75777 -0.06272 0.25710
 C915 C 0.74261 -0.06263 0.24352
 C916 C 0.73827 -0.04293 0.23956
 N917 N 0.75027 -0.03105 0.25033
 C918 C 0.72380 -0.03646 0.22576
 C919 C 0.71958 -0.01639 0.22122
 C920 C 0.70738 -0.01033 0.20577
 C921 C 0.70746 0.01002 0.20576
 C922 C 0.71970 0.01595 0.22120
 N923 N 0.72671 -0.00026 0.23078
 C924 C 0.72412 0.03598 0.22567
 H925 H 0.73638 0.07502 0.23700
 H926 H 0.76537 0.07484 0.26314
 H927 H 0.73478 -0.00029 0.24384
 H928 H 0.80108 0.01883 0.30545
 H929 H 0.80092 -0.02016 0.30550
 H930 H 0.76463 -0.07580 0.26339
 H931 H 0.73565 -0.07564 0.23724
 H932 H 0.69963 0.01938 0.19530
 H933 H 0.76609 -0.00050 0.25673
 H934 H 0.69947 -0.01960 0.19534
 C935 C 0.74206 0.43764 0.74361
 C936 C 0.75726 0.43755 0.75712
 C937 C 0.76177 0.45720 0.76105
 N938 N 0.74981 0.46922 0.75031
 C939 C 0.73775 0.45733 0.73962
 C940 C 0.77643 0.46349 0.77470
 C941 C 0.78084 0.48354 0.77909
 C942 C 0.79308 0.48954 0.79450
 C943 C 0.79314 0.50989 0.79442
 C944 C 0.78090 0.51589 0.77898
 N945 N 0.77378 0.49972 0.76947
 C946 C 0.77661 0.53595 0.77444
 C947 C 0.76204 0.54239 0.76075
 C948 C 0.75765 0.56209 0.75681
 C949 C 0.74242 0.56214 0.74332
 C950 C 0.73803 0.54248 0.73933
 N951 N 0.75003 0.53048 0.75004
 C952 C 0.72358 0.53614 0.72551
 C953 C 0.71916 0.51612 0.72109
 C954 C 0.70698 0.51016 0.70562
 C955 C 0.70693 0.48981 0.70566
 C956 C 0.71903 0.48380 0.72121
 N957 N 0.72608 0.49995 0.73080
 C958 C 0.72328 0.46376 0.72580
 H959 H 0.73508 0.42463 0.73735
 H960 H 0.76417 0.42446 0.76335
 H961 H 0.73402 0.49994 0.74395
 H962 H 0.80091 0.48022 0.80498
 H963 H 0.80104 0.51920 0.80482
 H964 H 0.76466 0.57512 0.76299
 H965 H 0.73545 0.57521 0.73710
 H966 H 0.69916 0.48052 0.69515
 H967 H 0.76567 0.49974 0.75644
 H968 H 0.69917 0.51949 0.69513
 C969 C 0.25753 0.56220 0.25712
 C970 C 0.24245 0.56223 0.24346
 C971 C 0.23804 0.54256 0.23951
 N972 N 0.24991 0.53059 0.25039
 C973 C 0.26185 0.54252 0.26118
 C974 C 0.22364 0.53621 0.22562
 C975 C 0.21937 0.51616 0.22106
 C976 C 0.20730 0.51019 0.20551
 C977 C 0.20727 0.48984 0.20553
 C978 C 0.21933 0.48382 0.22111
 N979 N 0.22634 0.49998 0.23072
 C980 C 0.22353 0.46376 0.22573
 C981 C 0.23791 0.45735 0.23965
 C982 C 0.24227 0.43766 0.24368
 C983 C 0.25732 0.43764 0.25737
 C984 C 0.26168 0.45731 0.26137
 N985 N 0.24980 0.46928 0.25050
 C986 C 0.27608 0.46367 0.27526
 C987 C 0.28037 0.48372 0.27979
 C988 C 0.29245 0.48969 0.29534
 C989 C 0.29250 0.51005 0.29528
 C990 C 0.28045 0.51605 0.27970
 N991 N 0.27342 0.49989 0.27011
 C992 C 0.27625 0.53611 0.27508
 H993 H 0.26445 0.57524 0.26339
 H994 H 0.23561 0.57529 0.23709
 H995 H 0.26549 0.49989 0.25696
 H996 H 0.19953 0.51953 0.19499
 H997 H 0.19949 0.48054 0.19503
 H998 H 0.23541 0.42463 0.23734
 H999 H 0.26419 0.42458 0.26371
 H1000 H 0.30030 0.51936 0.30576
 H1001 H 0.23429 0.49997 0.24385
 H1002 H 0.30020 0.48037 0.30588
 C1003 C 0.74235 1.06255 0.75731
 C1004 C 0.75757 1.06250 0.74380
 C1005 C 0.76192 1.04281 0.73980
 N1006 N 0.74985 1.03089 0.75049
 C1007 C 0.73787 1.04288 0.76122
 C1008 C 0.77642 1.03638 0.72601
 C1009 C 0.78060 1.01633 0.72142
 C1010 C 0.79274 1.01030 0.70590
 C1011 C 0.79264 0.98995 0.70585
 C1012 C 0.78045 0.98400 0.72134
 N1013 N 0.77348 1.00018 0.73099
 C1014 C 0.77606 0.96397 0.72584
 C1015 C 0.76151 0.95763 0.73960
 C1016 C 0.75703 0.93797 0.74352
 C1017 C 0.74184 0.93802 0.75708
 C1018 C 0.73752 0.95771 0.76109
 N1019 N 0.74955 0.96962 0.75037
 C1020 C 0.72304 0.96414 0.77491
 C1021 C 0.71883 0.98420 0.77948
 C1022 C 0.70665 0.99024 0.79497
 C1023 C 0.70673 1.01059 0.79498
 C1024 C 0.71895 1.01652 0.77951
 N1025 N 0.72595 1.00034 0.76989
 C1026 C 0.72330 1.03654 0.77497
 H1027 H 0.73544 1.07561 0.76360
 H1028 H 0.76456 1.07553 0.73756
 H1029 H 0.73397 1.00032 0.75679
 H1030 H 0.80063 1.01959 0.69544
 H1031 H 0.80043 0.98061 0.69534
 H1032 H 0.76392 0.92490 0.73722
 H1033 H 0.73486 0.92499 0.76333
 H1034 H 0.69889 1.01994 0.80544
 H1035 H 0.76549 1.00019 0.74412
 H1036 H 0.69875 0.98095 0.80542
 C1037 C 0.74214 0.43791 0.25646
 C1038 C 0.75729 0.43789 0.24285
 C1039 C 0.76174 0.45756 0.23893
 N1040 N 0.74981 0.46953 0.24974
 C1041 C 0.73780 0.45760 0.26049
 C1042 C 0.77624 0.46392 0.22510
 C1043 C 0.78055 0.48396 0.22058
 C1044 C 0.79273 0.48994 0.20508
 C1045 C 0.79283 0.51029 0.20518
 C1046 C 0.78069 0.51629 0.22071
 N1047 N 0.77357 0.50013 0.23025
 C1048 C 0.77660 0.53634 0.22543
 C1049 C 0.76215 0.54276 0.23930
 C1050 C 0.75779 0.56245 0.24330
 C1051 C 0.74260 0.56248 0.25686
 C1052 C 0.73815 0.54281 0.26080
 N1053 N 0.75012 0.53084 0.25002
 C1054 C 0.72363 0.53645 0.27459
 C1055 C 0.71930 0.51641 0.27909
 C1056 C 0.70713 0.51043 0.29460
 C1057 C 0.70706 0.49008 0.29454
 C1058 C 0.71917 0.48407 0.27898
 N1059 N 0.72627 0.50024 0.26943
 C1060 C 0.72334 0.46401 0.27434
 H1061 H 0.73521 0.42487 0.26273
 H1062 H 0.76414 0.42483 0.23647
 H1063 H 0.73431 0.50024 0.25633
 H1064 H 0.80055 0.48063 0.19458
 H1065 H 0.80076 0.51960 0.19477
 H1066 H 0.76472 0.57547 0.23701
 H1067 H 0.73567 0.57554 0.26313
 H1068 H 0.69923 0.48077 0.30503
 H1069 H 0.76560 0.50011 0.24338
 H1070 H 0.69932 0.51975 0.30511
 C1071 C 0.25794 -0.06276 0.75710
 C1072 C 0.24282 -0.06271 0.74349
 C1073 C 0.23855 -0.04301 0.73941
 N1074 N 0.25055 -0.03110 0.75014
 C1075 C 0.26243 -0.04309 0.76098
 C1076 C 0.22415 -0.03658 0.72552
 C1077 C 0.22000 -0.01650 0.72090
 C1078 C 0.20800 -0.01047 0.70529
 C1079 C 0.20810 0.00988 0.70523
 C1080 C 0.22012 0.01585 0.72082
 N1081 N 0.22703 -0.00035 0.73052
 C1082 C 0.22446 0.03590 0.72533
 C1083 C 0.23898 0.04220 0.73915
 C1084 C 0.24337 0.06186 0.74321
 C1085 C 0.25843 0.06179 0.75688
 C1086 C 0.26277 0.04209 0.76085
 N1087 N 0.25086 0.03019 0.74998
 C1088 C 0.27711 0.03565 0.77480
 C1089 C 0.28125 0.01559 0.77942
 C1090 C 0.29332 0.00954 0.79498
 C1091 C 0.29326 -0.01081 0.79498
 C1092 C 0.28114 -0.01673 0.77944
 N1093 N 0.27419 -0.00054 0.76981
 C1094 C 0.27689 -0.03675 0.77482
 H1095 H 0.26475 -0.07582 0.76349
 H1096 H 0.23583 -0.07573 0.73728
 H1097 H 0.26627 -0.00052 0.75666
 H1098 H 0.20024 -0.01977 0.69477
 H1099 H 0.20044 0.01922 0.69464
 H1100 H 0.23647 0.07494 0.73697
 H1101 H 0.26528 0.07480 0.76326
 H1102 H 0.30105 -0.02016 0.80546
 H1103 H 0.23494 -0.00037 0.74368
 H1104 H 0.30116 0.01882 0.80546
 C1105 C 0.24292 0.25810 1.06221
 C1106 C 0.25660 0.24303 1.06238
 C1107 C 0.26067 0.23850 1.04272
 N1108 N 0.24986 0.25029 1.03062
 C1109 C 0.23897 0.26229 1.04245
 C1110 C 0.27458 0.22402 1.03650
 C1111 C 0.27925 0.21966 1.01646
 C1112 C 0.29489 0.20757 1.01059
 C1113 C 0.29492 0.20739 0.99021
 C1114 C 0.27931 0.21937 0.98408
 N1115 N 0.26962 0.22651 1.00019
 C1116 C 0.27469 0.22336 0.96396
 C1117 C 0.26079 0.23770 0.95741
 C1118 C 0.25685 0.24191 0.93766
 C1119 C 0.24321 0.25701 0.93749
 C1120 C 0.23915 0.26155 0.95714
 N1121 N 0.24992 0.24972 0.96924
 C1122 C 0.22526 0.27605 0.96337
 C1123 C 0.22054 0.28037 0.98340
 C1124 C 0.20489 0.29245 0.98927
 C1125 C 0.20482 0.29260 1.00965
 C1126 C 0.22043 0.28061 1.01578
 N1127 N 0.23015 0.27351 0.99967
 C1128 C 0.22504 0.27661 1.03590
 H1129 H 0.23653 0.26507 1.07519
 H1130 H 0.26289 0.23627 1.07552
 H1131 H 0.24336 0.26562 0.99977
 H1132 H 0.30542 0.19990 1.02000
 H1133 H 0.30548 0.19954 0.98096
 H1134 H 0.26322 0.23493 0.92467
 H1135 H 0.23693 0.26379 0.92435
 H1136 H 0.19425 0.30042 1.01890
 H1137 H 0.25642 0.23440 1.00010
 H1138 H 0.19437 0.30013 0.97985
 C1139 C 0.24325 0.75717 0.43752
 C1140 C 0.25826 0.74343 0.43761
 C1141 C 0.26230 0.73923 0.45734
 N1142 N 0.25028 0.75004 0.46923
 C1143 C 0.23862 0.76107 0.45720
 C1144 C 0.27639 0.72504 0.46379
 C1145 C 0.28021 0.72020 0.48387
 C1146 C 0.29177 0.70427 0.48993
 C1147 C 0.29170 0.70431 0.51032
 C1148 C 0.28009 0.72026 0.51624
 N1149 N 0.27343 0.73007 0.50002
 C1150 C 0.27615 0.72520 0.53628
 C1151 C 0.26197 0.73938 0.54259
 C1152 C 0.25788 0.74377 0.56228
 C1153 C 0.24285 0.75749 0.56222
 C1154 C 0.23823 0.76114 0.54250
 N1155 N 0.24993 0.75002 0.53058
 C1156 C 0.22369 0.77491 0.53606
 C1157 C 0.21931 0.77928 0.51596
 C1158 C 0.20699 0.79463 0.50989
 C1159 C 0.20706 0.79460 0.48951
 C1160 C 0.21942 0.77922 0.48356
 N1161 N 0.22651 0.76973 0.49979
 C1162 C 0.22401 0.77483 0.46349
 H1163 H 0.23652 0.76352 0.42440
 H1164 H 0.26523 0.73712 0.42458
 H1165 H 0.23480 0.75681 0.49984
 H1166 H 0.29930 0.69353 0.48065
 H1167 H 0.29916 0.69362 0.51970
 H1168 H 0.26489 0.73763 0.57536
 H1169 H 0.23615 0.76407 0.57526
 H1170 H 0.19920 0.80502 0.48014
 H1171 H 0.26606 0.74355 0.49997
 H1172 H 0.19904 0.80506 0.51918
 C1173 C 0.25707 0.75783 -0.06279
 C1174 C 0.24347 0.74275 -0.06276
 C1175 C 0.23955 0.73834 -0.04305
 N1176 N 0.25037 0.75022 -0.03110
 C1177 C 0.26112 0.76215 -0.04309
 C1178 C 0.22574 0.72390 -0.03662
 C1179 C 0.22118 0.71970 -0.01653
 C1180 C 0.20565 0.70762 -0.01048
 C1181 C 0.20567 0.70766 0.00990
 C1182 C 0.22121 0.71977 0.01585
 N1183 N 0.23080 0.72675 -0.00038
 C1184 C 0.22581 0.72404 0.03590
 C1185 C 0.23962 0.73849 0.04225
 C1186 C 0.24355 0.74295 0.06195
 C1187 C 0.25716 0.75802 0.06191
 C1188 C 0.26121 0.76230 0.04220
 N1189 N 0.25046 0.75034 0.03026
 C1190 C 0.27511 0.77664 0.03578
 C1191 C 0.27978 0.78072 0.01569
 C1192 C 0.29542 0.79265 0.00964
 C1193 C 0.29540 0.79261 -0.01074
 C1194 C 0.27974 0.78065 -0.01668
 N1195 N 0.27008 0.77376 -0.00046
 C1196 C 0.27503 0.77651 -0.03673
 H1197 H 0.26335 0.76472 -0.07587
 H1198 H 0.23713 0.73589 -0.07581
 H1199 H 0.25683 0.76598 -0.00044
 H1200 H 0.19515 0.69981 -0.01978
 H1201 H 0.19518 0.69988 0.01927
 H1202 H 0.23721 0.73612 0.07504
 H1203 H 0.26343 0.76494 0.07496
 H1204 H 0.30595 0.80030 -0.02011
 H1205 H 0.24394 0.73471 -0.00040
 H1206 H 0.30599 0.80038 0.01893
 C1207 C 0.24243 0.24300 0.43797
 C1208 C 0.25746 0.25666 0.43800
 C1209 C 0.26179 0.26064 0.45772
 N1210 N 0.24990 0.24978 0.46967
 C1211 C 0.23805 0.23896 0.45767
 C1212 C 0.27611 0.27456 0.46413
 C1213 C 0.28028 0.27917 0.48421
 C1214 C 0.29214 0.29485 0.49022
 C1215 C 0.29210 0.29484 0.51060
 C1216 C 0.28026 0.27912 0.51659
 N1217 N 0.27340 0.26944 0.50039
 C1218 C 0.27598 0.27453 0.53666
 C1219 C 0.26165 0.26054 0.54300
 C1220 C 0.25735 0.25637 0.56270
 C1221 C 0.24244 0.24259 0.56267
 C1222 C 0.23813 0.23860 0.54295
 N1223 N 0.24988 0.24963 0.53101
 C1224 C 0.22383 0.22464 0.53654
 C1225 C 0.21951 0.22022 0.51646
 C1226 C 0.20762 0.20458 0.51041
 C1227 C 0.20759 0.20469 0.49003
 C1228 C 0.21949 0.22036 0.48408
 N1229 N 0.22639 0.22999 0.50030
 C1230 C 0.22369 0.22504 0.46403
 H1231 H 0.23560 0.23669 0.42490
 H1232 H 0.26432 0.26301 0.42494
 H1233 H 0.23422 0.24317 0.50033
 H1234 H 0.29976 0.30546 0.48089
 H1235 H 0.29965 0.30548 0.51994
 H1236 H 0.26418 0.26261 0.57580
 H1237 H 0.23562 0.23622 0.57574
 H1238 H 0.19995 0.19413 0.48068
 H1239 H 0.26562 0.25623 0.50037
 H1240 H 0.20003 0.19392 0.51970
 C1241 C 0.74333 0.75776 1.06237
 C1242 C 0.75700 0.74269 1.06242
 C1243 C 0.76094 0.73820 1.04272
 N1244 N 0.75005 0.75002 1.03072
 C1245 C 0.73925 0.76200 1.04265
 C1246 C 0.77481 0.72374 1.03637
 C1247 C 0.77943 0.71946 1.01632
 C1248 C 0.79502 0.70734 1.01036
 C1249 C 0.79502 0.70727 0.98998
 C1250 C 0.77943 0.71934 0.98395
 N1251 N 0.76978 0.72641 1.00011
 C1252 C 0.77482 0.72351 0.96387
 C1253 C 0.76096 0.73793 0.95744
 C1254 C 0.75705 0.74232 0.93772
 C1255 C 0.74339 0.75740 0.93768
 C1256 C 0.73929 0.76174 0.95737
 N1257 N 0.75007 0.74982 0.96937
 C1258 C 0.72532 0.77611 0.96372
 C1259 C 0.72057 0.78025 0.98377
 C1260 C 0.70484 0.79217 0.98973
 C1261 C 0.70482 0.79222 1.01012
 C1262 C 0.72055 0.78034 1.01615
 N1263 N 0.73028 0.77339 0.99998
 C1264 C 0.72527 0.77631 1.03623
 H1265 H 0.73703 0.76470 1.07542
 H1266 H 0.76338 0.73590 1.07550
 H1267 H 0.74359 0.76566 1.00000
 H1268 H 0.80554 0.69959 1.01971
 H1269 H 0.80555 0.69946 0.98066
 H1270 H 0.76344 0.73546 0.92467
 H1271 H 0.73711 0.76428 0.92459
 H1272 H 0.69421 0.79993 1.01943
 H1273 H 0.75661 0.73435 1.00010
 H1274 H 0.69424 0.79982 0.98037
 C1275 C 0.75681 0.24251 0.56218
 C1276 C 0.74318 0.25762 0.56219
 C1277 C 0.73913 0.26196 0.54249
 N1278 N 0.74991 0.25001 0.53051
 C1279 C 0.76075 0.23810 0.54247
 C1280 C 0.72521 0.27635 0.53612
 C1281 C 0.72051 0.28051 0.51606
 C1282 C 0.70484 0.29251 0.51009
 C1283 C 0.70483 0.29252 0.48971
 C1284 C 0.72048 0.28052 0.48369
 N1285 N 0.73018 0.27356 0.49986
 C1286 C 0.72514 0.27636 0.46363
 C1287 C 0.73903 0.26195 0.45721
 C1288 C 0.74303 0.25761 0.43749
 C1289 C 0.75666 0.24249 0.43747
 C1290 C 0.76063 0.23809 0.45718
 N1291 N 0.74982 0.25000 0.46916
 C1292 C 0.77450 0.22364 0.46355
 C1293 C 0.77914 0.21942 0.48361
 C1294 C 0.79475 0.20735 0.48958
 C1295 C 0.79478 0.20735 0.50996
 C1296 C 0.77919 0.21943 0.51599
 N1297 N 0.76952 0.22643 0.49982
 C1298 C 0.77460 0.22364 0.53606
 H1299 H 0.76316 0.23565 0.57523
 H1300 H 0.73689 0.26452 0.57526
 H1301 H 0.75633 0.23436 0.49984
 H1302 H 0.69429 0.30025 0.51944
 H1303 H 0.69426 0.30026 0.48040
 H1304 H 0.73672 0.26451 0.42444
 H1305 H 0.76297 0.23562 0.42440
 H1306 H 0.80533 0.19957 0.51927
 H1307 H 0.74342 0.26572 0.49984
 H1308 H 0.80527 0.19957 0.48023
 C1309 C 0.74241 0.24310 -0.06263
 C1310 C 0.75592 0.25826 -0.06268
 C1311 C 0.76015 0.26245 -0.04299
 N1312 N 0.74962 0.25032 -0.03099
 C1313 C 0.73874 0.23848 -0.04292
 C1314 C 0.77421 0.27667 -0.03665
 C1315 C 0.77923 0.28042 -0.01659
 C1316 C 0.79497 0.29227 -0.01062
 C1317 C 0.79510 0.29212 0.00975
 C1318 C 0.77942 0.28023 0.01578
 N1319 N 0.76962 0.27344 -0.00037
 C1320 C 0.77473 0.27614 0.03586
 C1321 C 0.76079 0.26185 0.04229
 C1322 C 0.75664 0.25768 0.06201
 C1323 C 0.74302 0.24261 0.06207
 C1324 C 0.73921 0.23805 0.04238
 N1325 N 0.75011 0.24983 0.03037
 C1326 C 0.72547 0.22353 0.03603
 C1327 C 0.72095 0.21921 0.01597
 C1328 C 0.70561 0.20686 0.01000
 C1329 C 0.70554 0.20693 -0.01038
 C1330 C 0.72082 0.21934 -0.01641
 N1331 N 0.73037 0.22645 -0.00025
 C1332 C 0.72519 0.22380 -0.03648
 H1333 H 0.73603 0.23627 -0.07568
 H1334 H 0.76209 0.26521 -0.07578
 H1335 H 0.74332 0.23469 -0.00031
 H1336 H 0.80544 0.30010 -0.01995
 H1337 H 0.80571 0.29977 0.01906
 H1338 H 0.76284 0.26468 0.07505
 H1339 H 0.73662 0.23586 0.07515
 H1340 H 0.69514 0.19900 -0.01969
 H1341 H 0.75626 0.26584 -0.00030
 H1342 H 0.69528 0.19887 0.01935
 C1343 C 0.74298 0.74265 0.43782
 C1344 C 0.75657 0.75775 0.43779
 C1345 C 0.76056 0.76212 0.45749
 N1346 N 0.74980 0.75019 0.46948
 C1347 C 0.73902 0.73828 0.45753
 C1348 C 0.77442 0.77652 0.46385
 C1349 C 0.77907 0.78070 0.48390
 C1350 C 0.79465 0.79275 0.48986
 C1351 C 0.79467 0.79275 0.51024
 C1352 C 0.77910 0.78070 0.51627
 N1353 N 0.76944 0.77372 0.50011
 C1354 C 0.77451 0.77651 0.53635
 C1355 C 0.76066 0.76210 0.54277
 C1356 C 0.75670 0.75774 0.56249
 C1357 C 0.74309 0.74266 0.56252
 C1358 C 0.73908 0.73829 0.54282
 N1359 N 0.74986 0.75019 0.53083
 C1360 C 0.72522 0.72388 0.53647
 C1361 C 0.72059 0.71967 0.51641
 C1362 C 0.70502 0.70762 0.51044
 C1363 C 0.70502 0.70761 0.49005
 C1364 C 0.72058 0.71966 0.48403
 N1365 N 0.73022 0.72666 0.50020
 C1366 C 0.72519 0.72386 0.46395
 H1367 H 0.73668 0.73578 0.42476
 H1368 H 0.76286 0.76463 0.42471
 H1369 H 0.74339 0.73456 0.50018
 H1370 H 0.80515 0.80052 0.48051
 H1371 H 0.80520 0.80052 0.51955
 H1372 H 0.76301 0.76462 0.57553
 H1373 H 0.73680 0.73579 0.57560
 H1374 H 0.69451 0.69984 0.48074
 H1375 H 0.75627 0.76583 0.50014
 H1376 H 0.69452 0.69985 0.51979
 C1377 C 0.93742 0.24245 0.25652
 C1378 C 0.93746 0.25752 0.24291
 C1379 C 0.95723 0.26188 0.23898
 N1380 N 0.96920 0.24998 0.24982
 C1381 C 0.95717 0.23808 0.26057
 C1382 C 0.96367 0.27629 0.22516
 C1383 C 0.98381 0.28054 0.22066
 C1384 C 0.98985 0.29263 0.20515
 C1385 C 1.01028 0.29262 0.20518
 C1386 C 1.01627 0.28052 0.22071
 N1387 N 1.00002 0.27351 0.23029
 C1388 C 1.03640 0.27623 0.22530
 C1389 C 1.04277 0.26175 0.23910
 C1390 C 1.06251 0.25733 0.24311
 C1391 C 1.06247 0.24223 0.25669
 C1392 C 1.04271 0.23789 0.26064
 N1393 N 1.03074 0.24985 0.24985
 C1394 C 1.03626 0.22350 0.27448
 C1395 C 1.01613 0.21932 0.27903
 C1396 C 1.01008 0.20727 0.29458
 C1397 C 0.98965 0.20731 0.29455
 C1398 C 0.98366 0.21937 0.27900
 N1399 N 0.99991 0.22633 0.26938
 C1400 C 0.96354 0.22365 0.27441
 H1401 H 0.92431 0.23555 0.26276
 H1402 H 0.92437 0.26441 0.23657
 H1403 H 0.99994 0.23425 0.25624
 H1404 H 0.98051 0.30042 0.19464
 H1405 H 1.01965 0.30039 0.19470
 H1406 H 1.07563 0.26420 0.23685
 H1407 H 1.07555 0.23532 0.26302
 H1408 H 0.98027 0.19956 0.30505
 H1409 H 0.99999 0.26552 0.24339
 H1410 H 1.01940 0.19949 0.30510
 C1411 C 0.56249 0.24227 0.75690
 C1412 C 0.56247 0.25738 0.74334
 C1413 C 0.54271 0.26166 0.73926
 N1414 N 0.53072 0.24968 0.74995
 C1415 C 0.54273 0.23782 0.76078
 C1416 C 0.53628 0.27603 0.72539
 C1417 C 0.51616 0.28013 0.72070
 C1418 C 0.51014 0.29209 0.70507
 C1419 C 0.48971 0.29208 0.70507
 C1420 C 0.48370 0.28009 0.72067
 N1421 N 0.49994 0.27318 0.73035
 C1422 C 0.46359 0.27607 0.72544
 C1423 C 0.45719 0.26184 0.73948
 C1424 C 0.43744 0.25754 0.74356
 C1425 C 0.43745 0.24247 0.75717
 C1426 C 0.45721 0.23802 0.76107
 N1427 N 0.46920 0.24987 0.75022
 C1428 C 0.46364 0.22351 0.77480
 C1429 C 0.48377 0.21914 0.77922
 C1430 C 0.48982 0.20696 0.79466
 C1431 C 0.51025 0.20690 0.79458
 C1432 C 0.51623 0.21906 0.77910
 N1433 N 0.49998 0.22614 0.76957
 C1434 C 0.53634 0.22334 0.77455
 H1435 H 0.57560 0.23543 0.76325
 H1436 H 0.57557 0.26433 0.73712
 H1437 H 0.49996 0.23419 0.75651
 H1438 H 0.51949 0.29985 0.69457
 H1439 H 0.48035 0.29988 0.69458
 H1440 H 0.42433 0.26439 0.73724
 H1441 H 0.42436 0.23560 0.76349
 H1442 H 0.51962 0.19907 0.80502
 H1443 H 0.49995 0.26543 0.74360
 H1444 H 0.48049 0.19917 0.80516
 C1445 C -0.06262 0.25787 0.75644
 C1446 C -0.06258 0.24279 0.74284
 C1447 C -0.04280 0.23834 0.73895
 N1448 N -0.03085 0.25021 0.74978
 C1449 C -0.04288 0.26218 0.76050
 C1450 C -0.03635 0.22385 0.72520
 C1451 C -0.01620 0.21949 0.72077
 C1452 C -0.01012 0.20741 0.70526
 C1453 C 0.01032 0.20720 0.70546
 C1454 C 0.01628 0.21915 0.72108
 N1455 N -0.00001 0.22631 0.73055
 C1456 C 0.03641 0.22296 0.72602
 C1457 C 0.04277 0.23730 0.73995
 C1458 C 0.06250 0.24158 0.74404
 C1459 C 0.06247 0.25674 0.75755
 C1460 C 0.04270 0.26126 0.76138
 N1461 N 0.03074 0.24936 0.75058
 C1462 C 0.03625 0.27586 0.77502
 C1463 C 0.01610 0.28021 0.77947
 C1464 C 0.01003 0.29236 0.79493
 C1465 C -0.01041 0.29250 0.79480
 C1466 C -0.01638 0.28044 0.77926
 N1467 N -0.00011 0.27328 0.76979
 C1468 C -0.03652 0.27651 0.77444
 H1469 H -0.07574 0.26475 0.76273
 H1470 H -0.07565 0.23593 0.73651
 H1471 H -0.00002 0.26534 0.75666
 H1472 H -0.01943 0.19973 0.69468
 H1473 H 0.01970 0.19930 0.69508
 H1474 H 0.07561 0.23464 0.73780
 H1475 H 0.07555 0.26360 0.76386
 H1476 H -0.01978 0.30041 0.80519
 H1477 H -0.00011 0.23415 0.74373
 H1478 H 0.01935 0.30013 0.80544
 C1479 C 0.56251 0.24230 0.24297
 C1480 C 0.56261 0.25741 0.25654
 C1481 C 0.54288 0.26183 0.26064
 N1482 N 0.53081 0.24992 0.24997
 C1483 C 0.54273 0.23797 0.23913
 C1484 C 0.53655 0.27630 0.27447
 C1485 C 0.51645 0.28058 0.27914
 C1486 C 0.51050 0.29258 0.29477
 C1487 C 0.49007 0.29268 0.29482
 C1488 C 0.48399 0.28074 0.27923
 N1489 N 0.50018 0.27371 0.26953
 C1490 C 0.46383 0.27670 0.27464
 C1491 C 0.45733 0.26240 0.26074
 C1492 C 0.43755 0.25823 0.25675
 C1493 C 0.43744 0.24310 0.24320
 C1494 C 0.45717 0.23852 0.23925
 N1495 N 0.46925 0.25034 0.25001
 C1496 C 0.46348 0.22392 0.22554
 C1497 C 0.48359 0.21949 0.22101
 C1498 C 0.48955 0.20728 0.20554
 C1499 C 0.50998 0.20719 0.20548
 C1500 C 0.51607 0.21933 0.22091
 N1501 N 0.49988 0.22647 0.23052
 C1502 C 0.53623 0.22354 0.22536
 H1503 H 0.57557 0.23541 0.23657
 H1504 H 0.57575 0.26426 0.26274
 H1505 H 0.49994 0.23455 0.24356
 H1506 H 0.51990 0.30020 0.30532
 H1507 H 0.48076 0.30047 0.30537
 H1508 H 0.42450 0.26525 0.26303
 H1509 H 0.42430 0.23631 0.23694
 H1510 H 0.51928 0.19933 0.19498
 H1511 H 0.50012 0.26583 0.25637
 H1512 H 0.48015 0.19950 0.19512
 C1513 C 1.06255 0.74292 0.75734
 C1514 C 1.06251 0.75804 0.74378
 C1515 C 1.04275 0.76232 0.73972
 N1516 N 1.03078 0.75032 0.75042
 C1517 C 1.04280 0.73844 0.76122
 C1518 C 1.03631 0.77668 0.72583
 C1519 C 1.01618 0.78081 0.72116
 C1520 C 1.01017 0.79283 0.70557
 C1521 C 0.98974 0.79276 0.70550
 C1522 C 0.98373 0.78070 0.72104
 N1523 N 0.99995 0.77378 0.73074
 C1524 C 0.96361 0.77640 0.72553
 C1525 C 0.95723 0.76191 0.73928
 C1526 C 0.93748 0.75749 0.74323
 C1527 C 0.93751 0.74235 0.75676
 C1528 C 0.95728 0.73801 0.76076
 N1529 N 0.96926 0.74998 0.75003
 C1530 C 0.96371 0.72357 0.77456
 C1531 C 0.98383 0.71936 0.77917
 C1532 C 0.98983 0.70724 0.79468
 C1533 C 1.01026 0.70733 0.79479
 C1534 C 1.01629 0.71950 0.77933
 N1535 N 1.00008 0.72646 0.76966
 C1536 C 1.03642 0.72388 0.77492
 H1537 H 1.07566 0.73606 0.76365
 H1538 H 1.07559 0.76499 0.73753
 H1539 H 1.00010 0.73448 0.75658
 H1540 H 1.01953 0.80063 0.69510
 H1541 H 0.98039 0.80048 0.69495
 H1542 H 0.92437 0.76438 0.73695
 H1543 H 0.92443 0.73542 0.76300
 H1544 H 1.01960 0.69956 0.80531
 H1545 H 0.99993 0.76589 0.74390
 H1546 H 0.98047 0.69939 0.80511
 C1547 C 0.56254 0.74279 0.25713
 C1548 C 0.56257 0.75779 0.24344
 C1549 C 0.54282 0.76203 0.23924
 N1550 N 0.53080 0.75011 0.24999
 C1551 C 0.54278 0.73833 0.26095
 C1552 C 0.53644 0.77631 0.22524
 C1553 C 0.51633 0.78040 0.22045
 C1554 C 0.51039 0.79240 0.20482
 C1555 C 0.48996 0.79237 0.20469
 C1556 C 0.48387 0.78033 0.22022
 N1557 N 0.50006 0.77339 0.22997
 C1558 C 0.46373 0.77612 0.22470
 C1559 C 0.45728 0.76162 0.23843
 C1560 C 0.43752 0.75714 0.24222
 C1561 C 0.43749 0.74203 0.25579
 C1562 C 0.45724 0.73775 0.25995
 N1563 N 0.46926 0.74974 0.24929
 C1564 C 0.46361 0.72342 0.27389
 C1565 C 0.48372 0.71934 0.27871
 C1566 C 0.48964 0.70735 0.29436
 C1567 C 0.51007 0.70749 0.29460
 C1568 C 0.51618 0.71954 0.27909
 N1569 N 0.50001 0.72640 0.26925
 C1570 C 0.53633 0.72390 0.27475
 H1571 H 0.57562 0.73601 0.26359
 H1572 H 0.57568 0.76470 0.23720
 H1573 H 0.50010 0.73429 0.25609
 H1574 H 0.51979 0.80018 0.19437
 H1575 H 0.48066 0.80012 0.19412
 H1576 H 0.42444 0.76397 0.23581
 H1577 H 0.42438 0.73507 0.26196
 H1578 H 0.51935 0.69982 0.30524
 H1579 H 0.49998 0.76553 0.24315
 H1580 H 0.48023 0.69954 0.30477
 C1581 C -0.06261 0.75767 0.25658
 C1582 C -0.06259 0.74263 0.24293
 C1583 C -0.04283 0.73814 0.23904
 N1584 N -0.03085 0.74994 0.24992
 C1585 C -0.04285 0.76189 0.26068
 C1586 C -0.03641 0.72373 0.22518
 C1587 C -0.01628 0.71957 0.22048
 C1588 C -0.01028 0.70742 0.20499
 C1589 C 0.01015 0.70751 0.20484
 C1590 C 0.01618 0.71971 0.22025
 N1591 N -0.00004 0.72670 0.22993
 C1592 C 0.03630 0.72409 0.22463
 C1593 C 0.04270 0.73858 0.23836
 C1594 C 0.06246 0.74308 0.24214
 C1595 C 0.06245 0.75808 0.25581
 C1596 C 0.04269 0.76229 0.26003
 N1597 N 0.03070 0.75034 0.24933
 C1598 C 0.03629 0.77643 0.27417
 C1599 C 0.01617 0.78033 0.27908
 C1600 C 0.01017 0.79215 0.29483
 C1601 C -0.01026 0.79212 0.29493
 C1602 C -0.01630 0.78028 0.27925
 N1603 N -0.00009 0.77345 0.26945
 C1604 C -0.03644 0.77618 0.27463
 H1605 H -0.07571 0.76463 0.26282
 H1606 H -0.07568 0.73586 0.23653
 H1607 H -0.00013 0.76580 0.25615
 H1608 H -0.01964 0.69951 0.19463
 H1609 H 0.01949 0.69972 0.19433
 H1610 H 0.07556 0.73630 0.23571
 H1611 H 0.07554 0.76496 0.26207
 H1612 H -0.01960 0.79978 0.30553
 H1613 H -0.00001 0.73474 0.24298
 H1614 H 0.01955 0.79986 0.30533
 C1615 C 0.56241 0.74278 0.74376
 C1616 C 0.56240 0.75785 0.75736
 C1617 C 0.54263 0.76216 0.76143
 N1618 N 0.53065 0.75025 0.75069
 C1619 C 0.54266 0.73841 0.73982
 C1620 C 0.53620 0.77660 0.77523
 C1621 C 0.51607 0.78085 0.77981
 C1622 C 0.51005 0.79300 0.79530
 C1623 C 0.48962 0.79302 0.79532
 C1624 C 0.48362 0.78087 0.77986
 N1625 N 0.49985 0.77382 0.77025
 C1626 C 0.46350 0.77665 0.77533
 C1627 C 0.45712 0.76212 0.76164
 C1628 C 0.43737 0.75764 0.75781
 C1629 C 0.43740 0.74248 0.74432
 C1630 C 0.45716 0.73818 0.74024
 N1631 N 0.46914 0.75019 0.75088
 C1632 C 0.46357 0.72376 0.72642
 C1633 C 0.48369 0.71953 0.72179
 C1634 C 0.48969 0.70753 0.70618
 C1635 C 0.51011 0.70759 0.70608
 C1636 C 0.51613 0.71967 0.72158
 N1637 N 0.49992 0.72653 0.73136
 C1638 C 0.53625 0.72408 0.72594
 H1639 H 0.57552 0.73592 0.73742
 H1640 H 0.57549 0.76482 0.76353
 H1641 H 0.49993 0.73440 0.74453
 H1642 H 0.51940 0.80081 0.80574
 H1643 H 0.48026 0.80087 0.80578
 H1644 H 0.42426 0.76449 0.76416
 H1645 H 0.42432 0.73549 0.73815
 H1646 H 0.51945 0.69987 0.69552
 H1647 H 0.49985 0.76583 0.75716
 H1648 H 0.48033 0.69983 0.69565
 N1649 N 0.42542 0.28827 0.31190
 C1650 C 0.41818 0.30583 0.30522
 N1651 N 0.42639 0.31407 0.28877
 N1652 N 0.44123 0.30502 0.27927
 C1653 C 0.44835 0.28741 0.28591
 N1654 N 0.44023 0.27919 0.30239
 N1655 N 0.42505 0.78878 0.81238
 C1656 C 0.41730 0.80586 0.80502
 N1657 N 0.42531 0.81367 0.78825
 N1658 N 0.44034 0.80462 0.77906
 C1659 C 0.44793 0.78748 0.78636
 N1660 N 0.44007 0.77971 0.80318
 N1661 N -0.07363 0.28953 0.81262
 C1662 C -0.08231 0.30589 0.80470
 N1663 N -0.07554 0.31287 0.78706
 N1664 N -0.06073 0.30374 0.77759
 C1665 C -0.05213 0.28734 0.78549
 N1666 N -0.05881 0.28039 0.80317
 N1667 N -0.07553 0.78742 0.31132
 C1668 C -0.08230 0.80529 0.30496
 N1669 N -0.07355 0.81382 0.28894
 N1670 N -0.05865 0.80476 0.27954
 C1671 C -0.05200 0.78685 0.28585
 N1672 N -0.06067 0.77833 0.30190
 N1673 N 0.57532 0.71276 0.31152
 C1674 C 0.58201 0.69482 0.30531
 N1675 N 0.57324 0.68620 0.28937
 N1676 N 0.55840 0.69526 0.27991
 C1677 C 0.55184 0.71326 0.28605
 N1678 N 0.56052 0.72186 0.30203
 N1679 N 0.57365 0.18589 0.78867
 C1680 C 0.58248 0.19453 0.80456
 N1681 N 0.57565 0.21235 0.81095
 N1682 N 0.56066 0.22132 0.80166
 C1683 C 0.55192 0.21271 0.78572
 N1684 N 0.55863 0.19484 0.77939
 N1685 N 1.07566 0.71264 0.81139
 C1686 C 1.08228 0.69469 0.80512
 N1687 N 1.07337 0.68610 0.78924
 N1688 N 1.05847 0.69518 0.77989
 C1689 C 1.05198 0.71319 0.78610
 N1690 N 1.06080 0.72176 0.80202
 N1691 N 1.07474 0.21191 0.31164
 C1692 C 1.08195 0.19433 0.30495
 N1693 N 1.07370 0.18610 0.28853
 N1694 N 1.05887 0.19518 0.27906
 C1695 C 1.05179 0.21281 0.28570
 N1696 N 1.05995 0.22101 0.30215
 N1697 N 0.57367 0.31346 0.71170
 C1698 C 0.58234 0.30508 0.69554
 N1699 N 0.57538 0.28744 0.68886
 N1700 N 0.56042 0.27840 0.69810
 C1701 C 0.55183 0.28675 0.71429
 N1702 N 0.55868 0.30444 0.72093
 N1703 N 0.57524 0.78788 0.18842
 C1704 C 0.58230 0.80547 0.19515
 N1705 N 0.57384 0.81371 0.21148
 N1706 N 0.55896 0.80463 0.22083
 C1707 C 0.55202 0.78700 0.21415
 N1708 N 0.56039 0.77878 0.19778
 N1709 N 1.07553 0.28754 0.18872
 C1710 C 1.08231 0.30533 0.19520
 N1711 N 1.07356 0.31380 0.21126
 N1712 N 1.05864 0.30475 0.22059
 C1713 C 1.05198 0.28691 0.21417
 N1714 N 1.06065 0.27846 0.19807
 N1715 N 1.07478 0.78830 0.68868
 C1716 C 1.08202 0.80580 0.69547
 N1717 N 1.07379 0.81397 0.71195
 N1718 N 1.05895 0.80491 0.72139
 C1719 C 1.05184 0.78737 0.71466
 N1720 N 1.05998 0.77922 0.69813
 N1721 N 0.42607 0.68658 0.71247
 C1722 C 0.41758 0.69502 0.69626
 N1723 N 0.42468 0.71265 0.68965
 N1724 N 0.43961 0.72160 0.69901
 C1725 C 0.44802 0.71317 0.71524
 N1726 N 0.44103 0.69550 0.72181
 N1727 N 0.42674 0.18604 0.21124
 C1728 C 0.41780 0.19460 0.19533
 N1729 N 0.42423 0.21262 0.18912
 N1730 N 0.43897 0.22182 0.19855
 C1731 C 0.44786 0.21326 0.21446
 N1732 N 0.44152 0.19521 0.22064
 N1733 N -0.07449 0.71145 0.18790
 C1734 C -0.08220 0.69438 0.19526
 N1735 N -0.07442 0.68670 0.21219
 N1736 N -0.05955 0.69583 0.22149
 C1737 C -0.05195 0.71294 0.21416
 N1738 N -0.05964 0.72059 0.19721
 N1739 N -0.07336 0.18621 0.71107
 C1740 C -0.08228 0.19482 0.69518
 N1741 N -0.07561 0.21269 0.68880
 N1742 N -0.06070 0.22173 0.69809
 C1743 C -0.05187 0.21316 0.71403
 N1744 N -0.05841 0.19523 0.72034
 N1745 N 0.31370 0.42657 0.28959
 C1746 C 0.30510 0.41791 0.30562
 N1747 N 0.28720 0.42475 0.31199
 N1748 N 0.27814 0.43959 0.30257
 C1749 C 0.28673 0.44816 0.28650
 N1750 N 0.30468 0.44145 0.28019
 N1751 N 0.28884 -0.07485 0.81209
 C1752 C 0.30595 -0.08271 0.80477
 N1753 N 0.31381 -0.07492 0.78792
 N1754 N 0.30480 -0.05998 0.77864
 C1755 C 0.28763 -0.05228 0.78590
 N1756 N 0.27981 -0.05992 0.80280
 N1757 N 0.81406 0.42646 0.78941
 C1758 C 0.80494 0.41717 0.80481
 N1759 N 0.78677 0.42372 0.81076
 N1760 N 0.77794 0.43877 0.80148
 C1761 C 0.78700 0.44791 0.78599
 N1762 N 0.80524 0.44155 0.78015
 N1763 N 0.81363 -0.07481 0.28841
 C1764 C 0.80552 -0.08279 0.30505
 N1765 N 0.78823 -0.07509 0.31211
 N1766 N 0.77927 -0.06015 0.30277
 C1767 C 0.78734 -0.05231 0.28608
 N1768 N 0.80469 -0.05985 0.27907
 N1769 N 0.31361 0.57389 0.71154
 C1770 C 0.30514 0.58251 0.69542
 N1771 N 0.28746 0.57549 0.68875
 N1772 N 0.27848 0.56052 0.69798
 C1773 C 0.28693 0.55198 0.71413
 N1774 N 0.30466 0.55888 0.72075
 N1775 N 0.31392 1.07357 0.21171
 C1776 C 0.30561 1.08198 0.19539
 N1777 N 0.28781 1.07511 0.18887
 N1778 N 0.27859 1.06046 0.19839
 C1779 C 0.28690 1.05211 0.21471
 N1780 N 0.30472 1.05889 0.22122
 N1781 N 0.81339 0.57465 0.21263
 C1782 C 0.80598 0.58195 0.19538
 N1783 N 0.78919 0.57383 0.18775
 N1784 N 0.78006 0.55903 0.19711
 C1785 C 0.78744 0.55181 0.21439
 N1786 N 0.80427 0.55984 0.22199
 N1787 N 0.81367 1.07394 0.71225
 C1788 C 0.80538 1.08219 0.69584
 N1789 N 0.78787 1.07489 0.68903
 N1790 N 0.77887 1.06001 0.69838
 C1791 C 0.78713 1.05186 0.71483
 N1792 N 0.80469 1.05904 0.72160
 N1793 N 0.68608 0.57368 0.28883
 C1794 C 0.69449 0.58204 0.30510
 N1795 N 0.71224 0.57499 0.31162
 N1796 N 0.72134 0.56023 0.30212
 C1797 C 0.71295 0.55196 0.28582
 N1798 N 0.69515 0.55889 0.27935
 N1799 N 0.71186 1.07504 0.81196
 C1800 C 0.69454 1.08269 0.80493
 N1801 N 0.68635 1.07459 0.78841
 N1802 N 0.69525 1.05957 0.77914
 C1803 C 0.71263 1.05208 0.78611
 N1804 N 0.72078 1.06004 0.80268
 N1805 N 0.21216 0.57423 0.81169
 C1806 C 0.19448 0.58140 0.80509
 N1807 N 0.18608 0.57308 0.78880
 N1808 N 0.19510 0.55823 0.77936
 C1809 C 0.21283 0.55119 0.78590
 N1810 N 0.22121 0.55941 0.80224
 N1811 N 0.21232 1.07469 0.31213
 C1812 C 0.19446 1.08158 0.30574
 N1813 N 0.18587 1.07295 0.28971
 N1814 N 0.19489 1.05808 0.28030
 C1815 C 0.21281 1.05132 0.28662
 N1816 N 0.22137 1.05985 0.30270
 N1817 N 0.68610 0.42621 0.71203
 C1818 C 0.69451 0.41785 0.69573
 N1819 N 0.71207 0.42510 0.68897
 N1820 N 0.72101 0.44003 0.69827
 C1821 C 0.71262 0.44829 0.71461
 N1822 N 0.69501 0.44117 0.72133
 N1823 N 0.71226 -0.07478 0.18862
 C1824 C 0.69470 -0.08203 0.19542
 N1825 N 0.68645 -0.07385 0.21189
 N1826 N 0.69550 -0.05904 0.22131
 C1827 C 0.71309 -0.05190 0.21456
 N1828 N 0.72132 -0.06000 0.19805
 N1829 N 0.21230 0.42519 0.18874
 C1830 C 0.19464 0.41805 0.19537
 N1831 N 0.18622 0.42639 0.21168
 N1832 N 0.19519 0.44125 0.22109
 C1833 C 0.21290 0.44827 0.21450
 N1834 N 0.22130 0.44001 0.19817
 N1835 N 0.21294 -0.07543 0.68881
 C1836 C 0.19513 -0.08232 0.69531
 N1837 N 0.18660 -0.07370 0.71142
 N1838 N 0.19561 -0.05882 0.72076
 C1839 C 0.21347 -0.05206 0.71431
 N1840 N 0.22198 -0.06059 0.69818
 N1841 N 0.28729 0.31124 0.42522
 C1842 C 0.30474 0.30430 0.41780
 N1843 N 0.31311 0.28799 0.42615
 N1844 N 0.30426 0.27884 0.44127
 C1845 C 0.28677 0.28572 0.44859
 N1846 N 0.27843 0.30207 0.44033
 N1847 N 0.28811 0.81353 -0.07466
 C1848 C 0.30470 0.80547 -0.08288
 N1849 N 0.31188 0.78819 -0.07543
 N1850 N 0.30270 0.77920 -0.06041
 C1851 C 0.28608 0.78723 -0.05228
 N1852 N 0.27894 0.80455 -0.05963
 N1853 N 0.78523 0.31176 -0.07705
 C1854 C 0.80381 0.30613 -0.08263
 N1855 N 0.81289 0.29117 -0.07264
 N1856 N 0.80366 0.28207 -0.05771
 C1857 C 0.78505 0.28766 -0.05223
 N1858 N 0.77599 0.30265 -0.06214
 N1859 N 0.78753 0.81350 0.42586
 C1860 C 0.80406 0.80538 0.41759
 N1861 N 0.81122 0.78810 0.42506
 N1862 N 0.80207 0.77916 0.44012
 C1863 C 0.78549 0.78724 0.44829
 N1864 N 0.77838 0.80457 0.44094
 N1865 N 0.71196 0.31345 0.57396
 C1866 C 0.69551 0.30532 0.58232
 N1867 N 0.68845 0.28798 0.57498
 N1868 N 0.69763 0.27899 0.55994
 C1869 C 0.71412 0.28710 0.55167
 N1870 N 0.72113 0.30448 0.55891
 N1871 N 0.68855 0.78800 1.07509
 C1872 C 0.69568 0.80529 1.08249
 N1873 N 0.71215 0.81339 1.07413
 N1874 N 0.72126 0.80443 1.05903
 C1875 C 0.71418 0.78710 1.05174
 N1876 N 0.69767 0.77903 1.06001
 N1877 N 0.21183 0.31374 1.07372
 C1878 C 0.19532 0.30567 1.08202
 N1879 N 0.18815 0.28842 1.07457
 N1880 N 0.19730 0.27944 1.05951
 C1881 C 0.21388 0.28745 1.05133
 N1882 N 0.22097 0.30477 1.05864
 N1883 N 0.21246 0.81160 0.57498
 C1884 C 0.19494 0.80480 0.58230
 N1885 N 0.18654 0.78858 0.57387
 N1886 N 0.19542 0.77939 0.55878
 C1887 C 0.21299 0.78612 0.55157
 N1888 N 0.22137 0.80239 0.55991
 N1889 N 0.28784 0.68844 0.57497
 C1890 C 0.30513 0.69557 0.58249
 N1891 N 0.31319 0.71210 0.57431
 N1892 N 0.30422 0.72125 0.55927
 C1893 C 0.28689 0.71416 0.55186
 N1894 N 0.27885 0.69760 0.55994
 N1895 N 0.28832 0.18650 1.07382
 C1896 C 0.30459 0.19477 1.08237
 N1897 N 0.31125 0.21245 1.07547
 N1898 N 0.30190 0.22161 1.06064
 C1899 C 0.28563 0.21334 1.05214
 N1900 N 0.27899 0.19563 1.05896
 N1901 N 0.78819 0.68655 1.07408
 C1902 C 0.80455 0.69477 1.08251
 N1903 N 0.81149 0.71221 1.07528
 N1904 N 0.80229 0.72121 1.06027
 C1905 C 0.78590 0.71303 1.05193
 N1906 N 0.77901 0.69554 1.05905
 N1907 N 0.78800 0.18646 0.57379
 C1908 C 0.80434 0.19470 0.58224
 N1909 N 0.81128 0.21213 0.57498
 N1910 N 0.80210 0.22110 0.55994
 C1911 C 0.78572 0.21290 0.55159
 N1912 N 0.77884 0.19542 0.55873
 N1913 N 0.71201 0.68678 0.42613
 C1914 C 0.69561 0.69501 0.41772
 N1915 N 0.68856 0.71239 0.42504
 N1916 N 0.69768 0.72133 0.44010
 C1917 C 0.71412 0.71313 0.44842
 N1918 N 0.72112 0.69570 0.44121
 N1919 N 0.68859 0.21209 -0.07533
 C1920 C 0.69557 0.19460 -0.08244
 N1921 N 0.71192 0.18639 -0.07393
 N1922 N 0.72107 0.19545 -0.05895
 C1923 C 0.71415 0.21300 -0.05198
 N1924 N 0.69775 0.22117 -0.06039
 N1925 N 0.21244 0.68666 -0.07427
 C1926 C 0.19607 0.69489 -0.08273
 N1927 N 0.18909 0.71235 -0.07551
 N1928 N 0.19825 0.72135 -0.06051
 C1929 C 0.21466 0.71314 -0.05214
 N1930 N 0.22159 0.69564 -0.05924
 N1931 N 0.18670 0.21166 0.42609
 C1932 C 0.19513 0.19542 0.41764
 N1933 N 0.21261 0.18853 0.42498
 N1934 N 0.22147 0.19766 0.44009
 C1935 C 0.21307 0.21393 0.44845
 N1936 N 0.19553 0.22078 0.44122
 N1937 N 0.31444 0.42805 0.70861
 C1938 C 0.30519 0.41824 0.69366
 N1939 N 0.28661 0.42397 0.68825
 N1940 N 0.27750 0.43882 0.69759
 C1941 C 0.28672 0.44853 0.71260
 N1942 N 0.30536 0.44295 0.71791
 N1943 N 0.28891 0.92643 0.18749
 C1944 C 0.30588 0.91840 0.19491
 N1945 N 0.31352 0.92588 0.21197
 N1946 N 0.30445 0.94074 0.22134
 C1947 C 0.28745 0.94867 0.21395
 N1948 N 0.27983 0.94128 0.19686
 N1949 N 0.81369 0.42654 0.21104
 C1950 C 0.80522 0.41808 0.19486
 N1951 N 0.78750 0.42517 0.18828
 N1952 N 0.77847 0.44005 0.19766
 C1953 C 0.78691 0.44841 0.21389
 N1954 N 0.80469 0.44145 0.22041
 N1955 N 0.81348 0.92658 0.71176
 C1956 C 0.80498 0.91810 0.69560
 N1957 N 0.78724 0.92516 0.68906
 N1958 N 0.77823 0.94005 0.69845
 C1959 C 0.78671 0.94844 0.71464
 N1960 N 0.80449 0.94150 0.72113
 N1961 N 0.71229 0.57483 0.68860
 C1962 C 0.69457 0.58190 0.69524
 N1963 N 0.68616 0.57347 0.71149
 N1964 N 0.69520 0.55860 0.72085
 C1965 C 0.71295 0.55165 0.71428
 N1966 N 0.72135 0.55998 0.69799
 N1967 N 0.68653 0.07317 0.21149
 C1968 C 0.69519 0.08193 0.19554
 N1969 N 0.71309 0.07510 0.18916
 N1970 N 0.72211 0.06020 0.19850
 C1971 C 0.71348 0.05154 0.21449
 N1972 N 0.69553 0.05823 0.22081
 N1973 N 0.18635 0.57369 0.21141
 C1974 C 0.19496 0.58219 0.19529
 N1975 N 0.21272 0.57509 0.18881
 N1976 N 0.22164 0.56016 0.19821
 C1977 C 0.21306 0.55175 0.21436
 N1978 N 0.19525 0.55874 0.22079
 N1979 N 0.18636 0.07212 0.70987
 C1980 C 0.19586 0.08205 0.69514
 N1981 N 0.21451 0.07632 0.68991
 N1982 N 0.22341 0.06134 0.69923
 C1983 C 0.21395 0.05149 0.71402
 N1984 N 0.19524 0.05709 0.71915
 N1985 N 0.31376 0.57330 0.28902
 C1986 C 0.30527 0.58191 0.30515
 N1987 N 0.28750 0.57498 0.31174
 N1988 N 0.27847 0.56011 0.30242
 C1989 C 0.28693 0.55160 0.28625
 N1990 N 0.30475 0.55840 0.27972
 N1991 N 0.28845 0.07404 0.81193
 C1992 C 0.30597 0.08137 0.80513
 N1993 N 0.31428 0.07321 0.78868
 N1994 N 0.30533 0.05833 0.77929
 C1995 C 0.28777 0.05111 0.78603
 N1996 N 0.27948 0.05919 0.80252
 N1997 N 0.81386 0.57347 0.78818
 C1998 C 0.80550 0.58179 0.80452
 N1999 N 0.78793 0.57456 0.81130
 N2000 N 0.77896 0.55967 0.80197
 C2001 C 0.78730 0.55143 0.78560
 N2002 N 0.80491 0.55855 0.77886
 N2003 N 0.81422 0.07325 0.28852
 C2004 C 0.80601 0.08137 0.30504
 N2005 N 0.78855 0.07399 0.31194
 N2006 N 0.77954 0.05915 0.30256
 C2007 C 0.78772 0.05112 0.28601
 N2008 N 0.80522 0.05838 0.27915
 N2009 N 0.71199 0.42547 0.31133
 C2010 C 0.69439 0.41828 0.30465
 N2011 N 0.68601 0.42660 0.28832
 N2012 N 0.69499 0.44148 0.27892
 C2013 C 0.71265 0.44854 0.28555
 N2014 N 0.72099 0.44031 0.30191
 N2015 N 0.71164 0.92565 0.81195
 C2016 C 0.69401 0.91851 0.80528
 N2017 N 0.68565 0.92682 0.78894
 N2018 N 0.69467 0.94166 0.77952
 C2019 C 0.71235 0.94869 0.78614
 N2020 N 0.72068 0.94046 0.80252
 N2021 N 0.21192 0.42500 0.81065
 C2022 C 0.19431 0.41782 0.80397
 N2023 N 0.18608 0.42597 0.78748
 N2024 N 0.19518 0.44069 0.77796
 C2025 C 0.21282 0.44778 0.78462
 N2026 N 0.22104 0.43970 0.80113
 N2027 N 0.21382 0.92302 0.30999
 C2028 C 0.19519 0.91736 0.30474
 N2029 N 0.18574 0.92735 0.29000
 N2030 N 0.19467 0.94234 0.28073
 C2031 C 0.21338 0.94783 0.28586
 N2032 N 0.22278 0.93795 0.30068
 N2033 N 0.42682 0.28944 0.68715
 C2034 C 0.41738 0.30507 0.69567
 N2035 N 0.42365 0.31155 0.71366
 N2036 N 0.43867 0.30260 0.72292
 C2037 C 0.44801 0.28690 0.71445
 N2038 N 0.44186 0.28048 0.69640
 N2039 N 0.42545 0.78834 0.18753
 C2040 C 0.41794 0.80560 0.19470
 N2041 N 0.42593 0.81343 0.21144
 N2042 N 0.44081 0.80426 0.22074
 C2043 C 0.44821 0.78696 0.21362
 N2044 N 0.44031 0.77915 0.19685
 N2045 N 0.92657 0.31388 0.21076
 C2046 C 0.91767 0.30518 0.19494
 N2047 N 0.92437 0.28725 0.18870
 N2048 N 0.93931 0.27825 0.19806
 C2049 C 0.94813 0.28693 0.21392
 N2050 N 0.94155 0.30491 0.22009
 N2051 N 0.92422 0.78736 0.68917
 C2052 C 0.91750 0.80527 0.69546
 N2053 N 0.92642 0.81395 0.71128
 N2054 N 0.94143 0.80498 0.72057
 C2055 C 0.94803 0.78703 0.71434
 N2056 N 0.93919 0.77837 0.69848
 N2057 N 0.57366 0.31386 0.28861
 C2058 C 0.58249 0.30527 0.30456
 N2059 N 0.57579 0.28741 0.31091
 N2060 N 0.56091 0.27836 0.30155
 C2061 C 0.55216 0.28692 0.28557
 N2062 N 0.55874 0.30485 0.27927
 N2063 N 0.57324 0.81419 0.78929
 C2064 C 0.58189 0.80575 0.80541
 N2065 N 0.57508 0.78797 0.81191
 N2066 N 0.56027 0.77887 0.80252
 C2067 C 0.55171 0.78728 0.78636
 N2068 N 0.55839 0.80512 0.77992
 N2069 N 0.07536 0.28753 0.81143
 C2070 C 0.08191 0.30542 0.80497
 N2071 N 0.07302 0.31382 0.78896
 N2072 N 0.05820 0.30460 0.77967
 C2073 C 0.05177 0.28666 0.78608
 N2074 N 0.06058 0.27828 0.80213
 N2075 N 0.07587 0.81207 0.28636
 C2076 C 0.08268 0.80499 0.30396
 N2077 N 0.07371 0.78891 0.31208
 N2078 N 0.05861 0.78010 0.30285
 C2079 C 0.05190 0.78714 0.28521
 N2080 N 0.06078 0.80326 0.27712
 N2081 N 0.57321 0.68651 0.71136
 C2082 C 0.58204 0.69513 0.69545
 N2083 N 0.57537 0.71308 0.68921
 N2084 N 0.56052 0.72215 0.69866
 C2085 C 0.55178 0.71352 0.71462
 N2086 N 0.55833 0.69554 0.72079
 N2087 N 0.57338 0.18592 0.21109
 C2088 C 0.58233 0.19458 0.19526
 N2089 N 0.57559 0.21247 0.18892
 N2090 N 0.56060 0.22147 0.19822
 C2091 C 0.55175 0.21284 0.21411
 N2092 N 0.55835 0.19490 0.22037
 N2093 N 0.07337 0.68640 0.21042
 C2094 C 0.08244 0.69510 0.19468
 N2095 N 0.07585 0.71306 0.18840
 N2096 N 0.06086 0.72210 0.19766
 C2097 C 0.05187 0.71342 0.21345
 N2098 N 0.05834 0.69541 0.21966
 N2099 N 0.07572 0.18687 0.71348
 C2100 C 0.08214 0.19364 0.69563
 N2101 N 0.07315 0.20976 0.68756
 N2102 N 0.05836 0.21887 0.69707
 C2103 C 0.05202 0.21214 0.71496
 N2104 N 0.06095 0.19599 0.72301
 N2105 N 0.42503 0.71187 0.31095
 C2106 C 0.41778 0.69439 0.30415
 N2107 N 0.42602 0.68621 0.28767
 N2108 N 0.44089 0.69524 0.27826
 C2109 C 0.44803 0.71276 0.28502
 N2110 N 0.43987 0.72092 0.30153
 N2111 N 0.42669 0.18586 0.78911
 C2112 C 0.41785 0.19442 0.80508
 N2113 N 0.42451 0.21231 0.81140
 N2114 N 0.43935 0.22139 0.80200
 C2115 C 0.44811 0.21285 0.78600
 N2116 N 0.44157 0.19491 0.77973
 N2117 N 0.92435 0.71248 0.81090
 C2118 C 0.91755 0.69470 0.80442
 N2119 N 0.92642 0.68612 0.78849
 N2120 N 0.94146 0.69507 0.77927
 C2121 C 0.94814 0.71290 0.78569
 N2122 N 0.93935 0.72145 0.80166
 N2123 N 0.92650 0.18607 0.28868
 C2124 C 0.91768 0.19464 0.30465
 N2125 N 0.92438 0.21250 0.31100
 N2126 N 0.93924 0.22156 0.30161
 C2127 C 0.94797 0.21302 0.28559
 N2128 N 0.94139 0.19511 0.27930
 N2129 N 0.31453 0.29070 0.57200
 C2130 C 0.30455 0.30433 0.58300
 N2131 N 0.28544 0.30871 0.57819
 N2132 N 0.27652 0.29959 0.56312
 C2133 C 0.28645 0.28584 0.55225
 N2134 N 0.30563 0.28161 0.55688
 N2135 N 0.31183 0.78826 0.07458
 C2136 C 0.30477 0.80565 0.08187
 N2137 N 0.28834 0.81382 0.07349
 N2138 N 0.27919 0.80484 0.05846
 C2139 C 0.28620 0.78740 0.05128
 N2140 N 0.30268 0.77926 0.05957
 N2141 N 0.78813 0.31343 0.07335
 C2142 C 0.80443 0.30514 0.08188
 N2143 N 0.81135 0.28763 0.07475
 N2144 N 0.80217 0.27862 0.05977
 C2145 C 0.78582 0.28688 0.05134
 N2146 N 0.77897 0.30444 0.05835
 N2147 N 0.78799 0.81378 0.57388
 C2148 C 0.80432 0.80549 0.58236
 N2149 N 0.81121 0.78798 0.57520
 N2150 N 0.80199 0.77897 0.56024
 C2151 C 0.78562 0.78723 0.55186
 N2152 N 0.77879 0.80480 0.55889
 N2153 N 0.31335 0.71170 0.42571
 C2154 C 0.30518 0.69522 0.41757
 N2155 N 0.28790 0.68814 0.42518
 N2156 N 0.27899 0.69733 0.44026
 C2157 C 0.28712 0.71386 0.44830
 N2158 N 0.30445 0.72088 0.44080
 N2159 N 0.28793 0.18626 0.92611
 C2160 C 0.30445 0.19432 0.91783
 N2161 N 0.31160 0.21157 0.92529
 N2162 N 0.30244 0.22055 0.94034
 C2163 C 0.28586 0.21252 0.94852
 N2164 N 0.27877 0.19522 0.94118
 N2165 N 0.81150 0.71193 0.92493
 C2166 C 0.80458 0.69446 0.91777
 N2167 N 0.78826 0.68622 0.92629
 N2168 N 0.77909 0.69522 0.94133
 C2169 C 0.78595 0.71274 0.94837
 N2170 N 0.80231 0.72094 0.93995
 N2171 N 0.81108 0.21223 0.42446
 C2172 C 0.80424 0.19471 0.41734
 N2173 N 0.78800 0.18639 0.42593
 N2174 N 0.77883 0.19535 0.44099
 C2175 C 0.78561 0.21292 0.44799
 N2176 N 0.80189 0.22121 0.43949
 N2177 N 0.68854 0.28793 0.42470
 C2178 C 0.69559 0.30529 0.41739
 N2179 N 0.71196 0.31348 0.42581
 N2180 N 0.72107 0.30453 0.44090
 C2181 C 0.71407 0.28712 0.44811
 N2182 N 0.69765 0.27897 0.43978
 N2183 N 0.68865 0.78770 0.92482
 C2184 C 0.69576 0.80501 0.91742
 N2185 N 0.71221 0.81313 0.92575
 N2186 N 0.72133 0.80418 0.94085
 C2187 C 0.71427 0.78684 0.94815
 N2188 N 0.69778 0.77874 0.93990
 N2189 N 0.18864 0.28775 0.92442
 C2190 C 0.19540 0.30537 0.91746
 N2191 N 0.21172 0.31356 0.92598
 N2192 N 0.22100 0.30442 0.94086
 C2193 C 0.21426 0.28677 0.94773
 N2194 N 0.19793 0.27857 0.93926
 N2195 N 0.18546 0.79065 0.42792
 C2196 C 0.19517 0.80471 0.41726
 N2197 N 0.21412 0.80941 0.42231
 N2198 N 0.22313 0.80022 0.43731
 C2199 C 0.21347 0.78607 0.44786
 N2200 N 0.19445 0.78148 0.44296
 N2201 N 0.71199 0.68685 0.57438
 C2202 C 0.69563 0.69512 0.58285
 N2203 N 0.68860 0.71250 0.57551
 N2204 N 0.69772 0.72141 0.56040
 C2205 C 0.71413 0.71318 0.55204
 N2206 N 0.72110 0.69574 0.55925
 N2207 N 0.68879 0.21201 0.07497
 C2208 C 0.69582 0.19459 0.08225
 N2209 N 0.71221 0.18637 0.07381
 N2210 N 0.72137 0.19533 0.05875
 C2211 C 0.71440 0.21280 0.05160
 N2212 N 0.69796 0.22098 0.05994
 N2213 N 0.18930 0.71268 0.07503
 C2214 C 0.19613 0.69511 0.08209
 N2215 N 0.21235 0.68674 0.07346
 N2216 N 0.22151 0.69571 0.05841
 C2217 C 0.21473 0.71334 0.05147
 N2218 N 0.19847 0.72168 0.06001
 N2219 N 0.21413 0.18970 0.57744
 C2220 C 0.19500 0.19402 0.58225
 N2221 N 0.18515 0.20798 0.57155
 N2222 N 0.19416 0.21739 0.55668
 C2223 C 0.21336 0.21320 0.55204
 N2224 N 0.22317 0.19915 0.56263
   
