data_POSCAR
  _audit_creation_date              2014-09-24
  _audit_creation_method            'ToBaCCo'
  _symmetry_space_group_name_H-M    'P1'
  _symmetry_Int_Tables_number       1
  _symmetry_cell_setting            triclinic
  loop_
  _symmetry_equiv_pos_as_xyz
 x,y,z
_cell_length_a 48.5090
_cell_length_b 47.7398
_cell_length_c 47.4330
_cell_angle_alpha 90.006100
_cell_angle_beta 89.605100
_cell_angle_gamma 88.018400
loop_
  _atom_site_label
  _atom_site_type_symbol
  _atom_site_fract_x
  _atom_site_fract_y
  _atom_site_fract_z
C1 C 0.74416 0.61395 1.00240
 C2 C 0.74709 0.37673 0.50346
 C3 C 0.25202 -0.14310 0.00662
 C4 C 0.25107 0.12448 0.49846
 C5 C 0.11806 0.51309 0.25626
 C6 C -0.11674 0.01243 0.24627
 C7 C 0.36234 0.49424 0.75117
 C8 C 0.61909 0.99837 0.75515
 C9 C 0.01180 0.23461 -0.12269
 C10 C 0.50475 0.25804 0.12128
 C11 C 0.99536 0.74564 0.63073
 C12 C 0.50318 0.76411 0.39232
 C13 C 0.41459 -0.02363 0.28232
 H14 H 0.40616 -0.00697 0.29556
 C15 C 0.43061 -0.04522 0.29436
 H16 H 0.43380 -0.04512 0.31692
 C17 C 0.41942 -0.04453 0.23720
 H18 H 0.41476 -0.04446 0.21501
 C19 C 0.43570 -0.06651 0.24836
 H20 H 0.44365 -0.08289 0.23444
 N21 N 0.40873 -0.02396 0.25434
 C22 C 0.38714 0.04945 0.20500
 H23 H 0.36679 0.04358 0.19856
 C24 C 0.39850 0.07349 0.19387
 H25 H 0.38686 0.08593 0.17869
 C26 C 0.42639 0.04108 0.23372
 H27 H 0.43685 0.02850 0.24960
 C28 C 0.43843 0.06523 0.22335
 H29 H 0.45848 0.07092 0.23093
 Zn30 Zn 0.38290 0.00348 0.24068
 N31 N 0.40118 0.03376 0.22442
 C32 C 0.36231 0.04504 0.27789
 N33 N 0.36153 0.01730 0.27159
 C34 C 0.34771 -0.00067 0.28837
 C35 C 0.33405 0.00913 0.31268
 C36 C 0.34917 0.05566 0.30200
 C37 C 0.37241 -0.01737 0.18712
 C38 C 0.35739 -0.02877 0.16526
 C39 C 0.31754 -0.02910 0.19604
 C40 C 0.33335 -0.01754 0.21737
 N41 N 0.36040 -0.01231 0.21269
 H42 H 0.37375 0.05897 0.26463
 H43 H 0.34783 -0.02275 0.28320
 H44 H 0.32306 -0.00546 0.32569
 H45 H 0.35090 0.07766 0.30697
 H46 H 0.39372 -0.01233 0.18364
 H47 H 0.36758 -0.03315 0.14528
 H48 H 0.29605 -0.03319 0.20009
 H49 H 0.32394 -0.01278 0.23758
 C50 C 0.42438 0.08173 0.20317
 C51 C 0.44098 -0.06739 0.27743
 C52 C 0.32960 -0.03492 0.16959
 C53 C 0.33485 0.03766 0.31987
 C54 C 0.10832 1.01131 0.78530
 H55 H 0.10913 0.99212 0.79740
 C56 C 0.09404 1.03492 0.79610
 H57 H 0.08380 1.03348 0.81637
 C58 C 0.12279 1.03717 0.74560
 H59 H 0.13451 1.03837 0.72627
 C60 C 0.10863 1.06116 0.75548
 H61 H 0.10916 1.08022 0.74316
 N62 N 0.12261 1.01286 0.76059
 C63 C 0.13471 0.93327 0.71817
 H64 H 0.15432 0.93772 0.70849
 C65 C 0.12035 0.91024 0.70905
 H66 H 0.12891 0.89717 0.69226
 C67 C 0.09973 0.94479 0.75174
 H68 H 0.09158 0.95841 0.76814
 C69 C 0.08485 0.92157 0.74356
 H70 H 0.06526 0.91760 0.75362
 Zn71 Zn 0.14522 0.98178 0.74805
 N72 N 0.12410 0.95033 0.73882
 C73 C 0.18532 0.94657 0.77315
 N74 N 0.17056 0.97107 0.77651
 C75 C 0.17245 0.98650 0.80048
 C76 C 0.18797 0.97631 0.82315
 C77 C 0.20131 0.93570 0.79520
 C78 C 0.14912 0.99600 0.69137
 C79 C 0.16143 1.00528 0.66664
 C80 C 0.20502 1.00603 0.69102
 C81 C 0.19183 0.99665 0.71536
 N82 N 0.16429 0.99229 0.71516
 H83 H 0.18384 0.93491 0.75371
 H84 H 0.16116 1.00630 0.80250
 H85 H 0.18773 0.98812 0.84264
 H86 H 0.21228 0.91576 0.79238
 H87 H 0.12723 0.99240 0.69191
 H88 H 0.14874 1.00914 0.64826
 H89 H 0.22688 1.00985 0.69157
 H90 H 0.20343 0.99349 0.73455
 C91 C 0.09502 0.90431 0.72165
 C92 C 0.09439 1.06041 0.78131
 C93 C 0.18965 1.01082 0.66636
 C94 C 0.20195 0.95012 0.82101
 C95 C 0.56507 0.53378 0.28664
 H96 H 0.55860 0.51327 0.29307
 C97 C 0.55166 0.55790 0.29756
 H98 H 0.53486 0.55580 0.31247
 C99 C 0.59642 0.56147 0.26129
 H100 H 0.61452 0.56281 0.24803
 C101 C 0.58355 0.58597 0.27145
 H102 H 0.59151 0.60598 0.26523
 N103 N 0.58729 0.53604 0.26923
 C104 C 0.56984 0.47334 0.23017
 H105 H 0.56664 0.49229 0.21818
 C106 C 0.55696 0.44913 0.22164
 H107 H 0.54472 0.44986 0.20265
 C108 C 0.59033 0.44923 0.26867
 H109 H 0.60319 0.44927 0.28712
 C110 C 0.57767 0.42452 0.26100
 H111 H 0.58106 0.40588 0.27367
 Zn112 Zn 0.60947 0.50421 0.25923
 N113 N 0.58722 0.47272 0.25254
 C114 C 0.65167 0.47338 0.28795
 N115 N 0.63399 0.49607 0.28951
 C116 C 0.63221 0.51211 0.31322
 C117 C 0.64765 0.50482 0.33701
 C118 C 0.66740 0.46525 0.31130
 C119 C 0.61420 0.52372 0.20392
 C120 C 0.62695 0.53183 0.17900
 C121 C 0.67095 0.51768 0.19883
 C122 C 0.65725 0.50966 0.22349
 N123 N 0.62929 0.51278 0.22560
 H124 H 0.65262 0.46083 0.26895
 H125 H 0.61828 0.53023 0.31406
 H126 H 0.64559 0.51764 0.35578
 H127 H 0.68028 0.44631 0.31000
 H128 H 0.59225 0.52739 0.20634
 H129 H 0.61436 0.54050 0.16215
 H130 H 0.69324 0.51575 0.19778
 H131 H 0.66909 0.50158 0.24106
 C132 C 0.56148 0.42400 0.23660
 C133 C 0.56142 0.58441 0.29053
 C134 C 0.65573 0.52924 0.17629
 C135 C 0.66510 0.48075 0.33647
 C136 C 0.92636 0.45830 0.78442
 H137 H 0.92713 0.47699 0.79714
 C138 C 0.94150 0.43424 0.79248
 H139 H 0.95365 0.43463 0.81153
 C140 C 0.90867 0.43457 0.74498
 H141 H 0.89596 0.43470 0.72639
 C142 C 0.92325 0.40999 0.75241
 H143 H 0.92150 0.39141 0.73954
 N144 N 0.90965 0.45782 0.76152
 C145 C 0.88851 0.54515 0.74259
 H146 H 0.86680 0.54511 0.74798
 C147 C 0.90031 0.56989 0.73385
 H148 H 0.88740 0.58877 0.73222
 C149 C 0.93125 0.52006 0.73716
 H150 H 0.94306 0.50047 0.73840
 C151 C 0.94395 0.54443 0.72824
 H152 H 0.96569 0.54348 0.72285
 Zn153 Zn 0.88487 0.48877 0.75469
 N154 N 0.90392 0.52087 0.74378
 C155 C 0.88040 0.51352 0.80735
 N156 N 0.86594 0.49814 0.78878
 C157 C 0.83947 0.49119 0.79443
 C158 C 0.82669 0.49971 0.81973
 C159 C 0.86835 0.52275 0.83257
 C160 C 0.86149 0.49380 0.70047
 C161 C 0.84680 0.48511 0.67702
 C162 C 0.82935 0.44719 0.70487
 C163 C 0.84432 0.45666 0.72785
 N164 N 0.86038 0.47934 0.72517
 H165 H 0.90121 0.51927 0.80224
 H166 H 0.82805 0.47945 0.77930
 H167 H 0.80547 0.49451 0.82382
 H168 H 0.88008 0.53532 0.84688
 H169 H 0.87477 0.51137 0.69838
 H170 H 0.84895 0.49623 0.65728
 H171 H 0.81720 0.42872 0.70723
 H172 H 0.84427 0.44499 0.74739
 C173 C 0.92834 0.56974 0.72629
 C174 C 0.93936 0.40945 0.77685
 C175 C 0.83095 0.46116 0.67886
 C176 C 0.84114 0.51599 0.83893
 C177 C 0.27093 0.40860 -0.02437
 H178 H 0.28166 0.41091 -0.00464
 C179 C 0.27997 0.42261 -0.04842
 H180 H 0.29779 0.43553 -0.04683
 C181 C 0.23607 0.38710 -0.05058
 H182 H 0.21946 0.37265 -0.05157
 C183 C 0.24424 0.40092 -0.07508
 H184 H 0.23321 0.39743 -0.09445
 N185 N 0.24959 0.39095 -0.02592
 C186 C 0.22390 0.37672 0.06143
 H187 H 0.22789 0.35430 0.06238
 C188 C 0.21403 0.39107 0.08526
 H189 H 0.21033 0.37964 0.10457
 C190 C 0.22354 0.41884 0.03491
 H191 H 0.22719 0.42946 0.01518
 C192 C 0.21295 0.43394 0.05812
 H193 H 0.20857 0.45626 0.05623
 Zn194 Zn 0.24228 0.36872 0.00629
 N195 N 0.22889 0.39075 0.03706
 C196 C 0.28852 0.35814 0.04059
 N197 N 0.27623 0.35045 0.01624
 C198 C 0.28911 0.33211 -0.00195
 C199 C 0.31514 0.32026 0.00447
 C200 C 0.31450 0.34712 0.04763
 C201 C 0.18894 0.35463 -0.00622
 C202 C 0.16704 0.33785 -0.01320
 C203 C 0.19795 0.29718 -0.01038
 C204 C 0.21927 0.31478 -0.00313
 N205 N 0.21454 0.34302 -0.00188
 H206 H 0.27866 0.37355 0.05429
 H207 H 0.27938 0.32706 -0.02168
 H208 H 0.32529 0.30587 -0.01024
 H209 H 0.32390 0.35359 0.06712
 H210 H 0.18569 0.37712 -0.00478
 H211 H 0.14705 0.34765 -0.01752
 H212 H 0.20210 0.27479 -0.01190
 H213 H 0.23956 0.30584 0.00114
 C214 C 0.20836 0.41999 0.08370
 C215 C 0.26686 0.41856 -0.07441
 C216 C 0.17150 0.30876 -0.01577
 C217 C 0.32821 0.32808 0.02941
 C218 C 0.78248 0.08774 1.02416
 H219 H 0.79295 0.08313 1.00440
 C220 C 0.79052 0.07345 1.04862
 H221 H 0.80747 0.05812 1.04755
 C222 C 0.74869 0.11445 1.04976
 H223 H 0.73261 0.13067 1.05024
 C224 C 0.75606 0.10070 1.07468
 H225 H 0.74538 0.10637 1.09408
 N226 N 0.76230 0.10825 1.02525
 C227 C 0.74021 0.11736 0.93639
 H228 H 0.74282 0.13944 0.93310
 C229 C 0.73094 0.10104 0.91423
 H230 H 0.72660 0.11089 0.89410
 C231 C 0.74061 0.07818 0.96702
 H232 H 0.74352 0.06948 0.98784
 C233 C 0.73114 0.06111 0.94546
 H234 H 0.72749 0.03927 0.94977
 Zn235 Zn 0.75377 0.12986 0.99257
 N236 N 0.74483 0.10583 0.96222
 C237 C 0.78080 0.17266 0.96289
 N238 N 0.78421 0.15228 0.98275
 C239 C 0.80912 0.14746 0.99521
 C240 C 0.83214 0.16204 0.98650
 C241 C 0.80328 0.18776 0.95354
 C242 C 0.69751 0.14062 0.99827
 C243 C 0.67341 0.15487 1.00696
 C244 C 0.70048 0.19456 1.01937
 C245 C 0.72419 0.17949 1.01034
 N246 N 0.72226 0.15288 1.00046
 H247 H 0.76063 0.17719 0.95417
 H248 H 0.81151 0.13183 1.01148
 H249 H 0.85198 0.15684 0.99579
 H250 H 0.80022 0.20351 0.93734
 H251 H 0.69659 0.11934 0.99062
 H252 H 0.65395 0.14451 1.00554
 H253 H 0.70240 0.21525 1.02834
 H254 H 0.74420 0.18858 1.01230
 C255 C 0.72595 0.07260 0.91871
 C256 C 0.77766 0.08034 1.07444
 C257 C 0.67477 0.18192 1.01837
 C258 C 0.82954 0.18205 0.96491
 C259 C 0.28156 0.59614 0.53019
 H260 H 0.29468 0.59553 0.51172
 C261 C 0.28881 0.57983 0.55363
 H262 H 0.30766 0.56702 0.55300
 C263 C 0.24164 0.61415 0.55387
 H264 H 0.22312 0.62732 0.55393
 C265 C 0.24825 0.59840 0.57785
 H266 H 0.23479 0.59976 0.59614
 N267 N 0.25870 0.61346 0.53093
 C268 C 0.24302 0.63450 0.44278
 H269 H 0.24789 0.65644 0.44332
 C270 C 0.23395 0.62261 0.41781
 H271 H 0.23212 0.63545 0.39904
 C272 C 0.23844 0.59145 0.46700
 H273 H 0.23956 0.57967 0.48645
 C274 C 0.22948 0.57860 0.44232
 H275 H 0.22368 0.55691 0.44295
 Zn276 Zn 0.25204 0.63879 0.50044
 N277 N 0.24434 0.61910 0.46688
 C278 C 0.30521 0.64527 0.47980
 N279 N 0.28439 0.65923 0.49380
 C280 C 0.28697 0.68630 0.50210
 C281 C 0.31148 0.70010 0.49688
 C282 C 0.32990 0.65828 0.47399
 C283 C 0.19791 0.66098 0.49315
 C284 C 0.17328 0.67481 0.50102
 C285 C 0.19622 0.69334 0.54160
 C286 C 0.22055 0.67917 0.53289
 N287 N 0.22084 0.66283 0.50934
 H288 H 0.30246 0.62407 0.47264
 H289 H 0.27016 0.69731 0.51278
 H290 H 0.31326 0.72150 0.50403
 H291 H 0.34583 0.64685 0.46221
 H292 H 0.19815 0.64769 0.47476
 H293 H 0.15513 0.67235 0.48821
 H294 H 0.19600 0.70494 0.56122
 H295 H 0.23872 0.67982 0.54592
 C296 C 0.22643 0.59450 0.41754
 C297 C 0.27240 0.58139 0.57812
 C298 C 0.17197 0.69055 0.52598
 C299 C 0.33341 0.68605 0.48265
 C300 C 0.77435 0.93955 0.46972
 H301 H 0.77140 0.95116 0.48914
 C302 C 0.78465 0.95289 0.44581
 H303 H 0.78980 0.97474 0.44704
 C304 C 0.77204 0.89673 0.44466
 H305 H 0.76702 0.87482 0.44447
 C306 C 0.78240 0.90915 0.42039
 H307 H 0.78521 0.89668 0.40145
 N308 N 0.76860 0.91188 0.46876
 C309 C 0.72346 0.93705 0.52507
 H310 H 0.71412 0.93830 0.50452
 C311 C 0.71205 0.95301 0.54714
 H312 H 0.69404 0.96643 0.54322
 C313 C 0.75803 0.91805 0.55515
 H314 H 0.77597 0.90445 0.55830
 C315 C 0.74716 0.93348 0.57791
 H316 H 0.75651 0.93085 0.59844
 Zn317 Zn 0.75536 0.89290 0.50076
 N318 N 0.74529 0.91904 0.52968
 C319 C 0.77881 0.85246 0.53827
 N320 N 0.78318 0.86696 0.51401
 C321 C 0.80774 0.86445 0.49998
 C322 C 0.82922 0.84737 0.51058
 C323 C 0.79995 0.83567 0.54995
 C324 C 0.70533 0.88895 0.47298
 C325 C 0.68085 0.87733 0.46428
 C326 C 0.69358 0.83509 0.48974
 C327 C 0.71791 0.84760 0.49803
 N328 N 0.72319 0.87421 0.48978
 H329 H 0.75923 0.85489 0.54922
 H330 H 0.81110 0.87628 0.48095
 H331 H 0.84888 0.84619 0.49960
 H332 H 0.79653 0.82506 0.56978
 H333 H 0.71021 0.90977 0.46603
 H334 H 0.66683 0.88970 0.45124
 H335 H 0.68985 0.81380 0.49621
 H336 H 0.73249 0.83595 0.51096
 C337 C 0.72318 0.95040 0.57430
 C338 C 0.78913 0.93750 0.42086
 C339 C 0.67468 0.85003 0.47260
 C340 C 0.82559 0.83327 0.53616
 C341 C -0.03012 0.28446 0.42139
 H342 H -0.01133 0.29517 0.42577
 C343 C -0.05418 0.29139 0.43667
 H344 H -0.05374 0.30745 0.45277
 C345 C -0.05413 0.25209 0.39372
 H346 H -0.05434 0.23726 0.37654
 C347 C -0.07861 0.25853 0.40827
 H348 H -0.09729 0.24831 0.40232
 N349 N -0.03055 0.26531 0.40013
 C350 C 0.05482 0.23808 0.38250
 H351 H 0.05386 0.23767 0.35982
 C352 C 0.07841 0.22742 0.39574
 H353 H 0.09571 0.21996 0.38293
 C354 C 0.03290 0.24660 0.42657
 H355 H 0.01483 0.25322 0.43854
 C356 C 0.05620 0.23592 0.44078
 H357 H 0.05582 0.23456 0.46356
 Zn358 Zn 0.00096 0.25823 0.37654
 N359 N 0.03262 0.24747 0.39786
 C360 C 0.02873 0.28983 0.33482
 N361 N 0.00830 0.29087 0.35467
 C362 C -0.00617 0.31526 0.36001
 C363 C 0.00086 0.34007 0.34655
 C364 C 0.03640 0.31413 0.32083
 C365 C -0.00739 0.20223 0.36645
 C366 C -0.01373 0.17818 0.35152
 C367 C -0.01664 0.20602 0.30903
 C368 C -0.01030 0.22965 0.32485
 N369 N -0.00615 0.22734 0.35309
 H370 H 0.03942 0.27025 0.32996
 H371 H -0.02283 0.31578 0.37520
 H372 H -0.01053 0.35934 0.35160
 H373 H 0.05350 0.31294 0.30603
 H374 H -0.00408 0.20107 0.38895
 H375 H -0.01567 0.15868 0.36288
 H376 H -0.02015 0.20824 0.28661
 H377 H -0.00928 0.24986 0.31470
 C378 C 0.07917 0.22574 0.42524
 C379 C -0.07895 0.27877 0.42969
 C380 C -0.01877 0.17989 0.32245
 C381 C 0.02286 0.33984 0.32715
 C382 C 1.02099 0.77148 0.06579
 H383 H 1.00166 0.77940 0.05719
 C384 C 1.04589 0.77852 0.05301
 H385 H 1.04519 0.79091 0.03393
 C386 C 1.04510 0.74641 0.10151
 H387 H 1.04484 0.73476 0.12101
 C388 C 1.07035 0.75363 0.08997
 H389 H 1.08893 0.74736 0.10111
 N390 N 1.02104 0.75558 0.08956
 C391 C 0.93649 0.72985 0.10394
 H392 H 0.93689 0.73227 0.12661
 C393 C 0.91301 0.72013 0.09103
 H394 H 0.89565 0.71463 0.10412
 C395 C 0.95936 0.73311 0.05984
 H396 H 0.97761 0.73781 0.04783
 C397 C 0.93606 0.72354 0.04593
 H398 H 0.93652 0.72145 0.02321
 Zn399 Zn 0.98824 0.74983 0.11033
 N400 N 0.95892 0.73651 0.08834
 C401 C 0.95267 0.79699 0.11945
 N402 N 0.97726 0.78467 0.12686
 C403 C 0.99465 0.79767 0.14461
 C404 C 0.98696 0.82357 0.15664
 C405 C 0.94425 0.82283 0.13084
 C406 C 1.00154 0.69593 0.12693
 C407 C 1.00954 0.67381 0.14452
 C408 C 1.00536 0.70524 0.18438
 C409 C 0.99706 0.72680 0.16597
 N410 N 0.99594 0.72188 0.13774
 H411 H 0.93958 0.78698 0.10445
 H412 H 1.01443 0.78780 0.14958
 H413 H 1.00071 0.83320 0.17137
 H414 H 0.92462 0.83224 0.12453
 H415 H 1.00050 0.69266 0.10440
 H416 H 1.01482 0.65355 0.13531
 H417 H 1.00683 0.70950 0.20673
 H418 H 0.99217 0.74749 0.17419
 C419 C 0.91234 0.71717 0.06159
 C420 C 1.07117 0.77020 0.06550
 C421 C 1.01198 0.67840 0.17359
 C422 C 0.96128 0.83633 0.15002
 C423 C 0.52250 0.28367 0.57506
 H424 H 0.50211 0.29336 0.57307
 C425 C 0.54455 0.29407 0.55961
 H426 H 0.54060 0.31133 0.54525
 C427 C 0.55211 0.24952 0.59641
 H428 H 0.55510 0.23246 0.61117
 C429 C 0.57481 0.25962 0.58186
 H430 H 0.59500 0.25028 0.58607
 N431 N 0.52661 0.26172 0.59297
 C432 C 0.44782 0.22324 0.60823
 H433 H 0.45044 0.21955 0.63057
 C434 C 0.42403 0.21479 0.59493
 H435 H 0.40869 0.20407 0.60716
 C436 C 0.46502 0.24136 0.56532
 H437 H 0.48106 0.25169 0.55387
 C438 C 0.44135 0.23328 0.55110
 H439 H 0.43930 0.23776 0.52883
 Zn440 Zn 0.49708 0.24939 0.61562
 N441 N 0.46745 0.23683 0.59355
 C442 C 0.45667 0.28713 0.63818
 N443 N 0.48398 0.27970 0.63878
 C444 C 0.50174 0.29393 0.65515
 C445 C 0.49196 0.31596 0.67246
 C446 C 0.44606 0.30874 0.65519
 C447 C 0.51172 0.19322 0.62474
 C448 C 0.52056 0.16934 0.63956
 C449 C 0.52551 0.19805 0.68105
 C450 C 0.51594 0.22131 0.66561
 N451 N 0.50955 0.21854 0.63788
 H452 H 0.44289 0.27643 0.62444
 H453 H 0.52349 0.28810 0.65483
 H454 H 0.50625 0.32685 0.68564
 H455 H 0.42425 0.31429 0.65421
 H456 H 0.50654 0.19160 0.60267
 H457 H 0.52233 0.14934 0.62880
 H458 H 0.53091 0.20052 0.70301
 H459 H 0.51390 0.24151 0.67576
 C460 C 0.42023 0.22031 0.56611
 C461 C 0.57135 0.28238 0.56325
 C462 C 0.52780 0.17172 0.66797
 C463 C 0.46367 0.32332 0.67285
 C464 C 0.46809 0.76820 0.90375
 H465 H 0.48697 0.77930 0.90636
 C466 C 0.44481 0.77583 0.91987
 H467 H 0.44590 0.79279 0.93493
 C468 C 0.44324 0.73353 0.88000
 H469 H 0.44257 0.71711 0.86440
 C470 C 0.41941 0.74075 0.89536
 H471 H 0.40065 0.72975 0.89150
 N472 N 0.46688 0.74751 0.88410
 C473 C 0.55078 0.71510 0.86752
 H474 H 0.54983 0.71300 0.84490
 C475 C 0.57415 0.70495 0.88162
 H476 H 0.59132 0.69621 0.86943
 C477 C 0.52909 0.72774 0.91075
 H478 H 0.51133 0.73611 0.92214
 C479 C 0.55211 0.71766 0.92578
 H480 H 0.55167 0.71834 0.94859
 Zn481 Zn 0.49787 0.73914 0.86039
 N482 N 0.52889 0.72650 0.88206
 C483 C 0.53095 0.77232 0.82484
 N484 N 0.50697 0.77201 0.83984
 C485 C 0.49019 0.79541 0.84170
 C486 C 0.49809 0.82065 0.82964
 C487 C 0.53978 0.79712 0.81274
 C488 C 0.49442 0.68314 0.84344
 C489 C 0.48414 0.66080 0.82831
 C490 C 0.46162 0.69404 0.79687
 C491 C 0.47260 0.71583 0.81250
 N492 N 0.48834 0.71002 0.83553
 H493 H 0.54381 0.75359 0.82289
 H494 H 0.47077 0.79473 0.85290
 H495 H 0.48449 0.83901 0.83168
 H496 H 0.55967 0.79697 0.80227
 H497 H 0.50615 0.67899 0.86236
 H498 H 0.48829 0.63963 0.83572
 H499 H 0.44849 0.69897 0.77906
 H500 H 0.46759 0.73740 0.80702
 C501 C 0.57500 0.70593 0.91117
 C502 C 0.41998 0.76229 0.91540
 C503 C 0.46700 0.66609 0.80506
 C504 C 0.52356 0.82195 0.81551
 C505 C 0.48458 -0.16370 0.33781
 C506 C 0.49635 -0.18830 0.32600
 C507 C 0.50265 -0.21160 0.34301
 C508 C 0.49611 -0.21127 0.37209
 C509 C 0.48533 -0.18593 0.38376
 C510 C 0.47948 -0.16265 0.36690
 C511 C 0.47677 -0.13925 0.32004
 C512 C 0.48296 -0.11206 0.32868
 C513 C 0.47252 -0.08873 0.31399
 C514 C 0.45540 -0.09207 0.29051
 C515 C 0.45036 -0.11937 0.28108
 C516 C 0.46106 -0.14273 0.29564
 H517 H 0.51305 -0.22950 0.33325
 H518 H 0.48117 -0.18429 0.40617
 H519 H 0.47734 -0.06803 0.32143
 H520 H 0.43700 -0.12275 0.26331
 H521 H 0.47045 -0.14391 0.37657
 H522 H 0.49541 -0.10888 0.34720
 H523 H 0.50111 -0.18931 0.30367
 H524 H 0.45583 -0.16349 0.28870
 C525 C 0.98475 0.30797 0.82762
 C526 C 1.00001 0.31117 0.85235
 C527 C 1.00914 0.28789 0.86784
 C528 C 1.00392 0.26035 0.85882
 C529 C 0.98747 0.25738 0.83464
 C530 C 0.97849 0.28076 0.81898
 C531 C 0.97417 0.33314 0.81206
 C532 C 0.94756 0.33389 0.80046
 C533 C 0.93671 0.35840 0.78808
 C534 C 0.95212 0.38277 0.78721
 C535 C 0.97901 0.38185 0.79798
 C536 C 0.98998 0.35725 0.81010
 H537 H 1.01960 0.29177 0.88743
 H538 H 0.98147 0.23683 0.82787
 H539 H 0.91578 0.35864 0.78026
 H540 H 0.99144 0.40025 0.79726
 H541 H 0.96650 0.27750 0.80018
 H542 H 0.93462 0.31591 0.80197
 H543 H 1.00413 0.33183 0.86039
 H544 H 1.01076 0.35724 0.81828
 C545 C 0.04596 1.16077 0.83263
 C546 C 0.04465 1.18684 0.81891
 C547 C 0.03371 1.21067 0.83272
 C548 C 0.02327 1.20891 0.86051
 C549 C 0.02622 1.18288 0.87452
 C550 C 0.03687 1.15912 0.86066
 C551 C 0.05757 1.13541 0.81825
 C552 C 0.08217 1.13654 0.80262
 C553 C 0.09392 1.11228 0.79041
 C554 C 0.08120 1.08637 0.79335
 C555 C 0.05628 1.08540 0.80855
 C556 C 0.04464 1.10964 0.82093
 H557 H 0.03402 1.23044 0.82165
 H558 H 0.01991 1.18094 0.89636
 H559 H 0.11340 1.11371 0.77932
 H560 H 0.04572 1.06591 0.81084
 H561 H 0.03849 1.13950 0.87208
 H562 H 0.09278 1.15603 0.80057
 H563 H 0.05205 1.18878 0.79743
 H564 H 0.02546 1.10828 0.83259
 C565 C 0.52234 0.68399 0.35019
 C566 C 0.53746 0.69222 0.37365
 C567 C 0.53108 0.71742 0.38732
 C568 C 0.50988 0.73583 0.37739
 C569 C 0.49288 0.72594 0.35572
 C570 C 0.49935 0.70059 0.34190
 C571 C 0.53156 0.65873 0.33406
 C572 C 0.51279 0.63907 0.32455
 C573 C 0.52229 0.61486 0.31024
 C574 C 0.55064 0.61016 0.30494
 C575 C 0.56921 0.63007 0.31421
 C576 C 0.55979 0.65404 0.32848
 H577 H 0.54306 0.72241 0.40568
 H578 H 0.47502 0.73830 0.34890
 H579 H 0.50752 0.59990 0.30324
 H580 H 0.59121 0.62688 0.31092
 H581 H 0.48689 0.69441 0.32425
 H582 H 0.49092 0.64214 0.32868
 H583 H 0.55444 0.67914 0.38142
 H584 H 0.57471 0.66899 0.33521
 C585 C 0.52926 0.32496 0.17793
 C586 C 0.52817 0.29748 0.18825
 C587 C 0.52081 0.27560 0.17041
 C588 C 0.51398 0.28091 0.14195
 C589 C 0.51789 0.30815 0.13140
 C590 C 0.52468 0.32995 0.14924
 C591 C 0.53556 0.34867 0.19652
 C592 C 0.51842 0.37296 0.19636
 C593 C 0.52599 0.39691 0.21083
 C594 C 0.55114 0.39725 0.22539
 C595 C 0.56756 0.37236 0.22674
 C596 C 0.55973 0.34822 0.21255
 H597 H 0.52058 0.25466 0.17903
 H598 H 0.51468 0.31277 0.10928
 H599 H 0.51251 0.41543 0.20994
 H600 H 0.58719 0.37191 0.23746
 H601 H 0.52646 0.35082 0.14059
 H602 H 0.49947 0.37358 0.18439
 H603 H 0.53256 0.29307 0.21020
 H604 H 0.57330 0.32972 0.21281
 C605 C 0.03324 0.81317 0.67755
 C606 C 0.01104 0.81920 0.65964
 C607 C -0.00215 0.79775 0.64579
 C608 C 0.00632 0.76932 0.64957
 C609 C 0.02877 0.76360 0.66780
 C610 C 0.04170 0.78518 0.68200
 C611 C 0.04896 0.83633 0.68935
 C612 C 0.05423 0.83803 0.71836
 C613 C 0.06884 0.86043 0.72912
 C614 C 0.07888 0.88096 0.71087
 C615 C 0.07378 0.87902 0.68188
 C616 C 0.05878 0.85704 0.67125
 H617 H -0.01801 0.80404 0.63099
 H618 H 0.03682 0.74233 0.67040
 H619 H 0.07270 0.86151 0.75155
 H620 H 0.08122 0.89470 0.66746
 H621 H 0.05921 0.78011 0.69535
 H622 H 0.04677 0.82225 0.73264
 H623 H 0.00439 0.84073 0.65567
 H624 H 0.05511 0.85600 0.64878
 C625 C 0.96804 0.67118 0.67585
 C626 C 0.97552 0.69485 0.69123
 C627 C 0.98386 0.71904 0.67736
 C628 C 0.98563 0.71994 0.64763
 C629 C 0.97635 0.69663 0.63249
 C630 C 0.96807 0.67257 0.64633
 C631 C 0.95966 0.64521 0.69030
 C632 C 0.96807 0.61879 0.67958
 C633 C 0.95864 0.59427 0.69183
 C634 C 0.94060 0.59561 0.71512
 C635 C 0.93299 0.62201 0.72648
 C636 C 0.94242 0.64654 0.71420
 H637 H 0.98859 0.73689 0.69020
 H638 H 0.97621 0.69688 0.60965
 H639 H 0.96471 0.57431 0.68244
 H640 H 0.91940 0.62371 0.74465
 H641 H 0.96145 0.65506 0.63385
 H642 H 0.98171 0.61708 0.66144
 H643 H 0.97521 0.69458 0.71406
 H644 H 0.93547 0.66657 0.72287
 C645 C 0.47019 0.18287 0.15860
 C646 C 0.46424 0.20933 0.17048
 C647 C 0.47536 0.23337 0.15869
 C648 C 0.49386 0.23143 0.13559
 C649 C 0.49859 0.20474 0.12319
 C650 C 0.48728 0.18088 0.13474
 C651 C 0.45802 0.15731 0.17031
 C652 C 0.45867 0.15185 0.19940
 C653 C 0.44808 0.12710 0.21012
 C654 C 0.43634 0.10761 0.19195
 C655 C 0.43547 0.11326 0.16292
 C656 C 0.44629 0.13780 0.15220
 H657 H 0.46939 0.25357 0.16760
 H658 H 0.51073 0.20210 0.10410
 H659 H 0.44872 0.12334 0.23262
 H660 H 0.42665 0.09852 0.14847
 H661 H 0.49189 0.16077 0.12490
 H662 H 0.46776 0.16652 0.21374
 H663 H 0.45038 0.21148 0.18840
 H664 H 0.44534 0.14162 0.12972
 C665 C 0.31646 0.46472 -0.17517
 C666 C 0.34303 0.47500 -0.17248
 C667 C 0.35735 0.48444 -0.19605
 C668 C 0.34511 0.48521 -0.22299
 C669 C 0.31881 0.47369 -0.22570
 C670 C 0.30461 0.46383 -0.20208
 C671 C 0.30187 0.45389 -0.15001
 C672 C 0.30164 0.46889 -0.12452
 C673 C 0.28957 0.45787 -0.10025
 C674 C 0.27770 0.43139 -0.10078
 C675 C 0.27743 0.41670 -0.12653
 C676 C 0.28923 0.42789 -0.15088
 H677 H 0.37823 0.49117 -0.19320
 H678 H 0.30929 0.47180 -0.24612
 H679 H 0.28969 0.47008 -0.08103
 H680 H 0.26896 0.39606 -0.12774
 H681 H 0.28434 0.45546 -0.20484
 H682 H 0.31093 0.48917 -0.12336
 H683 H 0.35309 0.47500 -0.15216
 H684 H 0.28940 0.41573 -0.17015
 C685 C 0.84084 0.98710 0.32353
 C686 C 0.82556 1.00044 0.30204
 C687 C 0.83867 1.00947 0.27741
 C688 C 0.86737 1.00480 0.27351
 C689 C 0.88265 0.99364 0.29639
 C690 C 0.86959 0.98457 0.32077
 C691 C 0.82707 0.97469 0.34830
 C692 C 0.83529 0.94770 0.35741
 C693 C 0.82283 0.93571 0.38083
 C694 C 0.80189 0.95046 0.39579
 C695 C 0.79357 0.97747 0.38672
 C696 C 0.80594 0.98942 0.36303
 H697 H 0.82611 1.01994 0.26165
 H698 H 0.90487 0.99087 0.29480
 H699 H 0.82987 0.91500 0.38750
 H700 H 0.77736 0.98921 0.39780
 H701 H 0.88199 0.97518 0.33741
 H702 H 0.85131 0.93575 0.34625
 H703 H 0.80337 1.00316 0.30394
 H704 H 0.79931 1.01031 0.35649
 C705 C 0.83142 0.03844 1.17471
 C706 C 0.82708 0.01304 1.18864
 C707 C 0.84346 0.00501 1.21170
 C708 C 0.86435 0.02235 1.22168
 C709 C 0.86948 0.04693 1.20611
 C710 C 0.85297 0.05505 1.18349
 C711 C 0.81440 0.04774 1.15045
 C712 C 0.80460 0.07571 1.14895
 C713 C 0.79171 0.08588 1.12466
 C714 C 0.78838 0.06833 1.10124
 C715 C 0.79717 0.04000 1.10314
 C716 C 0.80995 0.02974 1.12763
 H717 H 0.83977 -0.01481 1.22191
 H718 H 0.88666 0.05995 1.21068
 H719 H 0.78548 0.10786 1.12379
 H720 H 0.79464 0.02595 1.08550
 H721 H 0.85753 0.07414 1.17229
 H722 H 0.80765 0.08994 1.16635
 H723 H 0.81089 -0.00045 1.18186
 H724 H 0.81746 0.00812 1.12826
 C725 C 0.31677 0.52752 0.67818
 C726 C 0.30650 0.53201 0.70566
 C727 C 0.32064 0.52092 0.72902
 C728 C 0.34497 0.50414 0.72555
 C729 C 0.35557 0.50074 0.69789
 C730 C 0.34157 0.51187 0.67469
 C731 C 0.30283 0.54030 0.65318
 C732 C 0.30283 0.52599 0.62723
 C733 C 0.29234 0.53903 0.60300
 C734 C 0.28130 0.56657 0.60420
 C735 C 0.28021 0.58050 0.63032
 C736 C 0.29095 0.56756 0.65452
 H737 H 0.31267 0.52580 0.74987
 H738 H 0.37523 0.48997 0.69406
 H739 H 0.29305 0.52765 0.58324
 H740 H 0.27210 0.60188 0.63181
 H741 H 0.35078 0.50901 0.65399
 H742 H 0.31128 0.50476 0.62556
 H743 H 0.28761 0.54429 0.70918
 H744 H 0.29093 0.57937 0.67400
 C745 C 0.16908 0.54724 0.32333
 C746 C 0.14027 0.54763 0.32538
 C747 C 0.12457 0.53633 0.30399
 C748 C 0.13708 0.52418 0.27968
 C749 C 0.16617 0.52450 0.27752
 C750 C 0.18194 0.53545 0.29933
 C751 C 0.18531 0.55978 0.34612
 C752 C 0.20713 0.54459 0.35898
 C753 C 0.22080 0.55586 0.38209
 C754 C 0.21321 0.58271 0.39228
 C755 C 0.19190 0.59811 0.37882
 C756 C 0.17801 0.58671 0.35611
 H757 H 0.10234 0.53694 0.30642
 H758 H 0.17706 0.51686 0.25900
 H759 H 0.23722 0.54362 0.39207
 H760 H 0.18541 0.61872 0.38641
 H761 H 0.20418 0.53541 0.29712
 H762 H 0.21300 0.52371 0.35169
 H763 H 0.12985 0.55656 0.34373
 H764 H 0.16132 0.59885 0.34645
 C765 C 0.66914 0.01775 0.82876
 C766 C 0.64024 0.01999 0.82986
 C767 C 0.62462 0.01279 0.80654
 C768 C 0.63739 0.00394 0.78106
 C769 C 0.66629 -0.00091 0.78118
 C770 C 0.68195 0.00643 0.80451
 C771 C 0.68576 0.02885 0.85214
 C772 C 0.70858 0.04527 0.84622
 C773 C 0.72230 0.05864 0.86794
 C774 C 0.71358 0.05578 0.89607
 C775 C 0.69157 0.03831 0.90213
 C776 C 0.67775 0.02504 0.88037
 H777 H 0.60238 0.01545 0.80786
 H778 H 0.67714 -0.01024 0.76338
 H779 H 0.73939 0.07174 0.86269
 H780 H 0.68425 0.03587 0.92358
 H781 H 0.70417 0.00342 0.80352
 H782 H 0.71509 0.04879 0.82466
 H783 H 0.62970 0.02845 0.84834
 H784 H 0.66041 0.01227 0.88558
 C785 C 0.66451 0.98358 0.67584
 C786 C 0.66994 1.00675 0.69285
 C787 C 0.65553 1.01115 0.71820
 C788 C 0.63606 0.99190 0.72791
 C789 C 0.63013 0.96930 0.70993
 C790 C 0.64440 0.96502 0.68463
 C791 C 0.67945 0.97854 0.64885
 C792 C 0.66511 0.96957 0.62507
 C793 C 0.67929 0.96164 0.60053
 C794 C 0.70820 0.96258 0.59909
 C795 C 0.72247 0.97285 0.62244
 C796 C 0.70821 0.98083 0.64708
 H797 H 0.65958 1.02970 0.73042
 H798 H 0.61393 0.95505 0.71469
 H799 H 0.66764 0.95352 0.58314
 H800 H 0.74471 0.97413 0.62187
 H801 H 0.63962 0.94704 0.67186
 H802 H 0.64289 0.96803 0.62567
 H803 H 0.68490 1.02177 0.68624
 H804 H 0.71977 0.98765 0.66512
 C805 C 0.16072 0.47595 0.18209
 C806 C 0.16476 0.46487 0.20930
 C807 C 0.15188 0.47751 0.23281
 C808 C 0.13436 0.50161 0.23006
 C809 C 0.13014 0.51220 0.20250
 C810 C 0.14358 0.50005 0.17921
 C811 C 0.17343 0.46202 0.15667
 C812 C 0.15974 0.46291 0.13052
 C813 C 0.17150 0.44995 0.10668
 C814 C 0.19687 0.43518 0.10852
 C815 C 0.21058 0.43396 0.13447
 C816 C 0.19916 0.44750 0.15822
 H817 H 0.15513 0.46805 0.25332
 H818 H 0.11592 0.52948 0.19814
 H819 H 0.16040 0.45075 0.08695
 H820 H 0.23025 0.42268 0.13628
 H821 H 0.14015 0.50957 0.15878
 H822 H 0.13959 0.47310 0.12846
 H823 H 0.17725 0.44594 0.21247
 H824 H 0.21062 0.44670 0.17770
 C825 C -0.17925 0.32805 0.47635
 C826 C -0.19668 0.31720 0.49708
 C827 C -0.22053 0.33247 0.50569
 C828 C -0.22760 0.35870 0.49341
 C829 C -0.20845 0.37014 0.47439
 C830 C -0.18514 0.35477 0.46545
 C831 C -0.15486 0.31203 0.46552
 C832 C -0.15248 0.30682 0.43650
 C833 C -0.12814 0.29507 0.42517
 C834 C -0.10549 0.28863 0.44258
 C835 C -0.10808 0.29320 0.47180
 C836 C -0.13273 0.30460 0.48324
 H837 H -0.23343 0.32375 0.52194
 H838 H -0.21147 0.39115 0.46616
 H839 H -0.12663 0.29210 0.40256
 H840 H -0.09093 0.28831 0.48565
 H841 H -0.17142 0.36391 0.45015
 H842 H -0.16929 0.31259 0.42249
 H843 H -0.19204 0.29683 0.50625
 H844 H -0.13413 0.30874 0.50566
 C845 C 0.32242 0.80690 0.97281
 C846 C 0.32637 0.82703 0.99379
 C847 C 0.30404 0.84207 1.00564
 C848 C 0.27663 0.83728 0.99731
 C849 C 0.27296 0.81721 0.97587
 C850 C 0.29536 0.80192 0.96422
 C851 C 0.34667 0.79293 0.95859
 C852 C 0.34640 0.78765 0.92941
 C853 C 0.37000 0.77692 0.91559
 C854 C 0.39449 0.77156 0.93054
 C855 C 0.39470 0.77616 0.95974
 C856 C 0.37098 0.78649 0.97367
 H857 H 0.30887 0.85854 1.02021
 H858 H 0.25259 0.81383 0.96759
 H859 H 0.36942 0.77380 0.89298
 H860 H 0.41327 0.77184 0.97176
 H861 H 0.29147 0.78658 0.94805
 H862 H 0.32830 0.79281 0.91698
 H863 H 0.34694 0.83231 1.00016
 H864 H 0.37180 0.78973 0.99623
 C865 C 1.17656 0.81588 0.03341
 C866 C 1.17867 0.84514 0.03397
 C867 C 1.20306 0.85759 0.02605
 C868 C 1.22654 0.84134 0.01758
 C869 C 1.22522 0.81193 0.01978
 C870 C 1.20040 0.79942 0.02684
 C871 C 1.14958 0.80296 0.03971
 C872 C 1.14835 0.77642 0.05242
 C873 C 1.12295 0.76517 0.05940
 C874 C 1.09804 0.78047 0.05469
 C875 C 1.09930 0.80664 0.04123
 C876 C 1.12460 0.81747 0.03345
 H877 H 1.20338 0.88026 0.02566
 H878 H 1.24298 0.79827 0.01575
 H879 H 1.12301 0.74459 0.06894
 H880 H 1.08085 0.81940 0.03740
 H881 H 1.19990 0.77679 0.02654
 H882 H 1.16696 0.76451 0.05774
 H883 H 1.16139 0.85868 0.04032
 H884 H 1.12444 0.83750 0.02278
 C885 C 0.67050 0.33388 0.52210
 C886 C 0.67603 0.35997 0.53403
 C887 C 0.70048 0.37315 0.52795
 C888 C 0.72114 0.36020 0.51083
 C889 C 0.71517 0.33444 0.49802
 C890 C 0.69031 0.32132 0.50384
 C891 C 0.64424 0.32007 0.52921
 C892 C 0.64351 0.29088 0.53279
 C893 C 0.61952 0.27846 0.54256
 C894 C 0.59577 0.29496 0.54943
 C895 C 0.59621 0.32401 0.54460
 C896 C 0.61995 0.33630 0.53434
 H897 H 0.70335 0.39367 0.53695
 H898 H 0.72937 0.32461 0.48306
 H899 H 0.61984 0.25595 0.54526
 H900 H 0.57859 0.33759 0.54978
 H901 H 0.68639 0.30161 0.49358
 H902 H 0.66177 0.27768 0.52908
 H903 H 0.66154 0.37030 0.54841
 H904 H 0.61941 0.35875 0.53105
 C905 C 0.32166 0.17468 0.52154
 C906 C 0.30853 0.17882 0.49559
 C907 C 0.28563 0.16312 0.48862
 C908 C 0.27529 0.14293 0.50746
 C909 C 0.29003 0.13808 0.53276
 C910 C 0.31232 0.15411 0.53987
 C911 C 0.34563 0.19087 0.52995
 C912 C 0.34509 0.20465 0.55605
 C913 C 0.36907 0.21548 0.56701
 C914 C 0.39424 0.21240 0.55228
 C915 C 0.39442 0.20014 0.52529
 C916 C 0.37021 0.18948 0.51417
 H917 H 0.27591 0.16664 0.46839
 H918 H 0.28521 0.12145 0.54717
 H919 H 0.36807 0.22552 0.58748
 H920 H 0.41349 0.19743 0.51347
 H921 H 0.32286 0.14989 0.55957
 H922 H 0.32625 0.20607 0.56845
 H923 H 0.31583 0.19430 0.48089
 H924 H 0.37105 0.17868 0.49408
 C925 C 0.81544 0.66491 0.02063
 C926 C 0.80225 0.66705 -0.00548
 C927 C 0.77909 0.65121 -0.01092
 C928 C 0.76845 0.63295 0.00969
 C929 C 0.78317 0.63003 0.03524
 C930 C 0.80581 0.64625 0.04082
 C931 C 0.83950 0.68162 0.02734
 C932 C 0.83737 0.70160 0.04892
 C933 C 0.86088 0.71428 0.05887
 C934 C 0.88714 0.70676 0.04788
 C935 C 0.88901 0.68772 0.02522
 C936 C 0.86531 0.67530 0.01497
 H937 H 0.76943 0.65311 -0.03137
 H938 H 0.77788 0.61478 0.05102
 H939 H 0.85856 0.72941 0.07580
 H940 H 0.90887 0.68131 0.01639
 H941 H 0.81631 0.64376 0.06080
 H942 H 0.81757 0.70670 0.05867
 H943 H 0.80977 0.68106 -0.02152
 H944 H 0.86729 0.65965 -0.00153
 C945 C 0.66965 0.65652 0.96928
 C946 C 0.67210 0.62725 0.97133
 C947 C 0.69575 0.61432 0.98242
 C948 C 0.71802 0.63011 0.99173
 C949 C 0.71453 0.65961 0.99177
 C950 C 0.69077 0.67262 0.98032
 C951 C 0.64550 0.66973 0.95467
 C952 C 0.63253 0.69463 0.96467
 C953 C 0.60955 0.70644 0.95070
 C954 C 0.59920 0.69364 0.92643
 C955 C 0.61226 0.66878 0.91654
 C956 C 0.63515 0.65711 0.93034
 H957 H 0.69708 0.59163 0.98299
 H958 H 0.72999 0.67284 1.00041
 H959 H 0.60007 0.72573 0.95871
 H960 H 0.60461 0.65810 0.89820
 H961 H 0.68928 0.69529 0.97947
 H962 H 0.63990 0.70476 0.98345
 H963 H 0.65579 0.61420 0.96402
 H964 H 0.64490 0.63819 0.92177
 C965 C 0.17411 0.16999 0.47662
 C966 C 0.17609 0.14064 0.47681
 C967 C 0.20049 0.12669 0.48460
 C968 C 0.22399 0.14155 0.49229
 C969 C 0.22099 0.17102 0.49465
 C970 C 0.19646 0.18505 0.48652
 C971 C 0.14946 0.18448 0.46428
 C972 C 0.13752 0.20894 0.47641
 C973 C 0.11444 0.22233 0.46404
 C974 C 0.10313 0.21162 0.43921
 C975 C 0.11503 0.18709 0.42732
 C976 C 0.13792 0.17379 0.43960
 H977 H 0.20148 0.10402 0.48350
 H978 H 0.23743 0.18355 0.50235
 H979 H 0.10572 0.24127 0.47359
 H980 H 0.10655 0.17803 0.40847
 H981 H 0.19533 0.20774 0.48708
 H982 H 0.14589 0.21756 0.49552
 H983 H 0.15889 0.12837 0.47026
 H984 H 0.14686 0.15526 0.42946
 C985 C 0.57339 0.07313 0.72440
 C986 C 0.59185 0.07529 0.74691
 C987 C 0.60590 0.05162 0.75752
 C988 C 0.60101 0.02454 0.74700
 C989 C 0.58179 0.02249 0.72493
 C990 C 0.56829 0.04631 0.71378
 C991 C 0.56090 0.09883 0.71101
 C992 C 0.53466 0.09855 0.69850
 C993 C 0.52380 0.12228 0.68463
 C994 C 0.53864 0.14696 0.68353
 C995 C 0.56447 0.14761 0.69649
 C996 C 0.57563 0.12375 0.70977
 H997 H 0.62143 0.05520 0.77318
 H998 H 0.57803 0.00234 0.71549
 H999 H 0.50372 0.12145 0.67485
 H1000 H 0.57640 0.16636 0.69553
 H1001 H 0.55475 0.04369 0.69601
 H1002 H 0.52244 0.08003 0.69940
 H1003 H 0.59610 0.09546 0.75601
 H1004 H 0.59617 0.12474 0.71836
 C1005 C 1.06704 0.58700 0.23214
 C1006 C 1.05436 0.56333 0.24309
 C1007 C 1.07019 0.53980 0.25158
 C1008 C 1.09922 0.53889 0.24838
 C1009 C 1.11171 0.56360 0.23907
 C1010 C 1.09591 0.58712 0.23085
 C1011 C 1.05037 0.61086 0.22045
 C1012 C 1.05797 0.63864 0.22504
 C1013 C 1.04443 0.66083 0.21098
 C1014 C 1.02321 0.65562 0.19188
 C1015 C 1.01472 0.62800 0.18837
 C1016 C 1.02810 0.60586 0.20258
 H1017 H 1.05930 0.52263 0.26066
 H1018 H 1.13394 0.56426 0.23721
 H1019 H 1.05151 0.68189 0.21395
 H1020 H 0.99825 0.62345 0.17395
 H1021 H 1.10633 0.60505 0.22249
 H1022 H 1.07489 0.64312 0.23893
 H1023 H 1.03212 0.56304 0.24510
 H1024 H 1.02190 0.58467 0.19849
 C1025 C 0.92268 0.93831 0.20623
 C1026 C 0.92945 0.96537 0.19760
 C1027 C 0.91764 0.98904 0.21117
 C1028 C 0.89932 0.98633 0.23425
 C1029 C 0.89279 0.95882 0.24250
 C1030 C 0.90463 0.93541 0.22911
 C1031 C 0.93281 0.91294 0.19069
 C1032 C 0.91465 0.89131 0.18524
 C1033 C 0.92396 0.86668 0.17201
 C1034 C 0.95168 0.86301 0.16363
 C1035 C 0.96985 0.88481 0.16862
 C1036 C 0.96047 0.90961 0.18194
 H1037 H 0.92222 1.00960 0.20314
 H1038 H 0.87752 0.95483 0.25853
 H1039 H 0.90948 0.85024 0.16882
 H1040 H 0.99126 0.88273 0.16213
 H1041 H 0.89902 0.91483 0.23632
 H1042 H 0.89311 0.89341 0.19130
 H1043 H 0.94295 0.96825 0.17963
 H1044 H 0.97492 0.92591 0.18594
 C1045 C 0.40992 0.41747 0.72909
 C1046 C 0.42224 0.43824 0.74522
 C1047 C 0.40712 0.46257 0.75319
 C1048 C 0.37973 0.46735 0.74396
 C1049 C 0.36711 0.44537 0.72958
 C1050 C 0.38203 0.42108 0.72192
 C1051 C 0.42593 0.39243 0.71871
 C1052 C 0.41392 0.36608 0.71867
 C1053 C 0.42688 0.34335 0.70491
 C1054 C 0.45220 0.34640 0.69086
 C1055 C 0.46514 0.37225 0.69243
 C1056 C 0.45210 0.39509 0.70623
 H1057 H 0.41705 0.47760 0.76642
 H1058 H 0.34568 0.44733 0.72346
 H1059 H 0.41673 0.32351 0.70460
 H1060 H 0.48460 0.37522 0.68171
 H1061 H 0.37185 0.40542 0.70962
 H1062 H 0.39404 0.36326 0.72862
 H1063 H 0.44349 0.43555 0.75182
 H1064 H 0.46176 0.41519 0.70580
 C1065 C 0.40826 0.57022 0.76687
 C1066 C 0.38347 0.56550 0.78119
 C1067 C 0.36913 0.54115 0.77642
 C1068 C 0.37951 0.52016 0.75779
 C1069 C 0.40346 0.52606 0.74204
 C1070 C 0.41800 0.55037 0.74703
 C1071 C 0.42396 0.59560 0.77313
 C1072 C 0.45260 0.59353 0.77737
 C1073 C 0.46687 0.61677 0.78655
 C1074 C 0.45284 0.64260 0.79144
 C1075 C 0.42447 0.64501 0.78577
 C1076 C 0.41017 0.62174 0.77679
 H1077 H 0.34967 0.53893 0.78733
 H1078 H 0.41100 0.51186 0.72574
 H1079 H 0.48878 0.61437 0.79053
 H1080 H 0.41304 0.66455 0.78957
 H1081 H 0.43663 0.55389 0.73503
 H1082 H 0.46374 0.57364 0.77481
 H1083 H 0.37525 0.58056 0.79641
 H1084 H 0.38817 0.62403 0.77333
 C1085 C -0.06767 0.08258 0.27419
 C1086 C -0.05411 0.05728 0.26616
 C1087 C -0.06923 0.03434 0.25740
 C1088 C -0.09831 0.03640 0.25601
 C1089 C -0.11156 0.06143 0.26570
 C1090 C -0.09655 0.08414 0.27431
 C1091 C -0.05226 0.10726 0.28342
 C1092 C -0.06137 0.13439 0.27547
 C1093 C -0.04962 0.15795 0.28716
 C1094 C -0.02833 0.15497 0.30698
 C1095 C -0.01807 0.12784 0.31361
 C1096 C -0.02992 0.10421 0.30195
 H1097 H -0.05797 0.01514 0.25210
 H1098 H -0.13386 0.06355 0.26603
 H1099 H -0.05818 0.17846 0.28170
 H1100 H -0.00136 0.12485 0.32844
 H1101 H -0.10768 0.10293 0.28140
 H1102 H -0.07825 0.13739 0.26083
 H1103 H -0.03182 0.05531 0.26645
 H1104 H -0.02247 0.08359 0.30849
 C1105 C 0.07208 0.44027 0.28465
 C1106 C 0.09145 0.45220 0.30238
 C1107 C 0.10613 0.47529 0.29369
 C1108 C 0.10138 0.48795 0.26710
 C1109 C 0.08261 0.47500 0.24896
 C1110 C 0.06803 0.45167 0.25767
 C1111 C 0.05697 0.41549 0.29436
 C1112 C 0.05409 0.39214 0.27671
 C1113 C 0.04227 0.36780 0.28702
 C1114 C 0.03290 0.36641 0.31511
 C1115 C 0.03483 0.39019 0.33235
 C1116 C 0.04673 0.41441 0.32211
 H1117 H 0.12163 0.48245 0.30794
 H1118 H 0.07910 0.48321 0.22795
 H1119 H 0.04081 0.34991 0.27314
 H1120 H 0.02810 0.38975 0.35415
 H1121 H 0.05342 0.44269 0.24338
 H1122 H 0.06192 0.39233 0.25528
 H1123 H 0.09583 0.44317 0.32288
 H1124 H 0.04838 0.43221 0.33608
 C1125 C 0.57303 0.92504 0.78064
 C1126 C 0.60163 0.92330 0.77635
 C1127 C 0.61596 0.94702 0.76890
 C1128 C 0.60202 0.97306 0.76426
 C1129 C 0.57340 0.97495 0.77012
 C1130 C 0.55911 0.95117 0.77811
 C1131 C 0.55814 0.89949 0.78807
 C1132 C 0.54045 0.89912 0.81158
 C1133 C 0.52860 0.87414 0.82006
 C1134 C 0.53390 0.84909 0.80495
 C1135 C 0.55061 0.84995 0.78062
 C1136 C 0.56276 0.87480 0.77243
 H1137 H 0.63810 0.94494 0.76592
 H1138 H 0.56190 0.99468 0.76886
 H1139 H 0.51619 0.87428 0.83911
 H1140 H 0.55462 0.83132 0.76803
 H1141 H 0.53709 0.95310 0.78195
 H1142 H 0.53675 0.91789 0.82407
 H1143 H 0.61298 0.90355 0.77900
 H1144 H 0.57602 0.87470 0.75396
 C1145 C 0.70926 0.57400 0.07721
 C1146 C 0.71275 0.60299 0.07586
 C1147 C 0.72420 0.61508 0.05202
 C1148 C 0.73349 0.59860 0.02889
 C1149 C 0.72956 0.56943 0.03018
 C1150 C 0.71792 0.55729 0.05420
 C1151 C 0.69546 0.56176 0.10215
 C1152 C 0.70514 0.53639 0.11418
 C1153 C 0.69238 0.52572 0.13832
 C1154 C 0.66960 0.54013 0.15071
 C1155 C 0.65991 0.56537 0.13848
 C1156 C 0.67258 0.57596 0.11449
 H1157 H 0.72591 0.63764 0.05155
 H1158 H 0.73442 0.55591 0.01245
 H1159 H 0.70018 0.50611 0.14715
 H1160 H 0.64269 0.57724 0.14770
 H1161 H 0.71478 0.53494 0.05437
 H1162 H 0.72283 0.52508 0.10521
 H1163 H 0.70647 0.61648 0.09327
 H1164 H 0.66434 0.59534 0.10552
 C1165 C 0.22801 1.07030 0.56877
 C1166 C 0.22600 1.09956 0.57090
 C1167 C 0.23299 1.11630 0.54813
 C1168 C 0.24298 1.10441 0.52259
 C1169 C 0.24343 1.07489 0.52010
 C1170 C 0.23628 1.05809 0.54302
 C1171 C 0.22075 1.05287 0.59336
 C1172 C 0.20406 1.02965 0.59018
 C1173 C 0.19486 1.01517 0.61386
 C1174 C 0.20226 1.02359 0.64111
 C1175 C 0.22004 1.04597 0.64414
 C1176 C 0.22919 1.06045 0.62051
 H1177 H 0.23130 1.13885 0.55060
 H1178 H 0.24899 1.06444 0.50060
 H1179 H 0.18143 0.99777 0.61089
 H1180 H 0.22591 1.05312 0.66484
 H1181 H 0.23748 1.03552 0.54067
 H1182 H 0.19719 1.02342 0.56951
 H1183 H 0.21876 1.10958 0.59018
 H1184 H 0.24239 1.07803 0.62351
 C1185 C 0.23553 0.89943 0.92622
 C1186 C 0.21602 0.88184 0.93800
 C1187 C 0.22064 0.86894 0.96391
 C1188 C 0.24476 0.87376 0.97954
 C1189 C 0.26440 0.89143 0.96733
 C1190 C 0.25968 0.90439 0.94125
 C1191 C 0.23050 0.91191 0.89803
 C1192 C 0.23520 0.94032 0.89282
 C1193 C 0.22717 0.95260 0.86722
 C1194 C 0.21437 0.93666 0.84639
 C1195 C 0.21110 0.90791 0.85117
 C1196 C 0.21916 0.89569 0.87661
 H1197 H 0.20544 0.85440 0.97083
 H1198 H 0.28372 0.89481 0.97790
 H1199 H 0.23034 0.97471 0.86403
 H1200 H 0.20105 0.89503 0.83581
 H1201 H 0.27528 0.91758 0.93244
 H1202 H 0.24394 0.95329 0.90897
 H1203 H 0.19711 0.87772 0.92696
 H1204 H 0.21578 0.87361 0.87984
 C1205 C 0.71504 0.42930 0.43455
 C1206 C 0.71524 0.44009 0.46211
 C1207 C 0.72566 0.42371 0.48443
 C1208 C 0.73659 0.39631 0.47955
 C1209 C 0.73436 0.38524 0.45207
 C1210 C 0.72438 0.40161 0.42990
 C1211 C 0.70392 0.44594 0.41057
 C1212 C 0.71792 0.44551 0.38453
 C1213 C 0.70585 0.45785 0.36073
 C1214 C 0.67942 0.47076 0.36240
 C1215 C 0.66600 0.47236 0.38881
 C1216 C 0.67819 0.46015 0.41268
 H1217 H 0.72476 0.43242 0.50546
 H1218 H 0.74058 0.36369 0.44763
 H1219 H 0.71700 0.45679 0.34089
 H1220 H 0.64549 0.48185 0.39080
 H1221 H 0.72336 0.39235 0.40910
 H1222 H 0.73799 0.43501 0.38246
 H1223 H 0.70739 0.46119 0.46635
 H1224 H 0.66687 0.46054 0.43245
 C1225 C 0.78227 0.41551 0.57823
 C1226 C 0.76794 0.39060 0.58027
 C1227 C 0.75654 0.37865 0.55647
 C1228 C 0.75801 0.39175 0.52981
 C1229 C 0.77349 0.41617 0.52768
 C1230 C 0.78500 0.42818 0.55165
 C1231 C 0.79494 0.42751 0.60377
 C1232 C 0.79377 0.45655 0.60877
 C1233 C 0.80514 0.46753 0.63329
 C1234 C 0.81788 0.44969 0.65330
 C1235 C 0.81916 0.42070 0.64815
 C1236 C 0.80788 0.40977 0.62369
 H1237 H 0.74670 0.35881 0.55904
 H1238 H 0.77705 0.42582 0.50740
 H1239 H 0.80371 0.48995 0.63676
 H1240 H 0.82944 0.40648 0.66277
 H1241 H 0.79672 0.44695 0.54928
 H1242 H 0.78368 0.47071 0.59396
 H1243 H 0.76557 0.38018 0.60038
 H1244 H 0.80965 0.38736 0.62018
 C1245 C 0.27620 -0.09242 0.07889
 C1246 C 0.27710 -0.12180 0.08001
 C1247 C 0.26880 -0.13749 0.05698
 C1248 C 0.25999 -0.12438 0.03176
 C1249 C 0.25732 -0.09483 0.03154
 C1250 C 0.26568 -0.07911 0.05465
 C1251 C 0.28747 -0.07591 0.10241
 C1252 C 0.30406 -0.05302 0.09672
 C1253 C 0.31704 -0.03917 0.11861
 C1254 C 0.31370 -0.04788 0.14670
 C1255 C 0.29623 -0.07006 0.15252
 C1256 C 0.28327 -0.08395 0.13059
 H1257 H 0.27012 -0.16014 0.05841
 H1258 H 0.24863 -0.08355 0.01379
 H1259 H 0.33007 -0.02188 0.11353
 H1260 H 0.29337 -0.07733 0.17392
 H1261 H 0.26388 -0.05646 0.05358
 H1262 H 0.30787 -0.04646 0.07523
 H1263 H 0.28508 -0.13274 0.09837
 H1264 H 0.27031 -0.10130 0.13565
 C1265 C 0.28500 0.08327 0.42229
 C1266 C 0.26115 0.10059 0.42071
 C1267 C 0.25006 0.11358 0.44470
 C1268 C 0.26172 0.10880 0.47161
 C1269 C 0.28586 0.09141 0.47295
 C1270 C 0.29721 0.07870 0.44873
 C1271 C 0.29757 0.07115 0.39613
 C1272 C 0.30980 0.04402 0.39586
 C1273 C 0.32163 0.03294 0.37108
 C1274 C 0.32137 0.04872 0.34602
 C1275 C 0.30886 0.07570 0.34631
 C1276 C 0.29734 0.08684 0.37104
 H1277 H 0.23273 0.12795 0.44144
 H1278 H 0.29614 0.08796 0.49291
 H1279 H 0.33140 0.01222 0.37170
 H1280 H 0.30791 0.08831 0.32735
 H1281 H 0.31600 0.06596 0.45063
 H1282 H 0.31010 0.03128 0.41474
 H1283 H 0.25108 0.10449 0.40072
 H1284 H 0.28855 0.10798 0.37053
 C1285 C 0.78440 0.56414 0.93541
 C1286 C 0.79083 0.55879 0.96370
 C1287 C 0.77725 0.57409 0.98522
 C1288 C 0.75612 0.59426 0.97900
 C1289 C 0.75007 0.59919 0.95021
 C1290 C 0.76384 0.58425 0.92891
 C1291 C 0.80051 0.55094 0.91222
 C1292 C 0.81533 0.56793 0.89386
 C1293 C 0.82886 0.55635 0.87038
 C1294 C 0.82748 0.52761 0.86455
 C1295 C 0.81278 0.51050 0.88304
 C1296 C 0.79958 0.52207 0.90694
 H1297 H 0.78371 0.57071 1.00679
 H1298 H 0.73566 0.61561 0.94362
 H1299 H 0.83985 0.57000 0.85630
 H1300 H 0.81156 0.48825 0.87898
 H1301 H 0.75902 0.58904 0.90713
 H1302 H 0.81611 0.59028 0.89756
 H1303 H 0.80718 0.54374 0.96903
 H1304 H 0.78802 0.50873 0.92081
 C1305 C 0.06895 0.72532 0.57910
 C1306 C 0.05546 0.75169 0.57717
 C1307 C 0.03152 0.75770 0.59306
 C1308 C 0.02025 0.73745 0.61121
 C1309 C 0.03498 0.71146 0.61374
 C1310 C 0.05850 0.70539 0.59758
 C1311 C 0.09439 0.71833 0.56276
 C1312 C 0.09708 0.69246 0.54880
 C1313 C 0.12200 0.68403 0.53610
 C1314 C 0.14492 0.70121 0.53715
 C1315 C 0.14202 0.72753 0.55038
 C1316 C 0.11688 0.73611 0.56293
 H1317 H 0.02183 0.77840 0.59142
 H1318 H 0.02929 0.69575 0.62885
 H1319 H 0.12363 0.66348 0.52645
 H1320 H 0.15931 0.74125 0.55137
 H1321 H 0.06914 0.68524 0.60024
 H1322 H 0.08000 0.67844 0.54830
 H1323 H 0.06340 0.76760 0.56333
 H1324 H 0.11534 0.75608 0.57376
 C1325 C 0.58003 0.23351 1.07495
 C1326 C 0.56023 0.25116 1.06183
 C1327 C 0.53629 0.26011 1.07648
 C1328 C 0.53141 0.25093 1.10433
 C1329 C 0.55286 0.23565 1.11799
 C1330 C 0.57653 0.22672 1.10344
 C1331 C 0.60365 0.22072 1.05907
 C1332 C 0.60990 0.19197 1.06221
 C1333 C 0.63271 0.17953 1.04863
 C1334 C 0.64991 0.19551 1.03152
 C1335 C 0.64355 0.22427 1.02802
 C1336 C 0.62043 0.23676 1.04154
 H1337 H 0.52165 0.27390 1.06578
 H1338 H 0.55072 0.22954 1.13986
 H1339 H 0.63726 0.15743 1.05209
 H1340 H 0.65643 0.23703 1.01486
 H1341 H 0.59197 0.21398 1.11438
 H1342 H 0.59713 0.17906 1.07537
 H1343 H 0.56286 0.25728 1.04002
 H1344 H 0.61604 0.25899 1.03887
 C1345 C 0.93154 0.21906 0.91647
 C1346 C 0.94776 0.24070 0.92643
 C1347 C 0.97352 0.24551 0.91410
 C1348 C 0.98438 0.22794 0.89245
 C1349 C 0.96715 0.20712 0.88190
 C1350 C 0.94148 0.20250 0.89398
 C1351 C 0.90429 0.21334 0.92924
 C1352 C 0.88191 0.20716 0.91193
 C1353 C 0.85727 0.19819 0.92364
 C1354 C 0.85440 0.19516 0.95297
 C1355 C 0.87632 0.20269 0.97039
 C1356 C 0.90101 0.21178 0.95863
 H1357 H 0.98498 0.26311 0.92146
 H1358 H 0.97305 0.19450 0.86378
 H1359 H 0.84091 0.19237 0.90960
 H1360 H 0.87461 0.20094 0.99309
 H1361 H 0.92935 0.18580 0.88567
 H1362 H 0.88374 0.20857 0.88920
 H1363 H 0.94025 0.25427 0.94330
 H1364 H 0.91795 0.21638 0.97245
 C1365 C 0.43214 0.73799 0.44209
 C1366 C 0.45916 0.73160 0.45116
 C1367 C 0.48190 0.74095 0.43590
 C1368 C 0.47832 0.75767 0.41156
 C1369 C 0.45102 0.76359 0.40255
 C1370 C 0.42844 0.75424 0.41770
 C1371 C 0.40776 0.72592 0.45623
 C1372 C 0.38254 0.74131 0.45788
 C1373 C 0.35861 0.72869 0.46735
 C1374 C 0.35935 0.70041 0.47564
 C1375 C 0.38489 0.68551 0.47554
 C1376 C 0.40878 0.69807 0.46586
 H1377 H 0.50239 0.73450 0.44274
 H1378 H 0.44681 0.77442 0.38295
 H1379 H 0.33933 0.74080 0.46700
 H1380 H 0.38633 0.66387 0.48236
 H1381 H 0.40801 0.75860 0.40939
 H1382 H 0.38112 0.76296 0.45108
 H1383 H 0.46277 0.71890 0.46976
 H1384 H 0.42778 0.68551 0.46474
 C1385 C 0.57605 0.79888 0.43142
 C1386 C 0.55138 0.79777 0.44705
 C1387 C 0.52790 0.78613 0.43529
 C1388 C 0.52879 0.77465 0.40783
 C1389 C 0.55368 0.77629 0.39240
 C1390 C 0.57693 0.78774 0.40410
 C1391 C 0.60067 0.81260 0.44272
 C1392 C 0.61622 0.82975 0.42506
 C1393 C 0.64015 0.84174 0.43482
 C1394 C 0.64910 0.83710 0.46258
 C1395 C 0.63340 0.82021 0.48043
 C1396 C 0.60934 0.80814 0.47062
 H1397 H 0.50895 0.78713 0.44742
 H1398 H 0.55504 0.76877 0.37087
 H1399 H 0.65189 0.85433 0.42040
 H1400 H 0.63963 0.81649 0.50203
 H1401 H 0.59565 0.78809 0.39155
 H1402 H 0.60988 0.83394 0.40358
 H1403 H 0.54996 0.80682 0.46796
 H1404 H 0.59783 0.79491 0.48464
 C1405 C 0.08200 0.25443 -0.06947
 C1406 C 0.05860 0.24294 -0.05703
 C1407 C 0.03609 0.23573 -0.07363
 C1408 C 0.03600 0.24116 -0.10291
 C1409 C 0.06029 0.25136 -0.11517
 C1410 C 0.08279 0.25803 -0.09875
 C1411 C 0.10517 0.26422 -0.05229
 C1412 C 0.13256 0.25842 -0.06086
 C1413 C 0.15431 0.27168 -0.04782
 C1414 C 0.14906 0.29118 -0.02611
 C1415 C 0.12180 0.29570 -0.01641
 C1416 C 0.10005 0.28222 -0.02930
 H1417 H 0.01903 0.22584 -0.06336
 H1418 H 0.06158 0.25485 -0.13769
 H1419 H 0.17506 0.26790 -0.05583
 H1420 H 0.11723 0.31041 0.00050
 H1421 H 0.10054 0.26688 -0.10894
 H1422 H 0.13703 0.24446 -0.07843
 H1423 H 0.05782 0.23937 -0.03450
 H1424 H 0.07911 0.28714 -0.02240
 C1425 C 0.43200 0.28645 0.07330
 C1426 C 0.44914 0.26438 0.06305
 C1427 C 0.47257 0.25539 0.07818
 C1428 C 0.47991 0.26882 0.10349
 C1429 C 0.46115 0.28942 0.11446
 C1430 C 0.43803 0.29843 0.09940
 C1431 C 0.40724 0.29684 0.05781
 C1432 C 0.40106 0.32578 0.05672
 C1433 C 0.37585 0.33586 0.04631
 C1434 C 0.35627 0.31726 0.03656
 C1435 C 0.36309 0.28842 0.03578
 C1436 C 0.38842 0.27825 0.04640
 H1437 H 0.48501 0.23791 0.07006
 H1438 H 0.46393 0.29853 0.13508
 H1439 H 0.37131 0.35824 0.04657
 H1440 H 0.34829 0.27369 0.02835
 H1441 H 0.42440 0.31446 0.10857
 H1442 H 0.41544 0.34062 0.06480
 H1443 H 0.44452 0.25421 0.04332
 H1444 H 0.39265 0.25584 0.04706
 C1445 C 0.92044 0.77753 0.58813
 C1446 C 0.94337 0.76808 0.57196
 C1447 C 0.96717 0.75689 0.58495
 C1448 C 0.96920 0.75594 0.61461
 C1449 C 0.94555 0.76411 0.63050
 C1450 C 0.92164 0.77450 0.61755
 C1451 C 0.89563 0.79116 0.57470
 C1452 C 0.88031 0.81242 0.58905
 C1453 C 0.85717 0.82542 0.57673
 C1454 C 0.84912 0.81805 0.54950
 C1455 C 0.86437 0.79713 0.53486
 C1456 C 0.88721 0.78357 0.54745
 H1457 H 0.98380 0.74930 0.57146
 H1458 H 0.94584 0.76290 0.65330
 H1459 H 0.84599 0.84189 0.58818
 H1460 H 0.85844 0.79115 0.51378
 H1461 H 0.90411 0.78033 0.63079
 H1462 H 0.88646 0.81957 0.60964
 H1463 H 0.94329 0.76981 0.54922
 H1464 H 0.89809 0.76705 0.53584
   
