data_POSCAR
  _audit_creation_date              2014-09-24
  _audit_creation_method            'ToBaCCo'
  _symmetry_space_group_name_H-M    'P1'
  _symmetry_Int_Tables_number       1
  _symmetry_cell_setting            triclinic
  loop_
  _symmetry_equiv_pos_as_xyz
 x,y,z
_cell_length_a 43.8211
_cell_length_b 43.4524
_cell_length_c 43.4552
_cell_angle_alpha 89.741200
_cell_angle_beta 89.412100
_cell_angle_gamma 89.740500
loop_
  _atom_site_label
  _atom_site_type_symbol
  _atom_site_fract_x
  _atom_site_fract_y
  _atom_site_fract_z
C1 C 0.19142 0.22623 0.23842
 N2 N 0.21092 0.20233 0.24310
 C3 C 0.23550 0.19820 0.22422
 N4 N 0.23997 0.21773 0.20008
 C5 C 0.22037 0.24152 0.19516
 N6 N 0.19606 0.24566 0.21430
 C7 C 0.69746 0.72587 0.74399
 N8 N 0.71599 0.70120 0.74867
 C9 C 0.74061 0.69626 0.73002
 N10 N 0.74608 0.71572 0.70604
 C11 C 0.72737 0.74017 0.70101
 N12 N 0.70297 0.74502 0.71983
 C13 C 0.31905 0.78651 0.72234
 N14 N 0.30152 0.81223 0.72509
 C15 C 0.27666 0.81660 0.70709
 N16 N 0.26894 0.79409 0.68695
 C17 C 0.28599 0.76804 0.68433
 N18 N 0.31113 0.76444 0.70196
 C19 C 0.82371 0.29492 0.21223
 N20 N 0.80373 0.31820 0.21846
 C21 C 0.77906 0.32323 0.20043
 N22 N 0.77355 0.30400 0.17660
 C23 C 0.79304 0.28042 0.17031
 N24 N 0.81780 0.27587 0.18833
 C25 C 0.80889 0.71659 0.27270
 N26 N 0.80332 0.73682 0.29580
 C27 C 0.77682 0.73546 0.31217
 N28 N 0.75594 0.71344 0.30563
 C29 C 0.76121 0.69327 0.28229
 N30 N 0.78777 0.69496 0.26598
 C31 C 0.30233 0.21097 -0.23412
 N32 N 0.29439 0.23294 -0.21336
 C33 C 0.27326 0.22714 -0.19107
 N34 N 0.26004 0.19899 -0.18952
 C35 C 0.26809 0.17639 -0.20963
 N36 N 0.28953 0.18259 -0.23162
 C37 C 0.68884 0.27785 -0.23589
 N38 N 0.69507 0.25674 -0.21366
 C39 C 0.71679 0.26230 -0.19236
 N40 N 0.73174 0.28963 -0.19289
 C41 C 0.72531 0.31147 -0.21447
 N42 N 0.70383 0.30510 -0.23579
 C43 C 0.18527 0.78294 0.27072
 N44 N 0.20060 0.80995 0.26893
 C45 C 0.22267 0.81692 0.28947
 N46 N 0.22979 0.79571 0.31149
 C47 C 0.21466 0.76854 0.31347
 N48 N 0.19199 0.76252 0.29336
 C49 C 0.46104 0.42747 0.47574
 N50 N 0.43576 0.44536 0.47924
 C51 C 0.43113 0.47003 0.46052
 N52 N 0.45249 0.47732 0.43883
 C53 C 0.47821 0.46001 0.43568
 N54 N 0.48226 0.43499 0.45404
 C55 C -0.04062 -0.07060 0.98026
 N56 N -0.06731 -0.05469 0.98125
 C57 C -0.07337 -0.03225 0.96029
 N58 N -0.05175 -0.02542 0.93860
 C59 C -0.02503 -0.04138 0.93720
 N60 N -0.01981 -0.06434 0.95780
 C61 C 1.03012 0.55639 0.98291
 N62 N 1.01286 0.55238 0.95744
 C63 C 1.02158 0.53257 0.93487
 N64 N 1.04803 0.51643 0.93778
 C65 C 1.06580 0.52052 0.96284
 N66 N 1.05674 0.54033 0.98520
 C67 C 0.53025 0.05186 0.49097
 N68 N 0.55702 0.03607 0.49060
 C69 C 0.56253 0.01370 0.46937
 N70 N 0.54037 0.00726 0.44869
 C71 C 0.51345 0.02296 0.44876
 N72 N 0.50869 0.04553 0.46979
 C73 C -0.03298 0.06602 0.51898
 N74 N -0.05884 0.04915 0.51729
 C75 C -0.06426 0.02555 0.53715
 N76 N -0.04280 0.01875 0.55861
 C77 C -0.01673 0.03545 0.56064
 N78 N -0.01205 0.05936 0.54090
 C79 C 0.46842 0.56257 0.01600
 N80 N 0.48431 0.55936 0.04250
 C81 C 0.47837 0.53568 0.06212
 N82 N 0.45658 0.51488 0.05492
 C83 C 0.44035 0.51806 0.02864
 N84 N 0.44602 0.54216 0.00944
 C85 C 0.52741 -0.06050 0.02541
 N86 N 0.55373 -0.04410 0.02308
 C87 C 0.56231 -0.02479 0.04589
 N88 N 0.54452 -0.02192 0.07152
 C89 C 0.51866 -0.03883 0.07465
 N90 N 0.51026 -0.05764 0.05142
 C91 C 1.02064 0.44744 0.51084
 N92 N 1.04737 0.46311 0.50925
 C93 C 1.05497 0.48351 0.53140
 N94 N 1.03529 0.48889 0.55510
 C95 C 1.00836 0.47360 0.55698
 N96 N 1.00158 0.45234 0.53528
 C97 C 0.39436 0.01155 0.19957
 H98 H 0.37739 0.02946 0.19735
 C99 C 0.41411 0.00542 0.17489
 H100 H 0.41194 0.01842 0.15370
 C101 C 0.41827 -0.02707 0.22969
 H102 H 0.41972 -0.03959 0.25121
 C103 C 0.43878 -0.03358 0.20579
 H104 H 0.45620 -0.05103 0.20900
 N105 N 0.39636 -0.00512 0.22608
 C106 C 0.34800 0.06200 0.27315
 H107 H 0.36315 0.06089 0.29254
 C108 C 0.33074 0.08861 0.26825
 H109 H 0.33292 0.10792 0.28374
 C110 C 0.32558 0.03810 0.23003
 H111 H 0.32352 0.01813 0.21544
 C112 C 0.30794 0.06432 0.22424
 H113 H 0.29241 0.06464 0.20501
 Zn114 Zn 0.36949 0.00163 0.25982
 N115 N 0.34567 0.03767 0.25372
 C116 C 0.41510 0.02775 0.29618
 N117 N 0.39367 0.00522 0.29545
 C118 C 0.39055 -0.01532 0.31900
 C119 C 0.40890 -0.01310 0.34496
 C120 C 0.43363 0.03105 0.32189
 C121 C 0.34531 -0.05755 0.24690
 C122 C 0.32498 -0.08196 0.25080
 C123 C 0.29856 -0.05266 0.29012
 C124 C 0.31948 -0.02890 0.28563
 N125 N 0.34236 -0.03180 0.26443
 H126 H 0.41763 0.04327 0.27679
 H127 H 0.37412 -0.03368 0.31758
 H128 H 0.40644 -0.02975 0.36343
 H129 H 0.45035 0.04932 0.32239
 H130 H 0.36341 -0.05923 0.22992
 H131 H 0.32749 -0.10245 0.23688
 H132 H 0.28042 -0.05022 0.30707
 H133 H 0.31758 -0.00807 0.29907
 C134 C 0.31094 0.09013 0.24317
 C135 C 0.43628 -0.01776 0.17771
 C136 C 0.30133 -0.07947 0.27256
 C137 C 0.43031 0.01069 0.34681
 C138 C 0.07925 -0.01910 0.70615
 H139 H 0.07875 -0.04097 0.71813
 C140 C 0.06095 -0.01440 0.68042
 H141 H 0.04634 -0.03272 0.67251
 C142 C 0.09885 0.03153 0.70184
 H143 H 0.11318 0.04957 0.71058
 C144 C 0.08093 0.03719 0.67599
 H145 H 0.08179 0.05945 0.66472
 N146 N 0.09817 0.00349 0.71595
 C147 C 0.16696 -0.05020 0.76469
 H148 H 0.16501 -0.04033 0.78744
 C149 C 0.18848 -0.07330 0.75892
 H150 H 0.20269 -0.08166 0.77744
 C151 C 0.15128 -0.05091 0.71265
 H152 H 0.13729 -0.04159 0.69450
 C153 C 0.17288 -0.07365 0.70576
 H154 H 0.17508 -0.08203 0.68240
 Zn155 Zn 0.12279 -0.00580 0.75044
 N156 N 0.14876 -0.03964 0.74174
 C157 C 0.09615 -0.04175 0.79899
 N158 N 0.09628 -0.01412 0.78409
 C159 C 0.07706 0.00903 0.79272
 C160 C 0.05748 0.00532 0.81798
 C161 C 0.07698 -0.04640 0.82446
 C162 C 0.16783 0.03811 0.73768
 C163 C 0.18885 0.06116 0.74413
 C164 C 0.17160 0.06047 0.79711
 C165 C 0.15040 0.03791 0.78950
 N166 N 0.14885 0.02728 0.76015
 H167 H 0.11092 -0.06017 0.79126
 H168 H 0.07735 0.03060 0.78018
 H169 H 0.04262 0.02407 0.82497
 H170 H 0.07724 -0.06830 0.83646
 H171 H 0.16665 0.02873 0.71470
 H172 H 0.20332 0.07008 0.72583
 H173 H 0.17287 0.06845 0.82063
 H174 H 0.13580 0.02834 0.80725
 C175 C 0.19210 -0.08471 0.72896
 C176 C 0.06212 0.01384 0.66480
 C177 C 0.19136 0.07213 0.77432
 C178 C 0.05775 -0.02248 0.83439
 C179 C 0.57767 0.48497 0.20693
 H180 H 0.57815 0.46334 0.21934
 C181 C 0.55710 0.48931 0.18295
 H182 H 0.54189 0.47086 0.17663
 C183 C 0.59687 0.53549 0.19999
 H184 H 0.61201 0.55363 0.20699
 C185 C 0.57656 0.54085 0.17599
 H186 H 0.57644 0.56297 0.16440
 N187 N 0.59724 0.50780 0.21475
 C188 C 0.67177 0.45983 0.26116
 H189 H 0.67212 0.47218 0.28272
 C190 C 0.69316 0.43657 0.25544
 H191 H 0.70991 0.43080 0.27271
 C192 C 0.64994 0.45264 0.21203
 H193 H 0.63352 0.45937 0.19489
 C194 C 0.67096 0.42929 0.20534
 H195 H 0.67041 0.41797 0.18320
 Zn196 Zn 0.62376 0.50060 0.24820
 N197 N 0.65064 0.46733 0.23962
 C198 C 0.60140 0.46543 0.29928
 N199 N 0.59888 0.49218 0.28306
 C200 C 0.57767 0.51384 0.29075
 C201 C 0.55870 0.50961 0.31638
 C202 C 0.58273 0.46019 0.32502
 C203 C 0.66789 0.54456 0.23266
 C204 C 0.68584 0.57075 0.23620
 C205 C 0.66351 0.57787 0.28676
 C206 C 0.64599 0.55153 0.28228
 N207 N 0.64803 0.53582 0.25530
 H208 H 0.61775 0.44810 0.29227
 H209 H 0.57577 0.53461 0.27707
 H210 H 0.54218 0.52721 0.32253
 H211 H 0.58486 0.43886 0.33782
 H212 H 0.66945 0.53132 0.21167
 H213 H 0.70128 0.57776 0.21788
 H214 H 0.66159 0.59037 0.30821
 H215 H 0.63082 0.54375 0.30040
 C216 C 0.69308 0.42135 0.22706
 C217 C 0.55627 0.51766 0.16742
 C218 C 0.68331 0.58794 0.26332
 C219 C 0.56148 0.48272 0.33406
 C220 C 0.92681 0.49326 0.71940
 H221 H 0.93772 0.49677 0.74124
 C222 C 0.94477 0.49093 0.69280
 H223 H 0.96939 0.49226 0.69433
 C224 C 0.88166 0.48871 0.69018
 H225 H 0.85700 0.48839 0.68936
 C226 C 0.89880 0.48607 0.66301
 H227 H 0.88738 0.48357 0.64118
 N228 N 0.89584 0.49177 0.71772
 C229 C 0.81599 0.53089 0.75145
 H230 H 0.80480 0.50937 0.75660
 C231 C 0.79854 0.55769 0.74854
 H232 H 0.77402 0.55681 0.75175
 C233 C 0.86138 0.55870 0.74082
 H234 H 0.88594 0.55882 0.73799
 C235 C 0.84479 0.58601 0.73763
 H236 H 0.85652 0.60731 0.73237
 Zn237 Zn 0.87143 0.49642 0.75376
 N238 N 0.84690 0.53198 0.74819
 C239 C 0.89546 0.52798 0.80507
 N240 N 0.89662 0.50146 0.78853
 C241 C 0.91599 0.47816 0.79623
 C242 C 0.93654 0.48180 0.82029
 C243 C 0.91548 0.53250 0.82937
 C244 C 0.84526 0.43807 0.74014
 C245 C 0.82519 0.41360 0.74497
 C246 C 0.80927 0.43684 0.79298
 C247 C 0.82954 0.46093 0.78719
 N248 N 0.84650 0.46150 0.76078
 H249 H 0.87934 0.54587 0.79923
 H250 H 0.91607 0.45712 0.78302
 H251 H 0.95255 0.46355 0.82569
 H252 H 0.91495 0.55399 0.84191
 H253 H 0.85944 0.43847 0.71969
 H254 H 0.82371 0.39544 0.72807
 H255 H 0.79526 0.43696 0.81366
 H256 H 0.83126 0.47965 0.80340
 C257 C 0.81310 0.58557 0.74189
 C258 C 0.93067 0.48725 0.66433
 C259 C 0.80670 0.41319 0.77143
 C260 C 0.93671 0.50950 0.83665
 C261 C 0.21486 0.42611 0.00998
 H262 H 0.23051 0.42944 0.02875
 C263 C 0.19074 0.44672 0.00556
 H264 H 0.18771 0.46603 0.02098
 C265 C 0.19966 0.39692 -0.03322
 H266 H 0.20313 0.37737 -0.04815
 C267 C 0.17535 0.41702 -0.03853
 H268 H 0.16015 0.41296 -0.05758
 N269 N 0.21883 0.40183 -0.00933
 C270 C 0.26631 0.32899 0.04051
 H271 H 0.28589 0.32519 0.02563
 C272 C 0.26278 0.31156 0.06735
 H273 H 0.27964 0.29423 0.07313
 C274 C 0.22025 0.35597 0.05106
 H275 H 0.20363 0.37317 0.04456
 C276 C 0.21588 0.33908 0.07816
 H277 H 0.19599 0.34347 0.09251
 Zn278 Zn 0.25217 0.37501 -0.00301
 N279 N 0.24542 0.35103 0.03310
 C280 C 0.30610 0.39566 0.02647
 N281 N 0.28780 0.39946 0.00158
 C282 C 0.29364 0.42185 -0.01966
 C283 C 0.31950 0.44032 -0.01723
 C284 C 0.33200 0.41386 0.02997
 C285 C 0.24773 0.31846 -0.03487
 C286 C 0.24889 0.29900 -0.06035
 C287 C 0.26696 0.34161 -0.09128
 C288 C 0.26544 0.36026 -0.06526
 N289 N 0.25607 0.34851 -0.03766
 H290 H 0.30059 0.37881 0.04391
 H291 H 0.27790 0.42589 -0.03822
 H292 H 0.32399 0.45786 -0.03446
 H293 H 0.34621 0.41073 0.05000
 H294 H 0.23958 0.30962 -0.01305
 H295 H 0.24228 0.27512 -0.05787
 H296 H 0.27442 0.35125 -0.11311
 H297 H 0.27136 0.38421 -0.06736
 C298 C 0.23760 0.31698 0.08675
 C299 C 0.17093 0.44233 -0.01912
 C300 C 0.25834 0.31071 -0.08897
 C301 C 0.33928 0.43604 0.00758
 C302 C 0.70357 0.07432 -0.01217
 H303 H 0.71483 0.07361 -0.03443
 C304 C 0.67976 0.05405 -0.00555
 H305 H 0.67235 0.03804 -0.02295
 C306 C 0.69967 0.09587 0.03775
 H307 H 0.70791 0.11177 0.05476
 C308 C 0.67594 0.07577 0.04544
 H309 H 0.66576 0.07657 0.06824
 N310 N 0.71290 0.09484 0.00929
 C311 C 0.76247 0.16292 -0.04542
 H312 H 0.78336 0.16340 -0.03236
 C313 C 0.75946 0.18150 -0.07146
 H314 H 0.77805 0.19636 -0.07854
 C315 C 0.71264 0.14307 -0.05202
 H316 H 0.69431 0.12841 -0.04409
 C317 C 0.70870 0.16124 -0.07832
 H318 H 0.68741 0.16040 -0.09072
 Zn319 Zn 0.74691 0.11968 -0.00108
 N320 N 0.73943 0.14392 -0.03646
 C321 C 0.79060 0.08904 -0.03838
 N322 N 0.77992 0.09254 -0.00909
 C323 C 0.79097 0.07514 0.01443
 C324 C 0.81422 0.05370 0.00902
 C325 C 0.81336 0.06740 -0.04491
 C326 C 0.73376 0.16784 0.03927
 C327 C 0.73934 0.19017 0.06149
 C328 C 0.79075 0.17046 0.06611
 C329 C 0.78417 0.14841 0.04386
 N330 N 0.75597 0.14740 0.03106
 H331 H 0.78094 0.10243 -0.05692
 H332 H 0.78165 0.07793 0.03740
 H333 H 0.82321 0.04036 0.02802
 H334 H 0.82133 0.06452 -0.06840
 H335 H 0.71172 0.16687 0.02833
 H336 H 0.72147 0.20625 0.06793
 H337 H 0.81333 0.17126 0.07599
 H338 H 0.80184 0.13267 0.03638
 C339 C 0.73247 0.18043 -0.08837
 C340 C 0.66605 0.05430 0.02375
 C341 C 0.76827 0.19184 0.07482
 C342 C 0.82519 0.04919 -0.02109
 C343 C 0.20546 0.57522 0.48471
 H344 H 0.21827 0.57471 0.46330
 C345 C 0.18046 0.55580 0.48894
 H346 H 0.17377 0.54051 0.47061
 C347 C 0.19847 0.59578 0.53475
 H348 H 0.20581 0.61101 0.55275
 C349 C 0.17347 0.57659 0.54002
 H350 H 0.16150 0.57741 0.56193
 N351 N 0.21369 0.59501 0.50730
 C352 C 0.26410 0.66725 0.45882
 H353 H 0.28455 0.66790 0.47254
 C354 C 0.26107 0.68700 0.43358
 H355 H 0.27925 0.70286 0.42775
 C356 C 0.21535 0.64587 0.44966
 H357 H 0.19737 0.63020 0.45624
 C358 C 0.21141 0.66517 0.42422
 H359 H 0.19053 0.66407 0.41115
 Zn360 Zn 0.24816 0.62028 0.50004
 N361 N 0.24167 0.64680 0.46599
 C362 C 0.29724 0.59497 0.46492
 N363 N 0.28174 0.59375 0.49220
 C364 C 0.28875 0.57238 0.51402
 C365 C 0.31244 0.55134 0.50897
 C366 C 0.32107 0.57434 0.45891
 C367 C 0.23332 0.66610 0.54242
 C368 C 0.23691 0.68516 0.56787
 C369 C 0.28646 0.66211 0.57622
 C370 C 0.28185 0.64334 0.55068
 N371 N 0.25539 0.64535 0.53466
 H372 H 0.29091 0.61158 0.44755
 H373 H 0.27577 0.57164 0.53533
 H374 H 0.31794 0.53450 0.52653
 H375 H 0.33319 0.57540 0.43709
 H376 H 0.21276 0.66759 0.52891
 H377 H 0.21904 0.70136 0.57402
 H378 H 0.30763 0.66046 0.58878
 H379 H 0.29949 0.62735 0.54363
 C380 C 0.23468 0.68563 0.41573
 C381 C 0.16437 0.55622 0.51700
 C382 C 0.26357 0.68294 0.58529
 C383 C 0.32863 0.55206 0.48099
 C384 C 0.72281 0.93350 0.49644
 H385 H 0.74484 0.94401 0.49949
 C386 C 0.69752 0.95212 0.49046
 H387 H 0.70013 0.97688 0.48930
 C388 C 0.69243 0.88862 0.49315
 H389 H 0.69079 0.86379 0.49403
 C390 C 0.66653 0.90641 0.48709
 H391 H 0.64478 0.89532 0.48348
 N392 N 0.71981 0.90236 0.49793
 C393 C 0.77201 0.83366 0.54896
 H394 H 0.79185 0.83143 0.53411
 C395 C 0.76973 0.81592 0.57572
 H396 H 0.78765 0.79962 0.58122
 C397 C 0.72420 0.85728 0.55963
 H398 H 0.70669 0.87368 0.55345
 C399 C 0.72125 0.84037 0.58689
 H400 H 0.70128 0.84362 0.60142
 Zn401 Zn 0.75431 0.87696 0.50479
 N402 N 0.74920 0.85346 0.54119
 C403 C 0.78904 0.91976 0.53583
 N404 N 0.78921 0.90170 0.51033
 C405 C 0.81317 0.90185 0.49014
 C406 C 0.83766 0.92180 0.49462
 C407 C 0.81300 0.93999 0.54116
 C408 C 0.75686 0.81983 0.47312
 C409 C 0.75885 0.80099 0.44724
 C410 C 0.76385 0.84649 0.41544
 C411 C 0.76180 0.86449 0.44194
 N412 N 0.75867 0.85098 0.47009
 H413 H 0.76984 0.91890 0.55166
 H414 H 0.81317 0.88689 0.47037
 H415 H 0.85635 0.92242 0.47812
 H416 H 0.81229 0.95487 0.56109
 H417 H 0.75338 0.80949 0.49549
 H418 H 0.75740 0.77624 0.44989
 H419 H 0.76657 0.85743 0.39314
 H420 H 0.76256 0.88931 0.44010
 C421 C 0.74428 0.81951 0.59523
 C422 C 0.66909 0.93852 0.48553
 C423 C 0.76215 0.81437 0.41803
 C424 C 0.83736 0.94133 0.52017
 C425 C 0.00831 0.21637 0.42143
 H426 H 0.02800 0.23121 0.42282
 C427 C 0.00564 0.19113 0.44121
 H428 H 0.02328 0.18653 0.45792
 C429 C -0.03878 0.20432 0.39808
 H430 H -0.05633 0.20982 0.38169
 C431 C -0.04233 0.17876 0.41741
 H432 H -0.06235 0.16441 0.41543
 N433 N -0.01325 0.22195 0.39976
 C434 C 0.03871 0.27057 0.32888
 H435 H 0.02405 0.29042 0.32578
 C436 C 0.06540 0.26764 0.31134
 H437 H 0.07115 0.28517 0.29448
 C438 C 0.04862 0.22308 0.35400
 H439 H 0.04176 0.20546 0.37019
 C440 C 0.07578 0.21947 0.33725
 H441 H 0.08984 0.19926 0.34096
 Zn442 Zn -0.00546 0.25544 0.37269
 N443 N 0.03103 0.24865 0.34997
 C444 C 0.02652 0.30418 0.40074
 N445 N -0.00130 0.29098 0.39723
 C446 C -0.02658 0.30251 0.41158
 C447 C -0.02481 0.32954 0.42870
 C448 C 0.02946 0.33073 0.41840
 C449 C -0.04688 0.23750 0.32641
 C450 C -0.06917 0.24204 0.30403
 C451 C -0.06922 0.29629 0.31582
 C452 C -0.04752 0.29063 0.33843
 N453 N -0.03702 0.26155 0.34358
 H454 H 0.04649 0.29404 0.39000
 H455 H -0.04829 0.29111 0.40898
 H456 H -0.04530 0.33902 0.43916
 H457 H 0.05178 0.34086 0.42128
 H458 H -0.03736 0.21478 0.33004
 H459 H -0.07737 0.22260 0.29103
 H460 H -0.07706 0.31962 0.31180
 H461 H -0.03845 0.30972 0.35118
 C462 C 0.08464 0.24220 0.31599
 C463 C -0.01953 0.17158 0.43870
 C464 C -0.08018 0.27186 0.29819
 C465 C 0.00340 0.34430 0.43176
 C466 C 0.00037 0.71097 0.07177
 H467 H -0.00535 0.73297 0.06174
 C468 C 0.00317 0.68536 0.05266
 H469 H 0.00016 0.68794 0.02807
 C470 C 0.01029 0.68018 0.11571
 H471 H 0.01209 0.67789 0.14030
 C472 C 0.01327 0.65399 0.09742
 H473 H 0.01799 0.63190 0.10804
 N474 N 0.00411 0.70810 0.10275
 C475 C -0.04043 0.75834 0.17732
 H476 H -0.02556 0.77802 0.17927
 C477 C -0.06491 0.75468 0.19780
 H478 H -0.06908 0.77174 0.21546
 C479 C -0.05355 0.71236 0.15149
 H480 H -0.04927 0.69614 0.13317
 C481 C -0.07813 0.70769 0.17163
 H482 H -0.09254 0.68773 0.16887
 Zn483 Zn -0.00144 0.74345 0.12821
 N484 N -0.03521 0.73728 0.15479
 C485 C -0.03610 0.79317 0.10394
 N486 N -0.00871 0.77832 0.10272
 C487 C 0.01370 0.78747 0.08281
 C488 C 0.00931 0.81297 0.06372
 C489 C -0.04154 0.81864 0.08502
 C490 C 0.04171 0.72850 0.17399
 C491 C 0.06738 0.73254 0.19228
 C492 C 0.07459 0.78254 0.16903
 C493 C 0.04898 0.77742 0.15094
 N494 N 0.03349 0.75036 0.15308
 H495 H -0.05388 0.78515 0.11936
 H496 H 0.03506 0.77492 0.08185
 H497 H 0.02742 0.82020 0.04819
 H498 H -0.06350 0.83017 0.08599
 H499 H 0.02810 0.70809 0.17698
 H500 H 0.07384 0.71476 0.20853
 H501 H 0.08662 0.80421 0.16715
 H502 H 0.04137 0.79537 0.13560
 C503 C -0.08378 0.72885 0.19528
 C504 C 0.00942 0.65648 0.06558
 C505 C 0.08445 0.75960 0.18944
 C506 C -0.01846 0.82904 0.06501
 C507 C 0.49864 0.21109 0.57323
 H508 H 0.49225 0.23256 0.56237
 C509 C 0.50320 0.18491 0.55524
 H510 H 0.50042 0.18629 0.53053
 C511 C 0.50972 0.18275 0.61860
 H512 H 0.51217 0.18222 0.64334
 C513 C 0.51440 0.15600 0.60147
 H514 H 0.52056 0.13474 0.61299
 N515 N 0.50180 0.20950 0.60432
 C516 C 0.44964 0.26101 0.67305
 H517 H 0.46292 0.28172 0.67566
 C518 C 0.42294 0.25719 0.69041
 H519 H 0.41674 0.27429 0.70744
 C520 C 0.44128 0.21382 0.64750
 H521 H 0.44830 0.19704 0.63056
 C522 C 0.41373 0.20979 0.66337
 H523 H 0.39990 0.18982 0.65856
 Zn524 Zn 0.49502 0.24474 0.62882
 N525 N 0.45875 0.23907 0.65264
 C526 C 0.46155 0.29201 0.59961
 N527 N 0.48986 0.27942 0.60273
 C528 C 0.51412 0.29022 0.58620
 C529 C 0.51029 0.31435 0.56522
 C530 C 0.45673 0.31612 0.57889
 C531 C 0.52800 0.25903 0.68384
 C532 C 0.55435 0.26417 0.70081
 C533 C 0.58456 0.24876 0.65672
 C534 C 0.55765 0.24465 0.64033
 N535 N 0.53002 0.25020 0.65385
 H536 H 0.44245 0.28284 0.61255
 H537 H 0.53634 0.27974 0.58881
 H538 H 0.52965 0.32259 0.55190
 H539 H 0.43401 0.32561 0.57618
 H540 H 0.50613 0.26229 0.69483
 H541 H 0.55234 0.27182 0.72443
 H542 H 0.60633 0.24385 0.64574
 H543 H 0.55880 0.23681 0.61676
 C544 C 0.40417 0.23168 0.68512
 C545 C 0.51082 0.15698 0.56947
 C546 C 0.58308 0.25955 0.68707
 C547 C 0.48119 0.32713 0.56110
 C548 C 0.47730 0.72343 0.92788
 H549 H 0.46847 0.74554 0.93515
 C550 C 0.47372 0.69768 0.94692
 H551 H 0.46221 0.70000 0.96896
 C552 C 0.50325 0.69334 0.89037
 H553 H 0.51475 0.69188 0.86828
 C554 C 0.50001 0.66700 0.90859
 H555 H 0.50895 0.64519 0.90047
 N556 N 0.49227 0.72087 0.90042
 C557 C 0.53389 0.74406 0.82210
 H558 H 0.51197 0.74161 0.81127
 C559 C 0.56046 0.74025 0.80451
 H560 H 0.55890 0.73544 0.78014
 C561 C 0.56297 0.75228 0.86698
 H562 H 0.56396 0.75662 0.89134
 C563 C 0.59009 0.74869 0.85023
 H564 H 0.61181 0.75047 0.86176
 Zn565 Zn 0.49885 0.75618 0.87581
 N566 N 0.53553 0.75051 0.85268
 C567 C 0.52063 0.78891 0.92686
 N568 N 0.50226 0.79111 0.90185
 C569 C 0.48606 0.81730 0.89607
 C570 C 0.48856 0.84274 0.91539
 C571 C 0.52377 0.81380 0.94677
 C572 C 0.44107 0.74285 0.85037
 C573 C 0.41717 0.74612 0.82953
 C574 C 0.44466 0.78780 0.80501
 C575 C 0.46796 0.78381 0.82631
 N576 N 0.46586 0.76153 0.84835
 H577 H 0.53241 0.76758 0.93176
 H578 H 0.47106 0.81860 0.87660
 H579 H 0.47574 0.86353 0.91047
 H580 H 0.53840 0.81175 0.96662
 H581 H 0.43987 0.72530 0.86804
 H582 H 0.39758 0.73108 0.83118
 H583 H 0.44660 0.80552 0.78750
 H584 H 0.48799 0.79825 0.82511
 C585 C 0.58889 0.74308 0.81856
 C586 C 0.48567 0.66922 0.93750
 C587 C 0.41912 0.76857 0.80635
 C588 C 0.50748 0.84098 0.94113
 C589 C 0.11748 0.21195 0.28045
 C590 C 0.14320 0.20808 0.26175
 C591 C 0.16534 0.23110 0.25953
 C592 C 0.16221 0.25803 0.27756
 C593 C 0.13632 0.26174 0.29711
 C594 C 0.11335 0.23878 0.29786
 C595 C 0.13481 0.28799 0.31594
 N596 N 0.15729 0.30931 0.31452
 N597 N 0.18134 0.30603 0.29584
 C598 C 0.18464 0.28111 0.27742
 H599 H 0.10033 0.19407 0.28089
 H600 H 0.14549 0.18724 0.24830
 H601 H 0.11631 0.29159 0.33217
 H602 H 0.20498 0.27942 0.26323
 C603 C 0.62437 0.71121 0.78754
 C604 C 0.65086 0.70694 0.77008
 C605 C 0.67093 0.73138 0.76451
 C606 C 0.66459 0.76059 0.77768
 C607 C 0.63744 0.76500 0.79520
 C608 C 0.61730 0.73999 0.80017
 C609 C 0.63117 0.79452 0.80691
 N610 N 0.65141 0.81764 0.80235
 N611 N 0.67743 0.81324 0.78687
 C612 C 0.68476 0.78556 0.77448
 H613 H 0.60920 0.69189 0.79124
 H614 H 0.65540 0.68448 0.76026
 H615 H 0.61038 0.79951 0.81957
 H616 H 0.70647 0.78336 0.76268
 C617 C 0.36580 0.78241 0.79433
 C618 C 0.34196 0.78740 0.77395
 C619 C 0.34583 0.78212 0.74235
 C620 C 0.37472 0.77215 0.73101
 C621 C 0.39890 0.76672 0.75187
 C622 C 0.39434 0.77221 0.78372
 C623 C 0.42690 0.75571 0.74011
 N624 N 0.43069 0.75168 0.70939
 N625 N 0.40841 0.75789 0.68969
 C626 C 0.38066 0.76807 0.69938
 H627 H 0.36204 0.78680 0.81860
 H628 H 0.32010 0.79505 0.78302
 H629 H 0.44578 0.75018 0.75499
 H630 H 0.36380 0.77328 0.68215
 C631 C -0.13013 0.29332 0.28311
 C632 C -0.15299 0.29970 0.26210
 C633 C -0.15064 0.29014 0.23126
 C634 C -0.12273 0.27594 0.22117
 C635 C -0.09927 0.26967 0.24287
 C636 C -0.10349 0.27779 0.27423
 C637 C -0.07157 0.25687 0.23214
 N638 N -0.06753 0.25083 0.20185
 N639 N -0.08900 0.25732 0.18140
 C640 C -0.11611 0.26998 0.18985
 H641 H -0.13354 0.30021 0.30685
 H642 H -0.17344 0.31100 0.27071
 H643 H -0.05270 0.25232 0.24729
 H644 H -0.13128 0.27641 0.17158
 C645 C -0.13929 0.72288 0.20366
 C646 C -0.16509 0.71979 0.22230
 C647 C -0.16262 0.71850 0.25438
 C648 C -0.13330 0.71910 0.26791
 C649 C -0.10694 0.72203 0.24885
 C650 C -0.11014 0.72454 0.21647
 C651 C -0.07813 0.72139 0.26287
 N652 N -0.07605 0.71841 0.29385
 N653 N -0.10075 0.71570 0.31172
 C654 C -0.12924 0.71577 0.29984
 H655 H -0.14213 0.72451 0.17896
 H656 H -0.18730 0.71910 0.21159
 H657 H -0.05722 0.72270 0.24955
 H658 H -0.14828 0.71262 0.31549
 C659 C 0.37013 0.19817 0.71633
 C660 C 0.34495 0.19292 0.73529
 C661 C 0.32470 0.21686 0.74310
 C662 C 0.32824 0.24598 0.72815
 C663 C 0.35337 0.25085 0.70769
 C664 C 0.37538 0.22715 0.70310
 C665 C 0.35486 0.27890 0.69137
 N666 N 0.33316 0.30077 0.69576
 N667 N 0.30966 0.29630 0.71482
 C668 C 0.30624 0.26968 0.73082
 H669 H 0.38627 0.17952 0.71280
 H670 H 0.34269 0.17033 0.74569
 H671 H 0.37248 0.28341 0.67441
 H672 H 0.28561 0.26709 0.74430
 C673 C 0.61390 0.24975 0.73347
 C674 C 0.63954 0.25362 0.75160
 C675 C 0.66395 0.27216 0.74176
 C676 C 0.66259 0.28618 0.71209
 C677 C 0.63559 0.28360 0.69439
 C678 C 0.61128 0.26471 0.70502
 C679 C 0.63370 0.30055 0.66678
 N680 N 0.65809 0.31672 0.65637
 N681 N 0.68420 0.31719 0.67172
 C682 C 0.68737 0.30237 0.69901
 H683 H 0.59571 0.23506 0.74194
 H684 H 0.63987 0.24246 0.77393
 H685 H 0.61307 0.30133 0.65342
 H686 H 0.70950 0.30286 0.70959
 C687 C 0.10781 0.76270 0.24092
 C688 C 0.13211 0.76825 0.26047
 C689 C 0.16089 0.77607 0.24865
 C690 C 0.16561 0.77708 0.21632
 C691 C 0.14090 0.77107 0.19636
 C692 C 0.11160 0.76449 0.20889
 C693 C 0.14667 0.77093 0.16443
 N694 N 0.17509 0.77694 0.15342
 N695 N 0.19821 0.78274 0.17213
 C696 C 0.19451 0.78286 0.20314
 H697 H 0.08566 0.75750 0.25090
 H698 H 0.12823 0.76712 0.28511
 H699 H 0.12907 0.76560 0.14809
 H700 H 0.21435 0.78691 0.21708
 C701 C 0.26112 0.11673 0.23914
 C702 C 0.24309 0.14290 0.23523
 C703 C 0.25629 0.17167 0.22918
 C704 C 0.28861 0.17402 0.22750
 C705 C 0.30693 0.14718 0.23082
 C706 C 0.29296 0.11845 0.23720
 C707 C 0.33877 0.15000 0.22742
 N708 N 0.35139 0.17806 0.22262
 N709 N 0.33435 0.20343 0.22098
 C710 C 0.30350 0.20240 0.22340
 H711 H 0.25011 0.09495 0.24406
 H712 H 0.21851 0.14058 0.23664
 H713 H 0.35377 0.13022 0.22839
 H714 H 0.29112 0.22384 0.22262
 C715 C 0.78554 0.62463 0.71140
 C716 C 0.76837 0.65152 0.70863
 C717 C 0.76043 0.66898 0.73461
 C718 C 0.77105 0.65953 0.76398
 C719 C 0.78824 0.63191 0.76675
 C720 C 0.79529 0.61440 0.74022
 C721 C 0.79822 0.62286 0.79611
 N722 N 0.79189 0.64072 0.82087
 N723 N 0.77643 0.66703 0.81822
 C724 C 0.76595 0.67712 0.79069
 H725 H 0.79102 0.61150 0.69092
 H726 H 0.76066 0.65841 0.68600
 H727 H 0.81117 0.60189 0.79955
 H728 H 0.75433 0.69906 0.79002
 C729 C 0.79068 0.36435 0.79561
 C730 C 0.77040 0.34011 0.79973
 C731 C 0.74227 0.33925 0.78421
 C732 C 0.73360 0.36576 0.76645
 C733 C 0.75501 0.38987 0.76152
 C734 C 0.78378 0.38872 0.77589
 C735 C 0.74667 0.41503 0.74286
 N736 N 0.71821 0.41678 0.73117
 N737 N 0.69745 0.39530 0.73722
 C738 C 0.70394 0.37022 0.75467
 H739 H 0.81242 0.36364 0.80728
 H740 H 0.77778 0.32116 0.81416
 H741 H 0.76234 0.43360 0.73787
 H742 H 0.68524 0.35512 0.76014
 C743 C 0.28853 -0.13015 0.29461
 C744 C 0.26894 -0.15477 0.29968
 C745 C 0.23947 -0.15535 0.28691
 C746 C 0.22906 -0.12851 0.27073
 C747 C 0.24959 -0.10378 0.26505
 C748 C 0.27946 -0.10490 0.27698
 C749 C 0.23945 -0.07830 0.24781
 N750 N 0.21012 -0.07676 0.23844
 N751 N 0.19024 -0.09883 0.24539
 C752 C 0.19851 -0.12432 0.26142
 H753 H 0.31122 -0.13095 0.30430
 H754 H 0.27775 -0.17417 0.31262
 H755 H 0.25448 -0.05943 0.24197
 H756 H 0.18060 -0.14010 0.26769
 C757 C 0.20631 -0.13583 0.70852
 C758 C 0.22698 -0.15944 0.70252
 C759 C 0.25802 -0.15685 0.71019
 C760 C 0.26858 -0.12789 0.72143
 C761 C 0.24722 -0.10378 0.72750
 C762 C 0.21573 -0.10832 0.72187
 C763 C 0.25828 -0.07524 0.73772
 N764 N 0.28860 -0.07099 0.74133
 N765 N 0.30871 -0.09308 0.73486
 C766 C 0.29988 -0.12107 0.72469
 H767 H 0.18243 -0.13944 0.70344
 H768 H 0.21798 -0.18064 0.69331
 H769 H 0.24329 -0.05593 0.74209
 H770 H 0.31772 -0.13685 0.71799
 C771 C 0.70616 0.36729 0.21475
 C772 C 0.72687 0.34373 0.20819
 C773 C 0.75828 0.34948 0.20663
 C774 C 0.76893 0.38002 0.21067
 C775 C 0.74780 0.40400 0.21742
 C776 C 0.71621 0.39737 0.21989
 C777 C 0.75897 0.43415 0.22048
 N778 N 0.78922 0.43973 0.21710
 N779 N 0.80901 0.41732 0.21056
 C780 C 0.79994 0.38778 0.20703
 H781 H 0.68206 0.36194 0.21620
 H782 H 0.71830 0.32065 0.20480
 H783 H 0.74397 0.45343 0.22505
 H784 H 0.81705 0.37091 0.20080
 C785 C 0.73361 0.61275 0.26817
 C786 C 0.75224 0.63816 0.27260
 C787 C 0.73977 0.66772 0.27632
 C788 C 0.70766 0.67172 0.27443
 C789 C 0.68864 0.64571 0.27015
 C790 C 0.70185 0.61600 0.26737
 C791 C 0.65696 0.65048 0.26784
 N792 N 0.64526 0.67935 0.26963
 N793 N 0.66309 0.70376 0.27324
 C794 C 0.69381 0.70096 0.27549
 H795 H 0.74405 0.59022 0.26582
 H796 H 0.77668 0.63457 0.27374
 H797 H 0.64140 0.63165 0.26418
 H798 H 0.70705 0.72166 0.27730
 C799 C 0.20295 0.12296 0.79672
 C800 C 0.22191 0.14801 0.80149
 C801 C 0.25229 0.14808 0.79060
 C802 C 0.26461 0.12013 0.77842
 C803 C 0.24517 0.09442 0.77392
 C804 C 0.21372 0.09656 0.78176
 C805 C 0.25815 0.06686 0.76282
 N806 N 0.28848 0.06515 0.75677
 N807 N 0.30684 0.08889 0.76160
 C808 C 0.29609 0.11607 0.77252
 H809 H 0.17917 0.12482 0.80358
 H810 H 0.21175 0.16838 0.81169
 H811 H 0.24472 0.04635 0.75972
 H812 H 0.31260 0.13353 0.77779
 C813 C 0.20799 0.28045 0.11896
 C814 C 0.20377 0.26233 0.14517
 C815 C 0.22519 0.26245 0.16882
 C816 C 0.25074 0.28218 0.16665
 C817 C 0.25510 0.30065 0.13997
 C818 C 0.23374 0.29926 0.11571
 C819 C 0.28034 0.32054 0.13892
 N820 N 0.29985 0.32155 0.16291
 N821 N 0.29568 0.30428 0.18797
 C822 C 0.27174 0.28477 0.19073
 H823 H 0.19132 0.27936 0.10075
 H824 H 0.18394 0.24756 0.14672
 H825 H 0.28455 0.33563 0.11951
 H826 H 0.26900 0.27198 0.21194
 C827 C 0.71464 0.78259 0.62687
 C828 C 0.71061 0.76337 0.65226
 C829 C 0.73300 0.76112 0.67487
 C830 C 0.75957 0.77943 0.67245
 C831 C 0.76343 0.79954 0.64688
 C832 C 0.74099 0.80053 0.62353
 C833 C 0.78925 0.81869 0.64612
 N834 N 0.81003 0.81706 0.66900
 N835 N 0.80660 0.79786 0.69273
 C836 C 0.78206 0.77911 0.69532
 H837 H 0.69718 0.78314 0.60940
 H838 H 0.69003 0.74971 0.65403
 H839 H 0.79293 0.83532 0.62792
 H840 H 0.78021 0.76446 0.71542
 C841 C 0.78964 0.77496 0.38761
 C842 C 0.79337 0.75628 0.36189
 C843 C 0.77187 0.75658 0.33827
 C844 C 0.74638 0.77667 0.34035
 C845 C 0.74236 0.79543 0.36674
 C846 C 0.76441 0.79468 0.39039
 C847 C 0.71613 0.81415 0.36864
 N848 N 0.69611 0.81488 0.34506
 N849 N 0.70054 0.79818 0.31977
 C850 C 0.72502 0.77922 0.31657
 H851 H 0.80671 0.77417 0.40547
 H852 H 0.81308 0.74116 0.36056
 H853 H 0.71128 0.82813 0.38864
 H854 H 0.72782 0.76676 0.29530
 C855 C 0.28882 0.28545 -0.12974
 C856 C 0.29228 0.26565 -0.15459
 C857 C 0.26713 0.25030 -0.16687
 C858 C 0.23754 0.25639 -0.15466
 C859 C 0.23408 0.27645 -0.12913
 C860 C 0.26011 0.29055 -0.11629
 C861 C 0.20446 0.28237 -0.11778
 N862 N 0.18006 0.26910 -0.13121
 N863 N 0.18324 0.25057 -0.15535
 C864 C 0.21105 0.24391 -0.16764
 H865 H 0.30889 0.29632 -0.12038
 H866 H 0.31506 0.26151 -0.16363
 H867 H 0.20038 0.29776 -0.09868
 H868 H 0.21198 0.22956 -0.18785
 C869 C 0.72846 0.23191 -0.11218
 C870 C 0.72515 0.25156 -0.13729
 C871 C 0.72242 0.23994 -0.16719
 C872 C 0.72425 0.20762 -0.17185
 C873 C 0.72728 0.18759 -0.14611
 C874 C 0.72904 0.19998 -0.11608
 C875 C 0.72936 0.15573 -0.15140
 N876 N 0.72863 0.14479 -0.18054
 N877 N 0.72627 0.16354 -0.20471
 C878 C 0.72425 0.19450 -0.20142
 H879 H 0.73013 0.24171 -0.08937
 H880 H 0.72399 0.27612 -0.13320
 H881 H 0.73194 0.13943 -0.13274
 H882 H 0.72343 0.20840 -0.22203
 C883 C 0.22953 0.73759 0.39292
 C884 C 0.22494 0.75753 0.36821
 C885 C 0.22196 0.74626 0.33822
 C886 C 0.22523 0.71418 0.33291
 C887 C 0.22969 0.69386 0.35816
 C888 C 0.23128 0.70575 0.38841
 C889 C 0.23324 0.66224 0.35216
 N890 N 0.23245 0.65182 0.32283
 N891 N 0.22864 0.67088 0.29910
 C892 C 0.22520 0.70164 0.30308
 H893 H 0.23104 0.74702 0.41589
 H894 H 0.22281 0.78196 0.37270
 H895 H 0.23708 0.64573 0.37041
 H896 H 0.22319 0.71590 0.28279
 C897 C 0.26733 0.73521 0.60700
 C898 C 0.27243 0.75565 0.63092
 C899 C 0.27849 0.74496 0.66071
 C900 C 0.27802 0.71283 0.66674
 C901 C 0.27273 0.69196 0.64230
 C902 C 0.26797 0.70337 0.61208
 C903 C 0.27151 0.66031 0.64918
 N904 N 0.27557 0.65037 0.67848
 N905 N 0.28044 0.66991 0.70139
 C906 C 0.28163 0.70074 0.69659
 H907 H 0.26347 0.74433 0.58411
 H908 H 0.27252 0.78010 0.62589
 H909 H 0.26689 0.64338 0.63172
 H910 H 0.28474 0.71539 0.71631
 C911 C 0.78276 0.20614 0.12766
 C912 C 0.78876 0.22750 0.15057
 C913 C 0.78713 0.25917 0.14456
 C914 C 0.78036 0.26949 0.11433
 C915 C 0.77424 0.24767 0.09096
 C916 C 0.77503 0.21575 0.09795
 C917 C 0.76849 0.25857 0.06102
 N918 N 0.76873 0.28922 0.05506
 N919 N 0.77464 0.30967 0.07689
 C920 C 0.78064 0.30090 0.10620
 H921 H 0.78375 0.18184 0.13328
 H922 H 0.79422 0.21918 0.17342
 H923 H 0.76429 0.24309 0.04215
 H924 H 0.78615 0.31860 0.12255
 C925 C 0.46653 0.38064 0.54844
 C926 C 0.46143 0.40468 0.52783
 C927 C 0.46576 0.40056 0.49611
 C928 C 0.47445 0.37111 0.48489
 C929 C 0.47975 0.34664 0.50597
 C930 C 0.47611 0.35171 0.53801
 C931 C 0.48760 0.31753 0.49413
 N932 N 0.49000 0.31336 0.46331
 N933 N 0.48478 0.33621 0.44352
 C934 C 0.47691 0.36482 0.45320
 H935 H 0.46330 0.38473 0.57284
 H936 H 0.45453 0.42691 0.53679
 H937 H 0.49143 0.29790 0.50899
 H938 H 0.47207 0.38202 0.43591
 C939 C -0.02088 0.85170 0.01280
 C940 C -0.02608 0.87589 -0.00760
 C941 C -0.03440 0.90508 0.00319
 C942 C -0.03640 0.91029 0.03536
 C943 C -0.03085 0.88566 0.05618
 C944 C -0.02359 0.85599 0.04465
 C945 C -0.03181 0.89187 0.08794
 N946 N -0.03830 0.92068 0.09799
 N947 N -0.04356 0.94375 0.07849
 C948 C -0.04267 0.93962 0.04759
 H949 H -0.01509 0.82925 0.00362
 H950 H -0.02418 0.87162 -0.03210
 H951 H -0.02697 0.87431 0.10490
 H952 H -0.04630 0.95947 0.03302
 C953 C 0.04058 0.61418 0.04430
 C954 C 0.04535 0.58936 0.02479
 C955 C 0.02198 0.57830 0.00572
 C956 C -0.00801 0.59112 0.00953
 C957 C -0.01246 0.61707 0.02901
 C958 C 0.01231 0.62898 0.04581
 C959 C -0.04199 0.62966 0.03204
 N960 N -0.06572 0.61653 0.01743
 N961 N -0.06200 0.59141 0.00041
 C962 C -0.03424 0.57807 -0.00370
 H963 H 0.05955 0.62263 0.05762
 H964 H 0.06827 0.57996 0.02358
 H965 H -0.04664 0.64937 0.04646
 H966 H -0.03361 0.55663 -0.01596
 C967 C 0.54007 0.12783 0.53033
 C968 C 0.54512 0.10218 0.51183
 C969 C 0.52530 0.07702 0.51311
 C970 C 0.50046 0.07728 0.53422
 C971 C 0.49511 0.10351 0.55284
 C972 C 0.51519 0.12894 0.55079
 C973 C 0.46949 0.10352 0.57262
 N974 N 0.45128 0.07840 0.57434
 N975 N 0.45693 0.05337 0.55763
 C976 C 0.48092 0.05191 0.53773
 H977 H 0.55562 0.14709 0.52857
 H978 H 0.56425 0.10227 0.49582
 H979 H 0.46370 0.12321 0.58667
 H980 H 0.48480 0.03080 0.52523
 C981 C -0.04653 0.14169 0.47912
 C982 C -0.04969 0.11625 0.49850
 C983 C -0.02840 0.09214 0.49767
 C984 C -0.00398 0.09318 0.47610
 C985 C -0.00068 0.11910 0.45639
 C986 C -0.02201 0.14371 0.45829
 C987 C 0.02338 0.11899 0.43468
 N988 N 0.04274 0.09460 0.43308
 N989 N 0.03949 0.07021 0.45145
 C990 C 0.01672 0.06858 0.47273
 H991 H -0.06317 0.16015 0.48063
 H992 H -0.06875 0.11554 0.51457
 H993 H 0.02676 0.13777 0.41863
 H994 H 0.01460 0.04782 0.48630
 C995 C 0.45355 0.63143 0.96542
 C996 C 0.44945 0.60538 0.98375
 C997 C 0.47453 0.58884 0.99502
 C998 C 0.50450 0.59848 0.98688
 C999 C 0.50865 0.62547 0.96879
 C1000 C 0.48286 0.64179 0.95770
 C1001 C 0.53863 0.63545 0.96270
 N1002 N 0.56270 0.61855 0.97263
 N1003 N 0.55883 0.59243 0.98827
 C1004 C 0.53065 0.58175 0.99561
 H1005 H 0.43363 0.64361 0.95708
 H1006 H 0.42641 0.59839 0.98964
 H1007 H 0.54324 0.65655 0.95029
 H1008 H 0.52912 0.56006 1.00771
 C1009 C 0.53856 0.88243 0.96313
 C1010 C 0.54305 0.90720 0.98269
 C1011 C 0.51958 0.91797 1.00237
 C1012 C 0.48986 0.90468 0.99951
 C1013 C 0.48580 0.87864 0.98024
 C1014 C 0.51044 0.86755 0.96207
 C1015 C 0.45703 0.86441 0.97978
 N1016 N 0.43326 0.87682 0.99562
 N1017 N 0.43631 0.90256 1.01173
 C1018 C 0.46352 0.91706 1.01394
 H1019 H 0.55747 0.87445 0.94896
 H1020 H 0.56578 0.91685 0.98338
 H1021 H 0.45310 0.84362 0.96686
 H1022 H 0.46365 0.93872 1.02589
 C1023 C -0.00676 0.37369 0.47952
 C1024 C -0.00334 0.39915 0.49842
 C1025 C 0.01373 0.42484 0.48874
 C1026 C 0.02432 0.42597 0.45753
 C1027 C 0.02024 0.40005 0.43810
 C1028 C 0.00580 0.37320 0.44978
 C1029 C 0.02959 0.40237 0.40706
 N1030 N 0.04224 0.42872 0.39627
 N1031 N 0.04563 0.45316 0.41419
 C1032 C 0.03681 0.45287 0.44417
 H1033 H -0.01845 0.35368 0.48869
 H1034 H -0.01239 0.39762 0.52168
 H1035 H 0.02620 0.38390 0.39093
 H1036 H 0.03847 0.47421 0.45658
 C1037 C 0.38320 0.54135 0.47062
 C1038 C 0.40779 0.52158 0.46549
 C1039 C 0.40368 0.48964 0.46446
 C1040 C 0.37375 0.47748 0.46747
 C1041 C 0.34868 0.49768 0.47282
 C1042 C 0.35366 0.52983 0.47486
 C1043 C 0.31923 0.48503 0.47501
 N1044 N 0.31528 0.45427 0.47209
 N1045 N 0.33871 0.43535 0.46681
 C1046 C 0.36771 0.44587 0.46422
 H1047 H 0.38731 0.56588 0.47180
 H1048 H 0.43041 0.53132 0.46298
 H1049 H 0.29923 0.49928 0.47855
 H1050 H 0.38552 0.42941 0.45897
 C1051 C 0.87575 0.03585 -0.04316
 C1052 C 0.90004 0.01582 -0.04850
 C1053 C 0.89934 -0.01480 -0.03782
 C1054 C 0.87154 -0.02606 -0.02447
 C1055 C 0.84666 -0.00546 -0.01928
 C1056 C 0.84940 0.02601 -0.02767
 C1057 C 0.81922 -0.01735 -0.00708
 N1058 N 0.81677 -0.04776 -0.00067
 N1059 N 0.83965 -0.06722 -0.00618
 C1060 C 0.86665 -0.05760 -0.01817
 H1061 H 0.87799 0.05964 -0.05037
 H1062 H 0.92033 0.02520 -0.05940
 H1063 H 0.79933 -0.00303 -0.00335
 H1064 H 0.88322 -0.07510 -0.02387
 C1065 C 0.61274 0.04482 0.04063
 C1066 C 0.58780 0.02574 0.04611
 C1067 C 0.59026 -0.00617 0.04230
 C1068 C 0.61898 -0.01926 0.03441
 C1069 C 0.64451 0.00017 0.02915
 C1070 C 0.64102 0.03258 0.03144
 C1071 C 0.67293 -0.01366 0.02256
 N1072 N 0.67535 -0.04472 0.02087
 N1073 N 0.65139 -0.06292 0.02564
 C1074 C 0.62338 -0.05131 0.03248
 H1075 H 0.60973 0.06949 0.04278
 H1076 H 0.56608 0.03609 0.05239
 H1077 H 0.69337 -0.00018 0.01927
 H1078 H 0.60506 -0.06733 0.03693
 C1079 C 0.10934 0.55008 0.52841
 C1080 C 0.08304 0.53255 0.53206
 C1081 C 0.08405 0.50048 0.52922
 C1082 C 0.11255 0.48563 0.52398
 C1083 C 0.13941 0.50353 0.52041
 C1084 C 0.13755 0.53608 0.52200
 C1085 C 0.16744 0.48808 0.51627
 N1086 N 0.16833 0.45691 0.51544
 N1087 N 0.14317 0.44013 0.51881
 C1088 C 0.11540 0.45336 0.52321
 H1089 H 0.10757 0.57491 0.52999
 H1090 H 0.06152 0.54424 0.53633
 H1091 H 0.18874 0.50039 0.51419
 H1092 H 0.09604 0.43841 0.52670
 C1093 C 0.12172 0.46494 -0.00245
 C1094 C 0.09639 0.48386 -0.00683
 C1095 C 0.09400 0.50231 -0.03320
 C1096 C 0.11829 0.50271 -0.05497
 C1097 C 0.14392 0.48316 -0.05072
 C1098 C 0.14532 0.46388 -0.02438
 C1099 C 0.16775 0.48424 -0.07264
 N1100 N 0.16595 0.50381 -0.09695
 N1101 N 0.14213 0.52255 -0.10063
 C1102 C 0.11837 0.52280 -0.08039
 H1103 H 0.12264 0.45050 0.01792
 H1104 H 0.07818 0.48361 0.01023
 H1105 H 0.18796 0.47006 -0.07049
 H1106 H 0.10023 0.53926 -0.08387
 C1107 C 0.63200 0.97788 0.50231
 C1108 C 0.60670 0.99672 0.49801
 C1109 C 0.59025 0.99662 0.47026
 C1110 C 0.60202 0.97838 0.44533
 C1111 C 0.62745 0.95846 0.45031
 C1112 C 0.64212 0.95807 0.47917
 C1113 C 0.63835 0.94040 0.42570
 N1114 N 0.62544 0.94289 0.39763
 N1115 N 0.60276 0.96259 0.39240
 C1116 C 0.59097 0.98062 0.41498
 H1117 H 0.64345 0.97829 0.52429
 H1118 H 0.59935 1.01055 0.51742
 H1119 H 0.65743 0.92478 0.42826
 H1120 H 0.57429 0.99746 0.40823
 C1121 C 0.88705 0.95600 0.54162
 C1122 C 0.91034 0.97695 0.54675
 C1123 C 0.90926 1.00710 0.53456
 C1124 C 0.88212 1.01661 0.51892
 C1125 C 0.85889 0.99470 0.51302
 C1126 C 0.86168 0.96428 0.52431
 C1127 C 0.83298 1.00410 0.49650
 N1128 N 0.82969 1.03390 0.48792
 N1129 N 0.85037 1.05494 0.49505
 C1130 C 0.87612 1.04750 0.51050
 H1131 H 0.88903 0.93291 0.55095
 H1132 H 0.93000 0.96876 0.55933
 H1133 H 0.81511 0.98811 0.49067
 H1134 H 0.89061 1.06623 0.51709
 C1135 C 0.36219 0.48783 0.01160
 C1136 C 0.38656 0.50758 0.01657
 C1137 C 0.41596 0.49598 0.02148
 C1138 C 0.42121 0.46381 0.01986
 C1139 C 0.39644 0.44367 0.01434
 C1140 C 0.36653 0.45585 0.01102
 C1141 C 0.40269 0.41200 0.01150
 N1142 N 0.43163 0.40136 0.01460
 N1143 N 0.45480 0.42022 0.02002
 C1144 C 0.45063 0.45104 0.02261
 H1145 H 0.33957 0.49758 0.00889
 H1146 H 0.38225 0.53214 0.01749
 H1147 H 0.38501 0.39563 0.00631
 H1148 H 0.47045 0.46521 0.02624
 C1149 C 0.50984 0.47762 0.35689
 C1150 C 0.48982 0.47248 0.38142
 C1151 C 0.50074 0.46731 0.41119
 C1152 C 0.53262 0.46861 0.41651
 C1153 C 0.55304 0.47393 0.39146
 C1154 C 0.54145 0.47789 0.36133
 C1155 C 0.58443 0.47603 0.39764
 N1156 N 0.59454 0.47277 0.42685
 N1157 N 0.57541 0.46788 0.45034
 C1158 C 0.54485 0.46586 0.44623
 H1159 H 0.50060 0.48090 0.33407
 H1160 H 0.46555 0.47176 0.37694
 H1161 H 0.60101 0.48072 0.37967
 H1162 H 0.53052 0.46279 0.46636
 C1163 C 0.00621 -0.02675 0.85753
 C1164 C -0.01367 -0.03093 0.88238
 C1165 C -0.00259 -0.03488 0.91231
 C1166 C 0.02936 -0.03328 0.91734
 C1167 C 0.04961 -0.02933 0.89191
 C1168 C 0.03781 -0.02647 0.86178
 C1169 C 0.08110 -0.02750 0.89761
 N1170 N 0.09147 -0.02932 0.92684
 N1171 N 0.07250 -0.03254 0.95074
 C1172 C 0.04187 -0.03438 0.94705
 H1173 H -0.00313 -0.02423 0.83466
 H1174 H -0.03796 -0.03183 0.87805
 H1175 H 0.09756 -0.02424 0.87920
 H1176 H 0.02775 -0.03595 0.96748
 C1177 C 0.01158 0.01867 0.64051
 C1178 C -0.00727 0.02362 0.61536
 C1179 C 0.00498 0.02897 0.58588
 C1180 C 0.03718 0.02823 0.58166
 C1181 C 0.05640 0.02344 0.60742
 C1182 C 0.04335 0.01897 0.63708
 C1183 C 0.08817 0.02232 0.60243
 N1184 N 0.09978 0.02567 0.57359
 N1185 N 0.08180 0.02973 0.54940
 C1186 C 0.05099 0.03091 0.55242
 H1187 H 0.00127 0.01498 0.66299
 H1188 H -0.03176 0.02385 0.61913
 H1189 H 0.10389 0.01837 0.62106
 H1190 H 0.03773 0.03317 0.53182
 C1191 C 0.54725 0.52952 0.11261
 C1192 C 0.52848 0.53400 0.08735
 C1193 C 0.49669 0.53186 0.09029
 C1194 C 0.48351 0.52617 0.11975
 C1195 C 0.50271 0.52164 0.14555
 C1196 C 0.53488 0.52287 0.14171
 C1197 C 0.48896 0.51701 0.17460
 N1198 N 0.45813 0.51672 0.17745
 N1199 N 0.44013 0.52108 0.15331
 C1200 C 0.45171 0.52597 0.12466
 H1201 H 0.57176 0.53080 0.10934
 H1202 H 0.53895 0.53856 0.06510
 H1203 H 0.50234 0.51410 0.19517
 H1204 H 0.43586 0.53026 0.10627
 C1205 C 0.47495 -0.00095 0.13933
 C1206 C 0.49530 -0.00620 0.11510
 C1207 C 0.49890 -0.03564 0.10243
 C1208 C 0.48208 -0.06056 0.11538
 C1209 C 0.46034 -0.05489 0.13919
 C1210 C 0.45721 -0.02487 0.15159
 C1211 C 0.44207 -0.07952 0.14948
 N1212 N 0.44689 -0.10822 0.13832
 N1213 N 0.46865 -0.11395 0.11753
 C1214 C 0.48648 -0.09124 0.10583
 H1215 H 0.47294 0.02210 0.14857
 H1216 H 0.50789 0.01315 0.10572
 H1217 H 0.42386 -0.07631 0.16613
 H1218 H 0.50427 -0.09769 0.08975
 C1219 C 0.95534 0.45632 0.62348
 C1220 C 0.97396 0.45315 0.59752
 C1221 C 0.98713 0.47895 0.58319
 C1222 C 0.98014 0.50878 0.59467
 C1223 C 0.96154 0.51188 0.62143
 C1224 C 0.94937 0.48536 0.63594
 C1225 C 0.95530 0.54160 0.63259
 N1226 N 0.96645 0.56655 0.61749
 N1227 N 0.98323 0.56376 0.59193
 C1228 C 0.99029 0.53584 0.57991
 H1229 H 0.94597 0.43589 0.63432
 H1230 H 0.97876 0.43022 0.58900
 H1231 H 0.94142 0.54525 0.65299
 H1232 H 1.00317 0.53529 0.55862
 C1233 C 0.94967 0.51622 0.89137
 C1234 C 0.97014 0.52212 0.91488
 C1235 C 1.00115 0.52721 0.90848
 C1236 C 1.01151 0.52696 0.87741
 C1237 C 0.99069 0.52049 0.85349
 C1238 C 0.95959 0.51499 0.86071
 C1239 C 1.00157 0.52070 0.82290
 N1240 N 1.03124 0.52723 0.81681
 N1241 N 1.05064 0.53387 0.83917
 C1242 C 1.04176 0.53416 0.86914
 H1243 H 0.92587 0.51238 0.89714
 H1244 H 0.96170 0.52231 0.93839
 H1245 H 0.98675 0.51608 0.80375
 H1246 H 1.05823 0.54076 0.88603
 C1247 C 0.48181 0.01212 0.36940
 C1248 C 0.50174 0.01426 0.39400
 C1249 C 0.49079 0.01757 0.42423
 C1250 C 0.45875 0.01791 0.42967
 C1251 C 0.43843 0.01680 0.40444
 C1252 C 0.45018 0.01348 0.37408
 C1253 C 0.40692 0.01958 0.41050
 N1254 N 0.39653 0.02133 0.43993
 N1255 N 0.41548 0.02059 0.46366
 C1256 C 0.44614 0.01881 0.45955
 H1257 H 0.49121 0.00950 0.34639
 H1258 H 0.52601 0.01414 0.38916
 H1259 H 0.39042 0.02058 0.39222
 H1260 H 0.46021 0.01750 0.47969
   
