data_POSCAR
  _audit_creation_date              2014-09-24
  _audit_creation_method            'ToBaCCo'
  _symmetry_space_group_name_H-M    'P1'
  _symmetry_Int_Tables_number       1
  _symmetry_cell_setting            triclinic
  loop_
  _symmetry_equiv_pos_as_xyz
 x,y,z
_cell_length_a 79.7873
_cell_length_b 80.0270
_cell_length_c 83.7894
_cell_angle_alpha 90.016300
_cell_angle_beta 90.013800
_cell_angle_gamma 89.658000
loop_
  _atom_site_label
  _atom_site_type_symbol
  _atom_site_fract_x
  _atom_site_fract_y
  _atom_site_fract_z
C1 C 0.40390 0.01491 0.27612
 H2 H 0.39516 0.02488 0.27348
 C3 C 0.41338 0.01558 0.29012
 H4 H 0.41164 0.02607 0.29812
 C5 C 0.41680 -0.01071 0.26890
 H6 H 0.41793 -0.02101 0.26059
 C7 C 0.42657 -0.01054 0.28277
 H8 H 0.43517 -0.02078 0.28502
 N9 N 0.40541 0.00166 0.26606
 C10 C 0.40497 -0.01595 0.21986
 H11 H 0.39648 -0.02603 0.22245
 C12 C 0.41504 -0.01681 0.20624
 H13 H 0.41396 -0.02756 0.19846
 C14 C 0.41681 0.01009 0.22691
 H15 H 0.41738 0.02057 0.23505
 C16 C 0.42709 0.00975 0.21339
 H17 H 0.43552 0.02006 0.21124
 Zn18 Zn 0.39140 -0.00045 0.24778
 N19 N 0.40573 -0.00244 0.22968
 C20 C 0.37822 0.02851 0.23221
 N21 N 0.37717 0.01872 0.24546
 C22 C 0.36599 0.02236 0.25724
 C23 C 0.35594 0.03672 0.25634
 C24 C 0.36837 0.04295 0.23079
 C25 C 0.37853 -0.02912 0.26363
 C26 C 0.36895 -0.04359 0.26529
 C27 C 0.35708 -0.03834 0.23924
 C28 C 0.36686 -0.02392 0.23816
 N29 N 0.37763 -0.01979 0.25008
 H30 H 0.38675 0.02524 0.22271
 H31 H 0.36513 0.01424 0.26753
 H32 H 0.34740 0.03951 0.26603
 H33 H 0.36966 0.05065 0.22024
 H34 H 0.38671 -0.02543 0.27325
 H35 H 0.37021 -0.05075 0.27620
 H36 H 0.34890 -0.04135 0.22935
 H37 H 0.36608 -0.01612 0.22763
 C38 C 0.42613 -0.00373 0.20270
 C39 C 0.42467 0.00258 0.29377
 C40 C 0.35812 -0.04866 0.25290
 C41 C 0.35719 0.04739 0.24305
 C42 C 0.09477 0.01603 0.72013
 H43 H 0.10415 0.02552 0.72198
 C44 C 0.08454 0.01673 0.70660
 H45 H 0.08623 0.02686 0.69820
 C46 C 0.08147 -0.00879 0.72866
 H47 H 0.08047 -0.01881 0.73727
 C48 C 0.07102 -0.00860 0.71527
 H49 H 0.06200 -0.01852 0.71372
 N50 N 0.09330 0.00322 0.73069
 C51 C 0.10534 -0.00232 0.78139
 H52 H 0.11870 -0.00433 0.78086
 C53 C 0.09752 -0.00129 0.79624
 H54 H 0.10505 -0.00288 0.80689
 C55 C 0.07963 0.00314 0.76825
 H56 H 0.07277 0.00547 0.75736
 C57 C 0.07126 0.00424 0.78292
 H58 H 0.05799 0.00713 0.78306
 Zn59 Zn 0.10859 0.00148 0.74813
 N60 N 0.09643 0.00004 0.76774
 C61 C 0.11827 0.03276 0.76035
 N62 N 0.12218 0.02096 0.74924
 C63 C 0.13556 0.02289 0.73936
 C64 C 0.14569 0.03708 0.74056
 C65 C 0.12806 0.04706 0.76199
 C66 C 0.13629 -0.02010 0.75477
 C67 C 0.14651 -0.03427 0.75307
 C68 C 0.12912 -0.04320 0.73118
 C69 C 0.11923 -0.02890 0.73331
 N70 N 0.12268 -0.01781 0.74519
 H71 H 0.10749 0.03113 0.76798
 H72 H 0.13841 0.01335 0.73060
 H73 H 0.15632 0.03834 0.73263
 H74 H 0.12465 0.05620 0.77097
 H75 H 0.13940 -0.01082 0.76363
 H76 H 0.15715 -0.03586 0.76096
 H77 H 0.12591 -0.05188 0.72177
 H78 H 0.10880 -0.02678 0.72538
 C79 C 0.08030 0.00231 0.79719
 C80 C 0.07265 0.00414 0.70386
 C81 C 0.14288 -0.04617 0.74125
 C82 C 0.14203 0.04940 0.75207
 C83 C 0.59558 0.51635 0.22175
 H84 H 0.60419 0.52639 0.22414
 C85 C 0.58545 0.51703 0.20815
 H86 H 0.58657 0.52760 0.20017
 C87 C 0.58357 0.49053 0.22927
 H88 H 0.58297 0.48022 0.23759
 C89 C 0.57325 0.49068 0.21579
 H90 H 0.56474 0.48039 0.21386
 N91 N 0.59474 0.50304 0.23181
 C92 C 0.59620 0.48585 0.27822
 H93 H 0.60497 0.47587 0.27572
 C94 C 0.58649 0.48522 0.29208
 H95 H 0.58808 0.47474 0.30011
 C96 C 0.58345 0.51148 0.27079
 H97 H 0.58244 0.52175 0.26244
 C98 C 0.57349 0.51136 0.28452
 H99 H 0.56486 0.52162 0.28661
 Zn100 Zn 0.60900 0.50113 0.24994
 N101 N 0.59486 0.49909 0.26812
 C102 C 0.62169 0.52986 0.26581
 N103 N 0.62279 0.52044 0.25230
 C104 C 0.63379 0.52447 0.24052
 C105 C 0.64370 0.53879 0.24179
 C106 C 0.63136 0.54424 0.26757
 C107 C 0.63424 0.47812 0.25949
 C108 C 0.64424 0.46372 0.25853
 C109 C 0.63193 0.45775 0.23286
 C110 C 0.62215 0.47222 0.23434
 N111 N 0.62316 0.48190 0.24766
 H112 H 0.61333 0.52627 0.27530
 H113 H 0.63470 0.51664 0.23002
 H114 H 0.65217 0.54186 0.23215
 H115 H 0.63008 0.55158 0.27837
 H116 H 0.63508 0.48616 0.26984
 H117 H 0.65271 0.46082 0.26824
 H118 H 0.63066 0.45014 0.22224
 H119 H 0.61369 0.47561 0.22480
 C120 C 0.57516 0.49825 0.29555
 C121 C 0.57425 0.50395 0.20488
 C122 C 0.64302 0.45317 0.24515
 C123 C 0.64245 0.54902 0.25541
 C124 C 0.90393 0.51193 0.77917
 H125 H 0.89425 0.52115 0.77704
 C126 C 0.91339 0.51275 0.79317
 H127 H 0.91074 0.52273 0.80155
 C128 C 0.91875 0.48772 0.77093
 H129 H 0.92060 0.47786 0.76227
 C130 C 0.92854 0.48806 0.78478
 H131 H 0.93791 0.47839 0.78652
 N132 N 0.90644 0.49932 0.76856
 C133 C 0.89610 0.49241 0.71764
 H134 H 0.88291 0.48962 0.71796
 C135 C 0.90419 0.49348 0.70293
 H136 H 0.89705 0.49117 0.69217
 C137 C 0.92107 0.49968 0.73115
 H138 H 0.92748 0.50270 0.74213
 C139 C 0.92970 0.50087 0.71663
 H140 H 0.94274 0.50452 0.71667
 Zn141 Zn 0.89176 0.49720 0.75068
 N142 N 0.90450 0.49568 0.73141
 C143 C 0.88136 0.52803 0.73760
 N144 N 0.87776 0.51655 0.74905
 C145 C 0.86456 0.51882 0.75913
 C146 C 0.85445 0.53315 0.75791
 C147 C 0.87157 0.54245 0.73593
 C148 C 0.88162 0.46667 0.76532
 C149 C 0.87190 0.45236 0.76743
 C150 C 0.85443 0.46129 0.74552
 C151 C 0.86448 0.47548 0.74385
 N152 N 0.87802 0.47778 0.75347
 H153 H 0.89198 0.52615 0.72980
 H154 H 0.86194 0.50953 0.76815
 H155 H 0.84406 0.53473 0.76609
 H156 H 0.87480 0.55139 0.72676
 H157 H 0.89204 0.46878 0.77324
 H158 H 0.87519 0.44368 0.77684
 H159 H 0.84383 0.45970 0.73761
 H160 H 0.86130 0.48475 0.73496
 C161 C 0.92115 0.49806 0.70222
 C162 C 0.92569 0.50049 0.79639
 C163 C 0.85817 0.44940 0.75736
 C164 C 0.85791 0.54523 0.74618
 C165 C 0.22988 0.38882 1.00252
 H166 H 0.24173 0.39454 1.00538
 C167 C 0.21539 0.39874 1.00136
 H168 H 0.21626 0.41205 1.00347
 C169 C 0.21436 0.36464 0.99589
 H170 H 0.21410 0.35133 0.99367
 C171 C 0.19969 0.37409 0.99438
 H172 H 0.18816 0.36787 0.99113
 N173 N 0.22909 0.37206 0.99984
 C174 C 0.27970 0.36972 0.98874
 H175 H 0.27685 0.36261 0.97814
 C176 C 0.29504 0.37796 0.98981
 H177 H 0.30367 0.37717 0.97987
 C178 C 0.27220 0.37883 1.01466
 H179 H 0.26328 0.37891 1.02439
 C180 C 0.28749 0.38719 1.01629
 H181 H 0.29013 0.39379 1.02727
 Zn182 Zn 0.24833 0.35786 0.99986
 N183 N 0.26858 0.37033 1.00103
 C184 C 0.24700 0.32864 0.97998
 N185 N 0.24736 0.34564 0.98047
 C186 C 0.24551 0.35489 0.96698
 C187 C 0.24313 0.34713 0.95226
 C188 C 0.24468 0.32032 0.96544
 C189 C 0.23467 0.34402 1.02803
 C190 C 0.23462 0.33418 1.04178
 C191 C 0.26158 0.32289 1.03413
 C192 C 0.26109 0.33294 1.02046
 N193 N 0.24779 0.34328 1.01771
 H194 H 0.24814 0.32151 0.99088
 H195 H 0.24556 0.36839 0.96774
 H196 H 0.24155 0.35485 0.94175
 H197 H 0.24425 0.30681 0.96530
 H198 H 0.22434 0.35248 1.02580
 H199 H 0.22409 0.33517 1.04988
 H200 H 0.27238 0.31493 1.03620
 H201 H 0.27147 0.33274 1.01215
 C202 C 0.29919 0.38678 1.00376
 C203 C 0.20005 0.39140 0.99709
 C204 C 0.24826 0.32353 1.04509
 C205 C 0.24254 0.32961 0.95133
 C206 C 0.77533 0.11622 1.01186
 H207 H 0.76735 0.11511 1.02224
 C208 C 0.79000 0.10659 1.01075
 H209 H 0.79308 0.09815 1.02044
 C210 C 0.78079 0.12856 0.98677
 H211 H 0.77712 0.13694 0.97728
 C212 C 0.79553 0.11920 0.98514
 H213 H 0.80295 0.12077 0.97443
 N214 N 0.77117 0.12721 1.00011
 C215 C 0.72253 0.12760 1.01769
 H216 H 0.72563 0.13621 1.02714
 C217 C 0.70819 0.11777 1.01912
 H218 H 0.70039 0.11915 1.02962
 C219 C 0.72904 0.11518 0.99280
 H220 H 0.73726 0.11421 0.98257
 C221 C 0.71476 0.10513 0.99372
 H222 H 0.71214 0.09650 0.98409
 Zn223 Zn 0.75144 0.14076 1.00225
 N224 N 0.73244 0.12646 1.00449
 C225 C 0.73661 0.15263 0.97329
 N226 N 0.74930 0.15468 0.98394
 C227 C 0.76128 0.16647 0.98160
 C228 C 0.76136 0.17608 0.96766
 C229 C 0.73625 0.16191 0.95917
 C230 C 0.74024 0.16615 1.02288
 C231 C 0.74022 0.17643 1.03638
 C232 C 0.76690 0.16443 1.04395
 C233 C 0.76636 0.15434 1.03035
 N234 N 0.75298 0.15509 1.02032
 H235 H 0.72694 0.14356 0.97550
 H236 H 0.77112 0.16799 0.99035
 H237 H 0.77134 0.18498 0.96581
 H238 H 0.72629 0.15972 0.95067
 H239 H 0.72986 0.16670 1.01458
 H240 H 0.72975 0.18484 1.03836
 H241 H 0.77755 0.16336 1.05190
 H242 H 0.77659 0.14582 1.02794
 C243 C 0.70396 0.10650 1.00694
 C244 C 0.80051 0.10810 0.99730
 C245 C 0.75358 0.17549 1.04727
 C246 C 0.74895 0.17358 0.95603
 C247 C 0.27338 0.61977 0.48299
 H248 H 0.26463 0.62000 0.47313
 C249 C 0.28855 0.61095 0.48156
 H250 H 0.29127 0.60431 0.47060
 C251 C 0.28060 0.62847 0.50909
 H252 H 0.27770 0.63558 0.51970
 C253 C 0.29576 0.61971 0.50824
 H254 H 0.30422 0.62013 0.51834
 N255 N 0.26967 0.62827 0.49663
 C256 C 0.21548 0.63489 0.50166
 H257 H 0.21523 0.64825 0.50365
 C258 C 0.20080 0.62566 0.50338
 H259 H 0.18929 0.63210 0.50654
 C260 C 0.23095 0.61039 0.49548
 H261 H 0.24280 0.60445 0.49271
 C262 C 0.21647 0.60067 0.49687
 H263 H 0.21733 0.58730 0.49504
 Zn264 Zn 0.24948 0.64111 0.49770
 N265 N 0.23019 0.62720 0.49785
 C266 C 0.23571 0.65505 0.46953
 N267 N 0.24890 0.65565 0.47978
 C268 C 0.26214 0.66588 0.47698
 C269 C 0.26246 0.67603 0.46337
 C270 C 0.23548 0.66501 0.45585
 C271 C 0.24665 0.64420 0.53056
 C272 C 0.24441 0.65199 0.54528
 C273 C 0.24608 0.67877 0.53212
 C274 C 0.24829 0.67042 0.51756
 N275 N 0.24855 0.65341 0.51707
 H276 H 0.22543 0.64667 0.47179
 H277 H 0.27258 0.66598 0.48523
 H278 H 0.27319 0.68397 0.46129
 H279 H 0.22488 0.66416 0.44784
 H280 H 0.24660 0.63070 0.52980
 H281 H 0.24282 0.64429 0.55579
 H282 H 0.24576 0.69230 0.53226
 H283 H 0.24946 0.67752 0.50666
 C284 C 0.20114 0.60829 0.50105
 C285 C 0.29998 0.61083 0.49433
 C286 C 0.24397 0.66952 0.54623
 C287 C 0.24903 0.67561 0.45252
 C288 C 0.72461 0.88632 0.50863
 H289 H 0.73380 0.88900 0.51772
 C290 C 0.71040 0.89657 0.50721
 H291 H 0.70871 0.90681 0.51551
 C292 C 0.71604 0.87031 0.48639
 H293 H 0.71826 0.86027 0.47807
 C294 C 0.70172 0.88026 0.48450
 H295 H 0.69313 0.87750 0.47487
 N296 N 0.72702 0.87319 0.49853
 C297 C 0.77724 0.86867 0.51450
 H298 H 0.77497 0.85846 0.52263
 C299 C 0.79197 0.87788 0.51600
 H300 H 0.80075 0.87464 0.52538
 C301 C 0.76877 0.88492 0.49228
 H302 H 0.75966 0.88755 0.48304
 C303 C 0.78345 0.89441 0.49329
 H304 H 0.78546 0.90435 0.48475
 Zn305 Zn 0.74629 0.85891 0.50110
 N306 N 0.76599 0.87225 0.50276
 C307 C 0.73596 0.83265 0.48068
 N308 N 0.74803 0.84433 0.48313
 C309 C 0.76091 0.84613 0.47266
 C310 C 0.76155 0.83653 0.45875
 C311 C 0.73612 0.82276 0.46692
 C312 C 0.74158 0.85402 0.53414
 C313 C 0.74258 0.84552 0.54865
 C314 C 0.74941 0.82025 0.53429
 C315 C 0.74833 0.82927 0.52000
 N316 N 0.74464 0.84592 0.52017
 H317 H 0.72590 0.83135 0.48924
 H318 H 0.77053 0.85528 0.47487
 H319 H 0.77172 0.83851 0.45042
 H320 H 0.72612 0.81390 0.46501
 H321 H 0.73905 0.86725 0.53417
 H322 H 0.74046 0.85242 0.55959
 H323 H 0.75282 0.80714 0.53390
 H324 H 0.75120 0.82308 0.50887
 C325 C 0.79533 0.89091 0.50527
 C326 C 0.69860 0.89350 0.49511
 C327 C 0.74684 0.82847 0.54890
 C328 C 0.74887 0.82487 0.45555
 C329 C 0.00731 0.27322 0.40650
 H330 H 0.01887 0.26619 0.40771
 C331 C 0.00325 0.28558 0.41756
 H332 H 0.01194 0.28822 0.42715
 C333 C -0.01809 0.27811 0.39249
 H334 H -0.02649 0.27494 0.38287
 C335 C -0.02259 0.29066 0.40320
 H336 H -0.03436 0.29723 0.40154
 N337 N -0.00325 0.26989 0.39420
 C338 C 0.02094 0.22377 0.39030
 H339 H 0.02951 0.22665 0.38073
 C340 C 0.02357 0.20951 0.39955
 H341 H 0.03418 0.20150 0.39685
 C342 C -0.00338 0.23067 0.40523
 H343 H -0.01394 0.23896 0.40720
 C344 C -0.00113 0.21675 0.41491
 H345 H -0.01015 0.21448 0.42430
 Zn346 Zn 0.00260 0.25238 0.38046
 N347 N 0.00742 0.23374 0.39308
 C348 C 0.03016 0.27197 0.37046
 N349 N 0.02099 0.25799 0.36779
 C350 C 0.02421 0.24772 0.35525
 C351 C 0.03737 0.25113 0.34492
 C352 C 0.04362 0.27577 0.36051
 C353 C -0.02412 0.23331 0.36818
 C354 C -0.03750 0.23017 0.35794
 C355 C -0.03169 0.25621 0.34440
 C356 C -0.01854 0.25889 0.35498
 N357 N -0.01521 0.24764 0.36670
 H358 H 0.02712 0.28014 0.38032
 H359 H 0.01649 0.23683 0.35332
 H360 H 0.03986 0.24262 0.33514
 H361 H 0.05100 0.28681 0.36291
 H362 H -0.02102 0.22439 0.37740
 H363 H -0.04470 0.21886 0.35948
 H364 H -0.03437 0.26551 0.33536
 H365 H -0.01104 0.27007 0.35400
 C366 C 0.01227 0.20566 0.41190
 C367 C -0.01181 0.29457 0.41588
 C368 C -0.04152 0.24181 0.34598
 C369 C 0.04738 0.26522 0.34760
 C370 C 0.00136 0.73137 0.09793
 H371 H 0.01223 0.73910 0.09591
 C372 C -0.00185 0.71792 0.08789
 H373 H 0.00676 0.71525 0.07823
 C374 C -0.02298 0.72554 0.11315
 H375 H -0.03122 0.72869 0.12293
 C376 C -0.02659 0.71184 0.10350
 H377 H -0.03758 0.70442 0.10604
 N378 N -0.00905 0.73478 0.11034
 C379 C 0.01602 0.77923 0.11057
 H380 H 0.02477 0.77601 0.11992
 C381 C 0.01999 0.79192 0.09989
 H382 H 0.03170 0.79852 0.10130
 C383 C -0.00968 0.77434 0.09719
 H384 H -0.02113 0.76724 0.09618
 C385 C -0.00618 0.78688 0.08618
 H386 H -0.01518 0.78956 0.07683
 Zn387 Zn -0.00375 0.75326 0.12300
 N388 N 0.00129 0.77092 0.10917
 C389 C 0.01836 0.75958 0.14770
 N390 N 0.01479 0.74845 0.13597
 C391 C 0.02423 0.73446 0.13370
 C392 C 0.03843 0.73164 0.14304
 C393 C 0.03233 0.75719 0.15739
 C394 C -0.03185 0.77212 0.13346
 C395 C -0.04555 0.77541 0.14333
 C396 C -0.03758 0.75158 0.15948
 C397 C -0.02424 0.74865 0.14915
 N398 N -0.02180 0.75871 0.13634
 H399 H 0.01048 0.77051 0.14929
 H400 H 0.02097 0.72564 0.12447
 H401 H 0.04606 0.72065 0.14083
 H402 H 0.03518 0.76644 0.16641
 H403 H -0.02946 0.78015 0.12337
 H404 H -0.05355 0.78598 0.14051
 H405 H -0.03924 0.74311 0.16943
 H406 H -0.01587 0.73818 0.15121
 C407 C 0.00877 0.79593 0.08755
 C408 C -0.01588 0.70784 0.09075
 C409 C -0.04879 0.76491 0.15649
 C410 C 0.04274 0.74323 0.15491
 C411 C 0.50272 0.22941 0.60379
 H412 H 0.51379 0.23697 0.60216
 C413 C 0.49909 0.21674 0.59300
 H414 H 0.50759 0.21447 0.58316
 C415 C 0.47826 0.22335 0.61873
 H416 H 0.47010 0.22615 0.62867
 C417 C 0.47422 0.21040 0.60830
 H418 H 0.46301 0.20317 0.61042
 N419 N 0.49245 0.23234 0.61642
 C420 C 0.51749 0.27720 0.61801
 H421 H 0.52654 0.27394 0.62709
 C422 C 0.52053 0.29070 0.60793
 H423 H 0.53191 0.29784 0.60944
 C424 C 0.49170 0.27185 0.60494
 H425 H 0.48049 0.26438 0.60393
 C426 C 0.49429 0.28511 0.59453
 H427 H 0.48489 0.28789 0.58558
 Zn428 Zn 0.49839 0.25012 0.62975
 N429 N 0.50312 0.26831 0.61650
 C430 C 0.52119 0.25495 0.65418
 N431 N 0.51719 0.24447 0.64204
 C432 C 0.52623 0.23035 0.63909
 C433 C 0.54037 0.22665 0.64823
 C434 C 0.53509 0.25164 0.66373
 C435 C 0.47266 0.27044 0.64238
 C436 C 0.45978 0.27452 0.65292
 C437 C 0.46462 0.24831 0.66658
 C438 C 0.47732 0.24467 0.65568
 N439 N 0.48090 0.25560 0.64378
 H440 H 0.51362 0.26599 0.65633
 H441 H 0.52262 0.22203 0.62956
 H442 H 0.54763 0.21552 0.64556
 H443 H 0.53825 0.26032 0.67316
 H444 H 0.47599 0.27913 0.63308
 H445 H 0.45318 0.28628 0.65147
 H446 H 0.46174 0.23931 0.67582
 H447 H 0.48432 0.23310 0.65664
 C448 C 0.50877 0.29485 0.59608
 C449 C 0.48477 0.20693 0.59529
 C450 C 0.45555 0.26332 0.66513
 C451 C 0.54500 0.23746 0.66065
 C452 C 0.50279 0.76760 0.89610
 H453 H 0.51342 0.75934 0.89778
 C454 C 0.50020 0.78092 0.90649
 H455 H 0.50903 0.78289 0.91611
 C456 C 0.47857 0.77506 0.88123
 H457 H 0.47017 0.77264 0.87141
 C458 C 0.47559 0.78867 0.89126
 H459 H 0.46492 0.79674 0.88896
 N460 N 0.49222 0.76513 0.88363
 C461 C 0.51566 0.71891 0.88114
 H462 H 0.52472 0.72188 0.87202
 C463 C 0.51801 0.70478 0.89064
 H464 H 0.52889 0.69690 0.88865
 C465 C 0.49039 0.72548 0.89475
 H466 H 0.47961 0.73360 0.89614
 C467 C 0.49231 0.71160 0.90457
 H468 H 0.48284 0.70909 0.91349
 Zn469 Zn 0.49744 0.74719 0.87015
 N470 N 0.50181 0.72866 0.88314
 C471 C 0.51998 0.74175 0.84549
 N472 N 0.51612 0.75234 0.85762
 C473 C 0.52501 0.76651 0.86025
 C474 C 0.53883 0.77019 0.85075
 C475 C 0.53360 0.74501 0.83561
 C476 C 0.47110 0.72793 0.85766
 C477 C 0.45803 0.72437 0.84721
 C478 C 0.46329 0.75054 0.83372
 C479 C 0.47618 0.75365 0.84452
 N480 N 0.47964 0.74250 0.85631
 H481 H 0.51248 0.73071 0.84356
 H482 H 0.52147 0.77495 0.86973
 H483 H 0.54593 0.78141 0.85315
 H484 H 0.53665 0.73628 0.82616
 H485 H 0.47435 0.71903 0.86685
 H486 H 0.45121 0.71282 0.84863
 H487 H 0.46051 0.75970 0.82457
 H488 H 0.48344 0.76498 0.84357
 C489 C 0.50610 0.70088 0.90237
 C490 C 0.48664 0.79184 0.90394
 C491 C 0.45391 0.73582 0.83514
 C492 C 0.54332 0.75931 0.83832
 C493 C -0.26214 0.66616 0.98028
 H494 H -0.27246 0.66717 0.98860
 C495 C -0.26188 0.67621 0.96664
 H496 H -0.27209 0.68492 0.96458
 C497 C -0.23646 0.65335 0.97287
 H498 H -0.22653 0.64450 0.97536
 C499 C -0.23568 0.66317 0.95911
 H500 H -0.22513 0.66159 0.95111
 N501 N -0.24976 0.65472 0.98293
 C502 C -0.26748 0.65409 1.02913
 H503 H -0.27745 0.64540 1.02669
 C504 C -0.26832 0.66413 1.04276
 H505 H -0.27899 0.66280 1.05063
 C506 C -0.24171 0.66634 1.02172
 H507 H -0.23134 0.66706 1.01343
 C508 C -0.24200 0.67662 1.03521
 H509 H -0.23173 0.68518 1.03710
 Zn510 Zn -0.25192 0.64075 1.00114
 N511 N -0.25410 0.65505 1.01915
 C512 C -0.22312 0.62790 1.01715
 N513 N -0.23267 0.62668 1.00373
 C514 C -0.22888 0.61531 0.99219
 C515 C -0.21467 0.60506 0.99362
 C516 C -0.20882 0.61792 1.01906
 C517 C -0.28066 0.62794 0.98524
 C518 C -0.29504 0.61822 0.98352
 C519 C -0.28948 0.60603 1.00933
 C520 C -0.27515 0.61596 1.01054
 N521 N -0.27120 0.62692 0.99874
 H522 H -0.22652 0.63659 1.02645
 H523 H -0.23681 0.61433 0.98177
 H524 H -0.21179 0.59628 0.98417
 H525 H -0.20136 0.61929 1.02977
 H526 H -0.27712 0.63630 0.97573
 H527 H -0.30245 0.61946 0.97275
 H528 H -0.29250 0.59762 1.01901
 H529 H -0.26727 0.61512 1.02103
 C530 C -0.25530 0.67542 1.04618
 C531 C -0.24865 0.67461 0.95569
 C532 C -0.29976 0.60721 0.99574
 C533 C -0.20431 0.60639 1.00715
 C534 C -0.25811 0.33331 0.52213
 H535 H -0.26815 0.33195 0.51355
 C536 C -0.25777 0.32373 0.53523
 H537 H -0.26760 0.31466 0.53704
 C538 C -0.23281 0.34717 0.52924
 H539 H -0.22317 0.35627 0.52695
 C540 C -0.23190 0.33690 0.54386
 H541 H -0.22153 0.33897 0.55196
 N542 N -0.24539 0.34566 0.51947
 C543 C -0.26329 0.34626 0.47329
 H544 H -0.27337 0.35494 0.47577
 C545 C -0.26410 0.33614 0.45971
 H546 H -0.27480 0.33735 0.45184
 C547 C -0.23727 0.33409 0.48057
 H548 H -0.22682 0.33341 0.48878
 C549 C -0.23753 0.32379 0.46709
 H550 H -0.22720 0.31522 0.46506
 Zn551 Zn -0.24785 0.35963 0.50125
 N552 N -0.24983 0.34533 0.48321
 C553 C -0.21924 0.37263 0.48527
 N554 N -0.22888 0.37389 0.49863
 C555 C -0.22539 0.38542 0.51007
 C556 C -0.21142 0.39582 0.50860
 C557 C -0.20515 0.38274 0.48333
 C558 C -0.27701 0.37186 0.51706
 C559 C -0.29157 0.38147 0.51887
 C560 C -0.28590 0.39437 0.49340
 C561 C -0.27143 0.38448 0.49210
 N562 N -0.26742 0.37327 0.50371
 H563 H -0.22240 0.36380 0.47604
 H564 H -0.23340 0.38643 0.52046
 H565 H -0.20878 0.40474 0.51798
 H566 H -0.19762 0.38133 0.47266
 H567 H -0.27344 0.36327 0.52640
 H568 H -0.29899 0.37988 0.52957
 H569 H -0.28885 0.40300 0.48385
 H570 H -0.26347 0.38560 0.48172
 C571 C -0.25098 0.32488 0.45631
 C572 C -0.24407 0.32575 0.54711
 C573 C -0.29638 0.39286 0.50688
 C574 C -0.20096 0.39445 0.49514
 C575 C 0.24080 -0.16738 0.02007
 H576 H 0.23032 -0.16804 0.01190
 C577 C 0.24117 -0.17713 0.03306
 H578 H 0.23090 -0.18563 0.03520
 C579 C 0.26720 -0.15515 0.02625
 H580 H 0.27730 -0.14667 0.02362
 C581 C 0.26820 -0.16570 0.04068
 H582 H 0.27907 -0.16441 0.04831
 N583 N 0.25411 -0.15576 0.01700
 C584 C 0.23673 -0.15342 -0.02972
 H585 H 0.22704 -0.14428 -0.02733
 C586 C 0.23607 -0.16284 -0.04374
 H587 H 0.22584 -0.16071 -0.05200
 C588 C 0.26175 -0.16722 -0.02192
 H589 H 0.27184 -0.16870 -0.01339
 C590 C 0.26156 -0.17696 -0.03578
 H591 H 0.27157 -0.18590 -0.03779
 Zn592 Zn 0.25202 -0.14148 -0.00108
 N593 N 0.24970 -0.15541 -0.01935
 C594 C 0.28099 -0.12921 -0.01697
 N595 N 0.27147 -0.12789 -0.00354
 C596 C 0.27549 -0.11680 0.00814
 C597 C 0.28990 -0.10699 0.00684
 C598 C 0.29547 -0.11965 -0.01877
 C599 C 0.22314 -0.12835 0.01467
 C600 C 0.20892 -0.11821 0.01644
 C601 C 0.21541 -0.10517 -0.00876
 C602 C 0.22951 -0.11559 -0.01004
 N603 N 0.23294 -0.12714 0.00143
 H604 H 0.27743 -0.13769 -0.02638
 H605 H 0.26759 -0.11573 0.01859
 H606 H 0.29296 -0.09845 0.01642
 H607 H 0.30290 -0.12110 -0.02949
 H608 H 0.22626 -0.13719 0.02394
 H609 H 0.20132 -0.11968 0.02705
 H610 H 0.21292 -0.09628 -0.01822
 H611 H 0.23765 -0.11460 -0.02031
 C612 C 0.24877 -0.17459 -0.04709
 C613 C 0.25555 -0.17616 0.04433
 C614 C 0.20470 -0.10648 0.00456
 C615 C 0.30022 -0.10845 -0.00670
 C616 C 0.23558 1.16866 0.47956
 H617 H 0.22516 1.16987 0.48775
 C618 C 0.23637 1.17894 0.46608
 H619 H 0.22648 1.18801 0.46403
 C620 C 0.26095 1.15520 0.47227
 H621 H 0.27048 1.14589 0.47465
 C622 C 0.26227 1.16525 0.45870
 H623 H 0.27287 1.16346 0.45081
 N624 N 0.24761 1.15685 0.48225
 C625 C 0.24124 1.14633 0.53316
 H626 H 0.23914 1.13305 0.53294
 C627 C 0.24226 1.15450 0.54782
 H628 H 0.24057 1.14732 0.55864
 C629 C 0.24697 1.17151 0.51944
 H630 H 0.24941 1.17801 0.50840
 C631 C 0.24806 1.18022 0.53391
 H632 H 0.25107 1.19339 0.53376
 Zn633 Zn 0.24549 1.14210 0.50003
 N634 N 0.24379 1.15479 0.51931
 C635 C 0.27662 1.13221 0.51301
 N636 N 0.26503 1.12838 0.50169
 C637 C 0.26731 1.11510 0.49176
 C638 C 0.28171 1.10507 0.49306
 C639 C 0.29111 1.12252 0.51476
 C640 C 0.21509 1.13134 0.48523
 C641 C 0.20083 1.12147 0.48327
 C642 C 0.20983 1.10468 0.50560
 C643 C 0.22396 1.11485 0.50710
 N644 N 0.22619 1.12815 0.49722
 H645 H 0.27474 1.14292 0.52067
 H646 H 0.25795 1.11231 0.48283
 H647 H 0.28327 1.09457 0.48504
 H648 H 0.30012 1.12591 0.52385
 H649 H 0.21717 1.14154 0.47710
 H650 H 0.19212 1.12445 0.47376
 H651 H 0.20831 1.09428 0.51373
 H652 H 0.23326 1.11194 0.51607
 C653 C 0.24603 1.17162 0.54839
 C654 C 0.24975 1.17717 0.45531
 C655 C 0.19791 1.10802 0.49365
 C656 C 0.29386 1.10872 0.50471
 C657 C 0.13239 0.47970 0.26347
 H658 H 0.13279 0.48875 0.27306
 C659 C 0.14150 0.46475 0.26474
 H660 H 0.14903 0.46250 0.27528
 C661 C 0.12161 0.47147 0.23836
 H662 H 0.11348 0.47386 0.22831
 C663 C 0.13063 0.45646 0.23906
 H664 H 0.12944 0.44762 0.22935
 N665 N 0.12261 0.48275 0.25048
 C666 C 0.11299 0.53668 0.25220
 H667 H 0.09953 0.53636 0.25373
 C668 C 0.12119 0.55201 0.25138
 H669 H 0.11392 0.56343 0.25242
 C670 C 0.13861 0.52208 0.24850
 H671 H 0.14528 0.51036 0.24714
 C672 C 0.14730 0.53722 0.24724
 H673 H 0.16069 0.53702 0.24516
 Zn674 Zn 0.10876 0.50222 0.25063
 N675 N 0.12174 0.52211 0.25092
 C676 C 0.09878 0.51112 0.28182
 N677 N 0.09525 0.50090 0.26931
 C678 C 0.08359 0.48861 0.27068
 C679 C 0.07486 0.48638 0.28503
 C680 C 0.09056 0.50916 0.29639
 C681 C 0.10497 0.50547 0.21811
 C682 C 0.09714 0.50754 0.20337
 C683 C 0.07030 0.50573 0.21658
 C684 C 0.07875 0.50372 0.23116
 N685 N 0.09580 0.50352 0.23162
 H686 H 0.10848 0.52040 0.28076
 H687 H 0.08137 0.48027 0.26075
 H688 H 0.06583 0.47638 0.28597
 H689 H 0.09384 0.51727 0.30625
 H690 H 0.11851 0.50555 0.21884
 H691 H 0.10503 0.50905 0.19296
 H692 H 0.05672 0.50587 0.21662
 H693 H 0.07164 0.50262 0.24207
 C694 C 0.13855 0.55245 0.24872
 C695 C 0.14060 0.45281 0.25247
 C696 C 0.07948 0.50776 0.20230
 C697 C 0.07853 0.49656 0.29821
 C698 C -0.12943 1.02249 0.26184
 H699 H -0.12948 1.01349 0.27147
 C700 C -0.13774 1.03785 0.26368
 H701 H -0.14429 1.04045 0.27472
 C702 C -0.12035 1.03017 0.23598
 H703 H -0.11325 1.02735 0.22533
 C704 C -0.12855 1.04558 0.23727
 H705 H -0.12775 1.05432 0.22743
 N706 N -0.12094 1.01894 0.24815
 C707 C -0.11485 0.96489 0.24254
 H708 H -0.10150 0.96462 0.24025
 C709 C -0.12418 0.95027 0.24101
 H710 H -0.11785 0.93879 0.23767
 C711 C -0.13921 0.98034 0.24943
 H712 H -0.14505 0.99214 0.25244
 C713 C -0.14900 0.96590 0.24828
 H714 H -0.16235 0.96676 0.25053
 Zn715 Zn -0.10831 0.99868 0.24689
 N716 N -0.12242 0.97956 0.24662
 C717 C -0.09509 0.98496 0.27535
 N718 N -0.09393 0.99791 0.26493
 C719 C -0.08352 1.01098 0.26782
 C720 C -0.07388 1.01143 0.28178
 C721 C -0.08572 0.98491 0.28940
 C722 C -0.10493 0.99607 0.21403
 C723 C -0.09699 0.99377 0.19938
 C724 C -0.07024 0.99523 0.21282
 C725 C -0.07877 0.99744 0.22730
 N726 N -0.09582 0.99782 0.22762
 H727 H -0.10361 0.97481 0.27298
 H728 H -0.08301 1.02125 0.25944
 H729 H -0.06591 1.02209 0.28399
 H730 H -0.08709 0.97455 0.29760
 H731 H -0.11848 0.99615 0.21467
 H732 H -0.10470 0.99227 0.18885
 H733 H -0.05668 0.99483 0.21292
 H734 H -0.07175 0.99850 0.23827
 C735 C -0.14151 0.95063 0.24388
 C736 C -0.13731 1.04969 0.25131
 C737 C -0.07936 0.99316 0.19855
 C738 C -0.07508 0.99836 0.29291
 C739 C 0.36131 0.52158 -0.25670
 H740 H 0.35841 0.51234 -0.26566
 C741 C 0.35140 0.53604 -0.25557
 H742 H 0.34123 0.53785 -0.26396
 C743 C 0.37747 0.53008 -0.23451
 H744 H 0.38742 0.52774 -0.22610
 C745 C 0.36786 0.54466 -0.23292
 H746 H 0.37082 0.55333 -0.22342
 N747 N 0.37438 0.51902 -0.24652
 C748 C 0.37852 0.46788 -0.26238
 H749 H 0.38889 0.46988 -0.27043
 C750 C 0.36942 0.45396 -0.26370
 H751 H 0.37261 0.44501 -0.27293
 C752 C 0.36246 0.47777 -0.24027
 H753 H 0.35987 0.48704 -0.23120
 C754 C 0.35210 0.46248 -0.24121
 H755 H 0.34205 0.46097 -0.23266
 Zn756 Zn 0.38841 0.49954 -0.24898
 N757 N 0.37476 0.48006 -0.25024
 C758 C 0.40187 0.48478 -0.22088
 N759 N 0.40330 0.49782 -0.23119
 C760 C 0.41495 0.50993 -0.22878
 C761 C 0.42522 0.50961 -0.21525
 C762 C 0.41191 0.48393 -0.20724
 C763 C 0.39269 0.50309 -0.28223
 C764 C 0.40104 0.50221 -0.29683
 C765 C 0.42686 0.49686 -0.28270
 C766 C 0.41798 0.49782 -0.26830
 N767 N 0.40114 0.50079 -0.26830
 H768 H 0.39271 0.47516 -0.22304
 H769 H 0.41599 0.52010 -0.23722
 H770 H 0.43412 0.51959 -0.21342
 H771 H 0.41027 0.47359 -0.19907
 H772 H 0.37931 0.50498 -0.28212
 H773 H 0.39387 0.50379 -0.30770
 H774 H 0.44017 0.49414 -0.28244
 H775 H 0.42449 0.49556 -0.25721
 C776 C 0.35533 0.45083 -0.25249
 C777 C 0.35476 0.54796 -0.24367
 C778 C 0.41833 0.49882 -0.29725
 C779 C 0.42361 0.49660 -0.20412
 C780 C 0.63342 -0.02411 -0.23688
 H781 H 0.63279 -0.01543 -0.22698
 C782 C 0.64170 -0.03866 -0.23526
 H783 H 0.64778 -0.04149 -0.22402
 C784 C 0.62547 -0.03030 -0.26365
 H785 H 0.61871 -0.02739 -0.27446
 C786 C 0.63473 -0.04629 -0.26255
 H787 H 0.63473 -0.05441 -0.27289
 N788 N 0.62503 -0.02004 -0.25160
 C789 C 0.61728 0.03377 -0.25706
 H790 H 0.60401 0.03363 -0.25968
 C791 C 0.62625 0.04861 -0.25862
 H792 H 0.61957 0.05976 -0.26236
 C793 C 0.64184 0.01912 -0.24934
 H794 H 0.64789 0.00753 -0.24598
 C795 C 0.65127 0.03380 -0.25045
 H796 H 0.66455 0.03322 -0.24780
 Zn797 Zn 0.61166 -0.00020 -0.25256
 N798 N 0.62514 0.01938 -0.25260
 C799 C 0.59778 0.01285 -0.22409
 N800 N 0.59729 -0.00015 -0.23452
 C801 C 0.58742 -0.01366 -0.23172
 C802 C 0.57762 -0.01449 -0.21788
 C803 C 0.58823 0.01253 -0.21015
 C804 C 0.60785 0.00288 -0.28544
 C805 C 0.59960 0.00522 -0.29995
 C806 C 0.57314 0.00266 -0.28621
 C807 C 0.58194 0.00040 -0.27189
 N808 N 0.59900 0.00055 -0.27178
 H809 H 0.60585 0.02336 -0.22640
 H810 H 0.58742 -0.02393 -0.24011
 H811 H 0.57006 -0.02545 -0.21577
 H812 H 0.58904 0.02296 -0.20196
 H813 H 0.62140 0.00327 -0.28499
 H814 H 0.60700 0.00720 -0.31061
 H815 H 0.55958 0.00269 -0.28603
 H816 H 0.57511 -0.00109 -0.26086
 C817 C 0.64355 0.04886 -0.25534
 C818 C 0.64246 -0.05067 -0.24883
 C819 C 0.58200 0.00529 -0.30048
 C820 C 0.57809 -0.00134 -0.20677
 C821 C 0.02981 0.23118 0.86751
 H822 H 0.02712 0.22266 0.87716
 C823 C 0.04256 0.22736 0.85671
 H824 H 0.04975 0.21596 0.85828
 C825 C 0.02358 0.25627 0.85361
 H826 H 0.01600 0.26746 0.85250
 C827 C 0.03609 0.25289 0.84248
 H828 H 0.03821 0.26171 0.83290
 N829 N 0.02082 0.24556 0.86588
 C830 C -0.02528 0.26932 0.86892
 H831 H -0.02225 0.27828 0.87810
 C832 C -0.03931 0.27191 0.85928
 H833 H -0.04709 0.28286 0.86121
 C834 C -0.01888 0.24413 0.85522
 H835 H -0.01083 0.23330 0.85382
 C836 C -0.03263 0.24631 0.84523
 H837 H -0.03517 0.23697 0.83621
 Zn838 Zn 0.00312 0.25095 0.87967
 N839 N -0.01561 0.25543 0.86688
 C840 C -0.00204 0.27305 0.90456
 N841 N 0.00847 0.26949 0.89227
 C842 C 0.02261 0.27848 0.88968
 C843 C 0.02634 0.29208 0.89943
 C844 C 0.00129 0.28640 0.91470
 C845 C -0.01628 0.22492 0.89254
 C846 C -0.01985 0.21206 0.90318
 C847 C 0.00683 0.21688 0.91605
 C848 C 0.00993 0.22958 0.90509
 N849 N -0.00149 0.23319 0.89355
 H850 H -0.01306 0.26548 0.90645
 H851 H 0.03098 0.27518 0.88004
 H852 H 0.03753 0.29926 0.89709
 H853 H -0.00737 0.28917 0.92430
 H854 H -0.02536 0.22827 0.88353
 H855 H -0.03162 0.20549 0.90208
 H856 H 0.01617 0.21403 0.92503
 H857 H 0.02145 0.23661 0.90575
 C858 C -0.04318 0.26022 0.84735
 C859 C 0.04586 0.23834 0.84403
 C860 C -0.00818 0.20785 0.91507
 C861 C 0.01556 0.29619 0.91208
 C862 C 0.48021 0.25115 0.14964
 H863 H 0.48822 0.26186 0.15135
 C864 C 0.46650 0.24874 0.15958
 H865 H 0.46396 0.25778 0.16890
 C866 C 0.47379 0.22656 0.13511
 H867 H 0.47676 0.21794 0.12559
 C868 C 0.45980 0.22374 0.14469
 H869 H 0.45201 0.21298 0.14236
 N870 N 0.48338 0.24031 0.13753
 C871 C 0.52886 0.26444 0.13580
 H872 H 0.52561 0.27322 0.12650
 C873 C 0.54269 0.26752 0.14550
 H874 H 0.55007 0.27863 0.14346
 C875 C 0.52325 0.23930 0.14974
 H876 H 0.51559 0.22829 0.15119
 C877 C 0.53688 0.24192 0.15977
 H878 H 0.53971 0.23275 0.16889
 Zn879 Zn 0.50169 0.24526 0.12449
 N880 N 0.51977 0.25030 0.13784
 C881 C 0.50763 0.26695 0.09941
 N882 N 0.49663 0.26347 0.11130
 C883 C 0.48243 0.27266 0.11346
 C884 C 0.47924 0.28652 0.10385
 C885 C 0.50488 0.28060 0.08944
 C886 C 0.52154 0.21835 0.11343
 C887 C 0.52536 0.20493 0.10346
 C888 C 0.49978 0.21044 0.08883
 C889 C 0.49638 0.22363 0.09918
 N890 N 0.50709 0.22715 0.11130
 H891 H 0.51869 0.25924 0.09787
 H892 H 0.47368 0.26943 0.12277
 H893 H 0.46808 0.29395 0.10597
 H894 H 0.51402 0.28341 0.08030
 H895 H 0.53009 0.22162 0.12289
 H896 H 0.53678 0.19786 0.10549
 H897 H 0.49093 0.20763 0.07942
 H898 H 0.48513 0.23108 0.09763
 C899 C 0.54698 0.25602 0.15749
 C900 C 0.45590 0.23507 0.15696
 C901 C 0.51433 0.20077 0.09106
 C902 C 0.49069 0.29076 0.09181
 C903 C -0.02219 0.75263 0.64785
 H904 H -0.01418 0.76333 0.64961
 C905 C -0.03455 0.74954 0.65809
 H906 H -0.03642 0.75792 0.66809
 C907 C -0.02843 0.72853 0.63214
 H908 H -0.02585 0.72036 0.62217
 C909 C -0.04253 0.72482 0.64291
 H910 H -0.05024 0.71406 0.64032
 N911 N -0.01938 0.74177 0.63447
 C912 C 0.02505 0.76751 0.63267
 H913 H 0.02168 0.77610 0.62324
 C914 C 0.03820 0.77140 0.64295
 H915 H 0.04499 0.78293 0.64122
 C916 C 0.02023 0.74212 0.64647
 H917 H 0.01307 0.73075 0.64772
 C918 C 0.03314 0.74557 0.65711
 H919 H 0.03600 0.73666 0.66645
 Zn920 Zn -0.00145 0.74748 0.62122
 N921 N 0.01657 0.75296 0.63449
 C922 C 0.00311 0.76939 0.59611
 N923 N -0.00731 0.76573 0.60842
 C924 C -0.02159 0.77464 0.61110
 C925 C -0.02555 0.78829 0.60146
 C926 C -0.00046 0.78279 0.58608
 C927 C 0.01932 0.72171 0.60931
 C928 C 0.02384 0.70910 0.59865
 C929 C -0.00213 0.71389 0.58442
 C930 C -0.00622 0.72628 0.59544
 N931 N 0.00442 0.72983 0.60762
 H932 H 0.01427 0.76192 0.59420
 H933 H -0.02982 0.77130 0.62081
 H934 H -0.03680 0.79548 0.60392
 H935 H 0.00817 0.78568 0.57651
 H936 H 0.02775 0.72501 0.61887
 H937 H 0.03569 0.70264 0.60026
 H938 H -0.01085 0.71113 0.57489
 H939 H -0.01784 0.73321 0.59426
 C940 C 0.04241 0.76031 0.65531
 C941 C -0.04572 0.73500 0.65539
 C942 C 0.01303 0.70506 0.58604
 C943 C -0.01484 0.79256 0.58884
 C944 C 0.52668 0.73273 0.36994
 H945 H 0.52406 0.72433 0.37969
 C946 C 0.54023 0.72948 0.35989
 H947 H 0.54805 0.71862 0.36211
 C948 C 0.51972 0.75709 0.35519
 H949 H 0.51163 0.76785 0.35353
 C950 C 0.53301 0.75425 0.34478
 H951 H 0.53516 0.76302 0.33517
 N952 N 0.51701 0.74655 0.36761
 C953 C 0.47039 0.76967 0.37009
 H954 H 0.47325 0.77877 0.37920
 C955 C 0.45615 0.77176 0.36062
 H956 H 0.44808 0.78248 0.36260
 C957 C 0.47733 0.74455 0.35653
 H958 H 0.48564 0.73391 0.35516
 C959 C 0.46336 0.74620 0.34674
 H960 H 0.46096 0.73668 0.33785
 Zn961 Zn 0.49902 0.75185 0.38109
 N962 N 0.48038 0.75601 0.36810
 C963 C 0.49358 0.77447 0.40569
 N964 N 0.50417 0.77056 0.39355
 C965 C 0.51841 0.77938 0.39090
 C966 C 0.52218 0.79314 0.40039
 C967 C 0.49694 0.78804 0.41557
 C968 C 0.47998 0.72537 0.39355
 C969 C 0.47680 0.71196 0.40367
 C970 C 0.50304 0.71739 0.41711
 C971 C 0.50576 0.73063 0.40665
 N972 N 0.49445 0.73411 0.39498
 H973 H 0.48249 0.76703 0.40765
 H974 H 0.52686 0.77580 0.38142
 H975 H 0.53346 0.80017 0.39798
 H976 H 0.48823 0.79111 0.42505
 H977 H 0.47094 0.72863 0.38448
 H978 H 0.46537 0.70491 0.40212
 H979 H 0.51240 0.71454 0.42608
 H980 H 0.51701 0.73803 0.40766
 C981 C 0.45238 0.75978 0.34892
 C982 C 0.54364 0.74045 0.34724
 C983 C 0.48853 0.70769 0.41548
 C984 C 0.51132 0.79765 0.41285
 Zr985 Zr 0.01715 -0.01245 1.02091
 O986 O 0.03166 -0.00486 1.04076
 O987 O 0.01691 -0.03847 1.02362
 O988 O 0.00483 -0.01711 1.04289
 O989 O 0.05016 -0.01072 0.99415
 O990 O -0.02179 -0.00762 1.03837
 O991 O 0.04252 -0.02017 1.01879
 O992 O 0.00070 -0.04748 1.00289
 O993 O -0.00727 -0.01870 1.01393
 O994 O 0.01857 -0.02046 0.99718
 O995 O 0.00284 0.00951 1.02387
 O996 O 0.02804 0.00754 1.00820
 Zr997 Zr -0.01031 0.01551 0.97910
 Zr998 Zr -0.02118 0.00346 1.01571
 Zr999 Zr 0.02812 -0.00040 0.98436
 Zr1000 Zr -0.00575 -0.02575 0.99001
 O1001 O 0.04807 0.01668 0.98168
 O1002 O -0.02844 -0.03784 0.99612
 O1003 O 0.00412 -0.00646 0.97592
 O1004 O -0.02091 -0.00442 0.99191
 O1005 O -0.01186 0.02372 1.00279
 O1006 O 0.01409 0.02157 0.98619
 C1007 C 0.00971 -0.04996 1.01541
 C1008 C 0.05326 -0.01820 1.00743
 C1009 C -0.01049 -0.01444 1.04719
 O1010 O -0.04229 -0.01238 1.01687
 O1011 O -0.04232 0.01628 1.00703
 O1012 O -0.03518 0.02464 0.98191
 C1013 C -0.04547 0.02375 0.99377
 O1014 O 0.02871 0.03140 1.03001
 Zr1015 Zr 0.01259 0.02886 1.00996
 O1016 O -0.01034 0.04153 0.97648
 O1017 O -0.02858 0.02157 1.03277
 O1018 O -0.00013 0.04384 1.02703
 O1019 O 0.03421 0.04248 1.00328
 O1020 O 0.00409 0.05067 0.99832
 C1021 C -0.00452 0.05311 0.98553
 O1022 O -0.02585 0.00815 0.95989
 O1023 O 0.03677 -0.01952 0.96890
 O1024 O 0.00145 0.01844 0.95654
 O1025 O 0.02775 0.00784 0.96064
 O1026 O 0.00696 -0.04211 0.97411
 O1027 O -0.01954 -0.02837 0.96845
 C1028 C 0.01638 0.01452 0.95181
 H1029 H 0.02580 -0.03043 0.99569
 H1030 H -0.03234 -0.00689 0.98801
 H1031 H 0.01907 0.03050 0.97958
 H1032 H 0.00266 0.01307 1.03519
 H1033 H -0.02750 -0.04961 0.99252
 H1034 H -0.04993 -0.00760 1.02503
 H1035 H -0.03973 0.01819 1.03680
 H1036 H 0.00499 0.05510 1.02680
 H1037 H 0.00123 -0.05306 0.97454
 H1038 H 0.04787 -0.01598 0.96484
 H1039 H 0.05583 0.01181 0.97368
 H1040 H 0.03272 0.05407 1.00723
 H1041 H -0.02336 -0.04007 0.96738
 H1042 H -0.02904 0.01844 0.95399
 H1043 H 0.03506 -0.01513 1.04659
 H1044 H 0.03018 0.04340 1.03249
 Zr1045 Zr 0.51496 0.48684 0.52305
 O1046 O 0.53060 0.49549 0.54169
 O1047 O 0.51303 0.46139 0.52842
 O1048 O 0.50302 0.48525 0.54567
 O1049 O 0.54688 0.48364 0.49526
 O1050 O 0.47719 0.49663 0.54095
 O1051 O 0.53978 0.47734 0.52095
 O1052 O 0.49514 0.45146 0.50941
 O1053 O 0.48982 0.48195 0.51756
 O1054 O 0.51467 0.47608 0.50029
 O1055 O 0.50259 0.51012 0.52412
 O1056 O 0.52675 0.50425 0.50784
 Zr1057 Zr 0.48789 0.51215 0.47937
 Zr1058 Zr 0.47783 0.50527 0.51738
 Zr1059 Zr 0.52504 0.49369 0.48500
 Zr1060 Zr 0.48967 0.47206 0.49455
 O1061 O 0.54575 0.50884 0.47899
 O1062 O 0.46647 0.46266 0.50287
 O1063 O 0.50027 0.48876 0.47813
 O1064 O 0.47639 0.49471 0.49460
 O1065 O 0.48813 0.52306 0.50209
 O1066 O 0.51301 0.51687 0.48493
 C1067 C 0.50461 0.44967 0.52174
 C1068 C 0.55018 0.47760 0.50914
 C1069 C 0.48808 0.48957 0.55004
 O1070 O 0.45540 0.49173 0.52075
 O1071 O 0.45759 0.51908 0.50816
 O1072 O 0.46377 0.52319 0.48187
 C1073 C 0.45419 0.52484 0.49420
 O1074 O 0.53059 0.53018 0.52684
 Zr1075 Zr 0.51323 0.52685 0.50787
 O1076 O 0.48959 0.53772 0.47422
 O1077 O 0.47285 0.52563 0.53283
 O1078 O 0.50275 0.54464 0.52382
 O1079 O 0.53546 0.53779 0.49888
 O1080 O 0.50576 0.54785 0.49449
 C1081 C 0.49666 0.54966 0.48193
 O1082 O 0.47120 0.50384 0.46142
 O1083 O 0.53197 0.47199 0.47206
 O1084 O 0.49900 0.51197 0.45631
 O1085 O 0.52362 0.49793 0.46039
 O1086 O 0.50041 0.45321 0.47990
 O1087 O 0.47447 0.46793 0.47411
 C1088 C 0.51277 0.50516 0.45137
 H1089 H 0.52114 0.46551 0.49967
 H1090 H 0.46461 0.49276 0.49139
 H1091 H 0.51834 0.52452 0.47719
 H1092 H 0.50319 0.51488 0.53501
 H1093 H 0.46632 0.45051 0.50062
 H1094 H 0.44858 0.49804 0.52862
 H1095 H 0.46162 0.52374 0.53752
 H1096 H 0.50877 0.55531 0.52223
 H1097 H 0.49412 0.44276 0.48182
 H1098 H 0.54303 0.47423 0.46714
 H1099 H 0.55270 0.50233 0.47139
 H1100 H 0.53509 0.54983 0.50162
 H1101 H 0.46999 0.45643 0.47441
 H1102 H 0.46849 0.51363 0.45460
 H1103 H 0.53351 0.48567 0.54839
 H1104 H 0.53324 0.54219 0.52793
 Zr1105 Zr 0.48350 1.01656 0.52153
 O1106 O 0.46886 1.00728 0.54061
 O1107 O 0.48359 1.04224 0.52625
 O1108 O 0.49564 1.01955 0.54389
 O1109 O 0.45076 1.01652 0.49443
 O1110 O 0.52228 1.01039 0.53893
 O1111 O 0.45811 1.02435 0.51968
 O1112 O 0.49993 1.05303 0.50644
 O1113 O 0.50801 1.02335 0.51536
 O1114 O 0.48238 1.02657 0.49849
 O1115 O 0.49778 0.99442 0.52296
 O1116 O 0.47278 0.99776 0.50713
 Zr1117 Zr 0.51147 0.99211 0.47801
 Zr1118 Zr 0.52190 1.00110 0.51555
 Zr1119 Zr 0.47306 1.00769 0.48399
 Zr1120 Zr 0.50679 1.03244 0.49207
 O1121 O 0.45350 0.99072 0.47904
 O1122 O 0.52931 1.04398 0.49959
 O1123 O 0.49718 1.01437 0.47641
 O1124 O 0.52189 1.01094 0.49243
 O1125 O 0.51270 0.98200 0.50102
 O1126 O 0.48697 0.98557 0.48427
 C1127 C 0.49074 1.05442 0.51900
 C1128 C 0.44746 1.02297 0.50815
 C1129 C 0.51094 1.01661 0.54809
 O1130 O 0.54305 1.01671 0.51814
 O1131 O 0.54316 0.98905 0.50616
 O1132 O 0.53622 0.98257 0.48047
 C1133 C 0.54640 0.98257 0.49245
 O1134 O 0.47166 0.97224 0.52697
 Zr1135 Zr 0.48816 0.97635 0.50746
 O1136 O 0.51146 0.96638 0.47335
 O1137 O 0.52903 0.98162 0.53127
 O1138 O 0.50047 0.95995 0.52359
 O1139 O 0.46670 0.96332 0.49935
 O1140 O 0.49698 0.95559 0.49444
 C1141 C 0.50566 0.95414 0.48157
 O1142 O 0.52727 1.00110 0.45966
 O1143 O 0.46409 1.02827 0.47051
 O1144 O 0.49999 0.99096 0.45515
 O1145 O 0.47424 1.00269 0.45949
 O1146 O 0.49423 1.04986 0.47713
 O1147 O 0.52110 1.03707 0.47116
 C1148 C 0.48554 0.99634 0.45036
 H1149 H 0.47510 1.03660 0.49771
 H1150 H 0.53338 1.01371 0.48887
 H1151 H 0.48208 0.97728 0.47686
 H1152 H 0.49783 0.98995 0.53397
 H1153 H 0.52838 1.05604 0.49700
 H1154 H 0.55056 1.01127 0.52603
 H1155 H 0.54012 0.98463 0.53570
 H1156 H 0.49531 0.94878 0.52244
 H1157 H 0.49969 1.06084 0.47860
 H1158 H 0.45315 1.02498 0.46593
 H1159 H 0.44588 0.99635 0.47138
 H1160 H 0.46814 0.95144 0.50242
 H1161 H 0.52468 1.04890 0.47106
 H1162 H 0.53058 0.99134 0.45304
 H1163 H 0.46534 1.01703 0.54714
 H1164 H 0.47002 0.96008 0.52845
 Zr1165 Zr -0.01483 0.51368 1.02329
 O1166 O -0.02939 0.50430 1.04239
 O1167 O -0.01468 0.53937 1.02813
 O1168 O -0.00260 0.51655 1.04562
 O1169 O -0.04769 0.51382 0.99634
 O1170 O 0.02394 0.50709 1.04063
 O1171 O -0.04023 0.52150 1.02160
 O1172 O 0.00159 0.55014 1.00825
 O1173 O 0.00966 0.52047 1.01704
 O1174 O -0.01607 0.52378 1.00030
 O1175 O -0.00056 0.49150 1.02454
 O1176 O -0.02562 0.49493 1.00887
 Zr1177 Zr 0.01287 0.48943 0.97953
 Zr1178 Zr 0.02353 0.49821 1.01708
 Zr1179 Zr -0.02548 0.50497 0.98576
 Zr1180 Zr 0.00832 0.52964 0.99378
 O1181 O -0.04509 0.48802 0.98088
 O1182 O 0.03089 0.54116 1.00117
 O1183 O -0.00141 0.51168 0.97808
 O1184 O 0.02340 0.50815 0.99400
 O1185 O 0.01426 0.47919 1.00249
 O1186 O -0.01159 0.48284 0.98587
 C1187 C -0.00753 0.55153 1.02085
 C1188 C -0.05092 0.52022 1.01009
 C1189 C 0.01266 0.51337 1.04984
 O1190 O 0.04455 0.51396 1.01985
 O1191 O 0.04489 0.48655 1.00741
 O1192 O 0.03759 0.47984 0.98186
 C1193 C 0.04797 0.48002 0.99369
 O1194 O -0.02666 0.46927 1.02856
 Zr1195 Zr -0.01026 0.47349 1.00900
 O1196 O 0.01286 0.46374 0.97475
 O1197 O 0.03085 0.47849 1.03244
 O1198 O 0.00211 0.45702 1.02503
 O1199 O -0.03175 0.46051 1.00092
 O1200 O -0.00145 0.45278 0.99585
 C1201 C 0.00717 0.45144 0.98293
 O1202 O 0.02859 0.49850 0.96116
 O1203 O -0.03451 0.52560 0.97239
 O1204 O 0.00128 0.48838 0.95671
 O1205 O -0.02446 0.50006 0.96123
 O1206 O -0.00431 0.54717 0.97900
 O1207 O 0.02248 0.53431 0.97278
 C1208 C -0.01320 0.49377 0.95202
 H1209 H -0.02334 0.53381 0.99959
 H1210 H 0.03485 0.51096 0.99039
 H1211 H -0.01651 0.47459 0.97844
 H1212 H -0.00047 0.48696 1.03553
 H1213 H 0.02995 0.55321 0.99861
 H1214 H 0.05213 0.50846 1.02763
 H1215 H 0.04194 0.48150 1.03688
 H1216 H -0.00305 0.44585 1.02383
 H1217 H 0.00120 0.55813 0.98047
 H1218 H -0.04548 0.52233 0.96784
 H1219 H -0.05275 0.49369 0.97328
 H1220 H -0.03028 0.44861 1.00389
 H1221 H 0.02607 0.54614 0.97268
 H1222 H 0.03187 0.48876 0.95449
 H1223 H -0.03288 0.51401 1.04899
 H1224 H -0.02833 0.45711 1.02996
 Zr1225 Zr -0.01311 0.48722 0.47872
 O1226 O -0.02693 0.49548 0.45861
 O1227 O -0.01344 0.46122 0.47583
 O1228 O -0.00029 0.48243 0.45695
 O1229 O -0.04680 0.48986 0.50466
 O1230 O 0.02623 0.49155 0.46206
 O1231 O -0.03866 0.48021 0.48020
 O1232 O 0.00183 0.45151 0.49698
 O1233 O 0.01099 0.48011 0.48621
 O1234 O -0.01534 0.47909 0.50235
 O1235 O 0.00170 0.50876 0.47638
 O1236 O -0.02395 0.50744 0.49136
 Zr1237 Zr 0.01370 0.51389 0.52149
 Zr1238 Zr 0.02537 0.50185 0.48504
 Zr1239 Zr -0.02484 0.49931 0.51513
 Zr1240 Zr 0.00865 0.47291 0.51004
 O1241 O -0.04443 0.51707 0.51753
 O1242 O 0.03115 0.46007 0.50419
 O1243 O -0.00122 0.49237 0.52408
 O1244 O 0.02428 0.49376 0.50875
 O1245 O 0.01607 0.52225 0.49793
 O1246 O -0.01035 0.52085 0.51390
 C1247 C -0.00694 0.44943 0.48426
 C1248 C -0.04966 0.48247 0.49130
 C1249 C 0.01508 0.48509 0.45290
 O1250 O 0.04595 0.48509 0.48398
 O1251 O 0.04668 0.51353 0.49453
 O1252 O 0.03868 0.52253 0.51926
 C1253 C 0.04942 0.52111 0.50781
 O1254 O -0.02368 0.53150 0.46990
 Zr1255 Zr -0.00805 0.52828 0.49023
 O1256 O 0.01417 0.53987 0.52441
 O1257 O 0.03380 0.52013 0.46870
 O1258 O 0.00526 0.54301 0.47350
 O1259 O -0.02946 0.54260 0.49666
 O1260 O 0.00084 0.54967 0.50215
 C1261 C 0.00909 0.55170 0.51520
 O1262 O 0.02870 0.50587 0.54092
 O1263 O -0.03444 0.48033 0.53010
 O1264 O 0.00147 0.51680 0.54385
 O1265 O -0.02491 0.50709 0.53900
 O1266 O -0.00475 0.45695 0.52564
 O1267 O 0.02196 0.46960 0.53180
 C1268 C -0.01361 0.51320 0.54821
 H1269 H -0.02283 0.46936 0.50360
 H1270 H 0.03554 0.49087 0.51291
 H1271 H -0.01530 0.52986 0.52051
 H1272 H 0.00224 0.51247 0.46512
 H1273 H 0.02984 0.44830 0.50763
 H1274 H 0.05396 0.48974 0.47613
 H1275 H 0.04494 0.51639 0.46483
 H1276 H 0.00034 0.55441 0.47372
 H1277 H 0.00071 0.44580 0.52525
 H1278 H -0.04556 0.48422 0.53391
 H1279 H -0.05252 0.51239 0.52528
 H1280 H -0.02759 0.55418 0.49289
 H1281 H 0.02552 0.45777 0.53281
 H1282 H 0.03193 0.51601 0.54698
 H1283 H -0.03040 0.48538 0.45261
 H1284 H -0.02499 0.54357 0.46758
 Zr1285 Zr 0.48921 -0.01527 -0.02345
 O1286 O 0.47282 -0.00565 -0.04112
 O1287 O 0.49125 -0.04038 -0.03020
 O1288 O 0.50040 -0.01549 -0.04651
 O1289 O 0.45833 -0.02016 0.00515
 O1290 O 0.52553 -0.00274 -0.04230
 O1291 O 0.46459 -0.02491 -0.02107
 O1292 O 0.50983 -0.05134 -0.01224
 O1293 O 0.51463 -0.02032 -0.01909
 O1294 O 0.49046 -0.02732 -0.00131
 O1295 O 0.50111 0.00814 -0.02358
 O1296 O 0.47771 0.00115 -0.00692
 Zr1297 Zr 0.51741 0.00764 0.02065
 Zr1298 Zr 0.52620 0.00306 -0.01797
 Zr1299 Zr 0.48040 -0.01070 0.01526
 Zr1300 Zr 0.51571 -0.03153 0.00336
 O1301 O 0.45970 0.00394 0.02280
 O1302 O 0.53866 -0.04039 -0.00631
 O1303 O 0.50549 -0.01587 0.02104
 O1304 O 0.52860 -0.00884 0.00413
 O1305 O 0.51619 0.01987 -0.00141
 O1306 O 0.49204 0.01252 0.01618
 C1307 C 0.49992 -0.05247 -0.02431
 C1308 C 0.45460 -0.02533 -0.00894
 C1309 C 0.51459 -0.00968 -0.05134
 O1310 O 0.54815 -0.01069 -0.02357
 O1311 O 0.54708 0.01545 -0.00851
 O1312 O 0.54131 0.01885 0.01798
 C1313 C 0.55076 0.02062 0.00559
 O1314 O 0.47260 0.02807 -0.02422
 Zr1315 Zr 0.49082 0.02381 -0.00614
 O1316 O 0.51567 0.03289 0.02714
 O1317 O 0.53073 0.02486 -0.03157
 O1318 O 0.50021 0.04258 -0.02155
 O1319 O 0.46884 0.03411 0.00429
 O1320 O 0.49866 0.04407 0.00795
 C1321 C 0.50823 0.04522 0.02024
 O1322 O 0.53471 -0.00173 0.03765
 O1323 O 0.47425 -0.03317 0.02718
 O1324 O 0.50696 0.00648 0.04395
 O1325 O 0.48269 -0.00793 0.04002
 O1326 O 0.50580 -0.05113 0.01747
 O1327 O 0.53187 -0.03679 0.02292
 C1328 C 0.49356 -0.00079 0.04901
 H1329 H 0.48415 -0.03793 -0.00104
 H1330 H 0.54050 -0.01099 0.00684
 H1331 H 0.48688 0.01971 0.02447
 H1332 H 0.49997 0.01362 -0.03412
 H1333 H 0.53903 -0.05266 -0.00474
 H1334 H 0.55470 -0.00379 -0.03112
 H1335 H 0.54172 0.02327 -0.03690
 H1336 H 0.49406 0.05309 -0.01917
 H1337 H 0.51210 -0.06148 0.01479
 H1338 H 0.46334 -0.03129 0.03256
 H1339 H 0.45315 -0.00305 0.03027
 H1340 H 0.46896 0.04630 0.00223
 H1341 H 0.53640 -0.04829 0.02187
 H1342 H 0.53758 0.00766 0.04487
 H1343 H 0.46981 -0.01508 -0.04823
 H1344 H 0.46959 0.04009 -0.02450
 Zr1345 Zr 0.51378 0.50870 -0.02139
 O1346 O 0.53167 0.49969 -0.03800
 O1347 O 0.50988 0.53319 -0.02943
 O1348 O 0.50357 0.50708 -0.04479
 O1349 O 0.54255 0.51785 0.00820
 O1350 O 0.47982 0.49179 -0.04115
 O1351 O 0.53742 0.52039 -0.01851
 O1352 O 0.48918 0.54308 -0.01309
 O1353 O 0.48782 0.51147 -0.01838
 O1354 O 0.51027 0.52176 0.00000
 O1355 O 0.50419 0.48426 -0.02087
 O1356 O 0.52584 0.49434 -0.00354
 Zr1357 Zr 0.48556 0.48558 0.02257
 Zr1358 Zr 0.47850 0.48714 -0.01661
 Zr1359 Zr 0.52090 0.50705 0.01785
 Zr1360 Zr 0.48452 0.52374 0.00336
 O1361 O 0.54245 0.49491 0.02708
 O1362 O 0.46133 0.52984 -0.00764
 O1363 O 0.49519 0.51012 0.02228
 O1364 O 0.47381 0.49998 0.00470
 O1365 O 0.48910 0.47231 0.00127
 O1366 O 0.51146 0.48289 0.01943
 C1367 C 0.49962 0.54459 -0.02469
 C1368 C 0.54668 0.52233 -0.00599
 C1369 C 0.49031 0.49965 -0.04997
 O1370 O 0.45557 0.49827 -0.02373
 O1371 O 0.45867 0.47298 -0.00741
 O1372 O 0.46268 0.47252 0.01956
 C1373 C 0.45440 0.46877 0.00682
 O1374 O 0.53443 0.46710 -0.01916
 Zr1375 Zr 0.51493 0.47057 -0.00218
 O1376 O 0.48911 0.46088 0.03027
 O1377 O 0.47690 0.46439 -0.02940
 O1378 O 0.50810 0.45022 -0.01699
 O1379 O 0.53719 0.46297 0.00968
 O1380 O 0.50831 0.45045 0.01262
 C1381 C 0.49811 0.44899 0.02442
 O1382 O 0.46683 0.49429 0.03849
 O1383 O 0.52424 0.53066 0.02878
 O1384 O 0.49483 0.48864 0.04616
 O1385 O 0.51766 0.50530 0.04259
 O1386 O 0.49182 0.54501 0.01672
 O1387 O 0.46699 0.52845 0.02195
 C1388 C 0.50721 0.49738 0.05143
 H1389 H 0.51556 0.53291 -0.00003
 H1390 H 0.46163 0.50114 0.00674
 H1391 H 0.51684 0.47663 0.02827
 H1392 H 0.50639 0.47841 -0.03108
 H1393 H 0.45971 0.54209 -0.00669
 H1394 H 0.45013 0.49035 -0.03117
 H1395 H 0.46606 0.46457 -0.03519
 H1396 H 0.51502 0.44045 -0.01378
 H1397 H 0.48471 0.55452 0.01323
 H1398 H 0.53498 0.53014 0.03470
 H1399 H 0.54793 0.50292 0.03441
 H1400 H 0.53832 0.45072 0.00825
 H1401 H 0.46152 0.53943 0.02017
 H1402 H 0.46445 0.48506 0.04605
 H1403 H 0.53415 0.50901 -0.04543
 H1404 H 0.53843 0.45537 -0.01878
 Zr1405 Zr 0.01143 1.01033 0.47729
 O1406 O 0.02789 1.00093 0.45958
 O1407 O 0.00921 1.03551 0.47074
 O1408 O 0.00023 1.01069 0.45426
 O1409 O 0.04237 1.01521 0.50584
 O1410 O -0.02480 0.99773 0.45834
 O1411 O 0.03590 1.02025 0.47972
 O1412 O -0.00957 1.04604 0.48874
 O1413 O -0.01401 1.01517 0.48172
 O1414 O 0.01013 1.02218 0.49953
 O1415 O -0.00030 0.98684 0.47700
 O1416 O 0.02307 0.99382 0.49366
 Zr1417 Zr -0.01657 0.98690 0.52125
 Zr1418 Zr -0.02541 0.99172 0.48264
 Zr1419 Zr 0.02037 1.00549 0.51592
 Zr1420 Zr -0.01514 1.02616 0.50427
 O1421 O 0.04115 0.99086 0.52330
 O1422 O -0.03823 1.03494 0.49484
 O1423 O -0.00474 1.01045 0.52178
 O1424 O -0.02788 1.00341 0.50485
 O1425 O -0.01532 0.97484 0.49910
 O1426 O 0.00883 0.98220 0.51673
 C1427 C 0.00034 1.04742 0.47672
 C1428 C 0.04595 1.02065 0.49180
 C1429 C -0.01392 1.00485 0.44937
 O1430 O -0.04743 1.00540 0.47709
 O1431 O -0.04626 0.97927 0.49202
 O1432 O -0.04046 0.97562 0.51847
 C1433 C -0.04994 0.97400 0.50607
 O1434 O 0.02830 0.96699 0.47622
 Zr1435 Zr 0.01008 0.97107 0.49433
 O1436 O -0.01462 0.96165 0.52761
 O1437 O -0.02982 0.96997 0.46892
 O1438 O 0.00078 0.95238 0.47877
 O1439 O 0.03211 0.96083 0.50470
 O1440 O 0.00232 0.95066 0.50827
 C1441 C -0.00719 0.94939 0.52060
 O1442 O -0.03396 0.99596 0.53832
 O1443 O 0.02647 1.02789 0.52800
 O1444 O -0.00617 0.98822 0.54459
 O1445 O 0.01811 1.00260 0.54064
 O1446 O -0.00533 1.04581 0.51841
 O1447 O -0.03116 1.03111 0.52401
 C1448 C 0.00721 0.99555 0.54964
 H1449 H 0.01634 1.03284 0.49988
 H1450 H -0.03978 1.00549 0.50757
 H1451 H 0.01404 0.97499 0.52499
 H1452 H 0.00086 0.98145 0.46641
 H1453 H -0.03869 1.04719 0.49654
 H1454 H -0.05394 0.99852 0.46949
 H1455 H -0.04080 0.97153 0.46359
 H1456 H 0.00696 0.94188 0.48109
 H1457 H -0.01176 1.05609 0.51583
 H1458 H 0.03740 1.02601 0.53336
 H1459 H 0.04769 0.99782 0.53082
 H1460 H 0.03204 0.94864 0.50260
 H1461 H -0.03582 1.04256 0.52308
 H1462 H -0.03673 0.98648 0.54547
 H1463 H 0.03082 1.01042 0.45252
 H1464 H 0.03140 0.95499 0.47590
 Zr1465 Zr 0.74118 0.26569 0.22988
 O1466 O 0.74982 0.28347 0.21312
 O1467 O 0.71643 0.26206 0.22230
 O1468 O 0.74243 0.25555 0.20643
 O1469 O 0.73245 0.29448 0.25964
 O1470 O 0.75797 0.23177 0.20981
 O1471 O 0.72947 0.28937 0.23297
 O1472 O 0.70695 0.24148 0.23881
 O1473 O 0.73853 0.23984 0.23291
 O1474 O 0.72852 0.26230 0.25150
 O1475 O 0.76574 0.25593 0.23000
 O1476 O 0.75591 0.27758 0.24749
 Zr1477 Zr 0.76527 0.23728 0.27341
 Zr1478 Zr 0.76299 0.23033 0.23427
 Zr1479 Zr 0.74357 0.27278 0.26908
 Zr1480 Zr 0.72667 0.23664 0.25488
 O1481 O 0.75591 0.29414 0.27810
 O1482 O 0.72037 0.21360 0.24397
 O1483 O 0.74065 0.24716 0.27355
 O1484 O 0.75054 0.22573 0.25578
 O1485 O 0.77818 0.24072 0.25191
 O1486 O 0.76785 0.26310 0.27027
 C1487 C 0.70513 0.25193 0.22727
 C1488 C 0.72770 0.29862 0.24550
 C1489 C 0.74991 0.24232 0.20112
 O1490 O 0.75173 0.20761 0.22727
 O1491 O 0.77741 0.21041 0.24318
 O1492 O 0.77834 0.21432 0.27015
 C1493 C 0.78189 0.20607 0.25733
 O1494 O 0.78294 0.28591 0.23148
 Zr1495 Zr 0.77981 0.26647 0.24847
 O1496 O 0.79014 0.24058 0.28070
 O1497 O 0.78559 0.22852 0.22113
 O1498 O 0.79994 0.25950 0.23329
 O1499 O 0.78760 0.28855 0.26027
 O1500 O 0.80031 0.25961 0.26292
 C1501 C 0.80196 0.24941 0.27468
 O1502 O 0.75689 0.21868 0.28946
 O1503 O 0.72011 0.27634 0.28043
 O1504 O 0.76258 0.24651 0.29706
 O1505 O 0.74581 0.26948 0.29379
 O1506 O 0.70559 0.24408 0.26862
 O1507 O 0.72241 0.21920 0.27355
 C1508 C 0.75390 0.25894 0.30249
 H1509 H 0.71732 0.26769 0.25167
 H1510 H 0.74944 0.21360 0.25781
 H1511 H 0.77428 0.26838 0.27901
 H1512 H 0.77141 0.25809 0.21971
 H1513 H 0.70811 0.21209 0.24518
 H1514 H 0.75955 0.20212 0.21970
 H1515 H 0.78533 0.21773 0.21531
 H1516 H 0.80978 0.26629 0.23635
 H1517 H 0.69601 0.23705 0.26531
 H1518 H 0.72074 0.28704 0.28637
 H1519 H 0.74802 0.29966 0.28558
 H1520 H 0.79986 0.28956 0.25866
 H1521 H 0.71139 0.21382 0.27197
 H1522 H 0.76630 0.21621 0.29686
 H1523 H 0.74032 0.28603 0.20586
 H1524 H 0.79470 0.28981 0.23170
 Zr1525 Zr 0.76299 0.73346 0.72867
 O1526 O 0.75381 0.71770 0.71038
 O1527 O 0.78853 0.73464 0.72313
 O1528 O 0.76470 0.74487 0.70583
 O1529 O 0.76564 0.70205 0.75696
 O1530 O 0.75407 0.77101 0.71022
 O1531 O 0.77203 0.70860 0.73115
 O1532 O 0.79904 0.75254 0.74181
 O1533 O 0.76853 0.75850 0.73368
 O1534 O 0.77393 0.73393 0.75136
 O1535 O 0.73992 0.74630 0.72752
 O1536 O 0.74536 0.72239 0.74417
 Zr1537 Zr 0.73853 0.76187 0.77201
 Zr1538 Zr 0.74542 0.77099 0.73378
 Zr1539 Zr 0.75615 0.72428 0.76691
 Zr1540 Zr 0.77859 0.75886 0.75663
 O1541 O 0.74047 0.70416 0.77341
 O1542 O 0.78851 0.78156 0.74776
 O1543 O 0.76170 0.74899 0.77331
 O1544 O 0.75618 0.77264 0.75648
 O1545 O 0.72744 0.76143 0.74936
 O1546 O 0.73319 0.73683 0.76692
 C1547 C 0.80054 0.74281 0.72965
 C1548 C 0.77160 0.69843 0.74311
 C1549 C 0.76078 0.75980 0.70126
 O1550 O 0.75941 0.79303 0.73004
 O1551 O 0.73194 0.79156 0.74265
 O1552 O 0.72788 0.78609 0.76909
 C1553 C 0.72628 0.79536 0.75656
 O1554 O 0.71911 0.71882 0.72543
 Zr1555 Zr 0.72301 0.73641 0.74405
 O1556 O 0.71291 0.76078 0.77744
 O1557 O 0.72509 0.77608 0.71826
 O1558 O 0.70530 0.74693 0.72801
 O1559 O 0.71157 0.71471 0.75353
 O1560 O 0.70223 0.74468 0.75740
 C1561 C 0.70072 0.75393 0.76989
 O1562 O 0.74737 0.77871 0.78956
 O1563 O 0.77784 0.71703 0.77980
 O1564 O 0.73869 0.75126 0.79526
 O1565 O 0.75223 0.72635 0.79151
 O1566 O 0.79731 0.74805 0.77142
 O1567 O 0.78322 0.77436 0.77674
 C1568 C 0.74531 0.73751 0.80040
 H1569 H 0.78439 0.72725 0.75204
 H1570 H 0.75841 0.78439 0.75947
 H1571 H 0.72545 0.73185 0.77481
 H1572 H 0.73507 0.74561 0.71666
 H1573 H 0.80072 0.78146 0.74992
 H1574 H 0.75321 0.79978 0.72205
 H1575 H 0.72721 0.78714 0.71337
 H1576 H 0.69447 0.74122 0.72978
 H1577 H 0.80793 0.75402 0.76932
 H1578 H 0.77534 0.70618 0.78494
 H1579 H 0.74689 0.69723 0.78110
 H1580 H 0.69947 0.71534 0.75090
 H1581 H 0.79485 0.77859 0.77624
 H1582 H 0.73767 0.78176 0.79639
 H1583 H 0.76354 0.71443 0.70367
 H1584 H 0.70700 0.71639 0.72451
 Zr1585 Zr 0.23613 0.23574 0.77175
 O1586 O 0.24482 0.22136 0.79131
 O1587 O 0.21016 0.23544 0.77517
 O1588 O 0.23164 0.24786 0.79387
 O1589 O 0.23827 0.20292 0.74489
 O1590 O 0.24016 0.27461 0.78923
 O1591 O 0.22899 0.21035 0.76969
 O1592 O 0.19993 0.25134 0.75471
 O1593 O 0.22884 0.25996 0.76502
 O1594 O 0.22749 0.23419 0.74823
 O1595 O 0.25772 0.25049 0.77423
 O1596 O 0.25617 0.22532 0.75854
 Zr1597 Zr 0.26211 0.26374 0.72935
 Zr1598 Zr 0.25063 0.27432 0.76628
 Zr1599 Zr 0.24757 0.22512 0.73491
 Zr1600 Zr 0.22115 0.25832 0.74128
 O1601 O 0.26528 0.20561 0.73175
 O1602 O 0.20845 0.28065 0.74779
 O1603 O 0.24046 0.24893 0.72669
 O1604 O 0.24211 0.27388 0.74267
 O1605 O 0.27089 0.26544 0.75285
 O1606 O 0.26918 0.23956 0.73624
 C1607 C 0.19814 0.24231 0.76729
 C1608 C 0.23107 0.19970 0.75828
 C1609 C 0.23394 0.26316 0.79817
 O1610 O 0.23405 0.29499 0.76787
 O1611 O 0.26254 0.29570 0.75731
 O1612 O 0.27072 0.28863 0.73208
 C1613 C 0.26974 0.29890 0.74393
 O1614 O 0.28063 0.22510 0.77975
 Zr1615 Zr 0.27705 0.24118 0.75984
 O1616 O 0.28814 0.26426 0.72604
 O1617 O 0.26901 0.28209 0.78287
 O1618 O 0.29210 0.25411 0.77661
 O1619 O 0.29131 0.21999 0.75275
 O1620 O 0.29829 0.25023 0.74775
 C1621 C 0.30014 0.25879 0.73488
 O1622 O 0.25370 0.27918 0.71042
 O1623 O 0.22828 0.21610 0.71990
 O1624 O 0.26477 0.25213 0.70667
 O1625 O 0.25518 0.22569 0.71101
 O1626 O 0.20477 0.24534 0.72573
 O1627 O 0.21744 0.27208 0.71986
 C1628 C 0.26122 0.23717 0.70202
 H1629 H 0.21769 0.22679 0.74697
 H1630 H 0.23916 0.28523 0.73884
 H1631 H 0.27812 0.23479 0.72940
 H1632 H 0.26159 0.25073 0.78545
 H1633 H 0.19658 0.27945 0.74453
 H1634 H 0.23880 0.30269 0.77594
 H1635 H 0.26534 0.29312 0.78703
 H1636 H 0.30353 0.24924 0.77610
 H1637 H 0.19360 0.25077 0.72649
 H1638 H 0.23208 0.20512 0.71575
 H1639 H 0.26044 0.19778 0.72386
 H1640 H 0.30297 0.22174 0.75644
 H1641 H 0.20555 0.27562 0.71911
 H1642 H 0.26375 0.28258 0.70429
 H1643 H 0.23482 0.21773 0.79740
 H1644 H 0.29277 0.22386 0.78194
 Zr1645 Zr 0.26050 0.76654 0.27033
 O1646 O 0.25130 0.78467 0.28656
 O1647 O 0.28493 0.76269 0.27873
 O1648 O 0.25871 0.75670 0.29383
 O1649 O 0.27031 0.79461 0.24039
 O1650 O 0.24307 0.73316 0.29045
 O1651 O 0.27239 0.78999 0.26722
 O1652 O 0.29490 0.74160 0.26295
 O1653 O 0.26307 0.74059 0.26780
 O1654 O 0.27387 0.76254 0.24918
 O1655 O 0.23590 0.75717 0.26968
 O1656 O 0.24643 0.77833 0.25209
 Zr1657 Zr 0.23773 0.73773 0.22657
 Zr1658 Zr 0.23861 0.73145 0.26589
 Zr1659 Zr 0.25946 0.77291 0.23096
 Zr1660 Zr 0.27570 0.73679 0.24630
 O1661 O 0.24759 0.79432 0.22122
 O1662 O 0.28151 0.71386 0.25777
 O1663 O 0.26241 0.74717 0.22701
 O1664 O 0.25180 0.72626 0.24485
 O1665 O 0.22410 0.74178 0.24761
 O1666 O 0.23517 0.76363 0.22924
 C1667 C 0.29634 0.75226 0.27437
 C1668 C 0.27459 0.79898 0.25459
 C1669 C 0.25109 0.74364 0.29915
 O1670 O 0.24938 0.70855 0.27340
 O1671 O 0.22405 0.71181 0.25686
 O1672 O 0.22472 0.71493 0.22979
 C1673 C 0.22035 0.70714 0.24261
 O1674 O 0.21893 0.78738 0.26722
 Zr1675 Zr 0.22253 0.76760 0.25061
 O1676 O 0.21307 0.74125 0.21851
 O1677 O 0.21570 0.73039 0.27857
 O1678 O 0.20185 0.76119 0.26524
 O1679 O 0.21525 0.78964 0.23831
 O1680 O 0.20252 0.76091 0.23559
 C1681 C 0.20115 0.75051 0.22396
 O1682 O 0.24659 0.71882 0.21098
 O1683 O 0.28331 0.77581 0.22028
 O1684 O 0.24106 0.74656 0.20289
 O1685 O 0.25793 0.76925 0.20624
 O1686 O 0.29729 0.74363 0.23311
 O1687 O 0.28051 0.71891 0.22807
 C1688 C 0.24994 0.75876 0.19750
 H1689 H 0.28510 0.76774 0.24927
 H1690 H 0.25290 0.71408 0.24305
 H1691 H 0.22905 0.76888 0.22025
 H1692 H 0.22994 0.75961 0.27978
 H1693 H 0.29379 0.71212 0.25698
 H1694 H 0.24129 0.70336 0.28085
 H1695 H 0.21568 0.71968 0.28451
 H1696 H 0.19214 0.76808 0.26177
 H1697 H 0.30671 0.73652 0.23685
 H1698 H 0.28296 0.78641 0.21417
 H1699 H 0.25577 0.79958 0.21391
 H1700 H 0.20295 0.79089 0.23955
 H1701 H 0.29146 0.71342 0.23006
 H1702 H 0.23741 0.71633 0.20337
 H1703 H 0.26055 0.78724 0.29407
 H1704 H 0.20719 0.79141 0.26664
 Zr1705 Zr 0.23475 0.76436 0.72585
 O1706 O 0.24364 0.77880 0.70648
 O1707 O 0.20890 0.76402 0.72150
 O1708 O 0.23156 0.75200 0.70366
 O1709 O 0.23498 0.79734 0.75255
 O1710 O 0.24121 0.72561 0.70867
 O1711 O 0.22681 0.78964 0.72749
 O1712 O 0.19856 0.74783 0.74162
 O1713 O 0.22823 0.73994 0.73237
 O1714 O 0.22505 0.76570 0.74900
 O1715 O 0.25705 0.75028 0.72428
 O1716 O 0.25375 0.77536 0.73985
 Zr1717 Zr 0.26011 0.73719 0.76935
 Zr1718 Zr 0.25065 0.72627 0.73202
 Zr1719 Zr 0.24414 0.77530 0.76313
 Zr1720 Zr 0.21947 0.74138 0.75578
 O1721 O 0.26109 0.79500 0.76759
 O1722 O 0.20795 0.71874 0.74873
 O1723 O 0.23772 0.75131 0.77108
 O1724 O 0.24112 0.72648 0.75527
 O1725 O 0.26994 0.73575 0.74621
 O1726 O 0.26642 0.76158 0.76273
 C1727 C 0.19688 0.75684 0.72899
 C1728 C 0.22830 0.80042 0.73887
 C1729 C 0.23473 0.73678 0.69950
 O1730 O 0.23503 0.70512 0.72975
 O1731 O 0.26291 0.70522 0.74154
 O1732 O 0.26964 0.71248 0.76709
 C1733 C 0.26952 0.70216 0.75524
 O1734 O 0.27905 0.77642 0.71969
 Zr1735 Zr 0.27534 0.76019 0.73943
 O1736 O 0.28600 0.73734 0.77355
 O1737 O 0.27011 0.71906 0.71625
 O1738 O 0.29164 0.74784 0.72321
 O1739 O 0.28832 0.78178 0.74713
 O1740 O 0.29642 0.75172 0.75225
 C1741 C 0.29811 0.74314 0.76513
 O1742 O 0.25152 0.72165 0.78805
 O1743 O 0.22365 0.78424 0.77681
 O1744 O 0.26147 0.74894 0.79208
 O1745 O 0.24961 0.77454 0.78753
 O1746 O 0.20208 0.75395 0.77077
 O1747 O 0.21530 0.72739 0.77695
 C1748 C 0.25612 0.76342 0.79673
 H1749 H 0.21496 0.77289 0.74984
 H1750 H 0.23845 0.71506 0.75899
 H1751 H 0.27481 0.76660 0.76997
 H1752 H 0.26139 0.75014 0.71322
 H1753 H 0.19590 0.71960 0.75151
 H1754 H 0.24046 0.69755 0.72191
 H1755 H 0.26710 0.70793 0.71196
 H1756 H 0.30282 0.75310 0.72415
 H1757 H 0.19111 0.74834 0.76955
 H1758 H 0.22692 0.79525 0.78120
 H1759 H 0.25549 0.80268 0.77522
 H1760 H 0.30021 0.78042 0.74393
 H1761 H 0.20349 0.72369 0.77728
 H1762 H 0.26144 0.71852 0.79456
 H1763 H 0.23374 0.78216 0.70004
 H1764 H 0.29121 0.77815 0.71804
 Zr1765 Zr 0.26135 0.23588 0.22877
 O1766 O 0.25170 0.21851 0.21212
 O1767 O 0.28622 0.23824 0.22109
 O1768 O 0.26051 0.24600 0.20532
 O1769 O 0.26885 0.20668 0.25847
 O1770 O 0.24634 0.27061 0.20874
 O1771 O 0.27203 0.21174 0.23182
 O1772 O 0.29688 0.25816 0.23769
 O1773 O 0.26538 0.26154 0.23181
 O1774 O 0.27423 0.23859 0.25037
 O1775 O 0.23733 0.24690 0.22895
 O1776 O 0.24606 0.22474 0.24639
 Zr1777 Zr 0.23893 0.26544 0.27237
 Zr1778 Zr 0.24145 0.27231 0.23322
 Zr1779 Zr 0.25871 0.22886 0.26796
 Zr1780 Zr 0.27745 0.26410 0.25376
 O1781 O 0.24528 0.20812 0.27685
 O1782 O 0.28494 0.28675 0.24281
 O1783 O 0.26300 0.25428 0.27246
 O1784 O 0.25418 0.27625 0.25472
 O1785 O 0.22580 0.26270 0.25089
 O1786 O 0.23497 0.23981 0.26921
 C1787 C 0.29809 0.24767 0.22611
 C1788 C 0.27346 0.20240 0.24432
 C1789 C 0.25373 0.25961 0.20003
 O1790 O 0.25388 0.29442 0.22626
 O1791 O 0.22804 0.29290 0.24219
 O1792 O 0.22683 0.28892 0.26914
 C1793 C 0.22366 0.29736 0.25634
 O1794 O 0.21861 0.21780 0.23049
 Zr1795 Zr 0.22278 0.23710 0.24744
 O1796 O 0.21399 0.26342 0.27980
 O1797 O 0.21896 0.27532 0.22009
 O1798 O 0.20301 0.24504 0.23224
 O1799 O 0.21375 0.21555 0.25931
 O1800 O 0.20268 0.24521 0.26185
 C1801 C 0.20165 0.25539 0.27371
 O1802 O 0.24839 0.28361 0.28832
 O1803 O 0.28194 0.22412 0.27936
 O1804 O 0.24116 0.25608 0.29600
 O1805 O 0.25659 0.23220 0.29269
 O1806 O 0.29815 0.25562 0.26748
 O1807 O 0.28266 0.28132 0.27241
 C1808 C 0.24911 0.24316 0.30141
 H1809 H 0.28515 0.23266 0.25053
 H1810 H 0.25589 0.28831 0.25677
 H1811 H 0.22828 0.23487 0.27795
 H1812 H 0.23152 0.24504 0.21867
 H1813 H 0.29726 0.28760 0.24398
 H1814 H 0.24633 0.30032 0.21871
 H1815 H 0.21978 0.28608 0.21429
 H1816 H 0.19283 0.23879 0.23533
 H1817 H 0.30808 0.26215 0.26416
 H1818 H 0.28077 0.21347 0.28528
 H1819 H 0.25287 0.20218 0.28433
 H1820 H 0.20145 0.21525 0.25771
 H1821 H 0.29393 0.28615 0.27079
 H1822 H 0.23916 0.28660 0.29575
 H1823 H 0.26101 0.21545 0.20480
 H1824 H 0.20667 0.21449 0.23076
 Zr1825 Zr 0.73612 0.73739 0.27181
 O1826 O 0.74593 0.72132 0.28962
 O1827 O 0.71089 0.73926 0.27852
 O1828 O 0.73579 0.74875 0.29476
 O1829 O 0.73173 0.70620 0.24352
 O1830 O 0.74806 0.77402 0.29032
 O1831 O 0.72668 0.71272 0.26963
 O1832 O 0.69977 0.75745 0.26033
 O1833 O 0.73070 0.76261 0.26716
 O1834 O 0.72409 0.73820 0.24963
 O1835 O 0.75942 0.74962 0.27188
 O1836 O 0.75284 0.72597 0.25547
 Zr1837 Zr 0.75886 0.76531 0.22751
 Zr1838 Zr 0.75396 0.77450 0.26600
 Zr1839 Zr 0.74098 0.72821 0.23324
 Zr1840 Zr 0.71954 0.76325 0.24465
 O1841 O 0.75599 0.70768 0.22598
 O1842 O 0.71030 0.78619 0.25390
 O1843 O 0.73546 0.75307 0.22716
 O1844 O 0.74210 0.77643 0.24382
 O1845 O 0.77106 0.76458 0.24962
 O1846 O 0.76410 0.74014 0.23225
 C1847 C 0.69870 0.74777 0.27254
 C1848 C 0.72643 0.70261 0.25760
 C1849 C 0.74131 0.76307 0.29946
 O1850 O 0.73974 0.79617 0.27143
 O1851 O 0.76578 0.79557 0.25632
 O1852 O 0.76995 0.78921 0.23005
 C1853 C 0.77120 0.79898 0.24225
 O1854 O 0.77994 0.72161 0.27298
 Zr1855 Zr 0.77538 0.73939 0.25461
 O1856 O 0.78418 0.76374 0.22100
 O1857 O 0.77576 0.77957 0.27952
 O1858 O 0.79403 0.74932 0.26990
 O1859 O 0.78599 0.71743 0.24454
 O1860 O 0.79561 0.74718 0.24038
 C1861 C 0.79664 0.75653 0.22794
 O1862 O 0.74935 0.78234 0.21038
 O1863 O 0.71858 0.72159 0.22129
 O1864 O 0.75773 0.75469 0.20429
 O1865 O 0.74376 0.73026 0.20848
 O1866 O 0.70003 0.75286 0.23067
 O1867 O 0.71410 0.77893 0.22481
 C1868 C 0.75064 0.74117 0.19937
 H1869 H 0.71353 0.73178 0.24940
 H1870 H 0.73976 0.78821 0.24096
 H1871 H 0.77139 0.73498 0.22403
 H1872 H 0.76490 0.74871 0.28244
 H1873 H 0.69800 0.78637 0.25227
 H1874 H 0.74651 0.80291 0.27894
 H1875 H 0.77395 0.79054 0.28476
 H1876 H 0.80467 0.74334 0.26761
 H1877 H 0.68957 0.75903 0.23325
 H1878 H 0.72066 0.71069 0.21602
 H1879 H 0.74911 0.70098 0.21853
 H1880 H 0.79821 0.71773 0.24660
 H1881 H 0.70250 0.78328 0.22574
 H1882 H 0.75876 0.78523 0.20316
 H1883 H 0.73649 0.71828 0.29674
 H1884 H 0.79204 0.71882 0.27331
 Zr1885 Zr 0.76375 0.26154 0.77285
 O1886 O 0.75395 0.27696 0.79119
 O1887 O 0.78907 0.25979 0.77925
 O1888 O 0.76448 0.24953 0.79547
 O1889 O 0.76712 0.29373 0.74551
 O1890 O 0.75282 0.22409 0.79040
 O1891 O 0.77290 0.28636 0.77126
 O1892 O 0.80026 0.24243 0.76038
 O1893 O 0.76955 0.23658 0.76737
 O1894 O 0.77545 0.26166 0.75051
 O1895 O 0.74069 0.24888 0.77285
 O1896 O 0.74659 0.27320 0.75710
 Zr1897 Zr 0.74081 0.23467 0.72802
 Zr1898 Zr 0.74650 0.22431 0.76616
 Zr1899 Zr 0.75814 0.27190 0.73466
 Zr1900 Zr 0.78037 0.23687 0.74471
 O1901 O 0.74266 0.29238 0.72821
 O1902 O 0.79012 0.21377 0.75307
 O1903 O 0.76398 0.24734 0.72777
 O1904 O 0.75803 0.22333 0.74377
 O1905 O 0.72896 0.23446 0.75031
 O1906 O 0.73523 0.25959 0.73360
 C1907 C 0.80131 0.25168 0.77290
 C1908 C 0.77271 0.29689 0.75958
 C1909 C 0.75938 0.23493 0.79980
 O1910 O 0.76121 0.20275 0.77073
 O1911 O 0.73497 0.20333 0.75600
 O1912 O 0.73003 0.21056 0.73006
 C1913 C 0.72925 0.20033 0.74195
 O1914 O 0.71970 0.27646 0.77510
 Zr1915 Zr 0.72429 0.25940 0.75612
 O1916 O 0.71538 0.23615 0.72180
 O1917 O 0.72502 0.21839 0.77980
 O1918 O 0.70604 0.24862 0.77131
 O1919 O 0.71315 0.28150 0.74689
 O1920 O 0.70399 0.25175 0.74192
 C1921 C 0.70292 0.24289 0.72915
 O1922 O 0.75027 0.21826 0.71032
 O1923 O 0.78024 0.27929 0.72265
 O1924 O 0.74159 0.24599 0.70509
 O1925 O 0.75499 0.27063 0.70989
 O1926 O 0.79951 0.24808 0.73087
 O1927 O 0.78577 0.22202 0.72429
 C1928 C 0.74831 0.25984 0.70052
 H1929 H 0.78591 0.26825 0.75035
 H1930 H 0.76052 0.21168 0.74051
 H1931 H 0.72774 0.26489 0.72562
 H1932 H 0.73534 0.24935 0.78351
 H1933 H 0.80240 0.21386 0.75129
 H1934 H 0.75469 0.19564 0.77813
 H1935 H 0.72712 0.20730 0.78468
 H1936 H 0.69527 0.25450 0.76935
 H1937 H 0.81010 0.24199 0.73314
 H1938 H 0.77790 0.29033 0.71775
 H1939 H 0.74931 0.29945 0.72090
 H1940 H 0.70096 0.28092 0.74910
 H1941 H 0.79745 0.21782 0.72493
 H1942 H 0.74079 0.21548 0.70314
 H1943 H 0.76344 0.27991 0.79830
 H1944 H 0.70756 0.27903 0.77567
 C1945 C 0.44860 1.00124 0.33847
 N1946 N 0.45254 0.98976 0.32712
 N1947 N 0.44521 0.99032 0.31280
 C1948 C 0.43370 1.00240 0.30928
 N1949 N 0.42997 1.01394 0.32063
 N1950 N 0.43723 1.01336 0.33492
 C1951 C 0.45563 1.00029 0.35470
 N1952 N 0.44932 1.01040 0.36623
 N1953 N 0.45487 1.00935 0.38115
 C1954 C 0.46704 0.99821 0.38518
 N1955 N 0.47355 0.98815 0.37364
 N1956 N 0.46788 0.98914 0.35865
 C1957 C 0.47229 0.99704 0.40199
 N1958 N 0.48627 0.98852 0.40669
 N1959 N 0.49069 0.98806 0.42210
 C1960 C 0.48115 0.99597 0.43329
 N1961 N 0.46720 1.00432 0.42849
 N1962 N 0.46290 1.00489 0.41320
 C1963 C -0.05056 0.49918 0.84023
 N1964 N -0.04661 0.48778 0.82882
 N1965 N -0.05403 0.48835 0.81454
 C1966 C -0.06567 0.50034 0.81109
 N1967 N -0.06935 0.51184 0.82251
 N1968 N -0.06200 0.51125 0.83676
 C1969 C -0.04347 0.49819 0.85644
 N1970 N -0.04979 0.50820 0.86804
 N1971 N -0.04419 0.50708 0.88295
 C1972 C -0.03197 0.49596 0.88689
 N1973 N -0.02546 0.48599 0.87527
 N1974 N -0.03117 0.48705 0.86030
 C1975 C -0.02666 0.49471 0.90368
 N1976 N -0.01264 0.48620 0.90830
 N1977 N -0.00816 0.48565 0.92369
 C1978 C -0.01766 0.49348 0.93495
 N1979 N -0.03166 0.50183 0.93024
 N1980 N -0.03603 0.50247 0.91497
 C1981 C 0.05808 0.01035 0.84207
 N1982 N 0.04843 0.00991 0.82871
 N1983 N 0.05539 0.00724 0.81444
 C1984 C 0.07223 0.00482 0.81300
 N1985 N 0.08176 0.00522 0.82641
 N1986 N 0.07484 0.00793 0.84062
 C1987 C 0.05083 0.01326 0.85799
 N1988 N 0.06118 0.01447 0.87076
 N1989 N 0.05502 0.01654 0.88537
 C1990 C 0.03824 0.01751 0.88786
 N1991 N 0.02779 0.01642 0.87508
 N1992 N 0.03399 0.01437 0.86038
 C1993 C 0.03195 0.01852 0.90435
 N1994 N 0.01529 0.01887 0.90785
 N1995 N 0.01009 0.01837 0.92302
 C1996 C 0.02139 0.01746 0.93515
 N1997 N 0.03796 0.01737 0.93156
 N1998 N 0.04313 0.01796 0.91651
 C1999 C 0.55022 0.49951 0.33974
 N2000 N 0.56092 0.48685 0.33604
 N2001 N 0.56852 0.48631 0.32191
 C2002 C 0.56578 0.49843 0.31087
 N2003 N 0.55493 0.51105 0.31453
 N2004 N 0.54728 0.51158 0.32869
 C2005 C 0.54283 0.50036 0.35582
 N2006 N 0.53170 0.51254 0.36001
 N2007 N 0.52581 0.51347 0.37492
 C2008 C 0.53094 0.50229 0.38614
 N2009 N 0.54196 0.49012 0.38186
 N2010 N 0.54775 0.48914 0.36702
 C2011 C 0.52558 0.50343 0.40292
 N2012 N 0.53371 0.49401 0.41392
 N2013 N 0.52947 0.49478 0.42922
 C2014 C 0.51686 0.50493 0.43423
 N2015 N 0.50856 0.51438 0.42324
 N2016 N 0.51291 0.51369 0.40783
 C2017 C 0.54691 0.50345 0.16195
 N2018 N 0.55673 0.51664 0.16583
 N2019 N 0.56516 0.51689 0.17954
 C2020 C 0.56415 0.50396 0.18998
 N2021 N 0.55419 0.49080 0.18614
 N2022 N 0.54574 0.49054 0.17240
 C2023 C 0.53850 0.50297 0.14632
 N2024 N 0.52906 0.48970 0.14176
 N2025 N 0.52236 0.48907 0.12716
 C2026 C 0.52490 0.50171 0.11661
 N2027 N 0.53419 0.51500 0.12127
 N2028 N 0.54083 0.51563 0.13581
 C2029 C 0.51892 0.50080 0.10001
 N2030 N 0.52431 0.51234 0.08939
 N2031 N 0.52012 0.51130 0.07408
 C2032 C 0.51025 0.49875 0.06871
 N2033 N 0.50456 0.48727 0.07934
 N2034 N 0.50888 0.48825 0.09474
 C2035 C 0.04590 1.00293 0.66063
 N2036 N 0.04386 0.99064 0.67162
 N2037 N 0.05208 0.99117 0.68549
 C2038 C 0.06265 1.00397 0.68890
 N2039 N 0.06449 1.01630 0.67792
 N2040 N 0.05630 1.01579 0.66409
 C2041 C 0.03787 1.00209 0.64482
 N2042 N 0.04144 1.01390 0.63376
 N2043 N 0.03519 1.01290 0.61909
 C2044 C 0.02504 1.00009 0.61484
 N2045 N 0.02125 0.98832 0.62594
 N2046 N 0.02759 0.98929 0.64068
 C2047 C 0.01942 0.99883 0.59815
 N2048 N 0.00795 0.98739 0.59323
 N2049 N 0.00364 0.98632 0.57782
 C2050 C 0.01080 0.99658 0.56685
 N2051 N 0.02216 1.00796 0.57188
 N2052 N 0.02633 1.00911 0.58717
 C2053 C -0.05631 0.50653 0.65759
 N2054 N -0.04690 0.50677 0.67111
 N2055 N -0.05395 0.50395 0.68531
 C2056 C -0.07064 0.50069 0.68651
 N2057 N -0.07992 0.50041 0.67294
 N2058 N -0.07292 0.50327 0.65880
 C2059 C -0.04899 0.50968 0.64174
 N2060 N -0.05922 0.51051 0.62884
 N2061 N -0.05298 0.51287 0.61432
 C2062 C -0.03624 0.51450 0.61203
 N2063 N -0.02591 0.51378 0.62494
 N2064 N -0.03219 0.51146 0.63956
 C2065 C -0.02980 0.51595 0.59561
 N2066 N -0.01311 0.51661 0.59228
 N2067 N -0.00774 0.51651 0.57715
 C2068 C -0.01888 0.51572 0.56489
 N2069 N -0.03549 0.51534 0.56832
 N2070 N -0.04083 0.51551 0.58333
 C2071 C 0.45312 -0.00400 0.15958
 N2072 N 0.45477 0.00887 0.17001
 N2073 N 0.44644 0.00887 0.18382
 C2074 C 0.43613 -0.00399 0.18773
 N2075 N 0.43465 -0.01689 0.17731
 N2076 N 0.44296 -0.01689 0.16353
 C2077 C 0.46138 -0.00382 0.14386
 N2078 N 0.45817 -0.01621 0.13328
 N2079 N 0.46470 -0.01586 0.11868
 C2080 C 0.47479 -0.00316 0.11406
 N2081 N 0.47822 0.00920 0.12469
 N2082 N 0.47160 0.00888 0.13934
 C2083 C 0.48075 -0.00260 0.09743
 N2084 N 0.49211 0.00882 0.09228
 N2085 N 0.49666 0.00935 0.07692
 C2086 C 0.48987 -0.00146 0.06621
 N2087 N 0.47862 -0.01284 0.07146
 N2088 N 0.47421 -0.01345 0.08673
 C2089 C 0.34613 0.41026 0.00742
 N2090 N 0.33577 0.40953 0.02026
 N2091 N 0.32084 0.40216 0.01914
 C2092 C 0.31570 0.39522 0.00514
 N2093 N 0.32612 0.39600 -0.00765
 N2094 N 0.34099 0.40338 -0.00654
 C2095 C 0.36262 0.41845 0.00830
 N2096 N 0.37207 0.41985 -0.00507
 N2097 N 0.38690 0.42736 -0.00463
 C2098 C 0.39295 0.43373 0.00923
 N2099 N 0.38355 0.43229 0.02268
 N2100 N 0.36864 0.42479 0.02223
 C2101 C 0.40920 0.44242 0.00918
 N2102 N 0.41644 0.44817 0.02282
 N2103 N 0.43101 0.45634 0.02229
 C2104 C 0.43878 0.45909 0.00809
 N2105 N 0.43152 0.45327 -0.00544
 N2106 N 0.41709 0.44507 -0.00491
 C2107 C -0.15931 0.91737 0.50819
 N2108 N -0.16364 0.90633 0.51975
 N2109 N -0.17807 0.89804 0.51886
 C2110 C -0.18878 0.90048 0.50643
 N2111 N -0.18444 0.91161 0.49493
 N2112 N -0.17000 0.91987 0.49579
 C2113 C -0.14315 0.92623 0.50881
 N2114 N -0.13843 0.93612 0.49647
 N2115 N -0.12371 0.94386 0.49670
 C2116 C -0.11311 0.94210 0.50928
 N2117 N -0.11784 0.93228 0.52170
 N2118 N -0.13259 0.92447 0.52145
 C2119 C -0.09669 0.95047 0.50900
 N2120 N -0.08608 0.95011 0.52174
 N2121 N -0.07118 0.95766 0.52104
 C2122 C -0.06637 0.96577 0.50755
 N2123 N -0.07701 0.96608 0.49491
 N2124 N -0.09184 0.95864 0.49562
 C2125 C -0.15482 0.08173 0.99397
 N2126 N -0.16498 0.07991 1.00685
 N2127 N -0.17942 0.08832 1.00789
 C2128 C -0.18435 0.09893 0.99608
 N2129 N -0.17414 0.10066 0.98317
 N2130 N -0.15970 0.09226 0.98213
 C2131 C -0.13871 0.07264 0.99308
 N2132 N -0.12823 0.07458 0.98042
 N2133 N -0.11353 0.06652 0.97987
 C2134 C -0.10879 0.05623 0.99197
 N2135 N -0.11930 0.05428 1.00457
 N2136 N -0.13396 0.06231 1.00511
 C2137 C -0.09243 0.04752 0.99184
 N2138 N -0.08798 0.03781 1.00442
 N2139 N -0.07313 0.03018 1.00479
 C2140 C -0.06208 0.03186 0.99258
 N2141 N -0.06652 0.04151 0.97989
 N2142 N -0.08144 0.04920 0.97953
 C2143 C 0.34618 0.58528 0.49171
 N2144 N 0.34025 0.59114 0.50583
 N2145 N 0.32563 0.59920 0.50660
 C2146 C 0.31623 0.60168 0.49328
 N2147 N 0.32214 0.59575 0.47912
 N2148 N 0.33685 0.58773 0.47834
 C2149 C 0.36240 0.57635 0.49120
 N2150 N 0.36966 0.57176 0.47716
 N2151 N 0.38439 0.56371 0.47703
 C2152 C 0.39234 0.55993 0.49093
 N2153 N 0.38504 0.56452 0.50490
 N2154 N 0.37041 0.57260 0.50503
 C2155 C 0.40847 0.55082 0.49126
 N2156 N 0.41476 0.54565 0.50546
 N2157 N 0.42926 0.53741 0.50620
 C2158 C 0.43817 0.53403 0.49278
 N2159 N 0.43196 0.53924 0.47848
 N2160 N 0.41733 0.54746 0.47773
 C2161 C 0.15712 0.58023 0.50688
 N2162 N 0.17064 0.57359 0.49926
 N2163 N 0.18465 0.58242 0.49749
 C2164 C 0.18566 0.59830 0.50316
 N2165 N 0.17211 0.60489 0.51079
 N2166 N 0.15814 0.59604 0.51264
 C2167 C 0.14150 0.57062 0.50846
 N2168 N 0.12861 0.57641 0.51756
 N2169 N 0.11428 0.56795 0.51856
 C2170 C 0.11229 0.55341 0.51042
 N2171 N 0.12520 0.54761 0.50138
 N2172 N 0.13954 0.55601 0.50046
 C2173 C 0.09619 0.54447 0.51063
 N2174 N 0.09335 0.53206 0.49995
 N2175 N 0.07857 0.52447 0.49938
 C2176 C 0.06605 0.52882 0.50956
 N2177 N 0.06891 0.54109 0.52043
 N2178 N 0.08371 0.54881 0.52092
 C2179 C 0.65911 0.07909 0.00909
 N2180 N 0.66384 0.08893 0.02149
 N2181 N 0.67812 0.09749 0.02087
 C2182 C 0.68829 0.09654 0.00786
 N2183 N 0.68355 0.08661 -0.00448
 N2184 N 0.66927 0.07808 -0.00388
 C2185 C 0.64312 0.06994 0.00943
 N2186 N 0.63822 0.06098 -0.00348
 N2187 N 0.62364 0.05296 -0.00348
 C2188 C 0.61336 0.05353 0.00942
 N2189 N 0.61827 0.06244 0.02240
 N2190 N 0.63287 0.07052 0.02240
 C2191 C 0.59711 0.04485 0.00894
 N2192 N 0.58668 0.04443 0.02179
 N2193 N 0.57193 0.03664 0.02094
 C2194 C 0.56708 0.02904 0.00718
 N2195 N 0.57754 0.02949 -0.00558
 N2196 N 0.59224 0.03719 -0.00471
 C2197 C 0.65441 0.92230 0.49129
 N2198 N 0.65805 0.91033 0.48032
 N2199 N 0.67211 0.90130 0.48146
 C2200 C 0.68313 0.90387 0.49360
 N2201 N 0.67948 0.91592 0.50452
 N2202 N 0.66542 0.92493 0.50340
 C2203 C 0.63866 0.93200 0.49039
 N2204 N 0.63478 0.94322 0.50198
 N2205 N 0.62038 0.95170 0.50154
 C2206 C 0.60926 0.94936 0.48947
 N2207 N 0.61316 0.93820 0.47780
 N2208 N 0.62759 0.92967 0.47826
 C2209 C 0.59311 0.95842 0.48956
 N2210 N 0.58181 0.95683 0.47749
 N2211 N 0.56702 0.96473 0.47811
 C2212 C 0.56299 0.97447 0.49087
 N2213 N 0.57433 0.97608 0.50284
 N2214 N 0.58908 0.96827 0.50219
 C2215 C 0.15594 0.42004 0.99233
 N2216 N 0.15706 0.40453 0.98585
 N2217 N 0.17106 0.39550 0.98735
 C2218 C 0.18455 0.40161 0.99531
 N2219 N 0.18344 0.41720 1.00169
 N2220 N 0.16939 0.42620 1.00029
 C2221 C 0.14025 0.42981 0.99118
 N2222 N 0.13811 0.44387 1.00002
 N2223 N 0.12371 0.45237 0.99949
 C2224 C 0.11093 0.44725 0.99000
 N2225 N 0.11311 0.43327 0.98102
 N2226 N 0.12749 0.42469 0.98163
 C2227 C 0.09478 0.45629 0.99018
 N2228 N 0.08253 0.45290 0.97938
 N2229 N 0.06771 0.46073 0.98013
 C2230 C 0.06459 0.47213 0.99180
 N2231 N 0.07687 0.47552 1.00252
 N2232 N 0.09168 0.46782 1.00169
 C2233 C -0.02086 0.33607 0.44491
 N2234 N -0.00887 0.32474 0.44891
 N2235 N -0.00638 0.31121 0.43998
 C2236 C -0.01577 0.30853 0.42672
 N2237 N -0.02805 0.31967 0.42298
 N2238 N -0.03051 0.33324 0.43188
 C2239 C -0.02173 0.35212 0.45314
 N2240 N -0.03119 0.36474 0.44708
 N2241 N -0.03011 0.38008 0.45310
 C2242 C -0.01954 0.38330 0.46539
 N2243 N -0.01039 0.37059 0.47171
 N2244 N -0.01143 0.35526 0.46566
 C2245 C -0.01690 0.40042 0.47076
 N2246 N -0.00628 0.40363 0.48301
 N2247 N -0.00305 0.41929 0.48728
 C2248 C -0.01019 0.43227 0.47932
 N2249 N -0.02084 0.42906 0.46709
 N2250 N -0.02411 0.41339 0.46285
 C2251 C 0.48404 -0.16377 -0.06989
 N2252 N 0.49428 -0.17641 -0.06517
 N2253 N 0.49466 -0.19074 -0.07319
 C2254 C 0.48481 -0.19300 -0.08621
 N2255 N 0.47429 -0.18045 -0.09071
 N2256 N 0.47393 -0.16608 -0.08271
 C2257 C 0.48511 -0.14746 -0.06218
 N2258 N 0.47633 -0.13420 -0.06795
 N2259 N 0.47846 -0.11904 -0.06177
 C2260 C 0.48947 -0.11663 -0.04965
 N2261 N 0.49809 -0.12992 -0.04377
 N2262 N 0.49598 -0.14507 -0.04995
 C2263 C 0.49235 -0.09992 -0.04327
 N2264 N 0.50347 -0.09760 -0.03124
 N2265 N 0.50613 -0.08239 -0.02539
 C2266 C 0.49782 -0.06898 -0.03144
 N2267 N 0.48675 -0.07129 -0.04353
 N2268 N 0.48409 -0.08651 -0.04938
 C2269 C 0.01729 -0.16282 1.05810
 N2270 N 0.00465 -0.17355 1.05483
 N2271 N 0.00221 -0.18694 1.06393
 C2272 C 0.01231 -0.19008 1.07664
 N2273 N 0.02516 -0.17949 1.07968
 N2274 N 0.02758 -0.16608 1.07061
 C2275 C 0.01861 -0.14705 1.04947
 N2276 N 0.02925 -0.13506 1.05466
 N2277 N 0.02904 -0.11992 1.04810
 C2278 C 0.01820 -0.11628 1.03611
 N2279 N 0.00781 -0.12838 1.03068
 N2280 N 0.00798 -0.14350 1.03728
 C2281 C 0.01672 -0.09922 1.03011
 N2282 N 0.00602 -0.09556 1.01800
 N2283 N 0.00385 -0.07983 1.01325
 C2284 C 0.01218 -0.06722 1.02055
 N2285 N 0.02293 -0.07089 1.03261
 N2286 N 0.02515 -0.08663 1.03732
 C2287 C 0.51363 0.33817 0.56865
 N2288 N 0.50201 0.32654 0.56484
 N2289 N 0.50077 0.31256 0.57332
 C2290 C 0.51111 0.30967 0.58591
 N2291 N 0.52294 0.32121 0.58952
 N2292 N 0.52415 0.33523 0.58107
 C2293 C 0.51379 0.35422 0.56038
 N2294 N 0.52379 0.36675 0.56557
 N2295 N 0.52287 0.38183 0.55891
 C2296 C 0.51191 0.38487 0.54686
 N2297 N 0.50207 0.37228 0.54154
 N2298 N 0.50297 0.35722 0.54821
 C2299 C 0.51019 0.40163 0.54019
 N2300 N 0.49938 0.40462 0.52800
 N2301 N 0.49751 0.41998 0.52218
 C2302 C 0.50630 0.43289 0.52841
 N2303 N 0.51709 0.42990 0.54061
 N2304 N 0.51899 0.41454 0.54641
 C2305 C 0.47754 1.16510 0.56627
 N2306 N 0.48846 1.17719 0.56193
 N2307 N 0.49036 1.19074 0.57092
 C2308 C 0.48142 1.19272 0.58459
 N2309 N 0.47022 1.18077 0.58873
 N2310 N 0.46835 1.16717 0.57976
 C2311 C 0.47711 1.14934 0.55751
 N2312 N 0.46820 1.13624 0.56320
 N2313 N 0.46935 1.12131 0.55626
 C2314 C 0.47946 1.11899 0.54342
 N2315 N 0.48812 1.13216 0.53756
 N2316 N 0.48699 1.14707 0.54451
 C2317 C 0.48190 1.10232 0.53670
 N2318 N 0.49229 1.09995 0.52407
 N2319 N 0.49515 1.08465 0.51843
 C2320 C 0.48782 1.07120 0.52531
 N2321 N 0.47740 1.07359 0.53791
 N2322 N 0.47451 1.08888 0.54353
 C2323 C -0.02171 0.66386 1.06451
 N2324 N -0.03093 0.66654 1.07787
 N2325 N -0.02950 0.68079 1.08595
 C2326 C -0.01873 0.69280 1.08100
 N2327 N -0.00975 0.69018 1.06747
 N2328 N -0.01122 0.67597 1.05936
 C2329 C -0.02173 0.64757 1.05667
 N2330 N -0.01196 0.64486 1.04367
 N2331 N -0.01056 0.62963 1.03743
 C2332 C -0.01883 0.61658 1.04403
 N2333 N -0.02880 0.61933 1.05689
 N2334 N -0.03022 0.63457 1.06312
 C2335 C -0.01624 0.59971 1.03786
 N2336 N -0.02348 0.58640 1.04508
 N2337 N -0.02060 0.57098 1.03974
 C2338 C -0.01034 0.56836 1.02706
 N2339 N -0.00313 0.58168 1.01984
 N2340 N -0.00599 0.59708 1.02519
 C2341 C 0.50797 0.65553 -0.07295
 N2342 N 0.51913 0.65871 -0.08475
 N2343 N 0.51887 0.67334 -0.09231
 C2344 C 0.50743 0.68527 -0.08836
 N2345 N 0.49645 0.68211 -0.07638
 N2346 N 0.49672 0.66752 -0.06880
 C2347 C 0.50729 0.63909 -0.06545
 N2348 N 0.49567 0.63592 -0.05406
 N2349 N 0.49438 0.62073 -0.04776
 C2350 C 0.50462 0.60817 -0.05270
 N2351 N 0.51631 0.61135 -0.06405
 N2352 N 0.51761 0.62656 -0.07034
 C2353 C 0.50301 0.59150 -0.04586
 N2354 N 0.51314 0.57881 -0.05074
 N2355 N 0.51184 0.56371 -0.04422
 C2356 C 0.50033 0.56080 -0.03264
 N2357 N 0.49013 0.57346 -0.02785
 N2358 N 0.49143 0.58854 -0.03438
 C2359 C 0.01450 1.16065 0.43540
 N2360 N 0.02579 1.16424 0.42383
 N2361 N 0.02545 1.17903 0.41656
 C2362 C 0.01371 1.19072 0.42050
 N2363 N 0.00268 1.18714 0.43234
 N2364 N 0.00306 1.17241 0.43965
 C2365 C 0.01359 1.14395 0.44228
 N2366 N 0.00199 1.14059 0.45363
 N2367 N 0.00009 1.12512 0.45907
 C2368 C 0.00966 1.11246 0.45327
 N2369 N 0.02139 1.11581 0.44201
 N2370 N 0.02331 1.13131 0.43658
 C2371 C 0.00706 1.09545 0.45896
 N2372 N 0.01608 1.08249 0.45293
 N2373 N 0.01369 1.06703 0.45832
 C2374 C 0.00215 1.06406 0.46986
 N2375 N -0.00691 1.07702 0.47580
 N2376 N -0.00454 1.09244 0.47041
 C2377 C 0.75071 0.70032 0.91195
 N2378 N 0.73830 0.70283 0.92278
 N2379 N 0.73863 0.69492 0.93681
 C2380 C 0.75137 0.68423 0.94053
 N2381 N 0.76383 0.68192 0.92971
 N2382 N 0.76350 0.68978 0.91572
 C2383 C 0.75007 0.70797 0.89599
 N2384 N 0.76177 0.70362 0.88500
 N2385 N 0.76094 0.70955 0.87020
 C2386 C 0.74844 0.72014 0.86577
 N2387 N 0.73678 0.72471 0.87679
 N2388 N 0.73757 0.71869 0.89165
 C2389 C 0.74738 0.72545 0.84899
 N2390 N 0.73667 0.73767 0.84391
 N2391 N 0.73594 0.74185 0.82846
 C2392 C 0.74576 0.73380 0.81760
 N2393 N 0.75637 0.72166 0.82277
 N2394 N 0.75720 0.71762 0.83811
 C2395 C 0.25118 0.20420 0.41229
 N2396 N 0.23808 0.20610 0.42249
 N2397 N 0.23773 0.19777 0.43628
 C2398 C 0.25044 0.18720 0.44040
 N2399 N 0.26357 0.18547 0.43021
 N2400 N 0.26393 0.19378 0.41646
 C2401 C 0.25137 0.21246 0.39658
 N2402 N 0.26414 0.20931 0.38633
 N2403 N 0.26408 0.21580 0.37172
 C2404 C 0.25128 0.22576 0.36675
 N2405 N 0.23854 0.22912 0.37705
 N2406 N 0.23858 0.22257 0.39172
 C2407 C 0.25097 0.23158 0.35008
 N2408 N 0.23909 0.24240 0.34456
 N2409 N 0.23863 0.24665 0.32912
 C2410 C 0.24998 0.24010 0.31871
 N2411 N 0.26186 0.22944 0.32433
 N2412 N 0.26239 0.22532 0.33968
 C2413 C 0.74911 0.29774 0.41333
 N2414 N 0.76224 0.29652 0.42358
 N2415 N 0.76211 0.30489 0.43736
 C2416 C 0.74888 0.31482 0.44141
 N2417 N 0.73572 0.31588 0.43117
 N2418 N 0.73584 0.30752 0.41743
 C2419 C 0.74943 0.28944 0.39764
 N2420 N 0.73655 0.29187 0.38733
 N2421 N 0.73704 0.28536 0.37273
 C2422 C 0.75039 0.27611 0.36783
 N2423 N 0.76325 0.27347 0.37820
 N2424 N 0.76277 0.28004 0.39285
 C2425 C 0.75111 0.27030 0.35117
 N2426 N 0.76367 0.26023 0.34568
 N2427 N 0.76446 0.25604 0.33024
 C2428 C 0.75278 0.26190 0.31979
 N2429 N 0.74024 0.27181 0.32538
 N2430 N 0.73938 0.27586 0.34073
 C2431 C 0.25055 0.80152 0.90823
 N2432 N 0.26145 0.79704 0.91995
 N2433 N 0.26073 0.80438 0.93425
 C2434 C 0.24906 0.81641 0.93740
 N2435 N 0.23808 0.82069 0.92569
 N2436 N 0.23884 0.81343 0.91142
 C2437 C 0.25173 0.79445 0.89205
 N2438 N 0.24234 0.80123 0.88019
 N2439 N 0.24361 0.79557 0.86533
 C2440 C 0.25423 0.78284 0.86166
 N2441 N 0.26358 0.77589 0.87352
 N2442 N 0.26239 0.78165 0.88846
 C2443 C 0.25557 0.77740 0.84492
 N2444 N 0.26351 0.76301 0.84050
 N2445 N 0.26400 0.75838 0.82515
 C2446 C 0.25669 0.76809 0.81374
 N2447 N 0.24894 0.78246 0.81826
 N2448 N 0.24836 0.78699 0.83349
 C2449 C 0.25536 0.79735 0.08667
 N2450 N 0.26854 0.80714 0.08271
 N2451 N 0.26870 0.81548 0.06897
 C2452 C 0.25568 0.81443 0.05856
 N2453 N 0.24255 0.80444 0.06250
 N2454 N 0.24237 0.79609 0.07628
 C2455 C 0.25500 0.78905 0.10235
 N2456 N 0.24170 0.77970 0.10707
 N2457 N 0.24120 0.77313 0.12171
 C2458 C 0.25398 0.77569 0.13215
 N2459 N 0.26729 0.78488 0.12733
 N2460 N 0.26781 0.79139 0.11274
 C2461 C 0.25319 0.76987 0.14880
 N2462 N 0.26488 0.77527 0.15930
 N2463 N 0.26392 0.77126 0.17466
 C2464 C 0.25131 0.76155 0.18019
 N2465 N 0.23968 0.75585 0.16967
 N2466 N 0.24058 0.75999 0.15423
 C2467 C 0.75486 0.30024 0.58997
 N2468 N 0.76748 0.31097 0.58659
 N2469 N 0.76797 0.31897 0.57267
 C2470 C 0.75583 0.31665 0.56152
 N2471 N 0.74328 0.30574 0.56489
 N2472 N 0.74279 0.29770 0.57883
 C2473 C 0.75406 0.29234 0.60581
 N2474 N 0.74184 0.28125 0.60966
 N2475 N 0.74092 0.27487 0.62437
 C2476 C 0.75215 0.27944 0.63574
 N2477 N 0.76437 0.29041 0.63181
 N2478 N 0.76533 0.29670 0.61715
 C2479 C 0.75095 0.27358 0.65236
 N2480 N 0.76043 0.28113 0.66362
 N2481 N 0.75944 0.27655 0.67882
 C2482 C 0.74902 0.26413 0.68344
 N2483 N 0.73955 0.25638 0.67218
 N2484 N 0.74044 0.26109 0.65688
 C2485 C 0.25468 0.19461 0.59275
 N2486 N 0.25238 0.17788 0.59162
 N2487 N 0.24944 0.17073 0.57757
 C2488 C 0.24869 0.17998 0.56401
 N2489 N 0.25100 0.19678 0.56513
 N2490 N 0.25388 0.20399 0.57925
 C2491 C 0.25792 0.20209 0.60850
 N2492 N 0.25866 0.21892 0.61070
 N2493 N 0.26104 0.22530 0.62527
 C2494 C 0.26284 0.21504 0.63811
 N2495 N 0.26225 0.19828 0.63580
 N2496 N 0.25985 0.19194 0.62133
 C2497 C 0.26426 0.22149 0.65452
 N2498 N 0.26466 0.21043 0.66674
 N2499 N 0.26440 0.21566 0.68178
 C2500 C 0.26388 0.23220 0.68529
 N2501 N 0.26383 0.24340 0.67309
 N2502 N 0.26401 0.23813 0.65793
 C2503 C 0.74501 0.70171 0.08863
 N2504 N 0.73217 0.69137 0.08493
 N2505 N 0.73195 0.68315 0.07113
 C2506 C 0.74460 0.68484 0.06040
 N2507 N 0.75738 0.69538 0.06407
 N2508 N 0.75760 0.70364 0.07790
 C2509 C 0.74552 0.70979 0.10440
 N2510 N 0.75818 0.72021 0.10865
 N2511 N 0.75887 0.72663 0.12335
 C2512 C 0.74694 0.72279 0.13431
 N2513 N 0.73426 0.71252 0.12996
 N2514 N 0.73354 0.70618 0.11531
 C2515 C 0.74793 0.72853 0.15097
 N2516 N 0.73765 0.72153 0.16191
 N2517 N 0.73860 0.72583 0.17719
 C2518 C 0.74977 0.73741 0.18220
 N2519 N 0.76001 0.74465 0.17126
 N2520 N 0.75915 0.74021 0.15588
 C2521 C 0.16240 0.59894 0.24428
 N2522 N 0.14800 0.59740 0.25277
 N2523 N 0.14052 0.58264 0.25417
 C2524 C 0.14721 0.56874 0.24732
 N2525 N 0.16171 0.57025 0.23891
 N2526 N 0.16912 0.58508 0.23737
 C2527 C 0.17055 0.61537 0.24293
 N2528 N 0.18270 0.61824 0.23190
 N2529 N 0.19001 0.63318 0.23091
 C2530 C 0.18551 0.64574 0.24099
 N2531 N 0.17339 0.64282 0.25199
 N2532 N 0.16598 0.62798 0.25288
 C2533 C 0.19405 0.66203 0.24073
 N2534 N 0.19298 0.67223 0.25362
 N2535 N 0.20114 0.68668 0.25396
 C2536 C 0.21051 0.69168 0.24134
 N2537 N 0.21143 0.68160 0.22829
 N2538 N 0.20340 0.66699 0.22803
 C2539 C 0.67052 0.09261 0.73983
 N2540 N 0.67787 0.07861 0.74585
 N2541 N 0.66923 0.06447 0.74731
 C2542 C 0.65281 0.06376 0.74298
 N2543 N 0.64552 0.07785 0.73698
 N2544 N 0.65419 0.09194 0.73539
 C2545 C 0.67997 0.10834 0.73862
 N2546 N 0.67381 0.12154 0.73020
 N2547 N 0.68217 0.13593 0.72957
 C2548 C 0.69695 0.13768 0.73744
 N2549 N 0.70310 0.12446 0.74581
 N2550 N 0.69483 0.11006 0.74632
 C2551 C 0.70579 0.15381 0.73778
 N2552 N 0.71762 0.15659 0.74907
 N2553 N 0.72518 0.17132 0.75010
 C2554 C 0.72139 0.18386 0.73977
 N2555 N 0.70970 0.18107 0.72829
 N2556 N 0.70197 0.16632 0.72737
 C2557 C 0.83972 0.09697 0.25586
 N2558 N 0.84035 0.08636 0.26851
 N2559 N 0.84755 0.07133 0.26709
 C2560 C 0.85440 0.06631 0.25299
 N2561 N 0.85372 0.07698 0.24040
 N2562 N 0.84651 0.09196 0.24179
 C2563 C 0.83172 0.11360 0.25709
 N2564 N 0.83043 0.12336 0.24391
 N2565 N 0.82308 0.13831 0.24467
 C2566 C 0.81678 0.14419 0.25864
 N2567 N 0.81811 0.13448 0.27190
 N2568 N 0.82545 0.11945 0.27113
 C2569 C 0.80821 0.16058 0.25891
 N2570 N 0.80250 0.16763 0.27268
 N2571 N 0.79438 0.18230 0.27242
 C2572 C 0.79164 0.19038 0.25836
 N2573 N 0.79743 0.18330 0.24470
 N2574 N 0.80558 0.16877 0.24497
 C2575 C 0.32737 0.59304 0.75888
 N2576 N 0.33911 0.58928 0.77006
 N2577 N 0.34768 0.57493 0.76933
 C2578 C 0.34486 0.56375 0.75741
 N2579 N 0.33303 0.56753 0.74629
 N2580 N 0.32448 0.58187 0.74700
 C2581 C 0.31817 0.60909 0.75931
 N2582 N 0.30723 0.61306 0.74748
 N2583 N 0.29918 0.62769 0.74752
 C2584 C 0.30169 0.63894 0.75940
 N2585 N 0.31257 0.63497 0.77131
 N2586 N 0.32067 0.62032 0.77125
 C2587 C 0.29302 0.65528 0.75892
 N2588 N 0.29467 0.66668 0.77086
 N2589 N 0.28704 0.68157 0.76995
 C2590 C 0.27752 0.68558 0.75702
 N2591 N 0.27588 0.67414 0.74517
 N2592 N 0.28343 0.65930 0.74611
 C2593 C 0.32817 0.40706 0.74405
 N2594 N 0.34071 0.41040 0.73361
 N2595 N 0.34939 0.42454 0.73473
 C2596 C 0.34592 0.43598 0.74631
 N2597 N 0.33328 0.43260 0.75671
 N2598 N 0.32462 0.41844 0.75561
 C2599 C 0.31879 0.39125 0.74307
 N2600 N 0.30700 0.38755 0.75417
 N2601 N 0.29877 0.37312 0.75359
 C2602 C 0.30195 0.36182 0.74185
 N2603 N 0.31368 0.36554 0.73068
 N2604 N 0.32196 0.37998 0.73129
 C2605 C 0.29313 0.34565 0.74173
 N2606 N 0.29558 0.33427 0.72988
 N2607 N 0.28792 0.31947 0.73029
 C2608 C 0.27756 0.31552 0.74258
 N2609 N 0.27509 0.32696 0.75434
 N2610 N 0.28267 0.34172 0.75391
 C2611 C 0.83035 0.90655 0.23966
 N2612 N 0.84561 0.90783 0.23262
 N2613 N 0.85448 0.92183 0.23393
 C2614 C 0.84843 0.93516 0.24225
 N2615 N 0.83309 0.93390 0.24917
 N2616 N 0.82426 0.91985 0.24796
 C2617 C 0.82080 0.89086 0.23877
 N2618 N 0.80730 0.88848 0.24834
 N2619 N 0.79901 0.87408 0.24805
 C2620 C 0.80378 0.86153 0.23810
 N2621 N 0.81719 0.86394 0.22839
 N2622 N 0.82557 0.87832 0.22876
 C2623 C 0.79495 0.84540 0.23852
 N2624 N 0.79747 0.83352 0.22713
 N2625 N 0.78970 0.81879 0.22801
 C2626 C 0.77926 0.81540 0.24040
 N2627 N 0.77678 0.82730 0.25171
 N2628 N 0.78439 0.84202 0.25076
 C2629 C 0.66681 0.90372 0.75546
 N2630 N 0.65993 0.90856 0.74137
 N2631 N 0.65210 0.92322 0.74002
 C2632 C 0.65086 0.93382 0.75267
 N2633 N 0.65783 0.92896 0.76679
 N2634 N 0.66561 0.91421 0.76817
 C2635 C 0.67553 0.88745 0.75659
 N2636 N 0.68090 0.88118 0.77081
 N2637 N 0.68878 0.86640 0.77149
 C2638 C 0.69163 0.85743 0.75797
 N2639 N 0.68626 0.86375 0.74382
 N2640 N 0.67833 0.87841 0.74315
 C2641 C 0.70063 0.84126 0.75819
 N2642 N 0.70528 0.83421 0.74415
 N2643 N 0.71343 0.81968 0.74386
 C2644 C 0.71720 0.81146 0.75757
 N2645 N 0.71251 0.81843 0.77171
 N2646 N 0.70440 0.83311 0.77201
 C2647 C 0.16530 0.40629 0.25593
 N2648 N 0.15821 0.41134 0.24200
 N2649 N 0.15049 0.42610 0.24092
 C2650 C 0.14958 0.43651 0.25371
 N2651 N 0.15675 0.43147 0.26766
 N2652 N 0.16444 0.41665 0.26876
 C2653 C 0.17375 0.38987 0.25687
 N2654 N 0.17980 0.38377 0.27090
 N2655 N 0.18742 0.36886 0.27147
 C2656 C 0.18929 0.35955 0.25800
 N2657 N 0.18323 0.36569 0.24403
 N2658 N 0.17559 0.38051 0.24348
 C2659 C 0.19799 0.34323 0.25812
 N2660 N 0.20117 0.33544 0.24407
 N2661 N 0.20922 0.32085 0.24372
 C2662 C 0.21438 0.31333 0.25739
 N2663 N 0.21113 0.32103 0.27155
 N2664 N 0.20310 0.33575 0.27190
 C2665 C 0.08694 0.23092 0.81382
 N2666 N 0.07523 0.24273 0.81039
 N2667 N 0.06191 0.24476 0.81976
 C2668 C 0.05982 0.23508 0.83291
 N2669 N 0.07139 0.22304 0.83613
 N2670 N 0.08474 0.22103 0.82679
 C2671 C 0.10256 0.23016 0.80475
 N2672 N 0.11539 0.22030 0.80978
 N2673 N 0.13030 0.22107 0.80270
 C2674 C 0.13286 0.23171 0.79036
 N2675 N 0.11994 0.24133 0.78511
 N2676 N 0.10504 0.24059 0.79221
 C2677 C 0.14965 0.23379 0.78373
 N2678 N 0.15234 0.24444 0.77141
 N2679 N 0.16781 0.24711 0.76607
 C2680 C 0.18111 0.23934 0.77299
 N2681 N 0.17840 0.22863 0.78525
 N2682 N 0.16294 0.22591 0.79054
 C2683 C 0.58762 0.73617 0.32043
 N2684 N 0.57528 0.74687 0.31590
 N2685 N 0.56108 0.74785 0.32416
 C2686 C 0.55868 0.73815 0.33724
 N2687 N 0.57093 0.72721 0.34157
 N2688 N 0.58517 0.72625 0.33333
 C2689 C 0.60382 0.73644 0.31234
 N2690 N 0.61690 0.72725 0.31794
 N2691 N 0.63202 0.72862 0.31135
 C2692 C 0.63453 0.73925 0.29898
 N2693 N 0.62141 0.74828 0.29328
 N2694 N 0.60632 0.74693 0.29987
 C2695 C 0.65123 0.74141 0.29219
 N2696 N 0.65361 0.75220 0.27993
 N2697 N 0.66882 0.75438 0.27381
 C2698 C 0.68218 0.74590 0.27979
 N2699 N 0.67982 0.73514 0.29209
 N2700 N 0.66459 0.73296 0.29822
 C2701 C 0.59230 0.25975 0.18219
 N2702 N 0.58075 0.24826 0.18653
 N2703 N 0.56611 0.24743 0.17900
 C2704 C 0.56247 0.25807 0.16685
 N2705 N 0.57394 0.26978 0.16273
 N2706 N 0.58860 0.27060 0.17025
 C2707 C 0.60892 0.25950 0.18945
 N2708 N 0.62111 0.26988 0.18417
 N2709 N 0.63658 0.26878 0.19007
 C2710 C 0.64034 0.25722 0.20139
 N2711 N 0.62810 0.24696 0.20674
 N2712 N 0.61267 0.24805 0.20085
 C2713 C 0.65732 0.25565 0.20768
 N2714 N 0.66083 0.24401 0.21897
 N2715 N 0.67620 0.24262 0.22495
 C2716 C 0.68863 0.25277 0.21980
 N2717 N 0.68516 0.26435 0.20841
 N2718 N 0.66976 0.26574 0.20242
 C2719 C 0.08476 0.76777 0.68372
 N2720 N 0.07315 0.75626 0.68787
 N2721 N 0.05944 0.75423 0.67908
 C2722 C 0.05682 0.76363 0.66582
 N2723 N 0.06829 0.77540 0.66188
 N2724 N 0.08204 0.77740 0.67064
 C2725 C 0.10072 0.76848 0.69221
 N2726 N 0.11346 0.77789 0.68648
 N2727 N 0.12859 0.77706 0.69313
 C2728 C 0.13147 0.76679 0.70573
 N2729 N 0.11865 0.75762 0.71164
 N2730 N 0.10354 0.75842 0.70497
 C2731 C 0.14836 0.76473 0.71214
 N2732 N 0.15121 0.75436 0.72466
 N2733 N 0.16671 0.75181 0.73002
 C2734 C 0.17990 0.75945 0.72295
 N2735 N 0.17705 0.76986 0.71045
 N2736 N 0.16154 0.77243 0.70511
 C2737 C 0.91209 0.73009 0.68310
 N2738 N 0.91497 0.71936 0.67086
 N2739 N 0.92887 0.72057 0.66215
 C2740 C 0.94033 0.73266 0.66527
 N2741 N 0.93750 0.74314 0.67775
 N2742 N 0.92367 0.74189 0.68649
 C2743 C 0.89608 0.73012 0.69153
 N2744 N 0.89332 0.74111 0.70357
 N2745 N 0.87825 0.74242 0.71025
 C2746 C 0.86540 0.73283 0.70504
 N2747 N 0.86821 0.72166 0.69313
 N2748 N 0.88331 0.72033 0.68648
 C2749 C 0.84861 0.73518 0.71160
 N2750 N 0.83541 0.72673 0.70545
 N2751 N 0.82002 0.72929 0.71111
 C2752 C 0.81732 0.74044 0.72306
 N2753 N 0.83053 0.74886 0.72922
 N2754 N 0.84591 0.74632 0.72354
 C2755 C 0.41044 0.23283 0.18154
 N2756 N 0.41342 0.22244 0.16905
 N2757 N 0.42813 0.22271 0.16156
 C2758 C 0.44035 0.23339 0.16627
 N2759 N 0.43741 0.24352 0.17896
 N2760 N 0.42274 0.24324 0.18647
 C2761 C 0.39383 0.23393 0.18875
 N2762 N 0.39085 0.24515 0.20055
 N2763 N 0.37548 0.24720 0.20637
 C2764 C 0.36254 0.23816 0.20053
 N2765 N 0.36551 0.22681 0.18882
 N2766 N 0.38092 0.22476 0.18299
 C2767 C 0.34565 0.24086 0.20672
 N2768 N 0.33254 0.23182 0.20119
 N2769 N 0.31722 0.23423 0.20711
 C2770 C 0.31453 0.24583 0.21867
 N2771 N 0.32764 0.25493 0.22409
 N2772 N 0.34292 0.25251 0.21819
 C2773 C 0.40689 0.76091 0.32417
 N2774 N 0.40996 0.77220 0.33588
 N2775 N 0.42461 0.77216 0.34348
 C2776 C 0.43670 0.76083 0.33966
 N2777 N 0.43365 0.74971 0.32778
 N2778 N 0.41903 0.74976 0.32017
 C2779 C 0.39046 0.76008 0.31655
 N2780 N 0.38743 0.74835 0.30524
 N2781 N 0.37229 0.74699 0.29876
 C2782 C 0.35963 0.75728 0.30341
 N2783 N 0.36266 0.76907 0.31468
 N2784 N 0.37783 0.77043 0.32116
 C2785 C 0.34302 0.75565 0.29631
 N2786 N 0.33027 0.76590 0.30083
 N2787 N 0.31525 0.76460 0.29406
 C2788 C 0.31247 0.75298 0.28257
 N2789 N 0.32519 0.74267 0.27813
 N2790 N 0.34020 0.74396 0.28491
 C2791 C 0.91228 0.26330 0.82119
 N2792 N 0.91481 0.27351 0.83388
 N2793 N 0.92918 0.27289 0.84195
 C2794 C 0.94149 0.26200 0.83765
 N2795 N 0.93900 0.25198 0.82480
 N2796 N 0.92467 0.25263 0.81671
 C2797 C 0.89605 0.26283 0.81316
 N2798 N 0.89363 0.25236 0.80065
 N2799 N 0.87856 0.25097 0.79399
 C2800 C 0.86539 0.25995 0.79968
 N2801 N 0.86783 0.27054 0.81210
 N2802 N 0.88291 0.27195 0.81874
 C2803 C 0.84873 0.25784 0.79277
 N2804 N 0.83531 0.26607 0.79894
 N2805 N 0.82011 0.26396 0.79272
 C2806 C 0.81784 0.25350 0.78016
 N2807 N 0.83127 0.24525 0.77402
 N2808 N 0.84645 0.24735 0.78025
 C2809 C 0.55736 1.01459 0.65600
 N2810 N 0.57429 1.01537 0.65711
 N2811 N 0.58201 1.01240 0.67090
 C2812 C 0.57315 1.00849 0.68420
 N2813 N 0.55614 1.00775 0.68311
 N2814 N 0.54839 1.01071 0.66926
 C2815 C 0.54920 1.01747 0.64046
 N2816 N 0.53235 1.01593 0.63852
 N2817 N 0.52539 1.01780 0.62412
 C2818 C 0.53504 1.02131 0.61119
 N2819 N 0.55181 1.02300 0.61323
 N2820 N 0.55874 1.02115 0.62756
 C2821 C 0.52805 1.02193 0.59494
 N2822 N 0.53869 1.02277 0.58236
 N2823 N 0.53298 1.02176 0.56750
 C2824 C 0.51637 1.02006 0.56453
 N2825 N 0.50558 1.01958 0.57708
 N2826 N 0.51133 1.02046 0.59205
 C2827 C 0.05680 0.51439 1.15902
 N2828 N 0.07372 0.51425 1.16038
 N2829 N 0.08103 0.51210 1.17450
 C2830 C 0.07180 0.50997 1.18798
 N2831 N 0.05476 0.51015 1.18658
 N2832 N 0.04741 0.51228 1.17239
 C2833 C 0.04912 0.51637 1.14313
 N2834 N 0.03224 0.51591 1.14093
 N2835 N 0.02571 0.51709 1.12627
 C2836 C 0.03585 0.51878 1.11333
 N2837 N 0.05267 0.51936 1.11562
 N2838 N 0.05916 0.51821 1.13020
 C2839 C 0.02924 0.51887 1.09691
 N2840 N 0.04017 0.51822 1.08454
 N2841 N 0.03470 0.51704 1.06961
 C2842 C 0.01805 0.51661 1.06635
 N2843 N 0.00700 0.51756 1.07868
 N2844 N 0.01251 0.51864 1.09372
 C2845 C -0.05595 -0.01546 1.15528
 N2846 N -0.04671 -0.01291 1.16866
 N2847 N -0.05421 -0.01013 1.18267
 C2848 C -0.07124 -0.00971 1.18383
 N2849 N -0.08037 -0.01227 1.17037
 N2850 N -0.07290 -0.01508 1.15642
 C2851 C -0.04805 -0.01815 1.13960
 N2852 N -0.05785 -0.02085 1.12664
 N2853 N -0.05111 -0.02247 1.11221
 C2854 C -0.03429 -0.02151 1.11011
 N2855 N -0.02439 -0.01898 1.12309
 N2856 N -0.03116 -0.01736 1.13760
 C2857 C -0.02743 -0.02174 1.09380
 N2858 N -0.01070 -0.02052 1.09088
 N2859 N -0.00503 -0.01909 1.07593
 C2860 C -0.01590 -0.01878 1.06343
 N2861 N -0.03253 -0.02028 1.06642
 N2862 N -0.03816 -0.02181 1.08127
 C2863 C 0.44230 0.49192 0.65850
 N2864 N 0.45140 0.49194 0.67221
 N2865 N 0.44388 0.49422 0.68629
 C2866 C 0.42701 0.49666 0.68719
 N2867 N 0.41802 0.49668 0.67343
 N2868 N 0.42549 0.49436 0.65941
 C2869 C 0.45016 0.48947 0.64276
 N2870 N 0.44031 0.48887 0.62960
 N2871 N 0.44701 0.48718 0.61517
 C2872 C 0.46386 0.48599 0.61325
 N2873 N 0.47381 0.48647 0.62642
 N2874 N 0.46706 0.48814 0.64095
 C2875 C 0.47075 0.48531 0.59696
 N2876 N 0.48752 0.48450 0.59398
 N2877 N 0.49328 0.48515 0.57899
 C2878 C 0.48244 0.48668 0.56653
 N2879 N 0.46577 0.48724 0.56960
 N2880 N 0.46005 0.48650 0.58446
 C2881 C 0.45024 0.49677 -0.16077
 N2882 N 0.43996 0.48393 -0.16463
 N2883 N 0.43179 0.48378 -0.17847
 C2884 C 0.43352 0.49647 -0.18909
 N2885 N 0.44395 0.50927 -0.18529
 N2886 N 0.45215 0.50943 -0.17140
 C2887 C 0.45833 0.49710 -0.14498
 N2888 N 0.46854 0.50982 -0.14044
 N2889 N 0.47501 0.51024 -0.12573
 C2890 C 0.47144 0.49797 -0.11505
 N2891 N 0.46137 0.48526 -0.11969
 N2892 N 0.45497 0.48482 -0.13434
 C2893 C 0.47731 0.49853 -0.09839
 N2894 N 0.47076 0.48760 -0.08779
 N2895 N 0.47518 0.48806 -0.07252
 C2896 C 0.48644 0.49938 -0.06716
 N2897 N 0.49322 0.51030 -0.07776
 N2898 N 0.48867 0.50992 -0.09313
 C2899 C -0.05111 1.00061 0.33756
 N2900 N -0.06170 0.98797 0.33392
 N2901 N -0.06898 0.98715 0.31967
 C2902 C -0.06607 0.99898 0.30842
 N2903 N -0.05535 1.01161 0.31201
 N2904 N -0.04799 1.01241 0.32631
 C2905 C -0.04406 1.00167 0.35376
 N2906 N -0.03249 1.01334 0.35786
 N2907 N -0.02679 1.01430 0.37284
 C2908 C -0.03258 1.00369 0.38422
 N2909 N -0.04406 0.99205 0.38004
 N2910 N -0.04964 0.99103 0.36513
 C2911 C -0.02731 1.00473 0.40103
 N2912 N -0.03618 0.99618 0.41208
 N2913 N -0.03183 0.99656 0.42737
 C2914 C -0.01837 1.00543 0.43231
 N2915 N -0.00936 1.01405 0.42129
 N2916 N -0.01383 1.01377 0.40588
 C2917 C 0.05734 0.48785 0.34335
 N2918 N 0.07194 0.49629 0.34178
 N2919 N 0.07848 0.49915 0.32745
 C2920 C 0.07076 0.49361 0.31403
 N2921 N 0.05613 0.48509 0.31557
 N2922 N 0.04949 0.48234 0.32996
 C2923 C 0.05050 0.48485 0.35941
 N2924 N 0.03442 0.47982 0.36175
 N2925 N 0.02839 0.47788 0.37652
 C2926 C 0.03830 0.48075 0.38943
 N2927 N 0.05437 0.48558 0.38701
 N2928 N 0.06032 0.48763 0.37233
 C2929 C 0.03192 0.47974 0.40590
 N2930 N 0.04276 0.48201 0.41815
 N2931 N 0.03729 0.48287 0.43310
 C2932 C 0.02074 0.48147 0.43651
 N2933 N 0.00981 0.47884 0.42430
 N2934 N 0.01532 0.47796 0.40924
 C2935 C 0.55313 -0.00425 -0.16266
 N2936 N 0.56326 0.00880 -0.16614
 N2937 N 0.57088 0.00980 -0.18023
 C2938 C 0.56876 -0.00224 -0.19144
 N2939 N 0.55850 -0.01529 -0.18800
 N2940 N 0.55080 -0.01628 -0.17388
 C2941 C 0.54571 -0.00546 -0.14661
 N2942 N 0.53459 -0.01761 -0.14265
 N2943 N 0.52861 -0.01870 -0.12778
 C2944 C 0.53365 -0.00773 -0.11637
 N2945 N 0.54467 0.00438 -0.12043
 N2946 N 0.55053 0.00553 -0.13522
 C2947 C 0.52820 -0.00894 -0.09962
 N2948 N 0.53670 -0.00015 -0.08848
 N2949 N 0.53226 -0.00071 -0.07324
 C2950 C 0.51904 -0.01000 -0.06841
 N2951 N 0.51039 -0.01886 -0.07953
 N2952 N 0.51496 -0.01841 -0.09490
 C2953 C 0.65553 0.57974 -0.00760
 N2954 N 0.66528 0.57880 0.00566
 N2955 N 0.67951 0.58737 0.00664
 C2956 C 0.68460 0.59726 -0.00558
 N2957 N 0.67484 0.59814 -0.01888
 N2958 N 0.66060 0.58955 -0.01988
 C2959 C 0.63957 0.57057 -0.00834
 N2960 N 0.62965 0.57117 -0.02153
 N2961 N 0.61503 0.56312 -0.02187
 C2962 C 0.60982 0.55421 -0.00901
 N2963 N 0.61979 0.55360 0.00411
 N2964 N 0.63437 0.56159 0.00444
 C2965 C 0.59350 0.54565 -0.00883
 N2966 N 0.58829 0.53816 0.00478
 N2967 N 0.57347 0.53069 0.00545
 C2968 C 0.56321 0.53032 -0.00747
 N2969 N 0.56841 0.53774 -0.02119
 N2970 N 0.58330 0.54530 -0.02185
 C2971 C 0.15402 1.07932 0.48976
 N2972 N 0.15748 1.09137 0.47886
 N2973 N 0.17145 1.10038 0.48002
 C2974 C 0.18254 1.09770 0.49210
 N2975 N 0.17907 1.08557 0.50293
 N2976 N 0.16510 1.07659 0.50180
 C2977 C 0.13835 1.06967 0.48889
 N2978 N 0.13457 1.05853 0.50054
 N2979 N 0.12022 1.05013 0.50016
 C2980 C 0.10907 1.05247 0.48811
 N2981 N 0.11287 1.06353 0.47637
 N2982 N 0.12725 1.07198 0.47677
 C2983 C 0.09291 1.04359 0.48834
 N2984 N 0.08166 1.04506 0.47620
 N2985 N 0.06681 1.03746 0.47699
 C2986 C 0.06268 1.02816 0.48997
 N2987 N 0.07399 1.02666 0.50200
 N2988 N 0.08880 1.03417 0.50119
 C2989 C 0.16158 -0.07770 1.00821
 N2990 N 0.16567 -0.08888 1.01977
 N2991 N 0.17963 -0.09806 1.01864
 C2992 C 0.19010 -0.09648 1.00591
 N2993 N 0.18597 -0.08520 0.99440
 N2994 N 0.17202 -0.07602 0.99553
 C2995 C 0.14593 -0.06784 1.00917
 N2996 N 0.14193 -0.05678 0.99747
 N2997 N 0.12759 -0.04818 0.99801
 C2998 C 0.11667 -0.05026 1.01027
 N2999 N 0.12069 -0.06126 1.02204
 N3000 N 0.13506 -0.06988 1.02150
 C3001 C 0.10051 -0.04120 1.01031
 N3002 N 0.08906 -0.04346 1.02212
 N3003 N 0.07414 -0.03581 1.02154
 C3004 C 0.07015 -0.02560 1.00912
 N3005 N 0.08168 -0.02326 0.99743
 N3006 N 0.09655 -0.03087 0.99802
 C3007 C 0.65959 0.42016 0.51065
 N3008 N 0.66421 0.40934 0.52234
 N3009 N 0.67847 0.40063 0.52118
 C3010 C 0.68870 0.40234 0.50827
 N3011 N 0.68401 0.41325 0.49664
 N3012 N 0.66978 0.42196 0.49780
 C3013 C 0.64365 0.42954 0.51161
 N3014 N 0.63917 0.44009 0.49966
 N3015 N 0.62462 0.44830 0.50015
 C3016 C 0.61393 0.44632 0.51261
 N3017 N 0.61842 0.43582 0.52465
 N3018 N 0.63302 0.42759 0.52415
 C3019 C 0.59759 0.45502 0.51252
 N3020 N 0.58637 0.45334 0.52464
 N3021 N 0.57135 0.46080 0.52391
 C3022 C 0.56703 0.47018 0.51100
 N3023 N 0.57832 0.47191 0.49900
 N3024 N 0.59328 0.46453 0.49976
 C3025 C -0.15755 0.42378 0.49068
 N3026 N -0.16814 0.42594 0.50321
 N3027 N -0.18194 0.41674 0.50457
 C3028 C -0.18575 0.40499 0.49346
 N3029 N -0.17515 0.40289 0.48089
 N3030 N -0.16133 0.41208 0.47953
 C3031 C -0.14206 0.43366 0.48948
 N3032 N -0.13096 0.43106 0.47741
 N3033 N -0.11670 0.43967 0.47670
 C3034 C -0.11303 0.45124 0.48803
 N3035 N -0.12418 0.45389 0.50002
 N3036 N -0.13841 0.44529 0.50073
 C3037 C -0.09694 0.46023 0.48792
 N3038 N -0.09331 0.47103 0.49990
 N3039 N -0.07844 0.47846 0.50058
 C3040 C -0.06660 0.47548 0.48928
 N3041 N -0.07027 0.46483 0.47714
 N3042 N -0.08518 0.45735 0.47647
 C3043 C 0.34498 -0.08110 -0.01046
 N3044 N 0.33492 -0.07944 0.00253
 N3045 N 0.32069 -0.08800 0.00365
 C3046 C 0.31590 -0.09859 -0.00816
 N3047 N 0.32597 -0.10018 -0.02118
 N3048 N 0.34022 -0.09162 -0.02232
 C3049 C 0.36093 -0.07193 -0.01137
 N3050 N 0.37132 -0.07359 -0.02415
 N3051 N 0.38595 -0.06557 -0.02461
 C3052 C 0.39070 -0.05560 -0.01230
 N3053 N 0.38025 -0.05391 0.00040
 N3054 N 0.36567 -0.06189 0.00085
 C3055 C 0.40709 -0.04717 -0.01218
 N3056 N 0.41177 -0.03841 0.00091
 N3057 N 0.42676 -0.03128 0.00165
 C3058 C 0.43771 -0.03251 -0.01070
 N3059 N 0.43302 -0.04115 -0.02393
 N3060 N 0.41797 -0.04837 -0.02465
 C3061 C 0.33802 1.08001 0.50909
 N3062 N 0.33470 1.09265 0.51944
 N3063 N 0.32066 1.10166 0.51808
 C3064 C 0.30936 1.09843 0.50634
 N3065 N 0.31270 1.08571 0.49603
 N3066 N 0.32675 1.07670 0.49737
 C3067 C 0.35378 1.07035 0.51025
 N3068 N 0.35743 1.05836 0.49932
 N3069 N 0.37191 1.05000 0.49998
 C3070 C 0.38329 1.05325 0.51162
 N3071 N 0.37960 1.06517 0.52264
 N3072 N 0.36511 1.07356 0.52197
 C3073 C 0.39963 1.04454 0.51163
 N3074 N 0.41127 1.04741 0.52317
 N3075 N 0.42638 1.04016 0.52246
 C3076 C 0.43038 1.02979 0.51017
 N3077 N 0.41867 1.02683 0.49877
 N3078 N 0.40360 1.03401 0.49951
 C3079 C -0.16020 0.57758 1.01141
 N3080 N -0.16443 0.58890 1.02281
 N3081 N -0.17847 0.59792 1.02152
 C3082 C -0.18885 0.59603 1.00877
 N3083 N -0.18461 0.58464 0.99741
 N3084 N -0.17058 0.57561 0.99871
 C3085 C -0.14446 0.56789 1.01251
 N3086 N -0.14034 0.55677 1.00092
 N3087 N -0.12590 0.54836 1.00152
 C3088 C -0.11499 0.55072 1.01375
 N3089 N -0.11912 0.56178 1.02543
 N3090 N -0.13361 0.57020 1.02482
 C3091 C -0.09868 0.54195 1.01372
 N3092 N -0.08719 0.54433 1.02549
 N3093 N -0.07210 0.53703 1.02473
 C3094 C -0.06798 0.52708 1.01215
 N3095 N -0.07956 0.52460 1.00053
 N3096 N -0.09459 0.53184 1.00131
 C3097 C 0.02275 0.66411 0.55641
 N3098 N 0.01072 0.67542 0.55248
 N3099 N 0.00797 0.68873 0.56165
 C3100 C 0.01714 0.69122 0.57508
 N3101 N 0.02944 0.68008 0.57879
 N3102 N 0.03215 0.66673 0.56966
 C3103 C 0.02401 0.64832 0.54776
 N3104 N 0.03340 0.63559 0.55373
 N3105 N 0.03267 0.62044 0.54724
 C3106 C 0.02255 0.61751 0.53455
 N3107 N 0.01348 0.63034 0.52832
 N3108 N 0.01417 0.64548 0.53485
 C3109 C 0.02007 0.60049 0.52879
 N3110 N 0.00996 0.59753 0.51609
 N3111 N 0.00656 0.58194 0.51166
 C3112 C 0.01300 0.56880 0.51990
 N3113 N 0.02321 0.57176 0.53253
 N3114 N 0.02666 0.58735 0.53691
 C3115 C 0.52116 0.15731 0.06417
 N3116 N 0.51006 0.16919 0.05942
 N3117 N 0.50825 0.18325 0.06772
 C3118 C 0.51749 0.18596 0.08106
 N3119 N 0.52887 0.17419 0.08560
 N3120 N 0.53064 0.16009 0.07734
 C3121 C 0.52155 0.14110 0.05621
 N3122 N 0.53050 0.12819 0.06245
 N3123 N 0.52933 0.11295 0.05619
 C3124 C 0.51916 0.11013 0.04351
 N3125 N 0.51045 0.12310 0.03712
 N3126 N 0.51159 0.13832 0.04338
 C3127 C 0.51675 0.09327 0.03735
 N3128 N 0.50616 0.09067 0.02496
 N3129 N 0.50337 0.07530 0.01963
 C3130 C 0.51098 0.06196 0.02658
 N3131 N 0.52161 0.06453 0.03898
 N3132 N 0.52441 0.07994 0.04431
 C3133 C -0.01562 0.16619 0.94429
 N3134 N -0.02611 0.16939 0.93192
 N3135 N -0.02404 0.18292 0.92293
 C3136 C -0.01132 0.19369 0.92590
 N3137 N -0.00100 0.19059 0.93846
 N3138 N -0.00310 0.17709 0.94749
 C3139 C -0.01660 0.15033 0.95284
 N3140 N -0.00594 0.14696 0.96506
 N3141 N -0.00545 0.13180 0.97158
 C3142 C -0.01551 0.11949 0.96603
 N3143 N -0.02637 0.12295 0.95401
 N3144 N -0.02692 0.13812 0.94754
 C3145 C -0.01357 0.10239 0.97185
 N3146 N -0.02127 0.08960 0.96422
 N3147 N -0.01846 0.07387 0.96866
 C3148 C -0.00785 0.07039 0.98088
 N3149 N -0.00030 0.08319 0.98864
 N3150 N -0.00304 0.09892 0.98415
 C3151 C 0.48374 0.66346 0.44154
 N3152 N 0.47317 0.66688 0.42928
 N3153 N 0.47433 0.68122 0.42135
 C3154 C 0.48615 0.69263 0.42532
 N3155 N 0.49653 0.68929 0.43777
 N3156 N 0.49534 0.67498 0.44575
 C3157 C 0.48379 0.64700 0.44902
 N3158 N 0.49452 0.64356 0.46115
 N3159 N 0.49578 0.62813 0.46695
 C3160 C 0.48642 0.61561 0.46075
 N3161 N 0.47552 0.61908 0.44876
 N3162 N 0.47423 0.63453 0.44299
 C3163 C 0.48873 0.59849 0.46639
 N3164 N 0.48079 0.58561 0.45913
 N3165 N 0.48341 0.56996 0.46397
 C3166 C 0.49409 0.56670 0.47620
 N3167 N 0.50198 0.57960 0.48346
 N3168 N 0.49940 0.59522 0.47860
 C3169 C 0.51869 0.84146 0.43903
 N3170 N 0.50782 0.82970 0.44424
 N3171 N 0.50579 0.81557 0.43612
 C3172 C 0.51457 0.81267 0.42252
 N3173 N 0.52568 0.82434 0.41749
 N3174 N 0.52766 0.83851 0.42557
 C3175 C 0.51941 0.85771 0.44692
 N3176 N 0.52787 0.87055 0.44016
 N3177 N 0.52699 0.88582 0.44642
 C3178 C 0.51763 0.88873 0.45966
 N3179 N 0.50943 0.87583 0.46658
 N3180 N 0.51027 0.86058 0.46030
 C3181 C 0.51532 0.90569 0.46573
 N3182 N 0.50572 0.90843 0.47883
 N3183 N 0.50271 0.92391 0.48388
 C3184 C 0.50911 0.93720 0.47595
 N3185 N 0.51880 0.93447 0.46289
 N3186 N 0.52183 0.91896 0.45784
 C3187 C 0.02239 0.33951 0.93914
 N3188 N 0.03135 0.33700 0.92559
 N3189 N 0.02958 0.32298 0.91723
 C3190 C 0.01870 0.31101 0.92207
 N3191 N 0.00997 0.31345 0.93578
 N3192 N 0.01178 0.32743 0.94417
 C3193 C 0.02277 0.35563 0.94730
 N3194 N 0.01347 0.35812 0.96065
 N3195 N 0.01226 0.37326 0.96713
 C3196 C 0.02025 0.38643 0.96045
 N3197 N 0.02978 0.38389 0.94725
 N3198 N 0.03102 0.36874 0.94078
 C3199 C 0.01757 0.40327 0.96669
 N3200 N 0.02393 0.41672 0.95898
 N3201 N 0.02062 0.43212 0.96416
 C3202 C 0.01079 0.43457 0.97718
 N3203 N 0.00454 0.42110 0.98494
 N3204 N 0.00781 0.40572 0.97975
 C3205 C 0.48665 0.33599 0.06719
 N3206 N 0.47621 0.33262 0.07954
 N3207 N 0.47709 0.31798 0.08703
 C3208 C 0.48848 0.30622 0.08249
 N3209 N 0.49869 0.30954 0.06995
 N3210 N 0.49779 0.32414 0.06244
 C3211 C 0.48700 0.35259 0.06002
 N3212 N 0.49804 0.35595 0.04816
 N3213 N 0.49944 0.37136 0.04244
 C3214 C 0.48993 0.38398 0.04844
 N3215 N 0.47875 0.38062 0.06019
 N3216 N 0.47733 0.36517 0.06591
 C3217 C 0.49209 0.40096 0.04249
 N3218 N 0.48296 0.41386 0.04853
 N3219 N 0.48506 0.42931 0.04300
 C3220 C 0.49642 0.43235 0.03132
 N3221 N 0.50558 0.41945 0.02536
 N3222 N 0.50348 0.40404 0.03088
 C3223 C -0.02138 0.83676 0.56302
 N3224 N -0.03052 0.83394 0.57639
 N3225 N -0.02889 0.81960 0.58431
 C3226 C -0.01801 0.80764 0.57920
 N3227 N -0.00913 0.81038 0.56565
 N3228 N -0.01079 0.82467 0.55770
 C3229 C -0.02150 0.85315 0.55540
 N3230 N -0.01172 0.85596 0.54246
 N3231 N -0.01031 0.87127 0.53647
 C3232 C -0.01857 0.88431 0.54325
 N3233 N -0.02857 0.88148 0.55606
 N3234 N -0.03000 0.86615 0.56205
 C3235 C -0.01594 0.90123 0.53732
 N3236 N -0.02336 0.91456 0.54450
 N3237 N -0.02045 0.92999 0.53930
 C3238 C -0.00994 0.93260 0.52682
 N3239 N -0.00254 0.91926 0.51966
 N3240 N -0.00545 0.90386 0.52485
 C3241 C 0.24983 0.29737 0.08860
 N3242 N 0.23632 0.30684 0.08455
 N3243 N 0.23578 0.31484 0.07065
 C3244 C 0.24872 0.31378 0.06018
 N3245 N 0.26222 0.30416 0.06418
 N3246 N 0.26277 0.29610 0.07813
 C3247 C 0.25049 0.28955 0.10450
 N3248 N 0.26363 0.27981 0.10921
 N3249 N 0.26427 0.27364 0.12403
 C3250 C 0.25181 0.27708 0.13463
 N3251 N 0.23869 0.28669 0.12981
 N3252 N 0.23802 0.29275 0.11506
 C3253 C 0.25258 0.27168 0.15141
 N3254 N 0.24182 0.27875 0.16197
 N3255 N 0.24235 0.27467 0.17731
 C3256 C 0.25355 0.26323 0.18280
 N3257 N 0.26430 0.25593 0.17226
 N3258 N 0.26387 0.26016 0.15680
 C3259 C 0.75541 0.80452 0.59283
 N3260 N 0.75282 0.82127 0.59204
 N3261 N 0.74991 0.82872 0.57812
 C3262 C 0.74948 0.81978 0.56436
 N3263 N 0.75207 0.80297 0.56514
 N3264 N 0.75492 0.79546 0.57913
 C3265 C 0.75860 0.79670 0.60845
 N3266 N 0.75949 0.77983 0.61031
 N3267 N 0.76176 0.77314 0.62478
 C3268 C 0.76333 0.78312 0.63783
 N3269 N 0.76260 0.79993 0.63585
 N3270 N 0.76029 0.80658 0.62148
 C3271 C 0.76456 0.77635 0.65412
 N3272 N 0.76461 0.78717 0.66655
 N3273 N 0.76413 0.78165 0.68148
 C3274 C 0.76370 0.76506 0.68468
 N3275 N 0.76402 0.75408 0.67228
 N3276 N 0.76442 0.75964 0.65723
 C3277 C 0.23544 0.69262 0.59062
 N3278 N 0.23535 0.67575 0.58915
 N3279 N 0.23806 0.66853 0.57508
 C3280 C 0.24100 0.67785 0.56184
 N3281 N 0.24104 0.69479 0.56330
 N3282 N 0.23834 0.70205 0.57743
 C3283 C 0.23288 0.70024 0.60644
 N3284 N 0.23350 0.71706 0.60867
 N3285 N 0.23189 0.72358 0.62328
 C3286 C 0.22959 0.71349 0.63614
 N3287 N 0.22883 0.69673 0.63382
 N3288 N 0.23041 0.69025 0.61928
 C3289 C 0.22920 0.72010 0.65253
 N3290 N 0.22953 0.70925 0.66494
 N3291 N 0.23064 0.71475 0.67986
 C3292 C 0.23131 0.73135 0.68305
 N3293 N 0.23065 0.74232 0.67067
 N3294 N 0.22964 0.73678 0.65565
 C3295 C 0.75289 0.20244 0.09037
 N3296 N 0.73986 0.20367 0.08000
 N3297 N 0.74016 0.19536 0.06619
 C3298 C 0.75348 0.18550 0.06221
 N3299 N 0.76653 0.18445 0.07257
 N3300 N 0.76624 0.19273 0.08634
 C3301 C 0.75246 0.21063 0.10610
 N3302 N 0.76518 0.20789 0.11652
 N3303 N 0.76468 0.21432 0.13114
 C3304 C 0.75150 0.22383 0.13597
 N3305 N 0.73879 0.22679 0.12552
 N3306 N 0.73926 0.22028 0.11083
 C3307 C 0.75092 0.22964 0.15264
 N3308 N 0.73911 0.24061 0.15807
 N3309 N 0.73875 0.24508 0.17347
 C3310 C 0.75011 0.23859 0.18391
 N3311 N 0.76184 0.22772 0.17838
 N3312 N 0.76229 0.22340 0.16309
 C3313 C 0.75208 0.19661 0.91106
 N3314 N 0.74069 0.18445 0.91392
 N3315 N 0.73949 0.17746 0.92828
 C3316 C 0.74966 0.18229 0.94041
 N3317 N 0.76100 0.19458 0.93757
 N3318 N 0.76217 0.20164 0.92318
 C3319 C 0.75379 0.20341 0.89483
 N3320 N 0.76382 0.21668 0.89158
 N3321 N 0.76543 0.22230 0.87663
 C3322 C 0.75717 0.21473 0.86444
 N3323 N 0.74719 0.20152 0.86777
 N3324 N 0.74550 0.19600 0.88264
 C3325 C 0.75883 0.22023 0.84776
 N3326 N 0.75257 0.21037 0.83608
 N3327 N 0.75323 0.21508 0.82091
 C3328 C 0.76015 0.22988 0.81670
 N3329 N 0.76656 0.23982 0.82835
 N3330 N 0.76597 0.23503 0.84364
 C3331 C 0.24961 0.70281 0.40956
 N3332 N 0.26290 0.70344 0.41968
 N3333 N 0.26269 0.69503 0.43344
 C3334 C 0.24919 0.68565 0.43759
 N3335 N 0.23591 0.68519 0.42748
 N3336 N 0.23612 0.69357 0.41377
 C3337 C 0.24984 0.71117 0.39390
 N3338 N 0.23677 0.70904 0.38379
 N3339 N 0.23699 0.71566 0.36924
 C3340 C 0.25025 0.72477 0.36419
 N3341 N 0.26332 0.72713 0.37435
 N3342 N 0.26312 0.72043 0.38897
 C3343 C 0.25052 0.73080 0.34759
 N3344 N 0.26251 0.74134 0.34201
 N3345 N 0.26265 0.74594 0.32665
 C3346 C 0.25089 0.74001 0.31638
 N3347 N 0.23896 0.72959 0.32206
 N3348 N 0.23873 0.72514 0.33732
 C3349 C 0.74706 0.80068 0.41105
 N3350 N 0.75903 0.81217 0.41429
 N3351 N 0.75978 0.81951 0.42852
 C3352 C 0.74857 0.81573 0.44013
 N3353 N 0.73665 0.80409 0.43693
 N3354 N 0.73592 0.79668 0.42267
 C3355 C 0.74589 0.79360 0.39487
 N3356 N 0.73487 0.78126 0.39118
 N3357 N 0.73367 0.77555 0.37623
 C3358 C 0.74337 0.78209 0.36447
 N3359 N 0.75436 0.79434 0.36825
 N3360 N 0.75563 0.79994 0.38313
 C3361 C 0.74201 0.77676 0.34771
 N3362 N 0.74958 0.78610 0.33637
 N3363 N 0.74896 0.78167 0.32112
 C3364 C 0.74082 0.76766 0.31649
 N3365 N 0.73316 0.75820 0.32780
 N3366 N 0.73368 0.76273 0.34317
 C3367 C 0.23343 0.30660 0.90706
 N3368 N 0.23694 0.29716 0.92013
 N3369 N 0.23981 0.30440 0.93423
 C3370 C 0.23936 0.32133 0.93576
 N3371 N 0.23582 0.33066 0.92265
 N3372 N 0.23293 0.32346 0.90861
 C3373 C 0.23074 0.29900 0.89127
 N3374 N 0.22749 0.30898 0.87855
 N3375 N 0.22588 0.30253 0.86400
 C3376 C 0.22739 0.28583 0.86156
 N3377 N 0.23045 0.27575 0.87431
 N3378 N 0.23208 0.28223 0.88892
 C3379 C 0.22713 0.27930 0.84514
 N3380 N 0.22857 0.26268 0.84194
 N3381 N 0.22989 0.25728 0.82689
 C3382 C 0.22988 0.26833 0.81457
 N3383 N 0.22819 0.28486 0.81783
 N3384 N 0.22675 0.29022 0.83278
 C3385 C 0.82977 0.40546 0.76194
 N3386 N 0.82640 0.41665 0.75017
 N3387 N 0.83529 0.43063 0.74881
 C3388 C 0.84796 0.43400 0.75915
 N3389 N 0.85126 0.42280 0.77097
 N3390 N 0.84236 0.40881 0.77234
 C3391 C 0.82022 0.38977 0.76301
 N3392 N 0.82336 0.37841 0.77474
 N3393 N 0.81504 0.36399 0.77525
 C3394 C 0.80328 0.36040 0.76405
 N3395 N 0.80011 0.37180 0.75242
 N3396 N 0.80839 0.38620 0.75192
 C3397 C 0.79460 0.34417 0.76381
 N3398 N 0.78445 0.34038 0.75137
 N3399 N 0.77723 0.32548 0.75039
 C3400 C 0.77974 0.31374 0.76185
 N3401 N 0.78973 0.31755 0.77447
 N3402 N 0.79706 0.33251 0.77542
 C3403 C 0.33178 0.90780 0.25596
 N3404 N 0.33060 0.91766 0.24282
 N3405 N 0.33907 0.93192 0.24189
 C3406 C 0.34918 0.93699 0.25403
 N3407 N 0.35024 0.92707 0.26722
 N3408 N 0.34173 0.91280 0.26818
 C3409 C 0.32269 0.89182 0.25667
 N3410 N 0.32328 0.88196 0.26989
 N3411 N 0.31529 0.86735 0.27023
 C3412 C 0.30644 0.86205 0.25734
 N3413 N 0.30584 0.87195 0.24419
 N3414 N 0.31377 0.88654 0.24386
 C3415 C 0.29793 0.84573 0.25718
 N3416 N 0.29065 0.84033 0.24352
 N3417 N 0.28320 0.82553 0.24291
 C3418 C 0.28262 0.81548 0.25594
 N3419 N 0.28982 0.82087 0.26972
 N3420 N 0.29738 0.83573 0.27031
 C3421 C 0.17151 0.90972 0.73677
 N3422 N 0.15881 0.91305 0.72646
 N3423 N 0.14984 0.92710 0.72779
 C3424 C 0.15320 0.93839 0.73949
 N3425 N 0.16598 0.93504 0.74974
 N3426 N 0.17494 0.92100 0.74842
 C3427 C 0.18109 0.89394 0.73572
 N3428 N 0.19315 0.89038 0.74664
 N3429 N 0.20144 0.87589 0.74615
 C3430 C 0.19804 0.86439 0.73469
 N3431 N 0.18605 0.86798 0.72367
 N3432 N 0.17773 0.88250 0.72418
 C3433 C 0.20668 0.84806 0.73487
 N3434 N 0.20370 0.83629 0.72352
 N3435 N 0.21095 0.82122 0.72441
 C3436 C 0.22141 0.81740 0.73670
 N3437 N 0.22446 0.82924 0.74792
 N3438 N 0.21730 0.84427 0.74700
 C3439 C 0.67032 0.40803 0.24276
 N3440 N 0.66062 0.41305 0.23032
 N3441 N 0.65210 0.42743 0.23101
 C3442 C 0.65293 0.43739 0.24415
 N3443 N 0.66272 0.43235 0.25654
 N3444 N 0.67122 0.41797 0.25587
 C3445 C 0.67940 0.39193 0.24233
 N3446 N 0.68821 0.38670 0.25527
 N3447 N 0.69614 0.37201 0.25518
 C3448 C 0.69564 0.36195 0.24214
 N3449 N 0.68690 0.36718 0.22913
 N3450 N 0.67891 0.38189 0.22923
 C3451 C 0.70418 0.34555 0.24251
 N3452 N 0.70464 0.33534 0.22952
 N3453 N 0.71224 0.32041 0.23026
 C3454 C 0.71958 0.31517 0.24404
 N3455 N 0.71909 0.32543 0.25695
 N3456 N 0.71159 0.34029 0.25619
 C3457 C 0.67011 0.59351 0.25918
 N3458 N 0.65956 0.58880 0.27104
 N3459 N 0.65091 0.57464 0.26990
 C3460 C 0.65243 0.56461 0.25686
 N3461 N 0.66305 0.56934 0.24504
 N3462 N 0.67170 0.58348 0.24618
 C3463 C 0.67940 0.60937 0.26011
 N3464 N 0.68956 0.61401 0.24793
 N3465 N 0.69765 0.62850 0.24841
 C3466 C 0.69595 0.63896 0.26107
 N3467 N 0.68584 0.63431 0.27333
 N3468 N 0.67772 0.61977 0.27285
 C3469 C 0.70449 0.65527 0.26096
 N3470 N 0.70315 0.66622 0.27334
 N3471 N 0.71043 0.68121 0.27261
 C3472 C 0.71928 0.68576 0.25945
 N3473 N 0.72066 0.67473 0.24720
 N3474 N 0.71346 0.65980 0.24795
 C3475 C 0.17161 0.09252 0.75689
 N3476 N 0.15870 0.08959 0.76703
 N3477 N 0.14939 0.07591 0.76550
 C3478 C 0.15258 0.06457 0.75378
 N3479 N 0.16556 0.06750 0.74367
 N3480 N 0.17487 0.08120 0.74518
 C3481 C 0.18165 0.10785 0.75834
 N3482 N 0.19401 0.11116 0.74768
 N3483 N 0.20274 0.12527 0.74865
 C3484 C 0.19952 0.13661 0.76034
 N3485 N 0.18723 0.13326 0.77108
 N3486 N 0.17847 0.11915 0.77009
 C3487 C 0.20863 0.15258 0.76074
 N3488 N 0.20559 0.16418 0.77227
 N3489 N 0.21316 0.17902 0.77190
 C3490 C 0.22404 0.18279 0.75998
 N3491 N 0.22719 0.17111 0.74859
 N3492 N 0.21969 0.15630 0.74899
 C3493 C 0.32978 0.09249 0.24096
 N3494 N 0.33958 0.08762 0.22853
 N3495 N 0.34813 0.07325 0.22913
 C3496 C 0.34723 0.06315 0.24215
 N3497 N 0.33734 0.06803 0.25453
 N3498 N 0.32881 0.08239 0.25395
 C3499 C 0.32069 0.10859 0.24063
 N3500 N 0.31177 0.11368 0.25355
 N3501 N 0.30386 0.12839 0.25356
 C3502 C 0.30451 0.13861 0.24063
 N3503 N 0.31337 0.13350 0.22764
 N3504 N 0.32132 0.11877 0.22765
 C3505 C 0.29608 0.15506 0.24109
 N3506 N 0.29590 0.16541 0.22820
 N3507 N 0.28853 0.18043 0.22902
 C3508 C 0.28112 0.18564 0.24278
 N3509 N 0.28129 0.17525 0.25558
 N3510 N 0.28858 0.16028 0.25475
 C3511 C 0.82922 0.58938 0.74224
 N3512 N 0.84145 0.58582 0.73150
 N3513 N 0.85045 0.57179 0.73271
 C3514 C 0.84759 0.56070 0.74470
 N3515 N 0.83526 0.56426 0.75539
 N3516 N 0.82628 0.57831 0.75420
 C3517 C 0.81960 0.60514 0.74123
 N3518 N 0.80816 0.60910 0.75262
 N3519 N 0.79983 0.62357 0.75207
 C3520 C 0.80256 0.63465 0.74007
 N3521 N 0.81392 0.63065 0.72859
 N3522 N 0.82228 0.61617 0.72917
 C3523 C 0.79382 0.65094 0.74009
 N3524 N 0.79593 0.66218 0.72809
 N3525 N 0.78854 0.67720 0.72871
 C3526 C 0.77881 0.68151 0.74139
 N3527 N 0.77665 0.67020 0.75329
 N3528 N 0.78395 0.65523 0.75263
 C3529 C 0.90856 0.76979 0.18261
 N3530 N 0.92027 0.75817 0.18655
 N3531 N 0.93439 0.75686 0.17822
 C3532 C 0.93742 0.76710 0.16561
 N3533 N 0.92580 0.77903 0.16199
 N3534 N 0.91160 0.78029 0.17027
 C3535 C 0.89233 0.76984 0.19066
 N3536 N 0.87938 0.77916 0.18496
 N3537 N 0.86417 0.77786 0.19137
 C3538 C 0.86143 0.76721 0.20369
 N3539 N 0.87444 0.75811 0.20953
 N3540 N 0.88962 0.75936 0.20310
 C3541 C 0.84460 0.76483 0.21010
 N3542 N 0.84216 0.75420 0.22247
 N3543 N 0.82683 0.75150 0.22806
 C3544 C 0.81337 0.75925 0.22141
 N3545 N 0.81579 0.76991 0.20904
 N3546 N 0.83116 0.77263 0.20345
 C3547 C 0.41328 0.27154 0.69360
 N3548 N 0.42466 0.25960 0.69760
 N3549 N 0.43837 0.25730 0.68882
 C3550 C 0.44121 0.26687 0.67573
 N3551 N 0.42997 0.27905 0.67196
 N3552 N 0.41622 0.28131 0.68070
 C3553 C 0.39722 0.27252 0.70192
 N3554 N 0.38453 0.28196 0.69589
 N3555 N 0.36926 0.28124 0.70223
 C3556 C 0.36618 0.27108 0.71484
 N3557 N 0.37895 0.26193 0.72109
 N3558 N 0.39420 0.26260 0.71471
 C3559 C 0.34910 0.26885 0.72067
 N3560 N 0.34609 0.25879 0.73337
 N3561 N 0.33046 0.25572 0.73798
 C3562 C 0.31729 0.26247 0.72995
 N3563 N 0.32029 0.27261 0.71731
 N3564 N 0.33593 0.27574 0.71274
 C3565 C 0.41121 0.72917 0.80702
 N3566 N 0.42271 0.74087 0.80307
 N3567 N 0.43655 0.74268 0.81174
 C3568 C 0.43940 0.73284 0.82466
 N3569 N 0.42803 0.72090 0.82838
 N3570 N 0.41416 0.71913 0.81976
 C3571 C 0.39507 0.72869 0.79883
 N3572 N 0.38236 0.71940 0.80479
 N3573 N 0.36707 0.72048 0.79852
 C3574 C 0.36400 0.73088 0.78606
 N3575 N 0.37679 0.73991 0.77989
 N3576 N 0.39206 0.73887 0.78620
 C3577 C 0.34695 0.73334 0.78018
 N3578 N 0.34399 0.74355 0.76756
 N3579 N 0.32839 0.74663 0.76276
 C3580 C 0.31520 0.73973 0.77050
 N3581 N 0.31815 0.72946 0.78309
 N3582 N 0.33377 0.72634 0.78786
 C3583 C 0.91463 0.23741 0.31910
 N3584 N 0.92635 0.24889 0.31516
 N3585 N 0.94054 0.24993 0.32340
 C3586 C 0.94356 0.23951 0.33588
 N3587 N 0.93196 0.22779 0.33958
 N3588 N 0.91772 0.22678 0.33137
 C3589 C 0.89830 0.23765 0.31127
 N3590 N 0.88571 0.22779 0.31660
 N3591 N 0.87039 0.22918 0.31045
 C3592 C 0.86715 0.24052 0.29879
 N3593 N 0.87979 0.25021 0.29332
 N3594 N 0.89510 0.24883 0.29948
 C3595 C 0.85020 0.24276 0.29261
 N3596 N 0.84712 0.25420 0.28103
 N3597 N 0.83165 0.25648 0.27549
 C3598 C 0.81873 0.24747 0.28142
 N3599 N 0.82179 0.23606 0.29305
 N3600 N 0.83728 0.23377 0.29858
 C3601 C 0.09051 0.27140 0.32007
 N3602 N 0.07811 0.26113 0.31512
 N3603 N 0.06415 0.25960 0.32364
 C3604 C 0.06207 0.26828 0.33741
 N3605 N 0.07435 0.27887 0.34216
 N3606 N 0.08835 0.28036 0.33366
 C3607 C 0.10660 0.27127 0.31180
 N3608 N 0.11991 0.27964 0.31785
 N3609 N 0.13502 0.27794 0.31129
 C3610 C 0.13730 0.26778 0.29849
 N3611 N 0.12394 0.25965 0.29229
 N3612 N 0.10885 0.26135 0.29885
 C3613 C 0.15401 0.26482 0.29198
 N3614 N 0.15620 0.25390 0.27977
 N3615 N 0.17145 0.25074 0.27409
 C3616 C 0.18505 0.25833 0.28048
 N3617 N 0.18287 0.26926 0.29271
 N3618 N 0.16760 0.27241 0.29840
 C3619 C 0.58750 0.76612 0.81242
 N3620 N 0.57576 0.75517 0.80731
 N3621 N 0.56150 0.75333 0.81532
 C3622 C 0.55845 0.76238 0.82872
 N3623 N 0.57010 0.77357 0.83364
 N3624 N 0.58440 0.77537 0.82567
 C3625 C 0.60386 0.76667 0.80466
 N3626 N 0.61662 0.77546 0.81122
 N3627 N 0.63198 0.77452 0.80507
 C3628 C 0.63507 0.76474 0.79216
 N3629 N 0.62225 0.75618 0.78545
 N3630 N 0.60692 0.75710 0.79161
 C3631 C 0.65210 0.76253 0.78613
 N3632 N 0.65499 0.75242 0.77343
 N3633 N 0.67053 0.74968 0.76830
 C3634 C 0.68374 0.75688 0.77576
 N3635 N 0.68086 0.76705 0.78845
 N3636 N 0.66529 0.76980 0.79357
 C3637 C 0.59009 0.23114 0.68539
 N3638 N 0.58706 0.22224 0.67193
 N3639 N 0.57249 0.22384 0.66431
 C3640 C 0.56049 0.23448 0.66982
 N3641 N 0.56348 0.24318 0.68343
 N3642 N 0.57800 0.24152 0.69108
 C3643 C 0.60659 0.23079 0.69291
 N3644 N 0.60942 0.23995 0.70624
 N3645 N 0.62475 0.24096 0.71238
 C3646 C 0.63781 0.23290 0.70535
 N3647 N 0.63497 0.22355 0.69212
 N3648 N 0.61960 0.22252 0.68599
 C3649 C 0.65475 0.23505 0.71159
 N3650 N 0.66817 0.22800 0.70418
 N3651 N 0.68361 0.23055 0.70969
 C3652 C 0.68611 0.24028 0.72274
 N3653 N 0.67268 0.24727 0.73013
 N3654 N 0.65728 0.24474 0.72463
 C3655 C 0.08848 0.74003 0.17909
 N3656 N 0.08511 0.72947 0.16684
 N3657 N 0.07035 0.73013 0.15945
 C3658 C 0.05846 0.74138 0.16400
 N3659 N 0.06180 0.75173 0.17642
 N3660 N 0.07653 0.75106 0.18383
 C3661 C 0.10511 0.74045 0.18634
 N3662 N 0.10838 0.75151 0.19818
 N3663 N 0.12376 0.75281 0.20415
 C3664 C 0.13642 0.74314 0.19844
 N3665 N 0.13315 0.73196 0.18668
 N3666 N 0.11774 0.73065 0.18071
 C3667 C 0.15335 0.74508 0.20477
 N3668 N 0.16628 0.73569 0.19913
 N3669 N 0.18166 0.73757 0.20505
 C3670 C 0.18458 0.74894 0.21674
 N3671 N 0.17165 0.75835 0.22229
 N3672 N 0.15631 0.75647 0.21639
   
