data_POSCAR
  _audit_creation_date              2014-09-24
  _audit_creation_method            'ToBaCCo'
  _symmetry_space_group_name_H-M    'P1'
  _symmetry_Int_Tables_number       1
  _symmetry_cell_setting            triclinic
  loop_
  _symmetry_equiv_pos_as_xyz
 x,y,z
_cell_length_a 70.5247
_cell_length_b 69.7192
_cell_length_c 69.8324
_cell_angle_alpha 90.033400
_cell_angle_beta 90.096500
_cell_angle_gamma 89.917700
loop_
  _atom_site_label
  _atom_site_type_symbol
  _atom_site_fract_x
  _atom_site_fract_y
  _atom_site_fract_z
O1 O 0.30468 0.33138 0.02241
 O2 O 0.33058 0.30291 -0.01338
 O3 O 0.30631 0.33102 -0.01468
 O4 O 0.32967 0.30368 0.02365
 O5 O 0.30645 0.28240 0.02317
 O6 O 0.28287 0.31000 -0.01533
 O7 O 0.30724 0.28176 -0.01399
 O8 O 0.28134 0.31025 0.02193
 Cu9 Cu 0.32014 0.31938 0.00460
 Cu10 Cu 0.29209 0.29398 0.00394
 C11 C 0.28854 0.32575 0.02805
 C12 C 0.32336 0.28747 -0.01962
 C13 C 0.29064 0.32523 -0.02144
 C14 C 0.32223 0.28829 0.02968
 O15 O 0.69653 0.66426 0.01309
 O16 O 0.66694 0.68647 -0.02412
 O17 O 0.69548 0.66273 -0.02385
 O18 O 0.66788 0.68785 0.01311
 O19 O 0.68769 0.71237 0.01175
 O20 O 0.71542 0.68714 -0.02537
 O21 O 0.68673 0.71099 -0.02564
 O22 O 0.71648 0.68868 0.01172
 Cu23 Cu 0.67967 0.67291 -0.00530
 Cu24 Cu 0.70354 0.70233 -0.00704
 C25 C 0.71160 0.67256 0.01852
 C26 C 0.67180 0.70248 -0.03115
 C27 C 0.71023 0.67053 -0.03068
 C28 C 0.67309 0.70433 0.01869
 O29 O 0.65004 0.32300 1.01792
 O30 O 0.67523 0.34777 0.97916
 O31 O 0.64866 0.32202 0.98071
 O32 O 0.67661 0.34874 1.01639
 O33 O 0.69835 0.32586 1.01624
 O34 O 0.67034 0.29907 0.98047
 O35 O 0.69699 0.32489 0.97890
 O36 O 0.67170 0.30003 1.01779
 Cu37 Cu 0.66046 0.33769 0.99857
 Cu38 Cu 0.68655 0.31014 0.99833
 C39 C 0.65659 0.30735 1.02440
 C40 C 0.69033 0.34053 0.97247
 C41 C 0.65477 0.30604 0.97456
 C42 C 0.69218 0.34183 1.02236
 O43 O 0.33584 0.69452 1.02076
 O44 O 0.30867 0.66776 0.98461
 O45 O 0.33458 0.69452 0.98376
 O46 O 0.31043 0.66746 1.02174
 O47 O 0.28781 0.68942 1.02283
 O48 O 0.31213 0.71668 0.98470
 O49 O 0.28609 0.68979 0.98556
 O50 O 0.31332 0.71661 1.02184
 Cu51 Cu 0.32462 0.67883 1.00259
 Cu52 Cu 0.29753 0.70533 1.00380
 C53 C 0.32928 0.71017 1.02726
 C54 C 0.29271 0.67414 0.97912
 C55 C 0.32765 0.71030 0.97803
 C56 C 0.29503 0.67378 1.02866
 O57 O -0.01788 0.33945 0.31157
 O58 O 0.01720 0.31197 0.33938
 O59 O 0.01886 0.33861 0.31325
 O60 O -0.01954 0.31343 0.33831
 O61 O -0.01950 0.29082 0.31609
 O62 O 0.01907 0.31621 0.29082
 O63 O 0.01737 0.28947 0.31704
 O64 O -0.01780 0.31694 0.28924
 Cu65 Cu -0.00035 0.32812 0.32787
 Cu66 Cu -0.00020 0.30108 0.30104
 C67 C -0.02367 0.33289 0.29565
 C68 C 0.02310 0.29601 0.33297
 C69 C 0.02537 0.33179 0.29776
 C70 C -0.02593 0.29783 0.33157
 O71 O 0.01890 0.67600 0.65103
 O72 O -0.01856 0.65110 0.67760
 O73 O -0.01795 0.67714 0.65099
 O74 O 0.01832 0.65018 0.67788
 O75 O 0.01887 0.67295 0.69993
 O76 O -0.01744 0.69993 0.67302
 O77 O -0.01811 0.67381 0.69973
 O78 O 0.01952 0.69885 0.67300
 Cu79 Cu 0.00013 0.66131 0.66216
 Cu80 Cu 0.00077 0.68869 0.68865
 C81 C 0.02553 0.69162 0.65747
 C82 C -0.02467 0.65820 0.69313
 C83 C -0.02382 0.69309 0.65745
 C84 C 0.02471 0.65700 0.69345
 O85 O 1.01333 0.67158 0.30285
 O86 O 0.97907 0.69992 0.33068
 O87 O 0.97670 0.67188 0.30617
 O88 O 1.01561 0.69927 0.32792
 O89 O 1.01399 0.72057 0.30452
 O90 O 0.97488 0.69293 0.28256
 O91 O 0.97728 0.72111 0.30719
 O92 O 1.01169 0.69273 0.27932
 Cu93 Cu 0.99637 0.68352 0.31924
 Cu94 Cu 0.99431 0.70896 0.29098
 C95 C 1.01818 0.67727 0.28633
 C96 C 0.97252 0.71538 0.32373
 C97 C 0.96925 0.67768 0.29069
 C98 C 1.02120 0.71466 0.32012
 O99 O 0.98749 0.30246 0.67048
 O100 O 1.02183 0.32985 0.69916
 O101 O 1.02417 0.30520 0.67126
 O102 O 0.98525 0.32764 0.69807
 O103 O 0.98626 0.30421 0.71939
 O104 O 1.02536 0.28157 0.69234
 O105 O 1.02299 0.30633 0.72038
 O106 O 0.98850 0.27890 0.69164
 Cu107 Cu 1.00455 0.31863 0.68259
 Cu108 Cu 1.00586 0.29034 0.70805
 C109 C 0.98231 0.28600 0.67612
 C110 C 1.02807 0.32281 0.71469
 C111 C 1.03130 0.28959 0.67717
 C112 C 0.97936 0.31993 0.71338
 O113 O 0.32345 -0.02147 0.34664
 O114 O 0.34940 0.01739 0.32278
 O115 O 0.32245 0.01582 0.34807
 O116 O 0.35043 -0.01987 0.32138
 O117 O 0.32909 -0.01961 0.29813
 O118 O 0.30104 0.01617 0.32490
 O119 O 0.32807 0.01776 0.29953
 O120 O 0.30203 -0.02123 0.32347
 Cu121 Cu 0.33858 -0.00206 0.33706
 Cu122 Cu 0.31289 -0.00170 0.30916
 C123 C 0.30839 -0.02792 0.33911
 C124 C 0.34314 0.02413 0.30713
 C125 C 0.30705 0.02204 0.34101
 C126 C 0.34451 -0.02576 0.30526
 O127 O 0.69142 -0.01543 0.66802
 O128 O 0.66409 0.02099 0.69428
 O129 O 0.68967 0.02175 0.66743
 O130 O 0.66531 -0.01608 0.69453
 O131 O 0.68760 -0.01500 0.71681
 O132 O 0.71214 0.02299 0.68951
 O133 O 0.68646 0.02220 0.71648
 O134 O 0.71383 -0.01435 0.69017
 Cu135 Cu 0.67540 0.00266 0.67882
 Cu136 Cu 0.70231 0.00404 0.70546
 C137 C 0.70732 -0.02091 0.67454
 C138 C 0.67056 0.02760 0.70990
 C139 C 0.70502 0.02872 0.67381
 C140 C 0.67212 -0.02172 0.71037
 O141 O 0.33183 0.97618 0.68791
 O142 O 0.30294 1.01356 0.66495
 O143 O 0.33133 1.01349 0.68884
 O144 O 0.30360 0.97653 0.66382
 O145 O 0.28334 0.97551 0.68794
 O146 O 0.31122 1.01264 0.71309
 O147 O 0.28270 1.01269 0.68909
 O148 O 0.31171 0.97516 0.71214
 Cu149 Cu 0.31950 0.99503 0.67399
 Cu150 Cu 0.29525 0.99390 0.70307
 C151 C 0.32668 0.96936 0.70390
 C152 C 0.28785 1.01927 0.67299
 C153 C 0.32599 1.01932 0.70516
 C154 C 0.28869 0.96995 0.67150
 O155 O 0.66957 0.98590 0.30391
 O156 O 0.69562 1.02169 0.33229
 O157 O 0.67067 1.02298 0.30459
 O158 O 0.69384 0.98454 0.33199
 O159 O 0.71729 0.98375 0.31102
 O160 O 0.69390 1.02236 0.28337
 O161 O 0.71898 1.02106 0.31121
 O162 O 0.69292 0.98514 0.28281
 Cu163 Cu 0.68010 1.00389 0.32032
 Cu164 Cu 0.70816 1.00305 0.29499
 C165 C 0.67677 0.97959 0.28851
 C166 C 0.71179 1.02726 0.32666
 C167 C 0.67815 1.02896 0.28923
 C168 C 0.70948 0.97769 0.32623
 C169 C 0.86408 0.79630 0.49891
 C170 C 0.85898 0.80634 0.48242
 C171 C 0.84485 0.82041 0.48323
 C172 C 0.83491 0.82402 0.50043
 C173 C 0.84007 0.81341 0.51692
 C174 C 0.85485 0.79996 0.51620
 C175 C 0.81945 0.83884 0.50109
 C176 C 0.81463 0.84811 0.51843
 C177 C 0.80024 0.86197 0.51893
 C178 C 0.79101 0.86738 0.50207
 C179 C 0.79578 0.85868 0.48473
 C180 C 0.80951 0.84417 0.48430
 H181 H 0.87530 0.78565 0.49830
 H182 H 0.84189 0.82851 0.47037
 H183 H 0.83270 0.81538 0.53034
 H184 H 0.82210 0.84490 0.53158
 H185 H 0.78021 0.87847 0.50242
 H186 H 0.81231 0.83720 0.47075
 C187 C 0.13862 0.20986 0.50207
 C188 C 0.14319 0.20046 0.48503
 C189 C 0.15664 0.18566 0.48503
 C190 C 0.16630 0.18057 0.50204
 C191 C 0.16183 0.19068 0.51902
 C192 C 0.14774 0.20484 0.51909
 C193 C 0.18057 0.16459 0.50221
 C194 C 0.18431 0.15430 0.51923
 C195 C 0.19787 0.13965 0.51959
 C196 C 0.20726 0.13440 0.50283
 C197 C 0.20345 0.14399 0.48570
 C198 C 0.19050 0.15927 0.48542
 H199 H 0.12781 0.22095 0.50212
 H200 H 0.15920 0.17806 0.47178
 H201 H 0.16911 0.18765 0.53231
 H202 H 0.17669 0.15738 0.53230
 H203 H 0.21752 0.12279 0.50310
 H204 H 0.18838 0.16690 0.47211
 C205 C 0.13638 0.78759 0.49088
 C206 C 0.14508 0.79086 0.50854
 C207 C 0.16004 0.80395 0.51000
 C208 C 0.16595 0.81464 0.49392
 C209 C 0.15669 0.81141 0.47624
 C210 C 0.14228 0.79768 0.47469
 C211 C 0.18155 0.82911 0.49565
 C212 C 0.19278 0.83397 0.47964
 C213 C 0.20699 0.84788 0.48115
 C214 C 0.21077 0.85654 0.49877
 C215 C 0.20011 0.85167 0.51487
 C216 C 0.18534 0.83835 0.51328
 H217 H 0.12493 0.77727 0.48975
 H218 H 0.16695 0.80563 0.52374
 H219 H 0.16040 0.81958 0.46363
 H220 H 0.19065 0.82704 0.46595
 H221 H 0.22192 0.86718 0.49992
 H222 H 0.17680 0.83550 0.52581
 C223 C 0.86907 0.20618 0.50129
 C224 C 0.86443 0.19678 0.51828
 C225 C 0.85019 0.18282 0.51838
 C226 C 0.83972 0.17866 0.50161
 C227 C 0.84437 0.18871 0.48464
 C228 C 0.85924 0.20202 0.48443
 C229 C 0.82430 0.16381 0.50177
 C230 C 0.81898 0.15417 0.48478
 C231 C 0.80451 0.14046 0.48490
 C232 C 0.79570 0.13549 0.50207
 C233 C 0.80099 0.14448 0.51912
 C234 C 0.81484 0.15887 0.51894
 H235 H 0.88039 0.21670 0.50117
 H236 H 0.84758 0.17519 0.53160
 H237 H 0.83655 0.18639 0.47152
 H238 H 0.82610 0.15700 0.47138
 H239 H 0.78479 0.12454 0.50218
 H240 H 0.81807 0.16607 0.53227
 C241 C 0.50101 0.86404 0.79110
 C242 C 0.48396 0.85485 0.79535
 C243 C 0.48344 0.84045 0.80929
 C244 C 0.49987 0.83562 0.81985
 C245 C 0.51692 0.84541 0.81561
 C246 C 0.51753 0.85922 0.80104
 C247 C 0.49919 0.82051 0.83514
 C248 C 0.51567 0.81017 0.84027
 C249 C 0.51516 0.79641 0.85483
 C250 C 0.49807 0.79211 0.86391
 C251 C 0.48149 0.80182 0.85880
 C252 C 0.48209 0.81622 0.84482
 H253 H 0.50140 0.87503 0.78011
 H254 H 0.47017 0.83310 0.81171
 H255 H 0.52976 0.84259 0.82361
 H256 H 0.52898 0.81262 0.83302
 H257 H 0.49769 0.78125 0.87503
 H258 H 0.46919 0.82406 0.84176
 C259 C 0.50544 0.14127 0.21388
 C260 C 0.48777 0.14966 0.21053
 C261 C 0.48583 0.16408 0.19674
 C262 C 0.50144 0.16975 0.18546
 C263 C 0.51916 0.16078 0.18880
 C264 C 0.52118 0.14694 0.20320
 C265 C 0.49923 0.18484 0.17032
 C266 C 0.51485 0.19609 0.16458
 C267 C 0.51293 0.20982 0.15011
 C268 C 0.49525 0.21316 0.14173
 C269 C 0.47950 0.20252 0.14746
 C270 C 0.48151 0.18817 0.16137
 H271 H 0.50693 0.13024 0.22474
 H272 H 0.47209 0.17077 0.19499
 H273 H 0.53142 0.16428 0.18022
 H274 H 0.52860 0.19435 0.17127
 H275 H 0.49378 0.22397 0.13065
 H276 H 0.46923 0.17961 0.16492
 C277 C 0.49482 0.13447 0.79133
 C278 C 0.51144 0.14030 0.80049
 C279 C 0.51075 0.15431 0.81484
 C280 C 0.49346 0.16336 0.81965
 C281 C 0.47685 0.15756 0.80983
 C282 C 0.47751 0.14288 0.79613
 C283 C 0.49271 0.17845 0.83498
 C284 C 0.47574 0.18207 0.84511
 C285 C 0.47500 0.19624 0.85929
 C286 C 0.49132 0.20641 0.86421
 C287 C 0.50835 0.20279 0.85474
 C288 C 0.50899 0.18926 0.83991
 H289 H 0.49535 0.12327 0.78054
 H290 H 0.52376 0.15781 0.82226
 H291 H 0.46333 0.16430 0.81266
 H292 H 0.46304 0.17386 0.84231
 H293 H 0.49078 0.21708 0.87551
 H294 H 0.52224 0.18734 0.83236
 C295 C 0.50862 0.86419 0.20620
 C296 C 0.52497 0.85927 0.19610
 C297 C 0.52422 0.84522 0.18180
 C298 C 0.50721 0.83521 0.17798
 C299 C 0.49090 0.84012 0.18873
 C300 C 0.49155 0.85484 0.20239
 C301 C 0.50645 0.82001 0.16275
 C302 C 0.48917 0.81535 0.15360
 C303 C 0.48844 0.80110 0.13950
 C304 C 0.50503 0.79189 0.13366
 C305 C 0.52235 0.79654 0.14216
 C306 C 0.52303 0.81014 0.15692
 H307 H 0.50916 0.87540 0.21697
 H308 H 0.53695 0.84243 0.17365
 H309 H 0.47763 0.83266 0.18667
 H310 H 0.47618 0.82282 0.15711
 H311 H 0.50448 0.78116 0.12241
 H312 H 0.53655 0.81285 0.16372
 C313 C 0.79009 0.49926 0.85702
 C314 C 0.79401 0.48162 0.84844
 C315 C 0.80800 0.48026 0.83431
 C316 C 0.81889 0.49645 0.82918
 C317 C 0.81497 0.51410 0.83836
 C318 C 0.80039 0.51553 0.85189
 C319 C 0.83427 0.49489 0.81446
 C320 C 0.83982 0.51105 0.80366
 C321 C 0.85456 0.50974 0.79034
 C322 C 0.86340 0.49214 0.78694
 C323 C 0.85786 0.47587 0.79713
 C324 C 0.84368 0.47728 0.81109
 H325 H 0.77909 0.50030 0.86782
 H326 H 0.81022 0.46654 0.82744
 H327 H 0.82325 0.52678 0.83530
 H328 H 0.83279 0.52473 0.80544
 H329 H 0.87468 0.49114 0.77644
 H330 H 0.84026 0.46461 0.81932
 C331 C 0.20470 0.50318 0.13556
 C332 C 0.19585 0.48601 0.14055
 C333 C 0.18134 0.48595 0.15420
 C334 C 0.17601 0.50302 0.16374
 C335 C 0.18549 0.52019 0.15876
 C336 C 0.19939 0.52030 0.14444
 C337 C 0.16055 0.50291 0.17852
 C338 C 0.15010 0.51974 0.18260
 C339 C 0.13582 0.51968 0.19650
 C340 C 0.13113 0.50269 0.20590
 C341 C 0.14093 0.48578 0.20181
 C342 C 0.15585 0.48594 0.18858
 H343 H 0.21565 0.50323 0.12466
 H344 H 0.17419 0.47255 0.15704
 H345 H 0.18226 0.53357 0.16588
 H346 H 0.15276 0.53295 0.17498
 H347 H 0.11978 0.50261 0.21637
 H348 H 0.16365 0.47278 0.18632
 C349 C 0.79253 0.50278 0.13343
 C350 C 0.80211 0.51951 0.13853
 C351 C 0.81575 0.51910 0.15307
 C352 C 0.81939 0.50207 0.16342
 C353 C 0.80928 0.48532 0.15826
 C354 C 0.79625 0.48564 0.14307
 C355 C 0.83376 0.50186 0.17930
 C356 C 0.84326 0.48477 0.18446
 C357 C 0.85682 0.48474 0.19914
 C358 C 0.86165 0.50183 0.20834
 C359 C 0.85268 0.51894 0.20326
 C360 C 0.83848 0.51890 0.18923
 H361 H 0.78220 0.50308 0.12190
 H362 H 0.82351 0.53213 0.15603
 H363 H 0.81132 0.47201 0.16593
 H364 H 0.84051 0.47146 0.17699
 H365 H 0.87254 0.50186 0.21933
 H366 H 0.83132 0.53227 0.18615
 C367 C 0.20934 0.50021 0.86866
 C368 C 0.20020 0.51711 0.86314
 C369 C 0.18593 0.51662 0.84918
 C370 C 0.18114 0.49925 0.83991
 C371 C 0.19098 0.48241 0.84536
 C372 C 0.20460 0.48284 0.85996
 C373 C 0.16583 0.49861 0.82495
 C374 C 0.15589 0.48140 0.82123
 C375 C 0.14189 0.48063 0.80704
 C376 C 0.13691 0.49716 0.79698
 C377 C 0.14614 0.51446 0.80074
 C378 C 0.16080 0.51514 0.81431
 H379 H 0.22006 0.50057 0.87981
 H380 H 0.17852 0.52981 0.84589
 H381 H 0.18821 0.46884 0.83840
 H382 H 0.15875 0.46851 0.82934
 H383 H 0.12579 0.49658 0.78625
 H384 H 0.16817 0.52858 0.81635
 C385 C 0.27800 0.33755 0.04106
 C386 C 0.26914 0.34808 0.05141
 C387 C 0.25868 0.36136 0.06312
 C388 C 0.24469 0.37290 0.05478
 C389 C 0.23544 0.38687 0.06568
 C390 C 0.24010 0.38951 0.08510
 C391 C 0.25389 0.37752 0.09348
 C392 C 0.26313 0.36355 0.08254
 C393 C 0.23132 0.40535 0.09622
 C394 C 0.24244 0.41657 0.10865
 C395 C 0.23454 0.43228 0.11817
 C396 C 0.21544 0.43701 0.11543
 C397 C 0.20415 0.42574 0.10339
 C398 C 0.21202 0.40999 0.09384
 C399 C 0.20780 0.45391 0.12437
 C400 C 0.20200 0.46840 0.13177
 H401 H 0.24123 0.37141 0.03973
 H402 H 0.22511 0.39603 0.05873
 H403 H 0.25762 0.37905 0.10844
 H404 H 0.27396 0.35470 0.08913
 H405 H 0.25739 0.41357 0.11056
 H406 H 0.24344 0.44098 0.12738
 H407 H 0.18934 0.42927 0.10117
 H408 H 0.20305 0.40150 0.08454
 C409 C 0.72357 0.66306 0.03212
 C410 C 0.73342 0.65411 0.04304
 C411 C 0.74477 0.64234 0.05548
 C412 C 0.75745 0.62911 0.04753
 C413 C 0.76690 0.61600 0.05928
 C414 C 0.76375 0.61593 0.07917
 C415 C 0.75150 0.62977 0.08711
 C416 C 0.74204 0.64286 0.07531
 C417 C 0.77207 0.60057 0.09126
 C418 C 0.76099 0.59163 0.10541
 C419 C 0.76807 0.57595 0.11560
 C420 C 0.78629 0.56899 0.11183
 C421 C 0.79764 0.57807 0.09816
 C422 C 0.79059 0.59379 0.08794
 C423 C 0.79276 0.55187 0.12127
 C424 C 0.79743 0.53723 0.12912
 H425 H 0.75953 0.62848 0.03217
 H426 H 0.77601 0.60538 0.05269
 H427 H 0.74898 0.63022 0.10239
 H428 H 0.73220 0.65301 0.08159
 H429 H 0.74658 0.59627 0.10810
 H430 H 0.75913 0.56894 0.12608
 H431 H 0.81177 0.57277 0.09513
 H432 H 0.79952 0.60050 0.07728
 C433 C 0.70007 0.35041 0.95745
 C434 C 0.70802 0.35923 0.94501
 C435 C 0.71728 0.37043 0.93051
 C436 C 0.70899 0.38757 0.92428
 C437 C 0.71844 0.39923 0.91116
 C438 C 0.73636 0.39390 0.90408
 C439 C 0.74439 0.37640 0.91008
 C440 C 0.73490 0.36475 0.92323
 C441 C 0.74705 0.40717 0.89149
 C442 C 0.76655 0.41017 0.89449
 C443 C 0.77626 0.42412 0.88404
 C444 C 0.76665 0.43520 0.87043
 C445 C 0.74740 0.43188 0.86686
 C446 C 0.73766 0.41792 0.87729
 C447 C 0.77616 0.45105 0.86150
 C448 C 0.78423 0.46479 0.85499
 H449 H 0.69540 0.39214 0.92990
 H450 H 0.71202 0.41274 0.90708
 H451 H 0.75807 0.37183 0.90474
 H452 H 0.74143 0.35149 0.92796
 H453 H 0.77413 0.40235 0.90550
 H454 H 0.79112 0.42670 0.88704
 H455 H 0.73981 0.44044 0.85640
 H456 H 0.72271 0.41577 0.87449
 C457 C 0.28173 0.66302 0.96586
 C458 C 0.27257 0.65302 0.95525
 C459 C 0.26182 0.64031 0.94317
 C460 C 0.26519 0.63964 0.92344
 C461 C 0.25577 0.62617 0.91204
 C462 C 0.24288 0.61316 0.92026
 C463 C 0.23926 0.61429 0.94003
 C464 C 0.24868 0.62776 0.95139
 C465 C 0.23406 0.59776 0.90855
 C466 C 0.21515 0.59214 0.91169
 C467 C 0.20742 0.57660 0.90171
 C468 C 0.21846 0.56653 0.88844
 C469 C 0.23712 0.57230 0.88488
 C470 C 0.24487 0.58781 0.89483
 C471 C 0.21118 0.54957 0.87929
 C472 C 0.20577 0.53497 0.87183
 H473 H 0.27535 0.64927 0.91694
 H474 H 0.25869 0.62580 0.89682
 H475 H 0.22966 0.60431 0.94686
 H476 H 0.24607 0.62807 0.96668
 H477 H 0.20641 0.59965 0.92199
 H478 H 0.19297 0.57223 0.90459
 H479 H 0.24583 0.56451 0.87474
 H480 H 0.25954 0.59157 0.89229
 C481 C 0.03615 0.28498 0.34424
 C482 C 0.04672 0.27571 0.35417
 C483 C 0.05889 0.26475 0.36658
 C484 C 0.07861 0.26642 0.36524
 C485 C 0.09032 0.25658 0.37811
 C486 C 0.08241 0.24495 0.39250
 C487 C 0.06257 0.24309 0.39346
 C488 C 0.05091 0.25293 0.38060
 C489 C 0.09465 0.23560 0.40708
 C490 C 0.09047 0.21706 0.41384
 C491 C 0.10110 0.20895 0.42870
 C492 C 0.11607 0.21923 0.43693
 C493 C 0.12066 0.23745 0.42997
 C494 C 0.11005 0.24558 0.41513
 C495 C 0.12592 0.21175 0.45337
 C496 C 0.13391 0.20619 0.46758
 H497 H 0.08493 0.27553 0.35443
 H498 H 0.10554 0.25813 0.37687
 H499 H 0.05603 0.23451 0.40455
 H500 H 0.03565 0.25162 0.38182
 H501 H 0.07885 0.20893 0.40777
 H502 H 0.09741 0.19485 0.43401
 H503 H 0.13212 0.24558 0.43635
 H504 H 0.11346 0.25997 0.41046
 C505 C 0.03993 0.70128 0.64674
 C506 C 0.05179 0.70907 0.63711
 C507 C 0.06555 0.71804 0.62488
 C508 C 0.07184 0.73669 0.62867
 C509 C 0.08419 0.74580 0.61595
 C510 C 0.09036 0.73635 0.59926
 C511 C 0.08428 0.71744 0.59584
 C512 C 0.07195 0.70838 0.60856
 C513 C 0.10216 0.74646 0.58488
 C514 C 0.11668 0.73674 0.57502
 C515 C 0.12665 0.74586 0.56032
 C516 C 0.12226 0.76479 0.55536
 C517 C 0.10821 0.77473 0.56542
 C518 C 0.09823 0.76566 0.58010
 C519 C 0.13122 0.77370 0.53918
 C520 C 0.13797 0.78137 0.52533
 H521 H 0.06696 0.74430 0.64127
 H522 H 0.08880 0.76027 0.61908
 H523 H 0.08852 0.70989 0.58298
 H524 H 0.06708 0.69398 0.60545
 H525 H 0.12018 0.72203 0.57853
 H526 H 0.13749 0.73803 0.55259
 H527 H 0.10461 0.78936 0.56159
 H528 H 0.08696 0.77344 0.58720
 C529 C 0.95996 0.72680 0.33512
 C530 C 0.94991 0.73630 0.34535
 C531 C 0.93846 0.74738 0.35831
 C532 C 0.94721 0.75798 0.37285
 C533 C 0.93624 0.76759 0.38646
 C534 C 0.91633 0.76669 0.38572
 C535 C 0.90764 0.75639 0.37074
 C536 C 0.91866 0.74677 0.35714
 C537 C 0.90479 0.77548 0.40118
 C538 C 0.88918 0.76556 0.40881
 C539 C 0.87929 0.77296 0.42447
 C540 C 0.88482 0.79037 0.43271
 C541 C 0.90001 0.80062 0.42494
 C542 C 0.90993 0.79324 0.40924
 C543 C 0.87563 0.79697 0.44986
 C544 C 0.86803 0.80169 0.46457
 H545 H 0.96253 0.75844 0.37395
 H546 H 0.94336 0.77512 0.39796
 H547 H 0.89235 0.75562 0.36967
 H548 H 0.91175 0.73859 0.34594
 H549 H 0.88504 0.75172 0.40314
 H550 H 0.86763 0.76485 0.43048
 H551 H 0.90442 0.81411 0.43123
 H552 H 0.92175 0.80132 0.40355
 C553 C 0.96963 0.27505 0.66436
 C554 C 0.95939 0.26601 0.65389
 C555 C 0.94763 0.25550 0.64072
 C556 C 0.95604 0.24460 0.62620
 C557 C 0.94478 0.23541 0.61252
 C558 C 0.92490 0.23704 0.61316
 C559 C 0.91655 0.24769 0.62806
 C560 C 0.92786 0.25688 0.64174
 C561 C 0.91307 0.22848 0.59776
 C562 C 0.89766 0.23878 0.59008
 C563 C 0.88732 0.23140 0.57467
 C564 C 0.89219 0.21363 0.56674
 C565 C 0.90722 0.20307 0.57453
 C566 C 0.91759 0.21043 0.58995
 C567 C 0.88234 0.20685 0.55001
 C568 C 0.87417 0.20186 0.53568
 H569 H 0.97134 0.24353 0.62521
 H570 H 0.95166 0.22758 0.60108
 H571 H 0.90129 0.24902 0.62907
 H572 H 0.92120 0.26529 0.65292
 H573 H 0.89399 0.25283 0.59555
 H574 H 0.87579 0.23975 0.56867
 H575 H 0.91111 0.18930 0.56848
 H576 H 0.92923 0.20206 0.59570
 C577 C 0.35350 0.03913 0.29784
 C578 C 0.36265 0.05152 0.29022
 C579 C 0.37414 0.06597 0.28128
 C580 C 0.37845 0.06461 0.26178
 C581 C 0.39082 0.07777 0.25339
 C582 C 0.39909 0.09245 0.26442
 C583 C 0.39429 0.09399 0.28391
 C584 C 0.38190 0.08081 0.29228
 C585 C 0.41348 0.10535 0.25585
 C586 C 0.43010 0.10991 0.26604
 C587 C 0.44448 0.12058 0.25737
 C588 C 0.44241 0.12687 0.23847
 C589 C 0.42569 0.12292 0.22841
 C590 C 0.41129 0.11224 0.23704
 C591 C 0.45804 0.13593 0.22891
 C592 C 0.47146 0.14266 0.22067
 H593 H 0.37261 0.05310 0.25318
 H594 H 0.39445 0.07603 0.23842
 H595 H 0.40026 0.10526 0.29271
 H596 H 0.37866 0.08197 0.30740
 H597 H 0.43233 0.10459 0.28043
 H598 H 0.45745 0.12341 0.26522
 H599 H 0.42398 0.12766 0.21373
 H600 H 0.39856 0.10914 0.22892
 C601 C 0.65926 0.04091 0.72060
 C602 C 0.64911 0.05151 0.72956
 C603 C 0.63621 0.06351 0.74010
 C604 C 0.63415 0.08290 0.73539
 C605 C 0.62039 0.09406 0.74456
 C606 C 0.60850 0.08591 0.75853
 C607 C 0.61106 0.06653 0.76351
 C608 C 0.62481 0.05542 0.75433
 C609 C 0.59273 0.09716 0.76703
 C610 C 0.58791 0.09504 0.78647
 C611 C 0.57210 0.10451 0.79401
 C612 C 0.56094 0.11621 0.78223
 C613 C 0.56588 0.11876 0.76301
 C614 C 0.58166 0.10932 0.75545
 C615 C 0.54388 0.12487 0.78946
 C616 C 0.52925 0.13196 0.79487
 H617 H 0.64289 0.08929 0.72437
 H618 H 0.61891 0.10900 0.74059
 H619 H 0.60196 0.05975 0.77397
 H620 H 0.62621 0.04038 0.75799
 H621 H 0.59628 0.08595 0.79579
 H622 H 0.56839 0.10245 0.80892
 H623 H 0.55726 0.12770 0.75374
 H624 H 0.58479 0.11102 0.74037
 C625 C 0.33827 0.95506 0.71290
 C626 C 0.34854 0.94337 0.72027
 C627 C 0.36142 0.92989 0.72889
 C628 C 0.36646 0.93183 0.74818
 C629 C 0.38018 0.91977 0.75618
 C630 C 0.38910 0.90563 0.74496
 C631 C 0.38359 0.90348 0.72570
 C632 C 0.36985 0.91555 0.71773
 C633 C 0.40482 0.89398 0.75305
 C634 C 0.42128 0.89051 0.74221
 C635 C 0.43677 0.88100 0.75033
 C636 C 0.43601 0.87477 0.76935
 C637 C 0.41952 0.87766 0.78009
 C638 C 0.40400 0.88719 0.77200
 C639 C 0.45264 0.86679 0.77826
 C640 C 0.46682 0.86091 0.78592
 H641 H 0.36012 0.94297 0.75690
 H642 H 0.38431 0.92198 0.77096
 H643 H 0.39005 0.89259 0.71677
 H644 H 0.36607 0.91396 0.70276
 H645 H 0.42246 0.89580 0.72768
 H646 H 0.44954 0.87898 0.74195
 H647 H 0.41881 0.87295 0.79486
 H648 H 0.39145 0.88945 0.78063
 C649 C 0.66611 0.96635 0.27708
 C650 C 0.65654 0.95570 0.26754
 C651 C 0.64439 0.94350 0.25635
 C652 C 0.63001 0.95168 0.24520
 C653 C 0.61720 0.93997 0.23540
 C654 C 0.61859 0.91988 0.23665
 C655 C 0.63341 0.91178 0.24752
 C656 C 0.64621 0.92354 0.25732
 C657 C 0.60393 0.90756 0.22764
 C658 C 0.59660 0.89168 0.23761
 C659 C 0.58155 0.88113 0.23000
 C660 C 0.57365 0.88624 0.21234
 C661 C 0.58118 0.90164 0.20203
 C662 C 0.59625 0.91223 0.20961
 C663 C 0.55695 0.87652 0.20561
 C664 C 0.54255 0.86858 0.20080
 H665 H 0.62841 0.96712 0.24444
 H666 H 0.60580 0.94666 0.22742
 H667 H 0.63497 0.89637 0.24858
 H668 H 0.65730 0.91707 0.26593
 H669 H 0.60199 0.88789 0.25164
 H670 H 0.57572 0.86932 0.23817
 H671 H 0.57512 0.90574 0.18836
 H672 H 0.60174 0.92423 0.20150
 C673 C 0.33396 0.27603 0.96712
 C674 C 0.34349 0.26648 0.95644
 C675 C 0.35561 0.25532 0.94421
 C676 C 0.37024 0.24442 0.95228
 C677 C 0.38304 0.23470 0.94051
 C678 C 0.38138 0.23577 0.92046
 C679 C 0.36632 0.24637 0.91247
 C680 C 0.35352 0.25610 0.92430
 C681 C 0.39604 0.22690 0.90805
 C682 C 0.40304 0.23689 0.89206
 C683 C 0.41810 0.22945 0.88142
 C684 C 0.42634 0.21193 0.88656
 C685 C 0.41913 0.20158 0.90208
 C686 C 0.40405 0.20900 0.91275
 C687 C 0.44304 0.20540 0.87674
 C688 C 0.45744 0.20076 0.86871
 H689 H 0.37205 0.24382 0.96768
 H690 H 0.39464 0.22694 0.94710
 H691 H 0.36455 0.24729 0.89710
 H692 H 0.34224 0.26451 0.91791
 H693 H 0.39739 0.25082 0.88823
 H694 H 0.42368 0.23764 0.86951
 H695 H 0.42545 0.18802 0.90620
 H696 H 0.39882 0.20087 0.92485
 C697 C 0.65990 0.71120 0.95465
 C698 C 0.64935 0.71832 0.94307
 C699 C 0.63613 0.72661 0.92973
 C700 C 0.61921 0.71702 0.92557
 C701 C 0.60566 0.72553 0.91369
 C702 C 0.60885 0.74381 0.90581
 C703 C 0.62610 0.75317 0.90973
 C704 C 0.63964 0.74461 0.92164
 C705 C 0.59377 0.75344 0.89447
 C706 C 0.58984 0.77303 0.89731
 C707 C 0.57463 0.78177 0.88790
 C708 C 0.56317 0.77110 0.87549
 C709 C 0.56724 0.75174 0.87215
 C710 C 0.58246 0.74296 0.88155
 C711 C 0.54653 0.77977 0.86727
 C712 C 0.53233 0.78722 0.86117
 H713 H 0.61630 0.70312 0.93186
 H714 H 0.59242 0.71808 0.91120
 H715 H 0.62905 0.76716 0.90371
 H716 H 0.65270 0.75217 0.92478
 H717 H 0.59809 0.78143 0.90736
 H718 H 0.57151 0.79674 0.89069
 H719 H 0.55842 0.74334 0.86259
 H720 H 0.58527 0.72792 0.87890
 C721 C 0.34052 0.72105 0.04046
 C722 C 0.35065 0.73015 0.05097
 C723 C 0.36354 0.74083 0.06286
 C724 C 0.37525 0.75471 0.05459
 C725 C 0.38900 0.76397 0.06563
 C726 C 0.39126 0.75941 0.08512
 C727 C 0.37906 0.74581 0.09344
 C728 C 0.36530 0.73656 0.08235
 C729 C 0.40705 0.76795 0.09633
 C730 C 0.41779 0.75646 0.10888
 C731 C 0.43360 0.76400 0.11829
 C732 C 0.43887 0.78311 0.11535
 C733 C 0.42804 0.79480 0.10326
 C734 C 0.41220 0.78728 0.09381
 C735 C 0.45597 0.79027 0.12401
 C736 C 0.47062 0.79559 0.13111
 H737 H 0.37408 0.75802 0.03947
 H738 H 0.39834 0.77415 0.05872
 H739 H 0.38031 0.74217 0.10846
 H740 H 0.35632 0.72581 0.08889
 H741 H 0.41439 0.74146 0.11089
 H742 H 0.44196 0.75480 0.12754
 H743 H 0.43202 0.80961 0.10088
 H744 H 0.40409 0.79653 0.08441
 C745 C 0.64652 0.29773 0.03937
 C746 C 0.63757 0.28988 0.05176
 C747 C 0.62627 0.28071 0.06621
 C748 C 0.62142 0.26136 0.06431
 C749 C 0.60917 0.25283 0.07748
 C750 C 0.60156 0.26358 0.09271
 C751 C 0.60691 0.28291 0.09477
 C752 C 0.61918 0.29141 0.08158
 C753 C 0.58725 0.25494 0.10564
 C754 C 0.57101 0.26541 0.11093
 C755 C 0.55665 0.25674 0.12162
 C756 C 0.55837 0.23756 0.12721
 C757 C 0.57473 0.22719 0.12253
 C758 C 0.58910 0.23583 0.11183
 C759 C 0.54270 0.22807 0.13629
 C760 C 0.52926 0.21989 0.14305
 H761 H 0.62673 0.25299 0.05238
 H762 H 0.60510 0.23801 0.07534
 H763 H 0.60144 0.29148 0.10646
 H764 H 0.62283 0.30642 0.08316
 H765 H 0.56904 0.28005 0.10616
 H766 H 0.54396 0.26483 0.12501
 H767 H 0.57615 0.21230 0.12673
 H768 H 0.60154 0.22748 0.10816
 C769 C 0.27615 0.03294 0.66323
 C770 C 0.26649 0.04392 0.65413
 C771 C 0.25533 0.05641 0.64223
 C772 C 0.24252 0.04851 0.62911
 C773 C 0.23315 0.06029 0.61598
 C774 C 0.23653 0.08017 0.61575
 C775 C 0.24895 0.08807 0.62944
 C776 C 0.25832 0.07624 0.64257
 C777 C 0.22822 0.09229 0.60041
 C778 C 0.23935 0.10632 0.59134
 C779 C 0.23223 0.11654 0.57571
 C780 C 0.21391 0.11292 0.56894
 C781 C 0.20251 0.09937 0.57816
 C782 C 0.20960 0.08912 0.59382
 C783 C 0.20736 0.12240 0.55189
 C784 C 0.20263 0.13025 0.53728
 H785 H 0.24023 0.03315 0.62863
 H786 H 0.22392 0.05372 0.60546
 H787 H 0.25165 0.10335 0.62977
 H788 H 0.26826 0.08249 0.65263
 H789 H 0.25382 0.10888 0.59584
 H790 H 0.24121 0.12692 0.56860
 H791 H 0.18830 0.09647 0.57301
 H792 H 0.20063 0.07856 0.60064
 C793 C 0.72182 0.03958 0.33777
 C794 C 0.73073 0.05001 0.34820
 C795 C 0.74126 0.06182 0.36134
 C796 C 0.75506 0.05347 0.37311
 C797 C 0.76439 0.06450 0.38691
 C798 C 0.76001 0.08407 0.38915
 C799 C 0.74642 0.09244 0.37695
 C800 C 0.73709 0.08137 0.36314
 C801 C 0.76888 0.09537 0.40481
 C802 C 0.75790 0.10821 0.41571
 C803 C 0.76585 0.11790 0.43127
 C804 C 0.78488 0.11493 0.43617
 C805 C 0.79605 0.10249 0.42521
 C806 C 0.78811 0.09277 0.40961
 C807 C 0.79256 0.12404 0.45296
 C808 C 0.79837 0.13155 0.46736
 H809 H 0.75830 0.03832 0.37191
 H810 H 0.77456 0.05756 0.39625
 H811 H 0.74290 0.10752 0.37817
 H812 H 0.72641 0.08797 0.35411
 H813 H 0.74300 0.11031 0.41258
 H814 H 0.75706 0.12742 0.43974
 H815 H 0.81079 0.10009 0.42888
 H816 H 0.79698 0.08315 0.40137
 C817 C 0.71836 0.96572 0.66363
 C818 C 0.72757 0.95499 0.65380
 C819 C 0.73839 0.94276 0.64130
 C820 C 0.75171 0.95084 0.62888
 C821 C 0.76118 0.93934 0.61558
 C822 C 0.75742 0.91955 0.61449
 C823 C 0.74435 0.91147 0.62738
 C824 C 0.73488 0.92302 0.64068
 C825 C 0.76627 0.90771 0.59923
 C826 C 0.75542 0.89404 0.58924
 C827 C 0.76321 0.88398 0.57382
 C828 C 0.78193 0.88740 0.56818
 C829 C 0.79300 0.90062 0.57831
 C830 C 0.78524 0.91070 0.59375
 C831 C 0.78924 0.87819 0.55130
 C832 C 0.79467 0.87069 0.53674
 H833 H 0.75444 0.96613 0.62915
 H834 H 0.77092 0.94606 0.60569
 H835 H 0.74132 0.89625 0.62705
 H836 H 0.72457 0.91661 0.65022
 H837 H 0.74071 0.89160 0.59288
 H838 H 0.75447 0.87389 0.56599
 H839 H 0.80750 0.90340 0.57404
 H840 H 0.79401 0.92097 0.60130
 C841 C 0.29832 0.95703 0.34864
 C842 C 0.29007 0.94456 0.35715
 C843 C 0.28041 0.93003 0.36796
 C844 C 0.26134 0.93252 0.37286
 C845 C 0.25236 0.91927 0.38477
 C846 C 0.26237 0.90336 0.39199
 C847 C 0.28140 0.90070 0.38656
 C848 C 0.29035 0.91398 0.37462
 C849 C 0.25334 0.89039 0.40612
 C850 C 0.26348 0.88426 0.42238
 C851 C 0.25446 0.87372 0.43672
 C852 C 0.23525 0.86910 0.43497
 C853 C 0.22520 0.87454 0.41855
 C854 C 0.23418 0.88509 0.40418
 C855 C 0.22546 0.86045 0.45079
 C856 C 0.21712 0.85417 0.46445
 H857 H 0.25356 0.94497 0.36788
 H858 H 0.23780 0.92188 0.38893
 H859 H 0.28941 0.88849 0.39172
 H860 H 0.30513 0.91194 0.37093
 H861 H 0.27815 0.88833 0.42443
 H862 H 0.26232 0.86975 0.44947
 H863 H 0.21028 0.87111 0.41710
 H864 H 0.22607 0.88942 0.39173
 C865 C 0.04065 0.33406 0.72625
 C866 C 0.05073 0.34417 0.73586
 C867 C 0.06219 0.35700 0.74707
 C868 C 0.05348 0.37152 0.75775
 C869 C 0.06447 0.38502 0.76749
 C870 C 0.08439 0.38420 0.76665
 C871 C 0.09304 0.36925 0.75628
 C872 C 0.08199 0.35575 0.74652
 C873 C 0.09597 0.39957 0.77558
 C874 C 0.11165 0.40722 0.76579
 C875 C 0.12157 0.42282 0.77333
 C876 C 0.11601 0.43097 0.79075
 C877 C 0.10076 0.42316 0.80088
 C878 C 0.09080 0.40753 0.79336
 C879 C 0.12522 0.44808 0.79747
 C880 C 0.13284 0.46277 0.80230
 H881 H 0.03816 0.37268 0.75816
 H882 H 0.05738 0.39651 0.77508
 H883 H 0.10833 0.36811 0.75555
 H884 H 0.08888 0.34457 0.73829
 H885 H 0.11580 0.40163 0.75195
 H886 H 0.13327 0.42885 0.76532
 H887 H 0.09633 0.42939 0.81437
 H888 H 0.07894 0.40182 0.80134
 C889 C 0.03084 0.66564 0.27522
 C890 C 0.04105 0.65526 0.26606
 C891 C 0.05278 0.64217 0.25540
 C892 C 0.04434 0.62754 0.24466
 C893 C 0.05559 0.61391 0.23538
 C894 C 0.07548 0.61471 0.23675
 C895 C 0.08385 0.62974 0.24723
 C896 C 0.07256 0.64337 0.25652
 C897 C 0.08732 0.59934 0.22813
 C898 C 0.10290 0.59180 0.23827
 C899 C 0.11322 0.57638 0.23087
 C900 C 0.10817 0.56829 0.21325
 C901 C 0.09298 0.57595 0.20283
 C902 C 0.08262 0.59139 0.21020
 C903 C 0.11798 0.55151 0.20649
 C904 C 0.12612 0.53714 0.20153
 H905 H 0.02904 0.62641 0.24381
 H906 H 0.04870 0.60237 0.22768
 H907 H 0.09912 0.63088 0.24836
 H908 H 0.07924 0.65464 0.26481
 H909 H 0.10670 0.59738 0.25222
 H910 H 0.12488 0.57048 0.23911
 H911 H 0.08895 0.56978 0.18917
 H912 H 0.07085 0.59703 0.20196
 C913 C 0.96328 0.34403 0.28449
 C914 C 0.95270 0.35386 0.27512
 C915 C 0.94053 0.36617 0.26404
 C916 C 0.92081 0.36497 0.26586
 C917 C 0.90912 0.37778 0.25592
 C918 C 0.91704 0.39197 0.24406
 C919 C 0.93687 0.39278 0.24204
 C920 C 0.94851 0.37997 0.25198
 C921 C 0.90483 0.40655 0.23462
 C922 C 0.90892 0.41306 0.21601
 C923 C 0.89836 0.42795 0.20782
 C924 C 0.88355 0.43645 0.21811
 C925 C 0.87905 0.42972 0.23641
 C926 C 0.88958 0.41486 0.24462
 C927 C 0.87383 0.45294 0.21056
 C928 C 0.86594 0.46721 0.20494
 H929 H 0.91449 0.35433 0.27517
 H930 H 0.89390 0.37667 0.25760
 H931 H 0.94342 0.40372 0.23327
 H932 H 0.96377 0.38108 0.25055
 H933 H 0.92043 0.40679 0.20787
 H934 H 0.90199 0.43308 0.19366
 H935 H 0.86771 0.43631 0.24455
 H936 H 0.88624 0.41038 0.25906
 C937 C 0.96085 0.64815 0.70340
 C938 C 0.94888 0.63908 0.71167
 C939 C 0.93492 0.62749 0.72116
 C940 C 0.91888 0.62121 0.71116
 C941 C 0.90622 0.60845 0.71976
 C942 C 0.90948 0.60180 0.73850
 C943 C 0.92537 0.60863 0.74862
 C944 C 0.93802 0.62137 0.73998
 C945 C 0.89710 0.58691 0.74705
 C946 C 0.89229 0.58760 0.76659
 C947 C 0.88208 0.57264 0.77497
 C948 C 0.87651 0.55685 0.76394
 C949 C 0.88074 0.55630 0.74439
 C950 C 0.89094 0.57124 0.73597
 C951 C 0.86783 0.54057 0.77297
 C952 C 0.86135 0.52663 0.78075
 H953 H 0.91639 0.62583 0.69655
 H954 H 0.89400 0.60361 0.71169
 H955 H 0.92843 0.60357 0.76295
 H956 H 0.95047 0.62603 0.74780
 H957 H 0.89666 0.59957 0.77543
 H958 H 0.87893 0.57317 0.79014
 H959 H 0.87664 0.54406 0.73576
 H960 H 0.89464 0.57016 0.72097
 C961 C 0.72089 0.66057 0.95655
 C962 C 0.73024 0.65100 0.94571
 C963 C 0.74118 0.63867 0.93339
 C964 C 0.75383 0.62546 0.94145
 C965 C 0.76327 0.61224 0.92981
 C966 C 0.76017 0.61203 0.90990
 C967 C 0.74781 0.62573 0.90186
 C968 C 0.73835 0.63894 0.91355
 C969 C 0.76887 0.59681 0.89784
 C970 C 0.75815 0.58777 0.88342
 C971 C 0.76565 0.57228 0.87322
 C972 C 0.78395 0.56560 0.87723
 C973 C 0.79494 0.57482 0.89116
 C974 C 0.78747 0.59035 0.90139
 C975 C 0.79076 0.54848 0.86798
 C976 C 0.79564 0.53368 0.86051
 H977 H 0.75601 0.62502 0.95681
 H978 H 0.77244 0.60172 0.93650
 H979 H 0.74529 0.62608 0.88657
 H980 H 0.72857 0.64908 0.90717
 H981 H 0.74370 0.59218 0.88053
 H982 H 0.75695 0.56515 0.86257
 H983 H 0.80911 0.56974 0.89441
 H984 H 0.79615 0.59714 0.91224
 C985 C 0.28195 0.33587 0.96481
 C986 C 0.27455 0.34599 0.95294
 C987 C 0.26607 0.35886 0.93925
 C988 C 0.27686 0.36600 0.92403
 C989 C 0.26923 0.37986 0.91175
 C990 C 0.25069 0.38681 0.91455
 C991 C 0.23980 0.37917 0.92960
 C992 C 0.24747 0.36533 0.94187
 C993 C 0.24308 0.40265 0.90253
 C994 C 0.22395 0.40278 0.89673
 C995 C 0.21651 0.41841 0.88665
 C996 C 0.22806 0.43409 0.88219
 C997 C 0.24720 0.43389 0.88749
 C998 C 0.25468 0.41828 0.89756
 C999 C 0.22000 0.45093 0.87342
 C1000 C 0.21310 0.46534 0.86683
 H1001 H 0.29130 0.36115 0.92189
 H1002 H 0.27789 0.38527 0.90017
 H1003 H 0.22560 0.38440 0.93233
 H1004 H 0.23904 0.36003 0.95370
 H1005 H 0.21472 0.39088 0.90015
 H1006 H 0.20165 0.41844 0.88267
 H1007 H 0.25624 0.44602 0.88427
 H1008 H 0.26937 0.41877 0.90205
 C1009 C 0.28599 0.66329 0.04225
 C1010 C 0.27819 0.65335 0.05398
 C1011 C 0.26913 0.64074 0.06749
 C1012 C 0.27915 0.62509 0.07494
 C1013 C 0.27010 0.61195 0.08696
 C1014 C 0.25084 0.61425 0.09169
 C1015 C 0.24099 0.63028 0.08446
 C1016 C 0.25008 0.64342 0.07243
 C1017 C 0.24090 0.59943 0.10323
 C1018 C 0.22247 0.59353 0.09822
 C1019 C 0.21368 0.57850 0.10801
 C1020 C 0.22313 0.56915 0.12298
 C1021 C 0.24127 0.57522 0.12842
 C1022 C 0.25009 0.59028 0.11865
 C1023 C 0.21475 0.55245 0.13166
 C1024 C 0.20775 0.53802 0.13804
 H1025 H 0.29386 0.62279 0.07112
 H1026 H 0.27803 0.59963 0.09200
 H1027 H 0.22622 0.63259 0.08801
 H1028 H 0.24216 0.65547 0.06673
 H1029 H 0.21510 0.60005 0.08625
 H1030 H 0.19971 0.57381 0.10355
 H1031 H 0.24875 0.56806 0.13995
 H1032 H 0.26418 0.59462 0.12301
 C1033 C 0.70242 0.35180 0.03550
 C1034 C 0.71134 0.36095 0.04707
 C1035 C 0.72180 0.37231 0.06069
 C1036 C 0.71395 0.37656 0.07861
 C1037 C 0.72362 0.38855 0.09138
 C1038 C 0.74128 0.39646 0.08638
 C1039 C 0.74920 0.39179 0.06848
 C1040 C 0.73951 0.37982 0.05574
 C1041 C 0.75098 0.41030 0.09929
 C1042 C 0.77085 0.41010 0.10127
 C1043 C 0.78006 0.42420 0.11207
 C1044 C 0.76955 0.43865 0.12109
 C1045 C 0.74975 0.43863 0.11969
 C1046 C 0.74052 0.42454 0.10892
 C1047 C 0.77910 0.45451 0.13012
 C1048 C 0.78699 0.46839 0.13666
 H1049 H 0.70025 0.37083 0.08259
 H1050 H 0.71725 0.39170 0.10512
 H1051 H 0.76262 0.39788 0.06407
 H1052 H 0.74567 0.37671 0.04188
 H1053 H 0.77929 0.39919 0.09424
 H1054 H 0.79540 0.42414 0.11295
 H1055 H 0.74149 0.44987 0.12643
 H1056 H 0.72525 0.42527 0.10748
 C1057 C 0.96294 0.70308 0.64742
 C1058 C 0.95131 0.71192 0.63829
 C1059 C 0.93768 0.72246 0.62706
 C1060 C 0.92023 0.71417 0.62229
 C1061 C 0.90741 0.72406 0.61057
 C1062 C 0.91189 0.74238 0.60345
 C1063 C 0.92935 0.75070 0.60861
 C1064 C 0.94213 0.74080 0.62031
 C1065 C 0.89892 0.75242 0.58996
 C1066 C 0.89641 0.77243 0.59098
 C1067 C 0.88555 0.78204 0.57721
 C1068 C 0.87697 0.77179 0.56230
 C1069 C 0.87889 0.75182 0.56150
 C1070 C 0.88974 0.74218 0.57525
 C1071 C 0.86788 0.78186 0.54679
 C1072 C 0.86129 0.79019 0.53318
 H1073 H 0.91662 0.69999 0.62745
 H1074 H 0.89402 0.71735 0.60703
 H1075 H 0.93338 0.76463 0.60313
 H1076 H 0.95564 0.74732 0.62383
 H1077 H 0.90309 0.78068 0.60226
 H1078 H 0.88426 0.79751 0.57791
 H1079 H 0.87250 0.74376 0.54990
 H1080 H 0.89158 0.72682 0.57389
 C1081 C 0.96045 0.28831 0.34147
 C1082 C 0.94873 0.28006 0.35095
 C1083 C 0.93526 0.27044 0.36309
 C1084 C 0.91911 0.28014 0.36959
 C1085 C 0.90697 0.27144 0.38280
 C1086 C 0.91085 0.25289 0.38975
 C1087 C 0.92686 0.24307 0.38274
 C1088 C 0.93897 0.25180 0.36953
 C1089 C 0.89897 0.24423 0.40505
 C1090 C 0.89486 0.22447 0.40497
 C1091 C 0.88509 0.21610 0.42025
 C1092 C 0.87925 0.22734 0.43578
 C1093 C 0.88280 0.24708 0.43574
 C1094 C 0.89256 0.25548 0.42049
 C1095 C 0.87109 0.21843 0.45245
 C1096 C 0.86515 0.21096 0.46682
 H1097 H 0.91611 0.29460 0.36475
 H1098 H 0.89465 0.27929 0.38775
 H1099 H 0.93043 0.22891 0.38800
 H1100 H 0.95151 0.24421 0.36474
 H1101 H 0.89940 0.21546 0.39320
 H1102 H 0.88250 0.20078 0.42016
 H1103 H 0.87853 0.25589 0.44777
 H1104 H 0.89572 0.27066 0.42115
 C1105 C 0.04525 0.28119 0.66672
 C1106 C 0.05727 0.27400 0.65675
 C1107 C 0.07109 0.26573 0.64403
 C1108 C 0.08587 0.27700 0.63686
 C1109 C 0.09819 0.26955 0.62304
 C1110 C 0.09584 0.25071 0.61617
 C1111 C 0.08125 0.23934 0.62387
 C1112 C 0.06895 0.24682 0.63767
 C1113 C 0.10776 0.24331 0.60026
 C1114 C 0.11390 0.22410 0.60005
 C1115 C 0.12368 0.21675 0.58425
 C1116 C 0.12749 0.22850 0.56848
 C1117 C 0.12192 0.24776 0.56877
 C1118 C 0.11216 0.25515 0.58455
 C1119 C 0.13568 0.22043 0.55140
 C1120 C 0.14168 0.21347 0.53680
 H1121 H 0.08762 0.29168 0.64163
 H1122 H 0.10941 0.27858 0.61756
 H1123 H 0.07888 0.22490 0.61869
 H1124 H 0.05746 0.23802 0.64299
 H1125 H 0.11093 0.21469 0.61201
 H1126 H 0.12786 0.20179 0.58415
 H1127 H 0.12463 0.25694 0.55657
 H1128 H 0.10740 0.26991 0.58413
 C1129 C 0.03465 0.72526 0.32916
 C1130 C 0.04609 0.73441 0.33818
 C1131 C 0.05910 0.74492 0.35013
 C1132 C 0.07838 0.74013 0.35045
 C1133 C 0.09053 0.74880 0.36373
 C1134 C 0.08351 0.76233 0.37694
 C1135 C 0.06423 0.76749 0.37604
 C1136 C 0.05214 0.75882 0.36275
 C1137 C 0.09581 0.76997 0.39247
 C1138 C 0.09407 0.78911 0.39868
 C1139 C 0.10440 0.79569 0.41450
 C1140 C 0.11665 0.78324 0.42426
 C1141 C 0.11887 0.76436 0.41786
 C1142 C 0.10856 0.75776 0.40209
 C1143 C 0.12600 0.78930 0.44158
 C1144 C 0.13356 0.79358 0.45648
 H1145 H 0.08392 0.72932 0.34079
 H1146 H 0.10534 0.74469 0.36389
 H1147 H 0.05830 0.77761 0.38617
 H1148 H 0.03720 0.76251 0.36277
 H1149 H 0.08454 0.79893 0.39146
 H1150 H 0.10255 0.81033 0.41935
 H1151 H 0.12820 0.75456 0.42540
 H1152 H 0.11002 0.74287 0.39790
 C1153 C 0.66158 0.96464 0.72148
 C1154 C 0.65185 0.95379 0.73064
 C1155 C 0.63931 0.94149 0.74131
 C1156 C 0.62670 0.94952 0.75454
 C1157 C 0.61331 0.93800 0.76374
 C1158 C 0.61231 0.91822 0.75982
 C1159 C 0.62538 0.91018 0.74685
 C1160 C 0.63876 0.92176 0.73764
 C1161 C 0.59703 0.90632 0.76840
 C1162 C 0.58751 0.89252 0.75726
 C1163 C 0.57220 0.88231 0.76481
 C1164 C 0.56618 0.88568 0.78360
 C1165 C 0.57580 0.89906 0.79496
 C1166 C 0.59113 0.90931 0.78744
 C1167 C 0.54948 0.87616 0.79069
 C1168 C 0.53512 0.86835 0.79587
 H1169 H 0.62688 0.96480 0.75738
 H1170 H 0.60330 0.94470 0.77340
 H1171 H 0.62514 0.89498 0.74369
 H1172 H 0.64842 0.91538 0.72740
 H1173 H 0.59146 0.89008 0.74248
 H1174 H 0.56479 0.87209 0.75583
 H1175 H 0.57125 0.90182 0.80952
 H1176 H 0.59829 0.91966 0.79646
 C1177 C 0.35558 0.96042 0.29489
 C1178 C 0.36519 0.94896 0.28634
 C1179 C 0.37709 0.93550 0.27630
 C1180 C 0.38355 0.93976 0.25786
 C1181 C 0.39597 0.92725 0.24850
 C1182 C 0.40215 0.91029 0.25749
 C1183 C 0.39530 0.90596 0.27591
 C1184 C 0.38286 0.91849 0.28524
 C1185 C 0.41637 0.89770 0.24804
 C1186 C 0.43144 0.88978 0.25867
 C1187 C 0.44572 0.87928 0.24954
 C1188 C 0.44510 0.87646 0.22971
 C1189 C 0.42989 0.88380 0.21909
 C1190 C 0.41560 0.89432 0.22818
 C1191 C 0.46090 0.86762 0.22009
 C1192 C 0.47462 0.86119 0.21202
 H1193 H 0.37926 0.95294 0.25084
 H1194 H 0.40120 0.93116 0.23447
 H1195 H 0.39963 0.89292 0.28312
 H1196 H 0.37795 0.91505 0.29952
 H1197 H 0.43261 0.89234 0.27392
 H1198 H 0.45753 0.87385 0.25788
 H1199 H 0.42931 0.88179 0.20371
 H1200 H 0.40406 0.90002 0.21964
 C1201 C 0.66805 0.04288 0.27799
 C1202 C 0.65856 0.05395 0.26877
 C1203 C 0.64617 0.06647 0.25813
 C1204 C 0.63354 0.05868 0.24476
 C1205 C 0.62004 0.07034 0.23583
 C1206 C 0.61894 0.09003 0.24018
 C1207 C 0.63210 0.09786 0.25320
 C1208 C 0.64559 0.08614 0.26214
 C1209 C 0.60333 0.10196 0.23215
 C1210 C 0.59381 0.11531 0.24382
 C1211 C 0.57805 0.12532 0.23690
 C1212 C 0.57157 0.12220 0.21820
 C1213 C 0.58122 0.10934 0.20628
 C1214 C 0.59702 0.09930 0.21318
 C1215 C 0.55429 0.13125 0.21188
 C1216 C 0.53940 0.13855 0.20742
 H1217 H 0.63374 0.04345 0.24166
 H1218 H 0.60997 0.06379 0.22612
 H1219 H 0.63177 0.11299 0.25668
 H1220 H 0.65525 0.09233 0.27251
 H1221 H 0.59808 0.11748 0.25856
 H1222 H 0.57061 0.13512 0.24631
 H1223 H 0.57631 0.10678 0.19180
 H1224 H 0.60415 0.08929 0.20377
 C1225 C 0.33710 0.03359 0.71485
 C1226 C 0.34693 0.04538 0.72267
 C1227 C 0.35925 0.05916 0.73170
 C1228 C 0.36674 0.05547 0.74989
 C1229 C 0.37975 0.06817 0.75811
 C1230 C 0.38551 0.08474 0.74819
 C1231 C 0.37760 0.08852 0.73006
 C1232 C 0.36457 0.07580 0.72188
 C1233 C 0.40036 0.09747 0.75636
 C1234 C 0.41481 0.10485 0.74460
 C1235 C 0.42961 0.11561 0.75248
 C1236 C 0.43015 0.11922 0.77219
 C1237 C 0.41560 0.11238 0.78394
 C1238 C 0.40078 0.10159 0.77609
 C1239 C 0.44637 0.12861 0.78052
 C1240 C 0.46035 0.13563 0.78758
 H1241 H 0.36283 0.04257 0.75757
 H1242 H 0.38578 0.06469 0.77195
 H1243 H 0.38158 0.10125 0.72217
 H1244 H 0.35889 0.07879 0.70777
 H1245 H 0.41506 0.10171 0.72942
 H1246 H 0.44089 0.12068 0.74328
 H1247 H 0.41591 0.11501 0.79923
 H1248 H 0.38976 0.09632 0.78548
 C1249 C 0.66203 0.71408 0.03294
 C1250 C 0.65225 0.72197 0.04472
 C1251 C 0.64002 0.73111 0.05849
 C1252 C 0.63261 0.74936 0.05476
 C1253 C 0.61969 0.75770 0.06746
 C1254 C 0.61395 0.74786 0.08406
 C1255 C 0.62178 0.72967 0.08787
 C1256 C 0.63471 0.72136 0.07515
 C1257 C 0.59919 0.75617 0.09680
 C1258 C 0.58471 0.74450 0.10428
 C1259 C 0.56999 0.75251 0.11504
 C1260 C 0.56956 0.77227 0.11855
 C1261 C 0.58415 0.78393 0.11161
 C1262 C 0.59888 0.77595 0.10083
 C1263 C 0.55341 0.78074 0.12792
 C1264 C 0.53947 0.78790 0.13493
 H1265 H 0.63651 0.75698 0.04184
 H1266 H 0.61372 0.77158 0.06395
 H1267 H 0.61781 0.72183 0.10063
 H1268 H 0.64034 0.70721 0.07817
 H1269 H 0.58438 0.72927 0.10122
 H1270 H 0.55868 0.74337 0.12017
 H1271 H 0.58392 0.79926 0.11417
 H1272 H 0.60993 0.78527 0.09548
 C1273 C 0.33240 0.27708 0.04356
 C1274 C 0.34194 0.26789 0.05460
 C1275 C 0.35440 0.25727 0.06708
 C1276 C 0.35493 0.26122 0.08673
 C1277 C 0.36846 0.25230 0.09842
 C1278 C 0.38170 0.23936 0.09057
 C1279 C 0.38065 0.23508 0.07090
 C1280 C 0.36711 0.24399 0.05927
 C1281 C 0.39732 0.23135 0.10249
 C1282 C 0.40373 0.21240 0.09976
 C1283 C 0.41953 0.20551 0.10980
 C1284 C 0.42910 0.21744 0.12272
 C1285 C 0.42252 0.23612 0.12590
 C1286 C 0.40675 0.24303 0.11589
 C1287 C 0.44639 0.21115 0.13177
 C1288 C 0.46128 0.20671 0.13907
 H1289 H 0.34520 0.27153 0.09293
 H1290 H 0.36874 0.25573 0.11354
 H1291 H 0.39078 0.22544 0.06434
 H1292 H 0.36695 0.24095 0.04405
 H1293 H 0.39665 0.20297 0.08972
 H1294 H 0.42452 0.19104 0.10719
 H1295 H 0.42990 0.24554 0.13575
 H1296 H 0.40241 0.25776 0.11812
 C1297 C 0.64373 0.29567 0.96073
 C1298 C 0.63416 0.28712 0.94923
 C1299 C 0.62233 0.27706 0.93573
 C1300 C 0.61587 0.25857 0.93995
 C1301 C 0.60353 0.24918 0.92738
 C1302 C 0.59743 0.25818 0.91041
 C1303 C 0.60428 0.27664 0.90613
 C1304 C 0.61664 0.28600 0.91872
 C1305 C 0.58330 0.24869 0.89776
 C1306 C 0.56825 0.25930 0.88977
 C1307 C 0.55404 0.25013 0.87921
 C1308 C 0.55470 0.23027 0.87641
 C1309 C 0.56990 0.21966 0.88380
 C1310 C 0.58413 0.22880 0.89438
 C1311 C 0.53895 0.22060 0.86753
 C1312 C 0.52526 0.21248 0.86109
 H1313 H 0.62010 0.25155 0.95312
 H1314 H 0.59830 0.23511 0.93125
 H1315 H 0.60001 0.28386 0.89309
 H1316 H 0.62155 0.30031 0.91531
 H1317 H 0.56705 0.27457 0.89232
 H1318 H 0.54224 0.25846 0.87373
 H1319 H 0.57051 0.20426 0.88181
 H1320 H 0.59565 0.22027 0.90013
 C1321 C 0.33810 0.72141 0.96433
 C1322 C 0.34774 0.73061 0.95343
 C1323 C 0.36018 0.74135 0.94108
 C1324 C 0.36076 0.73755 0.92141
 C1325 C 0.37404 0.74685 0.90980
 C1326 C 0.38698 0.76003 0.91774
 C1327 C 0.38594 0.76407 0.93746
 C1328 C 0.37265 0.75478 0.94902
 C1329 C 0.40218 0.76872 0.90581
 C1330 C 0.40787 0.78786 0.90866
 C1331 C 0.42314 0.79550 0.89840
 C1332 C 0.43288 0.78413 0.88512
 C1333 C 0.42704 0.76523 0.88187
 C1334 C 0.41181 0.75757 0.89210
 C1335 C 0.44953 0.79133 0.87561
 C1336 C 0.46389 0.79658 0.86784
 H1337 H 0.35121 0.72715 0.91510
 H1338 H 0.37432 0.74359 0.89464
 H1339 H 0.39585 0.77390 0.94409
 H1340 H 0.37244 0.75772 0.96426
 H1341 H 0.40062 0.79689 0.91894
 H1342 H 0.42754 0.81014 0.90106
 H1343 H 0.43456 0.75624 0.87173
 H1344 H 0.40801 0.74271 0.88976
 C1345 C 0.71860 0.96314 0.33751
 C1346 C 0.72593 0.95129 0.34770
 C1347 C 0.73435 0.93763 0.36065
 C1348 C 0.72357 0.92237 0.36775
 C1349 C 0.73117 0.91011 0.38164
 C1350 C 0.74967 0.91299 0.38867
 C1351 C 0.76055 0.92809 0.38109
 C1352 C 0.75292 0.94033 0.36721
 C1353 C 0.75726 0.90098 0.40452
 C1354 C 0.77640 0.89525 0.40473
 C1355 C 0.78383 0.88520 0.42038
 C1356 C 0.77224 0.88071 0.43600
 C1357 C 0.75308 0.88594 0.43572
 C1358 C 0.74562 0.89597 0.42009
 C1359 C 0.78029 0.87200 0.45285
 C1360 C 0.78722 0.86548 0.46725
 H1361 H 0.70916 0.92017 0.36282
 H1362 H 0.72252 0.89849 0.38702
 H1363 H 0.77472 0.93088 0.38638
 H1364 H 0.76134 0.95219 0.36194
 H1365 H 0.78567 0.89869 0.39288
 H1366 H 0.79870 0.88128 0.42047
 H1367 H 0.74401 0.88270 0.44780
 H1368 H 0.73090 0.90041 0.42051
 C1369 C 0.27743 0.95643 0.66097
 C1370 C 0.26814 0.94560 0.65131
 C1371 C 0.25736 0.93328 0.63885
 C1372 C 0.24485 0.94136 0.62552
 C1373 C 0.23563 0.92973 0.61215
 C1374 C 0.23881 0.90980 0.61188
 C1375 C 0.25100 0.90173 0.62570
 C1376 C 0.26024 0.91342 0.63907
 C1377 C 0.23040 0.89777 0.59649
 C1378 C 0.24132 0.88343 0.58755
 C1379 C 0.23411 0.87324 0.57193
 C1380 C 0.21588 0.87718 0.56502
 C1381 C 0.20469 0.89103 0.57411
 C1382 C 0.21188 0.90125 0.58977
 C1383 C 0.20933 0.86790 0.54782
 C1384 C 0.20465 0.86038 0.53300
 H1385 H 0.24263 0.95674 0.62512
 H1386 H 0.22658 0.93644 0.60154
 H1387 H 0.25358 0.88642 0.62601
 H1388 H 0.26992 0.90701 0.64930
 H1389 H 0.25573 0.88059 0.59215
 H1390 H 0.24295 0.86265 0.56491
 H1391 H 0.19057 0.89423 0.56886
 H1392 H 0.20304 0.91204 0.59647
 C1393 C 0.29624 0.03594 0.35154
 C1394 C 0.28735 0.04752 0.36072
 C1395 C 0.27694 0.06114 0.37213
 C1396 C 0.28470 0.07917 0.37615
 C1397 C 0.27511 0.09196 0.38818
 C1398 C 0.25761 0.08686 0.39637
 C1399 C 0.24976 0.06884 0.39193
 C1400 C 0.25938 0.05608 0.37991
 C1401 C 0.24800 0.09980 0.41024
 C1402 C 0.22812 0.10162 0.41031
 C1403 C 0.21904 0.11247 0.42445
 C1404 C 0.22968 0.12170 0.43865
 C1405 C 0.24948 0.12045 0.43836
 C1406 C 0.25860 0.10963 0.42424
 C1407 C 0.22029 0.13082 0.45454
 C1408 C 0.21254 0.13745 0.46843
 H1409 H 0.29829 0.08325 0.37020
 H1410 H 0.28142 0.10580 0.39115
 H1411 H 0.23647 0.06435 0.39823
 H1412 H 0.25328 0.04212 0.37699
 H1413 H 0.21959 0.09444 0.39960
 H1414 H 0.20369 0.11323 0.42459
 H1415 H 0.25786 0.12735 0.44941
 H1416 H 0.27389 0.10831 0.42476
 C1417 C 0.71464 0.04304 0.66270
 C1418 C 0.72245 0.05470 0.65269
 C1419 C 0.73151 0.06814 0.64000
 C1420 C 0.72142 0.07563 0.62443
 C1421 C 0.73044 0.08756 0.61121
 C1422 C 0.74976 0.09217 0.61335
 C1423 C 0.75968 0.08491 0.62929
 C1424 C 0.75061 0.07296 0.64251
 C1425 C 0.75966 0.10362 0.59843
 C1426 C 0.77801 0.09845 0.59242
 C1427 C 0.78676 0.10816 0.57732
 C1428 C 0.77735 0.12320 0.56803
 C1429 C 0.75930 0.12880 0.57421
 C1430 C 0.75052 0.11911 0.58933
 C1431 C 0.78568 0.13181 0.55129
 C1432 C 0.79265 0.13813 0.53685
 H1433 H 0.70666 0.07189 0.62226
 H1434 H 0.72246 0.09264 0.59896
 H1435 H 0.77450 0.08837 0.63147
 H1436 H 0.75858 0.06723 0.65449
 H1437 H 0.78534 0.08643 0.59890
 H1438 H 0.80066 0.10358 0.57255
 H1439 H 0.75185 0.14038 0.56708
 H1440 H 0.73649 0.12359 0.59376
 C1441 C 0.95452 0.66639 0.28210
 C1442 C 0.94257 0.65611 0.27523
 C1443 C 0.92887 0.64298 0.26737
 C1444 C 0.92219 0.64528 0.24862
 C1445 C 0.91009 0.63157 0.24057
 C1446 C 0.90456 0.61534 0.25117
 C1447 C 0.91100 0.61343 0.27016
 C1448 C 0.92307 0.62715 0.27817
 C1449 C 0.89310 0.59987 0.24218
 C1450 C 0.87914 0.59007 0.25272
 C1451 C 0.86955 0.57443 0.24471
 C1452 C 0.87375 0.56843 0.22607
 C1453 C 0.88724 0.57840 0.21530
 C1454 C 0.89684 0.59401 0.22327
 C1455 C 0.86527 0.55132 0.21833
 C1456 C 0.85902 0.53669 0.21162
 H1457 H 0.92661 0.65747 0.24012
 H1458 H 0.90520 0.63357 0.22600
 H1459 H 0.90727 0.60099 0.27860
 H1460 H 0.92826 0.62515 0.29264
 H1461 H 0.87577 0.59437 0.26722
 H1462 H 0.85917 0.56680 0.25319
 H1463 H 0.89071 0.57379 0.20090
 H1464 H 0.90769 0.60102 0.21487
 C1465 C 0.96517 0.32974 0.72437
 C1466 C 0.95382 0.33902 0.73337
 C1467 C 0.94093 0.35120 0.74376
 C1468 C 0.92165 0.35165 0.73900
 C1469 C 0.90961 0.36505 0.74766
 C1470 C 0.91673 0.37825 0.76114
 C1471 C 0.93602 0.37725 0.76625
 C1472 C 0.94801 0.36384 0.75760
 C1473 C 0.90452 0.39383 0.76885
 C1474 C 0.90633 0.39997 0.78798
 C1475 C 0.89601 0.41578 0.79465
 C1476 C 0.88373 0.42561 0.78231
 C1477 C 0.88146 0.41930 0.76342
 C1478 C 0.89175 0.40353 0.75673
 C1479 C 0.87432 0.44287 0.78850
 C1480 C 0.86670 0.45773 0.79289
 H1481 H 0.91602 0.34199 0.72826
 H1482 H 0.89479 0.36530 0.74359
 H1483 H 0.94203 0.38735 0.77634
 H1484 H 0.96294 0.36374 0.76127
 H1485 H 0.91588 0.39269 0.79772
 H1486 H 0.89790 0.42056 0.80929
 H1487 H 0.87209 0.42688 0.75371
 H1488 H 0.89024 0.39940 0.74186
 C1489 C 0.03872 0.64637 0.70397
 C1490 C 0.05033 0.63720 0.71279
 C1491 C 0.06393 0.62590 0.72330
 C1492 C 0.08127 0.62089 0.71493
 C1493 C 0.09405 0.60910 0.72478
 C1494 C 0.08963 0.60214 0.74316
 C1495 C 0.07230 0.60755 0.75157
 C1496 C 0.05955 0.61933 0.74169
 C1497 C 0.10254 0.58855 0.75317
 C1498 C 0.10520 0.58968 0.77313
 C1499 C 0.11599 0.57583 0.78273
 C1500 C 0.12431 0.56073 0.77254
 C1501 C 0.12224 0.55983 0.75262
 C1502 C 0.11148 0.57365 0.74299
 C1503 C 0.13331 0.54516 0.78262
 C1504 C 0.13981 0.53149 0.79096
 H1505 H 0.08482 0.62591 0.70070
 H1506 H 0.10735 0.60536 0.71801
 H1507 H 0.06832 0.60221 0.76555
 H1508 H 0.04614 0.62304 0.74827
 H1509 H 0.09872 0.60110 0.78134
 H1510 H 0.11739 0.57661 0.79817
 H1511 H 0.12843 0.54808 0.74460
 H1512 H 0.10950 0.57221 0.72768
 C1513 C 0.03977 0.34231 0.28775
 C1514 C 0.05146 0.35189 0.27956
 C1515 C 0.06489 0.36413 0.27000
 C1516 C 0.08097 0.37074 0.27976
 C1517 C 0.09308 0.38403 0.27110
 C1518 C 0.08923 0.39094 0.25256
 C1519 C 0.07330 0.38382 0.24269
 C1520 C 0.06122 0.37054 0.25138
 C1521 C 0.10109 0.40630 0.24393
 C1522 C 0.10530 0.40618 0.22423
 C1523 C 0.11506 0.42150 0.21588
 C1524 C 0.12081 0.43710 0.22710
 C1525 C 0.11716 0.43710 0.24679
 C1526 C 0.10741 0.42180 0.25516
 C1527 C 0.12900 0.45379 0.21821
 C1528 C 0.13498 0.46816 0.21076
 H1529 H 0.08393 0.36592 0.29421
 H1530 H 0.10533 0.38906 0.27899
 H1531 H 0.06977 0.38905 0.22853
 H1532 H 0.04873 0.36566 0.24375
 H1533 H 0.10083 0.39436 0.21524
 H1534 H 0.11773 0.42138 0.20061
 H1535 H 0.12136 0.44918 0.25558
 H1536 H 0.10417 0.42249 0.27030
   
