data_POSCAR
  _audit_creation_date              2014-09-24
  _audit_creation_method            'ToBaCCo'
  _symmetry_space_group_name_H-M    'P1'
  _symmetry_Int_Tables_number       1
  _symmetry_cell_setting            triclinic
  loop_
  _symmetry_equiv_pos_as_xyz
 x,y,z
_cell_length_a 47.0096
_cell_length_b 47.0869
_cell_length_c 45.8528
_cell_angle_alpha 89.876100
_cell_angle_beta 90.364300
_cell_angle_gamma 90.740200
loop_
  _atom_site_label
  _atom_site_type_symbol
  _atom_site_fract_x
  _atom_site_fract_y
  _atom_site_fract_z
C1 C 0.36147 0.32140 0.32306
 N2 N 0.35250 0.34760 0.31539
 C3 C 0.33141 0.36039 0.33038
 N4 N 0.31867 0.34621 0.35277
 C5 C 0.32724 0.31970 0.36045
 N6 N 0.34901 0.30761 0.34576
 C7 C 0.35725 0.82176 -0.17200
 N8 N 0.35001 0.84847 -0.18052
 C9 C 0.32792 0.86231 -0.16804
 N10 N 0.31310 0.84896 -0.14643
 C11 C 0.32039 0.82263 -0.13726
 N12 N 0.34241 0.80922 -0.15003
 C13 C 0.86411 0.33001 -0.17045
 N14 N 0.85563 0.35593 -0.17985
 C15 C 0.83441 0.36992 -0.16619
 N16 N 0.82121 0.35706 -0.14327
 C17 C 0.82980 0.33134 -0.13343
 N18 N 0.85142 0.31795 -0.14689
 C19 C 0.86719 0.83466 0.33230
 N20 N 0.85344 0.81992 0.35372
 C21 C 0.83074 0.83103 0.36767
 N22 N 0.82200 0.85755 0.36068
 C23 C 0.83571 0.87284 0.33980
 N24 N 0.85797 0.86108 0.32582
 C25 C 0.63089 0.67049 0.32274
 N26 N 0.64470 0.64893 0.30946
 C27 C 0.66815 0.63756 0.32212
 N28 N 0.67729 0.64738 0.34842
 C29 C 0.66365 0.66890 0.36188
 N30 N 0.64088 0.68085 0.34850
 C31 C 0.63226 0.16186 -0.16886
 N32 N 0.64355 0.13764 -0.17965
 C33 C 0.66742 0.12616 -0.16787
 N34 N 0.68112 0.14030 -0.14604
 C35 C 0.67090 0.16515 -0.13583
 N36 N 0.64646 0.17571 -0.14709
 C37 C 0.13221 0.66530 -0.17637
 N38 N 0.14532 0.64384 -0.19037
 C39 C 0.16728 0.62992 -0.17756
 N40 N 0.17493 0.63697 -0.14978
 C41 C 0.16170 0.65824 -0.13539
 N42 N 0.14075 0.67275 -0.14913
 C43 C 0.12991 0.16155 0.32867
 N44 N 0.14451 0.14153 0.31383
 C45 C 0.16934 0.13103 0.32435
 N46 N 0.17909 0.14019 0.35071
 C47 C 0.16517 0.16059 0.36564
 N48 N 0.14109 0.17172 0.35407
 C49 C 0.62513 0.34201 0.66887
 N50 N 0.63769 0.36477 0.68213
 C51 C 0.66098 0.37754 0.67019
 N52 N 0.67234 0.36663 0.64553
 C53 C 0.66007 0.34384 0.63218
 N54 N 0.63656 0.33146 0.64404
 C55 C 0.63302 0.84162 1.16275
 N56 N 0.64559 0.83057 1.13885
 C57 C 0.67187 0.83927 1.13056
 N58 N 0.68642 0.85848 1.14705
 C59 C 0.67475 0.86928 1.17164
 N60 N 0.64788 0.86095 1.17908
 C61 C 0.13262 0.33021 1.17041
 N62 N 0.14716 0.31629 1.14931
 C63 C 0.17353 0.32513 1.14107
 N64 N 0.18567 0.34809 1.15430
 C65 C 0.17168 0.36192 1.17575
 N66 N 0.14527 0.35297 1.18366
 C67 C 0.13831 0.82824 0.66689
 N68 N 0.14595 0.85503 0.67527
 C69 C 0.16843 0.86892 0.66289
 N70 N 0.18304 0.85568 0.64142
 C71 C 0.17528 0.82937 0.63227
 N72 N 0.15303 0.81571 0.64507
 C73 C 0.37399 0.66110 0.66940
 N74 N 0.35994 0.63756 0.67908
 C75 C 0.33716 0.62701 0.66412
 N76 N 0.32793 0.64042 0.63971
 C77 C 0.34162 0.66411 0.62983
 N78 N 0.36426 0.67457 0.64513
 C79 C 0.38072 0.16082 1.15529
 N80 N 0.36743 0.17290 1.13202
 C81 C 0.34249 0.16189 1.12166
 N82 N 0.33069 0.13870 1.13469
 C83 C 0.34391 0.12588 1.15755
 N84 N 0.36833 0.13778 1.16814
 C85 C 0.86574 0.67163 1.17660
 N86 N 0.85268 0.68446 1.15368
 C87 C 0.83202 0.67073 1.13833
 N88 N 0.82456 0.64376 1.14565
 C89 C 0.83792 0.63008 1.16790
 N90 N 0.85849 0.64430 1.18318
 C91 C 0.86743 0.17117 0.66692
 N92 N 0.85331 0.14973 0.68081
 C93 C 0.82621 0.14236 0.67298
 N94 N 0.81354 0.15661 0.65071
 C95 C 0.82741 0.17799 0.63667
 N96 N 0.85425 0.18528 0.64487
 C97 C 0.33316 0.36305 0.67011
 N98 N 0.35441 0.34925 0.68425
 C99 C 0.36327 0.32355 0.67484
 N100 N 0.35041 0.31135 0.65129
 C101 C 0.32889 0.32477 0.63722
 N102 N 0.32031 0.35054 0.64668
 C103 C 0.33222 0.86979 0.16019
 N104 N 0.31731 0.85631 0.13875
 C105 C 0.32725 0.83204 0.12682
 N106 N 0.35228 0.82126 0.13638
 C107 C 0.36731 0.83461 0.15785
 N108 N 0.35693 0.85857 0.17003
 C109 C 0.83018 0.36577 0.17363
 N110 N 0.81650 0.35151 0.15188
 C111 C 0.82757 0.32735 0.14084
 N112 N 0.85271 0.31767 0.15139
 C113 C 0.86652 0.33177 0.17321
 N114 N 0.85492 0.35553 0.18460
 C115 C 0.83409 0.87185 0.66356
 N116 N 0.85674 0.86026 0.67759
 C117 C 0.86644 0.83443 0.66954
 N118 N 0.85313 0.81988 0.64774
 C119 C 0.83016 0.83098 0.63394
 N120 N 0.82078 0.85699 0.64189
 C121 C 0.67123 0.63779 0.67878
 N122 N 0.64799 0.64886 0.69168
 C123 C 0.63365 0.67034 0.67865
 N124 N 0.64307 0.68109 0.65291
 C125 C 0.66577 0.66956 0.63933
 N126 N 0.67982 0.64796 0.65252
 C127 C 0.66634 0.12862 0.17073
 N128 N 0.67784 0.13835 0.14545
 C129 C 0.66812 0.16247 0.13282
 N130 N 0.64761 0.17757 0.14622
 C131 C 0.63666 0.16864 0.17201
 N132 N 0.64589 0.14400 0.18408
 C133 C 0.16728 0.63110 0.17892
 N134 N 0.17749 0.64477 0.15491
 C135 C 0.16317 0.66688 0.14298
 N136 N 0.13808 0.67455 0.15488
 C137 C 0.12768 0.66130 0.17893
 N138 N 0.14245 0.63959 0.19105
 C139 C 0.16476 0.12961 0.67460
 N140 N 0.14504 0.14448 0.68965
 C141 C 0.13528 0.16951 0.67900
 N142 N 0.14506 0.17942 0.65310
 C143 C 0.16445 0.16467 0.63770
 N144 N 0.17468 0.14006 0.64888
 C145 C 0.33852 0.63316 0.32862
 N146 N 0.36128 0.64466 0.31461
 C147 C 0.37419 0.66850 0.32510
 N148 N 0.36391 0.68118 0.34939
 C149 C 0.34106 0.66985 0.36348
 N150 N 0.32827 0.64600 0.35277
 C151 C 0.33524 0.12665 0.83608
 N152 N 0.35992 0.13761 0.82520
 C153 C 0.37062 0.16269 0.83548
 N154 N 0.35599 0.17724 0.85596
 C155 C 0.33112 0.16666 0.86655
 N156 N 0.32099 0.14134 0.85666
 C157 C 0.84206 0.63127 0.83849
 N158 N 0.86588 0.64329 0.82687
 C159 C 0.87755 0.66715 0.83893
 N160 N 0.86499 0.67914 0.86239
 C161 C 0.84137 0.66706 0.87431
 N162 N 0.82970 0.64345 0.86195
 C163 C 0.82966 0.13839 0.33833
 N164 N 0.85490 0.14814 0.32777
 C165 C 0.86697 0.17237 0.33854
 N166 N 0.85320 0.18714 0.35953
 C167 C 0.82775 0.17768 0.36984
 N168 N 0.81610 0.15329 0.35919
 C169 C 0.65924 0.37821 0.33481
 N170 N 0.67268 0.36449 0.35688
 C171 C 0.66173 0.34003 0.36801
 N172 N 0.63693 0.32930 0.35719
 C173 C 0.62317 0.34287 0.33516
 N174 N 0.63477 0.36695 0.32359
 C175 C 0.66829 0.87206 0.83339
 N176 N 0.64307 0.86112 0.82374
 C177 C 0.63057 0.83880 0.83772
 N178 N 0.64391 0.82696 0.86109
 C179 C 0.66932 0.83763 0.87065
 N180 N 0.68155 0.85994 0.85655
 C181 C 0.16526 0.37047 0.83461
 N182 N 0.13862 0.36387 0.82488
 C183 C 0.12295 0.34318 0.83815
 N184 N 0.13441 0.32879 0.86089
 C185 C 0.16116 0.33469 0.87050
 N186 N 0.17636 0.35594 0.85759
 C187 C 0.17340 0.86900 0.32931
 N188 N 0.14748 0.85951 0.31999
 C189 C 0.13436 0.83738 0.33371
 N190 N 0.14765 0.82432 0.35630
 C191 C 0.17355 0.83359 0.36570
 N192 N 0.18625 0.85612 0.35236
 O193 O 0.29018 0.97456 0.24239
 O194 O 0.25012 1.03053 0.28020
 O195 O 0.25139 0.97401 0.28276
 O196 O 0.29183 1.02949 0.24455
 O197 O 0.26137 1.02748 0.20798
 O198 O 0.21880 0.97349 0.24784
 O199 O 0.21853 1.02960 0.24454
 O200 O 0.25699 0.97282 0.20805
 Cu201 Cu 0.27376 1.00209 0.26629
 Cu202 Cu 0.23546 1.00108 0.22384
 C203 C 0.28026 0.96419 0.21873
 C204 C 0.22814 1.04062 0.26783
 C205 C 0.22890 0.96358 0.27149
 C206 C 0.28434 1.03728 0.21926
 O207 O 0.24731 0.52860 0.78058
 O208 O 0.28808 0.47074 0.74759
 O209 O 0.28720 0.52548 0.74185
 O210 O 0.24786 0.47259 0.78559
 O211 O 0.21605 0.46825 0.75014
 O212 O 0.25376 0.52345 0.70777
 O213 O 0.25673 0.46845 0.71176
 O214 O 0.21418 0.52372 0.74664
 Cu215 Cu 0.27068 0.49978 0.76762
 Cu216 Cu 0.23183 0.49549 0.72569
 C217 C 0.22423 0.53661 0.76876
 C218 C 0.27970 0.46008 0.72361
 C219 C 0.27706 0.53362 0.71753
 C220 C 0.22581 0.46072 0.77480
 O221 O 0.75030 -0.02596 0.22108
 O222 O 0.78569 0.03258 0.26067
 O223 O 0.78949 -0.02244 0.26041
 O224 O 0.74638 0.02928 0.22001
 O225 O 0.71301 0.02631 0.25362
 O226 O 0.75743 -0.02338 0.29526
 O227 O 0.75179 0.03144 0.29387
 O228 O 0.71816 -0.02928 0.25581
 Cu229 Cu 0.77118 0.00381 0.23704
 Cu230 Cu 0.73167 0.00108 0.27797
 C231 C 0.72896 -0.03848 0.23237
 C232 C 0.77476 0.04195 0.28396
 C233 C 0.78094 -0.03164 0.28490
 C234 C 0.72231 0.03644 0.22979
 O235 O 0.74632 0.47707 0.71705
 O236 O 0.79125 0.52891 0.75698
 O237 O 0.78860 0.47372 0.75374
 O238 O 0.75051 0.53260 0.71922
 O239 O 0.71887 0.53189 0.75463
 O240 O 0.75937 0.47521 0.79092
 O241 O 0.75936 0.53015 0.79217
 O242 O 0.71620 0.47614 0.75378
 Cu243 Cu 0.77215 0.50292 0.73304
 Cu244 Cu 0.73518 0.50296 0.77640
 C245 C 0.72359 0.46775 0.72869
 C246 C 0.78262 0.53872 0.78113
 C247 C 0.78132 0.46511 0.77882
 C248 C 0.72875 0.54281 0.73139
 O249 O 0.29001 0.52537 0.25609
 O250 O 0.24920 0.46971 0.21722
 O251 O 0.24938 0.52613 0.21765
 O252 O 0.28971 0.47027 0.25531
 O253 O 0.25870 0.47061 0.29111
 O254 O 0.21705 0.52500 0.25239
 O255 O 0.21764 0.46887 0.25274
 O256 O 0.25750 0.52599 0.29068
 Cu257 Cu 0.27254 0.49798 0.23283
 Cu258 Cu 0.23440 0.49747 0.27512
 C259 C 0.28063 0.53528 0.27987
 C260 C 0.22711 0.45909 0.22897
 C261 C 0.22695 0.53577 0.22911
 C262 C 0.28131 0.46105 0.27986
 O263 O 0.74713 1.02676 0.78422
 O264 O 0.78878 0.97626 0.74128
 O265 O 0.78572 1.03207 0.74528
 O266 O 0.74984 0.97201 0.78185
 O267 O 0.71624 0.97192 0.74792
 O268 O 0.75242 1.03146 0.71116
 O269 O 0.75514 0.97571 0.70751
 O270 O 0.71350 1.02613 0.75051
 Cu271 Cu 0.77148 1.00156 0.76635
 Cu272 Cu 0.73125 1.00112 0.72554
 C273 C 0.72299 1.03478 0.77498
 C274 C 0.77896 0.96724 0.71710
 C275 C 0.77429 1.04293 0.72279
 C276 C 0.72640 0.96251 0.77171
 O277 O 0.78500 0.47309 0.24893
 O278 O 0.74719 0.53242 0.28286
 O279 O 0.74416 0.47694 0.28700
 O280 O 0.78898 0.52811 0.24724
 O281 O 0.75908 0.52628 0.21018
 O282 O 0.71235 0.47743 0.25136
 O283 O 0.71672 0.53266 0.24599
 O284 O 0.75284 0.47157 0.21358
 Cu285 Cu 0.76931 0.50252 0.27027
 Cu286 Cu 0.73204 0.50197 0.22670
 C287 C 0.77541 0.46236 0.22537
 C288 C 0.72607 0.54323 0.26967
 C289 C 0.72059 0.46862 0.27617
 C290 C 0.78209 0.53563 0.22164
 O291 O 0.28690 0.02405 0.75468
 O292 O 0.24507 -0.02805 0.71235
 O293 O 0.24559 0.02652 0.71642
 O294 O 0.28536 -0.03150 0.75158
 O295 O 0.25473 -0.03181 0.78760
 O296 O 0.21324 0.02386 0.75112
 O297 O 0.21406 -0.03132 0.74806
 O298 O 0.25419 0.02342 0.78906
 Cu299 Cu 0.26902 -0.00207 0.73034
 Cu300 Cu 0.23090 -0.00433 0.77252
 C301 C 0.27752 0.03288 0.77888
 C302 C 0.22220 -0.03837 0.72273
 C303 C 0.22237 0.03467 0.72753
 C304 C 0.27725 -0.04118 0.77606
 O305 O 0.21515 0.24894 1.03200
 O306 O 0.24953 0.21347 0.97005
 O307 O 0.25446 0.21146 1.02673
 O308 O 0.20854 0.24974 0.97557
 O309 O 0.24073 0.28370 0.97173
 O310 O 0.28666 0.24598 1.02417
 O311 O 0.28184 0.24787 0.96795
 O312 O 0.24708 0.28366 1.02914
 Cu313 Cu 0.22868 0.22749 1.00129
 Cu314 Cu 0.26711 0.26899 0.99808
 C315 C 0.22580 0.27206 1.04150
 C316 C 0.27146 0.22467 0.95838
 C317 C 0.27831 0.22213 1.03420
 C318 C 0.21700 0.27270 0.96396
 O319 O 0.25520 0.78764 0.46914
 O320 O 0.29626 0.75104 0.52652
 O321 O 0.29575 0.75078 0.46950
 O322 O 0.25540 0.78774 0.52646
 O323 O 0.22467 0.75184 0.52769
 O324 O 0.26361 0.71623 0.46904
 O325 O 0.26552 0.71540 0.52525
 O326 O 0.22306 0.75308 0.47026
 Cu327 Cu 0.27873 0.77291 0.49791
 Cu328 Cu 0.24085 0.73081 0.49810
 C329 C 0.23248 0.77616 0.45941
 C330 C 0.28825 0.72665 0.53531
 C331 C 0.28665 0.72713 0.45963
 C332 C 0.23366 0.77559 0.53733
 O333 O 0.27361 0.74469 -0.02946
 O334 O 0.23489 0.71141 0.03208
 O335 O 0.23573 0.70411 -0.02435
 O336 O 0.27568 0.74882 0.02771
 O337 O 0.24151 0.78058 0.02626
 O338 O 0.20368 0.73762 -0.02934
 O339 O 0.20110 0.74273 0.02660
 O340 O 0.24163 0.77864 -0.03106
 Cu341 Cu 0.25836 0.72403 0.00175
 Cu342 Cu 0.21882 0.76326 -0.00236
 C343 C 0.26403 0.76739 -0.04068
 C344 C 0.21123 0.72165 0.04005
 C345 C 0.21292 0.71316 -0.03576
 C346 C 0.26489 0.77170 0.03675
 O347 O 0.21197 0.23952 0.47230
 O348 O 0.25276 0.27989 0.52781
 O349 O 0.25276 0.27723 0.47026
 O350 O 0.21165 0.24265 0.52893
 O351 O 0.24169 0.20720 0.52933
 O352 O 0.28490 0.24362 0.47355
 O353 O 0.28298 0.24446 0.53129
 O354 O 0.24421 0.20584 0.47331
 Cu355 Cu 0.22933 0.26344 0.49959
 Cu356 Cu 0.26688 0.22208 0.50214
 C357 C 0.22107 0.21575 0.46341
 C358 C 0.27412 0.26838 0.53984
 C359 C 0.27538 0.26579 0.46128
 C360 C 0.21913 0.21860 0.53865
 O361 O 0.75734 0.71640 0.97371
 O362 O 0.71743 0.75738 1.02777
 O363 O 0.71877 0.75614 0.97167
 O364 O 0.75465 0.71756 1.03061
 O365 O 0.78852 0.75046 1.03210
 O366 O 0.75347 0.78827 0.97152
 O367 O 0.75141 0.79021 1.02786
 O368 O 0.79190 0.74857 0.97519
 Cu369 Cu 0.73373 0.73344 1.00066
 Cu370 Cu 0.77492 0.77253 1.00153
 C371 C 0.78167 0.72531 0.96562
 C372 C 0.72749 0.78100 1.03674
 C373 C 0.72964 0.77908 0.96206
 C374 C 0.77703 0.72796 1.04221
 O375 O 0.74781 0.22372 0.47452
 O376 O 0.70842 0.26357 0.52968
 O377 O 0.70915 0.26181 0.47336
 O378 O 0.74706 0.22446 0.53213
 O379 O 0.78100 0.25740 0.53165
 O380 O 0.74298 0.29487 0.47306
 O381 O 0.74223 0.29659 0.52991
 O382 O 0.78163 0.25675 0.47453
 Cu383 Cu 0.72489 0.23985 0.50266
 Cu384 Cu 0.76540 0.27969 0.50249
 C385 C 0.77074 0.23407 0.46423
 C386 C 0.71840 0.28711 0.53884
 C387 C 0.72002 0.28435 0.46276
 C388 C 0.77022 0.23477 0.54209
 O389 O 0.78655 0.25357 -0.02626
 O390 O 0.74803 0.20941 0.02728
 O391 O 0.74994 0.21279 -0.02933
 O392 O 0.78529 0.25056 0.03129
 O393 O 0.75041 0.28153 0.03173
 O394 O 0.71475 0.24347 -0.02848
 O395 O 0.71330 0.24054 0.02771
 O396 O 0.75148 0.28433 -0.02594
 Cu397 Cu 0.77112 0.22861 0.00088
 Cu398 Cu 0.72918 0.26582 0.00147
 C399 C 0.77474 0.27564 -0.03636
 C400 C 0.72391 0.21732 0.03633
 C401 C 0.72666 0.22203 -0.03958
 C402 C 0.77337 0.27197 0.04241
 O403 O 0.78141 0.74869 0.47154
 O404 O 0.74012 0.71208 0.52860
 O405 O 0.74002 0.71169 0.47206
 O406 O 0.78149 0.74916 0.52882
 O407 O 0.75053 0.78403 0.52842
 O408 O 0.70906 0.74646 0.47144
 O409 O 0.70932 0.74695 0.52864
 O410 O 0.75042 0.78355 0.47118
 Cu411 Cu 0.76399 0.72705 0.50030
 Cu412 Cu 0.72678 0.76878 0.49984
 C413 C 0.77252 0.77196 0.46109
 C414 C 0.71760 0.72315 0.53837
 C415 C 0.71734 0.72257 0.46211
 C416 C 0.77264 0.77251 0.53892
 O417 O 0.97057 0.25436 0.21536
 O418 O 1.02653 0.21241 0.25032
 O419 O 0.97102 0.21448 0.25472
 O420 O 1.02547 0.25414 0.21289
 O421 O 1.02983 0.28443 0.24929
 O422 O 0.97317 0.24704 0.28930
 O423 O 1.02808 0.24230 0.28705
 O424 O 0.97440 0.28661 0.25011
 Cu425 Cu 0.99814 0.23060 0.22986
 Cu426 Cu 1.00191 0.26827 0.27247
 C427 C 0.96327 0.27782 0.22639
 C428 C 1.03634 0.21950 0.27509
 C429 C 0.96258 0.22426 0.27898
 C430 C 1.03671 0.27637 0.22393
 O431 O 0.47101 0.24871 0.71595
 O432 O 0.53064 0.21137 0.74970
 O433 O 0.47533 0.20941 0.75493
 O434 O 0.52642 0.25428 0.71387
 O435 O 0.52850 0.28404 0.75097
 O436 O 0.47445 0.24187 0.78969
 O437 O 0.52943 0.24038 0.78722
 O438 O 0.47241 0.28094 0.75091
 Cu439 Cu 0.50102 0.22793 0.72997
 Cu440 Cu 0.50169 0.26511 0.77315
 C441 C 0.46103 0.27062 0.72797
 C442 C 0.53938 0.21848 0.77484
 C443 C 0.46559 0.21857 0.77895
 C444 C 0.53620 0.27684 0.72562
 O445 O 0.02331 0.26011 0.78980
 O446 O -0.02579 0.21454 0.74675
 O447 O 0.02970 0.21799 0.75356
 O448 O -0.03163 0.25340 0.78569
 O449 O -0.03092 0.28552 0.75045
 O450 O 0.03074 0.24984 0.71815
 O451 O -0.02467 0.24646 0.71144
 O452 O 0.02380 0.29167 0.75415
 Cu453 Cu -0.00101 0.23326 0.77245
 Cu454 Cu -0.00012 0.27141 0.72988
 C455 C 0.03164 0.28386 0.77939
 C456 C -0.03409 0.22323 0.72187
 C457 C 0.04103 0.22813 0.73072
 C458 C -0.04195 0.27516 0.77344
 O459 O 0.53226 0.24980 0.21250
 O460 O 0.47029 0.28348 0.24639
 O461 O 0.52520 0.28989 0.25053
 O462 O 0.47711 0.24509 0.20665
 O463 O 0.47834 0.21161 0.24025
 O464 O 0.52488 0.25758 0.28545
 O465 O 0.46972 0.24980 0.28006
 O466 O 0.53271 0.21759 0.24757
 Cu467 Cu 0.50121 0.27034 0.22555
 Cu468 Cu 0.50137 0.23095 0.26692
 C469 C 0.54326 0.22816 0.22453
 C470 C 0.45921 0.27193 0.26872
 C471 C 0.53318 0.28151 0.27555
 C472 C 0.46985 0.22053 0.21553
 O473 O 1.02830 0.71617 0.74674
 O474 O 0.97024 0.75587 0.71195
 O475 O 1.02653 0.75533 0.70774
 O476 O 0.97380 0.71653 0.75191
 O477 O 0.97657 0.74999 0.78553
 O478 O 1.03075 0.78790 0.74209
 O479 O 0.97455 0.78950 0.74529
 O480 O 1.03169 0.74908 0.78095
 Cu481 Cu 0.99906 0.73294 0.72589
 Cu482 Cu 1.00343 0.77265 0.76673
 C483 C 1.04026 0.72622 0.76944
 C484 C 0.96221 0.77910 0.72299
 C485 C 1.03915 0.77698 0.71842
 C486 C 0.96662 0.72638 0.77649
 O487 O 0.52783 0.79129 0.23550
 O488 O 0.47443 0.74885 0.27509
 O489 O 0.52958 0.75090 0.27463
 O490 O 0.47271 0.78877 0.23568
 O491 O 0.47393 0.75710 0.20034
 O492 O 0.52885 0.71782 0.24055
 O493 O 0.47363 0.71724 0.23951
 O494 O 0.52966 0.75825 0.20173
 Cu495 Cu 0.50112 0.77321 0.25871
 Cu496 Cu 0.50162 0.73443 0.21696
 C497 C 0.53789 0.78213 0.21171
 C498 C 0.46492 0.72590 0.26405
 C499 C 0.53841 0.72753 0.26454
 C500 C 0.46386 0.77962 0.21115
 O501 O -0.02586 0.78685 0.25770
 O502 O 0.02750 0.74229 0.22268
 O503 O -0.02789 0.74604 0.22096
 O504 O 0.02932 0.78614 0.25738
 O505 O 0.02843 0.75585 0.29417
 O506 O -0.03104 0.71701 0.25875
 O507 O 0.02480 0.71174 0.25917
 O508 O -0.02643 0.75816 0.29563
 Cu509 Cu 0.00119 0.76818 0.23587
 Cu510 Cu -0.00100 0.73247 0.28053
 C511 C -0.03530 0.78030 0.28275
 C512 C 0.03511 0.71930 0.23481
 C513 C -0.04024 0.72575 0.23423
 C514 C 0.03832 0.77823 0.28219
 O515 O 0.52638 0.75630 0.79742
 O516 O 0.47398 0.71074 0.75907
 O517 O 0.52941 0.71470 0.75999
 O518 O 0.47060 0.75177 0.79558
 O519 O 0.46855 0.78188 0.75869
 O520 O 0.52859 0.74580 0.72394
 O521 O 0.47370 0.74096 0.72235
 O522 O 0.52466 0.78732 0.76133
 Cu523 Cu 0.50047 0.73046 0.78179
 Cu524 Cu 0.49897 0.76732 0.73811
 C525 C 0.53445 0.77957 0.78592
 C526 C 0.46477 0.71808 0.73412
 C527 C 0.53869 0.72359 0.73563
 C528 C 0.45841 0.77199 0.78230
 C529 C 0.38240 0.28210 0.29255
 C530 C 0.38524 0.30842 0.30727
 C531 C 0.41156 0.32271 0.30742
 C532 C 0.43526 0.31074 0.29443
 C533 C 0.43335 0.28399 0.28130
 C534 C 0.40679 0.26946 0.28001
 C535 C 0.35566 0.26857 0.28903
 C536 C 0.35320 0.24247 0.27485
 C537 C 0.37720 0.22965 0.26343
 C538 C 0.40374 0.24304 0.26571
 H539 H 0.33641 0.27849 0.29633
 H540 H 0.33254 0.23231 0.27242
 H541 H 0.37517 0.20947 0.25228
 H542 H 0.42168 0.23273 0.25587
 H543 H 0.41389 0.34309 0.31818
 H544 H 0.45543 0.32213 0.29521
 C545 C 0.38278 0.77760 0.81302
 C546 C 0.38044 0.80784 0.81483
 C547 C 0.40270 0.82472 0.80344
 C548 C 0.42765 0.81273 0.79330
 C549 C 0.43140 0.78334 0.79369
 C550 C 0.40853 0.76537 0.80268
 C551 C 0.35939 0.75915 0.81864
 C552 C 0.36172 0.72981 0.81631
 C553 C 0.38698 0.71799 0.80717
 C554 C 0.40996 0.73545 0.79990
 H555 H 0.33855 0.76687 0.82331
 H556 H 0.34352 0.71621 0.82084
 H557 H 0.38850 0.69519 0.80478
 H558 H 0.42830 0.72501 0.79122
 H559 H 0.40157 0.84767 0.80361
 H560 H 0.44452 0.82667 0.78559
 C561 C -0.11616 0.28631 0.80468
 C562 C -0.11323 0.31501 0.81386
 C563 C -0.08812 0.33013 0.80764
 C564 C -0.06549 0.31703 0.79391
 C565 C -0.06725 0.28838 0.78608
 C566 C -0.09287 0.27285 0.79082
 C567 C -0.14201 0.27097 0.80790
 C568 C -0.14458 0.24293 0.79840
 C569 C -0.12177 0.22975 0.78512
 C570 C -0.09620 0.24451 0.78114
 H571 H -0.16069 0.28051 0.81708
 H572 H -0.16453 0.23149 0.80103
 H573 H -0.12401 0.20809 0.77749
 H574 H -0.07937 0.23365 0.76993
 H575 H -0.08575 0.35217 0.81408
 H576 H -0.04611 0.32915 0.79008
 C577 C -0.09304 0.83623 0.29497
 C578 C -0.10896 0.82266 0.31795
 C579 C -0.09929 0.79625 0.32829
 C580 C -0.07510 0.78370 0.31733
 C581 C -0.05834 0.79725 0.29627
 C582 C -0.06624 0.82474 0.28648
 C583 C -0.10277 0.86037 0.27939
 C584 C -0.08506 0.87525 0.26034
 C585 C -0.05746 0.86633 0.25577
 C586 C -0.04811 0.84126 0.26848
 H587 H -0.12431 0.86765 0.28022
 H588 H -0.09278 0.89396 0.24919
 H589 H -0.04344 0.87850 0.24172
 H590 H -0.02631 0.83554 0.26457
 H591 H -0.11057 0.78460 0.34512
 H592 H -0.06973 0.76277 0.32535
 C593 C 0.58151 0.66784 0.29989
 C594 C 0.60594 0.68368 0.30871
 C595 C 0.60663 0.71315 0.30465
 C596 C 0.58429 0.72694 0.29081
 C597 C 0.56045 0.71172 0.28069
 C598 C 0.55845 0.68201 0.28593
 C599 C 0.57896 0.63843 0.30562
 C600 C 0.55442 0.62333 0.29771
 C601 C 0.53183 0.63718 0.28439
 C602 C 0.53363 0.66623 0.27867
 H603 H 0.59556 0.62691 0.31674
 H604 H 0.55276 0.60082 0.30233
 H605 H 0.51264 0.62541 0.27874
 H606 H 0.51514 0.67615 0.26919
 H607 H 0.62499 0.72558 0.31168
 H608 H 0.58596 0.74967 0.28732
 C609 C 0.58631 0.15722 0.80303
 C610 C 0.60707 0.17342 0.81907
 C611 C 0.60277 0.20275 0.82229
 C612 C 0.58068 0.21642 0.80805
 C613 C 0.56170 0.20160 0.78985
 C614 C 0.56410 0.17150 0.78748
 C615 C 0.58564 0.12710 0.80375
 C616 C 0.56580 0.11156 0.78752
 C617 C 0.54547 0.12543 0.77099
 C618 C 0.54423 0.15492 0.77128
 H619 H 0.59926 0.11492 0.81787
 H620 H 0.56584 0.08858 0.78826
 H621 H 0.52989 0.11322 0.75866
 H622 H 0.52690 0.16397 0.75920
 H623 H 0.61744 0.21585 0.83486
 H624 H 0.57901 0.23921 0.81062
 C625 C 1.11380 0.71072 0.80150
 C626 C 1.10997 0.68163 0.80864
 C627 C 1.08449 0.66769 0.80126
 C628 C 1.06227 0.68242 0.78822
 C629 C 1.06492 0.71151 0.78220
 C630 C 1.09116 0.72577 0.78796
 C631 C 1.14001 0.72494 0.80663
 C632 C 1.14386 0.75325 0.79848
 C633 C 1.12190 0.76786 0.78490
 C634 C 1.09583 0.75435 0.77959
 H635 H 1.15790 0.71422 0.81645
 H636 H 1.16410 0.76382 0.80240
 H637 H 1.12515 0.78973 0.77823
 H638 H 1.07974 0.76641 0.76834
 H639 H 1.08157 0.64533 0.80620
 H640 H 1.04263 0.67111 0.78330
 C641 C 1.08521 0.15765 0.29862
 C642 C 1.10451 0.17302 0.31715
 C643 C 1.09831 0.20135 0.32388
 C644 C 1.07603 0.21540 0.31036
 C645 C 1.05823 0.20174 0.29000
 C646 C 1.06199 0.17209 0.28488
 C647 C 1.08695 0.12779 0.29532
 C648 C 1.06779 0.11283 0.27773
 C649 C 1.04579 0.12688 0.26387
 C650 C 1.04255 0.15596 0.26769
 H651 H 1.10206 0.11518 0.30726
 H652 H 1.06958 0.09004 0.27549
 H653 H 1.03056 0.11500 0.25074
 H654 H 1.02394 0.16486 0.25771
 H655 H 1.11192 0.21360 0.33844
 H656 H 1.07334 0.23769 0.31532
 C657 C 0.57508 0.32068 0.66712
 C658 C 0.60052 0.32741 0.68260
 C659 C 0.60319 0.31910 0.71180
 C660 C 0.58191 0.30312 0.72532
 C661 C 0.55729 0.29475 0.71005
 C662 C 0.55337 0.30402 0.68084
 C663 C 0.57024 0.33112 0.63868
 C664 C 0.54513 0.32456 0.62368
 C665 C 0.52410 0.30806 0.63691
 C666 C 0.52793 0.29809 0.66530
 H667 H 0.58536 0.34513 0.62819
 H668 H 0.54179 0.33272 0.60185
 H669 H 0.50448 0.30338 0.62530
 H670 H 0.51053 0.28628 0.67499
 H671 H 0.62234 0.32432 0.72405
 H672 H 0.58505 0.29656 0.74777
 C673 C 0.58673 0.81625 0.15335
 C674 C 0.60633 0.83089 0.17215
 C675 C 0.59995 0.83245 0.20197
 C676 C 0.57746 0.81696 0.21376
 C677 C 0.56006 0.79937 0.19639
 C678 C 0.56407 0.79955 0.16558
 C679 C 0.58799 0.81919 0.12262
 C680 C 0.56936 0.80425 0.10442
 C681 C 0.54852 0.78670 0.11626
 C682 C 0.54558 0.78461 0.14638
 H683 H 0.60242 0.83399 0.11217
 H684 H 0.57084 0.80666 0.08099
 H685 H 0.53400 0.77521 0.10201
 H686 H 0.52822 0.77159 0.15389
 H687 H 0.61362 0.84412 0.21697
 H688 H 0.57448 0.81785 0.23715
 C689 C 1.08521 0.33624 0.19445
 C690 C 1.10602 0.31946 0.18009
 C691 C 1.10046 0.29019 0.17672
 C692 C 1.07749 0.27701 0.19032
 C693 C 1.05862 0.29250 0.20733
 C694 C 1.06143 0.32258 0.20822
 C695 C 1.08617 0.36632 0.19366
 C696 C 1.06545 0.38236 0.20731
 C697 C 1.04272 0.36903 0.22112
 C698 C 1.04037 0.33953 0.22120
 H699 H 1.10196 0.37800 0.18139
 H700 H 1.06663 0.40533 0.20648
 H701 H 1.02634 0.38164 0.23110
 H702 H 1.02131 0.33045 0.23058
 H703 H 1.11514 0.27670 0.16524
 H704 H 1.07524 0.25414 0.18858
 C705 C 1.11338 0.78386 0.68419
 C706 C 1.11517 0.81404 0.68051
 C707 C 1.09274 0.83059 0.69099
 C708 C 1.06820 0.81816 0.70242
 C709 C 1.06507 0.78867 0.70429
 C710 C 1.08808 0.77117 0.69590
 C711 C 1.13701 0.76615 0.67931
 C712 C 1.13538 0.73695 0.68387
 C713 C 1.11057 0.72461 0.69438
 C714 C 1.08733 0.74143 0.70073
 H715 H 1.15753 0.77446 0.67349
 H716 H 1.15378 0.72393 0.67995
 H717 H 1.10959 0.70196 0.69844
 H718 H 1.06934 0.73067 0.71030
 H719 H 1.09351 0.85354 0.68930
 H720 H 1.05130 0.83183 0.70970
 C721 C 0.41866 0.65696 0.70182
 C722 C 0.39849 0.67342 0.68603
 C723 C 0.40120 0.70305 0.68637
 C724 C 0.42273 0.71653 0.70206
 C725 C 0.44232 0.70113 0.71875
 C726 C 0.44005 0.67089 0.71924
 C727 C 0.41883 0.62701 0.69991
 C728 C 0.43780 0.61102 0.71633
 C729 C 0.45741 0.62442 0.73455
 C730 C 0.45888 0.65395 0.73576
 H731 H 0.40504 0.61549 0.68521
 H732 H 0.43736 0.58807 0.71478
 H733 H 0.47195 0.61185 0.74745
 H734 H 0.47497 0.66286 0.74982
 H735 H 0.38623 0.71615 0.67456
 H736 H 0.42373 0.73953 0.70151
 C737 C 0.42621 0.18929 0.15153
 C738 C 0.40574 0.17302 0.16762
 C739 C 0.41021 0.16944 0.19777
 C740 C 0.43166 0.18419 0.21244
 C741 C 0.45020 0.20261 0.19765
 C742 C 0.44866 0.20402 0.16669
 C743 C 0.42645 0.18945 0.12068
 C744 C 0.44695 0.20472 0.10521
 C745 C 0.46849 0.21922 0.11994
 C746 C 0.46976 0.21849 0.15027
 H747 H 0.41192 0.17670 0.10800
 H748 H 0.44663 0.20452 0.08160
 H749 H 0.48486 0.23037 0.10778
 H750 H 0.48816 0.22838 0.16032
 H751 H 0.39576 0.15666 0.21080
 H752 H 0.43288 0.18207 0.23595
 C753 C -0.11303 0.71634 0.19720
 C754 C -0.11338 0.68621 0.19329
 C755 C -0.09161 0.67022 0.20636
 C756 C -0.06839 0.68336 0.21989
 C757 C -0.06619 0.71292 0.22128
 C758 C -0.08905 0.72972 0.21098
 C759 C -0.13680 0.73334 0.19012
 C760 C -0.13619 0.76261 0.19451
 C761 C -0.11246 0.77564 0.20698
 C762 C -0.08931 0.75944 0.21556
 H763 H -0.15674 0.72441 0.18255
 H764 H -0.15457 0.77516 0.18886
 H765 H -0.11231 0.79831 0.21086
 H766 H -0.07219 0.77050 0.22667
 H767 H -0.09154 0.64728 0.20470
 H768 H -0.05146 0.67029 0.22848
 C769 C -0.08304 0.16480 0.68978
 C770 C -0.10504 0.18224 0.67852
 C771 C -0.10164 0.21182 0.67966
 C772 C -0.07804 0.22427 0.69292
 C773 C -0.05679 0.20773 0.70570
 C774 C -0.05874 0.17769 0.70361
 C775 C -0.08410 0.13497 0.68681
 C776 C -0.06223 0.11819 0.69773
 C777 C -0.03868 0.13072 0.71128
 C778 C -0.03672 0.16016 0.71400
 H779 H -0.10132 0.12430 0.67541
 H780 H -0.06337 0.09535 0.69527
 H781 H -0.02161 0.11757 0.71932
 H782 H -0.01752 0.16893 0.72367
 H783 H -0.11803 0.22563 0.67123
 H784 H -0.07699 0.24724 0.69421
 C785 C 0.33886 0.40966 0.30799
 C786 C 0.32091 0.38858 0.32076
 C787 C 0.29164 0.39340 0.32217
 C788 C 0.27979 0.41749 0.30973
 C789 C 0.29656 0.43747 0.29466
 C790 C 0.32660 0.43368 0.29374
 C791 C 0.36883 0.40779 0.30966
 C792 C 0.38629 0.42771 0.29589
 C793 C 0.37440 0.45012 0.28059
 C794 C 0.34498 0.45331 0.27969
 H795 H 0.37921 0.39147 0.32227
 H796 H 0.40919 0.42581 0.29722
 H797 H 0.38808 0.46547 0.26977
 H798 H 0.33730 0.47146 0.26798
 H799 H 0.27750 0.37780 0.33200
 H800 H 0.25691 0.41978 0.31072
 C801 C 0.33585 -0.09205 0.80421
 C802 C 0.31848 -0.11124 0.82078
 C803 C 0.28974 -0.10442 0.82466
 C804 C 0.27749 -0.08169 0.81022
 C805 C 0.29322 -0.06419 0.79134
 C806 C 0.32307 -0.06886 0.78876
 C807 C 0.36588 -0.09402 0.80434
 C808 C 0.38270 -0.07557 0.78789
 C809 C 0.37023 -0.05412 0.77170
 C810 C 0.34091 -0.05044 0.77239
 H811 H 0.37699 -0.10876 0.81821
 H812 H 0.40561 -0.07759 0.78820
 H813 H 0.38347 -0.03964 0.75921
 H814 H 0.33307 -0.03249 0.76047
 H815 H 0.27577 -0.11779 0.83764
 H816 H 0.25491 -0.07842 0.81319
 C817 C 0.84098 0.41504 0.80529
 C818 C 0.82431 0.39606 0.82279
 C819 C 0.79578 0.40286 0.82799
 C820 C 0.78289 0.42542 0.81387
 C821 C 0.79781 0.44260 0.79406
 C822 C 0.82754 0.43802 0.79022
 C823 C 0.87100 0.41306 0.80407
 C824 C 0.88709 0.43136 0.78673
 C825 C 0.87394 0.45265 0.77094
 C826 C 0.84468 0.45630 0.77290
 H827 H 0.88274 0.39839 0.81748
 H828 H 0.90999 0.42934 0.78602
 H829 H 0.88661 0.46705 0.75775
 H830 H 0.83639 0.47419 0.76120
 H831 H 0.78247 0.38957 0.84175
 H832 H 0.76046 0.42874 0.81776
 C833 C 0.84105 -0.07802 0.31628
 C834 C 0.82409 -0.09965 0.32953
 C835 C 0.79455 -0.09645 0.33035
 C836 C 0.78153 -0.07373 0.31665
 C837 C 0.79737 -0.05344 0.30105
 C838 C 0.82763 -0.05517 0.30112
 C839 C 0.87107 -0.07814 0.31838
 C840 C 0.88755 -0.05752 0.30442
 C841 C 0.87460 -0.03598 0.28868
 C842 C 0.84504 -0.03455 0.28723
 H843 H 0.88219 -0.09358 0.33147
 H844 H 0.91052 -0.05808 0.30610
 H845 H 0.88753 -0.01989 0.27805
 H846 H 0.83644 -0.01673 0.27556
 H847 H 0.78108 -0.11242 0.34051
 H848 H 0.75851 -0.07283 0.31711
 C849 C 0.33541 0.57494 0.67755
 C850 C 0.32200 0.60158 0.67489
 C851 C 0.29367 0.60439 0.68348
 C852 C 0.27907 0.58172 0.69630
 C853 C 0.29240 0.55566 0.70080
 C854 C 0.32046 0.55177 0.69062
 C855 C 0.36306 0.57058 0.66675
 C856 C 0.37583 0.54410 0.66920
 C857 C 0.36117 0.52144 0.68192
 C858 C 0.33367 0.52511 0.69239
 H859 H 0.37473 0.58733 0.65574
 H860 H 0.39703 0.54105 0.66078
 H861 H 0.37100 0.50083 0.68325
 H862 H 0.32255 0.50685 0.70117
 H863 H 0.28309 0.62459 0.68120
 H864 H 0.25755 0.58491 0.70374
 C865 C 0.34715 1.08202 0.18861
 C866 C 0.33153 1.10157 0.17097
 C867 C 0.30208 1.09703 0.16759
 C868 C 0.28776 1.07598 0.18310
 C869 C 0.30200 1.05837 0.20287
 C870 C 0.33224 1.06109 0.20561
 C871 C 0.37731 1.08130 0.18823
 C872 C 0.39237 1.06302 0.20628
 C873 C 0.37796 1.04426 0.22437
 C874 C 0.34839 1.04282 0.22373
 H875 H 0.38984 1.09366 0.17310
 H876 H 0.41539 1.06307 0.20582
 H877 H 0.38980 1.02991 0.23821
 H878 H 0.33906 1.02660 0.23722
 H879 H 0.28943 1.11079 0.15385
 H880 H 0.26490 1.07415 0.18029
 C881 C 0.84375 0.58463 0.19580
 C882 C 0.82790 0.60308 0.17726
 C883 C 0.79980 0.59520 0.17001
 C884 C 0.78618 0.57267 0.18383
 C885 C 0.79996 0.55659 0.20530
 C886 C 0.82958 0.56166 0.21053
 C887 C 0.87367 0.58734 0.19864
 C888 C 0.88895 0.56964 0.21714
 C889 C 0.87506 0.54828 0.23254
 C890 C 0.84588 0.54399 0.22906
 H891 H 0.88588 0.60215 0.18562
 H892 H 0.91180 0.57218 0.21910
 H893 H 0.88712 0.53433 0.24662
 H894 H 0.83696 0.52607 0.24049
 H895 H 0.78715 0.60784 0.15516
 H896 H 0.76393 0.56888 0.17868
 C897 C 0.78165 1.11805 0.69051
 C898 C 0.81190 1.11972 0.68729
 C899 C 0.82838 1.09737 0.69836
 C900 C 0.81577 1.07280 0.70948
 C901 C 0.78618 1.06969 0.71064
 C902 C 0.76879 1.09280 0.70215
 C903 C 0.76400 1.14165 0.68503
 C904 C 0.73470 1.14004 0.68903
 C905 C 0.72223 1.11532 0.69969
 C906 C 0.73900 1.09212 0.70668
 H907 H 0.77244 1.16213 0.67912
 H908 H 0.72170 1.15840 0.68463
 H909 H 0.69951 1.11439 0.70344
 H910 H 0.72822 1.07425 0.71656
 H911 H 0.85139 1.09808 0.69701
 H912 H 0.82936 1.05572 0.71674
 C913 C 0.71383 0.61665 0.30279
 C914 C 0.68397 0.61493 0.30724
 C915 C 0.66879 0.59090 0.29764
 C916 C 0.68277 0.56808 0.28515
 C917 C 0.71238 0.56858 0.28192
 C918 C 0.72815 0.59327 0.29004
 C919 C 0.72964 0.64152 0.30969
 C920 C 0.75883 0.64311 0.30470
 C921 C 0.77279 0.62032 0.29229
 C922 C 0.75769 0.59572 0.28477
 H923 H 0.71965 0.66022 0.31831
 H924 H 0.77061 0.66232 0.31011
 H925 H 0.79539 0.62185 0.28806
 H926 H 0.76936 0.57903 0.27426
 H927 H 0.64595 0.58948 0.30053
 H928 H 0.67042 0.54955 0.27860
 C929 C 0.69424 1.08078 0.83739
 C930 C 0.67854 1.10087 0.82056
 C931 C 0.67440 1.09563 0.79067
 C932 C 0.68830 1.07368 0.77674
 C933 C 0.70614 1.05531 0.79217
 C934 C 0.70779 1.05764 0.82308
 C935 C 0.69483 1.08163 0.86828
 C936 C 0.70924 1.06124 0.88447
 C937 C 0.72241 1.03888 0.87053
 C938 C 0.72132 1.03671 0.84027
 H939 H 0.68316 1.09707 0.88056
 H940 H 0.70942 1.06231 0.90805
 H941 H 0.73283 1.02264 0.88330
 H942 H 0.73013 1.01778 0.83094
 H943 H 0.66194 1.10988 0.77727
 H944 H 0.68591 1.07186 0.75330
 C945 C 0.18484 0.60749 0.77630
 C946 C 0.18214 0.60851 0.80740
 C947 C 0.19506 0.58710 0.82412
 C948 C 0.20821 0.56416 0.81111
 C949 C 0.20928 0.56152 0.78079
 C950 C 0.19799 0.58353 0.76299
 C951 C 0.17728 0.63069 0.75815
 C952 C 0.18023 0.62944 0.72800
 C953 C 0.19179 0.60568 0.71510
 C954 C 0.20104 0.58320 0.73228
 H955 H 0.17042 0.65075 0.76665
 H956 H 0.17416 0.64737 0.71461
 H957 H 0.19450 0.60504 0.69168
 H958 H 0.21133 0.56619 0.72097
 H959 H 0.19411 0.58734 0.84772
 H960 H 0.21728 0.54794 0.82501
 C961 C 0.18608 1.10979 0.27748
 C962 C 0.18475 1.11060 0.30863
 C963 C 0.19990 1.09024 0.32470
 C964 C 0.21366 1.06802 0.31104
 C965 C 0.21375 1.06556 0.28066
 C966 C 0.20099 1.08728 0.26348
 C967 C 0.17539 1.13210 0.25987
 C968 C 0.17796 1.13165 0.22966
 C969 C 0.19229 1.10980 0.21618
 C970 C 0.20418 1.08818 0.23279
 H971 H 0.16616 1.15094 0.26888
 H972 H 0.16958 1.14891 0.21669
 H973 H 0.19498 1.11005 0.19274
 H974 H 0.21678 1.07307 0.22109
 H975 H 0.19993 1.09051 0.34833
 H976 H 0.22390 1.05218 0.32453
 C977 C 0.66058 0.42591 0.69547
 C978 C 0.67533 0.40194 0.68478
 C979 C 0.70502 0.40117 0.68747
 C980 C 0.72010 0.42291 0.70132
 C981 C 0.70608 0.44621 0.71312
 C982 C 0.67610 0.44820 0.70984
 C983 C 0.63098 0.42889 0.69118
 C984 C 0.61692 0.45279 0.70129
 C985 C 0.63201 0.47441 0.71535
 C986 C 0.66132 0.47237 0.71939
 H987 H 0.61842 0.41327 0.67944
 H988 H 0.59423 0.45473 0.69782
 H989 H 0.62101 0.49309 0.72277
 H990 H 0.67219 0.49020 0.72948
 H991 H 0.71669 0.38324 0.67919
 H992 H 0.74299 0.42118 0.70343
 C993 C 0.72010 -0.10918 0.19108
 C994 C 0.68974 -0.11046 0.18876
 C995 C 0.67384 -0.09011 0.20377
 C996 C 0.68698 -0.06730 0.21786
 C997 C 0.71659 -0.06413 0.21819
 C998 C 0.73353 -0.08578 0.20585
 C999 C 0.73744 -0.13167 0.18142
 C1000 C 0.76691 -0.13043 0.18451
 C1001 C 0.77988 -0.10744 0.19828
 C1002 C 0.76348 -0.08560 0.20932
 H1003 H 0.72870 -0.15119 0.17273
 H1004 H 0.77971 -0.14783 0.17689
 H1005 H 0.80275 -0.10694 0.20124
 H1006 H 0.77467 -0.06931 0.22148
 H1007 H 0.65079 -0.09072 0.20322
 H1008 H 0.67373 -0.05145 0.22790
 C1009 C 0.21167 0.38238 0.20654
 C1010 C 0.18569 0.38583 0.19120
 C1011 C 0.17331 0.41271 0.18979
 C1012 C 0.18690 0.43633 0.20225
 C1013 C 0.21346 0.43372 0.21591
 C1014 C 0.22609 0.40660 0.21821
 C1015 C 0.22315 0.35522 0.21142
 C1016 C 0.24907 0.35210 0.22595
 C1017 C 0.26381 0.37587 0.23625
 C1018 C 0.25244 0.40285 0.23258
 H1019 H 0.21179 0.33619 0.20487
 H1020 H 0.25764 0.33112 0.22941
 H1021 H 0.28393 0.37339 0.24753
 H1022 H 0.26439 0.42062 0.24123
 H1023 H 0.15320 0.41551 0.17855
 H1024 H 0.17688 0.45688 0.20078
 C1025 C 0.16200 -0.08551 0.69050
 C1026 C 0.17884 -0.10501 0.67440
 C1027 C 0.20807 -0.09898 0.67138
 C1028 C 0.22118 -0.07706 0.68672
 C1029 C 0.20573 -0.05953 0.70523
 C1030 C 0.17560 -0.06264 0.70605
 C1031 C 0.13190 -0.08676 0.68977
 C1032 C 0.11573 -0.06727 0.70507
 C1033 C 0.12897 -0.04544 0.72052
 C1034 C 0.15850 -0.04276 0.72066
 H1035 H 0.12034 -0.10174 0.67630
 H1036 H 0.09273 -0.06865 0.70424
 H1037 H 0.11624 -0.02997 0.73177
 H1038 H 0.16741 -0.02431 0.73141
 H1039 H 0.22169 -0.11259 0.65873
 H1040 H 0.24406 -0.07460 0.68495
 C1041 C 0.30704 0.27494 0.38486
 C1042 C 0.31349 0.30454 0.38528
 C1043 C 0.30708 0.32027 0.41028
 C1044 C 0.29520 0.30726 0.43475
 C1045 C 0.28996 0.27793 0.43545
 C1046 C 0.29607 0.26139 0.41039
 C1047 C 0.30987 0.25868 0.35922
 C1048 C 0.30397 0.22963 0.35906
 C1049 C 0.29450 0.21620 0.38423
 C1050 C 0.29026 0.23185 0.40954
 H1051 H 0.31563 0.26826 0.33880
 H1052 H 0.30644 0.21756 0.33919
 H1053 H 0.28984 0.19363 0.38398
 H1054 H 0.28214 0.22044 0.42812
 H1055 H 0.31149 0.34289 0.41099
 H1056 H 0.29023 0.32023 0.45349
 C1057 C 0.28947 0.78238 -0.11823
 C1058 C 0.30435 0.80837 -0.11371
 C1059 C 0.30496 0.82053 -0.08586
 C1060 C 0.29193 0.80685 -0.06236
 C1061 C 0.27835 0.78045 -0.06599
 C1062 C 0.27686 0.76802 -0.09409
 C1063 C 0.28595 0.77082 -0.14642
 C1064 C 0.27151 0.74508 -0.15057
 C1065 C 0.25988 0.73065 -0.12686
 C1066 C 0.26230 0.74205 -0.09890
 H1067 H 0.29366 0.78192 -0.16552
 H1068 H 0.26909 0.73643 -0.17231
 H1069 H 0.24857 0.71074 -0.13021
 H1070 H 0.25247 0.73055 -0.08118
 H1071 H 0.31600 0.84055 -0.08220
 H1072 H 0.29273 0.81679 -0.04107
 C1073 C 0.78548 0.30936 -0.11163
 C1074 C 0.81460 0.31722 -0.10933
 C1075 C 0.82983 0.31085 -0.08388
 C1076 C 0.81649 0.29765 -0.06035
 C1077 C 0.78752 0.29044 -0.06160
 C1078 C 0.77180 0.29575 -0.08763
 C1079 C 0.76996 0.31365 -0.13775
 C1080 C 0.74165 0.30481 -0.14017
 C1081 C 0.72833 0.29132 -0.11689
 C1082 C 0.74315 0.28670 -0.09093
 H1083 H 0.77961 0.32334 -0.15672
 H1084 H 0.73010 0.30814 -0.16036
 H1085 H 0.70645 0.28412 -0.11904
 H1086 H 0.73197 0.27546 -0.07392
 H1087 H 0.85223 0.31638 -0.08214
 H1088 H 0.82885 0.29315 -0.04090
 C1089 C 0.80729 0.78561 0.38681
 C1090 C 0.81558 0.81453 0.39043
 C1091 C 0.80890 0.82853 0.41640
 C1092 C 0.79505 0.81433 0.43897
 C1093 C 0.78768 0.78556 0.43650
 C1094 C 0.79356 0.77092 0.41019
 C1095 C 0.81110 0.77124 0.36008
 C1096 C 0.80253 0.74298 0.35678
 C1097 C 0.78960 0.72856 0.37971
 C1098 C 0.78493 0.74235 0.40606
 H1099 H 0.81997 0.78170 0.34118
 H1100 H 0.80561 0.73232 0.33617
 H1101 H 0.78272 0.70670 0.37692
 H1102 H 0.77412 0.73048 0.42286
 H1103 H 0.81473 0.85068 0.41938
 H1104 H 0.79033 0.82587 0.45875
 C1105 C 0.65873 0.32349 0.58069
 C1106 C 0.67387 0.33115 0.60644
 C1107 C 0.70313 0.32609 0.60821
 C1108 C 0.71722 0.31247 0.58573
 C1109 C 0.70249 0.30325 0.56081
 C1110 C 0.67309 0.30920 0.55778
 C1111 C 0.62992 0.33067 0.57670
 C1112 C 0.61529 0.32318 0.55126
 C1113 C 0.62918 0.30895 0.52906
 C1114 C 0.65784 0.30223 0.53206
 H1115 H 0.61871 0.34284 0.59272
 H1116 H 0.59318 0.32883 0.54859
 H1117 H 0.61782 0.30352 0.50919
 H1118 H 0.66793 0.29209 0.51380
 H1119 H 0.71510 0.33203 0.62758
 H1120 H 0.73971 0.30826 0.58826
 C1121 C 0.69671 0.84197 1.08153
 C1122 C 0.68519 0.82604 1.10503
 C1123 C 0.68567 0.79636 1.10414
 C1124 C 0.69868 0.78229 1.08135
 C1125 C 0.71156 0.79741 1.05855
 C1126 C 0.70969 0.82751 1.05785
 C1127 C 0.69466 0.87185 1.08048
 C1128 C 0.70506 0.88714 1.05668
 C1129 C 0.71724 0.87304 1.03334
 C1130 C 0.71939 0.84354 1.03370
 H1131 H 0.68452 0.88365 1.09765
 H1132 H 0.70325 0.91003 1.05613
 H1133 H 0.72476 0.88500 1.01466
 H1134 H 0.72798 0.83356 1.01453
 H1135 H 0.67651 0.78390 1.12172
 H1136 H 0.69936 0.75933 1.08201
 C1137 C 0.21730 0.30273 1.11814
 C1138 C 0.18818 0.31051 1.11689
 C1139 C 0.17227 0.30433 1.09167
 C1140 C 0.18478 0.29177 1.06756
 C1141 C 0.21370 0.28519 1.06774
 C1142 C 0.23020 0.29022 1.09327
 C1143 C 0.23361 0.30591 1.14390
 C1144 C 0.26203 0.29790 1.14497
 C1145 C 0.27470 0.28606 1.12061
 C1146 C 0.25898 0.28199 1.09506
 H1147 H 0.22446 0.31377 1.16367
 H1148 H 0.27417 0.30053 1.16494
 H1149 H 0.29669 0.27957 1.12166
 H1150 H 0.26953 0.27190 1.07705
 H1151 H 0.14997 0.30977 1.09040
 H1152 H 0.17187 0.28759 1.04834
 C1153 C 0.20699 0.79022 0.61428
 C1154 C 0.19153 0.81537 0.60909
 C1155 C 0.19133 0.82742 0.58114
 C1156 C 0.20524 0.81435 0.55811
 C1157 C 0.21934 0.78866 0.56235
 C1158 C 0.22047 0.77640 0.59060
 C1159 C 0.21022 0.77905 0.64268
 C1160 C 0.22515 0.75406 0.64745
 C1161 C 0.23759 0.74005 0.62418
 C1162 C 0.23553 0.75118 0.59605
 H1163 H 0.20193 0.78993 0.66147
 H1164 H 0.22732 0.74568 0.66934
 H1165 H 0.24929 0.72073 0.62800
 H1166 H 0.24607 0.74008 0.57874
 H1167 H 0.17996 0.84692 0.57704
 H1168 H 0.20461 0.82409 0.53668
 C1169 C 0.34762 0.69515 0.58407
 C1170 C 0.33032 0.67950 0.60396
 C1171 C 0.30081 0.67898 0.59978
 C1172 C 0.28820 0.69408 0.57730
 C1173 C 0.30432 0.71121 0.55840
 C1174 C 0.33453 0.71195 0.56174
 C1175 C 0.37764 0.69367 0.58506
 C1176 C 0.39441 0.70973 0.56613
 C1177 C 0.38178 0.72712 0.54545
 C1178 C 0.35226 0.72804 0.54297
 H1179 H 0.38865 0.67956 0.59971
 H1180 H 0.41737 0.70848 0.56737
 H1181 H 0.39495 0.73962 0.53086
 H1182 H 0.34400 0.74140 0.52601
 H1183 H 0.28709 0.66707 0.61441
 H1184 H 0.26526 0.69274 0.57514
 C1185 C 0.33972 0.18248 1.07047
 C1186 C 0.32710 0.17623 1.09778
 C1187 C 0.29902 0.18428 1.10295
 C1188 C 0.28369 0.19913 1.08200
 C1189 C 0.29607 0.20673 1.05538
 C1190 C 0.32430 0.19842 1.04930
 C1191 C 0.36681 0.17220 1.06321
 C1192 C 0.37908 0.17868 1.03636
 C1193 C 0.36438 0.19495 1.01602
 C1194 C 0.33715 0.20455 1.02223
 H1195 H 0.37829 0.15836 1.07778
 H1196 H 0.39994 0.17072 1.03116
 H1197 H 0.37391 0.19974 0.99512
 H1198 H 0.32621 0.21643 1.00552
 H1199 H 0.28900 0.17939 1.12361
 H1200 H 0.26205 0.20517 1.08680
 C1201 C 0.78690 0.68958 1.11540
 C1202 C 0.81674 0.68564 1.11481
 C1203 C 0.83264 0.69671 1.09163
 C1204 C 0.81938 0.71051 1.06848
 C1205 C 0.78980 0.71380 1.06786
 C1206 C 0.77329 0.70392 1.09182
 C1207 C 0.77041 0.68057 1.13947
 C1208 C 0.74124 0.68536 1.14023
 C1209 C 0.72799 0.69957 1.11740
 C1210 C 0.74376 0.70897 1.09354
 H1211 H 0.77985 0.67029 1.15820
 H1212 H 0.72893 0.67838 1.15885
 H1213 H 0.70540 0.70366 1.11833
 H1214 H 0.73254 0.72071 1.07697
 H1215 H 0.85551 0.69420 1.09121
 H1216 H 0.83231 0.71829 1.05061
 C1217 C 0.78822 0.21021 0.61922
 C1218 C 0.81282 0.19409 0.61354
 C1219 C 0.82340 0.19272 0.58512
 C1220 C 0.80938 0.20614 0.56214
 C1221 C 0.78423 0.22093 0.56699
 C1222 C 0.77344 0.22323 0.59565
 C1223 C 0.77848 0.21444 0.64792
 C1224 C 0.75400 0.23001 0.65315
 C1225 C 0.73904 0.24200 0.63001
 C1226 C 0.74866 0.23882 0.60152
 H1227 H 0.79005 0.20636 0.66655
 H1228 H 0.74674 0.23298 0.67528
 H1229 H 0.72010 0.25414 0.63418
 H1230 H 0.73668 0.24887 0.58425
 H1231 H 0.84242 0.18077 0.58062
 H1232 H 0.81796 0.20463 0.54033
 C1233 C 0.65805 0.69238 0.41189
 C1234 C 0.67525 0.68075 0.38958
 C1235 C 0.70487 0.68108 0.39319
 C1236 C 0.71763 0.69388 0.41725
 C1237 C 0.70147 0.70765 0.43839
 C1238 C 0.67125 0.70654 0.43613
 C1239 C 0.62808 0.68933 0.41137
 C1240 C 0.61146 0.70111 0.43316
 C1241 C 0.62424 0.71561 0.45621
 C1242 C 0.65376 0.71807 0.45791
 H1243 H 0.61709 0.67712 0.39481
 H1244 H 0.58854 0.69863 0.43236
 H1245 H 0.61122 0.72453 0.47319
 H1246 H 0.66249 0.72863 0.47673
 H1247 H 0.71850 0.67196 0.37681
 H1248 H 0.74060 0.69366 0.41882
 C1249 C 0.71488 0.18965 -0.11523
 C1250 C 0.68615 0.18055 -0.11243
 C1251 C 0.67136 0.18638 -0.08679
 C1252 C 0.68484 0.19996 -0.06350
 C1253 C 0.71352 0.20811 -0.06517
 C1254 C 0.72869 0.20364 -0.09142
 C1255 C 0.72986 0.18616 -0.14158
 C1256 C 0.75776 0.19614 -0.14437
 C1257 C 0.77119 0.20996 -0.12120
 C1258 C 0.75689 0.21378 -0.09500
 H1259 H 0.72006 0.17628 -0.16045
 H1260 H 0.76891 0.19345 -0.16474
 H1261 H 0.79272 0.21801 -0.12363
 H1262 H 0.76801 0.22528 -0.07797
 H1263 H 0.64928 0.17987 -0.08459
 H1264 H 0.67289 0.20373 -0.04377
 C1265 C 0.15507 0.67983 -0.08481
 C1266 C 0.17270 0.66814 -0.10670
 C1267 C 0.20221 0.66790 -0.10223
 C1268 C 0.21454 0.68117 -0.07817
 C1269 C 0.19790 0.69562 -0.05794
 C1270 C 0.16780 0.69388 -0.06032
 C1271 C 0.12512 0.67717 -0.08619
 C1272 C 0.10813 0.68867 -0.06452
 C1273 C 0.12052 0.70249 -0.04078
 C1274 C 0.15003 0.70487 -0.03843
 H1275 H 0.11451 0.66545 -0.10342
 H1276 H 0.08521 0.68641 -0.06590
 H1277 H 0.10720 0.71096 -0.02379
 H1278 H 0.15860 0.71463 -0.01891
 H1279 H 0.21612 0.65867 -0.11829
 H1280 H 0.23752 0.68141 -0.07626
 C1281 C 0.16142 0.18153 0.41696
 C1282 C 0.17782 0.17238 0.39285
 C1283 C 0.20750 0.17527 0.39412
 C1284 C 0.22091 0.18844 0.41762
 C1285 C 0.20522 0.19979 0.44053
 C1286 C 0.17524 0.19562 0.44082
 C1287 C 0.13184 0.17602 0.41857
 C1288 C 0.11614 0.18497 0.44246
 C1289 C 0.12957 0.19897 0.46549
 C1290 C 0.15882 0.20400 0.46488
 H1291 H 0.12057 0.16402 0.40201
 H1292 H 0.09350 0.18058 0.44334
 H1293 H 0.11733 0.20547 0.48419
 H1294 H 0.16849 0.21377 0.48374
 H1295 H 0.22055 0.16804 0.37628
 H1296 H 0.24382 0.19050 0.41738
 C1297 C 0.33905 0.41106 0.69575
 C1298 C 0.32179 0.38987 0.68209
 C1299 C 0.29227 0.39328 0.68126
 C1300 C 0.27958 0.41630 0.69451
 C1301 C 0.29574 0.43679 0.70960
 C1302 C 0.32598 0.43434 0.71033
 C1303 C 0.36907 0.41019 0.69444
 C1304 C 0.38587 0.43060 0.70846
 C1305 C 0.37327 0.45256 0.72359
 C1306 C 0.34375 0.45470 0.72431
 H1307 H 0.37999 0.39432 0.68195
 H1308 H 0.40883 0.42952 0.70732
 H1309 H 0.38646 0.46846 0.73429
 H1310 H 0.33554 0.47281 0.73559
 H1311 H 0.27863 0.37748 0.67094
 H1312 H 0.25659 0.41759 0.69364
 C1313 C 0.33655 0.92030 0.17958
 C1314 C 0.32035 0.89514 0.17434
 C1315 C 0.29189 0.89374 0.18310
 C1316 C 0.27951 0.91633 0.19752
 C1317 C 0.29517 0.94109 0.20372
 C1318 C 0.32381 0.94346 0.19443
 C1319 C 0.36471 0.92351 0.16935
 C1320 C 0.38004 0.94863 0.17407
 C1321 C 0.36758 0.97118 0.18854
 C1322 C 0.33968 0.96876 0.19844
 H1323 H 0.37497 0.90703 0.15706
 H1324 H 0.40158 0.95078 0.16607
 H1325 H 0.37947 0.99077 0.19171
 H1326 H 0.33048 0.98701 0.20868
 H1327 H 0.27919 0.87474 0.17918
 H1328 H 0.25751 0.91433 0.20426
 C1329 C 0.83324 0.41719 0.19056
 C1330 C 0.81748 0.39164 0.18595
 C1331 C 0.78853 0.39056 0.19304
 C1332 C 0.77530 0.41377 0.20555
 C1333 C 0.79060 0.43879 0.21145
 C1334 C 0.81965 0.44093 0.20347
 C1335 C 0.86183 0.42019 0.18153
 C1336 C 0.87677 0.44565 0.18571
 C1337 C 0.86349 0.46875 0.19835
 C1338 C 0.83516 0.46657 0.20691
 H1339 H 0.87279 0.40330 0.17058
 H1340 H 0.89865 0.44759 0.17867
 H1341 H 0.87507 0.48859 0.20112
 H1342 H 0.82536 0.48528 0.21558
 H1343 H 0.77611 0.37133 0.18934
 H1344 H 0.75299 0.41200 0.21118
 C1345 C 0.83815 0.92252 0.68340
 C1346 C 0.82159 0.89865 0.67424
 C1347 C 0.79192 0.89954 0.67664
 C1348 C 0.77866 0.92248 0.68955
 C1349 C 0.79455 0.94541 0.70065
 C1350 C 0.82451 0.94607 0.69680
 C1351 C 0.86781 0.92399 0.67874
 C1352 C 0.88371 0.94768 0.68758
 C1353 C 0.87044 0.97054 0.70069
 C1354 C 0.84113 0.96997 0.70506
 H1355 H 0.87894 0.90732 0.66759
 H1356 H 0.90642 0.94848 0.68382
 H1357 H 0.88288 0.98903 0.70709
 H1358 H 0.83168 0.98870 0.71428
 H1359 H 0.77881 0.88171 0.66959
 H1360 H 0.75575 0.92170 0.69202
 C1361 C 0.71675 0.61656 0.69856
 C1362 C 0.68702 0.61475 0.69319
 C1363 C 0.67180 0.59042 0.70181
 C1364 C 0.68566 0.56743 0.71436
 C1365 C 0.71515 0.56812 0.71873
 C1366 C 0.73093 0.59309 0.71156
 C1367 C 0.73253 0.64160 0.69239
 C1368 C 0.76157 0.64337 0.69854
 C1369 C 0.77537 0.62056 0.71140
 C1370 C 0.76030 0.59574 0.71809
 H1371 H 0.72261 0.66027 0.68339
 H1372 H 0.77333 0.66271 0.69371
 H1373 H 0.79783 0.62224 0.71658
 H1374 H 0.77185 0.57906 0.72894
 H1375 H 0.64902 0.58896 0.69819
 H1376 H 0.67331 0.54870 0.72021
 C1377 C 0.68489 0.07793 0.16902
 C1378 C 0.67762 0.10271 0.18486
 C1379 C 0.68256 0.10354 0.21502
 C1380 C 0.69612 0.08134 0.22926
 C1381 C 0.70539 0.05765 0.21380
 C1382 C 0.69918 0.05535 0.18359
 C1383 C 0.67753 0.07460 0.13928
 C1384 C 0.68483 0.05015 0.12411
 C1385 C 0.69911 0.02835 0.13824
 C1386 C 0.70605 0.03070 0.16774
 H1387 H 0.66543 0.09036 0.12760
 H1388 H 0.67903 0.04795 0.10133
 H1389 H 0.70444 0.00929 0.12640
 H1390 H 0.71627 0.01281 0.17803
 H1391 H 0.67691 0.12209 0.22757
 H1392 H 0.70049 0.08324 0.25242
 C1393 C 0.21285 0.61065 0.19994
 C1394 C 0.18361 0.60774 0.19237
 C1395 C 0.16941 0.58195 0.19784
 C1396 C 0.18381 0.55883 0.20957
 C1397 C 0.21291 0.56073 0.21606
 C1398 C 0.22764 0.58693 0.21175
 C1399 C 0.22746 0.63697 0.19728
 C1400 C 0.25597 0.63971 0.20543
 C1401 C 0.27042 0.61657 0.21678
 C1402 C 0.25647 0.59050 0.22012
 H1403 H 0.21697 0.65587 0.18961
 H1404 H 0.26681 0.66002 0.20328
 H1405 H 0.29247 0.61893 0.22341
 H1406 H 0.26846 0.57348 0.22979
 H1407 H 0.14700 0.57955 0.19258
 H1408 H 0.17219 0.53916 0.21333
 C1409 C 0.18244 0.07874 0.67044
 C1410 C 0.17699 0.10340 0.68724
 C1411 C 0.18455 0.10373 0.71687
 C1412 C 0.19867 0.08099 0.72957
 C1413 C 0.20589 0.05723 0.71306
 C1414 C 0.19721 0.05556 0.68343
 C1415 C 0.17271 0.07609 0.64134
 C1416 C 0.17802 0.05166 0.62525
 C1417 C 0.19266 0.02922 0.63784
 C1418 C 0.20201 0.03095 0.66669
 H1419 H 0.16027 0.09241 0.63091
 H1420 H 0.17040 0.04997 0.60298
 H1421 H 0.19642 0.01018 0.62532
 H1422 H 0.21248 0.01262 0.67579
 H1423 H 0.18034 0.12220 0.73013
 H1424 H 0.20483 0.08236 0.75235
 C1425 C 0.34018 0.58169 0.31265
 C1426 C 0.32479 0.60691 0.31762
 C1427 C 0.29542 0.60719 0.31228
 C1428 C 0.28140 0.58346 0.30081
 C1429 C 0.29629 0.55870 0.29447
 C1430 C 0.32576 0.55738 0.30107
 C1431 C 0.36936 0.57970 0.31989
 C1432 C 0.38399 0.55451 0.31551
 C1433 C 0.36983 0.53076 0.30437
 C1434 C 0.34097 0.53206 0.29742
 H1435 H 0.38106 0.59725 0.32954
 H1436 H 0.40632 0.55329 0.32121
 H1437 H 0.38117 0.51112 0.30151
 H1438 H 0.33047 0.51296 0.28993
 H1439 H 0.28336 0.62622 0.31631
 H1440 H 0.25885 0.58474 0.29601
 C1441 C 0.33694 0.07575 0.81680
 C1442 C 0.32182 0.10088 0.82318
 C1443 C 0.29265 0.10197 0.81669
 C1444 C 0.27870 0.07944 0.80298
 C1445 C 0.29344 0.05509 0.79502
 C1446 C 0.32268 0.05278 0.80236
 C1447 C 0.36555 0.07240 0.82546
 C1448 C 0.38008 0.04754 0.81921
 C1449 C 0.36626 0.02529 0.80481
 C1450 C 0.33777 0.02770 0.79669
 H1451 H 0.37668 0.08849 0.83788
 H1452 H 0.40204 0.04535 0.82600
 H1453 H 0.37753 0.00588 0.80037
 H1454 H 0.32756 0.00957 0.78658
 H1455 H 0.28059 0.12079 0.82159
 H1456 H 0.25629 0.08140 0.79774
 C1457 C 0.84269 0.58071 0.81892
 C1458 C 0.82824 0.60638 0.82452
 C1459 C 0.79948 0.60859 0.81681
 C1460 C 0.78518 0.58633 0.80295
 C1461 C 0.79919 0.56115 0.79624
 C1462 C 0.82810 0.55798 0.80445
 C1463 C 0.87092 0.57661 0.82848
 C1464 C 0.88479 0.55117 0.82311
 C1465 C 0.87063 0.52911 0.80872
 C1466 C 0.84247 0.53231 0.79973
 H1467 H 0.88221 0.59263 0.84088
 H1468 H 0.90648 0.54840 0.83055
 H1469 H 0.88136 0.50926 0.80497
 H1470 H 0.83191 0.51437 0.78964
 H1471 H 0.78806 0.62795 0.82118
 H1472 H 0.76303 0.58896 0.79695
 C1473 C 0.82918 0.08567 0.32747
 C1474 C 0.81615 0.11260 0.32611
 C1475 C 0.78939 0.11522 0.31283
 C1476 C 0.77603 0.09192 0.29974
 C1477 C 0.78904 0.06538 0.29966
 C1478 C 0.81547 0.06185 0.31413
 C1479 C 0.85504 0.08165 0.34265
 C1480 C 0.86736 0.05490 0.34414
 C1481 C 0.85394 0.03162 0.33110
 C1482 C 0.82812 0.03495 0.31642
 H1483 H 0.86555 0.09892 0.35404
 H1484 H 0.88719 0.05213 0.35587
 H1485 H 0.86335 0.01082 0.33277
 H1486 H 0.81780 0.01628 0.30748
 H1487 H 0.77904 0.13564 0.31203
 H1488 H 0.75564 0.09474 0.28902
 C1489 C 0.65845 0.42766 0.31139
 C1490 C 0.67325 0.40317 0.32101
 C1491 C 0.70276 0.40194 0.31714
 C1492 C 0.71752 0.42365 0.30311
 C1493 C 0.70336 0.44737 0.29220
 C1494 C 0.67365 0.44989 0.29670
 C1495 C 0.62919 0.43115 0.31699
 C1496 C 0.61511 0.45548 0.30773
 C1497 C 0.62988 0.47701 0.29326
 C1498 C 0.65889 0.47446 0.28797
 H1499 H 0.61698 0.41562 0.32913
 H1500 H 0.59268 0.45783 0.31220
 H1501 H 0.61888 0.49599 0.28648
 H1502 H 0.66962 0.49217 0.27756
 H1503 H 0.71455 0.38360 0.32444
 H1504 H 0.74023 0.42149 0.30002
 C1505 C 0.66729 0.92179 0.81162
 C1506 C 0.68191 0.89636 0.81824
 C1507 C 0.71063 0.89399 0.81074
 C1508 C 0.72471 0.91574 0.79591
 C1509 C 0.71049 0.94052 0.78802
 C1510 C 0.68170 0.94405 0.79630
 C1511 C 0.63907 0.92616 0.82092
 C1512 C 0.62523 0.95150 0.81478
 C1513 C 0.63925 0.97315 0.79977
 C1514 C 0.66724 0.96967 0.79079
 H1515 H 0.62757 0.91045 0.83355
 H1516 H 0.60362 0.95451 0.82207
 H1517 H 0.62851 0.99293 0.79542
 H1518 H 0.67746 0.98746 0.78004
 H1519 H 0.72219 0.87486 0.81601
 H1520 H 0.74681 0.91299 0.79007
 C1521 C 0.21085 0.38865 0.81064
 C1522 C 0.18222 0.39267 0.81945
 C1523 C 0.16883 0.41835 0.81285
 C1524 C 0.18333 0.44018 0.79854
 C1525 C 0.21180 0.43718 0.79064
 C1526 C 0.22584 0.41127 0.79647
 C1527 C 0.22458 0.36231 0.81428
 C1528 C 0.25256 0.35871 0.80523
 C1529 C 0.26730 0.38094 0.79194
 C1530 C 0.25412 0.40691 0.78735
 H1531 H 0.21384 0.34399 0.82340
 H1532 H 0.26274 0.33841 0.80823
 H1533 H 0.28894 0.37793 0.78472
 H1534 H 0.26620 0.42326 0.77622
 H1535 H 0.14690 0.42161 0.81901
 H1536 H 0.17229 0.45973 0.79376
 C1537 C 0.21640 0.88916 0.30283
 C1538 C 0.18825 0.89208 0.31335
 C1539 C 0.17376 0.91748 0.30836
 C1540 C 0.18708 0.94037 0.29445
 C1541 C 0.21533 0.93857 0.28531
 C1542 C 0.23014 0.91269 0.28897
 C1543 C 0.23087 0.86306 0.30470
 C1544 C 0.25837 0.86043 0.29394
 C1545 C 0.27191 0.88350 0.28080
 C1546 C 0.25799 0.90932 0.27816
 H1547 H 0.22098 0.84421 0.31378
 H1548 H 0.26912 0.84029 0.29553
 H1549 H 0.29317 0.88127 0.27224
 H1550 H 0.26915 0.92634 0.26715
 H1551 H 0.15209 0.91980 0.31581
 H1552 H 0.17543 0.95986 0.29132
 C1553 C 0.38525 0.28041 0.69926
 C1554 C 0.38697 0.30918 0.69004
 C1555 C 0.41208 0.32483 0.69522
 C1556 C 0.43576 0.31216 0.70795
 C1557 C 0.43509 0.28341 0.71569
 C1558 C 0.40957 0.26734 0.71190
 C1559 C 0.35958 0.26463 0.69729
 C1560 C 0.35802 0.23648 0.70665
 C1561 C 0.38184 0.22359 0.71859
 C1562 C 0.40732 0.23881 0.72140
 H1563 H 0.34030 0.27404 0.68934
 H1564 H 0.33813 0.22475 0.70496
 H1565 H 0.38048 0.20181 0.72613
 H1566 H 0.42493 0.22806 0.73157
 H1567 H 0.41360 0.34693 0.68872
 H1568 H 0.45500 0.32471 0.71112
 C1569 C 0.41600 0.81247 0.15188
 C1570 C 0.39351 0.82193 0.16974
 C1571 C 0.39566 0.81899 0.20005
 C1572 C 0.41886 0.80574 0.21280
 C1573 C 0.44083 0.79495 0.19575
 C1574 C 0.43990 0.79890 0.16497
 C1575 C 0.41579 0.81714 0.12142
 C1576 C 0.43831 0.80832 0.10418
 C1577 C 0.46162 0.79518 0.11689
 C1578 C 0.46259 0.79071 0.14694
 H1579 H 0.39866 0.82819 0.11065
 H1580 H 0.43786 0.81209 0.08089
 H1581 H 0.47925 0.78877 0.10345
 H1582 H 0.48153 0.78141 0.15577
 H1583 H 0.37877 0.82634 0.21401
 H1584 H 0.41923 0.80320 0.23630
 C1585 C 0.91647 0.31237 0.16794
 C1586 C 0.89327 0.32057 0.18555
 C1587 C 0.89518 0.31745 0.21589
 C1588 C 0.91863 0.30463 0.22879
 C1589 C 0.94096 0.29460 0.21177
 C1590 C 0.94057 0.29935 0.18118
 C1591 C 0.91668 0.31760 0.13758
 C1592 C 0.93985 0.30989 0.12066
 C1593 C 0.96340 0.29731 0.13358
 C1594 C 0.96396 0.29225 0.16354
 H1595 H 0.89935 0.32824 0.12670
 H1596 H 0.93971 0.31408 0.09743
 H1597 H 0.98151 0.29178 0.12037
 H1598 H 0.98315 0.28340 0.17270
 H1599 H 0.87781 0.32397 0.22967
 H1600 H 0.91875 0.30143 0.25220
 C1601 C 0.88551 0.79644 0.70292
 C1602 C 0.88997 0.82110 0.68572
 C1603 C 0.91753 0.83228 0.68259
 C1604 C 0.94079 0.81866 0.69517
 C1605 C 0.93707 0.79327 0.71072
 C1606 C 0.90928 0.78201 0.71492
 C1607 C 0.85784 0.78618 0.70902
 C1608 C 0.85371 0.76151 0.72541
 C1609 C 0.87698 0.74685 0.73636
 C1610 C 0.90451 0.75700 0.73134
 H1611 H 0.83922 0.79754 0.70183
 H1612 H 0.83235 0.75386 0.72982
 H1613 H 0.87369 0.72774 0.74913
 H1614 H 0.92192 0.74521 0.74061
 H1615 H 0.92111 0.85133 0.66976
 H1616 H 0.96193 0.82759 0.69217
 C1617 C 0.57487 0.31773 0.33790
 C1618 C 0.59764 0.32968 0.32155
 C1619 C 0.59695 0.32788 0.29110
 C1620 C 0.57534 0.31300 0.27682
 C1621 C 0.55356 0.29935 0.29242
 C1622 C 0.55255 0.30251 0.32321
 C1623 C 0.57325 0.32136 0.36842
 C1624 C 0.55049 0.31002 0.38413
 C1625 C 0.52867 0.29537 0.36982
 C1626 C 0.52944 0.29182 0.33966
 H1627 H 0.58907 0.33354 0.38038
 H1628 H 0.54954 0.31303 0.40750
 H1629 H 0.51081 0.28706 0.38210
 H1630 H 0.51140 0.28133 0.32949
 H1631 H 0.61399 0.33709 0.27821
 H1632 H 0.57629 0.31128 0.25329
 C1633 C 0.58057 0.81760 0.84362
 C1634 C 0.60389 0.82603 0.82588
 C1635 C 0.60228 0.82150 0.79573
 C1636 C 0.57909 0.80736 0.78325
 C1637 C 0.55668 0.79712 0.80046
 C1638 C 0.55684 0.80287 0.83084
 C1639 C 0.57977 0.82435 0.87356
 C1640 C 0.55672 0.81614 0.89073
 C1641 C 0.53373 0.80160 0.87834
 C1642 C 0.53354 0.79524 0.84866
 H1643 H 0.59645 0.83673 0.88381
 H1644 H 0.55649 0.82149 0.91367
 H1645 H 0.51570 0.79565 0.89170
 H1646 H 0.51470 0.78496 0.83985
 H1647 H 0.61967 0.82806 0.78174
 H1648 H 0.57923 0.80337 0.75998
 C1649 C 0.07308 0.32134 0.84109
 C1650 C 0.09614 0.33260 0.82463
 C1651 C 0.09524 0.33066 0.79417
 C1652 C 0.07348 0.31581 0.78011
 C1653 C 0.05184 0.30219 0.79593
 C1654 C 0.05072 0.30599 0.82662
 C1655 C 0.07134 0.32563 0.87150
 C1656 C 0.04848 0.31470 0.88736
 C1657 C 0.02666 0.29983 0.87327
 C1658 C 0.02753 0.29569 0.84319
 H1659 H 0.08712 0.33810 0.88321
 H1660 H 0.04744 0.31822 0.91065
 H1661 H 0.00873 0.29183 0.88565
 H1662 H 0.00949 0.28505 0.83315
 H1663 H 0.11244 0.33926 0.78109
 H1664 H 0.07439 0.31383 0.75661
 C1665 C 0.08442 0.81677 0.33957
 C1666 C 0.10768 0.82505 0.32175
 C1667 C 0.10650 0.81967 0.29176
 C1668 C 0.08361 0.80492 0.27948
 C1669 C 0.06105 0.79509 0.29674
 C1670 C 0.06080 0.80178 0.32694
 C1671 C 0.08366 0.82387 0.36946
 C1672 C 0.06040 0.81620 0.38659
 C1673 C 0.03728 0.80183 0.37427
 C1674 C 0.03725 0.79487 0.34473
 H1675 H 0.10063 0.83597 0.37976
 H1676 H 0.06012 0.82185 0.40946
 H1677 H 0.01907 0.79637 0.38759
 H1678 H 0.01832 0.78467 0.33605
 H1679 H 0.12403 0.82593 0.27781
 H1680 H 0.08397 0.80037 0.25633
 C1681 C 0.58560 0.66526 0.70342
 C1682 C 0.60826 0.68242 0.69261
 C1683 C 0.60678 0.71199 0.69494
 C1684 C 0.58399 0.72474 0.70874
 C1685 C 0.56189 0.70838 0.72078
 C1686 C 0.56231 0.67832 0.71777
 C1687 C 0.58494 0.63551 0.69922
 C1688 C 0.56241 0.61895 0.70960
 C1689 C 0.53986 0.63162 0.72378
 C1690 C 0.53959 0.66097 0.72757
 H1691 H 0.60132 0.62471 0.68733
 H1692 H 0.56227 0.59620 0.70626
 H1693 H 0.52228 0.61867 0.73148
 H1694 H 0.52115 0.66980 0.73772
 H1695 H 0.62374 0.72539 0.68647
 H1696 H 0.58389 0.74769 0.71052
 C1697 C 0.61630 0.21518 0.19037
 C1698 C 0.61431 0.18526 0.18648
 C1699 C 0.59010 0.17058 0.19620
 C1700 C 0.56752 0.18496 0.20853
 C1701 C 0.56830 0.21455 0.21148
 C1702 C 0.59302 0.22996 0.20286
 C1703 C 0.64132 0.23062 0.18329
 C1704 C 0.64313 0.25987 0.18770
 C1705 C 0.62040 0.27427 0.19972
 C1706 C 0.59567 0.25954 0.20748
 H1707 H 0.66000 0.22033 0.17500
 H1708 H 0.66245 0.27137 0.18214
 H1709 H 0.62209 0.29692 0.20346
 H1710 H 0.57903 0.27156 0.21761
 H1711 H 0.58834 0.14775 0.19365
 H1712 H 0.54895 0.17286 0.21535
 C1713 C 0.07882 0.65805 0.20328
 C1714 C 0.10304 0.67384 0.19397
 C1715 C 0.10397 0.70325 0.19840
 C1716 C 0.08166 0.71722 0.21145
 C1717 C 0.05753 0.70235 0.22094
 C1718 C 0.05579 0.67246 0.21688
 C1719 C 0.07644 0.62853 0.19849
 C1720 C 0.05219 0.61345 0.20713
 C1721 C 0.02974 0.62745 0.22024
 C1722 C 0.03133 0.65668 0.22492
 H1723 H 0.09302 0.61688 0.18774
 H1724 H 0.05066 0.59079 0.20333
 H1725 H 0.01084 0.61564 0.22654
 H1726 H 0.01304 0.66672 0.23443
 H1727 H 0.12240 0.71568 0.19205
 H1728 H 0.08347 0.74000 0.21455
 C1729 C 0.11515 0.21521 0.69926
 C1730 C 0.11319 0.18543 0.69465
 C1731 C 0.08878 0.17056 0.70362
 C1732 C 0.06584 0.18479 0.71553
 C1733 C 0.06652 0.21437 0.71877
 C1734 C 0.09160 0.22982 0.71136
 C1735 C 0.14038 0.23068 0.69309
 C1736 C 0.14220 0.25982 0.69819
 C1737 C 0.11923 0.27406 0.70993
 C1738 C 0.09424 0.25929 0.71667
 H1739 H 0.15918 0.22043 0.68499
 H1740 H 0.16169 0.27135 0.69338
 H1741 H 0.12090 0.29663 0.71422
 H1742 H 0.07738 0.27115 0.72658
 H1743 H 0.08704 0.14780 0.70045
 H1744 H 0.04703 0.17265 0.72156
 C1745 C 0.42590 0.68419 0.32349
 C1746 C 0.39893 0.68089 0.30983
 C1747 C 0.39514 0.69016 0.28106
 C1748 C 0.41708 0.70402 0.26628
 C1749 C 0.44334 0.70918 0.27996
 C1750 C 0.44823 0.69874 0.30855
 C1751 C 0.43144 0.67254 0.35129
 C1752 C 0.45810 0.67587 0.36445
 C1753 C 0.47981 0.69043 0.35004
 C1754 C 0.47510 0.70165 0.32229
 H1755 H 0.41552 0.66013 0.36268
 H1756 H 0.46202 0.66681 0.38580
 H1757 H 0.50054 0.69271 0.36025
 H1758 H 0.49279 0.71212 0.31159
 H1759 H 0.37474 0.68735 0.27024
 H1760 H 0.41324 0.71162 0.24430
 C1761 C 0.42235 0.16117 0.81907
 C1762 C 0.39631 0.17575 0.82226
 C1763 C 0.39430 0.20379 0.81229
 C1764 C 0.41710 0.21716 0.79853
 C1765 C 0.44262 0.20289 0.79404
 C1766 C 0.44560 0.17479 0.80457
 C1767 C 0.42628 0.13387 0.83104
 C1768 C 0.45206 0.11990 0.82794
 C1769 C 0.47459 0.13306 0.81346
 C1770 C 0.47156 0.16036 0.80211
 H1771 H 0.40986 0.12350 0.84362
 H1772 H 0.45471 0.09894 0.83723
 H1773 H 0.49468 0.12228 0.81149
 H1774 H 0.48979 0.17030 0.79199
 H1775 H 0.37467 0.21534 0.81471
 H1776 H 0.41463 0.23878 0.79083
 C1777 C 0.92715 0.66665 0.81689
 C1778 C 0.90236 0.68139 0.82521
 C1779 C 0.90060 0.71059 0.81958
 C1780 C 0.92208 0.72491 0.80458
 C1781 C 0.94585 0.71045 0.79440
 C1782 C 0.94891 0.68119 0.80101
 C1783 C 0.93133 0.63806 0.82491
 C1784 C 0.95574 0.62376 0.81659
 C1785 C 0.97674 0.63778 0.80065
 C1786 C 0.97358 0.66627 0.79313
 H1787 H 0.91627 0.62681 0.83843
 H1788 H 0.95856 0.60181 0.82290
 H1789 H 0.99581 0.62668 0.79452
 H1790 H 0.99088 0.67651 0.78164
 H1791 H 0.88198 0.72228 0.82607
 H1792 H 0.91960 0.74732 0.79993
 C1793 C 0.91709 0.16756 0.31777
 C1794 C 0.89328 0.18431 0.32530
 C1795 C 0.89384 0.21344 0.31896
 C1796 C 0.91664 0.22585 0.30429
 C1797 C 0.93965 0.20957 0.29524
 C1798 C 0.94035 0.18027 0.30242
 C1799 C 0.91890 0.13875 0.32610
 C1800 C 0.94248 0.12265 0.31877
 C1801 C 0.96499 0.13499 0.30358
 C1802 C 0.96414 0.16357 0.29572
 H1803 H 0.90264 0.12858 0.33903
 H1804 H 0.94348 0.10058 0.32532
 H1805 H 0.98342 0.12250 0.29830
 H1806 H 0.98251 0.17252 0.28493
 H1807 H 0.87603 0.22667 0.32464
 H1808 H 0.91596 0.24834 0.29929
 C1809 C 0.29765 0.28500 0.61788
 C1810 C 0.31349 0.31037 0.61319
 C1811 C 0.31508 0.32191 0.58506
 C1812 C 0.30212 0.30812 0.56145
 C1813 C 0.28773 0.28217 0.56530
 C1814 C 0.28529 0.27040 0.59370
 C1815 C 0.29299 0.27433 0.64627
 C1816 C 0.27780 0.24908 0.65065
 C1817 C 0.26654 0.23427 0.62695
 C1818 C 0.27000 0.24487 0.59876
 H1819 H 0.30029 0.28583 0.66529
 H1820 H 0.27452 0.24112 0.67256
 H1821 H 0.25467 0.21472 0.63046
 H1822 H 0.26039 0.23305 0.58109
 H1823 H 0.32675 0.34156 0.58132
 H1824 H 0.30371 0.31752 0.53992
 C1825 C 0.28192 0.80738 0.10995
 C1826 C 0.31024 0.81663 0.10464
 C1827 C 0.32295 0.81048 0.07789
 C1828 C 0.30780 0.79618 0.05607
 C1829 C 0.27948 0.78766 0.06032
 C1830 C 0.26639 0.79282 0.08759
 C1831 C 0.26911 0.81108 0.13747
 C1832 C 0.24165 0.80101 0.14275
 C1833 C 0.22655 0.78679 0.12100
 C1834 C 0.23867 0.78265 0.09369
 H1835 H 0.28029 0.82111 0.15543
 H1836 H 0.23220 0.80387 0.16399
 H1837 H 0.20550 0.77859 0.12555
 H1838 H 0.22637 0.77094 0.07771
 H1839 H 0.34474 0.81703 0.07378
 H1840 H 0.31824 0.79185 0.03558
 C1841 C 0.78358 0.30379 0.11870
 C1842 C 0.81268 0.31204 0.11702
 C1843 C 0.82814 0.30575 0.09189
 C1844 C 0.81505 0.29267 0.06804
 C1845 C 0.78608 0.28546 0.06857
 C1846 C 0.77017 0.29031 0.09430
 C1847 C 0.76779 0.30755 0.14451
 C1848 C 0.73947 0.29861 0.14615
 C1849 C 0.72642 0.28536 0.12243
 C1850 C 0.74156 0.28102 0.09682
 H1851 H 0.77724 0.31678 0.16390
 H1852 H 0.72769 0.30159 0.16610
 H1853 H 0.70455 0.27806 0.12401
 H1854 H 0.73070 0.26979 0.07942
 H1855 H 0.85046 0.31160 0.09046
 H1856 H 0.82756 0.28858 0.04877
 C1857 C 0.80687 0.78576 0.61389
 C1858 C 0.81508 0.81476 0.61068
 C1859 C 0.80846 0.82900 0.58469
 C1860 C 0.79485 0.81493 0.56171
 C1861 C 0.78765 0.78607 0.56381
 C1862 C 0.79339 0.77123 0.59017
 C1863 C 0.81049 0.77116 0.64059
 C1864 C 0.80206 0.74285 0.64364
 C1865 C 0.78936 0.72857 0.62040
 C1866 C 0.78482 0.74258 0.59402
 H1867 H 0.81904 0.78155 0.65961
 H1868 H 0.80505 0.73206 0.66429
 H1869 H 0.78255 0.70666 0.62297
 H1870 H 0.77413 0.73079 0.57701
 H1871 H 0.81418 0.85121 0.58200
 H1872 H 0.79018 0.82664 0.54192
 C1873 C 0.34583 0.69502 0.41271
 C1874 C 0.32898 0.68403 0.38939
 C1875 C 0.29934 0.68629 0.39065
 C1876 C 0.28632 0.69995 0.41373
 C1877 C 0.30238 0.71228 0.43633
 C1878 C 0.33247 0.70950 0.43621
 C1879 C 0.37552 0.69084 0.41397
 C1880 C 0.39183 0.70145 0.43704
 C1881 C 0.37891 0.71586 0.45968
 C1882 C 0.34956 0.71959 0.45952
 H1883 H 0.38638 0.67869 0.39773
 H1884 H 0.41456 0.69808 0.43757
 H1885 H 0.39164 0.72374 0.47774
 H1886 H 0.34053 0.72990 0.47811
 H1887 H 0.28604 0.67773 0.37331
 H1888 H 0.26336 0.70128 0.41360
 C1889 C 0.28516 0.18755 0.88540
 C1890 C 0.31483 0.18284 0.88829
 C1891 C 0.32940 0.19343 0.91273
 C1892 C 0.31496 0.20721 0.93488
 C1893 C 0.28541 0.21057 0.93354
 C1894 C 0.27027 0.20124 0.90836
 C1895 C 0.27014 0.18006 0.85968
 C1896 C 0.24109 0.18497 0.85702
 C1897 C 0.22653 0.19794 0.87953
 C1898 C 0.24090 0.20630 0.90483
 H1899 H 0.28068 0.17111 0.84104
 H1900 H 0.22991 0.17905 0.83719
 H1901 H 0.20407 0.20196 0.87707
 H1902 H 0.22890 0.21726 0.92120
 H1903 H 0.35212 0.19044 0.91503
 H1904 H 0.32697 0.21481 0.95357
 C1905 C 0.84226 0.68902 0.92500
 C1906 C 0.82731 0.68046 0.89943
 C1907 C 0.79795 0.68481 0.89745
 C1908 C 0.78352 0.69872 0.91949
 C1909 C 0.79796 0.70874 0.94426
 C1910 C 0.82744 0.70324 0.94766
 C1911 C 0.87135 0.68284 0.92910
 C1912 C 0.88559 0.69084 0.95461
 C1913 C 0.87113 0.70462 0.97671
 C1914 C 0.84232 0.71059 0.97350
 H1915 H 0.88327 0.67125 0.91307
 H1916 H 0.90787 0.68592 0.95742
 H1917 H 0.88221 0.71037 0.99666
 H1918 H 0.83185 0.72036 0.99175
 H1919 H 0.78616 0.67809 0.87823
 H1920 H 0.76096 0.70247 0.91673
 C1921 C 0.78369 0.20164 0.38905
 C1922 C 0.81258 0.19381 0.39240
 C1923 C 0.82715 0.20062 0.41823
 C1924 C 0.81327 0.21374 0.44122
 C1925 C 0.78435 0.22024 0.43914
 C1926 C 0.76939 0.21480 0.41267
 C1927 C 0.76899 0.19767 0.36235
 C1928 C 0.74081 0.20601 0.35913
 C1929 C 0.72679 0.21867 0.38221
 C1930 C 0.74083 0.22312 0.40869
 H1931 H 0.77923 0.18877 0.34347
 H1932 H 0.72989 0.20292 0.33850
 H1933 H 0.70500 0.22540 0.37949
 H1934 H 0.72919 0.23371 0.42560
 H1935 H 0.84931 0.19507 0.42091
 H1936 H 0.82506 0.21835 0.46107
 C1937 C 0.70629 0.31684 0.38756
 C1938 C 0.67741 0.32457 0.39088
 C1939 C 0.66310 0.31763 0.41664
 C1940 C 0.67724 0.30444 0.43962
 C1941 C 0.70615 0.29799 0.43756
 C1942 C 0.72086 0.30360 0.41118
 C1943 C 0.72071 0.32093 0.36088
 C1944 C 0.74889 0.31268 0.35774
 C1945 C 0.76317 0.29995 0.38086
 C1946 C 0.74939 0.29532 0.40728
 H1947 H 0.71027 0.32985 0.34197
 H1948 H 0.75959 0.31588 0.33714
 H1949 H 0.78495 0.29327 0.37819
 H1950 H 0.76119 0.28463 0.42423
 H1951 H 0.64091 0.32299 0.41921
 H1952 H 0.66564 0.29971 0.45941
 C1953 C 0.67177 0.82139 0.92336
 C1954 C 0.68426 0.82433 0.89545
 C1955 C 0.71179 0.81428 0.89083
 C1956 C 0.72645 0.80016 0.91288
 C1957 C 0.71390 0.79553 0.94008
 C1958 C 0.68657 0.80657 0.94579
 C1959 C 0.64537 0.83374 0.92981
 C1960 C 0.63336 0.83080 0.95740
 C1961 C 0.64759 0.81594 0.97919
 C1962 C 0.67402 0.80406 0.97361
 H1963 H 0.63421 0.84644 0.91393
 H1964 H 0.61308 0.84040 0.96199
 H1965 H 0.63831 0.81395 1.00066
 H1966 H 0.68462 0.79338 0.99141
 H1967 H 0.72177 0.81683 0.86973
 H1968 H 0.74748 0.79211 0.90844
 C1969 C 0.16981 0.28733 0.89625
 C1970 C 0.17423 0.31722 0.89389
 C1971 C 0.19143 0.33109 0.91450
 C1972 C 0.20416 0.31622 0.93717
 C1973 C 0.19975 0.28688 0.94078
 C1974 C 0.18137 0.27220 0.92064
 C1975 C 0.15513 0.27183 0.87426
 C1976 C 0.14916 0.24303 0.87750
 C1977 C 0.15831 0.22876 0.90219
 C1978 C 0.17468 0.24282 0.92319
 H1979 H 0.14869 0.28132 0.85389
 H1980 H 0.13753 0.23167 0.86063
 H1981 H 0.15352 0.20633 0.90465
 H1982 H 0.18159 0.22975 0.94096
 H1983 H 0.19516 0.35380 0.91303
 H1984 H 0.21774 0.32798 0.95217
 C1985 C 0.19420 0.78831 0.38638
 C1986 C 0.18882 0.81781 0.38870
 C1987 C 0.19860 0.83277 0.41319
 C1988 C 0.21262 0.81886 0.43584
 C1989 C 0.21723 0.78955 0.43474
 C1990 C 0.20840 0.77401 0.40962
 C1991 C 0.18687 0.77290 0.36090
 C1992 C 0.19280 0.74409 0.35860
 C1993 C 0.20653 0.73012 0.38128
 C1994 C 0.21447 0.74485 0.40642
 H1995 H 0.17711 0.78294 0.34222
 H1996 H 0.18706 0.73263 0.33894
 H1997 H 0.21142 0.70781 0.37922
 H1998 H 0.22583 0.73313 0.42288
 H1999 H 0.19502 0.85538 0.41498
 H2000 H 0.21964 0.83108 0.45461
 C2001 C 0.65909 0.69389 0.58962
 C2002 C 0.67672 0.68166 0.61153
 C2003 C 0.70620 0.68149 0.60737
 C2004 C 0.71848 0.69421 0.58315
 C2005 C 0.70201 0.70855 0.56239
 C2006 C 0.67185 0.70818 0.56530
 C2007 C 0.62910 0.69132 0.59060
 C2008 C 0.61207 0.70385 0.56934
 C2009 C 0.62441 0.71866 0.54637
 C2010 C 0.65390 0.72059 0.54413
 H2011 H 0.61835 0.67889 0.60706
 H2012 H 0.58914 0.70176 0.57052
 H2013 H 0.61105 0.72826 0.52986
 H2014 H 0.66216 0.73153 0.52539
 H2015 H 0.72016 0.67193 0.62341
 H2016 H 0.74137 0.69344 0.58113
 C2017 C 0.66481 0.18230 0.08142
 C2018 C 0.68117 0.17336 0.10578
 C2019 C 0.71083 0.17607 0.10508
 C2020 C 0.72433 0.18927 0.08171
 C2021 C 0.70858 0.20004 0.05824
 C2022 C 0.67865 0.19561 0.05733
 C2023 C 0.63509 0.17759 0.08010
 C2024 C 0.61937 0.18598 0.05575
 C2025 C 0.63289 0.19875 0.03214
 C2026 C 0.66224 0.20337 0.03271
 H2027 H 0.62379 0.16685 0.09746
 H2028 H 0.59661 0.18217 0.05503
 H2029 H 0.62063 0.20479 0.01310
 H2030 H 0.67187 0.21239 0.01340
 H2031 H 0.72362 0.16908 0.12342
 H2032 H 0.74721 0.19225 0.08262
 C2033 C 0.16947 0.71191 0.11181
 C2034 C 0.17502 0.68270 0.11743
 C2035 C 0.19150 0.66768 0.09754
 C2036 C 0.20225 0.68069 0.07262
 C2037 C 0.19605 0.70900 0.06564
 C2038 C 0.17805 0.72457 0.08479
 C2039 C 0.15656 0.72927 0.13293
 C2040 C 0.14817 0.75675 0.12634
 C2041 C 0.15355 0.76805 0.09899
 C2042 C 0.16887 0.75260 0.07869
 H2043 H 0.15375 0.72238 0.15510
 H2044 H 0.13775 0.76944 0.14267
 H2045 H 0.14688 0.78942 0.09387
 H2046 H 0.17291 0.76352 0.05858
 H2047 H 0.19622 0.64551 0.10128
 H2048 H 0.21552 0.66821 0.05842
 C2049 C 0.15916 0.19182 0.58969
 C2050 C 0.17594 0.17645 0.61007
 C2051 C 0.20502 0.17346 0.60493
 C2052 C 0.21796 0.18662 0.58128
 C2053 C 0.20258 0.20398 0.56206
 C2054 C 0.17259 0.20640 0.56594
 C2055 C 0.12917 0.19224 0.59180
 C2056 C 0.11286 0.20783 0.57222
 C2057 C 0.12589 0.22290 0.54985
 C2058 C 0.15530 0.22207 0.54650
 H2059 H 0.11782 0.17990 0.60795
 H2060 H 0.08993 0.20798 0.57425
 H2061 H 0.11308 0.23493 0.53464
 H2062 H 0.16374 0.23362 0.52823
 H2063 H 0.21820 0.16153 0.61993
 H2064 H 0.24065 0.18395 0.57869
   
