data_POSCAR
  _audit_creation_date              2014-09-24
  _audit_creation_method            'ToBaCCo'
  _symmetry_space_group_name_H-M    'P1'
  _symmetry_Int_Tables_number       1
  _symmetry_cell_setting            triclinic
  loop_
  _symmetry_equiv_pos_as_xyz
 x,y,z
_cell_length_a 62.7318
_cell_length_b 62.7900
_cell_length_c 62.9774
_cell_angle_alpha 89.964400
_cell_angle_beta 89.974300
_cell_angle_gamma 89.923700
loop_
  _atom_site_label
  _atom_site_type_symbol
  _atom_site_fract_x
  _atom_site_fract_y
  _atom_site_fract_z
N1 N 0.37203 0.31289 0.32812
 N2 N 0.37196 0.32791 0.31357
 C3 C 0.38871 0.32496 0.30047
 C4 C 0.39975 0.30715 0.30724
 C5 C 0.38874 0.29985 0.32477
 H6 H 0.39256 0.33490 0.28700
 H7 H 0.39263 0.28608 0.33435
 Cu8 Cu 0.34997 0.34980 0.31344
 Cu9 Cu 0.35066 0.31142 0.35052
 Cu10 Cu 0.31151 0.35048 0.35046
 N11 N 0.32803 0.37174 0.31349
 N12 N 0.31297 0.37181 0.32802
 C13 C 0.29992 0.38849 0.32464
 C14 C 0.30724 0.39949 0.30710
 C15 C 0.32508 0.38846 0.30038
 H16 H 0.28613 0.39238 0.33420
 H17 H 0.33506 0.39231 0.28692
 N18 N 0.31280 0.32758 0.37186
 N19 N 0.32770 0.31271 0.37188
 C20 C 0.32455 0.29972 0.38863
 C21 C 0.30688 0.30681 0.39964
 C22 C 0.29978 0.32444 0.38860
 H23 H 0.33439 0.28616 0.39264
 H24 H 0.28619 0.33426 0.39257
 H25 H 0.32659 0.32643 0.33378
 H26 H 0.34363 0.34350 0.35100
 N27 N 0.37240 0.81302 -0.17240
 N28 N 0.37221 0.82791 -0.18710
 C29 C 0.38893 0.82491 -0.20023
 C30 C 0.40015 0.80724 -0.19330
 C31 C 0.38921 0.80007 -0.17563
 H32 H 0.39270 0.83480 -0.21379
 H33 H 0.39318 0.78645 -0.16588
 Cu34 Cu 0.35009 0.84974 -0.18741
 Cu35 Cu 0.35112 0.81164 -0.14991
 Cu36 Cu 0.31193 0.85065 -0.14999
 N37 N 0.32814 0.87175 -0.18720
 N38 N 0.31322 0.87191 -0.17252
 C39 C 0.30020 0.88865 -0.17581
 C40 C 0.30735 0.89959 -0.19350
 C41 C 0.32509 0.88842 -0.20038
 H42 H 0.28654 0.89259 -0.16608
 H43 H 0.33500 0.89220 -0.21392
 N44 N 0.31332 0.82783 -0.12849
 N45 N 0.32824 0.81297 -0.12848
 C46 C 0.32510 0.79997 -0.11173
 C47 C 0.30743 0.80703 -0.10070
 C48 C 0.30032 0.82466 -0.11175
 H49 H 0.33495 0.78640 -0.10774
 H50 H 0.28670 0.83446 -0.10778
 H51 H 0.32696 0.82649 -0.16661
 H52 H 0.34414 0.84375 -0.14966
 N53 N 0.87140 0.31335 -0.17238
 N54 N 0.87105 0.32808 -0.18724
 C55 C 0.88774 0.32507 -0.20039
 C56 C 0.89908 0.30755 -0.19331
 C57 C 0.88827 0.30049 -0.17556
 H58 H 0.89148 0.33486 -0.21402
 H59 H 0.89244 0.28703 -0.16566
 Cu60 Cu 0.84902 0.34994 -0.18724
 Cu61 Cu 0.85028 0.31211 -0.14970
 Cu62 Cu 0.81114 0.35128 -0.14969
 N63 N 0.82720 0.37200 -0.18722
 N64 N 0.81245 0.37240 -0.17237
 C65 C 0.79961 0.38929 -0.17556
 C66 C 0.80672 0.40008 -0.19334
 C67 C 0.82424 0.38868 -0.20039
 H68 H 0.78615 0.39346 -0.16564
 H69 H 0.83409 0.39235 -0.21401
 N70 N 0.81263 0.32851 -0.12813
 N71 N 0.82753 0.31362 -0.12814
 C72 C 0.82440 0.30064 -0.11139
 C73 C 0.80676 0.30772 -0.10035
 C74 C 0.79965 0.32536 -0.11136
 H75 H 0.83420 0.28702 -0.10745
 H76 H 0.78603 0.33515 -0.10739
 H77 H 0.82596 0.32699 -0.16611
 H78 H 0.84331 0.34428 -0.14939
 N79 N 0.87141 0.81309 0.32758
 N80 N 0.87087 0.82767 0.31257
 C81 C 0.88754 0.82467 0.29938
 C82 C 0.89904 0.80731 0.30657
 C83 C 0.88836 0.80032 0.32443
 H84 H 0.89118 0.83440 0.28568
 H85 H 0.89268 0.78699 0.33444
 Cu86 Cu 0.84880 0.84947 0.31267
 Cu87 Cu 0.85045 0.81188 0.35045
 Cu88 Cu 0.80981 0.84940 0.34873
 N89 N 0.82724 0.87181 0.31290
 N90 N 0.81221 0.87189 0.32748
 C91 C 0.79946 0.88887 0.32445
 C92 C 0.80690 0.90003 0.30701
 C93 C 0.82456 0.88879 0.30005
 H94 H 0.78567 0.89268 0.33405
 H95 H 0.83457 0.89266 0.28661
 N96 N 0.81223 0.82790 0.37147
 N97 N 0.82762 0.81351 0.37199
 C98 C 0.82481 0.80095 0.38912
 C99 C 0.80691 0.80782 0.39988
 C100 C 0.79932 0.82492 0.38832
 H101 H 0.83493 0.78768 0.39343
 H102 H 0.78533 0.83434 0.39187
 H103 H 0.82639 0.82529 0.33323
 H104 H 0.84216 0.84376 0.35022
 N105 N 0.62797 0.68701 0.32834
 N106 N 0.62805 0.67197 0.31382
 C107 C 0.61133 0.67491 0.30073
 C108 C 0.60028 0.69273 0.30740
 C109 C 0.61126 0.70007 0.32494
 H110 H 0.60755 0.66501 0.28721
 H111 H 0.60736 0.71384 0.33448
 Cu112 Cu 0.65015 0.65022 0.31333
 Cu113 Cu 0.64934 0.68854 0.35070
 Cu114 Cu 0.68855 0.64946 0.35067
 N115 N 0.67198 0.62819 0.31378
 N116 N 0.68705 0.62813 0.32828
 C117 C 0.70015 0.61145 0.32486
 C118 C 0.69279 0.60048 0.30732
 C119 C 0.67492 0.61150 0.30067
 H120 H 0.71393 0.60756 0.33439
 H121 H 0.66499 0.60770 0.28718
 N122 N 0.68719 0.67236 0.37202
 N123 N 0.67227 0.68722 0.37203
 C124 C 0.67540 0.70021 0.38876
 C125 C 0.69307 0.69314 0.39978
 C126 C 0.70019 0.67552 0.38875
 H127 H 0.66554 0.71377 0.39275
 H128 H 0.71379 0.66570 0.39274
 H129 H 0.67347 0.67355 0.33394
 H130 H 0.65635 0.65639 0.35124
 N131 N 0.62822 0.18671 -0.17202
 N132 N 0.62843 0.17182 -0.18669
 C133 C 0.61170 0.17478 -0.19980
 C134 C 0.60047 0.19242 -0.19288
 C135 C 0.61140 0.19963 -0.17526
 H136 H 0.60790 0.16492 -0.21334
 H137 H 0.60737 0.21324 -0.16555
 Cu138 Cu 0.65056 0.15004 -0.18709
 Cu139 Cu 0.64951 0.18812 -0.14958
 Cu140 Cu 0.68872 0.14912 -0.14963
 N141 N 0.67247 0.12803 -0.18678
 N142 N 0.68739 0.12785 -0.17212
 C143 C 0.70039 0.11109 -0.17541
 C144 C 0.69320 0.10017 -0.19308
 C145 C 0.67547 0.11136 -0.19993
 H146 H 0.71403 0.10711 -0.16569
 H147 H 0.66555 0.10759 -0.21346
 N148 N 0.68731 0.17196 -0.12817
 N149 N 0.67238 0.18680 -0.12817
 C150 C 0.67549 0.19981 -0.11145
 C151 C 0.69316 0.19278 -0.10042
 C152 C 0.70030 0.17515 -0.11144
 H153 H 0.66562 0.21337 -0.10748
 H154 H 0.71393 0.16537 -0.10745
 H155 H 0.67369 0.17326 -0.16627
 H156 H 0.65649 0.15599 -0.14928
 N157 N 0.12823 0.68721 -0.17196
 N158 N 0.12845 0.67233 -0.18664
 C159 C 0.11173 0.67535 -0.19976
 C160 C 0.10053 0.69300 -0.19287
 C161 C 0.11144 0.70015 -0.17523
 H162 H 0.10792 0.66546 -0.21331
 H163 H 0.10738 0.71374 -0.16545
 Cu164 Cu 0.15023 0.65026 -0.18686
 Cu165 Cu 0.14946 0.68851 -0.14945
 Cu166 Cu 0.18852 0.64935 -0.14945
 N167 N 0.17224 0.62842 -0.18663
 N168 N 0.18714 0.62815 -0.17195
 C169 C 0.20003 0.61133 -0.17522
 C170 C 0.19283 0.60046 -0.19286
 C171 C 0.17521 0.61171 -0.19975
 H172 H 0.21363 0.60723 -0.16544
 H173 H 0.16530 0.60793 -0.21330
 N174 N 0.18714 0.67214 -0.12801
 N175 N 0.17227 0.68705 -0.12801
 C176 C 0.17544 0.70004 -0.11129
 C177 C 0.19309 0.69293 -0.10028
 C178 C 0.20015 0.67527 -0.11129
 H179 H 0.16565 0.71366 -0.10733
 H180 H 0.21375 0.66544 -0.10732
 H181 H 0.17351 0.67343 -0.16618
 H182 H 0.15626 0.65626 -0.14906
 N183 N 0.12816 0.18716 0.32800
 N184 N 0.12840 0.17231 0.31328
 C185 C 0.11169 0.17531 0.30016
 C186 C 0.10046 0.19292 0.30710
 C187 C 0.11135 0.20008 0.32475
 H188 H 0.10788 0.16544 0.28661
 H189 H 0.10728 0.21366 0.33452
 Cu190 Cu 0.15026 0.15031 0.31306
 Cu191 Cu 0.14936 0.18844 0.35052
 Cu192 Cu 0.18849 0.14942 0.35046
 N193 N 0.17233 0.12851 0.31321
 N194 N 0.18722 0.12827 0.32790
 C195 C 0.20017 0.11149 0.32462
 C196 C 0.19298 0.10063 0.30697
 C197 C 0.17533 0.11184 0.30006
 H198 H 0.21377 0.10743 0.33437
 H199 H 0.16543 0.10803 0.28654
 N200 N 0.18706 0.17215 0.37197
 N201 N 0.17215 0.18702 0.37199
 C202 C 0.17527 0.19998 0.38874
 C203 C 0.19292 0.19288 0.39976
 C204 C 0.20004 0.17527 0.38872
 H205 H 0.16543 0.21356 0.39272
 H206 H 0.21365 0.16547 0.39268
 H207 H 0.17345 0.17349 0.33380
 H208 H 0.15627 0.15627 0.35085
 N209 N 0.62824 0.31281 0.67230
 N210 N 0.62861 0.32752 0.68715
 C211 C 0.61192 0.32455 0.70031
 C212 C 0.60056 0.30708 0.69324
 C213 C 0.61136 0.30000 0.67549
 H214 H 0.60820 0.33433 0.71395
 H215 H 0.60719 0.28656 0.66560
 Cu216 Cu 0.65068 0.34929 0.68718
 Cu217 Cu 0.64938 0.31151 0.64962
 Cu218 Cu 0.68854 0.35056 0.64963
 N219 N 0.67252 0.37129 0.68718
 N220 N 0.68727 0.37166 0.67233
 C221 C 0.70011 0.38850 0.67554
 C222 C 0.69301 0.39928 0.69330
 C223 C 0.67550 0.38795 0.70035
 H224 H 0.71358 0.39267 0.66565
 H225 H 0.66568 0.39166 0.71397
 N226 N 0.68705 0.32782 0.62806
 N227 N 0.67215 0.31298 0.62806
 C228 C 0.67527 0.30001 0.61131
 C229 C 0.69292 0.30706 0.60026
 C230 C 0.70003 0.32466 0.61129
 H231 H 0.66547 0.28643 0.60736
 H232 H 0.71366 0.33441 0.60733
 H233 H 0.67369 0.32627 0.66604
 H234 H 0.65635 0.34364 0.64932
 N235 N 0.62826 0.81300 1.17225
 N236 N 0.62853 0.82783 1.18704
 C237 C 0.61180 0.82492 1.20013
 C238 C 0.60056 0.80732 1.19322
 C239 C 0.61143 0.80014 1.17555
 H240 H 0.60797 0.83481 1.21369
 H241 H 0.60735 0.78660 1.16576
 Cu242 Cu 0.65023 0.84993 1.18701
 Cu243 Cu 0.64945 0.81165 1.14970
 Cu244 Cu 0.68862 0.85067 1.14971
 N245 N 0.67241 0.87155 1.18704
 N246 N 0.68728 0.87180 1.17227
 C247 C 0.70018 0.88858 1.17557
 C248 C 0.69298 0.89945 1.19322
 C249 C 0.67533 0.88825 1.20012
 H250 H 0.71376 0.89264 1.16578
 H251 H 0.66541 0.89210 1.21367
 N252 N 0.68717 0.82790 1.12824
 N253 N 0.67227 0.81306 1.12823
 C254 C 0.67542 0.80010 1.11149
 C255 C 0.69308 0.80715 1.10047
 C256 C 0.70018 0.82474 1.11150
 H257 H 0.66560 0.78653 1.10751
 H258 H 0.71380 0.83452 1.10754
 H259 H 0.67359 0.82659 1.16633
 H260 H 0.65640 0.84384 1.14922
 N261 N 0.12818 0.31314 1.17219
 N262 N 0.12838 0.32802 1.18688
 C263 C 0.11169 0.32505 1.20004
 C264 C 0.10048 0.30743 1.19312
 C265 C 0.11139 0.30023 1.17548
 H266 H 0.10785 0.33495 1.21357
 H267 H 0.10735 0.28666 1.16572
 Cu268 Cu 0.15022 0.34999 1.18683
 Cu269 Cu 0.14938 0.31177 1.14962
 Cu270 Cu 0.18850 0.35081 1.14956
 N271 N 0.17221 0.37180 1.18680
 N272 N 0.18711 0.37199 1.17211
 C273 C 0.20003 0.38878 1.17535
 C274 C 0.19280 0.39969 1.19297
 C275 C 0.17517 0.38849 1.19992
 H276 H 0.21362 0.39281 1.16558
 H277 H 0.16525 0.39234 1.21345
 N278 N 0.18711 0.32799 1.12813
 N279 N 0.17221 0.31314 1.12815
 C280 C 0.17537 0.30013 1.11142
 C281 C 0.19302 0.30718 1.10038
 C282 C 0.20011 0.32481 1.11139
 H283 H 0.16556 0.28656 1.10747
 H284 H 0.21371 0.33459 1.10740
 H285 H 0.17352 0.32675 1.16620
 H286 H 0.15633 0.34393 1.14909
 N287 N 0.12826 0.81313 0.67200
 N288 N 0.12846 0.82799 0.68670
 C289 C 0.11178 0.82500 0.69985
 C290 C 0.10058 0.80739 0.69294
 C291 C 0.11148 0.80021 0.67528
 H292 H 0.10796 0.83489 0.71339
 H293 H 0.10744 0.78663 0.66553
 Cu294 Cu 0.15030 0.84998 0.68686
 Cu295 Cu 0.14946 0.81181 0.64945
 Cu296 Cu 0.18854 0.85080 0.64942
 N297 N 0.17231 0.87177 0.68665
 N298 N 0.18720 0.87197 0.67194
 C299 C 0.20014 0.88872 0.67520
 C300 C 0.19296 0.89960 0.69285
 C301 C 0.17531 0.88844 0.69978
 H302 H 0.21375 0.89274 0.66545
 H303 H 0.16542 0.89225 0.71333
 N304 N 0.18715 0.82804 0.62797
 N305 N 0.17226 0.81319 0.62797
 C306 C 0.17540 0.80023 0.61122
 C307 C 0.19304 0.80730 0.60018
 C308 C 0.20014 0.82490 0.61122
 H309 H 0.16559 0.78666 0.60724
 H310 H 0.21374 0.83469 0.60724
 H311 H 0.17355 0.82678 0.66614
 H312 H 0.15634 0.84401 0.64908
 N313 N 0.37175 0.68730 0.67231
 N314 N 0.37138 0.67256 0.68716
 C315 C 0.38804 0.67554 0.70034
 C316 C 0.39939 0.69304 0.69330
 C317 C 0.38861 0.70013 0.67552
 H318 H 0.39175 0.66573 0.71397
 H319 H 0.39278 0.71359 0.66564
 Cu320 Cu 0.34935 0.65075 0.68715
 Cu321 Cu 0.35065 0.68859 0.64961
 Cu322 Cu 0.31155 0.64947 0.64957
 N323 N 0.32756 0.62870 0.68711
 N324 N 0.31283 0.62834 0.67225
 C325 C 0.30001 0.61147 0.67543
 C326 C 0.30710 0.60067 0.69319
 C327 C 0.32459 0.61202 0.70026
 H328 H 0.28657 0.60730 0.66554
 H329 H 0.33439 0.60830 0.71389
 N330 N 0.31303 0.67224 0.62802
 N331 N 0.32791 0.68711 0.62803
 C332 C 0.32477 0.70009 0.61127
 C333 C 0.30715 0.69301 0.60022
 C334 C 0.30006 0.67539 0.61126
 H335 H 0.33455 0.71369 0.60731
 H336 H 0.28646 0.66561 0.60729
 H337 H 0.32633 0.67375 0.66600
 H338 H 0.34372 0.65644 0.64929
 N339 N 0.37205 0.18682 1.17200
 N340 N 0.37184 0.17194 1.18672
 C341 C 0.38855 0.17487 1.19982
 C342 C 0.39979 0.19247 1.19288
 C343 C 0.38888 0.19968 1.17523
 H344 H 0.39233 0.16501 1.21340
 H345 H 0.39292 0.21328 1.16548
 Cu346 Cu 0.34973 0.15023 1.18722
 Cu347 Cu 0.35076 0.18824 1.14957
 Cu348 Cu 0.31170 0.14925 1.14957
 N349 N 0.32801 0.12816 1.18669
 N350 N 0.31312 0.12798 1.17198
 C351 C 0.30023 0.11117 1.17519
 C352 C 0.30744 0.10024 1.19280
 C353 C 0.32505 0.11143 1.19977
 H354 H 0.28663 0.10716 1.16544
 H355 H 0.33491 0.10761 1.21334
 N356 N 0.31301 0.17211 1.12819
 N357 N 0.32789 0.18696 1.12817
 C358 C 0.32472 0.19996 1.11144
 C359 C 0.30706 0.19290 1.10044
 C360 C 0.29998 0.17527 1.11148
 H361 H 0.33454 0.21352 1.10743
 H362 H 0.28640 0.16547 1.10752
 H363 H 0.32657 0.17334 1.16625
 H364 H 0.34389 0.15603 1.14937
 N365 N 0.87185 0.68690 1.17214
 N366 N 0.87185 0.67183 1.18666
 C367 C 0.88852 0.67485 1.19981
 C368 C 0.89949 0.69270 1.19308
 C369 C 0.88848 0.69997 1.17554
 H370 H 0.89246 0.66485 1.21323
 H371 H 0.89233 0.71373 1.16594
 Cu372 Cu 0.85026 0.64961 1.18659
 Cu373 Cu 0.85059 0.68829 1.14967
 Cu374 Cu 0.81154 0.64928 1.14966
 N375 N 0.82805 0.62802 1.18663
 N376 N 0.81297 0.62803 1.17212
 C377 C 0.79991 0.61139 1.17550
 C378 C 0.80721 0.60036 1.19302
 C379 C 0.82505 0.61133 1.19975
 H380 H 0.78615 0.60753 1.16591
 H381 H 0.83505 0.60737 1.21316
 N382 N 0.81287 0.67211 1.12826
 N383 N 0.82775 0.68697 1.12825
 C384 C 0.82460 0.69997 1.11152
 C385 C 0.80696 0.69291 1.10050
 C386 C 0.79987 0.67528 1.11152
 H387 H 0.83441 0.71354 1.10753
 H388 H 0.78629 0.66548 1.10754
 H389 H 0.82669 0.67307 1.16653
 H390 H 0.84369 0.65611 1.14899
 N391 N 0.87177 0.18695 0.67203
 N392 N 0.87139 0.17227 0.68689
 C393 C 0.88806 0.17527 0.70007
 C394 C 0.89939 0.19275 0.69300
 C395 C 0.88862 0.19982 0.67522
 H396 H 0.89175 0.16550 0.71372
 H397 H 0.89276 0.21330 0.66536
 Cu398 Cu 0.84945 0.15038 0.68745
 Cu399 Cu 0.85066 0.18821 0.64941
 Cu400 Cu 0.81021 0.15082 0.65111
 N401 N 0.82798 0.12803 0.68636
 N402 N 0.81286 0.12813 0.67196
 C403 C 0.80008 0.11120 0.67496
 C404 C 0.80764 0.09987 0.69220
 C405 C 0.82535 0.11095 0.69909
 H406 H 0.78612 0.10758 0.66557
 H407 H 0.83533 0.10698 0.71251
 N408 N 0.81246 0.17241 0.62855
 N409 N 0.82781 0.18677 0.62800
 C410 C 0.82497 0.19932 0.61088
 C411 C 0.80708 0.19244 0.60014
 C412 C 0.79953 0.17537 0.61173
 H413 H 0.83509 0.21255 0.60652
 H414 H 0.78560 0.16590 0.60818
 H415 H 0.82681 0.17471 0.66704
 H416 H 0.84259 0.15624 0.64989
 N417 N 0.31271 0.37177 0.67211
 N418 N 0.32745 0.37137 0.68695
 C419 C 0.32450 0.38806 0.70008
 C420 C 0.30701 0.39944 0.69302
 C421 C 0.29988 0.38866 0.67529
 H422 H 0.33432 0.39176 0.71369
 H423 H 0.28642 0.39287 0.66541
 Cu424 Cu 0.34926 0.34933 0.68698
 Cu425 Cu 0.31141 0.35066 0.64946
 Cu426 Cu 0.35056 0.31150 0.64948
 N427 N 0.37130 0.32751 0.68698
 N428 N 0.37168 0.31277 0.67215
 C429 C 0.38857 0.29993 0.67535
 C430 C 0.39936 0.30704 0.69309
 C431 C 0.38799 0.32454 0.70013
 H432 H 0.39277 0.28648 0.66548
 H433 H 0.39170 0.33435 0.71374
 N434 N 0.32780 0.31300 0.62794
 N435 N 0.31290 0.32790 0.62793
 C436 C 0.29991 0.32476 0.61119
 C437 C 0.30701 0.30712 0.60018
 C438 C 0.32466 0.30002 0.61122
 H439 H 0.28629 0.33455 0.60723
 H440 H 0.33445 0.28640 0.60727
 H441 H 0.32624 0.32636 0.66590
 H442 H 0.34358 0.34366 0.64914
 N443 N 0.31300 0.87207 0.17178
 N444 N 0.32773 0.87169 0.18664
 C445 C 0.32476 0.88837 0.19977
 C446 C 0.30727 0.89974 0.19269
 C447 C 0.30017 0.88897 0.17495
 H448 H 0.33456 0.89206 0.21340
 H449 H 0.28670 0.89316 0.16507
 Cu450 Cu 0.34951 0.84963 0.18672
 Cu451 Cu 0.31170 0.85093 0.14916
 Cu452 Cu 0.35083 0.81175 0.14929
 N453 N 0.37153 0.82781 0.18677
 N454 N 0.37192 0.81306 0.17196
 C455 C 0.38880 0.80023 0.17519
 C456 C 0.39957 0.80735 0.19293
 C457 C 0.38820 0.82485 0.19994
 H458 H 0.39301 0.78676 0.16534
 H459 H 0.39190 0.83468 0.21355
 N460 N 0.32808 0.81323 0.12773
 N461 N 0.31320 0.82813 0.12768
 C462 C 0.30023 0.82497 0.11093
 C463 C 0.30733 0.80731 0.09996
 C464 C 0.32496 0.80022 0.11102
 H465 H 0.28662 0.83477 0.10694
 H466 H 0.33476 0.78659 0.10711
 H467 H 0.32650 0.82664 0.16565
 H468 H 0.34387 0.84391 0.14889
 N469 N 0.81292 0.37212 0.17185
 N470 N 0.82767 0.37172 0.18669
 C471 C 0.82472 0.38840 0.19984
 C472 C 0.80722 0.39978 0.19279
 C473 C 0.80010 0.38902 0.17505
 H474 H 0.83453 0.39209 0.21346
 H475 H 0.78662 0.39322 0.16518
 Cu476 Cu 0.84944 0.34966 0.18674
 Cu477 Cu 0.81160 0.35099 0.14922
 Cu478 Cu 0.85072 0.31181 0.14926
 N479 N 0.87146 0.32784 0.18675
 N480 N 0.87184 0.31309 0.17193
 C481 C 0.88872 0.30025 0.17514
 C482 C 0.89950 0.30736 0.19289
 C483 C 0.88814 0.32486 0.19992
 H484 H 0.89292 0.28679 0.16528
 H485 H 0.89184 0.33468 0.21353
 N486 N 0.82795 0.31332 0.12772
 N487 N 0.81306 0.32822 0.12771
 C488 C 0.80006 0.32507 0.11098
 C489 C 0.80714 0.30742 0.09997
 C490 C 0.82479 0.30033 0.11100
 H491 H 0.78644 0.33487 0.10703
 H492 H 0.83458 0.28670 0.10706
 H493 H 0.82642 0.32669 0.16567
 H494 H 0.84377 0.34397 0.14890
 N495 N 0.81288 0.87234 0.67201
 N496 N 0.82763 0.87196 0.68684
 C497 C 0.82465 0.88862 0.70000
 C498 C 0.80712 0.89999 0.69298
 C499 C 0.80003 0.88921 0.67522
 H500 H 0.83445 0.89231 0.71363
 H501 H 0.78654 0.89339 0.66537
 Cu502 Cu 0.84944 0.84988 0.68688
 Cu503 Cu 0.81158 0.85118 0.64938
 Cu504 Cu 0.85072 0.81200 0.64942
 N505 N 0.87148 0.82804 0.68689
 N506 N 0.87185 0.81329 0.67207
 C507 C 0.88873 0.80045 0.67527
 C508 C 0.89954 0.80756 0.69300
 C509 C 0.88818 0.82507 0.70003
 H510 H 0.89292 0.78698 0.66541
 H511 H 0.89190 0.83488 0.71364
 N512 N 0.82794 0.81349 0.62789
 N513 N 0.81305 0.82838 0.62787
 C514 C 0.80005 0.82522 0.61114
 C515 C 0.80714 0.80757 0.60015
 C516 C 0.82479 0.80048 0.61117
 H517 H 0.78643 0.83501 0.60718
 H518 H 0.83458 0.78686 0.60724
 H519 H 0.82644 0.82686 0.66582
 H520 H 0.84378 0.84413 0.64905
 N521 N 0.68721 0.62815 0.67229
 N522 N 0.67228 0.62833 0.68696
 C523 C 0.67529 0.61165 0.70011
 C524 C 0.69298 0.60048 0.69322
 C525 C 0.70019 0.61139 0.67559
 H526 H 0.66536 0.60781 0.71363
 H527 H 0.71382 0.60737 0.66585
 Cu528 Cu 0.65021 0.65015 0.68697
 Cu529 Cu 0.68854 0.64935 0.64972
 Cu530 Cu 0.64942 0.68846 0.64975
 N531 N 0.62838 0.67223 0.68699
 N532 N 0.62821 0.68715 0.67233
 C533 C 0.61145 0.70014 0.67565
 C534 C 0.60054 0.69296 0.69330
 C535 C 0.61171 0.67525 0.70017
 H536 H 0.60744 0.71377 0.66593
 H537 H 0.60787 0.66534 0.71368
 N538 N 0.67223 0.68705 0.62825
 N539 N 0.68712 0.67216 0.62823
 C540 C 0.70012 0.67532 0.61149
 C541 C 0.69302 0.69297 0.60046
 C542 C 0.67537 0.70005 0.61151
 H543 H 0.71373 0.66552 0.60751
 H544 H 0.66556 0.71365 0.60755
 H545 H 0.67350 0.67339 0.66640
 H546 H 0.65637 0.65630 0.64923
 N547 N 0.68735 0.12768 0.17189
 N548 N 0.67241 0.12786 0.18655
 C549 C 0.67540 0.11118 0.19970
 C550 C 0.69309 0.10000 0.19283
 C551 C 0.70032 0.11091 0.17519
 H552 H 0.66548 0.10736 0.21322
 H553 H 0.71396 0.10690 0.16547
 Cu554 Cu 0.65033 0.14965 0.18657
 Cu555 Cu 0.68872 0.14893 0.14935
 Cu556 Cu 0.64958 0.18805 0.14943
 N557 N 0.62855 0.17174 0.18664
 N558 N 0.62837 0.18668 0.17199
 C559 C 0.61160 0.19964 0.17530
 C560 C 0.60068 0.19241 0.19293
 C561 C 0.61187 0.17473 0.19980
 H562 H 0.60758 0.21328 0.16559
 H563 H 0.60803 0.16480 0.21330
 N564 N 0.67242 0.18668 0.12797
 N565 N 0.68732 0.17180 0.12793
 C566 C 0.70032 0.17500 0.11120
 C567 C 0.69322 0.19267 0.10022
 C568 C 0.67556 0.19972 0.11127
 H569 H 0.71393 0.16521 0.10720
 H570 H 0.66574 0.21332 0.10733
 H571 H 0.67369 0.17297 0.16606
 H572 H 0.65653 0.15588 0.14885
 N573 N 0.18704 0.62813 0.17188
 N574 N 0.17228 0.62851 0.18672
 C575 C 0.17523 0.61182 0.19987
 C576 C 0.19272 0.60044 0.19281
 C577 C 0.19986 0.61123 0.17507
 H578 H 0.16541 0.60811 0.21349
 H579 H 0.21333 0.60704 0.16520
 Cu580 Cu 0.15051 0.65060 0.18678
 Cu581 Cu 0.18839 0.64930 0.14925
 Cu582 Cu 0.14929 0.68850 0.14930
 N583 N 0.12849 0.67243 0.18679
 N584 N 0.12813 0.68720 0.17197
 C585 C 0.11124 0.70003 0.17518
 C586 C 0.10044 0.69291 0.19292
 C587 C 0.11180 0.67539 0.19995
 H588 H 0.10706 0.71351 0.16532
 H589 H 0.10808 0.66556 0.21356
 N590 N 0.17209 0.68702 0.12776
 N591 N 0.18696 0.67211 0.12775
 C592 C 0.19999 0.67527 0.11102
 C593 C 0.19294 0.69294 0.10002
 C594 C 0.17528 0.70004 0.11104
 H595 H 0.21360 0.66546 0.10707
 H596 H 0.16551 0.71368 0.10710
 H597 H 0.17357 0.67359 0.16570
 H598 H 0.15622 0.65634 0.14894
 N599 N 0.18687 0.12753 0.67202
 N600 N 0.17200 0.12773 0.68674
 C601 C 0.17500 0.11101 0.69986
 C602 C 0.19266 0.09980 0.69292
 C603 C 0.19982 0.11072 0.67525
 H604 H 0.16516 0.10725 0.71345
 H605 H 0.21344 0.10671 0.66551
 Cu606 Cu 0.15019 0.14985 0.68722
 Cu607 Cu 0.18825 0.14887 0.64959
 Cu608 Cu 0.14918 0.18797 0.64967
 N609 N 0.12811 0.17168 0.68682
 N610 N 0.12790 0.18657 0.67213
 C611 C 0.11108 0.19950 0.67537
 C612 C 0.10016 0.19231 0.69302
 C613 C 0.11138 0.17466 0.69994
 H614 H 0.10706 0.21312 0.66564
 H615 H 0.10759 0.16480 0.71350
 N616 N 0.17205 0.18667 0.62824
 N617 N 0.18693 0.17178 0.62821
 C618 C 0.19995 0.17497 0.61148
 C619 C 0.19287 0.19265 0.60050
 C620 C 0.17521 0.19972 0.61154
 H621 H 0.21354 0.16516 0.60747
 H622 H 0.16539 0.21332 0.60760
 H623 H 0.17333 0.17302 0.66630
 H624 H 0.15602 0.15580 0.64940
 N625 N 0.31287 0.62804 0.32786
 N626 N 0.32780 0.62821 0.31318
 C627 C 0.32484 0.61151 0.30008
 C628 C 0.30716 0.60035 0.30698
 C629 C 0.29994 0.61126 0.32460
 H630 H 0.33473 0.60771 0.28653
 H631 H 0.28629 0.60727 0.33431
 Cu632 Cu 0.34957 0.65025 0.31278
 Cu633 Cu 0.31144 0.64928 0.35032
 Cu634 Cu 0.35052 0.68830 0.35029
 N635 N 0.37164 0.67201 0.31316
 N636 N 0.37180 0.68690 0.32784
 C637 C 0.38857 0.69984 0.32457
 C638 C 0.39951 0.69266 0.30693
 C639 C 0.38836 0.67499 0.30004
 H640 H 0.39255 0.71347 0.33428
 H641 H 0.39218 0.66514 0.28648
 N642 N 0.32767 0.68697 0.37171
 N643 N 0.31278 0.67212 0.37173
 C644 C 0.29978 0.67528 0.38848
 C645 C 0.30688 0.69290 0.39950
 C646 C 0.32453 0.69996 0.38845
 H647 H 0.28620 0.66548 0.39248
 H648 H 0.33435 0.71351 0.39242
 H649 H 0.32635 0.67340 0.33362
 H650 H 0.34361 0.65613 0.35059
 N651 N 0.31277 0.12787 0.82795
 N652 N 0.32768 0.12808 0.81327
 C653 C 0.32476 0.11139 0.80014
 C654 C 0.30712 0.10020 0.80706
 C655 C 0.29987 0.11109 0.82469
 H656 H 0.33470 0.10756 0.78663
 H657 H 0.28629 0.10703 0.83446
 Cu658 Cu 0.34968 0.14992 0.81327
 Cu659 Cu 0.31140 0.14903 0.85053
 Cu660 Cu 0.35047 0.18809 0.85052
 N661 N 0.37151 0.17191 0.81325
 N662 N 0.37169 0.18679 0.82794
 C663 C 0.38843 0.19975 0.82464
 C664 C 0.39934 0.19258 0.80699
 C665 C 0.38820 0.17491 0.80009
 H666 H 0.39244 0.21333 0.83440
 H667 H 0.39204 0.16503 0.78656
 N668 N 0.32767 0.18667 0.87202
 N669 N 0.31279 0.17181 0.87202
 C670 C 0.29979 0.17494 0.88878
 C671 C 0.30688 0.19256 0.89980
 C672 C 0.32452 0.19964 0.88876
 H673 H 0.28620 0.16515 0.89276
 H674 H 0.33432 0.21322 0.89273
 H675 H 0.32637 0.17309 0.83391
 H676 H 0.34356 0.15592 0.85102
 N677 N 0.81309 0.62803 0.82805
 N678 N 0.82793 0.62829 0.81331
 C679 C 0.82502 0.61157 0.80020
 C680 C 0.80736 0.60036 0.80714
 C681 C 0.80017 0.61124 0.82480
 H682 H 0.83492 0.60777 0.78666
 H683 H 0.78665 0.60715 0.83463
 Cu684 Cu 0.84996 0.65012 0.81331
 Cu685 Cu 0.81172 0.64923 0.85062
 Cu686 Cu 0.85076 0.68836 0.85056
 N687 N 0.87172 0.67222 0.81324
 N688 N 0.87194 0.68705 0.82796
 C689 C 0.88868 0.70002 0.82466
 C690 C 0.89958 0.69287 0.80699
 C691 C 0.88844 0.67518 0.80009
 H692 H 0.89275 0.71354 0.83446
 H693 H 0.89227 0.66531 0.78656
 N694 N 0.82796 0.68692 0.87204
 N695 N 0.81310 0.67204 0.87207
 C696 C 0.80010 0.67520 0.88881
 C697 C 0.80716 0.69285 0.89981
 C698 C 0.82479 0.69992 0.88876
 H699 H 0.78650 0.66542 0.89280
 H700 H 0.83457 0.71353 0.89271
 H701 H 0.82671 0.67331 0.83397
 H702 H 0.84396 0.65615 0.85110
 N703 N 0.81315 0.12775 0.32801
 N704 N 0.82802 0.12798 0.31328
 C705 C 0.82511 0.11124 0.30021
 C706 C 0.80752 0.10001 0.30719
 C707 C 0.80029 0.11092 0.32481
 H708 H 0.83498 0.10746 0.28664
 H709 H 0.78669 0.10688 0.33456
 Cu710 Cu 0.84975 0.15008 0.31280
 Cu711 Cu 0.81170 0.14900 0.35044
 Cu712 Cu 0.85067 0.18808 0.35038
 N713 N 0.87177 0.17188 0.31320
 N714 N 0.87194 0.18674 0.32791
 C715 C 0.88872 0.19968 0.32466
 C716 C 0.89964 0.19252 0.30701
 C717 C 0.88848 0.17489 0.30008
 H718 H 0.89270 0.21328 0.33439
 H719 H 0.89229 0.16505 0.28650
 N720 N 0.82783 0.18672 0.37183
 N721 N 0.81297 0.17184 0.37184
 C722 C 0.79995 0.17498 0.38857
 C723 C 0.80700 0.19262 0.39958
 C724 C 0.82464 0.19971 0.38855
 H725 H 0.78638 0.16516 0.39256
 H726 H 0.83443 0.21330 0.39251
 H727 H 0.82652 0.17315 0.33373
 H728 H 0.84388 0.15589 0.35061
 N729 N 0.68707 0.37189 0.32790
 N730 N 0.67219 0.37168 0.31319
 C731 C 0.67514 0.38842 0.30010
 C732 C 0.69274 0.39963 0.30706
 C733 C 0.69994 0.38871 0.32469
 H734 H 0.66528 0.39222 0.28653
 H735 H 0.71353 0.39274 0.33445
 Cu736 Cu 0.65045 0.34961 0.31268
 Cu737 Cu 0.68848 0.35062 0.35035
 Cu738 Cu 0.64946 0.31160 0.35033
 N739 N 0.62838 0.32784 0.31316
 N740 N 0.62819 0.31298 0.32788
 C741 C 0.61139 0.30007 0.32465
 C742 C 0.60047 0.30724 0.30700
 C743 C 0.61167 0.32486 0.30005
 H744 H 0.60738 0.28647 0.33440
 H745 H 0.60788 0.33471 0.28646
 N746 N 0.67230 0.31291 0.37175
 N747 N 0.68717 0.32777 0.37175
 C748 C 0.70017 0.32460 0.38849
 C749 C 0.69309 0.30697 0.39951
 C750 C 0.67545 0.29991 0.38848
 H751 H 0.71374 0.33441 0.39248
 H752 H 0.66563 0.28634 0.39246
 H753 H 0.67365 0.32652 0.33366
 H754 H 0.65630 0.34381 0.35053
 N755 N 0.68718 0.87200 0.82795
 N756 N 0.67225 0.87184 0.81329
 C757 C 0.67523 0.88853 0.80015
 C758 C 0.69291 0.89967 0.80702
 C759 C 0.70014 0.88875 0.82465
 H760 H 0.66529 0.89240 0.78666
 H761 H 0.71374 0.89277 0.83439
 Cu762 Cu 0.65018 0.85008 0.81335
 Cu763 Cu 0.68852 0.85085 0.85054
 Cu764 Cu 0.64938 0.81186 0.85062
 N765 N 0.62834 0.82809 0.81337
 N766 N 0.62816 0.81319 0.82807
 C767 C 0.61140 0.80025 0.82479
 C768 C 0.60049 0.80743 0.80714
 C769 C 0.61166 0.82510 0.80023
 H770 H 0.60738 0.78665 0.83455
 H771 H 0.60782 0.83499 0.78670
 N772 N 0.67220 0.81325 0.87209
 N773 N 0.68710 0.82809 0.87206
 C774 C 0.70009 0.82495 0.88880
 C775 C 0.69299 0.80734 0.89986
 C776 C 0.67534 0.80028 0.88885
 H777 H 0.71370 0.83472 0.89274
 H778 H 0.66553 0.78672 0.89285
 H779 H 0.67348 0.82685 0.83393
 H780 H 0.65635 0.84402 0.85108
 N781 N 0.18701 0.37176 0.82781
 N782 N 0.17227 0.37140 0.81297
 C783 C 0.17524 0.38807 0.79980
 C784 C 0.19275 0.39941 0.80685
 C785 C 0.19985 0.38861 0.82460
 H786 H 0.16543 0.39180 0.78618
 H787 H 0.21330 0.39278 0.83449
 Cu788 Cu 0.15045 0.34939 0.81297
 Cu789 Cu 0.18830 0.35064 0.85050
 Cu790 Cu 0.14916 0.31157 0.85054
 N791 N 0.12841 0.32760 0.81301
 N792 N 0.12804 0.31287 0.82787
 C793 C 0.11117 0.30005 0.82469
 C794 C 0.10037 0.30715 0.80693
 C795 C 0.11173 0.32463 0.79986
 H796 H 0.10698 0.28661 0.83459
 H797 H 0.10801 0.33443 0.78622
 N798 N 0.17192 0.31304 0.87209
 N799 N 0.18681 0.32790 0.87207
 C800 C 0.19980 0.32475 0.88882
 C801 C 0.19270 0.30713 0.89987
 C802 C 0.17506 0.30006 0.88885
 H803 H 0.21342 0.33451 0.89276
 H804 H 0.16527 0.28647 0.89282
 H805 H 0.17347 0.32636 0.83411
 H806 H 0.15612 0.34371 0.85083
 N807 N 0.18694 0.87204 0.32778
 N808 N 0.17204 0.87186 0.31309
 C809 C 0.17500 0.88857 0.29997
 C810 C 0.19266 0.89973 0.30688
 C811 C 0.19987 0.88881 0.32451
 H812 H 0.16512 0.89238 0.28641
 H813 H 0.21349 0.89281 0.33424
 Cu814 Cu 0.15024 0.84985 0.31272
 Cu815 Cu 0.18834 0.85081 0.35026
 Cu816 Cu 0.14925 0.81181 0.35031
 N817 N 0.12818 0.82809 0.31314
 N818 N 0.12798 0.81321 0.32785
 C819 C 0.11119 0.80029 0.32459
 C820 C 0.10029 0.80748 0.30694
 C821 C 0.11147 0.82513 0.30002
 H822 H 0.10719 0.78668 0.33433
 H823 H 0.10768 0.83498 0.28643
 N824 N 0.17211 0.81315 0.37174
 N825 N 0.18699 0.82800 0.37171
 C826 C 0.20000 0.82485 0.38844
 C827 C 0.19291 0.80724 0.39950
 C828 C 0.17526 0.80017 0.38850
 H829 H 0.21358 0.83466 0.39240
 H830 H 0.16544 0.78661 0.39251
 H831 H 0.17344 0.82670 0.33362
 H832 H 0.15616 0.84399 0.35054
 O833 O 0.25225 1.02095 0.22303
 O834 O 0.22292 0.97923 0.25183
 O835 O 0.22297 1.02101 0.25191
 O836 O 0.25225 0.97926 0.22299
 O837 O 0.27706 0.97915 0.24790
 O838 O 0.24779 1.02090 0.27679
 O839 O 0.24772 0.97916 0.27673
 O840 O 0.27707 1.02086 0.24792
 Cu841 Cu 0.23510 1.00012 0.23494
 Cu842 Cu 0.26489 1.00000 0.26485
 C843 C 0.26944 1.02826 0.23076
 C844 C 0.23056 0.97182 0.26898
 C845 C 0.23064 1.02834 0.26906
 C846 C 0.26943 0.97184 0.23071
 O847 O 0.25221 0.52097 0.72315
 O848 O 0.22288 0.47914 0.75192
 O849 O 0.22288 0.52092 0.75202
 O850 O 0.25222 0.47922 0.72308
 O851 O 0.27701 0.47911 0.74800
 O852 O 0.24769 0.52081 0.77692
 O853 O 0.24766 0.47907 0.77683
 O854 O 0.27700 0.52089 0.74806
 Cu855 Cu 0.23506 0.50007 0.73504
 Cu856 Cu 0.26483 0.49996 0.76496
 C857 C 0.26936 0.52832 0.73091
 C858 C 0.23050 0.47171 0.76907
 C859 C 0.23053 0.52823 0.76920
 C860 C 0.26938 0.47179 0.73082
 O861 O 0.75248 -0.02122 0.27716
 O862 O 0.72329 0.02060 0.24818
 O863 O 0.72321 -0.02114 0.24827
 O864 O 0.75254 0.02053 0.27709
 O865 O 0.77740 0.02046 0.25223
 O866 O 0.74808 -0.02122 0.22341
 O867 O 0.74816 0.02049 0.22332
 O868 O 0.77735 -0.02132 0.25231
 Cu869 Cu 0.73539 -0.00030 0.26519
 Cu870 Cu 0.76525 -0.00041 0.23532
 C871 C 0.76965 -0.02866 0.26947
 C872 C 0.73097 0.02792 0.23101
 C873 C 0.73087 -0.02853 0.23112
 C874 C 0.76973 0.02787 0.26936
 O875 O 0.72311 0.52076 0.74822
 O876 O 0.75245 0.47898 0.77710
 O877 O 0.75243 0.52075 0.77706
 O878 O 0.72311 0.47896 0.74827
 O879 O 0.74790 0.47895 0.72334
 O880 O 0.77725 0.52071 0.75216
 O881 O 0.77723 0.47891 0.75217
 O882 O 0.74793 0.52073 0.72331
 Cu883 Cu 0.73529 0.49987 0.76517
 Cu884 Cu 0.76506 0.49982 0.73524
 C885 C 0.73076 0.52814 0.73106
 C886 C 0.76960 0.47155 0.76935
 C887 C 0.76961 0.52812 0.76931
 C888 C 0.73075 0.47156 0.73110
 O889 O 0.22292 0.52091 0.24797
 O890 O 0.25221 0.47908 0.27681
 O891 O 0.25221 0.52085 0.27682
 O892 O 0.22292 0.47918 0.24796
 O893 O 0.24776 0.47915 0.22307
 O894 O 0.27703 0.52086 0.25191
 O895 O 0.27705 0.47907 0.25192
 O896 O 0.24773 0.52086 0.22305
 Cu897 Cu 0.23508 0.50001 0.26490
 Cu898 Cu 0.26489 0.49999 0.23499
 C899 C 0.23055 0.52825 0.23079
 C900 C 0.26938 0.47167 0.26907
 C901 C 0.26938 0.52824 0.26907
 C902 C 0.23057 0.47180 0.23081
 O903 O 0.72268 0.97958 0.75229
 O904 O 0.75195 1.02119 0.72326
 O905 O 0.75196 0.97949 0.72339
 O906 O 0.72275 1.02141 0.75228
 O907 O 0.74763 1.02137 0.77709
 O908 O 0.77682 0.97944 0.74824
 O909 O 0.77684 1.02116 0.74807
 O910 O 0.74754 0.97956 0.77713
 Cu911 Cu 0.73482 1.00043 0.73533
 Cu912 Cu 0.76468 1.00039 0.76514
 C913 C 0.73037 0.97217 0.76942
 C914 C 0.76919 1.02849 0.73088
 C915 C 0.76915 0.97208 0.73109
 C916 C 0.73046 1.02882 0.76939
 O917 O 0.74776 0.52090 0.27696
 O918 O 0.77702 0.47916 0.24804
 O919 O 0.77700 0.52088 0.24806
 O920 O 0.74772 0.47915 0.27692
 O921 O 0.72290 0.47920 0.25204
 O922 O 0.75214 0.52097 0.22322
 O923 O 0.75220 0.47927 0.22316
 O924 O 0.72289 0.52097 0.25211
 Cu925 Cu 0.76486 0.50001 0.26501
 Cu926 Cu 0.73503 0.50010 0.23513
 C927 C 0.73058 0.52833 0.26925
 C928 C 0.76938 0.47186 0.23086
 C929 C 0.76933 0.52829 0.23093
 C930 C 0.73055 0.47179 0.26919
 O931 O 0.25271 -0.02156 0.77699
 O932 O 0.22338 0.02046 0.74830
 O933 O 0.22335 -0.02128 0.74819
 O934 O 0.25267 0.02027 0.77718
 O935 O 0.27747 0.02036 0.75227
 O936 O 0.24816 -0.02122 0.72327
 O937 O 0.24819 0.02050 0.72338
 O938 O 0.27752 -0.02149 0.75209
 Cu939 Cu 0.23556 -0.00054 0.76518
 Cu940 Cu 0.26534 -0.00046 0.73527
 C941 C 0.26986 -0.02898 0.76921
 C942 C 0.23100 0.02787 0.73113
 C943 C 0.23097 -0.02858 0.73098
 C944 C 0.26980 0.02770 0.76943
 O945 O 0.24782 0.27687 0.97922
 O946 O 0.27697 0.24771 1.02085
 O947 O 0.27689 0.24765 0.97921
 O948 O 0.24789 0.27691 1.02086
 O949 O 0.22294 0.25211 1.02094
 O950 O 0.25194 0.22284 0.97930
 O951 O 0.25202 0.22291 1.02095
 O952 O 0.22287 0.25206 0.97930
 Cu953 Cu 0.26490 0.26477 1.00002
 Cu954 Cu 0.23494 0.23499 1.00013
 C955 C 0.23061 0.26921 0.97189
 C956 C 0.26923 0.23057 1.02827
 C957 C 0.26914 0.23048 0.97189
 C958 C 0.23070 0.26926 1.02827
 O959 O 0.25208 0.72312 0.47908
 O960 O 0.22304 0.75237 0.52069
 O961 O 0.22302 0.75234 0.47906
 O962 O 0.25214 0.72319 0.52074
 O963 O 0.27708 0.74800 0.52067
 O964 O 0.24796 0.77716 0.47899
 O965 O 0.24798 0.77718 0.52064
 O966 O 0.27703 0.74793 0.47901
 Cu967 Cu 0.23507 0.73526 0.49990
 Cu968 Cu 0.26502 0.76506 0.49982
 C969 C 0.26928 0.73077 0.47168
 C970 C 0.23077 0.76953 0.52803
 C971 C 0.23075 0.76949 0.47165
 C972 C 0.26934 0.73086 0.52808
 O973 O 0.25243 0.77710 0.02056
 O974 O 0.22330 0.74796 -0.02099
 O975 O 0.22331 0.74801 0.02065
 O976 O 0.25246 0.77702 -0.02110
 O977 O 0.27738 0.75212 -0.02105
 O978 O 0.24822 0.72310 0.02069
 O979 O 0.24821 0.72305 -0.02096
 O980 O 0.27734 0.75220 0.02062
 Cu981 Cu 0.23538 0.76503 -0.00023
 Cu982 Cu 0.26529 0.73512 -0.00017
 C983 C 0.26961 0.76939 0.02795
 C984 C 0.23101 0.73076 -0.02832
 C985 C 0.23101 0.73083 0.02805
 C986 C 0.26966 0.76929 -0.02847
 O987 O 0.27689 0.25197 0.47927
 O988 O 0.24779 0.22285 0.52096
 O989 O 0.24779 0.22287 0.47930
 O990 O 0.27687 0.25199 0.52091
 O991 O 0.25193 0.27687 0.52090
 O992 O 0.22284 0.24774 0.47930
 O993 O 0.22285 0.24773 0.52097
 O994 O 0.25194 0.27684 0.47925
 Cu995 Cu 0.26483 0.23492 0.50012
 Cu996 Cu 0.23488 0.26479 0.50011
 C997 C 0.26915 0.26914 0.47189
 C998 C 0.23059 0.23055 0.52834
 C999 C 0.23058 0.23057 0.47193
 C1000 C 0.26914 0.26918 0.52826
 O1001 O 0.75216 0.72308 0.97927
 O1002 O 0.72307 0.75226 1.02092
 O1003 O 0.72308 0.75229 0.97929
 O1004 O 0.75212 0.72304 1.02092
 O1005 O 0.77707 0.74784 1.02091
 O1006 O 0.74803 0.77709 0.97928
 O1007 O 0.74802 0.77706 1.02092
 O1008 O 0.77711 0.74788 0.97927
 Cu1009 Cu 0.73510 0.73518 1.00010
 Cu1010 Cu 0.76507 0.76496 1.00009
 C1011 C 0.76937 0.73073 0.97190
 C1012 C 0.73082 0.76940 1.02829
 C1013 C 0.73082 0.76945 0.97192
 C1014 C 0.76932 0.73069 1.02829
 O1015 O 0.74789 0.27677 0.47912
 O1016 O 0.77693 0.24745 0.52072
 O1017 O 0.77693 0.24755 0.47909
 O1018 O 0.74789 0.27672 0.52079
 O1019 O 0.72290 0.25196 0.52078
 O1020 O 0.75197 0.22275 0.47910
 O1021 O 0.75194 0.22269 0.52075
 O1022 O 0.72292 0.25199 0.47911
 Cu1023 Cu 0.76491 0.26461 0.49994
 Cu1024 Cu 0.73492 0.23487 0.49994
 C1025 C 0.73069 0.26914 0.47174
 C1026 C 0.76917 0.23030 0.52808
 C1027 C 0.76918 0.23040 0.47172
 C1028 C 0.73067 0.26909 0.52816
 O1029 O 0.72293 0.24789 -0.02092
 O1030 O 0.75196 0.27711 0.02073
 O1031 O 0.75186 0.27720 -0.02092
 O1032 O 0.72297 0.24787 0.02076
 O1033 O 0.74803 0.22311 0.02070
 O1034 O 0.77691 0.25244 -0.02099
 O1035 O 0.77701 0.25234 0.02065
 O1036 O 0.74799 0.22313 -0.02096
 Cu1037 Cu 0.73491 0.26500 -0.00008
 Cu1038 Cu 0.76499 0.23527 -0.00016
 C1039 C 0.73075 0.23076 -0.02831
 C1040 C 0.76922 0.26947 0.02805
 C1041 C 0.76909 0.26959 -0.02832
 C1042 C 0.73080 0.23073 0.02811
 O1043 O 0.77690 0.75253 0.47922
 O1044 O 0.74795 0.72325 0.52093
 O1045 O 0.74793 0.72325 0.47926
 O1046 O 0.77700 0.75242 0.52086
 O1047 O 0.75199 0.77723 0.52090
 O1048 O 0.72290 0.74804 0.47932
 O1049 O 0.72294 0.74806 0.52098
 O1050 O 0.75185 0.77731 0.47925
 Cu1051 Cu 0.76495 0.73537 0.50006
 Cu1052 Cu 0.73491 0.76515 0.50012
 C1053 C 0.76909 0.76969 0.47186
 C1054 C 0.73074 0.73090 0.52833
 C1055 C 0.73069 0.73090 0.47193
 C1056 C 0.76923 0.76958 0.52824
 O1057 O 1.02083 0.27718 0.24812
 O1058 O 0.97900 0.24781 0.27682
 O1059 O 1.02078 0.24785 0.27693
 O1060 O 0.97904 0.27719 0.24804
 O1061 O 0.97917 0.25246 0.22309
 O1062 O 1.02089 0.22311 0.25199
 O1063 O 0.97909 0.22308 0.25187
 O1064 O 1.02092 0.25244 0.22318
 Cu1065 Cu 0.99990 0.26499 0.26499
 Cu1066 Cu 1.00003 0.23529 0.23502
 C1067 C 1.02827 0.26958 0.23097
 C1068 C 0.97166 0.23067 0.26904
 C1069 C 1.02821 0.23072 0.26918
 C1070 C 0.97174 0.26960 0.23084
 O1071 O 0.52083 0.27687 0.74818
 O1072 O 0.47901 0.24753 0.77694
 O1073 O 0.52081 0.24750 0.77698
 O1074 O 0.47903 0.27687 0.74813
 O1075 O 0.47910 0.25214 0.72319
 O1076 O 0.52088 0.22277 0.75204
 O1077 O 0.47905 0.22280 0.75200
 O1078 O 0.52088 0.25214 0.72323
 Cu1079 Cu 0.49992 0.26467 0.76507
 Cu1080 Cu 0.49998 0.23498 0.73511
 C1081 C 0.52824 0.26927 0.73101
 C1082 C 0.47163 0.23041 0.76916
 C1083 C 0.52824 0.23037 0.76921
 C1084 C 0.47168 0.26928 0.73095
 O1085 O -0.02111 0.27713 0.75190
 O1086 O 0.02070 0.24765 0.72321
 O1087 O -0.02108 0.24771 0.72321
 O1088 O 0.02071 0.27701 0.75198
 O1089 O 0.02064 0.25232 0.77698
 O1090 O -0.02115 0.22301 0.74821
 O1091 O 0.02067 0.22294 0.74821
 O1092 O -0.02115 0.25244 0.77691
 Cu1093 Cu -0.00019 0.26485 0.73506
 Cu1094 Cu -0.00025 0.23520 0.76510
 C1095 C -0.02853 0.26957 0.76909
 C1096 C 0.02807 0.23050 0.73101
 C1097 C -0.02850 0.23060 0.73100
 C1098 C 0.02806 0.26943 0.76918
 O1099 O 0.47928 0.22270 0.24806
 O1100 O 0.52107 0.25203 0.27683
 O1101 O 0.47927 0.25200 0.27688
 O1102 O 0.52108 0.22267 0.24805
 O1103 O 0.52103 0.24744 0.22311
 O1104 O 0.47923 0.27677 0.25195
 O1105 O 0.52104 0.27679 0.25188
 O1106 O 0.47926 0.24747 0.22313
 Cu1107 Cu 0.50018 0.23487 0.26497
 Cu1108 Cu 0.50013 0.26460 0.23501
 C1109 C 0.47189 0.23032 0.23089
 C1110 C 0.52843 0.26918 0.26905
 C1111 C 0.47186 0.26914 0.26913
 C1112 C 0.52844 0.23029 0.23087
 O1113 O 0.97922 0.75257 0.72312
 O1114 O 1.02096 0.72322 0.75203
 O1115 O 0.97916 0.72321 0.75193
 O1116 O 1.02099 0.75248 0.72315
 O1117 O 1.02096 0.77725 0.74806
 O1118 O 0.97911 0.74796 0.77685
 O1119 O 1.02089 0.74798 0.77694
 O1120 O 0.97916 0.77733 0.74804
 Cu1121 Cu 1.00009 0.73539 0.73505
 Cu1122 Cu 1.00002 0.76512 0.76498
 C1123 C 0.97182 0.76973 0.73086
 C1124 C 1.02831 0.73084 0.76920
 C1125 C 0.97175 0.73082 0.76909
 C1126 C 1.02837 0.76962 0.73090
 O1127 O 0.52086 0.77715 0.24819
 O1128 O 0.47900 0.74781 0.27687
 O1129 O 0.52079 0.74783 0.27700
 O1130 O 0.47908 0.77718 0.24810
 O1131 O 0.47921 0.75245 0.22315
 O1132 O 0.52089 0.72307 0.25208
 O1133 O 0.47909 0.72307 0.25192
 O1134 O 0.52095 0.75240 0.22326
 Cu1135 Cu 0.49992 0.76497 0.26505
 Cu1136 Cu 0.50004 0.73526 0.23509
 C1137 C 0.52830 0.76954 0.23103
 C1138 C 0.47165 0.73067 0.26908
 C1139 C 0.52821 0.73068 0.26926
 C1140 C 0.47178 0.76959 0.23090
 O1141 O -0.02103 0.77724 0.25183
 O1142 O 0.02072 0.74780 0.22303
 O1143 O -0.02105 0.74783 0.22315
 O1144 O 0.02079 0.77715 0.25181
 O1145 O 0.02080 0.75244 0.27680
 O1146 O -0.02102 0.72311 0.24812
 O1147 O 0.02078 0.72309 0.24802
 O1148 O -0.02099 0.75253 0.27682
 Cu1149 Cu -0.00014 0.76499 0.23494
 Cu1150 Cu -0.00010 0.73532 0.26496
 C1151 C -0.02840 0.76966 0.26902
 C1152 C 0.02813 0.73067 0.23081
 C1153 C -0.02843 0.73071 0.23095
 C1154 C 0.02819 0.76956 0.26900
 O1155 O 0.52076 0.75256 0.77716
 O1156 O 0.47900 0.72323 0.74835
 O1157 O 0.52083 0.72324 0.74835
 O1158 O 0.47893 0.75260 0.77713
 O1159 O 0.47892 0.77735 0.75217
 O1160 O 0.52081 0.74800 0.72340
 O1161 O 0.47901 0.74797 0.72339
 O1162 O 0.52077 0.77732 0.75221
 Cu1163 Cu 0.49988 0.73543 0.76526
 Cu1164 Cu 0.49987 0.76514 0.73529
 C1165 C 0.52816 0.76969 0.76938
 C1166 C 0.47163 0.73083 0.73116
 C1167 C 0.52823 0.73086 0.73118
 C1168 C 0.47151 0.76974 0.76934
 N1169 N 0.42788 0.30642 0.28006
 C1170 C 0.41897 0.29776 0.29772
 N1171 N 0.42795 0.28005 0.30629
 N1172 N 0.44509 0.27120 0.29743
 C1173 C 0.45394 0.27979 0.27971
 N1174 N 0.44503 0.29757 0.27119
 N1175 N 0.42738 0.80694 0.78006
 C1176 C 0.41844 0.79834 0.79774
 N1177 N 0.42749 0.78069 0.80639
 N1178 N 0.44468 0.77185 0.79760
 C1179 C 0.45353 0.78039 0.77987
 N1180 N 0.44458 0.79810 0.77126
 N1181 N -0.07245 0.28072 0.80616
 C1182 C -0.08157 0.29823 0.79734
 N1183 N -0.07273 0.30672 0.77957
 N1184 N -0.05552 0.29787 0.77082
 C1185 C -0.04648 0.28028 0.77958
 N1186 N -0.05525 0.27188 0.79742
 N1187 N -0.07279 0.80659 0.27945
 C1188 C -0.08156 0.79810 0.29725
 N1189 N -0.07232 0.78068 0.30613
 N1190 N -0.05506 0.77192 0.29740
 C1191 C -0.04636 0.78032 0.27953
 N1192 N -0.05552 0.79783 0.27072
 N1193 N 0.57219 0.69343 0.28024
 C1194 C 0.58107 0.70211 0.29786
 N1195 N 0.57207 0.71979 0.30644
 N1196 N 0.55492 0.72861 0.29757
 C1197 C 0.54611 0.72002 0.27986
 N1198 N 0.55504 0.70226 0.27136
 N1199 N 0.57233 0.19318 0.77999
 C1200 C 0.58118 0.20177 0.79768
 N1201 N 0.57213 0.21938 0.80635
 N1202 N 0.55496 0.22822 0.79753
 C1203 C 0.54617 0.21970 0.77978
 N1204 N 0.55515 0.20202 0.77117
 N1205 N 1.07217 0.71990 0.80638
 C1206 C 1.08125 0.70230 0.79772
 N1207 N 1.07241 0.69368 0.78004
 N1208 N 1.05522 0.70249 0.77120
 C1209 C 1.04622 0.72018 0.77979
 N1210 N 1.05499 0.72870 0.79755
 N1211 N 1.07235 0.19362 0.27998
 C1212 C 1.08117 0.20222 0.29769
 N1213 N 1.07206 0.21980 0.30636
 N1214 N 1.05488 0.22860 0.29754
 C1215 C 1.04613 0.22008 0.27976
 N1216 N 1.05516 0.20243 0.27115
 N1217 N 0.57211 0.28031 0.69385
 C1218 C 0.58123 0.29781 0.70263
 N1219 N 0.57241 0.30632 0.72039
 N1220 N 0.55521 0.29752 0.72918
 C1221 C 0.54617 0.27993 0.72047
 N1222 N 0.55492 0.27151 0.70263
 N1223 N 0.57238 0.80665 0.22032
 C1224 C 0.58124 0.79806 0.20261
 N1225 N 0.57219 0.78049 0.19391
 N1226 N 0.55502 0.77169 0.20272
 C1227 C 0.54622 0.78019 0.22049
 N1228 N 0.55519 0.79784 0.22913
 N1229 N 1.07233 0.30671 0.22025
 C1230 C 1.08120 0.29812 0.20255
 N1231 N 1.07216 0.28055 0.19385
 N1232 N 1.05499 0.27174 0.20265
 C1233 C 1.04619 0.28024 0.22043
 N1234 N 1.05515 0.29790 0.22906
 N1235 N 1.07226 0.78050 0.69373
 C1236 C 1.08131 0.79809 0.70239
 N1237 N 1.07246 0.80670 0.72010
 N1238 N 1.05528 0.79790 0.72894
 C1239 C 1.04630 0.78024 0.72033
 N1240 N 1.05509 0.77171 0.70256
 N1241 N 0.42748 0.69378 0.72048
 C1242 C 0.41869 0.70232 0.70271
 N1243 N 0.42783 0.71983 0.69394
 N1244 N 0.44499 0.72862 0.70275
 C1245 C 0.45371 0.72018 0.72059
 N1246 N 0.44466 0.70258 0.72929
 N1247 N 0.42787 0.19318 0.22006
 C1248 C 0.41905 0.20178 0.20234
 N1249 N 0.42809 0.21939 0.19368
 N1250 N 0.44522 0.22820 0.20253
 C1251 C 0.45399 0.21968 0.22031
 N1252 N 0.44502 0.20199 0.22891
 N1253 N -0.07237 0.71977 0.19392
 C1254 C -0.08130 0.70208 0.20254
 N1255 N -0.07235 0.69344 0.22019
 N1256 N -0.05521 0.70230 0.22900
 C1257 C -0.04635 0.72005 0.22043
 N1258 N -0.05523 0.72861 0.20272
 N1259 N -0.07258 0.19352 0.72025
 C1260 C -0.08135 0.20206 0.70247
 N1261 N -0.07224 0.21961 0.69374
 N1262 N -0.05510 0.22842 0.70258
 C1263 C -0.04640 0.21996 0.72043
 N1264 N -0.05544 0.20233 0.72910
 N1265 N 0.30659 0.42764 0.27997
 C1266 C 0.29788 0.41871 0.29759
 N1267 N 0.28015 0.42769 0.30614
 N1268 N 0.27134 0.44485 0.29730
 C1269 C 0.27998 0.45372 0.27963
 N1270 N 0.29778 0.44481 0.27112
 N1271 N 0.30705 -0.07318 0.77986
 C1272 C 0.29842 -0.08215 0.79752
 N1273 N 0.28073 -0.07312 0.80615
 N1274 N 0.27191 -0.05592 0.79738
 C1275 C 0.28048 -0.04702 0.77969
 N1276 N 0.29821 -0.05597 0.77109
 N1277 N 0.80654 0.42723 0.77999
 C1278 C 0.79796 0.41843 0.79775
 N1279 N 0.78046 0.42767 0.80652
 N1280 N 0.77173 0.44490 0.79774
 C1281 C 0.78021 0.45360 0.77991
 N1282 N 0.79780 0.44447 0.77121
 N1283 N 0.80684 -0.07270 0.28047
 C1284 C 0.79811 -0.08163 0.29809
 N1285 N 0.78040 -0.07259 0.30664
 N1286 N 0.77162 -0.05542 0.29778
 C1287 C 0.78026 -0.04659 0.28009
 N1288 N 0.79805 -0.05552 0.27161
 N1289 N 0.30639 0.57251 0.72032
 C1290 C 0.29784 0.58134 0.70256
 N1291 N 0.28033 0.57222 0.69379
 N1292 N 0.27154 0.55503 0.70256
 C1293 C 0.28000 0.54627 0.72038
 N1294 N 0.29760 0.55531 0.72909
 N1295 N 0.30670 1.07213 0.21993
 C1296 C 0.29811 1.08100 0.20223
 N1297 N 0.28046 1.07203 0.19357
 N1298 N 0.27161 1.05491 0.20241
 C1299 C 0.28012 1.04611 0.22018
 N1300 N 0.29784 1.05501 0.22877
 N1301 N 0.80657 0.57217 0.22005
 C1302 C 0.79787 0.58114 0.20246
 N1303 N 0.78015 0.57223 0.19388
 N1304 N 0.77133 0.55509 0.20269
 C1305 C 0.77996 0.54618 0.22036
 N1306 N 0.79775 0.55502 0.22887
 N1307 N 0.80685 1.07187 0.71943
 C1308 C 0.79820 1.08074 0.70176
 N1309 N 0.78035 1.07194 0.69334
 N1310 N 0.77137 1.05500 0.70238
 C1311 C 0.77994 1.04620 0.72012
 N1312 N 0.79786 1.05492 0.72848
 N1313 N 0.69340 0.57236 0.28021
 C1314 C 0.70215 0.58127 0.29779
 N1315 N 0.71986 0.57227 0.30634
 N1316 N 0.72864 0.55510 0.29749
 C1317 C 0.71997 0.54626 0.27983
 N1318 N 0.70218 0.55520 0.27136
 N1319 N 0.71975 1.07282 0.80648
 C1320 C 0.70206 1.08190 0.79791
 N1321 N 0.69337 1.07299 0.78028
 N1322 N 0.70214 1.05580 0.77144
 C1323 C 0.71989 1.04682 0.77996
 N1324 N 0.72852 1.05564 0.79764
 N1325 N 0.21968 0.57205 0.80639
 C1326 C 0.20209 0.58117 0.79773
 N1327 N 0.19343 0.57236 0.78005
 N1328 N 0.20221 0.55517 0.77121
 C1329 C 0.21990 0.54613 0.77980
 N1330 N 0.22845 0.55487 0.79756
 N1331 N 0.19361 1.07252 0.27986
 C1332 C 0.20226 1.08134 0.29754
 N1333 N 0.21987 1.07223 0.30619
 N1334 N 0.22863 1.05504 0.29737
 C1335 C 0.22005 1.04628 0.27963
 N1336 N 0.20237 1.05532 0.27104
 N1337 N 0.69372 0.42738 0.72046
 C1338 C 0.70228 0.41859 0.70270
 N1339 N 0.71981 0.42773 0.69394
 N1340 N 0.72859 0.44490 0.70273
 C1341 C 0.72011 0.45363 0.72056
 N1342 N 0.70250 0.44457 0.72926
 N1343 N 0.71990 -0.07228 0.19395
 C1344 C 0.70226 -0.08128 0.20261
 N1345 N 0.69363 -0.07242 0.22030
 N1346 N 0.70247 -0.05529 0.22913
 C1347 C 0.72019 -0.04637 0.22053
 N1348 N 0.72873 -0.05516 0.20277
 N1349 N 0.19344 0.42782 0.22004
 C1350 C 0.20209 0.41895 0.20237
 N1351 N 0.21969 0.42799 0.19368
 N1352 N 0.22849 0.44514 0.20248
 C1353 C 0.21993 0.45393 0.22024
 N1354 N 0.20223 0.44498 0.22884
 N1355 N 0.19369 -0.07238 0.72003
 C1356 C 0.20230 -0.08119 0.70230
 N1357 N 0.21994 -0.07218 0.69366
 N1358 N 0.22879 -0.05510 0.70253
 C1359 C 0.22028 -0.04636 0.72033
 N1360 N 0.20255 -0.05530 0.72891
 N1361 N 0.27988 0.30620 0.42789
 C1362 C 0.29756 0.29750 0.41894
 N1363 N 0.30627 0.27987 0.42792
 N1364 N 0.29750 0.27111 0.44510
 C1365 C 0.27974 0.27972 0.45397
 N1366 N 0.27111 0.29744 0.44507
 N1367 N 0.28042 0.80638 -0.07245
 C1368 C 0.29810 0.79769 -0.08141
 N1369 N 0.30679 0.78003 -0.07245
 N1370 N 0.29801 0.77125 -0.05528
 C1371 C 0.28026 0.77986 -0.04639
 N1372 N 0.27164 0.79760 -0.05528
 N1373 N 0.80618 0.28064 -0.07221
 C1374 C 0.79743 0.29830 -0.08111
 N1375 N 0.77972 0.30689 -0.07214
 N1376 N 0.77095 0.29802 -0.05502
 C1377 C 0.77963 0.28028 -0.04619
 N1378 N 0.79742 0.27177 -0.05509
 N1379 N 0.77967 0.80687 0.42791
 C1380 C 0.79757 0.79846 0.41915
 N1381 N 0.80644 0.78094 0.42822
 N1382 N 0.79763 0.77205 0.44530
 C1383 C 0.77966 0.78039 0.45400
 N1384 N 0.77086 0.79798 0.44501
 N1385 N 0.71997 0.30626 0.57206
 C1386 C 0.70226 0.29767 0.58101
 N1387 N 0.69354 0.28004 0.57208
 N1388 N 0.70232 0.27121 0.55494
 C1389 C 0.72010 0.27973 0.54606
 N1390 N 0.72875 0.29743 0.55492
 N1391 N 0.72010 0.80645 1.07226
 C1392 C 0.70241 0.79782 1.08120
 N1393 N 0.69370 0.78021 1.07223
 N1394 N 0.70247 0.77143 1.05507
 C1395 C 0.72023 0.78000 1.04620
 N1396 N 0.72888 0.79768 1.05510
 N1397 N 0.22003 0.30642 1.07217
 C1398 C 0.20235 0.29781 1.08114
 N1399 N 0.19363 0.28018 1.07222
 N1400 N 0.20239 0.27136 1.05507
 C1401 C 0.22015 0.27990 1.04617
 N1402 N 0.22880 0.29760 1.05502
 N1403 N 0.19366 0.78037 0.57195
 C1404 C 0.20237 0.79798 0.58091
 N1405 N 0.22005 0.80662 0.57196
 N1406 N 0.22883 0.79784 0.55480
 C1407 C 0.22019 0.78015 0.54591
 N1408 N 0.20244 0.77158 0.55479
 N1409 N 0.28012 0.69374 0.57203
 C1410 C 0.29779 0.70238 0.58097
 N1411 N 0.30648 0.72002 0.57201
 N1412 N 0.29768 0.72883 0.55485
 C1413 C 0.27993 0.72026 0.54599
 N1414 N 0.27132 0.70254 0.55488
 N1415 N 0.30640 0.21982 1.07216
 C1416 C 0.29771 0.20221 1.08117
 N1417 N 0.28003 0.19354 1.07227
 N1418 N 0.27122 0.20230 1.05510
 C1419 C 0.27984 0.21999 1.04616
 N1420 N 0.29760 0.22858 1.05499
 N1421 N 0.77998 0.69360 1.07227
 C1422 C 0.79765 0.70224 1.08122
 N1423 N 0.80637 0.71986 1.07225
 N1424 N 0.79762 0.72864 1.05507
 C1425 C 0.77988 0.72008 1.04619
 N1426 N 0.77123 0.70238 1.05509
 N1427 N 0.80658 0.21917 0.57168
 C1428 C 0.79774 0.20170 0.58083
 N1429 N 0.77987 0.19325 0.57211
 N1430 N 0.77104 0.20207 0.55499
 C1431 C 0.77980 0.21963 0.54593
 N1432 N 0.79774 0.22800 0.55457
 N1433 N 0.69360 0.72008 0.42802
 C1434 C 0.70236 0.70246 0.41906
 N1435 N 0.72005 0.69381 0.42801
 N1436 N 0.72879 0.70259 0.44517
 C1437 C 0.72012 0.72029 0.45405
 N1438 N 0.70235 0.72886 0.44518
 N1439 N 0.69368 0.21980 -0.07224
 C1440 C 0.70245 0.20217 -0.08116
 N1441 N 0.72016 0.19357 -0.07219
 N1442 N 0.72890 0.20241 -0.05506
 C1443 C 0.72020 0.22012 -0.04620
 N1444 N 0.70242 0.22864 -0.05510
 N1445 N 0.19381 0.71996 -0.07213
 C1446 C 0.20247 0.70227 -0.08106
 N1447 N 0.22015 0.69358 -0.07212
 N1448 N 0.22897 0.70238 -0.05501
 C1449 C 0.22039 0.72015 -0.04616
 N1450 N 0.20263 0.72876 -0.05502
 N1451 N 0.21991 0.19352 0.42798
 C1452 C 0.20223 0.20220 0.41903
 N1453 N 0.19351 0.21984 0.42798
 N1454 N 0.20227 0.22861 0.44515
 C1455 C 0.22002 0.22000 0.45403
 N1456 N 0.22867 0.20228 0.44515
 N1457 N 0.30636 0.42754 0.72014
 C1458 C 0.29778 0.41878 0.70240
 N1459 N 0.28027 0.42797 0.69364
 N1460 N 0.27151 0.44518 0.70243
 C1461 C 0.28000 0.45387 0.72025
 N1462 N 0.29760 0.44476 0.72893
 N1463 N 0.28046 0.92820 0.19339
 C1464 C 0.29800 0.91903 0.20211
 N1465 N 0.30655 0.92776 0.21988
 N1466 N 0.29773 0.94491 0.22874
 C1467 C 0.28010 0.95399 0.22009
 N1468 N 0.27164 0.94534 0.20224
 N1469 N 0.80652 0.42779 0.21999
 C1470 C 0.79796 0.41907 0.20222
 N1471 N 0.78041 0.42823 0.19351
 N1472 N 0.77159 0.44537 0.20237
 C1473 C 0.78006 0.45401 0.22022
 N1474 N 0.79770 0.44494 0.22886
 N1475 N 0.80634 0.92801 0.72021
 C1476 C 0.79780 0.91926 0.70244
 N1477 N 0.78021 0.92839 0.69375
 N1478 N 0.77137 0.94551 0.70263
 C1479 C 0.77982 0.95419 0.72047
 N1480 N 0.79750 0.94514 0.72909
 N1481 N 0.69365 0.57230 0.72032
 C1482 C 0.70230 0.58118 0.70265
 N1483 N 0.71992 0.57211 0.69397
 N1484 N 0.72870 0.55491 0.70276
 C1485 C 0.72014 0.54610 0.72050
 N1486 N 0.70244 0.55509 0.72912
 N1487 N 0.69378 0.07193 0.22001
 C1488 C 0.70243 0.08075 0.20232
 N1489 N 0.72008 0.07169 0.19371
 N1490 N 0.72890 0.05456 0.20259
 C1491 C 0.72034 0.04581 0.22037
 N1492 N 0.70260 0.05479 0.22891
 N1493 N 0.19343 0.57237 0.22000
 C1494 C 0.20199 0.58113 0.20222
 N1495 N 0.21953 0.57197 0.19349
 N1496 N 0.22834 0.55482 0.20233
 C1497 C 0.21988 0.54613 0.22018
 N1498 N 0.20224 0.55520 0.22884
 N1499 N 0.21980 0.07160 0.69381
 C1500 C 0.20211 0.08059 0.70244
 N1501 N 0.19356 0.07176 0.72019
 N1502 N 0.20250 0.05468 0.72909
 C1503 C 0.22027 0.04576 0.72053
 N1504 N 0.22873 0.05452 0.70271
 N1505 N 0.30650 0.57225 0.27985
 C1506 C 0.29786 0.58110 0.29754
 N1507 N 0.28022 0.57208 0.30619
 N1508 N 0.27143 0.55494 0.29737
 C1509 C 0.28000 0.54614 0.27963
 N1510 N 0.29770 0.55510 0.27103
 N1511 N 0.30664 0.07197 0.78006
 C1512 C 0.29793 0.08085 0.79771
 N1513 N 0.28038 0.07171 0.80642
 N1514 N 0.27172 0.05446 0.79768
 C1515 C 0.28034 0.04565 0.77997
 N1516 N 0.29797 0.05471 0.77132
 N1517 N 0.80674 0.57217 0.78007
 C1518 C 0.79811 0.58103 0.79776
 N1519 N 0.78051 0.57198 0.80644
 N1520 N 0.77171 0.55483 0.79764
 C1521 C 0.78025 0.54604 0.77986
 N1522 N 0.79794 0.55501 0.77126
 N1523 N 0.80686 0.07188 0.28010
 C1524 C 0.79823 0.08074 0.29778
 N1525 N 0.78060 0.07172 0.30645
 N1526 N 0.77180 0.05457 0.29765
 C1527 C 0.78036 0.04577 0.27991
 N1528 N 0.79806 0.05472 0.27129
 N1529 N 0.69342 0.42778 0.27996
 C1530 C 0.70204 0.41890 0.29764
 N1531 N 0.71966 0.42791 0.30631
 N1532 N 0.72847 0.44507 0.29750
 C1533 C 0.71992 0.45389 0.27975
 N1534 N 0.70223 0.44494 0.27114
 N1535 N 0.69345 0.92795 0.78005
 C1536 C 0.70215 0.91901 0.79766
 N1537 N 0.71973 0.92807 0.80636
 N1538 N 0.72843 0.94532 0.79763
 C1539 C 0.71982 0.95419 0.77994
 N1540 N 0.70216 0.94520 0.77131
 N1541 N 0.21953 0.42784 0.80622
 C1542 C 0.20201 0.41872 0.79745
 N1543 N 0.19347 0.42754 0.77970
 N1544 N 0.20226 0.44473 0.77091
 C1545 C 0.21986 0.45378 0.77961
 N1546 N 0.22832 0.44503 0.79743
 N1547 N 0.19338 0.92784 0.27975
 C1548 C 0.20199 0.91897 0.29744
 N1549 N 0.21962 0.92796 0.30610
 N1550 N 0.22844 0.94510 0.29729
 C1551 C 0.21991 0.95392 0.27953
 N1552 N 0.20221 0.94499 0.27093
 N1553 N 0.42746 0.30632 0.72024
 C1554 C 0.41869 0.29778 0.70249
 N1555 N 0.42787 0.28027 0.69374
 N1556 N 0.44506 0.27148 0.70255
 C1557 C 0.45376 0.27993 0.72037
 N1558 N 0.44467 0.29753 0.72905
 N1559 N 0.42807 0.78060 0.19361
 C1560 C 0.41888 0.79810 0.20234
 N1561 N 0.42762 0.80665 0.22011
 N1562 N 0.44481 0.79785 0.22895
 C1563 C 0.45391 0.78025 0.22029
 N1564 N 0.44524 0.77181 0.20244
 N1565 N 0.92756 0.30665 0.22007
 C1566 C 0.91882 0.29811 0.20230
 N1567 N 0.92801 0.28060 0.19356
 N1568 N 0.94519 0.27181 0.20239
 C1569 C 0.95385 0.28026 0.22024
 N1570 N 0.94475 0.29786 0.22891
 N1571 N 0.92765 0.80682 0.72014
 C1572 C 0.91887 0.79828 0.70239
 N1573 N 0.92802 0.78076 0.69364
 N1574 N 0.94521 0.77195 0.70245
 C1575 C 0.95392 0.78040 0.72028
 N1576 N 0.94484 0.79801 0.72895
 N1577 N 0.57238 0.30642 0.27982
 C1578 C 0.58124 0.29786 0.29754
 N1579 N 0.57226 0.28023 0.30622
 N1580 N 0.55514 0.27136 0.29739
 C1581 C 0.54633 0.27985 0.27961
 N1582 N 0.55526 0.29755 0.27099
 N1583 N 0.57230 0.80675 0.78005
 C1584 C 0.58119 0.79813 0.79773
 N1585 N 0.57214 0.78055 0.80643
 N1586 N 0.55494 0.77177 0.79766
 C1587 C 0.54612 0.78030 0.77991
 N1588 N 0.55510 0.79797 0.77127
 N1589 N 0.07226 0.30642 0.77977
 C1590 C 0.08105 0.29789 0.79755
 N1591 N 0.07189 0.28041 0.80635
 N1592 N 0.05471 0.27163 0.79757
 C1593 C 0.04599 0.28006 0.77972
 N1594 N 0.05507 0.29763 0.77099
 N1595 N 0.07221 0.80671 0.27975
 C1596 C 0.08105 0.79814 0.29748
 N1597 N 0.07202 0.78053 0.30616
 N1598 N 0.05488 0.77170 0.29733
 C1599 C 0.04611 0.78020 0.27953
 N1600 N 0.05508 0.79788 0.27091
 N1601 N 0.57237 0.69370 0.72044
 C1602 C 0.58125 0.70230 0.70274
 N1603 N 0.57220 0.71992 0.69407
 N1604 N 0.55501 0.72874 0.70287
 C1605 C 0.54619 0.72021 0.72063
 N1606 N 0.55518 0.70252 0.72925
 N1607 N 0.57254 0.19313 0.22008
 C1608 C 0.58140 0.20174 0.20238
 N1609 N 0.57233 0.21935 0.19370
 N1610 N 0.55516 0.22816 0.20252
 C1611 C 0.54637 0.21963 0.22029
 N1612 N 0.55536 0.20194 0.22890
 N1613 N 0.07192 0.71966 0.19357
 C1614 C 0.08111 0.70216 0.20233
 N1615 N 0.07234 0.69361 0.22011
 N1616 N 0.05514 0.70240 0.22893
 C1617 C 0.04604 0.72000 0.22024
 N1618 N 0.05473 0.72845 0.20238
 N1619 N 0.07206 0.19316 0.72022
 C1620 C 0.08091 0.20171 0.70248
 N1621 N 0.07189 0.21934 0.69380
 N1622 N 0.05476 0.22823 0.70264
 C1623 C 0.04598 0.21978 0.72045
 N1624 N 0.05492 0.20206 0.72907
 N1625 N 0.42764 0.69347 0.27979
 C1626 C 0.41876 0.70203 0.29749
 N1627 N 0.42773 0.71964 0.30617
 N1628 N 0.44488 0.72850 0.29736
 C1629 C 0.45372 0.72001 0.27960
 N1630 N 0.44480 0.70233 0.27097
 N1631 N 0.42753 0.19330 0.77987
 C1632 C 0.41863 0.20190 0.79756
 N1633 N 0.42767 0.21949 0.80625
 N1634 N 0.44485 0.22829 0.79745
 C1635 C 0.45368 0.21978 0.77970
 N1636 N 0.44472 0.20211 0.77107
 N1637 N 0.92789 0.71978 0.80626
 C1638 C 0.91888 0.70218 0.79758
 N1639 N 0.92777 0.69360 0.77988
 N1640 N 0.94491 0.70245 0.77105
 C1641 C 0.95383 0.72015 0.77965
 N1642 N 0.94502 0.72864 0.79743
 N1643 N 0.92774 0.19338 0.27981
 C1644 C 0.91886 0.20192 0.29754
 N1645 N 0.92783 0.21955 0.30621
 N1646 N 0.94495 0.22844 0.29737
 C1647 C 0.95376 0.21997 0.27959
 N1648 N 0.94486 0.20228 0.27097
 N1649 N 0.27995 0.30639 0.57204
 C1650 C 0.29764 0.29773 0.58098
 N1651 N 0.30632 0.28005 0.57207
 N1652 N 0.29751 0.27122 0.55497
 C1653 C 0.27974 0.27980 0.54610
 N1654 N 0.27113 0.29756 0.55494
 N1655 N 0.30669 0.78023 0.07187
 C1656 C 0.29800 0.79792 0.08074
 N1657 N 0.28034 0.80659 0.07175
 N1658 N 0.27157 0.79777 0.05463
 C1659 C 0.28019 0.78000 0.04582
 N1660 N 0.29792 0.77140 0.05474
 N1661 N 0.78002 0.30667 0.07187
 C1662 C 0.79775 0.29804 0.08077
 N1663 N 0.80645 0.28038 0.07183
 N1664 N 0.79763 0.27155 0.05473
 C1665 C 0.77982 0.28011 0.04590
 N1666 N 0.77119 0.29784 0.05477
 N1667 N 0.80645 0.78049 0.57203
 C1668 C 0.79775 0.79817 0.58094
 N1669 N 0.78004 0.80680 0.57202
 N1670 N 0.77122 0.79796 0.55493
 C1671 C 0.77984 0.78021 0.54608
 N1672 N 0.79763 0.77165 0.55493
 N1673 N 0.27992 0.69362 0.42777
 C1674 C 0.29759 0.70225 0.41878
 N1675 N 0.30632 0.71987 0.42770
 N1676 N 0.29758 0.72868 0.44486
 C1677 C 0.27983 0.72013 0.45378
 N1678 N 0.27118 0.70243 0.44493
 N1679 N 0.30625 0.21955 0.92798
 C1680 C 0.29754 0.20192 0.91906
 N1681 N 0.27985 0.19330 0.92802
 N1682 N 0.27107 0.20213 0.94516
 C1683 C 0.27971 0.21984 0.95401
 N1684 N 0.29747 0.22838 0.94512
 N1685 N 0.78012 0.69359 0.92802
 C1686 C 0.79780 0.70222 0.91906
 N1687 N 0.80650 0.71985 0.92799
 N1688 N 0.79772 0.72866 0.94513
 C1689 C 0.77996 0.72011 0.95402
 N1690 N 0.77133 0.70240 0.94516
 N1691 N 0.77996 0.19330 0.42779
 C1692 C 0.79764 0.20195 0.41885
 N1693 N 0.80633 0.21958 0.42780
 N1694 N 0.79754 0.22836 0.44496
 C1695 C 0.77978 0.21980 0.45383
 N1696 N 0.77116 0.20209 0.44495
 N1697 N 0.72005 0.30626 0.42776
 C1698 C 0.70239 0.29763 0.41880
 N1699 N 0.69366 0.28001 0.42776
 N1700 N 0.70240 0.27121 0.44493
 C1701 C 0.72014 0.27976 0.45383
 N1702 N 0.72879 0.29746 0.44494
 N1703 N 0.69365 0.78036 0.92808
 C1704 C 0.70235 0.79799 0.91911
 N1705 N 0.72005 0.80661 0.92802
 N1706 N 0.72885 0.79779 0.94516
 C1707 C 0.72022 0.78009 0.95405
 N1708 N 0.70245 0.77155 0.94521
 N1709 N 0.19339 0.28011 0.92806
 C1710 C 0.20208 0.29775 0.91910
 N1711 N 0.21978 0.30637 0.92800
 N1712 N 0.22860 0.29755 0.94513
 C1713 C 0.21999 0.27983 0.95402
 N1714 N 0.20221 0.27129 0.94519
 N1715 N 0.21994 0.80657 0.42769
 C1716 C 0.20226 0.79792 0.41878
 N1717 N 0.19357 0.78030 0.42777
 N1718 N 0.20238 0.77152 0.44493
 C1719 C 0.22014 0.78009 0.45376
 N1720 N 0.22875 0.79779 0.44484
 N1721 N 0.69364 0.72000 0.57228
 C1722 C 0.70237 0.70234 0.58121
 N1723 N 0.72006 0.69371 0.57225
 N1724 N 0.72884 0.70253 0.55510
 C1725 C 0.72018 0.72026 0.54624
 N1726 N 0.70241 0.72882 0.55513
 N1727 N 0.72024 0.19349 0.07200
 C1728 C 0.70254 0.20209 0.08098
 N1729 N 0.69378 0.21974 0.07208
 N1730 N 0.70251 0.22860 0.05494
 C1731 C 0.72029 0.22007 0.04602
 N1732 N 0.72898 0.20235 0.05485
 N1733 N 0.19374 0.72004 0.07188
 C1734 C 0.20237 0.70233 0.08081
 N1735 N 0.22006 0.69365 0.07190
 N1736 N 0.22893 0.70246 0.05479
 C1737 C 0.22037 0.72024 0.04593
 N1738 N 0.20260 0.72886 0.05478
 N1739 N 0.19350 0.21972 0.57232
 C1740 C 0.20220 0.20204 0.58124
 N1741 N 0.21987 0.19337 0.57225
 N1742 N 0.22864 0.20219 0.55510
 C1743 C 0.22001 0.21994 0.54625
 N1744 N 0.20227 0.22853 0.55517
   
