data_POSCAR
  _audit_creation_date              2014-09-24
  _audit_creation_method            'ToBaCCo'
  _symmetry_space_group_name_H-M    'P1'
  _symmetry_Int_Tables_number       1
  _symmetry_cell_setting            triclinic
  loop_
  _symmetry_equiv_pos_as_xyz
 x,y,z
_cell_length_a 101.3849
_cell_length_b 101.2512
_cell_length_c 101.2983
_cell_angle_alpha 90.064400
_cell_angle_beta 90.026900
_cell_angle_gamma 90.054800
loop_
  _atom_site_label
  _atom_site_type_symbol
  _atom_site_fract_x
  _atom_site_fract_y
  _atom_site_fract_z
C1 C 0.30973 0.44076 0.92458
 N2 N 0.30429 0.42990 0.93028
 C3 C 0.30988 0.42432 0.94110
 N4 N 0.32106 0.42969 0.94621
 C5 C 0.32667 0.44055 0.94065
 N6 N 0.32091 0.44600 0.92982
 C7 C 0.43998 0.82728 0.43948
 N8 N 0.44527 0.82181 0.42842
 C9 C 0.43998 0.81074 0.42296
 N10 N 0.42922 0.80513 0.42867
 C11 C 0.42380 0.81043 0.43973
 N12 N 0.42923 0.82150 0.44505
 C13 C 0.93845 0.92219 0.81191
 N14 N 0.94393 0.92770 0.82285
 C15 C 0.93858 0.93865 0.82851
 N16 N 0.92758 0.94405 0.82304
 C17 C 0.92197 0.93867 0.81210
 N18 N 0.92746 0.92773 0.80661
 C19 C 0.43790 -0.07856 0.31117
 N20 N 0.42700 -0.07286 0.30581
 C21 C 0.42153 -0.06191 0.31131
 N22 N 0.42708 -0.05664 0.32233
 C23 C 0.43797 -0.06217 0.32784
 N24 N 0.44330 -0.07311 0.32220
 C25 C 0.81058 0.31044 0.32635
 N26 N 0.80534 0.32147 0.32082
 C27 C 0.81098 0.32710 0.31004
 N28 N 0.82202 0.32159 0.30481
 C29 C 0.82740 0.31055 0.31020
 N30 N 0.82162 0.30506 0.32098
 C31 C -0.18902 0.82762 0.81083
 N32 N -0.19469 0.82196 0.82159
 C33 C -0.18944 0.81095 0.82718
 N34 N -0.17834 0.80563 0.82183
 C35 C -0.17253 0.81115 0.81108
 N36 N -0.17793 0.82215 0.80566
 C37 C 0.93952 0.32773 0.43933
 N38 N 0.94481 0.32234 0.42822
 C39 C 0.93955 0.31127 0.42273
 N40 N 0.92884 0.30559 0.42844
 C41 C 0.92342 0.31081 0.43954
 N42 N 0.92881 0.32187 0.44490
 C43 C 0.43974 0.43915 0.82727
 N44 N 0.42902 0.44483 0.82154
 C45 C 0.42360 0.43967 0.81040
 N46 N 0.42900 0.42865 0.80498
 C47 C 0.43971 0.42284 0.81054
 N48 N 0.44500 0.42814 0.82167
 C49 C 0.81132 0.92311 0.93924
 N50 N 0.80589 0.92862 0.92828
 C51 C 0.81145 0.93937 0.92249
 N52 N 0.82260 0.94462 0.92778
 C53 C 0.82821 0.93929 0.93873
 N54 N 0.82248 0.92854 0.94438
 C55 C 0.31061 0.82792 0.31023
 N56 N 0.32169 0.82243 0.30503
 C57 C 0.32711 0.81142 0.31043
 N58 N 0.32134 0.80588 0.32118
 C59 C 0.31026 0.81119 0.32652
 N60 N 0.30498 0.82220 0.32099
 C61 C 0.81001 0.42408 0.43982
 N62 N 0.82107 0.42958 0.44505
 C63 C 0.82672 0.44035 0.43940
 N64 N 0.82121 0.44559 0.42836
 C65 C 0.81015 0.44021 0.42299
 N66 N 0.80463 0.42945 0.42877
 C67 C 0.93988 0.82758 -0.06082
 N68 N 0.94523 0.82210 -0.07185
 C69 C 0.94000 0.81101 -0.07735
 N70 N 0.92924 0.80539 -0.07163
 C71 C 0.92375 0.81069 -0.06061
 N72 N 0.92912 0.82178 -0.05528
 C73 C 0.30955 0.32547 0.80940
 N74 N 0.32073 0.32013 0.80430
 C75 C 0.32633 0.30930 0.80986
 N76 N 0.32062 0.30381 0.82069
 C77 C 0.30944 0.30902 0.82593
 N78 N 0.30398 0.31986 0.82023
 C79 C 0.17374 0.56055 0.56017
 N80 N 0.17904 0.55526 0.57129
 C81 C 0.18978 0.56082 0.57711
 N82 N 0.19518 0.57184 0.57170
 C83 C 0.19001 0.57727 0.56059
 N84 N 0.17928 0.57158 0.55490
 C85 C 0.57613 0.69112 0.05869
 N86 N 0.57049 0.68022 0.05323
 C87 C 0.55937 0.67488 0.05848
 N88 N 0.55391 0.68055 0.06935
 C89 C 0.55941 0.69144 0.07494
 N90 N 0.57053 0.69665 0.06956
 C91 C 0.69098 0.19137 0.67417
 N92 N 0.68010 0.19679 0.67982
 C93 C 0.67479 0.19151 0.69094
 N94 N 0.68047 0.18065 0.69639
 C95 C 0.69135 0.17510 0.69087
 N96 N 0.69653 0.18051 0.67975
 C97 C 1.07511 0.05781 0.19153
 N98 N 1.06959 0.05239 0.18055
 C99 C 1.05862 0.05772 0.17495
 N100 N 1.05317 0.06865 0.18052
 C101 C 1.05852 0.07422 0.19150
 N102 N 1.06949 0.06875 0.19692
 C103 C 0.05963 0.17404 1.05962
 N104 N 0.05421 0.17975 1.07049
 C105 C 0.05969 0.19067 1.07609
 N106 N 0.07079 0.19588 1.07063
 C107 C 0.07636 0.19034 1.05976
 N108 N 0.07073 0.17942 1.05434
 C109 C 0.17371 0.68977 0.68999
 N110 N 0.17906 0.69510 0.67891
 C111 C 0.18980 0.68955 0.67313
 N112 N 0.19517 0.67851 0.67853
 C113 C 0.18995 0.67305 0.68961
 N114 N 0.17921 0.67873 0.69526
 C115 C 1.19091 0.17389 0.19017
 N116 N 1.19600 0.17929 0.17899
 C117 C 1.19047 0.19017 0.17340
 N118 N 1.17968 0.19565 0.17918
 C119 C 1.17444 0.19042 0.19035
 N120 N 1.18011 0.17954 0.19576
 C121 C 0.67461 1.05990 0.55911
 N122 N 0.67991 1.07113 0.55405
 C123 C 0.69074 1.07679 0.55962
 N124 N 0.69625 1.07102 0.57042
 C125 C 0.69108 1.05978 0.57562
 N126 N 0.68025 1.05430 0.56991
 C127 C 0.55803 0.55782 0.17539
 N128 N 0.56899 0.55248 0.18097
 C129 C 0.57450 0.55797 0.19191
 N130 N 0.56895 0.56896 0.19724
 C131 C 0.55799 0.57443 0.19180
 N132 N 0.55261 0.56881 0.18086
 C133 C 0.67413 0.69093 0.19050
 N134 N 0.67982 0.68009 0.19596
 C135 C 0.69065 0.67448 0.19039
 N136 N 0.69576 0.67983 0.17921
 C137 C 0.69021 0.69067 0.17362
 N138 N 0.67938 0.69615 0.17932
 C139 C 0.17423 0.05909 1.05886
 N140 N 0.17971 0.07023 1.05376
 C141 C 0.19056 0.07578 1.05935
 N142 N 0.19595 0.07008 1.07022
 C143 C 0.19065 0.05893 1.07551
 N144 N 0.17979 0.05353 1.06974
 C145 C 0.57578 0.19132 0.55861
 N146 N 0.57009 0.18045 0.55314
 C147 C 0.55895 0.17515 0.55839
 N148 N 0.55352 0.18083 0.56926
 C149 C 0.55906 0.19170 0.57486
 N150 N 0.57021 0.19687 0.56949
 C151 C 0.07605 0.55897 0.69109
 N152 N 0.07046 0.55343 0.68022
 C153 C 0.05935 0.55863 0.67481
 N154 N 0.05386 0.56952 0.68039
 C155 C 0.05931 0.57519 0.69127
 N156 N 0.07042 0.56986 0.69654
 C157 C 0.67459 0.55966 0.05851
 N158 N 0.68017 0.55410 0.06936
 C159 C 0.69104 0.55953 0.07505
 N160 N 0.69631 0.57068 0.06978
 C161 C 0.69087 0.57638 0.05893
 N162 N 0.68000 0.57081 0.05337
 C163 C 0.05945 0.69157 0.57550
 N164 N 0.05393 0.68070 0.56988
 C165 C 0.05938 0.67506 0.55899
 N166 N 0.07051 0.68040 0.55376
 C167 C 0.07617 0.69127 0.55926
 N168 N 0.07058 0.69677 0.57014
 C169 C 0.55837 1.05784 0.67468
 N170 N 0.55292 1.06880 0.68021
 C171 C 0.55824 1.07439 0.69119
 N172 N 0.56918 1.06893 0.69666
 C173 C 0.57478 1.05797 0.69131
 N174 N 0.56932 1.05251 0.68033
 C175 C 0.43971 0.32719 0.93948
 N176 N 0.42895 0.32138 0.94502
 C177 C 0.42359 0.31028 0.93971
 N178 N 0.42908 0.30497 0.92869
 C179 C 0.43983 0.31061 0.92300
 N180 N 0.44507 0.32171 0.92845
 C181 C 0.93801 0.43771 0.32870
 N182 N 0.94345 0.42684 0.32299
 C183 C 0.93809 0.42140 0.31196
 N184 N 0.92711 0.42693 0.30662
 C185 C 0.92153 0.43779 0.31216
 N186 N 0.92703 0.44310 0.32319
 C187 C 0.31145 0.93980 0.42225
 N188 N 0.32252 0.94514 0.42763
 C189 C 0.32799 0.93996 0.43874
 N190 N 0.32220 0.92926 0.44443
 C191 C 0.31113 0.92379 0.43919
 N192 N 0.30584 0.92911 0.42808
 O193 O 0.26715 0.46468 0.75109
 O194 O 0.26521 0.46924 0.72808
 O195 O 0.28532 0.49923 0.76690
 O196 O 0.28144 0.52102 0.76748
 O197 O 0.25078 0.48289 0.78547
 O198 O 0.22783 0.48377 0.78062
 O199 O 0.24944 0.53432 0.73305
 O200 O 0.27195 0.53057 0.73562
 O201 O 0.23286 0.50090 0.71590
 O202 O 0.23480 0.47823 0.71926
 O203 O 0.21564 0.51677 0.74934
 O204 O 0.22019 0.51620 0.77298
 O205 O 0.23353 0.53433 0.74888
 O206 O 0.23490 0.52955 0.77336
 O207 O 0.21547 0.50081 0.73358
 O208 O 0.22066 0.47643 0.73521
 O209 O 0.24851 0.51698 0.71596
 O210 O 0.27234 0.51274 0.71990
 O211 O 0.25106 0.46452 0.76674
 O212 O 0.22765 0.46948 0.76559
 O213 O 0.26662 0.49878 0.78558
 O214 O 0.26462 0.52264 0.78024
 O215 O 0.28523 0.48286 0.75149
 O216 O 0.28017 0.48716 0.72777
 Zr217 Zr 0.26625 0.48385 0.74311
 O218 O 0.25433 0.49532 0.73054
 Zr219 Zr 0.26605 0.50696 0.76648
 O220 O 0.25460 0.51961 0.75462
 Zr221 Zr 0.24294 0.48368 0.76625
 O222 O 0.23026 0.49546 0.75477
 Zr223 Zr 0.25762 0.51538 0.73456
 O224 O 0.27051 0.50397 0.74640
 Zr225 Zr 0.23434 0.49226 0.73470
 O226 O 0.24614 0.47941 0.74617
 Zr227 Zr 0.23454 0.51555 0.75783
 O228 O 0.24599 0.50376 0.77076
 O229 O 0.26286 0.48703 0.76310
 O230 O 0.23757 0.51231 0.73780
 C231 C 0.26038 0.45894 0.76017
 C232 C 0.29093 0.48978 0.76050
 C233 C 0.25994 0.48956 0.79120
 C234 C 0.23997 0.53985 0.73942
 C235 C 0.23908 0.51052 0.71044
 C236 C 0.21002 0.51031 0.73997
 H237 H 0.25633 0.49315 0.72122
 H238 H 0.22101 0.49334 0.75699
 H239 H 0.26848 0.48141 0.76877
 H240 H 0.25685 0.52890 0.75660
 H241 H 0.28032 0.52631 0.73829
 H242 H 0.27954 0.52775 0.76068
 H243 H 0.21434 0.47815 0.74245
 H244 H 0.22848 0.46485 0.75702
 H245 H 0.27192 0.52038 0.71379
 H246 H 0.28743 0.48065 0.72853
 H247 H 0.21509 0.50787 0.77256
 H248 H 0.22796 0.49265 0.78471
 H249 H 0.27315 0.46354 0.72862
 H250 H 0.24140 0.47153 0.72186
 H251 H 0.25649 0.52112 0.78543
 H252 H 0.24224 0.53576 0.77166
 O253 O 0.21456 0.01707 0.24854
 O254 O 0.21921 0.01524 0.27155
 O255 O 0.24901 0.03523 0.23262
 O256 O 0.27077 0.03135 0.23197
 O257 O 0.23264 0.00053 0.21417
 O258 O 0.23357 -0.02243 0.21909
 O259 O 0.28419 -0.00054 0.26652
 O260 O 0.28043 0.02200 0.26385
 O261 O 0.25091 -0.01706 0.28376
 O262 O 0.22824 -0.01515 0.28044
 O263 O 0.26667 -0.03443 0.25035
 O264 O 0.26597 -0.03000 0.22668
 O265 O 0.28416 -0.01653 0.25072
 O266 O 0.27931 -0.01526 0.22623
 O267 O 0.25080 -0.03454 0.26616
 O268 O 0.22642 -0.02940 0.26453
 O269 O 0.26695 -0.00137 0.28362
 O270 O 0.26268 0.02247 0.27961
 O271 O 0.21437 0.00086 0.23295
 O272 O 0.21936 -0.02255 0.23414
 O273 O 0.24849 0.01641 0.21398
 O274 O 0.27235 0.01445 0.21928
 O275 O 0.23271 0.03520 0.24804
 O276 O 0.23709 0.03024 0.27177
 Zr277 Zr 0.23374 0.01623 0.25648
 O278 O 0.24526 0.00437 0.26907
 Zr279 Zr 0.25674 0.01594 0.23306
 O280 O 0.26943 0.00455 0.24493
 Zr281 Zr 0.23352 -0.00723 0.23341
 O282 O 0.24533 -0.01986 0.24491
 Zr283 Zr 0.26527 0.00766 0.26500
 O284 O 0.25382 0.02049 0.25314
 Zr285 Zr 0.24221 -0.01568 0.26497
 O286 O 0.22932 -0.00393 0.25349
 Zr287 Zr 0.26538 -0.01556 0.24180
 O288 O 0.25355 -0.00417 0.22885
 O289 O 0.23685 0.01274 0.23649
 O290 O 0.26221 -0.01243 0.26182
 C291 C 0.20880 0.01023 0.23950
 C292 C 0.23960 0.04087 0.23902
 C293 C 0.23927 0.00969 0.20840
 C294 C 0.28969 -0.01006 0.26018
 C295 C 0.26054 -0.01081 0.28918
 C296 C 0.26028 -0.04002 0.25977
 H297 H 0.24312 0.00640 0.27838
 H298 H 0.24322 -0.02914 0.24273
 H299 H 0.23121 0.01834 0.23082
 H300 H 0.27870 0.00680 0.24293
 H301 H 0.27616 0.03038 0.26117
 H302 H 0.27751 0.02951 0.23877
 H303 H 0.22814 -0.03579 0.25734
 H304 H 0.21478 -0.02171 0.24273
 H305 H 0.27034 0.02209 0.28569
 H306 H 0.23058 0.03750 0.27101
 H307 H 0.25768 -0.03513 0.22716
 H308 H 0.24243 -0.02230 0.21498
 H309 H 0.21351 0.02318 0.27099
 H310 H 0.22153 -0.00857 0.27782
 H311 H 0.27081 0.00629 0.21411
 H312 H 0.28553 -0.00790 0.22792
 O313 O 0.50069 0.71474 0.23251
 O314 O 0.47769 0.71926 0.23437
 O315 O 0.51642 0.74930 0.21434
 O316 O 0.51700 0.77109 0.21823
 O317 O 0.53497 0.73306 0.24898
 O318 O 0.53008 0.73399 0.27193
 O319 O 0.48246 0.78439 0.25016
 O320 O 0.48509 0.78058 0.22762
 O321 O 0.46540 0.75100 0.26672
 O322 O 0.46879 0.72832 0.26479
 O323 O 0.49874 0.76698 0.28401
 O324 O 0.52236 0.76644 0.27953
 O325 O 0.49825 0.78447 0.26611
 O326 O 0.52275 0.77975 0.26478
 O327 O 0.48302 0.75099 0.28415
 O328 O 0.48472 0.72659 0.27898
 O329 O 0.46544 0.76703 0.25104
 O330 O 0.46942 0.76272 0.22720
 O331 O 0.51629 0.71466 0.24867
 O332 O 0.51509 0.71968 0.27208
 O333 O 0.53508 0.74891 0.23311
 O334 O 0.52967 0.77278 0.23510
 O335 O 0.50109 0.73288 0.21439
 O336 O 0.47736 0.73714 0.21940
 Zr337 Zr 0.49267 0.73389 0.23337
 O338 O 0.48006 0.74538 0.24526
 Zr339 Zr 0.51597 0.75706 0.23363
 O340 O 0.50407 0.76971 0.24504
 Zr341 Zr 0.51575 0.73384 0.25677
 O342 O 0.50423 0.74563 0.26942
 Zr343 Zr 0.48404 0.76543 0.24197
 O344 O 0.49592 0.75401 0.22911
 Zr345 Zr 0.48419 0.74238 0.26529
 O346 O 0.49570 0.72952 0.25351
 Zr347 Zr 0.50725 0.76572 0.26512
 O348 O 0.52022 0.75392 0.25372
 O349 O 0.51264 0.73713 0.23682
 O350 O 0.48726 0.76242 0.26203
 C351 C 0.50975 0.70903 0.23933
 C352 C 0.51007 0.73983 0.20870
 C353 C 0.54070 0.73971 0.23982
 C354 C 0.48878 0.78995 0.25966
 C355 C 0.45993 0.76060 0.26049
 C356 C 0.48937 0.76053 0.28962
 H357 H 0.47076 0.74318 0.24324
 H358 H 0.50643 0.74355 0.27869
 H359 H 0.51832 0.73150 0.23121
 H360 H 0.50602 0.77901 0.24278
 H361 H 0.48778 0.77630 0.21925
 H362 H 0.51015 0.77778 0.22006
 H363 H 0.49191 0.72836 0.28535
 H364 H 0.50654 0.71504 0.27124
 H365 H 0.46331 0.77035 0.22760
 H366 H 0.47815 0.73062 0.21213
 H367 H 0.52196 0.75812 0.28463
 H368 H 0.53415 0.74288 0.27180
 H369 H 0.47825 0.71354 0.22643
 H370 H 0.47141 0.72161 0.25819
 H371 H 0.53486 0.77127 0.24324
 H372 H 0.52101 0.78596 0.25745
 O373 O 0.00111 0.71469 0.73324
 O374 O -0.02189 0.71921 0.73518
 O375 O 0.01680 0.74926 0.71506
 O376 O 0.01741 0.77105 0.71898
 O377 O 0.03542 0.73297 0.74964
 O378 O 0.03060 0.73390 0.77261
 O379 O -0.01705 0.78433 0.75099
 O380 O -0.01448 0.78055 0.72845
 O381 O -0.03409 0.75092 0.76756
 O382 O -0.03069 0.72825 0.76563
 O383 O -0.00070 0.76691 0.78479
 O384 O 0.02290 0.76634 0.78026
 O385 O -0.00121 0.78440 0.76690
 O386 O 0.02328 0.77965 0.76551
 O387 O -0.01644 0.75093 0.78496
 O388 O -0.01473 0.72652 0.77978
 O389 O -0.03408 0.76697 0.75191
 O390 O -0.03016 0.76269 0.72806
 O391 O 0.01674 0.71459 0.74937
 O392 O 0.01560 0.71960 0.77279
 O393 O 0.03550 0.74883 0.73378
 O394 O 0.03012 0.77271 0.73581
 O395 O 0.00145 0.73285 0.71514
 O396 O -0.02226 0.73710 0.72022
 Zr397 Zr -0.00691 0.73385 0.73414
 O398 O -0.01948 0.74533 0.74607
 Zr399 Zr 0.01640 0.75700 0.73436
 O400 O 0.00454 0.76965 0.74581
 Zr401 Zr 0.01623 0.73377 0.75749
 O402 O 0.00475 0.74556 0.77018
 Zr403 Zr -0.01550 0.76538 0.74279
 O404 O -0.00366 0.75397 0.72989
 Zr405 Zr -0.01530 0.74232 0.76609
 O406 O -0.00382 0.72945 0.75427
 Zr407 Zr 0.00777 0.76564 0.76588
 O408 O 0.02071 0.75384 0.75443
 O409 O 0.01306 0.73707 0.73754
 O410 O -0.01223 0.76236 0.76284
 C411 C 0.01019 0.70897 0.74002
 C412 C 0.01042 0.73980 0.70944
 C413 C 0.04113 0.73962 0.74046
 C414 C -0.01069 0.78989 0.76048
 C415 C -0.03957 0.76053 0.76135
 C416 C -0.01007 0.76047 0.79041
 H417 H -0.02879 0.74313 0.74408
 H418 H 0.00697 0.74346 0.77944
 H419 H 0.01873 0.73145 0.73192
 H420 H 0.00649 0.77895 0.74356
 H421 H -0.01182 0.77627 0.72007
 H422 H 0.01056 0.77773 0.72083
 H423 H -0.00754 0.72830 0.78614
 H424 H 0.00704 0.71496 0.77197
 H425 H -0.03627 0.77032 0.72847
 H426 H -0.02149 0.73059 0.71295
 H427 H 0.02251 0.75803 0.78536
 H428 H 0.03468 0.74279 0.77248
 H429 H -0.02135 0.71350 0.72723
 H430 H -0.02809 0.72155 0.75902
 H431 H 0.03535 0.77118 0.74393
 H432 H 0.02154 0.78587 0.75819
 O433 O 0.00109 0.03526 0.01754
 O434 O -0.02188 0.03062 0.01541
 O435 O 0.01695 0.00069 0.03542
 O436 O 0.01772 -0.02105 0.03139
 O437 O 0.03560 0.01693 0.00058
 O438 O 0.03169 0.01766 -0.02093
 O439 O -0.01688 -0.03438 -0.00065
 O440 O -0.01441 -0.03065 0.02191
 O441 O -0.03395 -0.00089 -0.01713
 O442 O -0.03053 0.02174 -0.01527
 O443 O -0.00058 -0.01696 -0.03432
 O444 O 0.02223 -0.01511 -0.03058
 O445 O -0.00112 -0.03434 -0.01663
 O446 O 0.02306 -0.03003 -0.01484
 O447 O -0.01628 -0.00097 -0.03446
 O448 O -0.01447 0.02351 -0.02927
 O449 O -0.03394 -0.01704 -0.00157
 O450 O -0.03007 -0.01282 0.02233
 O451 O 0.01680 0.03545 0.00151
 O452 O 0.01451 0.03026 -0.02247
 O453 O 0.03563 0.00128 0.01665
 O454 O 0.03024 -0.02264 0.01455
 O455 O 0.00154 0.01700 0.03544
 O456 O -0.02216 0.01265 0.03034
 Zr457 Zr -0.00684 0.01607 0.01644
 O458 O -0.01937 0.00462 0.00440
 Zr459 Zr 0.01654 -0.00695 0.01607
 O460 O 0.00465 -0.01960 0.00464
 Zr461 Zr 0.01628 0.01639 -0.00692
 O462 O 0.00492 0.00447 -0.01968
 Zr463 Zr -0.01539 -0.01543 0.00763
 O464 O -0.00353 -0.00405 0.02058
 Zr465 Zr -0.01513 0.00770 -0.01561
 O466 O -0.00377 0.02059 -0.00365
 Zr467 Zr 0.00790 -0.01561 -0.01543
 O468 O 0.02082 -0.00372 -0.00401
 O469 O 0.01315 0.01298 0.01301
 O470 O -0.01210 -0.01233 -0.01240
 C471 C 0.01021 0.04101 0.01084
 C472 C 0.01054 0.01008 0.04110
 C473 C 0.04129 0.01037 0.00983
 C474 C -0.01056 -0.03989 -0.01018
 C475 C -0.03943 -0.01055 -0.01099
 C476 C -0.00996 -0.01052 -0.03992
 H477 H -0.02868 0.00679 0.00637
 H478 H 0.00718 0.00643 -0.02896
 H479 H 0.01885 0.01857 0.01865
 H480 H 0.00657 -0.02889 0.00693
 H481 H -0.01175 -0.02641 0.03031
 H482 H 0.01063 -0.02756 0.02975
 H483 H -0.00742 0.02161 -0.03574
 H484 H 0.00661 0.03568 -0.02059
 H485 H -0.03619 -0.02045 0.02185
 H486 H -0.02143 0.01915 0.03763
 H487 H 0.03003 -0.01050 -0.02689
 H488 H 0.02946 0.01154 -0.02820
 H489 H -0.02141 0.03628 0.02340
 H490 H -0.02805 0.02835 -0.00851
 H491 H 0.03544 -0.02108 0.00642
 H492 H 0.02130 -0.03606 -0.00737
 O493 O 0.03526 0.51750 0.50066
 O494 O 0.03062 0.51536 0.47768
 O495 O 0.00087 0.53562 0.51655
 O496 O -0.02088 0.53172 0.51732
 O497 O 0.01687 0.50070 0.53524
 O498 O 0.01749 0.47917 0.53134
 O499 O -0.03438 0.49973 0.48275
 O500 O -0.03051 0.52226 0.48518
 O501 O -0.00105 0.48296 0.46567
 O502 O 0.02158 0.48472 0.46906
 O503 O -0.01716 0.46592 0.49908
 O504 O -0.01532 0.46970 0.52191
 O505 O -0.03444 0.48373 0.49851
 O506 O -0.03012 0.48553 0.52272
 O507 O -0.00117 0.46566 0.48337
 O508 O 0.02328 0.47073 0.48514
 O509 O -0.01707 0.49863 0.46567
 O510 O -0.01271 0.52253 0.46950
 O511 O 0.03537 0.50150 0.51640
 O512 O 0.03005 0.47754 0.51415
 O513 O 0.00134 0.51687 0.53526
 O514 O -0.02256 0.51491 0.52989
 O515 O 0.01715 0.53552 0.50111
 O516 O 0.01276 0.53041 0.47740
 Zr517 Zr 0.01610 0.51650 0.49274
 O518 O 0.00460 0.50451 0.48022
 Zr519 Zr -0.00688 0.51632 0.51616
 O520 O -0.01959 0.50493 0.50428
 Zr521 Zr 0.01629 0.49317 0.51590
 O522 O 0.00431 0.48046 0.50456
 Zr523 Zr -0.01540 0.50786 0.48421
 O524 O -0.00397 0.52077 0.49607
 Zr525 Zr 0.00756 0.48448 0.48448
 O526 O 0.02050 0.49638 0.49584
 Zr527 Zr -0.01572 0.48483 0.50754
 O528 O -0.00378 0.49620 0.52046
 O529 O 0.01300 0.51312 0.51276
 O530 O -0.01243 0.48781 0.48753
 C531 C 0.04098 0.51080 0.50979
 C532 C 0.01028 0.54124 0.51012
 C533 C 0.01037 0.51000 0.54093
 C534 C -0.03993 0.49022 0.48908
 C535 C -0.01066 0.48915 0.46018
 C536 C -0.01073 0.46026 0.48971
 H537 H 0.00677 0.50645 0.47090
 H538 H 0.00622 0.47116 0.50683
 H539 H 0.01861 0.51874 0.51846
 H540 H -0.02885 0.50728 0.50620
 H541 H -0.02622 0.53064 0.48784
 H542 H -0.02739 0.53010 0.51024
 H543 H 0.02137 0.46429 0.49223
 H544 H 0.03549 0.47937 0.50624
 H545 H -0.02033 0.52208 0.46337
 H546 H 0.01929 0.53766 0.47812
 H547 H -0.01069 0.47337 0.52970
 H548 H 0.01132 0.47194 0.52913
 H549 H 0.03631 0.52333 0.47814
 H550 H 0.02822 0.49144 0.47153
 H551 H -0.02105 0.50677 0.53509
 H552 H -0.03609 0.49304 0.52095
 O553 O 0.53549 0.01728 0.50066
 O554 O 0.53088 0.01514 0.47767
 O555 O 0.50102 0.03531 0.51652
 O556 O 0.47930 0.03135 0.51731
 O557 O 0.51711 0.00041 0.53520
 O558 O 0.51778 -0.02112 0.53129
 O559 O 0.46591 -0.00063 0.48267
 O560 O 0.46972 0.02190 0.48514
 O561 O 0.49927 -0.01731 0.46560
 O562 O 0.52190 -0.01551 0.46901
 O563 O 0.48319 -0.03443 0.49899
 O564 O 0.48498 -0.03066 0.52181
 O565 O 0.46587 -0.01665 0.49840
 O566 O 0.47016 -0.01485 0.52263
 O567 O 0.49918 -0.03463 0.48329
 O568 O 0.52362 -0.02952 0.48508
 O569 O 0.48323 -0.00166 0.46560
 O570 O 0.48754 0.02224 0.46947
 O571 O 0.53563 0.00126 0.51639
 O572 O 0.53036 -0.02272 0.51411
 O573 O 0.50154 0.01654 0.53523
 O574 O 0.47765 0.01451 0.52983
 O575 O 0.51733 0.03526 0.50109
 O576 O 0.51298 0.03015 0.47738
 Zr577 Zr 0.51634 0.01624 0.49272
 O578 O 0.50487 0.00423 0.48018
 Zr579 Zr 0.49334 0.01598 0.51613
 O580 O 0.48067 0.00458 0.50422
 Zr581 Zr 0.51657 -0.00711 0.51586
 O582 O 0.50461 -0.01983 0.50450
 Zr583 Zr 0.48486 0.00755 0.48416
 O584 O 0.49626 0.02047 0.49604
 Zr585 Zr 0.50787 -0.01579 0.48442
 O586 O 0.52078 -0.00387 0.49580
 Zr587 Zr 0.48457 -0.01552 0.50746
 O588 O 0.49648 -0.00413 0.52040
 O589 O 0.51323 0.01284 0.51273
 O590 O 0.48787 -0.01251 0.48745
 C591 C 0.54122 0.01057 0.50978
 C592 C 0.51042 0.04095 0.51010
 C593 C 0.51059 0.00969 0.54090
 C594 C 0.46037 -0.01016 0.48897
 C595 C 0.48965 -0.01113 0.46011
 C596 C 0.48963 -0.04007 0.48963
 H597 H 0.50705 0.00619 0.47086
 H598 H 0.50654 -0.02913 0.50676
 H599 H 0.51882 0.01847 0.51844
 H600 H 0.47140 0.00691 0.50613
 H601 H 0.47399 0.03030 0.48780
 H602 H 0.47281 0.02974 0.51020
 H603 H 0.52172 -0.03595 0.49217
 H604 H 0.53579 -0.02086 0.50620
 H605 H 0.47993 0.02178 0.46334
 H606 H 0.51950 0.03742 0.47811
 H607 H 0.48961 -0.02699 0.52961
 H608 H 0.51161 -0.02836 0.52907
 H609 H 0.53655 0.02312 0.47814
 H610 H 0.52852 -0.00878 0.47149
 H611 H 0.47918 0.00638 0.53503
 H612 H 0.46415 -0.00737 0.52085
 O613 O 0.53518 0.51724 0.00053
 O614 O 0.53051 0.51507 -0.02244
 O615 O 0.50077 0.53531 0.01645
 O616 O 0.47903 0.53138 0.01719
 O617 O 0.51682 0.50044 0.03516
 O618 O 0.51753 0.47892 0.03127
 O619 O 0.46556 0.49927 -0.01731
 O620 O 0.46936 0.52181 -0.01489
 O621 O 0.49897 0.48263 -0.03441
 O622 O 0.52157 0.48437 -0.03099
 O623 O 0.48287 0.46554 -0.00095
 O624 O 0.48473 0.46935 0.02187
 O625 O 0.46555 0.48332 -0.00151
 O626 O 0.46988 0.48514 0.02268
 O627 O 0.49883 0.46531 -0.01668
 O628 O 0.52328 0.47041 -0.01491
 O629 O 0.48290 0.49825 -0.03442
 O630 O 0.48716 0.52215 -0.03057
 O631 O 0.53534 0.50127 0.01630
 O632 O 0.53007 0.47729 0.01407
 O633 O 0.50125 0.51656 0.03517
 O634 O 0.47738 0.51457 0.02980
 O635 O 0.51703 0.53522 0.00098
 O636 O 0.51262 0.53008 -0.02272
 Zr637 Zr 0.51601 0.51620 -0.00736
 O638 O 0.50453 0.50416 -0.01986
 Zr639 Zr 0.49305 0.51599 0.01607
 O640 O 0.48036 0.50455 0.00421
 Zr641 Zr 0.51628 0.49289 0.01583
 O642 O 0.50431 0.48014 0.00451
 Zr643 Zr 0.48452 0.50747 -0.01586
 O644 O 0.49593 0.52043 -0.00403
 Zr645 Zr 0.50754 0.48415 -0.01558
 O646 O 0.52046 0.49609 -0.00425
 Zr647 Zr 0.48427 0.48446 0.00749
 O648 O 0.49619 0.49589 0.02038
 O649 O 0.51294 0.51283 0.01266
 O650 O 0.48754 0.48743 -0.01253
 C651 C 0.54092 0.51056 0.00966
 C652 C 0.51017 0.54093 0.01000
 C653 C 0.51030 0.50972 0.04085
 C654 C 0.46003 0.48978 -0.01095
 C655 C 0.48935 0.48880 -0.03991
 C656 C 0.48928 0.45989 -0.01033
 H657 H 0.50670 0.50610 -0.02918
 H658 H 0.50624 0.47085 0.00679
 H659 H 0.51854 0.51847 0.01835
 H660 H 0.47109 0.50688 0.00613
 H661 H 0.47362 0.53021 -0.01224
 H662 H 0.47248 0.52970 0.01016
 H663 H 0.52137 0.46397 -0.00782
 H664 H 0.53549 0.47913 0.00616
 H665 H 0.47954 0.52168 -0.03670
 H666 H 0.51914 0.53735 -0.02201
 H667 H 0.48936 0.47305 0.02966
 H668 H 0.51136 0.47167 0.02909
 H669 H 0.53619 0.52305 -0.02200
 H670 H 0.52818 0.49113 -0.02854
 H671 H 0.47888 0.50644 0.03500
 H672 H 0.46390 0.49265 0.02092
 O673 O 0.78525 0.25102 0.48284
 O674 O 0.78068 0.22798 0.48480
 O675 O 0.75079 0.26673 0.46462
 O676 O 0.72901 0.26725 0.46848
 O677 O 0.76705 0.28541 0.49919
 O678 O 0.76614 0.28062 0.52216
 O679 O 0.71565 0.23290 0.50053
 O680 O 0.71945 0.23538 0.47801
 O681 O 0.74905 0.21583 0.51716
 O682 O 0.77168 0.21924 0.51526
 O683 O 0.73315 0.24930 0.53435
 O684 O 0.73375 0.27294 0.52978
 O685 O 0.71563 0.24880 0.51641
 O686 O 0.72043 0.27327 0.51506
 O687 O 0.74910 0.23357 0.53456
 O688 O 0.77346 0.23524 0.52937
 O689 O 0.73299 0.21581 0.50151
 O690 O 0.73725 0.21969 0.47766
 O691 O 0.78538 0.26672 0.49894
 O692 O 0.78041 0.26561 0.52236
 O693 O 0.75120 0.28546 0.48331
 O694 O 0.72736 0.28007 0.48529
 O695 O 0.76713 0.25135 0.46473
 O696 O 0.76280 0.22761 0.46981
 Zr697 Zr 0.76610 0.24299 0.48373
 O698 O 0.75462 0.23043 0.49567
 Zr699 Zr 0.74303 0.26633 0.48389
 O700 O 0.73038 0.25447 0.49535
 Zr701 Zr 0.76624 0.26620 0.50705
 O702 O 0.75446 0.25473 0.51974
 Zr703 Zr 0.73460 0.23439 0.49237
 O704 O 0.74601 0.24623 0.47946
 Zr705 Zr 0.75766 0.23465 0.51568
 O706 O 0.77051 0.24612 0.50386
 Zr707 Zr 0.73440 0.25774 0.51543
 O708 O 0.74619 0.27068 0.50397
 O709 O 0.76292 0.26300 0.48711
 O710 O 0.73764 0.23770 0.51243
 C711 C 0.79097 0.26014 0.48961
 C712 C 0.76024 0.26035 0.45902
 C713 C 0.76041 0.29111 0.49000
 C714 C 0.71011 0.23932 0.50997
 C715 C 0.73945 0.21032 0.51095
 C716 C 0.73959 0.23995 0.54000
 H717 H 0.75680 0.22111 0.49369
 H718 H 0.75656 0.25698 0.52900
 H719 H 0.76855 0.26866 0.48149
 H720 H 0.72110 0.25643 0.49309
 H721 H 0.72372 0.23804 0.46963
 H722 H 0.72228 0.26045 0.47038
 H723 H 0.77172 0.24248 0.53571
 H724 H 0.78504 0.25704 0.52154
 H725 H 0.72962 0.21357 0.47809
 H726 H 0.76931 0.22837 0.46255
 H727 H 0.74205 0.27253 0.53490
 H728 H 0.75727 0.28469 0.52202
 H729 H 0.78638 0.22852 0.47686
 H730 H 0.77835 0.22181 0.50863
 H731 H 0.72888 0.28529 0.49342
 H732 H 0.71427 0.27157 0.50768
 O733 O 0.76740 0.78578 -0.00088
 O734 O 0.76542 0.78122 0.02215
 O735 O 0.78547 0.75125 -0.01668
 O736 O 0.78153 0.72945 -0.01728
 O737 O 0.75094 0.76761 -0.03525
 O738 O 0.72800 0.76674 -0.03041
 O739 O 0.74952 0.71612 0.01712
 O740 O 0.77203 0.71989 0.01459
 O741 O 0.73302 0.74956 0.03429
 O742 O 0.73497 0.77222 0.03094
 O743 O 0.71576 0.73369 0.00082
 O744 O 0.72029 0.73428 -0.02280
 O745 O 0.73363 0.71613 0.00126
 O746 O 0.73499 0.72095 -0.02322
 O747 O 0.71562 0.74964 0.01659
 O748 O 0.72086 0.77404 0.01497
 O749 O 0.74862 0.73347 0.03423
 O750 O 0.77246 0.73770 0.03032
 O751 O 0.75130 0.78595 -0.01653
 O752 O 0.72786 0.78101 -0.01536
 O753 O 0.76677 0.75173 -0.03537
 O754 O 0.76471 0.72784 -0.03004
 O755 O 0.78542 0.76760 -0.00126
 O756 O 0.78035 0.76329 0.02246
 Zr757 Zr 0.76644 0.76661 0.00712
 O758 O 0.75449 0.75513 0.01967
 Zr759 Zr 0.76618 0.74352 -0.01627
 O760 O 0.75471 0.73087 -0.00443
 Zr761 Zr 0.74312 0.76680 -0.01604
 O762 O 0.73041 0.75501 -0.00458
 Zr763 Zr 0.75773 0.73508 0.01564
 O764 O 0.77065 0.74649 0.00382
 Zr765 Zr 0.73450 0.75820 0.01549
 O766 O 0.74633 0.77106 0.00404
 Zr767 Zr 0.73466 0.73492 -0.00765
 O768 O 0.74612 0.74673 -0.02057
 O769 O 0.76303 0.76344 -0.01288
 O770 O 0.73770 0.73815 0.01238
 C771 C 0.76066 0.79152 -0.00997
 C772 C 0.79110 0.76069 -0.01028
 C773 C 0.76011 0.76096 -0.04098
 C774 C 0.74006 0.71059 0.01072
 C775 C 0.73921 0.73994 0.03975
 C776 C 0.71015 0.74014 0.01019
 H777 H 0.75649 0.75730 0.02899
 H778 H 0.72116 0.75713 -0.00681
 H779 H 0.76866 0.76906 -0.01854
 H780 H 0.75695 0.72157 -0.00641
 H781 H 0.78041 0.72415 0.01193
 H782 H 0.77964 0.72273 -0.01048
 H783 H 0.71452 0.77230 0.00774
 H784 H 0.72873 0.78565 -0.00679
 H785 H 0.77202 0.73006 0.03642
 H786 H 0.78762 0.76980 0.02172
 H787 H 0.71523 0.74262 -0.02240
 H788 H 0.72811 0.75786 -0.03451
 H789 H 0.77337 0.78691 0.02161
 H790 H 0.74162 0.77890 0.02838
 H791 H 0.75660 0.72939 -0.03526
 H792 H 0.74232 0.71474 -0.02152
 O793 O 1.03540 0.23239 0.24912
 O794 O 1.03083 0.23438 0.27214
 O795 O 1.00092 0.21414 0.23335
 O796 O 0.97915 0.21804 0.23272
 O797 O 1.01724 0.24874 0.21473
 O798 O 1.01635 0.27171 0.21956
 O799 O 0.96582 0.25016 0.26714
 O800 O 0.96958 0.22760 0.26461
 O801 O 0.99921 0.26677 0.28426
 O802 O 1.02185 0.26485 0.28090
 O803 O 0.98331 0.28392 0.25084
 O804 O 0.98398 0.27934 0.22716
 O805 O 0.96583 0.26602 0.25126
 O806 O 0.97061 0.26463 0.22680
 O807 O 0.99925 0.28413 0.26660
 O808 O 1.02363 0.27897 0.26492
 O809 O 0.98313 0.25113 0.28423
 O810 O 0.98738 0.22725 0.28033
 O811 O 1.03556 0.24850 0.23347
 O812 O 1.03059 0.27193 0.23459
 O813 O 1.00140 0.23285 0.21462
 O814 O 0.97754 0.23485 0.21996
 O815 O 1.01725 0.21427 0.24875
 O816 O 1.01294 0.21939 0.27246
 Zr817 Zr 1.01625 0.23330 0.25711
 O818 O 1.00478 0.24525 0.26966
 Zr819 Zr 0.99320 0.23344 0.23373
 O820 O 0.98055 0.24492 0.24557
 Zr821 Zr 1.01642 0.25661 0.23394
 O822 O 1.00464 0.26932 0.24540
 Zr823 Zr 0.98475 0.24195 0.26565
 O824 O 0.99616 0.22903 0.25382
 Zr825 Zr 1.00783 0.26527 0.26547
 O826 O 1.02068 0.25343 0.25402
 Zr827 Zr 0.98459 0.26500 0.24234
 O828 O 0.99638 0.25353 0.22942
 O829 O 1.01309 0.23666 0.23711
 O830 O 0.98781 0.26201 0.26237
 C831 C 1.04114 0.23917 0.24004
 C832 C 1.01034 0.20854 0.23976
 C833 C 1.01060 0.23955 0.20900
 C834 C 0.96030 0.25962 0.26075
 C835 C 0.98958 0.26059 0.28973
 C836 C 0.98973 0.28956 0.26023
 H837 H 1.00694 0.24328 0.27898
 H838 H 1.00675 0.27859 0.24318
 H839 H 1.01871 0.23102 0.23145
 H840 H 0.97126 0.24266 0.24360
 H841 H 0.97384 0.21921 0.26195
 H842 H 0.97245 0.21991 0.23955
 H843 H 1.02186 0.28534 0.25773
 H844 H 1.03521 0.27112 0.24316
 H845 H 0.97974 0.22768 0.28643
 H846 H 1.01944 0.21213 0.27172
 H847 H 0.99224 0.28452 0.22765
 H848 H 1.00747 0.27160 0.21549
 H849 H 1.03652 0.22643 0.27160
 H850 H 1.02854 0.25824 0.27831
 H851 H 0.97907 0.24297 0.21476
 H852 H 0.96444 0.25725 0.22849
 O853 O 0.74922 1.03558 0.73283
 O854 O 0.77169 1.03138 0.73462
 O855 O 0.73338 1.00088 0.71464
 O856 O 0.73285 0.97916 0.71857
 O857 O 0.71473 1.01729 0.74917
 O858 O 0.71952 1.01644 0.77215
 O859 O 0.76730 0.96599 0.75063
 O860 O 0.76481 0.96965 0.72816
 O861 O 0.78431 0.99945 0.76713
 O862 O 0.77978 1.02327 0.76620
 O863 O 0.75086 0.98341 0.78440
 O864 O 0.72729 0.98400 0.77985
 O865 O 0.75142 0.96594 0.76649
 O866 O 0.72691 0.97069 0.76505
 O867 O 0.76659 0.99937 0.78459
 O868 O 0.76512 1.02370 0.77963
 O869 O 0.78431 0.98334 0.75151
 O870 O 0.78021 0.98774 0.72758
 O871 O 0.73352 1.03570 0.74890
 O872 O 0.73445 1.03078 0.77233
 O873 O 0.71471 1.00139 0.73332
 O874 O 0.72012 0.97753 0.73539
 O875 O 0.74892 1.01708 0.71474
 O876 O 0.77268 1.01419 0.72004
 Zr877 Zr 0.75710 1.01641 0.73386
 O878 O 0.76974 1.00498 0.74573
 Zr879 Zr 0.73382 0.99326 0.73394
 O880 O 0.74568 0.98065 0.74541
 Zr881 Zr 0.73391 1.01654 0.75706
 O882 O 0.74541 1.00480 0.76979
 Zr883 Zr 0.76572 0.98493 0.74243
 O884 O 0.75390 0.99630 0.72950
 Zr885 Zr 0.76547 1.00804 0.76577
 O886 O 0.75395 1.02081 0.75395
 Zr887 Zr 0.74243 0.98469 0.76548
 O888 O 0.72948 0.99645 0.75401
 O889 O 0.73711 1.01322 0.73712
 O890 O 0.76244 0.98799 0.76250
 C891 C 0.74012 1.04131 0.73959
 C892 C 0.73990 1.01022 0.70901
 C893 C 0.70905 1.01059 0.73998
 C894 C 0.76092 0.96045 0.76009
 C895 C 0.78980 0.98983 0.76094
 C896 C 0.76024 0.98984 0.79003
 H897 H 0.77902 1.00708 0.74361
 H898 H 0.74317 1.00690 0.77905
 H899 H 0.73148 1.01883 0.73145
 H900 H 0.74374 0.97134 0.74316
 H901 H 0.76204 0.97383 0.71978
 H902 H 0.73969 0.97247 0.72046
 H903 H 0.75767 1.02213 0.78573
 H904 H 0.74310 1.03528 0.77166
 H905 H 0.78647 0.98023 0.72802
 H906 H 0.77187 1.02116 0.71322
 H907 H 0.72763 0.99235 0.78491
 H908 H 0.71546 1.00754 0.77202
 H909 H 0.77154 1.03502 0.74369
 H910 H 0.78521 1.02247 0.75813
 H911 H 0.71487 0.97909 0.74348
 H912 H 0.72869 0.96442 0.75777
 O913 O 0.74901 0.53523 0.23252
 O914 O 0.77202 0.53070 0.23447
 O915 O 0.73329 0.50071 0.21424
 O916 O 0.73273 0.47890 0.21808
 O917 O 0.71468 0.51692 0.24888
 O918 O 0.71954 0.51603 0.27183
 O919 O 0.76715 0.46557 0.25010
 O920 O 0.76459 0.46938 0.22757
 O921 O 0.78419 0.49896 0.26680
 O922 O 0.78084 0.52165 0.26488
 O923 O 0.75083 0.48301 0.28395
 O924 O 0.72719 0.48359 0.27937
 O925 O 0.75133 0.46551 0.26601
 O926 O 0.72687 0.47023 0.26464
 O927 O 0.76654 0.49902 0.28417
 O928 O 0.76487 0.52341 0.27902
 O929 O 0.78418 0.48292 0.25111
 O930 O 0.78028 0.48723 0.22725
 O931 O 0.73337 0.53533 0.24862
 O932 O 0.73453 0.53032 0.27204
 O933 O 0.71460 0.50108 0.23297
 O934 O 0.71999 0.47722 0.23489
 O935 O 0.74866 0.51709 0.21438
 O936 O 0.77237 0.51281 0.21946
 Zr937 Zr 0.75703 0.51607 0.23338
 O938 O 0.76960 0.50459 0.24529
 Zr939 Zr 0.73371 0.49293 0.23351
 O940 O 0.74557 0.48027 0.24495
 Zr941 Zr 0.73389 0.51615 0.25671
 O942 O 0.74537 0.50436 0.26938
 Zr943 Zr 0.76562 0.48454 0.24195
 O944 O 0.75377 0.49596 0.22907
 Zr945 Zr 0.76542 0.50760 0.26531
 O946 O 0.75395 0.52047 0.25352
 Zr947 Zr 0.74235 0.48427 0.26503
 O948 O 0.72942 0.49607 0.25360
 O949 O 0.73705 0.51285 0.23676
 O950 O 0.76235 0.48756 0.26202
 C951 C 0.73993 0.54094 0.23930
 C952 C 0.73968 0.51017 0.20865
 C953 C 0.70897 0.51026 0.23970
 C954 C 0.76080 0.46002 0.25957
 C955 C 0.78967 0.48934 0.26059
 C956 C 0.76018 0.48948 0.28959
 H957 H 0.77891 0.50678 0.24331
 H958 H 0.74315 0.50645 0.27864
 H959 H 0.73138 0.51848 0.23115
 H960 H 0.74362 0.47098 0.24267
 H961 H 0.76193 0.47367 0.21919
 H962 H 0.73955 0.47219 0.21995
 H963 H 0.75765 0.52166 0.28535
 H964 H 0.74308 0.53498 0.27121
 H965 H 0.78639 0.47959 0.22766
 H966 H 0.77161 0.51933 0.21221
 H967 H 0.72764 0.49187 0.28455
 H968 H 0.71549 0.50713 0.27170
 H969 H 0.77147 0.53641 0.22654
 H970 H 0.77823 0.52836 0.25829
 H971 H 0.71481 0.47870 0.24304
 H972 H 0.72858 0.46405 0.25727
 O973 O 0.50086 0.21445 0.73266
 O974 O 0.47786 0.21896 0.73462
 O975 O 0.51653 0.24908 0.71457
 O976 O 0.51714 0.27085 0.71855
 O977 O 0.53519 0.23272 0.74911
 O978 O 0.53036 0.23355 0.77207
 O979 O 0.48271 0.28405 0.75060
 O980 O 0.48524 0.28031 0.72806
 O981 O 0.46565 0.25055 0.76708
 O982 O 0.46908 0.22789 0.76511
 O983 O 0.49905 0.26653 0.78435
 O984 O 0.52265 0.26598 0.77983
 O985 O 0.49856 0.28407 0.76649
 O986 O 0.52304 0.27931 0.76511
 O987 O 0.48332 0.25055 0.78449
 O988 O 0.48504 0.22615 0.77925
 O989 O 0.46566 0.26666 0.75149
 O990 O 0.46957 0.26245 0.72763
 O991 O 0.51650 0.21430 0.74877
 O992 O 0.51537 0.21924 0.77221
 O993 O 0.53525 0.24862 0.73329
 O994 O 0.52985 0.27248 0.73537
 O995 O 0.50120 0.23266 0.71461
 O996 O 0.47749 0.23690 0.71971
 Zr997 Zr 0.49284 0.23360 0.73362
 O998 O 0.48028 0.24504 0.74559
 Zr999 Zr 0.51614 0.25676 0.73389
 O1000 O 0.50428 0.26937 0.74538
 Zr1001 Zr 0.51599 0.23346 0.75695
 O1002 O 0.50451 0.24521 0.76968
 Zr1003 Zr 0.48424 0.26511 0.74236
 O1004 O 0.49608 0.25374 0.72942
 Zr1005 Zr 0.48446 0.24198 0.76560
 O1006 O 0.49593 0.22915 0.75373
 Zr1007 Zr 0.50752 0.26531 0.76544
 O1008 O 0.52046 0.25355 0.75395
 O1009 O 0.51282 0.23682 0.73702
 O1010 O 0.48751 0.26203 0.76241
 C1011 C 0.50994 0.20871 0.73942
 C1012 C 0.51016 0.23964 0.70892
 C1013 C 0.54089 0.23941 0.73996
 C1014 C 0.48909 0.28959 0.76007
 C1015 C 0.46016 0.26017 0.76090
 C1016 C 0.48969 0.26008 0.78996
 H1017 H 0.47097 0.24284 0.74359
 H1018 H 0.50674 0.24309 0.77893
 H1019 H 0.51848 0.23122 0.73137
 H1020 H 0.50623 0.27868 0.74315
 H1021 H 0.48790 0.27606 0.71966
 H1022 H 0.51027 0.27752 0.72040
 H1023 H 0.49223 0.22792 0.78561
 H1024 H 0.50681 0.21461 0.77138
 H1025 H 0.46346 0.27008 0.72807
 H1026 H 0.47826 0.23041 0.71241
 H1027 H 0.52227 0.25765 0.78489
 H1028 H 0.53442 0.24244 0.77198
 H1029 H 0.47840 0.21328 0.72665
 H1030 H 0.47167 0.22123 0.75846
 H1031 H 0.53508 0.27094 0.74348
 H1032 H 0.52131 0.28554 0.75780
 O1033 O 0.26736 0.78575 0.49917
 O1034 O 0.26400 0.78097 0.52241
 O1035 O 0.28539 0.75136 0.48353
 O1036 O 0.28153 0.72953 0.48285
 O1037 O 0.25081 0.76757 0.46485
 O1038 O 0.22779 0.76656 0.46979
 O1039 O 0.24957 0.71605 0.51723
 O1040 O 0.27205 0.71977 0.51461
 O1041 O 0.23341 0.74961 0.53461
 O1042 O 0.23514 0.77418 0.52916
 O1043 O 0.21577 0.73366 0.50114
 O1044 O 0.22019 0.73432 0.47746
 O1045 O 0.23362 0.71610 0.50144
 O1046 O 0.23482 0.72092 0.47701
 O1047 O 0.21573 0.74954 0.51699
 O1048 O 0.21993 0.77306 0.51627
 O1049 O 0.24881 0.73333 0.53438
 O1050 O 0.27272 0.73767 0.53019
 O1051 O 0.25116 0.78592 0.48359
 O1052 O 0.22781 0.78103 0.48474
 O1053 O 0.26671 0.75176 0.46475
 O1054 O 0.26470 0.72792 0.47001
 O1055 O 0.28533 0.76766 0.49903
 O1056 O 0.28056 0.76403 0.52240
 Zr1057 Zr 0.26629 0.76663 0.50726
 O1058 O 0.25457 0.75500 0.51988
 Zr1059 Zr 0.26612 0.74354 0.48385
 O1060 O 0.25468 0.73084 0.49568
 Zr1061 Zr 0.24300 0.76675 0.48407
 O1062 O 0.23038 0.75501 0.49565
 Zr1063 Zr 0.25779 0.73499 0.51574
 O1064 O 0.27058 0.74652 0.50393
 Zr1065 Zr 0.23456 0.75816 0.51572
 O1066 O 0.24621 0.77101 0.50411
 Zr1067 Zr 0.23462 0.73491 0.49256
 O1068 O 0.24604 0.74668 0.47958
 O1069 O 0.26291 0.76344 0.48725
 O1070 O 0.23774 0.73811 0.51260
 C1071 C 0.26057 0.79149 0.49010
 C1072 C 0.29101 0.76078 0.48999
 C1073 C 0.26001 0.76095 0.45913
 C1074 C 0.24007 0.71054 0.51087
 C1075 C 0.23954 0.73990 0.54000
 C1076 C 0.21022 0.74006 0.51059
 H1077 H 0.25677 0.75703 0.52918
 H1078 H 0.22112 0.75711 0.49349
 H1079 H 0.26855 0.76906 0.48159
 H1080 H 0.25691 0.72155 0.49366
 H1081 H 0.28040 0.72400 0.51180
 H1082 H 0.27951 0.72263 0.48945
 H1083 H 0.21505 0.77272 0.50783
 H1084 H 0.22851 0.78544 0.49344
 H1085 H 0.27228 0.73012 0.53640
 H1086 H 0.28703 0.77137 0.52198
 H1087 H 0.21507 0.74262 0.47796
 H1088 H 0.22803 0.75772 0.46560
 H1089 H 0.27153 0.78723 0.52206
 H1090 H 0.24238 0.77252 0.53550
 H1091 H 0.25650 0.72938 0.46491
 H1092 H 0.24224 0.71479 0.47859
 O1093 O 0.26734 0.28510 0.99952
 O1094 O 0.26541 0.28053 1.02254
 O1095 O 0.28542 0.25057 0.98369
 O1096 O 0.28150 0.22876 0.98315
 O1097 O 0.25088 0.26688 0.96514
 O1098 O 0.22794 0.26602 0.97000
 O1099 O 0.24949 0.21545 1.01756
 O1100 O 0.27200 0.21921 1.01501
 O1101 O 0.23302 0.24891 1.03471
 O1102 O 0.23497 0.27157 1.03133
 O1103 O 0.21573 0.23300 1.00127
 O1104 O 0.22025 0.23359 0.97763
 O1105 O 0.23359 0.21544 1.00171
 O1106 O 0.23493 0.22023 0.97724
 O1107 O 0.21560 0.24897 1.01704
 O1108 O 0.22083 0.27336 1.01538
 O1109 O 0.24861 0.23281 1.03466
 O1110 O 0.27244 0.23703 1.03072
 O1111 O 0.25123 0.28526 0.98386
 O1112 O 0.22781 0.28031 0.98503
 O1113 O 0.26669 0.25099 0.96503
 O1114 O 0.26467 0.22713 0.97038
 O1115 O 0.28538 0.26693 0.99911
 O1116 O 0.28034 0.26261 1.02283
 Zr1117 Zr 0.26641 0.26593 1.00750
 O1118 O 0.25447 0.25446 1.02007
 Zr1119 Zr 0.26614 0.24282 0.98414
 O1120 O 0.25467 0.23017 0.99600
 Zr1121 Zr 0.24307 0.26610 0.98436
 O1122 O 0.23037 0.25432 0.99584
 Zr1123 Zr 0.25771 0.23440 1.01606
 O1124 O 0.27062 0.24581 1.00422
 Zr1125 Zr 0.23448 0.25752 1.01590
 O1126 O 0.24630 0.27038 1.00444
 Zr1127 Zr 0.23462 0.23423 0.99278
 O1128 O 0.24608 0.24602 0.97985
 O1129 O 0.26299 0.26274 0.98751
 O1130 O 0.23767 0.23747 1.01281
 C1131 C 0.26058 0.29084 0.99044
 C1132 C 0.29105 0.26002 0.99009
 C1133 C 0.26002 0.26021 0.95941
 C1134 C 0.24002 0.20991 1.01117
 C1135 C 0.23921 0.23929 1.04018
 C1136 C 0.21013 0.23945 1.01065
 H1137 H 0.25648 0.25664 1.02939
 H1138 H 0.22112 0.25644 0.99362
 H1139 H 0.26861 0.26837 0.98184
 H1140 H 0.25690 0.22088 0.99402
 H1141 H 0.28038 0.22346 1.01234
 H1142 H 0.27959 0.22202 0.98994
 H1143 H 0.21448 0.27161 1.00816
 H1144 H 0.22866 0.28494 0.99360
 H1145 H 0.27201 0.22939 1.03683
 H1146 H 0.28761 0.26911 1.02208
 H1147 H 0.21515 0.24190 0.97807
 H1148 H 0.22804 0.25714 0.96592
 H1149 H 0.27336 0.28623 1.02200
 H1150 H 0.24160 0.27825 1.02875
 H1151 H 0.25654 0.22865 0.96519
 H1152 H 0.24227 0.21404 0.97893
 C1153 C 0.28712 0.35491 0.80367
 C1154 C 0.29320 0.36095 0.79285
 C1155 C 0.30443 0.35523 0.78722
 C1156 C 0.30966 0.34360 0.79249
 C1157 C 0.30372 0.33753 0.80349
 C1158 C 0.29232 0.34328 0.80895
 C1159 C 0.28817 0.37323 0.78778
 C1160 C 0.28409 0.38364 0.78370
 C1161 C 0.27950 0.39596 0.77912
 C1162 C 0.27573 0.40660 0.77537
 C1163 C 0.27143 0.41945 0.77110
 C1164 C 0.27805 0.42590 0.76084
 C1165 C 0.27431 0.43865 0.75711
 C1166 C 0.26388 0.44514 0.76362
 C1167 C 0.25717 0.43846 0.77379
 C1168 C 0.26093 0.42572 0.77750
 H1169 H 0.27843 0.35927 0.80811
 H1170 H 0.30924 0.35984 0.77886
 H1171 H 0.31843 0.33945 0.78802
 H1172 H 0.28748 0.33889 0.81741
 H1173 H 0.28621 0.42115 0.75584
 H1174 H 0.27971 0.44348 0.74926
 H1175 H 0.24912 0.44314 0.77903
 H1176 H 0.25577 0.42082 0.78547
 C1177 C 0.30598 -0.14271 0.28850
 C1178 C 0.29480 -0.13693 0.29416
 C1179 C 0.28872 -0.14294 0.30498
 C1180 C 0.29384 -0.15463 0.31023
 C1181 C 0.30521 -0.16051 0.30473
 C1182 C 0.31114 -0.15439 0.29371
 C1183 C 0.28977 -0.12466 0.28906
 C1184 C 0.28566 -0.11430 0.28492
 C1185 C 0.28096 -0.10205 0.28022
 C1186 C 0.27706 -0.09151 0.27633
 C1187 C 0.27252 -0.07882 0.27184
 C1188 C 0.26198 -0.07259 0.27821
 C1189 C 0.25786 -0.06006 0.27417
 C1190 C 0.26426 -0.05355 0.26369
 C1191 C 0.27478 -0.05997 0.25726
 C1192 C 0.27887 -0.07251 0.26133
 H1193 H 0.31077 -0.13812 0.28012
 H1194 H 0.28006 -0.13854 0.30945
 H1195 H 0.28891 -0.15895 0.31867
 H1196 H 0.31986 -0.15853 0.28912
 H1197 H 0.25702 -0.07738 0.28638
 H1198 H 0.24976 -0.05542 0.27937
 H1199 H 0.27996 -0.05526 0.24919
 H1200 H 0.28707 -0.07723 0.25635
 C1201 C 0.80627 0.85761 0.78888
 C1202 C 0.79509 0.86342 0.79452
 C1203 C 0.78895 0.85741 0.80533
 C1204 C 0.79402 0.84569 0.81055
 C1205 C 0.80534 0.83982 0.80504
 C1206 C 0.81136 0.84589 0.79408
 C1207 C 0.79013 0.87572 0.78944
 C1208 C 0.78608 0.88611 0.78531
 C1209 C 0.78145 0.89838 0.78061
 C1210 C 0.77760 0.90894 0.77672
 C1211 C 0.77312 0.92165 0.77223
 C1212 C 0.76247 0.92783 0.77847
 C1213 C 0.75837 0.94037 0.77441
 C1214 C 0.76490 0.94692 0.76404
 C1215 C 0.77554 0.94055 0.75776
 C1216 C 0.77960 0.92802 0.76183
 H1217 H 0.81111 0.86220 0.78053
 H1218 H 0.78031 0.86184 0.80979
 H1219 H 0.78913 0.84130 0.81897
 H1220 H 0.82007 0.84166 0.78958
 H1221 H 0.75739 0.92300 0.78655
 H1222 H 0.75018 0.94496 0.77950
 H1223 H 0.78082 0.94531 0.74978
 H1224 H 0.78788 0.92334 0.75696
 C1225 C 0.44285 0.89248 0.28890
 C1226 C 0.45384 0.88651 0.29472
 C1227 C 0.45969 0.89225 0.30583
 C1228 C 0.45453 0.90386 0.31121
 C1229 C 0.44335 0.90994 0.30555
 C1230 C 0.43765 0.90410 0.29424
 C1231 C 0.45891 0.87431 0.28948
 C1232 C 0.46307 0.86400 0.28523
 C1233 C 0.46782 0.85181 0.28042
 C1234 C 0.47177 0.84131 0.27645
 C1235 C 0.47637 0.82866 0.27189
 C1236 C 0.48704 0.82254 0.27814
 C1237 C 0.49121 0.81003 0.27404
 C1238 C 0.48475 0.80346 0.26362
 C1239 C 0.47411 0.80979 0.25731
 C1240 C 0.46996 0.82230 0.26143
 H1241 H 0.43824 0.88811 0.28030
 H1242 H 0.46820 0.88769 0.31042
 H1243 H 0.45927 0.90797 0.31987
 H1244 H 0.42908 0.90840 0.28952
 H1245 H 0.49205 0.82737 0.28627
 H1246 H 0.49941 0.80546 0.27915
 H1247 H 0.46887 0.80503 0.24929
 H1248 H 0.46166 0.82694 0.25655
 C1249 C -0.03942 0.89249 0.80635
 C1250 C -0.04537 0.88662 0.79534
 C1251 C -0.05644 0.89250 0.78958
 C1252 C -0.06163 0.90415 0.79487
 C1253 C -0.05581 0.91007 0.80603
 C1254 C -0.04459 0.90413 0.81166
 C1255 C -0.04031 0.87439 0.79016
 C1256 C -0.03617 0.86405 0.78596
 C1257 C -0.03146 0.85184 0.78119
 C1258 C -0.02754 0.84132 0.77724
 C1259 C -0.02299 0.82864 0.77269
 C1260 C -0.02943 0.82228 0.76225
 C1261 C -0.02532 0.80976 0.75814
 C1262 C -0.01469 0.80341 0.76444
 C1263 C -0.00820 0.80997 0.77485
 C1264 C -0.01233 0.82249 0.77894
 H1265 H -0.03085 0.88800 0.81090
 H1266 H -0.06113 0.88803 0.78106
 H1267 H -0.07027 0.90843 0.79027
 H1268 H -0.03985 0.90841 0.82024
 H1269 H -0.03772 0.82695 0.75737
 H1270 H -0.03058 0.80501 0.75012
 H1271 H -0.00001 0.80539 0.77995
 H1272 H -0.00729 0.82732 0.78706
 C1273 C -0.05537 -0.14316 -0.03889
 C1274 C -0.04454 -0.13704 -0.04488
 C1275 C -0.03872 -0.14279 -0.05599
 C1276 C -0.04376 -0.15455 -0.06120
 C1277 C -0.05478 -0.16077 -0.05537
 C1278 C -0.06045 -0.15492 -0.04406
 C1279 C -0.03961 -0.12471 -0.03979
 C1280 C -0.03559 -0.11429 -0.03563
 C1281 C -0.03101 -0.10200 -0.03090
 C1282 C -0.02719 -0.09142 -0.02697
 C1283 C -0.02274 -0.07870 -0.02245
 C1284 C -0.01214 -0.07246 -0.02871
 C1285 C -0.00806 -0.05991 -0.02462
 C1286 C -0.01455 -0.05341 -0.01418
 C1287 C -0.02513 -0.05984 -0.00787
 C1288 C -0.02919 -0.07239 -0.01199
 H1289 H -0.05996 -0.13878 -0.03028
 H1290 H -0.03034 -0.13812 -0.06071
 H1291 H -0.03905 -0.15867 -0.06987
 H1292 H -0.06889 -0.15932 -0.03921
 H1293 H -0.00710 -0.07724 -0.03684
 H1294 H 0.00010 -0.05527 -0.02973
 H1295 H -0.03038 -0.05513 0.00016
 H1296 H -0.03743 -0.07712 -0.00709
 C1297 C -0.05564 0.35688 0.46138
 C1298 C -0.04487 0.36306 0.45536
 C1299 C -0.03912 0.35738 0.44417
 C1300 C -0.04416 0.34564 0.43893
 C1301 C -0.05513 0.33936 0.44480
 C1302 C -0.06073 0.34514 0.45619
 C1303 C -0.03994 0.37538 0.46046
 C1304 C -0.03591 0.38579 0.46462
 C1305 C -0.03131 0.39808 0.46934
 C1306 C -0.02747 0.40866 0.47323
 C1307 C -0.02298 0.42139 0.47770
 C1308 C -0.01231 0.42754 0.47146
 C1309 C -0.00821 0.44010 0.47547
 C1310 C -0.01474 0.44671 0.48581
 C1311 C -0.02539 0.44038 0.49211
 C1312 C -0.02948 0.42781 0.48806
 H1313 H -0.06018 0.36120 0.47005
 H1314 H -0.03078 0.36210 0.43942
 H1315 H -0.03951 0.34158 0.43020
 H1316 H -0.06913 0.34069 0.46107
 H1317 H -0.00724 0.42267 0.46340
 H1318 H -0.00000 0.44467 0.47038
 H1319 H -0.03068 0.44517 0.50007
 H1320 H -0.03777 0.42316 0.49294
 C1321 C 0.46143 -0.14312 0.44424
 C1322 C 0.45565 -0.13737 0.45538
 C1323 C 0.44485 -0.14348 0.46141
 C1324 C 0.43974 -0.15523 0.45626
 C1325 C 0.44536 -0.16108 0.44492
 C1326 C 0.45636 -0.15487 0.43905
 C1327 C 0.46060 -0.12503 0.46044
 C1328 C 0.46463 -0.11460 0.46456
 C1329 C 0.46921 -0.10230 0.46925
 C1330 C 0.47303 -0.09171 0.47313
 C1331 C 0.47749 -0.07896 0.47760
 C1332 C 0.47098 -0.07256 0.48796
 C1333 C 0.47502 -0.05998 0.49201
 C1334 C 0.48566 -0.05362 0.48572
 C1335 C 0.49221 -0.06021 0.47538
 C1336 C 0.48814 -0.07278 0.47136
 H1337 H 0.46979 -0.13845 0.43949
 H1338 H 0.44030 -0.13909 0.47004
 H1339 H 0.43131 -0.15963 0.46114
 H1340 H 0.46103 -0.15899 0.43035
 H1341 H 0.46269 -0.07724 0.49284
 H1342 H 0.46972 -0.05521 0.49997
 H1343 H 0.50040 -0.05562 0.47028
 H1344 H 0.49323 -0.07764 0.46330
 C1345 C 0.44442 0.35649 -0.03862
 C1346 C 0.45523 0.36261 -0.04461
 C1347 C 0.46106 0.35686 -0.05573
 C1348 C 0.45603 0.34509 -0.06093
 C1349 C 0.44503 0.33886 -0.05509
 C1350 C 0.43935 0.34472 -0.04378
 C1351 C 0.46016 0.37495 -0.03954
 C1352 C 0.46417 0.38538 -0.03540
 C1353 C 0.46876 0.39768 -0.03069
 C1354 C 0.47259 0.40827 -0.02681
 C1355 C 0.47707 0.42101 -0.02234
 C1356 C 0.48773 0.42716 -0.02858
 C1357 C 0.49183 0.43973 -0.02456
 C1358 C 0.48529 0.44633 -0.01422
 C1359 C 0.47464 0.43999 -0.00793
 C1360 C 0.47057 0.42742 -0.01198
 H1361 H 0.43983 0.36087 -0.03002
 H1362 H 0.46944 0.36153 -0.06045
 H1363 H 0.46075 0.34097 -0.06960
 H1364 H 0.43091 0.34031 -0.03893
 H1365 H 0.49281 0.42230 -0.03664
 H1366 H 0.50003 0.44430 -0.02966
 H1367 H 0.46935 0.44479 0.00002
 H1368 H 0.46228 0.42276 -0.00710
 C1369 C 0.78760 0.39460 0.44568
 C1370 C 0.79349 0.38883 0.45675
 C1371 C 0.80459 0.39474 0.46249
 C1372 C 0.80987 0.40630 0.45710
 C1373 C 0.80412 0.41210 0.44585
 C1374 C 0.79286 0.40616 0.44027
 C1375 C 0.78842 0.37662 0.46195
 C1376 C 0.78432 0.36626 0.46614
 C1377 C 0.77969 0.35399 0.47084
 C1378 C 0.77588 0.34339 0.47467
 C1379 C 0.77153 0.33057 0.47901
 C1380 C 0.77806 0.32419 0.48936
 C1381 C 0.77428 0.31145 0.49313
 C1382 C 0.76392 0.30491 0.48655
 C1383 C 0.75728 0.31152 0.47629
 C1384 C 0.76108 0.32426 0.47255
 H1385 H 0.77903 0.39009 0.44114
 H1386 H 0.80924 0.39033 0.47104
 H1387 H 0.81852 0.41059 0.46167
 H1388 H 0.78817 0.41035 0.43163
 H1389 H 0.78619 0.32897 0.49441
 H1390 H 0.77962 0.30667 0.50105
 H1391 H 0.74927 0.30680 0.47100
 H1392 H 0.75598 0.32910 0.46450
 C1393 C 0.78885 0.89450 -0.05494
 C1394 C 0.79475 0.88865 -0.04393
 C1395 C 0.80598 0.89440 -0.03831
 C1396 C 0.81139 0.90587 -0.04376
 C1397 C 0.80565 0.91180 -0.05499
 C1398 C 0.79421 0.90597 -0.06043
 C1399 C 0.78953 0.87654 -0.03864
 C1400 C 0.78530 0.86626 -0.03438
 C1401 C 0.78051 0.85408 -0.02959
 C1402 C 0.77658 0.84355 -0.02567
 C1403 C 0.77210 0.83082 -0.02122
 C1404 C 0.77865 0.82440 -0.01091
 C1405 C 0.77476 0.81173 -0.00705
 C1406 C 0.76426 0.80528 -0.01349
 C1407 C 0.75759 0.81194 -0.02371
 C1408 C 0.76150 0.82461 -0.02754
 H1409 H 0.78015 0.89012 -0.05938
 H1410 H 0.81064 0.88994 -0.02979
 H1411 H 0.82015 0.90998 -0.03921
 H1412 H 0.78943 0.91016 -0.06902
 H1413 H 0.78690 0.82911 -0.00598
 H1414 H 0.78014 0.80692 0.00083
 H1415 H 0.74947 0.80729 -0.02890
 H1416 H 0.75638 0.82948 -0.03556
 C1417 C 0.78792 0.30502 0.35568
 C1418 C 0.79365 0.29393 0.36157
 C1419 C 0.80471 0.28804 0.35580
 C1420 C 0.81013 0.29330 0.34426
 C1421 C 0.80456 0.30456 0.33833
 C1422 C 0.79332 0.31031 0.34414
 C1423 C 0.78842 0.28883 0.37376
 C1424 C 0.78422 0.28469 0.38409
 C1425 C 0.77951 0.28000 0.39632
 C1426 C 0.77566 0.27613 0.40690
 C1427 C 0.77132 0.27169 0.41967
 C1428 C 0.77797 0.26142 0.42605
 C1429 C 0.77421 0.25754 0.43874
 C1430 C 0.76372 0.26392 0.44526
 C1431 C 0.75696 0.27410 0.43865
 C1432 C 0.76075 0.27796 0.42596
 H1433 H 0.77937 0.30968 0.36009
 H1434 H 0.80924 0.27946 0.36030
 H1435 H 0.81877 0.28861 0.34007
 H1436 H 0.78876 0.31897 0.33985
 H1437 H 0.78619 0.25652 0.42128
 H1438 H 0.77966 0.24968 0.44351
 H1439 H 0.74886 0.27925 0.44336
 H1440 H 0.75555 0.28595 0.42112
 C1441 C 0.80486 0.78874 -0.14401
 C1442 C 0.79371 0.79455 -0.13832
 C1443 C 0.78797 0.80560 -0.14424
 C1444 C 0.79342 0.81095 -0.15573
 C1445 C 0.80478 0.80532 -0.16150
 C1446 C 0.81035 0.79404 -0.15550
 C1447 C 0.78844 0.78941 -0.12618
 C1448 C 0.78419 0.78525 -0.11588
 C1449 C 0.77943 0.78054 -0.10367
 C1450 C 0.77555 0.77666 -0.09311
 C1451 C 0.77117 0.77224 -0.08035
 C1452 C 0.76082 0.77875 -0.07394
 C1453 C 0.75703 0.77491 -0.06124
 C1454 C 0.76357 0.76451 -0.05475
 C1455 C 0.77382 0.75788 -0.06140
 C1456 C 0.77759 0.76174 -0.07409
 H1457 H 0.80939 0.78018 -0.13949
 H1458 H 0.77935 0.81019 -0.13990
 H1459 H 0.78877 0.81958 -0.15998
 H1460 H 0.81904 0.78934 -0.15956
 H1461 H 0.75581 0.78691 -0.07868
 H1462 H 0.74912 0.78025 -0.05644
 H1463 H 0.77908 0.74985 -0.05672
 H1464 H 0.78563 0.75665 -0.07895
 C1465 C 0.30420 0.46276 0.89477
 C1466 C 0.29298 0.45700 0.88914
 C1467 C 0.28703 0.44613 0.89525
 C1468 C 0.29237 0.44095 0.90688
 C1469 C 0.30376 0.44656 0.91254
 C1470 C 0.30956 0.45760 0.90639
 C1471 C 0.28781 0.46197 0.87687
 C1472 C 0.28365 0.46598 0.86648
 C1473 C 0.27898 0.47052 0.85417
 C1474 C 0.27517 0.47425 0.84353
 C1475 C 0.27087 0.47854 0.83069
 C1476 C 0.26058 0.47193 0.82426
 C1477 C 0.25684 0.47566 0.81151
 C1478 C 0.26338 0.48607 0.80500
 C1479 C 0.27358 0.49278 0.81166
 C1480 C 0.27730 0.48902 0.82441
 H1481 H 0.30889 0.47116 0.89010
 H1482 H 0.27836 0.44158 0.89097
 H1483 H 0.28764 0.43246 0.91133
 H1484 H 0.31832 0.46218 0.91046
 H1485 H 0.25557 0.46377 0.82902
 H1486 H 0.24897 0.47027 0.80669
 H1487 H 0.27884 0.50081 0.80697
 H1488 H 0.28530 0.49418 0.82929
 C1489 C 0.30659 -0.03882 0.39187
 C1490 C 0.29542 -0.04463 0.38618
 C1491 C 0.28934 -0.05536 0.39239
 C1492 C 0.29446 -0.06035 0.40420
 C1493 C 0.30578 -0.05466 0.40995
 C1494 C 0.31174 -0.04378 0.40367
 C1495 C 0.29038 -0.03978 0.37382
 C1496 C 0.28625 -0.03582 0.36339
 C1497 C 0.28153 -0.03130 0.35109
 C1498 C 0.27761 -0.02752 0.34052
 C1499 C 0.27307 -0.02309 0.32781
 C1500 C 0.26245 -0.02942 0.32164
 C1501 C 0.25827 -0.02535 0.30914
 C1502 C 0.26467 -0.01486 0.30262
 C1503 C 0.27528 -0.00850 0.30898
 C1504 C 0.27944 -0.01260 0.32148
 H1505 H 0.31138 -0.03052 0.38713
 H1506 H 0.28070 -0.05995 0.38807
 H1507 H 0.28961 -0.06872 0.40874
 H1508 H 0.32044 -0.03916 0.40780
 H1509 H 0.25747 -0.03757 0.32645
 H1510 H 0.25010 -0.03049 0.30454
 H1511 H 0.28046 -0.00043 0.30426
 H1512 H 0.28769 -0.00765 0.32615
 C1513 C -0.03922 -0.05633 -0.14251
 C1514 C -0.04502 -0.04532 -0.13655
 C1515 C -0.05609 -0.03946 -0.14231
 C1516 C -0.06145 -0.04465 -0.15392
 C1517 C -0.05582 -0.05587 -0.15999
 C1518 C -0.04454 -0.06157 -0.15413
 C1519 C -0.03980 -0.04022 -0.12435
 C1520 C -0.03555 -0.03607 -0.11403
 C1521 C -0.03073 -0.03134 -0.10184
 C1522 C -0.02675 -0.02740 -0.09133
 C1523 C -0.02218 -0.02283 -0.07867
 C1524 C -0.02839 -0.01215 -0.07250
 C1525 C -0.02430 -0.00801 -0.05998
 C1526 C -0.01390 -0.01451 -0.05345
 C1527 C -0.00762 -0.02516 -0.05982
 C1528 C -0.01175 -0.02928 -0.07234
 H1529 H -0.03064 -0.06096 -0.13812
 H1530 H -0.06066 -0.03092 -0.13776
 H1531 H -0.07009 -0.03991 -0.15805
 H1532 H -0.03984 -0.07017 -0.15842
 H1533 H -0.03650 -0.00712 -0.07730
 H1534 H -0.02938 0.00019 -0.05538
 H1535 H 0.00038 -0.03042 -0.05509
 H1536 H -0.00689 -0.03758 -0.07702
 C1537 C -0.04001 0.44266 0.35785
 C1538 C -0.04590 0.45362 0.36384
 C1539 C -0.05697 0.45945 0.35805
 C1540 C -0.06223 0.45429 0.34637
 C1541 C -0.05650 0.44314 0.34028
 C1542 C -0.04523 0.43746 0.34618
 C1543 C -0.04075 0.45870 0.37608
 C1544 C -0.03655 0.46287 0.38641
 C1545 C -0.03178 0.46765 0.39860
 C1546 C -0.02781 0.47165 0.40909
 C1547 C -0.02323 0.47631 0.42171
 C1548 C -0.02958 0.48689 0.42792
 C1549 C -0.02540 0.49118 0.44036
 C1550 C -0.01478 0.48493 0.44677
 C1551 C -0.00839 0.47437 0.44038
 C1552 C -0.01260 0.47010 0.42794
 H1553 H -0.03143 0.43806 0.36227
 H1554 H -0.06161 0.46794 0.36262
 H1555 H -0.07087 0.45902 0.34222
 H1556 H -0.04046 0.42891 0.34187
 H1557 H -0.03785 0.49175 0.42319
 H1558 H -0.03058 0.49931 0.44498
 H1559 H -0.00022 0.46930 0.44503
 H1560 H -0.00763 0.46188 0.42323
 C1561 C 0.46017 -0.05727 0.35764
 C1562 C 0.45440 -0.04624 0.36362
 C1563 C 0.44341 -0.04026 0.35779
 C1564 C 0.43814 -0.04535 0.34609
 C1565 C 0.44379 -0.05652 0.34004
 C1566 C 0.45492 -0.06238 0.34593
 C1567 C 0.45957 -0.04124 0.37588
 C1568 C 0.46378 -0.03714 0.38624
 C1569 C 0.46857 -0.03244 0.39845
 C1570 C 0.47254 -0.02850 0.40896
 C1571 C 0.47712 -0.02388 0.42160
 C1572 C 0.47078 -0.01330 0.42782
 C1573 C 0.47495 -0.00905 0.44027
 C1574 C 0.48555 -0.01532 0.44669
 C1575 C 0.49193 -0.02589 0.44029
 C1576 C 0.48773 -0.03012 0.42783
 H1577 H 0.46868 -0.06199 0.36208
 H1578 H 0.43886 -0.03172 0.36235
 H1579 H 0.42958 -0.04058 0.34184
 H1580 H 0.45954 -0.07098 0.34157
 H1581 H 0.46253 -0.00842 0.42309
 H1582 H 0.46978 -0.00092 0.44490
 H1583 H 0.50009 -0.03098 0.44494
 H1584 H 0.49269 -0.03834 0.42311
 C1585 C 0.46114 0.44342 -0.14305
 C1586 C 0.45540 0.45451 -0.13716
 C1587 C 0.44464 0.46066 -0.14319
 C1588 C 0.43953 0.45569 -0.15502
 C1589 C 0.44511 0.44441 -0.16102
 C1590 C 0.45607 0.43841 -0.15488
 C1591 C 0.46036 0.45938 -0.12476
 C1592 C 0.46439 0.46338 -0.11430
 C1593 C 0.46897 0.46796 -0.10196
 C1594 C 0.47277 0.47179 -0.09135
 C1595 C 0.47717 0.47628 -0.07860
 C1596 C 0.47072 0.48677 -0.07235
 C1597 C 0.47475 0.49094 -0.05982
 C1598 C 0.48532 0.48465 -0.05336
 C1599 C 0.49180 0.47416 -0.05979
 C1600 C 0.48773 0.47001 -0.07232
 H1601 H 0.46948 0.43858 -0.13845
 H1602 H 0.44011 0.46925 -0.13870
 H1603 H 0.43113 0.46066 -0.15936
 H1604 H 0.46072 0.42976 -0.15911
 H1605 H 0.46250 0.49167 -0.07712
 H1606 H 0.46952 0.49902 -0.05517
 H1607 H 0.49994 0.46906 -0.05511
 H1608 H 0.49278 0.46186 -0.07706
 C1609 C 0.44508 0.78867 0.39308
 C1610 C 0.45586 0.79476 0.38699
 C1611 C 0.46163 0.80591 0.39278
 C1612 C 0.45657 0.81104 0.40455
 C1613 C 0.44563 0.80507 0.41070
 C1614 C 0.43999 0.79377 0.40486
 C1615 C 0.46080 0.78977 0.37463
 C1616 C 0.46481 0.78568 0.36420
 C1617 C 0.46937 0.78103 0.35188
 C1618 C 0.47314 0.77716 0.34128
 C1619 C 0.47752 0.77268 0.32853
 C1620 C 0.48799 0.77907 0.32218
 C1621 C 0.49197 0.77502 0.30961
 C1622 C 0.48551 0.76450 0.30318
 C1623 C 0.47507 0.75806 0.30971
 C1624 C 0.47111 0.76214 0.32229
 H1625 H 0.44052 0.78005 0.38867
 H1626 H 0.46998 0.81072 0.38813
 H1627 H 0.46117 0.81973 0.40876
 H1628 H 0.43158 0.78892 0.40930
 H1629 H 0.49300 0.78726 0.32691
 H1630 H 0.50002 0.78022 0.30488
 H1631 H 0.46984 0.74996 0.30506
 H1632 H 0.46297 0.75715 0.32710
 C1633 C -0.05488 0.78907 0.89348
 C1634 C -0.04405 0.79514 0.88745
 C1635 C -0.03835 0.80632 0.89323
 C1636 C -0.04352 0.81151 0.90493
 C1637 C -0.05454 0.80559 0.91106
 C1638 C -0.06008 0.79421 0.90518
 C1639 C -0.03901 0.79009 0.87516
 C1640 C -0.03491 0.78595 0.86478
 C1641 C -0.03027 0.78123 0.85252
 C1642 C -0.02643 0.77730 0.84197
 C1643 C -0.02199 0.77275 0.82926
 C1644 C -0.01151 0.77912 0.82291
 C1645 C -0.00750 0.77501 0.81036
 C1646 C -0.01394 0.76446 0.80396
 C1647 C -0.02439 0.75804 0.81050
 C1648 C -0.02838 0.76217 0.82305
 H1649 H -0.05937 0.78041 0.88907
 H1650 H -0.02997 0.81111 0.88863
 H1651 H -0.03890 0.82023 0.90907
 H1652 H -0.06852 0.78930 0.90951
 H1653 H -0.00652 0.78734 0.82761
 H1654 H 0.00055 0.78020 0.80563
 H1655 H -0.02960 0.74992 0.80587
 H1656 H -0.03653 0.75720 0.82786
 C1657 C 0.35736 0.80644 0.28891
 C1658 C 0.36310 0.79534 0.29476
 C1659 C 0.35697 0.78933 0.30558
 C1660 C 0.34520 0.79447 0.31060
 C1661 C 0.33939 0.80572 0.30486
 C1662 C 0.34558 0.81160 0.29390
 C1663 C 0.37543 0.79028 0.28987
 C1664 C 0.38584 0.78615 0.28586
 C1665 C 0.39811 0.78145 0.28128
 C1666 C 0.40866 0.77754 0.27743
 C1667 C 0.42134 0.77302 0.27294
 C1668 C 0.42756 0.76243 0.27923
 C1669 C 0.44004 0.75827 0.27510
 C1670 C 0.44649 0.76468 0.26459
 C1671 C 0.44010 0.77527 0.25827
 C1672 C 0.42761 0.77940 0.26242
 H1673 H 0.36203 0.81117 0.28054
 H1674 H 0.36134 0.78074 0.31020
 H1675 H 0.34071 0.78968 0.31903
 H1676 H 0.34141 0.82025 0.28923
 H1677 H 0.42280 0.75744 0.28741
 H1678 H 0.44468 0.75012 0.28022
 H1679 H 0.44476 0.78047 0.25018
 H1680 H 0.42290 0.78764 0.25750
 C1681 C -0.14265 0.78907 0.80637
 C1682 C -0.13650 0.79505 0.79555
 C1683 C -0.14224 0.80614 0.78965
 C1684 C -0.15403 0.81130 0.79460
 C1685 C -0.16024 0.80544 0.80556
 C1686 C -0.15444 0.79421 0.81134
 C1687 C -0.12415 0.79001 0.79070
 C1688 C -0.11373 0.78590 0.78672
 C1689 C -0.10144 0.78122 0.78215
 C1690 C -0.09087 0.77734 0.77832
 C1691 C -0.07817 0.77287 0.77383
 C1692 C -0.07192 0.77927 0.76332
 C1693 C -0.05943 0.77517 0.75916
 C1694 C -0.05301 0.76459 0.76548
 C1695 C -0.05944 0.75816 0.77599
 C1696 C -0.07193 0.76228 0.78012
 H1697 H -0.13829 0.78050 0.81102
 H1698 H -0.13754 0.81085 0.78128
 H1699 H -0.15820 0.81994 0.78990
 H1700 H -0.15894 0.78944 0.81978
 H1701 H -0.07665 0.78750 0.75840
 H1702 H -0.05478 0.78038 0.75107
 H1703 H -0.05479 0.75002 0.78110
 H1704 H -0.07668 0.75728 0.78829
 C1705 C 0.89418 0.28805 0.44514
 C1706 C 0.88836 0.29377 0.45628
 C1707 C 0.89416 0.30487 0.46215
 C1708 C 0.90566 0.31031 0.45682
 C1709 C 0.91151 0.30474 0.44551
 C1710 C 0.90568 0.29347 0.43979
 C1711 C 0.87621 0.28854 0.46143
 C1712 C 0.86590 0.28432 0.46558
 C1713 C 0.85367 0.27957 0.47026
 C1714 C 0.84311 0.27569 0.47409
 C1715 C 0.83034 0.27129 0.47846
 C1716 C 0.82409 0.27764 0.48902
 C1717 C 0.81139 0.27384 0.49283
 C1718 C 0.80474 0.26364 0.48609
 C1719 C 0.81121 0.25717 0.47563
 C1720 C 0.82391 0.26099 0.47184
 H1721 H 0.88976 0.27947 0.44051
 H1722 H 0.88972 0.30939 0.47076
 H1723 H 0.90987 0.31897 0.46149
 H1724 H 0.90991 0.28891 0.43110
 H1725 H 0.82896 0.28565 0.49419
 H1726 H 0.80672 0.27905 0.50091
 H1727 H 0.80641 0.24930 0.47021
 H1728 H 0.82865 0.25604 0.46363
 C1729 C 0.89442 0.78803 -0.05505
 C1730 C 0.88856 0.79382 -0.04396
 C1731 C 0.89436 0.80493 -0.03813
 C1732 C 0.90589 0.81033 -0.04343
 C1733 C 0.91179 0.80468 -0.05468
 C1734 C 0.90596 0.79340 -0.06037
 C1735 C 0.87638 0.78863 -0.03883
 C1736 C 0.86605 0.78446 -0.03467
 C1737 C 0.85381 0.77978 -0.02996
 C1738 C 0.84323 0.77598 -0.02608
 C1739 C 0.83046 0.77166 -0.02163
 C1740 C 0.82411 0.77836 -0.01136
 C1741 C 0.81141 0.77464 -0.00748
 C1742 C 0.80486 0.76414 -0.01386
 C1743 C 0.81143 0.75733 -0.02404
 C1744 C 0.82414 0.76108 -0.02790
 H1745 H 0.89000 0.77944 -0.05966
 H1746 H 0.88989 0.80951 -0.02956
 H1747 H 0.91010 0.81900 -0.03878
 H1748 H 0.91022 0.78879 -0.06902
 H1749 H 0.82890 0.78659 -0.00647
 H1750 H 0.80667 0.78011 0.00038
 H1751 H 0.80670 0.74923 -0.02918
 H1752 H 0.82895 0.75585 -0.03589
 C1753 C -0.14228 -0.05585 -0.03975
 C1754 C -0.13627 -0.04502 -0.04584
 C1755 C -0.14215 -0.03924 -0.05690
 C1756 C -0.15395 -0.04433 -0.06194
 C1757 C -0.16008 -0.05535 -0.05600
 C1758 C -0.15408 -0.06098 -0.04476
 C1759 C -0.12392 -0.04001 -0.04089
 C1760 C -0.11351 -0.03593 -0.03684
 C1761 C -0.10123 -0.03127 -0.03217
 C1762 C -0.09068 -0.02741 -0.02827
 C1763 C -0.07800 -0.02292 -0.02369
 C1764 C -0.07174 -0.01228 -0.02988
 C1765 C -0.05927 -0.00815 -0.02567
 C1766 C -0.05286 -0.01462 -0.01518
 C1767 C -0.05929 -0.02527 -0.00896
 C1768 C -0.07176 -0.02937 -0.01319
 H1769 H -0.13780 -0.06041 -0.03118
 H1770 H -0.13757 -0.03085 -0.06169
 H1771 H -0.15818 -0.03965 -0.07057
 H1772 H -0.15840 -0.06943 -0.03983
 H1773 H -0.07647 -0.00724 -0.03804
 H1774 H -0.05461 0.00005 -0.03072
 H1775 H -0.05465 -0.03051 -0.00089
 H1776 H -0.07650 -0.03765 -0.00835
 C1777 C -0.14314 0.46217 0.44402
 C1778 C -0.13729 0.45645 0.45514
 C1779 C -0.14332 0.44565 0.46128
 C1780 C -0.15510 0.44050 0.45626
 C1781 C -0.16101 0.44608 0.44499
 C1782 C -0.15493 0.45704 0.43898
 C1783 C -0.12493 0.46145 0.46005
 C1784 C -0.11449 0.46551 0.46406
 C1785 C -0.10217 0.47011 0.46865
 C1786 C -0.09156 0.47392 0.47247
 C1787 C -0.07881 0.47831 0.47692
 C1788 C -0.07261 0.47196 0.48750
 C1789 C -0.06004 0.47593 0.49157
 C1790 C -0.05348 0.48634 0.48510
 C1791 C -0.05986 0.49273 0.47454
 C1792 C -0.07243 0.48874 0.47049
 H1793 H -0.13854 0.47052 0.43918
 H1794 H -0.13886 0.44114 0.46988
 H1795 H -0.15950 0.43207 0.46115
 H1796 H -0.15919 0.46159 0.43030
 H1797 H -0.07745 0.46385 0.49253
 H1798 H -0.05544 0.47076 0.49971
 H1799 H -0.05510 0.50074 0.46930
 H1800 H -0.07712 0.49370 0.46226
 C1801 C 0.35721 -0.05493 0.46057
 C1802 C 0.36331 -0.04418 0.45443
 C1803 C 0.35757 -0.03853 0.44323
 C1804 C 0.34583 -0.04366 0.43810
 C1805 C 0.33962 -0.05461 0.44410
 C1806 C 0.34547 -0.06010 0.45549
 C1807 C 0.37563 -0.03916 0.45943
 C1808 C 0.38603 -0.03509 0.46353
 C1809 C 0.39830 -0.03046 0.46821
 C1810 C 0.40887 -0.02663 0.47211
 C1811 C 0.42159 -0.02219 0.47664
 C1812 C 0.42794 -0.01171 0.47028
 C1813 C 0.44048 -0.00767 0.47439
 C1814 C 0.44685 -0.01408 0.48494
 C1815 C 0.44031 -0.02455 0.49135
 C1816 C 0.42777 -0.02856 0.48721
 H1817 H 0.36159 -0.05939 0.46925
 H1818 H 0.36222 -0.03021 0.43839
 H1819 H 0.34171 -0.03908 0.42936
 H1820 H 0.34108 -0.06849 0.46046
 H1821 H 0.42325 -0.00673 0.46206
 H1822 H 0.44522 0.00038 0.46920
 H1823 H 0.44491 -0.02973 0.49947
 H1824 H 0.42295 -0.03671 0.49219
 C1825 C 0.35646 0.44521 -0.03819
 C1826 C 0.36237 0.45613 -0.04423
 C1827 C 0.35630 0.46205 -0.05512
 C1828 C 0.34444 0.45701 -0.06005
 C1829 C 0.33843 0.44589 -0.05417
 C1830 C 0.34460 0.44013 -0.04309
 C1831 C 0.37480 0.46107 -0.03944
 C1832 C 0.38529 0.46509 -0.03552
 C1833 C 0.39767 0.46967 -0.03105
 C1834 C 0.40831 0.47346 -0.02731
 C1835 C 0.42111 0.47783 -0.02295
 C1836 C 0.42746 0.48824 -0.02943
 C1837 C 0.44006 0.49224 -0.02544
 C1838 C 0.44648 0.48587 -0.01490
 C1839 C 0.43994 0.47547 -0.00838
 C1840 C 0.42735 0.47149 -0.01239
 H1841 H 0.36109 0.44055 -0.02976
 H1842 H 0.36080 0.47051 -0.05987
 H1843 H 0.34008 0.46179 -0.06855
 H1844 H 0.34037 0.43161 -0.03821
 H1845 H 0.42273 0.49320 -0.03764
 H1846 H 0.44479 0.50025 -0.03071
 H1847 H 0.44458 0.47031 -0.00026
 H1848 H 0.42253 0.46340 -0.00733
 C1849 C 0.39429 0.44565 0.78787
 C1850 C 0.38848 0.45668 0.79381
 C1851 C 0.39431 0.46236 0.80498
 C1852 C 0.40583 0.45694 0.81028
 C1853 C 0.41167 0.44574 0.80448
 C1854 C 0.40581 0.44021 0.79314
 C1855 C 0.37629 0.46189 0.78873
 C1856 C 0.36596 0.46607 0.78461
 C1857 C 0.35371 0.47076 0.77996
 C1858 C 0.34312 0.47457 0.77613
 C1859 C 0.33032 0.47887 0.77174
 C1860 C 0.32401 0.48940 0.77806
 C1861 C 0.31129 0.49313 0.77425
 C1862 C 0.30470 0.48634 0.76405
 C1863 C 0.31124 0.47589 0.75762
 C1864 C 0.32395 0.47219 0.76146
 H1865 H 0.38983 0.44116 0.77923
 H1866 H 0.38988 0.47088 0.80968
 H1867 H 0.41007 0.46146 0.81900
 H1868 H 0.41003 0.43160 0.78841
 H1869 H 0.32885 0.49461 0.78607
 H1870 H 0.30657 0.50120 0.77943
 H1871 H 0.30648 0.47044 0.74975
 H1872 H 0.32874 0.46399 0.75652
 C1873 C 0.39192 -0.05623 0.28908
 C1874 C 0.38611 -0.04521 0.29504
 C1875 C 0.39199 -0.03948 0.30616
 C1876 C 0.40359 -0.04482 0.31138
 C1877 C 0.40946 -0.05599 0.30554
 C1878 C 0.40352 -0.06159 0.29428
 C1879 C 0.37393 -0.03998 0.28994
 C1880 C 0.36364 -0.03573 0.28578
 C1881 C 0.35148 -0.03090 0.28104
 C1882 C 0.34099 -0.02692 0.27709
 C1883 C 0.32837 -0.02233 0.27250
 C1884 C 0.32208 -0.01184 0.27892
 C1885 C 0.30959 -0.00770 0.27479
 C1886 C 0.30320 -0.01402 0.26417
 C1887 C 0.30969 -0.02448 0.25770
 C1888 C 0.32218 -0.02859 0.26185
 H1889 H 0.38744 -0.06075 0.28048
 H1890 H 0.38756 -0.03096 0.31086
 H1891 H 0.40788 -0.04025 0.32004
 H1892 H 0.40775 -0.07017 0.28952
 H1893 H 0.32676 -0.00694 0.28720
 H1894 H 0.30488 0.00034 0.28003
 H1895 H 0.30507 -0.02960 0.24952
 H1896 H 0.32695 -0.03675 0.25684
 C1897 C 0.10629 0.53741 0.69594
 C1898 C 0.11224 0.54344 0.70686
 C1899 C 0.10624 0.55437 0.71280
 C1900 C 0.09439 0.55934 0.70778
 C1901 C 0.08838 0.55344 0.69671
 C1902 C 0.09444 0.54235 0.69089
 C1903 C 0.12466 0.53863 0.71175
 C1904 C 0.13516 0.53470 0.71573
 C1905 C 0.14754 0.53023 0.72024
 C1906 C 0.15820 0.52650 0.72398
 C1907 C 0.17101 0.52216 0.72828
 C1908 C 0.17739 0.52864 0.73869
 C1909 C 0.19001 0.52470 0.74262
 C1910 C 0.19644 0.51419 0.73616
 C1911 C 0.18987 0.50767 0.72576
 C1912 C 0.17725 0.51164 0.72187
 H1913 H 0.11086 0.52895 0.69125
 H1914 H 0.11077 0.55913 0.72125
 H1915 H 0.09002 0.56787 0.71251
 H1916 H 0.09011 0.53755 0.68237
 H1917 H 0.17266 0.53682 0.74371
 H1918 H 0.19476 0.52996 0.75062
 H1919 H 0.19451 0.49958 0.72054
 H1920 H 0.17242 0.50658 0.71377
 C1921 C 0.10447 0.03617 0.19647
 C1922 C 0.11035 0.04211 0.20746
 C1923 C 0.10437 0.05306 0.21337
 C1924 C 0.09264 0.05817 0.20823
 C1925 C 0.08668 0.05240 0.19702
 C1926 C 0.09274 0.04123 0.19129
 C1927 C 0.12272 0.03723 0.21242
 C1928 C 0.13320 0.03328 0.21641
 C1929 C 0.14561 0.02884 0.22090
 C1930 C 0.15631 0.02519 0.22458
 C1931 C 0.16922 0.02102 0.22876
 C1932 C 0.17572 0.02776 0.23893
 C1933 C 0.18850 0.02411 0.24259
 C1934 C 0.19499 0.01366 0.23610
 C1935 C 0.18827 0.00683 0.22600
 C1936 C 0.17549 0.01050 0.22237
 H1937 H 0.10903 0.02769 0.19181
 H1938 H 0.10885 0.05775 0.22189
 H1939 H 0.08836 0.06673 0.21300
 H1940 H 0.08853 0.03644 0.18269
 H1941 H 0.17097 0.03594 0.24392
 H1942 H 0.19336 0.02960 0.25038
 H1943 H 0.19295 -0.00124 0.22078
 H1944 H 0.17056 0.00524 0.21446
 C1945 C 0.64479 0.69636 0.21312
 C1946 C 0.63869 0.70721 0.20716
 C1947 C 0.64434 0.71295 0.19595
 C1948 C 0.65596 0.70778 0.19062
 C1949 C 0.66209 0.69675 0.19644
 C1950 C 0.65641 0.69116 0.20782
 C1951 C 0.62642 0.71218 0.21228
 C1952 C 0.61602 0.71620 0.21640
 C1953 C 0.60370 0.72074 0.22102
 C1954 C 0.59305 0.72447 0.22478
 C1955 C 0.58021 0.72875 0.22903
 C1956 C 0.57391 0.73919 0.22256
 C1957 C 0.56116 0.74293 0.22622
 C1958 C 0.55450 0.73624 0.23643
 C1959 C 0.56101 0.72589 0.24302
 C1960 C 0.57377 0.72217 0.23933
 H1961 H 0.64048 0.69182 0.22179
 H1962 H 0.63968 0.72134 0.19123
 H1963 H 0.66005 0.71235 0.18187
 H1964 H 0.66085 0.68268 0.21257
 H1965 H 0.57879 0.74432 0.21455
 H1966 H 0.55646 0.75093 0.22092
 H1967 H 0.55620 0.72051 0.25090
 H1968 H 0.57854 0.71405 0.24438
 C1969 C 0.14432 0.71222 0.69585
 C1970 C 0.13858 0.70638 0.70697
 C1971 C 0.14448 0.69532 0.71274
 C1972 C 0.15600 0.69001 0.70733
 C1973 C 0.16177 0.69569 0.69604
 C1974 C 0.15584 0.70693 0.69042
 C1975 C 0.12641 0.71149 0.71221
 C1976 C 0.11609 0.71561 0.71642
 C1977 C 0.10386 0.72027 0.72117
 C1978 C 0.09329 0.72409 0.72503
 C1979 C 0.08051 0.72847 0.72941
 C1980 C 0.07412 0.72193 0.73975
 C1981 C 0.06141 0.72572 0.74354
 C1982 C 0.05490 0.73611 0.73699
 C1983 C 0.06153 0.74276 0.72675
 C1984 C 0.07423 0.73895 0.72298
 H1985 H 0.13981 0.72077 0.69130
 H1986 H 0.14011 0.69071 0.72134
 H1987 H 0.16030 0.68137 0.71192
 H1988 H 0.16000 0.71157 0.68174
 H1989 H 0.07888 0.71377 0.74476
 H1990 H 0.05662 0.72036 0.75145
 H1991 H 0.05683 0.75078 0.72148
 H1992 H 0.07908 0.74406 0.71494
 C1993 C 0.60617 0.21272 0.55388
 C1994 C 0.61210 0.20666 0.54297
 C1995 C 0.60602 0.19578 0.53699
 C1996 C 0.59413 0.19088 0.54197
 C1997 C 0.58815 0.19680 0.55304
 C1998 C 0.59428 0.20784 0.55888
 C1999 C 0.62458 0.21140 0.53813
 C2000 C 0.63511 0.21526 0.53418
 C2001 C 0.64754 0.21964 0.52970
 C2002 C 0.65823 0.22330 0.52599
 C2003 C 0.67108 0.22756 0.52170
 C2004 C 0.67747 0.22096 0.51139
 C2005 C 0.69011 0.22486 0.50747
 C2006 C 0.69654 0.23544 0.51382
 C2007 C 0.68996 0.24207 0.52412
 C2008 C 0.67733 0.23815 0.52802
 H2009 H 0.61081 0.22114 0.55860
 H2010 H 0.61054 0.19101 0.52855
 H2011 H 0.58970 0.18238 0.53721
 H2012 H 0.58997 0.21265 0.56740
 H2013 H 0.67273 0.21272 0.50645
 H2014 H 0.69487 0.21950 0.49954
 H2015 H 0.69460 0.25023 0.52926
 H2016 H 0.67248 0.24331 0.53603
 C2017 C 0.60635 0.71275 0.05392
 C2018 C 0.61234 0.70672 0.04303
 C2019 C 0.60636 0.69576 0.03708
 C2020 C 0.59451 0.69077 0.04207
 C2021 C 0.58847 0.69667 0.05311
 C2022 C 0.59450 0.70778 0.05893
 C2023 C 0.62477 0.71157 0.03818
 C2024 C 0.63527 0.71554 0.03424
 C2025 C 0.64766 0.72007 0.02977
 C2026 C 0.65831 0.72384 0.02608
 C2027 C 0.67113 0.72821 0.02180
 C2028 C 0.67750 0.72179 0.01137
 C2029 C 0.69012 0.72576 0.00747
 C2030 C 0.69656 0.73624 0.01398
 C2031 C 0.69001 0.74270 0.02440
 C2032 C 0.67739 0.73870 0.02827
 H2033 H 0.61090 0.72123 0.05861
 H2034 H 0.61092 0.69101 0.02866
 H2035 H 0.59015 0.68222 0.03733
 H2036 H 0.59014 0.71258 0.06743
 H2037 H 0.67275 0.71363 0.00631
 H2038 H 0.69486 0.72054 -0.00056
 H2039 H 0.69467 0.75077 0.02966
 H2040 H 0.67256 0.74373 0.03639
 C2041 C 0.14518 0.05425 0.03674
 C2042 C 0.13936 0.04306 0.04235
 C2043 C 0.14528 0.03700 0.05324
 C2044 C 0.15689 0.04217 0.05861
 C2045 C 0.16279 0.05358 0.05318
 C2046 C 0.15679 0.05947 0.04207
 C2047 C 0.12709 0.03806 0.03722
 C2048 C 0.11669 0.03401 0.03310
 C2049 C 0.10437 0.02943 0.02849
 C2050 C 0.09372 0.02566 0.02474
 C2051 C 0.08086 0.02135 0.02051
 C2052 C 0.07453 0.01099 0.02708
 C2053 C 0.06176 0.00724 0.02345
 C2054 C 0.05512 0.01383 0.01318
 C2055 C 0.06167 0.02410 0.00648
 C2056 C 0.07445 0.02783 0.01014
 H2057 H 0.14066 0.05904 0.02831
 H2058 H 0.14084 0.02834 0.05767
 H2059 H 0.16113 0.03728 0.06711
 H2060 H 0.16095 0.06821 0.03753
 H2061 H 0.07940 0.00593 0.03515
 H2062 H 0.05704 -0.00070 0.02883
 H2063 H 0.05687 0.02941 -0.00145
 H2064 H 0.07924 0.03590 0.00501
 C2065 C 0.14452 0.55499 0.53739
 C2066 C 0.13858 0.54395 0.54317
 C2067 C 0.14429 0.53812 0.55431
 C2068 C 0.15583 0.54341 0.55974
 C2069 C 0.16180 0.55463 0.55411
 C2070 C 0.15605 0.56030 0.54280
 C2071 C 0.12638 0.53886 0.53796
 C2072 C 0.11604 0.53475 0.53376
 C2073 C 0.10378 0.53011 0.52905
 C2074 C 0.09318 0.52631 0.52521
 C2075 C 0.08038 0.52196 0.52085
 C2076 C 0.07412 0.51143 0.52722
 C2077 C 0.06140 0.50762 0.52347
 C2078 C 0.05475 0.51433 0.51328
 C2079 C 0.06123 0.52478 0.50680
 C2080 C 0.07395 0.52856 0.51058
 H2081 H 0.14015 0.55960 0.52879
 H2082 H 0.13975 0.52958 0.55888
 H2083 H 0.15997 0.53877 0.56843
 H2084 H 0.16037 0.56893 0.53820
 H2085 H 0.07899 0.50627 0.53522
 H2086 H 0.05672 0.49955 0.52868
 H2087 H 0.05642 0.53018 0.49893
 H2088 H 0.07870 0.53676 0.50561
 C2089 C 0.64485 0.05478 0.53694
 C2090 C 0.63915 0.04351 0.54252
 C2091 C 0.64520 0.03740 0.55332
 C2092 C 0.65683 0.04261 0.55861
 C2093 C 0.66257 0.05405 0.55318
 C2094 C 0.65648 0.06002 0.54221
 C2095 C 0.62687 0.03847 0.53745
 C2096 C 0.61646 0.03440 0.53337
 C2097 C 0.60414 0.02981 0.52878
 C2098 C 0.59350 0.02603 0.52502
 C2099 C 0.58066 0.02172 0.52075
 C2100 C 0.57439 0.01122 0.52716
 C2101 C 0.56165 0.00742 0.52345
 C2102 C 0.55499 0.01412 0.51326
 C2103 C 0.56147 0.02455 0.50674
 C2104 C 0.57421 0.02832 0.51048
 H2105 H 0.64023 0.05961 0.52859
 H2106 H 0.64085 0.02868 0.55773
 H2107 H 0.66124 0.03775 0.56704
 H2108 H 0.66061 0.06882 0.53777
 H2109 H 0.57928 0.00606 0.53515
 H2110 H 0.55698 -0.00063 0.52869
 H2111 H 0.55665 0.02994 0.49887
 H2112 H 0.57896 0.03649 0.50547
 C2113 C 0.64478 0.55463 0.03638
 C2114 C 0.63901 0.54343 0.04203
 C2115 C 0.64502 0.53733 0.05286
 C2116 C 0.65669 0.54250 0.05812
 C2117 C 0.66250 0.55387 0.05262
 C2118 C 0.65645 0.55982 0.04161
 C2119 C 0.62669 0.53843 0.03700
 C2120 C 0.61626 0.53438 0.03295
 C2121 C 0.60391 0.52980 0.02842
 C2122 C 0.59325 0.52604 0.02471
 C2123 C 0.58039 0.52173 0.02049
 C2124 C 0.57414 0.51125 0.02696
 C2125 C 0.56139 0.50745 0.02329
 C2126 C 0.55470 0.51412 0.01310
 C2127 C 0.56117 0.52452 0.00653
 C2128 C 0.57392 0.52830 0.01022
 H2129 H 0.64019 0.55944 0.02801
 H2130 H 0.64062 0.52867 0.05733
 H2131 H 0.66107 0.53765 0.06658
 H2132 H 0.66064 0.56856 0.03712
 H2133 H 0.57905 0.50611 0.03495
 H2134 H 0.55672 0.49941 0.02857
 H2135 H 0.55633 0.52989 -0.00134
 H2136 H 0.57866 0.53645 0.00518
 C2137 C 0.05388 0.03589 0.14562
 C2138 C 0.04289 0.04174 0.13968
 C2139 C 0.03692 0.05268 0.14561
 C2140 C 0.04199 0.05787 0.15736
 C2141 C 0.05320 0.05221 0.16338
 C2142 C 0.05899 0.04104 0.15737
 C2143 C 0.03800 0.03678 0.12729
 C2144 C 0.03403 0.03280 0.11679
 C2145 C 0.02954 0.02834 0.10437
 C2146 C 0.02584 0.02472 0.09365
 C2147 C 0.02158 0.02062 0.08072
 C2148 C 0.01138 0.02739 0.07435
 C2149 C 0.00763 0.02382 0.06155
 C2150 C 0.01406 0.01342 0.05492
 C2151 C 0.02419 0.00656 0.06151
 C2152 C 0.02792 0.01015 0.07431
 H2153 H 0.05859 0.02742 0.14110
 H2154 H 0.02841 0.05729 0.14108
 H2155 H 0.03717 0.06642 0.16160
 H2156 H 0.06758 0.03632 0.16162
 H2157 H 0.00643 0.03553 0.07921
 H2158 H -0.00019 0.02933 0.05680
 H2159 H 0.02937 -0.00147 0.05672
 H2160 H 0.03585 0.00487 0.07915
 C2161 C 0.05421 0.53644 0.64501
 C2162 C 0.04306 0.54215 0.63922
 C2163 C 0.03704 0.55304 0.64522
 C2164 C 0.04222 0.55830 0.65689
 C2165 C 0.05354 0.55274 0.66272
 C2166 C 0.05941 0.54168 0.65668
 C2167 C 0.03805 0.53711 0.62690
 C2168 C 0.03400 0.53305 0.61646
 C2169 C 0.02943 0.52851 0.60411
 C2170 C 0.02567 0.52481 0.59343
 C2171 C 0.02136 0.52062 0.58055
 C2172 C 0.01107 0.52727 0.57420
 C2173 C 0.00732 0.52367 0.56142
 C2174 C 0.01384 0.51334 0.55477
 C2175 C 0.02404 0.50657 0.56134
 C2176 C 0.02777 0.51020 0.57413
 H2177 H 0.05896 0.52802 0.64044
 H2178 H 0.02842 0.55755 0.64080
 H2179 H 0.03744 0.56681 0.66125
 H2180 H 0.06812 0.53713 0.66089
 H2181 H 0.00606 0.53538 0.57907
 H2182 H -0.00056 0.52910 0.55668
 H2183 H 0.02929 0.49859 0.55654
 H2184 H 0.03578 0.50501 0.57894
 C2185 C 0.55366 0.03589 0.64543
 C2186 C 0.54269 0.04172 0.63944
 C2187 C 0.53673 0.05270 0.64531
 C2188 C 0.54179 0.05795 0.65704
 C2189 C 0.55297 0.05229 0.66311
 C2190 C 0.55877 0.04109 0.65716
 C2191 C 0.53781 0.03670 0.62707
 C2192 C 0.53385 0.03266 0.61659
 C2193 C 0.52937 0.02813 0.60419
 C2194 C 0.52568 0.02444 0.59348
 C2195 C 0.52145 0.02028 0.58057
 C2196 C 0.51114 0.02690 0.57421
 C2197 C 0.50744 0.02330 0.56141
 C2198 C 0.51402 0.01302 0.55475
 C2199 C 0.52425 0.00629 0.56133
 C2200 C 0.52793 0.00991 0.57414
 H2201 H 0.55837 0.02739 0.64096
 H2202 H 0.52823 0.05731 0.64074
 H2203 H 0.53697 0.06652 0.66124
 H2204 H 0.56734 0.03638 0.66145
 H2205 H 0.50608 0.03496 0.57909
 H2206 H 0.49954 0.02871 0.55667
 H2207 H 0.52954 -0.00166 0.55652
 H2208 H 0.53595 0.00474 0.57895
 C2209 C 0.55305 0.53564 0.14555
 C2210 C 0.54210 0.54151 0.13956
 C2211 C 0.53614 0.55250 0.14543
 C2212 C 0.54120 0.55770 0.15719
 C2213 C 0.55233 0.55198 0.16322
 C2214 C 0.55813 0.54082 0.15731
 C2215 C 0.53724 0.53653 0.12716
 C2216 C 0.53331 0.53252 0.11665
 C2217 C 0.52888 0.52803 0.10422
 C2218 C 0.52524 0.52438 0.09349
 C2219 C 0.52106 0.52025 0.08055
 C2220 C 0.51077 0.52689 0.07417
 C2221 C 0.50711 0.52332 0.06135
 C2222 C 0.51371 0.51304 0.05470
 C2223 C 0.52392 0.50630 0.06129
 C2224 C 0.52756 0.50990 0.07412
 H2225 H 0.55776 0.52714 0.14107
 H2226 H 0.52767 0.55714 0.14086
 H2227 H 0.53647 0.56629 0.16145
 H2228 H 0.56670 0.53616 0.16166
 H2229 H 0.50570 0.53494 0.07905
 H2230 H 0.49922 0.52873 0.05660
 H2231 H 0.52923 0.49836 0.05649
 H2232 H 0.53556 0.50472 0.07895
 C2233 C 0.21113 0.55595 0.60751
 C2234 C 0.20523 0.54485 0.61325
 C2235 C 0.19446 0.53881 0.60706
 C2236 C 0.18951 0.54391 0.59523
 C2237 C 0.19528 0.55515 0.58943
 C2238 C 0.20620 0.56107 0.59568
 C2239 C 0.21005 0.53985 0.62564
 C2240 C 0.21398 0.53577 0.63609
 C2241 C 0.21849 0.53112 0.64842
 C2242 C 0.22227 0.52727 0.65902
 C2243 C 0.22671 0.52282 0.67176
 C2244 C 0.22040 0.51223 0.67799
 C2245 C 0.22449 0.50813 0.69051
 C2246 C 0.23498 0.51458 0.69699
 C2247 C 0.24131 0.52517 0.69058
 C2248 C 0.23719 0.52925 0.67806
 H2249 H 0.21946 0.56071 0.61223
 H2250 H 0.18982 0.53022 0.61142
 H2251 H 0.18111 0.53909 0.59070
 H2252 H 0.21089 0.56972 0.59151
 H2253 H 0.21225 0.50721 0.67321
 H2254 H 0.21937 0.49997 0.69515
 H2255 H 0.24938 0.53040 0.69526
 H2256 H 0.24213 0.53748 0.67334
 C2257 C 0.21234 0.05360 0.10479
 C2258 C 0.20653 0.04241 0.11041
 C2259 C 0.19565 0.03651 0.10429
 C2260 C 0.19049 0.04185 0.09267
 C2261 C 0.19612 0.05326 0.08696
 C2262 C 0.20722 0.05898 0.09316
 C2263 C 0.21148 0.03725 0.12269
 C2264 C 0.21549 0.03310 0.13309
 C2265 C 0.22004 0.02846 0.14541
 C2266 C 0.22379 0.02469 0.15605
 C2267 C 0.22811 0.02044 0.16890
 C2268 C 0.22153 0.01017 0.17538
 C2269 C 0.22531 0.00649 0.18814
 C2270 C 0.23573 0.01307 0.19460
 C2271 C 0.24241 0.02324 0.18789
 C2272 C 0.23861 0.02690 0.17514
 H2273 H 0.22077 0.05826 0.10946
 H2274 H 0.19107 0.02785 0.10858
 H2275 H 0.18199 0.03708 0.08827
 H2276 H 0.21191 0.06771 0.08916
 H2277 H 0.21337 0.00513 0.17065
 H2278 H 0.21993 -0.00137 0.19299
 H2279 H 0.25046 0.02853 0.19254
 H2280 H 0.24375 0.03488 0.17022
 C2281 C 0.69551 0.21302 0.64393
 C2282 C 0.70644 0.20711 0.63793
 C2283 C 0.71250 0.19624 0.64390
 C2284 C 0.70758 0.19120 0.65576
 C2285 C 0.69649 0.19698 0.66182
 C2286 C 0.69057 0.20801 0.65580
 C2287 C 0.71124 0.21199 0.62548
 C2288 C 0.71516 0.21594 0.61497
 C2289 C 0.71964 0.22042 0.60256
 C2290 C 0.72337 0.22411 0.59189
 C2291 C 0.72772 0.22838 0.57906
 C2292 C 0.73821 0.22195 0.57282
 C2293 C 0.74219 0.22580 0.56019
 C2294 C 0.73570 0.23617 0.55359
 C2295 C 0.72521 0.24265 0.56001
 C2296 C 0.72126 0.23877 0.57265
 H2297 H 0.69074 0.22144 0.63938
 H2298 H 0.72096 0.19157 0.63932
 H2299 H 0.71239 0.18271 0.66011
 H2300 H 0.68203 0.21272 0.66017
 H2301 H 0.74326 0.21387 0.57768
 H2302 H 0.75027 0.22057 0.55555
 H2303 H 0.71997 0.25064 0.55524
 H2304 H 0.71310 0.24379 0.57738
 C2305 C 0.69463 0.71224 0.14330
 C2306 C 0.70551 0.70628 0.13725
 C2307 C 0.71156 0.69540 0.14321
 C2308 C 0.70668 0.69040 0.15510
 C2309 C 0.69565 0.69623 0.16121
 C2310 C 0.68973 0.70727 0.15520
 C2311 C 0.71030 0.71116 0.12480
 C2312 C 0.71421 0.71513 0.11429
 C2313 C 0.71870 0.71965 0.10191
 C2314 C 0.72247 0.72341 0.09127
 C2315 C 0.72687 0.72777 0.07849
 C2316 C 0.73730 0.72128 0.07219
 C2317 C 0.74140 0.72531 0.05964
 C2318 C 0.73511 0.73590 0.05322
 C2319 C 0.72468 0.74241 0.05969
 C2320 C 0.72060 0.73836 0.07224
 H2321 H 0.68987 0.72067 0.13877
 H2322 H 0.71998 0.69070 0.13860
 H2323 H 0.71150 0.68190 0.15944
 H2324 H 0.68124 0.71201 0.15961
 H2325 H 0.74221 0.71305 0.07693
 H2326 H 0.74943 0.72005 0.05496
 H2327 H 0.71958 0.75057 0.05504
 H2328 H 0.71250 0.74343 0.07702
 C2329 C 0.55428 0.71355 0.10479
 C2330 C 0.54310 0.70783 0.11053
 C2331 C 0.53706 0.69696 0.10448
 C2332 C 0.54225 0.69174 0.09281
 C2333 C 0.55359 0.69730 0.08703
 C2334 C 0.55949 0.70835 0.09311
 C2335 C 0.53809 0.71282 0.12286
 C2336 C 0.53402 0.71682 0.13330
 C2337 C 0.52941 0.72131 0.14565
 C2338 C 0.52562 0.72496 0.15632
 C2339 C 0.52128 0.72912 0.16920
 C2340 C 0.51112 0.72230 0.17558
 C2341 C 0.50730 0.72592 0.18834
 C2342 C 0.51363 0.73642 0.19492
 C2343 C 0.52372 0.74334 0.18831
 C2344 C 0.52751 0.73969 0.17555
 H2345 H 0.55905 0.72195 0.10941
 H2346 H 0.52842 0.69244 0.10886
 H2347 H 0.53745 0.68325 0.08841
 H2348 H 0.56821 0.71289 0.08895
 H2349 H 0.50625 0.71407 0.17076
 H2350 H 0.49951 0.72036 0.19311
 H2351 H 0.52882 0.75146 0.19306
 H2352 H 0.53542 0.74502 0.17071
 C2353 C 0.05436 0.71361 0.60541
 C2354 C 0.04319 0.70788 0.61115
 C2355 C 0.03713 0.69703 0.60508
 C2356 C 0.04231 0.69183 0.59339
 C2357 C 0.05365 0.69740 0.58761
 C2358 C 0.05956 0.70843 0.59372
 C2359 C 0.03819 0.71285 0.62349
 C2360 C 0.03415 0.71684 0.63394
 C2361 C 0.02957 0.72131 0.64632
 C2362 C 0.02581 0.72496 0.65700
 C2363 C 0.02151 0.72911 0.66989
 C2364 C 0.01136 0.72229 0.67630
 C2365 C 0.00758 0.72590 0.68907
 C2366 C 0.01394 0.73640 0.69563
 C2367 C 0.02402 0.74331 0.68901
 C2368 C 0.02777 0.73967 0.67624
 H2369 H 0.05914 0.72199 0.61004
 H2370 H 0.02850 0.69250 0.60946
 H2371 H 0.03749 0.68336 0.58898
 H2372 H 0.06828 0.71298 0.58956
 H2373 H 0.00647 0.71407 0.67149
 H2374 H -0.00019 0.72035 0.69386
 H2375 H 0.02914 0.75143 0.69375
 H2376 H 0.03567 0.74500 0.67137
 C2377 C 0.55285 0.60451 0.21360
 C2378 C 0.54189 0.61039 0.20762
 C2379 C 0.53598 0.60435 0.19668
 C2380 C 0.54110 0.59257 0.19163
 C2381 C 0.55224 0.58665 0.19746
 C2382 C 0.55800 0.59273 0.20857
 C2383 C 0.53695 0.62281 0.21246
 C2384 C 0.53297 0.63332 0.21637
 C2385 C 0.52848 0.64576 0.22078
 C2386 C 0.52480 0.65648 0.22441
 C2387 C 0.52060 0.66941 0.22855
 C2388 C 0.51042 0.67586 0.22182
 C2389 C 0.50673 0.68866 0.22546
 C2390 C 0.51320 0.69521 0.23589
 C2391 C 0.52331 0.68855 0.24271
 C2392 C 0.52698 0.67575 0.23905
 H2393 H 0.55752 0.60911 0.22206
 H2394 H 0.52750 0.60883 0.19196
 H2395 H 0.53641 0.58818 0.18308
 H2396 H 0.56656 0.58846 0.21332
 H2397 H 0.50544 0.67105 0.21366
 H2398 H 0.49892 0.69346 0.21997
 H2399 H 0.52852 0.69327 0.25077
 H2400 H 0.53490 0.67086 0.24430
 C2401 C 0.05402 0.60508 0.71329
 C2402 C 0.04289 0.61082 0.70750
 C2403 C 0.03693 0.60475 0.69661
 C2404 C 0.04215 0.59307 0.69142
 C2405 C 0.05345 0.58730 0.69707
 C2406 C 0.05927 0.59340 0.70813
 C2407 C 0.03784 0.62314 0.71247
 C2408 C 0.03377 0.63357 0.71650
 C2409 C 0.02918 0.64593 0.72104
 C2410 C 0.02543 0.65659 0.72477
 C2411 C 0.02115 0.66946 0.72903
 C2412 C 0.01092 0.67589 0.72237
 C2413 C 0.00718 0.68865 0.72609
 C2414 C 0.01366 0.69517 0.73653
 C2415 C 0.02382 0.68852 0.74329
 C2416 C 0.02753 0.67576 0.73954
 H2417 H 0.05873 0.60971 0.72172
 H2418 H 0.02832 0.60913 0.69203
 H2419 H 0.03741 0.58866 0.68291
 H2420 H 0.06796 0.58924 0.71274
 H2421 H 0.00594 0.67111 0.71419
 H2422 H -0.00066 0.69345 0.72066
 H2423 H 0.02903 0.69323 0.75135
 H2424 H 0.03549 0.67089 0.74474
 C2425 C 0.03739 0.14509 0.05454
 C2426 C 0.04331 0.13901 0.04365
 C2427 C 0.05445 0.14472 0.03786
 C2428 C 0.05977 0.15638 0.04301
 C2429 C 0.05403 0.16254 0.05412
 C2430 C 0.04267 0.15675 0.05974
 C2431 C 0.03819 0.12671 0.03868
 C2432 C 0.03405 0.11629 0.03466
 C2433 C 0.02939 0.10396 0.03012
 C2434 C 0.02558 0.09331 0.02637
 C2435 C 0.02126 0.08047 0.02206
 C2436 C 0.02757 0.07424 0.01148
 C2437 C 0.02383 0.06150 0.00767
 C2438 C 0.01370 0.05479 0.01443
 C2439 C 0.00729 0.06124 0.02494
 C2440 C 0.01106 0.07398 0.02873
 H2441 H 0.02876 0.14073 0.05912
 H2442 H 0.05912 0.14009 0.02943
 H2443 H 0.06847 0.16046 0.03833
 H2444 H 0.03789 0.16111 0.06825
 H2445 H 0.03551 0.07916 0.00627
 H2446 H 0.02899 0.05686 -0.00046
 H2447 H -0.00052 0.05638 0.03038
 H2448 H 0.00613 0.07870 0.03696
 C2449 C 0.03691 0.64554 0.55357
 C2450 C 0.04288 0.63946 0.54270
 C2451 C 0.05405 0.64519 0.53694
 C2452 C 0.05932 0.65686 0.54212
 C2453 C 0.05350 0.66297 0.55316
 C2454 C 0.04216 0.65721 0.55877
 C2455 C 0.03782 0.62714 0.53773
 C2456 C 0.03373 0.61670 0.53372
 C2457 C 0.02914 0.60433 0.52919
 C2458 C 0.02539 0.59366 0.52546
 C2459 C 0.02116 0.58078 0.52118
 C2460 C 0.02782 0.57436 0.51093
 C2461 C 0.02414 0.56159 0.50717
 C2462 C 0.01373 0.55504 0.51364
 C2463 C 0.00696 0.56168 0.52381
 C2464 C 0.01067 0.57445 0.52755
 H2465 H 0.02828 0.64117 0.55813
 H2466 H 0.05876 0.64055 0.52854
 H2467 H 0.06804 0.66101 0.53754
 H2468 H 0.03741 0.66163 0.56726
 H2469 H 0.03598 0.57915 0.50596
 H2470 H 0.02958 0.55679 0.49932
 H2471 H -0.00108 0.55695 0.52902
 H2472 H 0.00546 0.57933 0.53552
 C2473 C 0.55362 0.14520 0.53646
 C2474 C 0.54247 0.13948 0.54226
 C2475 C 0.53650 0.14560 0.55310
 C2476 C 0.54173 0.15730 0.55824
 C2477 C 0.55306 0.16305 0.55260
 C2478 C 0.55888 0.15690 0.54157
 C2479 C 0.53744 0.12712 0.53736
 C2480 C 0.53340 0.11664 0.53341
 C2481 C 0.52888 0.10423 0.52894
 C2482 C 0.52520 0.09351 0.52527
 C2483 C 0.52106 0.08059 0.52104
 C2484 C 0.51061 0.07421 0.52743
 C2485 C 0.50699 0.06140 0.52374
 C2486 C 0.51380 0.05478 0.51359
 C2487 C 0.52418 0.06137 0.50711
 C2488 C 0.52777 0.07417 0.51082
 H2489 H 0.55834 0.14053 0.52807
 H2490 H 0.52788 0.14124 0.55768
 H2491 H 0.53699 0.16175 0.56672
 H2492 H 0.56759 0.16104 0.53697
 H2493 H 0.50537 0.07908 0.53538
 H2494 H 0.49897 0.05664 0.52896
 H2495 H 0.52965 0.05658 0.49927
 H2496 H 0.53590 0.07901 0.50583
 C2497 C 0.53689 0.64534 0.05316
 C2498 C 0.54288 0.63922 0.04232
 C2499 C 0.55405 0.64491 0.03655
 C2500 C 0.55933 0.65660 0.04169
 C2501 C 0.55349 0.66276 0.05270
 C2502 C 0.54214 0.65703 0.05831
 C2503 C 0.53780 0.62688 0.03739
 C2504 C 0.53369 0.61643 0.03342
 C2505 C 0.52907 0.60406 0.02894
 C2506 C 0.52531 0.59338 0.02525
 C2507 C 0.52105 0.58049 0.02100
 C2508 C 0.52767 0.57408 0.01071
 C2509 C 0.52398 0.56130 0.00697
 C2510 C 0.51361 0.55474 0.01350
 C2511 C 0.50689 0.56138 0.02371
 C2512 C 0.51061 0.57415 0.02742
 H2513 H 0.52825 0.64101 0.05771
 H2514 H 0.55878 0.64023 0.02818
 H2515 H 0.56806 0.66072 0.03711
 H2516 H 0.53738 0.66149 0.06678
 H2517 H 0.53579 0.57888 0.00569
 H2518 H 0.52938 0.55652 -0.00091
 H2519 H 0.49888 0.55664 0.02896
 H2520 H 0.50544 0.57902 0.03543
 C2521 C 0.69514 0.10670 0.53858
 C2522 C 0.70603 0.11266 0.54462
 C2523 C 0.71201 0.10660 0.55548
 C2524 C 0.70707 0.09468 0.56037
 C2525 C 0.69599 0.08861 0.55448
 C2526 C 0.69016 0.09478 0.54343
 C2527 C 0.71088 0.12514 0.53985
 C2528 C 0.71482 0.13567 0.53594
 C2529 C 0.71930 0.14808 0.53146
 C2530 C 0.72303 0.15873 0.52770
 C2531 C 0.72736 0.17153 0.52329
 C2532 C 0.73792 0.17784 0.52959
 C2533 C 0.74194 0.19040 0.52551
 C2534 C 0.73544 0.19684 0.51505
 C2535 C 0.72487 0.19037 0.50874
 C2536 C 0.72087 0.17780 0.51284
 H2537 H 0.69043 0.11131 0.53016
 H2538 H 0.72045 0.11115 0.56023
 H2539 H 0.71190 0.09033 0.56885
 H2540 H 0.68166 0.09050 0.53855
 H2541 H 0.74299 0.17308 0.53770
 H2542 H 0.75008 0.19509 0.53062
 H2543 H 0.71961 0.19502 0.50069
 H2544 H 0.71267 0.17302 0.50792
 C2545 C 0.69573 0.60675 0.03753
 C2546 C 0.70664 0.61268 0.04359
 C2547 C 0.71257 0.60662 0.05448
 C2548 C 0.70755 0.59474 0.05938
 C2549 C 0.69648 0.58875 0.05346
 C2550 C 0.69068 0.59487 0.04242
 C2551 C 0.71154 0.62514 0.03882
 C2552 C 0.71553 0.63566 0.03494
 C2553 C 0.72006 0.64807 0.03051
 C2554 C 0.72382 0.65875 0.02682
 C2555 C 0.72817 0.67158 0.02252
 C2556 C 0.73852 0.67795 0.02908
 C2557 C 0.74250 0.69058 0.02515
 C2558 C 0.73616 0.69701 0.01460
 C2559 C 0.72581 0.69045 0.00801
 C2560 C 0.72186 0.67783 0.01196
 H2561 H 0.69105 0.61137 0.02911
 H2562 H 0.72102 0.61114 0.05925
 H2563 H 0.71227 0.59032 0.06789
 H2564 H 0.68217 0.59055 0.03760
 H2565 H 0.74346 0.67321 0.03729
 H2566 H 0.75047 0.69533 0.03048
 H2567 H 0.72068 0.69510 -0.00013
 H2568 H 0.71381 0.67299 0.00683
 C2569 C 0.19526 0.64319 0.71160
 C2570 C 0.20604 0.63713 0.70546
 C2571 C 0.21173 0.64294 0.69431
 C2572 C 0.20661 0.65470 0.68923
 C2573 C 0.19567 0.66081 0.69524
 C2574 C 0.19011 0.65494 0.70654
 C2575 C 0.21104 0.62479 0.71042
 C2576 C 0.21510 0.61437 0.71446
 C2577 C 0.21972 0.60206 0.71906
 C2578 C 0.22355 0.59147 0.72289
 C2579 C 0.22797 0.57873 0.72733
 C2580 C 0.23837 0.57237 0.72086
 C2581 C 0.24240 0.55980 0.72489
 C2582 C 0.23606 0.55340 0.73547
 C2583 C 0.22568 0.55995 0.74199
 C2584 C 0.22167 0.57252 0.73793
 H2585 H 0.19076 0.63876 0.72023
 H2586 H 0.22007 0.63832 0.68947
 H2587 H 0.21115 0.65892 0.68053
 H2588 H 0.18170 0.65936 0.71143
 H2589 H 0.24329 0.57707 0.71262
 H2590 H 0.25039 0.55506 0.71961
 H2591 H 0.22055 0.55532 0.75014
 H2592 H 0.21359 0.57734 0.74300
 C2593 C 0.19641 0.14494 0.21226
 C2594 C 0.20721 0.13893 0.20615
 C2595 C 0.21282 0.14469 0.19493
 C2596 C 0.20756 0.15633 0.18973
 C2597 C 0.19652 0.16242 0.19566
 C2598 C 0.19110 0.15659 0.20709
 C2599 C 0.21228 0.12664 0.21113
 C2600 C 0.21634 0.11622 0.21518
 C2601 C 0.22090 0.10388 0.21975
 C2602 C 0.22461 0.09322 0.22351
 C2603 C 0.22881 0.08036 0.22784
 C2604 C 0.23929 0.07400 0.22150
 C2605 C 0.24297 0.06124 0.22528
 C2606 C 0.23618 0.05466 0.23546
 C2607 C 0.22577 0.06124 0.24189
 C2608 C 0.22212 0.07399 0.23809
 H2609 H 0.19198 0.14055 0.22094
 H2610 H 0.22118 0.14010 0.19011
 H2611 H 0.21209 0.16044 0.18096
 H2612 H 0.18266 0.16090 0.21203
 H2613 H 0.24452 0.07883 0.21352
 H2614 H 0.25101 0.05649 0.22009
 H2615 H 0.22031 0.05649 0.24976
 H2616 H 0.21397 0.07881 0.24304
 C2617 C 0.71350 1.14533 0.69597
 C2618 C 0.70780 1.13953 0.70713
 C2619 C 0.69694 1.14553 0.71317
 C2620 C 0.69169 1.15719 0.70801
 C2621 C 0.69724 1.16302 0.69668
 C2622 C 0.70827 1.15700 0.69078
 C2623 C 0.71282 1.12721 0.71211
 C2624 C 0.71685 1.11677 0.71614
 C2625 C 0.72138 1.10441 0.72069
 C2626 C 0.72508 1.09374 0.72441
 C2627 C 0.72930 1.08086 0.72866
 C2628 C 0.72285 1.07456 0.73911
 C2629 C 0.72651 1.06178 0.74284
 C2630 C 0.73669 1.05512 0.73612
 C2631 C 0.74325 1.06164 0.72575
 C2632 C 0.73956 1.07441 0.72205
 H2633 H 0.72189 1.14075 0.69119
 H2634 H 0.69243 1.14111 0.72180
 H2635 H 0.68321 1.16155 0.71282
 H2636 H 0.71280 1.16120 0.68206
 H2637 H 0.71487 1.07945 0.74428
 H2638 H 0.72124 1.05708 0.75085
 H2639 H 0.75111 1.05682 0.72035
 H2640 H 0.74460 1.07919 0.71392
 C2641 C 0.71282 0.64473 0.19550
 C2642 C 0.70719 0.63898 0.20672
 C2643 C 0.69636 0.64500 0.21280
 C2644 C 0.69108 0.65664 0.20760
 C2645 C 0.69656 0.66242 0.19621
 C2646 C 0.70756 0.65637 0.19028
 C2647 C 0.71225 0.62669 0.21173
 C2648 C 0.71632 0.61628 0.21578
 C2649 C 0.72092 0.60395 0.22035
 C2650 C 0.72468 0.59330 0.22409
 C2651 C 0.72896 0.58045 0.22836
 C2652 C 0.72257 0.57415 0.23885
 C2653 C 0.72629 0.56139 0.24258
 C2654 C 0.73646 0.55474 0.23584
 C2655 C 0.74295 0.56127 0.22542
 C2656 C 0.73921 0.57402 0.22171
 H2657 H 0.72119 0.64013 0.19069
 H2658 H 0.69190 0.64062 0.22147
 H2659 H 0.68262 0.66102 0.21244
 H2660 H 0.71204 0.66053 0.18152
 H2661 H 0.71460 0.57902 0.24404
 H2662 H 0.72107 0.55669 0.25063
 H2663 H 0.75081 0.55646 0.22000
 H2664 H 0.74420 0.57880 0.21355
 C2665 C 0.53618 0.10428 0.69611
 C2666 C 0.54201 0.11025 0.70713
 C2667 C 0.55294 0.10433 0.71314
 C2668 C 0.55812 0.09258 0.70807
 C2669 C 0.55243 0.08658 0.69688
 C2670 C 0.54134 0.09253 0.69102
 C2671 C 0.53705 0.12264 0.71202
 C2672 C 0.53307 0.13313 0.71599
 C2673 C 0.52859 0.14554 0.72048
 C2674 C 0.52492 0.15624 0.72418
 C2675 C 0.52074 0.16915 0.72841
 C2676 C 0.52717 0.17544 0.73891
 C2677 C 0.52352 0.18822 0.74265
 C2678 C 0.51337 0.19491 0.73591
 C2679 C 0.50685 0.18840 0.72548
 C2680 C 0.51052 0.17562 0.72177
 H2681 H 0.52774 0.10879 0.69136
 H2682 H 0.55755 0.10888 0.72166
 H2683 H 0.56665 0.08829 0.71285
 H2684 H 0.53670 0.08819 0.68240
 H2685 H 0.53512 0.17053 0.74410
 H2686 H 0.52877 0.19291 0.75070
 H2687 H 0.49901 0.19323 0.72006
 H2688 H 0.50550 0.17085 0.71361
 C2689 C 1.03641 0.10404 0.19654
 C2690 C 1.04229 0.11002 0.20752
 C2691 C 1.05326 0.10415 0.21348
 C2692 C 1.05844 0.09240 0.20839
 C2693 C 1.05271 0.08638 0.19724
 C2694 C 1.04156 0.09230 0.19143
 C2695 C 1.03732 0.12241 0.21242
 C2696 C 1.03333 0.13290 0.21638
 C2697 C 1.02884 0.14532 0.22085
 C2698 C 1.02519 0.15603 0.22454
 C2699 C 1.02104 0.16894 0.22878
 C2700 C 1.02778 0.17539 0.23898
 C2701 C 1.02416 0.18818 0.24271
 C2702 C 1.01374 0.19473 0.23626
 C2703 C 1.00691 0.18807 0.22613
 C2704 C 1.01055 0.17527 0.22242
 H2705 H 1.02792 0.10852 0.19184
 H2706 H 1.05790 0.10871 0.22197
 H2707 H 1.06701 0.08814 0.21312
 H2708 H 1.03689 0.08795 0.18285
 H2709 H 1.03593 0.17059 0.24394
 H2710 H 1.02965 0.19299 0.25053
 H2711 H 0.99886 0.19279 0.22093
 H2712 H 1.00529 0.17039 0.21448
 C2713 C 0.21182 0.60741 0.55591
 C2714 C 0.20616 0.61318 0.54471
 C2715 C 0.19541 0.60708 0.53854
 C2716 C 0.19025 0.59533 0.54360
 C2717 C 0.19577 0.58950 0.55495
 C2718 C 0.20668 0.59565 0.56099
 C2719 C 0.21117 0.62552 0.53976
 C2720 C 0.21523 0.63595 0.53572
 C2721 C 0.21984 0.64826 0.53112
 C2722 C 0.22366 0.65887 0.52729
 C2723 C 0.22808 0.67163 0.52287
 C2724 C 0.22172 0.67788 0.51233
 C2725 C 0.22572 0.69046 0.50830
 C2726 C 0.23615 0.69698 0.51479
 C2727 C 0.24256 0.69054 0.52531
 C2728 C 0.23853 0.67796 0.52931
 H2729 H 0.22014 0.61206 0.56078
 H2730 H 0.19095 0.61148 0.52988
 H2731 H 0.18186 0.59088 0.53868
 H2732 H 0.21118 0.59146 0.56973
 H2733 H 0.21359 0.67307 0.50730
 H2734 H 0.22054 0.69512 0.50019
 H2735 H 0.25059 0.69526 0.53055
 H2736 H 0.24350 0.67322 0.53751
 C2737 C 0.19556 0.10615 1.03797
 C2738 C 0.20645 0.11206 1.04407
 C2739 C 0.21233 0.10599 1.05499
 C2740 C 0.20727 0.09411 1.05988
 C2741 C 0.19622 0.08814 1.05391
 C2742 C 0.19047 0.09427 1.04284
 C2743 C 0.21140 0.12451 1.03932
 C2744 C 0.21541 0.13503 1.03545
 C2745 C 0.21997 0.14743 1.03102
 C2746 C 0.22375 0.15809 1.02733
 C2747 C 0.22811 0.17092 1.02302
 C2748 C 0.23847 0.17730 1.02957
 C2749 C 0.24246 0.18991 1.02563
 C2750 C 0.23612 0.19634 1.01506
 C2751 C 0.22577 0.18978 1.00848
 C2752 C 0.22180 0.17716 1.01244
 H2753 H 0.19092 0.11077 1.02952
 H2754 H 0.22076 0.11050 1.05979
 H2755 H 0.21195 0.08969 1.06840
 H2756 H 0.18197 0.08997 1.03799
 H2757 H 0.24340 0.17256 1.03779
 H2758 H 0.25042 0.19467 1.03095
 H2759 H 0.22064 0.19442 1.00034
 H2760 H 0.21375 0.17232 1.00732
 C2761 C 0.19468 0.71161 0.64324
 C2762 C 0.20548 0.70560 0.63711
 C2763 C 0.21133 0.69450 0.64288
 C2764 C 0.20633 0.68935 0.65466
 C2765 C 0.19538 0.69524 0.66085
 C2766 C 0.18966 0.70649 0.65503
 C2767 C 0.21038 0.71062 0.62476
 C2768 C 0.21439 0.71471 0.61434
 C2769 C 0.21897 0.71936 0.60204
 C2770 C 0.22280 0.72321 0.59146
 C2771 C 0.22727 0.72767 0.57873
 C2772 C 0.23757 0.72108 0.57233
 C2773 C 0.24168 0.72514 0.55980
 C2774 C 0.23551 0.73588 0.55349
 C2775 C 0.22522 0.74250 0.56008
 C2776 C 0.22114 0.73841 0.57260
 H2777 H 0.19007 0.72020 0.63886
 H2778 H 0.21969 0.68975 0.63820
 H2779 H 0.21099 0.68070 0.65885
 H2780 H 0.18123 0.71129 0.65951
 H2781 H 0.24237 0.71273 0.57697
 H2782 H 0.24959 0.71979 0.55503
 H2783 H 0.22023 0.75078 0.55552
 H2784 H 0.21314 0.74356 0.57746
 C2785 C 0.19473 0.21162 1.14377
 C2786 C 0.20558 0.20566 1.13769
 C2787 C 0.21159 0.19473 1.14359
 C2788 C 0.20670 0.18968 1.15546
 C2789 C 0.19566 0.19549 1.16165
 C2790 C 0.18981 0.20661 1.15564
 C2791 C 0.21036 0.21056 1.12525
 C2792 C 0.21428 0.21454 1.11475
 C2793 C 0.21876 0.21907 1.10237
 C2794 C 0.22252 0.22283 1.09173
 C2795 C 0.22692 0.22718 1.07895
 C2796 C 0.23734 0.22069 1.07264
 C2797 C 0.24143 0.22469 1.06009
 C2798 C 0.23513 0.23528 1.05365
 C2799 C 0.22470 0.24179 1.06013
 C2800 C 0.22064 0.23776 1.07268
 H2801 H 0.19000 0.22009 1.13928
 H2802 H 0.22000 0.19003 1.13895
 H2803 H 0.21156 0.18115 1.15969
 H2804 H 0.18133 0.21143 1.16002
 H2805 H 0.24225 0.21246 1.07739
 H2806 H 0.24945 0.21942 1.05540
 H2807 H 0.21960 0.24995 1.05547
 H2808 H 0.21254 0.24284 1.07747
 C2809 C 0.71299 0.55408 0.10492
 C2810 C 0.70719 0.54290 0.11058
 C2811 C 0.69632 0.53695 0.10447
 C2812 C 0.69117 0.54224 0.09282
 C2813 C 0.69682 0.55360 0.08712
 C2814 C 0.70786 0.55939 0.09327
 C2815 C 0.71212 0.53779 0.12288
 C2816 C 0.71611 0.53367 0.13331
 C2817 C 0.72062 0.52905 0.14565
 C2818 C 0.72433 0.52530 0.15630
 C2819 C 0.72862 0.52105 0.16916
 C2820 C 0.72226 0.51054 0.17547
 C2821 C 0.72600 0.50682 0.18822
 C2822 C 0.73616 0.51362 0.19487
 C2823 C 0.74262 0.52406 0.18834
 C2824 C 0.73885 0.52775 0.17559
 H2825 H 0.72139 0.55878 0.10959
 H2826 H 0.69173 0.52830 0.10879
 H2827 H 0.68267 0.53751 0.08837
 H2828 H 0.71247 0.56812 0.08917
 H2829 H 0.71430 0.50531 0.17059
 H2830 H 0.72080 0.49876 0.19293
 H2831 H 0.75046 0.52952 0.19314
 H2832 H 0.74382 0.53593 0.17081
 C2833 C 0.71315 1.05430 0.60539
 C2834 C 0.70746 1.04302 0.61098
 C2835 C 0.69663 1.03702 0.60485
 C2836 C 0.69141 1.04236 0.59325
 C2837 C 0.69694 1.05381 0.58763
 C2838 C 0.70795 1.05966 0.59379
 C2839 C 0.71245 1.03787 0.62324
 C2840 C 0.71648 1.03372 0.63364
 C2841 C 0.72102 1.02907 0.64595
 C2842 C 0.72475 1.02529 0.65659
 C2843 C 0.72903 1.02101 0.66945
 C2844 C 0.72257 1.01057 0.67578
 C2845 C 0.72626 1.00687 0.68855
 C2846 C 0.73647 1.01360 0.69519
 C2847 C 0.74304 1.02396 0.68863
 C2848 C 0.73932 1.02763 0.67586
 H2849 H 0.72152 1.05904 0.61008
 H2850 H 0.69213 1.02831 0.60911
 H2851 H 0.68295 1.03759 0.58878
 H2852 H 0.71247 1.06846 0.58975
 H2853 H 0.71456 1.00541 0.67092
 H2854 H 0.72098 0.99888 0.69329
 H2855 H 0.75092 1.02937 0.69342
 H2856 H 0.74436 1.03575 0.67106
 C2857 C 0.53676 0.19724 0.60443
 C2858 C 0.54285 0.20805 0.61051
 C2859 C 0.55405 0.21374 0.60477
 C2860 C 0.55922 0.20856 0.59308
 C2861 C 0.55327 0.19756 0.58697
 C2862 C 0.54191 0.19203 0.59273
 C2863 C 0.53788 0.21301 0.62286
 C2864 C 0.53385 0.21698 0.63333
 C2865 C 0.52928 0.22141 0.64572
 C2866 C 0.52553 0.22501 0.65642
 C2867 C 0.52123 0.22911 0.66933
 C2868 C 0.52747 0.23966 0.67570
 C2869 C 0.52373 0.24324 0.68850
 C2870 C 0.51368 0.23629 0.69511
 C2871 C 0.50733 0.22580 0.68851
 C2872 C 0.51110 0.22224 0.67572
 H2873 H 0.52810 0.19274 0.60880
 H2874 H 0.55886 0.22210 0.60942
 H2875 H 0.56797 0.21307 0.58892
 H2876 H 0.53706 0.18358 0.58831
 H2877 H 0.53536 0.24501 0.67085
 H2878 H 0.52884 0.25135 0.69326
 H2879 H 0.49957 0.22022 0.69328
 H2880 H 0.50622 0.21403 0.67088
 C2881 C 1.03759 0.19605 0.10504
 C2882 C 1.04357 0.20698 0.11100
 C2883 C 1.05471 0.21271 0.10522
 C2884 C 1.05996 0.20744 0.09359
 C2885 C 1.05416 0.19628 0.08755
 C2886 C 1.04280 0.19074 0.09341
 C2887 C 1.03853 0.21206 0.12328
 C2888 C 1.03444 0.21613 0.13369
 C2889 C 1.02982 0.22071 0.14601
 C2890 C 1.02603 0.22444 0.15665
 C2891 C 1.02170 0.22869 0.16950
 C2892 C 1.02818 0.23907 0.17593
 C2893 C 1.02442 0.24278 0.18868
 C2894 C 1.01411 0.23612 0.19520
 C2895 C 1.00752 0.22582 0.18855
 C2896 C 1.01131 0.22214 0.17580
 H2897 H 1.02896 0.19153 0.10945
 H2898 H 1.05943 0.22117 0.10977
 H2899 H 1.06867 0.21206 0.08945
 H2900 H 1.03796 0.18221 0.08914
 H2901 H 1.03627 0.24419 0.17115
 H2902 H 1.02972 0.25073 0.19349
 H2903 H 0.99956 0.22046 0.19326
 H2904 H 1.00625 0.21406 0.17093
 C2905 C 0.64484 0.21335 0.69626
 C2906 C 0.63915 0.20755 0.70742
 C2907 C 0.64527 0.19671 0.71339
 C2908 C 0.65696 0.19160 0.70815
 C2909 C 0.66268 0.19725 0.69682
 C2910 C 0.65653 0.20826 0.69099
 C2911 C 0.62682 0.21243 0.71248
 C2912 C 0.61637 0.21637 0.71656
 C2913 C 0.60401 0.22080 0.72115
 C2914 C 0.59333 0.22445 0.72489
 C2915 C 0.58044 0.22863 0.72913
 C2916 C 0.57402 0.22197 0.73939
 C2917 C 0.56125 0.22562 0.74308
 C2918 C 0.55470 0.23598 0.73654
 C2919 C 0.56134 0.24273 0.72636
 C2920 C 0.57411 0.23907 0.72270
 H2921 H 0.64017 0.22173 0.69154
 H2922 H 0.64094 0.19212 0.72202
 H2923 H 0.66141 0.18313 0.71290
 H2924 H 0.66065 0.21287 0.68228
 H2925 H 0.57883 0.21385 0.74441
 H2926 H 0.55645 0.22019 0.75094
 H2927 H 0.55661 0.25074 0.72110
 H2928 H 0.57898 0.24426 0.71472
 C2929 C 1.14471 0.21249 0.19592
 C2930 C 1.13906 0.20672 0.20711
 C2931 C 1.14515 0.19584 0.21304
 C2932 C 1.15675 0.19064 0.20771
 C2933 C 1.16243 0.19625 0.19633
 C2934 C 1.15632 0.20731 0.19056
 C2935 C 1.12680 0.21169 0.21225
 C2936 C 1.11641 0.21571 0.21639
 C2937 C 1.10409 0.22024 0.22104
 C2938 C 1.09346 0.22396 0.22482
 C2939 C 1.08061 0.22822 0.22911
 C2940 C 1.07416 0.22153 0.23932
 C2941 C 1.06141 0.22524 0.24305
 C2942 C 1.05493 0.23570 0.23659
 C2943 C 1.06161 0.24248 0.22647
 C2944 C 1.07435 0.23875 0.22276
 H2945 H 1.14007 0.22091 0.19123
 H2946 H 1.14084 0.19128 0.22170
 H2947 H 1.16118 0.18213 0.21242
 H2948 H 1.16040 0.21190 0.18182
 H2949 H 1.07890 0.21333 0.24428
 H2950 H 1.05658 0.21978 0.25087
 H2951 H 1.05694 0.25056 0.22127
 H2952 H 1.07925 0.24397 0.21482
 C2953 C 0.10646 0.71282 0.55456
 C2954 C 0.11242 0.70681 0.54365
 C2955 C 0.10641 0.69590 0.53765
 C2956 C 0.09454 0.69093 0.54262
 C2957 C 0.08852 0.69681 0.55369
 C2958 C 0.09459 0.70787 0.55955
 C2959 C 0.12487 0.71164 0.53880
 C2960 C 0.13538 0.71558 0.53487
 C2961 C 0.14777 0.72007 0.53039
 C2962 C 0.15844 0.72380 0.52668
 C2963 C 0.17125 0.72815 0.52238
 C2964 C 0.17757 0.72172 0.51191
 C2965 C 0.19018 0.72568 0.50797
 C2966 C 0.19666 0.73614 0.51446
 C2967 C 0.19016 0.74260 0.52492
 C2968 C 0.17755 0.73862 0.52884
 H2969 H 0.11104 0.72126 0.55929
 H2970 H 0.11095 0.69117 0.52921
 H2971 H 0.09016 0.68241 0.53786
 H2972 H 0.09025 0.71265 0.56807
 H2973 H 0.17279 0.71358 0.50686
 H2974 H 0.19488 0.72046 0.49991
 H2975 H 0.19485 0.75066 0.53017
 H2976 H 0.17276 0.74364 0.53698
 C2977 C 0.10649 0.19501 1.03801
 C2978 C 0.11248 0.20598 1.04392
 C2979 C 0.10653 0.21202 1.05483
 C2980 C 0.09471 0.20703 1.05990
 C2981 C 0.08867 0.19591 1.05412
 C2982 C 0.09467 0.19000 1.04306
 C2983 C 0.12488 0.21085 1.03900
 C2984 C 0.13535 0.21482 1.03501
 C2985 C 0.14772 0.21936 1.03047
 C2986 C 0.15835 0.22313 1.02672
 C2987 C 0.17115 0.22751 1.02239
 C2988 C 0.17741 0.23803 1.02881
 C2989 C 0.19001 0.24204 1.02489
 C2990 C 0.19655 0.23555 1.01448
 C2991 C 0.19010 0.22505 1.00801
 C2992 C 0.17750 0.22107 1.01195
 H2993 H 0.11102 0.19025 1.02957
 H2994 H 0.11109 0.22051 1.05949
 H2995 H 0.09038 0.21183 1.06841
 H2996 H 0.09031 0.18144 1.03835
 H2997 H 0.17259 0.24307 1.03692
 H2998 H 0.19467 0.25013 1.03012
 H2999 H 0.19483 0.21980 0.99999
 H3000 H 0.17275 0.21289 1.00693
 C3001 C 0.60443 0.53608 0.19712
 C3002 C 0.61038 0.54211 0.20804
 C3003 C 0.60444 0.55312 0.21390
 C3004 C 0.59268 0.55818 0.20878
 C3005 C 0.58669 0.55230 0.19768
 C3006 C 0.59267 0.54112 0.19197
 C3007 C 0.62278 0.53726 0.21296
 C3008 C 0.63328 0.53334 0.21692
 C3009 C 0.64571 0.52890 0.22136
 C3010 C 0.65643 0.52525 0.22498
 C3011 C 0.66935 0.52107 0.22910
 C3012 C 0.67580 0.52763 0.23941
 C3013 C 0.68860 0.52398 0.24302
 C3014 C 0.69515 0.51370 0.23633
 C3015 C 0.68849 0.50704 0.22609
 C3016 C 0.67569 0.51072 0.22250
 H3017 H 0.60896 0.52757 0.19249
 H3018 H 0.60897 0.55789 0.22234
 H3019 H 0.58836 0.56679 0.21343
 H3020 H 0.58835 0.53633 0.18344
 H3021 H 0.67099 0.53568 0.24456
 H3022 H 0.69341 0.52933 0.25094
 H3023 H 0.69321 0.49910 0.22071
 H3024 H 0.67080 0.50559 0.21448
 C3025 C 0.60476 1.03618 0.69660
 C3026 C 0.61060 1.04216 0.70761
 C3027 C 0.60456 1.05311 0.71349
 C3028 C 0.59282 1.05815 0.70831
 C3029 C 0.58695 1.05231 0.69713
 C3030 C 0.59302 1.04120 0.69140
 C3031 C 0.62298 1.03734 0.71261
 C3032 C 0.63346 1.03345 0.71665
 C3033 C 0.64587 1.02906 0.72120
 C3034 C 0.65657 1.02546 0.72491
 C3035 C 0.66948 1.02132 0.72913
 C3036 C 0.67588 1.02797 0.73942
 C3037 C 0.68866 1.02435 0.74312
 C3038 C 0.69524 1.01401 0.73654
 C3039 C 0.68862 1.00726 0.72633
 C3040 C 0.67584 1.01091 0.72266
 H3041 H 0.60936 1.02771 0.69195
 H3042 H 0.60901 1.05783 0.72200
 H3043 H 0.58844 1.06670 0.71299
 H3044 H 0.58879 1.03644 0.68280
 H3045 H 0.67105 1.03606 0.74448
 H3046 H 0.69344 1.02977 0.75100
 H3047 H 0.69337 0.99928 0.72104
 H3048 H 0.67099 1.00571 0.71466
 C3049 C 0.89174 0.45991 0.30711
 C3050 C 0.88590 0.45415 0.29599
 C3051 C 0.89182 0.44320 0.29000
 C3052 C 0.90348 0.43795 0.29517
 C3053 C 0.90937 0.44358 0.30643
 C3054 C 0.90339 0.45468 0.31230
 C3055 C 0.87368 0.45929 0.29090
 C3056 C 0.86337 0.46347 0.28674
 C3057 C 0.85119 0.46825 0.28197
 C3058 C 0.84071 0.47221 0.27799
 C3059 C 0.82811 0.47680 0.27334
 C3060 C 0.82189 0.47041 0.26278
 C3061 C 0.80946 0.47459 0.25852
 C3062 C 0.80307 0.48523 0.26478
 C3063 C 0.80947 0.49165 0.27533
 C3064 C 0.82190 0.48745 0.27957
 H3065 H 0.88722 0.46838 0.31184
 H3066 H 0.88737 0.43865 0.28139
 H3067 H 0.90779 0.42942 0.29039
 H3068 H 0.90765 0.45928 0.32097
 H3069 H 0.82659 0.46213 0.25791
 H3070 H 0.80482 0.46939 0.25040
 H3071 H 0.80485 0.49985 0.28040
 H3072 H 0.82662 0.49244 0.28778
 C3073 C 0.89221 0.96086 0.80712
 C3074 C 0.88627 0.95503 0.79608
 C3075 C 0.89211 0.94403 0.79013
 C3076 C 0.90379 0.93878 0.79524
 C3077 C 0.90979 0.94447 0.80642
 C3078 C 0.90390 0.95563 0.81226
 C3079 C 0.87403 0.96016 0.79105
 C3080 C 0.86369 0.96433 0.78693
 C3081 C 0.85148 0.96906 0.78220
 C3082 C 0.84098 0.97298 0.77824
 C3083 C 0.82834 0.97750 0.77362
 C3084 C 0.82210 0.97103 0.76312
 C3085 C 0.80964 0.97514 0.75888
 C3086 C 0.80323 0.98579 0.76510
 C3087 C 0.80966 0.99231 0.77558
 C3088 C 0.82212 0.98817 0.77980
 H3089 H 0.88776 0.96937 0.81182
 H3090 H 0.88758 0.93943 0.78159
 H3091 H 0.90805 0.93020 0.79049
 H3092 H 0.90823 0.96028 0.82086
 H3093 H 0.82681 0.96273 0.75829
 H3094 H 0.80499 0.96987 0.75081
 H3095 H 0.80502 1.00051 0.78062
 H3096 H 0.82686 0.99323 0.78796
 C3097 C 0.35663 0.28774 0.80547
 C3098 C 0.36269 0.29370 0.79459
 C3099 C 0.35675 0.30459 0.78853
 C3100 C 0.34485 0.30959 0.79340
 C3101 C 0.33873 0.30375 0.80443
 C3102 C 0.34474 0.29271 0.81036
 C3103 C 0.37514 0.28883 0.78982
 C3104 C 0.38565 0.28487 0.78591
 C3105 C 0.39803 0.28035 0.78143
 C3106 C 0.40867 0.27660 0.77767
 C3107 C 0.42144 0.27225 0.77326
 C3108 C 0.42772 0.27875 0.76281
 C3109 C 0.44025 0.27475 0.75871
 C3110 C 0.44670 0.26417 0.76500
 C3111 C 0.44026 0.25766 0.77546
 C3112 C 0.42772 0.26169 0.77954
 H3113 H 0.36116 0.27931 0.81024
 H3114 H 0.36136 0.30929 0.78011
 H3115 H 0.34052 0.31808 0.78858
 H3116 H 0.34032 0.28796 0.81885
 H3117 H 0.42295 0.28696 0.75790
 H3118 H 0.44492 0.28001 0.75066
 H3119 H 0.44493 0.24952 0.78056
 H3120 H 0.42296 0.25661 0.78766
 C3121 C 0.85758 0.30539 0.28863
 C3122 C 0.86328 0.29426 0.29449
 C3123 C 0.85713 0.28831 0.30532
 C3124 C 0.84539 0.29351 0.31035
 C3125 C 0.83963 0.30478 0.30462
 C3126 C 0.84584 0.31062 0.29364
 C3127 C 0.87559 0.28916 0.28960
 C3128 C 0.88598 0.28499 0.28561
 C3129 C 0.89825 0.28025 0.28105
 C3130 C 0.90881 0.27633 0.27725
 C3131 C 0.92152 0.27181 0.27282
 C3132 C 0.92785 0.26143 0.27935
 C3133 C 0.94039 0.25733 0.27533
 C3134 C 0.94678 0.26358 0.26469
 C3135 C 0.94026 0.27394 0.25811
 C3136 C 0.92773 0.27802 0.26216
 H3137 H 0.86227 0.31009 0.28025
 H3138 H 0.86147 0.27970 0.30995
 H3139 H 0.84090 0.28875 0.31880
 H3140 H 0.84170 0.31929 0.28897
 H3141 H 0.92315 0.25658 0.28764
 H3142 H 0.94511 0.24936 0.28065
 H3143 H 0.94488 0.27901 0.24992
 H3144 H 0.92293 0.28609 0.25705
 C3145 C 0.39441 0.78787 0.44536
 C3146 C 0.38860 0.79367 0.45647
 C3147 C 0.39446 0.80475 0.46230
 C3148 C 0.40600 0.81010 0.45698
 C3149 C 0.41184 0.80445 0.44570
 C3150 C 0.40595 0.79320 0.44001
 C3151 C 0.37641 0.78853 0.46161
 C3152 C 0.36606 0.78440 0.46578
 C3153 C 0.35381 0.77977 0.47049
 C3154 C 0.34322 0.77599 0.47435
 C3155 C 0.33042 0.77170 0.47876
 C3156 C 0.32405 0.77842 0.48901
 C3157 C 0.31133 0.77471 0.49285
 C3158 C 0.30479 0.76422 0.48646
 C3159 C 0.31139 0.75739 0.47630
 C3160 C 0.32411 0.76113 0.47249
 H3161 H 0.38993 0.77931 0.44074
 H3162 H 0.39003 0.80934 0.47089
 H3163 H 0.41026 0.81875 0.46162
 H3164 H 0.41016 0.78859 0.43133
 H3165 H 0.32883 0.78665 0.49391
 H3166 H 0.30656 0.78020 0.50069
 H3167 H 0.30667 0.74929 0.47115
 H3168 H 0.32894 0.75588 0.46452
 C3169 C 0.39432 0.28756 0.94529
 C3170 C 0.38843 0.29335 0.95636
 C3171 C 0.39420 0.30449 0.96218
 C3172 C 0.40573 0.30990 0.95688
 C3173 C 0.41164 0.30425 0.94564
 C3174 C 0.40584 0.29295 0.93997
 C3175 C 0.37626 0.28814 0.96149
 C3176 C 0.36594 0.28394 0.96565
 C3177 C 0.35372 0.27923 0.97036
 C3178 C 0.34315 0.27539 0.97424
 C3179 C 0.33038 0.27105 0.97869
 C3180 C 0.32405 0.27772 0.98900
 C3181 C 0.31136 0.27397 0.99289
 C3182 C 0.30481 0.26349 0.98649
 C3183 C 0.31137 0.25671 0.97628
 C3184 C 0.32406 0.26049 0.97241
 H3185 H 0.38992 0.27895 0.94069
 H3186 H 0.38971 0.30907 0.97074
 H3187 H 0.40991 0.31859 0.96151
 H3188 H 0.41012 0.28833 0.93132
 H3189 H 0.32884 0.28593 0.99391
 H3190 H 0.30662 0.27942 1.00077
 H3191 H 0.30663 0.24862 0.97112
 H3192 H 0.32886 0.25528 0.96439
 C3193 C 0.80509 0.46175 0.39276
 C3194 C 0.79398 0.45588 0.38703
 C3195 C 0.78798 0.44507 0.39318
 C3196 C 0.79314 0.44005 0.40495
 C3197 C 0.80441 0.44579 0.41073
 C3198 C 0.81028 0.45676 0.40453
 C3199 C 0.78894 0.46075 0.37467
 C3200 C 0.78485 0.46472 0.36423
 C3201 C 0.78021 0.46926 0.35191
 C3202 C 0.77639 0.47305 0.34130
 C3203 C 0.77200 0.47746 0.32853
 C3204 C 0.76160 0.47099 0.32215
 C3205 C 0.75763 0.47499 0.30956
 C3206 C 0.76402 0.48555 0.30316
 C3207 C 0.77440 0.49207 0.30974
 C3208 C 0.77835 0.48804 0.32233
 H3209 H 0.80982 0.47012 0.38807
 H3210 H 0.77938 0.44043 0.38881
 H3211 H 0.78836 0.43161 0.40944
 H3212 H 0.81894 0.46144 0.40869
 H3213 H 0.75664 0.46276 0.32685
 H3214 H 0.74963 0.46972 0.30479
 H3215 H 0.77958 0.50021 0.30513
 H3216 H 0.78644 0.49310 0.32717
 C3217 C 0.78893 0.94463 0.89301
 C3218 C 0.79494 0.95544 0.88686
 C3219 C 0.80619 0.96117 0.89248
 C3220 C 0.81148 0.95604 0.90414
 C3221 C 0.80560 0.94508 0.91035
 C3222 C 0.79420 0.93948 0.90467
 C3223 C 0.78977 0.96044 0.87461
 C3224 C 0.78556 0.96453 0.86426
 C3225 C 0.78079 0.96920 0.85204
 C3226 C 0.77685 0.97308 0.84151
 C3227 C 0.77233 0.97761 0.82882
 C3228 C 0.77861 0.98825 0.82265
 C3229 C 0.77456 0.99236 0.81012
 C3230 C 0.76414 0.98586 0.80357
 C3231 C 0.75780 0.97526 0.80994
 C3232 C 0.76188 0.97117 0.82247
 H3233 H 0.78023 0.94011 0.88872
 H3234 H 0.81093 0.96953 0.88779
 H3235 H 0.82025 0.96061 0.90822
 H3236 H 0.78941 0.93105 0.90916
 H3237 H 0.78673 0.99328 0.82746
 H3238 H 0.77969 1.00053 0.80552
 H3239 H 0.74979 0.97000 0.80519
 H3240 H 0.75697 0.96290 0.82715
 C3241 C 0.30443 0.78872 0.35592
 C3242 C 0.29332 0.79455 0.36168
 C3243 C 0.28755 0.80562 0.35578
 C3244 C 0.29295 0.81094 0.34426
 C3245 C 0.30423 0.80527 0.33847
 C3246 C 0.30985 0.79402 0.34440
 C3247 C 0.28810 0.78941 0.37385
 C3248 C 0.28391 0.78525 0.38417
 C3249 C 0.27920 0.78054 0.39640
 C3250 C 0.27536 0.77667 0.40697
 C3251 C 0.27101 0.77224 0.41975
 C3252 C 0.26063 0.77870 0.42615
 C3253 C 0.25686 0.77487 0.43886
 C3254 C 0.26346 0.76451 0.44536
 C3255 C 0.27374 0.75792 0.43872
 C3256 C 0.27748 0.76178 0.42601
 H3257 H 0.30899 0.78016 0.36042
 H3258 H 0.27896 0.81022 0.36017
 H3259 H 0.28836 0.81959 0.33997
 H3260 H 0.31852 0.78939 0.34022
 H3261 H 0.25558 0.78684 0.42140
 H3262 H 0.24892 0.78017 0.44365
 H3263 H 0.27904 0.74992 0.44341
 H3264 H 0.28556 0.75673 0.42116
 C3265 C 0.30398 0.28700 0.85574
 C3266 C 0.29277 0.29273 0.86138
 C3267 C 0.28680 0.30358 0.85527
 C3268 C 0.29211 0.30877 0.84365
 C3269 C 0.30349 0.30319 0.83797
 C3270 C 0.30931 0.29217 0.84411
 C3271 C 0.28765 0.28775 0.87366
 C3272 C 0.28352 0.28373 0.88406
 C3273 C 0.27889 0.27919 0.89639
 C3274 C 0.27512 0.27546 0.90703
 C3275 C 0.27086 0.27119 0.91989
 C3276 C 0.26058 0.27778 0.92632
 C3277 C 0.25687 0.27406 0.93908
 C3278 C 0.26343 0.26368 0.94560
 C3279 C 0.27363 0.25699 0.93894
 C3280 C 0.27730 0.26073 0.92618
 H3281 H 0.30870 0.27861 0.86040
 H3282 H 0.27813 0.30811 0.85957
 H3283 H 0.28736 0.31725 0.83920
 H3284 H 0.31807 0.28761 0.84003
 H3285 H 0.25555 0.28591 0.92155
 H3286 H 0.24900 0.27944 0.94390
 H3287 H 0.27890 0.24897 0.94364
 H3288 H 0.28530 0.25558 0.92130
 C3289 C 0.44516 0.28844 0.89323
 C3290 C 0.45594 0.29455 0.88715
 C3291 C 0.46163 0.30576 0.89291
 C3292 C 0.45650 0.31091 0.90465
 C3293 C 0.44556 0.30492 0.91078
 C3294 C 0.44000 0.29357 0.90496
 C3295 C 0.46094 0.28952 0.87484
 C3296 C 0.46500 0.28540 0.86444
 C3297 C 0.46960 0.28069 0.85216
 C3298 C 0.47341 0.27678 0.84158
 C3299 C 0.47782 0.27226 0.82885
 C3300 C 0.48831 0.27862 0.82252
 C3301 C 0.49230 0.27455 0.80995
 C3302 C 0.48583 0.26403 0.80352
 C3303 C 0.47537 0.25762 0.81005
 C3304 C 0.47140 0.26172 0.82262
 H3305 H 0.44066 0.27977 0.88885
 H3306 H 0.46997 0.31058 0.88828
 H3307 H 0.46103 0.31965 0.90883
 H3308 H 0.43159 0.28869 0.90940
 H3309 H 0.49332 0.28682 0.82724
 H3310 H 0.50036 0.27974 0.80523
 H3311 H 0.47015 0.24952 0.80540
 H3312 H 0.46325 0.25674 0.82742
 C3313 C 0.96116 0.30664 0.39247
 C3314 C 0.95543 0.29548 0.38667
 C3315 C 0.94469 0.28932 0.39277
 C3316 C 0.93960 0.29436 0.40457
 C3317 C 0.94520 0.30568 0.41043
 C3318 C 0.95609 0.31171 0.40427
 C3319 C 0.96039 0.29050 0.37432
 C3320 C 0.96443 0.28642 0.36390
 C3321 C 0.96902 0.28173 0.35161
 C3322 C 0.97284 0.27782 0.34104
 C3323 C 0.97728 0.27325 0.32834
 C3324 C 0.97082 0.26275 0.32209
 C3325 C 0.97490 0.25852 0.30959
 C3326 C 0.98552 0.26476 0.30317
 C3327 C 0.99201 0.27526 0.30960
 C3328 C 0.98791 0.27946 0.32209
 H3329 H 0.96947 0.31150 0.38783
 H3330 H 0.94017 0.28067 0.38835
 H3331 H 0.93122 0.28945 0.40902
 H3332 H 0.96065 0.32042 0.40850
 H3333 H 0.96256 0.25789 0.32682
 H3334 H 0.96965 0.25044 0.30494
 H3335 H 1.00019 0.28032 0.30495
 H3336 H 0.99296 0.28762 0.32683
 C3337 C 0.44472 0.39312 0.78821
 C3338 C 0.45548 0.38695 0.79425
 C3339 C 0.46127 0.39263 0.80544
 C3340 C 0.45625 0.40439 0.81065
 C3341 C 0.44533 0.41061 0.80475
 C3342 C 0.43968 0.40488 0.79340
 C3343 C 0.46037 0.37460 0.78918
 C3344 C 0.46435 0.36417 0.78507
 C3345 C 0.46890 0.35185 0.78041
 C3346 C 0.47268 0.34125 0.77656
 C3347 C 0.47708 0.32849 0.77212
 C3348 C 0.48768 0.32227 0.77840
 C3349 C 0.49170 0.30969 0.77439
 C3350 C 0.48516 0.30314 0.76401
 C3351 C 0.47457 0.30954 0.75768
 C3352 C 0.47057 0.32212 0.76172
 H3353 H 0.44015 0.38879 0.77956
 H3354 H 0.46960 0.38792 0.81020
 H3355 H 0.46086 0.40851 0.81938
 H3356 H 0.43127 0.40939 0.78860
 H3357 H 0.49277 0.32710 0.78649
 H3358 H 0.49986 0.30507 0.77950
 H3359 H 0.46928 0.30479 0.74969
 H3360 H 0.46233 0.32683 0.75681
 C3361 C 0.94353 0.39193 0.28941
 C3362 C 0.95459 0.38606 0.29521
 C3363 C 0.96042 0.39186 0.30631
 C3364 C 0.95515 0.40343 0.31169
 C3365 C 0.94394 0.40936 0.30602
 C3366 C 0.93824 0.40350 0.29476
 C3367 C 0.95975 0.37389 0.28997
 C3368 C 0.96396 0.36361 0.28572
 C3369 C 0.96876 0.35144 0.28090
 C3370 C 0.97275 0.34096 0.27692
 C3371 C 0.97737 0.32832 0.27236
 C3372 C 0.98798 0.32216 0.27868
 C3373 C 0.99214 0.30965 0.27461
 C3374 C 0.98573 0.30310 0.26414
 C3375 C 0.97516 0.30946 0.25775
 C3376 C 0.97102 0.32198 0.26185
 H3377 H 0.93893 0.38750 0.28082
 H3378 H 0.96898 0.38738 0.31089
 H3379 H 0.95981 0.40765 0.32034
 H3380 H 0.92961 0.40778 0.29014
 H3381 H 0.99294 0.32697 0.28685
 H3382 H 1.00028 0.30505 0.27977
 H3383 H 0.96997 0.30472 0.24969
 H3384 H 0.96276 0.32664 0.25691
 C3385 C 0.28848 0.89453 0.44516
 C3386 C 0.29429 0.88878 0.45629
 C3387 C 0.30541 0.89464 0.46203
 C3388 C 0.31079 0.90613 0.45658
 C3389 C 0.30513 0.91190 0.44528
 C3390 C 0.29385 0.90601 0.43969
 C3391 C 0.28911 0.87665 0.46155
 C3392 C 0.28491 0.86635 0.46579
 C3393 C 0.28018 0.85414 0.47055
 C3394 C 0.27630 0.84359 0.47445
 C3395 C 0.27188 0.83083 0.47887
 C3396 C 0.27849 0.82440 0.48915
 C3397 C 0.27465 0.81171 0.49299
 C3398 C 0.26414 0.80525 0.48657
 C3399 C 0.25742 0.81191 0.47639
 C3400 C 0.26128 0.82460 0.47257
 H3401 H 0.27989 0.89005 0.44062
 H3402 H 0.31000 0.89026 0.47063
 H3403 H 0.31947 0.91038 0.46115
 H3404 H 0.28922 0.91017 0.43101
 H3405 H 0.28673 0.82913 0.49407
 H3406 H 0.28006 0.80690 0.50085
 H3407 H 0.24930 0.80724 0.47122
 H3408 H 0.25611 0.82947 0.46458
 C3409 C 0.30482 0.39455 0.96330
 C3410 C 0.29357 0.38881 0.95769
 C3411 C 0.28747 0.39483 0.94687
 C3412 C 0.29266 0.40647 0.94158
 C3413 C 0.30407 0.41225 0.94703
 C3414 C 0.31003 0.40619 0.95803
 C3415 C 0.28854 0.37652 0.96277
 C3416 C 0.28446 0.36612 0.96686
 C3417 C 0.27985 0.35380 0.97145
 C3418 C 0.27606 0.34316 0.97521
 C3419 C 0.27173 0.33032 0.97949
 C3420 C 0.26120 0.32405 0.97309
 C3421 C 0.25740 0.31131 0.97681
 C3422 C 0.26411 0.30463 0.98698
 C3423 C 0.27456 0.31112 0.99348
 C3424 C 0.27833 0.32386 0.98975
 H3425 H 0.30964 0.38996 0.97166
 H3426 H 0.27877 0.39045 0.94244
 H3427 H 0.28781 0.41085 0.93313
 H3428 H 0.31881 0.41036 0.96248
 H3429 H 0.25604 0.32895 0.96511
 H3430 H 0.24934 0.30664 0.97157
 H3431 H 0.27996 0.30629 1.00134
 H3432 H 0.28652 0.32860 0.99474
 C3433 C 0.78903 0.35697 0.30464
 C3434 C 0.79513 0.36297 0.29381
 C3435 C 0.80627 0.35713 0.28812
 C3436 C 0.81135 0.34539 0.29330
 C3437 C 0.80536 0.33933 0.30428
 C3438 C 0.79409 0.34523 0.30984
 C3439 C 0.79017 0.37528 0.28874
 C3440 C 0.78610 0.38567 0.28463
 C3441 C 0.78144 0.39794 0.27996
 C3442 C 0.77756 0.40850 0.27609
 C3443 C 0.77305 0.42121 0.27163
 C3444 C 0.77951 0.42759 0.26122
 C3445 C 0.77542 0.44013 0.25717
 C3446 C 0.76480 0.44648 0.26349
 C3447 C 0.75830 0.43991 0.27387
 C3448 C 0.76241 0.42737 0.27790
 H3449 H 0.78041 0.36142 0.30913
 H3450 H 0.81109 0.36170 0.27974
 H3451 H 0.82004 0.34114 0.28876
 H3452 H 0.78921 0.34086 0.31828
 H3453 H 0.78778 0.42293 0.25632
 H3454 H 0.78068 0.44490 0.24918
 H3455 H 0.75012 0.44450 0.27898
 H3456 H 0.75737 0.42253 0.28599
   
