data_POSCAR
  _audit_creation_date              2014-09-24
  _audit_creation_method            'ToBaCCo'
  _symmetry_space_group_name_H-M    'P1'
  _symmetry_Int_Tables_number       1
  _symmetry_cell_setting            triclinic
  loop_
  _symmetry_equiv_pos_as_xyz
 x,y,z
_cell_length_a 52.7014
_cell_length_b 51.5065
_cell_length_c 51.4847
_cell_angle_alpha 89.693100
_cell_angle_beta 89.890200
_cell_angle_gamma 89.458000
loop_
  _atom_site_label
  _atom_site_type_symbol
  _atom_site_fract_x
  _atom_site_fract_y
  _atom_site_fract_z
C1 C 0.37325 1.38060 0.34218
 C2 C 0.38083 1.35546 0.34983
 C3 C 0.36863 1.34229 0.37026
 C4 C 0.34680 1.35370 0.38144
 C5 C 0.33905 1.37915 0.37439
 C6 C 0.35330 1.39269 0.35567
 H7 H 0.39625 1.34594 0.33957
 H8 H 0.33633 1.34312 0.39615
 H9 H 0.34622 1.41115 0.34861
 C10 C 0.35805 0.86632 0.83536
 C11 C 0.33815 0.87970 0.84768
 C12 C 0.32698 0.87014 0.87062
 C13 C 0.33695 0.84704 0.88153
 C14 C 0.35805 0.83424 0.87043
 C15 C 0.36835 0.84398 0.84714
 H16 H 0.33062 0.89687 0.83826
 H17 H 0.32821 0.83893 0.89875
 H18 H 0.38403 0.83389 0.83786
 C19 C 0.84381 1.35151 0.80973
 C20 C 0.85428 1.32966 0.82214
 C21 C 0.84316 1.31964 0.84484
 C22 C 0.82196 1.33251 0.85560
 C23 C 0.81087 1.35427 0.84317
 C24 C 0.82226 1.36360 0.82027
 H25 H 0.87077 1.32014 0.81376
 H26 H 0.81383 1.32529 0.87353
 H27 H 0.81558 1.38139 0.81131
 C28 C 0.85175 0.85853 0.32699
 C29 C 0.82881 0.87040 0.33429
 C30 C 0.81471 0.86104 0.35535
 C31 C 0.82389 0.83966 0.36970
 C32 C 0.84658 0.82703 0.36229
 C33 C 0.86033 0.83663 0.34089
 H34 H 0.82196 0.88731 0.32374
 H35 H 0.81274 0.83217 0.38571
 H36 H 0.87752 0.82670 0.33487
 C37 C 0.64029 0.64510 0.33117
 C38 C 0.66515 0.63618 0.33735
 C39 C 0.67859 0.64687 0.35842
 C40 C 0.66718 0.66658 0.37322
 C41 C 0.64302 0.67608 0.36710
 C42 C 0.62975 0.66523 0.34637
 H43 H 0.67405 0.62098 0.32596
 H44 H 0.67751 0.67507 0.38918
 H45 H 0.61161 0.67384 0.34142
 C46 C 0.64039 0.12872 0.83152
 C47 C 0.62715 0.15062 0.84057
 C48 C 0.63591 0.16445 0.86203
 C49 C 0.65849 0.15648 0.87421
 C50 C 0.67248 0.13479 0.86530
 C51 C 0.66262 0.12056 0.84429
 H52 H 0.61036 0.15730 0.83034
 H53 H 0.66452 0.16709 0.89111
 H54 H 0.67319 0.10421 0.83653
 C55 C 1.15935 0.65827 0.81082
 C56 C 1.18076 0.64723 0.82319
 C57 C 1.19043 0.65848 0.84608
 C58 C 1.17761 0.67993 0.85699
 C59 C 1.15616 0.69076 0.84493
 C60 C 1.14719 0.67975 0.82200
 H61 H 1.19037 0.63072 0.81453
 H62 H 1.18440 0.68838 0.87487
 H63 H 1.13016 0.68754 0.81300
 C64 C 1.12537 0.12320 0.33375
 C65 C 1.11623 0.14692 0.34362
 C66 C 1.12762 0.15877 0.36506
 C67 C 1.14929 0.14719 0.37625
 C68 C 1.15870 0.12306 0.36724
 C69 C 1.14634 0.11134 0.34608
 H70 H 1.10023 0.15652 0.33438
 H71 H 1.15832 0.15668 0.39248
 H72 H 1.15487 0.09445 0.33733
 C73 C 0.65447 1.34678 0.67683
 C74 C 0.67508 1.35996 0.66518
 C75 C 0.68427 1.35256 0.64033
 C76 C 0.67296 1.33117 0.62812
 C77 C 0.65315 1.31754 0.63976
 C78 C 0.64359 1.32577 0.66370
 H79 H 0.68356 1.37612 0.67526
 H80 H 0.68018 1.32403 0.60982
 H81 H 0.62775 1.31552 0.67227
 C82 C 0.64441 0.86271 1.17162
 C83 C 0.66561 0.87372 1.15896
 C84 C 0.67693 0.86136 1.13754
 C85 C 0.66775 0.83738 1.12946
 C86 C 0.64735 0.82564 1.14213
 C87 C 0.63540 0.83853 1.16290
 H88 H 0.67350 0.89179 1.16567
 H89 H 0.67678 0.82755 1.11328
 H90 H 0.61933 0.82955 1.17241
 C91 C 1.15148 1.35761 1.17019
 C92 C 1.17280 1.36739 1.15669
 C93 C 1.18126 1.35652 1.13311
 C94 C 1.16845 1.33495 1.12340
 C95 C 1.14779 1.32428 1.13663
 C96 C 1.13866 1.33620 1.15935
 H97 H 1.18215 1.38460 1.16353
 H98 H 1.17516 1.32521 1.10612
 H99 H 1.12258 1.32773 1.16931
 C100 C 1.14226 0.84966 0.67525
 C101 C 1.16249 0.86420 0.66488
 C102 C 1.17367 0.85722 0.64106
 C103 C 1.16495 0.83529 0.62800
 C104 C 1.14505 0.82058 0.63803
 C105 C 1.13339 0.82811 0.66133
 H106 H 1.16962 0.88079 0.67534
 H107 H 1.17391 0.82940 0.60998
 H108 H 1.11759 0.81693 0.66865
 C109 C 0.35803 0.63437 0.67638
 C110 C 0.36740 0.65850 0.66879
 C111 C 0.35723 0.67175 0.64729
 C112 C 0.33755 0.66020 0.63292
 C113 C 0.32844 0.63525 0.63975
 C114 C 0.33911 0.62272 0.66163
 H115 H 0.38247 0.66719 0.67998
 H116 H 0.32960 0.67053 0.61640
 H117 H 0.33197 0.60426 0.66832
 C118 C 0.35249 0.14270 1.17507
 C119 C 0.36154 0.16388 1.16067
 C120 C 0.34949 0.17194 1.13770
 C121 C 0.32812 0.15846 1.12907
 C122 C 0.31895 0.13697 1.14304
 C123 C 0.33142 0.12904 1.16589
 H124 H 0.37821 0.17407 1.16723
 H125 H 0.31821 0.16504 1.11180
 H126 H 0.32397 0.11309 1.17728
 C127 C 0.85117 0.63581 1.17169
 C128 C 0.86550 0.65570 1.15966
 C129 C 0.85723 0.66744 1.13635
 C130 C 0.83466 0.65918 1.12488
 C131 C 0.82021 0.63959 1.13632
 C132 C 0.82864 0.62786 1.15938
 H133 H 0.88277 0.66254 1.16861
 H134 H 0.82817 0.66830 1.10706
 H135 H 0.81760 0.61207 1.16719
 C136 C 0.86305 0.13756 0.66429
 C137 C 0.87113 0.15981 0.65092
 C138 C 0.85637 0.17145 0.63140
 C139 C 0.83332 0.15985 0.62420
 C140 C 0.82490 0.13673 0.63641
 C141 C 0.83976 0.12642 0.65703
 H142 H 0.88841 0.16932 0.65663
 H143 H 0.82198 0.16889 0.60910
 H144 H 0.83322 0.10983 0.66796
 C145 C 1.36538 0.37150 0.66628
 C146 C 1.34264 0.37889 0.65396
 C147 C 1.33274 0.36377 0.63378
 C148 C 1.34607 0.34145 0.62579
 C149 C 1.36932 0.33415 0.63729
 C150 C 1.37888 0.34968 0.65729
 H151 H 1.33186 0.39541 0.66102
 H152 H 1.33857 0.33006 0.60999
 H153 H 1.39601 0.34393 0.66741
 C154 C 1.35072 0.86306 1.17489
 C155 C 1.32830 0.87015 1.16215
 C156 C 1.31894 0.85531 1.14158
 C157 C 1.33279 0.83321 1.13346
 C158 C 1.35605 0.82612 1.14543
 C159 C 1.36451 0.84127 1.16643
 H160 H 1.31738 0.88660 1.16919
 H161 H 1.32589 0.82209 1.11721
 H162 H 1.38130 0.83577 1.17723
 C163 C 0.86184 0.37048 1.16699
 C164 C 0.87539 0.34960 1.15600
 C165 C 0.86643 0.33674 1.13372
 C166 C 0.84356 0.34573 1.12250
 C167 C 0.82996 0.36674 1.13298
 C168 C 0.83911 0.37893 1.15534
 H169 H 0.89234 0.34296 1.16582
 H170 H 0.83584 0.33603 1.10571
 H171 H 0.82817 0.39456 1.16398
 C172 C 0.86264 0.85507 0.66871
 C173 C 0.87024 0.83348 0.65406
 C174 C 0.85542 0.82471 0.63332
 C175 C 0.83323 0.83850 0.62665
 C176 C 0.82551 0.86055 0.64073
 C177 C 0.84018 0.86847 0.66206
 H178 H 0.88713 0.82270 0.65967
 H179 H 0.82213 0.83237 0.61015
 H180 H 0.83408 0.88486 0.67367
 C181 C 0.64764 0.63325 0.67262
 C182 C 0.63393 0.65522 0.66413
 C183 C 0.64176 0.66935 0.64220
 C184 C 0.66388 0.66153 0.62902
 C185 C 0.67811 0.63986 0.63745
 C186 C 0.66954 0.62553 0.65902
 H187 H 0.61739 0.66154 0.67498
 H188 H 0.66980 0.67226 0.61195
 H189 H 0.68062 0.60910 0.66599
 C190 C 0.63573 1.12706 1.16647
 C191 C 0.62774 1.15091 1.15556
 C192 C 0.64212 1.16325 1.13596
 C193 C 0.66410 1.15056 1.12681
 C194 C 0.67236 1.12689 1.13740
 C195 C 0.65815 1.11526 1.15726
 H196 H 0.61068 1.16016 1.16299
 H197 H 0.67492 1.15869 1.11095
 H198 H 0.66473 1.09718 1.16575
 C199 C 0.15959 0.65026 1.18124
 C200 C 0.18236 0.64212 1.16913
 C201 C 0.19325 0.65663 1.14905
 C202 C 0.18152 0.67962 1.14089
 C203 C 0.15885 0.68861 1.15234
 C204 C 0.14750 0.67315 1.17184
 H205 H 0.19150 0.62400 1.17443
 H206 H 0.18936 0.68942 1.12414
 H207 H 0.12999 0.67980 1.18076
 C208 C 0.13163 1.12781 0.66268
 C209 C 0.11908 1.14946 0.65192
 C210 C 0.13088 1.16517 0.63312
 C211 C 0.15550 1.15820 0.62475
 C212 C 0.16844 1.13659 0.63527
 C213 C 0.15625 1.12145 0.65424
 H214 H 0.10105 1.15518 0.66019
 H215 H 0.16450 1.16950 0.60961
 H216 H 0.16614 1.10506 0.66297
 C217 C 1.35351 0.64192 0.32660
 C218 C 1.36714 0.66317 0.33603
 C219 C 1.35806 0.67786 0.35724
 C220 C 1.33484 0.67051 0.36883
 C221 C 1.32140 0.64887 0.36000
 C222 C 1.33107 0.63459 0.33909
 H223 H 1.38399 0.66892 0.32558
 H224 H 1.32759 0.68106 0.38543
 H225 H 1.32085 0.61779 0.33233
 C226 C 1.35733 1.13455 0.83405
 C227 C 1.37111 1.15605 0.84256
 C228 C 1.36202 1.17215 0.86259
 C229 C 1.33839 1.16622 0.87410
 C230 C 1.32483 1.14402 0.86669
 C231 C 1.33463 1.12821 0.84682
 H232 H 1.38808 1.16127 0.83203
 H233 H 1.33109 1.17820 0.88968
 H234 H 1.32424 1.11116 0.84108
 C235 C 0.85553 0.63593 0.83326
 C236 C 0.86793 0.65721 0.84465
 C237 C 0.85813 0.66886 0.86726
 C238 C 0.83522 0.66000 0.87764
 C239 C 0.82210 0.63961 0.86614
 C240 C 0.83256 0.62725 0.84430
 H241 H 0.88552 0.66424 0.83640
 H242 H 0.82737 0.66929 0.89474
 H243 H 0.82222 0.61159 0.83536
 C244 C 0.84165 1.15244 0.32104
 C245 C 0.85282 1.17497 0.33133
 C246 C 0.84136 1.18815 0.35228
 C247 C 0.81879 1.17849 0.36290
 C248 C 0.80709 1.15652 0.35260
 C249 C 0.81878 1.14345 0.33187
 H250 H 0.87029 1.18225 0.32304
 H251 H 0.81063 1.18784 0.37978
 H252 H 0.80956 1.12672 0.32360
 C253 C 0.64610 0.36158 0.33294
 C254 C 0.66922 0.37115 0.34216
 C255 C 0.68326 0.35774 0.36092
 C256 C 0.67368 0.33481 0.37179
 C257 C 0.65050 0.32418 0.36299
 C258 C 0.63714 0.33787 0.34323
 H259 H 0.67735 0.38853 0.33388
 H260 H 0.68470 0.32571 0.38701
 H261 H 0.61950 0.33021 0.33586
 C262 C 0.64881 0.86278 0.82655
 C263 C 0.67048 0.87028 0.84037
 C264 C 0.67907 0.85566 0.86181
 C265 C 0.66513 0.83394 0.86990
 C266 C 0.64322 0.82639 0.85657
 C267 C 0.63533 0.84079 0.83477
 H268 H 0.68138 0.88673 0.83365
 H269 H 0.67112 0.82300 0.88686
 H270 H 0.61892 0.83466 0.82383
 C271 C 0.15340 0.34869 0.81463
 C272 C 0.17441 0.36235 0.82421
 C273 C 0.18770 0.35368 0.84630
 C274 C 0.17902 0.33171 0.85988
 C275 C 0.15780 0.31796 0.85098
 C276 C 0.14541 0.32650 0.82832
 H277 H 0.18084 0.37965 0.81421
 H278 H 0.18880 0.32546 0.87732
 H279 H 0.12880 0.31615 0.82207
 C280 C 0.14133 0.86916 0.32614
 C281 C 0.16326 0.87729 0.33907
 C282 C 0.17477 0.86177 0.35824
 C283 C 0.16324 0.83848 0.36606
 C284 C 0.14137 0.82985 0.35322
 C285 C 0.13082 0.84509 0.33326
 H286 H 0.17263 0.89500 0.33334
 H287 H 0.17199 0.82650 0.38098
 H288 H 0.11382 0.83831 0.32372
 O289 O 0.97941 0.90062 0.87020
 O290 O 0.98123 0.86880 0.84178
 C291 C 0.97160 0.89011 0.84943
 C292 C 0.95024 0.90249 0.83511
 C293 C 0.93946 0.89111 0.81282
 H294 H 0.94757 0.87348 0.80480
 O295 O 1.02739 1.08637 0.86397
 O296 O 1.02884 1.11409 0.83123
 C297 C 1.03718 1.09379 0.84268
 C298 C 1.05912 1.07914 0.83187
 C299 C 1.06959 1.08582 0.80762
 H300 H 1.06099 1.10120 0.79610
 O301 O 0.87768 0.96966 0.90381
 O302 O 0.84840 0.96852 0.87327
 C303 C 0.85692 0.96091 0.89510
 C304 C 0.84250 0.94154 0.91027
 C305 C 0.81779 0.93507 0.90282
 H306 H 0.80937 0.94455 0.88606
 O307 O 1.12946 1.02152 0.91177
 O308 O 1.16090 1.01919 0.88353
 C309 C 1.15066 1.02960 0.90328
 C310 C 1.16319 1.05181 0.91603
 C311 C 1.18759 1.05946 0.90840
 H312 H 1.19735 1.04865 0.89337
 O313 O 0.90931 0.86877 0.97694
 O314 O 0.87935 0.83922 0.97666
 C315 C 0.90027 0.84794 0.96789
 C316 C 0.91395 0.83449 0.94634
 C317 C 0.90453 0.81147 0.93538
 H318 H 0.88753 0.80270 0.94321
 O319 O 1.08875 1.12966 0.96844
 O320 O 1.11781 1.16018 0.96795
 C321 C 1.09788 1.15019 0.95856
 C322 C 1.08557 1.16214 0.93551
 C323 C 1.09432 1.18580 0.92541
 H324 H 1.10955 1.19582 0.93513
 O325 O 0.91313 1.01807 0.86571
 O326 O 0.88377 1.01644 0.83531
 C327 C 0.90426 1.02576 0.84406
 C328 C 0.91708 1.04655 0.82924
 C329 C 0.90673 1.05511 0.80569
 H330 H 0.89107 1.04455 0.79744
 O331 O 1.09648 0.96915 0.87731
 O332 O 1.12773 0.96748 0.84879
 C333 C 1.10642 0.95951 0.85697
 C334 C 1.09320 0.93877 0.84268
 C335 C 1.10171 0.93117 0.81803
 H336 H 1.11805 0.94063 0.80957
 O337 O 1.02711 0.86862 0.91159
 O338 O 1.02969 0.83689 0.88310
 C339 C 1.03673 0.84718 0.90427
 C340 C 1.05676 0.83443 0.92017
 C341 C 1.06812 0.81119 0.91174
 H342 H 1.06163 0.80216 0.89403
 O343 O 0.97663 1.12483 0.89439
 O344 O 0.97789 1.15311 0.86211
 C345 C 0.96840 1.14542 0.88352
 C346 C 0.94719 1.16002 0.89571
 C347 C 0.93868 1.18382 0.88529
 H348 H 0.94799 1.19166 0.86825
 O349 O 0.87383 1.09380 0.96247
 O350 O 0.84335 1.12330 0.95926
 C351 C 0.85301 1.10163 0.95267
 C352 C 0.84021 1.08541 0.93320
 C353 C 0.81519 1.09092 0.92535
 H354 H 0.80496 1.10690 0.93424
 O355 O 1.12322 0.90526 0.98693
 O356 O 1.15266 0.87465 0.98991
 C357 C 1.14433 0.89557 0.97975
 C358 C 1.15908 0.90830 0.95893
 C359 C 1.18329 0.89889 0.95239
 H360 H 1.19161 0.88352 0.96404
 O361 O 0.97778 1.08758 0.86105
 O362 O 0.97873 1.11553 0.82851
 C363 C 0.96953 1.09537 0.83914
 C364 C 0.94844 1.08112 0.82666
 C365 C 0.93711 1.09006 0.80338
 H366 H 0.94424 1.10731 0.79385
 O367 O 1.02891 0.90217 0.87385
 O368 O 1.03097 0.87070 0.84504
 C369 C 1.03887 0.89224 0.85369
 C370 C 1.06025 0.90576 0.84079
 C371 C 1.06922 0.89819 0.81612
 H372 H 1.06007 0.88253 0.80589
 O373 O 1.12873 0.97065 0.91538
 O374 O 1.16001 0.96843 0.88694
 C375 C 1.14970 0.96085 0.90796
 C376 C 1.16178 0.93999 0.92366
 C377 C 1.18581 0.92994 0.91701
 H378 H 1.19584 0.93795 0.90047
 O379 O 0.87703 1.02015 0.89998
 O380 O 0.84782 1.01843 0.86940
 C381 C 0.85633 1.02831 0.89009
 C382 C 0.84202 1.04958 0.90260
 C383 C 0.81721 1.05556 0.89461
 H384 H 0.80907 1.04452 0.87898
 O385 O 0.90824 1.12942 0.96059
 O386 O 0.87804 1.15917 0.95723
 C387 C 0.89920 1.14971 0.94982
 C388 C 0.91328 1.16201 0.92814
 C389 C 0.90508 1.18578 0.91752
 H390 H 0.88877 1.19561 0.92588
 O391 O 1.08825 0.87042 0.98656
 O392 O 1.11765 0.83982 0.98956
 C393 C 1.09771 0.84900 0.97897
 C394 C 1.08614 0.83510 0.95691
 C395 C 1.09703 0.81173 0.94821
 H396 H 1.11328 0.80356 0.95830
 O397 O 1.09586 1.01949 0.87520
 O398 O 1.12723 1.01767 0.84681
 C399 C 1.10593 1.02695 0.85406
 C400 C 1.09296 1.04681 0.83787
 C401 C 1.10317 1.05389 0.81375
 H402 H 1.12006 1.04410 0.80663
 O403 O 0.91248 0.96745 0.86790
 O404 O 0.88306 0.96615 0.83754
 C405 C 0.90365 0.95769 0.84722
 C406 C 0.91691 0.93573 0.83465
 C407 C 0.90652 0.92431 0.81258
 H408 H 0.88956 0.93267 0.80393
 O409 O 1.02592 1.12472 0.89618
 O410 O 1.02745 1.15280 0.86375
 C411 C 1.03504 1.14512 0.88596
 C412 C 1.05497 1.15966 0.89994
 C413 C 1.06402 1.18336 0.89013
 H414 H 1.05622 1.19106 0.87222
 O415 O 0.97772 0.86907 0.90922
 O416 O 0.98001 0.83711 0.88097
 C417 C 0.96983 0.84748 0.90087
 C418 C 0.94802 0.83464 0.91374
 C419 C 0.93824 0.81183 0.90321
 H420 H 0.94752 0.80302 0.88661
 O421 O 1.12510 1.09562 0.97294
 O422 O 1.15433 1.12596 0.97241
 C423 C 1.14621 1.10418 0.96472
 C424 C 1.16104 1.08863 0.94572
 C425 C 1.18553 1.09611 0.93776
 H426 H 1.19410 1.11322 0.94601
 O427 O 0.87380 0.90384 0.97564
 O428 O 0.84347 0.87465 0.97605
 C429 C 0.85302 0.89528 0.96679
 C430 C 0.84038 0.90929 0.94513
 C431 C 0.81570 0.90281 0.93717
 H432 H 0.80540 0.88774 0.94733
 Cu433 Cu 1.00315 0.88841 0.89389
 Cu434 Cu 1.00581 0.85012 0.85995
 Cu435 Cu 1.00179 1.10302 0.88203
 Cu436 Cu 1.00342 1.13662 0.84306
 Cu437 Cu 0.89808 0.99393 0.88745
 Cu438 Cu 0.86290 0.99219 0.85074
 Cu439 Cu 1.10961 0.99534 0.89791
 Cu440 Cu 1.14718 0.99300 0.86375
 C441 C 0.93890 0.92496 0.84557
 H442 H 0.94667 0.93362 0.86292
 C443 C 0.91727 0.90185 0.80175
 C444 C 1.07084 1.05940 0.84673
 H445 H 1.06315 1.05431 0.86558
 C446 C 1.09177 1.07344 0.79862
 C447 C 0.85350 0.92886 0.93167
 H448 H 0.87265 0.93371 0.93736
 C449 C 0.80412 0.91598 0.91628
 C450 C 1.15024 1.06631 0.93491
 H451 H 1.13130 1.06062 0.94065
 C452 C 1.19914 1.08136 0.91936
 C453 C 0.93584 0.84579 0.93537
 H454 H 0.94307 0.86370 0.94327
 C455 C 0.91642 0.80032 0.91354
 C456 C 1.06572 1.14937 0.92279
 H457 H 1.05909 1.13096 0.93033
 C458 C 1.08356 1.19671 0.90289
 C459 C 0.93813 1.05938 0.83941
 H460 H 0.94603 1.05285 0.85775
 C461 C 0.91580 1.07738 0.79305
 C462 C 1.07227 0.92623 0.85373
 H463 H 1.06575 0.93199 0.87283
 C464 C 1.08968 0.91121 0.80437
 C465 C 1.06577 0.84617 0.94295
 H466 H 1.05755 0.86443 0.94929
 C467 C 1.08826 0.79976 0.92559
 C468 C 0.93452 1.14946 0.91730
 H469 H 0.94075 1.13096 0.92522
 C470 C 0.91773 1.19698 0.89621
 C471 C 0.85329 1.06442 0.92203
 H472 H 0.87260 1.06008 0.92792
 C473 C 0.80331 1.07587 0.90621
 C474 C 1.14859 0.92904 0.94470
 H475 H 1.12980 0.93621 0.94958
 C476 C 1.19668 0.90917 0.93114
 O477 O 1.01483 0.91571 1.13207
 O478 O 1.01417 0.88785 1.16473
 C479 C 1.02293 0.90823 1.15405
 C480 C 1.04363 0.92227 1.16704
 C481 C 1.05259 0.91289 1.19083
 H482 H 1.04233 0.89758 1.20062
 O483 O 0.96591 1.10387 1.12179
 O484 O 0.96534 1.13590 1.15006
 C485 C 0.95675 1.11447 1.14205
 C486 C 0.93538 1.10216 1.15594
 C487 C 0.92505 1.11351 1.17834
 H488 H 0.93392 1.13056 1.18634
 O489 O 0.87124 1.03227 1.08579
 O490 O 0.83934 1.03382 1.11355
 C491 C 0.84968 1.04114 1.09247
 C492 C 0.83662 1.06065 1.07602
 C493 C 0.81171 1.06818 1.08191
 H494 H 0.80188 1.05864 1.09775
 O495 O 1.12090 0.98128 1.09781
 O496 O 1.14914 0.98304 1.12929
 C497 C 1.14115 0.97292 1.10844
 C498 C 1.15490 0.95065 1.09672
 C499 C 1.17907 0.94298 1.10556
 H500 H 1.18782 0.95380 1.12105
 O501 O 1.08610 0.87206 1.03741
 O502 O 1.11558 0.84152 1.04034
 C503 C 1.09460 0.85130 1.04776
 C504 C 1.08036 0.83892 1.06922
 C505 C 1.08931 0.81589 1.08079
 H506 H 1.10613 0.80646 1.07304
 O507 O 0.90613 1.13329 1.01107
 O508 O 0.87591 1.16304 1.00790
 C509 C 0.89635 1.15474 1.01815
 C510 C 0.90836 1.16956 1.03928
 C511 C 0.89875 1.19394 1.04657
 H512 H 0.88382 1.20267 1.03502
 O513 O 0.90358 0.98524 1.12832
 O514 O 0.87176 0.98699 1.15618
 C515 C 0.89299 0.97754 1.14911
 C516 C 0.90477 0.95628 1.16431
 C517 C 0.89328 0.94722 1.18717
 H518 H 0.87696 0.95749 1.19492
 O519 O 1.08343 1.03341 1.12822
 O520 O 1.11101 1.03477 1.16033
 C521 C 1.09085 1.04311 1.14948
 C522 C 1.07611 1.06462 1.16140
 C523 C 1.08221 1.07359 1.18629
 H524 H 1.09757 1.06436 1.19694
 O525 O 0.96718 0.87612 1.09921
 O526 O 0.96683 0.84821 1.13185
 C527 C 0.95892 0.85547 1.10966
 C528 C 0.93967 0.83999 1.09604
 C529 C 0.93122 0.81647 1.10654
 H530 H 0.93973 0.80906 1.12425
 O531 O 1.01670 1.13612 1.08492
 O532 O 1.01581 1.16802 1.11332
 C533 C 1.02497 1.15771 1.09298
 C534 C 1.04589 1.17081 1.07910
 C535 C 1.05398 1.19524 1.08739
 H536 H 1.04431 1.20475 1.10337
 O537 O 0.87442 0.90652 1.02616
 O538 O 0.84438 0.87704 1.02702
 C539 C 0.85361 0.89825 1.03529
 C540 C 0.84047 0.91320 1.05617
 C541 C 0.81787 0.90392 1.06746
 H542 H 0.80955 0.88607 1.06060
 O543 O 1.12092 1.09743 1.02321
 O544 O 1.15010 1.12783 1.02280
 C545 C 1.14095 1.10717 1.03250
 C546 C 1.15342 1.09478 1.05520
 C547 C 1.17600 1.10493 1.06497
 H548 H 1.18494 1.12090 1.05485
 O549 O 1.01535 1.10183 1.12202
 O550 O 1.01467 1.13361 1.15057
 C551 C 1.02330 1.11180 1.14291
 C552 C 1.04310 1.09811 1.15820
 C553 C 1.04925 1.10658 1.18323
 H554 H 1.03837 1.12232 1.19167
 O555 O 0.96559 0.91342 1.13309
 O556 O 0.96495 0.88550 1.16571
 C557 C 0.95651 0.90590 1.15472
 C558 C 0.93555 0.92076 1.16679
 C559 C 0.92381 0.91183 1.18963
 H560 H 0.93068 0.89424 1.19898
 O561 O 1.12017 1.03199 1.09484
 O562 O 1.14802 1.03396 1.12665
 C563 C 1.14000 1.04172 1.10464
 C564 C 1.15322 1.06285 1.09053
 C565 C 1.17585 1.07344 1.10015
 H566 H 1.18431 1.06563 1.11772
 O567 O 0.87236 0.98161 1.09008
 O568 O 0.84060 0.98347 1.11798
 C569 C 0.85141 0.97292 1.09855
 C570 C 0.83968 0.94975 1.08662
 C571 C 0.81725 0.94004 1.09738
 H572 H 0.80809 0.95034 1.11317
 O573 O 1.08692 1.13376 1.01915
 O574 O 1.11591 1.16435 1.01877
 C575 C 1.09508 1.15540 1.02728
 C576 C 1.08046 1.16977 1.04737
 C577 C 1.08868 1.19402 1.05649
 H578 H 1.10552 1.20282 1.04833
 O579 O 0.90658 0.86837 1.02779
 O580 O 0.87696 0.83845 1.02811
 C581 C 0.89724 0.84773 1.03735
 C582 C 0.90967 0.83560 1.06028
 C583 C 0.90135 0.81191 1.07103
 H584 H 0.88620 0.80136 1.06176
 O585 O 1.08399 0.98288 1.13079
 O586 O 1.11200 0.98398 1.16252
 C587 C 1.09195 0.97471 1.15264
 C588 C 1.07804 0.95375 1.16626
 C589 C 1.08746 0.94301 1.18959
 H590 H 1.10488 0.95024 1.19789
 O591 O 0.90156 1.03587 1.12536
 O592 O 0.86974 1.03765 1.15316
 C593 C 0.89081 1.04619 1.14499
 C594 C 0.90281 1.06882 1.15761
 C595 C 0.89250 1.08052 1.18009
 H596 H 0.87569 1.07249 1.18910
 O597 O 0.96737 1.13638 1.08331
 O598 O 0.96648 1.16844 1.11153
 C599 C 0.95853 1.15811 1.09074
 C600 C 0.93844 1.17106 1.07520
 C601 C 0.92827 1.19522 1.08259
 H602 H 0.93561 1.20473 1.09968
 O603 O 1.01641 0.87565 1.10202
 O604 O 1.01588 0.84780 1.13473
 C605 C 1.02502 0.85534 1.11320
 C606 C 1.04634 0.84085 1.10133
 C607 C 1.05556 0.81778 1.11275
 H608 H 1.04656 0.81028 1.13012
 O609 O 1.12119 0.90723 1.03713
 O610 O 1.15075 0.87674 1.03997
 C611 C 1.14168 0.89853 1.04701
 C612 C 1.15491 0.91393 1.06693
 C613 C 1.17912 0.90657 1.07585
 H614 H 1.18843 0.88963 1.06770
 O615 O 0.87268 1.09697 1.01258
 O616 O 0.84221 1.12647 1.00945
 C617 C 0.85138 1.10605 1.01993
 C618 C 0.83737 1.09275 1.04101
 C619 C 0.81246 1.10039 1.04751
 H620 H 0.80363 1.11633 1.03705
 Cu621 Cu 0.99090 0.89799 1.11325
 Cu622 Cu 0.99038 0.86463 1.15262
 Cu623 Cu 0.99138 1.11632 1.10018
 Cu624 Cu 0.99062 1.15471 1.13422
 Cu625 Cu 0.89405 0.88966 1.00158
 Cu626 Cu 0.85809 0.85436 1.00197
 Cu627 Cu 1.10162 0.89175 1.01184
 Cu628 Cu 1.13700 0.85497 1.01527
 Cu629 Cu 0.89332 1.11047 0.98694
 Cu630 Cu 0.85690 1.14609 0.98309
 Cu631 Cu 1.10246 1.11116 0.99590
 Cu632 Cu 1.13740 1.14770 0.99544
 Cu633 Cu 0.89049 1.00877 1.10469
 Cu634 Cu 0.85211 1.01071 1.13794
 Cu635 Cu 1.09942 1.00725 1.10969
 Cu636 Cu 1.13285 1.00915 1.14790
 C637 C 1.05619 0.94301 1.15496
 H638 H 1.04938 0.95025 1.13642
 C639 C 1.07512 0.92206 1.20158
 C640 C 0.92431 1.07977 1.14594
 H641 H 0.93212 1.07121 1.12846
 C642 C 0.90340 1.10315 1.19045
 C643 C 0.84923 1.07273 1.05529
 H644 H 0.86858 1.06706 1.05078
 C645 C 0.79939 1.08802 1.06792
 C646 C 1.14316 0.93613 1.07724
 H647 H 1.12441 0.94175 1.07056
 C648 C 1.19157 0.92114 1.09494
 C649 C 1.05865 0.85105 1.07941
 H650 H 1.05187 0.86907 1.07083
 C651 C 1.07708 0.80514 1.10258
 C652 C 0.92839 1.15846 1.05348
 H653 H 0.93571 1.13953 1.04805
 C654 C 0.90819 1.20679 1.06856
 C655 C 0.92607 0.94314 1.15447
 H656 H 0.93472 0.94979 1.13656
 C657 C 0.90241 0.92472 1.19973
 C658 C 1.05644 1.07695 1.14753
 H659 H 1.05190 1.07046 1.12812
 C660 C 1.06898 1.09464 1.19740
 C661 C 0.92902 0.84921 1.07284
 H662 H 0.93531 0.86761 1.06497
 C663 C 0.91197 0.80235 1.09436
 C664 C 1.05892 1.15841 1.05877
 H665 H 1.05281 1.13945 1.05245
 C666 C 1.07532 1.20695 1.07633
 C667 C 0.85121 0.93624 1.06594
 H668 H 0.86879 0.94340 1.05781
 C669 C 0.80651 0.91705 1.08841
 C670 C 1.14226 1.07361 1.06796
 H671 H 1.12461 1.06592 1.06066
 C672 C 1.18716 1.09473 1.08762
 O673 O 1.09931 0.53024 0.62277
 O674 O 1.12937 0.53039 0.65251
 C675 C 1.10823 0.53875 0.64394
 C676 C 1.09428 0.55906 0.65845
 C677 C 1.10350 0.56775 0.68233
 H678 H 1.12038 0.55887 0.69060
 O679 O 0.91753 0.47720 0.63170
 O680 O 0.88861 0.47632 0.66270
 C681 C 0.90935 0.46797 0.65296
 C682 C 0.92359 0.44661 0.66589
 C683 C 0.91455 0.43566 0.68911
 H684 H 0.89768 0.44363 0.69826
 O685 O 1.02596 0.62672 0.58931
 O686 O 1.02615 0.65868 0.61764
 C687 C 1.03411 0.64860 0.59665
 C688 C 1.05339 0.66251 0.58113
 C689 C 1.06014 0.68771 0.58819
 H690 H 1.05082 0.69685 0.60457
 O691 O 0.98410 0.37190 0.59453
 O692 O 0.98607 0.34222 0.62549
 C693 C 0.97615 0.35093 0.60466
 C694 C 0.95456 0.33720 0.59242
 C695 C 0.94525 0.31381 0.60283
 H696 H 0.95509 0.30493 0.61905
 O697 O 1.13006 0.59645 0.51711
 O698 O 1.15839 0.62766 0.51526
 C699 C 1.15058 0.60658 0.52500
 C700 C 1.16498 0.59431 0.54639
 C701 C 1.18797 0.60488 0.55477
 H702 H 1.19601 0.62108 0.54422
 O703 O 0.87879 0.40570 0.53063
 O704 O 0.84952 0.37543 0.53187
 C705 C 0.85858 0.39647 0.54049
 C706 C 0.84615 0.41006 0.56272
 C707 C 0.82349 0.40074 0.57401
 H708 H 0.81439 0.38382 0.56599
 O709 O 0.97892 0.59346 0.63031
 O710 O 0.97940 0.62549 0.65854
 C711 C 0.97072 0.60390 0.65107
 C712 C 0.95005 0.59131 0.66586
 C713 C 0.94066 0.60211 0.68901
 H714 H 0.95015 0.61872 0.69714
 O715 O 1.03452 0.40928 0.62614
 O716 O 1.03673 0.37981 0.65731
 C717 C 1.04442 0.40086 0.64707
 C718 C 1.06547 0.41539 0.65921
 C719 C 1.07547 0.40748 0.68335
 H720 H 1.06714 0.39120 0.69357
 O721 O 1.13513 0.48114 0.58600
 O722 O 1.16535 0.48176 0.61558
 C723 C 1.15629 0.47290 0.59463
 C724 C 1.17022 0.45232 0.58059
 C725 C 1.19497 0.44548 0.58794
 H726 H 1.20404 0.45593 0.60353
 O727 O 0.88004 0.52586 0.59593
 O728 O 0.85080 0.52521 0.62662
 C729 C 0.85895 0.53377 0.60493
 C730 C 0.84386 0.55320 0.59010
 C731 C 0.81921 0.55982 0.59808
 H732 H 0.81132 0.55061 0.61520
 O733 O 0.90777 0.62507 0.52207
 O734 O 0.87785 0.65526 0.52298
 C735 C 0.89890 0.64611 0.53124
 C736 C 0.91311 0.65980 0.55194
 C737 C 0.90581 0.68498 0.55958
 H738 H 0.89000 0.69466 0.55007
 O739 O 1.09998 0.37556 0.52333
 O740 O 1.13049 0.34594 0.52337
 C741 C 1.10966 0.35475 0.53230
 C742 C 1.09682 0.34071 0.55352
 C743 C 1.10601 0.31643 0.56159
 H744 H 1.12168 0.30758 0.55117
 O745 O 0.91303 0.52775 0.63345
 O746 O 0.88403 0.52718 0.66434
 C747 C 0.90408 0.53661 0.65467
 C748 C 0.91699 0.55852 0.66759
 C749 C 0.90760 0.56964 0.69073
 H750 H 0.89090 0.56160 0.69992
 O751 O 1.10058 0.47971 0.62169
 O752 O 1.13071 0.47997 0.65135
 C753 C 1.11014 0.47079 0.64254
 C754 C 1.09751 0.44938 0.65670
 C755 C 1.10728 0.44097 0.68061
 H756 H 1.12409 0.45014 0.68812
 O757 O 1.03370 0.37256 0.59217
 O758 O 1.03585 0.34283 0.62309
 C759 C 1.04342 0.35186 0.60146
 C760 C 1.06436 0.33889 0.58728
 C761 C 1.07404 0.31461 0.59540
 H762 H 1.06558 0.30470 0.61184
 O763 O 0.97658 0.62530 0.59116
 O764 O 0.97697 0.65743 0.61929
 C765 C 0.96785 0.64692 0.59904
 C766 C 0.94680 0.66005 0.58476
 C767 C 0.93925 0.68521 0.59182
 H768 H 0.94885 0.69475 0.60766
 O769 O 0.87298 0.59002 0.52298
 O770 O 0.84263 0.61975 0.52384
 C771 C 0.85244 0.59884 0.53259
 C772 C 0.84043 0.58493 0.55468
 C773 C 0.81581 0.59150 0.56319
 H774 H 0.80502 0.60639 0.55303
 O775 O 1.13547 0.41027 0.52083
 O776 O 1.16606 0.38075 0.52100
 C777 C 1.15679 0.40200 0.52920
 C778 C 1.17053 0.41718 0.54900
 C779 C 1.19530 0.41026 0.55691
 H780 H 1.20493 0.39385 0.54808
 O781 O 0.98518 0.40871 0.62866
 O782 O 0.98727 0.37914 0.65974
 C783 C 0.97776 0.39997 0.65046
 C784 C 0.95720 0.41354 0.66470
 C785 C 0.94809 0.40319 0.68814
 H786 H 0.95677 0.38579 0.69619
 O787 O 1.02867 0.59395 0.62763
 O788 O 1.02923 0.62582 0.65602
 C789 C 1.03823 0.60448 0.64759
 C790 C 1.06046 0.59184 0.66034
 C791 C 1.07056 0.60097 0.68395
 H792 H 1.06183 0.61741 0.69365
 O793 O 0.88074 0.47527 0.59852
 O794 O 0.85183 0.47488 0.62955
 C795 C 0.86064 0.46593 0.60841
 C796 C 0.84754 0.44405 0.59573
 C797 C 0.82498 0.43457 0.60649
 H798 H 0.81665 0.44436 0.62304
 O799 O 1.13423 0.53164 0.58710
 O800 O 1.16431 0.53222 0.61679
 C801 C 1.15477 0.54093 0.59583
 C802 C 1.16711 0.56242 0.58147
 C803 C 1.19017 0.57324 0.58977
 H804 H 1.19965 0.56538 0.60677
 O805 O 0.91504 0.37137 0.52956
 O806 O 0.88589 0.34097 0.53061
 C807 C 0.90659 0.35029 0.53889
 C808 C 0.92056 0.33700 0.56016
 C809 C 0.91147 0.31377 0.57089
 H810 H 0.89453 0.30516 0.56290
 O811 O 1.09190 0.62833 0.51785
 O812 O 1.12006 0.65973 0.51660
 C813 C 1.09999 0.64986 0.52614
 C814 C 1.08598 0.66323 0.54726
 C815 C 1.09278 0.68836 0.55505
 H816 H 1.10823 0.69829 0.54541
 Cu817 Cu 1.11433 0.50578 0.60133
 Cu818 Cu 1.15042 0.50607 0.63711
 Cu819 Cu 0.90079 0.50172 0.61191
 Cu820 Cu 0.86598 0.50091 0.64891
 Cu821 Cu 1.00252 0.60648 0.60697
 Cu822 Cu 1.00296 0.64505 0.64070
 Cu823 Cu 1.00915 0.39347 0.60720
 Cu824 Cu 1.01168 0.35803 0.64453
 C825 C 1.07252 0.57083 0.64789
 H826 H 1.06542 0.56409 0.62941
 C827 C 1.09187 0.58860 0.69521
 C828 C 0.94511 0.43552 0.65392
 H829 H 0.95183 0.44336 0.63562
 C830 C 0.92670 0.41399 0.70030
 C831 C 1.06610 0.65050 0.56035
 H832 H 1.06103 0.63093 0.55493
 C833 C 1.07967 0.70079 0.57531
 C834 C 0.94217 0.34844 0.57094
 H835 H 0.94896 0.36661 0.56300
 C836 C 0.92343 0.30203 0.59238
 C837 C 1.15488 0.57302 0.55965
 H838 H 1.13695 0.56513 0.55335
 C839 C 1.20064 0.59472 0.57660
 C840 C 0.85790 0.43182 0.57378
 H841 H 0.87551 0.43893 0.56565
 C842 C 0.81295 0.41276 0.59619
 C843 C 0.93829 0.56942 0.65560
 H844 H 0.94533 0.56127 0.63758
 C845 C 0.91917 0.59170 0.70153
 C846 C 1.07644 0.43664 0.64619
 H847 H 1.06906 0.44281 0.62751
 C848 C 1.09626 0.42033 0.69434
 C849 C 1.15832 0.43840 0.56082
 H850 H 1.13910 0.44354 0.55527
 C851 C 1.20779 0.42466 0.57612
 C852 C 0.85417 0.56558 0.56816
 H853 H 0.87328 0.56066 0.56200
 C854 C 0.80491 0.57869 0.58462
 C855 C 0.93381 0.64756 0.56454
 H856 H 0.93944 0.62807 0.55903
 C857 C 0.91905 0.69796 0.57921
 C858 C 1.07586 0.35170 0.56624
 H859 H 1.06889 0.37063 0.56017
 C860 C 1.09508 0.30338 0.58274
 O861 O 1.09232 0.47272 0.36349
 O862 O 1.12098 0.47289 0.33228
 C863 C 1.10101 0.46350 0.34241
 C864 C 1.08805 0.44101 0.33041
 C865 C 1.09585 0.43080 0.30629
 H866 H 1.11096 0.44016 0.29558
 O867 O 0.91036 0.52212 0.36843
 O868 O 0.88094 0.52079 0.33812
 C869 C 0.90126 0.53043 0.34707
 C870 C 0.91428 0.55202 0.33319
 C871 C 0.90629 0.56064 0.30841
 H872 H 0.89084 0.55093 0.29873
 O873 O 0.97397 0.62835 0.40404
 O874 O 0.97235 0.65823 0.37325
 C875 C 0.96420 0.64895 0.39459
 C876 C 0.94250 0.66178 0.40789
 C877 C 0.93196 0.68472 0.39763
 H878 H 0.94106 0.69391 0.38117
 O879 O 1.03092 0.36740 0.40786
 O880 O 1.03053 0.33602 0.37892
 C881 C 1.03976 0.34604 0.39927
 C882 C 1.06157 0.33342 0.41270
 C883 C 1.07131 0.30918 0.40464
 H884 H 1.06223 0.29893 0.38892
 O885 O 1.13171 0.41020 0.47026
 O886 O 1.16219 0.38054 0.47053
 C887 C 1.15220 0.40103 0.46102
 C888 C 1.16441 0.41373 0.43860
 C889 C 1.18792 0.40460 0.42991
 H890 H 1.19752 0.38914 0.44050
 O891 O 0.87201 0.59030 0.47196
 O892 O 0.84168 0.62003 0.47249
 C893 C 0.85114 0.59923 0.46320
 C894 C 0.83846 0.58543 0.44149
 C895 C 0.81467 0.59357 0.43167
 H896 H 0.80483 0.60991 0.44037
 O897 O 1.02452 0.59381 0.36805
 O898 O 1.02291 0.62394 0.33751
 C899 C 1.03241 0.60302 0.34661
 C900 C 1.05310 0.58964 0.33216
 C901 C 1.06207 0.60024 0.30877
 H902 H 1.05373 0.61819 0.30173
 O903 O 0.98006 0.40239 0.37290
 O904 O 0.97961 0.37112 0.34381
 C905 C 0.97103 0.39261 0.35233
 C906 C 0.94993 0.40598 0.33848
 C907 C 0.94116 0.39631 0.31474
 H908 H 0.95099 0.38002 0.30599
 O909 O 1.12560 0.52443 0.39809
 O910 O 1.15482 0.52481 0.36737
 C911 C 1.14593 0.53355 0.38865
 C912 C 1.15913 0.55475 0.40241
 C913 C 1.18339 0.56248 0.39447
 H914 H 1.19237 0.55282 0.37820
 O915 O 0.87719 0.47204 0.40636
 O916 O 0.84731 0.47029 0.37653
 C917 C 0.85658 0.46256 0.39807
 C918 C 0.84363 0.44222 0.41372
 C919 C 0.81933 0.43328 0.40695
 H920 H 0.80962 0.44148 0.39024
 O921 O 1.09190 0.63026 0.46743
 O922 O 1.12052 0.66122 0.46619
 C923 C 1.09980 0.65177 0.45842
 C924 C 1.08509 0.66589 0.43845
 C925 C 1.09204 0.69102 0.43114
 H926 H 1.10793 0.70017 0.44067
 O927 O 0.91291 0.37017 0.47881
 O928 O 0.88359 0.33994 0.47970
 C929 C 0.90395 0.34905 0.47017
 C930 C 0.91712 0.33536 0.44848
 C931 C 0.90736 0.31217 0.43817
 H932 H 0.89030 0.30383 0.44633
 O933 O 0.91174 0.47116 0.37039
 O934 O 0.88214 0.46960 0.34025
 C935 C 0.90295 0.46128 0.34975
 C936 C 0.91670 0.43945 0.33711
 C937 C 0.90808 0.42927 0.31343
 H938 H 0.89167 0.43791 0.30400
 O939 O 1.09098 0.52378 0.36281
 O940 O 1.11974 0.52446 0.33169
 C941 C 1.09929 0.53323 0.34164
 C942 C 1.08551 0.55539 0.32927
 C943 C 1.09407 0.56630 0.30572
 H944 H 1.11013 0.55758 0.29578
 O945 O 0.98103 0.36826 0.41007
 O946 O 0.98072 0.33699 0.38102
 C947 C 0.97217 0.34699 0.40183
 C948 C 0.95099 0.33418 0.41578
 C949 C 0.94128 0.31079 0.40634
 H950 H 0.95004 0.30172 0.38959
 O951 O 1.02355 0.63130 0.40166
 O952 O 1.02188 0.66150 0.37120
 C953 C 1.03127 0.65268 0.39216
 C954 C 1.05186 0.66671 0.40557
 C955 C 1.05949 0.69188 0.39794
 H956 H 1.04991 0.70184 0.38213
 O957 O 0.87911 0.40712 0.47955
 O958 O 0.84967 0.37700 0.48084
 C959 C 0.85836 0.39798 0.47135
 C960 C 0.84450 0.41131 0.45005
 C961 C 0.82021 0.40303 0.44319
 H962 H 0.81155 0.38736 0.45405
 O963 O 1.12609 0.59352 0.46652
 O964 O 1.15474 0.62442 0.46484
 C965 C 1.14612 0.60291 0.45672
 C966 C 1.15922 0.58873 0.43551
 C967 C 1.18348 0.59618 0.42720
 H968 H 1.19293 0.61212 0.43670
 O969 O 1.02948 0.40230 0.37120
 O970 O 1.02890 0.37096 0.34220
 C971 C 1.03745 0.39252 0.35004
 C972 C 1.05707 0.40615 0.33457
 C973 C 1.06515 0.39620 0.31058
 H974 H 1.05692 0.37838 0.30368
 O975 O 0.97504 0.59271 0.36864
 O976 O 0.97359 0.62258 0.33782
 C977 C 0.96592 0.60124 0.34739
 C978 C 0.94596 0.58650 0.33376
 C979 C 0.93776 0.59467 0.30918
 H980 H 0.94620 0.61173 0.30052
 O981 O 0.87566 0.52247 0.40423
 O982 O 0.84599 0.52088 0.37417
 C983 C 0.85465 0.53049 0.39500
 C984 C 0.84037 0.55151 0.40834
 C985 C 0.81647 0.55952 0.39924
 H986 H 0.80822 0.54990 0.38265
 O987 O 1.12846 0.47412 0.39755
 O988 O 1.15747 0.47415 0.36665
 C989 C 1.14928 0.46557 0.38826
 C990 C 1.16346 0.44506 0.40277
 C991 C 1.18739 0.43568 0.39438
 H992 H 1.19632 0.44387 0.37728
 O993 O 1.09986 0.37244 0.47295
 O994 O 1.13040 0.34283 0.47325
 C995 C 1.10922 0.35115 0.46475
 C996 C 1.09564 0.33624 0.44468
 C997 C 1.10508 0.31210 0.43641
 H998 H 1.12165 0.30383 0.44582
 O999 O 0.90579 0.62645 0.47146
 O1000 O 0.87566 0.65642 0.47208
 C1001 C 0.89629 0.64751 0.46272
 C1002 C 0.90907 0.66117 0.44092
 C1003 C 0.89861 0.68407 0.43011
 H1004 H 0.88136 0.69233 0.43819
 Cu1005 Cu 1.10638 0.49858 0.38341
 Cu1006 Cu 1.14103 0.49917 0.34626
 Cu1007 Cu 0.89675 0.49710 0.39023
 Cu1008 Cu 0.86121 0.49520 0.35418
 Cu1009 Cu 1.10724 0.60896 0.49232
 Cu1010 Cu 1.14127 0.64632 0.49051
 Cu1011 Cu 1.11372 0.39514 0.49694
 Cu1012 Cu 1.15041 0.35960 0.49712
 Cu1013 Cu 0.89252 0.60493 0.49699
 Cu1014 Cu 0.85641 0.64083 0.49803
 Cu1015 Cu 0.89933 0.39160 0.50455
 Cu1016 Cu 0.86423 0.35535 0.50580
 Cu1017 Cu 0.99952 0.60865 0.38878
 Cu1018 Cu 0.99748 0.64455 0.35188
 Cu1019 Cu 1.00552 0.38812 0.39351
 Cu1020 Cu 1.00488 0.35058 0.35867
 C1021 C 1.06841 0.42867 0.34412
 H1022 H 1.06242 0.43617 0.36279
 C1023 C 1.08425 0.40851 0.29598
 C1024 C 0.93437 0.56498 0.34548
 H1025 H 0.94050 0.55882 0.36463
 C1026 C 0.91828 0.58177 0.29607
 C1027 C 0.93107 0.65028 0.42969
 H1028 H 0.93893 0.63236 0.43746
 C1029 C 0.90971 0.69575 0.40815
 C1030 C 1.07381 0.34661 0.43288
 H1031 H 1.06672 0.36543 0.43896
 C1032 C 1.09325 0.29848 0.41626
 C1033 C 1.15232 0.43400 0.42506
 H1034 H 1.13388 0.44075 0.43162
 C1035 C 1.19947 0.41514 0.40786
 C1036 C 0.85099 0.56430 0.42966
 H1037 H 0.86947 0.55817 0.43667
 C1038 C 0.80340 0.58039 0.41076
 C1039 C 1.06476 0.56707 0.34213
 H1040 H 1.05819 0.55909 0.36043
 C1041 C 1.08237 0.58870 0.29518
 C1042 C 0.93772 0.42771 0.34941
 H1043 H 0.94419 0.43509 0.36789
 C1044 C 0.92001 0.40752 0.30221
 C1045 C 1.14730 0.56780 0.42315
 H1046 H 1.12848 0.56207 0.42928
 C1047 C 1.19586 0.58292 0.40697
 C1048 C 0.85593 0.43119 0.43547
 H1049 H 0.87480 0.43750 0.44062
 C1050 C 0.80737 0.41395 0.42190
 C1051 C 1.06476 0.65407 0.42596
 H1052 H 1.05949 0.63457 0.43163
 C1053 C 1.07934 0.70431 0.41115
 C1054 C 0.93902 0.34613 0.43712
 H1055 H 0.94633 0.36428 0.44436
 C1056 C 0.91951 0.29968 0.41725
 O1057 O 0.46578 0.91009 0.37516
 O1058 O 0.46465 0.87886 0.34605
 C1059 C 0.45622 0.90026 0.35493
 C1060 C 0.43433 0.91303 0.34214
 C1061 C 0.42447 0.90257 0.31933
 H1062 H 0.43421 0.88642 0.31015
 O1063 O 0.51195 1.09602 0.37139
 O1064 O 0.50958 1.12595 0.34070
 C1065 C 0.51924 1.10501 0.34960
 C1066 C 0.53961 1.09138 0.33482
 C1067 C 0.54787 1.10121 0.31076
 H1068 H 0.53839 1.11803 0.30245
 O1069 O 0.36287 0.97453 0.41583
 O1070 O 0.33209 0.97398 0.38689
 C1071 C 0.34201 0.96546 0.40784
 C1072 C 0.32964 0.94452 0.42299
 C1073 C 0.30601 0.93457 0.41556
 H1074 H 0.29628 0.94263 0.39880
 O1075 O 0.61538 1.02676 0.39940
 O1076 O 0.64375 1.02701 0.36785
 C1077 C 0.63559 1.03567 0.38941
 C1078 C 0.64960 1.05651 0.40277
 C1079 C 0.67320 1.06469 0.39324
 H1080 H 0.68118 1.05551 0.37616
 O1081 O 0.40344 0.87454 0.48396
 O1082 O 0.37437 0.84404 0.48535
 C1083 C 0.39433 0.85358 0.47535
 C1084 C 0.40639 0.84047 0.45291
 C1085 C 0.39616 0.81730 0.44368
 H1086 H 0.38094 0.80828 0.45445
 O1087 O 0.58502 1.13072 0.46962
 O1088 O 0.61403 1.16123 0.46779
 C1089 C 0.59315 1.15192 0.46005
 C1090 C 0.57852 1.16557 0.43928
 C1091 C 0.58717 1.18918 0.42880
 H1092 H 0.60409 1.19783 0.43676
 O1093 O 0.39608 1.02516 0.37928
 O1094 O 0.36587 1.02471 0.34971
 C1095 C 0.38668 1.03371 0.35825
 C1096 C 0.39993 1.05446 0.34367
 C1097 C 0.39194 1.06120 0.31858
 H1098 H 0.37607 1.05112 0.31008
 O1099 O 0.58087 0.97519 0.36552
 O1100 O 0.60925 0.97525 0.33403
 C1101 C 0.58937 0.96596 0.34433
 C1102 C 0.57641 0.94357 0.33225
 C1103 C 0.58595 0.93193 0.30948
 H1104 H 0.60247 0.94004 0.30000
 O1105 O 0.51656 0.87510 0.40984
 O1106 O 0.51505 0.84380 0.38084
 C1107 C 0.52475 0.85363 0.40109
 C1108 C 0.54649 0.84038 0.41370
 C1109 C 0.55549 0.81676 0.40377
 H1110 H 0.54508 0.80740 0.38838
 O1111 O 0.46340 1.13169 0.40911
 O1112 O 0.46085 1.16169 0.37853
 C1113 C 0.45341 1.15245 0.40015
 C1114 C 0.43233 1.16524 0.41471
 C1115 C 0.42230 1.18952 0.40691
 H1116 H 0.43061 1.19965 0.39052
 O1117 O 0.36377 1.09122 0.48135
 O1118 O 0.33384 1.12131 0.48405
 C1119 C 0.34241 1.10044 0.47428
 C1120 C 0.32786 1.08733 0.45377
 C1121 C 0.30398 1.09685 0.44615
 H1122 H 0.29547 1.11271 0.45687
 O1123 O 0.62149 0.91129 0.47289
 O1124 O 0.65164 0.88138 0.47051
 C1125 C 0.64179 0.90263 0.46271
 C1126 C 0.65405 0.91697 0.44128
 C1127 C 0.67888 0.91054 0.43405
 H1128 H 0.68902 0.89549 0.44467
 O1129 O 0.46255 1.09499 0.37483
 O1130 O 0.46012 1.12468 0.34390
 C1131 C 0.45262 1.10346 0.35394
 C1132 C 0.43194 1.08860 0.34148
 C1133 C 0.42347 1.09511 0.31636
 H1134 H 0.43240 1.11081 0.30576
 O1135 O 0.51535 0.90756 0.37111
 O1136 O 0.51405 0.87619 0.34218
 C1137 C 0.52328 0.89740 0.35006
 C1138 C 0.54408 0.90993 0.33519
 C1139 C 0.55386 0.89856 0.31243
 H1140 H 0.54499 0.88132 0.30486
 O1141 O 0.61641 0.97647 0.40022
 O1142 O 0.64515 0.97666 0.36903
 C1143 C 0.63722 0.96815 0.39080
 C1144 C 0.65199 0.94830 0.40551
 C1145 C 0.67691 0.94118 0.39820
 H1146 H 0.68578 0.95027 0.38151
 O1147 O 0.36011 1.02494 0.41353
 O1148 O 0.32954 1.02481 0.38437
 C1149 C 0.33903 1.03372 0.40509
 C1150 C 0.32611 1.05493 0.41946
 C1151 C 0.30228 1.06490 0.41176
 H1152 H 0.29269 1.05655 0.39524
 O1153 O 0.39797 1.12715 0.47862
 O1154 O 0.36800 1.15718 0.48130
 C1155 C 0.38815 1.14843 0.47079
 C1156 C 0.40015 1.16290 0.44902
 C1157 C 0.39035 1.18707 0.44085
 H1158 H 0.37443 1.19556 0.45119
 O1159 O 0.58792 0.87488 0.47451
 O1160 O 0.61798 0.84495 0.47156
 C1161 C 0.59660 0.85410 0.46453
 C1162 C 0.58194 0.84074 0.44417
 C1163 C 0.59089 0.81725 0.43360
 H1164 H 0.60836 0.80858 0.44074
 O1165 O 0.57863 1.02620 0.36607
 O1166 O 0.60679 1.02664 0.33436
 C1167 C 0.58648 1.03544 0.34465
 C1168 C 0.57229 1.05728 0.33221
 C1169 C 0.58017 1.06746 0.30816
 H1170 H 0.59616 1.05867 0.29817
 O1171 O 0.39491 0.97471 0.37752
 O1172 O 0.36442 0.97394 0.34828
 C1173 C 0.38558 0.96555 0.35677
 C1174 C 0.39938 0.94454 0.34296
 C1175 C 0.38965 0.93361 0.32002
 H1176 H 0.37213 0.94102 0.31172
 O1177 O 0.51336 1.13193 0.40643
 O1178 O 0.51102 1.16196 0.37586
 C1179 C 0.52136 1.15289 0.39634
 C1180 C 0.54346 1.16622 0.40815
 C1181 C 0.55265 1.18968 0.39771
 H1182 H 0.54309 1.19809 0.38110
 O1183 O 0.46683 0.87409 0.41046
 O1184 O 0.46552 0.84292 0.38130
 C1185 C 0.45757 0.85289 0.40233
 C1186 C 0.43685 0.84011 0.41705
 C1187 C 0.42579 0.81716 0.40773
 H1188 H 0.43278 0.80847 0.38996
 O1189 O 0.61960 1.09450 0.46869
 O1190 O 0.64870 1.12490 0.46654
 C1191 C 0.63953 1.10367 0.45844
 C1192 C 0.65165 1.08976 0.43645
 C1193 C 0.67512 1.09782 0.42642
 H1194 H 0.68490 1.11389 0.43533
 O1195 O 0.36725 0.90872 0.48655
 O1196 O 0.33821 0.87821 0.48843
 C1197 C 0.34628 0.89941 0.47902
 C1198 C 0.33157 0.91275 0.45839
 C1199 C 0.30775 0.90339 0.45099
 H1200 H 0.29971 0.88696 0.46119
 Cu1201 Cu 0.49129 0.89484 0.39453
 Cu1202 Cu 0.48969 0.85733 0.35971
 Cu1203 Cu 0.48803 1.11083 0.39358
 Cu1204 Cu 0.48510 1.14662 0.35676
 Cu1205 Cu 0.38144 0.99983 0.39947
 Cu1206 Cu 0.34495 0.99933 0.36436
 Cu1207 Cu 0.59489 1.00106 0.38581
 Cu1208 Cu 0.62892 1.00142 0.34800
 C1209 C 0.42185 0.93417 0.35371
 H1210 H 0.42921 0.94201 0.37164
 C1211 C 0.40196 0.91230 0.30841
 C1212 C 0.55185 1.06929 0.34528
 H1213 H 0.54590 1.06188 0.36403
 C1214 C 0.56830 1.08959 0.29741
 C1215 C 0.34215 0.93358 0.44458
 H1216 H 0.36064 0.94068 0.45012
 C1217 C 0.29485 0.91414 0.42964
 C1218 C 0.63914 1.06892 0.42460
 H1219 H 0.62085 1.06283 0.43192
 C1220 C 0.68617 1.08519 0.40501
 C1221 C 0.42691 0.85167 0.43965
 H1222 H 0.43477 0.86970 0.44659
 C1223 C 0.40510 0.80587 0.42069
 C1224 C 0.55648 1.15450 0.42904
 H1225 H 0.54985 1.13622 0.43688
 C1226 C 0.57445 1.20159 0.40803
 C1227 C 0.42018 1.06803 0.35488
 H1228 H 0.42635 1.06303 0.37434
 C1229 C 0.40376 1.08121 0.30463
 C1230 C 0.55537 0.93250 0.34473
 H1231 H 0.54818 0.94109 0.36247
 C1232 C 0.57503 0.90919 0.29953
 C1233 C 0.55966 0.85214 0.43412
 H1234 H 0.55299 0.87059 0.44165
 C1235 C 0.57799 0.80538 0.41309
 C1236 C 0.42118 1.15228 0.43591
 H1237 H 0.42858 1.13349 0.44189
 C1238 C 0.40118 1.20055 0.41977
 C1239 C 0.33858 1.06625 0.44055
 H1240 H 0.35714 1.05910 0.44628
 C1241 C 0.29113 1.08611 0.42491
 C1242 C 0.64085 0.93615 0.42724
 H1243 H 0.62157 0.94106 0.43281
 C1244 C 0.69060 0.92263 0.41282
 O1245 O 0.52876 0.90607 0.62736
 O1246 O 0.53109 0.87602 0.65794
 C1247 C 0.53898 0.89714 0.64787
 C1248 C 0.56070 0.91082 0.65993
 C1249 C 0.57167 0.90053 0.68252
 H1250 H 0.56325 0.88370 0.69167
 O1251 O 0.47630 1.09376 0.63147
 O1252 O 0.47733 1.12449 0.66112
 C1253 C 0.46901 1.10293 0.65314
 C1254 C 0.45028 1.08855 0.66885
 C1255 C 0.44376 1.09666 0.69404
 H1256 H 0.45286 1.11351 0.70217
 O1257 O 0.37584 1.02416 0.60361
 O1258 O 0.34804 1.02437 0.63569
 C1259 C 0.35545 1.03276 0.61368
 C1260 C 0.34027 1.05274 0.59966
 C1261 C 0.31567 1.05920 0.60808
 H1262 H 0.30782 1.04949 0.62494
 O1263 O 0.63059 0.97728 0.58986
 O1264 O 0.66095 0.97741 0.61924
 C1265 C 0.65144 0.96828 0.59859
 C1266 C 0.66380 0.94613 0.58506
 C1267 C 0.68613 0.93435 0.59474
 H1268 H 0.69528 0.94225 0.61175
 O1269 O 0.59109 0.87349 0.52493
 O1270 O 0.62099 0.84341 0.52187
 C1271 C 0.60084 0.85207 0.53238
 C1272 C 0.58914 0.83750 0.55404
 C1273 C 0.60040 0.81449 0.56326
 H1274 H 0.61678 0.80657 0.55323
 O1275 O 0.40253 1.12588 0.52898
 O1276 O 0.37235 1.15573 0.53148
 C1277 C 0.39384 1.14682 0.53850
 C1278 C 0.40818 1.16076 0.55857
 C1279 C 0.39926 1.18487 0.56711
 H1280 H 0.38341 1.19391 0.55711
 O1281 O 0.41312 0.97388 0.63761
 O1282 O 0.38571 0.97408 0.67004
 C1283 C 0.40571 0.96507 0.65939
 C1284 C 0.42020 0.94367 0.67202
 C1285 C 0.41336 0.93446 0.69676
 H1286 H 0.39782 0.94364 0.70716
 O1287 O 0.59504 1.02707 0.62583
 O1288 O 0.62513 1.02767 0.65550
 C1289 C 0.60411 1.03619 0.64668
 C1290 C 0.59041 1.05752 0.66014
 C1291 C 0.59952 1.06754 0.68370
 H1292 H 0.61629 1.05911 0.69265
 O1293 O 0.47722 0.86902 0.59718
 O1294 O 0.47938 0.83868 0.62746
 C1295 C 0.46921 0.84793 0.60699
 C1296 C 0.44747 0.83469 0.59445
 C1297 C 0.43941 0.80971 0.60222
 H1298 H 0.44930 0.79936 0.61759
 O1299 O 0.52189 1.12945 0.59112
 O1300 O 0.52256 1.16035 0.62059
 C1301 C 0.53027 1.15098 0.59919
 C1302 C 0.54979 1.16494 0.58407
 C1303 C 0.55809 1.18928 0.59233
 H1304 H 0.54955 1.19803 0.60935
 O1305 O 0.37022 0.90775 0.53721
 O1306 O 0.34126 0.87716 0.53893
 C1307 C 0.35037 0.89822 0.54738
 C1308 C 0.33847 0.91152 0.56977
 C1309 C 0.31539 0.90303 0.58051
 H1310 H 0.30546 0.88694 0.57182
 O1311 O 0.62280 1.09575 0.51962
 O1312 O 0.65167 1.12636 0.51748
 C1313 C 0.64360 1.10535 0.52740
 C1314 C 0.65817 1.09258 0.54880
 C1315 C 0.68126 1.10306 0.55717
 H1316 H 0.68908 1.11917 0.54639
 O1317 O 0.52538 1.09405 0.62686
 O1318 O 0.52634 1.12487 0.65641
 C1319 C 0.53499 1.10370 0.64718
 C1320 C 0.55671 1.09052 0.66003
 C1321 C 0.56602 1.10009 0.68353
 H1322 H 0.55634 1.11623 0.69274
 O1323 O 0.47962 0.90475 0.63249
 O1324 O 0.48181 0.87462 0.66302
 C1325 C 0.47258 0.89582 0.65437
 C1326 C 0.45304 0.90992 0.66956
 C1327 C 0.44611 0.90118 0.69443
 H1328 H 0.45552 0.88429 0.70270
 O1329 O 0.62883 1.02817 0.58928
 O1330 O 0.65922 1.02883 0.61859
 C1331 C 0.64933 1.03774 0.59778
 C1332 C 0.66108 1.05992 0.58352
 C1333 C 0.68397 1.07116 0.59193
 H1334 H 0.69358 1.06322 0.60881
 O1335 O 0.37551 0.97382 0.60555
 O1336 O 0.34798 0.97408 0.63789
 C1337 C 0.35557 0.96516 0.61629
 C1338 C 0.34137 0.94418 0.60372
 C1339 C 0.31855 0.93535 0.61442
 H1340 H 0.31079 0.94463 0.63155
 O1341 O 0.58662 1.13033 0.52027
 O1342 O 0.61539 1.16110 0.51852
 C1343 C 0.59528 1.15171 0.52837
 C1344 C 0.58202 1.16529 0.54986
 C1345 C 0.59033 1.18956 0.55870
 H1346 H 0.60627 1.19891 0.54934
 O1347 O 0.40589 0.87273 0.53444
 O1348 O 0.37693 0.84210 0.53564
 C1349 C 0.39797 0.85116 0.54319
 C1350 C 0.41304 0.83655 0.56267
 C1351 C 0.40581 0.81150 0.57006
 H1352 H 0.38954 0.80265 0.56094
 O1353 O 0.59593 0.97627 0.62530
 O1354 O 0.62604 0.97647 0.65495
 C1355 C 0.60554 0.96710 0.64606
 C1356 C 0.59318 0.94473 0.65938
 C1357 C 0.60391 0.93376 0.68206
 H1358 H 0.62084 0.94205 0.69039
 O1359 O 0.41204 1.02446 0.63769
 O1360 O 0.38451 1.02478 0.67002
 C1361 C 0.40445 1.03340 0.65932
 C1362 C 0.41865 1.05445 0.67179
 C1363 C 0.41231 1.06274 0.69689
 H1364 H 0.39747 1.05292 0.70760
 O1365 O 0.47248 1.12835 0.59483
 O1366 O 0.47319 1.15917 0.62438
 C1367 C 0.46360 1.14938 0.60409
 C1368 C 0.44161 1.16212 0.59124
 C1369 C 0.43177 1.18604 0.60018
 H1370 H 0.44047 1.19559 0.61656
 O1371 O 0.52690 0.86854 0.59438
 O1372 O 0.52927 0.83831 0.62478
 C1373 C 0.53667 0.84764 0.60324
 C1374 C 0.55765 0.83499 0.58875
 C1375 C 0.56932 0.81199 0.59793
 H1376 H 0.56216 0.80255 0.61527
 O1377 O 0.62563 0.90915 0.52349
 O1378 O 0.65542 0.87892 0.52084
 C1379 C 0.64685 0.89973 0.53081
 C1380 C 0.66124 0.91256 0.55180
 C1381 C 0.68365 0.90128 0.56148
 H1382 H 0.69132 0.88414 0.55213
 O1383 O 0.36798 1.09060 0.53207
 O1384 O 0.33773 1.12037 0.53456
 C1385 C 0.34788 1.09937 0.54269
 C1386 C 0.33650 1.08522 0.56497
 C1387 C 0.31201 1.09160 0.57391
 H1388 H 0.30106 1.10657 0.56404
 Cu1389 Cu 0.50275 0.88993 0.60968
 Cu1390 Cu 0.50560 0.85393 0.64638
 Cu1391 Cu 0.49880 1.10835 0.60805
 Cu1392 Cu 0.50000 1.14537 0.64356
 Cu1393 Cu 0.38953 0.89412 0.51051
 Cu1394 Cu 0.35480 0.85728 0.51224
 Cu1395 Cu 0.60352 0.89525 0.49928
 Cu1396 Cu 0.63955 0.85918 0.49584
 Cu1397 Cu 0.38600 1.10561 0.50491
 Cu1398 Cu 0.34996 1.14164 0.50817
 Cu1399 Cu 0.60069 1.10976 0.49474
 Cu1400 Cu 0.63539 1.14637 0.49240
 Cu1401 Cu 0.39695 0.99910 0.61791
 Cu1402 Cu 0.36384 0.99948 0.65672
 Cu1403 Cu 0.60969 1.00221 0.60461
 Cu1404 Cu 0.64585 1.00269 0.64003
 C1405 C 0.57149 0.93306 0.64850
 H1406 H 0.56335 0.94092 0.63079
 C1407 C 0.59350 0.91136 0.69340
 C1408 C 0.43787 1.06722 0.65808
 H1409 H 0.44255 1.06111 0.63853
 C1410 C 0.42485 1.08371 0.70828
 C1411 C 0.35039 1.06561 0.57787
 H1412 H 0.36940 1.06078 0.57132
 C1413 C 0.30128 1.07839 0.59516
 C1414 C 0.65168 0.93512 0.56351
 H1415 H 0.63419 0.94366 0.55629
 C1416 C 0.69600 0.91161 0.58329
 C1417 C 0.56762 0.84740 0.56669
 H1418 H 0.55912 0.86539 0.55982
 C1419 C 0.59098 0.80183 0.58546
 C1420 C 0.42956 1.14961 0.57046
 H1421 H 0.43640 1.13085 0.56393
 C1422 C 0.41023 1.19730 0.58839
 C1423 C 0.44024 0.93140 0.65869
 H1424 H 0.44534 0.93805 0.63939
 C1425 C 0.42634 0.91335 0.70819
 C1426 C 0.56889 1.06909 0.64854
 H1427 H 0.56197 1.06184 0.63019
 C1428 C 0.58759 1.08906 0.69530
 C1429 C 0.43409 0.84780 0.57461
 H1430 H 0.43966 0.86719 0.56885
 C1431 C 0.41881 0.79787 0.58962
 C1432 C 0.56155 1.15327 0.56256
 H1433 H 0.55535 1.13431 0.55631
 C1434 C 0.57826 1.20177 0.57980
 C1435 C 0.35109 0.93229 0.58138
 H1436 H 0.36897 0.93882 0.57338
 C1437 C 0.30547 0.91479 0.60300
 C1438 C 0.64842 1.07089 0.56195
 H1439 H 0.63053 1.06288 0.55569
 C1440 C 0.69418 1.09303 0.57906
 O1441 O 0.48142 0.40432 0.87187
 O1442 O 0.48122 0.37360 0.84219
 C1443 C 0.47285 0.39515 0.85087
 C1444 C 0.45222 0.40911 0.83699
 C1445 C 0.44362 0.40000 0.81302
 H1446 H 0.45352 0.38394 0.80392
 O1447 O 0.53068 0.59247 0.87521
 O1448 O 0.53121 0.62217 0.84420
 C1449 C 0.53966 0.60112 0.85396
 C1450 C 0.56064 0.58713 0.84074
 C1451 C 0.57106 0.59737 0.81789
 H1452 H 0.56251 0.61453 0.80921
 O1453 O 0.37645 0.47331 0.90539
 O1454 O 0.34806 0.47371 0.87400
 C1455 C 0.35598 0.46493 0.89566
 C1456 C 0.34185 0.44444 0.90980
 C1457 C 0.31802 0.43565 0.90129
 H1458 H 0.30929 0.44425 0.88422
 O1459 O 0.62706 0.51964 0.91122
 O1460 O 0.65820 0.51914 0.88254
 C1461 C 0.64836 0.52792 0.90329
 C1462 C 0.66187 0.54823 0.91788
 C1463 C 0.68645 0.55514 0.91029
 H1464 H 0.69543 0.54522 0.89416
 O1465 O 0.41136 0.37339 0.97568
 O1466 O 0.38110 0.34412 0.97566
 C1467 C 0.40203 0.35268 0.96679
 C1468 C 0.41492 0.33867 0.94533
 C1469 C 0.40411 0.31598 0.93582
 H1470 H 0.38779 0.30798 0.94571
 O1471 O 0.59426 0.62635 0.97859
 O1472 O 0.62532 0.65475 0.97899
 C1473 C 0.60450 0.64674 0.96967
 C1474 C 0.59249 0.66071 0.94766
 C1475 C 0.60361 0.68308 0.93731
 H1476 H 0.62013 0.69107 0.94670
 O1477 O 0.41428 0.52273 0.87199
 O1478 O 0.38633 0.52349 0.84016
 C1479 C 0.40664 0.53182 0.85040
 C1480 C 0.42124 0.55267 0.83742
 C1481 C 0.41462 0.56103 0.81232
 H1482 H 0.39932 0.55161 0.80211
 O1483 O 0.59463 0.46941 0.87309
 O1484 O 0.62559 0.46977 0.84423
 C1485 C 0.60470 0.46073 0.85238
 C1486 C 0.59245 0.43933 0.83805
 C1487 C 0.60214 0.43102 0.81409
 H1488 H 0.61828 0.44090 0.80571
 O1489 O 0.52901 0.36744 0.90895
 O1490 O 0.52916 0.33643 0.87960
 C1491 C 0.53759 0.34595 0.90061
 C1492 C 0.55824 0.33257 0.91510
 C1493 C 0.56901 0.30927 0.90588
 H1494 H 0.56158 0.30034 0.88851
 O1495 O 0.48013 0.62959 0.90829
 O1496 O 0.48095 0.65920 0.87723
 C1497 C 0.47155 0.65047 0.89820
 C1498 C 0.44982 0.66417 0.91046
 C1499 C 0.44055 0.68766 0.90011
 H1500 H 0.45041 0.69663 0.88397
 O1501 O 0.37558 0.59400 0.97104
 O1502 O 0.34544 0.62396 0.97075
 C1503 C 0.35489 0.60305 0.96182
 C1504 C 0.34221 0.58932 0.94011
 C1505 C 0.31900 0.59835 0.92955
 H1506 H 0.30969 0.61526 0.93776
 O1507 O 0.62650 0.40250 0.98242
 O1508 O 0.65671 0.37259 0.98342
 C1509 C 0.64752 0.39357 0.97415
 C1510 C 0.66100 0.40712 0.95291
 C1511 C 0.68451 0.39760 0.94422
 H1512 H 0.69264 0.38064 0.95358
 O1513 O 0.48140 0.59214 0.87490
 O1514 O 0.48207 0.62163 0.84369
 C1515 C 0.47345 0.60062 0.85319
 C1516 C 0.45378 0.58620 0.83890
 C1517 C 0.44686 0.59418 0.81381
 H1518 H 0.45606 0.61081 0.80513
 O1519 O 0.53074 0.40057 0.87086
 O1520 O 0.53100 0.36988 0.84122
 C1521 C 0.53984 0.39093 0.85007
 C1522 C 0.56118 0.40451 0.83682
 C1523 C 0.57148 0.39609 0.81284
 H1524 H 0.56357 0.37939 0.80318
 O1525 O 0.62710 0.46924 0.91104
 O1526 O 0.65812 0.46892 0.88223
 C1527 C 0.64827 0.46034 0.90311
 C1528 C 0.66129 0.43947 0.91804
 C1529 C 0.68497 0.42981 0.90983
 H1530 H 0.69408 0.43837 0.89300
 O1531 O 0.37726 0.52390 0.90497
 O1532 O 0.34908 0.52442 0.87337
 C1533 C 0.35718 0.53321 0.89478
 C1534 C 0.34345 0.55489 0.90757
 C1535 C 0.32027 0.56398 0.89754
 H1536 H 0.31233 0.55467 0.88063
 O1537 O 0.41028 0.62956 0.97214
 O1538 O 0.38029 0.65967 0.97152
 C1539 C 0.40130 0.65072 0.96313
 C1540 C 0.41527 0.66439 0.94219
 C1541 C 0.40627 0.68800 0.93165
 H1542 H 0.38922 0.69694 0.93945
 O1543 O 0.59219 0.36726 0.98085
 O1544 O 0.62227 0.33719 0.98167
 C1545 C 0.60183 0.34639 0.97209
 C1546 C 0.58964 0.33307 0.95004
 C1547 C 0.60004 0.30987 0.94057
 H1548 H 0.61604 0.30101 0.95049
 O1549 O 0.59465 0.52050 0.87350
 O1550 O 0.62576 0.52078 0.84481
 C1551 C 0.60484 0.52993 0.85319
 C1552 C 0.59260 0.55244 0.84000
 C1553 C 0.60302 0.56326 0.81717
 H1554 H 0.61972 0.55454 0.80840
 O1555 O 0.41278 0.47216 0.87120
 O1556 O 0.38458 0.47280 0.83961
 C1557 C 0.40473 0.46354 0.84966
 C1558 C 0.41866 0.44220 0.83648
 C1559 C 0.41014 0.43256 0.81254
 H1560 H 0.39357 0.44112 0.80334
 O1561 O 0.52991 0.62901 0.90963
 O1562 O 0.53079 0.65864 0.87859
 C1563 C 0.53911 0.64965 0.89999
 C1564 C 0.56042 0.66244 0.91347
 C1565 C 0.57192 0.68485 0.90320
 H1566 H 0.56447 0.69380 0.88568
 O1567 O 0.47931 0.36832 0.90677
 O1568 O 0.47895 0.33728 0.87749
 C1569 C 0.46985 0.34753 0.89797
 C1570 C 0.44755 0.33588 0.91141
 C1571 C 0.43581 0.31335 0.90177
 H1572 H 0.44335 0.30384 0.88467
 O1573 O 0.62791 0.58954 0.97986
 O1574 O 0.65914 0.61772 0.98046
 C1575 C 0.64930 0.59720 0.97149
 C1576 C 0.66250 0.58230 0.95079
 C1577 C 0.68704 0.58921 0.94249
 H1578 H 0.69671 0.60522 0.95160
 O1579 O 0.37488 0.40757 0.97546
 O1580 O 0.34459 0.37833 0.97593
 C1581 C 0.35400 0.39901 0.96677
 C1582 C 0.34094 0.41268 0.94519
 C1583 C 0.31713 0.40438 0.93669
 H1584 H 0.30810 0.38831 0.94656
 Cu1585 Cu 0.50526 0.38813 0.89254
 Cu1586 Cu 0.50504 0.35114 0.85723
 Cu1587 Cu 0.50548 0.60799 0.89529
 Cu1588 Cu 0.50624 0.64343 0.85785
 Cu1589 Cu 0.39796 0.49784 0.89157
 Cu1590 Cu 0.36422 0.49868 0.85357
 Cu1591 Cu 0.60758 0.49465 0.89493
 Cu1592 Cu 0.64497 0.49461 0.86050
 C1593 C 0.43979 0.43040 0.84848
 H1594 H 0.44612 0.43731 0.86720
 C1595 C 0.42228 0.41120 0.80088
 C1596 C 0.57135 0.56453 0.85154
 H1597 H 0.56355 0.55676 0.86941
 C1598 C 0.59254 0.58603 0.80626
 C1599 C 0.35293 0.43293 0.93192
 H1600 H 0.37144 0.43918 0.93837
 C1601 C 0.30533 0.41583 0.91496
 C1602 C 0.65014 0.56162 0.93842
 H1603 H 0.63107 0.55645 0.94423
 C1604 C 0.69922 0.57544 0.92246
 C1605 C 0.43679 0.34843 0.93319
 H1606 H 0.44509 0.36615 0.94038
 C1607 C 0.41371 0.30362 0.91366
 C1608 C 0.57077 0.65073 0.93582
 H1609 H 0.56238 0.63320 0.94357
 C1610 C 0.59378 0.69507 0.91485
 C1611 C 0.44108 0.56519 0.85049
 H1612 H 0.44610 0.55915 0.87001
 C1613 C 0.42744 0.58165 0.80032
 C1614 C 0.57184 0.42622 0.84899
 H1615 H 0.56447 0.43262 0.86757
 C1616 C 0.59176 0.40964 0.80111
 C1617 C 0.56862 0.34421 0.93732
 H1618 H 0.56079 0.36240 0.94431
 C1619 C 0.59018 0.29808 0.91831
 C1620 C 0.43719 0.65285 0.93160
 H1621 H 0.44405 0.63449 0.93934
 C1622 C 0.41866 0.69965 0.91039
 C1623 C 0.35406 0.56744 0.92904
 H1624 H 0.37206 0.56057 0.93667
 C1625 C 0.30771 0.58552 0.90843
 C1626 C 0.64960 0.42822 0.93987
 H1627 H 0.63118 0.43530 0.94616
 C1628 C 0.69677 0.40885 0.92276
 O1629 O 0.52341 0.40218 1.13181
 O1630 O 0.52192 0.37163 1.16198
 C1631 C 0.53089 0.39277 1.15336
 C1632 C 0.55055 0.40621 1.16839
 C1633 C 0.55871 0.39604 1.19223
 H1634 H 0.54900 0.37944 1.20026
 O1635 O 0.47706 0.59546 1.13084
 O1636 O 0.47649 0.62601 1.16072
 C1637 C 0.46864 0.60448 1.15207
 C1638 C 0.44910 0.58999 1.16640
 C1639 C 0.44176 0.59749 1.19142
 H1640 H 0.45091 0.61387 1.20046
 O1641 O 0.37916 0.52712 1.09464
 O1642 O 0.34890 0.52777 1.12428
 C1643 C 0.35813 0.53593 1.10295
 C1644 C 0.34422 0.55599 1.08787
 C1645 C 0.32010 0.56408 1.09607
 H1646 H 0.31165 0.55535 1.11317
 O1647 O 0.62050 0.47014 1.10192
 O1648 O 0.64980 0.47008 1.13247
 C1649 C 0.64104 0.46115 1.11140
 C1650 C 0.65486 0.43984 1.09823
 C1651 C 0.67837 0.43135 1.10788
 H1652 H 0.68671 0.44122 1.12425
 O1653 O 0.59146 0.36509 1.03116
 O1654 O 0.62137 0.33487 1.03215
 C1655 C 0.60019 0.34373 1.04001
 C1656 C 0.58559 0.32974 1.06013
 C1657 C 0.59238 0.30456 1.06847
 H1658 H 0.60829 0.29462 1.05944
 O1659 O 0.41004 0.62836 1.02288
 O1660 O 0.37992 0.65835 1.02235
 C1661 C 0.40046 0.64922 1.03180
 C1662 C 0.41247 0.66263 1.05409
 C1663 C 0.40128 0.68543 1.06365
 H1664 H 0.38553 0.69403 1.05315
 O1665 O 0.41174 0.47636 1.13245
 O1666 O 0.38162 0.47689 1.16226
 C1667 C 0.40222 0.46754 1.15337
 C1668 C 0.41502 0.44560 1.16673
 C1669 C 0.40708 0.43678 1.19139
 H1670 H 0.39167 0.44656 1.20141
 O1671 O 0.58660 0.52305 1.13581
 O1672 O 0.61600 0.52238 1.16622
 C1673 C 0.59605 0.53234 1.15641
 C1674 C 0.58475 0.55583 1.16844
 C1675 C 0.59596 0.56632 1.19061
 H1676 H 0.61146 0.55595 1.19991
 O1677 O 0.47431 0.36844 1.09490
 O1678 O 0.47286 0.33821 1.12538
 C1679 C 0.46492 0.34769 1.10407
 C1680 C 0.44393 0.33491 1.09042
 C1681 C 0.43327 0.31231 1.10080
 H1682 H 0.44180 0.30329 1.11774
 O1683 O 0.52484 0.63103 1.09398
 O1684 O 0.52385 0.66224 1.12312
 C1685 C 0.53290 0.65249 1.10242
 C1686 C 0.55374 0.66565 1.08861
 C1687 C 0.56146 0.69034 1.09629
 H1688 H 0.55132 0.70022 1.11173
 O1689 O 0.37637 0.40882 1.02635
 O1690 O 0.34622 0.37942 1.02671
 C1691 C 0.35575 0.40016 1.03559
 C1692 C 0.34327 0.41398 1.05739
 C1693 C 0.32024 0.40509 1.06796
 H1694 H 0.31117 0.38823 1.05975
 O1695 O 0.62543 0.58899 1.03050
 O1696 O 0.65657 0.61727 1.03116
 C1697 C 0.64631 0.59670 1.03977
 C1698 C 0.65861 0.58177 1.06099
 C1699 C 0.68324 0.58795 1.06903
 H1700 H 0.69348 0.60328 1.05919
 O1701 O 0.52606 0.59750 1.13167
 O1702 O 0.52582 0.62849 1.16104
 C1703 C 0.53472 0.60710 1.15256
 C1704 C 0.55551 0.59304 1.16658
 C1705 C 0.56721 0.60335 1.18895
 H1706 H 0.56086 0.62183 1.19667
 O1707 O 0.47463 0.40434 1.12981
 O1708 O 0.47335 0.37402 1.16024
 C1709 C 0.46575 0.39562 1.15100
 C1710 C 0.44621 0.41048 1.16506
 C1711 C 0.43854 0.40225 1.18968
 H1712 H 0.44821 0.38593 1.19874
 O1713 O 0.62148 0.52045 1.10058
 O1714 O 0.65093 0.52012 1.13100
 C1715 C 0.64238 0.52861 1.10947
 C1716 C 0.65670 0.54847 1.09488
 C1717 C 0.68133 0.55495 1.10262
 H1718 H 0.68969 0.54521 1.11924
 O1719 O 0.37893 0.47692 1.09533
 O1720 O 0.34871 0.47762 1.12505
 C1721 C 0.35799 0.46862 1.10411
 C1722 C 0.34450 0.44775 1.09045
 C1723 C 0.32121 0.43916 1.10011
 H1724 H 0.31248 0.44949 1.11608
 O1725 O 0.59382 0.62801 1.02899
 O1726 O 0.62468 0.65661 1.02968
 C1727 C 0.60324 0.64886 1.03775
 C1728 C 0.58895 0.66375 1.05770
 C1729 C 0.59685 0.68840 1.06610
 H1730 H 0.61365 0.69713 1.05777
 O1731 O 0.40844 0.37039 1.02626
 O1732 O 0.37823 0.34103 1.02609
 C1733 C 0.39890 0.34949 1.03509
 C1734 C 0.41149 0.33559 1.05676
 C1735 C 0.40085 0.31298 1.06757
 H1736 H 0.38378 0.30490 1.05931
 O1737 O 0.58630 0.47176 1.13798
 O1738 O 0.61558 0.47118 1.16851
 C1739 C 0.59516 0.46246 1.15904
 C1740 C 0.58205 0.44036 1.17162
 C1741 C 0.59066 0.42942 1.19520
 H1742 H 0.60666 0.43793 1.20509
 O1743 O 0.41233 0.52698 1.13201
 O1744 O 0.38221 0.52752 1.16181
 C1745 C 0.40310 0.53589 1.15301
 C1746 C 0.41670 0.55655 1.16686
 C1747 C 0.40928 0.56447 1.19186
 H1748 H 0.39367 0.55490 1.20159
 O1749 O 0.47510 0.63072 1.09495
 O1750 O 0.47376 0.66157 1.12444
 C1751 C 0.46528 0.65159 1.10365
 C1752 C 0.44344 0.66386 1.08959
 C1753 C 0.43128 0.68644 1.09923
 H1754 H 0.43807 0.69531 1.11689
 O1755 O 0.52368 0.36672 1.09619
 O1756 O 0.52198 0.33625 1.12642
 C1757 C 0.53132 0.34519 1.10554
 C1758 C 0.55163 0.33068 1.09220
 C1759 C 0.55854 0.30566 1.10043
 H1760 H 0.54865 0.29709 1.11673
 O1761 O 0.62479 0.40177 1.03318
 O1762 O 0.65492 0.37178 1.03424
 C1763 C 0.64521 0.39271 1.04286
 C1764 C 0.65727 0.40645 1.06477
 C1765 C 0.68093 0.39824 1.07472
 H1766 H 0.69093 0.38204 1.06592
 O1767 O 0.37582 0.59292 1.02202
 O1768 O 0.34554 0.62276 1.02184
 C1769 C 0.35506 0.60185 1.03096
 C1770 C 0.34247 0.58820 1.05280
 C1771 C 0.31853 0.59645 1.06180
 H1772 H 0.30872 0.61245 1.05229
 Cu1773 Cu 0.49925 0.38842 1.10995
 Cu1774 Cu 0.49736 0.35187 1.14653
 Cu1775 Cu 0.50088 0.61070 1.10987
 Cu1776 Cu 0.49985 0.64783 1.14516
 Cu1777 Cu 0.39572 0.39302 1.00101
 Cu1778 Cu 0.35953 0.35783 1.00097
 Cu1779 Cu 0.60575 0.38721 1.00700
 Cu1780 Cu 0.64192 0.35114 1.00795
 Cu1781 Cu 0.39586 0.60816 0.99685
 Cu1782 Cu 0.35979 0.64419 0.99659
 Cu1783 Cu 0.60727 0.60541 1.00452
 Cu1784 Cu 0.64457 0.63942 1.00520
 Cu1785 Cu 0.39877 0.50188 1.11078
 Cu1786 Cu 0.36227 0.50264 1.14633
 Cu1787 Cu 0.60054 0.49633 1.11620
 Cu1788 Cu 0.63588 0.49596 1.15276
 C1789 C 0.56198 0.42855 1.15846
 H1790 H 0.55569 0.43629 1.13993
 C1791 C 0.57922 0.40694 1.20556
 C1792 C 0.43681 0.56924 1.15447
 H1793 H 0.44230 0.56357 1.13501
 C1794 C 0.42200 0.58471 1.20439
 C1795 C 0.35513 0.56781 1.06592
 H1796 H 0.37386 0.56170 1.05957
 C1797 C 0.30720 0.58421 1.08322
 C1798 C 0.64449 0.42740 1.07661
 H1799 H 0.62616 0.43371 1.06932
 C1800 C 0.69143 0.41047 1.09649
 C1801 C 0.56496 0.34237 1.07187
 H1802 H 0.55978 0.36188 1.06579
 C1803 C 0.57864 0.29218 1.08847
 C1804 C 0.43368 0.65207 1.06704
 H1805 H 0.44228 0.63433 1.05984
 C1806 C 0.40982 0.69708 1.08660
 C1807 C 0.43464 0.43230 1.15381
 H1808 H 0.44051 0.43850 1.13459
 C1809 C 0.41870 0.41480 1.20280
 C1810 C 0.56449 0.56919 1.15666
 H1811 H 0.55608 0.56125 1.13928
 C1812 C 0.58785 0.59020 1.20076
 C1813 C 0.43314 0.34625 1.06823
 H1814 H 0.44108 0.36399 1.06042
 C1815 C 0.41142 0.30152 1.08992
 C1816 C 0.56726 0.65273 1.06901
 H1817 H 0.56136 0.63354 1.06317
 C1818 C 0.58285 0.70195 1.08513
 C1819 C 0.35529 0.43531 1.06888
 H1820 H 0.37340 0.44184 1.06146
 C1821 C 0.30929 0.41737 1.08966
 C1822 C 0.64557 0.56176 1.07383
 H1823 H 0.62644 0.55706 1.06794
 C1824 C 0.69482 0.57449 1.08966
 C1825 C 1.09205 1.12079 1.27163
 C1826 C 1.09665 1.09523 1.26378
 N1827 N 1.10950 1.07875 1.27971
 C1828 C 1.11858 1.08685 1.30296
 C1829 C 1.11474 1.11291 1.31080
 N1830 N 1.10101 1.12892 1.29482
 N1831 N 1.07963 1.13744 1.25548
 C1832 C 1.07163 1.12967 1.23171
 C1833 C 1.07621 1.10391 1.22362
 N1834 N 1.08865 1.08739 1.24010
 H1835 H 1.12812 1.07272 1.31515
 H1836 H 1.06254 1.14380 1.21915
 C1837 C 1.12986 0.61416 0.76268
 C1838 C 1.12307 0.63176 0.74285
 N1839 N 1.12986 0.65699 0.74480
 C1840 C 1.14274 0.66555 0.76587
 C1841 C 1.14907 0.64819 0.78614
 N1842 N 1.14259 0.62274 0.78392
 N1843 N 1.12317 0.58889 0.76058
 C1844 C 1.11020 0.58038 0.73949
 C1845 C 1.10339 0.59794 0.71958
 N1846 N 1.11001 0.62331 0.72183
 H1847 H 1.14753 0.68590 0.76710
 H1848 H 1.10541 0.56004 0.73814
 C1849 C 0.61437 1.12171 0.76521
 C1850 C 0.61649 1.09490 0.76094
 N1851 N 0.62655 1.07939 0.77979
 C1852 C 0.63454 1.08952 0.80272
 C1853 C 0.63217 1.11640 0.80710
 N1854 N 0.62212 1.13172 0.78806
 N1855 N 0.60458 1.13737 0.74648
 C1856 C 0.59638 1.12743 0.72369
 C1857 C 0.59774 1.10045 0.71945
 N1858 N 0.60812 1.08484 0.73819
 H1859 H 0.64224 1.07667 0.81749
 H1860 H 0.58899 1.14056 0.70902
 C1861 C 0.62734 0.61643 1.26742
 C1862 C 0.60093 0.61967 1.26541
 N1863 N 0.58788 0.63009 1.28554
 C1864 C 0.59998 0.63796 1.30738
 C1865 C 0.62674 0.63539 1.30949
 N1866 N 0.63954 0.62413 1.28932
 N1867 N 0.64042 0.60605 1.24724
 C1868 C 0.62827 0.59839 1.22533
 C1869 C 0.60164 0.60098 1.22342
 N1870 N 0.58866 0.61184 1.24359
 H1871 H 0.58843 0.64534 1.32309
 H1872 H 0.63932 0.59022 1.20958
 C1873 C 0.86432 0.89250 1.26462
 C1874 C 0.89068 0.88987 1.26200
 N1875 N 0.90409 0.87683 1.28050
 C1876 C 0.89228 0.86627 1.30153
 C1877 C 0.86575 0.86887 1.30422
 N1878 N 0.85258 0.88203 1.28553
 N1879 N 0.85083 0.90549 1.24624
 C1880 C 0.86253 0.91618 1.22531
 C1881 C 0.88907 0.91385 1.22261
 N1882 N 0.90244 0.90051 1.24108
 H1883 H 0.90362 0.85652 1.31616
 H1884 H 0.85107 0.92586 1.21073
 C1885 C 0.89309 0.37563 0.76430
 C1886 C 0.87820 0.38709 0.74471
 N1887 N 0.85258 0.38561 0.74596
 C1888 C 0.84106 0.37353 0.76622
 C1889 C 0.85584 0.36260 0.78632
 N1890 N 0.88161 0.36370 0.78467
 N1891 N 0.91876 0.37709 0.76288
 C1892 C 0.93022 0.38946 0.74267
 C1893 C 0.91530 0.40106 0.72306
 N1894 N 0.88959 0.39954 0.72469
 H1895 H 0.82056 0.37261 0.76666
 H1896 H 0.95071 0.39046 0.74209
 C1897 C 0.40124 0.88356 0.78065
 C1898 C 0.38410 0.89425 0.76262
 N1899 N 0.35898 0.89486 0.76817
 C1900 C 0.35016 0.88560 0.79116
 C1901 C 0.36726 0.87541 0.80969
 N1902 N 0.39248 0.87438 0.80378
 N1903 N 0.42638 0.88285 0.77485
 C1904 C 0.43512 0.89229 0.75179
 C1905 C 0.41794 0.90308 0.73368
 N1906 N 0.39280 0.90377 0.73973
 H1907 H 0.32994 0.88607 0.79480
 H1908 H 0.45529 0.89170 0.74786
 C1909 C 0.39838 0.38507 1.27653
 C1910 C 0.39675 0.41180 1.27140
 N1911 N 0.38897 0.42812 1.29044
 C1912 C 0.38209 0.41886 1.31419
 C1913 C 0.38312 0.39183 1.31931
 N1914 N 0.39182 0.37585 1.30023
 N1915 N 0.40538 0.36854 1.25742
 C1916 C 0.41122 0.37756 1.23340
 C1917 C 0.41042 0.40449 1.22824
 N1918 N 0.40294 0.42097 1.24745
 H1919 H 0.37631 0.43263 1.32888
 H1920 H 0.41633 0.36375 1.21848
 C1921 C 0.87692 1.10477 0.72591
 C1922 C 0.90283 1.10966 0.72921
 N1923 N 0.91547 1.12306 0.71060
 C1924 C 0.90332 1.13215 0.68905
 C1925 C 0.87707 1.12748 0.68562
 N1926 N 0.86483 1.11347 0.70428
 N1927 N 0.86400 1.09207 0.74475
 C1928 C 0.87588 1.08362 0.76661
 C1929 C 0.90219 1.08759 0.76976
 N1930 N 0.91494 1.10088 0.75092
 H1931 H 0.91447 1.14211 0.67454
 H1932 H 0.86464 1.07423 0.78145
 C1933 C 0.89306 0.61404 0.22443
 C1934 C 0.87624 0.60081 0.24084
 N1935 N 0.85142 0.59948 0.23430
 C1936 C 0.84260 0.61055 0.21201
 C1937 C 0.85937 0.62407 0.19525
 N1938 N 0.88426 0.62551 0.20234
 N1939 N 0.91798 0.61506 0.23074
 C1940 C 0.92676 0.60395 0.25302
 C1941 C 0.90977 0.59156 0.27023
 N1942 N 0.88487 0.59006 0.26337
 H1943 H 0.82248 0.60958 0.20835
 H1944 H 0.94683 0.60492 0.25721
 C1945 C 0.37521 1.10232 0.23054
 C1946 C 0.38527 1.12106 0.24720
 N1947 N 0.38482 1.14642 0.23998
 C1948 C 0.37473 1.15392 0.21682
 C1949 C 0.36448 1.13521 0.20005
 N1950 N 0.36499 1.10979 0.20749
 N1951 N 0.37558 1.07698 0.23779
 C1952 C 0.38519 1.06953 0.26117
 C1953 C 0.39472 1.08833 0.27829
 N1954 N 0.39473 1.11369 0.27063
 H1955 H 0.37417 1.17437 0.21195
 H1956 H 0.38540 1.04913 0.26624
 C1957 C 0.40174 0.61224 0.72854
 C1958 C 0.38508 0.59966 0.74564
 N1959 N 0.36008 0.59825 0.73975
 C1960 C 0.35092 0.60891 0.71745
 C1961 C 0.36752 0.62172 0.70028
 N1962 N 0.39260 0.62308 0.70636
 N1963 N 0.42674 0.61364 0.73451
 C1964 C 0.43579 0.60338 0.75708
 C1965 C 0.41899 0.59137 0.77466
 N1966 N 0.39403 0.58964 0.76823
 H1967 H 0.33079 0.60794 0.71354
 H1968 H 0.45586 0.60462 0.76114
 C1969 C 1.11923 0.88982 0.73068
 C1970 C 1.10938 0.87100 0.74763
 N1971 N 1.11034 0.84562 0.74076
 C1972 C 1.12065 0.83818 0.71768
 C1973 C 1.13059 0.85699 0.70054
 N1974 N 1.12963 0.88242 0.70768
 N1975 N 1.11838 0.91519 0.73753
 C1976 C 1.10845 0.92261 0.76075
 C1977 C 1.09903 0.90379 0.77817
 N1978 N 1.09953 0.87836 0.77093
 H1979 H 1.12152 0.81772 0.71311
 H1980 H 1.10791 0.94304 0.76550
 C1981 C 1.11002 0.37529 0.22492
 C1982 C 1.12586 0.39104 0.23977
 N1983 N 1.14993 0.39527 0.23170
 C1984 C 1.15891 0.38475 0.20930
 C1985 C 1.14309 0.36887 0.19392
 N1986 N 1.11898 0.36446 0.20262
 N1987 N 1.08580 0.37133 0.23286
 C1988 C 1.07681 0.38210 0.25518
 C1989 C 1.09288 0.39741 0.27067
 N1990 N 1.11705 0.40160 0.26223
 H1991 H 1.17854 0.38812 0.20448
 H1992 H 1.05724 0.37886 0.26046
 C1993 C 0.60848 0.87263 0.23357
 C1994 C 0.60950 0.89961 0.23666
 N1995 N 0.62144 0.91421 0.21842
 C1996 C 0.63261 0.90306 0.19733
 C1997 C 0.63202 0.87585 0.19422
 N1998 N 0.61969 0.86142 0.21254
 N1999 N 0.59655 0.85802 0.25179
 C2000 C 0.58550 0.86914 0.27296
 C2001 C 0.58635 0.89631 0.27624
 N2002 N 0.59855 0.91079 0.25785
 H2003 H 0.64149 0.91546 0.18303
 H2004 H 0.57670 0.85673 0.28732
 C2005 C 0.62725 0.38762 0.73007
 C2006 C 0.61947 0.36871 0.74811
 N2007 N 0.62427 0.34330 0.74311
 C2008 C 0.63617 0.33589 0.72083
 C2009 C 0.64372 0.35471 0.70243
 N2010 N 0.63915 0.38025 0.70772
 N2011 N 0.62241 0.41303 0.73503
 C2012 C 0.61045 0.42045 0.75728
 C2013 C 0.60288 0.40164 0.77568
 N2014 N 0.60750 0.37608 0.77043
 H2015 H 0.63963 0.31544 0.71744
 H2016 H 0.60691 0.44089 0.76059
 C2017 C 1.25459 1.12885 1.11544
 C2018 C 1.25061 1.10211 1.11837
 N2019 N 1.26895 1.08706 1.12947
 C2020 C 1.29111 1.09758 1.13776
 C2021 C 1.29522 1.12440 1.13462
 N2022 N 1.27670 1.13928 1.12349
 N2023 N 1.23634 1.14404 1.10458
 C2024 C 1.21433 1.13365 1.09605
 C2025 C 1.21041 1.10669 1.09819
 N2026 N 1.22866 1.09160 1.10966
 H2027 H 1.30549 1.08505 1.14624
 H2028 H 1.20003 1.14642 1.08778
 C2029 C 1.26901 0.62840 0.60361
 C2030 C 1.26474 0.60164 0.60591
 N2031 N 1.28251 0.58626 0.61726
 C2032 C 1.30398 0.59645 0.62731
 C2033 C 1.30801 0.62362 0.62639
 N2034 N 1.29049 0.63876 0.61375
 N2035 N 1.25103 0.64374 0.59234
 C2036 C 1.22901 0.63354 0.58333
 C2037 C 1.22458 0.60664 0.58576
 N2038 N 1.24276 0.59143 0.59705
 H2039 H 1.31782 0.58316 0.63552
 H2040 H 1.21491 0.64647 0.57499
 C2041 C 0.76278 1.12789 0.60522
 C2042 C 0.75704 1.10219 0.61175
 N2043 N 0.77371 1.08821 0.62632
 C2044 C 0.79578 1.09874 0.63483
 C2045 C 0.80193 1.12475 0.62832
 N2046 N 0.78497 1.13839 0.61337
 N2047 N 0.74594 1.14208 0.59107
 C2048 C 0.72376 1.13166 0.58281
 C2049 C 0.71807 1.10546 0.58855
 N2050 N 0.73501 1.09153 0.60323
 H2051 H 0.80856 1.08627 0.64561
 H2052 H 0.71069 1.14404 0.57225
 C2053 C 0.76681 0.59759 1.11690
 C2054 C 0.75035 0.61541 1.10476
 N2055 N 0.75712 0.64066 1.10256
 C2056 C 0.77965 0.64897 1.11205
 C2057 C 0.79615 0.63120 1.12448
 N2058 N 0.78919 0.60588 1.12654
 N2059 N 0.76000 0.57236 1.11916
 C2060 C 0.73724 0.56416 1.11016
 C2061 C 0.72035 0.58210 1.09853
 N2062 N 0.72758 0.60730 1.09593
 H2063 H 0.78422 0.66935 1.11053
 H2064 H 0.73254 0.54384 1.11199
 C2065 C 1.26752 0.87783 0.90653
 C2066 C 1.26041 0.90336 0.90029
 N2067 N 1.27599 0.91807 0.88546
 C2068 C 1.29813 0.90822 0.87599
 C2069 C 1.30522 0.88218 0.88155
 N2070 N 1.28966 0.86798 0.89723
 N2071 N 1.25167 0.86290 0.92084
 C2072 C 1.22896 0.87235 0.92925
 C2073 C 1.22169 0.89814 0.92319
 N2074 N 1.23781 0.91291 0.90875
 H2075 H 1.31009 0.92104 0.86484
 H2076 H 1.21660 0.85944 0.93983
 C2077 C 1.27220 0.38371 0.39236
 C2078 C 1.26807 0.41070 0.39210
 N2079 N 1.28795 0.42675 0.38833
 C2080 C 1.31162 0.41710 0.38393
 C2081 C 1.31585 0.38992 0.38315
 N2082 N 1.29589 0.37398 0.38810
 N2083 N 1.25228 0.36762 0.39595
 C2084 C 1.22849 0.37731 0.39963
 C2085 C 1.22434 0.40438 0.39990
 N2086 N 1.24433 0.42045 0.39600
 H2087 H 1.32696 0.43068 0.38128
 H2088 H 1.21298 0.36401 0.40278
 C2089 C 0.76261 0.89165 0.39337
 C2090 C 0.74497 0.89798 0.37385
 N2091 N 0.75040 0.89216 0.34878
 C2092 C 0.77266 0.88028 0.34234
 C2093 C 0.79024 0.87361 0.36189
 N2094 N 0.78471 0.87950 0.38701
 N2095 N 0.75727 0.89754 0.41842
 C2096 C 0.73482 0.90891 0.42496
 C2097 C 0.71660 0.91434 0.40562
 N2098 N 0.72234 0.90903 0.38039
 H2099 H 0.77646 0.87576 0.32218
 H2100 H 0.73098 0.91315 0.44516
 C2101 C 0.76301 0.37428 0.89068
 C2102 C 0.74703 0.39016 0.87566
 N2103 N 0.75225 0.39397 0.85019
 C2104 C 0.77290 0.38276 0.83896
 C2105 C 0.78920 0.36656 0.85388
 N2106 N 0.78344 0.36271 0.87946
 N2107 N 0.75795 0.37082 0.91629
 C2108 C 0.73730 0.38220 0.92748
 C2109 C 0.72062 0.39749 0.91223
 N2110 N 0.72624 0.40118 0.88666
 H2111 H 0.77561 0.38577 0.81837
 H2112 H 0.73421 0.37934 0.94804
 C2113 C 0.74016 0.89061 1.12637
 C2114 C 0.74247 0.88913 1.09921
 N2115 N 0.72296 0.87975 1.08505
 C2116 C 0.70137 0.87147 1.09683
 C2117 C 0.69912 0.87255 1.12408
 N2118 N 0.71862 0.88232 1.13816
 N2119 N 0.75970 0.89984 1.14057
 C2120 C 0.78136 0.90792 1.12886
 C2121 C 0.78369 0.90682 1.10160
 N2122 N 0.76413 0.89722 1.08745
 H2123 H 0.68615 0.86397 1.08504
 H2124 H 0.79667 0.91506 1.14075
 C2125 C 0.74515 0.38572 0.63195
 C2126 C 0.74880 0.38388 0.60500
 N2127 N 0.73036 0.37358 0.59013
 C2128 C 0.70876 0.36426 0.60095
 C2129 C 0.70519 0.36496 0.62825
 N2130 N 0.72347 0.37643 0.64293
 N2131 N 0.76380 0.39584 0.64681
 C2132 C 0.78580 0.40434 0.63595
 C2133 C 0.78948 0.40278 0.60880
 N2134 N 0.77073 0.39240 0.59407
 H2135 H 0.69439 0.35688 0.58806
 H2136 H 0.80038 0.41189 0.64850
 C2137 C 0.23681 0.88818 0.63607
 C2138 C 0.23946 0.89100 0.60905
 N2139 N 0.21989 0.88483 0.59328
 C2140 C 0.19796 0.87534 0.60325
 C2141 C 0.19556 0.87142 0.63024
 N2142 N 0.21501 0.87835 0.64606
 N2143 N 0.25644 0.89437 0.65180
 C2144 C 0.27865 0.90316 0.64173
 C2145 C 0.28151 0.90562 0.61462
 N2146 N 0.26172 0.89945 0.59896
 H2147 H 0.18275 0.87034 0.59015
 H2148 H 0.29408 0.90766 0.65474
 C2149 C 0.24164 0.38944 1.12404
 C2150 C 0.24698 0.38480 1.09781
 N2151 N 0.23025 0.37130 1.08333
 C2152 C 0.20853 0.36191 1.09398
 C2153 C 0.20301 0.36643 1.12053
 N2154 N 0.21988 0.38044 1.13460
 N2155 N 0.25858 0.40227 1.13881
 C2156 C 0.28057 0.41107 1.12843
 C2157 C 0.28578 0.40727 1.10180
 N2158 N 0.26880 0.39390 1.08723
 H2159 H 0.19555 0.35187 1.08141
 H2160 H 0.29388 0.42052 1.14112
 C2161 C 0.72911 1.09603 0.88047
 C2162 C 0.74360 1.11344 0.89483
 N2163 N 0.73414 1.13741 0.89998
 C2164 C 0.71083 1.14488 0.89134
 C2165 C 0.69619 1.12764 0.87625
 N2166 N 0.70607 1.10357 0.87136
 N2167 N 0.73834 1.07187 0.87572
 C2168 C 0.76171 1.06447 0.88425
 C2169 C 0.77695 1.08230 0.89778
 N2170 N 0.76713 1.10631 0.90295
 H2171 H 0.70477 1.16454 0.89526
 H2172 H 0.76796 1.04482 0.88055
 C2173 C 0.73264 0.60410 0.37854
 C2174 C 0.75077 0.62248 0.38592
 N2175 N 0.74573 0.64811 0.38235
 C2176 C 0.72320 0.65626 0.37225
 C2177 C 0.70456 0.63802 0.36559
 N2178 N 0.70993 0.61223 0.36867
 N2179 N 0.73778 0.57846 0.38209
 C2180 C 0.76020 0.57036 0.39259
 C2181 C 0.77840 0.58871 0.40016
 N2182 N 0.77309 0.61443 0.39662
 H2183 H 0.71965 0.67688 0.36992
 H2184 H 0.76369 0.54977 0.39523
 C2185 C 0.22025 1.11736 0.39992
 C2186 C 0.22643 1.09114 0.39607
 N2187 N 0.20963 1.07556 0.38403
 C2188 C 0.18716 1.08508 0.37505
 C2189 C 0.18097 1.11175 0.37807
 N2190 N 0.19776 1.12697 0.39104
 N2191 N 0.23722 1.13303 0.41166
 C2192 C 0.26006 1.12364 0.41985
 C2193 C 0.26634 1.09718 0.41627
 N2194 N 0.24919 1.08166 0.40430
 H2195 H 0.17420 1.07158 0.36629
 H2196 H 0.27329 1.13695 0.42851
 C2197 C 0.24006 0.61315 0.87222
 C2198 C 0.25733 0.63047 0.88331
 N2199 N 0.25278 0.65637 0.88160
 C2200 C 0.23167 0.66578 0.86952
 C2201 C 0.21410 0.64854 0.85851
 N2202 N 0.21893 0.62251 0.86004
 N2203 N 0.24463 0.58724 0.87399
 C2204 C 0.26580 0.57785 0.88602
 C2205 C 0.28350 0.59513 0.89678
 N2206 N 0.27857 0.62113 0.89527
 H2207 H 0.22878 0.68658 0.86832
 H2208 H 0.26870 0.55705 0.88723
 C2209 C 1.10255 1.27560 1.11113
 C2210 C 1.11924 1.25550 1.10371
 N2211 N 1.14438 1.25764 1.10852
 C2212 C 1.15372 1.27915 1.12004
 C2213 C 1.13724 1.29967 1.12695
 N2214 N 1.11188 1.29728 1.12253
 N2215 N 1.07736 1.27325 1.10636
 C2216 C 1.06809 1.25168 1.09469
 C2217 C 1.08479 1.23150 1.08728
 N2218 N 1.11003 1.23406 1.09196
 H2219 H 1.17393 1.28040 1.12348
 H2220 H 1.04791 1.25031 1.09119
 C2221 C 1.10331 0.77108 0.60892
 C2222 C 1.12108 0.75355 0.59838
 N2223 N 1.14622 0.75828 0.60079
 C2224 C 1.15444 0.77976 0.61331
 C2225 C 1.13670 0.79722 0.62416
 N2226 N 1.11149 0.79238 0.62167
 N2227 N 1.07817 0.76633 0.60653
 C2228 C 1.06997 0.74451 0.59460
 C2229 C 1.08773 0.72637 0.58490
 N2230 N 1.11292 0.73161 0.58675
 H2231 H 1.17462 0.78289 0.61520
 H2232 H 1.04979 0.74117 0.59311
 C2233 C 0.60728 1.26976 0.61414
 C2234 C 0.62351 1.25160 0.60220
 N2235 N 0.64895 1.25515 0.60287
 C2236 C 0.65894 1.27612 0.61486
 C2237 C 0.64277 1.29440 0.62687
 N2238 N 0.61724 1.29065 0.62627
 N2239 N 0.58184 1.26616 0.61346
 C2240 C 0.57188 1.24497 0.60177
 C2241 C 0.58812 1.22634 0.59036
 N2242 N 0.61360 1.23037 0.59069
 H2243 H 0.67934 1.27828 0.61532
 H2244 H 0.55149 1.24268 0.60152
 C2245 C 0.60596 0.77346 1.11711
 C2246 C 0.62386 0.75403 1.11095
 N2247 N 0.64872 0.75784 1.11627
 C2248 C 0.65657 0.78033 1.12717
 C2249 C 0.63879 0.80004 1.13301
 N2250 N 0.61379 0.79600 1.12797
 N2251 N 0.58110 0.76964 1.11172
 C2252 C 0.57327 0.74717 1.10072
 C2253 C 0.59110 0.72750 1.09481
 N2254 N 0.61606 0.73157 1.09997
 H2255 H 0.67657 0.78292 1.13102
 H2256 H 0.55330 0.74464 1.09671
 C2257 C 0.88875 1.26744 0.86441
 C2258 C 0.87295 1.25008 0.87765
 N2259 N 0.84787 1.25564 0.88017
 C2260 C 0.83781 1.27788 0.87010
 C2261 C 0.85356 1.29554 0.85684
 N2262 N 0.87873 1.28967 0.85427
 N2263 N 0.91383 1.26177 0.86186
 C2264 C 0.92382 1.23940 0.87184
 C2265 C 0.90797 1.22174 0.88497
 N2266 N 0.88287 1.22778 0.88756
 H2267 H 0.81762 1.28131 0.87194
 H2268 H 0.94397 1.23576 0.86985
 C2269 C 0.87741 0.76264 0.37222
 C2270 C 0.87471 0.75859 0.39903
 N2271 N 0.86225 0.77668 0.41349
 C2272 C 0.85252 0.79869 0.40235
 C2273 C 0.85562 0.80298 0.37549
 N2274 N 0.86799 0.78462 0.36121
 N2275 N 0.88957 0.74463 0.35758
 C2276 C 0.89963 0.72286 0.36855
 C2277 C 0.89780 0.71891 0.39561
 N2278 N 0.88498 0.73687 0.41016
 H2279 H 0.84308 0.81292 0.41446
 H2280 H 0.90876 0.70873 0.35610
 C2281 C 0.37152 1.27420 0.39618
 C2282 C 0.39760 1.26862 0.39463
 N2283 N 0.41367 1.28712 0.38589
 C2284 C 0.40488 1.31086 0.37832
 C2285 C 0.37864 1.31656 0.37926
 N2286 N 0.36262 1.29796 0.38850
 N2287 N 0.35553 1.25567 0.40514
 C2288 C 0.36442 1.23190 0.41274
 C2289 C 0.39063 1.22619 0.41132
 N2290 N 0.40650 1.24487 0.40211
 H2291 H 0.41840 1.32522 0.37191
 H2292 H 0.35106 1.21751 0.41945
 C2293 C 0.38945 0.76938 0.87718
 C2294 C 0.38780 0.76477 0.90400
 N2295 N 0.37695 0.78298 0.91951
 C2296 C 0.36745 0.80550 0.90942
 C2297 C 0.36867 0.81012 0.88240
 N2298 N 0.37990 0.79181 0.86704
 N2299 N 0.40041 0.75125 0.86166
 C2300 C 0.40994 0.72875 0.87175
 C2301 C 0.40846 0.72401 0.89871
 N2302 N 0.39722 0.74225 0.91412
 H2303 H 0.35939 0.81973 0.92249
 H2304 H 0.41817 0.71455 0.85874
 C2305 C 1.12802 0.73562 0.89364
 C2306 C 1.11668 0.75457 0.87767
 N2307 N 1.11891 0.75280 0.85152
 C2308 C 1.13177 0.73273 0.84051
 C2309 C 1.14289 0.71339 0.85638
 N2310 N 1.14086 0.71550 0.88268
 N2311 N 1.12581 0.73756 0.91983
 C2312 C 1.11290 0.75772 0.93079
 C2313 C 1.10163 0.77686 0.91480
 N2314 N 1.10381 0.77462 0.88857
 H2315 H 1.13346 0.73205 0.81958
 H2316 H 1.11129 0.75862 0.95172
 C2317 C 1.12365 0.22597 0.39150
 C2318 C 1.09737 0.23069 0.39142
 N2319 N 1.08147 0.21173 0.38358
 C2320 C 1.09065 0.18836 0.37553
 C2321 C 1.11704 0.18361 0.37514
 N2322 N 1.13289 0.20262 0.38341
 N2323 N 1.13953 0.24497 0.39928
 C2324 C 1.13035 0.26842 0.40714
 C2325 C 1.10395 0.27324 0.40731
 N2326 N 1.08815 0.25412 0.39923
 H2327 H 1.07741 0.17361 0.36961
 H2328 H 1.14362 0.28323 0.41282
 C2329 C 0.60848 0.73806 0.37751
 C2330 C 0.61231 0.74260 0.40404
 N2331 N 0.62600 0.72521 0.41831
 C2332 C 0.63610 0.70352 0.40719
 C2333 C 0.63225 0.69897 0.38054
 N2334 N 0.61844 0.71648 0.36649
 N2335 N 0.59515 0.75545 0.36306
 C2336 C 0.58519 0.77719 0.37396
 C2337 C 0.58856 0.78176 0.40069
 N2338 N 0.60231 0.76431 0.41504
 H2339 H 0.64671 0.68989 0.41909
 H2340 H 0.57521 0.79093 0.36164
 C2341 C 0.62577 0.23005 0.88967
 C2342 C 0.59934 0.23319 0.88813
 N2343 N 0.58514 0.21386 0.87800
 C2344 C 0.59620 0.19153 0.86934
 C2345 C 0.62273 0.18831 0.87095
 N2346 N 0.63675 0.20781 0.88115
 N2347 N 0.64008 0.24923 0.89973
 C2348 C 0.62915 0.27139 0.90868
 C2349 C 0.60258 0.27452 0.90773
 N2350 N 0.58832 0.25533 0.89715
 H2351 H 0.58432 0.17634 0.86175
 H2352 H 0.64116 0.28646 0.91628
 C2353 C 0.88646 0.73239 1.12916
 C2354 C 0.88875 0.73462 1.10205
 N2355 N 0.88258 0.71419 1.08688
 C2356 C 0.87373 0.69182 1.09753
 C2357 C 0.87068 0.68974 1.12466
 N2358 N 0.87742 0.71012 1.13983
 N2359 N 0.89234 0.75291 1.14432
 C2360 C 0.90048 0.77555 1.13365
 C2361 C 0.90280 0.77796 1.10645
 N2362 N 0.89675 0.75730 1.09132
 H2363 H 0.86859 0.67597 1.08492
 H2364 H 0.90468 0.79164 1.14631
 C2365 C 0.89069 0.23394 0.62481
 C2366 C 0.88621 0.24088 0.59892
 N2367 N 0.87121 0.22562 0.58404
 C2368 C 0.86064 0.20357 0.59389
 C2369 C 0.86545 0.19628 0.61984
 N2370 N 0.88034 0.21196 0.63454
 N2371 N 0.90555 0.24909 0.63980
 C2372 C 0.91640 0.27091 0.63004
 C2373 C 0.91239 0.27796 0.60386
 N2374 N 0.89711 0.26264 0.58906
 H2375 H 0.84931 0.19155 0.58134
 H2376 H 0.92754 0.28275 0.64289
 C2377 C 0.38614 0.72545 0.60886
 C2378 C 0.39169 0.74355 0.62835
 N2379 N 0.38489 0.73840 0.65325
 C2380 C 0.37307 0.71589 0.65963
 C2381 C 0.36771 0.69751 0.64026
 N2382 N 0.37432 0.70290 0.61521
 N2383 N 0.39281 0.73067 0.58393
 C2384 C 0.40443 0.75329 0.57752
 C2385 C 0.40969 0.77169 0.59689
 N2386 N 0.40326 0.76623 0.62196
 H2387 H 0.36801 0.71229 0.67971
 H2388 H 0.40913 0.75714 0.55740
 C2389 C 0.37866 0.23625 1.12676
 C2390 C 0.37788 0.23885 1.09963
 N2391 N 0.36732 0.21976 1.08524
 C2392 C 0.35762 0.19814 1.09676
 C2393 C 0.35874 0.19536 1.12398
 N2394 N 0.36923 0.21468 1.13818
 N2395 N 0.38906 0.25519 1.14130
 C2396 C 0.39919 0.27654 1.12995
 C2397 C 0.39923 0.27901 1.10268
 N2398 N 0.38819 0.26014 1.08817
 H2399 H 0.34975 0.18306 1.08475
 H2400 H 0.40703 0.29145 1.14220
 C2401 C 1.12510 1.09768 0.72783
 C2402 C 1.09867 1.09542 0.73018
 N2403 N 1.08363 1.10171 0.70970
 C2404 C 1.09378 1.11080 0.68718
 C2405 C 1.12021 1.11414 0.68511
 N2406 N 1.13522 1.10708 0.70549
 N2407 N 1.14016 1.09153 0.74832
 C2408 C 1.12998 1.08332 0.77115
 C2409 C 1.10345 1.08141 0.77376
 N2410 N 1.08844 1.08753 0.75307
 H2411 H 1.08128 1.11586 0.67125
 H2412 H 1.14247 1.07900 0.78730
 C2413 C 1.11332 0.62680 0.22902
 C2414 C 1.12801 0.60954 0.24393
 N2415 N 1.15276 0.60573 0.23783
 C2416 C 1.16358 0.61832 0.21743
 C2417 C 1.14905 0.63608 0.20230
 N2418 N 1.12416 0.63979 0.20888
 N2419 N 1.08844 0.63029 0.23489
 C2420 C 1.07769 0.61771 0.25537
 C2421 C 1.09263 0.60111 0.27119
 N2422 N 1.11746 0.59729 0.26466
 H2423 H 1.18360 0.61516 0.21418
 H2424 H 1.05769 0.62070 0.25905
 C2425 C 0.59890 1.12157 0.22804
 C2426 C 0.59901 1.09467 0.23237
 N2427 N 0.60982 1.07870 0.21456
 C2428 C 0.62099 1.08843 0.19280
 C2429 C 0.62169 1.11550 0.18870
 N2430 N 0.61025 1.13135 0.20643
 N2431 N 0.58821 1.13754 0.24594
 C2432 C 0.57771 1.12786 0.26807
 C2433 C 0.57805 1.10086 0.27273
 N2434 N 0.58876 1.08498 0.25457
 H2435 H 0.62928 1.07510 0.17894
 H2436 H 0.56997 1.14125 0.28220
 C2437 C 0.62219 0.62262 0.73899
 C2438 C 0.62331 0.59550 0.74159
 N2439 N 0.63295 0.58106 0.72182
 C2440 C 0.64135 0.59253 0.69952
 C2441 C 0.63973 0.61971 0.69671
 N2442 N 0.63022 0.63399 0.71671
 N2443 N 0.61288 0.63722 0.75867
 C2444 C 0.60407 0.62594 0.78073
 C2445 C 0.60413 0.59866 0.78319
 N2446 N 0.61419 0.58408 0.76357
 H2447 H 0.64861 0.58052 0.68396
 H2448 H 0.59703 0.63825 0.79616
 C2449 C 0.87759 0.87459 0.73624
 C2450 C 0.90422 0.87578 0.73582
 N2451 N 0.91684 0.87005 0.71351
 C2452 C 0.90404 0.86327 0.69165
 C2453 C 0.87732 0.86256 0.69192
 N2454 N 0.86482 0.86822 0.71436
 N2455 N 0.86486 0.88008 0.75844
 C2456 C 0.87746 0.88735 0.78013
 C2457 C 0.90407 0.88971 0.77961
 N2458 N 0.91691 0.88348 0.75744
 H2459 H 0.91457 0.85889 0.67412
 H2460 H 0.86673 0.89193 0.79749
 C2461 C 0.89195 0.37609 0.23190
 C2462 C 0.88868 0.40250 0.23750
 N2463 N 0.87655 0.41816 0.22011
 C2464 C 0.86753 0.40855 0.19735
 C2465 C 0.87092 0.38203 0.19159
 N2466 N 0.88313 0.36655 0.20919
 N2467 N 0.90379 0.36031 0.24929
 C2468 C 0.91282 0.36977 0.27201
 C2469 C 0.91011 0.39642 0.27765
 N2470 N 0.89780 0.41207 0.26016
 H2471 H 0.85828 0.42160 0.18375
 H2472 H 0.92161 0.35641 0.28560
 C2473 C 0.37539 0.87470 0.24109
 C2474 C 0.37339 0.90180 0.24329
 N2475 N 0.36398 0.91591 0.22307
 C2476 C 0.35649 0.90413 0.20079
 C2477 C 0.35875 0.87696 0.19849
 N2478 N 0.36816 0.86301 0.21885
 N2479 N 0.38459 0.86043 0.26119
 C2480 C 0.39239 0.87206 0.28331
 C2481 C 0.39127 0.89931 0.28540
 N2482 N 0.38143 0.91355 0.26535
 H2483 H 0.34924 0.91587 0.18492
 H2484 H 0.39956 0.86010 0.29906
 C2485 C 0.39404 0.37885 0.73135
 C2486 C 0.39126 0.40548 0.73611
 N2487 N 0.37969 0.42086 0.71804
 C2488 C 0.37087 0.41075 0.69538
 C2489 C 0.37399 0.38404 0.69049
 N2490 N 0.38547 0.36890 0.70883
 N2491 N 0.40525 0.36326 0.74929
 C2492 C 0.41421 0.37311 0.77180
 C2493 C 0.41215 0.39996 0.77659
 N2494 N 0.40038 0.41548 0.75861
 H2495 H 0.36200 0.42348 0.68123
 H2496 H 0.42252 0.35993 0.78589
 C2497 C 1.10593 0.88316 1.26702
 C2498 C 1.11076 0.90955 1.26281
 N2499 N 1.12538 0.92252 1.27996
 C2500 C 1.13562 0.91022 1.30099
 C2501 C 1.13079 0.88354 1.30533
 N2502 N 1.11575 0.87102 1.28807
 N2503 N 1.09204 0.86979 1.24966
 C2504 C 1.08234 0.88173 1.22835
 C2505 C 1.08626 0.90853 1.22437
 N2506 N 1.10075 0.92173 1.24167
 H2507 H 1.14661 0.92160 1.31437
 H2508 H 1.07202 0.87014 1.21455
 C2509 C 1.13112 0.39263 0.76341
 C2510 C 1.11611 0.37632 0.74828
 N2511 N 1.11347 0.35110 0.75530
 C2512 C 1.12507 0.34140 0.77687
 C2513 C 1.14057 0.35764 0.79215
 N2514 N 1.14312 0.38291 0.78463
 N2515 N 1.13335 0.41799 0.75677
 C2516 C 1.12167 0.42770 0.73528
 C2517 C 1.10746 0.41114 0.71924
 N2518 N 1.10482 0.38582 0.72651
 H2519 H 1.12296 0.32097 0.78103
 H2520 H 1.12352 0.44815 0.73099
 C2521 C 0.62372 0.87410 0.76018
 C2522 C 0.62452 0.90124 0.75779
 N2523 N 0.63386 0.91546 0.77771
 C2524 C 0.64225 0.90375 0.79994
 C2525 C 0.64093 0.87656 0.80254
 N2526 N 0.63173 0.86251 0.78240
 N2527 N 0.61465 0.85972 0.74038
 C2528 C 0.60575 0.87124 0.71843
 C2529 C 0.60547 0.89853 0.71621
 N2530 N 0.61530 0.91290 0.73592
 H2531 H 0.64927 0.91560 0.81561
 H2532 H 0.59881 0.85914 0.70292
 C2533 C 0.60808 0.37163 1.27441
 C2534 C 0.61196 0.39803 1.26916
 N2535 N 0.62571 0.41234 1.28592
 C2536 C 0.63638 0.40133 1.30735
 C2537 C 0.63324 0.37449 1.31246
 N2538 N 0.61853 0.36058 1.29591
 N2539 N 0.59503 0.35711 1.25722
 C2540 C 0.58556 0.36780 1.23505
 C2541 C 0.58905 0.39450 1.22976
 N2542 N 0.60235 0.40885 1.24713
 H2543 H 0.64673 0.41372 1.32039
 H2544 H 0.57610 0.35521 1.22153
 C2545 C 0.87328 1.14114 1.25712
 C2546 C 0.87212 1.11402 1.25483
 N2547 N 0.86169 1.09989 1.27438
 C2548 C 0.85218 1.11163 1.29599
 C2549 C 0.85310 1.13888 1.29833
 N2550 N 0.86384 1.15290 1.27873
 N2551 N 0.88347 1.15532 1.23753
 C2552 C 0.89284 1.14367 1.21586
 C2553 C 0.89220 1.11640 1.21353
 N2554 N 0.88156 1.10228 1.23317
 H2555 H 0.84412 1.09975 1.31126
 H2556 H 0.90048 1.15571 1.20050
 C2557 C 0.88896 0.62697 0.76983
 C2558 C 0.88584 0.60038 0.76526
 N2559 N 0.87314 0.58577 0.78294
 C2560 C 0.86329 0.59655 0.80490
 C2561 C 0.86626 0.62331 0.80959
 N2562 N 0.87924 0.63777 0.79180
 N2563 N 0.90143 0.64166 0.75207
 C2564 C 0.91114 0.63097 0.73004
 C2565 C 0.90850 0.60413 0.72541
 N2566 N 0.89562 0.58959 0.74327
 H2567 H 0.85359 0.58422 0.81870
 H2568 H 0.92040 0.64354 0.71615
 C2569 C 0.40032 1.11141 0.78155
 C2570 C 0.38351 1.09896 0.76479
 N2571 N 0.35869 1.09691 0.77149
 C2572 C 0.34979 1.10708 0.79410
 C2573 C 0.36649 1.12013 0.81084
 N2574 N 0.39145 1.12168 0.80401
 N2575 N 0.42504 1.11391 0.77466
 C2576 C 0.43368 1.10484 0.75149
 C2577 C 0.41675 1.09284 0.73427
 N2578 N 0.39207 1.09000 0.74164
 H2579 H 0.32972 1.10590 0.79821
 H2580 H 0.45355 1.10693 0.74669
 C2581 C 0.39663 0.61503 1.27610
 C2582 C 0.37942 0.60476 1.25820
 N2583 N 0.35418 0.60614 1.26315
 C2584 C 0.34529 0.61746 1.28518
 C2585 C 0.36246 0.62805 1.30313
 N2586 N 0.38779 0.62648 1.29801
 N2587 N 0.42186 0.61398 1.27097
 C2588 C 0.43067 0.60353 1.24848
 C2589 C 0.41343 0.59387 1.23011
 N2590 N 0.38818 0.59448 1.23568
 H2591 H 0.32500 0.61887 1.28812
 H2592 H 0.45091 0.60296 1.24494
 C2593 C 1.11268 1.26709 0.87243
 C2594 C 1.12826 1.25006 0.88661
 N2595 N 1.15315 1.25584 0.88994
 C2596 C 1.16322 1.27783 0.87949
 C2597 C 1.14771 1.29482 0.86483
 N2598 N 1.12272 1.28885 0.86192
 N2599 N 1.08788 1.26136 0.86886
 C2600 C 1.07791 1.23910 0.87859
 C2601 C 1.09352 1.22156 0.89246
 N2602 N 1.11837 1.22774 0.89630
 H2603 H 1.18325 1.28142 0.88193
 H2604 H 1.05796 1.23537 0.87570
 C2605 C 1.11185 0.77667 0.39164
 C2606 C 1.10466 0.75930 0.37206
 N2607 N 1.10998 0.76505 0.34690
 C2608 C 1.12206 0.78739 0.34041
 C2609 C 1.12944 0.80479 0.35997
 N2610 N 1.12413 0.79890 0.38520
 N2611 N 1.10646 0.77102 0.41678
 C2612 C 1.09470 0.74854 0.42333
 C2613 C 1.08820 0.73061 0.40391
 N2614 N 1.09314 0.73663 0.37861
 H2615 H 1.12601 0.79150 0.32017
 H2616 H 1.09096 0.74442 0.44361
 C2617 C 0.60553 1.27161 0.37707
 C2618 C 0.61989 1.25504 0.39293
 N2619 N 0.64416 1.26128 0.39865
 C2620 C 0.65479 1.28347 0.38940
 C2621 C 0.64051 1.30059 0.37331
 N2622 N 0.61611 1.29373 0.36760
 N2623 N 0.58112 1.26547 0.37162
 C2624 C 0.57046 1.24338 0.38119
 C2625 C 0.58494 1.22628 0.39694
 N2626 N 0.60940 1.23290 0.40237
 H2627 H 0.67436 1.28685 0.39421
 H2628 H 0.55081 1.23968 0.37678
 C2629 C 0.63136 0.76100 0.88447
 C2630 C 0.60490 0.75895 0.88258
 N2631 N 0.59131 0.77876 0.87179
 C2632 C 0.60298 0.80056 0.86289
 C2633 C 0.62953 0.80279 0.86506
 N2634 N 0.64295 0.78277 0.87583
 N2635 N 0.64508 0.74130 0.89512
 C2636 C 0.63352 0.71973 0.90443
 C2637 C 0.60688 0.71778 0.90337
 N2638 N 0.59324 0.73744 0.89208
 H2639 H 0.59156 0.81617 0.85482
 H2640 H 0.64512 0.70425 0.91250
 C2641 C 0.87596 1.27728 1.09633
 C2642 C 0.90053 1.26967 1.10336
 N2643 N 0.91396 1.28465 1.11988
 C2644 C 0.90379 1.30678 1.13002
 C2645 C 0.87878 1.31453 1.12328
 N2646 N 0.86585 1.29936 1.10626
 N2647 N 0.86222 1.26211 1.08031
 C2648 C 0.87199 1.23957 1.07087
 C2649 C 0.89689 1.23178 1.07761
 N2650 N 0.91044 1.24723 1.09385
 H2651 H 0.91561 1.31817 1.14259
 H2652 H 0.85998 1.22773 1.05890
 C2653 C 0.89616 0.77185 0.60684
 C2654 C 0.87822 0.75437 0.59734
 N2655 N 0.85316 0.76059 0.59865
 C2656 C 0.84521 0.78341 0.60927
 C2657 C 0.86315 0.80078 0.61936
 N2658 N 0.88825 0.79444 0.61770
 N2659 N 0.92119 0.76566 0.60576
 C2660 C 0.92912 0.74247 0.59612
 C2661 C 0.91118 0.72437 0.58744
 N2662 N 0.88608 0.73104 0.58794
 H2663 H 0.82507 0.78739 0.61066
 H2664 H 0.94925 0.73819 0.59544
 C2665 C 0.37730 1.26856 0.61228
 C2666 C 0.40320 1.26363 0.61628
 N2667 N 0.41774 1.28225 0.62714
 C2668 C 0.40751 1.30552 0.63431
 C2669 C 0.38143 1.31074 0.62996
 N2670 N 0.36725 1.29186 0.61883
 N2671 N 0.36242 1.24984 0.60232
 C2672 C 0.37237 1.22651 0.59551
 C2673 C 0.39867 1.22177 0.59811
 N2674 N 0.41341 1.24045 0.60891
 H2675 H 0.41999 1.31991 0.64235
 H2676 H 0.35972 1.21187 0.58817
 C2677 C 0.37006 0.76365 1.11448
 C2678 C 0.39586 0.75996 1.12008
 N2679 N 0.40821 0.77821 1.13394
 C2680 C 0.39597 0.79989 1.14261
 C2681 C 0.36990 0.80393 1.13691
 N2682 N 0.35788 0.78546 1.12271
 N2683 N 0.35743 0.74521 1.10120
 C2684 C 0.36953 0.72344 1.09276
 C2685 C 0.39579 0.71999 1.09727
 N2686 N 0.40820 0.73837 1.11126
 H2687 H 0.40700 0.81408 1.15288
 H2688 H 0.35854 0.70896 1.08279
 C2689 C 0.88858 0.73292 0.87673
 C2690 C 0.88919 0.73465 0.90396
 N2691 N 0.88116 0.71432 0.91855
 C2692 C 0.87213 0.69253 0.90719
 C2693 C 0.87087 0.69094 0.87990
 N2694 N 0.87941 0.71120 0.86532
 N2695 N 0.89653 0.75328 0.86214
 C2696 C 0.90522 0.77521 0.87350
 C2697 C 0.90598 0.77703 0.90080
 N2698 N 0.89778 0.75661 0.91537
 H2699 H 0.86568 0.67671 0.91935
 H2700 H 0.91129 0.79118 0.86131
 C2701 C 0.88863 0.23385 0.37991
 C2702 C 0.87286 0.25405 0.38888
 N2703 N 0.84752 0.25297 0.38468
 C2704 C 0.83712 0.23245 0.37226
 C2705 C 0.85271 0.21180 0.36368
 N2706 N 0.87825 0.21319 0.36757
 N2707 N 0.91402 0.23508 0.38401
 C2708 C 0.92438 0.25567 0.39645
 C2709 C 0.90866 0.27606 0.40536
 N2710 N 0.88317 0.27458 0.40139
 H2711 H 0.81681 0.23223 0.36919
 H2712 H 0.94470 0.25611 0.39938
 C2713 C 0.36914 0.73889 0.39108
 C2714 C 0.39458 0.74391 0.38524
 N2715 N 0.40778 0.72699 0.37017
 C2716 C 0.39667 0.70531 0.36054
 C2717 C 0.37097 0.69998 0.36649
 N2718 N 0.35815 0.71717 0.38184
 N2719 N 0.35563 0.75594 0.40562
 C2720 C 0.36653 0.77771 0.41501
 C2721 C 0.39241 0.78259 0.41000
 N2722 N 0.40569 0.76553 0.39487
 H2723 H 0.40830 0.69221 0.34925
 H2724 H 0.35484 0.79115 0.42590
 C2725 C 0.37484 0.23667 0.88840
 C2726 C 0.40108 0.23889 0.88451
 N2727 N 0.41410 0.21892 0.87358
 C2728 C 0.40208 0.19692 0.86616
 C2729 C 0.37560 0.19440 0.87023
 N2730 N 0.36289 0.21454 0.88155
 N2731 N 0.36160 0.25679 0.89866
 C2732 C 0.37349 0.27886 0.90583
 C2733 C 0.40009 0.28080 0.90326
 N2734 N 0.41319 0.26076 0.89219
 H2735 H 0.41348 0.18133 0.85822
 H2736 H 0.36217 0.29466 0.91355
 C2737 C 1.11071 0.73843 1.13757
 C2738 C 1.12519 0.75674 1.12403
 N2739 N 1.15049 0.75312 1.12145
 C2740 C 1.16205 0.73157 1.13110
 C2741 C 1.14762 0.71224 1.14387
 N2742 N 1.12221 0.71669 1.14728
 N2743 N 1.08527 0.74230 1.13996
 C2744 C 1.07373 0.76362 1.12929
 C2745 C 1.08830 0.78188 1.11541
 N2746 N 1.11374 0.77782 1.11336
 H2747 H 1.18244 0.73018 1.12924
 H2748 H 1.05338 0.76585 1.13111
 C2749 C 1.12538 0.23053 0.60597
 C2750 C 1.09948 0.23610 0.60902
 N2751 N 1.08401 0.21777 0.61918
 C2752 C 1.09331 0.19423 0.62685
 C2753 C 1.11954 0.18855 0.62417
 N2754 N 1.13464 0.20707 0.61339
 N2755 N 1.14104 0.24887 0.59624
 C2756 C 1.13191 0.27255 0.58907
 C2757 C 1.10577 0.27814 0.59146
 N2758 N 1.09022 0.25969 0.60165
 H2759 H 1.08004 0.18015 0.63424
 H2760 H 1.14508 0.28687 0.58186
 C2761 C 0.62920 0.73471 0.61392
 C2762 C 0.60278 0.73721 0.61639
 N2763 N 0.58941 0.71760 0.62742
 C2764 C 0.60128 0.69561 0.63608
 C2765 C 0.62782 0.69299 0.63349
 N2766 N 0.64101 0.71277 0.62239
 N2767 N 0.64269 0.75422 0.60304
 C2768 C 0.63094 0.77607 0.59415
 C2769 C 0.60433 0.77855 0.59595
 N2770 N 0.59093 0.75902 0.60738
 H2771 H 0.59002 0.68020 0.64439
 H2772 H 0.64238 0.79141 0.58598
 C2773 C 0.60171 0.21868 1.11808
 C2774 C 0.61893 0.23495 1.10532
 N2775 N 0.64352 0.22753 1.10313
 C2776 C 0.65174 0.20440 1.11284
 C2777 C 0.63453 0.18766 1.12572
 N2778 N 0.60989 0.19568 1.12814
 N2779 N 0.57700 0.22600 1.11996
 C2780 C 0.56882 0.24911 1.11003
 C2781 C 0.58625 0.26598 1.09792
 N2782 N 0.61090 0.25817 1.09571
 H2783 H 0.67175 0.20001 1.11134
 H2784 H 0.54889 0.25403 1.11151
 C2785 C 1.27185 1.10369 0.89188
 C2786 C 1.25426 1.12246 0.90027
 N2787 N 1.26025 1.14800 0.89838
 C2788 C 1.28295 1.15562 0.88831
 C2789 C 1.30049 1.13683 0.87942
 N2790 N 1.29433 1.11127 0.88159
 N2791 N 1.26603 1.07818 0.89373
 C2792 C 1.24319 1.07049 0.90315
 C2793 C 1.22500 1.08919 0.91084
 N2794 N 1.23126 1.11484 0.90949
 H2795 H 1.28684 1.17614 0.88656
 H2796 H 1.23936 1.04994 0.90460
 C2797 C 1.26830 0.60682 0.38101
 C2798 C 1.25103 0.62479 0.39148
 N2799 N 1.25725 0.65028 0.39238
 C2800 C 1.27995 0.65867 0.38309
 C2801 C 1.29723 0.64071 0.37220
 N2802 N 1.29081 0.61517 0.37160
 N2803 N 1.26212 0.58136 0.37992
 C2804 C 1.23920 0.57304 0.38850
 C2805 C 1.22146 0.59105 0.39847
 N2806 N 1.22805 0.61654 0.39995
 H2807 H 1.28400 0.67920 0.38346
 H2808 H 1.23502 0.55254 0.38765
 C2809 C 0.75555 1.11202 0.37345
 C2810 C 0.73791 1.12932 0.38446
 N2811 N 0.74283 1.15510 0.38455
 C2812 C 0.76474 1.16441 0.37432
 C2813 C 0.78276 1.14712 0.36355
 N2814 N 0.77749 1.12126 0.36327
 N2815 N 0.75048 1.08624 0.37320
 C2816 C 0.72847 1.07698 0.38333
 C2817 C 0.71063 1.09430 0.39428
 N2818 N 0.71598 1.12012 0.39463
 H2819 H 0.76778 1.18514 0.37430
 H2820 H 0.72513 1.05629 0.38309
 C2821 C 0.76988 0.59804 0.89070
 C2822 C 0.75237 0.61666 0.89973
 N2823 N 0.75763 0.64225 0.89713
 C2824 C 0.77971 0.65011 0.88608
 C2825 C 0.79743 0.63153 0.87713
 N2826 N 0.79194 0.60585 0.87957
 N2827 N 0.76457 0.57245 0.89331
 C2828 C 0.74239 0.56461 0.90420
 C2829 C 0.72453 0.58322 0.91281
 N2830 N 0.73017 0.60887 0.91051
 H2831 H 0.78330 0.67068 0.88413
 H2832 H 0.73872 0.54405 0.90603
 C2833 C 1.26461 0.89720 1.12107
 C2834 C 1.24772 0.87924 1.11064
 N2835 N 1.25462 0.85379 1.10945
 C2836 C 1.27762 0.84544 1.11844
 C2837 C 1.29453 0.86339 1.12935
 N2838 N 1.28741 0.88889 1.13020
 N2839 N 1.25782 0.92262 1.12235
 C2840 C 1.23469 0.93094 1.11395
 C2841 C 1.21729 0.91296 1.10393
 N2842 N 1.22452 0.88747 1.10234
 H2843 H 1.28217 0.82494 1.11783
 H2844 H 1.23020 0.95144 1.11484
 C2845 C 1.27974 0.40362 0.60659
 C2846 C 1.26258 0.38453 0.59870
 N2847 N 1.26855 0.35910 0.60234
 C2848 C 1.29092 0.35185 0.61345
 C2849 C 1.30821 0.37092 0.62147
 N2850 N 1.30202 0.39642 0.61784
 N2851 N 1.27374 0.42905 0.60310
 C2852 C 1.25116 0.43631 0.59249
 C2853 C 1.23355 0.41728 0.58517
 N2854 N 1.23992 0.39175 0.58824
 H2855 H 1.29487 0.33141 0.61646
 H2856 H 1.24694 0.45677 0.58998
 C2857 C 0.76120 0.87286 0.61341
 C2858 C 0.75853 0.89986 0.61570
 N2859 N 0.77742 0.91363 0.62691
 C2860 C 0.79892 0.90162 0.63576
 C2861 C 0.80185 0.87453 0.63306
 N2862 N 0.78269 0.86094 0.62194
 N2863 N 0.74242 0.85896 0.60240
 C2864 C 0.72117 0.87084 0.59310
 C2865 C 0.71859 0.89808 0.59448
 N2866 N 0.73736 0.91189 0.60618
 H2867 H 0.81381 0.91323 0.64407
 H2868 H 0.70642 0.85898 0.58490
 C2869 C 0.76269 0.38838 1.12793
 C2870 C 0.75856 0.38782 1.10101
 N2871 N 0.77788 0.38095 1.08493
 C2872 C 0.80111 0.37441 1.09456
 C2873 C 0.80530 0.37477 1.12158
 N2874 N 0.78586 0.38191 1.13755
 N2875 N 0.74343 0.39518 1.14406
 C2876 C 0.72024 0.40179 1.13450
 C2877 C 0.71605 0.40176 1.10747
 N2878 N 0.73539 0.39450 1.09138
 H2879 H 0.81618 0.36921 1.08121
 H2880 H 0.70522 0.40694 1.14792
 C2881 C 0.72618 1.11156 1.09333
 C2882 C 0.74290 1.09834 1.10993
 N2883 N 0.73597 1.09344 1.13486
 C2884 C 0.71303 1.10145 1.14409
 C2885 C 0.69630 1.11522 1.12765
 N2886 N 0.70341 1.11977 1.10256
 N2887 N 0.73320 1.11654 1.06843
 C2888 C 0.75643 1.10911 1.05942
 C2889 C 0.77357 1.09626 1.07619
 N2890 N 0.76607 1.09111 1.10103
 H2891 H 0.70845 1.09796 1.16428
 H2892 H 0.76117 1.11302 1.03935
 C2893 C 0.73240 0.59963 0.61391
 C2894 C 0.74816 0.61829 0.60246
 N2895 N 0.74064 0.64354 0.60205
 C2896 C 0.71809 0.65104 0.61265
 C2897 C 0.70224 0.63241 0.62438
 N2898 N 0.70997 0.60709 0.62463
 N2899 N 0.73999 0.57441 0.61456
 C2900 C 0.76284 0.56702 0.60466
 C2901 C 0.77907 0.58575 0.59375
 N2902 N 0.77108 0.61098 0.59268
 H2903 H 0.71308 0.67144 0.61257
 H2904 H 0.76826 0.54672 0.60537
 C2905 C 0.22681 1.09793 0.62027
 C2906 C 0.24322 1.11700 0.61066
 N2907 N 0.23529 1.14209 0.60966
 C2908 C 0.21157 1.14902 0.61758
 C2909 C 0.19472 1.12991 0.62679
 N2910 N 0.20304 1.10477 0.62805
 N2911 N 0.23489 1.07286 0.62156
 C2912 C 0.25868 1.06599 0.61374
 C2913 C 0.27524 1.08506 0.60403
 N2914 N 0.26691 1.11016 0.60268
 H2915 H 0.20624 1.16933 0.61704
 H2916 H 0.26440 1.04578 0.61469
 C2917 C 0.24021 0.61187 1.11889
 C2918 C 0.25851 0.62918 1.10943
 N2919 N 0.25547 0.65502 1.11339
 C2920 C 0.23485 0.66440 1.12626
 C2921 C 0.21633 0.64713 1.13564
 N2922 N 0.21962 0.62120 1.13173
 N2923 N 0.24344 0.58599 1.11528
 C2924 C 0.26438 0.57658 1.10297
 C2925 C 0.28297 0.59384 1.09387
 N2926 N 0.27943 0.61981 1.09717
 H2927 H 0.23313 0.68510 1.12940
 H2928 H 0.26664 0.55582 1.10056
 C2929 C 0.73204 0.89552 0.88698
 C2930 C 0.74831 0.87658 0.89767
 N2931 N 0.74151 0.85126 0.89707
 C2932 C 0.71921 0.84397 0.88619
 C2933 C 0.70290 0.86287 0.87516
 N2934 N 0.70988 0.88825 0.87593
 N2935 N 0.73889 0.92082 0.88734
 C2936 C 0.76153 0.92803 0.89745
 C2937 C 0.77832 0.90905 0.90748
 N2938 N 0.77104 0.88373 0.90761
 H2939 H 0.71473 0.82354 0.88548
 H2940 H 0.76640 0.94839 0.89749
 C2941 C 0.73654 0.38179 0.40117
 C2942 C 0.75378 0.39000 0.38203
 N2943 N 0.74807 0.38677 0.35660
 C2944 C 0.72579 0.37592 0.34941
 C2945 C 0.70833 0.36786 0.36849
 N2946 N 0.71425 0.37088 0.39402
 N2947 N 0.74221 0.38520 0.42659
 C2948 C 0.76449 0.39613 0.43378
 C2949 C 0.78208 0.40394 0.41468
 N2950 N 0.77609 0.40082 0.38918
 H2951 H 0.72169 0.37364 0.32896
 H2952 H 0.76838 0.39868 0.45423
 C2953 C 0.22622 0.88100 0.40346
 C2954 C 0.24466 0.88988 0.38586
 N2955 N 0.24062 0.88785 0.36000
 C2956 C 0.21873 0.87781 0.35083
 C2957 C 0.19977 0.86962 0.36828
 N2958 N 0.20412 0.87113 0.39432
 N2959 N 0.23046 0.88311 0.42936
 C2960 C 0.25228 0.89369 0.43844
 C2961 C 0.27069 0.90281 0.42080
 N2962 N 0.26628 0.90060 0.39490
 H2963 H 0.21593 0.87661 0.33005
 H2964 H 0.25503 0.89531 0.45918
 C2965 C 0.23642 0.38255 0.88950
 C2966 C 0.25402 0.39232 0.87150
 N2967 N 0.24955 0.38964 0.84572
 C2968 C 0.22832 0.37761 0.83709
 C2969 C 0.21071 0.36751 0.85507
 N2970 N 0.21534 0.37028 0.88093
 N2971 N 0.24082 0.38526 0.91527
 C2972 C 0.26227 0.39679 0.92392
 C2973 C 0.28049 0.40583 0.90601
 N2974 N 0.27564 0.40362 0.88011
 H2975 H 0.22555 0.37542 0.81640
 H2976 H 0.26512 0.39869 0.94463
   
