data_POSCAR
  _audit_creation_date              2014-09-24
  _audit_creation_method            'ToBaCCo'
  _symmetry_space_group_name_H-M    'P1'
  _symmetry_Int_Tables_number       1
  _symmetry_cell_setting            triclinic
  loop_
  _symmetry_equiv_pos_as_xyz
 x,y,z
_cell_length_a 37.7935
_cell_length_b 38.1816
_cell_length_c 47.6203
_cell_angle_alpha 87.355000
_cell_angle_beta 90.143400
_cell_angle_gamma 90.334000
loop_
  _atom_site_label
  _atom_site_type_symbol
  _atom_site_fract_x
  _atom_site_fract_y
  _atom_site_fract_z
C1 C 1.18174 0.26481 0.28419
 H2 H 1.18071 0.23652 0.28681
 C3 C 1.16282 0.28516 0.30247
 H4 H 1.14775 0.27193 0.31912
 C5 C 1.20551 0.31568 0.26086
 H6 H 1.22284 0.32753 0.24507
 C7 C 1.18630 0.33711 0.27829
 H8 H 1.18852 0.36527 0.27503
 N9 N 1.20335 0.28017 0.26434
 C10 C 1.22118 0.19968 0.20321
 H11 H 1.24960 0.20078 0.20102
 C12 C 1.20141 0.17787 0.18625
 H13 H 1.21498 0.16220 0.17131
 C14 C 1.16888 0.22070 0.22367
 H15 H 1.15604 0.23785 0.23778
 C16 C 1.14811 0.19932 0.20713
 H17 H 1.11960 0.19987 0.20925
 Zn18 Zn 1.23311 0.25022 0.24378
 N19 N 1.20481 0.22029 0.22172
 C20 C 1.28294 0.19722 0.26165
 N21 N 1.26136 0.22309 0.27010
 C22 C 1.25998 0.23096 0.29760
 C23 C 1.27880 0.21139 0.31791
 C24 C 1.30334 0.17760 0.28121
 C25 C 1.24842 0.29655 0.19757
 C26 C 1.26981 0.31630 0.17880
 C27 C 1.32124 0.29527 0.20450
 C28 C 1.29887 0.27641 0.22304
 N29 N 1.26317 0.27723 0.21923
 H30 H 1.28455 0.19173 0.23968
 H31 H 1.24479 0.25298 0.30404
 H32 H 1.27736 0.21981 0.33926
 H33 H 1.31898 0.15652 0.27342
 H34 H 1.21998 0.29656 0.19489
 H35 H 1.25771 0.33146 0.16160
 H36 H 1.34959 0.29434 0.20780
 H37 H 1.31013 0.26113 0.24046
 C38 C 1.16432 0.17752 0.18806
 C39 C 1.16524 0.32195 0.30003
 C40 C 1.30672 0.31557 0.18208
 C41 C 1.30095 0.18370 0.31025
 C42 C 0.67504 -0.23834 0.30044
 H43 H 0.67558 -0.26656 0.30371
 C44 C 0.65432 -0.21820 0.31780
 H45 H 0.63935 -0.23129 0.33459
 C46 C 0.69582 -0.18711 0.27571
 H47 H 0.71269 -0.17481 0.25988
 C48 C 0.67507 -0.16607 0.29219
 H49 H 0.67558 -0.13798 0.28801
 N50 N 0.69536 -0.22260 0.27994
 C51 C 0.71841 -0.29997 0.21787
 H52 H 0.74700 -0.29845 0.21833
 C53 C 0.70160 -0.32118 0.19884
 H54 H 0.71741 -0.33598 0.18467
 C55 C 0.66316 -0.28106 0.23491
 H56 H 0.64839 -0.26491 0.24874
 C57 C 0.64518 -0.30155 0.21577
 H58 H 0.61654 -0.30139 0.21516
 Zn59 Zn 0.72543 -0.25098 0.25868
 N60 N 0.69916 -0.28074 0.23561
 C61 C 0.75719 -0.31297 0.28249
 N62 N 0.75465 -0.27760 0.28399
 C63 C 0.77308 -0.26017 0.30359
 C64 C 0.79555 -0.27832 0.32245
 C65 C 0.77985 -0.33204 0.30053
 C66 C 0.73671 -0.20275 0.21392
 C67 C 0.75586 -0.18256 0.19408
 C68 C 0.80990 -0.20538 0.21482
 C69 C 0.78965 -0.22451 0.23474
 N70 N 0.75374 -0.22279 0.23395
 H71 H 0.74194 -0.32658 0.26718
 H72 H 0.77028 -0.23206 0.30455
 H73 H 0.80939 -0.26390 0.33818
 H74 H 0.78223 -0.35997 0.29815
 H75 H 0.70809 -0.20246 0.21342
 H76 H 0.74154 -0.16606 0.17892
 H77 H 0.83838 -0.20812 0.21528
 H78 H 0.80265 -0.24145 0.25032
 C79 C 0.66455 -0.32196 0.19749
 C80 C 0.65427 -0.18143 0.31391
 C81 C 0.79303 -0.18402 0.19403
 C82 C 0.79946 -0.31481 0.32095
 C83 C 0.68698 0.26348 -0.21518
 H84 H 0.68692 0.23516 -0.21280
 C85 C 0.66841 0.28300 -0.19607
 H86 H 0.65459 0.26916 -0.17903
 C87 C 0.70784 0.31532 -0.23892
 H88 H 0.72394 0.32797 -0.25514
 C89 C 0.68894 0.33591 -0.22066
 H90 H 0.69008 0.36413 -0.22380
 N91 N 0.70673 0.27973 -0.23582
 C92 C 0.72182 0.20312 -0.30031
 H93 H 0.74994 0.20587 -0.30388
 C94 C 0.70184 0.18117 -0.31695
 H95 H 0.71492 0.16701 -0.33311
 C96 C 0.67036 0.22002 -0.27625
 H97 H 0.65798 0.23546 -0.26066
 C98 C 0.64934 0.19847 -0.29251
 H99 H 0.62108 0.19727 -0.28888
 Zn100 Zn 0.73528 0.25060 -0.25811
 N101 N 0.70603 0.22161 -0.28010
 C102 C 0.78116 0.19353 -0.24211
 N103 N 0.76405 0.22228 -0.23317
 C104 C 0.76708 0.23182 -0.20607
 C105 C 0.78626 0.21131 -0.18653
 C106 C 0.80132 0.17261 -0.22330
 C107 C 0.74990 0.30057 -0.30221
 C108 C 0.77103 0.32100 -0.32069
 C109 C 0.82261 0.29285 -0.30023
 C110 C 0.80048 0.27391 -0.28156
 N111 N 0.76483 0.27799 -0.28285
 H112 H 0.77916 0.18661 -0.26376
 H113 H 0.75469 0.25545 -0.19944
 H114 H 0.78790 0.21897 -0.16494
 H115 H 0.81444 0.14956 -0.23053
 H116 H 0.72138 0.30271 -0.30331
 H117 H 0.75756 0.33772 -0.33618
 H118 H 0.85080 0.28938 -0.29748
 H119 H 0.81196 0.25591 -0.26597
 C120 C 0.66508 0.17853 -0.31309
 C121 C 0.66939 0.31985 -0.19842
 C122 C 0.80835 0.31739 -0.32034
 C123 C 0.80338 0.18120 -0.19506
 C124 C 1.17692 -0.23822 -0.19866
 H125 H 1.17763 -0.26643 -0.19534
 C126 C 1.15633 -0.21812 -0.18117
 H127 H 1.14165 -0.23126 -0.16425
 C128 C 1.19718 -0.18696 -0.22363
 H129 H 1.21379 -0.17462 -0.23962
 C130 C 1.17651 -0.16597 -0.20705
 H131 H 1.17681 -0.13788 -0.21132
 N132 N 1.19691 -0.22244 -0.21935
 C133 C 1.21923 -0.29964 -0.28169
 H134 H 1.24782 -0.29821 -0.28137
 C135 C 1.20219 -0.32072 -0.30071
 H136 H 1.21783 -0.33550 -0.31500
 C137 C 1.16418 -0.28064 -0.26432
 H138 H 1.14958 -0.26452 -0.25037
 C139 C 1.14598 -0.30100 -0.28343
 H140 H 1.11733 -0.30075 -0.28390
 Zn141 Zn 1.22674 -0.25084 -0.24079
 N142 N 1.20019 -0.28043 -0.26380
 C143 C 1.25841 -0.31301 -0.21719
 N144 N 1.25602 -0.27763 -0.21563
 C145 C 1.27446 -0.26036 -0.19594
 C146 C 1.29672 -0.27868 -0.17703
 C147 C 1.28087 -0.33225 -0.19911
 C148 C 1.23774 -0.20263 -0.28558
 C149 C 1.25673 -0.18241 -0.30549
 C150 C 1.31093 -0.20507 -0.28492
 C151 C 1.29084 -0.22425 -0.26492
 N152 N 1.25491 -0.22263 -0.26560
 H153 H 1.24316 -0.32650 -0.23257
 H154 H 1.27176 -0.23225 -0.19492
 H155 H 1.31052 -0.26438 -0.16120
 H156 H 1.28311 -0.36019 -0.20151
 H157 H 1.20911 -0.20242 -0.28599
 H158 H 1.24229 -0.16596 -0.32061
 H159 H 1.33942 -0.20772 -0.28454
 H160 H 1.30395 -0.24114 -0.24937
 C161 C 1.16512 -0.32139 -0.30187
 C162 C 1.15602 -0.18136 -0.18516
 C163 C 1.29390 -0.18377 -0.30566
 C164 C 1.30043 -0.31520 -0.17855
 C165 C 0.27528 0.19762 0.71656
 H166 H 0.24717 0.19398 0.71940
 C167 C 0.29303 0.17790 0.69718
 H168 H 0.27805 0.15990 0.68478
 C169 C 0.32880 0.22527 0.72933
 H170 H 0.34284 0.24337 0.74210
 C171 C 0.34764 0.20613 0.71003
 H172 H 0.37599 0.20979 0.70817
 N173 N 0.29305 0.22141 0.73171
 C174 C 0.20523 0.23277 0.78734
 H175 H 0.19571 0.25769 0.77875
 C176 C 0.18555 0.21422 0.80789
 H177 H 0.16136 0.22609 0.81473
 C178 C 0.25047 0.19022 0.79041
 H179 H 0.27613 0.18140 0.78374
 C180 C 0.23168 0.17071 0.81105
 H181 H 0.24298 0.14620 0.81884
 Zn182 Zn 0.26556 0.24977 0.75512
 N183 N 0.23711 0.22070 0.77918
 C184 C 0.21000 0.26396 0.71674
 N185 N 0.23577 0.27920 0.73210
 C186 C 0.24043 0.31463 0.73085
 C187 C 0.21996 0.33590 0.71262
 C188 C 0.18883 0.28424 0.69837
 C189 C 0.28907 0.27521 0.80612
 C190 C 0.30776 0.29651 0.82394
 C191 C 0.33888 0.32203 0.78366
 C192 C 0.31914 0.30049 0.76646
 N193 N 0.29471 0.27768 0.77789
 H194 H 0.20578 0.23599 0.71869
 H195 H 0.26020 0.32659 0.74371
 H196 H 0.22436 0.36398 0.71163
 H197 H 0.16919 0.27143 0.68575
 H198 H 0.26957 0.25716 0.81496
 H199 H 0.30274 0.29432 0.84634
 H200 H 0.35794 0.34037 0.77436
 H201 H 0.32281 0.30248 0.74392
 C202 C 0.19867 0.18267 0.82061
 C203 C 0.32963 0.18236 0.69342
 C204 C 0.33279 0.32042 0.81273
 C205 C 0.19409 0.32066 0.69581
 C206 C 0.78084 0.70288 0.70009
 H207 H 0.75299 0.70739 0.69618
 C208 C 0.79993 0.68167 0.68265
 H209 H 0.78656 0.67049 0.66501
 C210 C 0.83216 0.71382 0.72711
 H211 H 0.84457 0.72669 0.74434
 C212 C 0.85224 0.69237 0.71037
 H213 H 0.88000 0.68858 0.71518
 N214 N 0.79715 0.71856 0.72167
 C215 C 0.71388 0.73678 0.78156
 H216 H 0.71316 0.76513 0.78088
 C217 C 0.69156 0.71747 0.79980
 H218 H 0.67440 0.73177 0.81329
 C219 C 0.73948 0.68472 0.76597
 H220 H 0.75843 0.67207 0.75291
 C221 C 0.71826 0.66436 0.78436
 H222 H 0.72062 0.63615 0.78418
 Zn223 Zn 0.76871 0.74793 0.74261
 N224 N 0.73704 0.72024 0.76499
 C225 C 0.70774 0.77518 0.71505
 N226 N 0.74359 0.77760 0.71645
 C227 C 0.76197 0.79892 0.69792
 C228 C 0.74412 0.81986 0.67764
 C229 C 0.68891 0.79536 0.69504
 C230 C 0.80998 0.75566 0.79045
 C231 C 0.82796 0.77318 0.81133
 C232 C 0.81923 0.82752 0.78429
 C233 C 0.80087 0.80904 0.76418
 N234 N 0.79653 0.77374 0.76762
 H235 H 0.69359 0.75700 0.72900
 H236 H 0.79057 0.79956 0.69884
 H237 H 0.75918 0.83717 0.66348
 H238 H 0.66044 0.79241 0.69408
 H239 H 0.80573 0.72764 0.79286
 H240 H 0.83705 0.75835 0.82985
 H241 H 0.82257 0.85557 0.78095
 H242 H 0.78964 0.82310 0.74615
 C243 C 0.69379 0.68054 0.80190
 C244 C 0.83618 0.67618 0.68762
 C245 C 0.83245 0.80973 0.80861
 C246 C 0.70701 0.81836 0.67611
 C247 C 0.77406 0.20279 0.21375
 H248 H 0.74547 0.20323 0.21467
 C249 C 0.79094 0.18346 0.19364
 H250 H 0.77508 0.16897 0.17913
 C251 C 0.82930 0.22261 0.23083
 H252 H 0.84401 0.23830 0.24521
 C253 C 0.84731 0.20379 0.21084
 H254 H 0.87594 0.20466 0.21022
 N255 N 0.79331 0.22184 0.23178
 C256 C 0.71971 0.23994 0.30014
 H257 H 0.71996 0.26830 0.29951
 C258 C 0.70020 0.22147 0.32078
 H259 H 0.68518 0.23582 0.33576
 C260 C 0.74081 0.18697 0.28245
 H261 H 0.75721 0.17367 0.26779
 C262 C 0.72189 0.16739 0.30301
 H263 H 0.72331 0.13905 0.30368
 Zn264 Zn 0.76772 0.25033 0.25579
 N265 N 0.73936 0.22262 0.28136
 C266 C 0.70374 0.28415 0.23704
 N267 N 0.73896 0.28007 0.23234
 C268 C 0.75478 0.29554 0.20931
 C269 C 0.73524 0.31627 0.19008
 C270 C 0.68328 0.30505 0.21854
 C271 C 0.80215 0.26860 0.30507
 C272 C 0.82137 0.28967 0.32271
 C273 C 0.83673 0.32750 0.28247
 C274 C 0.81658 0.30594 0.26555
 N275 N 0.79908 0.27756 0.27718
 H276 H 0.69115 0.27095 0.25487
 H277 H 0.78247 0.29087 0.20536
 H278 H 0.74829 0.32734 0.17149
 H279 H 0.65545 0.30829 0.22296
 H280 H 0.78922 0.24535 0.31387
 H281 H 0.82269 0.28277 0.34502
 H282 H 0.84980 0.35057 0.27325
 H283 H 0.81427 0.31241 0.24332
 C284 C 0.70125 0.18472 0.32249
 C285 C 0.82803 0.18396 0.19189
 C286 C 0.83834 0.31977 0.31148
 C287 C 0.69893 0.32127 0.19453
 C288 C 0.28254 0.70596 0.19936
 H289 H 0.25467 0.71055 0.19559
 C290 C 0.30140 0.68466 0.18183
 H291 H 0.28785 0.67352 0.16427
 C292 C 0.33409 0.71666 0.22615
 H293 H 0.34675 0.72947 0.24329
 C294 C 0.35393 0.69508 0.20935
 H295 H 0.38168 0.69111 0.21409
 N296 N 0.29903 0.72147 0.22094
 C297 C 0.21778 0.73889 0.28278
 H298 H 0.21799 0.76721 0.28299
 C299 C 0.19589 0.71938 0.30123
 H300 H 0.17933 0.73287 0.31574
 C301 C 0.24046 0.68688 0.26449
 H302 H 0.25830 0.67431 0.25045
 C303 C 0.21921 0.66634 0.28275
 H304 H 0.22050 0.63805 0.28234
 Zn305 Zn 0.27064 0.75047 0.24237
 N306 N 0.23942 0.72246 0.26487
 C307 C 0.20909 0.77779 0.21569
 N308 N 0.24497 0.78016 0.21665
 C309 C 0.26305 0.80155 0.19800
 C310 C 0.24490 0.82239 0.17784
 C311 C 0.18995 0.79789 0.19581
 C312 C 0.31477 0.75860 0.28877
 C313 C 0.33323 0.77635 0.30928
 C314 C 0.31824 0.83092 0.28468
 C315 C 0.30000 0.81202 0.26479
 N316 N 0.29847 0.77653 0.26720
 H317 H 0.19520 0.75973 0.22993
 H318 H 0.29166 0.80230 0.19873
 H319 H 0.25975 0.83970 0.16354
 H320 H 0.16146 0.79493 0.19513
 H321 H 0.31248 0.73032 0.29055
 H322 H 0.34366 0.76046 0.32668
 H323 H 0.31978 0.85894 0.28067
 H324 H 0.28674 0.82593 0.24759
 C325 C 0.19672 0.68261 0.30153
 C326 C 0.33763 0.67888 0.18672
 C327 C 0.33488 0.81352 0.30814
 C328 C 0.20777 0.82077 0.17659
 O329 O 1.04353 0.01525 0.03592
 O330 O 0.91773 -0.04181 0.02149
 O331 O 0.95430 0.06734 0.01623
 O332 O 1.02473 -0.04988 0.03670
 O333 O 0.92328 0.02204 0.03256
 O334 O 1.06657 -0.03580 0.01014
 O335 O 0.96527 -0.05628 0.04216
 O336 O 1.01758 0.06339 0.02509
 C337 C 1.03612 0.04552 0.04202
 C338 C 0.93276 -0.05544 0.04229
 C339 C 0.93314 0.05328 0.03432
 C340 C 1.05666 -0.05237 0.03168
 O341 O 1.04007 -0.01227 -0.03605
 O342 O 0.91983 0.03847 -0.02036
 O343 O 1.02978 0.05118 -0.03029
 O344 O 0.95594 -0.07018 -0.01448
 O345 O 0.92349 -0.02590 -0.03072
 O346 O 1.07717 0.02976 -0.00993
 O347 O 1.02000 -0.06300 -0.02039
 O348 O 0.96846 0.05338 -0.03957
 Co349 Co 1.03937 0.00262 -0.00021
 Co350 Co 0.92726 -0.00168 0.00091
 Co351 Co 0.99197 0.05374 -0.00624
 Co352 Co 0.99126 -0.05553 0.01019
 O353 O 0.98561 -0.00187 0.00202
 C354 C 1.03477 -0.04418 -0.03965
 C355 C 0.93590 0.05145 -0.04107
 C356 C 1.06304 0.05361 -0.02673
 C357 C 0.93392 -0.05694 -0.03233
 O358 O 1.07410 0.51970 0.53234
 O359 O 0.95288 0.48275 0.53420
 O360 O 0.99576 0.56168 0.53121
 O361 O 1.03129 0.44146 0.53502
 O362 O 0.94661 0.54185 0.51728
 O363 O 1.08009 0.46085 0.51874
 O364 O 0.97183 0.43436 0.52024
 O365 O 1.05478 0.56787 0.51498
 C366 C 1.06889 0.55120 0.53513
 C367 C 0.95551 0.45079 0.53819
 C368 C 0.96399 0.55682 0.53558
 C369 C 1.06332 0.44585 0.53842
 O370 O 1.07310 0.48348 0.46369
 O371 O 0.95203 0.52045 0.46360
 O372 O 1.03127 0.56171 0.46119
 O373 O 0.99376 0.44212 0.46542
 O374 O 0.94545 0.46130 0.48073
 O375 O 1.08019 0.54209 0.47701
 O376 O 1.05313 0.43521 0.48082
 O377 O 0.97210 0.56885 0.47713
 Co378 Co 1.07082 0.50154 0.49801
 Co379 Co 0.95540 0.50161 0.49887
 Co380 Co 1.01342 0.55891 0.49633
 Co381 Co 1.01255 0.44444 0.50016
 O382 O 1.01303 0.50163 0.49836
 C383 C 1.06762 0.45200 0.46087
 C384 C 0.95496 0.55241 0.45951
 C385 C 1.06320 0.55727 0.45753
 C386 C 0.96187 0.44691 0.46176
 O387 O 0.54435 0.01420 0.53613
 O388 O 0.41809 -0.04214 0.52107
 O389 O 0.45531 0.06694 0.51717
 O390 O 0.52484 -0.05068 0.53647
 O391 O 0.42398 0.02152 0.53308
 O392 O 0.56674 -0.03686 0.50991
 O393 O 0.46544 -0.05639 0.54193
 O394 O 0.51863 0.06262 0.52572
 C395 C 0.53709 0.04443 0.54248
 C396 C 0.43295 -0.05555 0.54202
 C397 C 0.43425 0.05262 0.53527
 C398 C 0.55674 -0.05346 0.53141
 O399 O 0.54031 -0.01248 0.46392
 O400 O 0.42046 0.03906 0.48048
 O401 O 0.53080 0.05148 0.47021
 O402 O 0.45600 -0.06979 0.48506
 O403 O 0.42408 -0.02504 0.46904
 O404 O 0.57787 0.02858 0.49033
 O405 O 0.51991 -0.06320 0.47928
 O406 O 0.46901 0.05411 0.46103
 Co407 Co 0.53988 0.00192 0.49988
 Co408 Co 0.42780 -0.00160 0.50108
 Co409 Co 0.49285 0.05363 0.49436
 Co410 Co 0.49133 -0.05575 0.50993
 O411 O 0.48615 -0.00206 0.50212
 C412 C 0.53464 -0.04428 0.46007
 C413 C 0.43638 0.05286 0.46002
 C414 C 0.56417 0.05296 0.47379
 C415 C 0.43469 -0.05595 0.46695
 O416 O 0.57416 0.51808 0.03205
 O417 O 0.45329 0.48013 0.03491
 O418 O 0.49602 0.55936 0.03207
 O419 O 0.53097 0.43901 0.03508
 O420 O 0.44660 0.53929 0.01877
 O421 O 0.57969 0.45921 0.01891
 O422 O 0.47131 0.43195 0.02013
 O423 O 0.55475 0.56603 0.01460
 C424 C 0.56906 0.54960 0.03473
 C425 C 0.45559 0.44809 0.03855
 C426 C 0.46430 0.55450 0.03677
 C427 C 0.56297 0.44378 0.03846
 O428 O 0.57224 0.48118 -0.03637
 O429 O 0.45127 0.51882 -0.03541
 O430 O 0.52982 0.56009 -0.03848
 O431 O 0.49333 0.44021 -0.03447
 O432 O 0.44510 0.45962 -0.01903
 O433 O 0.57916 0.53988 -0.02370
 O434 O 0.55283 0.43293 -0.01888
 O435 O 0.47100 0.56703 -0.02146
 Co436 Co 0.57031 0.49960 -0.00216
 Co437 Co 0.45515 0.49948 -0.00031
 Co438 Co 0.51283 0.55695 -0.00312
 Co439 Co 0.51213 0.44226 0.00027
 O440 O 0.51261 0.49958 -0.00134
 C441 C 0.56730 0.44957 -0.03890
 C442 C 0.45397 0.55081 -0.03924
 C443 C 0.56163 0.55548 -0.04269
 C444 C 0.46144 0.44525 -0.03808
 C445 C 1.10355 0.11638 0.13157
 C446 C 1.09211 0.15010 0.13771
 C447 C 1.11167 0.16960 0.15665
 C448 C 1.14265 0.15576 0.16931
 C449 C 1.15337 0.12160 0.16326
 C450 C 1.13394 0.10182 0.14435
 C451 C 1.08406 0.09647 0.11059
 C452 C 1.09613 0.06320 0.10374
 C453 C 1.07887 0.04539 0.08241
 C454 C 1.05029 0.06110 0.06763
 C455 C 1.03774 0.09388 0.07556
 C456 C 1.05459 0.11173 0.09695
 C457 C 1.14465 0.06805 0.13752
 C458 C 1.12606 0.04907 0.11758
 C459 C 1.06183 0.16400 0.12425
 C460 C 1.04339 0.14515 0.10420
 H461 H 1.16794 0.05643 0.14734
 H462 H 1.13560 0.02339 0.11257
 H463 H 1.05264 0.18993 0.12890
 H464 H 1.02056 0.15710 0.09391
 H465 H 1.10341 0.19600 0.16080
 H466 H 1.17689 0.11052 0.17314
 H467 H 1.08878 0.02024 0.07637
 H468 H 1.01572 0.10612 0.06437
 C469 C 1.11852 0.62160 0.63208
 C470 C 1.10719 0.65592 0.63640
 C471 C 1.12127 0.67391 0.65895
 C472 C 1.14703 0.65804 0.67667
 C473 C 1.15752 0.62335 0.67239
 C474 C 1.14327 0.60495 0.65015
 C475 C 1.10502 0.60312 0.60769
 C476 C 1.11658 0.56892 0.60324
 C477 C 1.10428 0.55177 0.57966
 C478 C 1.08122 0.56894 0.56031
 C479 C 1.06984 0.60320 0.56515
 C480 C 1.08145 0.62032 0.58894
 C481 C 1.15388 0.57056 0.64522
 C482 C 1.14064 0.55278 0.62223
 C483 C 1.08285 0.67190 0.61757
 C484 C 1.07029 0.65444 0.59418
 H485 H 1.17284 0.55740 0.65909
 H486 H 1.14970 0.52638 0.61905
 H487 H 1.07386 0.69833 0.62067
 H488 H 1.05193 0.66789 0.57995
 H489 H 1.11343 0.70074 0.66198
 H490 H 1.17719 0.61098 0.68610
 H491 H 1.11314 0.52539 0.57609
 H492 H 1.05198 0.61651 0.55043
 C493 C 0.60424 0.11561 0.63185
 C494 C 0.59139 0.14846 0.63901
 C495 C 0.61090 0.16848 0.65764
 C496 C 0.64328 0.15607 0.66885
 C497 C 0.65537 0.12269 0.66186
 C498 C 0.63597 0.10238 0.64333
 C499 C 0.58482 0.09531 0.61107
 C500 C 0.59828 0.06297 0.60318
 C501 C 0.58107 0.04497 0.58194
 C502 C 0.55121 0.05966 0.56822
 C503 C 0.53729 0.09140 0.57722
 C504 C 0.55404 0.10939 0.59858
 C505 C 0.64806 0.06946 0.63554
 C506 C 0.62951 0.05007 0.61583
 C507 C 0.55979 0.16107 0.62676
 C508 C 0.54145 0.14188 0.60686
 H509 H 0.67240 0.05886 0.64437
 H510 H 0.64013 0.02513 0.61001
 H511 H 0.54952 0.18631 0.63220
 H512 H 0.51759 0.15289 0.59748
 H513 H 0.60156 0.19425 0.66260
 H514 H 0.68000 0.11272 0.67066
 H515 H 0.59202 0.02064 0.57504
 H516 H 0.51422 0.10278 0.56686
 C517 C 0.61854 0.62069 0.13139
 C518 C 0.60717 0.65503 0.13554
 C519 C 0.62106 0.67314 0.15810
 C520 C 0.64669 0.65736 0.17598
 C521 C 0.65726 0.62266 0.17184
 C522 C 0.64318 0.60414 0.14961
 C523 C 0.60519 0.60208 0.10702
 C524 C 0.61676 0.56783 0.10274
 C525 C 0.60452 0.55052 0.07922
 C526 C 0.58151 0.56756 0.05976
 C527 C 0.57017 0.60189 0.06441
 C528 C 0.58171 0.61917 0.08813
 C529 C 0.65384 0.56972 0.14483
 C530 C 0.64072 0.55180 0.12186
 C531 C 0.58295 0.67092 0.11656
 C532 C 0.57054 0.65334 0.09320
 H533 H 0.67272 0.55662 0.15881
 H534 H 0.64979 0.52537 0.11883
 H535 H 0.57393 0.69737 0.11955
 H536 H 0.55225 0.66671 0.07886
 H537 H 0.61317 0.69998 0.16102
 H538 H 0.67684 0.61036 0.18569
 H539 H 0.61335 0.52410 0.07580
 H540 H 0.55234 0.61511 0.04961
 C541 C 0.85272 -0.12756 0.12977
 C542 C 0.81894 -0.14055 0.12353
 C543 C 0.79987 -0.15923 0.14450
 C544 C 0.81382 -0.16428 0.17189
 C545 C 0.84771 -0.15066 0.17782
 C546 C 0.86742 -0.13264 0.15673
 C547 C 0.87317 -0.10850 0.10756
 C548 C 0.90745 -0.09642 0.11349
 C549 C 0.92708 -0.07903 0.09204
 C550 C 0.91222 -0.07314 0.06510
 C551 C 0.87760 -0.08488 0.05971
 C552 C 0.85813 -0.10298 0.08075
 C553 C 0.90159 -0.11970 0.16201
 C554 C 0.92135 -0.10209 0.14071
 C555 C 0.80490 -0.13471 0.09639
 C556 C 0.82408 -0.11603 0.07540
 H557 H 0.91326 -0.12347 0.18273
 H558 H 0.94770 -0.09281 0.14560
 H559 H 0.77881 -0.14456 0.09136
 H560 H 0.81227 -0.11200 0.05475
 H561 H 0.77434 -0.17023 0.13928
 H562 H 0.85869 -0.15380 0.19881
 H563 H 0.95368 -0.06987 0.09629
 H564 H 0.86615 -0.08064 0.03893
 C565 C 0.87287 0.37559 0.62264
 C566 C 0.84004 0.38903 0.63033
 C567 C 0.81844 0.36939 0.64918
 C568 C 0.82960 0.33657 0.66131
 C569 C 0.86353 0.32428 0.65357
 C570 C 0.88475 0.34327 0.63401
 C571 C 0.89501 0.39555 0.60194
 C572 C 0.92703 0.38122 0.59307
 C573 C 0.94710 0.39953 0.57233
 C574 C 0.93571 0.43234 0.56114
 C575 C 0.90414 0.44684 0.57098
 C576 C 0.88337 0.42827 0.59101
 C577 C 0.91740 0.33017 0.62515
 C578 C 0.93805 0.34869 0.60489
 C579 C 0.82939 0.42199 0.61903
 C580 C 0.85081 0.44140 0.59987
 H581 H 0.92689 0.30515 0.63369
 H582 H 0.96279 0.33741 0.59839
 H583 H 0.80423 0.43286 0.62498
 H584 H 0.84154 0.46663 0.59160
 H585 H 0.79377 0.38102 0.65535
 H586 H 0.87286 0.29878 0.66107
 H587 H 0.97142 0.38834 0.56484
 H588 H 0.89506 0.47193 0.56223
 C589 C 0.35313 -0.12719 0.62987
 C590 C 0.31937 -0.14028 0.62373
 C591 C 0.30043 -0.15900 0.64478
 C592 C 0.31452 -0.16397 0.67213
 C593 C 0.34838 -0.15022 0.67795
 C594 C 0.36795 -0.13217 0.65680
 C595 C 0.37346 -0.10815 0.60758
 C596 C 0.40773 -0.09599 0.61340
 C597 C 0.42728 -0.07870 0.59186
 C598 C 0.41236 -0.07300 0.56492
 C599 C 0.37773 -0.08475 0.55964
 C600 C 0.35833 -0.10277 0.58078
 C601 C 0.40210 -0.11913 0.66198
 C602 C 0.42174 -0.10153 0.64060
 C603 C 0.30521 -0.13455 0.59662
 C604 C 0.32428 -0.11589 0.57554
 H605 H 0.41386 -0.12281 0.68267
 H606 H 0.44810 -0.09219 0.64540
 H607 H 0.27913 -0.14448 0.59167
 H608 H 0.31240 -0.11198 0.55491
 H609 H 0.27491 -0.17008 0.63963
 H610 H 0.35946 -0.15330 0.69891
 H611 H 0.45390 -0.06951 0.59603
 H612 H 0.36623 -0.08064 0.53887
 C613 C 0.37337 0.37330 0.12358
 C614 C 0.34477 0.39019 0.13589
 C615 C 0.32300 0.37115 0.15500
 C616 C 0.33001 0.33566 0.16211
 C617 C 0.35916 0.31929 0.14993
 C618 C 0.38075 0.33791 0.13042
 C619 C 0.39567 0.39288 0.10280
 C620 C 0.42350 0.37568 0.08971
 C621 C 0.44364 0.39405 0.06906
 C622 C 0.43627 0.42942 0.06174
 C623 C 0.40894 0.44651 0.07571
 C624 C 0.38829 0.42826 0.09601
 C625 C 0.40928 0.32180 0.11733
 C626 C 0.43020 0.34031 0.09725
 C627 C 0.33842 0.42570 0.12871
 C628 C 0.35990 0.44446 0.10919
 H629 H 0.41526 0.29452 0.12243
 H630 H 0.45167 0.32677 0.08742
 H631 H 0.31655 0.43908 0.13815
 H632 H 0.35397 0.47177 0.10413
 H633 H 0.30080 0.38392 0.16454
 H634 H 0.36449 0.29189 0.15518
 H635 H 0.46476 0.38080 0.05850
 H636 H 0.40295 0.47367 0.07012
 C637 C 0.85926 0.12024 -0.13216
 C638 C 0.82290 0.12624 -0.12895
 C639 C 0.80472 0.14570 -0.14996
 C640 C 0.82254 0.15872 -0.17416
 C641 C 0.85876 0.15169 -0.17754
 C642 C 0.87742 0.13278 -0.15633
 C643 C 0.87884 0.10126 -0.10943
 C644 C 0.91550 0.09650 -0.11201
 C645 C 0.93420 0.07968 -0.08976
 C646 C 0.91632 0.06750 -0.06524
 C647 C 0.87942 0.07177 -0.06338
 C648 C 0.86062 0.08895 -0.08525
 C649 C 0.91397 0.12684 -0.15844
 C650 C 0.93272 0.10915 -0.13661
 C651 C 0.80555 0.11319 -0.10458
 C652 C 0.82407 0.09471 -0.08314
 H653 H 0.92831 0.13639 -0.17695
 H654 H 0.96096 0.10557 -0.13892
 H655 H 0.77747 0.11754 -0.10195
 H656 H 0.80976 0.08530 -0.06457
 H657 H 0.77678 0.15101 -0.14748
 H658 H 0.87249 0.16199 -0.19613
 H659 H 0.96258 0.07638 -0.09140
 H660 H 0.86542 0.06256 -0.04459
 C661 C 0.86863 0.62720 0.37765
 C662 C 0.87764 0.66170 0.36891
 C663 C 0.85523 0.68042 0.35015
 C664 C 0.82355 0.66515 0.34058
 C665 C 0.81497 0.63049 0.34985
 C666 C 0.83755 0.61133 0.36809
 C667 C 0.89192 0.60746 0.39752
 C668 C 0.88291 0.57290 0.40613
 C669 C 0.90461 0.55453 0.42553
 C670 C 0.93457 0.57084 0.43693
 C671 C 0.94350 0.60538 0.42786
 C672 C 0.92236 0.62376 0.40795
 C673 C 0.82950 0.57664 0.37712
 C674 C 0.85191 0.55768 0.39570
 C675 C 0.90876 0.67685 0.37927
 C676 C 0.93064 0.65827 0.39858
 H677 H 0.80564 0.56407 0.36981
 H678 H 0.84467 0.53104 0.40223
 H679 H 0.91606 0.70344 0.37267
 H680 H 0.95413 0.67108 0.40633
 H681 H 0.86264 0.70675 0.34290
 H682 H 0.79046 0.61851 0.34326
 H683 H 0.89745 0.52801 0.43254
 H684 H 0.96664 0.61797 0.43648
 C685 C 0.35749 0.12580 0.37234
 C686 C 0.32538 0.14141 0.37913
 C687 C 0.30673 0.16063 0.35830
 C688 C 0.31923 0.16410 0.33020
 C689 C 0.35124 0.14681 0.32379
 C690 C 0.37070 0.12839 0.34485
 C691 C 0.37776 0.10657 0.39456
 C692 C 0.41073 0.09215 0.38816
 C693 C 0.43032 0.07474 0.40967
 C694 C 0.41646 0.07099 0.43708
 C695 C 0.38307 0.08501 0.44291
 C696 C 0.36386 0.10326 0.42187
 C697 C 0.40353 0.11308 0.33910
 C698 C 0.42332 0.09552 0.36041
 C699 C 0.31237 0.13753 0.40672
 C700 C 0.33118 0.11857 0.42770
 H701 H 0.41421 0.11500 0.31799
 H702 H 0.44862 0.08442 0.35511
 H703 H 0.28743 0.14929 0.41217
 H704 H 0.32024 0.11620 0.44871
 H705 H 0.28139 0.17124 0.36406
 H706 H 0.36268 0.14946 0.30299
 H707 H 0.45595 0.06376 0.40510
 H708 H 0.37242 0.08243 0.46403
 C709 C 0.36862 0.62631 -0.12139
 C710 C 0.37790 0.66078 -0.13002
 C711 C 0.35583 0.67965 -0.14895
 C712 C 0.32419 0.66456 -0.15879
 C713 C 0.31533 0.62994 -0.14962
 C714 C 0.33758 0.61061 -0.13121
 C715 C 0.39157 0.60642 -0.10135
 C716 C 0.38231 0.57187 -0.09286
 C717 C 0.40375 0.55333 -0.07336
 C718 C 0.43367 0.56946 -0.06175
 C719 C 0.44282 0.60400 -0.07067
 C720 C 0.42196 0.62254 -0.09068
 C721 C 0.32927 0.57595 -0.12229
 C722 C 0.35137 0.55683 -0.10356
 C723 C 0.40897 0.67574 -0.11940
 C724 C 0.43052 0.65702 -0.09995
 H725 H 0.30544 0.56351 -0.12981
 H726 H 0.34394 0.53021 -0.09713
 H727 H 0.41648 0.70231 -0.12592
 H728 H 0.45399 0.66970 -0.09200
 H729 H 0.36347 0.70594 -0.15611
 H730 H 0.29084 0.61809 -0.15642
 H731 H 0.39644 0.52681 -0.06646
 H732 H 0.46596 0.61644 -0.06191
 C733 C 1.09895 -0.11834 -0.12814
 C734 C 1.08505 -0.15101 -0.13511
 C735 C 1.10323 -0.17108 -0.15431
 C736 C 1.13562 -0.15912 -0.16604
 C737 C 1.14897 -0.12609 -0.15882
 C738 C 1.13064 -0.10553 -0.14008
 C739 C 1.08060 -0.09767 -0.10724
 C740 C 1.09482 -0.06523 -0.09994
 C741 C 1.07828 -0.04654 -0.07898
 C742 C 1.04848 -0.06075 -0.06478
 C743 C 1.03413 -0.09290 -0.07282
 C744 C 1.04996 -0.11139 -0.09417
 C745 C 1.14377 -0.07271 -0.13259
 C746 C 1.12607 -0.05282 -0.11296
 C747 C 1.05360 -0.16326 -0.12229
 C748 C 1.03647 -0.14388 -0.10204
 H749 H 1.16814 -0.06246 -0.14176
 H750 H 1.13733 -0.02786 -0.10752
 H751 H 1.04251 -0.18837 -0.12753
 H752 H 1.01276 -0.15465 -0.09218
 H753 H 1.09223 -0.19606 -0.15996
 H754 H 1.17411 -0.11669 -0.16711
 H755 H 1.08968 -0.02199 -0.07266
 H756 H 1.01126 -0.10395 -0.06192
 C757 C 1.11919 0.38159 0.36504
 C758 C 1.10237 0.35076 0.35699
 C759 C 1.11638 0.33246 0.33472
 C760 C 1.14787 0.34394 0.32117
 C761 C 1.16395 0.37540 0.32934
 C762 C 1.14956 0.39444 0.35105
 C763 C 1.10532 0.40026 0.38910
 C764 C 1.12203 0.43124 0.39705
 C765 C 1.10906 0.44858 0.42021
 C766 C 1.08046 0.43438 0.43594
 C767 C 1.06415 0.40319 0.42779
 C768 C 1.07610 0.38633 0.40406
 C769 C 1.16544 0.42564 0.35952
 C770 C 1.15172 0.44390 0.38197
 C771 C 1.07238 0.33835 0.37186
 C772 C 1.05964 0.35567 0.39514
 H773 H 1.18879 0.43594 0.34880
 H774 H 1.16484 0.46779 0.38787
 H775 H 1.05907 0.31463 0.36581
 H776 H 1.03682 0.34490 0.40631
 H777 H 1.10302 0.30893 0.32836
 H778 H 1.18841 0.38450 0.31964
 H779 H 1.12179 0.47253 0.42646
 H780 H 1.04201 0.39226 0.43975
 C781 C 0.59768 -0.11818 0.37103
 C782 C 0.58329 -0.15053 0.36374
 C783 C 0.60133 -0.17070 0.34451
 C784 C 0.63400 -0.15912 0.33304
 C785 C 0.64780 -0.12639 0.34056
 C786 C 0.62968 -0.10577 0.35936
 C787 C 0.57955 -0.09747 0.39201
 C788 C 0.59432 -0.06541 0.39967
 C789 C 0.57805 -0.04676 0.42076
 C790 C 0.54796 -0.06064 0.43475
 C791 C 0.53297 -0.09234 0.42631
 C792 C 0.54856 -0.11080 0.40483
 C793 C 0.64332 -0.07329 0.36717
 C794 C 0.62586 -0.05337 0.38689
 C795 C 0.55150 -0.16236 0.37628
 C796 C 0.53452 -0.14292 0.39658
 H797 H 0.66793 -0.06336 0.35820
 H798 H 0.63753 -0.02870 0.39261
 H799 H 0.54002 -0.18719 0.37077
 H800 H 0.51049 -0.15335 0.40619
 H801 H 0.59002 -0.19546 0.33864
 H802 H 0.67317 -0.11732 0.33247
 H803 H 0.58990 -0.02255 0.42738
 H804 H 0.50981 -0.10309 0.43701
 C805 C 0.62195 0.37842 -0.13332
 C806 C 0.60632 0.34678 -0.14088
 C807 C 0.62093 0.32858 -0.16297
 C808 C 0.65178 0.34112 -0.17692
 C809 C 0.66676 0.37325 -0.16913
 C810 C 0.65178 0.39212 -0.14758
 C811 C 0.60730 0.39717 -0.10960
 C812 C 0.62280 0.42897 -0.10217
 C813 C 0.60909 0.44643 -0.07935
 C814 C 0.58085 0.43169 -0.06348
 C815 C 0.56574 0.39970 -0.07112
 C816 C 0.57852 0.38259 -0.09446
 C817 C 0.66647 0.42409 -0.13960
 C818 C 0.65205 0.44234 -0.11743
 C819 C 0.57682 0.33359 -0.12579
 C820 C 0.56332 0.35106 -0.10285
 H821 H 0.68940 0.43504 -0.15051
 H822 H 0.66424 0.46687 -0.11192
 H823 H 0.56444 0.30924 -0.13146
 H824 H 0.54087 0.33972 -0.09153
 H825 H 0.60845 0.30445 -0.16901
 H826 H 0.69074 0.38315 -0.17913
 H827 H 0.62097 0.47093 -0.07346
 H828 H 0.54392 0.38832 -0.05904
 C829 C 1.14216 0.12965 -0.11292
 C830 C 1.17876 0.12481 -0.11505
 C831 C 1.19736 0.14206 -0.13720
 C832 C 1.17972 0.16428 -0.15739
 C833 C 1.14261 0.16818 -0.15472
 C834 C 1.12392 0.15118 -0.13263
 C835 C 1.12246 0.11156 -0.08973
 C836 C 1.08576 0.11616 -0.08790
 C837 C 1.06697 0.09821 -0.06640
 C838 C 1.08443 0.07536 -0.04691
 C839 C 1.12142 0.07155 -0.04862
 C840 C 1.14057 0.08958 -0.07013
 C841 C 1.08715 0.15520 -0.13000
 C842 C 1.06840 0.13802 -0.10800
 C843 C 1.19609 0.10294 -0.09487
 C844 C 1.17733 0.08558 -0.07284
 H845 H 1.07272 0.17173 -0.14512
 H846 H 1.04004 0.14167 -0.10683
 H847 H 1.22440 0.09902 -0.09620
 H848 H 1.19169 0.06874 -0.05791
 H849 H 1.22579 0.13912 -0.13768
 H850 H 1.12762 0.18341 -0.17028
 H851 H 1.03851 0.10133 -0.06533
 H852 H 1.13507 0.05392 -0.03383
 C853 C 1.13712 0.62428 0.36428
 C854 C 1.17218 0.61469 0.35889
 C855 C 1.19120 0.63323 0.33774
 C856 C 1.17553 0.66147 0.32231
 C857 C 1.14016 0.67038 0.32771
 C858 C 1.12079 0.65182 0.34867
 C859 C 1.11746 0.60577 0.38724
 C860 C 1.08257 0.61570 0.39291
 C861 C 1.06444 0.59888 0.41541
 C862 C 1.08130 0.57289 0.43252
 C863 C 1.11606 0.56281 0.42623
 C864 C 1.13425 0.57912 0.40355
 C865 C 1.08565 0.66062 0.35467
 C866 C 1.06682 0.64280 0.37637
 C867 C 1.18778 0.58730 0.37520
 C868 C 1.16915 0.56984 0.39719
 H869 H 1.07272 0.68172 0.34269
 H870 H 1.03989 0.65064 0.38052
 H871 H 1.21479 0.57961 0.37120
 H872 H 1.18230 0.54919 0.40952
 H873 H 1.21854 0.62652 0.33393
 H874 H 1.12786 0.69186 0.31571
 H875 H 1.03768 0.60678 0.42014
 H876 H 1.12905 0.54259 0.43917
 C877 C 0.64408 0.12967 0.38860
 C878 C 0.67890 0.11965 0.38277
 C879 C 0.69737 0.13728 0.36075
 C880 C 0.68130 0.16492 0.34487
 C881 C 0.64631 0.17448 0.35098
 C882 C 0.62755 0.15689 0.37275
 C883 C 0.62444 0.11118 0.41160
 C884 C 0.58939 0.12077 0.41695
 C885 C 0.57040 0.10234 0.43812
 C886 C 0.58617 0.07455 0.45399
 C887 C 0.62168 0.06583 0.44889
 C888 C 0.64087 0.08391 0.42748
 C889 C 0.59257 0.16596 0.37897
 C890 C 0.57377 0.14813 0.40065
 C891 C 0.69453 0.09234 0.39919
 C892 C 0.67585 0.07481 0.42118
 H893 H 0.57954 0.18691 0.36687
 H894 H 0.54672 0.15574 0.40460
 H895 H 0.72139 0.08440 0.39497
 H896 H 0.68883 0.05378 0.43320
 H897 H 0.72442 0.13005 0.35635
 H898 H 0.63366 0.19547 0.33865
 H899 H 0.54307 0.10916 0.44185
 H900 H 0.63392 0.04425 0.46080
 C901 C 0.63419 0.62328 -0.13619
 C902 C 0.66700 0.61040 -0.14455
 C903 C 0.68603 0.62874 -0.16581
 C904 C 0.67311 0.66059 -0.17826
 C905 C 0.63966 0.67264 -0.16965
 C906 C 0.62011 0.65404 -0.14884
 C907 C 0.61464 0.60472 -0.11319
 C908 C 0.58177 0.61764 -0.10482
 C909 C 0.56383 0.60056 -0.08236
 C910 C 0.57912 0.57149 -0.06778
 C911 C 0.61188 0.55863 -0.07662
 C912 C 0.62963 0.57498 -0.09951
 C913 C 0.58690 0.66588 -0.14018
 C914 C 0.56796 0.64788 -0.11863
 C915 C 0.68065 0.57993 -0.13092
 C916 C 0.66236 0.56261 -0.10868
 H917 H 0.57560 0.68946 -0.14994
 H918 H 0.54260 0.65807 -0.11240
 H919 H 0.70598 0.56970 -0.13718
 H920 H 0.67408 0.53953 -0.09843
 H921 H 0.71196 0.61917 -0.17116
 H922 H 0.62820 0.69606 -0.17952
 H923 H 0.53864 0.61065 -0.07556
 H924 H 0.62363 0.53613 -0.06554
 C925 C 0.87724 -0.13386 -0.12367
 C926 C 0.89068 -0.16700 -0.12923
 C927 C 0.87657 -0.18517 -0.15174
 C928 C 0.84882 -0.17057 -0.16833
 C929 C 0.83571 -0.13729 -0.16220
 C930 C 0.84996 -0.11877 -0.14012
 C931 C 0.89179 -0.11465 -0.10003
 C932 C 0.87842 -0.08142 -0.09476
 C933 C 0.89237 -0.06309 -0.07252
 C934 C 0.91935 -0.07774 -0.05524
 C935 C 0.93215 -0.11142 -0.06049
 C936 C 0.91862 -0.12989 -0.08311
 C937 C 0.83719 -0.08550 -0.13405
 C938 C 0.85130 -0.06706 -0.11182
 C939 C 0.91773 -0.18135 -0.11200
 C940 C 0.93131 -0.16321 -0.08925
 H941 H 0.81615 -0.07359 -0.14663
 H942 H 0.84079 -0.04141 -0.10788
 H943 H 0.92833 -0.20694 -0.11601
 H944 H 0.95192 -0.17537 -0.07638
 H945 H 0.88724 -0.21054 -0.15633
 H946 H 0.81384 -0.12602 -0.17419
 H947 H 0.88205 -0.03731 -0.06870
 H948 H 0.95266 -0.12306 -0.04722
 C949 C 0.89032 0.38227 0.37101
 C950 C 0.85349 0.37746 0.37247
 C951 C 0.83658 0.35790 0.35221
 C952 C 0.85617 0.34347 0.33057
 C953 C 0.89282 0.34951 0.32867
 C954 C 0.91019 0.36861 0.34916
 C955 C 0.90853 0.40080 0.39337
 C956 C 0.94553 0.40417 0.39271
 C957 C 0.96284 0.42017 0.41483
 C958 C 0.94338 0.43256 0.43751
 C959 C 0.90624 0.43001 0.43737
 C960 C 0.88868 0.41381 0.41549
 C961 C 0.94709 0.37335 0.34881
 C962 C 0.96448 0.39077 0.37027
 C963 C 0.83446 0.39144 0.39459
 C964 C 0.85176 0.40945 0.41570
 H965 H 0.96273 0.36296 0.33210
 H966 H 0.99304 0.39335 0.36948
 H967 H 0.80602 0.38801 0.39581
 H968 H 0.83619 0.41945 0.43261
 H969 H 0.80829 0.35319 0.35352
 H970 H 0.90784 0.33808 0.31206
 H971 H 0.99140 0.42259 0.41459
 H972 H 0.89109 0.43959 0.45470
 C973 C 0.38040 -0.13116 0.37377
 C974 C 0.38993 -0.16610 0.37056
 C975 C 0.37530 -0.18440 0.34832
 C976 C 0.35072 -0.16825 0.32908
 C977 C 0.34231 -0.13252 0.33293
 C978 C 0.35687 -0.11416 0.35500
 C979 C 0.39492 -0.11208 0.39751
 C980 C 0.38483 -0.07724 0.40082
 C981 C 0.39811 -0.05934 0.42353
 C982 C 0.42129 -0.07594 0.44315
 C983 C 0.43137 -0.11093 0.43950
 C984 C 0.41825 -0.12912 0.41660
 C985 C 0.34764 -0.07912 0.35893
 C986 C 0.36142 -0.06096 0.38143
 C987 C 0.41383 -0.18218 0.38980
 C988 C 0.42770 -0.16404 0.41243
 H989 H 0.32945 -0.06566 0.34457
 H990 H 0.35351 -0.03402 0.38377
 H991 H 0.42164 -0.20916 0.38750
 H992 H 0.44579 -0.17752 0.42686
 H993 H 0.38448 -0.21081 0.34582
 H994 H 0.32261 -0.11892 0.32017
 H995 H 0.39020 -0.03240 0.42592
 H996 H 0.44920 -0.12395 0.45441
 C997 C 0.38803 0.38182 -0.12853
 C998 C 0.35089 0.38120 -0.12849
 C999 C 0.33300 0.36201 -0.14850
 C1000 C 0.35198 0.34356 -0.16840
 C1001 C 0.38916 0.34546 -0.16888
 C1002 C 0.40740 0.36430 -0.14871
 C1003 C 0.40697 0.40005 -0.10636
 C1004 C 0.44410 0.39942 -0.10564
 C1005 C 0.46190 0.41519 -0.08364
 C1006 C 0.44278 0.43118 -0.06238
 C1007 C 0.40562 0.43256 -0.06395
 C1008 C 0.38755 0.41678 -0.08579
 C1009 C 0.44456 0.36506 -0.14774
 C1010 C 0.46262 0.38230 -0.12652
 C1011 C 0.33238 0.39894 -0.10798
 C1012 C 0.35042 0.41653 -0.08700
 H1013 H 0.45981 0.35171 -0.16319
 H1014 H 0.49128 0.38177 -0.12623
 H1015 H 0.30371 0.39877 -0.10787
 H1016 H 0.33518 0.42946 -0.07131
 H1017 H 0.30433 0.36081 -0.14831
 H1018 H 0.40378 0.33105 -0.18409
 H1019 H 0.49052 0.41444 -0.08279
 H1020 H 0.39072 0.44503 -0.04778
 C1021 C 1.14654 -0.12038 0.11492
 C1022 C 1.17968 -0.13329 0.10729
 C1023 C 1.20008 -0.15199 0.12760
 C1024 C 1.18748 -0.15764 0.15535
 C1025 C 1.15457 -0.14353 0.16266
 C1026 C 1.13387 -0.12527 0.14252
 C1027 C 1.12432 -0.10198 0.09348
 C1028 C 1.09076 -0.09016 0.10107
 C1029 C 1.06919 -0.07388 0.08056
 C1030 C 1.08094 -0.06893 0.05260
 C1031 C 1.11502 -0.08010 0.04534
 C1032 C 1.13674 -0.09711 0.06575
 C1033 C 1.10045 -0.11232 0.14939
 C1034 C 1.07918 -0.09517 0.12897
 C1035 C 1.19139 -0.12774 0.07941
 C1036 C 1.17036 -0.10985 0.05904
 H1037 H 1.09044 -0.11589 0.17063
 H1038 H 1.05336 -0.08597 0.13504
 H1039 H 1.21694 -0.13749 0.07323
 H1040 H 1.18034 -0.10633 0.03778
 H1041 H 1.22519 -0.16294 0.12161
 H1042 H 1.14488 -0.14696 0.18401
 H1043 H 1.04314 -0.06499 0.08641
 H1044 H 1.12415 -0.07634 0.02384
 C1045 C 1.13637 0.37963 0.63242
 C1046 C 1.17250 0.38669 0.63636
 C1047 C 1.19098 0.36808 0.65774
 C1048 C 1.17366 0.34229 0.67489
 C1049 C 1.13723 0.33607 0.67100
 C1050 C 1.11846 0.35464 0.64975
 C1051 C 1.11718 0.39801 0.60919
 C1052 C 1.08122 0.39042 0.60490
 C1053 C 1.06345 0.40695 0.58214
 C1054 C 1.08156 0.43044 0.56347
 C1055 C 1.11742 0.43830 0.56840
 C1056 C 1.13539 0.42212 0.59126
 C1057 C 1.08231 0.34824 0.64512
 C1058 C 1.06398 0.36588 0.62309
 C1059 C 1.18961 0.41160 0.61840
 C1060 C 1.17136 0.42901 0.59621
 H1061 H 1.06816 0.32913 0.65842
 H1062 H 1.03621 0.35988 0.62003
 H1063 H 1.21746 0.41733 0.62128
 H1064 H 1.18565 0.44768 0.58261
 H1065 H 1.21909 0.37272 0.66036
 H1066 H 1.12363 0.31657 0.68433
 H1067 H 1.03582 0.40083 0.57854
 H1068 H 1.13144 0.45660 0.55428
 C1069 C 0.64625 -0.12219 0.61452
 C1070 C 0.67939 -0.13512 0.60692
 C1071 C 0.69969 -0.15398 0.62721
 C1072 C 0.68696 -0.15978 0.65490
 C1073 C 0.65408 -0.14561 0.66220
 C1074 C 0.63349 -0.12719 0.64209
 C1075 C 0.62411 -0.10365 0.59311
 C1076 C 0.59055 -0.09182 0.60069
 C1077 C 0.56907 -0.07540 0.58020
 C1078 C 0.58090 -0.07029 0.55228
 C1079 C 0.61498 -0.08149 0.54502
 C1080 C 0.63662 -0.09865 0.56542
 C1081 C 0.60007 -0.11423 0.64895
 C1082 C 0.57889 -0.09695 0.62855
 C1083 C 0.69118 -0.12944 0.57907
 C1084 C 0.67024 -0.11141 0.55872
 H1085 H 0.58999 -0.11790 0.67017
 H1086 H 0.55306 -0.08775 0.63460
 H1087 H 0.71674 -0.13920 0.57291
 H1088 H 0.68029 -0.10779 0.53749
 H1089 H 0.72479 -0.16496 0.62123
 H1090 H 0.64431 -0.14915 0.68352
 H1091 H 0.54302 -0.06649 0.58604
 H1092 H 0.62418 -0.07760 0.52356
 C1093 C 0.63813 0.37812 0.13152
 C1094 C 0.67247 0.38963 0.13782
 C1095 C 0.69181 0.37165 0.15905
 C1096 C 0.67733 0.34191 0.17358
 C1097 C 0.64259 0.33110 0.16718
 C1098 C 0.62285 0.34918 0.14626
 C1099 C 0.61815 0.39614 0.10855
 C1100 C 0.58394 0.38438 0.10207
 C1101 C 0.56549 0.40087 0.07963
 C1102 C 0.58144 0.42829 0.06331
 C1103 C 0.61557 0.44008 0.07031
 C1104 C 0.63398 0.42421 0.09305
 C1105 C 0.58840 0.33845 0.13939
 C1106 C 0.56920 0.35586 0.11774
 C1107 C 0.68703 0.41846 0.12238
 C1108 C 0.66815 0.43539 0.10030
 H1109 H 0.57627 0.31623 0.15068
 H1110 H 0.54281 0.34658 0.11295
 H1111 H 0.71345 0.42767 0.12711
 H1112 H 0.68053 0.45719 0.08864
 H1113 H 0.71822 0.38065 0.16408
 H1114 H 0.63127 0.30799 0.17781
 H1115 H 0.53923 0.39164 0.07432
 H1116 H 0.62783 0.46137 0.05794
 C1117 C 0.87620 0.12778 0.12633
 C1118 C 0.88882 0.16144 0.13180
 C1119 C 0.87376 0.17950 0.15386
 C1120 C 0.84607 0.16411 0.17008
 C1121 C 0.83436 0.13005 0.16457
 C1122 C 0.84923 0.11182 0.14273
 C1123 C 0.89111 0.10903 0.10272
 C1124 C 0.87818 0.07552 0.09728
 C1125 C 0.89205 0.05787 0.07478
 C1126 C 0.91863 0.07339 0.05750
 C1127 C 0.93136 0.10713 0.06318
 C1128 C 0.91770 0.12505 0.08592
 C1129 C 0.83726 0.07810 0.13673
 C1130 C 0.85153 0.06023 0.11439
 C1131 C 0.91576 0.17651 0.11478
 C1132 C 0.92995 0.15864 0.09224
 H1133 H 0.81653 0.06551 0.14928
 H1134 H 0.84147 0.03429 0.11037
 H1135 H 0.92580 0.20245 0.11878
 H1136 H 0.95055 0.17129 0.07958
 H1137 H 0.88272 0.20583 0.15784
 H1138 H 0.81346 0.11785 0.17721
 H1139 H 0.88198 0.03193 0.07075
 H1140 H 0.95187 0.11925 0.05011
 C1141 C 0.89420 0.61944 0.62751
 C1142 C 0.91053 0.64765 0.64043
 C1143 C 0.89187 0.66544 0.66074
 C1144 C 0.85718 0.65508 0.66826
 C1145 C 0.84183 0.62577 0.65584
 C1146 C 0.86002 0.60817 0.63518
 C1147 C 0.91279 0.60213 0.60485
 C1148 C 0.89579 0.57498 0.59101
 C1149 C 0.91283 0.55992 0.56845
 C1150 C 0.94671 0.57161 0.56002
 C1151 C 0.96381 0.59808 0.57469
 C1152 C 0.94678 0.61375 0.59691
 C1153 C 0.84433 0.58016 0.62149
 C1154 C 0.86187 0.56392 0.59969
 C1155 C 0.94481 0.65815 0.63222
 C1156 C 0.96272 0.64135 0.61091
 H1157 H 0.81800 0.57116 0.62731
 H1158 H 0.84862 0.54281 0.58933
 H1159 H 0.95776 0.67977 0.64213
 H1160 H 0.98898 0.65046 0.60500
 H1161 H 0.90387 0.68817 0.66980
 H1162 H 0.81547 0.61705 0.66185
 H1163 H 0.89970 0.53934 0.55736
 H1164 H 0.98986 0.60725 0.56826
 C1165 C 0.37915 0.12626 0.62841
 C1166 C 0.38897 0.16127 0.63207
 C1167 C 0.37361 0.17933 0.65399
 C1168 C 0.34844 0.16256 0.67195
 C1169 C 0.33976 0.12715 0.66836
 C1170 C 0.35484 0.10895 0.64658
 C1171 C 0.39397 0.10755 0.60476
 C1172 C 0.38354 0.07279 0.60094
 C1173 C 0.39695 0.05532 0.57818
 C1174 C 0.42061 0.07224 0.55904
 C1175 C 0.43116 0.10708 0.56329
 C1176 C 0.41783 0.12490 0.58619
 C1177 C 0.34554 0.07395 0.64229
 C1178 C 0.35966 0.05616 0.61984
 C1179 C 0.41333 0.17764 0.61336
 C1180 C 0.42755 0.15976 0.59084
 H1181 H 0.32689 0.06031 0.65622
 H1182 H 0.35157 0.02925 0.61711
 H1183 H 0.42123 0.20462 0.61598
 H1184 H 0.44605 0.17345 0.57682
 H1185 H 0.38025 0.20667 0.65646
 H1186 H 0.32091 0.11387 0.68234
 H1187 H 0.38874 0.02845 0.57535
 H1188 H 0.44952 0.12026 0.54884
 C1189 C 0.39507 0.62003 0.12757
 C1190 C 0.41178 0.64825 0.14020
 C1191 C 0.39324 0.66683 0.16010
 C1192 C 0.35831 0.65722 0.16755
 C1193 C 0.34254 0.62793 0.15541
 C1194 C 0.36060 0.60956 0.13513
 C1195 C 0.41357 0.60184 0.10533
 C1196 C 0.39620 0.57473 0.09174
 C1197 C 0.41314 0.55891 0.06949
 C1198 C 0.44732 0.56979 0.06114
 C1199 C 0.46480 0.59620 0.07562
 C1200 C 0.44787 0.61265 0.09750
 C1201 C 0.34453 0.58153 0.12172
 C1202 C 0.36198 0.56450 0.10029
 C1203 C 0.44634 0.65792 0.13212
 C1204 C 0.46416 0.64029 0.11121
 H1205 H 0.31798 0.57315 0.12746
 H1206 H 0.34843 0.54344 0.09011
 H1207 H 0.45957 0.67954 0.14181
 H1208 H 0.49064 0.64878 0.10538
 H1209 H 0.40558 0.68953 0.16894
 H1210 H 0.31600 0.61975 0.16138
 H1211 H 0.39964 0.53848 0.05849
 H1212 H 0.49107 0.60478 0.06924
   
