data_POSCAR
  _audit_creation_date              2014-09-24
  _audit_creation_method            'ToBaCCo'
  _symmetry_space_group_name_H-M    'P1'
  _symmetry_Int_Tables_number       1
  _symmetry_cell_setting            triclinic
  loop_
  _symmetry_equiv_pos_as_xyz
 x,y,z
_cell_length_a 62.7396
_cell_length_b 62.7438
_cell_length_c 62.7758
_cell_angle_alpha 89.997800
_cell_angle_beta 89.966600
_cell_angle_gamma 90.046800
loop_
  _atom_site_label
  _atom_site_type_symbol
  _atom_site_fract_x
  _atom_site_fract_y
  _atom_site_fract_z
C1 C 0.23737 1.06360 -0.01008
 C2 C 0.23630 1.06379 0.01173
 C3 C 0.24467 1.04454 0.01866
 N4 N 0.25063 1.03252 0.00181
 C5 C 0.24628 1.04422 -0.01575
 C6 C 0.24739 1.03854 0.04025
 C7 C 0.25073 1.01695 0.04613
 C8 C 0.25889 1.01015 0.06555
 C9 C 0.25857 0.98825 0.06529
 C10 C 0.25055 0.98226 0.04563
 N11 N 0.24587 0.99979 0.03400
 C12 C 0.24640 0.96107 0.03942
 C13 C 0.24354 0.95505 0.01801
 C14 C 0.23523 0.93574 0.01136
 C15 C 0.23650 0.93565 -0.01044
 C16 C 0.24606 0.95473 -0.01636
 N17 N 0.25013 0.96668 0.00111
 C18 C 0.25162 0.96073 -0.03743
 C19 C 0.25677 0.98222 -0.04236
 C20 C 0.26832 0.98887 -0.06004
 C21 C 0.26828 1.01077 -0.05983
 C22 C 0.25704 1.01690 -0.04186
 N23 N 0.25027 0.99946 -0.03114
 C24 C 0.25173 1.03812 -0.03667
 H25 H 0.23218 1.07627 -0.02055
 H26 H 0.22995 1.07660 0.02137
 H27 H 0.23967 0.99942 -0.01836
 H28 H 0.26454 1.01991 0.07859
 H29 H 0.26366 0.97791 0.07812
 H30 H 0.22880 0.92311 0.02121
 H31 H 0.23092 0.92297 -0.02070
 H32 H 0.27561 1.02103 -0.07162
 H33 H 0.23775 0.99995 0.01953
 H34 H 0.27587 0.97899 -0.07198
 C35 C 0.75802 0.48758 0.56542
 C36 C 0.75830 0.50944 0.56553
 C37 C 0.75351 0.51592 0.54497
 N38 N 0.75025 0.49877 0.53236
 C39 C 0.75317 0.48143 0.54478
 C40 C 0.75109 0.53735 0.53850
 C41 C 0.74785 0.54367 0.51712
 C42 C 0.74116 0.56379 0.51090
 C43 C 0.74083 0.56387 0.48900
 C44 C 0.74737 0.54381 0.48242
 N45 N 0.75175 0.53164 0.49966
 C46 C 0.75012 0.53771 0.46090
 C47 C 0.75282 0.51639 0.45421
 C48 C 0.75781 0.51021 0.43360
 C49 C 0.75795 0.48835 0.43349
 C50 C 0.75301 0.48190 0.45403
 N51 N 0.74976 0.49906 0.46663
 C52 C 0.75052 0.46047 0.46050
 C53 C 0.74747 0.45413 0.48191
 C54 C 0.74104 0.43393 0.48821
 C55 C 0.74096 0.43384 0.51011
 C56 C 0.74732 0.45399 0.51662
 N57 N 0.75142 0.46620 0.49932
 C58 C 0.75032 0.46013 0.53808
 H59 H 0.76092 0.47738 0.57903
 H60 H 0.76149 0.51941 0.57924
 H61 H 0.75876 0.48101 0.49939
 H62 H 0.73698 0.57707 0.52107
 H63 H 0.73638 0.57724 0.47907
 H64 H 0.76097 0.52038 0.42004
 H65 H 0.76122 0.47836 0.41982
 H66 H 0.73685 0.42039 0.52010
 H67 H 0.75921 0.51689 0.49950
 H68 H 0.73694 0.42058 0.47808
 C69 C 0.76320 1.01083 1.06319
 C70 C 0.76405 0.98903 1.06334
 C71 C 0.75494 0.98221 1.04442
 N72 N 0.74859 0.99913 1.03265
 C73 C 0.75335 1.01668 1.04429
 C74 C 0.75216 0.96060 1.03850
 C75 C 0.74944 0.95461 1.01689
 C76 C 0.74135 0.93521 1.00991
 C77 C 0.74269 0.93525 0.98806
 C78 C 0.75121 0.95477 0.98225
 N79 N 0.75522 0.96653 0.99988
 C80 C 0.75608 0.96083 0.96115
 C81 C 0.75931 0.98220 0.95511
 C82 C 0.76686 0.98883 0.93545
 C83 C 0.76566 1.01068 0.93540
 C84 C 0.75723 1.01656 0.95495
 N85 N 0.75343 0.99913 0.96699
 C86 C 0.75135 1.03743 0.96086
 C87 C 0.74539 1.04264 0.98193
 C88 C 0.73394 1.06060 0.98770
 C89 C 0.73291 1.06068 1.00956
 C90 C 0.74404 1.04289 1.01658
 N91 N 0.75129 1.03177 0.99959
 C92 C 0.74838 1.03787 1.03818
 H93 H 0.76943 1.02117 1.07550
 H94 H 0.77098 0.97931 1.07577
 H95 H 0.76179 1.01892 1.00016
 H96 H 0.73514 0.92232 1.01954
 H97 H 0.73787 0.92238 0.97764
 H98 H 0.77239 0.97895 0.92245
 H99 H 0.77016 1.02099 0.92233
 H100 H 0.72501 1.07259 1.01921
 H101 H 0.76347 0.98094 1.00041
 H102 H 0.72708 1.07247 0.97723
 C103 C 0.24106 0.43378 0.49034
 C104 C 0.24086 0.43370 0.51219
 C105 C 0.24588 0.45424 0.51861
 N106 N 0.24923 0.46681 0.50145
 C107 C 0.24616 0.45437 0.48414
 C108 C 0.24841 0.46073 0.54001
 C109 C 0.25161 0.48214 0.54627
 C110 C 0.25837 0.48844 0.56634
 C111 C 0.25855 0.51035 0.56640
 C112 C 0.25187 0.51686 0.54638
 N113 N 0.24754 0.49957 0.53425
 C114 C 0.24892 0.53835 0.54027
 C115 C 0.24604 0.54500 0.51897
 C116 C 0.24087 0.56556 0.51278
 C117 C 0.24063 0.56563 0.49094
 C118 C 0.24570 0.54512 0.48450
 N119 N 0.24912 0.53257 0.50165
 C120 C 0.24821 0.53864 0.46310
 C121 C 0.25148 0.51725 0.45683
 C122 C 0.25824 0.51099 0.43674
 C123 C 0.25849 0.48908 0.43668
 C124 C 0.25186 0.48254 0.45672
 N125 N 0.24749 0.49981 0.46886
 C126 C 0.24897 0.46103 0.46283
 H127 H 0.23789 0.42021 0.48018
 H128 H 0.23752 0.42005 0.52219
 H129 H 0.23997 0.49969 0.48358
 H130 H 0.26267 0.47830 0.57961
 H131 H 0.26301 0.52034 0.57973
 H132 H 0.23767 0.57912 0.52295
 H133 H 0.23722 0.57927 0.48094
 H134 H 0.26295 0.47912 0.42333
 H135 H 0.24000 0.49965 0.51954
 H136 H 0.26248 0.52115 0.42346
 C137 C 1.06495 0.23649 -0.01071
 C138 C 1.06480 0.23643 0.01109
 C139 C 1.04497 0.24389 0.01736
 N140 N 1.03287 0.24813 0.00004
 C141 C 1.04500 0.24352 -0.01719
 C142 C 1.03863 0.24747 0.03877
 C143 C 1.01702 0.25105 0.04446
 C144 C 1.01025 0.25973 0.06367
 C145 C 0.98837 0.25969 0.06336
 C146 C 0.98234 0.25135 0.04385
 N147 N 0.99984 0.24613 0.03239
 C148 C 0.96108 0.24759 0.03766
 C149 C 0.95494 0.24461 0.01629
 C150 C 0.93507 0.23757 0.00983
 C151 C 0.93512 0.23814 -0.01198
 C152 C 0.95495 0.24584 -0.01813
 N153 N 0.96711 0.24968 -0.00076
 C154 C 0.96139 0.24968 -0.03944
 C155 C 0.98306 0.25334 -0.04497
 C156 C 0.98990 0.26209 -0.06408
 C157 C 1.01175 0.26165 -0.06388
 C158 C 1.01786 0.25314 -0.04439
 N159 N 1.00021 0.24808 -0.03299
 C160 C 1.03908 0.24796 -0.03851
 H161 H 1.07843 0.23219 -0.02053
 H162 H 1.07793 0.23157 0.02115
 H163 H 0.99990 0.23916 -0.01902
 H164 H 1.02003 0.26555 0.07662
 H165 H 0.97807 0.26525 0.07603
 H166 H 0.92194 0.23246 0.01979
 H167 H 0.92205 0.23328 -0.02213
 H168 H 1.02182 0.26668 -0.07692
 H169 H 0.99993 0.23763 0.01816
 H170 H 0.98017 0.26796 -0.07704
 C171 C 0.48903 0.75714 0.56623
 C172 C 0.51089 0.75732 0.56619
 C173 C 0.51723 0.75238 0.54562
 N174 N 0.49999 0.74907 0.53314
 C175 C 0.48273 0.75211 0.54567
 C176 C 0.53862 0.74996 0.53901
 C177 C 0.54484 0.74691 0.51757
 C178 C 0.56502 0.74056 0.51114
 C179 C 0.56499 0.74048 0.48924
 C180 C 0.54478 0.74675 0.48286
 N181 N 0.53266 0.75080 0.50022
 C182 C 0.53852 0.74969 0.46142
 C183 C 0.51717 0.75238 0.45485
 C184 C 0.51087 0.75714 0.43423
 C185 C 0.48901 0.75728 0.43426
 C186 C 0.48267 0.75252 0.45488
 N187 N 0.49991 0.74939 0.46739
 C188 C 0.46129 0.75000 0.46151
 C189 C 0.45511 0.74681 0.48294
 C190 C 0.43504 0.74008 0.48932
 C191 C 0.43507 0.73986 0.51121
 C192 C 0.45516 0.74649 0.51764
 N193 N 0.46723 0.75082 0.50031
 C194 C 0.46137 0.74937 0.53911
 H195 H 0.47893 0.76029 0.57985
 H196 H 0.52096 0.76063 0.57979
 H197 H 0.48197 0.75834 0.50034
 H198 H 0.57844 0.73652 0.52119
 H199 H 0.57839 0.73640 0.47918
 H200 H 0.52098 0.76008 0.42056
 H201 H 0.47894 0.76038 0.42062
 H202 H 0.42176 0.73541 0.52125
 H203 H 0.51783 0.75808 0.50024
 H204 H 0.42170 0.73582 0.47925
 C205 C 0.06478 0.73846 0.01161
 C206 C 0.06520 0.73882 -0.01022
 C207 C 0.04507 0.74518 -0.01690
 N208 N 0.03254 0.74893 0.00022
 C209 C 0.04451 0.74476 0.01760
 C210 C 0.03932 0.75018 -0.03816
 C211 C 0.01824 0.75609 -0.04397
 C212 C 0.01241 0.76503 -0.06337
 C213 C -0.00941 0.76640 -0.06349
 C214 C -0.01654 0.75775 -0.04445
 N215 N 0.00040 0.75169 -0.03256
 C216 C -0.03828 0.75450 -0.03906
 C217 C -0.04490 0.75074 -0.01778
 C218 C -0.06448 0.74226 -0.01198
 C219 C -0.06483 0.74156 0.00979
 C220 C -0.04545 0.74963 0.01670
 N221 N -0.03316 0.75509 -0.00020
 C222 C -0.03947 0.75202 0.03834
 C223 C -0.01788 0.75480 0.04441
 C224 C -0.01112 0.76297 0.06382
 C225 C 0.01073 0.76183 0.06394
 C226 C 0.01677 0.75324 0.04452
 N227 N -0.00074 0.74904 0.03265
 C228 C 0.03801 0.74856 0.03876
 H229 H 0.07808 0.73462 0.02189
 H230 H 0.07908 0.73556 -0.01991
 H231 H -0.00114 0.74063 0.01837
 H232 H 0.02259 0.76971 -0.07644
 H233 H -0.01894 0.77270 -0.07639
 H234 H -0.07707 0.73669 -0.02236
 H235 H -0.07773 0.73534 0.01942
 H236 H 0.02101 0.76678 0.07688
 H237 H -0.00041 0.74263 -0.01871
 H238 H -0.02091 0.76913 0.07661
 C239 C 0.56650 0.25042 0.51121
 C240 C 0.56660 0.25156 0.48941
 C241 C 0.54546 0.25196 0.48299
 N242 N 0.53252 0.25121 0.50018
 C243 C 0.54530 0.25029 0.51747
 C244 C 0.53866 0.25245 0.46150
 C245 C 0.51707 0.25243 0.45480
 C246 C 0.51067 0.24992 0.43379
 C247 C 0.48880 0.25015 0.43370
 C248 C 0.48228 0.25272 0.45466
 N249 N 0.49964 0.25451 0.46737
 C250 C 0.46065 0.25312 0.46121
 C251 C 0.45366 0.25239 0.48262
 C252 C 0.43245 0.25190 0.48885
 C253 C 0.43235 0.25039 0.51063
 C254 C 0.45350 0.25009 0.51705
 N255 N 0.46644 0.25130 0.49989
 C256 C 0.46029 0.24941 0.53851
 C257 C 0.48185 0.24989 0.54523
 C258 C 0.48818 0.25259 0.56623
 C259 C 0.51004 0.25277 0.56633
 C260 C 0.51664 0.25009 0.54540
 N261 N 0.49932 0.24797 0.53268
 C262 C 0.53829 0.24988 0.53890
 H263 H 0.58048 0.24983 0.52128
 H264 H 0.58068 0.25196 0.47945
 H265 H 0.49941 0.24392 0.51670
 H266 H 0.52070 0.24779 0.41992
 H267 H 0.47885 0.24827 0.41975
 H268 H 0.41848 0.25241 0.47877
 H269 H 0.41828 0.24973 0.52060
 H270 H 0.51995 0.25495 0.58028
 H271 H 0.49959 0.25840 0.48339
 H272 H 0.47809 0.25459 0.58008
 C273 C 1.06502 -0.00993 0.25932
 C274 C 1.06492 0.01187 0.25875
 C275 C 1.04467 0.01801 0.25229
 N276 N 1.03260 0.00051 0.24843
 C277 C 1.04501 -0.01660 0.25270
 C278 C 1.03825 0.03933 0.24817
 C279 C 1.01684 0.04504 0.24349
 C280 C 1.01013 0.06504 0.23671
 C281 C 0.98824 0.06482 0.23671
 C282 C 0.98204 0.04480 0.24365
 N283 N 0.99953 0.03289 0.24779
 C284 C 0.96070 0.03875 0.24774
 C285 C 0.95429 0.01759 0.25187
 C286 C 0.93384 0.01147 0.25762
 C287 C 0.93395 -0.01036 0.25881
 C288 C 0.95443 -0.01681 0.25365
 N289 N 0.96680 0.00027 0.24931
 C290 C 0.96099 -0.03816 0.25141
 C291 C 0.98237 -0.04421 0.24783
 C292 C 0.98854 -0.06389 0.23998
 C293 C 1.01040 -0.06387 0.23945
 C294 C 1.01709 -0.04427 0.24733
 N295 N 0.99983 -0.03232 0.25231
 C296 C 1.03873 -0.03820 0.25014
 H297 H 1.07839 -0.01971 0.26406
 H298 H 1.07843 0.02192 0.26243
 H299 H 0.99997 -0.01783 0.26037
 H300 H 1.01982 0.07878 0.23290
 H301 H 0.97809 0.07817 0.23272
 H302 H 0.92020 0.02164 0.26042
 H303 H 0.92042 -0.02034 0.26271
 H304 H 1.02024 -0.07683 0.23376
 H305 H 0.99966 0.01845 0.25582
 H306 H 0.97833 -0.07686 0.23496
 C307 C 0.48966 0.56603 0.74158
 C308 C 0.51152 0.56593 0.74168
 C309 C 0.51770 0.54532 0.74663
 N310 N 0.50038 0.53287 0.74970
 C311 C 0.48321 0.54547 0.74650
 C312 C 0.53903 0.53864 0.74930
 C313 C 0.54515 0.51712 0.75208
 C314 C 0.56522 0.51058 0.75861
 C315 C 0.56513 0.48868 0.75837
 C316 C 0.54500 0.48240 0.75173
 N317 N 0.53297 0.49985 0.74777
 C318 C 0.53867 0.46099 0.74863
 C319 C 0.51724 0.45449 0.74619
 C320 C 0.51077 0.43388 0.74154
 C321 C 0.48890 0.43397 0.74180
 C322 C 0.48275 0.45466 0.74649
 N323 N 0.50009 0.46712 0.74933
 C324 C 0.46145 0.46135 0.74935
 C325 C 0.45531 0.48283 0.75230
 C326 C 0.43516 0.48934 0.75865
 C327 C 0.43525 0.51125 0.75854
 C328 C 0.45544 0.51756 0.75208
 N329 N 0.46750 0.50014 0.74816
 C330 C 0.46178 0.53898 0.74901
 H331 H 0.47966 0.57970 0.73834
 H332 H 0.52169 0.57952 0.73854
 H333 H 0.48231 0.50007 0.74081
 H334 H 0.57860 0.52055 0.76301
 H335 H 0.57842 0.47853 0.76259
 H336 H 0.52074 0.42015 0.73848
 H337 H 0.47872 0.42032 0.73901
 H338 H 0.42190 0.52138 0.76263
 H339 H 0.51821 0.49997 0.74034
 H340 H 0.42170 0.47936 0.76278
 C341 C 1.01210 1.06383 0.73859
 C342 C 0.99025 1.06393 0.73802
 C343 C 0.98369 1.04467 0.74654
 N344 N 1.00070 1.03292 0.75259
 C345 C 1.01813 1.04471 0.74796
 C346 C 0.96226 1.03870 0.74973
 C347 C 0.95606 1.01751 0.75399
 C348 C 0.93603 1.01130 0.76101
 C349 C 0.93593 0.98937 0.76123
 C350 C 0.95590 0.98286 0.75436
 N351 N 0.96806 1.00010 0.75000
 C352 C 0.96187 0.96156 0.75049
 C353 C 0.98315 0.95533 0.74703
 C354 C 0.98933 0.93591 0.73861
 C355 C 1.01119 0.93581 0.73876
 C356 C 1.01761 0.95494 0.74788
 N357 N 1.00039 0.96695 0.75269
 C358 C 1.03891 0.96087 0.75262
 C359 C 1.04410 0.98232 0.75764
 C360 C 1.06158 0.98861 0.76962
 C361 C 1.06166 1.01048 0.76978
 C362 C 1.04425 1.01706 0.75786
 N363 N 1.03333 0.99977 0.75086
 C364 C 1.03929 1.03861 0.75303
 H365 H 1.02232 1.07642 0.73270
 H366 H 0.98033 1.07660 0.73183
 H367 H 1.02061 0.99988 0.74019
 H368 H 0.92275 1.02149 0.76514
 H369 H 0.92254 0.97935 0.76553
 H370 H 0.97915 0.92328 0.73276
 H371 H 1.02114 0.92307 0.73279
 H372 H 1.07322 1.02043 0.77785
 H373 H 0.98274 0.99997 0.74230
 H374 H 1.07305 0.97846 0.77753
 C375 C 0.43345 0.48910 0.24146
 C376 C 0.43341 0.51096 0.24139
 C377 C 0.45400 0.51734 0.24624
 N378 N 0.46656 0.50014 0.24938
 C379 C 0.45407 0.48285 0.24633
 C380 C 0.46055 0.53874 0.24875
 C381 C 0.48199 0.54502 0.25176
 C382 C 0.48837 0.56518 0.25821
 C383 C 0.51029 0.56521 0.25821
 C384 C 0.51672 0.54506 0.25180
 N385 N 0.49936 0.53292 0.24773
 C386 C 0.53817 0.53889 0.24870
 C387 C 0.54480 0.51759 0.24577
 C388 C 0.56544 0.51140 0.24090
 C389 C 0.56548 0.48954 0.24058
 C390 C 0.54488 0.48310 0.24536
 N391 N 0.53232 0.50026 0.24865
 C392 C 0.53835 0.46168 0.24777
 C393 C 0.51694 0.45540 0.25102
 C394 C 0.51066 0.43527 0.25766
 C395 C 0.48875 0.43523 0.25805
 C396 C 0.48222 0.45534 0.25160
 N397 N 0.49950 0.46748 0.24721
 C398 C 0.46071 0.46151 0.24894
 H399 H 0.41983 0.47896 0.23835
 H400 H 0.41975 0.52099 0.23822
 H401 H 0.49937 0.48226 0.23979
 H402 H 0.47829 0.57854 0.26236
 H403 H 0.52032 0.57864 0.26232
 H404 H 0.57909 0.52157 0.23803
 H405 H 0.57916 0.47954 0.23738
 H406 H 0.47878 0.42187 0.26249
 H407 H 0.49937 0.51813 0.24034
 H408 H 0.52080 0.42194 0.26178
 O409 O 0.24912 0.19500 0.22139
 O410 O 0.27180 0.18869 0.25117
 O411 O 0.19332 0.22128 0.25171
 O412 O 0.18560 0.24898 0.27253
 O413 O 0.21935 0.25028 0.19531
 O414 O 0.24893 0.27371 0.18919
 O415 O 0.24970 0.27983 0.30571
 O416 O 0.22490 0.25211 0.31170
 O417 O 0.30388 0.25085 0.27991
 O418 O 0.31036 0.22664 0.24953
 O419 O 0.27849 0.30525 0.25087
 O420 O 0.24815 0.31215 0.22731
 O421 O 0.25038 0.30533 0.28004
 O422 O 0.22535 0.31178 0.24975
 O423 O 0.30395 0.27955 0.25140
 O424 O 0.31025 0.24911 0.22686
 O425 O 0.27842 0.25163 0.30562
 O426 O 0.24905 0.22680 0.31228
 O427 O 0.24860 0.22048 0.19560
 O428 O 0.27273 0.24988 0.18954
 O429 O 0.19370 0.25108 0.22092
 O430 O 0.18901 0.27589 0.25073
 O431 O 0.21873 0.19546 0.25129
 O432 O 0.24835 0.18933 0.27482
 Zr433 Zr 0.24776 0.21225 0.25014
 O434 O 0.26793 0.23042 0.26981
 Zr435 Zr 0.21060 0.24997 0.24991
 O436 O 0.22903 0.26965 0.26995
 Zr437 Zr 0.24807 0.24941 0.21250
 O438 O 0.26804 0.26939 0.23062
 Zr439 Zr 0.24952 0.25102 0.28869
 O440 O 0.22907 0.23110 0.27071
 Zr441 Zr 0.28681 0.25074 0.25109
 O442 O 0.26855 0.23054 0.23116
 Zr443 Zr 0.24956 0.28833 0.25114
 O444 O 0.22939 0.27028 0.23094
 O445 O 0.22808 0.22991 0.23026
 O446 O 0.26952 0.27086 0.27106
 C447 C 0.24919 0.20095 0.20178
 C448 C 0.19920 0.20164 0.25202
 C449 C 0.19979 0.25107 0.20135
 C450 C 0.25024 0.29937 0.29963
 C451 C 0.29797 0.25139 0.29950
 C452 C 0.29803 0.29915 0.25121
 H453 H 0.27679 0.22074 0.27850
 H454 H 0.27684 0.27813 0.22091
 H455 H 0.21888 0.22076 0.22129
 H456 H 0.21956 0.27844 0.27897
 H457 H 0.21391 0.24173 0.30714
 H458 H 0.19039 0.25708 0.28516
 H459 H 0.30742 0.26073 0.21660
 H460 H 0.28371 0.23972 0.19452
 H461 H 0.26040 0.21639 0.30898
 H462 H 0.23854 0.19454 0.28602
 H463 H 0.25887 0.30858 0.21632
 H464 H 0.23913 0.28503 0.19415
 H465 H 0.28344 0.19376 0.24179
 H466 H 0.30736 0.21621 0.26097
 H467 H 0.19346 0.28597 0.23944
 H468 H 0.21554 0.30937 0.26185
 O469 O 0.75023 0.80521 0.22084
 O470 O 0.72644 0.81125 0.25017
 O471 O 0.80517 0.77904 0.25100
 O472 O 0.81296 0.75130 0.27176
 O473 O 0.77909 0.74934 0.19467
 O474 O 0.74933 0.72650 0.18852
 O475 O 0.74865 0.72030 0.30514
 O476 O 0.77377 0.74784 0.31107
 O477 O 0.69471 0.74942 0.27957
 O478 O 0.68785 0.77306 0.24943
 O479 O 0.72028 0.69480 0.25061
 O480 O 0.75057 0.68809 0.22666
 O481 O 0.74892 0.69478 0.27947
 O482 O 0.77338 0.68840 0.24897
 O483 O 0.69474 0.72040 0.25118
 O484 O 0.68850 0.75105 0.22631
 O485 O 0.72026 0.74846 0.30517
 O486 O 0.74974 0.77339 0.31166
 O487 O 0.74897 0.77971 0.19509
 O488 O 0.72570 0.74990 0.18896
 O489 O 0.80480 0.75006 0.22019
 O490 O 0.80957 0.72446 0.24956
 O491 O 0.77968 0.80478 0.25117
 O492 O 0.74975 0.81092 0.27414
 Zr493 Zr 0.75072 0.78791 0.24957
 O494 O 0.73064 0.76969 0.26932
 Zr495 Zr 0.78794 0.75036 0.24920
 O496 O 0.76964 0.73059 0.26932
 Zr497 Zr 0.75033 0.75071 0.21192
 O498 O 0.73050 0.73067 0.23016
 Zr499 Zr 0.74912 0.74911 0.28814
 O500 O 0.76948 0.76913 0.27010
 Zr501 Zr 0.71175 0.74930 0.25070
 O502 O 0.72990 0.76955 0.23070
 Zr503 Zr 0.74916 0.71182 0.25059
 O504 O 0.76917 0.72996 0.23030
 O505 O 0.77033 0.77031 0.22957
 O506 O 0.72916 0.72921 0.27058
 C507 C 0.74922 0.79926 0.20126
 C508 C 0.79922 0.79864 0.25164
 C509 C 0.79869 0.74934 0.20066
 C510 C 0.74861 0.70074 0.29906
 C511 C 0.70070 0.74881 0.29913
 C512 C 0.70072 0.70082 0.25100
 H513 H 0.72180 0.77936 0.27804
 H514 H 0.72169 0.72189 0.22051
 H515 H 0.77948 0.77950 0.22057
 H516 H 0.77916 0.72184 0.27830
 H517 H 0.78482 0.75813 0.30646
 H518 H 0.80834 0.74290 0.28426
 H519 H 0.69077 0.73889 0.21655
 H520 H 0.71447 0.75971 0.19408
 H521 H 0.73811 0.78357 0.30865
 H522 H 0.75935 0.80573 0.28552
 H523 H 0.73945 0.69134 0.21599
 H524 H 0.75881 0.71497 0.19359
 H525 H 0.71523 0.80631 0.24024
 H526 H 0.69158 0.78418 0.25995
 H527 H 0.80527 0.71467 0.23796
 H528 H 0.78360 0.69120 0.26064
 O529 O 0.74934 0.19435 0.77948
 O530 O 0.72644 0.18802 0.74988
 O531 O 0.80515 0.22000 0.74802
 O532 O 0.81318 0.24771 0.72760
 O533 O 0.77993 0.24954 0.80493
 O534 O 0.75065 0.27326 0.81112
 O535 O 0.74845 0.27868 0.69462
 O536 O 0.77345 0.25091 0.68864
 O537 O 0.69468 0.25036 0.72099
 O538 O 0.68821 0.22632 0.75153
 O539 O 0.72086 0.30465 0.74937
 O540 O 0.75131 0.31149 0.77275
 O541 O 0.74918 0.30433 0.72013
 O542 O 0.77413 0.31069 0.75041
 O543 O 0.69516 0.27916 0.74934
 O544 O 0.68878 0.24889 0.77414
 O545 O 0.71996 0.25036 0.69509
 O546 O 0.74908 0.22566 0.68828
 O547 O 0.75023 0.21998 0.80509
 O548 O 0.72663 0.24967 0.81117
 O549 O 0.80536 0.24989 0.77908
 O550 O 0.80998 0.27462 0.74906
 O551 O 0.77957 0.19433 0.74949
 O552 O 0.74979 0.18832 0.72607
 Zr553 Zr 0.75071 0.21139 0.75060
 O554 O 0.73054 0.22960 0.73097
 Zr555 Zr 0.78821 0.24882 0.75024
 O556 O 0.76980 0.26853 0.73022
 Zr557 Zr 0.75105 0.24879 0.78798
 O558 O 0.73113 0.26881 0.76989
 Zr559 Zr 0.74896 0.24996 0.71179
 O560 O 0.76938 0.22997 0.72972
 Zr561 Zr 0.71201 0.25020 0.74969
 O562 O 0.73024 0.22998 0.76960
 Zr563 Zr 0.74964 0.28748 0.74912
 O564 O 0.76978 0.26939 0.76926
 O565 O 0.77074 0.22901 0.77019
 O566 O 0.72932 0.27007 0.72946
 C567 C 0.74936 0.20042 0.79905
 C568 C 0.79911 0.20040 0.74815
 C569 C 0.79944 0.25013 0.79870
 C570 C 0.74864 0.29827 0.70058
 C571 C 0.70046 0.25049 0.70135
 C572 C 0.70126 0.29871 0.74928
 H573 H 0.72153 0.21993 0.72242
 H574 H 0.72249 0.27769 0.77961
 H575 H 0.77991 0.21983 0.77914
 H576 H 0.77928 0.27717 0.72107
 H577 H 0.78434 0.24038 0.69308
 H578 H 0.80824 0.25543 0.71479
 H579 H 0.69173 0.26061 0.78425
 H580 H 0.71543 0.23967 0.80630
 H581 H 0.73805 0.21504 0.69203
 H582 H 0.75971 0.19331 0.71485
 H583 H 0.74068 0.30802 0.78387
 H584 H 0.76050 0.28447 0.80597
 H585 H 0.71488 0.19329 0.75924
 H586 H 0.69100 0.21582 0.74012
 H587 H 0.80590 0.28465 0.76053
 H588 H 0.78394 0.30807 0.73835
 O589 O 0.25068 0.80595 0.78004
 O590 O 0.27367 0.81188 0.75018
 O591 O 0.19493 0.77963 0.75117
 O592 O 0.18697 0.75199 0.73014
 O593 O 0.22166 0.75059 0.80695
 O594 O 0.25130 0.72742 0.81281
 O595 O 0.25029 0.72056 0.69625
 O596 O 0.22554 0.74827 0.69046
 O597 O 0.30498 0.74980 0.72101
 O598 O 0.31217 0.77377 0.75102
 O599 O 0.27977 0.69539 0.75075
 O600 O 0.24968 0.68880 0.77493
 O601 O 0.25122 0.69522 0.72207
 O602 O 0.22667 0.68899 0.75274
 O603 O 0.30532 0.72100 0.74954
 O604 O 0.31197 0.75171 0.77407
 O605 O 0.27914 0.74862 0.69572
 O606 O 0.24973 0.77359 0.68940
 O607 O 0.25190 0.78062 0.80593
 O608 O 0.27509 0.75080 0.81199
 O609 O 0.19571 0.75021 0.78172
 O610 O 0.19040 0.72510 0.75231
 O611 O 0.22046 0.80536 0.75028
 O612 O 0.24997 0.81133 0.72668
 Zr613 Zr 0.24942 0.78849 0.75144
 O614 O 0.26924 0.77016 0.73156
 Zr615 Zr 0.21217 0.75093 0.75250
 O616 O 0.23020 0.73104 0.73229
 Zr617 Zr 0.25021 0.75153 0.78931
 O618 O 0.26982 0.73139 0.77097
 Zr619 Zr 0.25048 0.74948 0.71309
 O620 O 0.23037 0.76959 0.73127
 Zr621 Zr 0.28833 0.74989 0.75008
 O622 O 0.27044 0.77025 0.77017
 Zr623 Zr 0.25092 0.71241 0.75087
 O624 O 0.23115 0.73065 0.77127
 O625 O 0.23003 0.77102 0.77180
 O626 O 0.27066 0.72969 0.73052
 C627 C 0.25188 0.80013 0.79965
 C628 C 0.20090 0.79923 0.75031
 C629 C 0.20199 0.75000 0.80121
 C630 C 0.25084 0.70105 0.70245
 C631 C 0.29878 0.74904 0.70152
 C632 C 0.29932 0.70142 0.74999
 H633 H 0.27799 0.77977 0.72268
 H634 H 0.27873 0.72268 0.78057
 H635 H 0.22104 0.78023 0.78091
 H636 H 0.22055 0.72223 0.72349
 H637 H 0.21463 0.75866 0.69515
 H638 H 0.19139 0.74345 0.71766
 H639 H 0.30971 0.73970 0.78404
 H640 H 0.28634 0.76050 0.80665
 H641 H 0.26137 0.78382 0.69228
 H642 H 0.24018 0.80603 0.71551
 H643 H 0.26077 0.69225 0.78558
 H644 H 0.24156 0.71598 0.80798
 H645 H 0.28516 0.80694 0.75978
 H646 H 0.30859 0.78458 0.74013
 H647 H 0.19505 0.71506 0.76355
 H648 H 0.21660 0.69147 0.74089
 O649 O 0.24999 0.30461 0.72241
 O650 O 0.22695 0.31059 0.75220
 O651 O 0.30583 0.27885 0.75188
 O652 O 0.31401 0.25126 0.77271
 O653 O 0.27935 0.24915 0.69598
 O654 O 0.24979 0.22591 0.69016
 O655 O 0.25101 0.21979 0.80681
 O656 O 0.27531 0.24790 0.81245
 O657 O 0.19592 0.24836 0.78171
 O658 O 0.18864 0.27214 0.75157
 O659 O 0.22150 0.19402 0.75231
 O660 O 0.25168 0.18747 0.72837
 O661 O 0.24983 0.19428 0.78114
 O662 O 0.27466 0.18805 0.75060
 O663 O 0.19579 0.21944 0.75352
 O664 O 0.18903 0.24991 0.72863
 O665 O 0.22167 0.24773 0.80710
 O666 O 0.25088 0.27282 0.81336
 O667 O 0.24917 0.27910 0.69670
 O668 O 0.22590 0.24919 0.69086
 O669 O 0.30529 0.24937 0.72123
 O670 O 0.31061 0.22432 0.75080
 O671 O 0.28019 0.30444 0.75221
 O672 O 0.25060 0.31034 0.77576
 Zr673 Zr 0.25131 0.28736 0.75114
 O674 O 0.23156 0.26900 0.77111
 Zr675 Zr 0.28876 0.25004 0.75042
 O676 O 0.27080 0.23017 0.77073
 Zr677 Zr 0.25079 0.25013 0.71354
 O678 O 0.23127 0.22996 0.73196
 Zr679 Zr 0.25039 0.24860 0.78978
 O680 O 0.27042 0.26873 0.77149
 Zr681 Zr 0.21263 0.24845 0.75270
 O682 O 0.23042 0.26883 0.73251
 Zr683 Zr 0.25023 0.21126 0.75224
 O684 O 0.26993 0.22950 0.73174
 O685 O 0.27084 0.26988 0.73095
 O686 O 0.23037 0.22853 0.77245
 C687 C 0.24901 0.29866 0.70283
 C688 C 0.29978 0.29843 0.75249
 C689 C 0.29901 0.24886 0.70174
 C690 C 0.25043 0.20025 0.80071
 C691 C 0.20205 0.24788 0.80123
 C692 C 0.20191 0.19991 0.75313
 H693 H 0.22273 0.27861 0.77990
 H694 H 0.22243 0.22111 0.72240
 H695 H 0.27983 0.27910 0.72182
 H696 H 0.28050 0.22150 0.77960
 H697 H 0.28616 0.25832 0.80764
 H698 H 0.30951 0.24300 0.78536
 H699 H 0.19135 0.23780 0.71881
 H700 H 0.21466 0.25892 0.69612
 H701 H 0.23936 0.28310 0.81022
 H702 H 0.26045 0.30522 0.78695
 H703 H 0.24065 0.19079 0.71762
 H704 H 0.25953 0.21452 0.69508
 H705 H 0.21548 0.30547 0.74265
 H706 H 0.19213 0.28304 0.76240
 H707 H 0.30610 0.21425 0.73953
 H708 H 0.28460 0.19061 0.76256
 O709 O 0.75190 0.69455 0.71972
 O710 O 0.77495 0.68824 0.74916
 O711 O 0.69618 0.72017 0.75031
 O712 O 0.68836 0.74758 0.77149
 O713 O 0.72175 0.75007 0.69416
 O714 O 0.75117 0.77346 0.68802
 O715 O 0.75263 0.77870 0.80471
 O716 O 0.72779 0.75096 0.81057
 O717 O 0.80662 0.75137 0.77842
 O718 O 0.81322 0.72653 0.74826
 O719 O 0.78065 0.80484 0.75040
 O720 O 0.75024 0.81162 0.72653
 O721 O 0.75279 0.80440 0.77921
 O722 O 0.72744 0.81088 0.74913
 O723 O 0.80636 0.77941 0.74928
 O724 O 0.81277 0.74876 0.72531
 O725 O 0.78125 0.75011 0.80425
 O726 O 0.75184 0.72554 0.81076
 O727 O 0.75150 0.72019 0.69412
 O728 O 0.77509 0.74997 0.68811
 O729 O 0.69622 0.75005 0.71987
 O730 O 0.69146 0.77474 0.74979
 O731 O 0.72178 0.69454 0.74992
 O732 O 0.75174 0.68846 0.77305
 Zr733 Zr 0.75069 0.71159 0.74857
 O734 O 0.77082 0.72978 0.76828
 Zr735 Zr 0.71325 0.74898 0.74877
 O736 O 0.73159 0.76865 0.76893
 Zr737 Zr 0.75057 0.74904 0.71121
 O738 O 0.77043 0.76907 0.72940
 Zr739 Zr 0.75229 0.75002 0.78743
 O740 O 0.73192 0.73009 0.76937
 Zr741 Zr 0.78946 0.75044 0.74964
 O742 O 0.77127 0.73021 0.72966
 Zr743 Zr 0.75188 0.78765 0.75020
 O744 O 0.73181 0.76960 0.72991
 O745 O 0.73080 0.72922 0.72888
 O746 O 0.77205 0.77017 0.76988
 C747 C 0.75214 0.70060 0.70014
 C748 C 0.70221 0.70059 0.75065
 C749 C 0.70219 0.75051 0.70026
 C750 C 0.75301 0.79829 0.79875
 C751 C 0.80074 0.75094 0.79803
 C752 C 0.80024 0.79893 0.74990
 H753 H 0.77979 0.72012 0.77687
 H754 H 0.77910 0.77796 0.71970
 H755 H 0.72165 0.72006 0.71985
 H756 H 0.72211 0.77729 0.77808
 H757 H 0.71674 0.74068 0.80595
 H758 H 0.69302 0.75582 0.78408
 H759 H 0.80967 0.76015 0.71486
 H760 H 0.78613 0.73975 0.69284
 H761 H 0.76306 0.71508 0.80720
 H762 H 0.74175 0.69331 0.78426
 H763 H 0.76129 0.80849 0.71574
 H764 H 0.74166 0.78487 0.69331
 H765 H 0.78664 0.69374 0.74010
 H766 H 0.81060 0.71638 0.76002
 H767 H 0.69581 0.78491 0.73853
 H768 H 0.71777 0.80833 0.76131
 O769 O 0.24848 0.69447 0.28041
 O770 O 0.22528 0.68828 0.25090
 O771 O 0.30397 0.72064 0.25043
 O772 O 0.31187 0.74820 0.22955
 O773 O 0.27778 0.74982 0.30659
 O774 O 0.24827 0.77323 0.31258
 O775 O 0.24717 0.77921 0.19602
 O776 O 0.27269 0.75192 0.19014
 O777 O 0.19359 0.75056 0.22156
 O778 O 0.18670 0.72654 0.25176
 O779 O 0.21925 0.80488 0.25083
 O780 O 0.24949 0.81170 0.27432
 O781 O 0.24771 0.80479 0.22164
 O782 O 0.27245 0.81110 0.25215
 O783 O 0.19362 0.77930 0.24971
 O784 O 0.18720 0.74882 0.27476
 O785 O 0.21919 0.75042 0.19596
 O786 O 0.24882 0.72614 0.18954
 O787 O 0.24764 0.71998 0.30611
 O788 O 0.22441 0.74980 0.31218
 O789 O 0.30349 0.75028 0.28107
 O790 O 0.30842 0.77522 0.25131
 O791 O 0.27846 0.69487 0.25032
 O792 O 0.24865 0.68872 0.22706
 Zr793 Zr 0.24949 0.71172 0.25167
 O794 O 0.22944 0.72991 0.23190
 Zr795 Zr 0.28675 0.74932 0.25202
 O796 O 0.26851 0.76902 0.23183
 Zr797 Zr 0.24908 0.74894 0.28926
 O798 O 0.22933 0.76898 0.27100
 Zr799 Zr 0.24800 0.75042 0.21305
 O800 O 0.26832 0.73048 0.23113
 Zr801 Zr 0.21056 0.75038 0.25045
 O802 O 0.22864 0.73012 0.27047
 Zr803 Zr 0.24806 0.78781 0.25056
 O804 O 0.26798 0.76971 0.27089
 O805 O 0.26910 0.72934 0.27165
 O806 O 0.22807 0.77040 0.23056
 C807 C 0.24757 0.70042 0.30000
 C808 C 0.29802 0.70103 0.24984
 C809 C 0.29738 0.75049 0.30063
 C810 C 0.24719 0.79878 0.20207
 C811 C 0.19962 0.75055 0.20199
 C812 C 0.19969 0.79885 0.25014
 H813 H 0.22060 0.72022 0.22320
 H814 H 0.22053 0.77778 0.28064
 H815 H 0.27820 0.72017 0.28069
 H816 H 0.27803 0.77776 0.22281
 H817 H 0.28373 0.74161 0.19468
 H818 H 0.30728 0.75644 0.21693
 H819 H 0.18950 0.76101 0.28449
 H820 H 0.21312 0.74007 0.30701
 H821 H 0.23763 0.71556 0.19291
 H822 H 0.25864 0.69372 0.21591
 H823 H 0.23885 0.80809 0.28538
 H824 H 0.25813 0.78452 0.30765
 H825 H 0.21377 0.69342 0.26037
 H826 H 0.19008 0.71574 0.24079
 H827 H 0.30409 0.78519 0.26274
 H828 H 0.28233 0.80862 0.24012
 O829 O 0.74964 0.30438 0.27817
 O830 O 0.77263 0.31057 0.24845
 O831 O 0.69374 0.27879 0.24797
 O832 O 0.68568 0.25128 0.22701
 O833 O 0.71963 0.24889 0.30406
 O834 O 0.74909 0.22554 0.31000
 O835 O 0.74969 0.21993 0.19340
 O836 O 0.72483 0.24772 0.18764
 O837 O 0.80391 0.24859 0.21912
 O838 O 0.81084 0.27218 0.24954
 O839 O 0.77797 0.19400 0.24766
 O840 O 0.74775 0.18730 0.27171
 O841 O 0.74905 0.19429 0.21895
 O842 O 0.72478 0.18792 0.24958
 O843 O 0.80369 0.21947 0.24733
 O844 O 0.81029 0.24978 0.27225
 O845 O 0.77836 0.24781 0.19351
 O846 O 0.74915 0.27305 0.18713
 O847 O 0.74951 0.27876 0.30379
 O848 O 0.77302 0.24898 0.30963
 O849 O 0.69391 0.24919 0.27859
 O850 O 0.68881 0.22427 0.24884
 O851 O 0.71942 0.30437 0.24807
 O852 O 0.74918 0.31040 0.22482
 Zr853 Zr 0.74826 0.28729 0.24931
 O854 O 0.76818 0.26903 0.22946
 Zr855 Zr 0.71072 0.24996 0.24954
 O856 O 0.72884 0.23018 0.22931
 Zr857 Zr 0.74833 0.24991 0.28676
 O858 O 0.76800 0.22984 0.26843
 Zr859 Zr 0.74951 0.24866 0.21055
 O860 O 0.72933 0.26871 0.22872
 Zr861 Zr 0.78689 0.24844 0.24799
 O862 O 0.76892 0.26871 0.26809
 Zr863 Zr 0.74919 0.21119 0.24792
 O864 O 0.72932 0.22934 0.26831
 O865 O 0.72848 0.26974 0.26922
 O866 O 0.76932 0.22855 0.22801
 C867 C 0.75007 0.29834 0.29775
 C868 C 0.69983 0.29836 0.24751
 C869 C 0.70002 0.24864 0.29814
 C870 C 0.74940 0.20035 0.19940
 C871 C 0.79792 0.24804 0.19956
 C872 C 0.79758 0.19993 0.24731
 H873 H 0.77710 0.27868 0.22078
 H874 H 0.77675 0.22095 0.27803
 H875 H 0.71943 0.27894 0.27829
 H876 H 0.71922 0.22154 0.22030
 H877 H 0.71393 0.25815 0.19226
 H878 H 0.69028 0.24307 0.21438
 H879 H 0.80767 0.23782 0.28218
 H880 H 0.78420 0.25892 0.30459
 H881 H 0.76083 0.28316 0.19024
 H882 H 0.73949 0.30526 0.21348
 H883 H 0.75886 0.19051 0.28241
 H884 H 0.73944 0.21415 0.30488
 H885 H 0.78407 0.30542 0.25800
 H886 H 0.80759 0.28304 0.23860
 H887 H 0.69305 0.21425 0.26026
 H888 H 0.71457 0.19081 0.23794
 C889 C 0.24778 0.08646 0.08819
 C890 C 0.25986 0.08887 0.06947
 C891 C 0.25952 0.07326 0.05363
 C892 C 0.24741 0.05453 0.05621
 C893 C 0.23548 0.05202 0.07505
 C894 C 0.23550 0.06785 0.09072
 C895 C 0.24800 0.10327 0.10497
 C896 C 0.24637 0.09787 0.12666
 C897 C 0.24651 0.11367 0.14236
 C898 C 0.24864 0.13530 0.13683
 C899 C 0.25044 0.14067 0.11515
 C900 C 0.24993 0.12492 0.09945
 C901 C 0.24890 0.15218 0.15355
 C902 C 0.23994 0.17235 0.14956
 C903 C 0.24034 0.18825 0.16513
 C904 C 0.24933 0.18425 0.18520
 C905 C 0.25810 0.16410 0.18936
 C906 C 0.25808 0.14831 0.17365
 H907 H 0.26994 0.10268 0.06714
 H908 H 0.26933 0.07552 0.03960
 H909 H 0.22562 0.03803 0.07740
 H910 H 0.22561 0.06560 0.10466
 H911 H 0.24520 0.08139 0.13161
 H912 H 0.24474 0.10888 0.15883
 H913 H 0.25246 0.15708 0.11023
 H914 H 0.25087 0.12979 0.08294
 H915 H 0.23228 0.17582 0.13452
 H916 H 0.23320 0.20355 0.16159
 H917 H 0.26526 0.16065 0.20467
 H918 H 0.26551 0.13317 0.17721
 C919 C 0.75173 0.58615 0.58663
 C920 C 0.76895 0.58388 0.57244
 C921 C 0.76868 0.56806 0.55678
 C922 C 0.75128 0.55415 0.55512
 C923 C 0.73407 0.55629 0.56919
 C924 C 0.73426 0.57218 0.58478
 C925 C 0.75200 0.60300 0.60330
 C926 C 0.74377 0.59895 0.62374
 C927 C 0.74398 0.61478 0.63939
 C928 C 0.75252 0.63505 0.63502
 C929 C 0.76080 0.63908 0.61460
 C930 C 0.76050 0.62327 0.59892
 C931 C 0.75272 0.65191 0.65168
 C932 C 0.74863 0.67328 0.64635
 C933 C 0.74865 0.68910 0.66202
 C934 C 0.75264 0.68391 0.68344
 C935 C 0.75676 0.66254 0.68878
 C936 C 0.75687 0.64675 0.67308
 H937 H 0.78278 0.59414 0.57361
 H938 H 0.78210 0.56653 0.54602
 H939 H 0.72046 0.54572 0.56798
 H940 H 0.72059 0.57370 0.59521
 H941 H 0.73734 0.58343 0.62774
 H942 H 0.73722 0.61121 0.65485
 H943 H 0.76773 0.65442 0.61077
 H944 H 0.76673 0.62703 0.58328
 H945 H 0.74503 0.67776 0.63009
 H946 H 0.74524 0.70536 0.65737
 H947 H 0.76002 0.65800 0.70509
 H948 H 0.76043 0.63052 0.67769
 C949 C 0.75127 0.91295 0.08679
 C950 C 0.76342 0.91013 0.06816
 C951 C 0.76361 0.92568 0.05222
 C952 C 0.75194 0.94470 0.05460
 C953 C 0.74001 0.94760 0.07338
 C954 C 0.73950 0.93188 0.08912
 C955 C 0.75082 0.89624 0.10368
 C956 C 0.74905 0.90187 0.12531
 C957 C 0.74837 0.88621 0.14112
 C958 C 0.74984 0.86448 0.13583
 C959 C 0.75180 0.85886 0.11422
 C960 C 0.75211 0.87450 0.09837
 C961 C 0.74941 0.84779 0.15274
 C962 C 0.73998 0.82778 0.14891
 C963 C 0.73995 0.81201 0.16464
 C964 C 0.74896 0.81600 0.18471
 C965 C 0.75811 0.83603 0.18872
 C966 C 0.75851 0.85166 0.17286
 H967 H 0.77312 0.89604 0.06598
 H968 H 0.77344 0.92310 0.03826
 H969 H 0.73046 0.96181 0.07561
 H970 H 0.72954 0.93446 0.10296
 H971 H 0.74837 0.91842 0.13011
 H972 H 0.74650 0.89121 0.15752
 H973 H 0.75333 0.84235 0.10948
 H974 H 0.75315 0.86947 0.08191
 H975 H 0.73240 0.82431 0.13382
 H976 H 0.73264 0.79675 0.16119
 H977 H 0.76541 0.83946 0.20397
 H978 H 0.76632 0.86665 0.17631
 C979 C 0.24812 0.41254 0.58875
 C980 C 0.26546 0.41439 0.57463
 C981 C 0.26553 0.43002 0.55877
 C982 C 0.24834 0.44412 0.55681
 C983 C 0.23107 0.44247 0.57088
 C984 C 0.23091 0.42678 0.58667
 C985 C 0.24796 0.39582 0.60555
 C986 C 0.23965 0.40015 0.62590
 C987 C 0.23947 0.38442 0.64167
 C988 C 0.24770 0.36400 0.63751
 C989 C 0.25604 0.35969 0.61717
 C990 C 0.25611 0.37538 0.60137
 C991 C 0.24768 0.34730 0.65432
 C992 C 0.24351 0.32589 0.64916
 C993 C 0.24384 0.31014 0.66489
 C994 C 0.24822 0.31543 0.68621
 C995 C 0.25219 0.33686 0.69142
 C996 C 0.25198 0.35259 0.67566
 H997 H 0.27910 0.40394 0.57600
 H998 H 0.27903 0.43122 0.54807
 H999 H 0.21766 0.45324 0.56949
 H1000 H 0.21718 0.42560 0.59706
 H1001 H 0.23348 0.41579 0.62975
 H1002 H 0.23270 0.38822 0.65707
 H1003 H 0.26275 0.34423 0.61350
 H1004 H 0.26239 0.37141 0.58580
 H1005 H 0.23977 0.32131 0.63296
 H1006 H 0.24058 0.29381 0.66034
 H1007 H 0.25577 0.34148 0.70765
 H1008 H 0.25559 0.36886 0.68014
 C1009 C 0.74957 0.08656 0.91276
 C1010 C 0.73791 0.06756 0.91014
 C1011 C 0.73827 0.05175 0.92581
 C1012 C 0.75060 0.05439 0.94428
 C1013 C 0.76218 0.07333 0.94701
 C1014 C 0.76157 0.08929 0.93151
 C1015 C 0.74931 0.10338 0.89600
 C1016 C 0.76765 0.11564 0.89182
 C1017 C 0.76740 0.13150 0.87619
 C1018 C 0.74894 0.13525 0.86417
 C1019 C 0.73067 0.12296 0.86813
 C1020 C 0.73079 0.10731 0.88398
 C1021 C 0.74877 0.15198 0.84754
 C1022 C 0.74091 0.14756 0.82707
 C1023 C 0.74115 0.16326 0.81127
 C1024 C 0.74892 0.18380 0.81576
 C1025 C 0.75655 0.18826 0.83634
 C1026 C 0.75663 0.17245 0.85202
 H1027 H 0.72873 0.06472 0.89582
 H1028 H 0.72906 0.03733 0.92347
 H1029 H 0.77170 0.07574 0.96120
 H1030 H 0.77039 0.10386 0.93433
 H1031 H 0.78234 0.11280 0.90039
 H1032 H 0.78177 0.14061 0.87324
 H1033 H 0.71616 0.12574 0.85920
 H1034 H 0.71625 0.09851 0.88700
 H1035 H 0.73490 0.13184 0.82322
 H1036 H 0.73513 0.15938 0.79557
 H1037 H 0.76275 0.20389 0.84024
 H1038 H 0.76266 0.17627 0.86773
 C1039 C 0.24764 0.58675 0.41428
 C1040 C 0.23047 0.57246 0.41647
 C1041 C 0.23071 0.55680 0.43230
 C1042 C 0.24803 0.55524 0.44629
 C1043 C 0.26519 0.56941 0.44422
 C1044 C 0.26503 0.58500 0.42833
 C1045 C 0.24739 0.60342 0.39744
 C1046 C 0.25552 0.62390 0.40152
 C1047 C 0.25534 0.63955 0.38569
 C1048 C 0.24692 0.63516 0.36541
 C1049 C 0.23873 0.61470 0.36134
 C1050 C 0.23901 0.59901 0.37714
 C1051 C 0.24675 0.65184 0.34857
 C1052 C 0.25094 0.64654 0.32721
 C1053 C 0.25098 0.66225 0.31142
 C1054 C 0.24696 0.68366 0.31663
 C1055 C 0.24271 0.68896 0.33798
 C1056 C 0.24253 0.67323 0.35373
 H1057 H 0.21670 0.57356 0.40615
 H1058 H 0.21734 0.54598 0.43377
 H1059 H 0.27873 0.56828 0.45486
 H1060 H 0.27865 0.59549 0.42687
 H1061 H 0.26185 0.62793 0.41705
 H1062 H 0.26203 0.65505 0.38929
 H1063 H 0.23189 0.61085 0.34598
 H1064 H 0.23286 0.58333 0.37336
 H1065 H 0.25458 0.63028 0.32272
 H1066 H 0.25448 0.65762 0.29517
 H1067 H 0.23942 0.70528 0.34254
 H1068 H 0.23888 0.67782 0.36996
 C1069 C 0.25344 0.91385 0.91351
 C1070 C 0.24453 0.93404 0.90973
 C1071 C 0.24395 0.94939 0.92582
 C1072 C 0.25239 0.94509 0.94618
 C1073 C 0.26161 0.92493 0.94977
 C1074 C 0.26201 0.90951 0.93372
 C1075 C 0.25362 0.89734 0.89649
 C1076 C 0.27100 0.88334 0.89429
 C1077 C 0.27099 0.86764 0.87850
 C1078 C 0.25373 0.86573 0.86440
 C1079 C 0.23645 0.87978 0.86643
 C1080 C 0.23634 0.89533 0.88236
 C1081 C 0.25364 0.84902 0.84773
 C1082 C 0.24748 0.85393 0.82679
 C1083 C 0.24717 0.83812 0.81112
 C1084 C 0.25278 0.81701 0.81612
 C1085 C 0.25895 0.81213 0.83709
 C1086 C 0.25949 0.82800 0.85270
 H1087 H 0.23805 0.93805 0.89426
 H1088 H 0.23639 0.96454 0.92244
 H1089 H 0.26891 0.92114 0.96494
 H1090 H 0.26885 0.89408 0.93727
 H1091 H 0.28475 0.88466 0.90462
 H1092 H 0.28463 0.85716 0.87710
 H1093 H 0.22281 0.87845 0.85595
 H1094 H 0.22251 0.90554 0.88383
 H1095 H 0.24306 0.87005 0.82252
 H1096 H 0.24227 0.84239 0.79514
 H1097 H 0.26340 0.79604 0.84145
 H1098 H 0.26413 0.82378 0.86877
 C1099 C 0.75087 0.41203 0.41201
 C1100 C 0.76819 0.41424 0.42608
 C1101 C 0.76800 0.42990 0.44190
 C1102 C 0.75057 0.44371 0.44385
 C1103 C 0.73325 0.44162 0.42992
 C1104 C 0.73336 0.42589 0.41417
 C1105 C 0.75106 0.39537 0.39516
 C1106 C 0.74262 0.39958 0.37485
 C1107 C 0.74269 0.38389 0.35905
 C1108 C 0.75130 0.36362 0.36313
 C1109 C 0.75984 0.35944 0.38341
 C1110 C 0.75967 0.37510 0.39924
 C1111 C 0.75125 0.34686 0.34637
 C1112 C 0.74723 0.32546 0.35166
 C1113 C 0.74704 0.30972 0.33593
 C1114 C 0.75073 0.31500 0.31447
 C1115 C 0.75476 0.33640 0.30916
 C1116 C 0.75508 0.35213 0.32493
 H1117 H 0.78205 0.40406 0.42467
 H1118 H 0.78151 0.43141 0.45253
 H1119 H 0.71964 0.45213 0.43134
 H1120 H 0.71962 0.42441 0.40385
 H1121 H 0.73611 0.41511 0.37107
 H1122 H 0.73575 0.38758 0.34370
 H1123 H 0.76683 0.34409 0.38702
 H1124 H 0.76607 0.37122 0.41477
 H1125 H 0.74385 0.32090 0.36795
 H1126 H 0.74370 0.29343 0.34057
 H1127 H 0.75779 0.34101 0.29281
 H1128 H 0.75856 0.36839 0.32034
 C1129 C 0.08596 0.24946 0.08719
 C1130 C 0.06768 0.23666 0.08955
 C1131 C 0.05203 0.23616 0.07373
 C1132 C 0.05441 0.24811 0.05491
 C1133 C 0.07273 0.26086 0.05254
 C1134 C 0.08818 0.26166 0.06852
 C1135 C 0.10267 0.25001 0.10405
 C1136 C 0.12430 0.25235 0.09864
 C1137 C 0.13998 0.25297 0.11441
 C1138 C 0.13453 0.25088 0.13605
 C1139 C 0.11291 0.24842 0.14147
 C1140 C 0.09718 0.24817 0.12571
 C1141 C 0.15133 0.25111 0.15283
 C1142 C 0.14730 0.26007 0.17300
 C1143 C 0.16300 0.26000 0.18879
 C1144 C 0.18320 0.25133 0.18467
 C1145 C 0.18736 0.24257 0.16451
 C1146 C 0.17156 0.24229 0.14885
 H1147 H 0.06559 0.22669 0.10347
 H1148 H 0.03829 0.22592 0.07594
 H1149 H 0.07483 0.27070 0.03851
 H1150 H 0.10173 0.27213 0.06633
 H1151 H 0.12923 0.25348 0.08215
 H1152 H 0.15639 0.25524 0.10959
 H1153 H 0.10807 0.24645 0.15790
 H1154 H 0.08070 0.24668 0.13056
 H1155 H 0.13210 0.26739 0.17655
 H1156 H 0.15942 0.26699 0.20416
 H1157 H 0.20271 0.23552 0.16097
 H1158 H 0.17515 0.23480 0.13373
 C1159 C 0.58753 0.75046 0.58702
 C1160 C 0.57365 0.73293 0.58504
 C1161 C 0.55774 0.73279 0.56947
 C1162 C 0.55549 0.75009 0.55554
 C1163 C 0.56931 0.76755 0.55733
 C1164 C 0.58515 0.76778 0.57296
 C1165 C 0.60438 0.75068 0.60367
 C1166 C 0.62460 0.75935 0.59935
 C1167 C 0.64043 0.75959 0.61501
 C1168 C 0.63646 0.75109 0.63535
 C1169 C 0.61625 0.74239 0.63966
 C1170 C 0.60040 0.74224 0.62403
 C1171 C 0.65335 0.75120 0.65197
 C1172 C 0.64822 0.75508 0.67343
 C1173 C 0.66405 0.75492 0.68908
 C1174 C 0.68543 0.75101 0.68364
 C1175 C 0.69060 0.74728 0.66216
 C1176 C 0.67474 0.74731 0.64654
 H1177 H 0.57524 0.71920 0.59535
 H1178 H 0.54723 0.71914 0.56817
 H1179 H 0.56770 0.78105 0.54670
 H1180 H 0.59534 0.78165 0.57424
 H1181 H 0.62831 0.76575 0.58376
 H1182 H 0.65572 0.76664 0.61122
 H1183 H 0.61273 0.73546 0.65506
 H1184 H 0.58493 0.73569 0.62799
 H1185 H 0.63197 0.75847 0.67813
 H1186 H 0.65953 0.75797 0.70545
 H1187 H 0.70688 0.74404 0.65742
 H1188 H 0.67921 0.74391 0.63023
 C1189 C 0.08802 0.75017 0.91510
 C1190 C 0.08132 0.73101 0.92461
 C1191 C 0.06521 0.73103 0.93999
 C1192 C 0.05541 0.75020 0.94615
 C1193 C 0.06226 0.76938 0.93682
 C1194 C 0.07834 0.76936 0.92142
 C1195 C 0.10496 0.75014 0.89857
 C1196 C 0.10314 0.76312 0.88043
 C1197 C 0.11897 0.76299 0.86477
 C1198 C 0.13701 0.74989 0.86690
 C1199 C 0.13890 0.73699 0.88510
 C1200 C 0.12303 0.73708 0.90075
 C1201 C 0.15371 0.74964 0.85013
 C1202 C 0.17543 0.74914 0.85559
 C1203 C 0.19111 0.74914 0.83975
 C1204 C 0.18543 0.74960 0.81808
 C1205 C 0.16368 0.74996 0.81266
 C1206 C 0.14803 0.75000 0.82849
 H1207 H 0.08830 0.71595 0.91990
 H1208 H 0.06021 0.71603 0.94696
 H1209 H 0.05531 0.78443 0.94167
 H1210 H 0.08343 0.78441 0.91467
 H1211 H 0.08932 0.77320 0.87819
 H1212 H 0.11718 0.77329 0.85105
 H1213 H 0.15251 0.72659 0.88711
 H1214 H 0.12499 0.72707 0.91466
 H1215 H 0.18031 0.74909 0.87213
 H1216 H 0.20770 0.74891 0.84451
 H1217 H 0.15868 0.75029 0.79616
 H1218 H 0.13143 0.75008 0.82378
 C1219 C 0.58674 0.25074 0.41270
 C1220 C 0.58118 0.23211 0.42388
 C1221 C 0.56558 0.23268 0.43976
 C1222 C 0.55531 0.25188 0.44474
 C1223 C 0.56073 0.27049 0.43365
 C1224 C 0.57633 0.26994 0.41777
 C1225 C 0.60333 0.25014 0.39582
 C1226 C 0.60072 0.26175 0.37686
 C1227 C 0.61635 0.26122 0.36100
 C1228 C 0.63495 0.24906 0.36374
 C1229 C 0.63755 0.23742 0.38269
 C1230 C 0.62192 0.23795 0.39855
 C1231 C 0.65162 0.24861 0.34693
 C1232 C 0.67333 0.24921 0.35240
 C1233 C 0.68902 0.24905 0.33659
 C1234 C 0.68338 0.24830 0.31493
 C1235 C 0.66164 0.24759 0.30948
 C1236 C 0.64596 0.24774 0.32529
 H1237 H 0.58868 0.21703 0.42015
 H1238 H 0.56142 0.21817 0.44814
 H1239 H 0.55291 0.28541 0.43737
 H1240 H 0.58045 0.28460 0.40964
 H1241 H 0.58648 0.27111 0.37419
 H1242 H 0.61398 0.27055 0.34669
 H1243 H 0.65160 0.22773 0.38518
 H1244 H 0.62451 0.22900 0.41306
 H1245 H 0.67821 0.25018 0.36892
 H1246 H 0.70559 0.24972 0.34139
 H1247 H 0.65670 0.24695 0.29296
 H1248 H 0.62938 0.24697 0.32058
 C1249 C 0.91258 0.75083 0.08633
 C1250 C 0.93127 0.73864 0.08847
 C1251 C 0.94710 0.73922 0.07283
 C1252 C 0.94455 0.75169 0.05436
 C1253 C 0.92576 0.76376 0.05216
 C1254 C 0.91011 0.76348 0.06800
 C1255 C 0.89579 0.75037 0.10315
 C1256 C 0.87410 0.75219 0.09777
 C1257 C 0.85838 0.75198 0.11356
 C1258 C 0.86388 0.74959 0.13516
 C1259 C 0.88555 0.74754 0.14050
 C1260 C 0.90128 0.74811 0.12475
 C1261 C 0.84713 0.74936 0.15202
 C1262 C 0.85116 0.75818 0.17224
 C1263 C 0.83553 0.75789 0.18809
 C1264 C 0.81534 0.74913 0.18400
 C1265 C 0.81115 0.74047 0.16381
 C1266 C 0.82693 0.74040 0.14807
 H1267 H 0.93357 0.72831 0.10209
 H1268 H 0.96111 0.72935 0.07488
 H1269 H 0.92345 0.77395 0.03842
 H1270 H 0.89622 0.77349 0.06598
 H1271 H 0.86917 0.75361 0.08132
 H1272 H 0.84192 0.75394 0.10880
 H1273 H 0.89044 0.74532 0.15688
 H1274 H 0.91779 0.74699 0.12960
 H1275 H 0.86630 0.76566 0.17578
 H1276 H 0.83910 0.76494 0.20343
 H1277 H 0.79577 0.73347 0.16029
 H1278 H 0.82332 0.73307 0.13288
 C1279 C 0.41190 0.24903 0.58694
 C1280 C 0.42034 0.22979 0.57915
 C1281 C 0.43612 0.22993 0.56343
 C1282 C 0.44361 0.24929 0.55522
 C1283 C 0.43523 0.26853 0.56285
 C1284 C 0.41952 0.26841 0.57863
 C1285 C 0.39525 0.24890 0.60373
 C1286 C 0.39617 0.26342 0.62074
 C1287 C 0.38056 0.26324 0.63662
 C1288 C 0.36363 0.24859 0.63578
 C1289 C 0.36265 0.23412 0.61873
 C1290 C 0.37832 0.23423 0.60290
 C1291 C 0.34707 0.24841 0.65267
 C1292 C 0.32543 0.24613 0.64740
 C1293 C 0.30983 0.24620 0.66331
 C1294 C 0.31554 0.24846 0.68485
 C1295 C 0.33724 0.25060 0.69009
 C1296 C 0.35281 0.25062 0.67418
 H1297 H 0.41495 0.21464 0.58544
 H1298 H 0.44252 0.21498 0.55767
 H1299 H 0.44088 0.28358 0.55655
 H1300 H 0.41314 0.28346 0.58414
 H1301 H 0.40913 0.27478 0.62191
 H1302 H 0.38162 0.27472 0.64946
 H1303 H 0.34989 0.22253 0.61776
 H1304 H 0.37709 0.22299 0.58987
 H1305 H 0.32053 0.24462 0.63093
 H1306 H 0.29328 0.24454 0.65869
 H1307 H 0.34223 0.25238 0.70651
 H1308 H 0.36938 0.25215 0.67873
 C1309 C 0.91409 0.25110 0.91209
 C1310 C 0.91175 0.26333 0.93073
 C1311 C 0.92723 0.26279 0.94669
 C1312 C 0.94570 0.25029 0.94433
 C1313 C 0.94823 0.23837 0.92550
 C1314 C 0.93255 0.23860 0.90971
 C1315 C 0.89727 0.25125 0.89532
 C1316 C 0.90265 0.24930 0.87365
 C1317 C 0.88683 0.24910 0.85799
 C1318 C 0.86520 0.25121 0.86352
 C1319 C 0.85985 0.25342 0.88517
 C1320 C 0.87563 0.25324 0.90085
 C1321 C 0.84829 0.25101 0.84683
 C1322 C 0.82819 0.24195 0.85103
 C1323 C 0.81227 0.24192 0.83548
 C1324 C 0.81619 0.25057 0.81522
 C1325 C 0.83627 0.25942 0.81087
 C1326 C 0.85208 0.25983 0.82655
 H1327 H 0.89807 0.27359 0.93293
 H1328 H 0.92501 0.27258 0.96073
 H1329 H 0.96208 0.22829 0.92330
 H1330 H 0.93475 0.22862 0.89583
 H1331 H 0.91913 0.24806 0.86870
 H1332 H 0.89160 0.24705 0.84155
 H1333 H 0.84343 0.25544 0.89007
 H1334 H 0.87078 0.25444 0.91735
 H1335 H 0.82479 0.23456 0.86623
 H1336 H 0.79700 0.23473 0.83918
 H1337 H 0.83966 0.26635 0.79543
 H1338 H 0.86717 0.26732 0.82283
 C1339 C 0.41212 0.75022 0.41378
 C1340 C 0.41452 0.76756 0.42781
 C1341 C 0.43047 0.76743 0.44333
 C1342 C 0.44439 0.75007 0.44501
 C1343 C 0.44213 0.73274 0.43111
 C1344 C 0.42611 0.73279 0.41565
 C1345 C 0.39517 0.75036 0.39723
 C1346 C 0.39909 0.74199 0.37683
 C1347 C 0.38317 0.74213 0.36127
 C1348 C 0.36297 0.75076 0.36568
 C1349 C 0.35905 0.75915 0.38607
 C1350 C 0.37493 0.75891 0.40167
 C1351 C 0.34608 0.75099 0.34906
 C1352 C 0.32467 0.74705 0.35444
 C1353 C 0.30884 0.74710 0.33878
 C1354 C 0.31405 0.75096 0.31734
 C1355 C 0.33544 0.75497 0.31197
 C1356 C 0.35124 0.75505 0.32765
 H1357 H 0.40425 0.78136 0.42661
 H1358 H 0.43208 0.78093 0.45396
 H1359 H 0.45270 0.71916 0.43234
 H1360 H 0.42450 0.71904 0.40535
 H1361 H 0.41456 0.73552 0.37278
 H1362 H 0.38665 0.73528 0.34583
 H1363 H 0.34375 0.76613 0.38994
 H1364 H 0.37128 0.76524 0.41729
 H1365 H 0.32018 0.74354 0.37072
 H1366 H 0.29255 0.74380 0.34346
 H1367 H 0.34001 0.75814 0.29564
 H1368 H 0.36750 0.75852 0.32300
 C1369 C 0.08517 0.08780 0.25022
 C1370 C 0.07897 0.07712 0.26891
 C1371 C 0.06346 0.06116 0.26822
 C1372 C 0.05381 0.05553 0.24882
 C1373 C 0.05998 0.06620 0.23012
 C1374 C 0.07549 0.08218 0.23082
 C1375 C 0.10177 0.10467 0.25096
 C1376 C 0.09957 0.12338 0.23885
 C1377 C 0.11525 0.13920 0.23947
 C1378 C 0.13350 0.13665 0.25219
 C1379 C 0.13567 0.11797 0.26434
 C1380 C 0.11998 0.10217 0.26374
 C1381 C 0.15031 0.15332 0.25261
 C1382 C 0.17196 0.14763 0.25249
 C1383 C 0.18780 0.16329 0.25251
 C1384 C 0.18237 0.18503 0.25265
 C1385 C 0.16069 0.19071 0.25294
 C1386 C 0.14485 0.17504 0.25291
 H1387 H 0.08591 0.08130 0.28414
 H1388 H 0.05882 0.05328 0.28287
 H1389 H 0.05295 0.06196 0.21493
 H1390 H 0.08016 0.08990 0.21612
 H1391 H 0.08561 0.12587 0.22901
 H1392 H 0.11322 0.15331 0.22975
 H1393 H 0.14944 0.11563 0.27446
 H1394 H 0.12224 0.08784 0.27308
 H1395 H 0.17668 0.13104 0.25198
 H1396 H 0.20432 0.15831 0.25221
 H1397 H 0.15590 0.20729 0.25310
 H1398 H 0.12830 0.17992 0.25328
 C1399 C 0.58805 0.58661 0.75082
 C1400 C 0.57380 0.58427 0.76800
 C1401 C 0.55784 0.56873 0.76747
 C1402 C 0.55592 0.55517 0.74983
 C1403 C 0.57011 0.55730 0.73272
 C1404 C 0.58599 0.57293 0.73317
 C1405 C 0.60492 0.60327 0.75128
 C1406 C 0.62528 0.59918 0.74286
 C1407 C 0.64105 0.61492 0.74308
 C1408 C 0.63690 0.63512 0.75185
 C1409 C 0.61659 0.63916 0.76040
 C1410 C 0.60078 0.62346 0.76007
 C1411 C 0.65363 0.65194 0.75189
 C1412 C 0.64827 0.67336 0.74806
 C1413 C 0.66399 0.68915 0.74789
 C1414 C 0.68548 0.68390 0.75139
 C1415 C 0.69085 0.66249 0.75526
 C1416 C 0.67511 0.64672 0.75558
 H1417 H 0.57513 0.59429 0.78198
 H1418 H 0.54705 0.56716 0.78085
 H1419 H 0.56875 0.54696 0.71897
 H1420 H 0.59646 0.57449 0.71954
 H1421 H 0.62910 0.58372 0.73621
 H1422 H 0.65642 0.61133 0.73612
 H1423 H 0.61293 0.65445 0.76752
 H1424 H 0.58521 0.62726 0.76647
 H1425 H 0.63195 0.67790 0.74481
 H1426 H 0.65930 0.70544 0.74468
 H1427 H 0.70724 0.65791 0.75815
 H1428 H 0.67975 0.63045 0.75892
 C1429 C 0.91384 0.08718 0.74752
 C1430 C 0.91475 0.07123 0.73176
 C1431 C 0.93045 0.05546 0.73250
 C1432 C 0.94561 0.05543 0.74889
 C1433 C 0.94489 0.07132 0.76456
 C1434 C 0.92910 0.08699 0.76395
 C1435 C 0.89701 0.10387 0.74691
 C1436 C 0.90158 0.12492 0.75309
 C1437 C 0.88569 0.14051 0.75289
 C1438 C 0.86485 0.13550 0.74633
 C1439 C 0.86033 0.11450 0.73995
 C1440 C 0.87618 0.09886 0.74031
 C1441 C 0.84789 0.15207 0.74636
 C1442 C 0.82689 0.14690 0.75228
 C1443 C 0.81102 0.16251 0.75260
 C1444 C 0.81580 0.18373 0.74720
 C1445 C 0.83677 0.18891 0.74123
 C1446 C 0.85259 0.17325 0.74071
 H1447 H 0.90349 0.07108 0.71871
 H1448 H 0.93089 0.04333 0.72023
 H1449 H 0.95644 0.07142 0.77738
 H1450 H 0.92867 0.09877 0.77654
 H1451 H 0.91750 0.12942 0.75798
 H1452 H 0.88969 0.15644 0.75818
 H1453 H 0.84454 0.11013 0.73453
 H1454 H 0.87201 0.08277 0.73568
 H1455 H 0.82276 0.13085 0.75708
 H1456 H 0.79507 0.15801 0.75746
 H1457 H 0.84095 0.20507 0.73682
 H1458 H 0.86849 0.17773 0.73570
 C1459 C 0.41226 0.58737 0.24871
 C1460 C 0.41446 0.57350 0.26620
 C1461 C 0.43014 0.55770 0.26621
 C1462 C 0.44395 0.55555 0.24879
 C1463 C 0.44197 0.56936 0.23138
 C1464 C 0.42622 0.58510 0.23129
 C1465 C 0.39547 0.60408 0.24862
 C1466 C 0.39958 0.62434 0.23995
 C1467 C 0.38378 0.64003 0.23983
 C1468 C 0.36351 0.63589 0.24847
 C1469 C 0.35942 0.61564 0.25717
 C1470 C 0.37518 0.59992 0.25719
 C1471 C 0.34675 0.65263 0.24851
 C1472 C 0.32529 0.64732 0.24479
 C1473 C 0.30950 0.66301 0.24514
 C1474 C 0.31480 0.68443 0.24908
 C1475 C 0.33628 0.68977 0.25263
 C1476 C 0.35204 0.67406 0.25241
 H1477 H 0.40423 0.57503 0.28001
 H1478 H 0.43160 0.54718 0.27982
 H1479 H 0.45251 0.56782 0.21780
 H1480 H 0.42477 0.59528 0.21745
 H1481 H 0.41510 0.62817 0.23345
 H1482 H 0.38739 0.65535 0.23277
 H1483 H 0.34409 0.61199 0.26420
 H1484 H 0.37139 0.58442 0.26375
 H1485 H 0.32070 0.63104 0.24138
 H1486 H 0.29314 0.65835 0.24222
 H1487 H 0.34091 0.70608 0.25588
 H1488 H 0.36835 0.67866 0.25568
 C1489 C 0.08768 0.91360 0.75305
 C1490 C 0.06762 0.90936 0.76207
 C1491 C 0.05171 0.92492 0.76222
 C1492 C 0.05524 0.94514 0.75306
 C1493 C 0.07552 0.94942 0.74435
 C1494 C 0.09148 0.93390 0.74437
 C1495 C 0.10449 0.89687 0.75254
 C1496 C 0.11820 0.89499 0.73489
 C1497 C 0.13387 0.87918 0.73433
 C1498 C 0.13604 0.86475 0.75128
 C1499 C 0.12236 0.86655 0.76890
 C1500 C 0.10684 0.88250 0.76958
 C1501 C 0.15255 0.84788 0.75062
 C1502 C 0.14752 0.82685 0.75641
 C1503 C 0.16313 0.81098 0.75597
 C1504 C 0.18417 0.81586 0.74996
 C1505 C 0.18917 0.83693 0.74414
 C1506 C 0.17349 0.85274 0.74434
 H1507 H 0.06405 0.89388 0.76880
 H1508 H 0.03669 0.92117 0.76987
 H1509 H 0.07890 0.96464 0.73694
 H1510 H 0.10686 0.93787 0.73761
 H1511 H 0.11660 0.90550 0.72131
 H1512 H 0.14406 0.87797 0.72045
 H1513 H 0.12391 0.85581 0.78231
 H1514 H 0.09685 0.88371 0.78359
 H1515 H 0.13145 0.82266 0.76114
 H1516 H 0.15877 0.79494 0.76064
 H1517 H 0.20521 0.84121 0.73941
 H1518 H 0.17781 0.86887 0.73996
 C1519 C 0.58646 0.41289 0.24715
 C1520 C 0.58445 0.42670 0.26470
 C1521 C 0.56885 0.44258 0.26489
 C1522 C 0.55493 0.44487 0.24758
 C1523 C 0.55674 0.43111 0.23010
 C1524 C 0.57241 0.41530 0.22984
 C1525 C 0.60313 0.39606 0.24689
 C1526 C 0.59883 0.37585 0.23820
 C1527 C 0.61451 0.36004 0.23795
 C1528 C 0.63484 0.36401 0.24648
 C1529 C 0.63914 0.38420 0.25519
 C1530 C 0.62350 0.40005 0.25534
 C1531 C 0.65147 0.34713 0.24640
 C1532 C 0.67295 0.35227 0.24257
 C1533 C 0.68862 0.33645 0.24284
 C1534 C 0.68317 0.31508 0.24681
 C1535 C 0.66167 0.30990 0.25045
 C1536 C 0.64602 0.32574 0.25031
 H1537 H 0.59475 0.42507 0.27843
 H1538 H 0.56752 0.45304 0.27855
 H1539 H 0.54611 0.43275 0.21662
 H1540 H 0.57371 0.40516 0.21595
 H1541 H 0.58324 0.37215 0.23179
 H1542 H 0.61073 0.34476 0.23089
 H1543 H 0.65453 0.38772 0.26213
 H1544 H 0.62744 0.41550 0.26191
 H1545 H 0.67766 0.36852 0.23915
 H1546 H 0.70501 0.34099 0.23985
 H1547 H 0.65692 0.29363 0.25373
 H1548 H 0.62969 0.32127 0.25367
 C1549 C 0.91302 0.91284 0.25204
 C1550 C 0.92764 0.91473 0.26894
 C1551 C 0.94328 0.93060 0.26866
 C1552 C 0.94447 0.94493 0.25160
 C1553 C 0.93001 0.94313 0.23468
 C1554 C 0.91446 0.92719 0.23487
 C1555 C 0.89632 0.89601 0.25234
 C1556 C 0.90083 0.87556 0.26030
 C1557 C 0.88511 0.85977 0.26058
 C1558 C 0.86453 0.86400 0.25281
 C1559 C 0.86005 0.88444 0.24482
 C1560 C 0.87572 0.90027 0.24465
 C1561 C 0.84785 0.84716 0.25291
 C1562 C 0.82651 0.85225 0.25748
 C1563 C 0.81076 0.83650 0.25716
 C1564 C 0.81599 0.81524 0.25245
 C1565 C 0.83736 0.81009 0.24809
 C1566 C 0.85308 0.82588 0.24825
 H1567 H 0.92680 0.90415 0.28254
 H1568 H 0.95435 0.93185 0.28184
 H1569 H 0.93088 0.95401 0.22132
 H1570 H 0.90372 0.92595 0.22143
 H1571 H 0.91659 0.87166 0.26611
 H1572 H 0.88904 0.84428 0.26708
 H1573 H 0.84446 0.88818 0.23845
 H1574 H 0.87162 0.91592 0.23866
 H1575 H 0.82198 0.86841 0.26149
 H1576 H 0.79447 0.84099 0.26072
 H1577 H 0.84191 0.79391 0.24419
 H1578 H 0.86929 0.82146 0.24431
 C1579 C 0.41294 0.41301 0.75095
 C1580 C 0.42314 0.41951 0.76982
 C1581 C 0.43893 0.43523 0.76928
 C1582 C 0.44462 0.44479 0.74993
 C1583 C 0.43445 0.43849 0.73109
 C1584 C 0.41877 0.42266 0.73158
 C1585 C 0.39636 0.39615 0.75147
 C1586 C 0.39615 0.37996 0.73600
 C1587 C 0.38059 0.36402 0.73653
 C1588 C 0.36482 0.36401 0.75243
 C1589 C 0.36498 0.38024 0.76785
 C1590 C 0.38065 0.39610 0.76743
 C1591 C 0.34821 0.34717 0.75285
 C1592 C 0.32678 0.35242 0.75662
 C1593 C 0.31107 0.33660 0.75661
 C1594 C 0.31648 0.31515 0.75300
 C1595 C 0.33799 0.30991 0.74945
 C1596 C 0.35366 0.32575 0.74931
 H1597 H 0.41913 0.41219 0.78492
 H1598 H 0.44674 0.43995 0.78393
 H1599 H 0.43872 0.44579 0.71605
 H1600 H 0.41102 0.41812 0.71685
 H1601 H 0.40818 0.37950 0.72363
 H1602 H 0.38073 0.35182 0.72432
 H1603 H 0.35312 0.38054 0.78039
 H1604 H 0.38032 0.40848 0.77944
 H1605 H 0.32210 0.36882 0.75920
 H1606 H 0.29467 0.34121 0.75939
 H1607 H 0.34273 0.29357 0.74656
 H1608 H 0.37009 0.32123 0.74658
 C1609 C 0.08743 0.24770 0.91444
 C1610 C 0.08066 0.22856 0.92394
 C1611 C 0.06463 0.22865 0.93941
 C1612 C 0.05503 0.24788 0.94568
 C1613 C 0.06186 0.26703 0.93629
 C1614 C 0.07785 0.26693 0.92079
 C1615 C 0.10439 0.24761 0.89794
 C1616 C 0.10263 0.26058 0.87978
 C1617 C 0.11853 0.26046 0.86419
 C1618 C 0.13658 0.24739 0.86642
 C1619 C 0.13838 0.23447 0.88461
 C1620 C 0.12244 0.23454 0.90018
 C1621 C 0.15340 0.24723 0.84977
 C1622 C 0.17508 0.24686 0.85539
 C1623 C 0.19088 0.24701 0.83968
 C1624 C 0.18536 0.24750 0.81797
 C1625 C 0.16365 0.24769 0.81238
 C1626 C 0.14788 0.24758 0.82809
 H1627 H 0.08755 0.21348 0.91920
 H1628 H 0.05957 0.21368 0.94639
 H1629 H 0.05495 0.28209 0.94114
 H1630 H 0.08297 0.28196 0.91401
 H1631 H 0.08882 0.27066 0.87749
 H1632 H 0.11679 0.27076 0.85046
 H1633 H 0.15201 0.22409 0.88668
 H1634 H 0.12435 0.22453 0.91410
 H1635 H 0.17983 0.24681 0.87197
 H1636 H 0.20743 0.24686 0.84457
 H1637 H 0.15877 0.24794 0.79584
 H1638 H 0.13131 0.24754 0.82325
 C1639 C 0.58703 0.74889 0.41311
 C1640 C 0.58197 0.76791 0.42383
 C1641 C 0.56627 0.76813 0.43963
 C1642 C 0.55529 0.74938 0.44482
 C1643 C 0.56021 0.73038 0.43418
 C1644 C 0.57603 0.73011 0.41850
 C1645 C 0.60368 0.74867 0.39633
 C1646 C 0.61882 0.73220 0.39553
 C1647 C 0.63458 0.73207 0.37977
 C1648 C 0.63539 0.74832 0.36438
 C1649 C 0.62018 0.76473 0.36512
 C1650 C 0.60454 0.76495 0.38098
 C1651 C 0.65208 0.74821 0.34764
 C1652 C 0.64687 0.75287 0.32639
 C1653 C 0.66261 0.75293 0.31063
 C1654 C 0.68396 0.74850 0.31580
 C1655 C 0.68915 0.74380 0.33709
 C1656 C 0.67336 0.74357 0.35281
 H1657 H 0.59034 0.78256 0.42015
 H1658 H 0.56261 0.78289 0.44778
 H1659 H 0.55179 0.71581 0.43805
 H1660 H 0.57945 0.71529 0.41035
 H1661 H 0.61862 0.71954 0.40726
 H1662 H 0.64600 0.71915 0.37948
 H1663 H 0.62055 0.77754 0.35357
 H1664 H 0.59296 0.77774 0.38111
 H1665 H 0.63056 0.75627 0.32192
 H1666 H 0.65806 0.75659 0.29440
 H1667 H 0.70541 0.74023 0.34162
 H1668 H 0.67785 0.74009 0.36910
 C1669 C 0.91473 0.75514 0.91208
 C1670 C 0.91202 0.76728 0.93073
 C1671 C 0.92741 0.76702 0.94681
 C1672 C 0.94616 0.75493 0.94455
 C1673 C 0.94903 0.74307 0.92572
 C1674 C 0.93345 0.74302 0.90982
 C1675 C 0.89802 0.75493 0.89519
 C1676 C 0.90359 0.75304 0.87356
 C1677 C 0.88789 0.75236 0.85779
 C1678 C 0.86617 0.75391 0.86316
 C1679 C 0.86063 0.75610 0.88476
 C1680 C 0.87630 0.75642 0.90056
 C1681 C 0.84939 0.75310 0.84636
 C1682 C 0.82952 0.74352 0.85048
 C1683 C 0.81370 0.74295 0.83484
 C1684 C 0.81749 0.75157 0.81455
 C1685 C 0.83737 0.76095 0.81027
 C1686 C 0.85306 0.76188 0.82604
 H1687 H 0.89810 0.77724 0.93286
 H1688 H 0.92487 0.77672 0.96086
 H1689 H 0.96304 0.73320 0.92361
 H1690 H 0.93594 0.73308 0.89595
 H1691 H 0.92013 0.75220 0.86873
 H1692 H 0.89283 0.75035 0.84139
 H1693 H 0.84413 0.75772 0.88955
 H1694 H 0.87131 0.75756 0.91702
 H1695 H 0.82621 0.73617 0.86573
 H1696 H 0.79858 0.73545 0.83852
 H1697 H 0.84064 0.76794 0.79483
 H1698 H 0.86796 0.76977 0.82236
 C1699 C 0.41244 0.25306 0.41262
 C1700 C 0.42046 0.27239 0.42069
 C1701 C 0.43621 0.27239 0.43643
 C1702 C 0.44411 0.25309 0.44437
 C1703 C 0.43619 0.23378 0.43644
 C1704 C 0.42051 0.23375 0.42065
 C1705 C 0.39570 0.25303 0.39594
 C1706 C 0.39679 0.23869 0.37878
 C1707 C 0.38100 0.23860 0.36310
 C1708 C 0.36372 0.25279 0.36428
 C1709 C 0.36262 0.26713 0.38144
 C1710 C 0.37847 0.26728 0.39707
 C1711 C 0.34688 0.25258 0.34769
 C1712 C 0.32528 0.25433 0.35335
 C1713 C 0.30941 0.25392 0.33774
 C1714 C 0.31478 0.25183 0.31609
 C1715 C 0.33642 0.25022 0.31044
 C1716 C 0.35227 0.25054 0.32606
 H1717 H 0.41473 0.28749 0.41465
 H1718 H 0.44224 0.28740 0.44244
 H1719 H 0.44215 0.21877 0.44253
 H1720 H 0.41446 0.21863 0.41493
 H1721 H 0.40998 0.22766 0.37737
 H1722 H 0.38216 0.22724 0.35017
 H1723 H 0.34960 0.27838 0.38266
 H1724 H 0.37710 0.27838 0.41021
 H1725 H 0.32063 0.25569 0.36991
 H1726 H 0.29292 0.25522 0.34268
 H1727 H 0.34117 0.24867 0.29392
 H1728 H 0.36880 0.24945 0.32119
 C1729 C 0.08588 0.74976 0.08779
 C1730 C 0.07122 0.73280 0.08654
 C1731 C 0.05562 0.73246 0.07065
 C1732 C 0.05452 0.74894 0.05564
 C1733 C 0.06904 0.76589 0.05677
 C1734 C 0.08454 0.76634 0.07274
 C1735 C 0.10254 0.75014 0.10465
 C1736 C 0.12314 0.75778 0.10018
 C1737 C 0.13879 0.75814 0.11600
 C1738 C 0.13431 0.75071 0.13666
 C1739 C 0.11372 0.74305 0.14112
 C1740 C 0.09801 0.74283 0.12534
 C1741 C 0.15108 0.75083 0.15342
 C1742 C 0.14595 0.75565 0.17469
 C1743 C 0.16167 0.75552 0.19046
 C1744 C 0.18294 0.75072 0.18530
 C1745 C 0.18811 0.74607 0.16401
 C1746 C 0.17236 0.74603 0.14829
 H1747 H 0.07199 0.71963 0.09764
 H1748 H 0.04451 0.71926 0.06992
 H1749 H 0.06824 0.77881 0.04536
 H1750 H 0.09530 0.77982 0.07344
 H1751 H 0.12727 0.76328 0.08437
 H1752 H 0.15439 0.76440 0.11206
 H1753 H 0.10977 0.73697 0.15677
 H1754 H 0.08225 0.73710 0.12942
 H1755 H 0.12980 0.75979 0.17914
 H1756 H 0.15718 0.75938 0.20666
 H1757 H 0.20432 0.74218 0.15951
 H1758 H 0.17683 0.74189 0.13215
 C1759 C 0.58606 0.25095 0.58798
 C1760 C 0.57532 0.23191 0.58292
 C1761 C 0.55979 0.23159 0.56697
 C1762 C 0.55478 0.25025 0.55581
 C1763 C 0.56535 0.26929 0.56081
 C1764 C 0.58087 0.26964 0.57675
 C1765 C 0.60269 0.25127 0.60482
 C1766 C 0.62151 0.26311 0.60203
 C1767 C 0.63725 0.26325 0.61777
 C1768 C 0.63454 0.25154 0.63667
 C1769 C 0.61567 0.23978 0.63951
 C1770 C 0.59993 0.23964 0.62377
 C1771 C 0.65141 0.25145 0.65327
 C1772 C 0.64604 0.25226 0.67499
 C1773 C 0.66193 0.25197 0.69059
 C1774 C 0.68357 0.25087 0.68483
 C1775 C 0.68892 0.25015 0.66308
 C1776 C 0.67303 0.25042 0.64750
 H1777 H 0.57914 0.21720 0.59108
 H1778 H 0.55174 0.21678 0.56324
 H1779 H 0.56151 0.28385 0.55237
 H1780 H 0.58864 0.28460 0.58048
 H1781 H 0.62421 0.27206 0.58752
 H1782 H 0.65149 0.27266 0.61520
 H1783 H 0.61320 0.23043 0.65379
 H1784 H 0.58551 0.23055 0.62650
 H1785 H 0.62955 0.25336 0.67994
 H1786 H 0.65722 0.25268 0.70718
 H1787 H 0.70540 0.24926 0.65803
 H1788 H 0.67767 0.24949 0.63091
 C1789 C 0.91239 0.24708 0.08598
 C1790 C 0.92787 0.23088 0.08519
 C1791 C 0.94375 0.23113 0.06957
 C1792 C 0.94432 0.24746 0.05435
 C1793 C 0.92896 0.26364 0.05501
 C1794 C 0.91318 0.26351 0.07073
 C1795 C 0.89550 0.24688 0.10264
 C1796 C 0.87465 0.25353 0.09785
 C1797 C 0.85884 0.25354 0.11354
 C1798 C 0.86343 0.24675 0.13439
 C1799 C 0.88425 0.23994 0.13913
 C1800 C 0.90009 0.24008 0.12348
 C1801 C 0.84663 0.24691 0.15113
 C1802 C 0.85163 0.25257 0.17222
 C1803 C 0.83585 0.25281 0.18794
 C1804 C 0.81465 0.24761 0.18291
 C1805 C 0.80962 0.24197 0.16184
 C1806 C 0.82544 0.24153 0.14616
 H1807 H 0.92756 0.21782 0.09645
 H1808 H 0.95548 0.21848 0.06919
 H1809 H 0.92931 0.27644 0.04343
 H1810 H 0.90177 0.27644 0.07108
 H1811 H 0.87046 0.25858 0.08191
 H1812 H 0.84307 0.25914 0.10938
 H1813 H 0.88829 0.23434 0.15493
 H1814 H 0.91603 0.23510 0.12780
 H1815 H 0.86769 0.25715 0.17655
 H1816 H 0.84024 0.25735 0.20400
 H1817 H 0.79349 0.23765 0.15748
 H1818 H 0.82109 0.23673 0.13018
 C1819 C 0.41244 0.74817 0.58714
 C1820 C 0.41434 0.76563 0.57318
 C1821 C 0.43021 0.76597 0.55756
 C1822 C 0.44453 0.74895 0.55569
 C1823 C 0.44276 0.73151 0.56953
 C1824 C 0.42683 0.73109 0.58509
 C1825 C 0.39560 0.74784 0.60382
 C1826 C 0.39985 0.73950 0.62417
 C1827 C 0.38409 0.73936 0.63990
 C1828 C 0.36370 0.74764 0.63573
 C1829 C 0.35942 0.75592 0.61536
 C1830 C 0.37515 0.75597 0.59959
 C1831 C 0.34704 0.74784 0.65260
 C1832 C 0.32558 0.74375 0.64757
 C1833 C 0.30991 0.74418 0.66341
 C1834 C 0.31535 0.74858 0.68469
 C1835 C 0.33682 0.75253 0.68974
 C1836 C 0.35245 0.75224 0.67388
 H1837 H 0.40376 0.77918 0.57453
 H1838 H 0.43145 0.77957 0.54699
 H1839 H 0.45366 0.71820 0.56816
 H1840 H 0.42561 0.71726 0.59534
 H1841 H 0.41549 0.73334 0.62806
 H1842 H 0.38785 0.73260 0.65532
 H1843 H 0.34397 0.76266 0.61167
 H1844 H 0.37124 0.76226 0.58402
 H1845 H 0.32090 0.73996 0.63141
 H1846 H 0.29356 0.74088 0.65899
 H1847 H 0.34157 0.75609 0.70594
 H1848 H 0.36876 0.75580 0.67826
 C1849 C 0.25236 0.08596 0.91393
 C1850 C 0.24061 0.06700 0.91143
 C1851 C 0.24044 0.05155 0.92745
 C1852 C 0.25222 0.05454 0.94621
 C1853 C 0.26431 0.07322 0.94860
 C1854 C 0.26424 0.08884 0.93274
 C1855 C 0.25208 0.10270 0.89711
 C1856 C 0.27035 0.11504 0.89288
 C1857 C 0.26995 0.13096 0.87731
 C1858 C 0.25140 0.13469 0.86541
 C1859 C 0.23321 0.12231 0.86941
 C1860 C 0.23348 0.10660 0.88519
 C1861 C 0.25102 0.15151 0.84888
 C1862 C 0.24298 0.14714 0.82847
 C1863 C 0.24288 0.16294 0.81278
 C1864 C 0.25051 0.18352 0.81731
 C1865 C 0.25831 0.18793 0.83783
 C1866 C 0.25873 0.17202 0.85340
 H1867 H 0.23163 0.06400 0.89702
 H1868 H 0.23105 0.03722 0.92524
 H1869 H 0.27364 0.07579 0.96289
 H1870 H 0.27322 0.10333 0.93540
 H1871 H 0.28508 0.11224 0.90139
 H1872 H 0.28426 0.14016 0.87432
 H1873 H 0.21864 0.12507 0.86059
 H1874 H 0.21898 0.09776 0.88827
 H1875 H 0.23705 0.13139 0.82459
 H1876 H 0.23667 0.15910 0.79714
 H1877 H 0.26435 0.20362 0.84178
 H1878 H 0.26486 0.17580 0.86908
 C1879 C 0.74869 0.58665 0.41292
 C1880 C 0.76617 0.58484 0.42684
 C1881 C 0.76658 0.56899 0.44248
 C1882 C 0.74959 0.55461 0.44439
 C1883 C 0.73212 0.55630 0.43060
 C1884 C 0.73163 0.57221 0.41503
 C1885 C 0.74828 0.60348 0.39624
 C1886 C 0.73992 0.59918 0.37591
 C1887 C 0.73964 0.61495 0.36019
 C1888 C 0.74781 0.63540 0.36438
 C1889 C 0.75615 0.63971 0.38472
 C1890 C 0.75633 0.62396 0.40046
 C1891 C 0.74777 0.65212 0.34758
 C1892 C 0.74352 0.67351 0.35277
 C1893 C 0.74380 0.68927 0.33704
 C1894 C 0.74821 0.68401 0.31571
 C1895 C 0.75226 0.66260 0.31049
 C1896 C 0.75211 0.64687 0.32624
 H1897 H 0.77970 0.59547 0.42545
 H1898 H 0.78021 0.56780 0.45299
 H1899 H 0.71883 0.54535 0.43200
 H1900 H 0.71778 0.57337 0.40482
 H1901 H 0.73382 0.58351 0.37203
 H1902 H 0.73286 0.61116 0.34480
 H1903 H 0.76280 0.65520 0.38841
 H1904 H 0.76264 0.62791 0.41602
 H1905 H 0.73975 0.67805 0.36897
 H1906 H 0.74040 0.70556 0.34159
 H1907 H 0.75581 0.65801 0.29424
 H1908 H 0.75577 0.63062 0.32175
 C1909 C 0.74740 0.08682 0.08528
 C1910 C 0.75625 0.09059 0.06506
 C1911 C 0.75647 0.07458 0.04959
 C1912 C 0.74772 0.05430 0.05381
 C1913 C 0.73850 0.05075 0.07399
 C1914 C 0.73846 0.06671 0.08951
 C1915 C 0.74768 0.10370 0.10195
 C1916 C 0.73048 0.10603 0.11615
 C1917 C 0.73092 0.12167 0.13200
 C1918 C 0.74845 0.13546 0.13389
 C1919 C 0.76557 0.13329 0.11964
 C1920 C 0.76524 0.11752 0.10392
 C1921 C 0.74889 0.15204 0.15070
 C1922 C 0.75521 0.17297 0.14586
 C1923 C 0.75534 0.18867 0.16166
 C1924 C 0.74939 0.18370 0.18268
 C1925 C 0.74330 0.16268 0.18754
 C1926 C 0.74293 0.14705 0.17168
 H1927 H 0.76301 0.10597 0.06112
 H1928 H 0.76409 0.07794 0.03447
 H1929 H 0.73099 0.03566 0.07775
 H1930 H 0.73165 0.06316 0.10496
 H1931 H 0.71653 0.09596 0.11486
 H1932 H 0.71738 0.12320 0.14261
 H1933 H 0.77939 0.14356 0.12092
 H1934 H 0.77894 0.11593 0.09355
 H1935 H 0.75975 0.17726 0.12978
 H1936 H 0.76021 0.20468 0.15742
 H1937 H 0.73860 0.15834 0.20357
 H1938 H 0.73819 0.13099 0.17587
 C1939 C 0.25044 0.58642 0.58911
 C1940 C 0.26749 0.58429 0.57468
 C1941 C 0.26697 0.56869 0.55880
 C1942 C 0.24947 0.55490 0.55712
 C1943 C 0.23250 0.55683 0.57151
 C1944 C 0.23293 0.57249 0.58733
 C1945 C 0.25087 0.60317 0.60588
 C1946 C 0.24276 0.59903 0.62635
 C1947 C 0.24294 0.61485 0.64202
 C1948 C 0.25134 0.63517 0.63765
 C1949 C 0.25959 0.63926 0.61723
 C1950 C 0.25930 0.62348 0.60152
 C1951 C 0.25136 0.65207 0.65427
 C1952 C 0.24714 0.67340 0.64885
 C1953 C 0.24706 0.68928 0.66445
 C1954 C 0.25105 0.68421 0.68589
 C1955 C 0.25528 0.66289 0.69133
 C1956 C 0.25549 0.64703 0.67570
 H1957 H 0.28135 0.59450 0.57581
 H1958 H 0.28024 0.56728 0.54785
 H1959 H 0.21886 0.54630 0.57034
 H1960 H 0.21941 0.57390 0.59795
 H1961 H 0.23640 0.58349 0.63034
 H1962 H 0.23623 0.61123 0.65750
 H1963 H 0.26643 0.65463 0.61339
 H1964 H 0.26545 0.62730 0.58586
 H1965 H 0.24356 0.67780 0.63257
 H1966 H 0.24365 0.70552 0.65970
 H1967 H 0.25860 0.65845 0.70767
 H1968 H 0.25915 0.63083 0.68038
 C1969 C 0.75656 0.91239 0.91261
 C1970 C 0.77262 0.91300 0.92827
 C1971 C 0.77244 0.92871 0.94408
 C1972 C 0.75636 0.94419 0.94438
 C1973 C 0.74035 0.94371 0.92883
 C1974 C 0.74039 0.92793 0.91314
 C1975 C 0.75660 0.89563 0.89583
 C1976 C 0.75007 0.90040 0.87495
 C1977 C 0.74971 0.88460 0.85927
 C1978 C 0.75606 0.86364 0.86400
 C1979 C 0.76279 0.85891 0.88484
 C1980 C 0.76298 0.87468 0.90057
 C1981 C 0.75550 0.84680 0.84731
 C1982 C 0.74948 0.82581 0.85242
 C1983 C 0.74879 0.81004 0.83671
 C1984 C 0.75387 0.81493 0.81546
 C1985 C 0.75990 0.83589 0.81032
 C1986 C 0.76080 0.85160 0.82607
 H1987 H 0.78547 0.90151 0.92817
 H1988 H 0.78492 0.92891 0.95599
 H1989 H 0.72772 0.95547 0.92899
 H1990 H 0.72757 0.92772 0.90162
 H1991 H 0.74535 0.91642 0.87063
 H1992 H 0.74417 0.88879 0.84349
 H1993 H 0.76806 0.84302 0.88899
 H1994 H 0.76786 0.87036 0.91653
 H1995 H 0.74495 0.82161 0.86853
 H1996 H 0.74398 0.79407 0.84117
 H1997 H 0.76416 0.84013 0.79415
 H1998 H 0.76590 0.86748 0.82162
 C1999 C 0.25047 0.41318 0.41377
 C2000 C 0.23291 0.42701 0.41572
 C2001 C 0.23247 0.44257 0.43163
 C2002 C 0.24948 0.44451 0.44595
 C2003 C 0.26701 0.43080 0.44414
 C2004 C 0.26754 0.41531 0.42816
 C2005 C 0.25092 0.39658 0.39687
 C2006 C 0.25944 0.37628 0.40103
 C2007 C 0.25971 0.36062 0.38521
 C2008 C 0.25137 0.36482 0.36485
 C2009 C 0.24291 0.38514 0.36067
 C2010 C 0.24273 0.40083 0.37647
 C2011 C 0.25130 0.34803 0.34813
 C2012 C 0.25528 0.35322 0.32670
 C2013 C 0.25491 0.33746 0.31096
 C2014 C 0.25069 0.31610 0.31630
 C2015 C 0.24688 0.31089 0.33775
 C2016 C 0.24711 0.32666 0.35345
 H2017 H 0.21937 0.42560 0.40514
 H2018 H 0.21881 0.45304 0.43290
 H2019 H 0.28032 0.43223 0.45504
 H2020 H 0.28144 0.40517 0.42691
 H2021 H 0.26565 0.37237 0.41664
 H2022 H 0.26660 0.34524 0.38889
 H2023 H 0.23612 0.38885 0.34526
 H2024 H 0.23631 0.41638 0.37262
 H2025 H 0.25891 0.36944 0.32209
 H2026 H 0.25810 0.34201 0.29462
 H2027 H 0.24347 0.29462 0.34241
 H2028 H 0.24364 0.32215 0.36973
 C2029 C 0.24520 0.91245 0.08778
 C2030 C 0.22941 0.92838 0.08724
 C2031 C 0.22982 0.94420 0.07156
 C2032 C 0.24588 0.94426 0.05603
 C2033 C 0.26159 0.92840 0.05641
 C2034 C 0.26132 0.91270 0.07217
 C2035 C 0.24494 0.89570 0.10456
 C2036 C 0.25110 0.87469 0.09981
 C2037 C 0.25124 0.85903 0.11564
 C2038 C 0.24503 0.86392 0.13660
 C2039 C 0.23867 0.88489 0.14131
 C2040 C 0.23870 0.90059 0.12552
 C2041 C 0.24535 0.84726 0.15347
 C2042 C 0.25150 0.85233 0.17441
 C2043 C 0.25196 0.83664 0.19021
 C2044 C 0.24651 0.81546 0.18540
 C2045 C 0.24034 0.81036 0.16449
 C2046 C 0.23967 0.82609 0.14875
 H2047 H 0.21659 0.92850 0.09878
 H2048 H 0.21754 0.95632 0.07142
 H2049 H 0.27418 0.92835 0.04459
 H2050 H 0.27394 0.90095 0.07232
 H2051 H 0.25570 0.87026 0.08379
 H2052 H 0.25650 0.84314 0.11147
 H2053 H 0.23351 0.88917 0.15720
 H2054 H 0.23411 0.91665 0.12983
 H2055 H 0.25632 0.86837 0.17855
 H2056 H 0.25690 0.84106 0.20614
 H2057 H 0.23581 0.79424 0.16032
 H2058 H 0.23446 0.82168 0.13291
 C2059 C 0.74920 0.41152 0.58625
 C2060 C 0.76834 0.41681 0.57585
 C2061 C 0.76866 0.43253 0.56008
 C2062 C 0.74989 0.44328 0.55460
 C2063 C 0.73076 0.43812 0.56491
 C2064 C 0.73039 0.42228 0.58057
 C2065 C 0.74888 0.39490 0.60306
 C2066 C 0.73252 0.37960 0.60367
 C2067 C 0.73230 0.36390 0.61947
 C2068 C 0.74831 0.36330 0.63510
 C2069 C 0.76461 0.37867 0.63454
 C2070 C 0.76493 0.39425 0.61864
 C2071 C 0.74809 0.34668 0.65190
 C2072 C 0.75246 0.35202 0.67319
 C2073 C 0.75247 0.33635 0.68900
 C2074 C 0.74828 0.31494 0.68386
 C2075 C 0.74384 0.30963 0.66255
 C2076 C 0.74367 0.32534 0.64676
 H2077 H 0.78301 0.40861 0.57975
 H2078 H 0.78353 0.43638 0.55218
 H2079 H 0.71617 0.44637 0.56082
 H2080 H 0.71547 0.41868 0.58848
 H2081 H 0.72004 0.37963 0.59176
 H2082 H 0.71946 0.35235 0.61962
 H2083 H 0.77726 0.37847 0.64627
 H2084 H 0.77763 0.40596 0.61866
 H2085 H 0.75569 0.36839 0.67763
 H2086 H 0.75593 0.34101 0.70525
 H2087 H 0.74046 0.29331 0.65804
 H2088 H 0.74042 0.32075 0.63046
 C2089 C 0.08836 0.08562 0.75495
 C2090 C 0.06813 0.08988 0.76357
 C2091 C 0.05211 0.07441 0.76319
 C2092 C 0.05570 0.05427 0.75390
 C2093 C 0.07612 0.05000 0.74551
 C2094 C 0.09219 0.06542 0.74607
 C2095 C 0.10530 0.10225 0.75501
 C2096 C 0.11939 0.10426 0.73767
 C2097 C 0.13519 0.11996 0.73763
 C2098 C 0.13716 0.13416 0.75480
 C2099 C 0.12311 0.13224 0.77212
 C2100 C 0.10743 0.11640 0.77228
 C2101 C 0.15377 0.15097 0.75459
 C2102 C 0.14876 0.17199 0.76041
 C2103 C 0.16435 0.18791 0.75984
 C2104 C 0.18535 0.18308 0.75367
 C2105 C 0.19038 0.16198 0.74807
 C2106 C 0.17473 0.14613 0.74840
 H2107 H 0.06454 0.10530 0.77042
 H2108 H 0.03695 0.07816 0.77054
 H2109 H 0.07955 0.03486 0.73797
 H2110 H 0.10767 0.06145 0.73958
 H2111 H 0.11797 0.09395 0.72392
 H2112 H 0.14565 0.12128 0.72395
 H2113 H 0.12447 0.14282 0.78568
 H2114 H 0.09714 0.11508 0.78606
 H2115 H 0.13268 0.17617 0.76509
 H2116 H 0.15997 0.20399 0.76436
 H2117 H 0.20640 0.15772 0.74324
 H2118 H 0.17905 0.13000 0.74403
 C2119 C 0.58647 0.58740 0.24991
 C2120 C 0.58033 0.57699 0.26879
 C2121 C 0.56464 0.56118 0.26838
 C2122 C 0.55474 0.55568 0.24915
 C2123 C 0.56068 0.56607 0.23031
 C2124 C 0.57649 0.58177 0.23066
 C2125 C 0.60327 0.60403 0.25028
 C2126 C 0.61921 0.60442 0.23455
 C2127 C 0.63509 0.62004 0.23492
 C2128 C 0.63529 0.63568 0.25094
 C2129 C 0.61931 0.63533 0.26663
 C2130 C 0.60352 0.61961 0.26636
 C2131 C 0.65207 0.65233 0.25121
 C2132 C 0.64680 0.67372 0.25518
 C2133 C 0.66258 0.68946 0.25511
 C2134 C 0.68400 0.68413 0.25120
 C2135 C 0.68926 0.66267 0.24743
 C2136 C 0.67346 0.64697 0.24735
 H2137 H 0.58791 0.58086 0.28379
 H2138 H 0.56019 0.55321 0.28303
 H2139 H 0.55311 0.56195 0.21536
 H2140 H 0.58074 0.58969 0.21593
 H2141 H 0.61951 0.59249 0.22209
 H2142 H 0.64710 0.62004 0.22252
 H2143 H 0.61918 0.64709 0.27926
 H2144 H 0.59133 0.61978 0.27858
 H2145 H 0.63041 0.67833 0.25802
 H2146 H 0.65797 0.70582 0.25814
 H2147 H 0.70559 0.65800 0.24438
 H2148 H 0.67799 0.63057 0.24447
 C2149 C 0.08618 0.91342 0.24926
 C2150 C 0.08813 0.93157 0.23626
 C2151 C 0.07266 0.94757 0.23667
 C2152 C 0.05461 0.94571 0.24988
 C2153 C 0.05254 0.92742 0.26270
 C2154 C 0.06820 0.91160 0.26253
 C2155 C 0.10284 0.89650 0.24903
 C2156 C 0.09732 0.87493 0.25173
 C2157 C 0.11299 0.85912 0.25185
 C2158 C 0.13460 0.86438 0.24897
 C2159 C 0.14009 0.88592 0.24602
 C2160 C 0.12446 0.90177 0.24621
 C2161 C 0.15133 0.84753 0.24918
 C2162 C 0.17162 0.85170 0.25780
 C2163 C 0.18735 0.83595 0.25794
 C2164 C 0.18307 0.81554 0.24981
 C2165 C 0.16281 0.81126 0.24133
 C2166 C 0.14718 0.82711 0.24086
 H2167 H 0.10147 0.93333 0.22545
 H2168 H 0.07450 0.96116 0.22619
 H2169 H 0.03903 0.92562 0.27331
 H2170 H 0.06633 0.89810 0.27311
 H2171 H 0.08084 0.87019 0.25361
 H2172 H 0.10814 0.84277 0.25447
 H2173 H 0.15649 0.89060 0.24340
 H2174 H 0.12940 0.91820 0.24439
 H2175 H 0.17530 0.86704 0.26475
 H2176 H 0.20277 0.83965 0.26475
 H2177 H 0.15914 0.79573 0.23473
 H2178 H 0.13193 0.82341 0.23371
 C2179 C 0.58735 0.41273 0.74874
 C2180 C 0.58516 0.42671 0.73133
 C2181 C 0.56938 0.44242 0.73136
 C2182 C 0.55544 0.44435 0.74869
 C2183 C 0.55751 0.43051 0.76608
 C2184 C 0.57335 0.41486 0.76614
 C2185 C 0.60412 0.39599 0.74872
 C2186 C 0.59995 0.37567 0.75720
 C2187 C 0.61571 0.35995 0.75724
 C2188 C 0.63601 0.36412 0.74869
 C2189 C 0.64017 0.38442 0.74016
 C2190 C 0.62443 0.40018 0.74022
 C2191 C 0.65278 0.34737 0.74872
 C2192 C 0.67419 0.35264 0.75274
 C2193 C 0.68993 0.33689 0.75283
 C2194 C 0.68461 0.31545 0.74905
 C2195 C 0.66321 0.31017 0.74501
 C2196 C 0.64750 0.32594 0.74479
 H2197 H 0.59545 0.42532 0.71756
 H2198 H 0.56792 0.45300 0.71780
 H2199 H 0.54691 0.43192 0.77963
 H2200 H 0.57480 0.40461 0.77993
 H2201 H 0.58440 0.37182 0.76364
 H2202 H 0.61205 0.34458 0.76418
 H2203 H 0.65554 0.38810 0.73322
 H2204 H 0.62827 0.41573 0.73379
 H2205 H 0.67876 0.36893 0.75615
 H2206 H 0.70624 0.34150 0.75610
 H2207 H 0.65858 0.29384 0.74183
 H2208 H 0.63124 0.32137 0.74127
 C2209 C 0.91201 0.08682 0.24674
 C2210 C 0.91863 0.07697 0.22773
 C2211 C 0.93449 0.06134 0.22805
 C2212 C 0.94407 0.05547 0.24733
 C2213 C 0.93765 0.06532 0.26631
 C2214 C 0.92169 0.08083 0.26603
 C2215 C 0.89503 0.10325 0.24648
 C2216 C 0.87888 0.10314 0.26200
 C2217 C 0.86290 0.11865 0.26181
 C2218 C 0.86283 0.13468 0.24619
 C2219 C 0.87897 0.13479 0.23066
 C2220 C 0.89486 0.11919 0.23076
 C2221 C 0.84606 0.15134 0.24622
 C2222 C 0.85140 0.17281 0.24276
 C2223 C 0.83568 0.18856 0.24313
 C2224 C 0.81423 0.18319 0.24683
 C2225 C 0.80888 0.16166 0.25010
 C2226 C 0.82464 0.14593 0.24988
 H2227 H 0.91129 0.08112 0.21269
 H2228 H 0.93929 0.05378 0.21330
 H2229 H 0.94496 0.06090 0.28130
 H2230 H 0.91708 0.08833 0.28087
 H2231 H 0.87849 0.09092 0.27418
 H2232 H 0.85077 0.11828 0.27408
 H2233 H 0.87920 0.14686 0.21833
 H2234 H 0.90720 0.11976 0.21870
 H2235 H 0.86782 0.17746 0.24011
 H2236 H 0.84037 0.20497 0.24049
 H2237 H 0.79252 0.15694 0.25297
 H2238 H 0.82004 0.12947 0.25236
 C2239 C 0.41324 0.58738 0.74896
 C2240 C 0.42726 0.58532 0.76633
 C2241 C 0.44304 0.56961 0.76634
 C2242 C 0.44502 0.55564 0.74904
 C2243 C 0.43105 0.55750 0.73173
 C2244 C 0.41533 0.57327 0.73165
 C2245 C 0.39652 0.60417 0.74889
 C2246 C 0.37616 0.59999 0.74051
 C2247 C 0.36046 0.61577 0.74046
 C2248 C 0.36468 0.63610 0.74888
 C2249 C 0.38503 0.64029 0.75727
 C2250 C 0.40076 0.62454 0.75723
 C2251 C 0.34790 0.65284 0.74901
 C2252 C 0.35311 0.67427 0.74499
 C2253 C 0.33738 0.69003 0.74534
 C2254 C 0.31602 0.68472 0.74961
 C2255 C 0.31078 0.66328 0.75348
 C2256 C 0.32654 0.64755 0.75326
 H2257 H 0.42588 0.59567 0.78006
 H2258 H 0.45367 0.56825 0.77986
 H2259 H 0.43245 0.54683 0.71824
 H2260 H 0.40502 0.57461 0.71790
 H2261 H 0.37227 0.58441 0.73419
 H2262 H 0.34505 0.61208 0.73363
 H2263 H 0.38875 0.65568 0.76411
 H2264 H 0.41634 0.62839 0.76356
 H2265 H 0.36934 0.67886 0.74131
 H2266 H 0.34196 0.70636 0.74210
 H2267 H 0.29451 0.65863 0.75692
 H2268 H 0.32201 0.63126 0.75674
 C2269 C 0.91330 0.91331 0.75022
 C2270 C 0.92699 0.91556 0.76780
 C2271 C 0.94287 0.93118 0.76779
 C2272 C 0.94511 0.94494 0.75035
 C2273 C 0.93143 0.94287 0.73283
 C2274 C 0.91571 0.92706 0.73270
 C2275 C 0.89660 0.89661 0.75016
 C2276 C 0.89375 0.88348 0.73226
 C2277 C 0.87819 0.86753 0.73233
 C2278 C 0.86498 0.86462 0.75017
 C2279 C 0.86771 0.87787 0.76800
 C2280 C 0.88347 0.89362 0.76805
 C2281 C 0.84843 0.84778 0.75020
 C2282 C 0.82762 0.85231 0.75709
 C2283 C 0.81194 0.83648 0.75689
 C2284 C 0.81682 0.81571 0.75005
 C2285 C 0.83772 0.81114 0.74336
 C2286 C 0.85332 0.82706 0.74329
 H2287 H 0.92557 0.90503 0.78140
 H2288 H 0.95337 0.93263 0.78141
 H2289 H 0.93301 0.95343 0.71928
 H2290 H 0.90525 0.92574 0.71904
 H2291 H 0.90377 0.88538 0.71834
 H2292 H 0.87629 0.85762 0.71833
 H2293 H 0.85782 0.87584 0.78200
 H2294 H 0.88527 0.90364 0.78199
 H2295 H 0.82343 0.86820 0.76237
 H2296 H 0.79602 0.84048 0.76224
 H2297 H 0.84198 0.79531 0.73798
 H2298 H 0.86929 0.82313 0.73808
 C2299 C 0.41255 0.41270 0.25050
 C2300 C 0.41487 0.42699 0.26763
 C2301 C 0.43050 0.44285 0.26711
 C2302 C 0.44414 0.44466 0.24951
 C2303 C 0.44202 0.43043 0.23244
 C2304 C 0.42632 0.41463 0.23289
 C2305 C 0.39579 0.39594 0.25095
 C2306 C 0.39985 0.37551 0.24269
 C2307 C 0.38403 0.35983 0.24291
 C2308 C 0.36378 0.36414 0.25150
 C2309 C 0.35976 0.38453 0.25987
 C2310 C 0.37555 0.40025 0.25955
 C2311 C 0.34690 0.34749 0.25160
 C2312 C 0.32553 0.35288 0.24754
 C2313 C 0.30968 0.33723 0.24751
 C2314 C 0.31482 0.31577 0.25140
 C2315 C 0.33618 0.31038 0.25548
 C2316 C 0.35201 0.32605 0.25564
 H2317 H 0.40478 0.42574 0.28157
 H2318 H 0.43206 0.45369 0.28045
 H2319 H 0.45242 0.43171 0.21873
 H2320 H 0.42476 0.40412 0.21930
 H2321 H 0.41534 0.37157 0.23619
 H2322 H 0.38759 0.34438 0.23611
 H2323 H 0.34444 0.38832 0.26684
 H2324 H 0.37179 0.41588 0.26581
 H2325 H 0.32109 0.36917 0.24403
 H2326 H 0.29341 0.34193 0.24421
 H2327 H 0.34068 0.29404 0.25874
 H2328 H 0.36824 0.32140 0.25919
   
