data_POSCAR
  _audit_creation_date              2014-09-24
  _audit_creation_method            'ToBaCCo'
  _symmetry_space_group_name_H-M    'P1'
  _symmetry_Int_Tables_number       1
  _symmetry_cell_setting            triclinic
  loop_
  _symmetry_equiv_pos_as_xyz
 x,y,z
_cell_length_a 51.6751
_cell_length_b 52.8864
_cell_length_c 48.8554
_cell_angle_alpha 90.329100
_cell_angle_beta 90.960300
_cell_angle_gamma 87.218200
loop_
  _atom_site_label
  _atom_site_type_symbol
  _atom_site_fract_x
  _atom_site_fract_y
  _atom_site_fract_z
C1 C 0.32892 -0.02337 0.24060
 C2 C 0.34545 -0.00320 0.23972
 C3 C 0.36382 -0.00248 0.21917
 C4 C 0.36646 -0.02192 0.19964
 C5 C 0.35011 -0.04248 0.20088
 C6 C 0.33110 -0.04336 0.22143
 C7 C 0.34514 0.01643 0.26130
 C8 C 0.35822 0.01133 0.28627
 C9 C 0.36121 0.03072 0.30586
 C10 C 0.34995 0.05483 0.30037
 C11 C 0.33768 0.06041 0.27520
 C12 C 0.33513 0.04106 0.25567
 H13 H 0.31482 -0.02374 0.25676
 H14 H 0.37653 0.01325 0.21878
 H15 H 0.36628 -0.00764 0.28983
 H16 H 0.32659 0.04526 0.23571
 H17 H 0.35154 -0.05702 0.18533
 H18 H 0.35228 0.07003 0.31511
 C19 C 0.15506 -0.02570 0.75579
 C20 C 0.14365 -0.00170 0.76190
 C21 C 0.13219 0.00270 0.78744
 C22 C 0.13073 -0.01706 0.80620
 C23 C 0.14214 -0.04089 0.79995
 C24 C 0.15456 -0.04529 0.77502
 C25 C 0.14015 0.01770 0.74046
 C26 C 0.12471 0.01266 0.71743
 C27 C 0.11751 0.03179 0.69857
 C28 C 0.12725 0.05598 0.70258
 C29 C 0.14333 0.06109 0.72517
 C30 C 0.14941 0.04195 0.74437
 H31 H 0.16331 -0.02927 0.73582
 H32 H 0.12284 0.02102 0.79193
 H33 H 0.11716 -0.00604 0.71507
 H34 H 0.16060 0.04589 0.76269
 H35 H 0.14150 -0.05613 0.81463
 H36 H 0.12255 0.07118 0.68843
 C37 C 0.66119 0.47406 0.26049
 C38 C 0.64311 0.49469 0.25925
 C39 C 0.62280 0.49659 0.27790
 C40 C 0.62021 0.47797 0.29779
 C41 C 0.63907 0.45801 0.29970
 C42 C 0.65925 0.45558 0.28086
 C43 C 0.64315 0.51278 0.23656
 C44 C 0.63148 0.50636 0.21163
 C45 C 0.62697 0.52452 0.19113
 C46 C 0.63538 0.54914 0.19540
 C47 C 0.64792 0.55559 0.22003
 C48 C 0.65145 0.53735 0.24077
 H49 H 0.67645 0.47258 0.24560
 H50 H 0.60835 0.51208 0.27609
 H51 H 0.62458 0.48746 0.20883
 H52 H 0.65964 0.54238 0.26050
 H53 H 0.63793 0.44387 0.31548
 H54 H 0.63244 0.56330 0.17960
 C55 C 0.83415 0.45302 0.74816
 C56 C 0.84407 0.47726 0.74712
 C57 C 0.86038 0.48329 0.72571
 C58 C 0.86755 0.46528 0.70577
 C59 C 0.85703 0.44133 0.70661
 C60 C 0.84031 0.43502 0.72764
 C61 C 0.84020 0.49561 0.76980
 C62 C 0.84909 0.48900 0.79625
 C63 C 0.85093 0.50745 0.81698
 C64 C 0.84228 0.53250 0.81101
 C65 C 0.83314 0.53931 0.78483
 C66 C 0.83201 0.52081 0.76424
 H67 H 0.82231 0.44821 0.76525
 H68 H 0.86870 0.50172 0.72546
 H69 H 0.85646 0.46976 0.80001
 H70 H 0.82632 0.52616 0.74354
 H71 H 0.86173 0.42739 0.69096
 H72 H 0.84369 0.54745 0.82600
 C73 C 0.24827 0.37469 1.04346
 C74 C 0.25755 0.37903 1.01709
 C75 C 0.28251 0.38780 1.01392
 C76 C 0.29803 0.39292 1.03698
 C77 C 0.28847 0.38862 1.06314
 C78 C 0.26383 0.37910 1.06679
 C79 C 0.24109 0.37409 0.99281
 C80 C 0.21608 0.38557 0.99059
 C81 C 0.19980 0.38021 0.96816
 C82 C 0.20841 0.36226 0.94870
 C83 C 0.23352 0.35101 0.95043
 C84 C 0.24997 0.35727 0.97231
 H85 H 0.22898 0.36793 1.04535
 H86 H 0.28965 0.39045 0.99349
 H87 H 0.20938 0.39840 1.00660
 H88 H 0.26915 0.34814 0.97417
 H89 H 0.30067 0.39230 1.08088
 H90 H 0.19572 0.35744 0.93175
 C91 C 0.74111 0.14442 1.03744
 C92 C 0.73150 0.13172 1.01437
 C93 C 0.70780 0.12003 1.01569
 C94 C 0.69392 0.12049 1.04013
 C95 C 0.70345 0.13352 1.06284
 C96 C 0.72720 0.14533 1.06196
 C97 C 0.74735 0.12883 0.98963
 C98 C 0.77290 0.11900 0.99196
 C99 C 0.78812 0.11514 0.96875
 C100 C 0.77782 0.12200 0.94290
 C101 C 0.75255 0.13302 0.94044
 C102 C 0.73713 0.13563 0.96385
 H103 H 0.75974 0.15274 1.03611
 H104 H 0.70061 0.11010 0.99789
 H105 H 0.78080 0.11377 1.01195
 H106 H 0.71734 0.14326 0.96221
 H107 H 0.69264 0.13365 1.08170
 H108 H 0.78981 0.12000 0.92496
 C109 C 0.24950 0.64580 0.53231
 C110 C 0.23996 0.62941 0.51240
 C111 C 0.21846 0.61521 0.51791
 C112 C 0.20614 0.61758 0.54336
 C113 C 0.21526 0.63488 0.56272
 C114 C 0.23706 0.64876 0.55746
 C115 C 0.25138 0.62869 0.48507
 C116 C 0.27270 0.61227 0.47956
 C117 C 0.28460 0.61248 0.45382
 C118 C 0.27465 0.62951 0.43374
 C119 C 0.25338 0.64628 0.43939
 C120 C 0.24197 0.64577 0.46514
 H121 H 0.26578 0.65711 0.52765
 H122 H 0.21104 0.60315 0.50195
 H123 H 0.28038 0.60025 0.49589
 H124 H 0.22589 0.65894 0.46986
 H125 H 0.20548 0.63744 0.58207
 H126 H 0.28410 0.63039 0.41417
 C127 C 0.75664 0.85936 0.53966
 C128 C 0.76217 0.87263 0.51590
 C129 C 0.78505 0.88582 0.51470
 C130 C 0.80268 0.88578 0.53713
 C131 C 0.79713 0.87149 0.56038
 C132 C 0.77417 0.85848 0.56183
 C133 C 0.74378 0.87307 0.49239
 C134 C 0.71761 0.88006 0.49637
 C135 C 0.70016 0.88197 0.47415
 C136 C 0.70895 0.87596 0.44771
 C137 C 0.73487 0.86776 0.44359
 C138 C 0.75232 0.86680 0.46597
 H139 H 0.73915 0.84890 0.54041
 H140 H 0.78825 0.89644 0.49638
 H141 H 0.71097 0.88482 0.51679
 H142 H 0.77251 0.86120 0.46292
 H143 H 0.81057 0.87064 0.57768
 H144 H 0.69549 0.87668 0.43046
 C145 C -0.01751 0.24286 0.36707
 C146 C 0.00466 0.24285 0.38402
 C147 C 0.01195 0.22141 0.39964
 C148 C -0.00367 0.20044 0.39992
 C149 C -0.02580 0.20065 0.38266
 C150 C -0.03267 0.22144 0.36573
 C151 C 0.01933 0.26590 0.38710
 C152 C 0.00924 0.28618 0.40290
 C153 C 0.02428 0.30692 0.40888
 C154 C 0.04921 0.30769 0.39794
 C155 C 0.05894 0.28812 0.38094
 C156 C 0.04406 0.26700 0.37593
 H157 H -0.02267 0.25973 0.35542
 H158 H 0.02909 0.22174 0.41275
 H159 H -0.00991 0.28529 0.41149
 H160 H 0.05184 0.25119 0.36392
 H161 H -0.03733 0.18411 0.38141
 H162 H 0.06080 0.32388 0.40198
 C163 C -0.04938 0.76077 0.12357
 C164 C -0.02742 0.76152 0.10706
 C165 C -0.02562 0.78095 0.08778
 C166 C -0.04594 0.79935 0.08437
 C167 C -0.06811 0.79786 0.10031
 C168 C -0.07002 0.77904 0.12034
 C169 C -0.00653 0.74152 0.10898
 C170 C -0.00808 0.71934 0.09306
 C171 C 0.01325 0.70168 0.09174
 C172 C 0.03592 0.70680 0.10669
 C173 C 0.03740 0.72843 0.12319
 C174 C 0.01605 0.74578 0.12439
 H175 H -0.05043 0.74545 0.13803
 H176 H -0.00870 0.78112 0.07502
 H177 H -0.02551 0.71676 0.08102
 H178 H 0.01745 0.76317 0.13606
 H179 H -0.08388 0.81195 0.09742
 H180 H 0.05281 0.69383 0.10552
 C181 C 0.46033 0.25664 0.62663
 C182 C 0.48166 0.25749 0.60925
 C183 C 0.48234 0.27656 0.58936
 C184 C 0.46137 0.29438 0.58632
 C185 C 0.44010 0.29296 0.60355
 C186 C 0.43947 0.27444 0.62382
 C187 C 0.50181 0.23681 0.60989
 C188 C 0.49579 0.21271 0.60055
 C189 C 0.51478 0.19291 0.60011
 C190 C 0.53978 0.19696 0.61061
 C191 C 0.54572 0.22093 0.62116
 C192 C 0.52683 0.24094 0.61982
 H193 H 0.45953 0.24145 0.64134
 H194 H 0.49851 0.27652 0.57558
 H195 H 0.47638 0.20955 0.59291
 H196 H 0.53128 0.25957 0.62739
 H197 H 0.42364 0.30632 0.60101
 H198 H 0.55431 0.18150 0.61081
 C199 C 0.48251 0.73284 0.86447
 C200 C 0.50561 0.73212 0.87991
 C201 C 0.51357 0.71008 0.89421
 C202 C 0.49774 0.68922 0.89472
 C203 C 0.47465 0.69018 0.87885
 C204 C 0.46725 0.71160 0.86321
 C205 C 0.52046 0.75506 0.88293
 C206 C 0.51012 0.77574 0.89797
 C207 C 0.52497 0.79672 0.90334
 C208 C 0.54992 0.79738 0.89246
 C209 C 0.55988 0.77743 0.87610
 C210 C 0.54525 0.75599 0.87188
 H211 H 0.47643 0.75013 0.85394
 H212 H 0.53140 0.70985 0.90627
 H213 H 0.49087 0.77506 0.90637
 H214 H 0.55314 0.73994 0.86034
 H215 H 0.46268 0.67397 0.87761
 H216 H 0.56128 0.81383 0.89593
 C217 C -0.28969 0.60070 1.01099
 C218 C -0.26970 0.61776 1.01214
 C219 C -0.27055 0.63756 1.03135
 C220 C -0.29092 0.64034 1.04983
 C221 C -0.31109 0.62353 1.04818
 C222 C -0.31092 0.60373 1.02875
 C223 C -0.24798 0.61557 0.99291
 C224 C -0.24470 0.63488 0.97392
 C225 C -0.22330 0.63419 0.95644
 C226 C -0.20434 0.61422 0.95944
 C227 C -0.20728 0.59502 0.97882
 C228 C -0.22954 0.59535 0.99484
 H229 H -0.28868 0.58579 0.99578
 H230 H -0.25504 0.65066 1.03210
 H231 H -0.25918 0.65040 0.97269
 H232 H -0.23176 0.58071 1.00995
 H233 H -0.32752 0.62630 1.06151
 H234 H -0.18706 0.61343 0.94726
 C235 C -0.27479 0.41117 0.50154
 C236 C -0.25008 0.39968 0.49775
 C237 C -0.24430 0.38742 0.47303
 C238 C -0.26319 0.38576 0.45233
 C239 C -0.28780 0.39769 0.45600
 C240 C -0.29399 0.41042 0.48077
 C241 C -0.23137 0.39718 0.52078
 C242 C -0.23691 0.38138 0.54261
 C243 C -0.21812 0.37523 0.56279
 C244 C -0.19404 0.38636 0.56177
 C245 C -0.18829 0.40258 0.54027
 C246 C -0.20698 0.40765 0.51950
 H247 H -0.27916 0.42017 0.52103
 H248 H -0.22541 0.37790 0.47054
 H249 H -0.25547 0.37266 0.54294
 H250 H -0.20253 0.41899 0.50197
 H251 H -0.30154 0.39732 0.43919
 H252 H -0.17951 0.38247 0.57757
 C253 C 0.22035 -0.09868 -0.00593
 C254 C 0.24588 -0.10758 -0.01071
 C255 C 0.25148 -0.12172 -0.03443
 C256 C 0.23177 -0.12779 -0.05319
 C257 C 0.20628 -0.11838 -0.04822
 C258 C 0.20046 -0.10374 -0.02482
 C259 C 0.26638 -0.10438 0.01028
 C260 C 0.26301 -0.11364 0.03685
 C261 C 0.28343 -0.11361 0.05635
 C262 C 0.30667 -0.10310 0.04911
 C263 C 0.31042 -0.09425 0.02265
 C264 C 0.29022 -0.09470 0.00321
 H265 H 0.21616 -0.08841 0.01281
 H266 H 0.27120 -0.12902 -0.03753
 H267 H 0.24464 -0.12133 0.04167
 H268 H 0.29332 -0.08861 -0.01757
 H269 H 0.19057 -0.12236 -0.06218
 H270 H 0.32275 -0.10318 0.06372
 C271 C 0.20528 1.11248 0.50442
 C272 C 0.22714 1.12726 0.50561
 C273 C 0.22895 1.14614 0.52571
 C274 C 0.20927 1.15050 0.54482
 C275 C 0.18720 1.13605 0.54300
 C276 C 0.18500 1.11700 0.52301
 C277 C 0.24806 1.12378 0.48553
 C278 C 0.25193 1.14285 0.46642
 C279 C 0.27296 1.14113 0.44843
 C280 C 0.29088 1.12022 0.45091
 C281 C 0.28750 1.10132 0.47055
 C282 C 0.26559 1.10278 0.48714
 H283 H 0.20388 1.09832 0.48847
 H284 H 0.24597 1.15736 0.52653
 H285 H 0.23831 1.15911 0.46562
 H286 H 0.26303 1.08842 0.50248
 H287 H 0.17134 1.13965 0.55684
 H288 H 0.30784 1.11862 0.43827
 C289 C 0.12508 0.50517 0.22951
 C290 C 0.13759 0.51788 0.25072
 C291 C 0.14688 0.54191 0.24615
 C292 C 0.14421 0.55317 0.22015
 C293 C 0.13147 0.54026 0.19907
 C294 C 0.12181 0.51626 0.20369
 C295 C 0.13949 0.50657 0.27813
 C296 C 0.15470 0.48429 0.28260
 C297 C 0.15539 0.47259 0.30842
 C298 C 0.14027 0.48336 0.32951
 C299 C 0.12474 0.50559 0.32501
 C300 C 0.12456 0.51712 0.29931
 H301 H 0.11730 0.48686 0.23336
 H302 H 0.15554 0.55182 0.26315
 H303 H 0.16519 0.47583 0.26560
 H304 H 0.11221 0.53394 0.29551
 H305 H 0.12842 0.54930 0.17937
 H306 H 0.13985 0.47385 0.34907
 C307 C -0.13791 0.99732 0.20364
 C308 C -0.14723 0.98806 0.22819
 C309 C -0.16070 0.96576 0.22834
 C310 C -0.16534 0.95250 0.20380
 C311 C -0.15571 0.96193 0.17933
 C312 C -0.14174 0.98411 0.17892
 C313 C -0.14304 1.00189 0.25393
 C314 C -0.15719 1.02459 0.25899
 C315 C -0.15355 1.03817 0.28363
 C316 C -0.13614 1.02768 0.30351
 C317 C -0.12152 1.00509 0.29818
 C318 C -0.12499 0.99240 0.27331
 H319 H -0.12790 1.01479 0.20429
 H320 H -0.16707 0.95903 0.24783
 H321 H -0.17130 1.03091 0.24364
 H322 H -0.11368 0.97506 0.26902
 H323 H -0.15889 0.95167 0.16035
 H324 H -0.13284 1.03782 0.32251
 C325 C 0.38044 0.49488 -0.29955
 C326 C 0.36928 0.48851 -0.27469
 C327 C 0.35808 0.46509 -0.27188
 C328 C 0.35796 0.44781 -0.29382
 C329 C 0.37028 0.45391 -0.31814
 C330 C 0.38164 0.47734 -0.32136
 C331 C 0.37144 0.50546 -0.25081
 C332 C 0.35927 0.52974 -0.25107
 C333 C 0.36231 0.54642 -0.22869
 C334 C 0.37836 0.53832 -0.20654
 C335 C 0.39068 0.51412 -0.20623
 C336 C 0.38682 0.49760 -0.22826
 H337 H 0.38973 0.51273 -0.30082
 H338 H 0.35012 0.46040 -0.25232
 H339 H 0.34734 0.53497 -0.26870
 H340 H 0.39680 0.47910 -0.22864
 H341 H 0.37096 0.44022 -0.33477
 H342 H 0.38153 0.55099 -0.18939
 C343 C 0.61989 -0.00992 -0.29100
 C344 C 0.63049 0.00071 -0.26716
 C345 C 0.64276 0.02372 -0.26850
 C346 C 0.64522 0.03592 -0.29368
 C347 C 0.63463 0.02517 -0.31731
 C348 C 0.62163 0.00245 -0.31634
 C349 C 0.62998 -0.01266 -0.24083
 C350 C 0.64473 -0.03534 -0.23724
 C351 C 0.64627 -0.04727 -0.21154
 C352 C 0.63202 -0.03652 -0.18976
 C353 C 0.61686 -0.01389 -0.19330
 C354 C 0.61602 -0.00206 -0.21892
 H355 H 0.61083 -0.02786 -0.28952
 H356 H 0.65040 0.03185 -0.24984
 H357 H 0.65490 -0.04340 -0.25463
 H358 H 0.60457 0.01548 -0.22182
 H359 H 0.63637 0.03484 -0.33668
 H360 H 0.63246 -0.04605 -0.17018
 C361 C -0.00400 0.22016 0.89084
 C362 C -0.01016 0.24009 0.87279
 C363 C -0.03146 0.23870 0.85475
 C364 C -0.04685 0.21741 0.85487
 C365 C -0.04046 0.19761 0.87327
 C366 C -0.01914 0.19893 0.89140
 C367 C 0.00574 0.26246 0.87325
 C368 C 0.02664 0.26396 0.85552
 C369 C 0.04286 0.28459 0.85715
 C370 C 0.03753 0.30384 0.87652
 C371 C 0.01668 0.30237 0.89453
 C372 C 0.00080 0.28166 0.89257
 H373 H 0.01260 0.22128 0.90460
 H374 H -0.03554 0.25401 0.84050
 H375 H 0.02995 0.24907 0.84051
 H376 H -0.01531 0.28027 0.90634
 H377 H -0.05185 0.18094 0.87304
 H378 H 0.04959 0.32001 0.87732
 C379 C 0.51649 0.21315 0.12756
 C380 C 0.52216 0.23592 0.14046
 C381 C 0.54538 0.23767 0.15543
 C382 C 0.56312 0.21661 0.15757
 C383 C 0.55739 0.19399 0.14376
 C384 C 0.53413 0.19225 0.12861
 C385 C 0.50391 0.25803 0.13728
 C386 C 0.47914 0.25789 0.14853
 C387 C 0.46082 0.27790 0.14335
 C388 C 0.46730 0.29753 0.12577
 C389 C 0.49209 0.29772 0.11422
 C390 C 0.51045 0.27819 0.12070
 H391 H 0.49848 0.21195 0.11600
 H392 H 0.54891 0.25528 0.16587
 H393 H 0.47413 0.24185 0.16068
 H394 H 0.52952 0.27798 0.11174
 H395 H 0.57075 0.17761 0.14536
 H396 H 0.45315 0.31284 0.12155
 C397 C 0.02026 0.72313 0.62291
 C398 C 0.02053 0.74819 0.63252
 C399 C 0.04390 0.75783 0.64214
 C400 C 0.06684 0.74251 0.64196
 C401 C 0.06634 0.71759 0.63218
 C402 C 0.04317 0.70777 0.62263
 C403 C -0.00352 0.76441 0.63144
 C404 C -0.02562 0.75729 0.64535
 C405 C -0.04914 0.77177 0.64281
 C406 C -0.05008 0.79322 0.62592
 C407 C -0.02811 0.80076 0.61227
 C408 C -0.00472 0.78632 0.61529
 H409 H 0.00219 0.71565 0.61573
 H410 H 0.04427 0.77724 0.64930
 H411 H -0.02437 0.74013 0.65735
 H412 H 0.01254 0.79183 0.60508
 H413 H 0.08410 0.70578 0.63200
 H414 H -0.06810 0.80449 0.62361
 C415 C 0.47941 0.70551 0.37883
 C416 C 0.47668 0.72872 0.36512
 C417 C 0.45770 0.73234 0.34445
 C418 C 0.44182 0.71250 0.33692
 C419 C 0.44539 0.68911 0.35016
 C420 C 0.46372 0.68564 0.37140
 C421 C 0.49459 0.74875 0.37154
 C422 C 0.52008 0.74667 0.36214
 C423 C 0.53748 0.76553 0.36846
 C424 C 0.52934 0.78595 0.38523
 C425 C 0.50374 0.78822 0.39463
 C426 C 0.48634 0.76974 0.38725
 H427 H 0.49430 0.70272 0.39457
 H428 H 0.45612 0.75026 0.33383
 H429 H 0.52625 0.73028 0.35009
 H430 H 0.46651 0.77138 0.39420
 H431 H 0.43355 0.67355 0.34420
 H432 H 0.54272 0.80056 0.38998
 B433 B -0.02513 0.01136 1.01943
 B434 B -0.03592 0.01029 0.98682
 B435 B -0.01128 0.02845 0.99537
 B436 B 0.00735 0.01358 1.01965
 B437 B -0.00612 -0.01465 1.02592
 B438 B -0.03335 -0.01647 1.00557
 B439 B 0.00832 -0.01436 0.97236
 B440 B 0.01924 -0.01327 1.00479
 B441 B -0.00549 -0.03149 0.99651
 B442 B -0.02408 -0.01662 0.97217
 B443 B -0.01055 0.01161 0.96591
 B444 B 0.01651 0.01347 0.98632
 B445 B 0.47504 0.50020 0.50448
 B446 B 0.45505 0.49853 0.47729
 B447 B 0.48139 0.51569 0.47576
 B448 B 0.50582 0.50082 0.49362
 B449 B 0.49413 0.47343 0.50592
 B450 B 0.46226 0.47240 0.49605
 B451 B 0.49150 0.47141 0.45015
 B452 B 0.51159 0.47307 0.47725
 B453 B 0.48535 0.45591 0.47876
 B454 B 0.46078 0.47074 0.46107
 B455 B 0.47258 0.49797 0.44864
 B456 B 0.50448 0.49901 0.45867
 B457 B 0.50706 0.97664 0.52102
 B458 B 0.51974 0.97771 0.48968
 B459 B 0.49328 0.96134 0.49490
 B460 B 0.47433 0.97691 0.51788
 B461 B 0.48971 1.00363 0.52691
 B462 B 0.51813 1.00404 0.50938
 B463 B 0.47836 1.00594 0.47209
 B464 B 0.46549 1.00483 0.50322
 B465 B 0.49200 1.02121 0.49838
 B466 B 0.51081 1.00564 0.47526
 B467 B 0.49559 0.97872 0.46634
 B468 B 0.46714 0.97856 0.48360
 B469 B 0.02141 0.48982 1.02448
 B470 B 0.03028 0.49123 0.99177
 B471 B 0.00903 0.47022 1.00148
 B472 B -0.01025 0.48350 1.02578
 B473 B -0.00037 0.51366 1.03082
 B474 B 0.02510 0.51810 1.00981
 B475 B -0.01723 0.50949 0.97777
 B476 B -0.02614 0.50821 1.01046
 B477 B -0.00482 0.52915 1.00091
 B478 B 0.01436 0.51592 0.97659
 B479 B 0.00463 0.48571 0.97152
 B480 B -0.02093 0.48120 0.99260
 B481 B 0.02832 0.51470 0.50539
 B482 B 0.04478 0.50822 0.53445
 B483 B 0.01973 0.52955 0.53426
 B484 B -0.00333 0.51978 0.51228
 B485 B 0.00797 0.49150 0.49890
 B486 B 0.03813 0.48461 0.51262
 B487 B 0.00364 0.48599 0.55429
 B488 B -0.01289 0.49229 0.52509
 B489 B 0.01230 0.47107 0.52520
 B490 B 0.03531 0.48086 0.54717
 B491 B 0.02399 0.50909 0.56060
 B492 B -0.00624 0.51614 0.54674
 B493 B 0.53091 0.00657 -0.00673
 B494 B 0.54340 0.00097 0.02459
 B495 B 0.51965 0.02327 0.02002
 B496 B 0.49882 0.01342 -0.00429
 B497 B 0.51026 -0.01593 -0.01468
 B498 B 0.53828 -0.02336 0.00325
 B499 B 0.49897 -0.01842 0.03977
 B500 B 0.48639 -0.01290 0.00836
 B501 B 0.51043 -0.03512 0.01283
 B502 B 0.53111 -0.02516 0.03722
 B503 B 0.51965 0.00416 0.04760
 B504 B 0.49156 0.01157 0.02959
 B505 B 0.49116 0.47172 -0.03600
 B506 B 0.47269 0.47513 -0.00832
 B507 B 0.49893 0.45534 -0.00767
 B508 B 0.52252 0.46800 -0.02599
 B509 B 0.51020 0.49658 -0.03781
 B510 B 0.47892 0.50065 -0.02702
 B511 B 0.51066 0.49836 0.01812
 B512 B 0.52933 0.49515 -0.00956
 B513 B 0.50284 0.51480 -0.01034
 B514 B 0.47939 0.50204 0.00796
 B515 B 0.49185 0.47358 0.01990
 B516 B 0.52307 0.46947 0.00892
 B517 B -0.01538 0.98203 0.47317
 B518 B -0.03454 0.98711 0.50013
 B519 B -0.00832 0.96726 0.50266
 B520 B 0.01570 0.97880 0.48403
 B521 B 0.00375 1.00666 0.47007
 B522 B -0.02774 1.01148 0.47997
 B523 B 0.00308 1.01154 0.52583
 B524 B 0.02232 1.00672 0.49880
 B525 B -0.00406 1.02642 0.49622
 B526 B -0.02799 1.01485 0.51479
 B527 B -0.01597 0.98711 0.52878
 B528 B 0.01551 0.98210 0.51878
 B529 B 0.77763 0.23802 0.23098
 B530 B 0.77617 0.22287 0.26094
 B531 B 0.79580 0.24689 0.25768
 B532 B 0.78123 0.26900 0.23708
 B533 B 0.75173 0.25818 0.22776
 B534 B 0.74888 0.22922 0.24248
 B535 B 0.75292 0.26414 0.28342
 B536 B 0.75432 0.27929 0.25345
 B537 B 0.73468 0.25516 0.25660
 B538 B 0.74926 0.23308 0.27730
 B539 B 0.77880 0.24396 0.28663
 B540 B 0.78178 0.27290 0.27173
 B541 B 0.74416 0.76693 0.73498
 B542 B 0.75371 0.78325 0.76247
 B543 B 0.73123 0.76171 0.76542
 B544 B 0.73855 0.73714 0.74442
 B545 B 0.76653 0.74373 0.72846
 B546 B 0.77575 0.77273 0.73958
 B547 B 0.77685 0.74087 0.78339
 B548 B 0.76726 0.72461 0.75577
 B549 B 0.78981 0.74619 0.75284
 B550 B 0.78245 0.77082 0.77391
 B551 B 0.75447 0.76411 0.78990
 B552 B 0.74522 0.73512 0.77870
 B553 B 0.26565 0.26592 0.77709
 B554 B 0.25830 0.28527 0.75087
 B555 B 0.27796 0.25955 0.74625
 B556 B 0.26769 0.23583 0.76556
 B557 B 0.24062 0.24733 0.78206
 B558 B 0.23515 0.27837 0.77313
 B559 B 0.23060 0.24939 0.72696
 B560 B 0.23792 0.22995 0.75330
 B561 B 0.21819 0.25572 0.75793
 B562 B 0.22850 0.27955 0.73871
 B563 B 0.25541 0.26797 0.72220
 B564 B 0.26104 0.23687 0.73124
 B565 B 0.22341 0.74723 0.26409
 B566 B 0.22841 0.72882 0.23663
 B567 B 0.20788 0.75427 0.23453
 B568 B 0.21970 0.77772 0.25411
 B569 B 0.24853 0.76611 0.26801
 B570 B 0.25357 0.73554 0.25728
 B571 B 0.25302 0.76578 0.21241
 B572 B 0.24808 0.78443 0.23998
 B573 B 0.26848 0.75881 0.24179
 B574 B 0.25659 0.73540 0.22253
 B575 B 0.22804 0.74697 0.20855
 B576 B 0.22294 0.77775 0.21925
 B577 B 0.28474 0.74629 0.71710
 B578 B 0.27865 0.72662 0.74268
 B579 B 0.29999 0.74919 0.74723
 B580 B 0.28929 0.77535 0.72996
 B581 B 0.26046 0.76846 0.71481
 B582 B 0.25415 0.73788 0.72254
 B583 B 0.25521 0.76506 0.77018
 B584 B 0.26102 0.78467 0.74444
 B585 B 0.23982 0.76192 0.73993
 B586 B 0.25055 0.73592 0.75721
 B587 B 0.27936 0.74289 0.77249
 B588 B 0.28581 0.77346 0.76450
 B589 B 0.24272 0.28811 0.24047
 B590 B 0.25304 0.30014 0.27034
 B591 B 0.23077 0.27809 0.26989
 B592 B 0.23764 0.25710 0.24470
 B593 B 0.26490 0.26645 0.22928
 B594 B 0.27437 0.29347 0.24528
 B595 B 0.27705 0.25538 0.28276
 B596 B 0.26671 0.24336 0.25290
 B597 B 0.28898 0.26547 0.25318
 B598 B 0.28216 0.28639 0.27857
 B599 B 0.25473 0.27708 0.29388
 B600 B 0.24538 0.25001 0.27796
 B601 B 0.75652 0.76838 0.27175
 B602 B 0.74588 0.78530 0.24438
 B603 B 0.76738 0.76073 0.24052
 B604 B 0.76025 0.73763 0.26240
 B605 B 0.73373 0.74832 0.28014
 B606 B 0.72505 0.77824 0.26905
 B607 B 0.72007 0.74573 0.22590
 B608 B 0.73050 0.72875 0.25311
 B609 B 0.70923 0.75342 0.25723
 B610 B 0.71622 0.77640 0.23521
 B611 B 0.74284 0.76570 0.21755
 B612 B 0.75154 0.73581 0.22863
 B613 B 0.73447 0.21801 0.76261
 B614 B 0.74357 0.20146 0.73485
 B615 B 0.72059 0.22480 0.73228
 B616 B 0.72815 0.24849 0.75387
 B617 B 0.75675 0.23929 0.76988
 B618 B 0.76599 0.20975 0.75816
 B619 B 0.76542 0.24215 0.71491
 B620 B 0.75646 0.25887 0.74278
 B621 B 0.77934 0.23535 0.74548
 B622 B 0.77175 0.21170 0.72384
 B623 B 0.74314 0.22094 0.70782
 B624 B 0.73388 0.25053 0.71971
 C625 C 0.37640 1.02774 0.32991
 C626 C 0.39533 1.00837 0.33421
 C627 C 0.41419 1.00959 0.35704
 N628 N 0.43732 0.99651 0.35536
 N629 N 0.45498 0.99797 0.37538
 C630 C 0.45019 1.01249 0.39788
 N631 N 0.42697 1.02551 0.39971
 N632 N 0.40937 1.02423 0.37954
 C633 C 0.46943 1.01215 0.42034
 C634 C 0.46332 1.01921 0.44714
 H635 H 0.39889 0.99381 0.31893
 H636 H 0.48776 1.00206 0.41643
 H637 H 0.37561 1.04308 0.34475
 H638 H 0.44512 1.02945 0.45113
 C639 C -0.13594 0.50085 0.84162
 C640 C -0.13102 0.51778 0.86306
 C641 C -0.10991 0.51275 0.88307
 N642 N -0.10363 0.53094 0.90143
 N643 N -0.08320 0.52742 0.91823
 C644 C -0.06825 0.50563 0.91708
 N645 N -0.07468 0.48739 0.89893
 N646 N -0.09504 0.49092 0.88214
 C647 C -0.04586 0.50093 0.93538
 C648 C -0.03742 0.51834 0.95475
 H649 H -0.14097 0.53614 0.86436
 H650 H -0.03643 0.48220 0.93434
 H651 H -0.12718 0.48185 0.84316
 H652 H -0.04661 0.53713 0.95602
 C653 C 0.11659 -0.01288 0.83187
 C654 C 0.10149 -0.03144 0.84274
 C655 C 0.08782 -0.02762 0.86858
 N656 N 0.06867 -0.04300 0.87541
 N657 N 0.05608 -0.03952 0.89884
 C658 C 0.06250 -0.02070 0.91631
 N659 N 0.08184 -0.00557 0.90960
 N660 N 0.09425 -0.00891 0.88614
 C661 C 0.04867 -0.01564 0.94177
 C662 C 0.02500 -0.02575 0.94795
 H663 H 0.09893 -0.04892 0.83158
 H664 H 0.05680 -0.00169 0.95527
 H665 H 0.11673 0.00565 0.84144
 H666 H 0.01660 -0.03959 0.93450
 C667 C 0.59722 0.47960 0.31551
 C668 C 0.58801 0.45896 0.32949
 C669 C 0.56466 0.46137 0.34621
 N670 N 0.55934 0.44281 0.36406
 N671 N 0.53890 0.44539 0.38030
 C672 C 0.52286 0.46648 0.37893
 N673 N 0.52791 0.48476 0.36070
 N674 N 0.54842 0.48227 0.34463
 C675 C 0.50230 0.47143 0.39883
 C676 C 0.50101 0.45773 0.42304
 H677 H 0.59798 0.44055 0.32852
 H678 H 0.49133 0.48932 0.39682
 H679 H 0.58631 0.49760 0.31648
 H680 H 0.51148 0.43959 0.42492
 C681 C 0.61276 0.51701 0.16612
 C682 C 0.59767 0.53377 0.14977
 C683 C 0.58088 0.52432 0.12771
 N684 N 0.56687 0.54066 0.11124
 N685 N 0.55146 0.53201 0.09146
 C686 C 0.54940 0.50670 0.08769
 N687 N 0.56332 0.49046 0.10420
 N688 N 0.57871 0.49908 0.12384
 C689 C 0.53379 0.49629 0.06539
 C690 C 0.52063 0.51099 0.04551
 H691 H 0.59705 0.55390 0.15389
 H692 H 0.53443 0.47585 0.06354
 H693 H 0.61228 0.49691 0.16186
 H694 H 0.51903 0.53138 0.04761
 C695 C 0.10019 1.02603 0.67715
 C696 C 0.08966 1.04322 0.65774
 C697 C 0.07073 1.03538 0.63693
 N698 N 0.06227 1.05165 0.61692
 N699 N 0.04563 1.04437 0.59760
 C700 C 0.03675 1.02061 0.59782
 N701 N 0.04500 1.00451 0.61796
 N702 N 0.06162 1.01176 0.63718
 C703 C 0.02046 1.01108 0.57562
 C704 C 0.01260 1.02528 0.55273
 H705 H 0.09496 1.06269 0.65733
 H706 H 0.01678 0.99109 0.57620
 H707 H 0.09397 1.00676 0.67597
 H708 H 0.01481 1.04550 0.55258
 C709 C -0.11333 0.47210 0.68512
 C710 C -0.09843 0.45456 0.66979
 C711 C -0.07778 0.46268 0.65189
 N712 N -0.06529 0.44582 0.63498
 N713 N -0.04665 0.45320 0.61866
 C714 C -0.03971 0.47765 0.61894
 N715 N -0.05206 0.49437 0.63598
 N716 N -0.07070 0.48704 0.65216
 C717 C -0.02060 0.48699 0.60010
 C718 C -0.00935 0.47252 0.57906
 H719 H -0.10120 0.43450 0.67131
 H720 H -0.01731 0.50705 0.60131
 H721 H -0.10955 0.49199 0.68329
 H722 H -0.01166 0.45231 0.57815
 C723 C 0.38630 -0.01918 0.17835
 C724 C 0.39535 -0.03793 0.16003
 C725 C 0.41589 -0.03252 0.14042
 N726 N 0.42426 -0.05013 0.12174
 N727 N 0.44255 -0.04486 0.10388
 C728 C 0.45317 -0.02182 0.10421
 N729 N 0.44488 -0.00440 0.12293
 N730 N 0.42668 -0.00963 0.14066
 C731 C 0.47233 -0.01447 0.08417
 C732 C 0.48237 -0.03004 0.06332
 H733 H 0.38774 -0.05661 0.16010
 H734 H 0.47783 0.00502 0.08530
 H735 H 0.39497 -0.00096 0.17761
 H736 H 0.47779 -0.04977 0.06232
 C737 C 0.32466 0.40181 0.03490
 C738 C 0.33397 0.41418 0.01219
 C739 C 0.36044 0.42337 0.01203
 N740 N 0.36831 0.43725 -0.00930
 N741 N 0.39212 0.44590 -0.00941
 C742 C 0.40891 0.44096 0.01180
 N743 N 0.40108 0.42699 0.03304
 N744 N 0.37729 0.41839 0.03317
 C745 C 0.43522 0.45036 0.01222
 C746 C 0.44427 0.46542 -0.00853
 H747 H 0.32151 0.41815 -0.00542
 H748 H 0.44783 0.44510 0.02940
 H749 H 0.33720 0.39951 0.05281
 H750 H 0.43165 0.47078 -0.02565
 C751 C -0.17470 0.89972 0.53756
 C752 C -0.16613 0.91409 0.51577
 C753 C -0.14298 0.92921 0.51803
 N754 N -0.13371 0.94004 0.49532
 N755 N -0.11272 0.95366 0.49684
 C756 C -0.10031 0.95717 0.52119
 N757 N -0.10971 0.94654 0.54397
 N758 N -0.13065 0.93280 0.54243
 C759 C -0.07634 0.97109 0.52291
 C760 C -0.06304 0.97741 0.49952
 H761 H -0.17592 0.91424 0.49610
 H762 H -0.06795 0.97451 0.54297
 H763 H -0.16303 0.89940 0.55622
 H764 H -0.07202 0.97457 0.47965
 C765 C -0.18495 0.10528 0.97290
 C766 C -0.17173 0.08913 0.95466
 C767 C -0.14619 0.07746 0.96242
 N768 N -0.13536 0.05793 0.94768
 N769 N -0.11281 0.04668 0.95565
 C770 C -0.10037 0.05463 0.97864
 N771 N -0.11107 0.07428 0.99311
 N772 N -0.13353 0.08543 0.98520
 C773 C -0.07578 0.04271 0.98850
 C774 C -0.06323 0.02178 0.97626
 H775 H -0.18091 0.08358 0.93561
 H776 H -0.06761 0.05091 1.00673
 H777 H -0.17606 0.10900 0.99267
 H778 H -0.07183 0.01333 0.95826
 C779 C 0.30866 0.59690 0.44828
 C780 C 0.31685 0.57586 0.46395
 C781 C 0.34279 0.56330 0.46167
 N782 N 0.35002 0.54422 0.47904
 N783 N 0.37377 0.53328 0.47823
 C784 C 0.39122 0.54104 0.45998
 N785 N 0.38396 0.56004 0.44248
 N786 N 0.36021 0.57102 0.44334
 C787 C 0.41766 0.52939 0.45910
 C788 C 0.42669 0.51110 0.47790
 H789 H 0.30428 0.56860 0.47920
 H790 H 0.43040 0.53565 0.44339
 H791 H 0.32076 0.60269 0.43176
 H792 H 0.41404 0.50501 0.49376
 C793 C 0.18301 0.60341 0.54994
 C794 C 0.17657 0.58109 0.53666
 C795 C 0.15276 0.56814 0.54269
 N796 N 0.14660 0.54751 0.52780
 N797 N 0.12462 0.53614 0.53216
 C798 C 0.10801 0.54490 0.55169
 N799 N 0.11429 0.56539 0.56680
 N800 N 0.13626 0.57681 0.56239
 C801 C 0.08279 0.53367 0.55525
 C802 C 0.07395 0.51556 0.53704
 H803 H 0.18908 0.57277 0.52117
 H804 H 0.07025 0.54124 0.57109
 H805 H 0.17089 0.61057 0.56642
 H806 H 0.08689 0.50777 0.52159
 C807 C 0.67001 0.10670 0.04316
 C808 C 0.66619 0.08371 0.03002
 C809 C 0.64382 0.06865 0.03582
 N810 N 0.64086 0.04641 0.02247
 N811 N 0.62044 0.03275 0.02716
 C812 C 0.60235 0.04072 0.04556
 N813 N 0.60545 0.06283 0.05912
 N814 N 0.62585 0.07652 0.05440
 C815 C 0.57843 0.02726 0.04878
 C816 C 0.57221 0.00770 0.03107
 H817 H 0.68044 0.07594 0.01589
 H818 H 0.56394 0.03534 0.06248
 H819 H 0.65633 0.11347 0.05843
 H820 H 0.58691 -0.00067 0.01783
 C821 C 0.67285 0.88970 0.47953
 C822 C 0.65711 0.90368 0.46108
 C823 C 0.63091 0.91323 0.46846
 N824 N 0.61848 0.93166 0.45332
 N825 N 0.59515 0.94109 0.46045
 C826 C 0.58335 0.93231 0.48290
 N827 N 0.59562 0.91365 0.49781
 N828 N 0.61899 0.90434 0.49078
 C829 C 0.55790 0.94282 0.49151
 C830 C 0.54676 0.96518 0.48069
 H831 H 0.66476 0.90934 0.44167
 H832 H 0.54854 0.93330 0.50783
 H833 H 0.66562 0.88618 0.49978
 H834 H 0.55691 0.97488 0.46496
 C835 C 0.17359 0.39254 0.96481
 C836 C 0.16701 0.41653 0.97536
 C837 C 0.14092 0.42867 0.97215
 N838 N 0.13570 0.45175 0.98357
 N839 N 0.11201 0.46273 0.98176
 C840 C 0.09262 0.45111 0.96833
 N841 N 0.09789 0.42811 0.95667
 N842 N 0.12161 0.41710 0.95851
 C843 C 0.06591 0.46213 0.96815
 C844 C 0.05909 0.48341 0.98387
 H845 H 0.18144 0.42704 0.98624
 H846 H 0.05099 0.45180 0.95780
 H847 H 0.15945 0.38297 0.95242
 H848 H 0.07415 0.49383 0.99384
 C849 C 0.01354 0.32784 0.42607
 C850 C 0.02883 0.34038 0.44506
 C851 C 0.01923 0.36293 0.46025
 N852 N 0.03357 0.37203 0.48129
 N853 N 0.02618 0.39350 0.49394
 C854 C 0.00421 0.40675 0.48593
 N855 N -0.01022 0.39757 0.46499
 N856 N -0.00293 0.37599 0.45246
 C857 C -0.00237 0.43201 0.49730
 C858 C 0.01067 0.44166 0.52001
 H859 H 0.04870 0.33360 0.44876
 H860 H -0.01599 0.44419 0.48579
 H861 H -0.00701 0.33285 0.42442
 H862 H 0.02365 0.42921 0.53196
 C863 C 0.51392 -0.18184 -0.08048
 C864 C 0.52882 -0.16882 -0.06153
 C865 C 0.51902 -0.14555 -0.04782
 N866 N 0.53239 -0.13604 -0.02627
 N867 N 0.52491 -0.11391 -0.01504
 C868 C 0.50386 -0.10041 -0.02507
 N869 N 0.49042 -0.10998 -0.04652
 N870 N 0.49776 -0.13221 -0.05760
 C871 C 0.49743 -0.07455 -0.01537
 C872 C 0.50831 -0.06461 0.00846
 H873 H 0.54849 -0.17569 -0.05690
 H874 H 0.48565 -0.06233 -0.02880
 H875 H 0.49347 -0.17670 -0.08295
 H876 H 0.51941 -0.07705 0.02227
 C877 C -0.04520 -0.17980 1.06420
 C878 C -0.02240 -0.16985 1.05493
 C879 C -0.02271 -0.14665 1.03820
 N880 N -0.00033 -0.13495 1.03394
 N881 N -0.00050 -0.11312 1.02042
 C882 C -0.02306 -0.10217 1.01048
 N883 N -0.04538 -0.11410 1.01431
 N884 N -0.04522 -0.13589 1.02792
 C885 C -0.02389 -0.07685 0.99777
 C886 C -0.00280 -0.06137 0.99957
 H887 H -0.00379 -0.17787 1.06188
 H888 H -0.04233 -0.06916 0.98988
 H889 H -0.06351 -0.17037 1.05830
 H890 H 0.01473 -0.06914 1.00925
 C891 C 0.45977 0.31390 0.56468
 C892 C 0.48080 0.32249 0.55045
 C893 C 0.47741 0.34428 0.53179
 N894 N 0.49836 0.35553 0.52193
 N895 N 0.49539 0.37649 0.50693
 C896 C 0.47135 0.38688 0.50113
 N897 N 0.45043 0.37533 0.51052
 N898 N 0.45340 0.35443 0.52552
 C899 C 0.46768 0.41165 0.48770
 C900 C 0.48848 0.42618 0.48136
 H901 H 0.50019 0.31463 0.55449
 H902 H 0.44813 0.41997 0.48618
 H903 H 0.44090 0.32320 0.56094
 H904 H 0.50796 0.41776 0.48271
 C905 C 0.50737 1.16803 0.58965
 C906 C 0.52138 1.15450 0.56973
 C907 C 0.51153 1.13119 0.55742
 N908 N 0.52248 1.12072 0.53464
 N909 N 0.51373 1.09945 0.52378
 C910 C 0.49367 1.08795 0.53533
 N911 N 0.48279 1.09845 0.55804
 N912 N 0.49141 1.11970 0.56877
 C913 C 0.48537 1.06307 0.52605
 C914 C 0.49298 1.05109 0.50166
 H915 H 0.53909 1.16180 0.56212
 H916 H 0.47453 1.05282 0.54074
 H917 H 0.48850 1.16183 0.59523
 H918 H 0.50361 1.06133 0.48676
 C919 C 0.01363 0.67954 1.07546
 C920 C -0.00732 0.67004 1.06073
 C921 C -0.00395 0.64637 1.04459
 N922 N -0.02474 0.63306 1.03686
 N923 N -0.02149 0.61099 1.02362
 C924 C 0.00266 0.60159 1.01736
 N925 N 0.02332 0.61514 1.02463
 N926 N 0.02009 0.63706 1.03796
 C927 C 0.00731 0.57621 1.00526
 C928 C -0.01193 0.55872 1.00208
 H929 H -0.02657 0.67886 1.06205
 H930 H 0.02733 0.57007 1.00206
 H931 H 0.03180 0.66842 1.07475
 H932 H -0.03200 0.56486 1.00479
 C933 C 0.50543 0.66808 -0.08916
 C934 C 0.48836 0.65006 -0.08064
 C935 C 0.49706 0.62707 -0.06568
 N936 N 0.47977 0.61445 -0.05103
 N937 N 0.48672 0.59254 -0.03907
 C938 C 0.51118 0.58230 -0.04152
 N939 N 0.52851 0.59495 -0.05615
 N940 N 0.52163 0.61703 -0.06787
 C941 C 0.51801 0.55666 -0.03148
 C942 C 0.50280 0.54460 -0.01267
 H943 H 0.46769 0.65320 -0.08377
 H944 H 0.53394 0.54624 -0.04118
 H945 H 0.52524 0.66641 -0.08148
 H946 H 0.48744 0.55540 -0.00244
 C947 C 0.00331 1.17974 0.41696
 C948 C -0.01428 1.16210 0.42520
 C949 C -0.00641 1.13885 0.44010
 N950 N -0.02426 1.12676 0.45453
 N951 N -0.01825 1.10446 0.46610
 C952 C 0.00578 1.09327 0.46341
 N953 N 0.02368 1.10538 0.44902
 N954 N 0.01775 1.12785 0.43770
 C955 C 0.01154 1.06735 0.47323
 C956 C -0.00391 1.05606 0.49238
 H957 H -0.03485 1.16564 0.42159
 H958 H 0.02711 1.05635 0.46357
 H959 H 0.02285 1.17808 0.42541
 H960 H -0.01889 1.06744 0.50254
 C961 C 0.77818 0.65368 0.93705
 C962 C 0.79626 0.65448 0.91600
 C963 C 0.79470 0.67499 0.89559
 N964 N 0.80767 0.67247 0.87168
 N965 N 0.80500 0.69028 0.85245
 C966 C 0.78943 0.71137 0.85658
 N967 N 0.77689 0.71406 0.88067
 N968 N 0.77947 0.69625 0.89978
 C969 C 0.78376 0.73008 0.83488
 C970 C 0.79201 0.72691 0.80794
 H971 H 0.81057 0.63922 0.91288
 H972 H 0.76978 0.74530 0.83972
 H973 H 0.76332 0.66886 0.93768
 H974 H 0.80633 0.71204 0.80325
 C975 C 0.27544 0.16076 0.42937
 C976 C 0.29309 0.16059 0.40785
 C977 C 0.29363 0.18206 0.38871
 N978 N 0.30448 0.17895 0.36370
 N979 N 0.30387 0.19798 0.34583
 C980 C 0.29268 0.22093 0.35251
 N981 N 0.28231 0.22413 0.37769
 N982 N 0.28274 0.20509 0.39543
 C983 C 0.28931 0.24160 0.33251
 C984 C 0.29281 0.23811 0.30442
 H985 H 0.30549 0.14408 0.40348
 H986 H 0.28003 0.25909 0.33984
 H987 H 0.26190 0.17702 0.43079
 H988 H 0.30230 0.22073 0.29726
 C989 C 0.74341 0.37081 0.42752
 C990 C 0.72528 0.35797 0.41187
 C991 C 0.73345 0.34037 0.38984
 N992 N 0.71564 0.32782 0.37495
 N993 N 0.72309 0.31156 0.35529
 C994 C 0.74865 0.30719 0.35000
 N995 N 0.76636 0.31972 0.36489
 N996 N 0.75894 0.33595 0.38444
 C997 C 0.75777 0.29021 0.32799
 C998 C 0.74156 0.27740 0.31009
 H999 H 0.70490 0.35968 0.41668
 H1000 H 0.77851 0.28895 0.32496
 H1001 H 0.76378 0.36779 0.42300
 H1002 H 0.72088 0.27776 0.31335
 C1003 C 0.23839 0.85628 0.92449
 C1004 C 0.22106 0.84735 0.90468
 C1005 C 0.22981 0.82954 0.88303
 N1006 N 0.21313 0.82261 0.86285
 N1007 N 0.22106 0.80679 0.84299
 C1008 C 0.24592 0.79719 0.84277
 N1009 N 0.26247 0.80396 0.86304
 N1010 N 0.25458 0.81977 0.88281
 C1011 C 0.25594 0.78127 0.82024
 C1012 C 0.24132 0.77501 0.79711
 H1013 H 0.20075 0.85311 0.90455
 H1014 H 0.27651 0.77619 0.82095
 H1015 H 0.25857 0.84993 0.92283
 H1016 H 0.22059 0.77901 0.79662
 C1017 C 0.28259 0.87477 0.08208
 C1018 C 0.26456 0.85734 0.08939
 C1019 C 0.26864 0.84157 0.11387
 N1020 N 0.25514 0.82044 0.11649
 N1021 N 0.25926 0.80537 0.13798
 C1022 C 0.27712 0.81076 0.15761
 N1023 N 0.29052 0.83202 0.15513
 N1024 N 0.28649 0.84706 0.13353
 C1025 C 0.27993 0.79527 0.18244
 C1026 C 0.26562 0.77390 0.18499
 H1027 H 0.24891 0.85263 0.07563
 H1028 H 0.29042 0.80252 0.19987
 H1029 H 0.29875 0.87727 0.09614
 H1030 H 0.25755 0.76561 0.16660
 C1031 C 0.77591 0.35625 0.58363
 C1032 C 0.79458 0.34262 0.59937
 C1033 C 0.78744 0.32161 0.61686
 N1034 N 0.80488 0.31084 0.63494
 N1035 N 0.79831 0.29189 0.65093
 C1036 C 0.77416 0.28289 0.64907
 N1037 N 0.75691 0.29348 0.63080
 N1038 N 0.76341 0.31244 0.61498
 C1039 C 0.76537 0.26361 0.66768
 C1040 C 0.77973 0.25443 0.69026
 H1041 H 0.81485 0.34662 0.59846
 H1042 H 0.74531 0.25881 0.66521
 H1043 H 0.75585 0.35140 0.58516
 H1044 H 0.80014 0.25786 0.69223
 C1045 C 0.21254 0.17042 0.56600
 C1046 C 0.19721 0.17369 0.58925
 C1047 C 0.20336 0.19212 0.61087
 N1048 N 0.18946 0.19345 0.63425
 N1049 N 0.19600 0.20889 0.65465
 C1050 C 0.21665 0.22363 0.65227
 N1051 N 0.23028 0.22251 0.62879
 N1052 N 0.22374 0.20713 0.60846
 C1053 C 0.22647 0.23847 0.67535
 C1054 C 0.21455 0.24078 0.70078
 H1055 H 0.18128 0.16171 0.59280
 H1056 H 0.24549 0.24579 0.67277
 H1057 H 0.22880 0.18240 0.56381
 H1058 H 0.19488 0.23516 0.70293
 C1059 C 0.70909 0.66143 0.06997
 C1060 C 0.69547 0.66152 0.09447
 C1061 C 0.69722 0.68210 0.11474
 N1062 N 0.68705 0.67960 0.13997
 N1063 N 0.68974 0.69750 0.15901
 C1064 C 0.70253 0.71865 0.15338
 N1065 N 0.71232 0.72131 0.12802
 N1066 N 0.70970 0.70340 0.10904
 C1067 C 0.70851 0.73721 0.17479
 C1068 C 0.70309 0.73360 0.20237
 H1069 H 0.68447 0.64547 0.09993
 H1070 H 0.72076 0.75226 0.16900
 H1071 H 0.72151 0.67689 0.06603
 H1072 H 0.69018 0.71906 0.20775
 C1073 C 0.15310 0.57889 0.21486
 C1074 C 0.17256 0.58975 0.23043
 C1075 C 0.18014 0.61591 0.22658
 N1076 N 0.19904 0.62507 0.24284
 N1077 N 0.20586 0.64886 0.24033
 C1078 C 0.19406 0.66447 0.22146
 N1079 N 0.17517 0.65530 0.20508
 N1080 N 0.16831 0.63144 0.20761
 C1081 C 0.20136 0.69094 0.21907
 C1082 C 0.21987 0.70067 0.23672
 H1083 H 0.18282 0.57882 0.24620
 H1084 H 0.19190 0.70290 0.20360
 H1085 H 0.14436 0.58942 0.19784
 H1086 H 0.22913 0.68849 0.25212
 C1087 C 0.65806 0.06017 0.70380
 C1088 C 0.67675 0.06836 0.72230
 C1089 C 0.68894 0.09268 0.71893
 N1090 N 0.70691 0.10004 0.73749
 N1091 N 0.71760 0.12232 0.73510
 C1092 C 0.71077 0.13802 0.71400
 N1093 N 0.69292 0.13060 0.69535
 N1094 N 0.68222 0.10832 0.69775
 C1095 C 0.72112 0.16333 0.71210
 C1096 C 0.73738 0.17265 0.73236
 H1097 H 0.68296 0.05668 0.73952
 H1098 H 0.71412 0.17553 0.69557
 H1099 H 0.65335 0.07157 0.68587
 H1100 H 0.74459 0.16030 0.74866
 C1101 C 0.83393 0.06200 0.28867
 C1102 C 0.82113 0.07662 0.26835
 C1103 C 0.81060 0.10254 0.27296
 N1104 N 0.80644 0.11788 0.25106
 N1105 N 0.79730 0.14160 0.25431
 C1106 C 0.79171 0.15090 0.27959
 N1107 N 0.79542 0.13545 0.30157
 N1108 N 0.80486 0.11168 0.29833
 C1109 C 0.78192 0.17734 0.28269
 C1110 C 0.78794 0.19493 0.26300
 H1111 H 0.82101 0.07040 0.24727
 H1112 H 0.77010 0.18286 0.30002
 H1113 H 0.83596 0.07041 0.30884
 H1114 H 0.80217 0.18933 0.24783
 C1115 C 0.35010 0.57080 0.77266
 C1116 C 0.33542 0.58253 0.75155
 C1117 C 0.32329 0.60812 0.75479
 N1118 N 0.31391 0.62092 0.73248
 N1119 N 0.30333 0.64427 0.73498
 C1120 C 0.30154 0.65563 0.75993
 N1121 N 0.31061 0.64272 0.78229
 N1122 N 0.32134 0.61941 0.77977
 C1123 C 0.29083 0.68176 0.76286
 C1124 C 0.28710 0.69760 0.74032
 H1125 H 0.33345 0.57372 0.73170
 H1126 H 0.28748 0.68913 0.78329
 H1127 H 0.35265 0.58159 0.79137
 H1128 H 0.29041 0.68997 0.72003
 C1129 C 0.34621 0.42284 0.70799
 C1130 C 0.32866 0.41647 0.72799
 C1131 C 0.31712 0.39156 0.72826
 N1132 N 0.30077 0.38576 0.74851
 N1133 N 0.29017 0.36328 0.74894
 C1134 C 0.29551 0.34582 0.72907
 N1135 N 0.31180 0.35164 0.70882
 N1136 N 0.32242 0.37407 0.70842
 C1137 C 0.28427 0.32083 0.72916
 C1138 C 0.26872 0.31284 0.75018
 H1139 H 0.32267 0.42998 0.74359
 H1140 H 0.28893 0.30815 0.71228
 H1141 H 0.35095 0.40907 0.69213
 H1142 H 0.26402 0.32545 0.76710
 C1143 C 0.82148 0.92983 0.20269
 C1144 C 0.80839 0.91960 0.22452
 C1145 C 0.79703 0.89470 0.22252
 N1146 N 0.78202 0.88677 0.24297
 N1147 N 0.77241 0.86387 0.24201
 C1148 C 0.77752 0.84802 0.22058
 N1149 N 0.79253 0.85595 0.20012
 N1150 N 0.80206 0.87890 0.20103
 C1151 C 0.76848 0.82213 0.22023
 C1152 C 0.75191 0.81387 0.24008
 H1153 H 0.80582 0.92982 0.24355
 H1154 H 0.77585 0.80919 0.20472
 H1155 H 0.82113 0.91964 0.18337
 H1156 H 0.74270 0.82757 0.25380
 C1157 C 0.66187 0.92876 0.79300
 C1158 C 0.68212 0.92040 0.77608
 C1159 C 0.69615 0.89572 0.77964
 N1160 N 0.71348 0.88752 0.76060
 N1161 N 0.72565 0.86482 0.76279
 C1162 C 0.72105 0.84951 0.78421
 N1163 N 0.70393 0.85782 0.80343
 N1164 N 0.69167 0.88050 0.80118
 C1165 C 0.73306 0.82376 0.78600
 C1166 C 0.74659 0.81259 0.76427
 H1167 H 0.68786 0.93196 0.75927
 H1168 H 0.72942 0.81279 0.80400
 H1169 H 0.65747 0.91747 0.81060
 H1170 H 0.75043 0.82377 0.74642
 C1171 C 0.16971 0.44801 0.31317
 C1172 C 0.19070 0.43944 0.29746
 C1173 C 0.20181 0.41333 0.29909
 N1174 N 0.22155 0.40590 0.28248
 N1175 N 0.23067 0.38192 0.28220
 C1176 C 0.22040 0.36444 0.29855
 N1177 N 0.20082 0.37191 0.31538
 N1178 N 0.19168 0.39592 0.31566
 C1179 C 0.22880 0.33750 0.29671
 C1180 C 0.24746 0.32889 0.27819
 H1181 H 0.19878 0.45186 0.28267
 H1182 H 0.21898 0.32421 0.30902
 H1183 H 0.16320 0.43608 0.32939
 H1184 H 0.25856 0.34260 0.26773
 C1185 C 0.06533 0.28682 0.83894
 C1186 C 0.07824 0.26607 0.82653
 C1187 C 0.10187 0.26850 0.81047
 N1188 N 0.11558 0.24737 0.80220
 N1189 N 0.13754 0.24914 0.78860
 C1190 C 0.14660 0.27212 0.78261
 N1191 N 0.13272 0.29326 0.79056
 N1192 N 0.11078 0.29150 0.80426
 C1193 C 0.17169 0.27431 0.76912
 C1194 C 0.18877 0.25337 0.76548
 H1195 H 0.07197 0.24715 0.82997
 H1196 H 0.17772 0.29305 0.76411
 H1197 H 0.07310 0.30535 0.83675
 H1198 H 0.18298 0.23507 0.77214
 C1199 C 0.56424 0.76433 0.35811
 C1200 C 0.57093 0.75343 0.33292
 C1201 C 0.59754 0.75354 0.32260
 N1202 N 0.60262 0.74657 0.29635
 N1203 N 0.62665 0.74685 0.28681
 C1204 C 0.64645 0.75402 0.30329
 N1205 N 0.64137 0.76080 0.32954
 N1206 N 0.61738 0.76063 0.33901
 C1207 C 0.67316 0.75459 0.29359
 C1208 C 0.68015 0.75113 0.26627
 H1209 H 0.55615 0.74562 0.31986
 H1210 H 0.68788 0.75874 0.30878
 H1211 H 0.57879 0.77401 0.36983
 H1212 H 0.66550 0.74784 0.25072
 C1213 C 0.58700 0.21708 0.17499
 C1214 C 0.59763 0.23924 0.18501
 C1215 C 0.62071 0.23890 0.20325
 N1216 N 0.63193 0.26090 0.20976
 N1217 N 0.65312 0.26089 0.22572
 C1218 C 0.66376 0.23888 0.23602
 N1219 N 0.65234 0.21694 0.22979
 N1220 N 0.63122 0.21693 0.21375
 C1221 C 0.68852 0.23804 0.25151
 C1222 C 0.70412 0.25886 0.25367
 H1223 H 0.58948 0.25757 0.17885
 H1224 H 0.69638 0.21957 0.25780
 H1225 H 0.59679 0.19908 0.17999
 H1226 H 0.69627 0.27718 0.24703
 C1227 C 0.09185 0.75234 0.65059
 C1228 C 0.09591 0.76287 0.67642
 C1229 C 0.12227 0.76837 0.68584
 N1230 N 0.12886 0.76720 0.71285
 N1231 N 0.15328 0.77014 0.72113
 C1232 C 0.17186 0.77465 0.70266
 N1233 N 0.16510 0.77640 0.67579
 N1234 N 0.14081 0.77321 0.66750
 C1235 C 0.19927 0.77614 0.71066
 C1236 C 0.20957 0.76698 0.73549
 H1237 H 0.08015 0.76444 0.69076
 H1238 H 0.21219 0.78211 0.69498
 H1239 H 0.10837 0.74790 0.63774
 H1240 H 0.19680 0.76049 0.75103
 C1241 C 0.92794 0.76545 0.65572
 C1242 C 0.92626 0.74839 0.67733
 C1243 C 0.90069 0.74325 0.68836
 N1244 N 0.89760 0.73903 0.71550
 N1245 N 0.87406 0.73591 0.72549
 C1246 C 0.85290 0.73655 0.70854
 N1247 N 0.85615 0.74020 0.68140
 N1248 N 0.87954 0.74362 0.67152
 C1249 C 0.82647 0.73460 0.71864
 C1250 C 0.81927 0.73993 0.74559
 H1251 H 0.94343 0.74046 0.68766
 H1252 H 0.81159 0.73201 0.70316
 H1253 H 0.91010 0.77555 0.64932
 H1254 H 0.83395 0.74316 0.76111
 C1255 C 0.43440 0.27820 0.15479
 C1256 C 0.42834 0.26581 0.17893
 C1257 C 0.40164 0.26605 0.18920
 N1258 N 0.39681 0.25659 0.21433
 N1259 N 0.37267 0.25672 0.22368
 C1260 C 0.35249 0.26620 0.20809
 N1261 N 0.35734 0.27549 0.18297
 N1262 N 0.38141 0.27545 0.17370
 C1263 C 0.32561 0.26701 0.21759
 C1264 C 0.31820 0.26087 0.24406
 H1265 H 0.44350 0.25619 0.19102
 H1266 H 0.31099 0.27401 0.20301
 H1267 H 0.41928 0.28944 0.14425
 H1268 H 0.33260 0.25440 0.25911
 C1269 C 0.42163 0.71504 0.31514
 C1270 C 0.40968 0.73807 0.30701
 C1271 C 0.38657 0.73898 0.28894
 N1272 N 0.37264 0.76113 0.28518
 N1273 N 0.35046 0.76174 0.27081
 C1274 C 0.34148 0.74022 0.25959
 N1275 N 0.35567 0.71818 0.26291
 N1276 N 0.37779 0.71757 0.27729
 C1277 C 0.31569 0.73989 0.24648
 C1278 C 0.29862 0.76111 0.24627
 H1279 H 0.41569 0.75567 0.31590
 H1280 H 0.30896 0.72175 0.23979
 H1281 H 0.41420 0.69771 0.30690
 H1282 H 0.30553 0.77910 0.25300
 C1283 C 0.93093 0.21462 0.83560
 C1284 C 0.91740 0.23491 0.82277
 C1285 C 0.89460 0.23128 0.80483
 N1286 N 0.87953 0.25161 0.79646
 N1287 N 0.85836 0.24857 0.78105
 C1288 C 0.85154 0.22507 0.77325
 N1289 N 0.86681 0.20477 0.78130
 N1290 N 0.88791 0.20780 0.79680
 C1291 C 0.82728 0.22118 0.75780
 C1292 C 0.80833 0.24061 0.75395
 H1293 H 0.92258 0.25412 0.82703
 H1294 H 0.82319 0.20203 0.75172
 H1295 H 0.92409 0.19576 0.83248
 H1296 H 0.81224 0.25932 0.76145
 C1297 C 0.61120 0.99324 0.65903
 C1298 C 0.59363 0.97401 0.65639
 C1299 C 0.58254 0.96849 0.62916
 N1300 N 0.55801 0.96055 0.62634
 N1301 N 0.54689 0.95884 0.60156
 C1302 C 0.56007 0.96481 0.57881
 N1303 N 0.58481 0.97189 0.58167
 N1304 N 0.59582 0.97371 0.60632
 C1305 C 0.54754 0.96710 0.55174
 C1306 C 0.52134 0.96351 0.54655
 H1307 H 0.58566 0.96524 0.67410
 H1308 H 0.55896 0.97533 0.53602
 H1309 H 0.61589 1.00307 0.64046
 H1310 H 0.50963 0.95551 0.56217
 C1311 C 0.10622 0.50343 1.18275
 C1312 C 0.11037 0.50573 1.15484
 C1313 C 0.09193 0.49654 1.13434
 N1314 N 0.06791 0.48991 1.14155
 N1315 N 0.05045 0.48393 1.12251
 C1316 C 0.05647 0.48414 1.09561
 N1317 N 0.08064 0.49040 1.08846
 N1318 N 0.09803 0.49653 1.10747
 C1319 C 0.03618 0.48084 1.07467
 C1320 C 0.04194 0.48091 1.04697
 H1321 H 0.12712 0.51519 1.14778
 H1322 H 0.01617 0.48175 1.08102
 H1323 H 0.09095 0.49176 1.18961
 H1324 H 0.06199 0.47911 1.04089
 C1325 C -0.13205 -0.00818 1.15374
 C1326 C -0.11440 0.01076 1.15021
 C1327 C -0.10325 0.01482 1.12317
 N1328 N -0.08030 0.02606 1.12095
 N1329 N -0.06890 0.02744 1.09674
 C1330 C -0.08023 0.01779 1.07392
 N1331 N -0.10345 0.00720 1.07607
 N1332 N -0.11474 0.00573 1.10021
 C1333 C -0.06692 0.01593 1.04770
 C1334 C -0.04148 0.02278 1.04404
 H1335 H -0.10645 0.02089 1.16740
 H1336 H -0.07676 0.00601 1.03143
 H1337 H -0.13749 -0.01887 1.13571
 H1338 H -0.03143 0.03266 1.06017
 C1339 C 0.39536 0.48142 0.65459
 C1340 C 0.40485 0.50451 0.64653
 C1341 C 0.42295 0.50516 0.62369
 N1342 N 0.42221 0.52488 0.60593
 N1343 N 0.43826 0.52481 0.58478
 C1344 C 0.45593 0.50524 0.58109
 N1345 N 0.45696 0.48589 0.59919
 N1346 N 0.44071 0.48577 0.62000
 C1347 C 0.47276 0.50344 0.55720
 C1348 C 0.46548 0.51367 0.53181
 H1349 H 0.39852 0.52217 0.65613
 H1350 H 0.48877 0.48948 0.55844
 H1351 H 0.39903 0.46533 0.64107
 H1352 H 0.44917 0.52728 0.53037
 C1353 C 0.40928 0.50745 -0.18387
 C1354 C 0.41363 0.48291 -0.17394
 C1355 C 0.43359 0.47750 -0.15273
 N1356 N 0.43073 0.45898 -0.13403
 N1357 N 0.44821 0.45513 -0.11388
 C1358 C 0.46939 0.46937 -0.11211
 N1359 N 0.47251 0.48739 -0.13123
 N1360 N 0.45491 0.49145 -0.15111
 C1361 C 0.48750 0.46772 -0.08866
 C1362 C 0.48010 0.45935 -0.06307
 H1363 H 0.40143 0.46793 -0.18072
 H1364 H 0.50487 0.47825 -0.09022
 H1365 H 0.41945 0.52270 -0.17426
 H1366 H 0.46273 0.44884 -0.06143
 C1367 C -0.10104 0.99552 0.31729
 C1368 C -0.10433 0.99524 0.34547
 C1369 C -0.08286 0.98779 0.36428
 N1370 N -0.08778 0.98139 0.39045
 N1371 N -0.06839 0.97640 0.40820
 C1372 C -0.04335 0.97775 0.40046
 N1373 N -0.03844 0.98408 0.37426
 N1374 N -0.05783 0.98880 0.35643
 C1375 C -0.02221 0.97650 0.42094
 C1376 C -0.02622 0.96779 0.44728
 H1377 H -0.12308 1.00054 0.35391
 H1378 H -0.00520 0.98692 0.41673
 H1379 H -0.08320 0.98750 0.30878
 H1380 H -0.04190 0.95536 0.45051
 C1381 C 0.10659 0.51558 0.34583
 C1382 C 0.11220 0.51433 0.37374
 C1383 C 0.09225 0.52003 0.39421
 N1384 N 0.09916 0.52259 0.42092
 N1385 N 0.08114 0.52544 0.44000
 C1386 C 0.05555 0.52571 0.43309
 N1387 N 0.04864 0.52333 0.40634
 N1388 N 0.06666 0.52069 0.38722
 C1389 C 0.03581 0.52496 0.45431
 C1390 C 0.04229 0.52855 0.48175
 H1391 H 0.13148 0.50827 0.38080
 H1392 H 0.01711 0.51793 0.44866
 H1393 H 0.08819 0.52418 0.33890
 H1394 H 0.06038 0.53703 0.48697
 C1395 C 0.60082 -0.00287 -0.17104
 C1396 C 0.60819 -0.00462 -0.14351
 C1397 C 0.59082 0.00394 -0.12138
 N1398 N 0.59976 0.00407 -0.09512
 N1399 N 0.58381 0.00986 -0.07463
 C1400 C 0.55828 0.01573 -0.07963
 N1401 N 0.54939 0.01584 -0.10592
 N1402 N 0.56538 0.01016 -0.12643
 C1403 C 0.53984 0.01856 -0.05705
 C1404 C 0.54810 0.01773 -0.02975
 H1405 H 0.62713 -0.01284 -0.13790
 H1406 H 0.51941 0.01746 -0.06202
 H1407 H 0.58294 0.00752 -0.17661
 H1408 H 0.56840 0.01980 -0.02492
 C1409 C 0.66739 0.58862 0.02757
 C1410 C 0.66317 0.56880 0.00911
 C1411 C 0.63787 0.55696 0.00804
 N1412 N 0.63388 0.53663 -0.00841
 N1413 N 0.61067 0.52655 -0.00981
 C1414 C 0.59068 0.53658 0.00512
 N1415 N 0.59472 0.55682 0.02145
 N1416 N 0.61781 0.56678 0.02291
 C1417 C 0.56462 0.52679 0.00382
 C1418 C 0.55797 0.50483 -0.00999
 H1419 H 0.67780 0.56219 -0.00512
 H1420 H 0.54990 0.53795 0.01445
 H1421 H 0.65207 0.59328 0.04191
 H1422 H 0.57263 0.49367 -0.02087
 C1423 C 0.16053 1.10349 0.52183
 C1424 C 0.15644 1.08110 0.50738
 C1425 C 0.13091 1.06970 0.50776
 N1426 N 0.12709 1.04710 0.49528
 N1427 N 0.10391 1.03697 0.49572
 C1428 C 0.08378 1.04915 0.50867
 N1429 N 0.08764 1.07167 0.52103
 N1430 N 0.11071 1.08172 0.52061
 C1431 C 0.05782 1.03908 0.50944
 C1432 C 0.05108 1.01607 0.49797
 H1433 H 0.17194 1.07157 0.49615
 H1434 H 0.04319 1.05112 0.51910
 H1435 H 0.14469 1.11163 0.53377
 H1436 H 0.06568 1.00408 0.48798
 C1437 C 0.17309 -0.09537 0.97963
 C1438 C 0.16480 -0.07608 0.99762
 C1439 C 0.13707 -0.06855 0.99967
 N1440 N 0.12908 -0.04797 1.01467
 N1441 N 0.10400 -0.04064 1.01546
 C1442 C 0.08611 -0.05376 1.00135
 N1443 N 0.09412 -0.07441 0.98668
 N1444 N 0.11906 -0.08169 0.98588
 C1445 C 0.05868 -0.04547 0.99963
 C1446 C 0.04750 -0.02433 1.01291
 H1447 H 0.17860 -0.06558 1.00940
 H1448 H 0.04729 -0.05586 0.98510
 H1449 H 0.15865 -0.10439 0.96713
 H1450 H 0.05899 -0.01370 1.02723
 C1451 C 0.68140 0.42210 0.48579
 C1452 C 0.65956 0.41988 0.46878
 C1453 C 0.63418 0.43223 0.47491
 N1454 N 0.61329 0.42657 0.45934
 N1455 N 0.59010 0.43751 0.46424
 C1456 C 0.58686 0.45463 0.48487
 N1457 N 0.60780 0.46043 0.50043
 N1458 N 0.63105 0.44938 0.49558
 C1459 C 0.56121 0.46706 0.48989
 C1460 C 0.53936 0.45944 0.47560
 H1461 H 0.66016 0.40790 0.45083
 H1462 H 0.55961 0.48248 0.50454
 H1463 H 0.67892 0.43288 0.50459
 H1464 H 0.54135 0.44353 0.46167
 C1465 C -0.16187 0.41207 0.53953
 C1466 C -0.15474 0.43298 0.52458
 C1467 C -0.12773 0.44076 0.52540
 N1468 N -0.12118 0.46280 0.51381
 N1469 N -0.09673 0.46987 0.51498
 C1470 C -0.07802 0.45505 0.52771
 N1471 N -0.08457 0.43301 0.53908
 N1472 N -0.10892 0.42601 0.53797
 C1473 C -0.05098 0.46212 0.52982
 C1474 C -0.04204 0.48493 0.52057
 H1475 H -0.16903 0.44420 0.51290
 H1476 H -0.03768 0.44854 0.53965
 H1477 H -0.14729 0.40236 0.55235
 H1478 H -0.05538 0.49855 0.51067
 C1479 C 0.33686 -0.08818 0.01549
 C1480 C 0.34319 -0.06794 -0.00081
 C1481 C 0.37052 -0.06141 -0.00207
 N1482 N 0.37718 -0.03774 -0.00885
 N1483 N 0.40181 -0.03131 -0.00663
 C1484 C 0.42048 -0.04839 0.00247
 N1485 N 0.41386 -0.07211 0.00851
 N1486 N 0.38941 -0.07850 0.00625
 C1487 C 0.44719 -0.04174 0.00796
 C1488 C 0.45754 -0.01908 0.00044
 H1489 H 0.32814 -0.05555 -0.00988
 H1490 H 0.45906 -0.05569 0.01903
 H1491 H 0.35229 -0.09880 0.02629
 H1492 H 0.44567 -0.00504 -0.01067
 C1493 C 0.30745 1.08071 0.47503
 C1494 C 0.33367 1.08577 0.47642
 C1495 C 0.35422 1.06641 0.48294
 N1496 N 0.37796 1.07378 0.49093
 N1497 N 0.39716 1.05671 0.49618
 C1498 C 0.39341 1.03157 0.49351
 N1499 N 0.36966 1.02416 0.48540
 N1500 N 0.35034 1.04127 0.48039
 C1501 C 0.41526 1.01284 0.49698
 C1502 C 0.43871 1.01962 0.50879
 H1503 H 0.33933 1.10510 0.47415
 H1504 H 0.41359 0.99427 0.48785
 H1505 H 0.30138 1.06207 0.48035
 H1506 H 0.43937 1.03782 0.51882
 C1507 C -0.18662 0.57520 0.98347
 C1508 C -0.16095 0.58157 0.98712
 C1509 C -0.13980 0.56281 0.99336
 N1510 N -0.11722 0.57064 1.00423
 N1511 N -0.09739 0.55416 1.00901
 C1512 C -0.09932 0.52922 1.00298
 N1513 N -0.12190 0.52137 0.99202
 N1514 N -0.14187 0.53783 0.98748
 C1515 C -0.07649 0.51158 1.00527
 C1516 C -0.05404 0.51847 1.01907
 H1517 H -0.15634 0.60134 0.98672
 H1518 H -0.07621 0.49453 0.99287
 H1519 H -0.19194 0.55594 0.98705
 H1520 H -0.05498 0.53475 1.03262
 C1521 C 0.04327 0.68112 0.61364
 C1522 C 0.02837 0.67294 0.59154
 C1523 C 0.02817 0.64597 0.58410
 N1524 N 0.01962 0.63867 0.55896
 N1525 N 0.01894 0.61417 0.55246
 C1526 C 0.02659 0.59616 0.57101
 N1527 N 0.03496 0.60349 0.59613
 N1528 N 0.03588 0.62792 0.60252
 C1529 C 0.02477 0.56908 0.56520
 C1530 C 0.02283 0.55890 0.53888
 H1531 H 0.01715 0.68657 0.57918
 H1532 H 0.02556 0.55661 0.58273
 H1533 H 0.05660 0.66770 0.62390
 H1534 H 0.02270 0.57117 0.52121
 C1535 C 0.52693 0.16879 0.11442
 C1536 C 0.54452 0.15243 0.10087
 C1537 C 0.53558 0.13063 0.08487
 N1538 N 0.55222 0.11680 0.06878
 N1539 N 0.54414 0.09699 0.05449
 C1540 C 0.51910 0.09036 0.05574
 N1541 N 0.50254 0.10418 0.07180
 N1542 N 0.51057 0.12397 0.08597
 C1543 C 0.51008 0.06732 0.04235
 C1544 C 0.52523 0.05221 0.02472
 H1545 H 0.56490 0.15630 0.10095
 H1546 H 0.49155 0.06089 0.04877
 H1547 H 0.50642 0.16562 0.11234
 H1548 H 0.54328 0.05898 0.01738
 C1549 C -0.01133 0.17783 0.90996
 C1550 C -0.02903 0.16238 0.92201
 C1551 C -0.02051 0.14006 0.93832
 N1552 N -0.03797 0.12736 0.95271
 N1553 N -0.03073 0.10617 0.96603
 C1554 C -0.00576 0.09689 0.96538
 N1555 N 0.01168 0.10967 0.95112
 N1556 N 0.00449 0.13092 0.93797
 C1557 C 0.00189 0.07185 0.97660
 C1558 C -0.01411 0.05840 0.99338
 H1559 H -0.04963 0.16660 0.91930
 H1560 H 0.01953 0.06275 0.96885
 H1561 H 0.00909 0.17490 0.91499
 H1562 H -0.03038 0.06834 1.00280
 C1563 C 0.46744 0.66046 0.38388
 C1564 C 0.47221 0.65665 0.41177
 C1565 C 0.47684 0.63081 0.42229
 N1566 N 0.47223 0.62510 0.44882
 N1567 N 0.47599 0.60137 0.45782
 C1568 C 0.48476 0.58273 0.44058
 N1569 N 0.48969 0.58861 0.41429
 N1570 N 0.48572 0.61213 0.40529
 C1571 C 0.48910 0.55634 0.44900
 C1572 C 0.47949 0.54556 0.47259
 H1573 H 0.47174 0.67254 0.42587
 H1574 H 0.49887 0.54424 0.43406
 H1575 H 0.46491 0.64419 0.37067
 H1576 H 0.46892 0.55707 0.48743
 C1577 C 0.49431 0.81039 0.41077
 C1578 C 0.51020 0.82342 0.42875
 C1579 C 0.50130 0.84731 0.44186
 N1580 N 0.51646 0.85836 0.46098
 N1581 N 0.50943 0.88091 0.47154
 C1582 C 0.48698 0.89321 0.46330
 N1583 N 0.47176 0.88207 0.44433
 N1584 N 0.47872 0.85950 0.43389
 C1585 C 0.48042 0.91929 0.47206
 C1586 C 0.49432 0.93152 0.49248
 H1587 H 0.52984 0.81627 0.43294
 H1588 H 0.46572 0.92984 0.46018
 H1589 H 0.47401 0.81636 0.40874
 H1590 H 0.50774 0.92062 0.50548
 C1591 C 0.01034 0.32247 0.91492
 C1592 C 0.02859 0.33830 0.92629
 C1593 C 0.02109 0.35924 0.94503
 N1594 N 0.03937 0.37420 0.95577
 N1595 N 0.03260 0.39417 0.97132
 C1596 C 0.00727 0.39984 0.97679
 N1597 N -0.01094 0.38472 0.96630
 N1598 N -0.00417 0.36477 0.95081
 C1599 C -0.00102 0.42356 0.99064
 C1600 C 0.01646 0.44083 1.00059
 H1601 H 0.04884 0.33556 0.92121
 H1602 H -0.02147 0.42902 0.98947
 H1603 H -0.00948 0.32436 0.92183
 H1604 H 0.03666 0.43487 1.00330
 C1605 C 0.49960 0.31793 0.09549
 C1606 C 0.48209 0.33136 0.07822
 C1607 C 0.49047 0.35101 0.05944
 N1608 N 0.47296 0.36332 0.04258
 N1609 N 0.48016 0.38181 0.02632
 C1610 C 0.50520 0.38857 0.02620
 N1611 N 0.52271 0.37611 0.04288
 N1612 N 0.51553 0.35764 0.05910
 C1613 C 0.51304 0.41086 0.01105
 C1614 C 0.49567 0.42585 -0.00480
 H1615 H 0.46179 0.32720 0.07808
 H1616 H 0.53210 0.41755 0.01575
 H1617 H 0.52006 0.32123 0.09400
 H1618 H 0.47706 0.41867 -0.01048
 C1619 C -0.03045 0.82441 0.59615
 C1620 C -0.01367 0.83096 0.57547
 C1621 C -0.01709 0.85567 0.56164
 N1622 N -0.00114 0.86204 0.54119
 N1623 N -0.00362 0.88490 0.52966
 C1624 C -0.02220 0.90210 0.53821
 N1625 N -0.03817 0.89560 0.55843
 N1626 N -0.03574 0.87285 0.56985
 C1627 C -0.02407 0.92827 0.52833
 C1628 C -0.00993 0.93763 0.50686
 H1629 H 0.00210 0.81808 0.56934
 H1630 H -0.03606 0.94121 0.54036
 H1631 H -0.04688 0.83722 0.60055
 H1632 H 0.00228 0.92488 0.49470
 C1633 C 0.25618 0.37417 0.09367
 C1634 C 0.23493 0.36033 0.10099
 C1635 C 0.23129 0.35353 0.12984
 N1636 N 0.21858 0.33255 0.13636
 N1637 N 0.21789 0.32476 0.16227
 C1638 C 0.22965 0.33788 0.18258
 N1639 N 0.24161 0.35924 0.17610
 N1640 N 0.24243 0.36692 0.15027
 C1641 C 0.23303 0.32789 0.21046
 C1642 C 0.22642 0.30363 0.21788
 H1643 H 0.22273 0.35180 0.08569
 H1644 H 0.24545 0.33836 0.22384
 H1645 H 0.26890 0.38005 0.11016
 H1646 H 0.21402 0.29310 0.20439
 C1647 C 0.76962 0.84261 0.58581
 C1648 C 0.74528 0.84114 0.59745
 C1649 C 0.74112 0.82308 0.61948
 N1650 N 0.72386 0.82870 0.63956
 N1651 N 0.72071 0.81246 0.65991
 C1652 C 0.73431 0.78981 0.66047
 N1653 N 0.75111 0.78406 0.64008
 N1654 N 0.75455 0.80041 0.62003
 C1655 C 0.73306 0.77227 0.68351
 C1656 C 0.72912 0.78072 0.71030
 H1657 H 0.72937 0.85387 0.59085
 H1658 H 0.74124 0.75330 0.68007
 H1659 H 0.78610 0.83224 0.59504
 H1660 H 0.72108 0.79972 0.71379
 C1661 C 0.24524 0.66773 0.57754
 C1662 C 0.27117 0.67217 0.58307
 C1663 C 0.27794 0.69192 0.60271
 N1664 N 0.29844 0.68833 0.62023
 N1665 N 0.30318 0.70550 0.63955
 C1666 C 0.28789 0.72705 0.64156
 N1667 N 0.26792 0.73090 0.62349
 N1668 N 0.26296 0.71362 0.60449
 C1669 C 0.29015 0.74460 0.66468
 C1670 C 0.29876 0.73615 0.69038
 H1671 H 0.28639 0.65999 0.57439
 H1672 H 0.27880 0.76230 0.66310
 H1673 H 0.23035 0.67777 0.58930
 H1674 H 0.31053 0.71872 0.69193
 C1675 C 0.73664 0.15605 0.08625
 C1676 C 0.75906 0.16971 0.08906
 C1677 C 0.76786 0.17694 0.11661
 N1678 N 0.78040 0.19862 0.12104
 N1679 N 0.78602 0.20609 0.14651
 C1680 C 0.77960 0.19189 0.16826
 N1681 N 0.76787 0.16989 0.16366
 N1682 N 0.76211 0.16255 0.13835
 C1683 C 0.78156 0.20097 0.19649
 C1684 C 0.78856 0.22524 0.20387
 H1685 H 0.76939 0.17618 0.07159
 H1686 H 0.77264 0.18930 0.21142
 H1687 H 0.72562 0.15337 0.10464
 H1688 H 0.79700 0.23724 0.18888
 C1689 C 0.74313 0.14271 0.91357
 C1690 C 0.72659 0.16431 0.91125
 C1691 C 0.72119 0.17684 0.88488
 N1692 N 0.71219 0.20138 0.88436
 N1693 N 0.70926 0.21372 0.86071
 C1694 C 0.71488 0.20183 0.83671
 N1695 N 0.72337 0.17711 0.83722
 N1696 N 0.72648 0.16484 0.86085
 C1697 C 0.71510 0.21642 0.81121
 C1698 C 0.72019 0.20452 0.78628
 H1699 H 0.71975 0.17403 0.92949
 H1700 H 0.71503 0.23687 0.81272
 H1701 H 0.75188 0.13460 0.89531
 H1702 H 0.71910 0.18417 0.78481
 C1703 C 0.24404 0.66597 0.41980
 C1704 C 0.24233 0.66183 0.39166
 C1705 C 0.23395 0.68230 0.37269
 N1706 N 0.22684 0.67677 0.34655
 N1707 N 0.22064 0.69524 0.32882
 C1708 C 0.22138 0.71993 0.33653
 N1709 N 0.22843 0.72544 0.36269
 N1710 N 0.23440 0.70698 0.38049
 C1711 C 0.21855 0.74031 0.31616
 C1712 C 0.20976 0.73571 0.28956
 H1713 H 0.24682 0.64311 0.38341
 H1714 H 0.22786 0.75778 0.32080
 H1715 H 0.23692 0.68401 0.42804
 H1716 H 0.19873 0.71912 0.28572
 C1717 C 0.74324 0.86038 0.41576
 C1718 C 0.76098 0.84012 0.41096
 C1719 C 0.76672 0.83121 0.38301
 N1720 N 0.77543 0.80691 0.37856
 N1721 N 0.77897 0.79819 0.35315
 C1722 C 0.77431 0.81363 0.33130
 N1723 N 0.76622 0.83806 0.33583
 N1724 N 0.76243 0.84669 0.36118
 C1725 C 0.77491 0.80398 0.30301
 C1726 C 0.77339 0.77833 0.29673
 H1727 H 0.76893 0.82911 0.42800
 H1728 H 0.77176 0.81793 0.28729
 H1729 H 0.73319 0.86941 0.39851
 H1730 H 0.77790 0.76468 0.31276
 C1731 C 0.24154 0.33177 0.92993
 C1732 C 0.26615 0.33032 0.91861
 C1733 C 0.27213 0.31216 0.89647
 N1734 N 0.28774 0.31837 0.87571
 N1735 N 0.29106 0.30292 0.85424
 C1736 C 0.27923 0.28053 0.85306
 N1737 N 0.26430 0.27404 0.87422
 N1738 N 0.26072 0.28959 0.89547
 C1739 C 0.27937 0.26482 0.82819
 C1740 C 0.28220 0.27531 0.80236
 H1741 H 0.28004 0.34428 0.92400
 H1742 H 0.27106 0.24647 0.82978
 H1743 H 0.22681 0.31984 0.92164
 H1744 H 0.29046 0.29365 0.80070
 C1745 C 0.83132 0.40888 0.72806
 C1746 C 0.81021 0.40093 0.74270
 C1747 C 0.80313 0.37424 0.74153
 N1748 N 0.78123 0.36670 0.75348
 N1749 N 0.77493 0.34252 0.75215
 C1750 C 0.79038 0.32509 0.73886
 N1751 N 0.81223 0.33265 0.72707
 N1752 N 0.81847 0.35671 0.72836
 C1753 C 0.78443 0.29831 0.73674
 C1754 C 0.76219 0.28796 0.74677
 H1755 H 0.79838 0.41427 0.75451
 H1756 H 0.79871 0.28630 0.72656
 H1757 H 0.84168 0.39514 0.71524
 H1758 H 0.74792 0.30005 0.75715
 C1759 C 0.31408 0.93670 0.22355
 C1760 C 0.31796 0.91289 0.21130
 C1761 C 0.30023 0.89243 0.21600
 N1762 N 0.31000 0.86843 0.21974
 N1763 N 0.29431 0.84965 0.22401
 C1764 C 0.26819 0.85404 0.22429
 N1765 N 0.25833 0.87801 0.22012
 N1766 N 0.27409 0.89693 0.21634
 C1767 C 0.25101 0.83281 0.22764
 C1768 C 0.25961 0.81157 0.24258
 H1769 H 0.33588 0.90787 0.20105
 H1770 H 0.23255 0.83314 0.21682
 H1771 H 0.29783 0.93918 0.23724
 H1772 H 0.27702 0.81291 0.25500
 C1773 C 0.16493 0.92885 0.76936
 C1774 C 0.18701 0.92309 0.75409
 C1775 C 0.19779 0.89683 0.75290
 N1776 N 0.22162 0.89127 0.74248
 N1777 N 0.23164 0.86751 0.74269
 C1778 C 0.21811 0.84860 0.75339
 N1779 N 0.19429 0.85417 0.76352
 N1780 N 0.18435 0.87779 0.76331
 C1781 C 0.22819 0.82228 0.75432
 C1782 C 0.25229 0.81380 0.74468
 H1783 H 0.19737 0.93800 0.74470
 H1784 H 0.21540 0.80899 0.76286
 H1785 H 0.15603 0.91372 0.78008
 H1786 H 0.26519 0.82715 0.73622
 C1787 C 0.67675 0.43270 0.28269
 C1788 C 0.69035 0.42195 0.26073
 C1789 C 0.70049 0.39549 0.26208
 N1790 N 0.71617 0.38556 0.24231
 N1791 N 0.72413 0.36118 0.24292
 C1792 C 0.71638 0.34588 0.26317
 N1793 N 0.70067 0.35580 0.28280
 N1794 N 0.69292 0.38012 0.28230
 C1795 C 0.72406 0.31888 0.26426
 C1796 C 0.74431 0.30780 0.24927
 H1797 H 0.69176 0.43199 0.24163
 H1798 H 0.71364 0.30765 0.27831
 H1799 H 0.67629 0.42197 0.30150
 H1800 H 0.75469 0.31924 0.23524
 C1801 C 0.65529 0.58197 0.22426
 C1802 C 0.67607 0.58866 0.24096
 C1803 C 0.68210 0.61533 0.24500
 N1804 N 0.70570 0.62155 0.25486
 N1805 N 0.71129 0.64576 0.25810
 C1806 C 0.69334 0.66455 0.25186
 N1807 N 0.66968 0.65828 0.24236
 N1808 N 0.66418 0.63415 0.23893
 C1809 C 0.69898 0.69140 0.25422
 C1810 C 0.72397 0.69998 0.25697
 H1811 H 0.68869 0.57413 0.25037
 H1812 H 0.68276 0.70469 0.25109
 H1813 H 0.64456 0.59663 0.21279
 H1814 H 0.74014 0.68635 0.25955
 C1815 C 0.15203 0.08711 0.72865
 C1816 C 0.17425 0.09330 0.74334
 C1817 C 0.18231 0.11959 0.74448
 N1818 N 0.20551 0.12515 0.75588
 N1819 N 0.21305 0.14892 0.75630
 C1820 C 0.19759 0.16791 0.74537
 N1821 N 0.17439 0.16235 0.73417
 N1822 N 0.16690 0.13866 0.73372
 C1823 C 0.20534 0.19419 0.74503
 C1824 C 0.22918 0.20173 0.75493
 H1825 H 0.18654 0.07870 0.75304
 H1826 H 0.19150 0.20790 0.73638
 H1827 H 0.14111 0.10197 0.71771
 H1828 H 0.24285 0.18774 0.76370
 C1829 C 0.33121 0.08730 0.26917
 C1830 C 0.31239 0.09628 0.25041
 C1831 C 0.30835 0.12379 0.24651
 N1832 N 0.28483 0.13418 0.23877
 N1833 N 0.28089 0.15929 0.23755
 C1834 C 0.30041 0.17480 0.24376
 N1835 N 0.32401 0.16435 0.25078
 N1836 N 0.32789 0.13936 0.25219
 C1837 C 0.29633 0.20244 0.24498
 C1838 C 0.27184 0.21460 0.24452
 H1839 H 0.29966 0.08345 0.24017
 H1840 H 0.31319 0.21305 0.24948
 H1841 H 0.34153 0.10106 0.28110
 H1842 H 0.25501 0.20360 0.24064
 C1843 C 0.82849 0.56651 0.77916
 C1844 C 0.81098 0.57647 0.75962
 C1845 C 0.80758 0.60409 0.75659
 N1846 N 0.78501 0.61488 0.74664
 N1847 N 0.78143 0.64001 0.74580
 C1848 C 0.80039 0.65518 0.75470
 N1849 N 0.82310 0.64436 0.76404
 N1850 N 0.82660 0.61931 0.76505
 C1851 C 0.79660 0.68283 0.75543
 C1852 C 0.77237 0.69511 0.75202
 H1853 H 0.79854 0.56422 0.74813
 H1854 H 0.81330 0.69348 0.76062
 H1855 H 0.83861 0.57955 0.79223
 H1856 H 0.75571 0.68406 0.74748
 C1857 C 0.90703 0.77905 0.13548
 C1858 C 0.90294 0.76451 0.15874
 C1859 C 0.87710 0.76493 0.17123
 N1860 N 0.87414 0.75780 0.19766
 N1861 N 0.85061 0.75796 0.20862
 C1862 C 0.82924 0.76507 0.19341
 N1863 N 0.83225 0.77198 0.16703
 N1864 N 0.85568 0.77205 0.15620
 C1865 C 0.80285 0.76400 0.20390
 C1866 C 0.79653 0.76349 0.23160
 H1867 H 0.91862 0.75346 0.16849
 H1868 H 0.78747 0.76418 0.18857
 H1869 H 0.89122 0.79202 0.12901
 H1870 H 0.81159 0.76400 0.24722
 C1871 C 0.41541 0.27269 0.63931
 C1872 C 0.41418 0.26420 0.66623
 C1873 C 0.38872 0.26211 0.67892
 N1874 N 0.38613 0.26173 0.70658
 N1875 N 0.36275 0.26022 0.71762
 C1876 C 0.34131 0.25886 0.70127
 N1877 N 0.34405 0.25896 0.67377
 N1878 N 0.36723 0.26065 0.66282
 C1879 C 0.31521 0.25661 0.71192
 C1880 C 0.30766 0.26109 0.73892
 H1881 H 0.43172 0.25979 0.67803
 H1882 H 0.30066 0.25208 0.69667
 H1883 H 0.39763 0.27953 0.62914
 H1884 H 0.32160 0.26624 0.75450
 C1885 C 0.44296 0.71125 0.84676
 C1886 C 0.43716 0.72702 0.82440
 C1887 C 0.41232 0.72593 0.80932
 N1888 N 0.40633 0.74234 0.78861
 N1889 N 0.38334 0.74213 0.77578
 C1890 C 0.36563 0.72537 0.78315
 N1891 N 0.37177 0.70882 0.80359
 N1892 N 0.39467 0.70905 0.81639
 C1893 C 0.33924 0.72615 0.77155
 C1894 C 0.33009 0.74338 0.75173
 H1895 H 0.45087 0.74044 0.81776
 H1896 H 0.32582 0.71425 0.78140
 H1897 H 0.42933 0.69719 0.85202
 H1898 H 0.34338 0.75549 0.74187
 C1899 C 0.94529 0.21974 0.34862
 C1900 C 0.93616 0.23768 0.32932
 C1901 C 0.91172 0.23417 0.31402
 N1902 N 0.90233 0.25182 0.29583
 N1903 N 0.87942 0.24928 0.28332
 C1904 C 0.86521 0.22893 0.28852
 N1905 N 0.87478 0.21123 0.30639
 N1906 N 0.89758 0.21374 0.31881
 C1907 C 0.83859 0.22699 0.27815
 C1908 C 0.82643 0.24373 0.25949
 H1909 H 0.94638 0.25460 0.32545
 H1910 H 0.82736 0.21327 0.28836
 H1911 H 0.93442 0.20282 0.35045
 H1912 H 0.83762 0.25754 0.24928
 C1913 C 0.08515 0.28968 0.36974
 C1914 C 0.09156 0.28099 0.34358
 C1915 C 0.11807 0.28219 0.33329
 N1916 N 0.12289 0.27887 0.30622
 N1917 N 0.14703 0.27921 0.29699
 C1918 C 0.16718 0.28275 0.31459
 N1919 N 0.16233 0.28600 0.34160
 N1920 N 0.13824 0.28586 0.35077
 C1921 C 0.19414 0.28143 0.30556
 C1922 C 0.20149 0.28313 0.27828
 H1923 H 0.07676 0.27366 0.33019
 H1924 H 0.20889 0.27895 0.32145
 H1925 H 0.09940 0.29937 0.38186
 H1926 H 0.18695 0.28626 0.26228
 C1927 C 0.58587 0.77927 0.86441
 C1928 C 0.59257 0.76911 0.83891
 C1929 C 0.61869 0.77135 0.82789
 N1930 N 0.62391 0.76421 0.80172
 N1931 N 0.64779 0.76544 0.79198
 C1932 C 0.66725 0.77385 0.80813
 N1933 N 0.66198 0.78103 0.83421
 N1934 N 0.63815 0.77991 0.84388
 C1935 C 0.69419 0.77327 0.79908
 C1936 C 0.70182 0.76839 0.77220
 H1937 H 0.57827 0.75976 0.82654
 H1938 H 0.70875 0.77538 0.81501
 H1939 H 0.59963 0.79049 0.87547
 H1940 H 0.68737 0.76647 0.75612
 C1941 C 0.57120 0.22592 0.63383
 C1942 C 0.58592 0.20807 0.64924
 C1943 C 0.60939 0.21499 0.66469
 N1944 N 0.62223 0.19791 0.68133
 N1945 N 0.64336 0.20417 0.69543
 C1946 C 0.65234 0.22782 0.69347
 N1947 N 0.63950 0.24483 0.67687
 N1948 N 0.61842 0.23859 0.66285
 C1949 C 0.67645 0.23503 0.70730
 C1950 C 0.69142 0.21909 0.72469
 H1951 H 0.57941 0.18902 0.65125
 H1952 H 0.68346 0.25329 0.70195
 H1953 H 0.57722 0.24526 0.63349
 H1954 H 0.68416 0.20117 0.73084
 C1955 C 0.06258 0.73365 0.13618
 C1956 C 0.06560 0.74245 0.16299
 C1957 C 0.09178 0.74664 0.17418
 N1958 N 0.09681 0.74644 0.20162
 N1959 N 0.12078 0.74968 0.21134
 C1960 C 0.14043 0.75343 0.19388
 N1961 N 0.13524 0.75391 0.16660
 N1962 N 0.11148 0.75048 0.15694
 C1963 C 0.16712 0.75746 0.20315
 C1964 C 0.17760 0.75198 0.22919
 H1965 H 0.04894 0.74509 0.17603
 H1966 H 0.17977 0.76386 0.18743
 H1967 H 0.07976 0.72841 0.12462
 H1968 H 0.16564 0.74491 0.24513
   
