data_POSCAR
  _audit_creation_date              2014-09-24
  _audit_creation_method            'ToBaCCo'
  _symmetry_space_group_name_H-M    'P1'
  _symmetry_Int_Tables_number       1
  _symmetry_cell_setting            triclinic
  loop_
  _symmetry_equiv_pos_as_xyz
 x,y,z
_cell_length_a 61.0157
_cell_length_b 60.8832
_cell_length_c 60.9579
_cell_angle_alpha 90.010100
_cell_angle_beta 89.982900
_cell_angle_gamma 90.004500
loop_
  _atom_site_label
  _atom_site_type_symbol
  _atom_site_fract_x
  _atom_site_fract_y
  _atom_site_fract_z
N1 N 0.31168 0.43828 0.93694
 N2 N 0.43709 0.81262 0.43656
 N3 N 0.93700 0.93538 0.81456
 N4 N 0.43865 -0.06167 0.31283
 N5 N 0.81182 0.31374 0.31276
 N6 N -0.18558 0.81302 0.81234
 N7 N 0.93636 0.31269 0.43812
 N8 N 0.43588 0.43611 0.81266
 N9 N 0.81449 0.93746 0.93615
 N10 N 0.31348 0.81335 0.31407
 N11 N 0.81180 0.43739 0.43591
 N12 N 0.93773 0.81267 -0.06345
 N13 N 0.31390 0.31165 0.81292
 N14 N 0.18663 0.56119 0.56106
 N15 N 0.56336 0.68753 0.06221
 N16 N 0.68990 0.18899 0.68914
 N17 N 1.06388 0.06337 0.18766
 N18 N 0.06311 0.18706 1.06395
 N19 N 0.18968 0.68748 0.68904
 N20 N 1.18516 0.18620 0.18622
 N21 N 0.68766 1.06218 0.56177
 N22 N 0.56121 0.56248 0.18689
 N23 N 0.68768 0.68868 0.18686
 N24 N 0.18728 0.06340 1.06455
 N25 N 0.56170 0.18775 0.56307
 N26 N 0.06185 0.56097 0.68675
 N27 N 0.68577 0.56377 0.06164
 N28 N 0.06212 0.68833 0.56139
 N29 N 0.56318 1.06121 0.68839
 N30 N 0.43747 0.31162 0.93868
 N31 N 0.93647 0.43829 0.31090
 N32 N 0.31182 0.93774 0.43913
 O33 O 0.19036 0.52458 0.74721
 O34 O 0.19841 0.52257 0.78571
 O35 O 0.24750 0.55626 0.72140
 O36 O 0.28360 0.55033 0.72078
 O37 O 0.22104 0.49853 0.68998
 O38 O 0.22342 0.46004 0.69788
 O39 O 0.30644 0.49608 0.77685
 O40 O 0.29966 0.53436 0.77320
 O41 O 0.25107 0.46890 0.80573
 O42 O 0.21144 0.46989 0.79779
 O43 O 0.27811 0.44031 0.74963
 O44 O 0.27618 0.44850 0.70992
 O45 O 0.30682 0.47000 0.75009
 O46 O 0.29889 0.47252 0.71002
 O47 O 0.25187 0.43972 0.77616
 O48 O 0.21160 0.44710 0.77393
 O49 O 0.27730 0.49549 0.80591
 O50 O 0.27421 0.53503 0.79890
 O51 O 0.19058 0.49815 0.72073
 O52 O 0.19925 0.45949 0.72257
 O53 O 0.24684 0.52559 0.69015
 O54 O 0.28623 0.52217 0.69845
 O55 O 0.22080 0.55562 0.74755
 O56 O 0.22267 0.54707 0.78608
 Zr57 Zr 0.22221 0.52360 0.76053
 O58 O 0.24169 0.50425 0.78143
 Zr59 Zr 0.26064 0.52431 0.72184
 O60 O 0.28200 0.50527 0.74129
 Zr61 Zr 0.22255 0.48518 0.72178
 O62 O 0.24231 0.46424 0.74087
 Zr63 Zr 0.27499 0.51001 0.77468
 O64 O 0.25551 0.53132 0.75536
 Zr65 Zr 0.23697 0.47083 0.77428
 O66 O 0.21529 0.49012 0.75519
 Zr67 Zr 0.27553 0.47180 0.73570
 O68 O 0.25577 0.49088 0.71442
 O69 O 0.22756 0.51848 0.72728
 O70 O 0.27024 0.47658 0.76912
 C71 C 0.18123 0.51342 0.73185
 C72 C 0.23202 0.56522 0.73253
 C73 C 0.23174 0.51421 0.68085
 C74 C 0.31566 0.48057 0.76599
 C75 C 0.26664 0.47970 0.81487
 C76 C 0.26767 0.43100 0.76535
 H77 H 0.23794 0.50760 0.79683
 H78 H 0.23899 0.44880 0.73714
 H79 H 0.21810 0.52790 0.71805
 H80 H 0.29738 0.50915 0.73801
 H81 H 0.29298 0.54742 0.76619
 H82 H 0.29643 0.54582 0.72961
 H83 H 0.21401 0.43737 0.76116
 H84 H 0.19198 0.46030 0.73707
 H85 H 0.26100 0.53289 0.80806
 H86 H 0.23708 0.55449 0.78529
 H87 H 0.26315 0.43896 0.71150
 H88 H 0.23801 0.46091 0.69081
 H89 H 0.19151 0.50787 0.78492
 H90 H 0.21262 0.48325 0.80694
 H91 H 0.28385 0.50848 0.69001
 H92 H 0.30844 0.48544 0.71234
 O93 O 0.30877 -0.00039 0.27990
 O94 O 0.30061 0.03805 0.27864
 O95 O 0.25094 -0.02716 0.30968
 O96 O 0.21494 -0.02751 0.30294
 O97 O 0.27886 -0.05741 0.25231
 O98 O 0.27739 -0.04896 0.21398
 O99 O 0.19331 0.02942 0.24949
 O100 O 0.19933 0.02540 0.28766
 O101 O 0.24916 0.05875 0.22363
 O102 O 0.28890 0.05104 0.22581
 O103 O 0.22309 0.00330 0.19374
 O104 O 0.22467 -0.03649 0.20116
 O105 O 0.19360 0.00327 0.22279
 O106 O 0.20161 -0.03701 0.22480
 O107 O 0.24950 0.02970 0.19419
 O108 O 0.28953 0.02744 0.20272
 O109 O 0.22226 0.05850 0.24950
 O110 O 0.22484 0.05102 0.28924
 O111 O 0.30927 -0.02651 0.25312
 O112 O 0.30143 -0.02412 0.21429
 O113 O 0.25230 -0.05776 0.27859
 O114 O 0.21297 -0.04937 0.27435
 O115 O 0.27764 -0.00097 0.31022
 O116 O 0.27564 0.03787 0.30242
 Zr117 Zr 0.27688 0.01276 0.27850
 O118 O 0.25790 0.03403 0.25901
 Zr119 Zr 0.23852 -0.02602 0.27752
 O120 O 0.21762 -0.00620 0.25837
 Zr121 Zr 0.27758 -0.02537 0.23943
 O122 O 0.25830 -0.00594 0.21837
 Zr123 Zr 0.22451 0.02715 0.26386
 O124 O 0.24342 0.00740 0.28528
 Zr125 Zr 0.26347 0.02738 0.22566
 O126 O 0.28466 0.00799 0.24515
 Zr127 Zr 0.22488 -0.01121 0.22501
 O128 O 0.24422 -0.03285 0.24414
 O129 O 0.27173 -0.02044 0.27263
 O130 O 0.23007 0.02214 0.23051
 C131 C 0.31824 -0.01553 0.26871
 C132 C 0.26626 -0.01628 0.31920
 C133 C 0.26775 -0.06684 0.26752
 C134 C 0.18445 0.01889 0.23357
 C135 C 0.23316 0.06763 0.23399
 C136 C 0.23387 0.01910 0.18493
 H137 H 0.26154 0.04941 0.26267
 H138 H 0.26201 -0.00941 0.20298
 H139 H 0.28102 -0.02983 0.28206
 H140 H 0.20215 -0.00957 0.26184
 H141 H 0.20570 0.01810 0.30070
 H142 H 0.20226 -0.01852 0.29832
 H143 H 0.28740 0.01483 0.19270
 H144 H 0.30878 -0.00968 0.21562
 H145 H 0.23776 0.06059 0.28714
 H146 H 0.26103 0.03685 0.30942
 H147 H 0.23813 -0.03498 0.19223
 H148 H 0.26276 -0.05597 0.21431
 H149 H 0.30763 0.03782 0.26400
 H150 H 0.28711 0.06023 0.23906
 H151 H 0.21574 -0.05763 0.26063
 H152 H 0.19162 -0.03479 0.23739
 O153 O 0.55831 0.72326 0.24688
 O154 O 0.55089 0.72491 0.28542
 O155 O 0.50042 0.69206 0.22179
 O156 O 0.46434 0.69819 0.22198
 O157 O 0.52682 0.74951 0.19025
 O158 O 0.52466 0.78803 0.19822
 O159 O 0.44292 0.75205 0.27868
 O160 O 0.44954 0.71385 0.27488
 O161 O 0.49884 0.77917 0.30656
 O162 O 0.53844 0.77772 0.29800
 O163 O 0.47118 0.80804 0.25119
 O164 O 0.47202 0.80011 0.21163
 O165 O 0.44219 0.77842 0.25222
 O166 O 0.44945 0.77598 0.21183
 O167 O 0.49802 0.80839 0.27711
 O168 O 0.53811 0.80058 0.27423
 O169 O 0.47250 0.75269 0.30716
 O170 O 0.47548 0.71304 0.30004
 O171 O 0.55778 0.74979 0.22050
 O172 O 0.54924 0.78850 0.22250
 O173 O 0.50072 0.72275 0.19080
 O174 O 0.46148 0.72650 0.19986
 O175 O 0.52770 0.69234 0.24733
 O176 O 0.52640 0.70062 0.28605
 Zr177 Zr 0.52666 0.72426 0.26065
 O178 O 0.50773 0.74368 0.28204
 Zr179 Zr 0.48750 0.72405 0.22272
 O180 O 0.46665 0.74310 0.24270
 Zr181 Zr 0.52586 0.76288 0.22209
 O182 O 0.50659 0.78385 0.24166
 Zr183 Zr 0.47430 0.73814 0.27592
 O184 O 0.49323 0.71679 0.25609
 Zr185 Zr 0.51252 0.77710 0.27493
 O186 O 0.53369 0.75773 0.25534
 Zr187 Zr 0.47320 0.77655 0.23714
 O188 O 0.49245 0.75747 0.21537
 O189 O 0.52073 0.72961 0.22755
 O190 O 0.47912 0.77158 0.27042
 C191 C 0.56726 0.73448 0.23144
 C192 C 0.51613 0.68294 0.23243
 C193 C 0.51583 0.73393 0.18128
 C194 C 0.43357 0.76768 0.26815
 C195 C 0.48330 0.76849 0.31592
 C196 C 0.48208 0.81726 0.26665
 H197 H 0.51174 0.74026 0.29736
 H198 H 0.50995 0.79928 0.23793
 H199 H 0.53000 0.72020 0.21813
 H200 H 0.45119 0.73931 0.23970
 H201 H 0.45602 0.70081 0.26764
 H202 H 0.45175 0.70272 0.23113
 H203 H 0.53561 0.81033 0.26150
 H204 H 0.55685 0.78757 0.23682
 H205 H 0.48874 0.71525 0.30909
 H206 H 0.51193 0.69328 0.28540
 H207 H 0.48545 0.80915 0.21260
 H208 H 0.50996 0.78719 0.19140
 H209 H 0.55767 0.73967 0.28483
 H210 H 0.53712 0.76449 0.30733
 H211 H 0.46387 0.74015 0.19136
 H212 H 0.43970 0.76326 0.21444
 O213 O 0.00286 0.69048 0.72285
 O214 O -0.03562 0.69810 0.72505
 O215 O 0.02787 0.74806 0.69110
 O216 O 0.02779 0.78429 0.69699
 O217 O 0.05998 0.72201 0.74838
 O218 O 0.05234 0.72415 0.78688
 O219 O -0.02799 0.80636 0.75164
 O220 O -0.02457 0.79965 0.71340
 O221 O -0.05581 0.75059 0.77911
 O222 O -0.04739 0.71082 0.77775
 O223 O 0.00001 0.77821 0.80717
 O224 O 0.03962 0.77691 0.79865
 O225 O -0.00116 0.80705 0.77758
 O226 O 0.03902 0.79969 0.77468
 O227 O -0.02607 0.75150 0.80794
 O228 O -0.02347 0.71128 0.80042
 O229 O -0.05655 0.77687 0.75256
 O230 O -0.04990 0.77376 0.71293
 O231 O 0.02959 0.69099 0.74895
 O232 O 0.02802 0.69962 0.78760
 O233 O 0.05923 0.74799 0.72150
 O234 O 0.05036 0.78727 0.72494
 O235 O 0.00209 0.72098 0.69189
 O236 O -0.03642 0.72247 0.70065
 Zr237 Zr -0.01075 0.72225 0.72393
 O238 O -0.03176 0.74144 0.74347
 Zr239 Zr 0.02736 0.76127 0.72300
 O240 O 0.00779 0.78238 0.74221
 Zr241 Zr 0.02827 0.72302 0.76198
 O242 O 0.00908 0.74253 0.78309
 Zr243 Zr -0.02550 0.77488 0.73772
 O244 O -0.00610 0.75568 0.71623
 Zr245 Zr -0.02428 0.73674 0.77677
 O246 O -0.00505 0.71532 0.75730
 Zr247 Zr 0.01371 0.77592 0.77558
 O248 O 0.03509 0.75644 0.75631
 O249 O 0.02244 0.72803 0.72879
 O250 O -0.01963 0.77015 0.77105
 C251 C 0.01841 0.68148 0.73384
 C252 C 0.01694 0.73237 0.68223
 C253 C 0.06884 0.73298 0.73274
 C254 C -0.01722 0.81571 0.76711
 C255 C -0.06520 0.76614 0.76846
 C256 C -0.01544 0.76748 0.81658
 H257 H -0.04712 0.73748 0.74025
 H258 H 0.01297 0.73921 0.79847
 H259 H 0.03174 0.71867 0.71933
 H260 H 0.01082 0.79785 0.73834
 H261 H -0.01761 0.79305 0.70028
 H262 H 0.01890 0.79706 0.70164
 H263 H -0.01056 0.71372 0.80992
 H264 H 0.01363 0.69213 0.78689
 H265 H -0.05893 0.76048 0.71523
 H266 H -0.03582 0.73694 0.69325
 H267 H 0.03834 0.76378 0.80811
 H268 H 0.05915 0.73888 0.78603
 H269 H -0.03478 0.69130 0.73977
 H270 H -0.05691 0.71217 0.76469
 H271 H 0.05885 0.78507 0.73860
 H272 H 0.03639 0.80932 0.76188
 O273 O 0.05987 0.02616 0.00270
 O274 O 0.05235 0.02429 -0.03587
 O275 O 0.00265 0.05805 0.02795
 O276 O -0.03355 0.05239 0.02789
 O277 O 0.02832 0.00023 0.05947
 O278 O 0.02579 -0.03823 0.05155
 O279 O -0.05595 -0.00144 -0.02852
 O280 O -0.04889 0.03667 -0.02488
 O281 O -0.00052 -0.02934 -0.05656
 O282 O 0.03911 -0.02834 -0.04829
 O283 O -0.02830 -0.05765 -0.00103
 O284 O -0.02708 -0.04956 0.03861
 O285 O -0.05688 -0.02772 -0.00197
 O286 O -0.04947 -0.02525 0.03834
 O287 O -0.00156 -0.05841 -0.02706
 O288 O 0.03867 -0.05108 -0.02436
 O289 O -0.02657 -0.00258 -0.05710
 O290 O -0.02296 0.03715 -0.05011
 O291 O 0.05914 -0.00027 0.02918
 O292 O 0.05024 -0.03896 0.02710
 O293 O 0.00264 0.02740 0.05903
 O294 O -0.03669 0.02418 0.05016
 O295 O 0.02968 0.05733 0.00214
 O296 O 0.02813 0.04889 -0.03653
 Zr297 Zr 0.02820 0.02537 -0.01102
 O298 O 0.00893 0.00613 -0.03224
 Zr299 Zr -0.01075 0.02622 0.02715
 O300 O -0.03194 0.00736 0.00734
 Zr301 Zr 0.02712 -0.01311 0.02766
 O302 O 0.00748 -0.03391 0.00828
 Zr303 Zr -0.02440 0.01211 -0.02594
 O304 O -0.00510 0.03328 -0.00628
 Zr305 Zr 0.01335 -0.02731 -0.02503
 O306 O 0.03487 -0.00815 -0.00564
 Zr307 Zr -0.02579 -0.02616 0.01296
 O308 O -0.00619 -0.00725 0.03456
 O309 O 0.02236 0.02020 0.02213
 O310 O -0.01995 -0.02136 -0.02036
 C311 C 0.06872 0.01497 0.01820
 C312 C 0.01838 0.06692 0.01711
 C313 C 0.01761 0.01598 0.06848
 C314 C -0.06544 -0.01695 -0.01791
 C315 C -0.01601 -0.01856 -0.06585
 C316 C -0.01759 -0.06705 -0.01651
 H317 H 0.01290 0.00945 -0.04760
 H318 H 0.01066 -0.04936 0.01204
 H319 H 0.03176 0.02954 0.03151
 H320 H -0.04734 0.01135 0.01041
 H321 H -0.04224 0.04965 -0.01768
 H322 H -0.04627 0.04797 0.01887
 H323 H 0.03610 -0.06077 -0.01160
 H324 H 0.05787 -0.03803 0.01280
 H325 H -0.00993 0.03459 -0.05939
 H326 H 0.01375 0.05639 -0.03587
 H327 H -0.01391 -0.05895 0.03742
 H328 H 0.01110 -0.03729 0.05840
 H329 H 0.05901 0.00948 -0.03516
 H330 H 0.03798 -0.01507 -0.05757
 H331 H -0.03447 0.01049 0.05864
 H332 H -0.05902 -0.01237 0.03578
 O333 O -0.00329 0.47305 0.44037
 O334 O 0.03520 0.47426 0.44836
 O335 O -0.02966 0.44312 0.49835
 O336 O -0.02985 0.44984 0.53441
 O337 O -0.05986 0.50070 0.47067
 O338 O -0.05131 0.53912 0.47237
 O339 O 0.02708 0.50318 0.55595
 O340 O 0.02288 0.46492 0.54978
 O341 O 0.05638 0.52886 0.49981
 O342 O 0.04835 0.52693 0.46012
 O343 O 0.00119 0.55911 0.52631
 O344 O -0.03862 0.55177 0.52480
 O345 O 0.00100 0.52991 0.55583
 O346 O -0.03905 0.52824 0.54797
 O347 O 0.02745 0.55858 0.49980
 O348 O 0.02502 0.55020 0.45978
 O349 O 0.05612 0.50292 0.52669
 O350 O 0.04848 0.46340 0.52435
 O351 O -0.02920 0.50002 0.44013
 O352 O -0.02673 0.53878 0.44807
 O353 O -0.06015 0.47429 0.49715
 O354 O -0.05168 0.47848 0.53646
 O355 O -0.00370 0.44260 0.47146
 O356 O 0.03502 0.45028 0.47317
 Zr357 Zr 0.01005 0.47433 0.47222
 O358 O 0.03142 0.49369 0.49121
 Zr359 Zr -0.02844 0.47531 0.51084
 O360 O -0.00853 0.49442 0.53170
 Zr361 Zr -0.02787 0.51356 0.47188
 O362 O -0.00827 0.53454 0.49109
 Zr363 Zr 0.02470 0.48883 0.52468
 O364 O 0.00487 0.46748 0.50573
 Zr365 Zr 0.02493 0.52712 0.48576
 O366 O 0.00537 0.50776 0.46459
 Zr367 Zr -0.01343 0.52786 0.52454
 O368 O -0.03518 0.50877 0.50528
 O369 O -0.02302 0.48029 0.47758
 O370 O 0.01983 0.52226 0.51922
 C371 C -0.01839 0.48438 0.43102
 C372 C -0.01890 0.43360 0.48295
 C373 C -0.06924 0.48542 0.48174
 C374 C 0.01656 0.51906 0.56492
 C375 C 0.06532 0.51833 0.51568
 C376 C 0.01695 0.56788 0.51548
 H377 H 0.04673 0.48996 0.48749
 H378 H -0.01168 0.54997 0.48742
 H379 H -0.03244 0.47087 0.46831
 H380 H -0.01186 0.49094 0.54719
 H381 H 0.01557 0.45189 0.54335
 H382 H -0.02094 0.45450 0.54713
 H383 H 0.01243 0.56021 0.46194
 H384 H -0.01232 0.53755 0.44072
 H385 H 0.05763 0.46511 0.51107
 H386 H 0.03412 0.44326 0.48780
 H387 H -0.03701 0.56083 0.51143
 H388 H -0.05834 0.53863 0.48699
 H389 H 0.03481 0.48886 0.44123
 H390 H 0.05741 0.51356 0.46176
 H391 H -0.05987 0.49226 0.53377
 H392 H -0.03708 0.51539 0.55771
 O393 O 0.44173 -0.00130 0.47262
 O394 O 0.45006 0.03713 0.47418
 O395 O 0.49952 -0.02807 0.44278
 O396 O 0.53551 -0.02855 0.44961
 O397 O 0.47135 -0.05861 0.49986
 O398 O 0.47279 -0.05040 0.53828
 O399 O 0.55725 0.02784 0.50361
 O400 O 0.55132 0.02406 0.46535
 O401 O 0.50124 0.05737 0.52924
 O402 O 0.46158 0.04964 0.52713
 O403 O 0.52719 0.00153 0.55902
 O404 O 0.52537 -0.03824 0.55132
 O405 O 0.55679 0.00140 0.53001
 O406 O 0.54855 -0.03871 0.52782
 O407 O 0.50096 0.02810 0.55864
 O408 O 0.46094 0.02598 0.55009
 O409 O 0.52824 0.05717 0.50346
 O410 O 0.52607 0.04988 0.46389
 O411 O 0.44106 -0.02758 0.49924
 O412 O 0.44880 -0.02552 0.53805
 O413 O 0.49797 -0.05887 0.47364
 O414 O 0.53729 -0.05069 0.47804
 O415 O 0.47291 -0.00180 0.44237
 O416 O 0.47504 0.03696 0.45040
 Zr417 Zr 0.47367 0.01172 0.47418
 O418 O 0.49268 0.03278 0.49385
 Zr419 Zr 0.51187 -0.02719 0.47498
 O420 O 0.53279 -0.00760 0.49435
 Zr421 Zr 0.47272 -0.02666 0.51298
 O422 O 0.49200 -0.00742 0.53423
 Zr423 Zr 0.52608 0.02582 0.48908
 O424 O 0.50712 0.00631 0.46745
 Zr425 Zr 0.48700 0.02597 0.52715
 O426 O 0.46579 0.00677 0.50748
 Zr427 Zr 0.52541 -0.01279 0.52766
 O428 O 0.50606 -0.03423 0.50830
 O429 O 0.47867 -0.02153 0.47983
 O430 O 0.52041 0.02064 0.52239
 C431 C 0.43217 -0.01647 0.48370
 C432 C 0.48426 -0.01708 0.43331
 C433 C 0.48245 -0.06797 0.48460
 C434 C 0.56605 0.01706 0.51940
 C435 C 0.51720 0.06633 0.51887
 C436 C 0.51650 0.01735 0.56788
 H437 H 0.48910 0.04818 0.49026
 H438 H 0.48823 -0.01096 0.54959
 H439 H 0.46937 -0.03082 0.47031
 H440 H 0.54825 -0.01102 0.49091
 H441 H 0.54494 0.01689 0.45223
 H442 H 0.54827 -0.01975 0.45440
 H443 H 0.46301 0.01332 0.56003
 H444 H 0.44158 -0.01100 0.53690
 H445 H 0.51287 0.05913 0.46563
 H446 H 0.48964 0.03590 0.44339
 H447 H 0.51195 -0.03665 0.56029
 H448 H 0.48738 -0.05750 0.53789
 H449 H 0.44286 0.03671 0.48873
 H450 H 0.46330 0.05878 0.51383
 H451 H 0.53446 -0.05902 0.49170
 H452 H 0.55846 -0.03659 0.51516
 O453 O 0.44061 0.50049 -0.02857
 O454 O 0.44946 0.53884 -0.02700
 O455 O 0.49729 0.47278 -0.05920
 O456 O 0.53346 0.47203 -0.05310
 O457 O 0.46997 0.44276 -0.00148
 O458 O 0.47185 0.45121 0.03685
 O459 O 0.55692 0.52814 0.00071
 O460 O 0.55047 0.52414 -0.03751
 O461 O 0.50204 0.55838 0.02712
 O462 O 0.46215 0.55133 0.02561
 O463 O 0.52734 0.50201 0.05656
 O464 O 0.52488 0.46227 0.04869
 O465 O 0.55645 0.50179 0.02721
 O466 O 0.54786 0.46174 0.02499
 O467 O 0.50159 0.52905 0.05659
 O468 O 0.46149 0.52776 0.04866
 O469 O 0.52845 0.55775 0.00073
 O470 O 0.52551 0.55036 -0.03873
 O471 O 0.44000 0.47415 -0.00201
 O472 O 0.44820 0.47640 0.03674
 O473 O 0.49614 0.44209 -0.02814
 O474 O 0.53552 0.44980 -0.02467
 O475 O 0.47121 0.49959 -0.05919
 O476 O 0.47405 0.53833 -0.05122
 Zr477 Zr 0.47272 0.51311 -0.02743
 O478 O 0.49239 0.53389 -0.00812
 Zr479 Zr 0.51036 0.47363 -0.02726
 O480 O 0.53189 0.49291 -0.00824
 Zr481 Zr 0.47182 0.47479 0.01140
 O482 O 0.49174 0.49376 0.03230
 Zr483 Zr 0.52558 0.52640 -0.01346
 O484 O 0.50596 0.50718 -0.03474
 Zr485 Zr 0.48716 0.52723 0.02528
 O486 O 0.46531 0.50832 0.00600
 Zr487 Zr 0.52495 0.48786 0.02518
 O488 O 0.50497 0.46672 0.00616
 O489 O 0.47733 0.47978 -0.02184
 O490 O 0.52038 0.52135 0.01995
 C491 C 0.43104 0.48535 -0.01745
 C492 C 0.48207 0.48405 -0.06841
 C493 C 0.48078 0.43318 -0.01681
 C494 C 0.56573 0.51737 0.01650
 C495 C 0.51792 0.56708 0.01638
 C496 C 0.51703 0.51797 0.06561
 H497 H 0.48899 0.54935 -0.01168
 H498 H 0.48816 0.49026 0.04772
 H499 H 0.46778 0.47055 -0.03117
 H500 H 0.54725 0.48928 -0.01191
 H501 H 0.54378 0.51715 -0.05056
 H502 H 0.54651 0.48048 -0.04847
 H503 H 0.46332 0.51487 0.05837
 H504 H 0.44116 0.49100 0.03556
 H505 H 0.51249 0.55982 -0.03681
 H506 H 0.48847 0.53700 -0.05855
 H507 H 0.51175 0.46415 0.05801
 H508 H 0.48631 0.44386 0.03629
 H509 H 0.44250 0.53849 -0.01234
 H510 H 0.46385 0.56046 0.01230
 H511 H 0.53301 0.44171 -0.01081
 H512 H 0.55769 0.46383 0.01226
 O513 O 0.69011 0.22321 0.50095
 O514 O 0.69800 0.22520 0.46250
 O515 O 0.74732 0.19180 0.52670
 O516 O 0.78348 0.19774 0.52684
 O517 O 0.72103 0.24937 0.55823
 O518 O 0.72297 0.28779 0.55034
 O519 O 0.80592 0.25206 0.47091
 O520 O 0.79921 0.21389 0.47428
 O521 O 0.75029 0.27940 0.44242
 O522 O 0.71067 0.27807 0.45050
 O523 O 0.77748 0.30786 0.49827
 O524 O 0.77588 0.29964 0.53794
 O525 O 0.80636 0.27819 0.49762
 O526 O 0.79856 0.27563 0.53777
 O527 O 0.75097 0.30844 0.47203
 O528 O 0.71078 0.30077 0.47445
 O529 O 0.77667 0.25296 0.44200
 O530 O 0.77355 0.21324 0.44884
 O531 O 0.69029 0.24946 0.52761
 O532 O 0.69878 0.28826 0.52571
 O533 O 0.74700 0.22249 0.55789
 O534 O 0.78627 0.22589 0.54923
 O535 O 0.72057 0.19233 0.50062
 O536 O 0.72246 0.20087 0.46201
 Zr537 Zr 0.72190 0.22432 0.48758
 O538 O 0.74114 0.24384 0.46660
 Zr539 Zr 0.76049 0.22374 0.52606
 O540 O 0.78165 0.24289 0.50650
 Zr541 Zr 0.72220 0.26268 0.52640
 O542 O 0.74181 0.28375 0.50727
 Zr543 Zr 0.77447 0.23819 0.47313
 O544 O 0.75523 0.21674 0.49256
 Zr545 Zr 0.73630 0.27721 0.47388
 O546 O 0.71482 0.25776 0.49302
 Zr547 Zr 0.77511 0.27633 0.51218
 O548 O 0.75551 0.25714 0.53354
 O549 O 0.72736 0.22943 0.52082
 O550 O 0.76963 0.27160 0.47880
 C551 C 0.68097 0.23421 0.51642
 C552 C 0.73179 0.18280 0.51568
 C553 C 0.73194 0.23382 0.56732
 C554 C 0.81518 0.26756 0.48173
 C555 C 0.76593 0.26878 0.43319
 C556 C 0.76684 0.31719 0.48271
 H557 H 0.73732 0.24053 0.45120
 H558 H 0.73844 0.29917 0.51105
 H559 H 0.71798 0.22000 0.53013
 H560 H 0.79706 0.23905 0.50969
 H561 H 0.79264 0.20081 0.48136
 H562 H 0.79624 0.20231 0.51793
 H563 H 0.71317 0.31045 0.48726
 H564 H 0.69132 0.28730 0.51132
 H565 H 0.76045 0.21556 0.43959
 H566 H 0.73689 0.19348 0.46282
 H567 H 0.76276 0.30907 0.53652
 H568 H 0.73767 0.28717 0.55717
 H569 H 0.69114 0.23992 0.46320
 H570 H 0.71197 0.26483 0.44120
 H571 H 0.78395 0.23958 0.55767
 H572 H 0.80821 0.26282 0.53532
 O573 O 0.75133 0.77922 -0.05874
 O574 O 0.71295 0.77821 -0.05012
 O575 O 0.77897 0.80859 -0.00123
 O576 O 0.77940 0.80181 0.03488
 O577 O 0.80821 0.75090 -0.02947
 O578 O 0.79929 0.71255 -0.02799
 O579 O 0.72253 0.74865 0.05711
 O580 O 0.72701 0.78692 0.05114
 O581 O 0.69222 0.72348 0.00143
 O582 O 0.69960 0.72568 -0.03847
 O583 O 0.74758 0.69272 0.02674
 O584 O 0.78746 0.69984 0.02458
 O585 O 0.74838 0.72169 0.05639
 O586 O 0.78833 0.72316 0.04797
 O587 O 0.72091 0.69359 0.00066
 O588 O 0.72269 0.70215 -0.03930
 O589 O 0.69310 0.74932 0.02841
 O590 O 0.70100 0.78882 0.02611
 O591 O 0.77713 0.75215 -0.05957
 O592 O 0.77435 0.71333 -0.05190
 O593 O 0.80911 0.77715 -0.00284
 O594 O 0.80118 0.77299 0.03651
 O595 O 0.75250 0.80944 -0.02760
 O596 O 0.71374 0.80211 -0.02517
 Zr597 Zr 0.73848 0.77785 -0.02669
 O598 O 0.71727 0.75856 -0.00746
 Zr599 Zr 0.77757 0.77640 0.01126
 O600 O 0.75787 0.75731 0.03236
 Zr601 Zr 0.77610 0.73835 -0.02791
 O602 O 0.75665 0.71742 -0.00849
 Zr603 Zr 0.72458 0.76320 0.02591
 O604 O 0.74425 0.78451 0.00675
 Zr605 Zr 0.72342 0.72511 -0.01322
 O606 O 0.74279 0.74443 -0.03461
 Zr607 Zr 0.76240 0.72388 0.02491
 O608 O 0.78397 0.74292 0.00540
 O609 O 0.77159 0.77161 -0.02191
 O610 O 0.72911 0.72976 0.02017
 C611 C 0.76628 0.76793 -0.06838
 C612 C 0.76804 0.81824 -0.01643
 C613 C 0.81789 0.76600 -0.01841
 C614 C 0.73302 0.73258 0.06579
 C615 C 0.68363 0.73399 0.01752
 C616 C 0.73159 0.68412 0.01612
 H617 H 0.70193 0.76242 -0.01090
 H618 H 0.75989 0.70198 -0.01230
 H619 H 0.78098 0.78097 -0.03128
 H620 H 0.76146 0.76068 0.04780
 H621 H 0.73426 0.79995 0.04467
 H622 H 0.77080 0.79706 0.04780
 H623 H 0.73533 0.69214 -0.03751
 H624 H 0.75984 0.71477 -0.05902
 H625 H 0.69160 0.78722 0.01300
 H626 H 0.71496 0.80906 -0.01054
 H627 H 0.78548 0.69075 0.01128
 H628 H 0.80654 0.71286 -0.01347
 H629 H 0.71313 0.76365 -0.05735
 H630 H 0.69057 0.73902 -0.03648
 H631 H 0.80911 0.75908 0.03374
 H632 H 0.78658 0.73595 0.05783
 O633 O 0.99815 0.27794 0.30892
 O634 O 1.03652 0.27611 0.30060
 O635 O 0.97161 0.30841 0.25145
 O636 O 0.97118 0.30193 0.21533
 O637 O 0.94083 0.25111 0.27900
 O638 O 0.94888 0.21263 0.27734
 O639 O 1.02715 0.24759 0.19308
 O640 O 1.02346 0.28592 0.19925
 O641 O 1.05637 0.22135 0.24875
 O642 O 1.04871 0.22323 0.28855
 O643 O 1.00051 0.19213 0.22259
 O644 O 0.96078 0.20009 0.22460
 O645 O 1.00062 0.22130 0.19332
 O646 O 0.96058 0.22375 0.20148
 O647 O 1.02706 0.19213 0.24880
 O648 O 1.02500 0.20028 0.28895
 O649 O 1.05630 0.24743 0.22199
 O650 O 1.04924 0.28711 0.22460
 O651 O 0.97173 0.25147 0.30936
 O652 O 0.97371 0.21262 0.30136
 O653 O 0.94072 0.27761 0.25261
 O654 O 0.94887 0.27360 0.21326
 O655 O 0.99792 0.30841 0.27799
 O656 O 1.03654 0.30014 0.27582
 Zr657 Zr 1.01118 0.27650 0.27696
 O658 O 1.03207 0.25687 0.25772
 Zr659 Zr 0.97233 0.27628 0.23873
 O660 O 0.99175 0.25695 0.21759
 Zr661 Zr 0.97266 0.23788 0.27758
 O662 O 0.99173 0.21666 0.25807
 Zr663 Zr 1.02513 0.26199 0.22434
 O664 O 1.00581 0.28358 0.24354
 Zr665 Zr 1.02509 0.22352 0.26311
 O666 O 1.00605 0.24313 0.28455
 Zr667 Zr 0.98638 0.22357 0.22470
 O668 O 0.96513 0.24292 0.24426
 O669 O 0.97797 0.27109 0.27191
 O670 O 1.01975 0.22863 0.22974
 C671 C 0.98289 0.26692 0.31838
 C672 C 0.98269 0.31768 0.26678
 C673 C 0.93156 0.26650 0.26800
 C674 C 1.01637 0.23184 0.18418
 C675 C 1.06533 0.23181 0.23283
 C676 C 1.01629 0.18309 0.23314
 H677 H 1.04747 0.26035 0.26132
 H678 H 0.98810 0.20127 0.26169
 H679 H 0.96873 0.28059 0.28128
 H680 H 0.98837 0.26053 0.20215
 H681 H 1.01643 0.29906 0.20575
 H682 H 0.97985 0.29716 0.20248
 H683 H 1.01226 0.19046 0.28682
 H684 H 0.98821 0.21368 0.30857
 H685 H 1.05857 0.28511 0.23770
 H686 H 1.03555 0.30730 0.26127
 H687 H 0.96248 0.19082 0.23781
 H688 H 0.94182 0.21312 0.26272
 H689 H 1.03597 0.26149 0.30768
 H690 H 1.05797 0.23646 0.28687
 H691 H 0.94056 0.25988 0.21588
 H692 H 0.96282 0.23645 0.19163
 O693 O 0.69329 1.02727 0.74697
 O694 O 0.70084 1.02549 0.78546
 O695 O 0.75099 1.05888 0.72184
 O696 O 0.78707 1.05288 0.72182
 O697 O 0.72472 1.00143 0.69006
 O698 O 0.72702 0.96290 0.69783
 O699 O 0.80884 0.99866 0.77826
 O700 O 0.80219 1.03690 0.77459
 O701 O 0.75315 0.97131 0.80611
 O702 O 0.71354 0.97261 0.79770
 O703 O 0.78076 0.94284 0.75042
 O704 O 0.77971 0.95106 0.71087
 O705 O 0.80958 0.97247 0.75160
 O706 O 0.80229 0.97522 0.71125
 O707 O 0.75407 0.94227 0.77650
 O708 O 0.71388 0.94991 0.77376
 O709 O 0.77937 0.99791 0.80678
 O710 O 0.77625 1.03759 0.79983
 O711 O 0.69384 1.00088 0.72045
 O712 O 0.70253 0.96222 0.72218
 O713 O 0.75071 1.02830 0.69064
 O714 O 0.79000 1.02468 0.69958
 O715 O 0.72380 1.05834 0.74748
 O716 O 0.72523 1.04985 0.78614
 Zr717 Zr 0.72499 1.02635 0.76061
 O718 O 0.74406 1.00688 0.78182
 Zr719 Zr 0.76402 1.02692 0.72253
 O720 O 0.78502 1.00784 0.74233
 Zr721 Zr 0.72581 0.98794 0.72183
 O722 O 0.74523 0.96693 0.74120
 Zr723 Zr 0.77745 1.01258 0.77560
 O724 O 0.75838 1.03396 0.75596
 Zr725 Zr 0.73938 0.97349 0.77453
 O726 O 0.71807 0.99288 0.75513
 Zr727 Zr 0.77856 0.97440 0.73659
 O728 O 0.75917 0.99352 0.71500
 O729 O 0.73083 1.02120 0.72745
 O730 O 0.77273 0.97917 0.76991
 C731 C 0.68432 1.01608 0.73152
 C732 C 0.73529 1.06788 0.73262
 C733 C 0.73564 1.01708 0.68112
 C734 C 0.81818 0.98307 0.76763
 C735 C 0.76865 0.98201 0.81549
 C736 C 0.77000 0.93351 0.76590
 H737 H 0.74008 1.01021 0.79717
 H738 H 0.74191 0.95151 0.73739
 H739 H 0.72149 1.03063 0.71811
 H740 H 0.80046 1.01169 0.73930
 H741 H 0.79566 1.04997 0.76746
 H742 H 0.79970 1.04837 0.73092
 H743 H 0.71644 0.94017 0.76103
 H744 H 0.69500 0.96301 0.73655
 H745 H 0.76304 1.03528 0.80892
 H746 H 0.73967 1.05725 0.78547
 H747 H 0.76640 0.94185 0.71193
 H748 H 0.74170 0.96381 0.69096
 H749 H 0.69413 1.01070 0.78483
 H750 H 0.71480 0.98582 0.80707
 H751 H 0.78765 1.01106 0.69102
 H752 H 0.81202 0.98793 0.71394
 O753 O 0.69068 0.52825 0.24802
 O754 O 0.69886 0.52603 0.28646
 O755 O 0.74804 0.55940 0.22207
 O756 O 0.78421 0.55316 0.22191
 O757 O 0.72106 0.50240 0.19040
 O758 O 0.72290 0.46381 0.19798
 O759 O 0.80645 0.49815 0.27714
 O760 O 0.80007 0.53652 0.27394
 O761 O 0.75066 0.47136 0.30589
 O762 O 0.71097 0.47309 0.29793
 O763 O 0.77734 0.44291 0.24971
 O764 O 0.77543 0.45138 0.20999
 O765 O 0.80646 0.47226 0.25019
 O766 O 0.79847 0.47505 0.21022
 O767 O 0.75101 0.44246 0.27616
 O768 O 0.71090 0.45039 0.27399
 O769 O 0.77730 0.49754 0.30627
 O770 O 0.77473 0.53717 0.29973
 O771 O 0.69053 0.50213 0.22123
 O772 O 0.69872 0.46336 0.22266
 O773 O 0.74732 0.52900 0.19081
 O774 O 0.78656 0.52517 0.19911
 O775 O 0.72137 0.55892 0.24826
 O776 O 0.72344 0.55024 0.28681
 Zr777 Zr 0.72256 0.52687 0.26117
 O778 O 0.74177 0.50707 0.28192
 Zr779 Zr 0.76097 0.52736 0.22251
 O780 O 0.78207 0.50785 0.24177
 Zr781 Zr 0.72235 0.48875 0.22210
 O782 O 0.74181 0.46738 0.24103
 Zr783 Zr 0.77514 0.51242 0.27521
 O784 O 0.75595 0.53419 0.25608
 Zr785 Zr 0.73657 0.47379 0.27448
 O786 O 0.71517 0.49353 0.25555
 Zr787 Zr 0.77514 0.47451 0.23593
 O788 O 0.75566 0.49406 0.21482
 O789 O 0.72782 0.52191 0.22789
 O790 O 0.76992 0.47911 0.26938
 C791 C 0.68137 0.51736 0.23257
 C792 C 0.73258 0.56844 0.23317
 C793 C 0.73206 0.51795 0.18140
 C794 C 0.81548 0.48264 0.26612
 C795 C 0.76643 0.48181 0.31509
 C796 C 0.76675 0.43363 0.26535
 H797 H 0.73806 0.51034 0.29735
 H798 H 0.73828 0.45201 0.23719
 H799 H 0.71844 0.53146 0.21871
 H800 H 0.79750 0.51155 0.23850
 H801 H 0.79353 0.54973 0.26710
 H802 H 0.79708 0.54829 0.23049
 H803 H 0.71314 0.44076 0.26111
 H804 H 0.69149 0.46411 0.23718
 H805 H 0.76140 0.53524 0.30873
 H806 H 0.73794 0.55750 0.28595
 H807 H 0.76234 0.44194 0.21159
 H808 H 0.73753 0.46450 0.19098
 H809 H 0.69179 0.51142 0.28565
 H810 H 0.71253 0.48620 0.30739
 H811 H 0.78411 0.51152 0.19064
 H812 H 0.80814 0.48789 0.21255
 O813 O 0.50346 0.19046 0.72442
 O814 O 0.46498 0.19819 0.72614
 O815 O 0.52906 0.24823 0.69347
 O816 O 0.52916 0.28438 0.69966
 O817 O 0.56026 0.22155 0.75100
 O818 O 0.55214 0.22347 0.78940
 O819 O 0.47265 0.30628 0.75359
 O820 O 0.47646 0.29977 0.71540
 O821 O 0.44422 0.25034 0.78034
 O822 O 0.45243 0.21067 0.77890
 O823 O 0.49977 0.27760 0.80935
 O824 O 0.53942 0.27628 0.80140
 O825 O 0.49912 0.30668 0.77989
 O826 O 0.53932 0.29912 0.77752
 O827 O 0.47360 0.25097 0.80959
 O828 O 0.47621 0.21073 0.80172
 O829 O 0.44391 0.27684 0.75401
 O830 O 0.45110 0.27398 0.71443
 O831 O 0.52980 0.19069 0.75093
 O832 O 0.52768 0.19906 0.78963
 O833 O 0.56002 0.24771 0.72428
 O834 O 0.55125 0.28706 0.72796
 O835 O 0.50321 0.22120 0.69366
 O836 O 0.46458 0.22279 0.70193
 Zr837 Zr 0.48993 0.22227 0.72555
 O838 O 0.46872 0.24139 0.74497
 Zr839 Zr 0.52820 0.26116 0.72546
 O840 O 0.50841 0.28219 0.74454
 Zr841 Zr 0.52839 0.22262 0.76417
 O842 O 0.50901 0.24206 0.78515
 Zr843 Zr 0.47516 0.27486 0.73954
 O844 O 0.49481 0.25575 0.71818
 Zr845 Zr 0.47573 0.23643 0.77833
 O846 O 0.49512 0.21508 0.75896
 Zr847 Zr 0.51386 0.27548 0.77793
 O848 O 0.53544 0.25605 0.75884
 O849 O 0.52306 0.22790 0.73093
 O850 O 0.48056 0.26988 0.77292
 C851 C 0.51882 0.18134 0.73558
 C852 C 0.51822 0.23265 0.68431
 C853 C 0.56939 0.23256 0.73554
 C854 C 0.48327 0.31550 0.76924
 C855 C 0.43502 0.26600 0.76971
 C856 C 0.48419 0.26684 0.81850
 H857 H 0.45339 0.23751 0.74151
 H858 H 0.51268 0.23862 0.80056
 H859 H 0.53244 0.21857 0.72152
 H860 H 0.51156 0.29767 0.74080
 H861 H 0.48363 0.29325 0.70235
 H862 H 0.52014 0.29709 0.70421
 H863 H 0.48888 0.21315 0.81154
 H864 H 0.51331 0.19158 0.78862
 H865 H 0.44196 0.26074 0.71654
 H866 H 0.46534 0.23730 0.69465
 H867 H 0.53806 0.26300 0.81066
 H868 H 0.55902 0.23818 0.78874
 H869 H 0.46559 0.19128 0.74082
 H870 H 0.44328 0.21197 0.76558
 H871 H 0.55963 0.28464 0.74165
 H872 H 0.53689 0.30887 0.76477
 O873 O 0.22418 0.74748 0.55965
 O874 O 0.22614 0.78605 0.55206
 O875 O 0.19205 0.72241 0.50231
 O876 O 0.19769 0.72240 0.46611
 O877 O 0.24960 0.69043 0.52794
 O878 O 0.28803 0.69815 0.52537
 O879 O 0.25183 0.77862 0.44368
 O880 O 0.21371 0.77506 0.45072
 O881 O 0.27959 0.80657 0.49924
 O882 O 0.27874 0.79810 0.53885
 O883 O 0.30766 0.75069 0.47128
 O884 O 0.29932 0.71103 0.47256
 O885 O 0.27781 0.75180 0.44272
 O886 O 0.27513 0.71152 0.45009
 O887 O 0.30855 0.77683 0.49796
 O888 O 0.30136 0.77413 0.53824
 O889 O 0.25285 0.80726 0.47322
 O890 O 0.21335 0.80039 0.47659
 O891 O 0.25041 0.72083 0.55887
 O892 O 0.28893 0.72254 0.54987
 O893 O 0.22249 0.69107 0.50225
 O894 O 0.22569 0.69996 0.46293
 O895 O 0.19296 0.74818 0.52942
 O896 O 0.20157 0.78681 0.52793
 Zr897 Zr 0.22492 0.76116 0.52792
 O898 O 0.24421 0.78230 0.50860
 Zr899 Zr 0.22382 0.72299 0.48891
 O900 O 0.24275 0.74271 0.46769
 Zr901 Zr 0.26310 0.72222 0.52677
 O902 O 0.28394 0.74153 0.50711
 Zr903 Zr 0.23820 0.77606 0.47524
 O904 O 0.21698 0.75650 0.49458
 Zr905 Zr 0.27755 0.77492 0.51298
 O906 O 0.25836 0.75558 0.53453
 Zr907 Zr 0.27616 0.73689 0.47383
 O908 O 0.25717 0.71537 0.49344
 O909 O 0.22987 0.72793 0.52206
 O910 O 0.27157 0.77029 0.47965
 C911 C 0.23534 0.73195 0.56852
 C912 C 0.18326 0.73331 0.51806
 C913 C 0.23387 0.68150 0.51718
 C914 C 0.26722 0.76787 0.43417
 C915 C 0.26877 0.81599 0.48385
 C916 C 0.31711 0.76619 0.48194
 H917 H 0.24097 0.79768 0.51261
 H918 H 0.29935 0.73768 0.51028
 H919 H 0.22052 0.71860 0.53150
 H920 H 0.23875 0.73967 0.45227
 H921 H 0.20070 0.76798 0.45739
 H922 H 0.20215 0.73139 0.45336
 H923 H 0.31097 0.76131 0.53562
 H924 H 0.28824 0.73693 0.55738
 H925 H 0.21567 0.80940 0.48988
 H926 H 0.19405 0.78618 0.51356
 H927 H 0.30879 0.71223 0.48567
 H928 H 0.28702 0.69130 0.51068
 H929 H 0.24091 0.78525 0.55875
 H930 H 0.26553 0.80744 0.53779
 H931 H 0.23933 0.69141 0.46510
 H932 H 0.26225 0.71411 0.44059
 O933 O 0.30758 0.25083 0.97224
 O934 O 0.29876 0.21249 0.97377
 O935 O 0.25059 0.27835 0.94181
 O936 O 0.21447 0.27909 0.94815
 O937 O 0.27827 0.30856 0.99924
 O938 O 0.27643 0.30028 1.03763
 O939 O 0.19147 0.22298 1.00222
 O940 O 0.19769 0.22692 0.96391
 O941 O 0.24668 0.19291 1.02822
 O942 O 0.28652 0.20018 1.02652
 O943 O 0.22114 0.24915 1.05771
 O944 O 0.22364 0.28897 1.04992
 O945 O 0.19198 0.24947 1.02857
 O946 O 0.20054 0.28951 1.02630
 O947 O 0.24695 0.22216 1.05761
 O948 O 0.28711 0.22378 1.04959
 O949 O 0.22005 0.19343 1.00208
 O950 O 0.22269 0.20075 0.96258
 O951 O 0.30826 0.27717 0.99881
 O952 O 0.30015 0.27515 1.03754
 O953 O 0.25194 0.30911 0.97275
 O954 O 0.21255 0.30136 0.97656
 O955 O 0.27682 0.25170 0.94170
 O956 O 0.27407 0.21297 0.94969
 Zr957 Zr 0.27548 0.23820 0.97349
 O958 O 0.25597 0.21739 0.99295
 Zr959 Zr 0.23774 0.27757 0.97384
 O960 O 0.21636 0.25826 0.99301
 Zr961 Zr 0.27647 0.27659 1.01228
 O962 O 0.25672 0.25759 1.03333
 Zr963 Zr 0.22272 0.22477 0.98781
 O964 O 0.24217 0.24401 0.96638
 Zr965 Zr 0.26137 0.22413 1.02630
 O966 O 0.28304 0.24307 1.00686
 Zr967 Zr 0.22346 0.26340 1.02638
 O968 O 0.24328 0.28456 1.00721
 O969 O 0.27081 0.27151 0.97907
 O970 O 0.22811 0.22992 1.02116
 C971 C 0.31718 0.26594 0.98337
 C972 C 0.26583 0.26715 0.93252
 C973 C 0.26739 0.31806 0.98392
 C974 C 0.18270 0.23381 1.01800
 C975 C 0.23075 0.18415 1.01764
 C976 C 0.23145 0.23313 1.06667
 H977 H 0.25940 0.20194 0.98939
 H978 H 0.26035 0.26110 1.04873
 H979 H 0.28032 0.28072 0.96967
 H980 H 0.20097 0.26185 0.98942
 H981 H 0.20429 0.23391 0.95082
 H982 H 0.20149 0.27059 0.95286
 H983 H 0.28509 0.23651 1.05947
 H984 H 0.30714 0.26051 1.03649
 H985 H 0.23580 0.19138 0.96439
 H986 H 0.25960 0.21424 0.94247
 H987 H 0.23677 0.28705 1.05923
 H988 H 0.26194 0.30756 1.03712
 H989 H 0.30582 0.21286 0.98839
 H990 H 0.28478 0.19099 1.01325
 H991 H 0.21519 0.30954 0.99034
 H992 H 0.19069 0.28743 1.01359
 C993 C 0.28935 0.37094 0.78533
 C994 C 0.27488 0.35406 0.79110
 C995 C 0.28297 0.33438 0.79974
 C996 C 0.30562 0.33141 0.80273
 C997 C 0.32005 0.34834 0.79658
 C998 C 0.31194 0.36797 0.78794
 C999 C 0.28111 0.39172 0.77769
 C1000 C 0.27468 0.40947 0.77178
 H1001 H 0.25735 0.35622 0.78922
 H1002 H 0.27159 0.32153 0.80433
 H1003 H 0.33753 0.34656 0.79899
 H1004 H 0.32328 0.38099 0.78367
 C1005 C 0.28845 -0.12745 0.28670
 C1006 C 0.31109 -0.13058 0.28859
 C1007 C 0.31933 -0.15016 0.29720
 C1008 C 0.30500 -0.16691 0.30402
 C1009 C 0.28227 -0.16379 0.30175
 C1010 C 0.27404 -0.14414 0.29316
 C1011 C 0.28021 -0.10662 0.27922
 C1012 C 0.27406 -0.08870 0.27353
 H1013 H 0.32239 -0.11770 0.28381
 H1014 H 0.33687 -0.15204 0.29904
 H1015 H 0.27095 -0.17649 0.30686
 H1016 H 0.25649 -0.14184 0.29186
 C1017 C 0.79079 0.87300 0.78545
 C1018 C 0.81334 0.86962 0.78795
 C1019 C 0.82114 0.84976 0.79634
 C1020 C 0.80646 0.83300 0.80236
 C1021 C 0.78384 0.83639 0.79947
 C1022 C 0.77606 0.85629 0.79108
 C1023 C 0.78288 0.89397 0.77803
 C1024 C 0.77671 0.91187 0.77225
 H1025 H 0.82488 0.88249 0.78377
 H1026 H 0.83860 0.84765 0.79868
 H1027 H 0.77226 0.82369 0.80396
 H1028 H 0.75857 0.85877 0.78927
 C1029 C 0.46184 0.87795 0.28636
 C1030 C 0.43931 0.88164 0.28857
 C1031 C 0.43167 0.90161 0.29686
 C1032 C 0.44650 0.91818 0.30306
 C1033 C 0.46910 0.91446 0.30051
 C1034 C 0.47673 0.89444 0.29222
 C1035 C 0.46956 0.85689 0.27892
 C1036 C 0.47555 0.83895 0.27309
 H1037 H 0.42766 0.86894 0.28421
 H1038 H 0.41421 0.90395 0.29894
 H1039 H 0.48079 0.92701 0.30516
 H1040 H 0.49421 0.89173 0.29064
 C1041 C -0.03856 0.87580 0.78743
 C1042 C -0.06117 0.87913 0.78938
 C1043 C -0.06921 0.89881 0.79796
 C1044 C -0.05471 0.91545 0.80471
 C1045 C -0.03202 0.91209 0.80245
 C1046 C -0.02399 0.89236 0.79387
 C1047 C -0.03043 0.85501 0.77970
 C1048 C -0.02411 0.83725 0.77367
 H1049 H -0.07258 0.86636 0.78458
 H1050 H -0.08674 0.90089 0.79978
 H1051 H -0.02058 0.92471 0.80750
 H1052 H -0.00646 0.88992 0.79251
 C1053 C -0.03856 -0.12740 -0.03644
 C1054 C -0.06113 -0.13098 -0.03842
 C1055 C -0.06894 -0.15081 -0.04691
 C1056 C -0.05425 -0.16733 -0.05353
 C1057 C -0.03160 -0.16372 -0.05120
 C1058 C -0.02381 -0.14386 -0.04271
 C1059 C -0.03065 -0.10647 -0.02885
 C1060 C -0.02444 -0.08863 -0.02295
 H1061 H -0.07269 -0.11830 -0.03375
 H1062 H -0.08643 -0.15306 -0.04881
 H1063 H -0.02001 -0.17624 -0.05616
 H1064 H -0.00630 -0.14123 -0.04131
 C1065 C -0.03933 0.37254 0.46479
 C1066 C -0.06192 0.36929 0.46252
 C1067 C -0.06993 0.34948 0.45420
 C1068 C -0.05542 0.33263 0.44802
 C1069 C -0.03275 0.33587 0.45070
 C1070 C -0.02475 0.35574 0.45902
 C1071 C -0.03127 0.39357 0.47192
 C1072 C -0.02520 0.41163 0.47730
 H1073 H -0.07334 0.38223 0.46679
 H1074 H -0.08743 0.34751 0.45203
 H1075 H -0.02130 0.32310 0.44608
 H1076 H -0.00723 0.35812 0.46061
 C1077 C 0.46183 -0.12841 0.46474
 C1078 C 0.43920 -0.13163 0.46278
 C1079 C 0.43107 -0.15113 0.45391
 C1080 C 0.44548 -0.16772 0.44686
 C1081 C 0.46819 -0.16451 0.44918
 C1082 C 0.47632 -0.14494 0.45805
 C1083 C 0.46998 -0.10764 0.47249
 C1084 C 0.47611 -0.08977 0.47839
 H1085 H 0.42785 -0.11887 0.46774
 H1086 H 0.41353 -0.15308 0.45203
 H1087 H 0.47957 -0.17709 0.44390
 H1088 H 0.49387 -0.14258 0.45939
 C1089 C 0.46080 0.37197 -0.03496
 C1090 C 0.43825 0.36817 -0.03678
 C1091 C 0.43057 0.34819 -0.04501
 C1092 C 0.44537 0.33173 -0.05154
 C1093 C 0.46800 0.33553 -0.04932
 C1094 C 0.47566 0.35556 -0.04110
 C1095 C 0.46852 0.39314 -0.02787
 C1096 C 0.47444 0.41124 -0.02249
 H1097 H 0.42661 0.38081 -0.03223
 H1098 H 0.41309 0.34579 -0.04683
 H1099 H 0.47967 0.32307 -0.05422
 H1100 H 0.49315 0.35837 -0.03985
 C1101 C 0.78780 0.37758 0.46293
 C1102 C 0.81039 0.38126 0.46138
 C1103 C 0.81829 0.40105 0.45290
 C1104 C 0.80367 0.41744 0.44584
 C1105 C 0.78100 0.41375 0.44774
 C1106 C 0.77311 0.39392 0.45622
 C1107 C 0.77984 0.35666 0.47047
 C1108 C 0.77363 0.33881 0.47633
 H1109 H 0.82191 0.36867 0.46638
 H1110 H 0.83581 0.40337 0.45134
 H1111 H 0.76945 0.42617 0.44245
 H1112 H 0.75559 0.39122 0.45728
 C1113 C 0.78923 0.87867 -0.03575
 C1114 C 0.81188 0.88174 -0.03761
 C1115 C 0.82018 0.90118 -0.04647
 C1116 C 0.80592 0.91785 -0.05361
 C1117 C 0.78318 0.91479 -0.05138
 C1118 C 0.77488 0.89528 -0.04252
 C1119 C 0.78089 0.85793 -0.02809
 C1120 C 0.77461 0.84007 -0.02234
 H1121 H 0.82313 0.86891 -0.03260
 H1122 H 0.83774 0.90301 -0.04827
 H1123 H 0.77190 0.92744 -0.05672
 H1124 H 0.75731 0.89303 -0.04128
 C1125 C 0.78534 0.28978 0.37274
 C1126 C 0.79125 0.27506 0.35611
 C1127 C 0.79950 0.28295 0.33621
 C1128 C 0.80197 0.30565 0.33274
 C1129 C 0.79567 0.32031 0.34942
 C1130 C 0.78741 0.31241 0.36929
 C1131 C 0.77801 0.28178 0.39371
 C1132 C 0.77228 0.27554 0.41158
 H1133 H 0.78976 0.25751 0.35864
 H1134 H 0.80421 0.27138 0.32357
 H1135 H 0.79768 0.33785 0.34726
 H1136 H 0.78301 0.32394 0.38209
 C1137 C 0.78590 0.78852 -0.12883
 C1138 C 0.79255 0.77392 -0.14529
 C1139 C 0.80153 0.78197 -0.16482
 C1140 C 0.80401 0.80471 -0.16805
 C1141 C 0.79700 0.81923 -0.15154
 C1142 C 0.78801 0.81117 -0.13207
 C1143 C 0.77813 0.78043 -0.10806
 C1144 C 0.77230 0.77432 -0.09019
 H1145 H 0.79110 0.75635 -0.14289
 H1146 H 0.80678 0.77051 -0.17734
 H1147 H 0.79899 0.83679 -0.15350
 H1148 H 0.78309 0.82261 -0.11936
 C1149 C 0.28593 0.46021 0.87586
 C1150 C 0.28830 0.43772 0.87996
 C1151 C 0.29638 0.43049 0.90015
 C1152 C 0.30220 0.44569 0.91652
 C1153 C 0.29950 0.46825 0.91239
 C1154 C 0.29142 0.47547 0.89216
 C1155 C 0.27866 0.46754 0.85463
 C1156 C 0.27296 0.47330 0.83660
 H1157 H 0.28423 0.42578 0.86742
 H1158 H 0.29858 0.41305 0.90282
 H1159 H 0.30384 0.48022 0.92478
 H1160 H 0.28971 0.49292 0.88913
 C1161 C 0.28458 -0.03717 0.37996
 C1162 C 0.28670 -0.05986 0.38298
 C1163 C 0.29518 -0.06813 0.40258
 C1164 C 0.30165 -0.05379 0.41947
 C1165 C 0.29907 -0.03103 0.41648
 C1166 C 0.29061 -0.02276 0.39681
 C1167 C 0.27738 -0.02886 0.35908
 C1168 C 0.27195 -0.02265 0.34111
 H1169 H 0.28224 -0.07115 0.36998
 H1170 H 0.29727 -0.08570 0.40435
 H1171 H 0.30391 -0.01970 0.42929
 H1172 H 0.28912 -0.00517 0.39461
 C1173 C -0.03605 -0.03995 -0.12594
 C1174 C -0.03811 -0.06262 -0.12915
 C1175 C -0.04660 -0.07074 -0.14882
 C1176 C -0.05315 -0.05627 -0.16556
 C1177 C -0.05076 -0.03353 -0.16232
 C1178 C -0.04227 -0.02542 -0.14261
 C1179 C -0.02843 -0.03174 -0.10516
 C1180 C -0.02249 -0.02539 -0.08740
 H1181 H -0.03348 -0.07401 -0.11630
 H1182 H -0.04854 -0.08831 -0.15080
 H1183 H -0.05565 -0.02210 -0.17502
 H1184 H -0.04081 -0.00784 -0.14026
 C1185 C -0.03885 0.46530 0.37035
 C1186 C -0.06146 0.46310 0.36722
 C1187 C -0.06959 0.45467 0.34754
 C1188 C -0.05518 0.44831 0.33069
 C1189 C -0.03249 0.45092 0.33380
 C1190 C -0.02437 0.45935 0.35355
 C1191 C -0.03068 0.47265 0.39124
 C1192 C -0.02460 0.47829 0.40918
 H1193 H -0.07280 0.46752 0.38018
 H1194 H -0.08711 0.45255 0.34567
 H1195 H -0.02112 0.44615 0.32102
 H1196 H -0.00683 0.46090 0.35583
 C1197 C 0.46589 -0.03732 0.37232
 C1198 C 0.45979 -0.02270 0.35569
 C1199 C 0.45130 -0.03071 0.33592
 C1200 C 0.44877 -0.05343 0.33262
 C1201 C 0.45529 -0.06799 0.34930
 C1202 C 0.46379 -0.05997 0.36900
 C1203 C 0.47313 -0.02927 0.39330
 C1204 C 0.47858 -0.02326 0.41133
 H1205 H 0.46124 -0.00513 0.35813
 H1206 H 0.44642 -0.01922 0.32328
 H1207 H 0.45324 -0.08553 0.34729
 H1208 H 0.46830 -0.07142 0.38183
 C1209 C 0.46116 0.46442 -0.12874
 C1210 C 0.43850 0.46253 -0.13177
 C1211 C 0.43018 0.45365 -0.15117
 C1212 C 0.44445 0.44654 -0.16785
 C1213 C 0.46719 0.44884 -0.16485
 C1214 C 0.47550 0.45771 -0.14538
 C1215 C 0.46950 0.47209 -0.10804
 C1216 C 0.47572 0.47792 -0.09020
 H1217 H 0.42726 0.46751 -0.11893
 H1218 H 0.41263 0.45179 -0.15296
 H1219 H 0.47845 0.44351 -0.17750
 H1220 H 0.49307 0.45900 -0.14316
 C1221 C 0.46384 0.78910 0.37649
 C1222 C 0.46205 0.81171 0.38025
 C1223 C 0.45364 0.81945 0.40012
 C1224 C 0.44691 0.80465 0.41651
 C1225 C 0.44905 0.78197 0.41272
 C1226 C 0.45745 0.77424 0.39281
 C1227 C 0.47131 0.78129 0.35550
 C1228 C 0.47707 0.77518 0.33759
 H1229 H 0.46680 0.82335 0.36768
 H1230 H 0.45190 0.83698 0.40252
 H1231 H 0.44400 0.77029 0.42513
 H1232 H 0.45870 0.75671 0.39004
 C1233 C -0.03512 0.78861 0.87689
 C1234 C -0.03743 0.81123 0.88021
 C1235 C -0.04595 0.81916 0.89995
 C1236 C -0.05227 0.80454 0.91665
 C1237 C -0.04960 0.78184 0.91332
 C1238 C -0.04108 0.77392 0.89353
 C1239 C -0.02758 0.78057 0.85602
 C1240 C -0.02175 0.77430 0.83819
 H1241 H -0.03300 0.82273 0.86739
 H1242 H -0.04811 0.83669 0.90201
 H1243 H -0.05433 0.77030 0.92598
 H1244 H -0.03944 0.75637 0.89110
 C1245 C 0.37334 0.78707 0.28965
 C1246 C 0.35657 0.79289 0.27509
 C1247 C 0.33672 0.80110 0.28313
 C1248 C 0.33345 0.80361 0.30582
 C1249 C 0.35026 0.79742 0.32033
 C1250 C 0.37007 0.78920 0.31227
 C1251 C 0.39423 0.77975 0.28148
 C1252 C 0.41203 0.77403 0.27511
 H1253 H 0.35895 0.79136 0.25754
 H1254 H 0.32397 0.80573 0.27168
 H1255 H 0.34825 0.79945 0.33785
 H1256 H 0.38298 0.78487 0.32368
 C1257 C -0.12562 0.78588 0.78912
 C1258 C -0.14183 0.79235 0.77420
 C1259 C -0.16171 0.80088 0.78184
 C1260 C -0.16557 0.80306 0.80447
 C1261 C -0.14929 0.79625 0.81932
 C1262 C -0.12945 0.78772 0.81168
 C1263 C -0.10465 0.77830 0.78138
 C1264 C -0.08679 0.77245 0.77527
 H1265 H -0.13900 0.79107 0.75671
 H1266 H -0.17403 0.80598 0.77012
 H1267 H -0.15175 0.79803 0.83682
 H1268 H -0.11696 0.78291 0.82336
 C1269 C 0.87589 0.28679 0.46142
 C1270 C 0.89230 0.29280 0.47631
 C1271 C 0.91234 0.30090 0.46865
 C1272 C 0.91618 0.30310 0.44601
 C1273 C 0.89971 0.29673 0.43119
 C1274 C 0.87970 0.28863 0.43886
 C1275 C 0.85481 0.27954 0.46916
 C1276 C 0.83686 0.27386 0.47517
 H1277 H 0.88949 0.29150 0.49381
 H1278 H 0.92482 0.30568 0.48035
 H1279 H 0.90214 0.29854 0.41369
 H1280 H 0.86708 0.28414 0.42719
 C1281 C 0.87853 0.78492 -0.03905
 C1282 C 0.88189 0.78684 -0.06168
 C1283 C 0.90148 0.79555 -0.06970
 C1284 C 0.91800 0.80248 -0.05518
 C1285 C 0.91465 0.80016 -0.03247
 C1286 C 0.89500 0.79145 -0.02445
 C1287 C 0.85766 0.77743 -0.03098
 C1288 C 0.83974 0.77180 -0.02486
 H1289 H 0.86918 0.78200 -0.07311
 H1290 H 0.90354 0.79742 -0.08725
 H1291 H 0.92717 0.80534 -0.02100
 H1292 H 0.89251 0.79015 -0.00690
 C1293 C -0.12573 -0.03611 -0.03941
 C1294 C -0.12887 -0.03850 -0.06203
 C1295 C -0.14866 -0.04675 -0.07010
 C1296 C -0.16558 -0.05273 -0.05561
 C1297 C -0.16243 -0.04995 -0.03293
 C1298 C -0.14260 -0.04171 -0.02488
 C1299 C -0.10485 -0.02882 -0.03122
 C1300 C -0.08702 -0.02316 -0.02484
 H1301 H -0.11588 -0.03434 -0.07342
 H1302 H -0.15057 -0.04899 -0.08761
 H1303 H -0.17526 -0.05442 -0.02150
 H1304 H -0.14032 -0.03999 -0.00733
 C1305 C -0.12953 0.46569 0.46097
 C1306 C -0.14619 0.45918 0.47538
 C1307 C -0.16565 0.45026 0.46714
 C1308 C -0.16863 0.44771 0.44440
 C1309 C -0.15192 0.45458 0.43007
 C1310 C -0.13252 0.46351 0.43831
 C1311 C -0.10885 0.47345 0.46924
 C1312 C -0.09103 0.47931 0.47541
 H1313 H -0.14399 0.46069 0.49295
 H1314 H -0.17833 0.44513 0.47846
 H1315 H -0.15369 0.45253 0.41252
 H1316 H -0.11966 0.46832 0.42702
 C1317 C 0.37136 -0.03515 0.46338
 C1318 C 0.35501 -0.04188 0.47804
 C1319 C 0.33524 -0.05035 0.47008
 C1320 C 0.33164 -0.05223 0.44737
 C1321 C 0.34803 -0.04511 0.43279
 C1322 C 0.36775 -0.03662 0.44076
 C1323 C 0.39232 -0.02785 0.47136
 C1324 C 0.41030 -0.02231 0.47738
 H1325 H 0.35768 -0.04090 0.49558
 H1326 H 0.32282 -0.05571 0.48158
 H1327 H 0.34579 -0.04665 0.41524
 H1328 H 0.38035 -0.03163 0.42928
 C1329 C 0.37046 0.46647 -0.03819
 C1330 C 0.35363 0.46047 -0.02377
 C1331 C 0.33409 0.45169 -0.03197
 C1332 C 0.33121 0.44875 -0.05467
 C1333 C 0.34807 0.45519 -0.06903
 C1334 C 0.36755 0.46399 -0.06083
 C1335 C 0.39125 0.47395 -0.02992
 C1336 C 0.40916 0.47955 -0.02375
 H1337 H 0.35576 0.46222 -0.00621
 H1338 H 0.32130 0.44687 -0.02063
 H1339 H 0.34639 0.45284 -0.08655
 H1340 H 0.38054 0.46841 -0.07212
 C1341 C 0.37599 0.45997 0.78598
 C1342 C 0.37930 0.43737 0.78850
 C1343 C 0.39911 0.42950 0.79686
 C1344 C 0.41589 0.44417 0.80283
 C1345 C 0.41256 0.46684 0.79996
 C1346 C 0.39270 0.47470 0.79159
 C1347 C 0.35510 0.46793 0.77845
 C1348 C 0.33727 0.47405 0.77255
 H1349 H 0.36643 0.42583 0.78433
 H1350 H 0.40117 0.41199 0.79918
 H1351 H 0.42528 0.47841 0.80440
 H1352 H 0.39029 0.49223 0.78976
 C1353 C 0.37905 -0.03446 0.28883
 C1354 C 0.38264 -0.03618 0.31143
 C1355 C 0.40238 -0.04469 0.31933
 C1356 C 0.41881 -0.05160 0.30469
 C1357 C 0.41522 -0.04948 0.28200
 C1358 C 0.39543 -0.04097 0.27411
 C1359 C 0.35808 -0.02709 0.28092
 C1360 C 0.34010 -0.02148 0.27495
 H1361 H 0.37001 -0.03135 0.32296
 H1362 H 0.40460 -0.04643 0.33686
 H1363 H 0.42767 -0.05466 0.27044
 H1364 H 0.39278 -0.03980 0.25658
 C1365 C 0.12068 0.53270 0.71138
 C1366 C 0.10393 0.53873 0.72587
 C1367 C 0.08437 0.54756 0.71776
 C1368 C 0.08141 0.55050 0.69507
 C1369 C 0.09820 0.54404 0.68064
 C1370 C 0.11769 0.53520 0.68876
 C1371 C 0.14147 0.52513 0.71955
 C1372 C 0.15937 0.51941 0.72564
 H1373 H 0.10612 0.53697 0.74342
 H1374 H 0.07163 0.55239 0.72915
 H1375 H 0.09645 0.54640 0.66312
 H1376 H 0.13062 0.53075 0.67741
 C1377 C 0.12409 0.03956 0.21368
 C1378 C 0.12059 0.06218 0.21153
 C1379 C 0.10069 0.07002 0.20336
 C1380 C 0.08400 0.05532 0.19724
 C1381 C 0.08753 0.03263 0.19972
 C1382 C 0.10748 0.02480 0.20789
 C1383 C 0.14504 0.03164 0.22110
 C1384 C 0.16288 0.02550 0.22697
 H1385 H 0.13338 0.07375 0.21585
 H1386 H 0.09848 0.08755 0.20135
 H1387 H 0.07488 0.02103 0.19515
 H1388 H 0.11003 0.00726 0.20944
 C1389 C 0.62803 0.71571 0.21101
 C1390 C 0.63133 0.71339 0.18841
 C1391 C 0.65107 0.70492 0.18046
 C1392 C 0.66780 0.69866 0.19503
 C1393 C 0.66451 0.70138 0.21771
 C1394 C 0.64471 0.70983 0.22565
 C1395 C 0.60709 0.72304 0.21902
 C1396 C 0.58912 0.72861 0.22508
 H1397 H 0.61848 0.71773 0.17694
 H1398 H 0.65307 0.70273 0.16295
 H1399 H 0.67719 0.69670 0.22921
 H1400 H 0.64229 0.71147 0.24318
 C1401 C 0.12985 0.71448 0.71276
 C1402 C 0.13359 0.71280 0.69017
 C1403 C 0.15340 0.70439 0.68237
 C1404 C 0.16978 0.69753 0.69709
 C1405 C 0.16606 0.69962 0.71976
 C1406 C 0.14618 0.70803 0.72755
 C1407 C 0.10879 0.72170 0.72058
 C1408 C 0.09075 0.72718 0.72650
 H1409 H 0.12100 0.71758 0.67858
 H1410 H 0.15573 0.70267 0.66485
 H1411 H 0.17846 0.69447 0.73137
 H1412 H 0.14342 0.70916 0.74507
 C1413 C 0.62054 0.21335 0.53565
 C1414 C 0.60370 0.22763 0.54194
 C1415 C 0.58414 0.21921 0.55049
 C1416 C 0.58127 0.19641 0.55288
 C1417 C 0.59816 0.18221 0.54617
 C1418 C 0.61764 0.19063 0.53762
 C1419 C 0.64129 0.22178 0.52823
 C1420 C 0.65916 0.22799 0.52254
 H1421 H 0.60581 0.24525 0.54057
 H1422 H 0.57133 0.23044 0.55553
 H1423 H 0.59648 0.16461 0.54812
 H1424 H 0.63064 0.17943 0.53294
 C1425 C 0.62327 0.71427 0.03838
 C1426 C 0.60696 0.70768 0.02362
 C1427 C 0.58711 0.69926 0.03145
 C1428 C 0.58338 0.69730 0.05413
 C1429 C 0.59976 0.70421 0.06881
 C1430 C 0.61956 0.71264 0.06097
 C1431 C 0.64419 0.72180 0.03047
 C1432 C 0.66203 0.72765 0.02429
 H1433 H 0.60969 0.70880 0.00609
 H1434 H 0.57470 0.69408 0.01985
 H1435 H 0.59740 0.70261 0.08634
 H1436 H 0.63213 0.71754 0.07254
 C1437 C 0.12894 0.03455 0.03937
 C1438 C 0.14549 0.04136 0.02499
 C1439 C 0.16487 0.05042 0.03327
 C1440 C 0.16787 0.05282 0.05602
 C1441 C 0.15128 0.04560 0.07033
 C1442 C 0.13196 0.03653 0.06204
 C1443 C 0.10829 0.02677 0.03104
 C1444 C 0.09048 0.02095 0.02475
 H1445 H 0.14327 0.04002 0.00741
 H1446 H 0.17746 0.05583 0.02196
 H1447 H 0.15306 0.04752 0.08789
 H1448 H 0.11917 0.03149 0.07331
 C1449 C 0.12611 0.53826 0.53497
 C1450 C 0.12993 0.56082 0.53713
 C1451 C 0.14995 0.56837 0.54529
 C1452 C 0.16643 0.55343 0.55140
 C1453 C 0.16259 0.53080 0.54889
 C1454 C 0.14253 0.52326 0.54073
 C1455 C 0.10501 0.53062 0.52769
 C1456 C 0.08704 0.52472 0.52199
 H1457 H 0.11730 0.57257 0.53286
 H1458 H 0.15240 0.58587 0.54735
 H1459 H 0.17507 0.51902 0.55346
 H1460 H 0.13972 0.50575 0.53918
 C1461 C 0.62690 0.03617 0.53938
 C1462 C 0.63098 0.03812 0.56189
 C1463 C 0.65109 0.04624 0.56926
 C1464 C 0.66739 0.05252 0.55420
 C1465 C 0.66328 0.05020 0.53162
 C1466 C 0.64314 0.04208 0.52426
 C1467 C 0.60572 0.02894 0.53191
 C1468 C 0.58773 0.02329 0.52599
 H1469 H 0.61849 0.03371 0.57373
 H1470 H 0.65374 0.04814 0.58672
 H1471 H 0.67561 0.05491 0.51975
 H1472 H 0.64012 0.04069 0.50680
 C1473 C 0.62604 0.53706 0.03741
 C1474 C 0.62950 0.53888 0.06003
 C1475 C 0.64924 0.54729 0.06800
 C1476 C 0.66581 0.55400 0.05342
 C1477 C 0.66233 0.55185 0.03072
 C1478 C 0.64253 0.54344 0.02276
 C1479 C 0.60518 0.52954 0.02938
 C1480 C 0.58735 0.52371 0.02318
 H1481 H 0.61678 0.53413 0.07150
 H1482 H 0.65141 0.54905 0.08554
 H1483 H 0.67488 0.55688 0.01922
 H1484 H 0.63999 0.54217 0.00522
 C1485 C 0.03849 0.03565 0.12881
 C1486 C 0.06115 0.03776 0.13171
 C1487 C 0.06950 0.04646 0.15118
 C1488 C 0.05528 0.05318 0.16805
 C1489 C 0.03255 0.05069 0.16517
 C1490 C 0.02420 0.04200 0.14563
 C1491 C 0.03011 0.02804 0.10811
 C1492 C 0.02389 0.02220 0.09027
 H1493 H 0.07235 0.03306 0.11873
 H1494 H 0.08705 0.04847 0.15288
 H1495 H 0.02131 0.05572 0.17797
 H1496 H 0.00663 0.04053 0.14352
 C1497 C 0.03598 0.53876 0.62582
 C1498 C 0.03834 0.56127 0.62983
 C1499 C 0.04642 0.56860 0.64998
 C1500 C 0.05226 0.55347 0.66641
 C1501 C 0.04955 0.53090 0.66238
 C1502 C 0.04146 0.52358 0.64218
 C1503 C 0.02871 0.53133 0.60463
 C1504 C 0.02298 0.52550 0.58662
 H1505 H 0.03426 0.57315 0.61724
 H1506 H 0.04863 0.58605 0.65257
 H1507 H 0.05391 0.51898 0.67481
 H1508 H 0.03975 0.50612 0.63924
 C1509 C 0.53613 0.03779 0.62844
 C1510 C 0.54239 0.02291 0.64479
 C1511 C 0.55086 0.03061 0.66468
 C1512 C 0.55319 0.05328 0.66841
 C1513 C 0.54657 0.06810 0.65201
 C1514 C 0.53810 0.06039 0.63216
 C1515 C 0.52863 0.03001 0.60746
 C1516 C 0.52282 0.02395 0.58955
 H1517 H 0.54101 0.00539 0.64205
 H1518 H 0.55583 0.01892 0.67710
 H1519 H 0.54847 0.08562 0.65436
 H1520 H 0.53345 0.07205 0.61957
 C1521 C 0.53762 0.53697 0.12633
 C1522 C 0.56018 0.53889 0.12998
 C1523 C 0.56795 0.54685 0.15002
 C1524 C 0.55323 0.55300 0.16668
 C1525 C 0.53059 0.55072 0.16300
 C1526 C 0.52283 0.54276 0.14292
 C1527 C 0.52977 0.52984 0.10524
 C1528 C 0.52367 0.52423 0.08729
 H1529 H 0.57176 0.53457 0.11721
 H1530 H 0.58544 0.54873 0.15233
 H1531 H 0.51898 0.55534 0.17562
 H1532 H 0.50534 0.54139 0.14024
 C1533 C 0.21116 0.53356 0.62030
 C1534 C 0.22567 0.53956 0.60354
 C1535 C 0.21759 0.54819 0.58386
 C1536 C 0.19492 0.55095 0.58077
 C1537 C 0.18047 0.54454 0.59758
 C1538 C 0.18855 0.53591 0.61719
 C1539 C 0.21930 0.52606 0.64114
 C1540 C 0.22541 0.52033 0.65905
 H1541 H 0.24320 0.53790 0.60581
 H1542 H 0.22900 0.55298 0.57112
 H1543 H 0.16297 0.54677 0.59572
 H1544 H 0.17719 0.53147 0.63011
 C1545 C 0.21417 0.03990 0.12453
 C1546 C 0.20868 0.02510 0.10783
 C1547 C 0.20023 0.03284 0.08795
 C1548 C 0.19716 0.05547 0.08458
 C1549 C 0.20301 0.07023 0.10134
 C1550 C 0.21145 0.06248 0.12118
 C1551 C 0.22169 0.03202 0.14546
 C1552 C 0.22752 0.02585 0.16332
 H1553 H 0.21065 0.00758 0.11029
 H1554 H 0.19588 0.02120 0.07525
 H1555 H 0.20054 0.08771 0.09925
 H1556 H 0.21551 0.07407 0.13404
 C1557 C 0.71280 0.21528 0.62864
 C1558 C 0.72778 0.20931 0.64498
 C1559 C 0.72025 0.20113 0.66507
 C1560 C 0.69766 0.19879 0.66899
 C1561 C 0.68275 0.20515 0.65259
 C1562 C 0.69029 0.21334 0.63256
 C1563 C 0.72036 0.22241 0.60743
 C1564 C 0.72603 0.22789 0.58930
 H1565 H 0.74525 0.21067 0.64208
 H1566 H 0.73201 0.19635 0.67748
 H1567 H 0.66529 0.20323 0.65507
 H1568 H 0.67856 0.21777 0.61998
 C1569 C 0.71379 0.71206 0.12647
 C1570 C 0.70782 0.72694 0.14293
 C1571 C 0.69967 0.71926 0.16296
 C1572 C 0.69737 0.69659 0.16672
 C1573 C 0.70370 0.68176 0.15020
 C1574 C 0.71186 0.68946 0.13022
 C1575 C 0.72106 0.71984 0.10540
 C1576 C 0.72674 0.72592 0.08746
 H1577 H 0.70919 0.74447 0.14018
 H1578 H 0.69492 0.73095 0.17547
 H1579 H 0.70182 0.66424 0.15258
 H1580 H 0.71631 0.67780 0.11755
 C1581 C 0.53532 0.71290 0.12093
 C1582 C 0.54195 0.72726 0.10426
 C1583 C 0.55077 0.71892 0.08477
 C1584 C 0.55310 0.69613 0.08178
 C1585 C 0.54610 0.68185 0.09850
 C1586 C 0.53727 0.69019 0.11793
 C1587 C 0.52767 0.72126 0.14163
 C1588 C 0.52187 0.72752 0.15948
 H1589 H 0.54062 0.74486 0.10646
 H1590 H 0.55601 0.73020 0.07208
 H1591 H 0.54797 0.66426 0.09673
 H1592 H 0.53236 0.67894 0.13079
 C1593 C 0.03517 0.71240 0.62112
 C1594 C 0.04140 0.72712 0.60461
 C1595 C 0.04979 0.71920 0.58476
 C1596 C 0.05209 0.69649 0.58126
 C1597 C 0.04545 0.68185 0.59782
 C1598 C 0.03705 0.68977 0.61761
 C1599 C 0.02801 0.72033 0.64217
 C1600 C 0.02260 0.72626 0.66024
 H1601 H 0.04011 0.74467 0.60721
 H1602 H 0.05477 0.73075 0.57221
 H1603 H 0.04733 0.66430 0.59566
 H1604 H 0.03244 0.67824 0.63034
 C1605 C 0.53461 0.62204 0.21189
 C1606 C 0.54050 0.60515 0.22631
 C1607 C 0.54877 0.58536 0.21808
 C1608 C 0.55129 0.58230 0.19534
 C1609 C 0.54499 0.59925 0.18100
 C1610 C 0.53670 0.61897 0.18924
 C1611 C 0.52746 0.64299 0.22015
 C1612 C 0.52200 0.66100 0.22626
 H1613 H 0.53902 0.60739 0.24388
 H1614 H 0.55350 0.57251 0.22940
 H1615 H 0.54704 0.59742 0.16345
 H1616 H 0.53234 0.63200 0.17794
 C1617 C 0.03823 0.62054 0.71464
 C1618 C 0.02342 0.60442 0.70766
 C1619 C 0.03117 0.58464 0.69891
 C1620 C 0.05382 0.58081 0.69701
 C1621 C 0.06855 0.59698 0.70437
 C1622 C 0.06079 0.61670 0.71312
 C1623 C 0.03048 0.64154 0.72219
 C1624 C 0.02460 0.65956 0.72789
 H1625 H 0.00592 0.60728 0.70865
 H1626 H 0.01955 0.57240 0.69337
 H1627 H 0.08606 0.59456 0.70281
 H1628 H 0.07239 0.62913 0.71830
 C1629 C 0.03874 0.12766 0.03636
 C1630 C 0.06135 0.13107 0.03821
 C1631 C 0.06936 0.15071 0.04690
 C1632 C 0.05484 0.16724 0.05387
 C1633 C 0.03215 0.16383 0.05165
 C1634 C 0.02415 0.14413 0.04296
 C1635 C 0.03072 0.10676 0.02881
 C1636 C 0.02468 0.08881 0.02309
 H1637 H 0.07279 0.11836 0.03332
 H1638 H 0.08688 0.15281 0.04870
 H1639 H 0.02068 0.17636 0.05686
 H1640 H 0.00661 0.14161 0.04170
 C1641 C 0.03805 0.62839 0.53475
 C1642 C 0.06064 0.63176 0.53690
 C1643 C 0.06858 0.65162 0.54520
 C1644 C 0.05400 0.66838 0.55145
 C1645 C 0.03134 0.66500 0.54890
 C1646 C 0.02342 0.64510 0.54061
 C1647 C 0.03001 0.60742 0.52744
 C1648 C 0.02376 0.58953 0.52175
 H1649 H 0.07211 0.61889 0.53255
 H1650 H 0.08607 0.65370 0.54728
 H1651 H 0.01984 0.67770 0.55360
 H1652 H 0.00590 0.64264 0.53907
 C1653 C 0.53629 0.12710 0.53942
 C1654 C 0.54172 0.14385 0.52465
 C1655 C 0.54965 0.16396 0.53244
 C1656 C 0.55225 0.16751 0.55508
 C1657 C 0.54648 0.15068 0.56980
 C1658 C 0.53855 0.13062 0.56200
 C1659 C 0.52917 0.10600 0.53154
 C1660 C 0.52353 0.08803 0.52544
 H1661 H 0.54009 0.14128 0.50715
 H1662 H 0.55398 0.17670 0.52084
 H1663 H 0.54861 0.15289 0.58729
 H1664 H 0.53451 0.11773 0.57357
 C1665 C 0.53925 0.62746 0.03588
 C1666 C 0.56183 0.63074 0.03823
 C1667 C 0.56978 0.65061 0.04647
 C1668 C 0.55522 0.66748 0.05247
 C1669 C 0.53258 0.66418 0.04975
 C1670 C 0.52464 0.64427 0.04152
 C1671 C 0.53117 0.60651 0.02852
 C1672 C 0.52485 0.58866 0.02276
 H1673 H 0.57328 0.61779 0.03404
 H1674 H 0.58727 0.65264 0.04867
 H1675 H 0.52109 0.67697 0.05423
 H1676 H 0.50712 0.64188 0.03982
 C1677 C 0.71165 0.12183 0.53441
 C1678 C 0.72629 0.10504 0.54005
 C1679 C 0.71838 0.08523 0.54859
 C1680 C 0.69576 0.08204 0.55163
 C1681 C 0.68118 0.09887 0.54557
 C1682 C 0.68909 0.11862 0.53703
 C1683 C 0.71964 0.14281 0.52706
 C1684 C 0.72562 0.16084 0.52151
 H1685 H 0.74379 0.10739 0.53818
 H1686 H 0.72988 0.07247 0.55310
 H1687 H 0.66371 0.09694 0.54802
 H1688 H 0.67763 0.13156 0.53287
 C1689 C 0.71020 0.62371 0.03535
 C1690 C 0.68760 0.62043 0.03740
 C1691 C 0.67954 0.60059 0.04561
 C1692 C 0.69402 0.58376 0.05188
 C1693 C 0.71671 0.58705 0.04944
 C1694 C 0.72475 0.60693 0.04124
 C1695 C 0.71836 0.64465 0.02806
 C1696 C 0.72470 0.66251 0.02238
 H1697 H 0.67620 0.63335 0.03301
 H1698 H 0.66202 0.59856 0.04760
 H1699 H 0.72814 0.57429 0.05414
 H1700 H 0.74228 0.60933 0.03977
 C1701 C 0.21267 0.62681 0.71496
 C1702 C 0.22762 0.64330 0.70924
 C1703 C 0.22005 0.66345 0.70122
 C1704 C 0.19746 0.66729 0.69877
 C1705 C 0.18258 0.65075 0.70491
 C1706 C 0.19015 0.63066 0.71294
 C1707 C 0.22028 0.60552 0.72181
 C1708 C 0.22602 0.58731 0.72700
 H1709 H 0.24509 0.64046 0.71065
 H1710 H 0.23178 0.67597 0.69661
 H1711 H 0.16512 0.65318 0.70290
 H1712 H 0.17845 0.61796 0.71717
 C1713 C 0.21259 0.12736 0.21201
 C1714 C 0.21078 0.13023 0.18930
 C1715 C 0.20214 0.14969 0.18081
 C1716 C 0.19520 0.16657 0.19495
 C1717 C 0.19736 0.16369 0.21774
 C1718 C 0.20600 0.14418 0.22622
 C1719 C 0.22036 0.10677 0.22057
 C1720 C 0.22645 0.08911 0.22711
 H1721 H 0.21570 0.11726 0.17817
 H1722 H 0.20039 0.15139 0.16322
 H1723 H 0.19216 0.17650 0.22891
 H1724 H 0.20726 0.14210 0.24382
 C1725 C 0.71672 1.12905 0.71298
 C1726 C 0.71451 1.13251 0.69039
 C1727 C 0.70618 1.15236 0.68253
 C1728 C 0.69993 1.16906 0.69719
 C1729 C 0.70256 1.16563 0.71986
 C1730 C 0.71089 1.14571 0.72770
 C1731 C 0.72389 1.10797 0.72085
 C1732 C 0.72939 1.08988 0.72669
 H1733 H 0.71882 1.11967 0.67885
 H1734 H 0.70403 1.15447 0.66503
 H1735 H 0.69788 1.17828 0.73142
 H1736 H 0.71245 1.14317 0.74523
 C1737 C 0.71230 0.62935 0.21438
 C1738 C 0.72683 0.64585 0.20770
 C1739 C 0.71875 0.66555 0.19909
 C1740 C 0.69604 0.66894 0.19703
 C1741 C 0.68159 0.65239 0.20411
 C1742 C 0.68968 0.63275 0.21273
 C1743 C 0.72040 0.60842 0.22177
 C1744 C 0.72642 0.59041 0.22735
 H1745 H 0.74438 0.64334 0.20880
 H1746 H 0.73016 0.67808 0.19377
 H1747 H 0.66404 0.65446 0.20243
 H1748 H 0.67829 0.62003 0.21768
 C1749 C 0.53907 0.12058 0.71625
 C1750 C 0.52442 0.10407 0.70988
 C1751 C 0.53235 0.08435 0.70115
 C1752 C 0.55502 0.08098 0.69865
 C1753 C 0.56959 0.09755 0.70541
 C1754 C 0.56166 0.11720 0.71415
 C1755 C 0.53109 0.14150 0.72381
 C1756 C 0.52508 0.15946 0.72955
 H1757 H 0.50690 0.10656 0.71134
 H1758 H 0.52085 0.07180 0.69609
 H1759 H 0.58710 0.09548 0.70339
 H1760 H 0.57313 0.12994 0.71886
 C1761 C 1.03667 0.12292 0.21210
 C1762 C 1.04342 0.10650 0.22670
 C1763 C 1.05201 0.08677 0.21867
 C1764 C 1.05398 0.08327 0.19596
 C1765 C 1.04693 0.09976 0.18143
 C1766 C 1.03833 0.11944 0.18947
 C1767 C 1.02892 0.14372 0.22019
 C1768 C 1.02288 0.16151 0.22643
 H1769 H 1.04228 0.10906 0.24425
 H1770 H 1.05731 0.07427 0.23014
 H1771 H 1.04853 0.09758 0.16388
 H1772 H 1.03331 0.13210 0.17803
 C1773 C 0.21424 0.62071 0.53703
 C1774 C 0.20747 0.60440 0.52231
 C1775 C 0.19880 0.58465 0.53020
 C1776 C 0.19677 0.58102 0.55290
 C1777 C 0.20391 0.59738 0.56753
 C1778 C 0.21259 0.61707 0.55963
 C1779 C 0.22184 0.64164 0.52914
 C1780 C 0.22766 0.65961 0.52325
 H1781 H 0.20858 0.60709 0.50478
 H1782 H 0.19343 0.57225 0.51865
 H1783 H 0.20226 0.59512 0.58507
 H1784 H 0.21763 0.62965 0.57117
 C1785 C 0.21031 0.12363 1.03762
 C1786 C 0.18778 0.11968 1.03936
 C1787 C 0.18020 0.09976 1.04783
 C1788 C 0.19509 0.08351 1.05469
 C1789 C 0.21769 0.08750 1.05262
 C1790 C 0.22526 0.10745 1.04415
 C1791 C 0.21797 0.14465 1.03002
 C1792 C 0.22402 0.16254 1.02410
 H1793 H 0.17607 0.13214 1.03449
 H1794 H 0.16272 0.09720 1.04952
 H1795 H 0.22943 0.07520 1.05777
 H1796 H 0.24273 0.11037 1.04294
 C1797 C 0.21693 0.71164 0.62947
 C1798 C 0.21094 0.72631 0.64611
 C1799 C 0.20244 0.71836 0.66590
 C1800 C 0.19981 0.69565 0.66922
 C1801 C 0.20621 0.68105 0.65253
 C1802 C 0.21471 0.68901 0.63280
 C1803 C 0.22418 0.71964 0.60848
 C1804 C 0.22964 0.72566 0.59045
 H1805 H 0.21248 0.74386 0.64366
 H1806 H 0.19764 0.72988 0.67855
 H1807 H 0.20407 0.66351 0.65454
 H1808 H 0.21913 0.67752 0.61996
 C1809 C 0.20998 0.21292 1.12667
 C1810 C 0.22442 0.20690 1.14347
 C1811 C 0.21626 0.19846 1.16319
 C1812 C 0.19356 0.19592 1.16629
 C1813 C 0.17919 0.20225 1.14941
 C1814 C 0.18736 0.21069 1.12974
 C1815 C 0.21824 0.22056 1.10592
 C1816 C 0.22461 0.22655 1.08819
 H1817 H 0.24197 0.20849 1.14123
 H1818 H 0.22761 0.19373 1.17599
 H1819 H 0.16166 0.20020 1.15129
 H1820 H 0.17604 0.21516 1.11679
 C1821 C 0.71288 0.53881 0.12091
 C1822 C 0.70651 0.52434 0.10423
 C1823 C 0.69801 0.53255 0.08456
 C1824 C 0.69575 0.55531 0.08139
 C1825 C 0.70248 0.56971 0.09813
 C1826 C 0.71099 0.56150 0.11774
 C1827 C 0.72030 0.53057 0.14173
 C1828 C 0.72599 0.52438 0.15962
 H1829 H 0.70782 0.50675 0.10656
 H1830 H 0.69296 0.52118 0.07187
 H1831 H 0.70064 0.58729 0.09621
 H1832 H 0.71572 0.57283 0.13060
 C1833 C 0.71606 1.03762 0.62063
 C1834 C 0.70909 1.02303 0.60430
 C1835 C 0.70017 1.03109 0.58475
 C1836 C 0.69808 1.05384 0.58136
 C1837 C 0.70543 1.06836 0.59773
 C1838 C 0.71436 1.06028 0.61722
 C1839 C 0.72377 1.02953 0.64142
 C1840 C 0.72959 1.02344 0.65930
 H1841 H 0.71022 1.00545 0.60682
 H1842 H 0.69465 1.01963 0.57235
 H1843 H 0.70373 1.08594 0.59565
 H1844 H 0.71952 1.07172 0.62982
 C1845 C 0.53783 0.21413 0.62316
 C1846 C 0.56040 0.21279 0.61933
 C1847 C 0.56824 0.20452 0.59946
 C1848 C 0.55358 0.19748 0.58310
 C1849 C 0.53091 0.19919 0.58693
 C1850 C 0.52308 0.20745 0.60687
 C1851 C 0.53002 0.22131 0.64424
 C1852 C 0.52420 0.22681 0.66233
 H1853 H 0.57196 0.21776 0.63188
 H1854 H 0.58576 0.20310 0.59704
 H1855 H 0.51934 0.19389 0.57455
 H1856 H 0.50557 0.20832 0.60970
 C1857 C 1.03632 0.21092 0.12387
 C1858 C 1.04254 0.22568 0.10739
 C1859 C 1.05097 0.21783 0.08754
 C1860 C 1.05330 0.19514 0.08397
 C1861 C 1.04675 0.18044 0.10052
 C1862 C 1.03832 0.18830 0.12033
 C1863 C 1.02875 0.21887 0.14477
 C1864 C 1.02284 0.22507 0.16260
 H1865 H 1.04112 0.24323 0.10999
 H1866 H 1.05587 0.22943 0.07500
 H1867 H 1.04865 0.16290 0.09829
 H1868 H 1.03370 0.17674 0.13303
 C1869 C 0.63029 0.21285 0.71648
 C1870 C 0.63388 0.19023 0.71459
 C1871 C 0.65362 0.18238 0.70605
 C1872 C 0.67006 0.19708 0.69928
 C1873 C 0.66648 0.21979 0.70156
 C1874 C 0.64668 0.22763 0.71010
 C1875 C 0.60931 0.22069 0.72387
 C1876 C 0.59130 0.22654 0.72952
 H1877 H 0.62125 0.17865 0.71932
 H1878 H 0.65585 0.16484 0.70418
 H1879 H 0.67893 0.23138 0.69646
 H1880 H 0.64402 0.24517 0.71139
 C1881 C 1.12541 0.21066 0.21268
 C1882 C 1.12884 0.18800 0.21095
 C1883 C 1.14858 0.17995 0.20259
 C1884 C 1.16518 0.19449 0.19586
 C1885 C 1.16172 0.21724 0.19790
 C1886 C 1.14193 0.22527 0.20626
 C1887 C 1.10460 0.21877 0.22027
 C1888 C 1.08684 0.22504 0.22623
 H1889 H 1.11612 0.17655 0.21575
 H1890 H 1.15074 0.16238 0.20092
 H1891 H 1.17430 0.22871 0.19286
 H1892 H 1.13941 0.24284 0.20747
 C1893 C 0.12216 0.71499 0.53785
 C1894 C 0.11844 0.71312 0.56043
 C1895 C 0.09858 0.70477 0.56817
 C1896 C 0.08213 0.69818 0.55341
 C1897 C 0.08585 0.70044 0.53075
 C1898 C 0.10578 0.70878 0.52302
 C1899 C 0.14324 0.72218 0.53009
 C1900 C 0.16131 0.72761 0.52423
 H1901 H 0.13107 0.71772 0.57205
 H1902 H 0.09625 0.70293 0.58568
 H1903 H 0.07340 0.69549 0.51911
 H1904 H 0.10853 0.71006 0.50551
 C1905 C 0.12253 0.21417 1.03939
 C1906 C 0.11938 0.21192 1.06203
 C1907 C 0.09970 0.20345 1.07012
 C1908 C 0.08291 0.19709 1.05566
 C1909 C 0.08606 0.19972 1.03296
 C1910 C 0.10578 0.20820 1.02487
 C1911 C 0.14334 0.22166 1.03119
 C1912 C 0.16113 0.22747 1.02483
 H1913 H 0.13229 0.21636 1.07340
 H1914 H 0.09778 0.20132 1.08765
 H1915 H 0.07332 0.19497 1.02155
 H1916 H 0.10808 0.20980 1.00732
 C1917 C 0.62064 0.53777 0.21380
 C1918 C 0.61721 0.56044 0.21229
 C1919 C 0.59754 0.56856 0.20385
 C1920 C 0.58101 0.55408 0.19681
 C1921 C 0.58445 0.53132 0.19870
 C1922 C 0.60417 0.52321 0.20713
 C1923 C 0.64154 0.52966 0.22112
 C1924 C 0.65950 0.52360 0.22669
 H1925 H 0.62991 0.57185 0.21724
 H1926 H 0.59543 0.58615 0.20228
 H1927 H 0.57192 0.51989 0.19340
 H1928 H 0.60671 0.50562 0.20814
 C1929 C 0.62323 1.03441 0.71173
 C1930 C 0.61960 1.03662 0.68917
 C1931 C 0.59972 1.04498 0.68148
 C1932 C 0.58318 1.05124 0.69628
 C1933 C 0.58679 1.04860 0.71892
 C1934 C 0.60673 1.04026 0.72660
 C1935 C 0.64432 1.02725 0.71948
 C1936 C 0.66239 1.02182 0.72535
 H1937 H 0.63231 1.03230 0.67753
 H1938 H 0.59746 1.04711 0.66400
 H1939 H 0.57426 1.05329 0.73059
 H1940 H 0.60940 1.03870 0.74410
 C1941 C 0.87611 0.46197 0.28516
 C1942 C 0.87972 0.43936 0.28713
 C1943 C 0.89970 0.43155 0.29514
 C1944 C 0.91635 0.44629 0.30130
 C1945 C 0.91272 0.46897 0.29896
 C1946 C 0.89269 0.47677 0.29095
 C1947 C 0.85506 0.46987 0.27802
 C1948 C 0.83713 0.47600 0.27240
 H1949 H 0.86695 0.42776 0.28281
 H1950 H 0.90198 0.41402 0.29706
 H1951 H 0.92532 0.48060 0.30358
 H1952 H 0.89005 0.49431 0.28955
 C1953 C 0.87794 0.96279 0.78951
 C1954 C 0.89463 0.95637 0.77510
 C1955 C 0.91421 0.94774 0.78334
 C1956 C 0.91729 0.94540 0.80608
 C1957 C 0.90054 0.95216 0.82042
 C1958 C 0.88100 0.96079 0.81217
 C1959 C 0.85728 0.97051 0.78116
 C1960 C 0.83962 0.97652 0.77467
 H1961 H 0.89240 0.95777 0.75753
 H1962 H 0.92692 0.94268 0.77202
 H1963 H 0.90240 0.95027 0.83798
 H1964 H 0.86813 0.96557 0.82346
 C1965 C 0.37432 0.28535 0.78994
 C1966 C 0.35800 0.29138 0.77497
 C1967 C 0.33797 0.29963 0.78253
 C1968 C 0.33407 0.30195 0.80515
 C1969 C 0.35047 0.29557 0.82006
 C1970 C 0.37045 0.28733 0.81248
 C1971 C 0.39540 0.27800 0.78227
 C1972 C 0.41334 0.27228 0.77628
 H1973 H 0.36084 0.28999 0.75748
 H1974 H 0.32556 0.30440 0.77077
 H1975 H 0.34798 0.29747 0.83754
 H1976 H 0.38302 0.28284 0.82420
 C1977 C 0.87108 0.28609 0.28840
 C1978 C 0.86782 0.28828 0.31102
 C1979 C 0.84822 0.29699 0.31903
 C1980 C 0.83159 0.30363 0.30450
 C1981 C 0.83486 0.30107 0.28181
 C1982 C 0.85452 0.29237 0.27380
 C1983 C 0.89189 0.27847 0.28035
 C1984 C 0.90978 0.27265 0.27430
 H1985 H 0.88059 0.28363 0.32245
 H1986 H 0.84623 0.29906 0.33656
 H1987 H 0.82225 0.30604 0.27034
 H1988 H 0.85692 0.29084 0.25626
 C1989 C 0.37735 0.78575 0.46062
 C1990 C 0.39408 0.79147 0.47526
 C1991 C 0.41390 0.79987 0.46734
 C1992 C 0.41717 0.80268 0.44468
 C1993 C 0.40039 0.79658 0.43009
 C1994 C 0.38062 0.78817 0.43802
 C1995 C 0.35647 0.77830 0.46869
 C1996 C 0.33866 0.77251 0.47500
 H1997 H 0.39170 0.78972 0.49279
 H1998 H 0.42662 0.80443 0.47885
 H1999 H 0.40241 0.79884 0.41259
 H2000 H 0.36773 0.78392 0.42655
 C2001 C 0.37810 0.28428 0.96309
 C2002 C 0.39460 0.29072 0.97769
 C2003 C 0.41433 0.29924 0.96966
 C2004 C 0.41773 0.30145 0.94695
 C2005 C 0.40119 0.29457 0.93243
 C2006 C 0.38152 0.28605 0.94046
 C2007 C 0.35714 0.27704 0.97113
 C2008 C 0.33912 0.27161 0.97715
 H2009 H 0.39207 0.28952 0.99524
 H2010 H 0.42686 0.30440 0.98113
 H2011 H 0.40328 0.29637 0.91488
 H2012 H 0.36879 0.28127 0.92902
 C2013 C 0.78572 0.46093 0.37560
 C2014 C 0.78808 0.43834 0.37910
 C2015 C 0.79624 0.43057 0.39905
 C2016 C 0.80214 0.44534 0.41578
 C2017 C 0.79941 0.46799 0.41227
 C2018 C 0.79125 0.47575 0.39227
 C2019 C 0.77844 0.46882 0.35459
 C2020 C 0.77274 0.47501 0.33669
 H2021 H 0.78396 0.42674 0.36626
 H2022 H 0.79846 0.41307 0.40125
 H2023 H 0.80381 0.47963 0.42495
 H2024 H 0.78954 0.49327 0.38972
 C2025 C 0.78813 0.96120 0.87599
 C2026 C 0.78975 0.93858 0.87975
 C2027 C 0.79804 0.93077 0.89963
 C2028 C 0.80483 0.94551 0.91605
 C2029 C 0.80288 0.96821 0.91227
 C2030 C 0.79459 0.97601 0.89234
 C2031 C 0.78071 0.96909 0.85501
 C2032 C 0.77493 0.97525 0.83713
 H2033 H 0.78494 0.92698 0.86716
 H2034 H 0.79964 0.91322 0.90202
 H2035 H 0.80797 0.97984 0.92470
 H2036 H 0.79348 0.99355 0.88958
 C2037 C 0.28682 0.78910 0.37387
 C2038 C 0.29328 0.77443 0.35740
 C2039 C 0.30167 0.78240 0.33758
 C2040 C 0.30373 0.80513 0.33405
 C2041 C 0.29694 0.81973 0.35060
 C2042 C 0.28855 0.81175 0.37037
 C2043 C 0.27932 0.78104 0.39476
 C2044 C 0.27351 0.77476 0.41258
 H2045 H 0.29208 0.75687 0.35998
 H2046 H 0.30676 0.77088 0.32504
 H2047 H 0.29863 0.83729 0.34840
 H2048 H 0.28374 0.82324 0.38306
 C2049 C 0.28564 0.28728 0.87196
 C2050 C 0.29263 0.27262 0.85568
 C2051 C 0.30154 0.28062 0.83610
 C2052 C 0.30361 0.30336 0.83261
 C2053 C 0.29627 0.31793 0.84894
 C2054 C 0.28735 0.30993 0.86847
 C2055 C 0.27787 0.27928 0.89276
 C2056 C 0.27197 0.27331 0.91067
 H2057 H 0.29149 0.25506 0.85827
 H2058 H 0.30704 0.26912 0.82372
 H2059 H 0.29794 0.33550 0.84679
 H2060 H 0.28217 0.32141 0.88102
 C2061 C 0.46431 0.28766 0.87884
 C2062 C 0.46193 0.31028 0.88218
 C2063 C 0.45353 0.31817 0.90198
 C2064 C 0.44739 0.30353 0.91872
 C2065 C 0.45013 0.28084 0.91537
 C2066 C 0.45853 0.27295 0.89553
 C2067 C 0.47183 0.27967 0.85794
 C2068 C 0.47770 0.27350 0.84010
 H2069 H 0.46623 0.32179 0.86933
 H2070 H 0.45130 0.33569 0.90404
 H2071 H 0.44553 0.26929 0.92807
 H2072 H 0.46025 0.25541 0.89309
 C2073 C 0.96387 0.28770 0.37900
 C2074 C 0.96223 0.31039 0.38228
 C2075 C 0.95361 0.31861 0.40186
 C2076 C 0.94652 0.30421 0.41845
 C2077 C 0.94856 0.28144 0.41518
 C2078 C 0.95716 0.27323 0.39554
 C2079 C 0.97130 0.27947 0.35815
 C2080 C 0.97694 0.27330 0.34023
 H2081 H 0.96720 0.32173 0.36952
 H2082 H 0.95195 0.33620 0.40384
 H2083 H 0.94323 0.27007 0.42775
 H2084 H 0.95826 0.25563 0.39312
 C2085 C 0.46271 0.37592 0.78941
 C2086 C 0.45623 0.39215 0.77450
 C2087 C 0.44775 0.41209 0.78213
 C2088 C 0.44564 0.41598 0.80477
 C2089 C 0.45242 0.39966 0.81962
 C2090 C 0.46090 0.37977 0.81197
 C2091 C 0.47044 0.35496 0.78171
 C2092 C 0.47653 0.33710 0.77574
 H2093 H 0.45750 0.38931 0.75700
 H2094 H 0.44266 0.42444 0.77042
 H2095 H 0.45070 0.40215 0.83712
 H2096 H 0.46573 0.36727 0.82366
 C2097 C 0.96362 0.37865 0.28661
 C2098 C 0.95693 0.39504 0.27196
 C2099 C 0.94840 0.41483 0.27993
 C2100 C 0.94643 0.41839 0.30264
 C2101 C 0.95347 0.40193 0.31721
 C2102 C 0.96201 0.38222 0.30923
 C2103 C 0.97106 0.35768 0.27865
 C2104 C 0.97672 0.33966 0.27277
 H2105 H 0.95801 0.39241 0.25441
 H2106 H 0.94310 0.42730 0.26843
 H2107 H 0.95185 0.40414 0.33475
 H2108 H 0.96697 0.36957 0.32071
 C2109 C 0.28892 0.87692 0.46485
 C2110 C 0.27396 0.89342 0.45921
 C2111 C 0.28149 0.91357 0.45115
 C2112 C 0.30407 0.91742 0.44862
 C2113 C 0.31898 0.90085 0.45460
 C2114 C 0.31144 0.88074 0.46266
 C2115 C 0.28130 0.85575 0.47206
 C2116 C 0.27533 0.83774 0.47768
 H2117 H 0.25650 0.89061 0.46077
 H2118 H 0.26974 0.92611 0.44667
 H2119 H 0.33643 0.90329 0.45254
 H2120 H 0.32315 0.86805 0.46685
 C2121 C 0.28772 0.37885 0.96479
 C2122 C 0.27301 0.39504 0.95779
 C2123 C 0.28087 0.41478 0.94907
 C2124 C 0.30354 0.41851 0.94722
 C2125 C 0.31818 0.40228 0.95463
 C2126 C 0.31031 0.38259 0.96335
 C2127 C 0.27984 0.35788 0.97230
 C2128 C 0.27381 0.33991 0.97798
 H2129 H 0.25549 0.39226 0.95873
 H2130 H 0.26932 0.42707 0.94350
 H2131 H 0.33570 0.40462 0.95311
 H2132 H 0.32184 0.37011 0.96856
 C2133 C 0.78772 0.37333 0.28535
 C2134 C 0.81032 0.36985 0.28724
 C2135 C 0.81825 0.35014 0.29587
 C2136 C 0.80365 0.33364 0.30275
 C2137 C 0.78098 0.33714 0.30053
 C2138 C 0.77307 0.35689 0.29190
 C2139 C 0.77972 0.39418 0.27767
 C2140 C 0.77351 0.41200 0.27173
 H2141 H 0.82180 0.38252 0.28238
 H2142 H 0.83576 0.34797 0.29768
 H2143 H 0.76947 0.32463 0.30569
 H2144 H 0.75554 0.35945 0.29059
   
