data_POSCAR
  _audit_creation_date              2014-09-24
  _audit_creation_method            'ToBaCCo'
  _symmetry_space_group_name_H-M    'P1'
  _symmetry_Int_Tables_number       1
  _symmetry_cell_setting            triclinic
  loop_
  _symmetry_equiv_pos_as_xyz
 x,y,z
_cell_length_a 52.7107
_cell_length_b 52.7681
_cell_length_c 52.7238
_cell_angle_alpha 90.054200
_cell_angle_beta 90.000400
_cell_angle_gamma 90.000300
loop_
  _atom_site_label
  _atom_site_type_symbol
  _atom_site_fract_x
  _atom_site_fract_y
  _atom_site_fract_z
C1 C 0.25285 1.07988 -0.01330
 C2 C 0.25195 1.08008 0.01267
 C3 C 0.25177 1.05494 0.02043
 N4 N 0.25250 1.03952 -0.00003
 C5 C 0.25314 1.05464 -0.02068
 C6 C 0.25166 1.04686 0.04604
 C7 C 0.25220 1.02116 0.05399
 C8 C 0.25564 1.01345 0.07894
 C9 C 0.25538 0.98745 0.07897
 C10 C 0.25181 0.97976 0.05405
 N11 N 0.24947 1.00044 0.03901
 C12 C 0.25087 0.95408 0.04621
 C13 C 0.25125 0.94570 0.02073
 C14 C 0.25155 0.92046 0.01335
 C15 C 0.25292 0.92026 -0.01260
 C16 C 0.25332 0.94540 -0.02036
 N17 N 0.25231 0.96083 0.00010
 C18 C 0.25374 0.95347 -0.04597
 C19 C 0.25293 0.97915 -0.05393
 C20 C 0.24935 0.98680 -0.07889
 C21 C 0.24914 1.01280 -0.07891
 C22 C 0.25263 1.02055 -0.05399
 N23 N 0.25534 0.99991 -0.03896
 C24 C 0.25315 1.04625 -0.04616
 H25 H 0.25310 1.09647 -0.02535
 H26 H 0.25160 1.09686 0.02450
 H27 H 0.26041 1.00002 -0.02000
 H28 H 0.25837 1.02534 0.09546
 H29 H 0.25789 0.97557 0.09551
 H30 H 0.25103 0.90387 0.02540
 H31 H 0.25339 0.90348 -0.02442
 H32 H 0.24640 1.02463 -0.09544
 H33 H 0.24440 1.00037 0.02005
 H34 H 0.24678 0.97487 -0.09540
 C35 C 0.75212 0.48670 0.57967
 C36 C 0.75363 0.51264 0.57968
 C37 C 0.75403 0.52018 0.55448
 N38 N 0.75291 0.49966 0.53918
 C39 C 0.75175 0.47915 0.55446
 C40 C 0.75454 0.54567 0.54627
 C41 C 0.75374 0.55361 0.52061
 C42 C 0.75024 0.57855 0.51301
 C43 C 0.75000 0.57859 0.48697
 C44 C 0.75339 0.55368 0.47919
 N45 N 0.75608 0.53865 0.49985
 C46 C 0.75382 0.54584 0.45348
 C47 C 0.75364 0.52034 0.44521
 C48 C 0.75335 0.51279 0.42000
 C49 C 0.75232 0.48683 0.41999
 C50 C 0.75206 0.47929 0.44519
 N51 N 0.75286 0.49982 0.46049
 C52 C 0.75186 0.45379 0.45342
 C53 C 0.75233 0.44587 0.47909
 C54 C 0.75565 0.42093 0.48675
 C55 C 0.75541 0.42088 0.51279
 C56 C 0.75198 0.44580 0.52050
 N57 N 0.74969 0.46084 0.49981
 C58 C 0.75118 0.45366 0.54620
 H59 H 0.75154 0.47477 0.59635
 H60 H 0.75416 0.52457 0.59638
 H61 H 0.74471 0.47981 0.49981
 H62 H 0.74773 0.59504 0.52497
 H63 H 0.74730 0.59512 0.47514
 H64 H 0.75370 0.52473 0.40332
 H65 H 0.75195 0.47489 0.40329
 H66 H 0.75786 0.40435 0.52467
 H67 H 0.76111 0.51969 0.49980
 H68 H 0.75829 0.40443 0.47484
 C69 C 0.74717 1.01285 1.08072
 C70 C 0.74810 0.98690 1.08076
 C71 C 0.74833 0.97926 1.05556
 N72 N 0.74761 0.99978 1.04024
 C73 C 0.74692 1.02037 1.05549
 C74 C 0.74845 0.95369 1.04734
 C75 C 0.74792 0.94580 1.02158
 C76 C 0.74449 0.92088 1.01377
 C77 C 0.74477 0.92090 0.98775
 C78 C 0.74833 0.94581 0.98015
 N79 N 0.75065 0.96080 1.00091
 C80 C 0.74927 0.95369 0.95448
 C81 C 0.74885 0.97916 0.94621
 C82 C 0.74859 0.98664 0.92099
 C83 C 0.74718 1.01258 0.92094
 C84 C 0.74673 1.02018 0.94613
 N85 N 0.74773 0.99971 0.96147
 C86 C 0.74628 1.04570 0.95433
 C87 C 0.74708 1.05364 0.98000
 C88 C 0.75063 1.07856 0.98760
 C89 C 0.75086 1.07864 1.01362
 C90 C 0.74740 1.05373 1.02144
 N91 N 0.74470 1.03869 1.00076
 C92 C 0.74687 1.04590 1.04719
 H93 H 0.74688 1.02481 1.09740
 H94 H 0.74842 0.97502 1.09748
 H95 H 0.73966 1.01974 1.00083
 H96 H 0.74177 0.90434 1.02560
 H97 H 0.74228 0.90440 0.97580
 H98 H 0.74916 0.97467 0.90432
 H99 H 0.74675 1.02447 0.90423
 H100 H 0.75358 1.09520 1.02544
 H101 H 0.75571 0.97975 1.00094
 H102 H 0.75317 1.09504 0.97564
 C103 C 0.24641 0.51285 0.57998
 C104 C 0.24733 0.48688 0.57982
 C105 C 0.24759 0.47946 0.55457
 N106 N 0.24690 0.50007 0.53941
 C107 C 0.24619 0.52052 0.55483
 C108 C 0.24769 0.45400 0.54617
 C109 C 0.24720 0.44620 0.52044
 C110 C 0.24385 0.42130 0.51261
 C111 C 0.24406 0.42138 0.48658
 C112 C 0.24751 0.44633 0.47902
 N113 N 0.24984 0.46126 0.49981
 C114 C 0.24828 0.45432 0.45338
 C115 C 0.24778 0.47985 0.44529
 C116 C 0.24736 0.48752 0.42013
 C117 C 0.24599 0.51347 0.42030
 C118 C 0.24570 0.52089 0.44555
 N119 N 0.24678 0.50029 0.46071
 C120 C 0.24538 0.54634 0.45394
 C121 C 0.24629 0.55415 0.47965
 C122 C 0.25001 0.57901 0.48741
 C123 C 0.25027 0.57892 0.51345
 C124 C 0.24667 0.55401 0.52106
 N125 N 0.24383 0.53910 0.50031
 C126 C 0.24616 0.54605 0.54673
 H127 H 0.24610 0.52470 0.59674
 H128 H 0.24763 0.47486 0.59644
 H129 H 0.23862 0.52019 0.50023
 H130 H 0.24120 0.40474 0.52442
 H131 H 0.24158 0.40490 0.47458
 H132 H 0.24783 0.47567 0.40337
 H133 H 0.24546 0.52548 0.40368
 H134 H 0.25312 0.59537 0.52539
 H135 H 0.25482 0.48023 0.49994
 H136 H 0.25266 0.59554 0.47556
 C137 C 1.08005 0.24803 -0.01399
 C138 C 1.08014 0.24942 0.01196
 C139 C 1.05497 0.25109 0.01956
 N140 N 1.03964 0.25087 -0.00100
 C141 C 1.05484 0.24900 -0.02156
 C142 C 1.04680 0.25230 0.04515
 C143 C 1.02105 0.25231 0.05312
 C144 C 1.01330 0.25024 0.07822
 C145 C 0.98727 0.25001 0.07818
 C146 C 0.97959 0.25198 0.05308
 N147 N 1.00032 0.25381 0.03800
 C148 C 0.95390 0.25166 0.04511
 C149 C 0.94561 0.25095 0.01960
 C150 C 0.92040 0.24953 0.01216
 C151 C 0.92031 0.24871 -0.01381
 C152 C 0.94548 0.24971 -0.02152
 N153 N 0.96082 0.25110 -0.00103
 C154 C 0.95365 0.25036 -0.04708
 C155 C 0.97940 0.25162 -0.05487
 C156 C 0.98716 0.25629 -0.07961
 C157 C 1.01317 0.25596 -0.07962
 C158 C 1.02085 0.25112 -0.05489
 N159 N 1.00010 0.24815 -0.04000
 C160 C 1.04656 0.24931 -0.04711
 H161 H 1.09670 0.24671 -0.02593
 H162 H 1.09686 0.24910 0.02387
 H163 H 1.00009 0.24186 -0.02139
 H164 H 1.02517 0.24860 0.09489
 H165 H 0.97537 0.24819 0.09481
 H166 H 0.90376 0.24904 0.02418
 H167 H 0.90358 0.24770 -0.02568
 H168 H 1.02511 0.25916 -0.09602
 H169 H 1.00029 0.25727 0.01872
 H170 H 0.97529 0.25977 -0.09599
 C171 C 0.48748 0.75093 0.58043
 C172 C 0.51347 0.74998 0.58036
 C173 C 0.52096 0.74985 0.55513
 N174 N 0.50037 0.75067 0.53990
 C175 C 0.47986 0.75132 0.55525
 C176 C 0.54647 0.74981 0.54682
 C177 C 0.55433 0.75037 0.52112
 C178 C 0.57926 0.75384 0.51338
 C179 C 0.57924 0.75364 0.48734
 C180 C 0.55430 0.75009 0.47970
 N181 N 0.53931 0.74768 0.50044
 C182 C 0.54638 0.74929 0.45403
 C183 C 0.52083 0.74981 0.44585
 C184 C 0.51322 0.75020 0.42067
 C185 C 0.48725 0.75170 0.42075
 C186 C 0.47976 0.75209 0.44597
 N187 N 0.50034 0.75096 0.46121
 C188 C 0.45426 0.75261 0.45428
 C189 C 0.44637 0.75172 0.47996
 C190 C 0.42142 0.74825 0.48762
 C191 C 0.42144 0.74789 0.51366
 C192 C 0.44640 0.75119 0.52137
 N193 N 0.46140 0.75394 0.50068
 C194 C 0.45432 0.75150 0.54706
 H195 H 0.47556 0.75117 0.59715
 H196 H 0.52546 0.74956 0.59702
 H197 H 0.48039 0.75891 0.50069
 H198 H 0.59580 0.75655 0.52525
 H199 H 0.59575 0.75620 0.47541
 H200 H 0.52512 0.74965 0.40395
 H201 H 0.47527 0.75225 0.40409
 H202 H 0.40492 0.74518 0.52553
 H203 H 0.52035 0.74258 0.50048
 H204 H 0.40488 0.74582 0.47570
 C205 C 0.07963 0.75159 0.01328
 C206 C 0.07975 0.75235 -0.01271
 C207 C 0.05462 0.75082 -0.02044
 N208 N 0.03929 0.74914 0.00003
 C209 C 0.05445 0.74966 0.02069
 C210 C 0.04648 0.74986 -0.04601
 C211 C 0.02076 0.74819 -0.05380
 C212 C 0.01306 0.74306 -0.07847
 C213 C -0.01296 0.74323 -0.07851
 C214 C -0.02069 0.74842 -0.05386
 N215 N 0.00002 0.75176 -0.03899
 C216 C -0.04641 0.75033 -0.04615
 C217 C -0.05472 0.75088 -0.02062
 C218 C -0.07992 0.75214 -0.01307
 C219 C -0.08004 0.75085 0.01288
 C220 C -0.05490 0.74895 0.02051
 N221 N -0.03955 0.74892 -0.00005
 C222 C -0.04676 0.74764 0.04610
 C223 C -0.02103 0.74747 0.05413
 C224 C -0.01330 0.74904 0.07928
 C225 C 0.01273 0.74939 0.07927
 C226 C 0.02045 0.74799 0.05414
 N227 N -0.00026 0.74639 0.03901
 C228 C 0.04614 0.74872 0.04619
 H229 H 0.09624 0.75243 0.02532
 H230 H 0.09647 0.75368 -0.02455
 H231 H -0.00020 0.74357 0.01964
 H232 H 0.02498 0.73943 -0.09479
 H233 H -0.02486 0.73973 -0.09488
 H234 H -0.09655 0.75357 -0.02504
 H235 H -0.09677 0.75136 0.02478
 H236 H 0.02460 0.75093 0.09595
 H237 H -0.00002 0.75842 -0.02050
 H238 H -0.02520 0.75029 0.09597
 C239 C 0.57960 0.24849 0.51265
 C240 C 0.57961 0.24946 0.48667
 C241 C 0.55440 0.24977 0.47910
 N242 N 0.53911 0.24906 0.49963
 C243 C 0.55439 0.24828 0.52019
 C244 C 0.54617 0.24992 0.45357
 C245 C 0.52048 0.24954 0.44562
 C246 C 0.51280 0.24624 0.42066
 C247 C 0.48676 0.24656 0.42059
 C248 C 0.47906 0.25001 0.44553
 N249 N 0.49977 0.25225 0.46059
 C250 C 0.45336 0.25084 0.45338
 C251 C 0.44510 0.25029 0.47889
 C252 C 0.41989 0.24990 0.48642
 C253 C 0.41988 0.24839 0.51238
 C254 C 0.44508 0.24800 0.51995
 N255 N 0.46039 0.24914 0.49943
 C256 C 0.45330 0.24750 0.54547
 C257 C 0.47897 0.24832 0.55343
 C258 C 0.48658 0.25185 0.57839
 C259 C 0.51262 0.25207 0.57845
 C260 C 0.52040 0.24864 0.55353
 N261 N 0.49973 0.24594 0.53847
 C262 C 0.54612 0.24816 0.54570
 H263 H 0.59629 0.24812 0.52461
 H264 H 0.59632 0.24976 0.47473
 H265 H 0.49977 0.24088 0.51950
 H266 H 0.52471 0.24355 0.40414
 H267 H 0.47486 0.24413 0.40403
 H268 H 0.40320 0.25047 0.47447
 H269 H 0.40317 0.24785 0.52431
 H270 H 0.52446 0.25478 0.59500
 H271 H 0.49978 0.25722 0.47958
 H272 H 0.47462 0.25438 0.59488
 C273 C 1.08075 -0.01242 0.25228
 C274 C 1.08067 0.01352 0.25129
 C275 C 1.05543 0.02103 0.25109
 N276 N 1.04020 0.00044 0.25188
 C277 C 1.05555 -0.02007 0.25259
 C278 C 1.04709 0.04656 0.25097
 C279 C 1.02131 0.05435 0.25150
 C280 C 1.01342 0.07924 0.25493
 C281 C 0.98740 0.07913 0.25462
 C282 C 0.97987 0.05418 0.25105
 N283 N 1.00068 0.03927 0.24875
 C284 C 0.95422 0.04620 0.25008
 C285 C 0.94606 0.02069 0.25053
 C286 C 0.92088 0.01308 0.25075
 C287 C 0.92095 -0.01286 0.25222
 C288 C 0.94618 -0.02032 0.25274
 N289 N 0.96142 0.00023 0.25173
 C290 C 0.95448 -0.04579 0.25327
 C291 C 0.98018 -0.05364 0.25254
 C292 C 0.98786 -0.07856 0.24912
 C293 C 1.01388 -0.07854 0.24892
 C294 C 1.02163 -0.05359 0.25225
 N295 N 1.00090 -0.03861 0.25486
 C296 C 1.04736 -0.04565 0.25274
 H297 H 1.09749 -0.02429 0.25258
 H298 H 1.09735 0.02549 0.25092
 H299 H 1.00089 -0.01962 0.25979
 H300 H 1.02521 0.09583 0.25766
 H301 H 0.97539 0.09558 0.25710
 H302 H 0.90415 0.02496 0.25012
 H303 H 0.90428 -0.02483 0.25265
 H304 H 1.02576 -0.09507 0.24629
 H305 H 1.00080 0.02032 0.24368
 H306 H 0.97595 -0.09509 0.24665
 C307 C 0.48687 0.57960 0.75328
 C308 C 0.51287 0.57957 0.75233
 C309 C 0.52039 0.55438 0.75198
 N310 N 0.49982 0.53913 0.75264
 C311 C 0.47929 0.55442 0.75343
 C312 C 0.54591 0.54611 0.75179
 C313 C 0.55378 0.52042 0.75220
 C314 C 0.57873 0.51268 0.75551
 C315 C 0.57871 0.48667 0.75523
 C316 C 0.55375 0.47904 0.75179
 N317 N 0.53874 0.49976 0.74953
 C318 C 0.54582 0.45339 0.75096
 C319 C 0.52029 0.44518 0.75146
 C320 C 0.51271 0.42001 0.75183
 C321 C 0.48674 0.42004 0.75325
 C322 C 0.47921 0.44523 0.75360
 N323 N 0.49976 0.46048 0.75253
 C324 C 0.45369 0.45349 0.75399
 C325 C 0.44582 0.47915 0.75317
 C326 C 0.42090 0.48683 0.74952
 C327 C 0.42092 0.51284 0.74933
 C328 C 0.44585 0.52054 0.75289
 N329 N 0.46083 0.49985 0.75565
 C330 C 0.45375 0.54621 0.75346
 H331 H 0.47494 0.59629 0.75367
 H332 H 0.52484 0.59623 0.75208
 H333 H 0.47977 0.49985 0.76082
 H334 H 0.59528 0.52453 0.75817
 H335 H 0.59524 0.47474 0.75767
 H336 H 0.52464 0.40332 0.75131
 H337 H 0.47477 0.40337 0.75375
 H338 H 0.40442 0.52472 0.74655
 H339 H 0.51975 0.49981 0.74457
 H340 H 0.40438 0.47493 0.74689
 C341 C 1.01369 1.07961 0.74623
 C342 C 0.98771 1.07957 0.74713
 C343 C 0.98023 1.05439 0.74831
 N344 N 1.00083 1.03915 0.74820
 C345 C 1.02135 1.05444 0.74693
 C346 C 0.95470 1.04614 0.74892
 C347 C 0.94677 1.02047 0.74907
 C348 C 0.92171 1.01275 0.74661
 C349 C 0.92171 0.98674 0.74696
 C350 C 0.94677 0.97909 0.74959
 N351 N 0.96185 0.99981 0.75131
 C352 C 0.95472 0.95344 0.75001
 C353 C 0.98024 0.94521 0.74913
 C354 C 0.98772 0.92002 0.74809
 C355 C 1.01368 0.91999 0.74669
 C356 C 1.02134 0.94517 0.74704
 N357 N 1.00083 0.96046 0.74852
 C358 C 1.04692 0.95339 0.74706
 C359 C 1.05475 0.97909 0.74839
 C360 C 1.07957 0.98679 0.75281
 C361 C 1.07956 1.01278 0.75294
 C362 C 1.05475 1.02051 0.74857
 N363 N 1.03983 0.99981 0.74545
 C364 C 1.04692 1.04623 0.74738
 H365 H 1.02559 1.09631 0.74534
 H366 H 0.97571 1.09621 0.74686
 H367 H 1.02109 0.99980 0.73952
 H368 H 0.90510 1.02460 0.74441
 H369 H 0.90511 0.97483 0.74505
 H370 H 0.97574 0.90337 0.74817
 H371 H 1.02558 0.90329 0.74577
 H372 H 1.09600 1.02466 0.75613
 H373 H 0.98103 0.99986 0.75538
 H374 H 1.09601 0.97490 0.75590
 C375 C 0.51304 0.58006 0.24867
 C376 C 0.48706 0.58014 0.24729
 C377 C 0.47943 0.55499 0.24675
 N378 N 0.49993 0.53964 0.24767
 C379 C 0.52052 0.55485 0.24884
 C380 C 0.45388 0.54683 0.24627
 C381 C 0.44589 0.52120 0.24694
 C382 C 0.42092 0.51362 0.25044
 C383 C 0.42084 0.48760 0.25057
 C384 C 0.44575 0.47982 0.24713
 N385 N 0.46083 0.50045 0.24450
 C386 C 0.45356 0.45412 0.24659
 C387 C 0.47906 0.44580 0.24666
 C388 C 0.48654 0.42059 0.24689
 C389 C 0.51254 0.42051 0.24780
 C390 C 0.52017 0.44567 0.24807
 N391 N 0.49967 0.46101 0.24738
 C392 C 0.54572 0.45383 0.24817
 C393 C 0.55369 0.47948 0.24773
 C394 C 0.57865 0.48713 0.24427
 C395 C 0.57874 0.51314 0.24461
 C396 C 0.55383 0.52086 0.24823
 N397 N 0.53876 0.50020 0.25054
 C398 C 0.54602 0.54654 0.24921
 H399 H 0.52503 0.59670 0.24930
 H400 H 0.47517 0.59686 0.24692
 H401 H 0.51980 0.50022 0.25566
 H402 H 0.40443 0.52557 0.25301
 H403 H 0.40427 0.47578 0.25324
 H404 H 0.47454 0.40395 0.24656
 H405 H 0.52444 0.40380 0.24810
 H406 H 0.59530 0.52501 0.24210
 H407 H 0.47981 0.50038 0.23947
 H408 H 0.59513 0.47521 0.24149
 O409 O 0.25014 0.18470 0.21369
 O410 O 0.27769 0.17741 0.24886
 O411 O 0.18362 0.21525 0.25031
 O412 O 0.17436 0.24820 0.27514
 O413 O 0.21436 0.25088 0.18310
 O414 O 0.24964 0.27854 0.17600
 O415 O 0.24987 0.28543 0.31470
 O416 O 0.22032 0.25146 0.32106
 O417 O 0.31498 0.25135 0.28407
 O418 O 0.32298 0.22273 0.24828
 O419 O 0.28426 0.31597 0.24975
 O420 O 0.24800 0.32369 0.22113
 O421 O 0.25010 0.31587 0.28414
 O422 O 0.22105 0.32343 0.24794
 O423 O 0.31487 0.28556 0.24972
 O424 O 0.32247 0.24904 0.22076
 O425 O 0.28452 0.25203 0.31466
 O426 O 0.25395 0.22305 0.32260
 O427 O 0.25011 0.21518 0.18313
 O428 O 0.27789 0.25055 0.17612
 O429 O 0.18381 0.25051 0.21365
 O430 O 0.17791 0.27990 0.24936
 O431 O 0.21413 0.18472 0.24901
 O432 O 0.25094 0.17703 0.27680
 Zr433 Zr 0.24858 0.20496 0.24810
 O434 O 0.27218 0.22682 0.27177
 Zr435 Zr 0.20402 0.24942 0.24814
 O436 O 0.22571 0.27311 0.27198
 Zr437 Zr 0.24864 0.24946 0.20354
 O438 O 0.27221 0.27326 0.22531
 Zr439 Zr 0.25025 0.25119 0.29431
 O440 O 0.22618 0.22701 0.27290
 Zr441 Zr 0.29468 0.25116 0.24968
 O442 O 0.27317 0.22711 0.22573
 Zr443 Zr 0.24994 0.29561 0.24971
 O444 O 0.22613 0.27391 0.22566
 O445 O 0.22503 0.22592 0.22450
 O446 O 0.27389 0.27500 0.27344
 C447 C 0.25077 0.19200 0.19048
 C448 C 0.19094 0.19206 0.25030
 C449 C 0.19115 0.25130 0.19044
 C450 C 0.24997 0.30860 0.30736
 C451 C 0.30771 0.25180 0.30729
 C452 C 0.30749 0.30873 0.24974
 H453 H 0.28247 0.21538 0.28249
 H454 H 0.28263 0.28372 0.21379
 H455 H 0.21419 0.21506 0.21368
 H456 H 0.21426 0.28342 0.28268
 H457 H 0.20896 0.23717 0.31667
 H458 H 0.18064 0.25668 0.29064
 H459 H 0.31921 0.26295 0.20863
 H460 H 0.29125 0.23878 0.18207
 H461 H 0.24358 0.20850 0.31703
 H462 H 0.23606 0.17921 0.28804
 H463 H 0.26146 0.32006 0.20858
 H464 H 0.23803 0.29200 0.18204
 H465 H 0.29125 0.18361 0.23746
 H466 H 0.31889 0.20996 0.26137
 H467 H 0.18298 0.29196 0.23591
 H468 H 0.20883 0.31994 0.26174
 O469 O 0.74976 0.81566 0.21452
 O470 O 0.72228 0.82301 0.24978
 O471 O 0.81631 0.78504 0.25098
 O472 O 0.82560 0.75208 0.27569
 O473 O 0.78533 0.74939 0.18377
 O474 O 0.74998 0.72178 0.17675
 O475 O 0.75022 0.71501 0.31544
 O476 O 0.77980 0.74898 0.32174
 O477 O 0.68502 0.74917 0.28506
 O478 O 0.67696 0.77780 0.24930
 O479 O 0.71552 0.68447 0.25061
 O480 O 0.75167 0.67669 0.22181
 O481 O 0.74984 0.68455 0.28485
 O482 O 0.77869 0.67691 0.24853
 O483 O 0.68496 0.71494 0.25069
 O484 O 0.67731 0.75142 0.22179
 O485 O 0.71557 0.74843 0.31555
 O486 O 0.74618 0.77739 0.32344
 O487 O 0.74965 0.78515 0.18393
 O488 O 0.72178 0.74983 0.17698
 O489 O 0.81596 0.74977 0.21424
 O490 O 0.82193 0.72038 0.24987
 O491 O 0.78585 0.81562 0.24979
 O492 O 0.74912 0.82342 0.27762
 Zr493 Zr 0.75136 0.79543 0.24891
 O494 O 0.72782 0.77363 0.27265
 Zr495 Zr 0.79586 0.75090 0.24879
 O496 O 0.77421 0.72726 0.27265
 Zr497 Zr 0.75111 0.75089 0.20431
 O498 O 0.72756 0.72715 0.22613
 Zr499 Zr 0.74977 0.74923 0.29509
 O500 O 0.77380 0.77336 0.27363
 Zr501 Zr 0.70521 0.74931 0.25060
 O502 O 0.72668 0.77329 0.22660
 Zr503 Zr 0.74987 0.70478 0.25044
 O504 O 0.77365 0.72642 0.22634
 O505 O 0.77482 0.77441 0.22523
 O506 O 0.72603 0.72545 0.27427
 C507 C 0.74905 0.80834 0.19130
 C508 C 0.80902 0.80824 0.25104
 C509 C 0.80857 0.74895 0.19105
 C510 C 0.75008 0.69183 0.30807
 C511 C 0.69235 0.74870 0.30825
 C512 C 0.69230 0.69176 0.25068
 H513 H 0.71758 0.78508 0.28341
 H514 H 0.71709 0.71669 0.21464
 H515 H 0.78565 0.78525 0.21439
 H516 H 0.78568 0.71695 0.28330
 H517 H 0.79115 0.76326 0.31731
 H518 H 0.81936 0.74362 0.29120
 H519 H 0.68053 0.73752 0.20961
 H520 H 0.70846 0.76162 0.18298
 H521 H 0.75651 0.79194 0.31783
 H522 H 0.76398 0.82119 0.28886
 H523 H 0.73813 0.68030 0.20934
 H524 H 0.76159 0.70831 0.18275
 H525 H 0.70870 0.81683 0.23837
 H526 H 0.68111 0.79056 0.26241
 H527 H 0.81680 0.70832 0.23642
 H528 H 0.79101 0.68042 0.26225
 O529 O 0.74935 0.18415 0.78560
 O530 O 0.72177 0.17669 0.75044
 O531 O 0.81581 0.21457 0.74875
 O532 O 0.82500 0.24742 0.72382
 O533 O 0.78521 0.25043 0.81595
 O534 O 0.74994 0.27818 0.82302
 O535 O 0.74943 0.28445 0.68433
 O536 O 0.77899 0.25047 0.67800
 O537 O 0.68439 0.25041 0.71514
 O538 O 0.67652 0.22191 0.75109
 O539 O 0.71511 0.31523 0.74925
 O540 O 0.75139 0.32311 0.77781
 O541 O 0.74923 0.31501 0.71483
 O542 O 0.77833 0.32273 0.75098
 O543 O 0.68453 0.28479 0.74937
 O544 O 0.67696 0.24845 0.77843
 O545 O 0.71480 0.25100 0.68451
 O546 O 0.74539 0.22204 0.67656
 O547 O 0.74941 0.21476 0.81608
 O548 O 0.72170 0.25017 0.82307
 O549 O 0.81569 0.24995 0.78532
 O550 O 0.82150 0.27923 0.74957
 O551 O 0.78534 0.18402 0.75022
 O552 O 0.74852 0.17618 0.72251
 Zr553 Zr 0.75087 0.20425 0.75113
 O554 O 0.72723 0.22599 0.72743
 Zr555 Zr 0.79541 0.24874 0.75088
 O556 O 0.77366 0.27232 0.72704
 Zr557 Zr 0.75088 0.24895 0.79558
 O558 O 0.72724 0.27262 0.77379
 Zr559 Zr 0.74910 0.25029 0.70480
 O560 O 0.77321 0.22621 0.72622
 Zr561 Zr 0.70475 0.25040 0.74950
 O562 O 0.72632 0.22649 0.77348
 Zr563 Zr 0.74945 0.29489 0.74930
 O564 O 0.77333 0.27332 0.77335
 O565 O 0.77445 0.22533 0.77463
 O566 O 0.72548 0.27416 0.72566
 C567 C 0.74873 0.19156 0.80879
 C568 C 0.80851 0.19137 0.74885
 C569 C 0.80841 0.25081 0.80855
 C570 C 0.74933 0.30765 0.69163
 C571 C 0.69162 0.25077 0.69191
 C572 C 0.69189 0.30796 0.74929
 H573 H 0.71693 0.21450 0.71676
 H574 H 0.71683 0.28313 0.78530
 H575 H 0.78531 0.21451 0.78546
 H576 H 0.78509 0.28259 0.71630
 H577 H 0.79037 0.23620 0.68241
 H578 H 0.81871 0.25588 0.70833
 H579 H 0.68026 0.26238 0.79055
 H580 H 0.70829 0.23844 0.81714
 H581 H 0.75575 0.20751 0.68217
 H582 H 0.76335 0.17835 0.71122
 H583 H 0.73796 0.31949 0.79040
 H584 H 0.76158 0.29158 0.81693
 H585 H 0.70823 0.18291 0.76188
 H586 H 0.68053 0.20915 0.73793
 H587 H 0.81644 0.29134 0.76300
 H588 H 0.79052 0.31920 0.73716
 O589 O 0.25070 0.81587 0.78616
 O590 O 0.27831 0.82307 0.75099
 O591 O 0.18415 0.78550 0.74941
 O592 O 0.17482 0.75255 0.72462
 O593 O 0.21468 0.74983 0.81672
 O594 O 0.24987 0.72202 0.82384
 O595 O 0.25024 0.71509 0.68518
 O596 O 0.22080 0.74914 0.67877
 O597 O 0.31542 0.74909 0.71584
 O598 O 0.32344 0.77769 0.75168
 O599 O 0.28453 0.68451 0.75016
 O600 O 0.24820 0.67692 0.77879
 O601 O 0.25035 0.68467 0.71575
 O602 O 0.22132 0.67718 0.75192
 O603 O 0.31520 0.71486 0.75019
 O604 O 0.32289 0.75133 0.77914
 O605 O 0.28499 0.74845 0.68523
 O606 O 0.25449 0.77746 0.67723
 O607 O 0.25057 0.78539 0.81672
 O608 O 0.27818 0.74995 0.82380
 O609 O 0.18418 0.75028 0.78612
 O610 O 0.17824 0.72087 0.75044
 O611 O 0.21472 0.81595 0.75077
 O612 O 0.25157 0.82355 0.72306
 Zr613 Zr 0.24912 0.79561 0.75175
 O614 O 0.27267 0.77368 0.72809
 Zr615 Zr 0.20443 0.75127 0.75166
 O616 O 0.22609 0.72750 0.72787
 Zr617 Zr 0.24899 0.75112 0.79632
 O618 O 0.27254 0.72727 0.77458
 Zr619 Zr 0.25071 0.74935 0.70555
 O620 O 0.22669 0.77361 0.72692
 Zr621 Zr 0.29509 0.74930 0.75022
 O622 O 0.27361 0.77340 0.77415
 Zr623 Zr 0.25025 0.70496 0.75017
 O624 O 0.22645 0.72672 0.77417
 O625 O 0.22548 0.77472 0.77532
 O626 O 0.27427 0.72549 0.72645
 C627 C 0.25131 0.80857 0.80937
 C628 C 0.19153 0.80867 0.74941
 C629 C 0.19147 0.74949 0.80934
 C630 C 0.25024 0.69192 0.69253
 C631 C 0.30817 0.74866 0.69262
 C632 C 0.30777 0.69171 0.75019
 H633 H 0.28300 0.78509 0.71739
 H634 H 0.28293 0.71678 0.78611
 H635 H 0.21466 0.78563 0.78612
 H636 H 0.21462 0.71722 0.71717
 H637 H 0.20947 0.76346 0.68314
 H638 H 0.18108 0.74402 0.70914
 H639 H 0.31956 0.73746 0.79129
 H640 H 0.29162 0.76162 0.81784
 H641 H 0.24418 0.79204 0.68280
 H642 H 0.23674 0.82137 0.71177
 H643 H 0.26169 0.68051 0.79132
 H644 H 0.23818 0.70863 0.81780
 H645 H 0.29182 0.81687 0.76246
 H646 H 0.31941 0.79045 0.73856
 H647 H 0.18327 0.70880 0.76390
 H648 H 0.20906 0.68076 0.73818
 O649 O 0.24848 0.31525 0.71440
 O650 O 0.22082 0.32253 0.74953
 O651 O 0.31498 0.28497 0.75118
 O652 O 0.32425 0.25209 0.77604
 O653 O 0.28449 0.24912 0.68389
 O654 O 0.24930 0.22137 0.67667
 O655 O 0.24886 0.21465 0.81529
 O656 O 0.27824 0.24877 0.82178
 O657 O 0.18367 0.24853 0.78457
 O658 O 0.17563 0.27707 0.74882
 O659 O 0.21463 0.18396 0.75030
 O660 O 0.25102 0.17638 0.72165
 O661 O 0.24876 0.18419 0.78471
 O662 O 0.27781 0.17661 0.74861
 O663 O 0.18394 0.21428 0.75021
 O664 O 0.17633 0.25079 0.72124
 O665 O 0.21407 0.24792 0.81522
 O666 O 0.24449 0.27699 0.82331
 O667 O 0.24867 0.28472 0.68383
 O668 O 0.22102 0.24931 0.67671
 O669 O 0.31497 0.24964 0.71451
 O670 O 0.32092 0.22036 0.75020
 O671 O 0.28440 0.31541 0.74982
 O672 O 0.24751 0.32304 0.77751
 Zr673 Zr 0.25001 0.29506 0.74881
 O674 O 0.22642 0.27317 0.77240
 Zr675 Zr 0.29469 0.25073 0.74894
 O676 O 0.27302 0.22699 0.77267
 Zr677 Zr 0.25018 0.25049 0.70423
 O678 O 0.22661 0.22667 0.72590
 Zr679 Zr 0.24837 0.24887 0.79496
 O680 O 0.27241 0.27312 0.77366
 Zr681 Zr 0.20404 0.24874 0.75024
 O682 O 0.22554 0.27282 0.72636
 Zr683 Zr 0.24890 0.20442 0.75032
 O684 O 0.27272 0.22615 0.72638
 O685 O 0.27367 0.27414 0.72526
 O686 O 0.22485 0.22498 0.77401
 C687 C 0.24793 0.30790 0.69119
 C688 C 0.30760 0.30814 0.75118
 C689 C 0.30768 0.24877 0.69129
 C690 C 0.24886 0.19148 0.80792
 C691 C 0.19090 0.24809 0.80780
 C692 C 0.19139 0.19114 0.75024
 H693 H 0.21608 0.28458 0.78311
 H694 H 0.21624 0.21616 0.71435
 H695 H 0.28451 0.28501 0.71447
 H696 H 0.28448 0.21673 0.78338
 H697 H 0.28954 0.26312 0.81744
 H698 H 0.31797 0.24358 0.79150
 H699 H 0.17960 0.23682 0.70914
 H700 H 0.20759 0.26101 0.68265
 H701 H 0.25472 0.29163 0.81773
 H702 H 0.26235 0.32090 0.78880
 H703 H 0.23743 0.17984 0.70919
 H704 H 0.26094 0.20796 0.68273
 H705 H 0.20732 0.31631 0.73805
 H706 H 0.17973 0.28992 0.76186
 H707 H 0.31590 0.20824 0.73677
 H708 H 0.29008 0.18024 0.76233
 O709 O 0.75164 0.68390 0.71523
 O710 O 0.77912 0.67650 0.75042
 O711 O 0.68505 0.71428 0.75191
 O712 O 0.67577 0.74715 0.77685
 O713 O 0.71577 0.75008 0.68481
 O714 O 0.75099 0.77783 0.67778
 O715 O 0.75121 0.78436 0.81644
 O716 O 0.72171 0.75033 0.82275
 O717 O 0.81636 0.75044 0.78572
 O718 O 0.82442 0.72191 0.74992
 O719 O 0.78559 0.81509 0.75161
 O720 O 0.74928 0.82279 0.72292
 O721 O 0.75143 0.81486 0.78595
 O722 O 0.72243 0.82254 0.74982
 O723 O 0.81623 0.78470 0.75151
 O724 O 0.82382 0.74822 0.72239
 O725 O 0.78590 0.75103 0.81632
 O726 O 0.75539 0.72198 0.82423
 O727 O 0.75158 0.71447 0.68476
 O728 O 0.77926 0.74988 0.67780
 O729 O 0.68523 0.74962 0.71537
 O730 O 0.67925 0.77890 0.75114
 O731 O 0.71556 0.68376 0.75051
 O732 O 0.75235 0.67605 0.77833
 Zr733 Zr 0.75001 0.70405 0.74969
 O734 O 0.77359 0.72587 0.77340
 Zr735 Zr 0.70541 0.74847 0.74985
 O736 O 0.72708 0.77213 0.77371
 Zr737 Zr 0.75004 0.74868 0.70524
 O738 O 0.77359 0.77244 0.72704
 Zr739 Zr 0.75164 0.75017 0.79598
 O740 O 0.72759 0.72601 0.77455
 Zr741 Zr 0.79607 0.75028 0.75136
 O742 O 0.77457 0.72627 0.72737
 Zr743 Zr 0.75129 0.79469 0.75149
 O744 O 0.72748 0.77304 0.72741
 O745 O 0.72645 0.72505 0.72614
 O746 O 0.77525 0.77404 0.77516
 C747 C 0.75230 0.69129 0.69205
 C748 C 0.69238 0.69109 0.75182
 C749 C 0.69257 0.75045 0.69217
 C750 C 0.75130 0.80754 0.80914
 C751 C 0.80908 0.75086 0.80894
 C752 C 0.80883 0.80785 0.75160
 H753 H 0.78389 0.71442 0.78409
 H754 H 0.78401 0.78294 0.71555
 H755 H 0.71563 0.71420 0.71529
 H756 H 0.71562 0.78240 0.78443
 H757 H 0.71038 0.73602 0.81834
 H758 H 0.68205 0.75560 0.79237
 H759 H 0.82064 0.76225 0.71038
 H760 H 0.79266 0.73814 0.68372
 H761 H 0.74508 0.70741 0.81860
 H762 H 0.73746 0.67819 0.78955
 H763 H 0.76286 0.81929 0.71045
 H764 H 0.73935 0.79125 0.68385
 H765 H 0.79271 0.68275 0.73907
 H766 H 0.82032 0.70908 0.76296
 H767 H 0.68432 0.79102 0.73774
 H768 H 0.71015 0.81894 0.76354
 O769 O 0.24892 0.68525 0.28587
 O770 O 0.22144 0.67787 0.25068
 O771 O 0.31547 0.71572 0.24921
 O772 O 0.32472 0.74866 0.22442
 O773 O 0.28476 0.75143 0.31648
 O774 O 0.24952 0.77913 0.32362
 O775 O 0.24920 0.78584 0.18499
 O776 O 0.27876 0.75190 0.17856
 O777 O 0.18413 0.75177 0.21560
 O778 O 0.17614 0.72320 0.25141
 O779 O 0.21484 0.81646 0.24994
 O780 O 0.25119 0.82414 0.27864
 O781 O 0.24900 0.81631 0.21558
 O782 O 0.27799 0.82398 0.25170
 O783 O 0.18423 0.78605 0.24992
 O784 O 0.17663 0.74960 0.27890
 O785 O 0.21458 0.75241 0.18501
 O786 O 0.24515 0.72346 0.17700
 O787 O 0.24896 0.71578 0.31645
 O788 O 0.22128 0.75116 0.32353
 O789 O 0.31529 0.75101 0.28591
 O790 O 0.32122 0.78036 0.25026
 O791 O 0.28497 0.68520 0.25054
 O792 O 0.24815 0.67750 0.22275
 Zr793 Zr 0.25052 0.70545 0.25148
 O794 O 0.22692 0.72729 0.22785
 Zr795 Zr 0.29509 0.74990 0.25144
 O796 O 0.27339 0.77358 0.22767
 Zr797 Zr 0.25048 0.75002 0.29607
 O798 O 0.22689 0.77378 0.27435
 Zr799 Zr 0.24884 0.75163 0.20533
 O800 O 0.27292 0.72746 0.22668
 Zr801 Zr 0.20442 0.75165 0.24997
 O802 O 0.22595 0.72763 0.27388
 Zr803 Zr 0.24916 0.79609 0.24997
 O804 O 0.27300 0.77442 0.27396
 O805 O 0.27408 0.72643 0.27508
 O806 O 0.22521 0.77545 0.22623
 C807 C 0.24826 0.69260 0.30908
 C808 C 0.30815 0.69253 0.24921
 C809 C 0.30796 0.75183 0.30912
 C810 C 0.24911 0.80902 0.19236
 C811 C 0.19140 0.75218 0.19239
 C812 C 0.19162 0.80921 0.24993
 H813 H 0.21662 0.71583 0.21713
 H814 H 0.21648 0.78426 0.28588
 H815 H 0.28491 0.71557 0.28589
 H816 H 0.28483 0.78387 0.21697
 H817 H 0.29013 0.73762 0.18293
 H818 H 0.31845 0.75717 0.20895
 H819 H 0.17988 0.76354 0.29102
 H820 H 0.20787 0.73945 0.31756
 H821 H 0.25554 0.70893 0.18255
 H822 H 0.26302 0.67966 0.21151
 H823 H 0.23759 0.82063 0.29109
 H824 H 0.26114 0.79257 0.31758
 H825 H 0.20785 0.68409 0.26207
 H826 H 0.18022 0.71042 0.23829
 H827 H 0.31615 0.79245 0.26370
 H828 H 0.29030 0.82038 0.23801
 O829 O 0.75063 0.31546 0.28450
 O830 O 0.77812 0.32284 0.24927
 O831 O 0.68412 0.28487 0.24790
 O832 O 0.67492 0.25192 0.22302
 O833 O 0.71497 0.24925 0.31505
 O834 O 0.75028 0.22159 0.32210
 O835 O 0.75039 0.21480 0.18348
 O836 O 0.72078 0.24875 0.17714
 O837 O 0.81547 0.24904 0.21405
 O838 O 0.82345 0.27766 0.24987
 O839 O 0.78495 0.18432 0.24832
 O840 O 0.74869 0.17657 0.27709
 O841 O 0.75070 0.18436 0.21404
 O842 O 0.72181 0.17668 0.25023
 O843 O 0.81549 0.21480 0.24833
 O844 O 0.82305 0.25129 0.27733
 O845 O 0.78499 0.24828 0.18349
 O846 O 0.75438 0.27715 0.17552
 O847 O 0.75068 0.28495 0.31503
 O848 O 0.77846 0.24964 0.32204
 O849 O 0.68440 0.24961 0.28452
 O850 O 0.67848 0.22023 0.24884
 O851 O 0.71457 0.31545 0.24923
 O852 O 0.75130 0.32323 0.22141
 Zr853 Zr 0.74905 0.29525 0.25008
 O854 O 0.77265 0.27345 0.22637
 Zr855 Zr 0.70457 0.25072 0.25003
 O856 O 0.72628 0.22706 0.22620
 Zr857 Zr 0.74922 0.25070 0.29461
 O858 O 0.77284 0.22698 0.27283
 Zr859 Zr 0.75075 0.24904 0.20386
 O860 O 0.72667 0.27319 0.22527
 Zr861 Zr 0.79522 0.24915 0.24845
 O862 O 0.77369 0.27314 0.27242
 Zr863 Zr 0.75058 0.20461 0.24845
 O864 O 0.72672 0.22625 0.27249
 O865 O 0.72556 0.27423 0.27368
 O866 O 0.77445 0.22528 0.22471
 C867 C 0.75131 0.30812 0.30770
 C868 C 0.69140 0.30808 0.24794
 C869 C 0.69176 0.24883 0.30772
 C870 C 0.75051 0.19163 0.19083
 C871 C 0.80818 0.24858 0.19085
 C872 C 0.80816 0.19163 0.24830
 H873 H 0.78291 0.28491 0.21566
 H874 H 0.78330 0.21654 0.28433
 H875 H 0.71472 0.28508 0.28451
 H876 H 0.71483 0.21674 0.21552
 H877 H 0.70943 0.26305 0.18154
 H878 H 0.68118 0.24338 0.20754
 H879 H 0.81985 0.23736 0.28945
 H880 H 0.79183 0.26138 0.31607
 H881 H 0.74411 0.29174 0.18117
 H882 H 0.73645 0.32100 0.21016
 H883 H 0.76228 0.18014 0.28953
 H884 H 0.73865 0.20814 0.31607
 H885 H 0.79169 0.31669 0.26070
 H886 H 0.81935 0.29040 0.23675
 H887 H 0.68360 0.20815 0.26225
 H888 H 0.70947 0.18023 0.23655
 C889 C 0.25241 0.10075 0.09983
 N890 N 0.25288 0.09441 0.12475
 N891 N 0.25289 0.11236 0.14255
 C892 C 0.25243 0.13720 0.13597
 N893 N 0.25197 0.14354 0.11105
 N894 N 0.25197 0.12559 0.09325
 C895 C 0.25221 0.08143 0.08067
 C896 C 0.25197 0.06524 0.06450
 C897 C 0.25211 0.15653 0.15515
 C898 C 0.25163 0.17275 0.17127
 C899 C 0.75471 0.60061 0.60100
 N900 N 0.75652 0.59418 0.62583
 N901 N 0.75635 0.61203 0.64373
 C902 C 0.75437 0.63684 0.63732
 N903 N 0.75256 0.64327 0.61249
 N904 N 0.75273 0.62542 0.59459
 C905 C 0.75471 0.58140 0.58177
 C906 C 0.75465 0.56520 0.56563
 C907 C 0.75388 0.65602 0.65659
 C908 C 0.75328 0.67213 0.67279
 C909 C 0.74757 0.89959 0.10083
 N910 N 0.74659 0.87476 0.09420
 N911 N 0.74654 0.85680 0.11196
 C912 C 0.74744 0.86313 0.13689
 N913 N 0.74841 0.88795 0.14351
 N914 N 0.74847 0.90591 0.12575
 C915 C 0.74783 0.91892 0.08170
 C916 C 0.74810 0.93518 0.06563
 C917 C 0.74773 0.84379 0.15602
 C918 C 0.74820 0.82758 0.17211
 C919 C 0.24658 0.39885 0.60058
 N920 N 0.24609 0.37400 0.59399
 N921 N 0.24599 0.35610 0.61180
 C922 C 0.24636 0.36250 0.63671
 N923 N 0.24685 0.38735 0.64329
 N924 N 0.24695 0.40526 0.62549
 C925 C 0.24691 0.41812 0.58144
 C926 C 0.24725 0.43438 0.56540
 C927 C 0.24663 0.34324 0.65587
 C928 C 0.24707 0.32708 0.67200
 C929 C 0.74634 0.10071 0.89965
 N930 N 0.74404 0.09437 0.87482
 N931 N 0.74424 0.11226 0.85699
 C932 C 0.74674 0.13702 0.86345
 N933 N 0.74904 0.14335 0.88828
 N934 N 0.74884 0.12547 0.90612
 C935 C 0.74628 0.08143 0.91884
 C936 C 0.74627 0.06522 0.93495
 C937 C 0.74722 0.15626 0.84422
 C938 C 0.74780 0.17240 0.82805
 C939 C 0.24552 0.60157 0.39960
 N940 N 0.24264 0.59537 0.37480
 N941 N 0.24290 0.61331 0.35703
 C942 C 0.24605 0.63798 0.36353
 N943 N 0.24893 0.64418 0.38833
 N944 N 0.24866 0.62625 0.40610
 C945 C 0.24542 0.58225 0.41869
 C946 C 0.24539 0.56597 0.43471
 C947 C 0.24661 0.65725 0.34438
 C948 C 0.24726 0.67341 0.32826
 C949 C 0.25376 0.89965 0.90016
 N950 N 0.25509 0.87482 0.90664
 N951 N 0.25489 0.85691 0.88880
 C952 C 0.25337 0.86330 0.86393
 N953 N 0.25204 0.88813 0.85745
 N954 N 0.25224 0.90604 0.87529
 C955 C 0.25381 0.91892 0.91938
 C956 C 0.25379 0.93509 0.93557
 C957 C 0.25287 0.84400 0.84472
 C958 C 0.25227 0.82781 0.82859
 C959 C 0.75282 0.39887 0.39868
 N960 N 0.75323 0.37400 0.40514
 N961 N 0.75329 0.35616 0.38724
 C962 C 0.75296 0.36265 0.36236
 N963 N 0.75256 0.38752 0.35591
 N964 N 0.75250 0.40536 0.37380
 C965 C 0.75255 0.41808 0.41792
 C966 C 0.75225 0.43426 0.43406
 C967 C 0.75265 0.34344 0.34311
 C968 C 0.75218 0.32731 0.32693
 C969 C 0.10043 0.25273 0.09923
 N970 N 0.09385 0.25254 0.12410
 N971 N 0.11165 0.25254 0.14205
 C972 C 0.13658 0.25274 0.13567
 N973 N 0.14316 0.25293 0.11080
 N974 N 0.12536 0.25294 0.09285
 C975 C 0.08126 0.25260 0.07990
 C976 C 0.06515 0.25245 0.06365
 C977 C 0.15577 0.25246 0.15500
 C978 C 0.17191 0.25205 0.17120
 C979 C 0.60156 0.75110 0.60140
 N980 N 0.59513 0.75023 0.62628
 N981 N 0.61303 0.75045 0.64413
 C982 C 0.63790 0.75157 0.63762
 N983 N 0.64433 0.75245 0.61273
 N984 N 0.62643 0.75222 0.59488
 C985 C 0.58230 0.75068 0.58221
 C986 C 0.56606 0.75029 0.56612
 C987 C 0.65716 0.75146 0.65682
 C988 C 0.67334 0.75115 0.67296
 C989 C 0.10029 0.74886 0.90009
 N990 N 0.09401 0.74566 0.87535
 N991 N 0.11193 0.74548 0.85752
 C992 C 0.13669 0.74848 0.86390
 N993 N 0.14296 0.75168 0.88864
 N994 N 0.12504 0.75186 0.90647
 C995 C 0.08099 0.74918 0.91929
 C996 C 0.06482 0.74949 0.93549
 C997 C 0.15598 0.74858 0.84467
 C998 C 0.17219 0.74886 0.82854
 C999 C 0.60092 0.24845 0.39865
 N1000 N 0.62515 0.25493 0.40439
 N1001 N 0.64303 0.25464 0.38652
 C1002 C 0.63722 0.24785 0.36240
 N1003 N 0.61299 0.24136 0.35667
 N1004 N 0.59511 0.24165 0.37453
 C1005 C 0.58167 0.24892 0.41785
 C1006 C 0.56553 0.24937 0.43404
 C1007 C 0.65640 0.24788 0.34312
 C1008 C 0.67255 0.24816 0.32694
 C1009 C 0.89945 0.74728 0.10001
 N1010 N 0.90592 0.74623 0.12489
 N1011 N 0.88804 0.74628 0.14277
 C1012 C 0.86315 0.74737 0.13632
 N1013 N 0.85669 0.74842 0.11144
 N1014 N 0.87456 0.74837 0.09356
 C1015 C 0.91869 0.74737 0.08076
 C1016 C 0.93486 0.74749 0.06457
 C1017 C 0.84391 0.74770 0.15558
 C1018 C 0.82776 0.74816 0.17177
 C1019 C 0.39868 0.24719 0.60053
 N1020 N 0.40332 0.25779 0.62351
 N1021 N 0.38546 0.25785 0.64140
 C1022 C 0.36245 0.24729 0.63685
 N1023 N 0.35782 0.23667 0.61388
 N1024 N 0.37567 0.23662 0.59598
 C1025 C 0.41785 0.24726 0.58124
 C1026 C 0.43395 0.24736 0.56501
 C1027 C 0.34316 0.24759 0.65603
 C1028 C 0.32696 0.24801 0.67214
 C1029 C 0.89980 0.25157 0.89908
 N1030 N 0.90612 0.25329 0.87420
 N1031 N 0.88815 0.25349 0.85642
 C1032 C 0.86331 0.25200 0.86298
 N1033 N 0.85699 0.25029 0.88786
 N1034 N 0.87497 0.25009 0.90564
 C1035 C 0.91914 0.25119 0.91823
 C1036 C 0.93532 0.25081 0.93441
 C1037 C 0.84396 0.25187 0.84382
 C1038 C 0.82771 0.25153 0.82772
 C1039 C 0.39909 0.75320 0.39976
 N1040 N 0.40543 0.75510 0.37491
 N1041 N 0.38749 0.75512 0.35710
 C1042 C 0.36268 0.75326 0.36362
 N1043 N 0.35633 0.75136 0.38848
 N1044 N 0.37427 0.75134 0.40628
 C1045 C 0.41840 0.75303 0.41891
 C1046 C 0.43466 0.75284 0.43498
 C1047 C 0.34339 0.75299 0.34444
 C1048 C 0.32720 0.75259 0.32831
 C1049 C 0.10046 0.10080 0.25180
 N1050 N 0.12539 0.09449 0.25112
 N1051 N 0.14315 0.11247 0.25117
 C1052 C 0.13650 0.13729 0.25191
 N1053 N 0.11157 0.14359 0.25259
 N1054 N 0.09381 0.12562 0.25255
 C1055 C 0.08135 0.08144 0.25156
 C1056 C 0.06532 0.06514 0.25130
 C1057 C 0.15563 0.15663 0.25161
 C1058 C 0.17173 0.17284 0.25115
 C1059 C 0.60114 0.60056 0.75295
 N1060 N 0.62600 0.59396 0.75277
 N1061 N 0.64397 0.61173 0.75289
 C1062 C 0.63761 0.63663 0.75322
 N1063 N 0.61274 0.64323 0.75342
 N1064 N 0.59478 0.62546 0.75329
 C1065 C 0.58179 0.58145 0.75261
 C1066 C 0.56552 0.56540 0.75226
 C1067 C 0.65694 0.65577 0.75301
 C1068 C 0.67315 0.67188 0.75261
 C1069 C 0.89959 0.10069 0.74763
 N1070 N 0.87472 0.09418 0.74867
 N1071 N 0.85680 0.11200 0.74854
 C1072 C 0.86321 0.13686 0.74735
 N1073 N 0.88808 0.14337 0.74629
 N1074 N 0.90600 0.12555 0.74643
 C1075 C 0.91888 0.08154 0.74801
 C1076 C 0.93512 0.06546 0.74839
 C1077 C 0.84394 0.15605 0.74758
 C1078 C 0.82775 0.17218 0.74801
 C1079 C 0.39895 0.60160 0.24653
 N1080 N 0.40541 0.62642 0.24485
 N1081 N 0.38755 0.64430 0.24511
 C1082 C 0.36271 0.63789 0.24706
 N1083 N 0.35626 0.61307 0.24873
 N1084 N 0.37411 0.59519 0.24847
 C1085 C 0.41818 0.58236 0.24640
 C1086 C 0.43437 0.56622 0.24633
 C1087 C 0.34351 0.65715 0.24760
 C1088 C 0.32736 0.67332 0.24822
 C1089 C 0.10090 0.89977 0.74697
 N1090 N 0.12553 0.90596 0.75109
 N1091 N 0.14336 0.88806 0.75128
 C1092 C 0.13711 0.86344 0.74734
 N1093 N 0.11248 0.85725 0.74321
 N1094 N 0.09464 0.87515 0.74302
 C1095 C 0.08167 0.91900 0.74695
 C1096 C 0.06545 0.93511 0.74699
 C1097 C 0.15627 0.84414 0.74784
 C1098 C 0.17237 0.82793 0.74844
 C1099 C 0.60060 0.39903 0.24684
 N1100 N 0.62549 0.40544 0.24590
 N1101 N 0.64333 0.38754 0.24574
 C1102 C 0.63679 0.36269 0.24651
 N1103 N 0.61189 0.35628 0.24744
 N1104 N 0.59406 0.37419 0.24760
 C1105 C 0.58140 0.41830 0.24724
 C1106 C 0.56523 0.43445 0.24764
 C1107 C 0.65600 0.34343 0.24672
 C1108 C 0.67215 0.32726 0.24713
 C1109 C 0.89986 0.89915 0.25332
 N1110 N 0.87521 0.90536 0.24935
 N1111 N 0.85736 0.88748 0.24918
 C1112 C 0.86362 0.86284 0.25299
 N1113 N 0.88827 0.85663 0.25696
 N1114 N 0.90612 0.87451 0.25713
 C1115 C 0.91907 0.91839 0.25336
 C1116 C 0.93517 0.93462 0.25333
 C1117 C 0.84443 0.84357 0.25253
 C1118 C 0.82827 0.82742 0.25197
 C1119 C 0.39847 0.39902 0.75378
 N1120 N 0.37668 0.40263 0.74059
 N1121 N 0.35876 0.38481 0.74033
 C1122 C 0.36209 0.36286 0.75326
 N1123 N 0.38387 0.35925 0.76646
 N1124 N 0.40179 0.37707 0.76672
 C1125 C 0.41781 0.41813 0.75392
 C1126 C 0.43409 0.43419 0.75397
 C1127 C 0.34289 0.34359 0.75277
 C1128 C 0.32677 0.32740 0.75216
 C1129 C 0.10001 0.24826 0.89872
 N1130 N 0.09381 0.25268 0.87416
 N1131 N 0.11163 0.25246 0.85623
 C1132 C 0.13619 0.24780 0.86234
 N1133 N 0.14239 0.24337 0.88690
 N1134 N 0.12456 0.24360 0.90483
 C1135 C 0.08086 0.24862 0.91803
 C1136 C 0.06480 0.24895 0.93431
 C1137 C 0.15541 0.24777 0.84309
 C1138 C 0.17160 0.24785 0.82695
 C1139 C 0.60146 0.74880 0.39931
 N1140 N 0.61800 0.76838 0.39732
 N1141 N 0.63588 0.76826 0.37944
 C1142 C 0.63776 0.74855 0.36301
 N1143 N 0.62122 0.72896 0.36501
 N1144 N 0.60334 0.72908 0.38288
 C1145 C 0.58217 0.74896 0.41852
 C1146 C 0.56594 0.74912 0.43464
 C1147 C 0.65698 0.74848 0.34372
 C1148 C 0.67313 0.74852 0.32752
 C1149 C 0.90010 0.75095 0.89973
 N1150 N 0.90617 0.74598 0.87522
 N1151 N 0.88830 0.74611 0.85735
 C1152 C 0.86383 0.75121 0.86344
 N1153 N 0.85776 0.75619 0.88794
 N1154 N 0.87564 0.75606 0.90582
 C1155 C 0.91930 0.75073 0.91899
 C1156 C 0.93537 0.75053 0.93525
 C1157 C 0.84456 0.75119 0.84423
 C1158 C 0.82836 0.75109 0.82811
 C1159 C 0.39871 0.25160 0.39824
 N1160 N 0.40507 0.24875 0.37347
 N1161 N 0.38721 0.24894 0.35557
 C1162 C 0.36245 0.25200 0.36190
 N1163 N 0.35610 0.25485 0.38667
 N1164 N 0.37395 0.25465 0.40457
 C1165 C 0.41792 0.25133 0.41752
 C1166 C 0.43402 0.25110 0.43377
 C1167 C 0.34320 0.25205 0.34264
 C1168 C 0.32700 0.25199 0.32649
 C1169 C 0.10065 0.75077 0.10135
 N1170 N 0.09417 0.74887 0.12617
 N1171 N 0.11197 0.74939 0.14410
 C1172 C 0.13678 0.75185 0.13776
 N1173 N 0.14326 0.75376 0.11294
 N1174 N 0.12546 0.75324 0.09500
 C1175 C 0.08151 0.75007 0.08204
 C1176 C 0.06545 0.74945 0.06578
 C1177 C 0.15597 0.75215 0.15704
 C1178 C 0.17213 0.75225 0.17320
 C1179 C 0.60071 0.24965 0.60088
 N1180 N 0.59416 0.24996 0.62576
 N1181 N 0.61199 0.25036 0.64368
 C1182 C 0.63691 0.25049 0.63727
 N1183 N 0.64346 0.25019 0.61239
 N1184 N 0.62563 0.24979 0.59447
 C1185 C 0.58152 0.24913 0.58158
 C1186 C 0.56544 0.24869 0.56531
 C1187 C 0.65613 0.25073 0.65656
 C1188 C 0.67231 0.25082 0.67273
 C1189 C 0.89920 0.24989 0.10009
 N1190 N 0.90566 0.25016 0.12499
 N1191 N 0.88777 0.24968 0.14284
 C1192 C 0.86289 0.24891 0.13632
 N1193 N 0.85644 0.24863 0.11142
 N1194 N 0.87433 0.24911 0.09357
 C1195 C 0.91844 0.25050 0.08087
 C1196 C 0.93456 0.25103 0.06467
 C1197 C 0.84363 0.24862 0.15553
 C1198 C 0.82744 0.24852 0.17166
 C1199 C 0.39931 0.74978 0.60182
 N1200 N 0.37504 0.74372 0.59580
 N1201 N 0.35715 0.74327 0.61366
 C1202 C 0.36299 0.74886 0.63809
 N1203 N 0.38727 0.75492 0.64411
 N1204 N 0.40516 0.75536 0.62625
 C1205 C 0.41856 0.75037 0.58258
 C1206 C 0.43476 0.75088 0.56644
 C1207 C 0.34369 0.74861 0.65730
 C1208 C 0.32748 0.74854 0.67343
 C1209 C 0.25119 0.10071 0.89874
 N1210 N 0.24983 0.09419 0.87389
 N1211 N 0.24922 0.11203 0.85601
 C1212 C 0.24994 0.13690 0.86247
 N1213 N 0.25130 0.14341 0.88732
 N1214 N 0.25191 0.12558 0.90519
 C1215 C 0.25190 0.08154 0.91797
 C1216 C 0.25249 0.06549 0.93421
 C1217 C 0.24944 0.15610 0.84324
 C1218 C 0.24912 0.17226 0.82710
 C1219 C 0.75217 0.60088 0.39886
 N1220 N 0.75298 0.59446 0.37396
 N1221 N 0.75245 0.61233 0.35612
 C1222 C 0.75108 0.63717 0.36264
 N1223 N 0.75026 0.64359 0.38754
 N1224 N 0.75079 0.62572 0.40539
 C1225 C 0.75277 0.58164 0.41806
 C1226 C 0.75326 0.56542 0.43416
 C1227 C 0.75063 0.65642 0.34342
 C1228 C 0.75033 0.67258 0.32728
 C1229 C 0.74849 0.10015 0.10054
 N1230 N 0.74734 0.09395 0.12547
 N1231 N 0.74787 0.11197 0.14319
 C1232 C 0.74959 0.13672 0.13650
 N1233 N 0.75075 0.14292 0.11157
 N1234 N 0.75022 0.12490 0.09385
 C1235 C 0.74788 0.08077 0.08147
 C1236 C 0.74739 0.06446 0.06545
 C1237 C 0.75003 0.15611 0.15558
 C1238 C 0.75030 0.17236 0.17165
 C1239 C 0.24803 0.60095 0.60159
 N1240 N 0.24573 0.59463 0.62642
 N1241 N 0.24631 0.61250 0.64430
 C1242 C 0.24921 0.63722 0.63790
 N1243 N 0.25152 0.64353 0.61307
 N1244 N 0.25094 0.62567 0.59519
 C1245 C 0.24737 0.58172 0.58234
 C1246 C 0.24681 0.56554 0.56617
 C1247 C 0.24968 0.65647 0.65715
 C1248 C 0.24999 0.67265 0.67331
 C1249 C 0.75012 0.89857 0.89990
 N1250 N 0.74827 0.87378 0.90638
 N1251 N 0.74857 0.85585 0.88855
 C1252 C 0.75074 0.86220 0.86372
 N1253 N 0.75259 0.88700 0.85725
 N1254 N 0.75229 0.90492 0.87507
 C1255 C 0.74978 0.91786 0.91907
 C1256 C 0.74953 0.93411 0.93515
 C1257 C 0.75099 0.84292 0.84453
 C1258 C 0.75116 0.82675 0.82838
 C1259 C 0.24894 0.39945 0.39845
 N1260 N 0.24763 0.37459 0.40483
 N1261 N 0.24789 0.35675 0.38692
 C1262 C 0.24948 0.36323 0.36208
 N1263 N 0.25079 0.38809 0.35570
 N1264 N 0.25053 0.40593 0.37361
 C1265 C 0.24866 0.41866 0.41773
 C1266 C 0.24846 0.43483 0.43392
 C1267 C 0.24970 0.34402 0.34279
 C1268 C 0.24985 0.32786 0.32660
 C1269 C 0.25011 0.89968 0.10140
 N1270 N 0.24724 0.87493 0.09507
 N1271 N 0.24697 0.85713 0.11298
 C1272 C 0.24957 0.86355 0.13775
 N1273 N 0.25244 0.88830 0.14409
 N1274 N 0.25271 0.90610 0.12618
 C1275 C 0.25041 0.91882 0.08212
 C1276 C 0.25064 0.93485 0.06585
 C1277 C 0.24935 0.84437 0.15701
 C1278 C 0.24922 0.82824 0.17317
 C1279 C 0.75036 0.39858 0.60080
 N1280 N 0.75177 0.37374 0.59430
 N1281 N 0.75149 0.35585 0.61213
 C1282 C 0.74978 0.36226 0.63699
 N1283 N 0.74837 0.38710 0.64349
 N1284 N 0.74866 0.40498 0.62566
 C1285 C 0.75068 0.41785 0.58161
 C1286 C 0.75093 0.43408 0.56552
 C1287 C 0.74956 0.34300 0.65621
 C1288 C 0.74942 0.32685 0.67237
 C1289 C 0.10083 0.09992 0.74864
 N1290 N 0.12557 0.09364 0.75185
 N1291 N 0.14339 0.11156 0.75228
 C1292 C 0.13699 0.13630 0.74953
 N1293 N 0.11225 0.14258 0.74632
 N1294 N 0.09443 0.12466 0.74589
 C1295 C 0.08164 0.08065 0.74817
 C1296 C 0.06544 0.06452 0.74779
 C1297 C 0.15617 0.15559 0.74988
 C1298 C 0.17226 0.17182 0.75010
 C1299 C 0.60124 0.60102 0.24999
 N1300 N 0.62595 0.59469 0.24669
 N1301 N 0.64388 0.61250 0.24693
 C1302 C 0.63762 0.63718 0.25049
 N1303 N 0.61291 0.64351 0.25379
 N1304 N 0.59498 0.62570 0.25355
 C1305 C 0.58193 0.58187 0.24969
 C1306 C 0.56566 0.56581 0.24945
 C1307 C 0.65690 0.65638 0.25063
 C1308 C 0.67308 0.67253 0.25069
 C1309 C 0.10098 0.90036 0.25141
 N1310 N 0.12588 0.90670 0.25275
 N1311 N 0.14370 0.88878 0.25233
 C1312 C 0.13714 0.86399 0.25054
 N1313 N 0.11224 0.85765 0.24918
 N1314 N 0.09443 0.87557 0.24961
 C1315 C 0.08181 0.91965 0.25190
 C1316 C 0.06570 0.93587 0.25231
 C1317 C 0.15632 0.84469 0.25022
 C1318 C 0.17244 0.82848 0.25003
 C1319 C 0.60090 0.39877 0.75016
 N1320 N 0.62573 0.40519 0.75225
 N1321 N 0.64363 0.38736 0.75198
 C1322 C 0.63725 0.36257 0.74961
 N1323 N 0.61242 0.35615 0.74752
 N1324 N 0.59452 0.37398 0.74779
 C1325 C 0.58162 0.41795 0.75047
 C1326 C 0.56538 0.43405 0.75072
 C1327 C 0.65652 0.34336 0.74941
 C1328 C 0.67268 0.32720 0.74932
 C1329 C 0.89933 0.10101 0.24916
 N1330 N 0.87453 0.09449 0.24712
 N1331 N 0.85659 0.11229 0.24684
 C1332 C 0.86292 0.13714 0.24858
 N1333 N 0.88773 0.14366 0.25061
 N1334 N 0.90567 0.12586 0.25089
 C1335 C 0.91863 0.08185 0.24950
 C1336 C 0.93481 0.06570 0.24978
 C1337 C 0.84361 0.15630 0.24840
 C1338 C 0.82740 0.17242 0.24831
 C1339 C 0.39868 0.60082 0.75186
 N1340 N 0.40512 0.62570 0.75224
 N1341 N 0.38722 0.64354 0.75177
 C1342 C 0.36234 0.63702 0.75090
 N1343 N 0.35590 0.61214 0.75051
 N1344 N 0.37381 0.59431 0.75098
 C1345 C 0.41796 0.58164 0.75243
 C1346 C 0.43419 0.56554 0.75291
 C1347 C 0.34308 0.65623 0.75053
 C1348 C 0.32693 0.67241 0.75032
 C1349 C 0.89964 0.89882 0.75086
 N1350 N 0.87688 0.90301 0.73962
 N1351 N 0.85900 0.88516 0.73987
 C1352 C 0.86333 0.86259 0.75138
 N1353 N 0.88609 0.85841 0.76262
 N1354 N 0.90398 0.87626 0.76237
 C1355 C 0.91892 0.91801 0.75054
 C1356 C 0.93515 0.93410 0.75028
 C1357 C 0.84412 0.84333 0.75154
 C1358 C 0.82800 0.82713 0.75161
 C1359 C 0.39836 0.39964 0.24818
 N1360 N 0.37501 0.40435 0.23846
 N1361 N 0.35711 0.38651 0.23891
 C1362 C 0.36203 0.36343 0.24909
 N1363 N 0.38537 0.35873 0.25882
 N1364 N 0.40327 0.37656 0.25837
 C1365 C 0.41766 0.41879 0.24761
 C1366 C 0.43393 0.43485 0.24714
 C1367 C 0.34281 0.34418 0.24943
 C1368 C 0.32667 0.32799 0.24963
   
