data_POSCAR
  _audit_creation_date              2014-09-24
  _audit_creation_method            'ToBaCCo'
  _symmetry_space_group_name_H-M    'P1'
  _symmetry_Int_Tables_number       1
  _symmetry_cell_setting            triclinic
  loop_
  _symmetry_equiv_pos_as_xyz
 x,y,z
_cell_length_a 50.9953
_cell_length_b 34.1687
_cell_length_c 36.5852
_cell_angle_alpha 89.934100
_cell_angle_beta 89.992600
_cell_angle_gamma 89.980000
loop_
  _atom_site_label
  _atom_site_type_symbol
  _atom_site_fract_x
  _atom_site_fract_y
  _atom_site_fract_z
C1 C 0.00598 0.00708 0.11842
 C2 C -0.00206 -0.01355 -0.11978
 C3 C -0.04358 -0.08503 0.06238
 C4 C -0.06841 0.03760 0.05478
 C5 C -0.04585 -0.09266 -0.04948
 C6 C 0.06833 -0.03631 -0.06405
 C7 C 0.04687 0.07634 -0.06633
 C8 C 0.07183 -0.03120 0.05780
 C9 C -0.07008 0.03104 -0.05469
 C10 C 0.04843 0.08508 0.05151
 O11 O -0.02113 -0.09199 -0.05738
 O12 O -0.05742 -0.06835 -0.02774
 O13 O -0.04863 0.04787 -0.06521
 O14 O -0.07141 0.00373 -0.03029
 O15 O 0.02380 0.08393 0.05974
 O16 O 0.05989 0.06215 0.02830
 O17 O -0.00647 0.02081 -0.10615
 O18 O 0.00308 -0.04382 -0.10013
 O19 O -0.00253 0.03736 0.10103
 O20 O 0.01119 -0.02615 0.10363
 O21 O 0.04571 -0.05172 -0.07096
 O22 O 0.07283 -0.01356 -0.03639
 O23 O -0.01875 -0.08253 0.06937
 O24 O -0.05588 -0.06414 0.03848
 O25 O 0.05058 -0.04923 0.06725
 O26 O 0.07349 -0.00598 0.03167
 O27 O 0.02194 0.07417 -0.07271
 O28 O 0.05883 0.05657 -0.04122
 O29 O -0.01793 0.10674 0.04825
 O30 O -0.01938 0.09843 -0.06341
 O31 O 0.02422 -0.10969 -0.04777
 O32 O 0.02346 -0.10327 0.06136
 O33 O -0.01105 -0.06150 0.00399
 O34 O -0.03023 0.03728 -0.00207
 O35 O 0.03247 -0.04258 0.00085
 O36 O -0.02091 -0.00914 0.04981
 O37 O -0.07019 0.00730 0.03396
 O38 O -0.04676 0.05612 0.06166
 O39 O 0.02506 0.01093 0.04658
 O40 O 0.02323 0.00377 -0.05058
 O41 O 0.01295 0.05535 -0.00471
 O42 O -0.02291 -0.01595 -0.04736
 Zr43 Zr -0.00738 0.04720 0.04429
 Zr44 Zr 0.00914 -0.05226 -0.04456
 Zr45 Zr -0.04196 -0.02126 0.00240
 Zr46 Zr 0.01128 -0.04566 0.04934
 Zr47 Zr -0.00883 0.04026 -0.05083
 Zr48 Zr 0.04455 0.01579 -0.00335
 H49 H 0.04719 -0.06147 0.00086
 H50 H -0.03157 -0.01234 0.07224
 H51 H 0.01854 0.08300 -0.00669
 H52 H -0.03484 -0.02212 -0.06788
 H53 H -0.02474 0.11392 0.02382
 H54 H -0.02080 0.11191 -0.03959
 H55 H 0.02659 -0.11578 0.03739
 H56 H 0.01873 -0.12275 -0.02486
 C57 C 0.25431 0.25244 0.13214
 C58 C 0.25082 0.24687 0.37015
 C59 C 0.20497 0.34141 0.19530
 C60 C 0.17923 0.21938 0.19263
 C61 C 0.20379 0.33935 0.30723
 C62 C 0.31878 0.28228 0.31065
 C63 C 0.29343 0.16588 0.30974
 C64 C 0.32006 0.28505 0.19528
 C65 C 0.17763 0.21748 0.30475
 C66 C 0.29481 0.16816 0.19165
 O67 O 0.22830 0.33617 0.31589
 O68 O 0.19182 0.31764 0.28363
 O69 O 0.19883 0.19876 0.31336
 O70 O 0.17657 0.24632 0.28190
 O71 O 0.27011 0.17036 0.18408
 O72 O 0.30657 0.18862 0.21637
 O73 O 0.24262 0.21672 0.35262
 O74 O 0.25627 0.28019 0.35541
 O75 O 0.24575 0.22145 0.14804
 O76 O 0.25900 0.28521 0.14825
 O77 O 0.29750 0.30099 0.31892
 O78 O 0.32037 0.25517 0.28625
 O79 O 0.22969 0.33868 0.18766
 O80 O 0.19258 0.31893 0.21784
 O81 O 0.29894 0.30409 0.18688
 O82 O 0.32116 0.25694 0.21889
 O83 O 0.26856 0.16783 0.31647
 O84 O 0.30562 0.18711 0.28594
 O85 O 0.22755 0.14891 0.19290
 O86 O 0.22661 0.14593 0.30285
 O87 O 0.27098 0.35489 0.31019
 O88 O 0.27239 0.35771 0.19789
 O89 O 0.23800 0.31136 0.25186
 O90 O 0.21676 0.21331 0.24950
 O91 O 0.28057 0.29087 0.25245
 O92 O 0.22687 0.26402 0.20175
 O93 O 0.17746 0.24754 0.21612
 O94 O 0.20066 0.20100 0.18478
 O95 O 0.27247 0.24235 0.20254
 O96 O 0.27125 0.24003 0.30008
 O97 O 0.25999 0.19306 0.25022
 O98 O 0.22563 0.26184 0.29946
 Zr99 Zr 0.23972 0.20694 0.20286
 Zr100 Zr 0.25835 0.29719 0.29979
 Zr101 Zr 0.20619 0.27250 0.25028
 Zr102 Zr 0.25947 0.29948 0.20444
 Zr103 Zr 0.23845 0.20477 0.29702
 Zr104 Zr 0.29176 0.23185 0.25156
 H105 H 0.29547 0.30939 0.25309
 H106 H 0.21627 0.26950 0.17966
 H107 H 0.26515 0.16514 0.24993
 H108 H 0.21447 0.26656 0.32116
 H109 H 0.22745 0.13590 0.21705
 H110 H 0.21868 0.13869 0.27913
 H111 H 0.27081 0.36976 0.22236
 H112 H 0.27357 0.36690 0.28585
 C113 C 0.49427 0.01114 0.11864
 C114 C 0.50278 -0.00979 -0.11942
 C115 C 0.54522 0.09372 0.05178
 C116 C 0.56981 -0.02725 0.06122
 C117 C 0.54714 0.08530 -0.06084
 C118 C 0.43271 0.02802 -0.06653
 C119 C 0.45515 -0.08534 -0.05480
 C120 C 0.42948 0.04056 0.05271
 C121 C 0.57208 -0.03701 -0.05075
 C122 C 0.45306 -0.07650 0.06337
 O123 O 0.52252 0.08207 -0.06885
 O124 O 0.55883 0.06443 -0.03614
 O125 O 0.55084 -0.05639 -0.05806
 O126 O 0.57316 -0.00689 -0.02943
 O127 O 0.47785 -0.07397 0.07074
 O128 O 0.44162 -0.05685 0.03748
 O129 O 0.50810 -0.03940 -0.09896
 O130 O 0.49775 0.02470 -0.10670
 O131 O 0.50250 -0.02116 0.10479
 O132 O 0.49000 0.04281 0.10031
 O133 O 0.45548 0.04066 -0.07656
 O134 O 0.42857 0.00905 -0.03631
 O135 O 0.52034 0.09237 0.05873
 O136 O 0.55751 0.06992 0.03037
 O137 O 0.45068 0.05991 0.05993
 O138 O 0.42809 0.01129 0.03062
 O139 O 0.48020 -0.08510 -0.06072
 O140 O 0.44299 -0.06203 -0.03282
 O141 O 0.51992 -0.09724 0.06376
 O142 O 0.52244 -0.10759 -0.04509
 O143 O 0.47807 0.09988 -0.06520
 O144 O 0.47785 0.11223 0.04548
 O145 O 0.51232 0.06138 -0.00453
 O146 O 0.53240 -0.03678 0.00450
 O147 O 0.46947 0.04219 -0.00499
 O148 O 0.52233 0.01734 0.04861
 O149 O 0.57183 -0.00106 0.03588
 O150 O 0.54809 -0.04449 0.07031
 O151 O 0.47643 -0.00314 0.04815
 O152 O 0.47870 -0.01254 -0.04875
 O153 O 0.48859 -0.05555 0.00411
 O154 O 0.52476 0.00803 -0.04846
 Zr155 Zr 0.50889 -0.03931 0.05091
 Zr156 Zr 0.49258 0.04380 -0.05191
 Zr157 Zr 0.54364 0.02206 0.00013
 Zr158 Zr 0.49016 0.05334 0.04312
 Zr159 Zr 0.51101 -0.04829 -0.04273
 Zr160 Zr 0.45709 -0.01602 -0.00052
 H161 H 0.45485 0.06106 -0.00760
 H162 H 0.53275 0.02389 0.07059
 H163 H 0.48298 -0.08320 0.00596
 H164 H 0.53637 0.01122 -0.06993
 H165 H 0.52833 -0.10760 0.04140
 H166 H 0.52003 -0.11795 -0.02007
 H167 H 0.48086 0.12288 0.02068
 H168 H 0.47903 0.11515 -0.04229
 C169 C 0.75529 0.25228 0.13151
 C170 C 0.74510 0.24841 0.36970
 C171 C 0.70647 0.34128 0.19338
 C172 C 0.67940 0.22113 0.19121
 C173 C 0.70465 0.33957 0.30629
 C174 C 0.81883 0.27909 0.31149
 C175 C 0.79255 0.16458 0.30996
 C176 C 0.82092 0.28247 0.19557
 C177 C 0.67721 0.21841 0.30277
 C178 C 0.79509 0.16739 0.19077
 O179 O 0.72919 0.33627 0.31476
 O180 O 0.69262 0.31822 0.28246
 O181 O 0.69806 0.19866 0.31105
 O182 O 0.67664 0.24753 0.28018
 O183 O 0.77039 0.16993 0.18296
 O184 O 0.80666 0.18714 0.21615
 O185 O 0.73901 0.21732 0.35187
 O186 O 0.75362 0.28033 0.35503
 O187 O 0.74637 0.22131 0.14711
 O188 O 0.76031 0.28477 0.14791
 O189 O 0.79762 0.29792 0.31987
 O190 O 0.82042 0.25254 0.28659
 O191 O 0.73125 0.33822 0.18625
 O192 O 0.69384 0.31947 0.21621
 O193 O 0.80007 0.30201 0.18693
 O194 O 0.82166 0.25454 0.21936
 O195 O 0.76775 0.16750 0.31685
 O196 O 0.80494 0.18492 0.28572
 O197 O 0.72727 0.14878 0.19158
 O198 O 0.72625 0.14529 0.30163
 O199 O 0.77276 0.35307 0.31015
 O200 O 0.77425 0.35668 0.19847
 O201 O 0.73891 0.31118 0.25126
 O202 O 0.71670 0.21345 0.24825
 O203 O 0.78123 0.28940 0.25243
 O204 O 0.72768 0.26395 0.20078
 O205 O 0.67800 0.24911 0.21480
 O206 O 0.70061 0.20203 0.18330
 O207 O 0.77291 0.24130 0.20231
 O208 O 0.77110 0.23865 0.30010
 O209 O 0.75965 0.19206 0.24952
 O210 O 0.72573 0.26160 0.29804
 Zr211 Zr 0.73986 0.20654 0.20182
 Zr212 Zr 0.75876 0.29614 0.29945
 Zr213 Zr 0.70681 0.27297 0.24897
 Zr214 Zr 0.76055 0.29874 0.20414
 Zr215 Zr 0.73795 0.20422 0.29611
 Zr216 Zr 0.79175 0.23015 0.25155
 H217 H 0.79636 0.30749 0.25340
 H218 H 0.71730 0.26968 0.17855
 H219 H 0.76465 0.16406 0.24924
 H220 H 0.71398 0.26679 0.31899
 H221 H 0.72688 0.13575 0.21572
 H222 H 0.71823 0.13821 0.27792
 H223 H 0.77122 0.36914 0.22250
 H224 H 0.77551 0.36517 0.28588
 C225 C 0.00299 0.50953 0.11924
 C226 C 0.00311 0.48926 -0.11913
 C227 C -0.04373 0.41431 0.06134
 C228 C -0.07074 0.53612 0.05232
 C229 C -0.04392 0.40777 -0.05294
 C230 C 0.07115 0.46501 -0.05532
 C231 C 0.04564 0.58078 -0.06425
 C232 C 0.07064 0.47364 0.06079
 C233 C -0.07027 0.52944 -0.05644
 C234 C 0.04506 0.58862 0.05480
 O235 O -0.01884 0.40942 -0.05891
 O236 O -0.05619 0.43111 -0.03087
 O237 O -0.04894 0.54699 -0.06639
 O238 O -0.07148 0.50180 -0.03242
 O239 O 0.02025 0.58658 0.06196
 O240 O 0.05715 0.56681 0.03139
 O241 O -0.00534 0.52204 -0.10588
 O242 O 0.00958 0.45983 -0.09917
 O243 O -0.00597 0.53927 0.10147
 O244 O 0.00894 0.47641 0.10480
 O245 O 0.05017 0.44489 -0.06209
 O246 O 0.07232 0.49410 -0.03289
 O247 O -0.01919 0.41840 0.06959
 O248 O -0.05591 0.43430 0.03660
 O249 O 0.04954 0.45494 0.06986
 O250 O 0.07208 0.49928 0.03491
 O251 O 0.02093 0.57700 -0.07149
 O252 O 0.05752 0.56200 -0.03833
 O253 O -0.02197 0.60761 0.04758
 O254 O -0.02115 0.59854 -0.06429
 O255 O 0.02461 0.39109 -0.04633
 O256 O 0.02356 0.39977 0.06343
 O257 O -0.01035 0.43934 0.00431
 O258 O -0.03150 0.53711 -0.00286
 O259 O 0.03255 0.46118 0.00329
 O260 O -0.02251 0.49158 0.04945
 O261 O -0.07169 0.50568 0.03147
 O262 O -0.04962 0.55542 0.06003
 O263 O 0.02303 0.51400 0.04831
 O264 O 0.02372 0.50633 -0.04910
 O265 O 0.01094 0.55815 -0.00375
 O266 O -0.02183 0.48418 -0.04792
 Zr267 Zr -0.00994 0.54864 0.04449
 Zr268 Zr 0.01098 0.44930 -0.04329
 Zr269 Zr -0.04215 0.47803 0.00106
 Zr270 Zr 0.01042 0.45672 0.05066
 Zr271 Zr -0.00925 0.54119 -0.05075
 Zr272 Zr 0.04316 0.52033 -0.00083
 H273 H 0.04762 0.44298 0.00455
 H274 H -0.03354 0.48785 0.07144
 H275 H 0.01597 0.58607 -0.00543
 H276 H -0.03278 0.47773 -0.06941
 H277 H -0.02835 0.61429 0.02281
 H278 H -0.02318 0.61227 -0.04066
 H279 H 0.02817 0.38767 0.03974
 H280 H 0.02032 0.37919 -0.02240
 C281 C 0.25317 0.75213 0.13183
 C282 C 0.25259 0.74684 0.37001
 C283 C 0.20507 0.84107 0.19656
 C284 C 0.17895 0.71909 0.19414
 C285 C 0.20471 0.83853 0.30828
 C286 C 0.31992 0.78213 0.30883
 C287 C 0.29472 0.66504 0.30806
 C288 C 0.31995 0.78582 0.19391
 C289 C 0.17880 0.71666 0.30579
 C290 C 0.29472 0.66738 0.19053
 O291 O 0.22935 0.83554 0.31638
 O292 O 0.19262 0.81684 0.28483
 O293 O 0.20007 0.69777 0.31380
 O294 O 0.17756 0.74571 0.28323
 O295 O 0.26994 0.66974 0.18330
 O296 O 0.30673 0.68807 0.21488
 O297 O 0.24456 0.71645 0.35266
 O298 O 0.25776 0.78013 0.35508
 O299 O 0.24500 0.72096 0.14782
 O300 O 0.25808 0.78480 0.14795
 O301 O 0.29866 0.80059 0.31767
 O302 O 0.32134 0.75497 0.28443
 O303 O 0.22967 0.83839 0.18845
 O304 O 0.19285 0.81845 0.21915
 O305 O 0.29862 0.80432 0.18569
 O306 O 0.32139 0.75741 0.21724
 O307 O 0.26993 0.66699 0.31528
 O308 O 0.30673 0.68661 0.28432
 O309 O 0.22783 0.64806 0.19378
 O310 O 0.22745 0.64580 0.30456
 O311 O 0.27215 0.85448 0.30929
 O312 O 0.27220 0.85716 0.19682
 O313 O 0.23851 0.81091 0.25196
 O314 O 0.21739 0.71274 0.25003
 O315 O 0.28105 0.79041 0.25163
 O316 O 0.22683 0.76349 0.20209
 O317 O 0.17760 0.74705 0.21785
 O318 O 0.20030 0.70085 0.18537
 O319 O 0.27251 0.74185 0.20174
 O320 O 0.27241 0.73962 0.29941
 O321 O 0.26055 0.69269 0.24971
 O322 O 0.22672 0.76126 0.29989
 Zr323 Zr 0.23971 0.70640 0.20276
 Zr324 Zr 0.25934 0.79675 0.29943
 Zr325 Zr 0.20680 0.77192 0.25111
 Zr326 Zr 0.25946 0.79894 0.20410
 Zr327 Zr 0.23961 0.70428 0.29712
 Zr328 Zr 0.29239 0.73147 0.25036
 H329 H 0.29586 0.80909 0.25199
 H330 H 0.21594 0.76909 0.18030
 H331 H 0.26570 0.66477 0.24919
 H332 H 0.21575 0.76586 0.32180
 H333 H 0.22055 0.63899 0.21737
 H334 H 0.22698 0.63426 0.27981
 H335 H 0.27239 0.86875 0.22158
 H336 H 0.27275 0.86718 0.28500
 C337 C 0.49694 0.50116 0.11999
 C338 C 0.49766 0.49894 -0.11822
 C339 C 0.54436 0.59191 0.05682
 C340 C 0.57162 0.47096 0.05669
 C341 C 0.54482 0.59090 -0.05632
 C342 C 0.43020 0.53269 -0.05726
 C343 C 0.45649 0.41609 -0.05812
 C344 C 0.42991 0.53316 0.05788
 C345 C 0.57195 0.47012 -0.05414
 C346 C 0.45594 0.41704 0.06044
 O347 O 0.52022 0.58747 -0.06445
 O348 O 0.55701 0.56953 -0.03264
 O349 O 0.55087 0.45103 -0.06269
 O350 O 0.57282 0.49882 -0.03123
 O351 O 0.48073 0.41961 0.06770
 O352 O 0.44394 0.43745 0.03583
 O353 O 0.50631 0.46865 -0.10124
 O354 O 0.49208 0.53194 -0.10305
 O355 O 0.50561 0.47055 0.10359
 O356 O 0.49154 0.53392 0.10419
 O357 O 0.45130 0.55171 -0.06570
 O358 O 0.42899 0.50506 -0.03322
 O359 O 0.51975 0.58855 0.06484
 O360 O 0.55670 0.57019 0.03361
 O361 O 0.45093 0.55239 0.06622
 O362 O 0.42879 0.50538 0.03404
 O363 O 0.48130 0.41863 -0.06510
 O364 O 0.44428 0.43684 -0.03398
 O365 O 0.52367 0.39888 0.05758
 O366 O 0.52366 0.39757 -0.05265
 O367 O 0.47733 0.60586 -0.05653
 O368 O 0.47677 0.60671 0.05588
 O369 O 0.51111 0.56233 0.00038
 O370 O 0.53323 0.46454 0.00135
 O371 O 0.46885 0.54061 0.00033
 O372 O 0.52320 0.51418 0.04974
 O373 O 0.57259 0.49950 0.03359
 O374 O 0.55053 0.45184 0.06519
 O375 O 0.47780 0.49154 0.04957
 O376 O 0.47813 0.49074 -0.04801
 O377 O 0.49027 0.44319 0.00126
 O378 O 0.52349 0.51338 -0.04805
 Zr379 Zr 0.51089 0.45680 0.04845
 Zr380 Zr 0.49056 0.54819 -0.04732
 Zr381 Zr 0.54317 0.52402 0.00083
 Zr382 Zr 0.49026 0.54895 0.04810
 Zr383 Zr 0.51124 0.45601 -0.04585
 Zr384 Zr 0.45811 0.48136 0.00071
 H385 H 0.45381 0.55891 0.00016
 H386 H 0.53401 0.51961 0.07163
 H387 H 0.48532 0.41518 0.00141
 H388 H 0.53442 0.51846 -0.06991
 H389 H 0.52346 0.38614 0.03333
 H390 H 0.53153 0.38993 -0.02897
 H391 H 0.47712 0.61893 0.03137
 H392 H 0.47661 0.61816 -0.03210
 C393 C 0.75375 0.76643 0.13201
 C394 C 0.74853 0.73436 0.36886
 C395 C 0.70528 0.84537 0.20065
 C396 C 0.67892 0.72548 0.19025
 C397 C 0.70473 0.83430 0.31319
 C398 C 0.81896 0.77460 0.31269
 C399 C 0.79291 0.66028 0.30367
 C400 C 0.82029 0.78732 0.19801
 C401 C 0.67729 0.71361 0.30062
 C402 C 0.79447 0.67224 0.18471
 O403 O 0.72907 0.82941 0.32202
 O404 O 0.69264 0.81515 0.28787
 O405 O 0.69814 0.69315 0.30727
 O406 O 0.67664 0.74457 0.28039
 O407 O 0.77004 0.67673 0.17628
 O408 O 0.80612 0.68961 0.21153
 O409 O 0.74080 0.70603 0.34845
 O410 O 0.75516 0.76852 0.35699
 O411 O 0.74517 0.73324 0.14387
 O412 O 0.75947 0.79573 0.15249
 O413 O 0.79766 0.79215 0.32281
 O414 O 0.82045 0.74996 0.28604
 O415 O 0.73025 0.84382 0.19393
 O416 O 0.69292 0.82145 0.22188
 O417 O 0.79952 0.80804 0.19144
 O418 O 0.82106 0.75724 0.21927
 O419 O 0.76790 0.66149 0.30969
 O420 O 0.80519 0.68280 0.28105
 O421 O 0.72750 0.65545 0.18169
 O422 O 0.72594 0.64061 0.29131
 O423 O 0.77192 0.84679 0.31942
 O424 O 0.77366 0.86169 0.20934
 O425 O 0.73845 0.81082 0.25691
 O426 O 0.71672 0.71374 0.24487
 O427 O 0.78095 0.78906 0.25588
 O428 O 0.72732 0.76886 0.20242
 O429 O 0.67754 0.75143 0.21581
 O430 O 0.70026 0.70798 0.18019
 O431 O 0.77272 0.74651 0.20157
 O432 O 0.77091 0.73381 0.29858
 O433 O 0.75946 0.69248 0.24420
 O434 O 0.72556 0.75659 0.29929
 Zr435 Zr 0.73973 0.71187 0.19767
 Zr436 Zr 0.75856 0.79099 0.30328
 Zr437 Zr 0.70655 0.77273 0.25122
 Zr438 Zr 0.76006 0.80339 0.20907
 Zr439 Zr 0.73789 0.69972 0.29181
 Zr440 Zr 0.79154 0.73015 0.24971
 H441 H 0.79601 0.80714 0.25808
 H442 H 0.71670 0.77648 0.18093
 H443 H 0.76447 0.66461 0.24180
 H444 H 0.71423 0.75960 0.32106
 H445 H 0.72630 0.64013 0.20458
 H446 H 0.71757 0.63657 0.26721
 H447 H 0.76909 0.87206 0.23376
 H448 H 0.77596 0.86080 0.29643
 C449 C 0.00206 0.00677 0.38048
 C450 C -0.00176 -0.00938 0.61913
 C451 C -0.07249 0.03404 0.44605
 C452 C -0.04546 -0.08741 0.44036
 C453 C -0.07215 0.03006 0.55600
 C454 C 0.04395 0.08089 0.56289
 C455 C 0.06916 -0.03312 0.55646
 C456 C 0.04315 0.08742 0.44350
 C457 C -0.04528 -0.09267 0.55230
 C458 C 0.06905 -0.02830 0.44019
 O459 O -0.05091 0.04825 0.56521
 O460 O -0.07329 0.00201 0.53235
 O461 O -0.02046 -0.09036 0.55962
 O462 O -0.05766 -0.06947 0.53032
 O463 O 0.04801 -0.04729 0.43142
 O464 O 0.07029 -0.00184 0.46530
 O465 O 0.00597 -0.03882 0.60018
 O466 O -0.00883 0.02380 0.60528
 O467 O 0.00762 -0.02615 0.39565
 O468 O -0.00706 0.03690 0.39749
 O469 O 0.01935 0.07721 0.57089
 O470 O 0.05566 0.06251 0.53673
 O471 O -0.05140 0.05336 0.43806
 O472 O -0.07342 0.00435 0.46781
 O473 O 0.01835 0.08534 0.43638
 O474 O 0.05522 0.06589 0.46719
 O475 O 0.04817 -0.05296 0.56389
 O476 O 0.07040 -0.00498 0.53301
 O477 O 0.02183 -0.10194 0.43847
 O478 O 0.02336 -0.10761 0.54918
 O479 O -0.02252 0.10022 0.56135
 O480 O -0.02402 0.10616 0.44948
 O481 O -0.03339 0.03707 0.50177
 O482 O -0.01205 -0.06082 0.49683
 O483 O 0.00902 0.05800 0.50241
 O484 O -0.02415 -0.00978 0.45030
 O485 O -0.05770 -0.06649 0.46429
 O486 O -0.02088 -0.08362 0.43215
 O487 O 0.02128 0.01268 0.45126
 O488 O 0.02176 0.00728 0.54902
 O489 O 0.03073 -0.03915 0.49760
 O490 O -0.02381 -0.01502 0.54778
 Zr491 Zr 0.00877 -0.04472 0.45015
 Zr492 Zr -0.01122 0.04215 0.54975
 Zr493 Zr -0.04390 -0.02212 0.49889
 Zr494 Zr -0.01173 0.04741 0.45421
 Zr495 Zr 0.00909 -0.04987 0.54443
 Zr496 Zr 0.04122 0.02010 0.50034
 H497 H 0.01410 0.08592 0.50369
 H498 H -0.03506 -0.01407 0.42829
 H499 H 0.04584 -0.05732 0.49695
 H500 H -0.03513 -0.02151 0.56890
 H501 H 0.02586 -0.11387 0.46247
 H502 H 0.02006 -0.11993 0.52517
 H503 H -0.03064 0.11339 0.47397
 H504 H -0.02532 0.11274 0.53728
 C505 C 0.25666 0.24751 0.87109
 C506 C 0.25248 0.24342 0.63256
 C507 C 0.18198 0.21152 0.80829
 C508 C 0.20638 0.33451 0.80877
 C509 C 0.17996 0.21090 0.69935
 C510 C 0.29604 0.16190 0.69322
 C511 C 0.32031 0.27970 0.69162
 C512 C 0.29892 0.16111 0.80724
 C513 C 0.20441 0.33317 0.69520
 C514 C 0.32207 0.28149 0.80713
 O515 O 0.20127 0.19274 0.69029
 O516 O 0.17891 0.23990 0.72192
 O517 O 0.22902 0.33098 0.68669
 O518 O 0.19298 0.31127 0.71925
 O519 O 0.30080 0.29992 0.81585
 O520 O 0.32336 0.25364 0.78335
 O521 O 0.25763 0.27673 0.64742
 O522 O 0.24493 0.21280 0.65006
 O523 O 0.26080 0.28035 0.85480
 O524 O 0.24909 0.21592 0.85526
 O525 O 0.27119 0.16340 0.68654
 O526 O 0.30822 0.18406 0.71622
 O527 O 0.20356 0.19370 0.81709
 O528 O 0.18031 0.24050 0.78586
 O529 O 0.27455 0.16311 0.81754
 O530 O 0.30959 0.18415 0.78359
 O531 O 0.29883 0.29805 0.68357
 O532 O 0.32223 0.25251 0.71592
 O533 O 0.27373 0.35286 0.80559
 O534 O 0.27174 0.35137 0.69315
 O535 O 0.22940 0.14135 0.69887
 O536 O 0.23178 0.14272 0.81128
 O537 O 0.21994 0.20778 0.75375
 O538 O 0.23965 0.30665 0.75136
 O539 O 0.26284 0.18861 0.75228
 O540 O 0.22937 0.25781 0.80136
 O541 O 0.19426 0.31209 0.78598
 O542 O 0.23118 0.33256 0.81601
 O543 O 0.27535 0.23761 0.80041
 O544 O 0.27334 0.23633 0.70232
 O545 O 0.28223 0.28702 0.75026
 O546 O 0.22759 0.25686 0.70342
 Zr547 Zr 0.26137 0.29443 0.79862
 Zr548 Zr 0.24100 0.20015 0.70568
 Zr549 Zr 0.20856 0.26676 0.75284
 Zr550 Zr 0.24318 0.20093 0.80048
 Zr551 Zr 0.25980 0.29322 0.70306
 Zr552 Zr 0.29404 0.22837 0.75069
 H553 H 0.26815 0.16076 0.75218
 H554 H 0.21863 0.26277 0.82342
 H555 H 0.29695 0.30588 0.74962
 H556 H 0.21617 0.26120 0.68191
 H557 H 0.27220 0.36506 0.78116
 H558 H 0.27292 0.36371 0.71753
 H559 H 0.22954 0.13042 0.78702
 H560 H 0.22452 0.13213 0.72359
 C561 C 0.49483 0.00919 0.38081
 C562 C 0.50082 -0.00799 0.61928
 C563 C 0.57045 -0.02636 0.44178
 C564 C 0.54339 0.09427 0.44613
 C565 C 0.57187 -0.03359 0.55091
 C566 C 0.45605 -0.08633 0.55635
 C567 C 0.43046 0.02789 0.56142
 C568 C 0.45507 -0.08045 0.43816
 C569 C 0.54474 0.08752 0.56061
 C570 C 0.42886 0.03591 0.44563
 O571 O 0.55093 -0.05336 0.55861
 O572 O 0.57256 -0.00316 0.52995
 O573 O 0.52024 0.08346 0.56899
 O574 O 0.55676 0.06770 0.53560
 O575 O 0.44971 0.05591 0.43799
 O576 O 0.42802 0.00697 0.46830
 O577 O 0.49381 0.02548 0.60602
 O578 O 0.50854 -0.03705 0.59981
 O579 O 0.48980 0.04086 0.39859
 O580 O 0.50341 -0.02267 0.39530
 O581 O 0.48098 -0.08441 0.56292
 O582 O 0.44385 -0.06473 0.53287
 O583 O 0.54919 -0.04453 0.43248
 O584 O 0.57169 0.00120 0.46581
 O585 O 0.47962 -0.07692 0.43003
 O586 O 0.44324 -0.06112 0.46361
 O587 O 0.45164 0.04626 0.57061
 O588 O 0.42886 0.00243 0.53555
 O589 O 0.47545 0.11007 0.45244
 O590 O 0.47708 0.10162 0.56358
 O591 O 0.52294 -0.10595 0.54705
 O592 O 0.52244 -0.09704 0.43639
 O593 O 0.53248 -0.03519 0.49659
 O594 O 0.51053 0.06226 0.50343
 O595 O 0.48970 -0.05679 0.49663
 O596 O 0.52203 0.01722 0.45116
 O597 O 0.55587 0.07175 0.46858
 O598 O 0.51858 0.09175 0.43901
 O599 O 0.47660 -0.00537 0.45116
 O600 O 0.47811 -0.01246 0.54878
 O601 O 0.46833 0.04039 0.50331
 O602 O 0.52353 0.01025 0.54860
 Zr603 Zr 0.48914 0.05188 0.45550
 Zr604 Zr 0.51110 -0.04688 0.54378
 Zr605 Zr 0.54260 0.02417 0.49999
 Zr606 Zr 0.50967 -0.04006 0.44963
 Zr607 Zr 0.49059 0.04488 0.55091
 Zr608 Zr 0.45764 -0.01872 0.49995
 H609 H 0.48477 -0.08478 0.49553
 H610 H 0.53261 0.02363 0.42927
 H611 H 0.45321 0.05847 0.50477
 H612 H 0.53492 0.01408 0.57021
 H613 H 0.47915 0.12162 0.47668
 H614 H 0.47387 0.11442 0.53974
 H615 H 0.52346 -0.11120 0.45993
 H616 H 0.53025 -0.11228 0.52272
 C617 C 0.75641 0.25279 0.87057
 C618 C 0.74670 0.24927 0.63236
 C619 C 0.68074 0.21999 0.80953
 C620 C 0.70737 0.34114 0.80878
 C621 C 0.67903 0.21767 0.69942
 C622 C 0.79470 0.16529 0.69245
 C623 C 0.82033 0.27961 0.69010
 C624 C 0.79612 0.16700 0.81100
 C625 C 0.70593 0.33967 0.69509
 C626 C 0.82219 0.28352 0.80776
 O627 O 0.70004 0.19834 0.69115
 O628 O 0.67828 0.24712 0.72160
 O629 O 0.73056 0.33664 0.68691
 O630 O 0.69392 0.31828 0.71898
 O631 O 0.80120 0.30291 0.81608
 O632 O 0.82316 0.25577 0.78373
 O633 O 0.75509 0.28126 0.64699
 O634 O 0.74096 0.21802 0.65021
 O635 O 0.76137 0.28538 0.85423
 O636 O 0.74770 0.22179 0.85487
 O637 O 0.76991 0.16828 0.68549
 O638 O 0.80708 0.18577 0.71662
 O639 O 0.70207 0.20158 0.81807
 O640 O 0.67935 0.24841 0.78632
 O641 O 0.77149 0.16989 0.81874
 O642 O 0.80804 0.18725 0.78616
 O643 O 0.79906 0.29839 0.68187
 O644 O 0.82216 0.25352 0.71551
 O645 O 0.77537 0.35741 0.80308
 O646 O 0.77429 0.35389 0.69232
 O647 O 0.72858 0.14574 0.70017
 O648 O 0.72887 0.14929 0.81063
 O649 O 0.71844 0.21385 0.75357
 O650 O 0.74024 0.31168 0.75071
 O651 O 0.76146 0.19280 0.75262
 O652 O 0.72898 0.26432 0.80112
 O653 O 0.69490 0.31939 0.78575
 O654 O 0.73218 0.33829 0.81594
 O655 O 0.77441 0.24194 0.79992
 O656 O 0.77293 0.23947 0.70221
 O657 O 0.78274 0.29013 0.74981
 O658 O 0.72737 0.26202 0.70388
 Zr659 Zr 0.76183 0.29933 0.79798
 Zr660 Zr 0.73990 0.20480 0.70593
 Zr661 Zr 0.70823 0.27324 0.75279
 Zr662 Zr 0.74138 0.20707 0.80014
 Zr663 Zr 0.76029 0.29684 0.70264
 Zr664 Zr 0.79359 0.23096 0.75085
 H665 H 0.76642 0.16480 0.75282
 H666 H 0.71843 0.26969 0.82327
 H667 H 0.79787 0.30823 0.74889
 H668 H 0.71559 0.26701 0.68292
 H669 H 0.77108 0.37025 0.77958
 H670 H 0.77731 0.36559 0.71667
 H671 H 0.72799 0.13643 0.78647
 H672 H 0.72102 0.13817 0.72405
 C673 C 0.00185 0.50942 0.38129
 C674 C 0.00155 0.49093 0.61965
 C675 C -0.07202 0.53643 0.44656
 C676 C -0.04569 0.41492 0.44052
 C677 C -0.07155 0.53016 0.55827
 C678 C 0.04447 0.58115 0.56351
 C679 C 0.06930 0.46451 0.55695
 C680 C 0.04413 0.58789 0.44517
 C681 C -0.04560 0.40831 0.55179
 C682 C 0.06909 0.47254 0.44027
 O683 O -0.05017 0.54782 0.56785
 O684 O -0.07291 0.50317 0.53363
 O685 O -0.02081 0.41004 0.55921
 O686 O -0.05782 0.43203 0.53018
 O687 O 0.04788 0.45410 0.43127
 O688 O 0.07064 0.49831 0.46595
 O689 O 0.00701 0.46068 0.60031
 O690 O -0.00608 0.52403 0.60625
 O691 O 0.00744 0.47624 0.39598
 O692 O -0.00694 0.53942 0.39879
 O693 O 0.01986 0.57785 0.57143
 O694 O 0.05629 0.56209 0.53789
 O695 O -0.05082 0.55568 0.43889
 O696 O -0.07310 0.50684 0.46849
 O697 O 0.01930 0.58634 0.43804
 O698 O 0.05607 0.56592 0.46867
 O699 O 0.04814 0.44486 0.56372
 O700 O 0.07071 0.49344 0.53418
 O701 O 0.02144 0.39963 0.43757
 O702 O 0.02244 0.39167 0.54820
 O703 O -0.02239 0.60000 0.56342
 O704 O -0.02289 0.60821 0.45240
 O705 O -0.03297 0.53852 0.50311
 O706 O -0.01219 0.44038 0.49678
 O707 O 0.00975 0.55834 0.50384
 O708 O -0.02397 0.49214 0.45107
 O709 O -0.05781 0.43583 0.46456
 O710 O -0.02111 0.41840 0.43224
 O711 O 0.02160 0.51388 0.45225
 O712 O 0.02216 0.50688 0.54974
 O713 O 0.03083 0.46102 0.49774
 O714 O -0.02351 0.48538 0.54861
 Zr715 Zr 0.00874 0.45678 0.45029
 Zr716 Zr -0.01062 0.54233 0.55103
 Zr717 Zr -0.04375 0.47956 0.49954
 Zr718 Zr -0.01122 0.54907 0.45564
 Zr719 Zr 0.00910 0.44999 0.54444
 Zr720 Zr 0.04178 0.51998 0.50137
 H721 H 0.01495 0.58620 0.50524
 H722 H -0.03493 0.48823 0.42904
 H723 H 0.04579 0.44260 0.49673
 H724 H -0.03451 0.47881 0.57005
 H725 H 0.02571 0.38730 0.46131
 H726 H 0.01926 0.38010 0.52383
 H727 H -0.03073 0.61430 0.47647
 H728 H -0.02393 0.61345 0.53957
 C729 C 0.25212 0.75387 0.87070
 C730 C 0.25335 0.74803 0.63231
 C731 C 0.17860 0.71795 0.80594
 C732 C 0.20299 0.84251 0.80346
 C733 C 0.17936 0.71616 0.69631
 C734 C 0.29567 0.66686 0.69510
 C735 C 0.32008 0.78469 0.69408
 C736 C 0.29483 0.66948 0.81228
 C737 C 0.20443 0.83859 0.69307
 C738 C 0.31871 0.78639 0.81020
 O739 O 0.20083 0.69780 0.68828
 O740 O 0.17786 0.74548 0.71838
 O741 O 0.22918 0.83638 0.68552
 O742 O 0.19234 0.81647 0.71620
 O743 O 0.29741 0.80553 0.81773
 O744 O 0.32045 0.75865 0.78646
 O745 O 0.25826 0.78141 0.64723
 O746 O 0.24538 0.71755 0.64964
 O747 O 0.25662 0.78683 0.85476
 O748 O 0.24431 0.72264 0.85454
 O749 O 0.27093 0.66838 0.68758
 O750 O 0.30734 0.68889 0.71877
 O751 O 0.20004 0.70054 0.81563
 O752 O 0.17732 0.74630 0.78261
 O753 O 0.27004 0.67160 0.81942
 O754 O 0.30677 0.69029 0.78793
 O755 O 0.29878 0.80295 0.68504
 O756 O 0.32141 0.75773 0.71879
 O757 O 0.27068 0.85946 0.80514
 O758 O 0.27169 0.85618 0.69295
 O759 O 0.22901 0.64639 0.69775
 O760 O 0.22805 0.64944 0.80986
 O761 O 0.21774 0.71327 0.75190
 O762 O 0.23787 0.81202 0.74997
 O763 O 0.26081 0.69413 0.75293
 O764 O 0.22601 0.76453 0.80006
 O765 O 0.19199 0.81855 0.78100
 O766 O 0.22727 0.84029 0.81407
 O767 O 0.27184 0.74403 0.80078
 O768 O 0.27278 0.74127 0.70305
 O769 O 0.28045 0.79243 0.75131
 O770 O 0.22703 0.76199 0.70194
 Zr771 Zr 0.25818 0.80105 0.79861
 Zr772 Zr 0.24028 0.70526 0.70511
 Zr773 Zr 0.20673 0.77212 0.75039
 Zr774 Zr 0.23959 0.70771 0.79964
 Zr775 Zr 0.25934 0.79822 0.70290
 Zr776 Zr 0.29222 0.73356 0.75243
 H777 H 0.26618 0.66631 0.75357
 H778 H 0.21467 0.76990 0.82145
 H779 H 0.29526 0.81113 0.75116
 H780 H 0.21612 0.76629 0.67991
 H781 H 0.26900 0.87152 0.78066
 H782 H 0.27358 0.86824 0.71736
 H783 H 0.22605 0.63728 0.78550
 H784 H 0.22348 0.63715 0.72219
 C785 C 0.49583 0.50000 0.38192
 C786 C 0.49688 0.49786 0.62011
 C787 C 0.57033 0.46871 0.44467
 C788 C 0.54385 0.58933 0.44400
 C789 C 0.57085 0.46797 0.55621
 C790 C 0.45518 0.41514 0.55971
 C791 C 0.42967 0.53214 0.55994
 C792 C 0.45454 0.41592 0.44248
 C793 C 0.54442 0.58860 0.55817
 C794 C 0.42913 0.53242 0.44371
 O795 O 0.54967 0.44915 0.56477
 O796 O 0.57191 0.49652 0.53304
 O797 O 0.51978 0.58571 0.56608
 O798 O 0.55651 0.56730 0.53437
 O799 O 0.45024 0.55145 0.43538
 O800 O 0.42783 0.50492 0.46787
 O801 O 0.49154 0.53092 0.60483
 O802 O 0.50519 0.46736 0.60319
 O803 O 0.49067 0.53282 0.39768
 O804 O 0.50416 0.46918 0.39840
 O805 O 0.47998 0.41736 0.56686
 O806 O 0.44305 0.43634 0.53585
 O807 O 0.54911 0.44986 0.43640
 O808 O 0.57158 0.49710 0.46787
 O809 O 0.47928 0.41824 0.43492
 O810 O 0.44264 0.43680 0.46677
 O811 O 0.45088 0.55102 0.56796
 O812 O 0.42816 0.50470 0.53576
 O813 O 0.47622 0.60570 0.44637
 O814 O 0.47718 0.60495 0.55804
 O815 O 0.52226 0.39605 0.55486
 O816 O 0.52208 0.39729 0.44448
 O817 O 0.53210 0.46274 0.50053
 O818 O 0.51056 0.56085 0.50128
 O819 O 0.48899 0.44217 0.50084
 O820 O 0.52220 0.51250 0.45211
 O821 O 0.55613 0.56783 0.46751
 O822 O 0.51917 0.58650 0.43638
 O823 O 0.47669 0.49051 0.45243
 O824 O 0.47719 0.48977 0.55002
 O825 O 0.46802 0.53984 0.50156
 O826 O 0.52267 0.51177 0.54975
 Zr827 Zr 0.48946 0.54773 0.45376
 Zr828 Zr 0.51009 0.45460 0.54783
 Zr829 Zr 0.54241 0.52209 0.50083
 Zr830 Zr 0.50960 0.45534 0.45355
 Zr831 Zr 0.48994 0.54702 0.54904
 Zr832 Zr 0.45703 0.48079 0.50140
 H833 H 0.48396 0.41420 0.50078
 H834 H 0.53297 0.51764 0.43012
 H835 H 0.45304 0.55825 0.50174
 H836 H 0.53362 0.51666 0.57161
 H837 H 0.47863 0.61861 0.47031
 H838 H 0.47482 0.61641 0.53342
 H839 H 0.52216 0.38469 0.46882
 H840 H 0.52997 0.38822 0.53116
 C841 C 0.75479 0.76571 0.86876
 C842 C 0.74994 0.73449 0.63197
 C843 C 0.67999 0.72458 0.81022
 C844 C 0.70643 0.84420 0.80129
 C845 C 0.67853 0.71346 0.70002
 C846 C 0.79408 0.65967 0.69753
 C847 C 0.82022 0.77448 0.68774
 C848 C 0.79555 0.67108 0.81553
 C849 C 0.70595 0.83365 0.68688
 C850 C 0.82105 0.78589 0.80487
 O851 O 0.69941 0.69307 0.69338
 O852 O 0.67785 0.74438 0.72024
 O853 O 0.73035 0.82890 0.67836
 O854 O 0.69384 0.81487 0.71252
 O855 O 0.80033 0.80689 0.81066
 O856 O 0.82216 0.75644 0.78284
 O857 O 0.75658 0.76861 0.64387
 O858 O 0.74221 0.70611 0.65237
 O859 O 0.76048 0.79510 0.84832
 O860 O 0.74631 0.73250 0.85684
 O861 O 0.76909 0.66111 0.69141
 O862 O 0.80647 0.68241 0.71982
 O863 O 0.70135 0.70709 0.82030
 O864 O 0.67864 0.75075 0.78477
 O865 O 0.77117 0.67581 0.82415
 O866 O 0.80730 0.68871 0.78890
 O867 O 0.79888 0.79207 0.67783
 O868 O 0.82184 0.75000 0.71462
 O869 O 0.77500 0.86102 0.79079
 O870 O 0.77318 0.84695 0.68208
 O871 O 0.72711 0.64055 0.70932
 O872 O 0.72865 0.65479 0.81893
 O873 O 0.71791 0.71346 0.75579
 O874 O 0.73962 0.81060 0.74394
 O875 O 0.76073 0.69225 0.75650
 O876 O 0.72848 0.76822 0.79828
 O877 O 0.69406 0.82088 0.77950
 O878 O 0.73143 0.84271 0.80767
 O879 O 0.77386 0.74591 0.79914
 O880 O 0.77225 0.73369 0.70227
 O881 O 0.78233 0.78877 0.74507
 O882 O 0.72687 0.75648 0.70156
 Zr883 Zr 0.76122 0.80280 0.79176
 Zr884 Zr 0.73917 0.69961 0.70895
 Zr885 Zr 0.70769 0.77250 0.74952
 Zr886 Zr 0.74089 0.71126 0.80300
 Zr887 Zr 0.75988 0.79090 0.69765
 Zr888 Zr 0.79294 0.72987 0.75112
 H889 H 0.76564 0.66433 0.75883
 H890 H 0.71783 0.77552 0.81983
 H891 H 0.79747 0.80675 0.74310
 H892 H 0.71559 0.75945 0.67972
 H893 H 0.76891 0.87203 0.76725
 H894 H 0.77766 0.86041 0.70517
 H895 H 0.72754 0.63951 0.79604
 H896 H 0.71879 0.63640 0.73345
 C897 C 0.00020 0.02389 0.22064
 C898 C 0.02389 0.00849 0.23149
 C899 C 0.04238 -0.00600 0.20719
 C900 C 0.03616 -0.00515 0.17002
 C901 C 0.01188 0.01024 0.15774
 C902 C -0.00627 0.02569 0.18334
 O903 O -0.01513 0.03348 0.24879
 C904 C -0.00075 0.02376 0.27786
 C905 C 0.02328 0.00843 0.26845
 C906 C 0.04099 -0.00608 0.29384
 C907 C 0.03359 -0.00531 0.33057
 C908 C 0.00889 0.00990 0.34142
 C909 C -0.00844 0.02541 0.31474
 H910 H 0.06069 -0.01848 0.21659
 H911 H 0.05016 -0.01698 0.15066
 H912 H -0.02514 0.03685 0.17466
 H913 H 0.05961 -0.01844 0.28558
 H914 H 0.04705 -0.01705 0.35072
 H915 H -0.02756 0.03656 0.32228
 C916 C 0.25898 0.26749 0.02991
 C917 C 0.27133 0.23308 0.02066
 C918 C 0.27921 0.20538 0.04608
 C919 C 0.27382 0.21307 0.08274
 C920 C 0.26083 0.24800 0.09331
 C921 C 0.25374 0.27613 0.06664
 O922 O 0.25161 0.28826 0.00086
 C923 C 0.25941 0.26626 -0.02713
 C924 C 0.27159 0.23227 -0.01619
 C925 C 0.27975 0.20346 -0.04029
 C926 C 0.27494 0.20962 -0.07739
 C927 C 0.26229 0.24417 -0.08968
 C928 C 0.25480 0.27339 -0.06430
 H929 H 0.28859 0.17834 0.03792
 H930 H 0.27952 0.19153 0.10301
 H931 H 0.24345 0.30268 0.07407
 H932 H 0.28894 0.17676 -0.03081
 H933 H 0.28089 0.18726 -0.09664
 H934 H 0.24474 0.29969 -0.07304
 C935 C 0.10496 0.13601 0.09849
 C936 C 0.09204 0.16715 0.11414
 C937 C 0.06550 0.17412 0.10882
 C938 C 0.05158 0.14757 0.08701
 C939 C 0.06429 0.11476 0.07095
 C940 C 0.09155 0.10935 0.07637
 O941 O 0.13002 0.13396 0.10816
 C942 C 0.13290 0.16437 0.13039
 C943 C 0.11026 0.18561 0.13499
 C944 C 0.10872 0.21791 0.15803
 C945 C 0.13149 0.22886 0.17702
 C946 C 0.15521 0.20751 0.17271
 C947 C 0.15575 0.17477 0.14889
 H948 H 0.05572 0.19869 0.12158
 H949 H 0.03076 0.15228 0.08316
 H950 H 0.10174 0.08431 0.06510
 H951 H 0.09059 0.23398 0.16141
 H952 H 0.13060 0.25397 0.19500
 H953 H 0.17336 0.15755 0.14502
 C954 C 0.36903 0.33798 0.13496
 C955 C 0.39201 0.32031 0.14566
 C956 C 0.39282 0.29063 0.17165
 C957 C 0.36899 0.27880 0.18742
 C958 C 0.34492 0.29681 0.17719
 C959 C 0.34510 0.32674 0.15029
 O960 O 0.37260 0.36615 0.11042
 C961 C 0.39842 0.36632 0.10558
 C962 C 0.41121 0.33889 0.12655
 C963 C 0.43835 0.33491 0.12660
 C964 C 0.45290 0.36037 0.10430
 C965 C 0.44021 0.38904 0.08234
 C966 C 0.41247 0.39171 0.08296
 H967 H 0.41116 0.27726 0.17976
 H968 H 0.36942 0.25594 0.20793
 H969 H 0.32724 0.34129 0.14183
 H970 H 0.44801 0.31331 0.14357
 H971 H 0.47407 0.35786 0.10436
 H972 H 0.40211 0.41356 0.06708
 C973 C 0.35216 0.11987 0.14480
 C974 C 0.33939 0.09187 0.12454
 C975 C 0.31243 0.08644 0.12586
 C976 C 0.29795 0.11119 0.14876
 C977 C 0.31061 0.14056 0.16983
 C978 C 0.33821 0.14459 0.16800
 O979 O 0.37780 0.12095 0.13861
 C980 C 0.38124 0.09302 0.11390
 C981 C 0.35836 0.07434 0.10444
 C982 C 0.35732 0.04470 0.07857
 C983 C 0.38089 0.03378 0.06174
 C984 C 0.40488 0.05263 0.07088
 C985 C 0.40492 0.08271 0.09749
 H986 H 0.30283 0.06434 0.10945
 H987 H 0.27686 0.10768 0.14975
 H988 H 0.34843 0.16707 0.18321
 H989 H 0.33902 0.03060 0.07147
 H990 H 0.38032 0.01073 0.04147
 H991 H 0.42277 0.09776 0.10516
 C992 C 0.14788 0.39561 0.15364
 C993 C 0.16070 0.42427 0.13419
 C994 C 0.18783 0.42838 0.13463
 C995 C 0.20232 0.40158 0.15564
 C996 C 0.18953 0.37147 0.17568
 C997 C 0.16182 0.36898 0.17493
 O998 O 0.12221 0.39519 0.14793
 C999 C 0.11871 0.42416 0.12428
 C1000 C 0.14160 0.44299 0.11502
 C1001 C 0.14251 0.47296 0.08931
 C1002 C 0.11891 0.48363 0.07219
 C1003 C 0.09505 0.46416 0.08085
 C1004 C 0.09508 0.43434 0.10777
 H1005 H 0.19753 0.45086 0.11875
 H1006 H 0.22349 0.40397 0.15581
 H1007 H 0.15139 0.34600 0.18925
 H1008 H 0.16079 0.48712 0.08217
 H1009 H 0.11939 0.50653 0.05172
 H1010 H 0.07739 0.41856 0.11493
 C1011 C 0.35073 0.11562 0.35513
 C1012 C 0.33797 0.08783 0.37571
 C1013 C 0.31088 0.08331 0.37526
 C1014 C 0.29635 0.10868 0.35287
 C1015 C 0.30905 0.13775 0.33142
 C1016 C 0.33673 0.14089 0.33247
 O1017 O 0.37645 0.11604 0.36046
 C1018 C 0.38002 0.08789 0.38496
 C1019 C 0.35712 0.06965 0.39514
 C1020 C 0.35632 0.03993 0.42109
 C1021 C 0.38010 0.02866 0.43730
 C1022 C 0.40404 0.04728 0.42750
 C1023 C 0.40385 0.07724 0.40070
 H1024 H 0.30125 0.06143 0.39194
 H1025 H 0.27520 0.10585 0.35256
 H1026 H 0.34707 0.16309 0.31700
 H1027 H 0.33804 0.02614 0.42881
 H1028 H 0.37974 0.00574 0.45775
 H1029 H 0.42163 0.09219 0.39255
 C1030 C 0.14643 0.39322 0.34856
 C1031 C 0.15917 0.42218 0.36764
 C1032 C 0.18628 0.42650 0.36714
 C1033 C 0.20085 0.39961 0.34643
 C1034 C 0.18816 0.36922 0.32671
 C1035 C 0.16046 0.36647 0.32752
 O1036 O 0.12075 0.39276 0.35429
 C1037 C 0.11720 0.42202 0.37756
 C1038 C 0.14005 0.44106 0.38655
 C1039 C 0.14093 0.47142 0.41178
 C1040 C 0.11733 0.48230 0.42872
 C1041 C 0.09349 0.46266 0.42037
 C1042 C 0.09353 0.43240 0.39393
 H1043 H 0.19591 0.44924 0.38274
 H1044 H 0.22201 0.40220 0.34618
 H1045 H 0.15015 0.34327 0.31340
 H1046 H 0.15919 0.48575 0.41867
 H1047 H 0.11779 0.50555 0.44880
 H1048 H 0.07586 0.41650 0.38702
 C1049 C 0.12922 0.16439 0.36567
 C1050 C 0.10632 0.18336 0.35673
 C1051 C 0.10531 0.21345 0.33115
 C1052 C 0.12888 0.22452 0.31417
 C1053 C 0.15287 0.20542 0.32286
 C1054 C 0.15286 0.17486 0.34913
 O1055 O 0.12586 0.13603 0.39007
 C1056 C 0.10027 0.13709 0.39666
 C1057 C 0.08741 0.16552 0.37695
 C1058 C 0.06043 0.17096 0.37888
 C1059 C 0.04608 0.14576 0.40168
 C1060 C 0.05882 0.11588 0.42211
 C1061 C 0.08644 0.11193 0.41974
 H1062 H 0.08702 0.22782 0.32440
 H1063 H 0.12834 0.24791 0.29419
 H1064 H 0.17067 0.15949 0.35647
 H1065 H 0.05071 0.19339 0.36295
 H1066 H 0.02500 0.14926 0.40301
 H1067 H 0.09679 0.08910 0.43439
 C1068 C 0.36744 0.33532 0.37085
 C1069 C 0.39029 0.31651 0.36138
 C1070 C 0.39102 0.28571 0.33666
 C1071 C 0.36726 0.27405 0.32076
 C1072 C 0.34336 0.29335 0.32960
 C1073 C 0.34357 0.32423 0.35541
 O1074 O 0.37114 0.36461 0.39407
 C1075 C 0.39690 0.36434 0.39926
 C1076 C 0.40954 0.33554 0.37983
 C1077 C 0.43663 0.33101 0.38011
 C1078 C 0.45131 0.35737 0.40120
 C1079 C 0.43875 0.38738 0.42159
 C1080 C 0.41106 0.39061 0.42067
 H1081 H 0.40928 0.27150 0.32949
 H1082 H 0.36765 0.25038 0.30111
 H1083 H 0.32584 0.33984 0.36267
 H1084 H 0.44615 0.30834 0.36429
 H1085 H 0.47245 0.35444 0.40148
 H1086 H 0.40085 0.41351 0.43536
 C1087 C 0.49229 0.02858 0.22117
 C1088 C 0.47699 -0.00283 0.23118
 C1089 C 0.46608 -0.02861 0.20618
 C1090 C 0.47144 -0.02228 0.16921
 C1091 C 0.48740 0.00943 0.15776
 C1092 C 0.49764 0.03584 0.18404
 O1093 O 0.50199 0.04775 0.24989
 C1094 C 0.49266 0.02780 0.27843
 C1095 C 0.47729 -0.00340 0.26816
 C1096 C 0.46688 -0.03003 0.29289
 C1097 C 0.47269 -0.02462 0.32987
 C1098 C 0.48845 0.00715 0.34157
 C1099 C 0.49832 0.03425 0.31556
 H1100 H 0.45442 -0.05338 0.21490
 H1101 H 0.46355 -0.04262 0.14934
 H1102 H 0.51033 0.05975 0.17602
 H1103 H 0.45521 -0.05467 0.28395
 H1104 H 0.46506 -0.04545 0.34955
 H1105 H 0.51081 0.05829 0.32380
 C1106 C 0.75992 0.26937 0.02960
 C1107 C 0.77191 0.23492 0.01959
 C1108 C 0.77947 0.20639 0.04443
 C1109 C 0.77418 0.21332 0.08127
 C1110 C 0.76164 0.24834 0.09258
 C1111 C 0.75483 0.27725 0.06650
 O1112 O 0.75269 0.29099 0.00103
 C1113 C 0.76021 0.26952 -0.02744
 C1114 C 0.77210 0.23501 -0.01728
 C1115 C 0.77992 0.20663 -0.04204
 C1116 C 0.77499 0.21373 -0.07895
 C1117 C 0.76252 0.24877 -0.09042
 C1118 C 0.75546 0.27757 -0.06442
 H1119 H 0.78852 0.17932 0.03568
 H1120 H 0.77963 0.19116 0.10109
 H1121 H 0.74486 0.30389 0.07450
 H1122 H 0.78890 0.17952 -0.03317
 H1123 H 0.78062 0.19166 -0.09871
 H1124 H 0.74554 0.30421 -0.07254
 C1125 C 0.60252 0.14400 0.09679
 C1126 C 0.58997 0.17383 0.11496
 C1127 C 0.56312 0.18034 0.11210
 C1128 C 0.54856 0.15464 0.09010
 C1129 C 0.56101 0.12325 0.07147
 C1130 C 0.58851 0.11842 0.07452
 O1131 O 0.62789 0.14166 0.10449
 C1132 C 0.63145 0.17061 0.12810
 C1133 C 0.60889 0.19122 0.13542
 C1134 C 0.60803 0.22182 0.16037
 C1135 C 0.63138 0.23159 0.17849
 C1136 C 0.65500 0.21068 0.17153
 C1137 C 0.65488 0.17980 0.14574
 H1138 H 0.55364 0.20380 0.12693
 H1139 H 0.52755 0.15875 0.08822
 H1140 H 0.59862 0.09439 0.06135
 H1141 H 0.58999 0.23741 0.16593
 H1142 H 0.63094 0.25532 0.19807
 H1143 H 0.67239 0.16301 0.13983
 C1144 C 0.86988 0.33362 0.13446
 C1145 C 0.89287 0.31612 0.14539
 C1146 C 0.89367 0.28691 0.17187
 C1147 C 0.86982 0.27547 0.18786
 C1148 C 0.84581 0.29344 0.17736
 C1149 C 0.84601 0.32277 0.14995
 O1150 O 0.87339 0.36158 0.10978
 C1151 C 0.89918 0.36187 0.10508
 C1152 C 0.91205 0.33467 0.12623
 C1153 C 0.93922 0.33119 0.12663
 C1154 C 0.95369 0.35705 0.10459
 C1155 C 0.94085 0.38556 0.08264
 C1156 C 0.91311 0.38753 0.08273
 H1157 H 0.91201 0.27372 0.18023
 H1158 H 0.87019 0.25304 0.20879
 H1159 H 0.82819 0.33729 0.14127
 H1160 H 0.94895 0.30980 0.14375
 H1161 H 0.97488 0.35506 0.10494
 H1162 H 0.90264 0.40926 0.06685
 C1163 C 0.88274 0.09215 0.11435
 C1164 C 0.85973 0.07528 0.10275
 C1165 C 0.85881 0.04667 0.07592
 C1166 C 0.88260 0.03471 0.06043
 C1167 C 0.90684 0.05142 0.07179
 C1168 C 0.90678 0.08076 0.09920
 O1169 O 0.87907 0.11918 0.13995
 C1170 C 0.85319 0.11929 0.14450
 C1171 C 0.84050 0.09296 0.12233
 C1172 C 0.81341 0.08865 0.12197
 C1173 C 0.79870 0.11274 0.14522
 C1174 C 0.81118 0.14043 0.16836
 C1175 C 0.83894 0.14342 0.16809
 H1176 H 0.84040 0.03401 0.06715
 H1177 H 0.88200 0.01246 0.03940
 H1178 H 0.92480 0.09418 0.10854
 H1179 H 0.80391 0.06778 0.10411
 H1180 H 0.77755 0.10999 0.14488
 H1181 H 0.84911 0.16457 0.18494
 C1182 C 0.64952 0.39293 0.14880
 C1183 C 0.66237 0.42041 0.12799
 C1184 C 0.68949 0.42477 0.12852
 C1185 C 0.70395 0.39935 0.15103
 C1186 C 0.69112 0.37042 0.17247
 C1187 C 0.66342 0.36772 0.17157
 O1188 O 0.62383 0.39237 0.14327
 C1189 C 0.62034 0.42008 0.11835
 C1190 C 0.64327 0.43821 0.10809
 C1191 C 0.64414 0.46727 0.08152
 C1192 C 0.62041 0.47808 0.06488
 C1193 C 0.59643 0.45967 0.07489
 C1194 C 0.59656 0.43029 0.10220
 H1195 H 0.69921 0.44639 0.11165
 H1196 H 0.72512 0.40182 0.15124
 H1197 H 0.65295 0.34561 0.18698
 H1198 H 0.66245 0.48091 0.07365
 H1199 H 0.62084 0.50054 0.04399
 H1200 H 0.57877 0.41545 0.11048
 C1201 C 0.84951 0.11437 0.35594
 C1202 C 0.83660 0.08738 0.37726
 C1203 C 0.80948 0.08325 0.37703
 C1204 C 0.79507 0.10826 0.35414
 C1205 C 0.80794 0.13658 0.33203
 C1206 C 0.83564 0.13925 0.33282
 O1207 O 0.87526 0.11442 0.36099
 C1208 C 0.87870 0.08687 0.38609
 C1209 C 0.85569 0.06938 0.39694
 C1210 C 0.85476 0.04032 0.42349
 C1211 C 0.87855 0.02876 0.43946
 C1212 C 0.90263 0.04642 0.42878
 C1213 C 0.90254 0.07593 0.40160
 H1214 H 0.79975 0.06194 0.39423
 H1215 H 0.77390 0.10579 0.35397
 H1216 H 0.84612 0.16085 0.31679
 H1217 H 0.83639 0.02714 0.43175
 H1218 H 0.87810 0.00624 0.46030
 H1219 H 0.92044 0.09013 0.39278
 C1220 C 0.64750 0.39034 0.35140
 C1221 C 0.66030 0.41882 0.37103
 C1222 C 0.68730 0.42416 0.36934
 C1223 C 0.70174 0.39869 0.34695
 C1224 C 0.68902 0.36871 0.32673
 C1225 C 0.66139 0.36501 0.32869
 O1226 O 0.62193 0.38907 0.35805
 C1227 C 0.61852 0.41733 0.38244
 C1228 C 0.64137 0.43646 0.39128
 C1229 C 0.64237 0.46624 0.41709
 C1230 C 0.61886 0.47676 0.43445
 C1231 C 0.59495 0.45740 0.42590
 C1232 C 0.59493 0.42726 0.39933
 H1233 H 0.69698 0.44657 0.38528
 H1234 H 0.72284 0.40194 0.34589
 H1235 H 0.65108 0.34205 0.31424
 H1236 H 0.66063 0.48067 0.42382
 H1237 H 0.61941 0.49985 0.45468
 H1238 H 0.57718 0.41169 0.39216
 C1239 C 0.62895 0.16936 0.36651
 C1240 C 0.60610 0.18829 0.35726
 C1241 C 0.60504 0.21697 0.33027
 C1242 C 0.62852 0.22664 0.31227
 C1243 C 0.65242 0.20751 0.32135
 C1244 C 0.65245 0.17843 0.34900
 O1245 O 0.62569 0.14222 0.39206
 C1246 C 0.60020 0.14396 0.39908
 C1247 C 0.58728 0.17167 0.37858
 C1248 C 0.56029 0.17722 0.38062
 C1249 C 0.54602 0.15267 0.40417
 C1250 C 0.55885 0.12332 0.42516
 C1251 C 0.58648 0.11957 0.42290
 H1252 H 0.58679 0.23128 0.32322
 H1253 H 0.62799 0.24896 0.29125
 H1254 H 0.67021 0.16315 0.35676
 H1255 H 0.55050 0.19901 0.36402
 H1256 H 0.52491 0.15594 0.40535
 H1257 H 0.59692 0.09708 0.43787
 C1258 C 0.86744 0.33146 0.37195
 C1259 C 0.89028 0.31256 0.36258
 C1260 C 0.89096 0.28156 0.33807
 C1261 C 0.86717 0.26993 0.32220
 C1262 C 0.84333 0.28948 0.33086
 C1263 C 0.84358 0.32039 0.35659
 O1264 O 0.87116 0.36119 0.39462
 C1265 C 0.89692 0.36115 0.39955
 C1266 C 0.90958 0.33205 0.38052
 C1267 C 0.93672 0.32799 0.38041
 C1268 C 0.95140 0.35518 0.40061
 C1269 C 0.93876 0.38550 0.42047
 C1270 C 0.91105 0.38815 0.42006
 H1271 H 0.90921 0.26730 0.33090
 H1272 H 0.86751 0.24621 0.30259
 H1273 H 0.82591 0.33626 0.36365
 H1274 H 0.94626 0.30512 0.36487
 H1275 H 0.97256 0.35268 0.40062
 H1276 H 0.90076 0.41126 0.43436
 C1277 C -0.00237 0.52625 0.22159
 C1278 C 0.02197 0.51282 0.23194
 C1279 C 0.04069 0.49984 0.20725
 C1280 C 0.03402 0.50013 0.17023
 C1281 C 0.00906 0.51342 0.15845
 C1282 C -0.00934 0.52742 0.18442
 O1283 O -0.01769 0.53463 0.25008
 C1284 C -0.00264 0.52613 0.27883
 C1285 C 0.02179 0.51272 0.26890
 C1286 C 0.04026 0.49959 0.29390
 C1287 C 0.03325 0.49975 0.33081
 C1288 C 0.00821 0.51310 0.34216
 C1289 C -0.00994 0.52721 0.31587
 H1290 H 0.05954 0.48890 0.21625
 H1291 H 0.04823 0.48943 0.15059
 H1292 H -0.02869 0.53698 0.17613
 H1293 H 0.05919 0.48866 0.28523
 H1294 H 0.04727 0.48899 0.35069
 H1295 H -0.02935 0.53684 0.32384
 C1296 C 0.25624 0.76947 0.02987
 C1297 C 0.26814 0.73508 0.01950
 C1298 C 0.27606 0.70650 0.04403
 C1299 C 0.27125 0.71329 0.08099
 C1300 C 0.25882 0.74824 0.09271
 C1301 C 0.25162 0.77722 0.06690
 O1302 O 0.24872 0.79122 0.00153
 C1303 C 0.25598 0.76988 -0.02717
 C1304 C 0.26798 0.73536 -0.01734
 C1305 C 0.27573 0.70716 -0.04228
 C1306 C 0.27062 0.71448 -0.07908
 C1307 C 0.25802 0.74955 -0.09026
 C1308 C 0.25102 0.77815 -0.06405
 H1309 H 0.28507 0.67950 0.03497
 H1310 H 0.27704 0.69110 0.10060
 H1311 H 0.24177 0.80383 0.07524
 H1312 H 0.28485 0.68007 -0.03366
 H1313 H 0.27631 0.69260 -0.09899
 H1314 H 0.24108 0.80486 -0.07194
 C1315 C 0.10210 0.63882 0.10137
 C1316 C 0.08919 0.66753 0.12060
 C1317 C 0.06222 0.67301 0.11837
 C1318 C 0.04794 0.64756 0.09579
 C1319 C 0.06072 0.61737 0.07586
 C1320 C 0.08833 0.61339 0.07850
 O1321 O 0.12766 0.63770 0.10828
 C1322 C 0.13093 0.66631 0.13241
 C1323 C 0.10802 0.68548 0.14086
 C1324 C 0.10690 0.71575 0.16620
 C1325 C 0.13036 0.72673 0.18351
 C1326 C 0.15436 0.70740 0.17536
 C1327 C 0.15447 0.67673 0.14925
 H1328 H 0.05246 0.69564 0.13395
 H1329 H 0.02686 0.65109 0.09426
 H1330 H 0.09870 0.59032 0.06426
 H1331 H 0.08860 0.73025 0.17259
 H1332 H 0.12971 0.75019 0.20335
 H1333 H 0.17228 0.66112 0.14239
 C1334 C 0.39710 0.87053 0.10430
 C1335 C 0.41023 0.84813 0.12959
 C1336 C 0.43719 0.84946 0.13392
 C1337 C 0.45136 0.87494 0.11137
 C1338 C 0.43865 0.89862 0.08435
 C1339 C 0.41085 0.89580 0.08088
 O1340 O 0.37121 0.86589 0.10598
 C1341 C 0.36809 0.83995 0.13283
 C1342 C 0.39141 0.82802 0.14795
 C1343 C 0.39283 0.80153 0.17676
 C1344 C 0.36921 0.78693 0.19091
 C1345 C 0.34468 0.79922 0.17645
 C1346 C 0.34426 0.82599 0.14666
 H1347 H 0.44701 0.83183 0.15435
 H1348 H 0.47241 0.87588 0.11527
 H1349 H 0.40007 0.91333 0.06129
 H1350 H 0.41149 0.79275 0.18826
 H1351 H 0.37008 0.76682 0.21377
 H1352 H 0.32598 0.83616 0.13500
 C1353 C 0.35198 0.61519 0.14681
 C1354 C 0.33910 0.58755 0.12625
 C1355 C 0.31195 0.58401 0.12594
 C1356 C 0.29750 0.61013 0.14760
 C1357 C 0.31031 0.63900 0.16911
 C1358 C 0.33804 0.64123 0.16877
 O1359 O 0.37778 0.61465 0.14214
 C1360 C 0.38125 0.58605 0.11811
 C1361 C 0.35822 0.56845 0.10758
 C1362 C 0.35731 0.53852 0.08191
 C1363 C 0.38110 0.52647 0.06622
 C1364 C 0.40517 0.54454 0.07624
 C1365 C 0.40509 0.57458 0.10291
 H1366 H 0.30223 0.56225 0.10928
 H1367 H 0.27632 0.60793 0.14740
 H1368 H 0.34847 0.66319 0.18435
 H1369 H 0.33893 0.52525 0.07390
 H1370 H 0.38063 0.50352 0.04585
 H1371 H 0.42296 0.58922 0.11115
 C1372 C 0.11923 0.92122 0.12316
 C1373 C 0.14201 0.94071 0.11465
 C1374 C 0.14312 0.97018 0.08848
 C1375 C 0.11979 0.97974 0.07019
 C1376 C 0.09605 0.95965 0.07821
 C1377 C 0.09587 0.93027 0.10549
 O1378 O 0.12260 0.89272 0.14729
 C1379 C 0.14810 0.89412 0.15407
 C1380 C 0.16091 0.92297 0.13485
 C1381 C 0.18794 0.92792 0.13616
 C1382 C 0.20238 0.90160 0.15768
 C1383 C 0.18960 0.87116 0.17728
 C1384 C 0.16197 0.86799 0.17588
 H1385 H 0.16135 0.98482 0.08194
 H1386 H 0.12038 1.00241 0.04951
 H1387 H 0.07825 0.91410 0.11219
 H1388 H 0.19764 0.95052 0.12042
 H1389 H 0.22352 0.90445 0.15840
 H1390 H 0.15161 0.84467 0.18982
 C1391 C 0.35190 0.61338 0.35258
 C1392 C 0.33903 0.58479 0.37207
 C1393 C 0.31197 0.58018 0.37105
 C1394 C 0.29757 0.60630 0.34928
 C1395 C 0.31035 0.63623 0.32898
 C1396 C 0.33802 0.63943 0.33051
 O1397 O 0.37756 0.61379 0.35852
 C1398 C 0.38096 0.58486 0.38227
 C1399 C 0.35802 0.56611 0.39140
 C1400 C 0.35702 0.53570 0.41665
 C1401 C 0.38061 0.52432 0.43333
 C1402 C 0.40458 0.54350 0.42470
 C1403 C 0.40461 0.57405 0.39846
 H1404 H 0.30225 0.55768 0.38689
 H1405 H 0.27643 0.60337 0.34856
 H1406 H 0.34839 0.66227 0.31592
 H1407 H 0.33870 0.52154 0.42357
 H1408 H 0.38007 0.50091 0.45329
 H1409 H 0.42240 0.58954 0.39127
 C1410 C 0.14719 0.89200 0.34984
 C1411 C 0.15985 0.92065 0.36944
 C1412 C 0.18699 0.92479 0.36938
 C1413 C 0.20166 0.89810 0.34854
 C1414 C 0.18905 0.86808 0.32822
 C1415 C 0.16132 0.86546 0.32869
 O1416 O 0.12144 0.89174 0.35504
 C1417 C 0.11775 0.92082 0.37847
 C1418 C 0.14059 0.93955 0.38809
 C1419 C 0.14128 0.96981 0.41344
 C1420 C 0.11751 0.98092 0.42982
 C1421 C 0.09367 0.96160 0.42081
 C1422 C 0.09392 0.93141 0.39429
 H1423 H 0.19655 0.94729 0.38535
 H1424 H 0.22282 0.90060 0.34858
 H1425 H 0.15104 0.84258 0.31410
 H1426 H 0.15952 0.98393 0.42083
 H1427 H 0.11784 1.00407 0.45000
 H1428 H 0.07625 0.91577 0.38686
 C1429 C 0.13048 0.66363 0.36694
 C1430 C 0.10771 0.68326 0.35861
 C1431 C 0.10676 0.71367 0.33339
 C1432 C 0.13026 0.72440 0.31611
 C1433 C 0.15414 0.70468 0.32418
 C1434 C 0.15408 0.67378 0.35010
 O1435 O 0.12702 0.63505 0.39109
 C1436 C 0.10149 0.63668 0.39813
 C1437 C 0.08879 0.66567 0.37896
 C1438 C 0.06190 0.67182 0.38138
 C1439 C 0.04745 0.64671 0.40411
 C1440 C 0.06000 0.61623 0.42397
 C1441 C 0.08755 0.61158 0.42115
 H1442 H 0.08855 0.72853 0.32712
 H1443 H 0.12974 0.74806 0.29641
 H1444 H 0.17182 0.65796 0.35694
 H1445 H 0.05233 0.69470 0.36585
 H1446 H 0.02642 0.65076 0.40581
 H1447 H 0.09773 0.58827 0.43536
 C1448 C 0.36857 0.83603 0.36815
 C1449 C 0.39167 0.81914 0.35691
 C1450 C 0.39263 0.78921 0.33127
 C1451 C 0.36880 0.77646 0.31629
 C1452 C 0.34464 0.79385 0.32696
 C1453 C 0.34466 0.82385 0.35367
 O1454 O 0.37201 0.86479 0.39201
 C1455 C 0.39787 0.86615 0.39581
 C1456 C 0.41081 0.83889 0.37487
 C1457 C 0.43798 0.83619 0.37362
 C1458 C 0.45242 0.86274 0.39480
 C1459 C 0.43954 0.89115 0.41677
 C1460 C 0.41180 0.89260 0.41731
 H1461 H 0.41108 0.77652 0.32270
 H1462 H 0.36932 0.75358 0.29586
 H1463 H 0.32671 0.83801 0.36233
 H1464 H 0.44772 0.81472 0.35664
 H1465 H 0.47362 0.86114 0.39399
 H1466 H 0.40133 0.91420 0.43330
 C1467 C 0.49296 0.51676 0.22242
 C1468 C 0.48236 0.48128 0.23235
 C1469 C 0.47562 0.45247 0.20742
 C1470 C 0.48026 0.46022 0.17055
 C1471 C 0.49139 0.49631 0.15920
 C1472 C 0.49741 0.52544 0.18544
 O1473 O 0.49935 0.53877 0.25111
 C1474 C 0.49269 0.51650 0.27955
 C1475 C 0.48219 0.48111 0.26923
 C1476 C 0.47522 0.45208 0.29388
 C1477 C 0.47952 0.45949 0.33088
 C1478 C 0.49055 0.49547 0.34262
 C1479 C 0.49681 0.52483 0.31665
 H1480 H 0.46758 0.42466 0.21611
 H1481 H 0.47532 0.43787 0.15071
 H1482 H 0.50623 0.55298 0.17747
 H1483 H 0.46725 0.42436 0.28489
 H1484 H 0.47441 0.43697 0.35051
 H1485 H 0.50557 0.55229 0.32492
 C1486 C 0.75138 0.75461 0.02892
 C1487 C 0.76709 0.78547 0.01885
 C1488 C 0.77889 0.81042 0.04371
 C1489 C 0.77427 0.80350 0.08075
 C1490 C 0.75804 0.77201 0.09238
 C1491 C 0.74657 0.74693 0.06594
 O1492 O 0.74176 0.73517 0.00040
 C1493 C 0.75167 0.75437 -0.02813
 C1494 C 0.76729 0.78530 -0.01803
 C1495 C 0.77938 0.81000 -0.04290
 C1496 C 0.77510 0.80280 -0.07996
 C1497 C 0.75891 0.77130 -0.09160
 C1498 C 0.74719 0.74642 -0.06516
 H1499 H 0.79115 0.83451 0.03491
 H1500 H 0.78352 0.82277 0.10037
 H1501 H 0.73407 0.72276 0.07387
 H1502 H 0.79157 0.83414 -0.03409
 H1503 H 0.78456 0.82191 -0.09957
 H1504 H 0.73471 0.72226 -0.07310
 C1505 C 0.60135 0.64590 0.09898
 C1506 C 0.58842 0.67375 0.11924
 C1507 C 0.56126 0.67743 0.11919
 C1508 C 0.54685 0.65101 0.09773
 C1509 C 0.55974 0.62171 0.07684
 C1510 C 0.58748 0.61965 0.07722
 O1511 O 0.62709 0.64599 0.10418
 C1512 C 0.63050 0.67447 0.12831
 C1513 C 0.60749 0.69247 0.13840
 C1514 C 0.60653 0.72200 0.16447
 C1515 C 0.63023 0.73325 0.18096
 C1516 C 0.65426 0.71483 0.17129
 C1517 C 0.65425 0.68521 0.14423
 H1518 H 0.55148 0.69931 0.13566
 H1519 H 0.52566 0.65306 0.09788
 H1520 H 0.59799 0.59730 0.06221
 H1521 H 0.58816 0.73551 0.17224
 H1522 H 0.62971 0.75592 0.20161
 H1523 H 0.67207 0.67019 0.13633
 C1524 C 0.89894 0.86570 0.10772
 C1525 C 0.91152 0.83798 0.12858
 C1526 C 0.93858 0.83309 0.12832
 C1527 C 0.95331 0.85812 0.10586
 C1528 C 0.94077 0.88715 0.08421
 C1529 C 0.91311 0.89057 0.08501
 O1530 O 0.87321 0.86654 0.11289
 C1531 C 0.86944 0.83873 0.13762
 C1532 C 0.89223 0.82030 0.14807
 C1533 C 0.89285 0.79091 0.17428
 C1534 C 0.86900 0.78008 0.19041
 C1535 C 0.84515 0.79883 0.18027
 C1536 C 0.84551 0.82853 0.15330
 H1537 H 0.94805 0.81122 0.14521
 H1538 H 0.97445 0.85507 0.10562
 H1539 H 0.90289 0.91272 0.06932
 H1540 H 0.91106 0.77700 0.18222
 H1541 H 0.86924 0.75735 0.21105
 H1542 H 0.82778 0.84348 0.14488
 C1543 C 0.88060 0.59172 0.11038
 C1544 C 0.85737 0.57617 0.09803
 C1545 C 0.85624 0.54738 0.07127
 C1546 C 0.88005 0.53408 0.05659
 C1547 C 0.90435 0.54981 0.06868
 C1548 C 0.90447 0.57907 0.09610
 O1549 O 0.87734 0.61911 0.13568
 C1550 C 0.85148 0.62096 0.13932
 C1551 C 0.83837 0.59533 0.11685
 C1552 C 0.81119 0.59300 0.11561
 C1553 C 0.79693 0.61826 0.13834
 C1554 C 0.80995 0.64506 0.16185
 C1555 C 0.83771 0.64613 0.16239
 H1556 H 0.83770 0.53571 0.06190
 H1557 H 0.87946 0.51185 0.03554
 H1558 H 0.92257 0.59177 0.10602
 H1559 H 0.80132 0.57271 0.09757
 H1560 H 0.77572 0.61688 0.13755
 H1561 H 0.84829 0.66646 0.17963
 C1562 C 0.61818 0.92220 0.12469
 C1563 C 0.64075 0.94255 0.11677
 C1564 C 0.64142 0.97302 0.09160
 C1565 C 0.61792 0.98288 0.07382
 C1566 C 0.59424 0.96227 0.08125
 C1567 C 0.59452 0.93155 0.10736
 O1568 O 0.62198 0.89338 0.14850
 C1569 C 0.64749 0.89557 0.15570
 C1570 C 0.65990 0.92515 0.13701
 C1571 C 0.68682 0.93150 0.13936
 C1572 C 0.70160 0.90597 0.16142
 C1573 C 0.68933 0.87487 0.18073
 C1574 C 0.66172 0.87016 0.17807
 H1575 H 0.65945 0.98844 0.08559
 H1576 H 0.61832 1.00649 0.05406
 H1577 H 0.57700 0.91494 0.11359
 H1578 H 0.69621 0.95476 0.12410
 H1579 H 0.72263 0.90999 0.16285
 H1580 H 0.65169 0.84634 0.19172
 C1581 C 0.85028 0.61277 0.35191
 C1582 C 0.83755 0.58518 0.37273
 C1583 C 0.81059 0.57930 0.37094
 C1584 C 0.79611 0.60325 0.34712
 C1585 C 0.80870 0.63234 0.32556
 C1586 C 0.83632 0.63666 0.32782
 O1587 O 0.87587 0.61448 0.35852
 C1588 C 0.87937 0.58737 0.38410
 C1589 C 0.85654 0.56860 0.39375
 C1590 C 0.85562 0.53973 0.42050
 C1591 C 0.87922 0.52958 0.43785
 C1592 C 0.90319 0.54835 0.42838
 C1593 C 0.90308 0.57782 0.40105
 H1594 H 0.80098 0.55756 0.38779
 H1595 H 0.77503 0.59957 0.34604
 H1596 H 0.84658 0.65897 0.31238
 H1597 H 0.83739 0.52553 0.42779
 H1598 H 0.87871 0.50706 0.45868
 H1599 H 0.92089 0.59281 0.39306
 C1600 C 0.64811 0.88963 0.35457
 C1601 C 0.66123 0.91629 0.37595
 C1602 C 0.68843 0.91821 0.37755
 C1603 C 0.70267 0.89138 0.35638
 C1604 C 0.68956 0.86347 0.33414
 C1605 C 0.66183 0.86298 0.33309
 O1606 O 0.62227 0.89149 0.35814
 C1607 C 0.61899 0.91992 0.38234
 C1608 C 0.64218 0.93616 0.39404
 C1609 C 0.64326 0.96551 0.42026
 C1610 C 0.61946 0.97839 0.43526
 C1611 C 0.59522 0.96169 0.42400
 C1612 C 0.59514 0.93224 0.39681
 H1613 H 0.69832 0.93920 0.39485
 H1614 H 0.72388 0.89225 0.35751
 H1615 H 0.65117 0.84178 0.31690
 H1616 H 0.66177 0.97763 0.42925
 H1617 H 0.62003 1.00082 0.45612
 H1618 H 0.57714 0.91859 0.38770
 C1619 C 0.62919 0.66270 0.36299
 C1620 C 0.60635 0.68185 0.35405
 C1621 C 0.60520 0.71086 0.32745
 C1622 C 0.62862 0.72081 0.30959
 C1623 C 0.65255 0.70163 0.31848
 C1624 C 0.65265 0.67198 0.34555
 O1625 O 0.62598 0.63549 0.38847
 C1626 C 0.60054 0.63747 0.39576
 C1627 C 0.58762 0.66537 0.37548
 C1628 C 0.56073 0.67146 0.37795
 C1629 C 0.54651 0.64723 0.40177
 C1630 C 0.55934 0.61773 0.42255
 C1631 C 0.58688 0.61338 0.41984
 H1632 H 0.58695 0.72533 0.32069
 H1633 H 0.62806 0.74351 0.28893
 H1634 H 0.67046 0.65675 0.35314
 H1635 H 0.55097 0.69346 0.36156
 H1636 H 0.52546 0.65095 0.40341
 H1637 H 0.59726 0.59076 0.43472
 C1638 C 0.86785 0.82662 0.37323
 C1639 C 0.89085 0.80899 0.36255
 C1640 C 0.89156 0.77871 0.33721
 C1641 C 0.86767 0.76654 0.32186
 C1642 C 0.84365 0.78483 0.33187
 C1643 C 0.84389 0.81495 0.35847
 O1644 O 0.87146 0.85594 0.39643
 C1645 C 0.89731 0.85697 0.40038
 C1646 C 0.91014 0.82893 0.38022
 C1647 C 0.93734 0.82615 0.37903
 C1648 C 0.95190 0.85351 0.39930
 C1649 C 0.93910 0.88282 0.42030
 C1650 C 0.91133 0.88415 0.42095
 H1651 H 0.90991 0.76545 0.32897
 H1652 H 0.86803 0.74352 0.30155
 H1653 H 0.82611 0.82996 0.36653
 H1654 H 0.94704 0.80412 0.36263
 H1655 H 0.97309 0.85196 0.39840
 H1656 H 0.90087 0.90641 0.43614
 C1657 C -0.00618 0.00209 0.78016
 C1658 C -0.00434 -0.03623 0.76931
 C1659 C -0.00179 -0.06725 0.79317
 C1660 C -0.00099 -0.05884 0.83026
 C1661 C -0.00311 -0.01957 0.84358
 C1662 C -0.00603 0.01148 0.81766
 O1663 O -0.00729 0.02678 0.75182
 C1664 C -0.00615 0.00309 0.72281
 C1665 C -0.00450 -0.03564 0.73259
 C1666 C -0.00273 -0.06597 0.70780
 C1667 C -0.00234 -0.05628 0.67093
 C1668 C -0.00341 -0.01659 0.65909
 C1669 C -0.00573 0.01374 0.68558
 H1670 H -0.00012 -0.09710 0.78354
 H1671 H 0.00112 -0.08369 0.84845
 H1672 H -0.00743 0.04175 0.82617
 H1673 H -0.00154 -0.09619 0.71654
 H1674 H -0.00108 -0.08020 0.65162
 H1675 H -0.00660 0.04421 0.67756
 C1676 C 0.25456 0.26054 0.47292
 C1677 C 0.26330 0.22386 0.48254
 C1678 C 0.26879 0.19472 0.45739
 C1679 C 0.26484 0.20343 0.42056
 C1680 C 0.25556 0.24080 0.40946
 C1681 C 0.25077 0.27016 0.43599
 O1682 O 0.24936 0.28297 0.50180
 C1683 C 0.25488 0.25971 0.53004
 C1684 C 0.26349 0.22332 0.51941
 C1685 C 0.26922 0.19345 0.54378
 C1686 C 0.26569 0.20112 0.58089
 C1687 C 0.25663 0.23819 0.59302
 C1688 C 0.25153 0.26828 0.56724
 H1689 H 0.27547 0.16603 0.46585
 H1690 H 0.26894 0.18086 0.40058
 H1691 H 0.24347 0.29875 0.42826
 H1692 H 0.27576 0.16500 0.53452
 H1693 H 0.27001 0.17799 0.60027
 H1694 H 0.24437 0.29667 0.57577
 C1695 C 0.10151 0.12958 0.60986
 C1696 C 0.08865 0.15590 0.63192
 C1697 C 0.06152 0.15979 0.63215
 C1698 C 0.04701 0.13535 0.60889
 C1699 C 0.05973 0.10779 0.58583
 C1700 C 0.08749 0.10520 0.58626
 O1701 O 0.12735 0.12995 0.61444
 C1702 C 0.13086 0.15711 0.63994
 C1703 C 0.10781 0.17391 0.65150
 C1704 C 0.10694 0.20272 0.67827
 C1705 C 0.13079 0.21478 0.69373
 C1706 C 0.15496 0.19788 0.68245
 C1707 C 0.15483 0.16854 0.65503
 H1708 H 0.05184 0.18060 0.64988
 H1709 H 0.02584 0.13785 0.60903
 H1710 H 0.09785 0.08420 0.56945
 H1711 H 0.08853 0.21543 0.68699
 H1712 H 0.13032 0.23720 0.71460
 H1713 H 0.17279 0.15493 0.64568
 C1714 C 0.36855 0.33364 0.63145
 C1715 C 0.39147 0.31477 0.64055
 C1716 C 0.39236 0.28369 0.66500
 C1717 C 0.36870 0.27180 0.68101
 C1718 C 0.34473 0.29115 0.67255
 C1719 C 0.34477 0.32233 0.64701
 O1720 O 0.37212 0.36322 0.60846
 C1721 C 0.39785 0.36304 0.60306
 C1722 C 0.41060 0.33403 0.62212
 C1723 C 0.43769 0.32955 0.62158
 C1724 C 0.45226 0.35617 0.60059
 C1725 C 0.43957 0.38639 0.58057
 C1726 C 0.41189 0.38957 0.58176
 H1727 H 0.41067 0.26944 0.67188
 H1728 H 0.36922 0.24788 0.70044
 H1729 H 0.32698 0.33797 0.64006
 H1730 H 0.44729 0.30671 0.63714
 H1731 H 0.47340 0.35330 0.60009
 H1732 H 0.40158 0.41262 0.56735
 C1733 C 0.35319 0.10795 0.65192
 C1734 C 0.34035 0.07939 0.63241
 C1735 C 0.31323 0.07572 0.63217
 C1736 C 0.29874 0.10274 0.65274
 C1737 C 0.31155 0.13261 0.67302
 C1738 C 0.33924 0.13485 0.67278
 O1739 O 0.37891 0.10778 0.64687
 C1740 C 0.38240 0.07853 0.62362
 C1741 C 0.35946 0.06009 0.61399
 C1742 C 0.35852 0.02985 0.58867
 C1743 C 0.38218 0.01852 0.57223
 C1744 C 0.40608 0.03767 0.58119
 C1745 C 0.40609 0.06772 0.60777
 H1746 H 0.30355 0.05331 0.61622
 H1747 H 0.27756 0.10054 0.65257
 H1748 H 0.34966 0.15756 0.68743
 H1749 H 0.34018 0.01601 0.58129
 H1750 H 0.38170 -0.00455 0.55197
 H1751 H 0.42382 0.08329 0.61505
 C1752 C 0.14652 0.38304 0.64935
 C1753 C 0.15909 0.41294 0.63126
 C1754 C 0.18596 0.41920 0.63398
 C1755 C 0.20055 0.39334 0.65586
 C1756 C 0.18820 0.36196 0.67471
 C1757 C 0.16063 0.35717 0.67164
 O1758 O 0.12101 0.38139 0.64195
 C1759 C 0.11743 0.41087 0.61869
 C1760 C 0.14012 0.43111 0.61132
 C1761 C 0.14099 0.46243 0.58704
 C1762 C 0.11757 0.47333 0.56956
 C1763 C 0.09377 0.45288 0.57638
 C1764 C 0.09385 0.42122 0.60161
 H1765 H 0.19545 0.44277 0.61928
 H1766 H 0.22155 0.39758 0.65776
 H1767 H 0.15060 0.33321 0.68508
 H1768 H 0.15913 0.47779 0.58152
 H1769 H 0.11812 0.49759 0.55051
 H1770 H 0.07620 0.40480 0.60751
 C1771 C 0.36933 0.06048 0.89454
 C1772 C 0.37606 0.05964 0.85817
 C1773 C 0.40036 0.04748 0.84574
 C1774 C 0.41895 0.03657 0.87174
 C1775 C 0.41285 0.03541 0.90979
 C1776 C 0.38699 0.04596 0.92121
 O1777 O 0.34687 0.07988 0.90027
 C1778 C 0.33943 0.09103 0.86672
 C1779 C 0.35655 0.07836 0.84023
 C1780 C 0.35418 0.08816 0.80363
 C1781 C 0.33375 0.11308 0.79365
 C1782 C 0.31635 0.12890 0.82010
 C1783 C 0.31869 0.11673 0.85729
 H1784 H 0.40545 0.04867 0.81704
 H1785 H 0.43827 0.02850 0.86190
 H1786 H 0.38191 0.04735 0.94993
 H1787 H 0.36813 0.07794 0.78348
 H1788 H 0.33220 0.12151 0.76516
 H1789 H 0.30610 0.12884 0.87824
 C1790 C 0.11962 0.41276 0.88341
 C1791 C 0.14233 0.43248 0.89179
 C1792 C 0.14310 0.46315 0.91667
 C1793 C 0.11951 0.47388 0.93368
 C1794 C 0.09574 0.45382 0.92575
 C1795 C 0.09593 0.42289 0.89997
 O1796 O 0.12327 0.38375 0.85986
 C1797 C 0.14886 0.38514 0.85334
 C1798 C 0.16144 0.41441 0.87220
 C1799 C 0.18842 0.42006 0.87048
 C1800 C 0.20306 0.39417 0.84877
 C1801 C 0.19057 0.36348 0.82922
 C1802 C 0.16296 0.35937 0.83131
 H1803 H 0.16126 0.47807 0.92302
 H1804 H 0.11991 0.49759 0.95327
 H1805 H 0.07828 0.40682 0.89326
 H1806 H 0.19792 0.44310 0.88583
 H1807 H 0.22414 0.39779 0.84758
 H1808 H 0.15280 0.33594 0.81732
 C1809 C 0.10308 0.12761 0.89372
 C1810 C 0.09046 0.15035 0.86826
 C1811 C 0.06350 0.14988 0.86340
 C1812 C 0.04882 0.12479 0.88570
 C1813 C 0.06121 0.10084 0.91268
 C1814 C 0.08895 0.10283 0.91660
 O1815 O 0.12897 0.13145 0.89291
 C1816 C 0.13272 0.15727 0.86633
 C1817 C 0.10973 0.16986 0.85055
 C1818 C 0.10897 0.19642 0.82190
 C1819 C 0.13294 0.21050 0.80878
 C1820 C 0.15708 0.19762 0.82418
 C1821 C 0.15686 0.17067 0.85356
 H1822 H 0.05409 0.16788 0.84286
 H1823 H 0.02778 0.12427 0.88169
 H1824 H 0.09950 0.08510 0.93629
 H1825 H 0.09061 0.20573 0.80986
 H1826 H 0.13260 0.23091 0.78613
 H1827 H 0.17485 0.16015 0.86585
 C1828 C 0.39950 0.36398 0.89700
 C1829 C 0.41260 0.33704 0.87589
 C1830 C 0.43977 0.33376 0.87576
 C1831 C 0.45403 0.35945 0.89811
 C1832 C 0.44103 0.38770 0.92014
 C1833 C 0.41326 0.38963 0.91965
 O1834 O 0.37370 0.36317 0.89221
 C1835 C 0.37045 0.33510 0.86755
 C1836 C 0.39363 0.31813 0.85671
 C1837 C 0.39477 0.28876 0.83050
 C1838 C 0.37108 0.27647 0.81469
 C1839 C 0.34682 0.29371 0.82514
 C1840 C 0.34667 0.32338 0.85222
 H1841 H 0.44966 0.31253 0.85869
 H1842 H 0.47522 0.35749 0.89794
 H1843 H 0.40267 0.41113 0.93560
 H1844 H 0.41327 0.27599 0.82225
 H1845 H 0.37175 0.25386 0.79400
 H1846 H 0.32865 0.33737 0.86083
 C1847 C 0.49852 0.00417 0.78034
 C1848 C 0.50204 -0.03400 0.76980
 C1849 C 0.50606 -0.06442 0.79402
 C1850 C 0.50650 -0.05551 0.83108
 C1851 C 0.50261 -0.01640 0.84398
 C1852 C 0.49843 0.01398 0.81771
 O1853 O 0.49587 0.02835 0.75185
 C1854 C 0.49775 0.00455 0.72302
 C1855 C 0.50137 -0.03382 0.73303
 C1856 C 0.50406 -0.06411 0.70832
 C1857 C 0.50330 -0.05471 0.67134
 C1858 C 0.50017 -0.01533 0.65932
 C1859 C 0.49701 0.01488 0.68574
 H1860 H 0.50898 -0.09415 0.78467
 H1861 H 0.50968 -0.07984 0.84959
 H1862 H 0.49552 0.04413 0.82588
 H1863 H 0.50678 -0.09407 0.71720
 H1864 H 0.50535 -0.07858 0.65210
 H1865 H 0.49456 0.04513 0.67763
 C1866 C 0.74933 0.26305 0.47235
 C1867 C 0.72838 0.24032 0.48285
 C1868 C 0.71235 0.22074 0.45840
 C1869 C 0.71820 0.22431 0.42132
 C1870 C 0.73976 0.24724 0.40928
 C1871 C 0.75539 0.26750 0.43516
 O1872 O 0.76258 0.27748 0.50069
 C1873 C 0.74966 0.26335 0.52949
 C1874 C 0.72859 0.24054 0.51970
 C1875 C 0.71281 0.22126 0.54471
 C1876 C 0.71910 0.22519 0.58159
 C1877 C 0.74086 0.24811 0.59292
 C1878 C 0.75619 0.26813 0.56649
 H1879 H 0.69611 0.20285 0.46757
 H1880 H 0.70584 0.20908 0.40190
 H1881 H 0.77206 0.28491 0.42671
 H1882 H 0.69645 0.20333 0.53611
 H1883 H 0.70694 0.21017 0.60144
 H1884 H 0.77299 0.28553 0.57438
 C1885 C 0.60167 0.13831 0.60693
 C1886 C 0.58856 0.16495 0.62838
 C1887 C 0.56142 0.16885 0.62785
 C1888 C 0.54721 0.14394 0.60465
 C1889 C 0.56021 0.11585 0.58245
 C1890 C 0.58795 0.11350 0.58341
 O1891 O 0.62740 0.13837 0.61244
 C1892 C 0.63059 0.16560 0.63793
 C1893 C 0.60746 0.18280 0.64862
 C1894 C 0.60630 0.21141 0.67559
 C1895 C 0.62995 0.22282 0.69216
 C1896 C 0.65416 0.20546 0.68171
 C1897 C 0.65430 0.17641 0.65404
 H1898 H 0.55151 0.18985 0.64513
 H1899 H 0.52603 0.14624 0.60440
 H1900 H 0.59853 0.09207 0.56735
 H1901 H 0.58784 0.22437 0.68372
 H1902 H 0.62932 0.24500 0.71326
 H1903 H 0.67229 0.16245 0.64528
 C1904 C 0.86796 0.32914 0.62579
 C1905 C 0.89052 0.30844 0.63296
 C1906 C 0.89135 0.27757 0.65771
 C1907 C 0.86802 0.26781 0.67595
 C1908 C 0.84448 0.28902 0.66934
 C1909 C 0.84456 0.31992 0.64349
 O1910 O 0.87159 0.35855 0.60265
 C1911 C 0.89700 0.35647 0.59513
 C1912 C 0.90952 0.32634 0.61295
 C1913 C 0.93643 0.32025 0.61049
 C1914 C 0.95107 0.34665 0.58924
 C1915 C 0.93862 0.37829 0.57092
 C1916 C 0.91107 0.38272 0.57357
 H1917 H 0.90938 0.26192 0.66319
 H1918 H 0.86846 0.24403 0.69552
 H1919 H 0.82713 0.33702 0.63794
 H1920 H 0.94592 0.29661 0.62512
 H1921 H 0.97212 0.34284 0.58766
 H1922 H 0.90096 0.40694 0.56066
 C1923 C 0.87984 0.08394 0.61662
 C1924 C 0.85659 0.06687 0.60632
 C1925 C 0.85524 0.03742 0.58016
 C1926 C 0.87881 0.02512 0.56392
 C1927 C 0.90312 0.04241 0.57395
 C1928 C 0.90346 0.07221 0.60090
 O1929 O 0.87686 0.11207 0.64126
 C1930 C 0.85113 0.11286 0.64663
 C1931 C 0.83782 0.08579 0.62592
 C1932 C 0.81066 0.08244 0.62651
 C1933 C 0.79666 0.10825 0.64909
 C1934 C 0.80990 0.13669 0.67061
 C1935 C 0.83764 0.13861 0.66947
 H1936 H 0.83668 0.02457 0.57231
 H1937 H 0.87803 0.00242 0.54333
 H1938 H 0.92152 0.08627 0.60921
 H1939 H 0.80058 0.06108 0.60981
 H1940 H 0.77547 0.10623 0.64950
 H1941 H 0.84841 0.16024 0.68504
 C1942 C 0.64855 0.38968 0.64924
 C1943 C 0.66129 0.41791 0.62916
 C1944 C 0.68830 0.42330 0.63070
 C1945 C 0.70280 0.39817 0.65343
 C1946 C 0.69017 0.36845 0.67416
 C1947 C 0.66252 0.36467 0.67229
 O1948 O 0.62294 0.38842 0.64281
 C1949 C 0.61944 0.41645 0.61812
 C1950 C 0.64227 0.43541 0.60885
 C1951 C 0.64315 0.46504 0.58280
 C1952 C 0.61954 0.47561 0.56567
 C1953 C 0.59562 0.45647 0.57465
 C1954 C 0.59574 0.42643 0.60143
 H1955 H 0.69793 0.44553 0.61444
 H1956 H 0.72390 0.40152 0.65438
 H1957 H 0.65226 0.34193 0.68715
 H1958 H 0.66139 0.47937 0.57576
 H1959 H 0.62001 0.49860 0.54529
 H1960 H 0.57799 0.41104 0.60897
 C1961 C 0.88175 0.08531 0.88533
 C1962 C 0.85848 0.06908 0.89673
 C1963 C 0.85715 0.04023 0.92349
 C1964 C 0.88080 0.02759 0.93919
 C1965 C 0.90514 0.04396 0.92801
 C1966 C 0.90546 0.07321 0.90050
 O1967 O 0.87869 0.11300 0.86022
 C1968 C 0.85289 0.11434 0.85569
 C1969 C 0.83964 0.08805 0.87740
 C1970 C 0.81249 0.08527 0.87785
 C1971 C 0.79838 0.11087 0.85524
 C1972 C 0.81153 0.13857 0.83269
 C1973 C 0.83928 0.13993 0.83279
 H1974 H 0.83856 0.02808 0.93217
 H1975 H 0.88004 0.00529 0.96022
 H1976 H 0.92356 0.08655 0.89134
 H1977 H 0.80249 0.06451 0.89534
 H1978 H 0.77717 0.10930 0.85565
 H1979 H 0.84996 0.16099 0.81640
 C1980 C 0.62090 0.41891 0.88454
 C1981 C 0.64381 0.43707 0.89479
 C1982 C 0.64460 0.46617 0.92129
 C1983 C 0.62083 0.47701 0.93784
 C1984 C 0.59685 0.45863 0.92784
 C1985 C 0.59707 0.42915 0.90062
 O1986 O 0.62445 0.39128 0.85957
 C1987 C 0.65016 0.39194 0.85399
 C1988 C 0.66295 0.41941 0.87484
 C1989 C 0.69005 0.42399 0.87417
 C1990 C 0.70457 0.39886 0.85148
 C1991 C 0.69185 0.36995 0.82995
 C1992 C 0.66413 0.36698 0.83102
 H1993 H 0.66288 0.47988 0.92914
 H1994 H 0.62122 0.49953 0.95863
 H1995 H 0.57928 0.41433 0.89231
 H1996 H 0.69973 0.44562 0.89104
 H1997 H 0.72573 0.40156 0.85118
 H1998 H 0.65374 0.34491 0.81553
 C1999 C 0.60302 0.13914 0.90029
 C2000 C 0.59004 0.16265 0.87577
 C2001 C 0.56301 0.16250 0.87190
 C2002 C 0.54867 0.13667 0.89388
 C2003 C 0.56136 0.11154 0.91968
 C2004 C 0.58915 0.11370 0.92315
 O2005 O 0.62894 0.14229 0.89797
 C2006 C 0.63228 0.16837 0.87139
 C2007 C 0.60905 0.18186 0.85710
 C2008 C 0.60785 0.20834 0.82832
 C2009 C 0.63162 0.22135 0.81343
 C2010 C 0.65599 0.20751 0.82719
 C2011 C 0.65620 0.18075 0.85687
 H2012 H 0.55331 0.18103 0.85206
 H2013 H 0.52758 0.13633 0.89031
 H2014 H 0.59990 0.09504 0.94185
 H2015 H 0.58928 0.21823 0.81737
 H2016 H 0.63093 0.24157 0.79063
 H2017 H 0.67437 0.16940 0.86794
 C2018 C 0.89992 0.35751 0.90443
 C2019 C 0.91292 0.33256 0.88125
 C2020 C 0.94008 0.32990 0.88022
 C2021 C 0.95453 0.35452 0.90343
 C2022 C 0.94182 0.38139 0.92756
 C2023 C 0.91383 0.38176 0.92840
 O2024 O 0.87406 0.35705 0.89966
 C2025 C 0.87071 0.33126 0.87287
 C2026 C 0.89386 0.31529 0.86075
 C2027 C 0.89496 0.28855 0.83213
 C2028 C 0.87126 0.27789 0.81524
 C2029 C 0.84699 0.29421 0.82684
 C2030 C 0.84688 0.32121 0.85636
 H2031 H 0.94989 0.31026 0.86148
 H2032 H 0.97572 0.35294 0.90184
 H2033 H 0.90302 0.40179 0.94570
 H2034 H 0.91345 0.27659 0.82287
 H2035 H 0.87195 0.25733 0.79277
 H2036 H 0.82886 0.33441 0.86597
 C2037 C 0.00050 0.50442 0.78065
 C2038 C 0.01191 0.46988 0.77003
 C2039 C 0.02044 0.44154 0.79410
 C2040 C 0.01713 0.44867 0.83116
 C2041 C 0.00561 0.48424 0.84424
 C2042 C -0.00268 0.51281 0.81809
 O2043 O -0.00687 0.52635 0.75217
 C2044 C 0.00018 0.50483 0.72331
 C2045 C 0.01184 0.47022 0.73331
 C2046 C 0.02071 0.44262 0.70869
 C2047 C 0.01730 0.45058 0.67176
 C2048 C 0.00493 0.48568 0.65968
 C2049 C -0.00358 0.51358 0.68604
 H2050 H 0.02919 0.41451 0.78467
 H2051 H 0.02398 0.42595 0.84952
 H2052 H -0.01167 0.54010 0.82640
 H2053 H 0.02989 0.41568 0.71760
 H2054 H 0.02441 0.42888 0.65261
 H2055 H -0.01302 0.54059 0.67788
 C2056 C 0.25623 0.76238 0.47251
 C2057 C 0.26537 0.72611 0.48277
 C2058 C 0.27104 0.69654 0.45809
 C2059 C 0.26691 0.70440 0.42111
 C2060 C 0.25735 0.74137 0.40940
 C2061 C 0.25232 0.77115 0.43545
 O2062 O 0.25077 0.78526 0.50098
 C2063 C 0.25655 0.76275 0.52963
 C2064 C 0.26560 0.72637 0.51965
 C2065 C 0.27163 0.69716 0.54458
 C2066 C 0.26788 0.70547 0.58154
 C2067 C 0.25825 0.74248 0.59297
 C2068 C 0.25294 0.77195 0.56666
 H2069 H 0.27797 0.66816 0.46704
 H2070 H 0.27115 0.68152 0.40149
 H2071 H 0.24475 0.79943 0.42724
 H2072 H 0.27853 0.66870 0.53586
 H2073 H 0.27232 0.68282 0.60135
 H2074 H 0.24530 0.80024 0.57465
 C2075 C 0.10170 0.63179 0.60871
 C2076 C 0.08875 0.65903 0.62964
 C2077 C 0.06163 0.66281 0.62975
 C2078 C 0.04722 0.63728 0.60751
 C2079 C 0.06008 0.60878 0.58563
 C2080 C 0.08780 0.60630 0.58615
 O2081 O 0.12752 0.63241 0.61337
 C2082 C 0.13089 0.66069 0.63777
 C2083 C 0.10779 0.67793 0.64852
 C2084 C 0.10670 0.70775 0.67423
 C2085 C 0.13043 0.72033 0.68954
 C2086 C 0.15465 0.70293 0.67911
 C2087 C 0.15474 0.67265 0.65268
 H2088 H 0.05189 0.68438 0.64663
 H2089 H 0.02605 0.63971 0.60746
 H2090 H 0.09823 0.58463 0.57019
 H2091 H 0.08824 0.72073 0.68235
 H2092 H 0.12980 0.74345 0.70973
 H2093 H 0.17276 0.65862 0.64411
 C2094 C 0.39841 0.86386 0.60230
 C2095 C 0.41107 0.83577 0.62263
 C2096 C 0.43815 0.83082 0.62176
 C2097 C 0.45279 0.85605 0.59927
 C2098 C 0.44024 0.88545 0.57803
 C2099 C 0.41253 0.88901 0.57950
 O2100 O 0.37268 0.86464 0.60800
 C2101 C 0.36901 0.83642 0.63248
 C2102 C 0.39186 0.81779 0.64229
 C2103 C 0.39257 0.78796 0.66814
 C2104 C 0.36881 0.77696 0.68466
 C2105 C 0.34486 0.79588 0.67531
 C2106 C 0.34513 0.82597 0.64855
 H2107 H 0.44772 0.80871 0.63825
 H2108 H 0.47391 0.85287 0.59873
 H2109 H 0.40228 0.91147 0.56425
 H2110 H 0.41081 0.77384 0.67558
 H2111 H 0.36921 0.75391 0.70499
 H2112 H 0.32738 0.84125 0.64076
 C2113 C 0.35297 0.61498 0.65070
 C2114 C 0.34011 0.58554 0.63241
 C2115 C 0.31312 0.58045 0.63427
 C2116 C 0.29876 0.60697 0.65561
 C2117 C 0.31149 0.63783 0.67469
 C2118 C 0.33911 0.64152 0.67238
 O2119 O 0.37857 0.61559 0.64408
 C2120 C 0.38189 0.58592 0.62112
 C2121 C 0.35899 0.56653 0.61315
 C2122 C 0.35789 0.53528 0.58888
 C2123 C 0.38133 0.52369 0.57192
 C2124 C 0.40528 0.54345 0.57933
 C2125 C 0.40542 0.57488 0.60464
 H2126 H 0.30340 0.55727 0.61938
 H2127 H 0.27767 0.60359 0.65695
 H2128 H 0.34942 0.66503 0.68604
 H2129 H 0.33958 0.52063 0.58288
 H2130 H 0.38070 0.49963 0.55271
 H2131 H 0.42319 0.59087 0.61087
 C2132 C 0.11757 0.91643 0.61888
 C2133 C 0.14021 0.93631 0.61036
 C2134 C 0.14091 0.96669 0.58513
 C2135 C 0.11732 0.97688 0.56785
 C2136 C 0.09366 0.95654 0.57586
 C2137 C 0.09391 0.92601 0.60206
 O2138 O 0.12130 0.88758 0.64260
 C2139 C 0.14687 0.88921 0.64908
 C2140 C 0.15937 0.91848 0.63003
 C2141 C 0.18635 0.92415 0.63146
 C2142 C 0.20107 0.89824 0.65306
 C2143 C 0.18864 0.86755 0.67273
 C2144 C 0.16104 0.86348 0.67101
 H2145 H 0.15901 0.98172 0.57866
 H2146 H 0.11765 1.00035 0.54794
 H2147 H 0.07636 0.90970 0.60878
 H2148 H 0.19577 0.94715 0.61592
 H2149 H 0.22216 0.90181 0.65403
 H2150 H 0.15093 0.84005 0.68513
 C2151 C 0.38151 0.58684 0.88339
 C2152 C 0.35848 0.56915 0.89382
 C2153 C 0.35759 0.53866 0.91898
 C2154 C 0.38140 0.52615 0.93430
 C2155 C 0.40548 0.54431 0.92443
 C2156 C 0.40539 0.57490 0.89822
 O2157 O 0.37801 0.61597 0.85986
 C2158 C 0.35219 0.61676 0.85542
 C2159 C 0.33933 0.58876 0.87564
 C2160 C 0.31218 0.58531 0.87608
 C2161 C 0.29770 0.61184 0.85485
 C2162 C 0.31048 0.64103 0.83362
 C2163 C 0.33822 0.64324 0.83389
 H2164 H 0.33920 0.52533 0.92691
 H2165 H 0.38093 0.50280 0.95432
 H2166 H 0.42326 0.58965 0.89014
 H2167 H 0.30248 0.56326 0.89248
 H2168 H 0.27652 0.60963 0.85509
 H2169 H 0.34863 0.66542 0.81849
 C2170 C 0.13165 0.93754 0.89298
 C2171 C 0.12350 0.93641 0.85719
 C2172 C 0.09792 0.94374 0.84656
 C2173 C 0.07972 0.95219 0.87382
 C2174 C 0.08737 0.95624 0.91113
 C2175 C 0.11424 0.95022 0.92064
 O2176 O 0.15544 0.92163 0.89737
 C2177 C 0.16229 0.91085 0.86352
 C2178 C 0.14354 0.92056 0.83809
 C2179 C 0.14526 0.91062 0.80149
 C2180 C 0.16667 0.88820 0.79050
 C2181 C 0.18551 0.87461 0.81613
 C2182 C 0.18390 0.88735 0.85316
 H2183 H 0.09178 0.94070 0.81838
 H2184 H 0.05955 0.95676 0.86542
 H2185 H 0.12060 0.95106 0.94887
 H2186 H 0.13008 0.91862 0.78219
 H2187 H 0.16766 0.87932 0.76211
 H2188 H 0.19759 0.87676 0.87351
 C2189 C 0.10102 0.63429 0.89485
 C2190 C 0.08794 0.65566 0.86876
 C2191 C 0.06100 0.65372 0.86406
 C2192 C 0.04687 0.62855 0.88701
 C2193 C 0.05966 0.60583 0.91461
 C2194 C 0.08736 0.60943 0.91852
 O2195 O 0.12684 0.63927 0.89366
 C2196 C 0.13005 0.66436 0.86623
 C2197 C 0.10682 0.67544 0.85023
 C2198 C 0.10560 0.70092 0.82063
 C2199 C 0.12934 0.71546 0.80678
 C2200 C 0.15371 0.70409 0.82237
 C2201 C 0.15392 0.67825 0.85276
 H2202 H 0.05120 0.67060 0.84306
 H2203 H 0.02586 0.62694 0.88291
 H2204 H 0.09821 0.59267 0.93862
 H2205 H 0.08706 0.70903 0.80840
 H2206 H 0.12869 0.73492 0.78342
 H2207 H 0.17209 0.66883 0.86530
 C2208 C 0.39715 0.86578 0.90049
 C2209 C 0.40929 0.83543 0.88259
 C2210 C 0.43615 0.82869 0.88471
 C2211 C 0.45114 0.85452 0.90598
 C2212 C 0.43908 0.88618 0.92468
 C2213 C 0.41159 0.89152 0.92202
 O2214 O 0.37162 0.86802 0.89372
 C2215 C 0.36754 0.83841 0.87100
 C2216 C 0.38995 0.81752 0.86340
 C2217 C 0.39031 0.78601 0.83951
 C2218 C 0.36665 0.77573 0.82257
 C2219 C 0.34319 0.79704 0.82959
 C2220 C 0.34375 0.82872 0.85450
 H2221 H 0.44528 0.80480 0.87007
 H2222 H 0.47213 0.85001 0.90758
 H2223 H 0.40177 0.91572 0.93534
 H2224 H 0.40822 0.77014 0.83381
 H2225 H 0.36679 0.75133 0.80372
 H2226 H 0.32636 0.84578 0.86040
 C2227 C 0.49358 0.51401 0.77942
 C2228 C 0.48403 0.47788 0.76955
 C2229 C 0.47806 0.44867 0.79450
 C2230 C 0.48238 0.45673 0.83135
 C2231 C 0.49246 0.49351 0.84261
 C2232 C 0.49771 0.52298 0.81635
 O2233 O 0.49937 0.53643 0.75075
 C2234 C 0.49341 0.51376 0.72236
 C2235 C 0.48392 0.47772 0.73270
 C2236 C 0.47779 0.44830 0.70810
 C2237 C 0.48189 0.45604 0.67111
 C2238 C 0.49190 0.49272 0.65938
 C2239 C 0.49732 0.52240 0.68531
 H2240 H 0.47082 0.42038 0.78584
 H2241 H 0.47800 0.43412 0.85123
 H2242 H 0.50569 0.55107 0.82426
 H2243 H 0.47060 0.42009 0.71712
 H2244 H 0.47738 0.43326 0.65151
 H2245 H 0.50526 0.55043 0.67703
 C2246 C 0.75190 0.74593 0.47185
 C2247 C 0.75261 0.70719 0.48197
 C2248 C 0.75229 0.67663 0.45709
 C2249 C 0.75104 0.68627 0.42003
 C2250 C 0.75013 0.72599 0.40843
 C2251 C 0.75082 0.75634 0.43485
 O2252 O 0.75174 0.77015 0.50032
 C2253 C 0.75233 0.74599 0.52888
 C2254 C 0.75291 0.70723 0.51887
 C2255 C 0.75301 0.67672 0.54385
 C2256 C 0.75227 0.68642 0.58089
 C2257 C 0.75141 0.72615 0.59239
 C2258 C 0.75174 0.75646 0.56587
 H2259 H 0.75282 0.64639 0.46591
 H2260 H 0.75088 0.66260 0.40038
 H2261 H 0.75006 0.78685 0.42692
 H2262 H 0.75344 0.64647 0.53513
 H2263 H 0.75238 0.66276 0.60062
 H2264 H 0.75099 0.78698 0.57372
 C2265 C 0.60140 0.63670 0.60588
 C2266 C 0.58857 0.66469 0.62611
 C2267 C 0.56167 0.67075 0.62386
 C2268 C 0.54733 0.64645 0.60031
 C2269 C 0.56005 0.61690 0.57952
 C2270 C 0.58760 0.61252 0.58203
 O2271 O 0.62688 0.63481 0.61293
 C2272 C 0.63021 0.66217 0.63821
 C2273 C 0.60739 0.68132 0.64723
 C2274 C 0.60635 0.71048 0.67363
 C2275 C 0.62984 0.72058 0.69121
 C2276 C 0.65375 0.70141 0.68226
 C2277 C 0.65376 0.67161 0.65537
 H2278 H 0.55198 0.69283 0.64022
 H2279 H 0.52627 0.65020 0.59882
 H2280 H 0.59790 0.58986 0.56714
 H2281 H 0.58811 0.72495 0.68046
 H2282 H 0.62933 0.74338 0.71173
 H2283 H 0.67155 0.65637 0.64776
 C2284 C 0.89750 0.85334 0.59472
 C2285 C 0.91035 0.82459 0.61402
 C2286 C 0.93748 0.82027 0.61313
 C2287 C 0.95194 0.84692 0.59185
 C2288 C 0.93917 0.87715 0.57189
 C2289 C 0.91143 0.87986 0.57312
 O2290 O 0.87183 0.85381 0.60071
 C2291 C 0.86837 0.82476 0.62436
 C2292 C 0.89128 0.80585 0.63338
 C2293 C 0.89219 0.77564 0.65889
 C2294 C 0.86860 0.76476 0.67602
 C2295 C 0.84468 0.78419 0.66757
 C2296 C 0.84471 0.81437 0.64091
 H2297 H 0.94723 0.79772 0.62888
 H2298 H 0.97310 0.84436 0.59146
 H2299 H 0.90100 0.90291 0.55892
 H2300 H 0.91048 0.76138 0.66583
 H2301 H 0.86911 0.74165 0.69628
 H2302 H 0.82702 0.83023 0.63397
 C2303 C 0.88015 0.58168 0.62057
 C2304 C 0.85718 0.56323 0.61110
 C2305 C 0.85613 0.53377 0.58495
 C2306 C 0.87971 0.52288 0.56787
 C2307 C 0.90376 0.54152 0.57703
 C2308 C 0.90381 0.57132 0.60399
 O2309 O 0.87681 0.60968 0.64527
 C2310 C 0.85116 0.60894 0.65151
 C2311 C 0.83824 0.58105 0.63131
 C2312 C 0.81118 0.57622 0.63270
 C2313 C 0.79683 0.60146 0.65547
 C2314 C 0.80965 0.63082 0.67640
 C2315 C 0.83734 0.63412 0.67455
 H2316 H 0.83779 0.51985 0.57774
 H2317 H 0.87911 0.50008 0.54735
 H2318 H 0.92165 0.58641 0.61162
 H2319 H 0.80139 0.55428 0.61632
 H2320 H 0.77570 0.59849 0.65627
 H2321 H 0.84780 0.65655 0.68952
 C2322 C 0.62040 0.91306 0.61082
 C2323 C 0.64358 0.92956 0.59939
 C2324 C 0.64474 0.95814 0.57234
 C2325 C 0.62100 0.97025 0.55652
 C2326 C 0.59678 0.95355 0.56779
 C2327 C 0.59664 0.92451 0.59544
 O2328 O 0.62357 0.88587 0.63634
 C2329 C 0.64934 0.88511 0.64109
 C2330 C 0.66251 0.91125 0.61913
 C2331 C 0.68967 0.91441 0.61893
 C2332 C 0.70385 0.88928 0.64198
 C2333 C 0.69071 0.86180 0.66473
 C2334 C 0.66298 0.86014 0.66445
 H2335 H 0.66324 0.97054 0.56363
 H2336 H 0.62158 0.99238 0.53532
 H2337 H 0.57861 0.91110 0.60478
 H2338 H 0.69962 0.93505 0.60125
 H2339 H 0.72505 0.89102 0.64180
 H2340 H 0.65233 0.83920 0.68099
 C2341 C 0.88121 0.58523 0.88551
 C2342 C 0.85792 0.57031 0.89834
 C2343 C 0.85672 0.54126 0.92491
 C2344 C 0.88051 0.52724 0.93908
 C2345 C 0.90486 0.54252 0.92666
 C2346 C 0.90505 0.57177 0.89916
 O2347 O 0.87806 0.61334 0.86085
 C2348 C 0.85220 0.61632 0.85811
 C2349 C 0.83898 0.59070 0.88052
 C2350 C 0.81180 0.58968 0.88283
 C2351 C 0.79767 0.61621 0.86117
 C2352 C 0.81083 0.64297 0.83770
 C2353 C 0.83857 0.64276 0.83614
 H2354 H 0.83813 0.53013 0.93472
 H2355 H 0.87986 0.50501 0.96018
 H2356 H 0.92317 0.58433 0.88912
 H2357 H 0.80184 0.56943 0.90086
 H2358 H 0.77647 0.61579 0.86272
 H2359 H 0.84927 0.66301 0.81891
 C2360 C 0.62039 0.91367 0.88508
 C2361 C 0.64309 0.93322 0.89389
 C2362 C 0.64411 0.96157 0.92106
 C2363 C 0.62074 0.97053 0.93957
 C2364 C 0.59685 0.95115 0.93082
 C2365 C 0.59688 0.92205 0.90318
 O2366 O 0.62379 0.88719 0.85893
 C2367 C 0.64917 0.89012 0.85110
 C2368 C 0.66187 0.91791 0.87167
 C2369 C 0.68865 0.92498 0.86862
 C2370 C 0.70305 0.90185 0.84400
 C2371 C 0.69056 0.87235 0.82291
 C2372 C 0.66304 0.86706 0.82621
 H2373 H 0.66224 0.97639 0.92772
 H2374 H 0.62133 0.99284 0.96055
 H2375 H 0.57913 0.90668 0.89563
 H2376 H 0.69825 0.94689 0.88525
 H2377 H 0.72403 0.90626 0.84214
 H2378 H 0.65285 0.84439 0.81121
 C2379 C 0.60205 0.64425 0.90092
 C2380 C 0.58919 0.67209 0.88051
 C2381 C 0.56203 0.67587 0.88052
 C2382 C 0.54754 0.64961 0.90213
 C2383 C 0.56034 0.62036 0.92326
 C2384 C 0.58809 0.61813 0.92284
 O2385 O 0.62782 0.64436 0.89584
 C2386 C 0.63132 0.67286 0.87166
 C2387 C 0.60833 0.69083 0.86142
 C2388 C 0.60745 0.72051 0.83541
 C2389 C 0.63121 0.73195 0.81915
 C2390 C 0.65525 0.71360 0.82896
 C2391 C 0.65514 0.68378 0.85594
 H2392 H 0.55230 0.69777 0.86397
 H2393 H 0.52636 0.65180 0.90200
 H2394 H 0.59853 0.59583 0.93805
 H2395 H 0.58910 0.73403 0.82754
 H2396 H 0.63073 0.75474 0.79857
 H2397 H 0.67296 0.66883 0.86397
 C2398 C 0.89668 0.85980 0.90351
 C2399 C 0.90891 0.82881 0.88666
 C2400 C 0.93533 0.82035 0.89158
 C2401 C 0.94990 0.84541 0.91415
 C2402 C 0.93787 0.87810 0.93132
 C2403 C 0.91069 0.88480 0.92641
 O2404 O 0.87176 0.86389 0.89375
 C2405 C 0.86821 0.83491 0.87015
 C2406 C 0.89032 0.81258 0.86486
 C2407 C 0.89123 0.78164 0.84027
 C2408 C 0.86837 0.77323 0.82046
 C2409 C 0.84519 0.79579 0.82539
 C2410 C 0.84526 0.82709 0.85078
 H2411 H 0.94458 0.79600 0.87774
 H2412 H 0.97068 0.83990 0.91746
 H2413 H 0.90102 0.90993 0.93837
 H2414 H 0.90895 0.76470 0.83633
 H2415 H 0.86881 0.74909 0.80132
 H2416 H 0.82805 0.84501 0.85530
   
