data_POSCAR
  _audit_creation_date              2014-09-24
  _audit_creation_method            'ToBaCCo'
  _symmetry_space_group_name_H-M    'P1'
  _symmetry_Int_Tables_number       1
  _symmetry_cell_setting            triclinic
  loop_
  _symmetry_equiv_pos_as_xyz
 x,y,z
_cell_length_a 53.9467
_cell_length_b 54.3325
_cell_length_c 54.5789
_cell_angle_alpha 89.914100
_cell_angle_beta 89.385500
_cell_angle_gamma 89.470400
loop_
  _atom_site_label
  _atom_site_type_symbol
  _atom_site_fract_x
  _atom_site_fract_y
  _atom_site_fract_z
N1 N 0.20568 0.21106 0.20329
 N2 N 0.70630 0.70620 0.70477
 N3 N 0.29079 0.78460 0.70838
 N4 N 0.78618 0.29264 0.21467
 N5 N 0.79564 0.71250 0.28650
 N6 N 0.29353 0.20673 -0.21591
 N7 N 0.70235 0.29554 -0.19781
 N8 N 0.20598 0.79336 0.29848
 N9 N 0.45852 0.45889 0.46003
 N10 N -0.04145 -0.03581 0.95814
 N11 N 1.05051 0.54652 0.95522
 N12 N 0.54715 0.04654 0.44995
 N13 N -0.03803 0.03640 0.53897
 N14 N 0.46442 0.53671 0.03732
 N15 N 0.53722 -0.04213 0.04158
 N16 N 1.03757 0.45011 0.54846
 C17 C 0.40731 0.01121 0.21636
 H18 H 0.40713 0.02905 0.22513
 C19 C 0.42341 0.00663 0.19668
 H20 H 0.43572 0.02104 0.19049
 C21 C 0.39200 -0.02948 0.21448
 H22 H 0.38004 -0.04362 0.22174
 C23 C 0.40792 -0.03491 0.19481
 H24 H 0.40764 -0.05310 0.18677
 N25 N 0.39186 -0.00666 0.22469
 C26 C 0.33726 0.03901 0.26314
 H27 H 0.33882 0.03195 0.28161
 C28 C 0.32167 0.05908 0.25841
 H29 H 0.31185 0.06763 0.27358
 C30 C 0.34880 0.03652 0.22124
 H31 H 0.35904 0.02736 0.20673
 C32 C 0.33301 0.05617 0.21558
 H33 H 0.33131 0.06171 0.19662
 Zn34 Zn 0.37169 0.00136 0.25216
 N35 N 0.35087 0.02855 0.24476
 C36 C 0.39511 0.03183 0.28761
 N37 N 0.39367 0.00884 0.27789
 C38 C 0.40933 -0.00948 0.28506
 C39 C 0.42695 -0.00523 0.30305
 C40 C 0.41253 0.03692 0.30565
 C41 C 0.33480 -0.03317 0.24351
 C42 C 0.31882 -0.05263 0.24856
 C43 C 0.33557 -0.05501 0.28937
 C44 C 0.35136 -0.03558 0.28348
 N45 N 0.35090 -0.02529 0.26074
 H46 H 0.38323 0.04644 0.28103
 H47 H 0.40813 -0.02745 0.27667
 H48 H 0.43892 -0.02023 0.30873
 H49 H 0.41367 0.05542 0.31286
 H50 H 0.33447 -0.02432 0.22574
 H51 H 0.30609 -0.05858 0.23460
 H52 H 0.33643 -0.06320 0.30745
 H53 H 0.36381 -0.02866 0.29716
 C54 C 0.31934 0.06801 0.23431
 C55 C 0.42388 -0.01670 0.18565
 C56 C 0.31912 -0.06387 0.27174
 C57 C 0.42880 0.01827 0.31355
 C58 C 0.08784 -0.01250 0.71693
 H59 H 0.08508 -0.02730 0.72993
 C60 C 0.07146 -0.00935 0.69755
 H61 H 0.05631 -0.02209 0.69558
 C62 C 0.11127 0.02181 0.70369
 H63 H 0.12690 0.03383 0.70610
 C64 C 0.09525 0.02573 0.68410
 H65 H 0.09849 0.04111 0.67189
 N66 N 0.10708 0.00315 0.71981
 C67 C 0.16134 -0.03815 0.76230
 H68 H 0.16080 -0.02839 0.77956
 C69 C 0.17715 -0.05842 0.75934
 H70 H 0.18845 -0.06434 0.77457
 C71 C 0.14727 -0.04216 0.72154
 H72 H 0.13588 -0.03552 0.70672
 C73 C 0.16281 -0.06255 0.71779
 H74 H 0.16328 -0.07135 0.70000
 Zn75 Zn 0.12699 -0.00154 0.74774
 N76 N 0.14693 -0.03030 0.74348
 C77 C 0.10447 -0.02717 0.78767
 N78 N 0.10521 -0.00547 0.77519
 C79 C 0.08946 0.01334 0.78114
 C80 C 0.07272 0.01104 0.80066
 C81 C 0.08796 -0.03029 0.80730
 C82 C 0.17282 0.02305 0.75399
 C83 C 0.18834 0.04316 0.75726
 C84 C 0.15249 0.06998 0.75582
 C85 C 0.13759 0.04932 0.75292
 N86 N 0.14784 0.02632 0.75220
 H87 H 0.11624 -0.04238 0.78217
 H88 H 0.08952 0.03008 0.77053
 H89 H 0.06067 0.02644 0.80524
 H90 H 0.08746 -0.04784 0.81670
 H91 H 0.18094 0.00490 0.75267
 H92 H 0.20816 0.04016 0.75855
 H93 H 0.14399 0.08811 0.75635
 H94 H 0.11791 0.05181 0.75056
 C95 C 0.17822 -0.07077 0.73676
 C96 C 0.07483 0.01020 0.68098
 C97 C 0.17819 0.06698 0.75818
 C98 C 0.07180 -0.01101 0.81406
 C99 C 0.59404 0.49161 0.21379
 H100 H 0.59679 0.47405 0.22271
 C101 C 0.57944 0.49301 0.19288
 H102 H 0.57047 0.47657 0.18631
 C103 C 0.60299 0.53411 0.21103
 H104 H 0.61259 0.55002 0.21766
 C105 C 0.58840 0.53637 0.19014
 H106 H 0.58691 0.55407 0.18109
 N107 N 0.60517 0.51205 0.22272
 C108 C 0.64551 0.46143 0.26362
 H109 H 0.63436 0.46282 0.28013
 C110 C 0.66094 0.44093 0.25999
 H111 H 0.66160 0.42666 0.27385
 C112 C 0.65878 0.47859 0.22578
 H113 H 0.65775 0.49341 0.21255
 C114 C 0.67461 0.45857 0.22154
 H115 H 0.68564 0.45796 0.20485
 Zn116 Zn 0.62463 0.50803 0.25137
 N117 N 0.64485 0.47979 0.24666
 C118 C 0.58599 0.48577 0.27875
 N119 N 0.60364 0.50349 0.27923
 C120 C 0.60675 0.51765 0.29949
 C121 C 0.59164 0.51444 0.32017
 C122 C 0.57050 0.48191 0.29902
 C123 C 0.67022 0.53256 0.25725
 C124 C 0.68578 0.55257 0.26086
 C125 C 0.64968 0.57913 0.26302
 C126 C 0.63477 0.55854 0.25968
 N127 N 0.64520 0.53585 0.25640
 H128 H 0.58406 0.47434 0.26276
 H129 H 0.62111 0.53135 0.29982
 H130 H 0.59427 0.52612 0.33597
 H131 H 0.55688 0.46743 0.29835
 H132 H 0.67824 0.51439 0.25523
 H133 H 0.70565 0.54962 0.26114
 H134 H 0.64110 0.59707 0.26547
 H135 H 0.61481 0.56064 0.25973
 C136 C 0.67591 0.43946 0.23883
 C137 C 0.57631 0.51566 0.18088
 C138 C 0.67554 0.57624 0.26357
 C139 C 0.57321 0.49636 0.32012
 C140 C 0.91112 0.50746 0.72443
 H141 H 0.91189 0.52518 0.73338
 C142 C 0.92709 0.50218 0.70481
 H143 H 0.94028 0.51591 0.69886
 C144 C 0.89334 0.46784 0.72183
 H145 H 0.88038 0.45440 0.72871
 C146 C 0.90905 0.46174 0.70221
 H147 H 0.90764 0.44375 0.69385
 N148 N 0.89445 0.49050 0.73230
 C149 C 0.84021 0.53805 0.76888
 H150 H 0.84060 0.53058 0.78726
 C151 C 0.82522 0.55844 0.76373
 H152 H 0.81470 0.56684 0.77854
 C153 C 0.85391 0.53612 0.72756
 H154 H 0.86469 0.52701 0.71340
 C155 C 0.83875 0.55613 0.72147
 H156 H 0.83810 0.56203 0.70254
 Zn157 Zn 0.87366 0.49945 0.75903
 N158 N 0.85451 0.52763 0.75099
 C159 C 0.89630 0.52857 0.79590
 N160 N 0.89456 0.50570 0.78597
 C161 C 0.90875 0.48667 0.79423
 C162 C 0.92487 0.49004 0.81375
 C163 C 0.91228 0.53279 0.81539
 C164 C 0.83505 0.46778 0.74829
 C165 C 0.81750 0.44944 0.75219
 C166 C 0.83252 0.44465 0.79348
 C167 C 0.84986 0.46307 0.78875
 N168 N 0.85099 0.47400 0.76633
 H169 H 0.88557 0.54370 0.78858
 H170 H 0.90749 0.46882 0.78560
 H171 H 0.93608 0.47467 0.81998
 H172 H 0.91316 0.55104 0.82326
 H173 H 0.83612 0.47702 0.73074
 H174 H 0.80541 0.44442 0.73735
 H175 H 0.83174 0.43634 0.81151
 H176 H 0.86215 0.46878 0.80311
 C177 C 0.82418 0.56774 0.73968
 C178 C 0.92612 0.47908 0.69337
 C179 C 0.81608 0.43756 0.77503
 C180 C 0.92675 0.51334 0.82464
 C181 C 0.22405 0.41208 0.00427
 H182 H 0.23388 0.41189 0.02145
 C183 C 0.20527 0.42945 0.00033
 H184 H 0.20081 0.44270 0.01454
 C185 C 0.21850 0.39544 -0.03537
 H186 H 0.22394 0.38243 -0.04941
 C187 C 0.19969 0.41255 -0.04013
 H188 H 0.19047 0.41212 -0.05765
 N189 N 0.23003 0.39529 -0.01333
 C190 C 0.26474 0.33570 0.02812
 H191 H 0.28229 0.33407 0.01847
 C192 C 0.25953 0.32018 0.04790
 H193 H 0.27316 0.30654 0.05334
 C194 C 0.22530 0.35495 0.03215
 H195 H 0.21184 0.36822 0.02572
 C196 C 0.21926 0.33969 0.05188
 H197 H 0.20133 0.34176 0.06079
 Zn198 Zn 0.25596 0.37261 -0.00662
 N199 N 0.24783 0.35286 0.02085
 C200 C 0.29655 0.39040 0.02113
 N201 N 0.28471 0.39127 -0.00075
 C202 C 0.29246 0.40645 -0.01905
 C203 C 0.31334 0.42105 -0.01602
 C204 C 0.31744 0.40484 0.02501
 C205 C 0.24196 0.33659 -0.04003
 C206 C 0.24432 0.32070 -0.06000
 C207 C 0.28659 0.33412 -0.06552
 C208 C 0.28337 0.34988 -0.04552
 N209 N 0.26116 0.35114 -0.03352
 H210 H 0.28974 0.37871 0.03568
 H211 H 0.28237 0.40716 -0.03606
 H212 H 0.31915 0.43310 -0.03077
 H213 H 0.32682 0.40375 0.04242
 H214 H 0.22468 0.33759 -0.02984
 H215 H 0.22877 0.30936 -0.06501
 H216 H 0.30422 0.33373 -0.07519
 H217 H 0.29864 0.36107 -0.03968
 C218 C 0.23651 0.32206 0.06002
 C219 C 0.19278 0.42979 -0.02211
 C220 C 0.26681 0.31947 -0.07315
 C221 C 0.32614 0.42032 0.00623
 C222 C 0.71143 0.09152 -0.00701
 H223 H 0.72183 0.09249 -0.02404
 C224 C 0.69133 0.07567 -0.00489
 H225 H 0.68644 0.06431 -0.02035
 C226 C 0.70559 0.10491 0.03397
 H227 H 0.71137 0.11617 0.04913
 C228 C 0.68544 0.08914 0.03696
 H229 H 0.67559 0.08875 0.05434
 N230 N 0.71791 0.10602 0.01212
 C231 C 0.75748 0.16378 -0.02714
 H232 H 0.77543 0.16260 -0.01854
 C233 C 0.75364 0.18034 -0.04635
 H234 H 0.76872 0.19187 -0.05261
 C235 C 0.71579 0.15058 -0.02914
 H236 H 0.70098 0.13922 -0.02214
 C237 C 0.71098 0.16733 -0.04798
 H238 H 0.69258 0.16849 -0.05567
 Zn239 Zn 0.74524 0.12708 0.00704
 N240 N 0.73883 0.14891 -0.01932
 C241 C 0.78475 0.10744 -0.02215
 N242 N 0.77325 0.10678 0.00014
 C243 C 0.78093 0.09095 0.01789
 C244 C 0.80162 0.07575 0.01396
 C245 C 0.80545 0.09254 -0.02689
 C246 C 0.73186 0.16235 0.04181
 C247 C 0.73482 0.17855 0.06136
 C248 C 0.77654 0.16295 0.06631
 C249 C 0.77277 0.14701 0.04665
 N250 N 0.75063 0.14691 0.03494
 H251 H 0.77778 0.11931 -0.03643
 H252 H 0.77114 0.09040 0.03529
 H253 H 0.80784 0.06380 0.02858
 H254 H 0.81424 0.09329 -0.04480
 H255 H 0.71458 0.16216 0.03194
 H256 H 0.71952 0.19050 0.06666
 H257 H 0.79445 0.16312 0.07507
 H258 H 0.78775 0.13518 0.04045
 C259 C 0.73014 0.18224 -0.05691
 C260 C 0.67796 0.07443 0.01728
 C261 C 0.75746 0.17911 0.07381
 C262 C 0.81433 0.07660 -0.00862
 C263 C 0.20772 0.58391 0.49073
 H264 H 0.21702 0.58396 0.47307
 C265 C 0.18848 0.56744 0.49530
 H266 H 0.18305 0.55480 0.48105
 C267 C 0.20429 0.59963 0.53111
 H268 H 0.21082 0.61181 0.54520
 C269 C 0.18512 0.58334 0.53653
 H270 H 0.17672 0.58359 0.55463
 N271 N 0.21510 0.59971 0.50848
 C272 C 0.25424 0.65758 0.46845
 H273 H 0.27161 0.65742 0.47816
 C274 C 0.25040 0.67443 0.44949
 H275 H 0.26492 0.68728 0.44478
 C276 C 0.21387 0.64162 0.46356
 H277 H 0.19952 0.62910 0.46936
 C278 C 0.20920 0.65823 0.44457
 H279 H 0.19142 0.65793 0.43558
 Zn280 Zn 0.24261 0.62015 0.50166
 N281 N 0.23618 0.64146 0.47494
 C282 C 0.28262 0.59993 0.47315
 N283 N 0.26988 0.59900 0.49477
 C284 C 0.27569 0.58212 0.51225
 C285 C 0.29538 0.56567 0.50861
 C286 C 0.30248 0.58377 0.46873
 C287 C 0.23174 0.65667 0.53640
 C288 C 0.23572 0.67192 0.55653
 C289 C 0.27648 0.65372 0.56067
 C290 C 0.27171 0.63879 0.54050
 N291 N 0.24947 0.64025 0.52905
 H292 H 0.27732 0.61303 0.45921
 H293 H 0.26505 0.58160 0.52916
 H294 H 0.29999 0.55275 0.52303
 H295 H 0.31228 0.58463 0.45134
 H296 H 0.21436 0.65769 0.52673
 H297 H 0.22112 0.68443 0.56245
 H298 H 0.29437 0.65239 0.56940
 H299 H 0.28587 0.62619 0.53395
 C300 C 0.22761 0.67494 0.43730
 C301 C 0.17704 0.56691 0.51853
 C302 C 0.25830 0.67045 0.56906
 C303 C 0.30912 0.56637 0.48663
 C304 C 0.71632 0.91042 0.50863
 H305 H 0.72565 0.91061 0.52608
 C306 C 0.69635 0.92636 0.50453
 H307 H 0.69019 0.93854 0.51910
 C308 C 0.71295 0.89398 0.46864
 H309 H 0.71976 0.88168 0.45453
 C310 C 0.69295 0.90965 0.46372
 H311 H 0.68460 0.90919 0.44579
 N312 N 0.72395 0.89439 0.49094
 C313 C 0.76120 0.83658 0.53259
 H314 H 0.77911 0.83625 0.52348
 C315 C 0.75647 0.82053 0.55206
 H316 H 0.77083 0.80778 0.55779
 C317 C 0.72049 0.85313 0.53561
 H318 H 0.70638 0.86557 0.52893
 C319 C 0.71491 0.83728 0.55502
 H320 H 0.69664 0.83807 0.56341
 Zn321 Zn 0.75116 0.87347 0.49818
 N322 N 0.74343 0.85269 0.52501
 C323 C 0.78934 0.89313 0.52780
 N324 N 0.77827 0.89393 0.50554
 C325 C 0.78591 0.90991 0.48788
 C326 C 0.80609 0.92521 0.49188
 C327 C 0.80953 0.90819 0.53264
 C328 C 0.74140 0.83699 0.46353
 C329 C 0.74619 0.82120 0.44385
 C330 C 0.78758 0.83761 0.44089
 C331 C 0.78195 0.85319 0.46054
 N332 N 0.75905 0.85285 0.47121
 H333 H 0.78251 0.88092 0.54190
 H334 H 0.77651 0.91043 0.47047
 H335 H 0.81233 0.93723 0.47727
 H336 H 0.81801 0.90736 0.55051
 H337 H 0.72352 0.83671 0.47270
 H338 H 0.73191 0.80868 0.43803
 H339 H 0.80578 0.83842 0.43239
 H340 H 0.79599 0.86538 0.46731
 C341 C 0.73306 0.82078 0.56353
 C342 C 0.68428 0.92603 0.48186
 C343 C 0.76953 0.82144 0.43222
 C344 C 0.81834 0.92434 0.51445
 C345 C 0.01142 0.21264 0.41058
 H346 H 0.02837 0.22311 0.41108
 C347 C 0.00866 0.19197 0.42558
 H348 H 0.02376 0.18645 0.43733
 C349 C -0.02873 0.20714 0.39442
 H350 H -0.04349 0.21337 0.38267
 C351 C -0.03229 0.18639 0.40911
 H352 H -0.04982 0.17689 0.40842
 N353 N -0.00700 0.21958 0.39514
 C354 C 0.03170 0.26229 0.33909
 H355 H 0.02093 0.27917 0.33973
 C356 C 0.05173 0.26010 0.32282
 H357 H 0.05623 0.27538 0.31087
 C358 C 0.03843 0.22163 0.35349
 H359 H 0.03299 0.20656 0.36524
 C360 C 0.05849 0.21858 0.33736
 H361 H 0.06864 0.20129 0.33721
 Zn362 Zn -0.00185 0.24795 0.37559
 N363 N 0.02570 0.24335 0.35428
 C364 C 0.02519 0.28727 0.39687
 N365 N 0.00355 0.27458 0.39720
 C366 C -0.01483 0.28013 0.41357
 C367 C -0.01228 0.29973 0.42981
 C368 C 0.02861 0.30692 0.41293
 C369 C -0.03626 0.23687 0.33921
 C370 C -0.05685 0.24044 0.32427
 C371 C -0.06315 0.28039 0.34279
 C372 C -0.04251 0.27601 0.35743
 N373 N -0.02980 0.25434 0.35572
 H374 H 0.03987 0.28219 0.38421
 H375 H -0.03163 0.26940 0.41380
 H376 H -0.02717 0.30393 0.44264
 H377 H 0.04576 0.31710 0.41212
 H378 H -0.02557 0.21997 0.33792
 H379 H -0.06208 0.22600 0.31176
 H380 H -0.07289 0.29784 0.34435
 H381 H -0.03662 0.29005 0.37001
 C382 C 0.06546 0.23804 0.32188
 C383 C -0.01340 0.17846 0.42487
 C384 C -0.07074 0.26238 0.32609
 C385 C 0.00961 0.31352 0.42951
 C386 C -0.00271 0.72200 0.08349
 H387 H -0.02028 0.73176 0.08329
 C388 C 0.00180 0.70283 0.06697
 H389 H -0.01238 0.69796 0.05400
 C390 C 0.03739 0.71704 0.10022
 H391 H 0.05136 0.72284 0.11292
 C392 C 0.04274 0.69789 0.08390
 H393 H 0.06067 0.68881 0.08461
 N394 N 0.01484 0.72846 0.09994
 C395 C -0.02782 0.76488 0.15812
 H396 H -0.01795 0.78208 0.15928
 C397 C -0.04794 0.76045 0.17377
 H398 H -0.05337 0.77431 0.18707
 C399 C -0.03207 0.72560 0.13992
 H400 H -0.02560 0.71189 0.12701
 C401 C -0.05222 0.72037 0.15527
 H402 H -0.06138 0.70282 0.15359
 Zn403 Zn 0.00744 0.75494 0.12146
 N404 N -0.02048 0.74767 0.14143
 C405 C -0.02123 0.79462 0.10215
 N406 N 0.00116 0.78291 0.10169
 C407 C 0.01942 0.78990 0.08585
 C408 C 0.01561 0.80955 0.06979
 C409 C -0.02585 0.81438 0.08638
 C410 C 0.04061 0.74181 0.15810
 C411 C 0.06022 0.74443 0.17432
 C412 C 0.06600 0.78587 0.15933
 C413 C 0.04637 0.78238 0.14322
 N414 N 0.03433 0.76049 0.14270
 H415 H -0.03576 0.78838 0.11435
 H416 H 0.03693 0.78003 0.08563
 H417 H 0.03048 0.81495 0.05751
 H418 H -0.04395 0.82316 0.08669
 H419 H 0.03041 0.72477 0.15763
 H420 H 0.06492 0.72933 0.18643
 H421 H 0.07562 0.80327 0.15929
 H422 H 0.04073 0.79721 0.13125
 C423 C -0.06043 0.73794 0.17246
 C424 C 0.02478 0.69049 0.06708
 C425 C 0.07326 0.76665 0.17501
 C426 C -0.00733 0.82201 0.06982
 C427 C 0.49612 0.21526 0.58607
 H428 H 0.47808 0.22404 0.58754
 C429 C 0.49999 0.19614 0.56938
 H430 H 0.48486 0.19013 0.55803
 C431 C 0.53797 0.21273 0.59874
 H432 H 0.55278 0.21949 0.61000
 C433 C 0.54281 0.19394 0.58184
 H434 H 0.56128 0.18605 0.58040
 N435 N 0.51484 0.22279 0.60070
 C436 C 0.47256 0.25972 0.65881
 H437 H 0.48186 0.27728 0.65903
 C438 C 0.45265 0.25547 0.67477
 H439 H 0.44676 0.26985 0.68731
 C440 C 0.46963 0.21937 0.64277
 H441 H 0.47662 0.20514 0.63070
 C442 C 0.44974 0.21429 0.65850
 H443 H 0.44122 0.19634 0.65785
 Zn444 Zn 0.50801 0.24910 0.62253
 N445 N 0.48039 0.24192 0.64296
 C446 C 0.47896 0.28827 0.60269
 N447 N 0.50167 0.27719 0.60297
 C448 C 0.52028 0.28483 0.58789
 C449 C 0.51655 0.30455 0.57190
 C450 C 0.47438 0.30803 0.58691
 C451 C 0.54197 0.23512 0.65804
 C452 C 0.56066 0.23792 0.67526
 C453 C 0.56480 0.28031 0.66256
 C454 C 0.54607 0.27666 0.64548
 N455 N 0.53510 0.25432 0.64355
 H456 H 0.46414 0.28144 0.61422
 H457 H 0.53805 0.27543 0.58821
 H458 H 0.53175 0.31050 0.56028
 H459 H 0.45602 0.31624 0.58659
 H460 H 0.53271 0.21765 0.65633
 H461 H 0.56596 0.22230 0.68644
 H462 H 0.57284 0.29840 0.66426
 H463 H 0.53986 0.29188 0.63428
 C464 C 0.44095 0.23249 0.67471
 C465 C 0.52359 0.18534 0.56713
 C466 C 0.57220 0.26083 0.67789
 C467 C 0.49329 0.31636 0.57114
 C468 C 0.51151 0.71518 0.91190
 H469 H 0.52951 0.72374 0.91066
 C470 C 0.50783 0.69534 0.92778
 H471 H 0.52338 0.68851 0.93821
 C472 C 0.46979 0.71348 0.89902
 H473 H 0.45490 0.72087 0.88807
 C474 C 0.46513 0.69398 0.91505
 H475 H 0.44653 0.68677 0.91624
 N476 N 0.49280 0.72337 0.89744
 C477 C 0.53420 0.76068 0.83933
 H478 H 0.52477 0.77834 0.83935
 C479 C 0.55364 0.75622 0.82278
 H480 H 0.55908 0.77056 0.81008
 C481 C 0.53770 0.72016 0.85510
 H482 H 0.53103 0.70591 0.86721
 C483 C 0.55710 0.71486 0.83877
 H484 H 0.56561 0.69673 0.83902
 Zn485 Zn 0.49916 0.74988 0.87581
 N486 N 0.52684 0.74286 0.85527
 C487 C 0.52658 0.79004 0.89513
 N488 N 0.50456 0.77803 0.89532
 C489 C 0.48563 0.78517 0.91040
 C490 C 0.48813 0.80558 0.92561
 C491 C 0.52994 0.81051 0.91018
 C492 C 0.46576 0.73574 0.84021
 C493 C 0.44645 0.73811 0.82356
 C494 C 0.44037 0.78013 0.83691
 C495 C 0.45979 0.77693 0.85339
 N496 N 0.47191 0.75492 0.85483
 H497 H 0.54164 0.78370 0.88350
 H498 H 0.46851 0.77495 0.91054
 H499 H 0.47286 0.81090 0.93756
 H500 H 0.54747 0.82006 0.90959
 H501 H 0.47593 0.71854 0.84155
 H502 H 0.44162 0.72244 0.81241
 H503 H 0.43121 0.79790 0.83573
 H504 H 0.46542 0.79217 0.86466
 C505 C 0.56529 0.73301 0.82232
 C506 C 0.48438 0.68431 0.92948
 C507 C 0.43350 0.76056 0.82168
 C508 C 0.51050 0.81859 0.92558
 C509 C 0.14777 0.22615 0.25448
 C510 C 0.16233 0.24554 0.24535
 C511 C 0.18148 0.24050 0.22868
 C512 C 0.18612 0.21632 0.22086
 C513 C 0.17101 0.19753 0.23009
 N514 N 0.15252 0.20284 0.24640
 C515 C 0.12698 0.23014 0.27214
 N516 N 0.11045 0.21163 0.27570
 C517 C 0.09087 0.21365 0.29147
 C518 C 0.08690 0.23540 0.30481
 C519 C 0.10379 0.25465 0.30166
 C520 C 0.12387 0.25208 0.28553
 H521 H 0.19271 0.25548 0.22182
 H522 H 0.17381 0.17870 0.22417
 H523 H 0.07821 0.19839 0.29325
 H524 H 0.10168 0.27155 0.31200
 H525 H 0.15897 0.26446 0.25051
 H526 H 0.13682 0.26706 0.28407
 C527 C 0.64481 0.71376 0.75335
 C528 C 0.65180 0.69025 0.74480
 C529 C 0.67187 0.68779 0.72864
 C530 C 0.68521 0.70855 0.72116
 C531 C 0.67773 0.73166 0.73008
 N532 N 0.65809 0.73364 0.74577
 C533 C 0.62395 0.71776 0.77088
 N534 N 0.62238 0.73966 0.78294
 C535 C 0.60393 0.74495 0.79930
 C536 C 0.58551 0.72757 0.80445
 C537 C 0.58657 0.70496 0.79210
 C538 C 0.60560 0.70002 0.77525
 H539 H 0.67711 0.66968 0.72201
 H540 H 0.68770 0.74806 0.72479
 H541 H 0.60388 0.76258 0.80850
 H542 H 0.57241 0.69125 0.79512
 H543 H 0.64237 0.67380 0.75072
 H544 H 0.60546 0.68267 0.76562
 C545 C 0.35345 0.77303 0.75337
 C546 C 0.35553 0.76923 0.72793
 C547 C 0.33487 0.77292 0.71317
 C548 C 0.31223 0.78059 0.72354
 C549 C 0.31093 0.78448 0.74891
 N550 N 0.33126 0.78066 0.76296
 C551 C 0.37463 0.76948 0.77016
 N552 N 0.37328 0.77974 0.79290
 C553 C 0.39174 0.77727 0.80951
 C554 C 0.41321 0.76360 0.80369
 C555 C 0.41494 0.75270 0.78042
 C556 C 0.39574 0.75548 0.76370
 H557 H 0.33661 0.77014 0.69358
 H558 H 0.29373 0.79037 0.75753
 H559 H 0.38942 0.78566 0.82736
 H560 H 0.43123 0.74216 0.77504
 H561 H 0.37287 0.76396 0.71927
 H562 H 0.39747 0.74636 0.74618
 C563 C -0.15618 0.27817 0.26503
 C564 C -0.18003 0.28450 0.27378
 C565 C -0.19903 0.28895 0.25719
 C566 C -0.19456 0.28682 0.23195
 C567 C -0.17078 0.27974 0.22392
 N568 N -0.15245 0.27575 0.24041
 C569 C -0.13488 0.27409 0.28160
 N570 N -0.11427 0.26241 0.27263
 C571 C -0.09375 0.25836 0.28639
 C572 C -0.09307 0.26644 0.31080
 C573 C -0.11405 0.27864 0.32040
 C574 C -0.13486 0.28259 0.30592
 H575 H -0.21729 0.29405 0.26401
 H576 H -0.16666 0.27797 0.20456
 H577 H -0.07788 0.24923 0.27807
 H578 H -0.11448 0.28501 0.33919
 H579 H -0.18426 0.28586 0.29312
 H580 H -0.15040 0.29260 0.31378
 C581 C -0.14329 0.71953 0.23739
 C582 C -0.15234 0.69601 0.24319
 C583 C -0.17244 0.69373 0.25929
 C584 C -0.18372 0.71472 0.26956
 C585 C -0.17449 0.73788 0.26292
 N586 N -0.15483 0.73966 0.24726
 C587 C -0.12185 0.72326 0.22059
 N588 N -0.11865 0.74585 0.21024
 C589 C -0.09934 0.75093 0.19490
 C590 C -0.08167 0.73266 0.18913
 C591 C -0.08446 0.70929 0.19973
 C592 C -0.10438 0.70454 0.21550
 H593 H -0.17910 0.67554 0.26390
 H594 H -0.18296 0.75452 0.27014
 H595 H -0.09801 0.76916 0.18701
 H596 H -0.07095 0.69482 0.19624
 H597 H -0.14437 0.67950 0.23525
 H598 H -0.10557 0.68656 0.22391
 C599 C 0.35763 0.21429 0.73905
 C600 C 0.34949 0.19069 0.74577
 C601 C 0.32855 0.18826 0.76074
 C602 C 0.31551 0.20917 0.76896
 C603 C 0.32404 0.23239 0.76166
 N604 N 0.34453 0.23433 0.74708
 C605 C 0.37952 0.21816 0.72288
 N606 N 0.38196 0.24023 0.71127
 C607 C 0.40137 0.24526 0.69604
 C608 C 0.41987 0.22744 0.69162
 C609 C 0.41794 0.20468 0.70361
 C610 C 0.39794 0.20000 0.71931
 H611 H 0.32247 0.17002 0.76591
 H612 H 0.31426 0.24894 0.76730
 H613 H 0.40207 0.26303 0.68708
 H614 H 0.43210 0.19062 0.70117
 H615 H 0.35872 0.17418 0.73928
 H616 H 0.39736 0.18251 0.72873
 C617 C 0.64585 0.27788 0.75179
 C618 C 0.64178 0.27425 0.77704
 C619 C 0.66044 0.27985 0.79356
 C620 C 0.68309 0.28931 0.78515
 C621 C 0.68643 0.29278 0.75985
 N622 N 0.66800 0.28713 0.74408
 C623 C 0.62663 0.27269 0.73329
 N624 N 0.62875 0.28317 0.71069
 C625 C 0.61184 0.27959 0.69277
 C626 C 0.59119 0.26456 0.69706
 C627 C 0.58881 0.25330 0.72012
 C628 C 0.60646 0.25718 0.73817
 H629 H 0.65704 0.27725 0.81297
 H630 H 0.70370 0.29990 0.75265
 H631 H 0.61469 0.28831 0.67514
 H632 H 0.57311 0.24173 0.72438
 H633 H 0.62428 0.26773 0.78422
 H634 H 0.60425 0.24783 0.75554
 C635 C 0.15249 0.77901 0.24394
 C636 C 0.16622 0.75942 0.25406
 C637 C 0.18401 0.76420 0.27174
 C638 C 0.18810 0.78835 0.27962
 C639 C 0.17401 0.80741 0.26917
 N640 N 0.15679 0.80232 0.25193
 C641 C 0.13282 0.77517 0.22553
 N642 N 0.11606 0.79362 0.22157
 C643 C 0.09720 0.79151 0.20538
 C644 C 0.09423 0.76966 0.19209
 C645 C 0.11150 0.75055 0.19554
 C646 C 0.13085 0.75325 0.21204
 H647 H 0.19453 0.74902 0.27940
 H648 H 0.17645 0.82625 0.27499
 H649 H 0.08426 0.80668 0.20334
 H650 H 0.11021 0.73360 0.18523
 H651 H 0.16310 0.74050 0.24897
 H652 H 0.14411 0.73834 0.21380
 C653 C 0.25444 0.15028 0.21391
 C654 C 0.24862 0.15772 0.19002
 C655 C 0.23235 0.17748 0.18651
 C656 C 0.22218 0.19017 0.20672
 C657 C 0.22853 0.18205 0.23033
 N658 N 0.24410 0.16248 0.23328
 C659 C 0.27129 0.12929 0.21848
 N660 N 0.26631 0.11372 0.23739
 C661 C 0.28113 0.09408 0.24265
 C662 C 0.30276 0.08939 0.22871
 C663 C 0.30834 0.10558 0.20932
 C664 C 0.29259 0.12535 0.20405
 H665 H 0.22761 0.18277 0.16801
 H666 H 0.22129 0.19135 0.24642
 H667 H 0.27572 0.08204 0.25752
 H668 H 0.32507 0.10331 0.19843
 H669 H 0.25616 0.14805 0.17425
 H670 H 0.29734 0.13776 0.18922
 C671 C 0.75897 0.64909 0.71701
 C672 C 0.75415 0.65672 0.69295
 C673 C 0.73683 0.67549 0.68887
 C674 C 0.72464 0.68699 0.70871
 C675 C 0.73033 0.67896 0.73251
 N676 N 0.74687 0.66030 0.73598
 C677 C 0.77613 0.62852 0.72220
 N678 N 0.77046 0.61261 0.74063
 C679 C 0.78533 0.59319 0.74642
 C680 C 0.80772 0.58905 0.73355
 C681 C 0.81402 0.60558 0.71467
 C682 C 0.79822 0.62516 0.70883
 H683 H 0.73269 0.68075 0.67021
 H684 H 0.72155 0.68742 0.74833
 H685 H 0.77932 0.58085 0.76081
 H686 H 0.83131 0.60367 0.70460
 H687 H 0.76309 0.64779 0.67745
 H688 H 0.80348 0.63783 0.69439
 C689 C 0.74666 0.35881 0.79126
 C690 C 0.72099 0.36021 0.78704
 C691 C 0.70640 0.33941 0.79068
 C692 C 0.71716 0.31728 0.79870
 C693 C 0.74268 0.31678 0.80333
 N694 N 0.75656 0.33720 0.79947
 C695 C 0.76348 0.37994 0.78720
 N696 N 0.78672 0.37877 0.79670
 C697 C 0.80359 0.39694 0.79336
 C698 C 0.79757 0.41790 0.77950
 C699 C 0.77373 0.41953 0.76953
 C700 C 0.75672 0.40066 0.77322
 H701 H 0.68666 0.34061 0.78744
 H702 H 0.75162 0.30006 0.80962
 H703 H 0.82185 0.39468 0.80110
 H704 H 0.76817 0.43545 0.75890
 H705 H 0.71201 0.37707 0.78130
 H706 H 0.73880 0.40230 0.76472
 C707 C 0.25359 -0.14510 0.29154
 C708 C 0.24399 -0.15155 0.31474
 C709 C 0.22827 -0.17172 0.31699
 C710 C 0.22219 -0.18567 0.29634
 C711 C 0.23235 -0.17884 0.27360
 N712 N 0.24752 -0.15907 0.27182
 C713 C 0.27041 -0.12391 0.28761
 N714 N 0.28243 -0.12196 0.26562
 C715 C 0.29796 -0.10312 0.26020
 C716 C 0.30227 -0.08461 0.27750
 C717 C 0.29008 -0.08612 0.30027
 C718 C 0.27409 -0.10558 0.30537
 H719 H 0.22078 -0.17641 0.33486
 H720 H 0.22836 -0.18931 0.25728
 H721 H 0.30714 -0.10280 0.24247
 H722 H 0.29252 -0.07198 0.31397
 H723 H 0.24862 -0.14156 0.33112
 H724 H 0.26455 -0.10576 0.32286
 C725 C 0.24567 -0.15211 0.72014
 C726 C 0.27161 -0.15009 0.72090
 C727 C 0.28642 -0.17087 0.71684
 C728 C 0.27558 -0.19365 0.71186
 C729 C 0.24965 -0.19481 0.71066
 N730 N 0.23556 -0.17432 0.71479
 C731 C 0.22896 -0.13077 0.72473
 N732 N 0.20550 -0.13122 0.71576
 C733 C 0.18905 -0.11241 0.71933
 C734 C 0.19582 -0.09160 0.73285
 C735 C 0.21980 -0.09090 0.74251
 C736 C 0.23635 -0.11039 0.73858
 H737 H 0.30639 -0.16918 0.71744
 H738 H 0.24063 -0.21207 0.70686
 H739 H 0.17063 -0.11389 0.71186
 H740 H 0.22589 -0.07515 0.75290
 H741 H 0.28051 -0.13268 0.72421
 H742 H 0.25451 -0.10951 0.74670
 C743 C 0.74183 0.35662 0.22488
 C744 C 0.76767 0.35806 0.22741
 C745 C 0.78226 0.33697 0.22413
 C746 C 0.77122 0.31451 0.21830
 C747 C 0.74536 0.31376 0.21614
 N748 N 0.73149 0.33451 0.21957
 C749 C 0.72548 0.37837 0.22831
 N750 N 0.70175 0.37504 0.23632
 C751 C 0.68569 0.39417 0.23989
 C752 C 0.69315 0.41838 0.23500
 C753 C 0.71741 0.42220 0.22639
 C754 C 0.73362 0.40231 0.22306
 H755 H 0.80218 0.33815 0.22599
 H756 H 0.73626 0.29664 0.21192
 H757 H 0.66702 0.39042 0.24623
 H758 H 0.72393 0.44060 0.22249
 H759 H 0.77655 0.37512 0.23227
 H760 H 0.75211 0.40568 0.21606
 C761 C 0.74199 0.65745 0.27516
 C762 C 0.74807 0.67363 0.25594
 C763 C 0.76575 0.69179 0.25967
 C764 C 0.77719 0.69396 0.28247
 C765 C 0.77062 0.67752 0.30119
 N766 N 0.75357 0.65978 0.29707
 C767 C 0.72416 0.63726 0.27196
 N768 N 0.72726 0.61619 0.28515
 C769 C 0.71191 0.59665 0.28292
 C770 C 0.69185 0.59774 0.26679
 C771 C 0.68794 0.61948 0.25342
 C772 C 0.70408 0.63924 0.25588
 H773 H 0.77055 0.70419 0.24484
 H774 H 0.77932 0.67859 0.31892
 H775 H 0.71533 0.58034 0.29382
 H776 H 0.67267 0.62100 0.24077
 H777 H 0.73975 0.67194 0.23807
 H778 H 0.70067 0.65590 0.24552
 C779 C 0.24321 0.14918 0.77053
 C780 C 0.25052 0.16469 0.75119
 C781 C 0.26721 0.18361 0.75562
 C782 C 0.27642 0.18716 0.77924
 C783 C 0.26876 0.17127 0.79803
 N784 N 0.25271 0.15281 0.79325
 C785 C 0.22605 0.12853 0.76678
 N786 N 0.22831 0.10813 0.78112
 C787 C 0.21330 0.08836 0.77869
 C788 C 0.19443 0.08855 0.76119
 C789 C 0.19146 0.10956 0.74652
 C790 C 0.20726 0.12955 0.74919
 H791 H 0.27288 0.19556 0.74074
 H792 H 0.27576 0.17344 0.81641
 H793 H 0.21595 0.07261 0.79057
 H794 H 0.17713 0.11038 0.73279
 H795 H 0.24387 0.16199 0.73276
 H796 H 0.20452 0.14569 0.73786
 C797 C 0.21470 0.25795 0.14163
 C798 C 0.19079 0.25049 0.14883
 C799 C 0.18788 0.23498 0.16903
 C800 C 0.20859 0.22700 0.18225
 C801 C 0.23207 0.23515 0.17480
 N802 N 0.23449 0.25015 0.15498
 C803 C 0.21927 0.27439 0.12032
 N804 N 0.24204 0.28480 0.11777
 C805 C 0.24796 0.29993 0.09879
 C806 C 0.23037 0.30551 0.08082
 C807 C 0.20684 0.29490 0.08291
 C808 C 0.20125 0.27927 0.10247
 H809 H 0.16946 0.22914 0.17436
 H810 H 0.24844 0.22968 0.18480
 H811 H 0.26629 0.30784 0.09795
 H812 H 0.19290 0.29833 0.06916
 H813 H 0.17436 0.25665 0.13942
 H814 H 0.18316 0.27094 0.10309
 C815 C 0.71348 0.75479 0.64419
 C816 C 0.69007 0.74529 0.65045
 C817 C 0.68776 0.72931 0.67034
 C818 C 0.70855 0.72287 0.68423
 C819 C 0.73147 0.73310 0.67776
 N820 N 0.73333 0.74851 0.65820
 C821 C 0.71746 0.77169 0.62312
 N822 N 0.73947 0.78367 0.62128
 C823 C 0.74487 0.79929 0.60253
 C824 C 0.72749 0.80373 0.58407
 C825 C 0.70473 0.79152 0.58544
 C826 C 0.69968 0.77543 0.60477
 H827 H 0.66974 0.72183 0.67486
 H828 H 0.74786 0.72887 0.68828
 H829 H 0.76260 0.80845 0.60225
 H830 H 0.69100 0.79406 0.57130
 H831 H 0.67354 0.75014 0.64048
 H832 H 0.68221 0.76589 0.60482
 C833 C 0.78886 0.75811 0.34934
 C834 C 0.81246 0.74975 0.34169
 C835 C 0.81471 0.73472 0.32106
 C836 C 0.79364 0.72816 0.30782
 C837 C 0.77047 0.73704 0.31591
 N838 N 0.76871 0.75157 0.33609
 C839 C 0.78495 0.77422 0.37101
 N840 N 0.76270 0.78601 0.37368
 C841 C 0.75736 0.80099 0.39297
 C842 C 0.77504 0.80493 0.41119
 C843 C 0.79805 0.79285 0.40898
 C844 C 0.80305 0.77742 0.38907
 H845 H 0.83290 0.72811 0.31546
 H846 H 0.75380 0.73256 0.30608
 H847 H 0.73944 0.81008 0.39385
 H848 H 0.81203 0.79499 0.42289
 H849 H 0.82913 0.75487 0.35113
 H850 H 0.82072 0.76793 0.38830
 C851 C 0.27877 0.25564 -0.15683
 C852 C 0.25910 0.24709 -0.17113
 C853 C 0.26402 0.23122 -0.19067
 C854 C 0.28839 0.22359 -0.19599
 C855 C 0.30749 0.23229 -0.18115
 N856 N 0.30226 0.24781 -0.16224
 C857 C 0.27482 0.27235 -0.13564
 N858 N 0.29327 0.27453 -0.11895
 C859 C 0.29121 0.28940 -0.09901
 C860 C 0.26947 0.30322 -0.09485
 C861 C 0.25030 0.30148 -0.11190
 C862 C 0.25292 0.28625 -0.13233
 H863 H 0.24877 0.22485 -0.20165
 H864 H 0.32649 0.22652 -0.18442
 H865 H 0.30641 0.29012 -0.08626
 H866 H 0.23345 0.31227 -0.10967
 H867 H 0.24004 0.25206 -0.16721
 H868 H 0.23805 0.28590 -0.14541
 C869 C 0.71353 0.24962 -0.13631
 C870 C 0.70705 0.27446 -0.13274
 C871 C 0.70373 0.28974 -0.15305
 C872 C 0.70644 0.28017 -0.17673
 C873 C 0.71293 0.25531 -0.17957
 N874 N 0.71651 0.24086 -0.15953
 C875 C 0.71749 0.23284 -0.11542
 N876 N 0.73594 0.21561 -0.11680
 C877 C 0.74046 0.19951 -0.09825
 C878 C 0.72558 0.19985 -0.07704
 C879 C 0.70622 0.21717 -0.07536
 C880 C 0.70225 0.23386 -0.09442
 H881 H 0.69876 0.30891 -0.15040
 H882 H 0.71529 0.24752 -0.19769
 H883 H 0.75542 0.18621 -0.10021
 H884 H 0.69437 0.21790 -0.05923
 H885 H 0.70495 0.28205 -0.11450
 H886 H 0.68716 0.24706 -0.09298
 C887 C 0.21145 0.74463 0.35908
 C888 C 0.18795 0.75202 0.35071
 C889 C 0.18618 0.76829 0.33100
 C890 C 0.20766 0.77713 0.31942
 C891 C 0.23075 0.76930 0.32823
 N892 N 0.23204 0.75343 0.34747
 C893 C 0.21467 0.72693 0.37956
 N894 N 0.23693 0.71516 0.38190
 C895 C 0.24148 0.69863 0.40007
 C896 C 0.22294 0.69300 0.41738
 C897 C 0.19993 0.70507 0.41551
 C898 C 0.19575 0.72208 0.39678
 H899 H 0.16804 0.77391 0.32464
 H900 H 0.24772 0.77551 0.31958
 H901 H 0.25945 0.68967 0.40073
 H902 H 0.18531 0.70171 0.42880
 H903 H 0.17104 0.74504 0.35877
 H904 H 0.17804 0.73151 0.39626
 C905 C 0.27589 0.73322 0.65215
 C906 C 0.28209 0.72473 0.67569
 C907 C 0.28674 0.74166 0.69422
 C908 C 0.28500 0.76698 0.68956
 C909 C 0.27812 0.77474 0.66606
 N910 N 0.27386 0.75792 0.64821
 C911 C 0.27140 0.71624 0.63143
 N912 N 0.25903 0.72491 0.61154
 C913 C 0.25452 0.71072 0.59160
 C914 C 0.26286 0.68617 0.59078
 C915 C 0.27581 0.67689 0.61101
 C916 C 0.28020 0.69180 0.63125
 H917 H 0.29164 0.73503 0.71227
 H918 H 0.27662 0.79415 0.66180
 H919 H 0.24482 0.71879 0.57627
 H920 H 0.28243 0.65802 0.61127
 H921 H 0.28311 0.70534 0.68001
 H922 H 0.29076 0.68422 0.64623
 C923 C 0.77379 0.24717 0.15295
 C924 C 0.77256 0.27291 0.15042
 C925 C 0.77672 0.28783 0.17070
 C926 C 0.78233 0.27731 0.19348
 C927 C 0.78393 0.25157 0.19515
 N928 N 0.77967 0.23737 0.17516
 C929 C 0.76925 0.23033 0.13214
 N930 N 0.77826 0.20685 0.13322
 C931 C 0.77478 0.19027 0.11496
 C932 C 0.76133 0.19692 0.09403
 C933 C 0.75165 0.22094 0.09267
 C934 C 0.75545 0.23761 0.11163
 H935 H 0.77580 0.30763 0.16858
 H936 H 0.78820 0.24278 0.21242
 H937 H 0.78225 0.17184 0.11697
 H938 H 0.74132 0.22696 0.07681
 H939 H 0.76884 0.28161 0.13301
 H940 H 0.74728 0.25579 0.11022
 C941 C 0.47371 0.39629 0.50408
 C942 C 0.47703 0.39489 0.47851
 C943 C 0.47194 0.41546 0.46404
 C944 C 0.46331 0.43735 0.47482
 C945 C 0.45966 0.43789 0.50029
 N946 N 0.46492 0.41767 0.51407
 C947 C 0.47916 0.37524 0.52059
 N948 N 0.46945 0.37550 0.54374
 C949 C 0.47367 0.35707 0.56010
 C950 C 0.48861 0.33677 0.55356
 C951 C 0.49900 0.33622 0.52988
 C952 C 0.49445 0.35538 0.51344
 H953 H 0.47454 0.41430 0.44438
 H954 H 0.45300 0.45448 0.50922
 H955 H 0.46559 0.35849 0.57828
 H956 H 0.51047 0.32086 0.52392
 H957 H 0.48313 0.37815 0.46955
 H958 H 0.50322 0.35457 0.49556
 C959 C -0.02727 0.90176 0.00277
 C960 C -0.02673 0.89937 -0.02288
 C961 C -0.03159 0.91987 -0.03753
 C962 C -0.03717 0.94271 -0.02680
 C963 C -0.03814 0.94424 -0.00115
 N964 N -0.03321 0.92404 0.01277
 C965 C -0.02184 0.88078 0.01932
 N966 N -0.03017 0.88175 0.04295
 C967 C -0.02581 0.86335 0.05930
 C968 C -0.01211 0.84238 0.05225
 C969 C -0.00310 0.84111 0.02807
 C970 C -0.00781 0.86022 0.01162
 H971 H -0.03114 0.91790 -0.05727
 H972 H -0.04239 0.96156 0.00777
 H973 H -0.03279 0.86529 0.07787
 H974 H 0.00740 0.82522 0.02176
 H975 H -0.02299 0.88191 -0.03170
 H976 H -0.00015 0.85889 -0.00671
 C977 C 0.04353 0.60949 0.00091
 C978 C 0.06693 0.60273 -0.00869
 C979 C 0.06916 0.58218 -0.02389
 C980 C 0.04829 0.56812 -0.02945
 C981 C 0.02530 0.57538 -0.01947
 N982 N 0.02356 0.59551 -0.00477
 C983 C 0.03968 0.63089 0.01752
 N984 N 0.01733 0.63343 0.02915
 C985 C 0.01210 0.65228 0.04478
 C986 C 0.03005 0.67007 0.04970
 C987 C 0.05315 0.66802 0.03781
 C988 C 0.05801 0.64863 0.02166
 H989 H 0.08721 0.57722 -0.03131
 H990 H 0.00880 0.56488 -0.02310
 H991 H -0.00591 0.65307 0.05367
 H992 H 0.06735 0.68164 0.04073
 H993 H 0.08354 0.61273 -0.00446
 H994 H 0.07584 0.64801 0.01251
 C995 C 0.53872 0.10703 0.49796
 C996 C 0.54432 0.11127 0.47313
 C997 C 0.54677 0.09131 0.45717
 C998 C 0.54409 0.06729 0.46606
 C999 C 0.53855 0.06379 0.49094
 N1000 N 0.53578 0.08351 0.50606
 C1001 C 0.53538 0.12752 0.51539
 N1002 N 0.51742 0.12597 0.53302
 C1003 C 0.51331 0.14423 0.54962
 C1004 C 0.52809 0.16532 0.54932
 C1005 C 0.54702 0.16712 0.53164
 C1006 C 0.55059 0.14835 0.51448
 H1007 H 0.55101 0.09449 0.43800
 H1008 H 0.53621 0.04541 0.49821
 H1009 H 0.49867 0.14219 0.56317
 H1010 H 0.55876 0.18317 0.53093
 H1011 H 0.54634 0.12978 0.46607
 H1012 H 0.56530 0.14991 0.50093
 C1013 C -0.02659 0.09381 0.48746
 C1014 C -0.03193 0.06997 0.47915
 C1015 C -0.03551 0.05106 0.49610
 C1016 C -0.03357 0.05567 0.52127
 C1017 C -0.02756 0.07953 0.52881
 N1018 N -0.02433 0.09772 0.51198
 C1019 C -0.02318 0.11490 0.47049
 N1020 N -0.01143 0.13529 0.47878
 C1021 C -0.00795 0.15560 0.46461
 C1022 C -0.01675 0.15629 0.44050
 C1023 C -0.02905 0.13554 0.43161
 C1024 C -0.03238 0.11491 0.44649
 H1025 H -0.03966 0.03276 0.48959
 H1026 H -0.02591 0.08380 0.54808
 H1027 H 0.00128 0.17131 0.47238
 H1028 H -0.03601 0.13519 0.41308
 H1029 H -0.03308 0.06570 0.45987
 H1030 H -0.04247 0.09950 0.43925
 C1031 C 0.46990 0.60056 0.99283
 C1032 C 0.44658 0.59028 0.99746
 C1033 C 0.44471 0.56964 1.01254
 C1034 C 0.46605 0.55894 1.02273
 C1035 C 0.48901 0.57007 1.01789
 N1036 N 0.49032 0.59039 1.00337
 C1037 C 0.47276 0.62209 0.97660
 N1038 N 0.48959 0.63963 0.98221
 C1039 C 0.49336 0.65969 0.96776
 C1040 C 0.48007 0.66276 0.94589
 C1041 C 0.46281 0.64459 0.93974
 C1042 C 0.45898 0.62443 0.95509
 H1043 H 0.42659 0.56196 1.01617
 H1044 H 0.50593 0.56239 1.02528
 H1045 H 0.50658 0.67326 0.97358
 H1046 H 0.45260 0.64560 0.92281
 H1047 H 0.42994 0.59827 0.98972
 H1048 H 0.44588 0.61046 0.94983
 C1049 C 0.52275 0.90087 0.99079
 C1050 C 0.50288 0.91415 1.00140
 C1051 C 0.50767 0.93299 1.01795
 C1052 C 0.53212 0.93858 1.02419
 C1053 C 0.55144 0.92482 1.01338
 N1054 N 0.54634 0.90655 0.99726
 C1055 C 0.51892 0.88031 0.97342
 N1056 N 0.53764 0.86367 0.96981
 C1057 C 0.53554 0.84412 0.95448
 C1058 C 0.51346 0.84030 0.94171
 C1059 C 0.49408 0.85744 0.94480
 C1060 C 0.49674 0.87748 0.96047
 H1061 H 0.49230 0.94322 1.02596
 H1062 H 0.57052 0.92845 1.01797
 H1063 H 0.55093 0.83130 0.95271
 H1064 H 0.47694 0.85550 0.93486
 H1065 H 0.48381 0.90989 0.99749
 H1066 H 0.48165 0.89062 0.96199
 C1067 C 0.02223 0.39456 0.49627
 C1068 C 0.00262 0.40832 0.50676
 C1069 C 0.00772 0.42680 0.52362
 C1070 C 0.03222 0.43157 0.53034
 C1071 C 0.05129 0.41746 0.51954
 N1072 N 0.04589 0.39956 0.50310
 C1073 C 0.01813 0.37422 0.47866
 N1074 N 0.03708 0.35806 0.47408
 C1075 C 0.03490 0.33877 0.45843
 C1076 C 0.01249 0.33470 0.44634
 C1077 C -0.00721 0.35125 0.45051
 C1078 C -0.00446 0.37105 0.46646
 H1079 H -0.00748 0.43732 0.53158
 H1080 H 0.07041 0.42040 0.52446
 H1081 H 0.05054 0.32639 0.45581
 H1082 H -0.02464 0.34909 0.44113
 H1083 H -0.01653 0.40473 0.50259
 H1084 H -0.01984 0.38373 0.46874
 C1085 C 0.39286 0.50113 0.47133
 C1086 C 0.39178 0.47528 0.47196
 C1087 C 0.41340 0.46140 0.46832
 C1088 C 0.43605 0.47310 0.46383
 C1089 C 0.43633 0.49889 0.46298
 N1090 N 0.41506 0.51205 0.46670
 C1091 C 0.37065 0.51701 0.47521
 N1092 N 0.37144 0.54086 0.46754
 C1093 C 0.35208 0.55678 0.47072
 C1094 C 0.33022 0.54903 0.48247
 C1095 C 0.32901 0.52455 0.49062
 C1096 C 0.34912 0.50855 0.48713
 H1097 H 0.41242 0.44151 0.46868
 H1098 H 0.45348 0.50856 0.45960
 H1099 H 0.35400 0.57559 0.46448
 H1100 H 0.31247 0.51771 0.49962
 H1101 H 0.37452 0.46569 0.47477
 H1102 H 0.34777 0.49001 0.49417
 C1103 C 0.90026 0.01482 -0.02618
 C1104 C 0.92384 0.02361 -0.03283
 C1105 C 0.94307 0.00693 -0.03769
 C1106 C 0.93906 -0.01844 -0.03570
 C1107 C 0.91552 -0.02650 -0.02828
 N1108 N 0.89698 -0.00992 -0.02385
 C1109 C 0.87880 0.03153 -0.02164
 N1110 N 0.85891 0.02289 -0.00879
 C1111 C 0.83832 0.03686 -0.00428
 C1112 C 0.83677 0.06111 -0.01312
 C1113 C 0.85699 0.07035 -0.02654
 C1114 C 0.87791 0.05567 -0.03092
 H1115 H 0.96113 0.01379 -0.04298
 H1116 H 0.91176 -0.04596 -0.02655
 H1117 H 0.82304 0.02884 0.00583
 H1118 H 0.85672 0.08899 -0.03356
 H1119 H 0.92766 0.04305 -0.03410
 H1120 H 0.89285 0.06318 -0.04185
 C1121 C 0.59523 0.00856 0.02786
 C1122 C 0.58071 0.00024 0.00832
 C1123 C 0.56157 -0.01629 0.01288
 C1124 C 0.55690 -0.02485 0.03672
 C1125 C 0.57192 -0.01632 0.05568
 N1126 N 0.59042 -0.00013 0.05084
 C1127 C 0.61604 0.02597 0.02434
 N1128 N 0.63275 0.02847 0.04270
 C1129 C 0.65242 0.04388 0.04100
 C1130 C 0.65631 0.05792 0.01973
 C1131 C 0.63919 0.05591 0.00069
 C1132 C 0.61902 0.04015 0.00294
 H1133 H 0.55035 -0.02240 -0.00224
 H1134 H 0.56909 -0.02270 0.07428
 H1135 H 0.66523 0.04479 0.05608
 H1136 H 0.64120 0.06683 -0.01582
 H1137 H 0.58412 0.00593 -0.01037
 H1138 H 0.60591 0.03957 -0.01186
 C1139 C 0.09879 0.49794 0.53913
 C1140 C 0.09294 0.48871 0.56257
 C1141 C 0.07303 0.47275 0.56554
 C1142 C 0.05867 0.46608 0.54539
 C1143 C 0.06500 0.47573 0.52232
 N1144 N 0.08454 0.49120 0.51984
 C1145 C 0.11946 0.51534 0.53465
 N1146 N 0.12038 0.52764 0.51289
 C1147 C 0.13852 0.54399 0.50728
 C1148 C 0.15723 0.54895 0.52419
 C1149 C 0.15685 0.53632 0.54662
 C1150 C 0.13818 0.51945 0.55187
 H1151 H 0.06873 0.46567 0.58363
 H1152 H 0.05420 0.47124 0.50637
 H1153 H 0.13807 0.55338 0.48979
 H1154 H 0.17126 0.53918 0.55996
 H1155 H 0.10312 0.49392 0.57865
 H1156 H 0.13890 0.50966 0.56908
 C1157 C 0.11279 0.49874 -0.03868
 C1158 C 0.10395 0.50518 -0.06200
 C1159 C 0.08363 0.52109 -0.06399
 C1160 C 0.07194 0.53051 -0.04290
 C1161 C 0.08120 0.52358 -0.01997
 N1162 N 0.10103 0.50805 -0.01846
 C1163 C 0.13391 0.48145 -0.03524
 N1164 N 0.13657 0.47027 -0.01307
 C1165 C 0.15522 0.45399 -0.00840
 C1166 C 0.17267 0.44799 -0.02674
 C1167 C 0.17054 0.45955 -0.04963
 C1168 C 0.15133 0.47633 -0.05393
 H1169 H 0.07693 0.52601 -0.08199
 H1170 H 0.07246 0.53026 -0.00329
 H1171 H 0.15608 0.44542 0.00948
 H1172 H 0.18394 0.45588 -0.06412
 H1173 H 0.11212 0.49773 -0.07860
 H1174 H 0.15056 0.48534 -0.07158
 C1175 C 0.60217 0.99227 0.46409
 C1176 C 0.57854 0.98503 0.45638
 C1177 C 0.56037 1.00288 0.45195
 C1178 C 0.56552 1.02788 0.45535
 C1179 C 0.58904 1.03432 0.46377
 N1180 N 0.60652 1.01664 0.46777
 C1181 C 0.62259 0.97437 0.46850
 N1182 N 0.64253 0.98185 0.48155
 C1183 C 0.66225 0.96685 0.48610
 C1184 C 0.66281 0.94263 0.47713
 C1185 C 0.64255 0.93456 0.46348
 C1186 C 0.62252 0.95032 0.45904
 H1187 H 0.54224 0.99720 0.44594
 H1188 H 0.59367 1.05343 0.46667
 H1189 H 0.67763 0.97402 0.49636
 H1190 H 0.64208 0.91599 0.45635
 H1191 H 0.57381 0.96591 0.45400
 H1192 H 0.60753 0.94365 0.44797
 C1193 C 0.90336 0.98596 0.52951
 C1194 C 0.92686 0.97727 0.53661
 C1195 C 0.94614 0.99388 0.53961
 C1196 C 0.94226 1.01904 0.53531
 C1197 C 0.91874 1.02697 0.52779
 N1198 N 0.90016 1.01048 0.52515
 C1199 C 0.88195 0.96939 0.52620
 N1200 N 0.86202 0.97790 0.51352
 C1201 C 0.84160 0.96403 0.50965
 C1202 C 0.84033 0.93993 0.51889
 C1203 C 0.86052 0.93086 0.53228
 C1204 C 0.88123 0.94549 0.53609
 H1205 H 0.96419 0.98712 0.54511
 H1206 H 0.91508 1.04628 0.52437
 H1207 H 0.82631 0.97197 0.49960
 H1208 H 0.86045 0.91234 0.53961
 H1209 H 0.93066 0.95794 0.53952
 H1210 H 0.89619 0.93806 0.54691
 C1211 C 0.40929 0.48424 0.02104
 C1212 C 0.42374 0.49426 0.00193
 C1213 C 0.44215 0.51121 0.00734
 C1214 C 0.44609 0.51844 0.03161
 C1215 C 0.43147 0.50792 0.05018
 N1216 N 0.41363 0.49145 0.04449
 C1217 C 0.38870 0.46696 0.01656
 N1218 N 0.37145 0.46359 0.03463
 C1219 C 0.35166 0.44857 0.03193
 C1220 C 0.34819 0.43594 0.00985
 C1221 C 0.36593 0.43875 -0.00889
 C1222 C 0.38624 0.45406 -0.00560
 H1223 H 0.45318 0.51893 -0.00742
 H1224 H 0.43394 0.51318 0.06910
 H1225 H 0.33836 0.44700 0.04683
 H1226 H 0.36422 0.42891 -0.02602
 H1227 H 0.42066 0.48973 -0.01705
 H1228 H 0.39981 0.45541 -0.02023
 C1229 C 0.50981 0.47766 0.40373
 C1230 C 0.51857 0.47010 0.42675
 C1231 C 0.50168 0.46429 0.44536
 C1232 C 0.47612 0.46582 0.44116
 C1233 C 0.46810 0.47347 0.41799
 N1234 N 0.48489 0.47898 0.40010
 C1235 C 0.52674 0.48319 0.38290
 N1236 N 0.51764 0.48236 0.35975
 C1237 C 0.53196 0.48668 0.33958
 C1238 C 0.55717 0.49228 0.34203
 C1239 C 0.56686 0.49369 0.36575
 C1240 C 0.55176 0.48927 0.38617
 H1241 H 0.50854 0.45840 0.46302
 H1242 H 0.44852 0.47459 0.41398
 H1243 H 0.52357 0.48588 0.32169
 H1244 H 0.58622 0.49783 0.36853
 H1245 H 0.53813 0.46802 0.43036
 H1246 H 0.55971 0.49085 0.40419
 C1247 C 0.00340 -0.02390 0.89501
 C1248 C -0.02246 -0.02073 0.89360
 C1249 C -0.03719 -0.02457 0.91440
 C1250 C -0.02635 -0.03178 0.93653
 C1251 C -0.00056 -0.03508 0.93715
 N1252 N 0.01344 -0.03112 0.91670
 C1253 C 0.02021 -0.02016 0.87365
 N1254 N 0.04364 -0.02964 0.87457
 C1255 C 0.06030 -0.02700 0.85591
 C1256 C 0.05379 -0.01403 0.83463
 C1257 C 0.02980 -0.00391 0.83334
 C1258 C 0.01305 -0.00681 0.85276
 H1259 H -0.05709 -0.02223 0.91319
 H1260 H 0.00842 -0.04060 0.95394
 H1261 H 0.07871 -0.03477 0.85790
 H1262 H 0.02387 0.00608 0.81723
 H1263 H -0.03147 -0.01580 0.87668
 H1264 H -0.00507 0.00168 0.85133
 C1265 C 0.00638 0.02757 0.60201
 C1266 C -0.01964 0.02737 0.60433
 C1267 C -0.03420 0.03059 0.58361
 C1268 C -0.02308 0.03437 0.56063
 C1269 C 0.00283 0.03525 0.55909
 N1270 N 0.01669 0.03174 0.57949
 C1271 C 0.02314 0.02321 0.62306
 N1272 N 0.04791 0.02677 0.61972
 C1273 C 0.06468 0.02282 0.63777
 C1274 C 0.05684 0.01462 0.66097
 C1275 C 0.03142 0.01078 0.66485
 C1276 C 0.01459 0.01490 0.64605
 H1277 H -0.05420 0.03014 0.58544
 H1278 H 0.01201 0.03811 0.54160
 H1279 H 0.08413 0.02572 0.63380
 H1280 H 0.02444 0.00480 0.68253
 H1281 H -0.02897 0.02483 0.62172
 H1282 H -0.00471 0.01125 0.64976
 C1283 C 0.51335 0.52443 0.09654
 C1284 C 0.50761 0.50491 0.08075
 C1285 C 0.49162 0.50901 0.06123
 C1286 C 0.48112 0.53239 0.05742
 C1287 C 0.48697 0.55130 0.07376
 N1288 N 0.50269 0.54691 0.09261
 C1289 C 0.53010 0.52138 0.11776
 N1290 N 0.52983 0.53903 0.13546
 C1291 C 0.54447 0.53772 0.15554
 C1292 C 0.56062 0.51762 0.15880
 C1293 C 0.56147 0.49934 0.14069
 C1294 C 0.54641 0.50119 0.12013
 H1295 H 0.48743 0.49395 0.04903
 H1296 H 0.47893 0.56948 0.07163
 H1297 H 0.54314 0.55216 0.16914
 H1298 H 0.57406 0.48379 0.14224
 H1299 H 0.51490 0.48653 0.08343
 H1300 H 0.54802 0.48708 0.10626
 C1301 C 0.49103 -0.03508 0.10464
 C1302 C 0.49936 -0.05854 0.09720
 C1303 C 0.51488 -0.06079 0.07670
 C1304 C 0.52204 -0.03985 0.06345
 C1305 C 0.51338 -0.01678 0.07143
 N1306 N 0.49826 -0.01502 0.09145
 C1307 C 0.47395 -0.03135 0.12583
 N1308 N 0.46138 -0.00957 0.12770
 C1309 C 0.44537 -0.00454 0.14647
 C1310 C 0.44115 -0.02205 0.16495
 C1311 C 0.45400 -0.04458 0.16353
 C1312 C 0.47046 -0.04927 0.14415
 H1313 H 0.52117 -0.07890 0.07102
 H1314 H 0.51826 -0.00024 0.06150
 H1315 H 0.43574 0.01302 0.14674
 H1316 H 0.45170 -0.05839 0.17768
 H1317 H 0.49363 -0.07510 0.10655
 H1318 H 0.48054 -0.06654 0.14398
 C1319 C 0.99078 0.45828 0.61098
 C1320 C 0.99774 0.43456 0.60302
 C1321 C 1.01323 0.43188 0.58254
 C1322 C 1.02167 0.45267 0.56981
 C1323 C 1.01414 0.47598 0.57815
 N1324 N 0.99909 0.47815 0.59817
 C1325 C 0.97421 0.46256 0.63246
 N1326 N 0.96317 0.48506 0.63502
 C1327 C 0.94787 0.49071 0.65417
 C1328 C 0.94283 0.47313 0.67237
 C1329 C 0.95410 0.44984 0.67025
 C1330 C 0.96985 0.44451 0.65046
 H1331 H 1.01866 0.41359 0.57658
 H1332 H 1.02006 0.49243 0.56862
 H1333 H 0.93943 0.50884 0.65497
 H1334 H 0.95112 0.43590 0.68415
 H1335 H 0.99111 0.41815 0.61207
 H1336 H 0.97875 0.42663 0.64975
 C1337 C 0.99554 0.52972 0.90296
 C1338 C 1.00568 0.51081 0.91746
 C1339 C 1.02347 0.51642 0.93489
 C1340 C 1.03137 0.54073 0.93789
 C1341 C 1.02082 0.55910 0.92312
 N1342 N 1.00353 0.55320 0.90621
 C1343 C 0.97723 0.52488 0.88351
 N1344 N 0.97422 0.54192 0.86543
 C1345 C 0.95815 0.53878 0.84670
 C1346 C 0.94391 0.51734 0.84531
 C1347 C 0.94641 0.49969 0.86393
 C1348 C 0.96288 0.50342 0.88308
 H1349 H 1.03125 0.50176 0.94595
 H1350 H 1.02667 0.57802 0.92473
 H1351 H 0.95691 0.55282 0.83267
 H1352 H 0.93536 0.48315 0.86386
 H1353 H 1.00056 0.49178 0.91512
 H1354 H 0.96394 0.48972 0.89741
 C1355 C 0.50075 0.03709 0.38857
 C1356 C 0.52639 0.03262 0.38619
 C1357 C 0.54171 0.03614 0.40629
 C1358 C 0.53171 0.04434 0.42866
 C1359 C 0.50624 0.04959 0.43004
 N1360 N 0.49160 0.04574 0.41031
 C1361 C 0.48319 0.03244 0.36838
 N1362 N 0.46003 0.04258 0.36976
 C1363 C 0.44255 0.03859 0.35248
 C1364 C 0.44784 0.02331 0.33233
 C1365 C 0.47158 0.01264 0.33053
 C1366 C 0.48921 0.01703 0.34847
 H1367 H 0.56139 0.03239 0.40444
 H1368 H 0.49789 0.05605 0.44699
 H1369 H 0.42440 0.04694 0.35481
 H1370 H 0.47659 0.00092 0.31520
 H1371 H 0.53476 0.02661 0.36913
 H1372 H 0.50703 0.00793 0.34681
   
