data_POSCAR
  _audit_creation_date              2014-09-24
  _audit_creation_method            'ToBaCCo'
  _symmetry_space_group_name_H-M    'P1'
  _symmetry_Int_Tables_number       1
  _symmetry_cell_setting            triclinic
  loop_
  _symmetry_equiv_pos_as_xyz
 x,y,z
_cell_length_a 69.0650
_cell_length_b 69.1047
_cell_length_c 69.3415
_cell_angle_alpha 89.899900
_cell_angle_beta 89.931400
_cell_angle_gamma 89.904700
loop_
  _atom_site_label
  _atom_site_type_symbol
  _atom_site_fract_x
  _atom_site_fract_y
  _atom_site_fract_z
N1 N 0.37824 0.32439 0.33843
 N2 N 0.37708 0.33729 0.32449
 C3 C 0.39050 0.33313 0.31097
 C4 C 0.40055 0.31693 0.31695
 C5 C 0.39243 0.31168 0.33432
 H6 H 0.39220 0.34067 0.29739
 H7 H 0.39584 0.29895 0.34276
 Cu8 Cu 0.35685 0.35698 0.32479
 Cu9 Cu 0.35968 0.32333 0.35954
 Cu10 Cu 0.32351 0.35823 0.35999
 N11 N 0.33663 0.37667 0.32509
 N12 N 0.32379 0.37720 0.33912
 C13 C 0.31080 0.39127 0.33545
 C14 C 0.31579 0.39997 0.31827
 C15 C 0.33216 0.39039 0.31196
 H16 H 0.29813 0.39431 0.34413
 H17 H 0.33965 0.39267 0.29845
 N18 N 0.32571 0.33778 0.37977
 N19 N 0.33957 0.32457 0.37964
 C20 C 0.33606 0.31154 0.39368
 C21 C 0.31931 0.31688 0.40304
 C22 C 0.31302 0.33346 0.39392
 H23 H 0.34430 0.29844 0.39611
 H24 H 0.29957 0.34103 0.39659
 H25 H 0.33680 0.33610 0.34493
 H26 H 0.35268 0.35238 0.35936
 N27 N 0.37915 0.82485 -0.16376
 N28 N 0.37818 0.83804 -0.17744
 C29 C 0.39187 0.83433 -0.19079
 C30 C 0.40192 0.81811 -0.18500
 C31 C 0.39351 0.81232 -0.16791
 H32 H 0.39376 0.84218 -0.20416
 H33 H 0.39687 0.79942 -0.15969
 Cu34 Cu 0.35801 0.85765 -0.17736
 Cu35 Cu 0.36029 0.82359 -0.14287
 Cu36 Cu 0.32424 0.85864 -0.14246
 N37 N 0.33799 0.87740 -0.17690
 N38 N 0.32487 0.87785 -0.16312
 C39 C 0.31208 0.89210 -0.16689
 C40 C 0.31763 0.90097 -0.18385
 C41 C 0.33397 0.89132 -0.18992
 H42 H 0.29923 0.89513 -0.15847
 H43 H 0.34176 0.89367 -0.20326
 N44 N 0.32612 0.83796 -0.12285
 N45 N 0.33991 0.82468 -0.12298
 C46 C 0.33631 0.81166 -0.10893
 C47 C 0.31956 0.81708 -0.09958
 C48 C 0.31338 0.83370 -0.10872
 H49 H 0.34457 0.79860 -0.10639
 H50 H 0.30003 0.84144 -0.10597
 H51 H 0.33773 0.83672 -0.15754
 H52 H 0.35355 0.85281 -0.14282
 N53 N 0.87702 0.32465 -0.16337
 N54 N 0.87652 0.33777 -0.17715
 C55 C 0.89036 0.33372 -0.19024
 C56 C 0.90002 0.31735 -0.18425
 C57 C 0.89123 0.31184 -0.16724
 H58 H 0.89269 0.34153 -0.20357
 H59 H 0.89433 0.29901 -0.15882
 Cu60 Cu 0.85685 0.35789 -0.17744
 Cu61 Cu 0.85792 0.32405 -0.14260
 Cu62 Cu 0.82299 0.36022 -0.14275
 N63 N 0.83733 0.37817 -0.17734
 N64 N 0.82423 0.37916 -0.16357
 C65 C 0.81180 0.39366 -0.16755
 C66 C 0.81755 0.40214 -0.18462
 C67 C 0.83365 0.39198 -0.19058
 H68 H 0.79901 0.39710 -0.15920
 H69 H 0.84145 0.39391 -0.20397
 N70 N 0.82407 0.33975 -0.12294
 N71 N 0.83734 0.32594 -0.12288
 C72 C 0.83308 0.31316 -0.10879
 C73 C 0.81646 0.31932 -0.09961
 C74 C 0.81106 0.33610 -0.10890
 H75 H 0.84079 0.29979 -0.10610
 H76 H 0.79799 0.34435 -0.10634
 H77 H 0.83592 0.33763 -0.15757
 H78 H 0.85216 0.35335 -0.14290
 N79 N 0.87742 0.82481 0.33728
 N80 N 0.87713 0.83809 0.32366
 C81 C 0.89089 0.83398 0.31051
 C82 C 0.90028 0.81737 0.31629
 C83 C 0.89141 0.81181 0.33325
 H84 H 0.89332 0.84189 0.29727
 H85 H 0.89428 0.79882 0.34151
 Cu86 Cu 0.85762 0.85836 0.32358
 Cu87 Cu 0.85835 0.82431 0.35810
 Cu88 Cu 0.82352 0.86067 0.35792
 N89 N 0.83804 0.87857 0.32335
 N90 N 0.82481 0.87950 0.33699
 C91 C 0.81219 0.89375 0.33275
 C92 C 0.81795 0.90215 0.31564
 C93 C 0.83427 0.89219 0.30993
 H94 H 0.79924 0.89703 0.34091
 H95 H 0.84213 0.89406 0.29657
 N96 N 0.82462 0.84028 0.37781
 N97 N 0.83780 0.82639 0.37785
 C98 C 0.83352 0.81367 0.39199
 C99 C 0.81698 0.81996 0.40121
 C100 C 0.81163 0.83675 0.39191
 H101 H 0.84114 0.80025 0.39467
 H102 H 0.79861 0.84507 0.39449
 H103 H 0.83646 0.83808 0.34317
 H104 H 0.85262 0.85358 0.35808
 N105 N 0.62373 0.67659 0.33958
 N106 N 0.62410 0.66358 0.32574
 C107 C 0.61037 0.66801 0.31263
 C108 C 0.60092 0.68451 0.31876
 C109 C 0.60974 0.68964 0.33580
 H110 H 0.60798 0.66038 0.29924
 H111 H 0.60684 0.70243 0.34430
 Cu112 Cu 0.64369 0.64326 0.32554
 Cu113 Cu 0.64283 0.67701 0.36028
 Cu114 Cu 0.67758 0.64066 0.36002
 N115 N 0.66327 0.62291 0.32538
 N116 N 0.67626 0.62184 0.33920
 C117 C 0.68884 0.60750 0.33519
 C118 C 0.68342 0.59919 0.31800
 C119 C 0.66724 0.60930 0.31202
 H120 H 0.70159 0.60409 0.34357
 H121 H 0.65960 0.60748 0.29855
 N122 N 0.67658 0.66104 0.37983
 N123 N 0.66340 0.67493 0.37991
 C124 C 0.66781 0.68771 0.39389
 C125 C 0.68443 0.68148 0.40296
 C126 C 0.68969 0.66464 0.39375
 H127 H 0.66024 0.70118 0.39650
 H128 H 0.70276 0.65637 0.39621
 H129 H 0.66480 0.66342 0.34521
 H130 H 0.64854 0.64779 0.36003
 N131 N 0.62356 0.17466 -0.16284
 N132 N 0.62413 0.16099 -0.17601
 C133 C 0.61052 0.16463 -0.18946
 C134 C 0.60085 0.18128 -0.18424
 C135 C 0.60946 0.18737 -0.16738
 H136 H 0.60833 0.15631 -0.20248
 H137 H 0.60628 0.20048 -0.15949
 Cu138 Cu 0.64383 0.14086 -0.17518
 Cu139 Cu 0.64233 0.17601 -0.14183
 Cu140 Cu 0.67720 0.13978 -0.14021
 N141 N 0.66352 0.12070 -0.17432
 N142 N 0.67641 0.12025 -0.16036
 C143 C 0.68929 0.10604 -0.16388
 C144 C 0.68414 0.09721 -0.18090
 C145 C 0.66789 0.10687 -0.18731
 H146 H 0.70210 0.10317 -0.15536
 H147 H 0.66051 0.10472 -0.20090
 N148 N 0.67577 0.16077 -0.12111
 N149 N 0.66263 0.17468 -0.12178
 C150 C 0.66674 0.18787 -0.10807
 C151 C 0.68310 0.18184 -0.09840
 C152 C 0.68853 0.16473 -0.10698
 H153 H 0.65911 0.20139 -0.10599
 H154 H 0.70148 0.15647 -0.10392
 H155 H 0.66448 0.16201 -0.15603
 H156 H 0.64809 0.14697 -0.14085
 N157 N 0.12240 0.67597 -0.16094
 N158 N 0.12361 0.66326 -0.17500
 C159 C 0.10990 0.66730 -0.18824
 C160 C 0.09964 0.68323 -0.18196
 C161 C 0.10792 0.68845 -0.16470
 H162 H 0.10813 0.65988 -0.20184
 H163 H 0.10439 0.70101 -0.15610
 Cu164 Cu 0.14411 0.64384 -0.17532
 Cu165 Cu 0.14117 0.67706 -0.14013
 Cu166 Cu 0.17750 0.64242 -0.14007
 N167 N 0.16425 0.62406 -0.17482
 N168 N 0.17714 0.62349 -0.16086
 C169 C 0.18998 0.60926 -0.16448
 C170 C 0.18477 0.60047 -0.18152
 C171 C 0.16850 0.61019 -0.18780
 H172 H 0.20262 0.60611 -0.15584
 H173 H 0.16086 0.60784 -0.20120
 N174 N 0.17539 0.66281 -0.12030
 N175 N 0.16146 0.67593 -0.12029
 C176 C 0.16503 0.68898 -0.10633
 C177 C 0.18191 0.68373 -0.09716
 C178 C 0.18819 0.66718 -0.10632
 H179 H 0.15675 0.70204 -0.10385
 H180 H 0.20171 0.65969 -0.10379
 H181 H 0.16403 0.66452 -0.15499
 H182 H 0.14820 0.64793 -0.14070
 N183 N 0.12189 0.17474 0.33747
 N184 N 0.12213 0.16021 0.32524
 C185 C 0.10872 0.16334 0.31148
 C186 C 0.09963 0.18066 0.31547
 C187 C 0.10830 0.18758 0.33195
 H188 H 0.10633 0.15415 0.29911
 H189 H 0.10552 0.20131 0.33889
 Cu190 Cu 0.14079 0.13926 0.32770
 Cu191 Cu 0.14041 0.17690 0.35850
 Cu192 Cu 0.17662 0.14230 0.36046
 N193 N 0.16261 0.12146 0.32750
 N194 N 0.17645 0.12257 0.34046
 C195 C 0.19017 0.10931 0.33640
 C196 C 0.18454 0.09945 0.32010
 C197 C 0.16707 0.10749 0.31471
 H198 H 0.20363 0.10758 0.34418
 H199 H 0.15869 0.10402 0.30202
 N200 N 0.17433 0.16343 0.37939
 N201 N 0.16049 0.17663 0.37866
 C202 C 0.16377 0.19001 0.39239
 C203 C 0.18037 0.18489 0.40216
 C204 C 0.18677 0.16808 0.39359
 H205 H 0.15537 0.20306 0.39446
 H206 H 0.20007 0.16045 0.39679
 H207 H 0.16193 0.16224 0.34375
 H208 H 0.14721 0.14784 0.36126
 N209 N 0.62181 0.32475 0.66351
 N210 N 0.62286 0.33784 0.67723
 C211 C 0.60923 0.33409 0.69062
 C212 C 0.59912 0.31796 0.68485
 C213 C 0.60744 0.31228 0.66769
 H214 H 0.60739 0.34188 0.70401
 H215 H 0.60398 0.29948 0.65943
 Cu216 Cu 0.64304 0.35737 0.67711
 Cu217 Cu 0.64056 0.32352 0.64254
 Cu218 Cu 0.67656 0.35849 0.64195
 N219 N 0.66298 0.37713 0.67647
 N220 N 0.67602 0.37761 0.66261
 C221 C 0.68878 0.39185 0.66631
 C222 C 0.68331 0.40068 0.68330
 C223 C 0.66702 0.39102 0.68944
 H224 H 0.70155 0.39494 0.65781
 H225 H 0.65929 0.39337 0.70280
 N226 N 0.67460 0.33790 0.62236
 N227 N 0.66084 0.32464 0.62256
 C228 C 0.66443 0.31162 0.60855
 C229 C 0.68114 0.31703 0.59914
 C230 C 0.68730 0.33364 0.60821
 H231 H 0.65621 0.29855 0.60609
 H232 H 0.70064 0.34135 0.60541
 H233 H 0.66324 0.33649 0.65713
 H234 H 0.64728 0.35271 0.64256
 N235 N 0.62296 0.82376 1.16032
 N236 N 0.62261 0.83676 1.17417
 C237 C 0.60869 0.83201 1.18695
 C238 C 0.59983 0.81534 1.18060
 C239 C 0.60918 0.81042 1.16374
 H240 H 0.60595 0.83940 1.20042
 H241 H 0.60684 0.79754 1.15521
 Cu242 Cu 0.64194 0.85714 1.17532
 Cu243 Cu 0.64277 0.82376 1.14029
 Cu244 Cu 0.67743 0.86010 1.14234
 N245 N 0.66131 0.87748 1.17646
 N246 N 0.67513 0.87860 1.16342
 C247 C 0.68742 0.89288 1.16830
 C248 C 0.68093 0.90102 1.18526
 C249 C 0.66445 0.89092 1.19016
 H250 H 0.70061 0.89643 1.16065
 H251 H 0.65606 0.89256 1.20324
 N252 N 0.67718 0.84002 1.12215
 N253 N 0.66397 0.82622 1.12136
 C254 C 0.66865 0.81385 1.10709
 C255 C 0.68548 0.82026 1.09854
 C256 C 0.69060 0.83677 1.10839
 H257 H 0.66107 0.80058 1.10383
 H258 H 0.70368 0.84511 1.10634
 H259 H 0.66418 0.83725 1.15635
 H260 H 0.64864 0.85298 1.14100
 N261 N 0.12281 0.32503 1.16269
 N262 N 0.12318 0.33866 1.17588
 C263 C 0.10958 0.33484 1.18933
 C264 C 0.10000 0.31826 1.18398
 C265 C 0.10870 0.31231 1.16706
 H266 H 0.10704 0.34318 1.20233
 H267 H 0.10569 0.29923 1.15906
 Cu268 Cu 0.14225 0.35938 1.17524
 Cu269 Cu 0.14149 0.32407 1.14168
 Cu270 Cu 0.17640 0.35984 1.14051
 N271 N 0.16284 0.37860 1.17476
 N272 N 0.17588 0.37891 1.16095
 C273 C 0.18878 0.39303 1.16454
 C274 C 0.18359 0.40181 1.18162
 C275 C 0.16726 0.39227 1.18788
 H276 H 0.20159 0.39586 1.15601
 H277 H 0.15962 0.39478 1.20132
 N278 N 0.17486 0.33928 1.12109
 N279 N 0.16167 0.32548 1.12160
 C280 C 0.16580 0.31238 1.10780
 C281 C 0.18223 0.31838 1.09825
 C282 C 0.18768 0.33535 1.10699
 H283 H 0.15816 0.29892 1.10559
 H284 H 0.20071 0.34350 1.10407
 H285 H 0.16315 0.33813 1.15648
 H286 H 0.14696 0.35343 1.14095
 N287 N 0.12234 0.82362 0.66109
 N288 N 0.12285 0.83605 0.67543
 C289 C 0.10899 0.83138 0.68831
 C290 C 0.09934 0.81533 0.68153
 C291 C 0.10815 0.81068 0.66432
 H292 H 0.10674 0.83843 0.70204
 H293 H 0.10518 0.79821 0.65541
 Cu294 Cu 0.14280 0.85587 0.67662
 Cu295 Cu 0.14168 0.82349 0.64068
 Cu296 Cu 0.17734 0.85874 0.64252
 N297 N 0.16258 0.87588 0.67740
 N298 N 0.17594 0.87705 0.66390
 C299 C 0.18838 0.89134 0.66839
 C300 C 0.18241 0.89950 0.68553
 C301 C 0.16611 0.88937 0.69096
 H302 H 0.20125 0.89497 0.66026
 H303 H 0.15799 0.89118 0.70417
 N304 N 0.17617 0.83888 0.62209
 N305 N 0.16247 0.82558 0.62135
 C306 C 0.16656 0.81309 0.60701
 C307 C 0.18354 0.81886 0.59835
 C308 C 0.18935 0.83516 0.60820
 H309 H 0.15853 0.80005 0.60388
 H310 H 0.20276 0.84296 0.60615
 H311 H 0.16385 0.83608 0.65642
 H312 H 0.14818 0.85274 0.64205
 N313 N 0.37739 0.67464 0.66360
 N314 N 0.37615 0.66123 0.67704
 C315 C 0.38964 0.66466 0.69065
 C316 C 0.39982 0.68095 0.68530
 C317 C 0.39171 0.68700 0.66816
 H318 H 0.39137 0.65651 0.70386
 H319 H 0.39532 0.69993 0.66012
 Cu320 Cu 0.35593 0.64169 0.67615
 Cu321 Cu 0.35904 0.67627 0.64230
 Cu322 Cu 0.32311 0.64124 0.64049
 N323 N 0.33576 0.62208 0.67512
 N324 N 0.32310 0.62185 0.66095
 C325 C 0.31002 0.60781 0.66430
 C326 C 0.31481 0.59882 0.68139
 C327 C 0.33110 0.60821 0.68799
 H328 H 0.29741 0.60504 0.65551
 H329 H 0.33837 0.60573 0.70158
 N330 N 0.32552 0.66211 0.62119
 N331 N 0.33916 0.67548 0.62192
 C332 C 0.33574 0.68878 0.60808
 C333 C 0.31930 0.68341 0.59823
 C334 C 0.31310 0.66655 0.60686
 H335 H 0.34386 0.70200 0.60605
 H336 H 0.29987 0.65883 0.60370
 H337 H 0.33609 0.66298 0.65623
 H338 H 0.35233 0.64716 0.64160
 N339 N 0.37703 0.17599 1.16048
 N340 N 0.37649 0.16324 1.17459
 C341 C 0.39020 0.16773 1.18765
 C342 C 0.39980 0.18400 1.18122
 C343 C 0.39110 0.18895 1.16404
 H344 H 0.39248 0.16031 1.20120
 H345 H 0.39415 0.20156 1.15529
 Cu346 Cu 0.35683 0.14306 1.17506
 Cu347 Cu 0.35813 0.17619 1.13963
 Cu348 Cu 0.32334 0.14003 1.14024
 N349 N 0.33721 0.12284 1.17542
 N350 N 0.32440 0.12157 1.16145
 C351 C 0.31178 0.10733 1.16556
 C352 C 0.31699 0.09928 1.18297
 C353 C 0.33308 0.10943 1.18897
 H354 H 0.29914 0.10382 1.15708
 H355 H 0.34056 0.10779 1.20256
 N356 N 0.32458 0.16006 1.12006
 N357 N 0.33774 0.17391 1.11987
 C358 C 0.33337 0.18660 1.10575
 C359 C 0.31678 0.18033 1.09670
 C360 C 0.31151 0.16357 1.10607
 H361 H 0.34086 0.20008 1.10308
 H362 H 0.29840 0.15538 1.10372
 H363 H 0.33599 0.16296 1.15472
 H364 H 0.35240 0.14701 1.14043
 N365 N 0.87716 0.67528 1.16282
 N366 N 0.87649 0.66172 1.17613
 C367 C 0.89004 0.66539 1.18962
 C368 C 0.89974 0.68195 1.18427
 C369 C 0.89124 0.68796 1.16730
 H370 H 0.89213 0.65718 1.20274
 H371 H 0.89451 0.70099 1.15928
 Cu372 Cu 0.85674 0.64174 1.17547
 Cu373 Cu 0.85853 0.67651 1.14167
 Cu374 Cu 0.82359 0.64045 1.14025
 N375 N 0.83701 0.62172 1.17475
 N376 N 0.82424 0.62118 1.16072
 C377 C 0.81132 0.60708 1.16434
 C378 C 0.81632 0.59841 1.18152
 C379 C 0.83255 0.60803 1.18789
 H380 H 0.79863 0.60409 1.15574
 H381 H 0.83983 0.60594 1.20154
 N382 N 0.82526 0.66122 1.12088
 N383 N 0.83841 0.67509 1.12149
 C384 C 0.83439 0.68819 1.10762
 C385 C 0.81808 0.68215 1.09792
 C386 C 0.81259 0.66513 1.10664
 H387 H 0.84200 0.70169 1.10547
 H388 H 0.79963 0.65692 1.10362
 H389 H 0.83619 0.66264 1.15584
 H390 H 0.85267 0.64737 1.14096
 N391 N 0.87756 0.17441 0.66358
 N392 N 0.87620 0.16092 0.67693
 C393 C 0.88970 0.16414 0.69057
 C394 C 0.90003 0.18038 0.68531
 C395 C 0.89195 0.18664 0.66824
 H396 H 0.89130 0.15590 0.70374
 H397 H 0.89552 0.19972 0.66041
 Cu398 Cu 0.85577 0.14160 0.67588
 Cu399 Cu 0.85908 0.17655 0.64244
 Cu400 Cu 0.82256 0.14214 0.64075
 N401 N 0.83527 0.12234 0.67498
 N402 N 0.82242 0.12248 0.66097
 C403 C 0.80914 0.10864 0.66434
 C404 C 0.81404 0.09932 0.68124
 C405 C 0.83058 0.10837 0.68773
 H406 H 0.79630 0.10624 0.65573
 H407 H 0.83804 0.10561 0.70116
 N408 N 0.82506 0.16317 0.62161
 N409 N 0.83898 0.17626 0.62224
 C410 C 0.83575 0.18962 0.60843
 C411 C 0.81912 0.18461 0.59870
 C412 C 0.81263 0.16789 0.60738
 H413 H 0.84419 0.20262 0.60628
 H414 H 0.79927 0.16039 0.60424
 H415 H 0.83614 0.16368 0.65661
 H416 H 0.85190 0.14776 0.64163
 N417 N 0.32531 0.37789 0.66385
 N418 N 0.33884 0.37651 0.67714
 C419 C 0.33553 0.38993 0.69086
 C420 C 0.31917 0.40018 0.68575
 C421 C 0.31296 0.39217 0.66866
 H422 H 0.34378 0.39157 0.70399
 H423 H 0.29994 0.39586 0.66081
 Cu424 Cu 0.35832 0.35620 0.67573
 Cu425 Cu 0.32327 0.35956 0.64255
 Cu426 Cu 0.35791 0.32307 0.64052
 N427 N 0.37758 0.33564 0.67488
 N428 N 0.37749 0.32288 0.66080
 C429 C 0.39135 0.30957 0.66409
 C430 C 0.40060 0.31432 0.68102
 C431 C 0.39153 0.33084 0.68760
 H432 H 0.39390 0.29688 0.65533
 H433 H 0.39432 0.33818 0.70107
 N434 N 0.33691 0.32578 0.62142
 N435 N 0.32372 0.33965 0.62219
 C436 C 0.31034 0.33646 0.60842
 C437 C 0.31544 0.31990 0.59860
 C438 C 0.33224 0.31343 0.60715
 H439 H 0.29725 0.34483 0.60642
 H440 H 0.33979 0.30009 0.60395
 H441 H 0.33649 0.33653 0.65643
 H442 H 0.35225 0.35234 0.64129
 N443 N 0.32450 0.87834 0.16317
 N444 N 0.33773 0.87738 0.17677
 C445 C 0.33399 0.89100 0.19015
 C446 C 0.31767 0.90099 0.18450
 C447 C 0.31191 0.89262 0.16741
 H448 H 0.34189 0.89290 0.20346
 H449 H 0.29899 0.89598 0.15925
 Cu450 Cu 0.35737 0.85722 0.17651
 Cu451 Cu 0.32327 0.85957 0.14224
 Cu452 Cu 0.35830 0.82342 0.14179
 N453 N 0.37700 0.83705 0.17625
 N454 N 0.37741 0.82391 0.16254
 C455 C 0.39159 0.81106 0.16639
 C456 C 0.40047 0.81655 0.18333
 C457 C 0.39088 0.83298 0.18929
 H458 H 0.39464 0.79823 0.15799
 H459 H 0.39329 0.84081 0.20256
 N460 N 0.33768 0.82549 0.12215
 N461 N 0.32441 0.83929 0.12231
 C462 C 0.31143 0.83580 0.10823
 C463 C 0.31688 0.81912 0.09882
 C464 C 0.33347 0.81287 0.10795
 H465 H 0.29837 0.84407 0.10572
 H466 H 0.34119 0.79954 0.10516
 H467 H 0.33638 0.83690 0.15688
 H468 H 0.35246 0.85265 0.14201
 N469 N 0.82419 0.37645 0.16253
 N470 N 0.83751 0.37565 0.17607
 C471 C 0.83376 0.38935 0.18937
 C472 C 0.81734 0.39921 0.18377
 C473 C 0.81154 0.39069 0.16677
 H474 H 0.84182 0.39149 0.20255
 H475 H 0.79864 0.39402 0.15857
 Cu476 Cu 0.85747 0.35573 0.17577
 Cu477 Cu 0.82322 0.35785 0.14138
 Cu478 Cu 0.85921 0.32274 0.14044
 N479 N 0.87756 0.33593 0.17514
 N480 N 0.87827 0.32322 0.16106
 C481 C 0.89248 0.31036 0.16465
 C482 C 0.90111 0.31536 0.18182
 C483 C 0.89132 0.33154 0.18822
 H484 H 0.89559 0.29772 0.15600
 H485 H 0.89344 0.33890 0.20180
 N486 N 0.83870 0.32446 0.12084
 N487 N 0.82487 0.33770 0.12124
 C488 C 0.81194 0.33374 0.10724
 C489 C 0.81804 0.31735 0.09767
 C490 C 0.83493 0.31177 0.10661
 H491 H 0.79851 0.34145 0.10491
 H492 H 0.84313 0.29874 0.10372
 H493 H 0.83669 0.33557 0.15576
 H494 H 0.85235 0.35204 0.14121
 N495 N 0.82406 0.87763 0.66223
 N496 N 0.83682 0.87696 0.67629
 C497 C 0.83261 0.89083 0.68924
 C498 C 0.81648 0.90065 0.68289
 C499 C 0.81129 0.89194 0.66579
 H500 H 0.84010 0.89306 0.70274
 H501 H 0.79865 0.89513 0.65715
 Cu502 Cu 0.85673 0.85713 0.67736
 Cu503 Cu 0.82375 0.85857 0.64157
 Cu504 Cu 0.85996 0.82384 0.64213
 N505 N 0.87727 0.83791 0.67697
 N506 N 0.87866 0.82509 0.66304
 C507 C 0.89333 0.81285 0.66700
 C508 C 0.90149 0.81843 0.68423
 C509 C 0.89099 0.83426 0.69026
 H510 H 0.89708 0.80024 0.65856
 H511 H 0.89264 0.84187 0.70376
 N512 N 0.83973 0.82482 0.62218
 N513 N 0.82588 0.83802 0.62198
 C514 C 0.81322 0.83369 0.60786
 C515 C 0.81950 0.81708 0.59882
 C516 C 0.83624 0.81176 0.60821
 H517 H 0.79982 0.84133 0.60509
 H518 H 0.84454 0.79870 0.60578
 H519 H 0.83701 0.83655 0.65671
 H520 H 0.85312 0.85313 0.64267
 N521 N 0.67649 0.62349 0.66049
 N522 N 0.66369 0.62411 0.67454
 C523 C 0.66807 0.61035 0.68763
 C524 C 0.68433 0.60065 0.68130
 C525 C 0.68940 0.60933 0.66413
 H526 H 0.66058 0.60811 0.70115
 H527 H 0.70202 0.60620 0.65543
 Cu528 Cu 0.64351 0.64384 0.67501
 Cu529 Cu 0.67680 0.64239 0.63963
 Cu530 Cu 0.64044 0.67699 0.63965
 N531 N 0.62300 0.66324 0.67471
 N532 N 0.62173 0.67591 0.66058
 C533 C 0.60728 0.68841 0.66437
 C534 C 0.59908 0.68325 0.68173
 C535 C 0.60937 0.66733 0.68803
 H536 H 0.60372 0.70096 0.65573
 H537 H 0.60767 0.65996 0.70170
 N538 N 0.66071 0.67583 0.61974
 N539 N 0.67466 0.66273 0.61978
 C540 C 0.68750 0.66714 0.60581
 C541 C 0.68122 0.68368 0.59661
 C542 C 0.66431 0.68890 0.60575
 H543 H 0.70107 0.65970 0.60335
 H544 H 0.65605 0.70197 0.60326
 H545 H 0.66331 0.66455 0.65448
 H546 H 0.64747 0.64791 0.64036
 N547 N 0.67748 0.12303 0.16006
 N548 N 0.66507 0.12324 0.17446
 C549 C 0.66987 0.10921 0.18710
 C550 C 0.68601 0.09977 0.18013
 C551 C 0.69057 0.10887 0.16304
 H552 H 0.66276 0.10661 0.20076
 H553 H 0.70302 0.10605 0.15398
 Cu554 Cu 0.64485 0.14280 0.17615
 Cu555 Cu 0.67706 0.14247 0.13971
 Cu556 Cu 0.64065 0.17697 0.14177
 N557 N 0.62416 0.16192 0.17677
 N558 N 0.62245 0.17510 0.16316
 C559 C 0.60775 0.18711 0.16763
 C560 C 0.59987 0.18104 0.18487
 C561 C 0.61058 0.16513 0.19038
 H562 H 0.60371 0.19984 0.15947
 H563 H 0.60913 0.15709 0.20369
 N564 N 0.66045 0.17650 0.12127
 N565 N 0.67431 0.16332 0.12047
 C566 C 0.68663 0.16797 0.10612
 C567 C 0.68014 0.18475 0.09753
 C568 C 0.66361 0.18986 0.10744
 H569 H 0.70000 0.16044 0.10292
 H570 H 0.65526 0.20297 0.10546
 H571 H 0.66391 0.16417 0.15556
 H572 H 0.64764 0.14788 0.14149
 N573 N 0.17538 0.62254 0.16304
 N574 N 0.16187 0.62396 0.17636
 C575 C 0.16506 0.61045 0.19006
 C576 C 0.18130 0.60004 0.18488
 C577 C 0.18757 0.60806 0.16776
 H578 H 0.15680 0.60886 0.20322
 H579 H 0.20054 0.60427 0.15987
 Cu580 Cu 0.14250 0.64441 0.17515
 Cu581 Cu 0.17748 0.64090 0.14175
 Cu582 Cu 0.14292 0.67740 0.13961
 N583 N 0.12313 0.66485 0.17394
 N584 N 0.12327 0.67763 0.15985
 C585 C 0.10930 0.69088 0.16303
 C586 C 0.09997 0.68605 0.17995
 C587 C 0.10908 0.66958 0.18659
 H588 H 0.10677 0.70357 0.15425
 H589 H 0.10627 0.66220 0.20007
 N590 N 0.16398 0.67473 0.12054
 N591 N 0.17717 0.66087 0.12136
 C592 C 0.19061 0.66408 0.10760
 C593 C 0.18554 0.68063 0.09771
 C594 C 0.16870 0.68709 0.10623
 H595 H 0.20371 0.65571 0.10565
 H596 H 0.16116 0.70043 0.10299
 H597 H 0.16434 0.66397 0.15557
 H598 H 0.14848 0.64809 0.14070
 N599 N 0.17536 0.12109 0.66148
 N600 N 0.16252 0.12227 0.67546
 C601 C 0.16663 0.10877 0.68892
 C602 C 0.18275 0.09864 0.68284
 C603 C 0.18799 0.10680 0.66549
 H604 H 0.15916 0.10709 0.70253
 H605 H 0.20069 0.10336 0.65702
 Cu606 Cu 0.14295 0.14261 0.67533
 Cu607 Cu 0.17652 0.13975 0.64050
 Cu608 Cu 0.14178 0.17605 0.64015
 N609 N 0.12327 0.16284 0.67496
 N610 N 0.12281 0.17573 0.66097
 C611 C 0.10873 0.18871 0.66462
 C612 C 0.09994 0.18363 0.68173
 C613 C 0.10950 0.16725 0.68803
 H614 H 0.10572 0.20141 0.65599
 H615 H 0.10715 0.15970 0.70150
 N616 N 0.16223 0.17385 0.62042
 N617 N 0.17540 0.15996 0.62051
 C618 C 0.18849 0.16353 0.60655
 C619 C 0.18323 0.18035 0.59728
 C620 C 0.16662 0.18661 0.60637
 H621 H 0.20161 0.15530 0.60413
 H622 H 0.15911 0.20011 0.60378
 H623 H 0.16383 0.16264 0.65520
 H624 H 0.14744 0.14686 0.64076
 N625 N 0.32449 0.62209 0.33720
 N626 N 0.33797 0.62257 0.32378
 C627 C 0.33414 0.60893 0.31048
 C628 C 0.31761 0.59931 0.31608
 C629 C 0.31172 0.60801 0.33297
 H630 H 0.34225 0.60665 0.29732
 H631 H 0.29864 0.60498 0.34102
 Cu632 Cu 0.35839 0.64186 0.32398
 Cu633 Cu 0.32338 0.64102 0.35789
 Cu634 Cu 0.35863 0.67663 0.35805
 N635 N 0.37755 0.66238 0.32401
 N636 N 0.37780 0.67581 0.33744
 C637 C 0.39190 0.68864 0.33335
 C638 C 0.40087 0.68283 0.31654
 C639 C 0.39137 0.66630 0.31085
 H640 H 0.39482 0.70167 0.34147
 H641 H 0.39388 0.65821 0.29774
 N642 N 0.33796 0.67508 0.37767
 N643 N 0.32456 0.66145 0.37761
 C644 C 0.31157 0.66522 0.39163
 C645 C 0.31712 0.68191 0.40092
 C646 C 0.33381 0.68788 0.39175
 H647 H 0.29843 0.65712 0.39421
 H648 H 0.34166 0.70113 0.39445
 H649 H 0.33696 0.66297 0.34260
 H650 H 0.35255 0.64745 0.35829
 N651 N 0.32359 0.12257 0.83945
 N652 N 0.33650 0.12296 0.82548
 C653 C 0.33205 0.10924 0.81242
 C654 C 0.31563 0.09978 0.81871
 C655 C 0.31056 0.10857 0.83580
 H656 H 0.33960 0.10686 0.79896
 H657 H 0.29783 0.10565 0.84442
 Cu658 Cu 0.35679 0.14252 0.82511
 Cu659 Cu 0.32322 0.14161 0.86016
 Cu660 Cu 0.35957 0.17619 0.85973
 N661 N 0.37714 0.16200 0.82491
 N662 N 0.37830 0.17489 0.83881
 C663 C 0.39261 0.18744 0.83477
 C664 C 0.40082 0.18212 0.81748
 C665 C 0.39069 0.16602 0.81148
 H666 H 0.39604 0.20014 0.84318
 H667 H 0.39242 0.15850 0.79792
 N668 N 0.33929 0.17522 0.87966
 N669 N 0.32538 0.16213 0.87980
 C670 C 0.31260 0.16661 0.89381
 C671 C 0.31889 0.18319 0.90284
 C672 C 0.33574 0.18835 0.89357
 H673 H 0.29910 0.15915 0.89645
 H674 H 0.34402 0.20139 0.89595
 H675 H 0.33671 0.16354 0.84504
 H676 H 0.35244 0.14716 0.85964
 N677 N 0.82291 0.62253 0.83962
 N678 N 0.83549 0.62256 0.82535
 C679 C 0.83058 0.60874 0.81260
 C680 C 0.81421 0.59958 0.81938
 C681 C 0.80962 0.60865 0.83646
 H682 H 0.83773 0.60615 0.79896
 H683 H 0.79703 0.60604 0.84537
 Cu684 Cu 0.85590 0.64189 0.82405
 Cu685 Cu 0.82328 0.64195 0.85995
 Cu686 Cu 0.85975 0.67638 0.85783
 N687 N 0.87640 0.66113 0.82296
 N688 N 0.87795 0.67444 0.83641
 C689 C 0.89242 0.68661 0.83171
 C690 C 0.90027 0.68055 0.81447
 C691 C 0.88979 0.66445 0.80919
 H692 H 0.89629 0.69946 0.83971
 H693 H 0.89123 0.65639 0.79592
 N694 N 0.83993 0.67592 0.87832
 N695 N 0.82606 0.66279 0.87914
 C696 C 0.81374 0.66747 0.89348
 C697 C 0.82024 0.68421 0.90204
 C698 C 0.83676 0.68928 0.89212
 H699 H 0.80036 0.66000 0.89669
 H700 H 0.84511 0.70237 0.89406
 H701 H 0.83659 0.66353 0.84408
 H702 H 0.85264 0.64740 0.85860
 N703 N 0.82405 0.12216 0.33858
 N704 N 0.83703 0.12309 0.32471
 C705 C 0.83296 0.10949 0.31139
 C706 C 0.81671 0.09957 0.31743
 C707 C 0.81135 0.10796 0.33462
 H708 H 0.84059 0.10756 0.29791
 H709 H 0.79858 0.10469 0.34305
 Cu710 Cu 0.85679 0.14320 0.32479
 Cu711 Cu 0.82295 0.14094 0.35944
 Cu712 Cu 0.85796 0.17691 0.35953
 N713 N 0.87656 0.16331 0.32491
 N714 N 0.87703 0.17631 0.33876
 C715 C 0.89121 0.18914 0.33501
 C716 C 0.90004 0.18386 0.31798
 C717 C 0.89041 0.16751 0.31184
 H718 H 0.89427 0.20186 0.34354
 H719 H 0.89279 0.15981 0.29848
 N720 N 0.83742 0.17505 0.37927
 N721 N 0.82418 0.16126 0.37927
 C722 C 0.81120 0.16489 0.39333
 C723 C 0.81658 0.18166 0.40255
 C724 C 0.83316 0.18782 0.39334
 H725 H 0.79812 0.15669 0.39591
 H726 H 0.84082 0.20120 0.39594
 H727 H 0.83584 0.16353 0.34457
 H728 H 0.85202 0.14774 0.35932
 N729 N 0.67495 0.37769 0.33692
 N730 N 0.66205 0.37658 0.32302
 C731 C 0.66580 0.39036 0.30978
 C732 C 0.68175 0.40060 0.31583
 C733 C 0.68731 0.39223 0.33301
 H734 H 0.65817 0.39222 0.29631
 H735 H 0.69997 0.39577 0.34146
 Cu736 Cu 0.64265 0.35628 0.32271
 Cu737 Cu 0.67609 0.35885 0.35779
 Cu738 Cu 0.64128 0.32274 0.35791
 N739 N 0.62291 0.33630 0.32324
 N740 N 0.62229 0.32330 0.33711
 C741 C 0.60798 0.31063 0.33337
 C742 C 0.59925 0.31611 0.31632
 C743 C 0.60905 0.33232 0.31020
 H744 H 0.60476 0.29791 0.34189
 H745 H 0.60678 0.34007 0.29684
 N746 N 0.66174 0.32465 0.37767
 N747 N 0.67493 0.33848 0.37765
 C748 C 0.68784 0.33492 0.39178
 C749 C 0.68246 0.31815 0.40109
 C750 C 0.66595 0.31192 0.39183
 H751 H 0.70083 0.34322 0.39440
 H752 H 0.65829 0.29855 0.39452
 H753 H 0.66339 0.33622 0.34299
 H754 H 0.64689 0.35210 0.35734
 N755 N 0.67424 0.87698 0.83742
 N756 N 0.65985 0.87733 0.82501
 C757 C 0.66331 0.89110 0.81167
 C758 C 0.68068 0.89981 0.81608
 C759 C 0.68731 0.89054 0.83242
 H760 H 0.65432 0.89400 0.79923
 H761 H 0.70099 0.89293 0.83961
 Cu762 Cu 0.63861 0.85891 0.82631
 Cu763 Cu 0.67576 0.85794 0.85809
 Cu764 Cu 0.64000 0.82304 0.85938
 N765 N 0.61998 0.83780 0.82630
 N766 N 0.62043 0.82401 0.83938
 C767 C 0.60689 0.81068 0.83517
 C768 C 0.59751 0.81649 0.81863
 C769 C 0.60614 0.83366 0.81326
 H770 H 0.60478 0.79724 0.84290
 H771 H 0.60327 0.84193 0.80031
 N772 N 0.66095 0.82425 0.87846
 N773 N 0.67474 0.83746 0.87791
 C774 C 0.68790 0.83335 0.89167
 C775 C 0.68199 0.81688 0.90124
 C776 C 0.66496 0.81142 0.89255
 H777 H 0.70130 0.84112 0.89392
 H778 H 0.65673 0.79846 0.89558
 H779 H 0.66090 0.83712 0.84285
 H780 H 0.64662 0.85236 0.86003
 N781 N 0.17429 0.37706 0.83717
 N782 N 0.16086 0.37626 0.82373
 C783 C 0.16459 0.38977 0.81022
 C784 C 0.18110 0.39955 0.81559
 C785 C 0.18697 0.39115 0.83266
 H786 H 0.15652 0.39176 0.79701
 H787 H 0.19995 0.39445 0.84071
 Cu788 Cu 0.14096 0.35641 0.82448
 Cu789 Cu 0.17553 0.35848 0.85838
 Cu790 Cu 0.13971 0.32327 0.85971
 N791 N 0.12113 0.33646 0.82504
 N792 N 0.12057 0.32371 0.83914
 C793 C 0.10661 0.31067 0.83549
 C794 C 0.09801 0.31558 0.81825
 C795 C 0.10755 0.33190 0.81189
 H796 H 0.10367 0.29796 0.84412
 H797 H 0.10548 0.33917 0.79822
 N798 N 0.16034 0.32509 0.87919
 N799 N 0.17411 0.33835 0.87862
 C800 C 0.18718 0.33440 0.89251
 C801 C 0.18123 0.31802 0.90220
 C802 C 0.16429 0.31242 0.89344
 H803 H 0.20063 0.34210 0.89466
 H804 H 0.15619 0.29937 0.89643
 H805 H 0.16202 0.33611 0.84419
 H806 H 0.14649 0.35245 0.85894
 N807 N 0.17453 0.87747 0.33653
 N808 N 0.16105 0.87630 0.32317
 C809 C 0.16442 0.88984 0.30958
 C810 C 0.18066 0.90008 0.31488
 C811 C 0.18681 0.89189 0.33195
 H812 H 0.15622 0.89161 0.29640
 H813 H 0.19972 0.89554 0.33995
 Cu814 Cu 0.14157 0.85603 0.32416
 Cu815 Cu 0.17630 0.85903 0.35778
 Cu816 Cu 0.14138 0.82293 0.35955
 N817 N 0.12206 0.83578 0.32511
 N818 N 0.12197 0.82296 0.33916
 C819 C 0.10804 0.80979 0.33575
 C820 C 0.09901 0.81468 0.31871
 C821 C 0.10826 0.83112 0.31222
 H822 H 0.10536 0.79707 0.34445
 H823 H 0.10574 0.83849 0.29868
 N824 N 0.16224 0.82532 0.37881
 N825 N 0.17557 0.83901 0.37810
 C826 C 0.18884 0.83559 0.39193
 C827 C 0.18352 0.81909 0.40175
 C828 C 0.16670 0.81286 0.39311
 H829 H 0.20202 0.84376 0.39398
 H830 H 0.15902 0.79959 0.39625
 H831 H 0.16315 0.83621 0.34379
 H832 H 0.14734 0.85221 0.35865
 C833 C 0.25061 1.05227 0.25143
 C834 C 0.26140 1.04221 0.23772
 C835 C 0.26052 1.02199 0.23693
 C836 C 0.24968 1.01133 0.25070
 C837 C 0.23929 1.02194 0.26482
 C838 C 0.23935 1.04221 0.26478
 C839 C 0.24927 0.98947 0.25034
 C840 C 0.23497 0.97891 0.26059
 C841 C 0.23503 0.95864 0.26065
 C842 C 0.24864 0.94853 0.24974
 C843 C 0.26254 0.95853 0.23912
 C844 C 0.26323 0.97877 0.23979
 H845 H 0.25096 1.06796 0.25172
 H846 H 0.26830 1.01493 0.22541
 H847 H 0.23114 1.01480 0.27605
 H848 H 0.22362 0.98609 0.26856
 H849 H 0.24843 0.93283 0.24954
 H850 H 0.27484 0.98579 0.23207
 C851 C 0.24902 0.55142 0.74996
 C852 C 0.25998 0.54133 0.73639
 C853 C 0.25978 0.52107 0.73622
 C854 C 0.24941 0.51047 0.75038
 C855 C 0.23879 0.52114 0.76431
 C856 C 0.23824 0.54141 0.76373
 C857 C 0.24970 0.48862 0.75060
 C858 C 0.23563 0.47791 0.76100
 C859 C 0.23621 0.45764 0.76148
 C860 C 0.25017 0.44767 0.75090
 C861 C 0.26392 0.45780 0.74019
 C862 C 0.26403 0.47806 0.74038
 H863 H 0.24892 0.56712 0.74982
 H864 H 0.26773 0.51391 0.72487
 H865 H 0.23099 0.51404 0.77580
 H866 H 0.22403 0.48497 0.76871
 H867 H 0.25033 0.43196 0.75099
 H868 H 0.27549 0.48525 0.73257
 C869 C 0.74890 -0.05153 0.25107
 C870 C 0.76283 -0.04157 0.26163
 C871 C 0.76361 -0.02134 0.26086
 C872 C 0.74975 -0.01061 0.25022
 C873 C 0.73541 -0.02111 0.24005
 C874 C 0.73536 -0.04138 0.24012
 C875 C 0.75034 0.01122 0.24966
 C876 C 0.74030 0.02177 0.23525
 C877 C 0.74053 0.04203 0.23504
 C878 C 0.75159 0.05212 0.24846
 C879 C 0.76204 0.04211 0.26248
 C880 C 0.76102 0.02189 0.26347
 H881 H 0.74861 -0.06722 0.25133
 H882 H 0.77525 -0.01434 0.26852
 H883 H 0.72411 -0.01386 0.23205
 H884 H 0.73229 0.01459 0.22400
 H885 H 0.75205 0.06781 0.24801
 H886 H 0.76854 0.01485 0.27518
 C887 C 0.75055 0.44889 0.74942
 C888 C 0.76363 0.45903 0.76084
 C889 C 0.76367 0.47929 0.76067
 C890 C 0.74982 0.48984 0.74979
 C891 C 0.73639 0.47910 0.73868
 C892 C 0.73713 0.45886 0.73816
 C893 C 0.74939 0.51169 0.75006
 C894 C 0.73908 0.52237 0.73592
 C895 C 0.73831 0.54261 0.73657
 C896 C 0.74867 0.55263 0.75059
 C897 C 0.75936 0.54254 0.76435
 C898 C 0.75930 0.52228 0.76449
 H899 H 0.75080 0.43318 0.74931
 H900 H 0.77467 0.48646 0.76906
 H901 H 0.72515 0.48610 0.73041
 H902 H 0.73165 0.51532 0.72420
 H903 H 0.74843 0.56833 0.75076
 H904 H 0.76701 0.51516 0.77602
 C905 C 0.24992 0.44809 0.25024
 C906 C 0.26077 0.45809 0.26390
 C907 C 0.26020 0.47836 0.26442
 C908 C 0.24962 0.48908 0.25048
 C909 C 0.23921 0.47850 0.23643
 C910 C 0.23888 0.45826 0.23677
 C911 C 0.24940 0.51094 0.25058
 C912 C 0.23528 0.52155 0.24010
 C913 C 0.23552 0.54182 0.23980
 C914 C 0.24909 0.55188 0.25071
 C915 C 0.26279 0.54185 0.26155
 C916 C 0.26333 0.52159 0.26113
 H917 H 0.25000 0.43237 0.25016
 H918 H 0.26804 0.48541 0.27585
 H919 H 0.23125 0.48560 0.22504
 H920 H 0.22390 0.51443 0.23217
 H921 H 0.24902 0.56759 0.25076
 H922 H 0.27480 0.51451 0.26902
 C923 C 0.74905 1.05136 0.75025
 C924 C 0.75953 1.04138 0.73624
 C925 C 0.75894 1.02113 0.73564
 C926 C 0.74865 1.01041 0.74980
 C927 C 0.73861 1.02096 0.76418
 C928 C 0.73839 1.04122 0.76402
 C929 C 0.74838 0.98856 0.74956
 C930 C 0.73450 0.97792 0.76031
 C931 C 0.73468 0.95764 0.76043
 C932 C 0.74796 0.94760 0.74907
 C933 C 0.76142 0.95769 0.73796
 C934 C 0.76202 0.97792 0.73857
 H935 H 0.74915 1.06706 0.75043
 H936 H 0.76649 1.01410 0.72395
 H937 H 0.73091 1.01379 0.77570
 H938 H 0.72335 0.98503 0.76862
 H939 H 0.74784 0.93190 0.74889
 H940 H 0.77334 0.98499 0.73047
 C941 C 0.74936 0.55170 0.24960
 C942 C 0.76050 0.54168 0.23614
 C943 C 0.76020 0.52143 0.23570
 C944 C 0.74955 0.51072 0.24954
 C945 C 0.73878 0.52132 0.26343
 C946 C 0.73829 0.54159 0.26304
 C947 C 0.74968 0.48883 0.24949
 C948 C 0.73595 0.47815 0.26032
 C949 C 0.73643 0.45791 0.26073
 C950 C 0.74989 0.44785 0.24962
 C951 C 0.76325 0.45791 0.23837
 C952 C 0.76351 0.47819 0.23862
 H953 H 0.74933 0.56740 0.24961
 H954 H 0.76832 0.51444 0.22439
 H955 H 0.73073 0.51424 0.27475
 H956 H 0.72466 0.48516 0.26850
 H957 H 0.74996 0.43215 0.24971
 H958 H 0.77467 0.48527 0.23033
 C959 C 0.24968 -0.05199 0.75134
 C960 C 0.26319 -0.04192 0.76231
 C961 C 0.26359 -0.02167 0.76185
 C962 C 0.24972 -0.01102 0.75111
 C963 C 0.23583 -0.02169 0.74045
 C964 C 0.23618 -0.04196 0.74022
 C965 C 0.24973 0.01087 0.75106
 C966 C 0.23902 0.02151 0.73718
 C967 C 0.23853 0.04176 0.73758
 C968 C 0.24958 0.05185 0.75099
 C969 C 0.26072 0.04182 0.76447
 C970 C 0.26039 0.02155 0.76490
 H971 H 0.24967 -0.06770 0.75143
 H972 H 0.27490 -0.01460 0.76989
 H973 H 0.22455 -0.01464 0.73230
 H974 H 0.23099 0.01444 0.72588
 H975 H 0.24950 0.06755 0.75097
 H976 H 0.26846 0.01451 0.77624
 C977 C 0.24909 0.24951 1.05177
 C978 C 0.23809 0.26319 1.04184
 C979 C 0.23873 0.26397 1.02166
 C980 C 0.24961 0.25027 1.01093
 C981 C 0.26020 0.23620 1.02145
 C982 C 0.26034 0.23622 1.04163
 C983 C 0.24989 0.25063 0.98913
 C984 C 0.26382 0.23993 0.97853
 C985 C 0.26363 0.23980 0.95834
 C986 C 0.25033 0.25114 0.94830
 C987 C 0.23682 0.26225 0.95833
 C988 C 0.23621 0.26163 0.97851
 H989 H 0.24890 0.24923 1.06742
 H990 H 0.23072 0.27543 1.01472
 H991 H 0.26841 0.22499 1.01435
 H992 H 0.27501 0.23163 0.98556
 H993 H 0.25046 0.25129 0.93265
 H994 H 0.22486 0.26974 0.98552
 C995 C 0.25166 0.75140 0.55171
 C996 C 0.23845 0.76290 0.54169
 C997 C 0.23780 0.76229 0.52151
 C998 C 0.25108 0.75082 0.51082
 C999 C 0.26462 0.73962 0.52145
 C1000 C 0.26456 0.73962 0.54165
 C1001 C 0.25085 0.75061 0.48897
 C1002 C 0.26168 0.73679 0.47831
 C1003 C 0.26188 0.73706 0.45810
 C1004 C 0.25057 0.75042 0.44808
 C1005 C 0.23942 0.76387 0.45812
 C1006 C 0.23988 0.76432 0.47831
 H1007 H 0.25187 0.75162 0.56736
 H1008 H 0.22673 0.77083 0.51459
 H1009 H 0.27545 0.73084 0.51446
 H1010 H 0.27004 0.72560 0.48528
 H1011 H 0.25047 0.75038 0.43243
 H1012 H 0.23164 0.77559 0.48525
 C1013 C 0.25106 0.75095 -0.05204
 C1014 C 0.26465 0.76197 -0.04208
 C1015 C 0.26512 0.76155 -0.02187
 C1016 C 0.25125 0.75082 -0.01121
 C1017 C 0.23724 0.74027 -0.02175
 C1018 C 0.23753 0.73993 -0.04193
 C1019 C 0.25139 0.75058 0.01058
 C1020 C 0.24114 0.73626 0.02111
 C1021 C 0.24085 0.73640 0.04131
 C1022 C 0.25159 0.75010 0.05140
 C1023 C 0.26226 0.76402 0.04144
 C1024 C 0.26178 0.76462 0.02124
 H1025 H 0.25101 0.75093 -0.06769
 H1026 H 0.27648 0.76956 -0.01483
 H1027 H 0.22588 0.73226 -0.01462
 H1028 H 0.23337 0.72480 0.01398
 H1029 H 0.25165 0.74994 0.06705
 H1030 H 0.26952 0.77621 0.01420
 C1031 C 0.24963 0.25055 0.44883
 C1032 C 0.26344 0.26124 0.45886
 C1033 C 0.26380 0.26084 0.47904
 C1034 C 0.24960 0.25057 0.48963
 C1035 C 0.23539 0.24028 0.47908
 C1036 C 0.23578 0.23987 0.45888
 C1037 C 0.24962 0.25060 0.51138
 C1038 C 0.23934 0.23641 0.52197
 C1039 C 0.23893 0.23678 0.54215
 C1040 C 0.24957 0.25060 0.55219
 C1041 C 0.26027 0.26444 0.54214
 C1042 C 0.25991 0.26480 0.52194
 H1043 H 0.24964 0.25057 0.43319
 H1044 H 0.27534 0.26857 0.48614
 H1045 H 0.22383 0.23257 0.48623
 H1046 H 0.23164 0.22487 0.51487
 H1047 H 0.24953 0.25059 0.56784
 H1048 H 0.26766 0.27633 0.51480
 C1049 C 0.75165 0.75148 1.05164
 C1050 C 0.74059 0.76503 1.04158
 C1051 C 0.74074 0.76520 1.02138
 C1052 C 0.75122 0.75110 1.01081
 C1053 C 0.76189 0.73717 1.02146
 C1054 C 0.76250 0.73775 1.04163
 C1055 C 0.75116 0.75098 0.98903
 C1056 C 0.76522 0.74042 0.97847
 C1057 C 0.76489 0.74001 0.95829
 C1058 C 0.75125 0.75092 0.94820
 C1059 C 0.73756 0.76187 0.95818
 C1060 C 0.73712 0.76150 0.97838
 H1061 H 0.75183 0.75164 1.06729
 H1062 H 0.73269 0.77655 1.01427
 H1063 H 0.76977 0.72567 1.01444
 H1064 H 0.77666 0.73251 0.98557
 H1065 H 0.75130 0.75092 0.93255
 H1066 H 0.72567 0.76945 0.98543
 C1067 C 0.75038 0.25125 0.55208
 C1068 C 0.73654 0.26202 0.54211
 C1069 C 0.73594 0.26147 0.52192
 C1070 C 0.74992 0.25091 0.51125
 C1071 C 0.76417 0.24055 0.52180
 C1072 C 0.76401 0.24033 0.54200
 C1073 C 0.74964 0.25066 0.48944
 C1074 C 0.76034 0.23671 0.47889
 C1075 C 0.76052 0.23688 0.45869
 C1076 C 0.74922 0.25020 0.44860
 C1077 C 0.73811 0.26375 0.45858
 C1078 C 0.73868 0.26437 0.47877
 H1079 H 0.75053 0.25135 0.56773
 H1080 H 0.72438 0.26928 0.51492
 H1081 H 0.77558 0.23261 0.51469
 H1082 H 0.76857 0.22550 0.48599
 H1083 H 0.74910 0.25003 0.43295
 H1084 H 0.73058 0.27572 0.48578
 C1085 C 0.75008 0.25067 -0.05248
 C1086 C 0.76119 0.26414 -0.04247
 C1087 C 0.76072 0.26457 -0.02227
 C1088 C 0.74984 0.25080 -0.01163
 C1089 C 0.73914 0.23694 -0.02223
 C1090 C 0.73886 0.23727 -0.04242
 C1091 C 0.74957 0.25093 0.01018
 C1092 C 0.73540 0.24049 0.02073
 C1093 C 0.73549 0.24030 0.04094
 C1094 C 0.74900 0.25129 0.05102
 C1095 C 0.76278 0.26211 0.04104
 C1096 C 0.76345 0.26155 0.02086
 H1097 H 0.75012 0.25063 -0.06813
 H1098 H 0.76882 0.27587 -0.01524
 H1099 H 0.73095 0.22568 -0.01516
 H1100 H 0.72407 0.23249 0.01364
 H1101 H 0.74879 0.25142 0.06667
 H1102 H 0.77497 0.26942 0.01386
 C1103 C 0.75108 0.75097 0.44837
 C1104 C 0.76199 0.76464 0.45834
 C1105 C 0.76161 0.76507 0.47853
 C1106 C 0.75106 0.75109 0.48919
 C1107 C 0.74059 0.73701 0.47865
 C1108 C 0.74020 0.73733 0.45847
 C1109 C 0.75095 0.75116 0.51098
 C1110 C 0.73687 0.74063 0.52152
 C1111 C 0.73719 0.74015 0.54169
 C1112 C 0.75077 0.75102 0.55180
 C1113 C 0.76444 0.76200 0.54183
 C1114 C 0.76490 0.76170 0.52163
 H1115 H 0.75106 0.75094 0.43272
 H1116 H 0.76955 0.77649 0.48557
 H1117 H 0.73270 0.72557 0.48577
 H1118 H 0.72545 0.73275 0.51442
 H1119 H 0.75071 0.75093 0.56746
 H1120 H 0.77631 0.76969 0.51459
 C1121 C 1.05253 0.24926 0.24920
 C1122 C 1.04256 0.23543 0.25996
 C1123 C 1.02228 0.23506 0.25976
 C1124 C 1.01152 0.24922 0.24956
 C1125 C 1.02205 0.26343 0.23915
 C1126 C 1.04233 0.26312 0.23864
 C1127 C 0.98964 0.24918 0.24978
 C1128 C 0.97891 0.25970 0.23586
 C1129 C 0.95865 0.26010 0.23640
 C1130 C 0.94866 0.24915 0.25005
 C1131 C 0.95880 0.23815 0.26357
 C1132 C 0.97909 0.23859 0.26385
 H1133 H 1.06826 0.24928 0.24913
 H1134 H 1.01523 0.22354 0.26757
 H1135 H 1.01488 0.27498 0.23145
 H1136 H 0.98596 0.26761 0.22439
 H1137 H 0.93295 0.24914 0.25013
 H1138 H 0.98629 0.23067 0.27521
 C1139 C 0.55200 0.24925 0.75062
 C1140 C 0.54199 0.23543 0.76134
 C1141 C 0.52172 0.23475 0.76062
 C1142 C 0.51103 0.24862 0.74987
 C1143 C 0.52163 0.26280 0.73953
 C1144 C 0.54190 0.26273 0.73954
 C1145 C 0.48916 0.24834 0.74942
 C1146 C 0.47864 0.25875 0.73522
 C1147 C 0.45835 0.25895 0.73529
 C1148 C 0.44819 0.24791 0.74874
 C1149 C 0.45816 0.23708 0.76250
 C1150 C 0.47841 0.23771 0.76325
 H1151 H 0.56771 0.24950 0.75086
 H1152 H 0.51465 0.22323 0.76843
 H1153 H 0.51450 0.27408 0.73143
 H1154 H 0.48583 0.26674 0.72391
 H1155 H 0.43248 0.24777 0.74852
 H1156 H 0.48541 0.22989 0.77479
 C1157 C -0.05215 0.24854 0.75080
 C1158 C -0.04206 0.26232 0.76143
 C1159 C -0.02180 0.26286 0.76072
 C1160 C -0.01118 0.24884 0.75016
 C1161 C -0.02184 0.23472 0.73987
 C1162 C -0.04212 0.23493 0.73983
 C1163 C 0.01068 0.24891 0.74996
 C1164 C 0.02132 0.23842 0.73592
 C1165 C 0.04161 0.23810 0.73622
 C1166 C 0.05166 0.24906 0.74976
 C1167 C 0.04158 0.25993 0.76338
 C1168 C 0.02133 0.25945 0.76387
 H1169 H -0.06786 0.24843 0.75107
 H1170 H -0.01470 0.27438 0.76844
 H1171 H -0.01474 0.22336 0.73187
 H1172 H 0.01420 0.23047 0.72458
 H1173 H 0.06737 0.24912 0.74970
 H1174 H 0.01424 0.26731 0.77532
 C1175 C 0.44751 0.25035 0.24857
 C1176 C 0.45751 0.26129 0.26214
 C1177 C 0.47776 0.26053 0.26289
 C1178 C 0.48850 0.24964 0.24925
 C1179 C 0.47792 0.23912 0.23523
 C1180 C 0.45764 0.23907 0.23531
 C1181 C 0.51038 0.24921 0.24970
 C1182 C 0.52103 0.23508 0.23930
 C1183 C 0.54131 0.23500 0.23947
 C1184 C 0.55135 0.24829 0.25074
 C1185 C 0.54128 0.26203 0.26149
 C1186 C 0.52104 0.26288 0.26059
 H1187 H 0.43181 0.25059 0.24835
 H1188 H 0.48473 0.26844 0.27433
 H1189 H 0.48507 0.23091 0.22407
 H1190 H 0.51395 0.22395 0.23103
 H1191 H 0.56706 0.24796 0.25112
 H1192 H 0.51401 0.27440 0.26843
 C1193 C 1.05211 0.74887 0.74956
 C1194 C 1.04203 0.73807 0.76326
 C1195 C 1.02176 0.73859 0.76373
 C1196 C 1.01117 0.74902 0.74964
 C1197 C 1.02180 0.75936 0.73550
 C1198 C 1.04206 0.75973 0.73588
 C1199 C 0.98933 0.74910 0.74966
 C1200 C 0.97880 0.76338 0.73939
 C1201 C 0.95855 0.76304 0.73889
 C1202 C 0.94839 0.74920 0.74944
 C1203 C 0.95836 0.73531 0.76014
 C1204 C 0.97864 0.73490 0.75989
 H1205 H 1.06782 0.74882 0.74954
 H1206 H 1.01460 0.73084 0.77524
 H1207 H 1.01467 0.76713 0.72400
 H1208 H 0.98599 0.77494 0.73174
 H1209 H 0.93268 0.74924 0.74933
 H1210 H 0.98573 0.72334 0.76764
 C1211 C 0.55302 0.74953 0.24969
 C1212 C 0.54299 0.73886 0.26352
 C1213 C 0.52271 0.73926 0.26392
 C1214 C 0.51202 0.74953 0.24972
 C1215 C 0.52266 0.75980 0.23553
 C1216 C 0.54293 0.76019 0.23590
 C1217 C 0.49011 0.74954 0.24971
 C1218 C 0.47942 0.76306 0.23853
 C1219 C 0.45915 0.76264 0.23815
 C1220 C 0.44911 0.74949 0.24965
 C1221 C 0.45917 0.73638 0.26117
 C1222 C 0.47945 0.73600 0.26087
 H1223 H 0.56873 0.74956 0.24967
 H1224 H 0.51567 0.73151 0.27547
 H1225 H 0.51558 0.76753 0.22398
 H1226 H 0.48646 0.77415 0.23010
 H1227 H 0.43341 0.74944 0.24963
 H1228 H 0.48653 0.72496 0.26933
 C1229 C -0.05204 0.74920 0.25029
 C1230 C -0.04200 0.76271 0.26130
 C1231 C -0.02173 0.76326 0.26071
 C1232 C -0.01107 0.74952 0.24984
 C1233 C -0.02168 0.73561 0.23920
 C1234 C -0.04196 0.73584 0.23906
 C1235 C 0.01079 0.74973 0.24958
 C1236 C 0.02141 0.73989 0.23508
 C1237 C 0.04169 0.73975 0.23520
 C1238 C 0.05175 0.75027 0.24909
 C1239 C 0.04170 0.76049 0.26323
 C1240 C 0.02144 0.75981 0.26385
 H1241 H -0.06775 0.74909 0.25045
 H1242 H -0.01464 0.77458 0.26872
 H1243 H -0.01451 0.72442 0.23100
 H1244 H 0.01425 0.73232 0.22350
 H1245 H 0.06746 0.75047 0.24890
 H1246 H 0.01433 0.76714 0.27563
 C1247 C 0.44794 0.74955 0.75002
 C1248 C 0.45804 0.76340 0.76054
 C1249 C 0.47828 0.76389 0.75991
 C1250 C 0.48890 0.74973 0.74958
 C1251 C 0.47826 0.73552 0.73938
 C1252 C 0.45797 0.73578 0.73925
 C1253 C 0.51076 0.74978 0.74954
 C1254 C 0.52145 0.73911 0.73570
 C1255 C 0.54172 0.73872 0.73614
 C1256 C 0.55174 0.74985 0.74956
 C1257 C 0.54161 0.76092 0.76299
 C1258 C 0.52135 0.76045 0.76341
 H1259 H 0.43223 0.74947 0.75023
 H1260 H 0.48538 0.77549 0.76753
 H1261 H 0.48538 0.72405 0.73154
 H1262 H 0.51437 0.73105 0.72441
 H1263 H 0.56745 0.74987 0.74958
 H1264 H 0.51422 0.76841 0.77476
 C1265 C 0.41412 0.30573 0.30590
 C1266 C 0.42499 0.29587 0.29650
 C1267 C 0.43706 0.28395 0.28516
 C1268 C 0.44675 0.27362 0.27501
 C1269 C 0.41484 0.80793 0.80425
 C1270 C 0.42575 0.79859 0.79439
 C1271 C 0.43779 0.78711 0.78261
 C1272 C 0.44739 0.77669 0.77249
 C1273 C -0.08602 0.30655 0.80479
 C1274 C -0.07487 0.29724 0.79515
 C1275 C -0.06255 0.28585 0.78352
 C1276 C -0.05277 0.27552 0.77345
 C1277 C -0.08590 0.80650 0.30521
 C1278 C -0.07482 0.79719 0.29548
 C1279 C -0.06256 0.78589 0.28372
 C1280 C -0.05277 0.77569 0.27352
 C1281 C 0.58708 0.69578 0.30807
 C1282 C 0.57598 0.70551 0.29875
 C1283 C 0.56365 0.71710 0.28729
 C1284 C 0.55380 0.72705 0.27688
 C1285 C 0.58679 0.19167 0.80448
 C1286 C 0.57546 0.20077 0.79481
 C1287 C 0.56286 0.21201 0.78329
 C1288 C 0.55285 0.22226 0.77333
 C1289 C 1.08578 0.69431 0.80725
 C1290 C 1.07471 0.70406 0.79796
 C1291 C 1.06249 0.71582 0.78664
 C1292 C 1.05274 0.72599 0.77638
 C1293 C 1.08610 0.19090 0.30347
 C1294 C 1.07521 0.20007 0.29342
 C1295 C 1.06309 0.21155 0.28167
 C1296 C 1.05337 0.22205 0.27170
 C1297 C 0.58537 0.30729 0.69614
 C1298 C 0.57440 0.29796 0.70594
 C1299 C 0.56228 0.28647 0.71762
 C1300 C 0.55260 0.27604 0.72766
 C1301 C 0.58623 0.80371 0.19116
 C1302 C 0.57533 0.79378 0.20046
 C1303 C 0.56326 0.78203 0.21199
 C1304 C 0.55363 0.77201 0.22250
 C1305 C 1.08613 0.30763 0.19532
 C1306 C 1.07500 0.29837 0.20508
 C1307 C 1.06265 0.28699 0.21673
 C1308 C 1.05292 0.27656 0.22676
 C1309 C 1.08558 0.80376 0.69193
 C1310 C 1.07461 0.79377 0.70107
 C1311 C 1.06247 0.78190 0.71239
 C1312 C 1.05278 0.77174 0.72269
 C1313 C 0.41373 0.69128 0.69671
 C1314 C 0.42489 0.70045 0.70641
 C1315 C 0.43727 0.71188 0.71787
 C1316 C 0.44715 0.72234 0.72765
 C1317 C 0.41368 0.19529 0.19172
 C1318 C 0.42479 0.20509 0.20085
 C1319 C 0.43710 0.21683 0.21206
 C1320 C 0.44691 0.22697 0.22225
 C1321 C -0.08628 0.69234 0.19556
 C1322 C -0.07507 0.70141 0.20529
 C1323 C -0.06264 0.71260 0.21694
 C1324 C -0.05275 0.72278 0.22701
 C1325 C -0.08621 0.19066 0.69692
 C1326 C -0.07514 0.19981 0.70674
 C1327 C -0.06278 0.21117 0.71827
 C1328 C -0.05292 0.22158 0.72813
 C1329 C 0.30448 0.41386 0.30767
 C1330 C 0.29469 0.42501 0.29849
 C1331 C 0.28296 0.43740 0.28723
 C1332 C 0.27284 0.44726 0.27700
 C1333 C 0.30732 -0.08589 0.80578
 C1334 C 0.29797 -0.07475 0.79615
 C1335 C 0.28658 -0.06245 0.78452
 C1336 C 0.27630 -0.05266 0.77441
 C1337 C 0.80745 0.41528 0.80480
 C1338 C 0.79821 0.42639 0.79505
 C1339 C 0.78689 0.43864 0.78329
 C1340 C 0.77666 0.44837 0.77308
 C1341 C 0.80768 -0.08500 0.30488
 C1342 C 0.79821 -0.07411 0.29511
 C1343 C 0.78659 -0.06204 0.28349
 C1344 C 0.77610 -0.05234 0.27351
 C1345 C 0.30334 0.58501 0.69187
 C1346 C 0.29353 0.57398 0.70113
 C1347 C 0.28188 0.56178 0.71263
 C1348 C 0.27187 0.55205 0.72307
 C1349 C 0.30586 1.08563 0.19398
 C1350 C 0.29602 1.07470 0.20334
 C1351 C 0.28410 1.06259 0.21465
 C1352 C 0.27375 1.05291 0.22480
 C1353 C 0.80486 0.58484 0.19225
 C1354 C 0.79489 0.57401 0.20155
 C1355 C 0.78296 0.56202 0.21291
 C1356 C 0.77268 0.55240 0.22315
 C1357 C 0.80251 1.08556 0.69172
 C1358 C 0.79272 1.07447 0.70098
 C1359 C 0.78118 1.06209 0.71243
 C1360 C 0.77130 1.05220 0.72286
 C1361 C 0.69443 0.58538 0.30704
 C1362 C 0.70414 0.57433 0.29768
 C1363 C 0.71588 0.56208 0.28632
 C1364 C 0.72607 0.55231 0.27608
 C1365 C 0.69499 1.08438 0.80891
 C1366 C 0.70486 1.07350 0.79954
 C1367 C 0.71658 1.06145 0.78800
 C1368 C 0.72660 1.05184 0.77748
 C1369 C 0.19573 0.58628 0.80795
 C1370 C 0.20518 0.57489 0.79871
 C1371 C 0.21652 0.56228 0.78732
 C1372 C 0.22637 0.55228 0.77697
 C1373 C 0.19593 1.08582 0.30933
 C1374 C 0.20573 1.07487 0.29995
 C1375 C 0.21740 1.06271 0.28844
 C1376 C 0.22743 1.05297 0.27804
 C1377 C 0.69409 0.41465 0.69416
 C1378 C 0.70329 0.42582 0.70381
 C1379 C 0.71441 0.43817 0.71555
 C1380 C 0.72442 0.44802 0.72581
 C1381 C 0.69107 -0.08518 0.19694
 C1382 C 0.70013 -0.07408 0.20681
 C1383 C 0.71151 -0.06181 0.21843
 C1384 C 0.72194 -0.05206 0.22838
 C1385 C 0.19500 0.41537 0.19239
 C1386 C 0.20488 0.42621 0.20175
 C1387 C 0.21664 0.43821 0.21322
 C1388 C 0.22680 0.44773 0.22362
 C1389 C 0.19269 -0.08647 0.69686
 C1390 C 0.20171 -0.07521 0.70660
 C1391 C 0.21288 -0.06273 0.71822
 C1392 C 0.22308 -0.05280 0.72824
 C1393 C 0.30849 0.30528 0.41643
 C1394 C 0.29901 0.29524 0.42705
 C1395 C 0.28735 0.28331 0.43880
 C1396 C 0.27681 0.27315 0.44825
 C1397 C 0.30885 0.80574 -0.08583
 C1398 C 0.29952 0.79592 -0.07484
 C1399 C 0.28809 0.78418 -0.06264
 C1400 C 0.27777 0.77405 -0.05287
 C1401 C 0.80510 0.30854 -0.08592
 C1402 C 0.79526 0.29914 -0.07500
 C1403 C 0.78349 0.28763 -0.06289
 C1404 C 0.77334 0.27727 -0.05320
 C1405 C 0.80558 0.80925 0.41490
 C1406 C 0.79574 0.79987 0.42581
 C1407 C 0.78402 0.78832 0.43790
 C1408 C 0.77395 0.77789 0.44759
 C1409 C 0.69189 0.30564 0.58549
 C1410 C 0.70130 0.29580 0.57460
 C1411 C 0.71285 0.28407 0.56253
 C1412 C 0.72328 0.27399 0.55284
 C1413 C 0.69713 0.80982 1.08488
 C1414 C 0.70703 0.80051 1.07398
 C1415 C 0.71872 0.78893 1.06191
 C1416 C 0.72873 0.77841 1.05225
 C1417 C 0.19358 0.30735 1.08480
 C1418 C 0.20354 0.29787 1.07408
 C1419 C 0.21551 0.28640 1.06218
 C1420 C 0.22583 0.27614 1.05258
 C1421 C 0.19473 0.80781 0.58476
 C1422 C 0.20424 0.79799 0.57394
 C1423 C 0.21566 0.78602 0.56197
 C1424 C 0.22577 0.77554 0.55237
 C1425 C 0.30866 0.69501 0.58466
 C1426 C 0.29930 0.70501 0.57386
 C1427 C 0.28782 0.71695 0.56191
 C1428 C 0.27752 0.72726 0.55232
 C1429 C 0.30506 0.19124 1.08348
 C1430 C 0.29491 0.20078 1.07301
 C1431 C 0.28283 0.21246 1.06145
 C1432 C 0.27250 0.22296 1.05212
 C1433 C 0.80679 0.69320 1.08443
 C1434 C 0.79689 0.70272 1.07370
 C1435 C 0.78496 0.71427 1.06182
 C1436 C 0.77469 0.72464 1.05228
 C1437 C 0.80867 0.19635 0.58509
 C1438 C 0.79938 0.20639 0.57425
 C1439 C 0.78785 0.21826 0.56225
 C1440 C 0.77738 0.22838 0.55264
 C1441 C 0.69604 0.69234 0.41627
 C1442 C 0.70607 0.70185 0.42684
 C1443 C 0.71799 0.71352 0.43853
 C1444 C 0.72818 0.72404 0.44794
 C1445 C 0.69442 0.19290 -0.08500
 C1446 C 0.70435 0.20240 -0.07434
 C1447 C 0.71631 0.21393 -0.06253
 C1448 C 0.72662 0.22424 -0.05303
 C1449 C 0.19279 0.69539 -0.08393
 C1450 C 0.20227 0.70549 -0.07343
 C1451 C 0.21389 0.71752 -0.06181
 C1452 C 0.22433 0.72781 -0.05245
 C1453 C 0.19086 0.19652 0.41576
 C1454 C 0.20019 0.20643 0.42660
 C1455 C 0.21179 0.21811 0.43862
 C1456 C 0.22234 0.22809 0.44823
 C1457 C 0.30885 0.41400 0.69733
 C1458 C 0.29959 0.42506 0.70714
 C1459 C 0.28803 0.43730 0.71868
 C1460 C 0.27747 0.44708 0.72853
 C1461 C 0.30699 0.91477 0.19578
 C1462 C 0.29767 0.92579 0.20554
 C1463 C 0.28619 0.93800 0.21719
 C1464 C 0.27579 0.94776 0.22720
 C1465 C 0.80684 0.41330 0.19491
 C1466 C 0.79772 0.42459 0.20458
 C1467 C 0.78651 0.43712 0.21619
 C1468 C 0.77632 0.44708 0.22626
 C1469 C 0.80544 0.91443 0.69378
 C1470 C 0.79599 0.92537 0.70349
 C1471 C 0.78456 0.93741 0.71531
 C1472 C 0.77434 0.94703 0.72562
 C1473 C 0.69549 0.58671 0.69192
 C1474 C 0.70512 0.57555 0.70124
 C1475 C 0.71661 0.56321 0.71275
 C1476 C 0.72652 0.55338 0.72321
 C1477 C 0.69757 0.08585 0.19035
 C1478 C 0.70739 0.07475 0.19952
 C1479 C 0.71897 0.06250 0.21102
 C1480 C 0.72886 0.05275 0.22155
 C1481 C 0.19147 0.58607 0.19645
 C1482 C 0.20054 0.57488 0.20630
 C1483 C 0.21187 0.56249 0.21794
 C1484 C 0.22222 0.55262 0.22792
 C1485 C 0.19396 0.08503 0.69382
 C1486 C 0.20387 0.07414 0.70317
 C1487 C 0.21584 0.06209 0.71447
 C1488 C 0.22620 0.05244 0.72463
 C1489 C 0.30694 0.58555 0.30489
 C1490 C 0.29763 0.57455 0.29518
 C1491 C 0.28623 0.56237 0.28354
 C1492 C 0.27593 0.55262 0.27350
 C1493 C 0.30435 0.08594 0.80813
 C1494 C 0.29459 0.07483 0.79895
 C1495 C 0.28290 0.06249 0.78769
 C1496 C 0.27280 0.05264 0.77749
 C1497 C 0.80252 0.58592 0.80905
 C1498 C 0.79259 0.57499 0.79985
 C1499 C 0.78091 0.56290 0.78836
 C1500 C 0.77100 0.55323 0.77784
 C1501 C 0.80565 0.08583 0.30653
 C1502 C 0.79595 0.07482 0.29718
 C1503 C 0.78425 0.06261 0.28580
 C1504 C 0.77413 0.05286 0.27554
 C1505 C 0.69244 0.41445 0.30470
 C1506 C 0.70175 0.42545 0.29493
 C1507 C 0.71314 0.43756 0.28314
 C1508 C 0.72342 0.44722 0.27293
 C1509 C 0.69109 0.91358 0.80448
 C1510 C 0.70020 0.92466 0.79455
 C1511 C 0.71143 0.93698 0.78274
 C1512 C 0.72163 0.94682 0.77257
 C1513 C 0.19164 0.41341 0.80426
 C1514 C 0.20091 0.42455 0.79457
 C1515 C 0.21239 0.43692 0.78308
 C1516 C 0.22284 0.44680 0.77321
 C1517 C 0.19084 0.91417 0.30350
 C1518 C 0.19990 0.92546 0.29379
 C1519 C 0.21122 0.93795 0.28228
 C1520 C 0.22162 0.94786 0.27240
 C1521 C 0.41450 0.30274 0.69129
 C1522 C 0.42559 0.29280 0.70038
 C1523 C 0.43787 0.28102 0.71169
 C1524 C 0.44765 0.27094 0.72203
 C1525 C 0.41456 0.80580 0.19422
 C1526 C 0.42584 0.79661 0.20385
 C1527 C 0.43834 0.78546 0.21555
 C1528 C 0.44829 0.77543 0.22578
 C1529 C 0.91489 0.30402 0.19247
 C1530 C 0.92590 0.29417 0.20172
 C1531 C 0.93809 0.28237 0.21307
 C1532 C 0.94785 0.27219 0.22333
 C1533 C 0.91533 0.80780 0.69545
 C1534 C 0.92630 0.79847 0.70524
 C1535 C 0.93836 0.78694 0.71696
 C1536 C 0.94796 0.77645 0.72702
 C1537 C 0.58524 0.30540 0.30542
 C1538 C 0.57408 0.29621 0.29575
 C1539 C 0.56177 0.28503 0.28400
 C1540 C 0.55199 0.27493 0.27376
 C1541 C 0.58417 0.80516 0.80752
 C1542 C 0.57352 0.79526 0.79797
 C1543 C 0.56172 0.78337 0.78640
 C1544 C 0.55223 0.77311 0.77605
 C1545 C 0.08453 0.30407 0.80752
 C1546 C 0.07375 0.29410 0.79821
 C1547 C 0.06181 0.28221 0.78679
 C1548 C 0.05223 0.27200 0.77648
 C1549 C 0.08527 0.80323 0.30819
 C1550 C 0.07429 0.79347 0.29886
 C1551 C 0.06213 0.78195 0.28727
 C1552 C 0.05241 0.77211 0.27671
 C1553 C 0.58532 0.69441 0.69256
 C1554 C 0.57434 0.70425 0.70184
 C1555 C 0.56220 0.71615 0.71310
 C1556 C 0.55248 0.72645 0.72324
 C1557 C 0.58578 0.19116 0.19630
 C1558 C 0.57451 0.20016 0.20608
 C1559 C 0.56205 0.21141 0.21768
 C1560 C 0.55214 0.22174 0.22763
 C1561 C 0.08599 0.69751 0.19023
 C1562 C 0.07479 0.70721 0.19944
 C1563 C 0.06238 0.71860 0.21097
 C1564 C 0.05250 0.72831 0.22157
 C1565 C 0.08598 0.19482 0.69230
 C1566 C 0.07476 0.20451 0.70149
 C1567 C 0.06233 0.21611 0.71279
 C1568 C 0.05243 0.22613 0.72306
 C1569 C 0.41487 0.69345 0.30549
 C1570 C 0.42608 0.70258 0.29576
 C1571 C 0.43847 0.71367 0.28394
 C1572 C 0.44835 0.72365 0.27361
 C1573 C 0.41449 0.19320 0.80648
 C1574 C 0.42545 0.20296 0.79709
 C1575 C 0.43761 0.21475 0.78573
 C1576 C 0.44736 0.22495 0.77550
 C1577 C 0.91413 0.69081 0.80290
 C1578 C 0.92526 0.69997 0.79310
 C1579 C 0.93762 0.71141 0.78159
 C1580 C 0.94750 0.72188 0.77176
 C1581 C 0.91417 0.19487 0.30738
 C1582 C 0.92550 0.20448 0.29821
 C1583 C 0.93806 0.21605 0.28697
 C1584 C 0.94802 0.22609 0.27673
 C1585 C 0.30372 0.30942 0.58507
 C1586 C 0.29375 0.30007 0.57430
 C1587 C 0.28202 0.28844 0.56237
 C1588 C 0.27203 0.27788 0.55279
 C1589 C 0.30556 0.80850 0.08506
 C1590 C 0.29578 0.79919 0.07408
 C1591 C 0.28412 0.78771 0.06192
 C1592 C 0.27412 0.77730 0.05219
 C1593 C 0.80710 0.30611 0.08411
 C1594 C 0.79767 0.29626 0.07330
 C1595 C 0.78619 0.28442 0.06134
 C1596 C 0.77587 0.27422 0.05173
 C1597 C 0.80884 0.80563 0.58520
 C1598 C 0.79950 0.79576 0.57433
 C1599 C 0.78802 0.78402 0.56226
 C1600 C 0.77764 0.77395 0.55258
 C1601 C 0.30582 0.69278 0.41459
 C1602 C 0.29600 0.70219 0.42551
 C1603 C 0.28424 0.71366 0.43766
 C1604 C 0.27406 0.72397 0.44738
 C1605 C 0.30806 0.19491 0.91611
 C1606 C 0.29862 0.20507 0.92665
 C1607 C 0.28708 0.21717 0.93833
 C1608 C 0.27672 0.22755 0.94775
 C1609 C 0.80973 0.69598 0.91555
 C1610 C 0.80038 0.70602 0.92630
 C1611 C 0.78877 0.71789 0.93818
 C1612 C 0.77824 0.72802 0.94770
 C1613 C 0.80508 0.19250 0.41602
 C1614 C 0.79507 0.20192 0.42673
 C1615 C 0.78307 0.21342 0.43858
 C1616 C 0.77275 0.22377 0.44809
 C1617 C 0.69380 0.30749 0.41487
 C1618 C 0.70368 0.29823 0.42587
 C1619 C 0.71555 0.28692 0.43806
 C1620 C 0.72582 0.27672 0.44782
 C1621 C 0.69299 0.80567 0.91484
 C1622 C 0.70247 0.79586 0.92571
 C1623 C 0.71400 0.78408 0.93777
 C1624 C 0.72437 0.77393 0.94745
 C1625 C 0.19236 0.30677 0.91566
 C1626 C 0.20192 0.29687 0.92635
 C1627 C 0.21349 0.28492 0.93819
 C1628 C 0.22382 0.27458 0.94770
 C1629 C 0.19512 0.80841 0.41528
 C1630 C 0.20510 0.79900 0.42604
 C1631 C 0.21698 0.78742 0.43794
 C1632 C 0.22721 0.77700 0.44749
 C1633 C 0.69218 0.69540 0.58345
 C1634 C 0.70174 0.70556 0.57301
 C1635 C 0.71344 0.71766 0.56148
 C1636 C 0.72394 0.72799 0.55218
 C1637 C 0.69063 0.19650 0.08396
 C1638 C 0.69997 0.20651 0.07315
 C1639 C 0.71156 0.21832 0.06117
 C1640 C 0.72209 0.22839 0.05158
 C1641 C 0.19731 0.69114 0.08418
 C1642 C 0.20731 0.70053 0.07340
 C1643 C 0.21907 0.71222 0.06147
 C1644 C 0.22907 0.72286 0.05191
 C1645 C 0.19492 0.19129 0.58410
 C1646 C 0.20500 0.20091 0.57364
 C1647 C 0.21692 0.21272 0.56207
 C1648 C 0.22706 0.22336 0.55271
   
