data_POSCAR
  _audit_creation_date              2014-09-24
  _audit_creation_method            'ToBaCCo'
  _symmetry_space_group_name_H-M    'P1'
  _symmetry_Int_Tables_number       1
  _symmetry_cell_setting            triclinic
  loop_
  _symmetry_equiv_pos_as_xyz
 x,y,z
_cell_length_a 59.9572
_cell_length_b 59.4071
_cell_length_c 60.1643
_cell_angle_alpha 89.831300
_cell_angle_beta 90.151300
_cell_angle_gamma 90.384900
loop_
  _atom_site_label
  _atom_site_type_symbol
  _atom_site_fract_x
  _atom_site_fract_y
  _atom_site_fract_z
C1 C 0.30696 0.38857 0.00300
 C2 C 0.31832 0.38453 0.02291
 C3 C 0.33790 0.37185 0.02269
 C4 C 0.34528 0.36152 0.00293
 C5 C 0.33341 0.36582 -0.01698
 C6 C 0.31439 0.37964 -0.01729
 C7 C 0.36414 0.34499 0.00331
 C8 C 0.37616 0.33987 -0.01621
 C9 C 0.39218 0.32253 -0.01666
 C10 C 0.39720 0.31158 0.00358
 C11 C 0.38612 0.31691 0.02329
 C12 C 0.36942 0.33320 0.02298
 H13 H 0.29272 0.39966 0.00350
 H14 H 0.34677 0.36959 0.03819
 H15 H 0.33796 0.35721 -0.03206
 H16 H 0.37341 0.34980 -0.03100
 H17 H 0.40905 0.29798 0.00420
 H18 H 0.36009 0.33582 0.03809
 C19 C 0.71276 0.62042 0.00743
 C20 C 0.70058 0.62445 0.02677
 C21 C 0.68246 0.63920 0.02590
 C22 C 0.67759 0.65163 0.00638
 C23 C 0.69022 0.64717 -0.01295
 C24 C 0.70754 0.63137 -0.01250
 C25 C 0.66058 0.67016 0.00684
 C26 C 0.65012 0.67811 -0.01280
 C27 C 0.63574 0.69693 -0.01242
 C28 C 0.63054 0.70632 0.00841
 C29 C 0.64014 0.69835 0.02806
 C30 C 0.65549 0.68084 0.02712
 H31 H 0.72636 0.60848 0.00786
 H32 H 0.67278 0.64139 0.04085
 H33 H 0.68746 0.65643 -0.02818
 H34 H 0.65391 0.67028 -0.02847
 H35 H 0.61804 0.71931 0.00974
 H36 H 0.66377 0.67618 0.04241
 C37 C 0.69842 0.37892 0.99728
 C38 C 0.69545 0.36630 0.97791
 C39 C 0.67903 0.34945 0.97741
 C40 C 0.66493 0.34557 0.99581
 C41 C 0.66812 0.35871 1.01512
 C42 C 0.68498 0.37521 1.01597
 C43 C 0.64712 0.32782 0.99461
 C44 C 0.63975 0.31624 1.01383
 C45 C 0.62329 0.29911 1.01255
 C46 C 0.61595 0.29267 0.99119
 C47 C 0.62237 0.30438 0.97200
 C48 C 0.63750 0.32226 0.97393
 H49 H 0.71131 0.39178 0.99780
 H50 H 0.67766 0.33917 0.96264
 H51 H 0.65733 0.35662 1.02936
 H52 H 0.64659 0.32101 1.02972
 H53 H 0.60576 0.27775 0.98911
 H54 H 0.64163 0.33187 0.95920
 C55 C 0.29275 0.63101 0.99582
 C56 C 0.30343 0.63517 0.97557
 C57 C 0.32217 0.64943 0.97511
 C58 C 0.32929 0.66113 0.99439
 C59 C 0.31779 0.65686 1.01452
 C60 C 0.29989 0.64152 1.01539
 C61 C 0.34783 0.67837 0.99320
 C62 C 0.35973 0.68516 1.01248
 C63 C 0.37559 0.70289 1.01181
 C64 C 0.38080 0.71229 0.99092
 C65 C 0.36992 0.70535 0.97153
 C66 C 0.35319 0.68891 0.97280
 H67 H 0.27893 0.61916 0.99638
 H68 H 0.33071 0.65159 0.95947
 H69 H 0.32202 0.66580 1.02957
 H70 H 0.35598 0.67729 1.02819
 H71 H 0.39424 0.72443 0.98930
 H72 H 0.34415 0.68502 0.95773
 C73 C -0.00324 0.29829 0.37721
 C74 C 0.01756 0.30317 0.36775
 C75 C 0.01895 0.31904 0.35044
 C76 C -0.00022 0.33057 0.34292
 C77 C -0.02076 0.32608 0.35365
 C78 C -0.02251 0.30933 0.37002
 C79 C 0.00081 0.34588 0.32300
 C80 C -0.01830 0.34905 0.30959
 C81 C -0.01779 0.36256 0.29031
 C82 C 0.00283 0.37195 0.28388
 C83 C 0.02218 0.36880 0.29660
 C84 C 0.02095 0.35644 0.31647
 H85 H -0.00449 0.28581 0.39033
 H86 H 0.03487 0.32146 0.34237
 H87 H -0.03574 0.33490 0.34886
 H88 H -0.03344 0.33989 0.31334
 H89 H 0.00391 0.38290 0.26951
 H90 H 0.03588 0.35478 0.32644
 C91 C -0.00088 0.69825 0.61580
 C92 C 0.01940 0.69072 0.62451
 C93 C 0.01943 0.67268 0.63955
 C94 C -0.00057 0.66146 0.64540
 C95 C -0.02073 0.66888 0.63564
 C96 C -0.02103 0.68776 0.62155
 C97 C -0.00041 0.64323 0.66272
 C98 C -0.01938 0.63912 0.67602
 C99 C -0.01894 0.62348 0.69366
 C100 C 0.00124 0.61236 0.69820
 C101 C 0.02024 0.61580 0.68506
 C102 C 0.01912 0.63081 0.66708
 H103 H -0.00101 0.71233 0.60429
 H104 H 0.03511 0.66818 0.64722
 H105 H -0.03638 0.66057 0.63935
 H106 H -0.03414 0.64918 0.67374
 H107 H 0.00217 0.60039 0.71173
 H108 H 0.03362 0.63269 0.65658
 C109 C 0.99267 0.70595 0.37305
 C110 C 0.97266 0.69786 0.36404
 C111 C 0.97297 0.67888 0.35038
 C112 C 0.99295 0.66712 0.34652
 C113 C 1.01283 0.67513 0.35659
 C114 C 1.01313 0.69521 0.36911
 C115 C 0.99298 0.64710 0.33136
 C116 C 1.01214 0.64153 0.31893
 C117 C 1.01216 0.62314 0.30407
 C118 C 0.99184 0.61152 0.30080
 C119 C 0.97267 0.61650 0.31303
 C120 C 0.97355 0.63387 0.32867
 H121 H 0.99192 0.72010 0.38432
 H122 H 0.95754 0.67371 0.34251
 H123 H 1.02821 0.66623 0.35395
 H124 H 1.02708 0.65139 0.32116
 H125 H 0.99029 0.59921 0.28768
 H126 H 0.95892 0.63696 0.33866
 C127 C 1.00227 0.29322 0.61805
 C128 C 0.98381 0.30708 0.62150
 C129 C 0.98416 0.32249 0.63915
 C130 C 1.00265 0.32378 0.65375
 C131 C 1.02086 0.30925 0.65000
 C132 C 1.02091 0.29432 0.63201
 C133 C 1.00304 0.34005 0.67281
 C134 C 1.02358 0.34800 0.68147
 C135 C 1.02447 0.36156 0.70063
 C136 C 1.00421 0.36875 0.70984
 C137 C 0.98361 0.36278 0.70048
 C138 C 0.98306 0.34766 0.68262
 H139 H 1.00216 0.28145 0.60432
 H140 H 0.97014 0.33367 0.64102
 H141 H 1.03499 0.30899 0.66120
 H142 H 1.03899 0.34292 0.67382
 H143 H 1.00433 0.38013 0.72385
 H144 H 0.96702 0.34219 0.67635
 C145 C 0.38087 -0.00109 0.29080
 C146 C 0.36943 0.01876 0.29558
 C147 C 0.35301 0.01864 0.31203
 C148 C 0.34843 -0.00099 0.32449
 C149 C 0.36109 -0.02048 0.32015
 C150 C 0.37686 -0.02118 0.30275
 C151 C 0.32989 -0.00150 0.34123
 C152 C 0.31904 -0.02201 0.34667
 C153 C 0.30101 -0.02255 0.36145
 C154 C 0.29307 -0.00236 0.37020
 C155 C 0.30316 0.01824 0.36482
 C156 C 0.32201 0.01853 0.35106
 H157 H 0.39239 -0.00063 0.27703
 H158 H 0.34346 0.03381 0.31435
 H159 H 0.35912 -0.03496 0.33083
 H160 H 0.32392 -0.03765 0.33901
 H161 H 0.27908 -0.00266 0.38157
 H162 H 0.33002 0.03454 0.34777
 C163 C 0.62428 0.00252 0.70256
 C164 C 0.62650 0.02252 0.69034
 C165 C 0.64221 0.02364 0.67315
 C166 C 0.65648 0.00540 0.66868
 C167 C 0.65351 -0.01471 0.68101
 C168 C 0.63722 -0.01654 0.69779
 C169 C 0.67503 0.00772 0.65201
 C170 C 0.68477 -0.01142 0.64213
 C171 C 0.70351 -0.00933 0.62830
 C172 C 0.71160 0.01218 0.62294
 C173 C 0.70181 0.03148 0.63179
 C174 C 0.68393 0.02915 0.64661
 H175 H 0.61175 0.00173 0.71544
 H176 H 0.64305 0.03884 0.66328
 H177 H 0.66476 -0.02860 0.67866
 H178 H 0.67830 -0.02811 0.64542
 H179 H 0.72545 0.01389 0.61150
 H180 H 0.67764 0.04423 0.65432
 C181 C 0.39011 1.00157 0.69504
 C182 C 0.38754 0.98073 0.68448
 C183 C 0.37117 0.97829 0.66792
 C184 C 0.35720 0.99647 0.66208
 C185 C 0.36037 1.01731 0.67295
 C186 C 0.37713 1.02016 0.68902
 C187 C 0.33912 0.99381 0.64503
 C188 C 0.33173 1.01252 0.63248
 C189 C 0.31349 1.01086 0.61767
 C190 C 0.30344 0.98953 0.61497
 C191 C 0.31100 0.97061 0.62657
 C192 C 0.32864 0.97278 0.64167
 H193 H 0.40215 1.00319 0.70840
 H194 H 0.36972 0.96232 0.65941
 H195 H 0.34984 1.03145 0.66896
 H196 H 0.34078 1.02824 0.63369
 H197 H 0.28900 0.98736 0.60438
 H198 H 0.33354 0.95815 0.65121
 C199 C 0.59967 0.99858 0.31986
 C200 C 0.60770 0.97857 0.32905
 C201 C 0.62653 0.97931 0.34278
 C202 C 0.63805 0.99975 0.34660
 C203 C 0.62973 1.01971 0.33688
 C204 C 0.61003 1.01953 0.32393
 C205 C 0.65878 1.00007 0.36057
 C206 C 0.66501 1.01930 0.37299
 C207 C 0.68425 1.01921 0.38638
 C208 C 0.69711 0.99964 0.38763
 C209 C 0.69113 0.98029 0.37577
 C210 C 0.67234 0.98078 0.36192
 H211 H 0.58600 0.99737 0.30813
 H212 H 0.63196 0.96382 0.35050
 H213 H 0.63838 1.03540 0.33982
 H214 H 0.65467 1.03415 0.37294
 H215 H 0.71173 0.99933 0.39825
 H216 H 0.66854 0.96600 0.35213
 O217 O 0.81731 0.85040 0.52322
 O218 O 0.85014 0.82165 0.48073
 O219 O 0.82016 0.85234 0.48036
 O220 O 0.84793 0.81957 0.52381
 O221 O 0.82233 0.79286 0.52103
 O222 O 0.79380 0.82638 0.47761
 O223 O 0.82419 0.79529 0.47782
 O224 O 0.79109 0.82430 0.52074
 Cu225 Cu 0.83649 0.83855 0.50244
 Cu226 Cu 0.80520 0.80702 0.49920
 C227 C 0.79842 0.84261 0.52897
 C228 C 0.84277 0.80373 0.47181
 C229 C 0.80230 0.84506 0.47148
 C230 C 0.84023 0.80051 0.52963
 O231 O 0.17526 0.13504 0.51546
 O232 O 0.14149 0.16849 0.47713
 O233 O 0.17339 0.13993 0.47299
 O234 O 0.14318 0.16409 0.52005
 O235 O 0.16755 0.19199 0.52184
 O236 O 0.19877 0.16693 0.47520
 O237 O 0.16620 0.19612 0.47845
 O238 O 0.20005 0.16251 0.51800
 Cu239 Cu 0.15582 0.14921 0.49634
 Cu240 Cu 0.18556 0.18226 0.49865
 C241 C 0.19363 0.14265 0.52291
 C242 C 0.14802 0.18788 0.47099
 C243 C 0.19139 0.14899 0.46626
 C244 C 0.14994 0.18231 0.52884
 O245 O 0.14782 0.82035 0.51902
 O246 O 0.17726 0.85053 0.47487
 O247 O 0.14635 0.82009 0.47607
 O248 O 0.17922 0.85003 0.51809
 O249 O 0.20474 0.82347 0.51731
 O250 O 0.17140 0.79308 0.47494
 O251 O 0.20292 0.82412 0.47376
 O252 O 0.17276 0.79321 0.51818
 Cu253 Cu 0.16021 0.83795 0.49706
 Cu254 Cu 0.19059 0.80580 0.49591
 C255 C 0.15506 0.80165 0.52614
 C256 C 0.19502 0.84264 0.46668
 C257 C 0.15303 0.80143 0.46842
 C258 C 0.19745 0.84187 0.52510
 O259 O 0.80446 0.16590 0.47885
 O260 O 0.84063 0.20218 0.51283
 O261 O 0.81188 0.17039 0.52089
 O262 O 0.83484 0.19643 0.47077
 O263 O 0.81035 0.22391 0.47294
 O264 O 0.78401 0.19446 0.52079
 O265 O 0.81349 0.22689 0.51592
 O266 O 0.77901 0.19254 0.47771
 Cu267 Cu 0.82553 0.18116 0.49568
 Cu268 Cu 0.79399 0.21203 0.49683
 C269 C 0.78552 0.17295 0.47249
 C270 C 0.83324 0.22065 0.52032
 C271 C 0.79379 0.17744 0.52913
 C272 C 0.82729 0.21505 0.46381
 O273 O 0.49357 0.85182 0.81092
 O274 O 0.52869 0.82106 0.85065
 O275 O 0.53565 0.85011 0.81941
 O276 O 0.48605 0.82397 0.84359
 O277 O 0.48910 0.79491 0.82110
 O278 O 0.53778 0.82304 0.79449
 O279 O 0.53228 0.79329 0.82671
 O280 O 0.49468 0.82306 0.78780
 Cu281 Cu 0.51066 0.83946 0.83352
 Cu282 Cu 0.51373 0.80571 0.80514
 C283 C 0.48815 0.84278 0.79255
 C284 C 0.53669 0.80202 0.84549
 C285 C 0.54498 0.84149 0.80261
 C286 C 0.47923 0.80489 0.83693
 O287 O 0.52768 0.18559 0.15991
 O288 O 0.48244 0.15724 0.18978
 O289 O 0.48466 0.18601 0.15778
 O290 O 0.52539 0.15676 0.19263
 O291 O 0.52531 0.18472 0.21668
 O292 O 0.48369 0.21403 0.18174
 O293 O 0.48180 0.18464 0.21444
 O294 O 0.52715 0.21375 0.18370
 Cu295 Cu 0.50525 0.16864 0.17264
 Cu296 Cu 0.50445 0.20211 0.20160
 C297 C 0.53490 0.20465 0.16627
 C298 C 0.47439 0.16591 0.20723
 C299 C 0.47717 0.20500 0.16370
 C300 C 0.53209 0.16544 0.21073
 O301 O 0.50997 0.14692 0.81449
 O302 O 0.47634 0.18274 0.85043
 O303 O 0.46799 0.15197 0.82081
 O304 O 0.51829 0.17745 0.84440
 O305 O 0.51752 0.20440 0.81912
 O306 O 0.46764 0.17741 0.79405
 O307 O 0.47491 0.20887 0.82436
 O308 O 0.51059 0.17335 0.78865
 Cu309 Cu 0.49319 0.16218 0.83509
 Cu310 Cu 0.49255 0.19364 0.80385
 C311 C 0.51589 0.15379 0.79539
 C312 C 0.47023 0.20208 0.84388
 C313 C 0.45957 0.15974 0.80304
 C314 C 0.52613 0.19563 0.83641
 O315 O 0.48958 0.81833 0.15170
 O316 O 0.52588 0.84630 0.19242
 O317 O 0.53235 0.81915 0.15912
 O318 O 0.48421 0.84665 0.18377
 O319 O 0.48041 0.81893 0.20798
 O320 O 0.52758 0.78961 0.18093
 O321 O 0.52305 0.81697 0.21490
 O322 O 0.48432 0.78999 0.17488
 Cu323 Cu 0.50852 0.83532 0.16935
 Cu324 Cu 0.50338 0.80087 0.19690
 C325 C 0.48052 0.79950 0.15631
 C326 C 0.53032 0.83668 0.21077
 C327 C 0.53809 0.79964 0.16541
 C328 C 0.47458 0.83812 0.20056
 O329 O 0.85617 0.52290 0.82824
 O330 O 0.82897 0.47613 0.85725
 O331 O 0.85973 0.47974 0.82697
 O332 O 0.82480 0.51970 0.85736
 O333 O 0.79950 0.51813 0.83072
 O334 O 0.83410 0.47686 0.80073
 O335 O 0.80301 0.47432 0.83126
 O336 O 0.83147 0.52068 0.80107
 Cu337 Cu 0.84487 0.49973 0.84514
 Cu338 Cu 0.81442 0.49727 0.81329
 C339 C 0.84880 0.52966 0.80962
 C340 C 0.81127 0.46733 0.84949
 C341 C 0.85308 0.47163 0.80857
 C342 C 0.80627 0.52595 0.84921
 O343 O 0.14539 0.52408 0.17251
 O344 O 0.18256 0.48414 0.14540
 O345 O 0.15110 0.48120 0.17440
 O346 O 0.17688 0.52745 0.14304
 O347 O 0.20216 0.53206 0.16938
 O348 O 0.17515 0.48626 0.20180
 O349 O 0.20751 0.48859 0.17210
 O350 O 0.17018 0.52966 0.19912
 Cu351 Cu 0.16160 0.50382 0.15612
 Cu352 Cu 0.19130 0.50963 0.18829
 C353 C 0.15114 0.53345 0.19059
 C354 C 0.20129 0.47941 0.15402
 C355 C 0.15837 0.47601 0.19356
 C356 C 0.19400 0.53755 0.15061
 O357 O 0.83452 0.46095 0.18688
 O358 O 0.81013 0.51189 0.16313
 O359 O 0.84069 0.50338 0.19259
 O360 O 0.80266 0.46939 0.15852
 O361 O 0.77844 0.46791 0.18607
 O362 O 0.81511 0.50573 0.21877
 O363 O 0.78359 0.51131 0.18849
 O364 O 0.81101 0.46227 0.21498
 Cu365 Cu 0.82444 0.48633 0.17260
 Cu366 Cu 0.79450 0.48686 0.20482
 C367 C 0.82764 0.45335 0.20538
 C368 C 0.79236 0.51990 0.17117
 C369 C 0.83452 0.51031 0.21153
 C370 C 0.78404 0.46290 0.16636
 O371 O 0.18089 0.52092 0.84711
 O372 O 0.15369 0.47251 0.82074
 O373 O 0.18342 0.47751 0.85102
 O374 O 0.15033 0.51534 0.81654
 O375 O 0.17653 0.51590 0.79088
 O376 O 0.20963 0.47631 0.82539
 O377 O 0.17921 0.47241 0.79436
 O378 O 0.20777 0.52012 0.82215
 Cu379 Cu 0.16455 0.49682 0.83645
 Cu380 Cu 0.19601 0.49634 0.80562
 C381 C 0.19924 0.52847 0.83958
 C382 C 0.16154 0.46430 0.80297
 C383 C 0.20193 0.47007 0.84413
 C384 C 0.15726 0.52159 0.79759
 C385 C 0.32109 0.40583 0.05901
 C386 C 0.31066 0.41559 0.07746
 C387 C 0.28778 0.41225 0.08111
 C388 C 0.27565 0.39821 0.06661
 C389 C 0.28596 0.38865 0.04825
 C390 C 0.30861 0.39280 0.04394
 N391 N 0.27668 0.42447 0.09836
 N392 N 0.25562 0.42283 0.10056
 C393 C 0.24285 0.43549 0.11613
 C394 C 0.21964 0.43376 0.11491
 C395 C 0.20622 0.44760 0.12778
 C396 C 0.21582 0.46330 0.14242
 C397 C 0.23918 0.46431 0.14451
 C398 C 0.25268 0.45059 0.13127
 H399 H 0.33859 0.40924 0.05599
 H400 H 0.32023 0.42636 0.08846
 H401 H 0.25801 0.39516 0.06904
 H402 H 0.27608 0.37838 0.03703
 H403 H 0.21192 0.42218 0.10329
 H404 H 0.18827 0.44632 0.12596
 H405 H 0.24697 0.47633 0.15564
 H406 H 0.27064 0.45218 0.13244
 C407 C 0.69286 0.60390 0.06272
 C408 C 0.70052 0.59367 0.08233
 C409 C 0.72329 0.59400 0.08768
 C410 C 0.73829 0.60508 0.07337
 C411 C 0.73072 0.61510 0.05382
 C412 C 0.70800 0.61436 0.04810
 N413 N 0.73114 0.58188 0.10681
 N414 N 0.75178 0.58193 0.11183
 C415 C 0.76111 0.56889 0.12954
 C416 C 0.78433 0.56829 0.13152
 C417 C 0.79448 0.55319 0.14610
 C418 C 0.78150 0.53862 0.15926
 C419 C 0.75813 0.54028 0.15843
 C420 C 0.74795 0.55522 0.14350
 H421 H 0.67526 0.60310 0.05868
 H422 H 0.68877 0.58512 0.09314
 H423 H 0.75597 0.60564 0.07705
 H424 H 0.74268 0.62341 0.04306
 H425 H 0.79462 0.57875 0.12086
 H426 H 0.81252 0.55229 0.14646
 H427 H 0.74778 0.52908 0.16828
 H428 H 0.72994 0.55544 0.14223
 C429 C 0.69886 0.37468 0.93721
 C430 C 0.71123 0.38295 0.91922
 C431 C 0.73394 0.38799 0.92174
 C432 C 0.74445 0.38357 0.94221
 C433 C 0.73210 0.37545 0.96018
 C434 C 0.70908 0.37152 0.95804
 N435 N 0.74548 0.39949 0.90419
 N436 N 0.76589 0.40512 0.90622
 C437 C 0.77755 0.41838 0.89007
 C438 C 0.79968 0.42437 0.89448
 C439 C 0.81086 0.43967 0.88080
 C440 C 0.80006 0.44926 0.86232
 C441 C 0.77813 0.44242 0.85727
 C442 C 0.76689 0.42712 0.87110
 H443 H 0.68110 0.37190 0.93517
 H444 H 0.70292 0.38632 0.90358
 H445 H 0.76200 0.38723 0.94460
 H446 H 0.74042 0.37287 0.97598
 H447 H 0.80802 0.41778 0.90908
 H448 H 0.82780 0.44445 0.88507
 H449 H 0.76939 0.44951 0.84315
 H450 H 0.74972 0.42275 0.86741
 C451 C 0.30777 0.61450 0.93926
 C452 C 0.29829 0.60384 0.92069
 C453 C 0.27512 0.60384 0.91747
 C454 C 0.26157 0.61524 0.93272
 C455 C 0.27097 0.62577 0.95120
 C456 C 0.29410 0.62518 0.95493
 N457 N 0.26548 0.59113 0.89955
 N458 N 0.24441 0.59000 0.89704
 C459 C 0.23358 0.57654 0.88047
 C460 C 0.21034 0.57473 0.88110
 C461 C 0.19911 0.55976 0.86712
 C462 C 0.21097 0.54648 0.85197
 C463 C 0.23425 0.54917 0.85048
 C464 C 0.24554 0.56400 0.86477
 H465 H 0.32564 0.61377 0.94176
 H466 H 0.30894 0.59508 0.90911
 H467 H 0.24364 0.61564 0.93064
 H468 H 0.26008 0.63423 0.96279
 H469 H 0.20096 0.58432 0.89312
 H470 H 0.18117 0.55813 0.86858
 H471 H 0.24381 0.53905 0.83904
 H472 H 0.26355 0.56518 0.86399
 C473 C 0.05721 0.30278 0.38146
 C474 C 0.07501 0.29149 0.39161
 C475 C 0.07349 0.26836 0.39607
 C476 C 0.05425 0.25646 0.38943
 C477 C 0.03650 0.26770 0.37943
 C478 C 0.03757 0.29105 0.37580
 N479 N 0.09087 0.25749 0.40846
 N480 N 0.08938 0.23668 0.41336
 C481 C 0.10537 0.22489 0.42663
 C482 C 0.10142 0.20212 0.43103
 C483 C 0.11551 0.19014 0.44513
 C484 C 0.13400 0.20073 0.45516
 C485 C 0.13832 0.22354 0.45032
 C486 C 0.12405 0.23560 0.43617
 H487 H 0.05839 0.32080 0.37890
 H488 H 0.08971 0.30089 0.39661
 H489 H 0.05264 0.23857 0.39251
 H490 H 0.02169 0.25820 0.37493
 H491 H 0.08706 0.19372 0.42380
 H492 H 0.11173 0.17259 0.44837
 H493 H 0.15243 0.23215 0.45779
 H494 H 0.12737 0.25325 0.43301
 C495 C 0.05890 0.68931 0.61101
 C496 C 0.07779 0.70007 0.60226
 C497 C 0.07856 0.72357 0.60046
 C498 C 0.06057 0.73628 0.60840
 C499 C 0.04170 0.72557 0.61699
 C500 C 0.04046 0.70198 0.61789
 N501 N 0.09671 0.73409 0.58887
 N502 N 0.09740 0.75534 0.58626
 C503 C 0.11400 0.76665 0.57329
 C504 C 0.11211 0.78989 0.57043
 C505 C 0.12601 0.80133 0.55565
 C506 C 0.14224 0.78968 0.54351
 C507 C 0.14492 0.76647 0.54720
 C508 C 0.13078 0.75496 0.56193
 H509 H 0.05829 0.67109 0.61147
 H510 H 0.09150 0.69008 0.59616
 H511 H 0.06074 0.75447 0.60729
 H512 H 0.02784 0.73572 0.62251
 H513 H 0.09921 0.79904 0.57909
 H514 H 0.12367 0.81925 0.55333
 H515 H 0.15728 0.75708 0.53805
 H516 H 0.13249 0.73694 0.56389
 C517 C 0.93312 0.69613 0.37748
 C518 C 0.91474 0.70672 0.38710
 C519 C 0.91444 0.73016 0.38940
 C520 C 0.93203 0.74307 0.38049
 C521 C 0.95032 0.73254 0.37087
 C522 C 0.95144 0.70895 0.37003
 N523 N 0.89749 0.74033 0.40270
 N524 N 0.89876 0.76101 0.40803
 C525 C 0.88329 0.77165 0.42260
 C526 C 0.88756 0.79387 0.42893
 C527 C 0.87420 0.80434 0.44471
 C528 C 0.85613 0.79275 0.45436
 C529 C 0.85139 0.77061 0.44747
 C530 C 0.86497 0.76006 0.43177
 H531 H 0.93360 0.67791 0.37712
 H532 H 0.90129 0.69659 0.39387
 H533 H 0.93211 0.76124 0.38181
 H534 H 0.96406 0.74281 0.36490
 H535 H 0.90168 0.80292 0.42201
 H536 H 0.87819 0.82145 0.44952
 H537 H 0.83756 0.76129 0.45460
 H538 H 0.86141 0.74282 0.42712
 C539 C 0.96698 0.30188 0.58381
 C540 C 0.94926 0.29487 0.57042
 C541 C 0.92830 0.29057 0.57966
 C542 C 0.92479 0.29478 0.60236
 C543 C 0.94261 0.30176 0.61587
 C544 C 0.96406 0.30452 0.60682
 N545 N 0.91196 0.27944 0.56618
 N546 N 0.89191 0.27598 0.57225
 C547 C 0.87716 0.26268 0.55878
 C548 C 0.85405 0.26395 0.56189
 C549 C 0.83956 0.25050 0.54920
 C550 C 0.84812 0.23514 0.53372
 C551 C 0.87129 0.23378 0.53084
 C552 C 0.88566 0.24753 0.54308
 H553 H 0.98326 0.30422 0.57636
 H554 H 0.95214 0.29171 0.55294
 H555 H 0.90870 0.29147 0.60985
 H556 H 0.93995 0.30356 0.63357
 H557 H 0.84729 0.27542 0.57405
 H558 H 0.82175 0.25182 0.55175
 H559 H 0.87833 0.22221 0.51892
 H560 H 0.90345 0.24602 0.54056
 C561 C 0.37617 0.03912 0.25980
 C562 C 0.38463 0.05760 0.24811
 C563 C 0.39215 0.07673 0.25945
 C564 C 0.38988 0.07776 0.28268
 C565 C 0.38117 0.05930 0.29441
 C566 C 0.37492 0.03957 0.28309
 N567 N 0.40386 0.09369 0.24710
 N568 N 0.41294 0.11089 0.25599
 C569 C 0.42616 0.12626 0.24303
 C570 C 0.43656 0.14466 0.25338
 C571 C 0.45164 0.15829 0.24158
 C572 C 0.45663 0.15351 0.21927
 C573 C 0.44547 0.13559 0.20874
 C574 C 0.43037 0.12215 0.22044
 H575 H 0.37127 0.02416 0.25071
 H576 H 0.38630 0.05663 0.23022
 H577 H 0.39560 0.09240 0.29178
 H578 H 0.38044 0.05996 0.31238
 H579 H 0.43353 0.14800 0.27079
 H580 H 0.46001 0.17198 0.25012
 H581 H 0.44880 0.13158 0.19152
 H582 H 0.42257 0.10809 0.21198
 C583 C 0.62244 0.06405 0.69756
 C584 C 0.61044 0.08203 0.70649
 C585 C 0.58882 0.07860 0.71462
 C586 C 0.57869 0.05735 0.71219
 C587 C 0.59050 0.03951 0.70299
 C588 C 0.61281 0.04240 0.69637
 N589 N 0.57803 0.09617 0.72677
 N590 N 0.56228 0.09141 0.74015
 C591 C 0.55096 0.10772 0.75336
 C592 C 0.53753 0.09990 0.77071
 C593 C 0.52648 0.11498 0.78445
 C594 C 0.52829 0.13829 0.78083
 C595 C 0.54151 0.14622 0.76313
 C596 C 0.55301 0.13101 0.74959
 H597 H 0.63961 0.06682 0.69267
 H598 H 0.61842 0.09834 0.70819
 H599 H 0.56183 0.05437 0.71795
 H600 H 0.58236 0.02324 0.70170
 H601 H 0.53581 0.08199 0.77372
 H602 H 0.51623 0.10833 0.79777
 H603 H 0.54313 0.16411 0.75996
 H604 H 0.56328 0.13738 0.73617
 C605 C 0.42480 0.96582 0.69567
 C606 C 0.43783 0.94952 0.70605
 C607 C 0.42858 0.92876 0.71213
 C608 C 0.40624 0.92395 0.70662
 C609 C 0.39304 0.94040 0.69631
 C610 C 0.40205 0.96178 0.69144
 N611 N 0.44164 0.91414 0.72582
 N612 N 0.43625 0.89389 0.73040
 C613 C 0.44940 0.88105 0.74577
 C614 C 0.44829 0.85748 0.74558
 C615 C 0.46105 0.84485 0.76062
 C616 C 0.47459 0.85571 0.77649
 C617 C 0.47535 0.87933 0.77684
 C618 C 0.46306 0.89187 0.76153
 H619 H 0.43229 0.98198 0.69176
 H620 H 0.45503 0.95339 0.71016
 H621 H 0.39874 0.90800 0.71129
 H622 H 0.37554 0.93688 0.69333
 H623 H 0.43773 0.84892 0.73363
 H624 H 0.46013 0.82665 0.76006
 H625 H 0.48571 0.88814 0.78880
 H626 H 0.46402 0.91006 0.76220
 C627 C 0.57365 0.95551 0.32078
 C628 C 0.56359 0.93745 0.30982
 C629 C 0.57656 0.92030 0.30082
 C630 C 0.59975 0.92054 0.30425
 C631 C 0.60992 0.93880 0.31508
 C632 C 0.59699 0.95692 0.32260
 N633 N 0.56609 0.90497 0.28569
 N634 N 0.57509 0.88698 0.27874
 C635 C 0.56433 0.87418 0.26159
 C636 C 0.56699 0.85079 0.26049
 C637 C 0.55600 0.83831 0.24393
 C638 C 0.54294 0.84929 0.22781
 C639 C 0.54094 0.87280 0.22861
 C640 C 0.55131 0.88508 0.24545
 H641 H 0.56325 0.96906 0.32671
 H642 H 0.54570 0.93743 0.30727
 H643 H 0.61009 0.90749 0.29726
 H644 H 0.62795 0.93951 0.31614
 H645 H 0.57712 0.84220 0.27274
 H646 H 0.55777 0.82019 0.24363
 H647 H 0.53083 0.88167 0.21653
 H648 H 0.54930 0.90318 0.24578
 C649 C 0.42237 0.30330 0.96313
 C650 C 0.42994 0.29243 0.94414
 C651 C 0.41776 0.29346 0.92426
 C652 C 0.39875 0.30692 0.92325
 C653 C 0.39084 0.31760 0.94241
 C654 C 0.40197 0.31512 0.96308
 N655 N 0.42376 0.27975 0.90567
 N656 N 0.43436 0.26156 0.90900
 C657 C 0.44145 0.24668 0.89181
 C658 C 0.44919 0.22549 0.89810
 C659 C 0.45757 0.21072 0.88231
 C660 C 0.45874 0.21702 0.85979
 C661 C 0.45052 0.23822 0.85335
 C662 C 0.44178 0.25295 0.86927
 H663 H 0.43271 0.30222 0.97784
 H664 H 0.44519 0.28280 0.94509
 H665 H 0.38927 0.30802 0.90794
 H666 H 0.37507 0.32621 0.94108
 H667 H 0.44902 0.22052 0.91543
 H668 H 0.46384 0.19461 0.88792
 H669 H 0.45128 0.24357 0.83615
 H670 H 0.43592 0.26935 0.86411
 C671 C 0.62271 0.69385 0.94839
 C672 C 0.61256 0.70365 0.92967
 C673 C 0.60649 0.72637 0.92978
 C674 C 0.61125 0.73936 0.94864
 C675 C 0.62119 0.72971 0.96726
 C676 C 0.62669 0.70660 0.96785
 N677 N 0.59496 0.73596 0.91107
 N678 N 0.58881 0.75644 0.91150
 C679 C 0.57668 0.76736 0.89407
 C680 C 0.57048 0.78975 0.89725
 C681 C 0.55776 0.80100 0.88135
 C682 C 0.55100 0.79005 0.86175
 C683 C 0.55758 0.76761 0.85833
 C684 C 0.57030 0.75629 0.87442
 H685 H 0.62623 0.67603 0.94782
 H686 H 0.60901 0.69338 0.91523
 H687 H 0.60718 0.75708 0.94913
 H688 H 0.62505 0.74080 0.98099
 H689 H 0.57531 0.79844 0.91234
 H690 H 0.55309 0.81827 0.88451
 H691 H 0.55260 0.75871 0.84342
 H692 H 0.57491 0.73894 0.87165
 C693 C 0.38916 0.69823 0.05068
 C694 C 0.40006 0.70707 0.06945
 C695 C 0.40776 0.72936 0.06956
 C696 C 0.40409 0.74288 0.05078
 C697 C 0.39338 0.73417 0.03210
 C698 C 0.38595 0.71154 0.03139
 N699 N 0.41965 0.73798 0.08852
 N700 N 0.42692 0.75817 0.08857
 C701 C 0.43940 0.76805 0.10640
 C702 C 0.44686 0.79024 0.10384
 C703 C 0.45991 0.80046 0.12020
 C704 C 0.46576 0.78866 0.13962
 C705 C 0.45791 0.76644 0.14242
 C706 C 0.44485 0.75615 0.12587
 H707 H 0.38431 0.68068 0.05113
 H708 H 0.40281 0.69639 0.08380
 H709 H 0.40952 0.76029 0.05046
 H710 H 0.39034 0.74571 0.01850
 H711 H 0.44275 0.79956 0.08890
 H712 H 0.46558 0.81760 0.11750
 H713 H 0.46216 0.75690 0.15718
 H714 H 0.43924 0.73894 0.12818
 C715 C 0.59284 0.27788 0.03062
 C716 C 0.58381 0.26660 0.04878
 C717 C 0.59503 0.26612 0.06903
 C718 C 0.61561 0.27727 0.07113
 C719 C 0.62508 0.28829 0.05269
 C720 C 0.61402 0.28852 0.03181
 N721 N 0.58515 0.25342 0.08668
 N722 N 0.59009 0.25554 0.10715
 C723 C 0.57894 0.24151 0.12311
 C724 C 0.57503 0.24942 0.14466
 C725 C 0.56127 0.23714 0.15921
 C726 C 0.55165 0.21658 0.15245
 C727 C 0.55687 0.20811 0.13132
 C728 C 0.57023 0.22048 0.11679
 H729 H 0.58253 0.27865 0.01588
 H730 H 0.56773 0.25834 0.04714
 H731 H 0.62462 0.27690 0.08674
 H732 H 0.64145 0.29565 0.05488
 H733 H 0.58168 0.26559 0.14977
 H734 H 0.55765 0.24404 0.17543
 H735 H 0.54988 0.19229 0.12559
 H736 H 0.57327 0.21388 0.10032
 C737 C 0.30698 0.05205 0.61522
 C738 C 0.29578 0.07029 0.60554
 C739 C 0.28201 0.06702 0.58702
 C740 C 0.28086 0.04566 0.57726
 C741 C 0.29219 0.02756 0.58662
 C742 C 0.30471 0.03004 0.60643
 N743 N 0.26849 0.08508 0.57880
 N744 N 0.25093 0.08060 0.56768
 C745 C 0.23646 0.09715 0.55829
 C746 C 0.21607 0.08983 0.54959
 C747 C 0.20186 0.10486 0.53894
 C748 C 0.20791 0.12764 0.53647
 C749 C 0.22825 0.13517 0.54566
 C750 C 0.24243 0.12001 0.55663
 H751 H 0.31607 0.05520 0.63045
 H752 H 0.29695 0.08675 0.61315
 H753 H 0.27096 0.04287 0.56243
 H754 H 0.29110 0.01166 0.57798
 H755 H 0.21134 0.07224 0.55078
 H756 H 0.18639 0.09843 0.53203
 H757 H 0.23340 0.15259 0.54398
 H758 H 0.25821 0.12598 0.56320
 C759 C 0.69912 0.03658 0.42123
 C760 C 0.70925 0.05447 0.43237
 C761 C 0.71153 0.07547 0.42208
 C762 C 0.70251 0.07877 0.40073
 C763 C 0.69241 0.06074 0.38943
 C764 C 0.69128 0.03928 0.39935
 N765 N 0.72485 0.09221 0.43298
 N766 N 0.72648 0.11257 0.42653
 C767 C 0.74150 0.12776 0.43760
 C768 C 0.73850 0.15107 0.43575
 C769 C 0.75284 0.16597 0.44698
 C770 C 0.77073 0.15770 0.45971
 C771 C 0.77399 0.13434 0.46098
 C772 C 0.75945 0.11953 0.45021
 H773 H 0.69811 0.02037 0.42945
 H774 H 0.71608 0.05177 0.44884
 H775 H 0.70417 0.09489 0.39244
 H776 H 0.68658 0.06325 0.37256
 H777 H 0.72483 0.15766 0.42597
 H778 H 0.74997 0.18390 0.44569
 H779 H 0.78754 0.12743 0.47075
 H780 H 0.76231 0.10162 0.45168
 C781 C 0.73892 0.97014 0.62107
 C782 C 0.75067 0.95208 0.61229
 C783 C 0.73936 0.93410 0.60235
 C784 C 0.71591 0.93402 0.60181
 C785 C 0.70405 0.95215 0.61072
 C786 C 0.71551 0.97059 0.62007
 N787 N 0.75234 0.91701 0.59191
 N788 N 0.74399 0.89994 0.58212
 C789 C 0.75804 0.88421 0.57084
 C790 C 0.74846 0.86577 0.55983
 C791 C 0.76169 0.85149 0.54694
 C792 C 0.78471 0.85563 0.54476
 C793 C 0.79436 0.87364 0.55652
 C794 C 0.78121 0.88774 0.56946
 H795 H 0.74818 0.98391 0.62852
 H796 H 0.76873 0.95230 0.61282
 H797 H 0.70683 0.92027 0.59412
 H798 H 0.68601 0.95210 0.60969
 H799 H 0.73064 0.86284 0.56073
 H800 H 0.75377 0.83779 0.53801
 H801 H 0.81205 0.87721 0.55530
 H802 H 0.78911 0.90180 0.57783
 C803 C 0.30333 0.93773 0.37556
 C804 C 0.29311 0.91878 0.38512
 C805 C 0.26987 0.91769 0.38727
 C806 C 0.25685 0.93527 0.37859
 C807 C 0.26701 0.95418 0.36915
 C808 C 0.29035 0.95591 0.36814
 N809 N 0.25994 0.89982 0.40000
 N810 N 0.23907 0.89956 0.40377
 C811 C 0.22828 0.88333 0.41775
 C812 C 0.20555 0.88600 0.42191
 C813 C 0.19471 0.87234 0.43740
 C814 C 0.20642 0.85553 0.44894
 C815 C 0.22908 0.85215 0.44406
 C816 C 0.24002 0.86608 0.42863
 H817 H 0.32136 0.93871 0.37504
 H818 H 0.30335 0.90538 0.39174
 H819 H 0.23885 0.93483 0.37986
 H820 H 0.25663 0.96781 0.36324
 H821 H 0.19637 0.89926 0.41364
 H822 H 0.17720 0.87523 0.44062
 H823 H 0.23850 0.83932 0.45272
 H824 H 0.25765 0.86377 0.42567
 C825 C 0.06436 0.37226 0.69758
 C826 C 0.08373 0.38119 0.70736
 C827 C 0.08442 0.38577 0.73015
 C828 C 0.06575 0.38054 0.74324
 C829 C 0.04638 0.37202 0.73356
 C830 C 0.04500 0.36830 0.71043
 N831 N 0.10327 0.39736 0.73952
 N832 N 0.10425 0.40100 0.76033
 C833 C 0.12121 0.41428 0.77081
 C834 C 0.11962 0.41771 0.79370
 C835 C 0.13347 0.43327 0.80429
 C836 C 0.14933 0.44564 0.79211
 C837 C 0.15186 0.44126 0.76929
 C838 C 0.13776 0.42573 0.75864
 H839 H 0.06423 0.37004 0.67974
 H840 H 0.09798 0.38521 0.69703
 H841 H 0.06585 0.38362 0.76097
 H842 H 0.03255 0.36809 0.74446
 H843 H 0.10688 0.40900 0.80321
 H844 H 0.13125 0.43614 0.82192
 H845 H 0.16392 0.45061 0.75952
 H846 H 0.13921 0.42337 0.74087
 C847 C 0.04998 0.63119 0.28862
 C848 C 0.06867 0.62420 0.27653
 C849 C 0.06946 0.60251 0.26765
 C850 C 0.05190 0.58748 0.27189
 C851 C 0.03356 0.59415 0.28426
 C852 C 0.03173 0.61638 0.29244
 N853 N 0.08793 0.59574 0.25423
 N854 N 0.08500 0.58066 0.23952
 C855 C 0.10243 0.57150 0.22626
 C856 C 0.09639 0.55901 0.20755
 C857 C 0.11244 0.54754 0.19543
 C858 C 0.13493 0.54797 0.20210
 C859 C 0.14113 0.56104 0.22062
 C860 C 0.12497 0.57289 0.23257
 H861 H 0.04973 0.64854 0.29390
 H862 H 0.08219 0.63596 0.27344
 H863 H 0.05251 0.57035 0.26581
 H864 H 0.02119 0.58133 0.28784
 H865 H 0.07902 0.55773 0.20266
 H866 H 0.10705 0.53758 0.18133
 H867 H 0.15833 0.56168 0.22614
 H868 H 0.12991 0.58232 0.24717
 C869 C 0.96345 0.37192 0.25494
 C870 C 0.94440 0.37838 0.24324
 C871 C 0.92396 0.38036 0.25406
 C872 C 0.92241 0.37462 0.27663
 C873 C 0.94139 0.36779 0.28838
 C874 C 0.96249 0.36702 0.27792
 N875 N 0.90565 0.38989 0.24205
 N876 N 0.88722 0.39506 0.25110
 C877 C 0.87011 0.40629 0.23868
 C878 C 0.85187 0.41543 0.24992
 C879 C 0.83701 0.42972 0.23881
 C880 C 0.84025 0.43499 0.21623
 C881 C 0.85765 0.42447 0.20469
 C882 C 0.87245 0.41030 0.21578
 H883 H 0.97883 0.37052 0.24570
 H884 H 0.94573 0.38255 0.22575
 H885 H 0.90672 0.37608 0.28535
 H886 H 0.93961 0.36467 0.30601
 H887 H 0.84985 0.41247 0.26757
 H888 H 0.82377 0.43756 0.24816
 H889 H 0.86051 0.42800 0.18725
 H890 H 0.88627 0.40329 0.20663
 C891 C 0.94020 0.61935 0.69689
 C892 C 0.92153 0.61192 0.70888
 C893 C 0.92382 0.60446 0.73082
 C894 C 0.94492 0.60525 0.74096
 C895 C 0.96359 0.61220 0.72897
 C896 C 0.96175 0.61879 0.70649
 N897 N 0.90515 0.59441 0.74201
 N898 N 0.90637 0.58952 0.76258
 C899 C 0.88946 0.57735 0.77435
 C900 C 0.89256 0.57377 0.79709
 C901 C 0.87862 0.55908 0.80872
 C902 C 0.86124 0.54758 0.79774
 C903 C 0.85733 0.55213 0.77511
 C904 C 0.87141 0.56691 0.76343
 H905 H 0.93781 0.62395 0.67963
 H906 H 0.90537 0.61133 0.70082
 H907 H 0.94717 0.59979 0.75800
 H908 H 0.97944 0.61260 0.73761
 H909 H 0.90647 0.58167 0.80563
 H910 H 0.88199 0.55611 0.82617
 H911 H 0.84408 0.54352 0.76622
 H912 H 0.86880 0.56938 0.74579
 C913 C 0.74410 0.62651 0.96856
 C914 C 0.75678 0.61762 0.95133
 C915 C 0.74637 0.60802 0.93278
 C916 C 0.72298 0.60871 0.93095
 C917 C 0.71023 0.61785 0.94818
 C918 C 0.72071 0.62611 0.96744
 N919 N 0.75989 0.59590 0.91738
 N920 N 0.75200 0.58518 0.90081
 C921 C 0.76614 0.57180 0.88697
 C922 C 0.75708 0.56080 0.86844
 C923 C 0.77019 0.54624 0.85576
 C924 C 0.79256 0.54229 0.86161
 C925 C 0.80169 0.55371 0.87997
 C926 C 0.78867 0.56835 0.89247
 H927 H 0.75252 0.63286 0.98324
 H928 H 0.77477 0.61718 0.95291
 H929 H 0.71458 0.60138 0.91674
 H930 H 0.69220 0.61725 0.94706
 H931 H 0.73973 0.56321 0.86406
 H932 H 0.76267 0.53768 0.84172
 H933 H 0.81889 0.55116 0.88485
 H934 H 0.79611 0.57656 0.90675
 C935 C 0.31425 0.38635 0.94213
 C936 C 0.30322 0.39408 0.92302
 C937 C 0.28062 0.39968 0.92383
 C938 C 0.26889 0.39654 0.94377
 C939 C 0.27983 0.38919 0.96285
 C940 C 0.30290 0.38463 0.96266
 N941 N 0.27012 0.41000 0.90496
 N942 N 0.24948 0.41477 0.90556
 C943 C 0.23789 0.42664 0.88842
 C944 C 0.21522 0.43070 0.89154
 C945 C 0.20354 0.44433 0.87678
 C946 C 0.21435 0.45421 0.85845
 C947 C 0.23700 0.44944 0.85477
 C948 C 0.24877 0.43578 0.86976
 H949 H 0.33199 0.38331 0.94102
 H950 H 0.31250 0.39641 0.90776
 H951 H 0.25130 0.40036 0.94484
 H952 H 0.26994 0.38689 0.97771
 H953 H 0.20672 0.42377 0.90591
 H954 H 0.18607 0.44747 0.88000
 H955 H 0.24574 0.45682 0.84078
 H956 H 0.26638 0.43289 0.86712
 C957 C 0.30105 0.63005 0.05560
 C958 C 0.29040 0.62103 0.07436
 C959 C 0.26723 0.61778 0.07445
 C960 C 0.25465 0.62496 0.05602
 C961 C 0.26524 0.63393 0.03734
 C962 C 0.28859 0.63588 0.03663
 N963 N 0.25706 0.60541 0.09232
 N964 N 0.23646 0.60008 0.09169
 C965 C 0.22576 0.58635 0.10815
 C966 C 0.20356 0.57999 0.10461
 C967 C 0.19309 0.56462 0.11879
 C968 C 0.20464 0.55543 0.13701
 C969 C 0.22669 0.56255 0.14114
 C970 C 0.23725 0.57782 0.12673
 H971 H 0.31908 0.63129 0.05546
 H972 H 0.30031 0.61558 0.08843
 H973 H 0.23670 0.62285 0.05569
 H974 H 0.25521 0.63863 0.02308
 H975 H 0.19456 0.58642 0.09033
 H976 H 0.17606 0.55960 0.11522
 H977 H 0.23601 0.55572 0.15502
 H978 H 0.25447 0.58250 0.12977
 C979 C 0.69381 0.41161 0.03477
 C980 C 0.70250 0.42335 0.05287
 C981 C 0.70674 0.41226 0.07293
 C982 C 0.70079 0.38945 0.07524
 C983 C 0.69211 0.37758 0.05703
 C984 C 0.68939 0.38841 0.03639
 N985 N 0.71961 0.42387 0.08938
 N986 N 0.72324 0.41629 0.10885
 C987 C 0.73830 0.42797 0.12339
 C988 C 0.73709 0.42468 0.14643
 C989 C 0.75190 0.43606 0.16065
 C990 C 0.76852 0.45030 0.15185
 C991 C 0.76992 0.45315 0.12873
 C992 C 0.75487 0.44228 0.11467
 H993 H 0.69155 0.42041 0.01914
 H994 H 0.70701 0.44093 0.05093
 H995 H 0.70405 0.38054 0.09062
 H996 H 0.68893 0.35969 0.05866
 H997 H 0.72451 0.41356 0.15336
 H998 H 0.75051 0.43358 0.17843
 H999 H 0.78244 0.46415 0.12150
 H1000 H 0.75635 0.44486 0.09691
 C1001 C 0.94103 0.68445 0.60362
 C1002 C 0.92195 0.69464 0.59465
 C1003 C 0.91925 0.71804 0.59587
 C1004 C 0.93555 0.73105 0.60682
 C1005 C 0.95456 0.72097 0.61559
 C1006 C 0.95773 0.69766 0.61370
 N1007 N 0.90083 0.72853 0.58472
 N1008 N 0.89860 0.74982 0.58517
 C1009 C 0.88173 0.76178 0.57323
 C1010 C 0.88250 0.78528 0.57359
 C1011 C 0.86834 0.79785 0.56005
 C1012 C 0.85288 0.78707 0.54602
 C1013 C 0.85123 0.76343 0.54652
 C1014 C 0.86570 0.75081 0.55994
 H1015 H 0.94313 0.66644 0.60197
 H1016 H 0.90957 0.68439 0.58624
 H1017 H 0.93392 0.74914 0.60813
 H1018 H 0.96701 0.73147 0.62361
 H1019 H 0.89479 0.79389 0.58376
 H1020 H 0.86990 0.81602 0.56013
 H1021 H 0.83952 0.75471 0.53579
 H1022 H 0.86483 0.73262 0.55942
 C1023 C 0.93963 0.31721 0.38635
 C1024 C 0.91930 0.30948 0.39514
 C1025 C 0.91439 0.28637 0.39580
 C1026 C 0.92997 0.27109 0.38728
 C1027 C 0.95027 0.27874 0.37879
 C1028 C 0.95544 0.30182 0.37846
 N1029 N 0.89433 0.27851 0.40636
 N1030 N 0.88901 0.25773 0.40587
 C1031 C 0.87045 0.24819 0.41758
 C1032 C 0.86763 0.22483 0.41694
 C1033 C 0.85240 0.21416 0.43100
 C1034 C 0.83946 0.22676 0.44582
 C1035 C 0.84107 0.25039 0.44533
 C1036 C 0.85663 0.26108 0.43138
 H1037 H 0.94326 0.33509 0.38626
 H1038 H 0.90753 0.32146 0.40174
 H1039 H 0.92671 0.25315 0.38760
 H1040 H 0.96202 0.26656 0.37250
 H1041 H 0.87818 0.21474 0.40638
 H1042 H 0.85146 0.19595 0.43100
 H1043 H 0.83143 0.26046 0.45674
 H1044 H 0.85856 0.27919 0.43214
 C1045 C 0.06196 0.29020 0.62547
 C1046 C 0.07985 0.27792 0.61696
 C1047 C 0.07675 0.25564 0.61000
 C1048 C 0.05575 0.24534 0.61277
 C1049 C 0.03787 0.25761 0.62113
 C1050 C 0.04063 0.28034 0.62695
 N1051 N 0.09434 0.24453 0.59831
 N1052 N 0.09193 0.22453 0.59114
 C1053 C 0.10824 0.21352 0.57773
 C1054 C 0.10374 0.19163 0.57047
 C1055 C 0.11774 0.18120 0.55519
 C1056 C 0.13662 0.19255 0.54684
 C1057 C 0.14165 0.21424 0.55486
 C1058 C 0.12754 0.22468 0.57017
 H1059 H 0.06448 0.30774 0.62970
 H1060 H 0.09592 0.28608 0.61488
 H1061 H 0.05289 0.22812 0.60763
 H1062 H 0.02165 0.24956 0.62234
 H1063 H 0.08888 0.18289 0.57613
 H1064 H 0.11341 0.16447 0.54946
 H1065 H 0.15606 0.22342 0.54875
 H1066 H 0.13132 0.24167 0.57550
 C1067 C 0.05180 0.69139 0.38351
 C1068 C 0.07082 0.70119 0.39323
 C1069 C 0.07193 0.72444 0.39685
 C1070 C 0.05402 0.73789 0.39004
 C1071 C 0.03505 0.72824 0.38062
 C1072 C 0.03323 0.70472 0.37760
 N1073 N 0.09063 0.73412 0.40841
 N1074 N 0.09154 0.75526 0.41174
 C1075 C 0.10867 0.76637 0.42421
 C1076 C 0.10674 0.78954 0.42743
 C1077 C 0.12158 0.80097 0.44129
 C1078 C 0.13885 0.78939 0.45214
 C1079 C 0.14139 0.76620 0.44819
 C1080 C 0.12629 0.75469 0.43438
 H1081 H 0.05133 0.67327 0.38193
 H1082 H 0.08450 0.69057 0.39844
 H1083 H 0.05447 0.75597 0.39228
 H1084 H 0.02201 0.73954 0.37523
 H1085 H 0.09321 0.79868 0.41967
 H1086 H 0.11927 0.81884 0.44384
 H1087 H 0.15452 0.75685 0.45637
 H1088 H 0.12803 0.73672 0.43211
 C1089 C 0.63596 0.94189 0.69882
 C1090 C 0.62916 0.92193 0.70940
 C1091 C 0.62053 0.92243 0.73098
 C1092 C 0.61954 0.94309 0.74220
 C1093 C 0.62580 0.96301 0.73157
 C1094 C 0.63350 0.96294 0.70942
 N1095 N 0.61107 0.90242 0.74062
 N1096 N 0.60569 0.90201 0.76107
 C1097 C 0.59385 0.88386 0.77149
 C1098 C 0.58972 0.88547 0.79425
 C1099 C 0.57484 0.87071 0.80457
 C1100 C 0.56374 0.85394 0.79227
 C1101 C 0.56903 0.85129 0.76966
 C1102 C 0.58397 0.86625 0.75927
 H1103 H 0.64152 0.94084 0.68176
 H1104 H 0.62997 0.90614 0.70051
 H1105 H 0.61314 0.94400 0.75898
 H1106 H 0.62471 0.97847 0.74097
 H1107 H 0.59719 0.89899 0.80381
 H1108 H 0.57127 0.87307 0.82205
 H1109 H 0.56066 0.83857 0.75977
 H1110 H 0.58686 0.86479 0.74158
 C1111 C 0.37798 0.93703 0.30118
 C1112 C 0.38723 0.91729 0.29254
 C1113 C 0.40605 0.91840 0.27895
 C1114 C 0.41663 0.93921 0.27554
 C1115 C 0.40781 0.95882 0.28448
 C1116 C 0.38764 0.95841 0.29662
 N1117 N 0.41384 0.89872 0.26776
 N1118 N 0.42251 0.90086 0.24858
 C1119 C 0.43214 0.88290 0.23619
 C1120 C 0.43761 0.88711 0.21404
 C1121 C 0.45004 0.87167 0.20201
 C1122 C 0.45754 0.85170 0.21206
 C1123 C 0.45089 0.84678 0.23398
 C1124 C 0.43821 0.86233 0.24602
 H1125 H 0.36242 0.93534 0.31007
 H1126 H 0.37898 0.90128 0.29542
 H1127 H 0.43173 0.94031 0.26574
 H1128 H 0.41715 0.97420 0.28179
 H1129 H 0.43299 0.90291 0.20632
 H1130 H 0.45471 0.87595 0.18514
 H1131 H 0.45651 0.83159 0.24218
 H1132 H 0.43418 0.85883 0.26323
 C1133 C 0.57792 0.04044 0.30928
 C1134 C 0.56913 0.05842 0.29740
 C1135 C 0.58271 0.07629 0.29081
 C1136 C 0.60525 0.07663 0.29714
 C1137 C 0.61429 0.05839 0.30892
 C1138 C 0.60092 0.03944 0.31443
 N1139 N 0.57340 0.09251 0.27597
 N1140 N 0.58192 0.11172 0.27182
 C1141 C 0.57150 0.12564 0.25539
 C1142 C 0.57103 0.14906 0.25794
 C1143 C 0.55860 0.16233 0.24315
 C1144 C 0.54702 0.15229 0.22532
 C1145 C 0.54864 0.12895 0.22221
 C1146 C 0.56058 0.11576 0.23717
 H1147 H 0.56640 0.02734 0.31441
 H1148 H 0.55163 0.05821 0.29289
 H1149 H 0.61605 0.09035 0.29202
 H1150 H 0.63203 0.05867 0.31216
 H1151 H 0.57945 0.15689 0.27189
 H1152 H 0.55771 0.18032 0.24587
 H1153 H 0.53995 0.12068 0.20867
 H1154 H 0.56099 0.09772 0.23474
 C1155 C 0.36419 0.05743 0.70467
 C1156 C 0.36876 0.07765 0.71585
 C1157 C 0.39060 0.08278 0.72248
 C1158 C 0.40797 0.06831 0.71675
 C1159 C 0.40357 0.04856 0.70513
 C1160 C 0.38156 0.04242 0.69955
 N1161 N 0.39529 0.10190 0.73608
 N1162 N 0.40648 0.09888 0.75381
 C1163 C 0.41486 0.11664 0.76748
 C1164 C 0.42150 0.11124 0.78908
 C1165 C 0.43446 0.12624 0.80139
 C1166 C 0.44147 0.14682 0.79206
 C1167 C 0.43341 0.15297 0.77092
 C1168 C 0.42007 0.13796 0.75870
 H1169 H 0.34703 0.05326 0.70075
 H1170 H 0.35521 0.08874 0.72022
 H1171 H 0.42498 0.07231 0.72147
 H1172 H 0.41749 0.03794 0.70076
 H1173 H 0.41768 0.09478 0.79593
 H1174 H 0.44022 0.12098 0.81766
 H1175 H 0.43853 0.16870 0.76328
 H1176 H 0.41527 0.14231 0.74187
 C1177 C 0.62673 0.69434 0.06733
 C1178 C 0.61769 0.70376 0.08658
 C1179 C 0.61557 0.72713 0.08850
 C1180 C 0.62347 0.74108 0.07126
 C1181 C 0.63229 0.73170 0.05198
 C1182 C 0.63354 0.70824 0.04962
 N1183 N 0.60360 0.73627 0.10695
 N1184 N 0.60152 0.75743 0.10926
 C1185 C 0.58799 0.76744 0.12605
 C1186 C 0.58635 0.79087 0.12636
 C1187 C 0.57083 0.80135 0.14000
 C1188 C 0.55665 0.78851 0.15372
 C1189 C 0.55919 0.76500 0.15439
 C1190 C 0.57471 0.75449 0.14055
 H1191 H 0.62742 0.67620 0.06582
 H1192 H 0.61160 0.69282 0.09968
 H1193 H 0.62205 0.75920 0.07229
 H1194 H 0.63763 0.74276 0.03864
 H1195 H 0.59648 0.80100 0.11524
 H1196 H 0.56941 0.81950 0.13923
 H1197 H 0.54846 0.75470 0.16477
 H1198 H 0.57569 0.73630 0.14053
 C1199 C 0.39641 0.31693 0.06372
 C1200 C 0.40430 0.30574 0.08265
 C1201 C 0.40758 0.28243 0.08231
 C1202 C 0.40200 0.27025 0.06305
 C1203 C 0.39423 0.28141 0.04415
 C1204 C 0.39186 0.30490 0.04413
 N1205 N 0.41808 0.27168 0.10092
 N1206 N 0.42199 0.25066 0.10080
 C1207 C 0.43384 0.23937 0.11817
 C1208 C 0.43804 0.21642 0.11572
 C1209 C 0.45158 0.20515 0.13092
 C1210 C 0.46115 0.21668 0.14899
 C1211 C 0.45618 0.23958 0.15198
 C1212 C 0.44267 0.25091 0.13660
 H1213 H 0.39476 0.33507 0.06408
 H1214 H 0.40857 0.31533 0.09736
 H1215 H 0.40426 0.25221 0.06234
 H1216 H 0.39049 0.27171 0.02937
 H1217 H 0.43134 0.20739 0.10156
 H1218 H 0.45494 0.18748 0.12821
 H1219 H 0.46332 0.24890 0.16573
 H1220 H 0.43965 0.26870 0.13879
 C1221 C 0.62701 0.29699 0.93092
 C1222 C 0.61913 0.28747 0.91106
 C1223 C 0.59783 0.27770 0.91025
 C1224 C 0.58385 0.27910 0.92881
 C1225 C 0.59143 0.28903 0.94836
 C1226 C 0.61342 0.29725 0.95000
 N1227 N 0.59082 0.26501 0.89130
 N1228 N 0.58126 0.24612 0.89455
 C1229 C 0.57153 0.23264 0.87743
 C1230 C 0.56591 0.21040 0.88263
 C1231 C 0.55258 0.19776 0.86831
 C1232 C 0.54425 0.20733 0.84859
 C1233 C 0.55114 0.22923 0.84263
 C1234 C 0.56479 0.24183 0.85697
 H1235 H 0.64404 0.30313 0.93161
 H1236 H 0.63004 0.28655 0.89679
 H1237 H 0.56716 0.27203 0.92825
 H1238 H 0.58024 0.28966 0.96244
 H1239 H 0.57099 0.20322 0.89840
 H1240 H 0.54773 0.18093 0.87339
 H1241 H 0.54497 0.23706 0.82757
 H1242 H 0.56886 0.25910 0.85277
 C1243 C 0.38275 0.70144 0.93208
 C1244 C 0.39256 0.71080 0.91304
 C1245 C 0.39619 0.73408 0.91150
 C1246 C 0.38888 0.74803 0.92883
 C1247 C 0.37930 0.73870 0.94788
 C1248 C 0.37668 0.71529 0.94994
 N1249 N 0.40911 0.74301 0.89342
 N1250 N 0.41277 0.76407 0.89170
 C1251 C 0.42722 0.77387 0.87537
 C1252 C 0.43038 0.79717 0.87571
 C1253 C 0.44665 0.80730 0.86245
 C1254 C 0.46008 0.79424 0.84845
 C1255 C 0.45610 0.77091 0.84718
 C1256 C 0.43982 0.76074 0.86066
 H1257 H 0.38101 0.68333 0.93337
 H1258 H 0.39815 0.69984 0.89986
 H1259 H 0.39142 0.76608 0.92810
 H1260 H 0.37459 0.74972 0.96137
 H1261 H 0.42080 0.80744 0.88701
 H1262 H 0.44916 0.82532 0.86369
 H1263 H 0.46623 0.76043 0.83658
 H1264 H 0.43769 0.74264 0.86019
 C1265 C 0.69231 0.93893 0.38389
 C1266 C 0.70396 0.92003 0.39134
 C1267 C 0.72710 0.92108 0.39435
 C1268 C 0.73870 0.94083 0.38836
 C1269 C 0.72709 0.95970 0.38093
 C1270 C 0.70371 0.95919 0.37938
 N1271 N 0.73807 0.90302 0.40568
 N1272 N 0.75863 0.90436 0.41082
 C1273 C 0.76975 0.88770 0.42391
 C1274 C 0.79195 0.89163 0.42990
 C1275 C 0.80267 0.87740 0.44491
 C1276 C 0.79134 0.85882 0.45416
 C1277 C 0.76929 0.85431 0.44740
 C1278 C 0.75850 0.86873 0.43244
 H1279 H 0.67428 0.93812 0.38298
 H1280 H 0.69483 0.90494 0.39593
 H1281 H 0.75661 0.94203 0.39036
 H1282 H 0.73631 0.97499 0.37723
 H1283 H 0.80074 0.90624 0.42348
 H1284 H 0.81972 0.88123 0.44963
 H1285 H 0.76015 0.84012 0.45423
 H1286 H 0.74127 0.86541 0.42807
 C1287 C 0.31226 0.93044 0.61420
 C1288 C 0.30117 0.91164 0.60536
 C1289 C 0.27781 0.91086 0.60473
 C1290 C 0.26565 0.92830 0.61468
 C1291 C 0.27668 0.94703 0.62341
 C1292 C 0.30001 0.94866 0.62243
 N1293 N 0.26677 0.89388 0.59176
 N1294 N 0.24586 0.89487 0.58824
 C1295 C 0.23398 0.87977 0.57394
 C1296 C 0.21138 0.88387 0.57012
 C1297 C 0.19952 0.87129 0.55450
 C1298 C 0.21005 0.85415 0.54246
 C1299 C 0.23261 0.84945 0.54687
 C1300 C 0.24457 0.86230 0.56243
 H1301 H 0.33027 0.93145 0.61320
 H1302 H 0.31074 0.89833 0.59778
 H1303 H 0.24760 0.92806 0.61465
 H1304 H 0.26693 0.96084 0.62985
 H1305 H 0.20309 0.89735 0.57884
 H1306 H 0.18212 0.87519 0.55166
 H1307 H 0.24114 0.83633 0.53786
 H1308 H 0.26210 0.85892 0.56509
 C1309 C 0.30594 0.05587 0.38385
 C1310 C 0.29556 0.07449 0.39358
 C1311 C 0.27233 0.07684 0.39246
 C1312 C 0.25967 0.06082 0.38067
 C1313 C 0.26995 0.04227 0.37112
 C1314 C 0.29308 0.03931 0.37306
 N1315 N 0.26166 0.09436 0.40478
 N1316 N 0.24049 0.09576 0.40515
 C1317 C 0.22860 0.11159 0.41841
 C1318 C 0.20539 0.10960 0.41938
 C1319 C 0.19320 0.12247 0.43434
 C1320 C 0.20406 0.13785 0.44844
 C1321 C 0.22728 0.14081 0.44659
 C1322 C 0.23954 0.12762 0.43177
 H1323 H 0.32380 0.05392 0.38556
 H1324 H 0.30553 0.08667 0.40264
 H1325 H 0.24172 0.06223 0.37941
 H1326 H 0.25973 0.02992 0.36256
 H1327 H 0.19681 0.09729 0.40916
 H1328 H 0.17532 0.11993 0.43530
 H1329 H 0.23606 0.15249 0.45735
 H1330 H 0.25751 0.12942 0.43127
 C1331 C 0.69567 0.07097 0.61820
 C1332 C 0.70397 0.09112 0.60922
 C1333 C 0.72700 0.09470 0.60730
 C1334 C 0.74170 0.07824 0.61543
 C1335 C 0.73345 0.05810 0.62425
 C1336 C 0.71038 0.05402 0.62523
 N1337 N 0.73510 0.11402 0.59535
 N1338 N 0.75592 0.11740 0.59278
 C1339 C 0.76495 0.13515 0.57933
 C1340 C 0.78804 0.13601 0.57638
 C1341 C 0.79747 0.15063 0.56081
 C1342 C 0.78392 0.16488 0.54797
 C1343 C 0.76081 0.16505 0.55190
 C1344 C 0.75133 0.15015 0.56740
 H1345 H 0.67781 0.06819 0.61867
 H1346 H 0.69244 0.10361 0.60297
 H1347 H 0.75958 0.08056 0.61423
 H1348 H 0.74514 0.04544 0.62983
 H1349 H 0.79869 0.12452 0.58546
 H1350 H 0.81534 0.15023 0.55827
 H1351 H 0.74999 0.17579 0.54216
 H1352 H 0.73339 0.14974 0.56940
 C1353 C 0.93118 0.61561 0.30620
 C1354 C 0.91224 0.60457 0.29777
 C1355 C 0.91352 0.58211 0.29092
 C1356 C 0.93340 0.57022 0.29437
 C1357 C 0.95214 0.58106 0.30309
 C1358 C 0.95156 0.60413 0.30818
 N1359 N 0.89537 0.57217 0.27878
 N1360 N 0.89909 0.55606 0.26544
 C1361 C 0.88226 0.54529 0.25227
 C1362 C 0.88916 0.53156 0.23484
 C1363 C 0.87356 0.52068 0.22138
 C1364 C 0.85062 0.52297 0.22541
 C1365 C 0.84361 0.53664 0.24310
 C1366 C 0.85936 0.54796 0.25635
 H1367 H 0.93019 0.63340 0.30992
 H1368 H 0.89699 0.61392 0.29528
 H1369 H 0.93465 0.55270 0.28964
 H1370 H 0.96741 0.57159 0.30500
 H1371 H 0.90678 0.52937 0.23160
 H1372 H 0.87949 0.51008 0.20805
 H1373 H 0.82602 0.53863 0.24660
 H1374 H 0.85371 0.55847 0.26985
 C1375 C 0.94351 0.36080 0.71356
 C1376 C 0.92531 0.37085 0.72426
 C1377 C 0.92658 0.39339 0.73107
 C1378 C 0.94559 0.40617 0.72572
 C1379 C 0.96347 0.39634 0.71481
 C1380 C 0.96304 0.37335 0.70932
 N1381 N 0.90915 0.40299 0.74422
 N1382 N 0.91378 0.41908 0.75743
 C1383 C 0.89777 0.43054 0.77076
 C1384 C 0.90567 0.44398 0.78813
 C1385 C 0.89100 0.45672 0.80080
 C1386 C 0.86806 0.45664 0.79600
 C1387 C 0.86003 0.44296 0.77861
 C1388 C 0.87479 0.42980 0.76616
 H1389 H 0.94266 0.34308 0.70945
 H1390 H 0.91067 0.36082 0.72812
 H1391 H 0.94675 0.42376 0.73030
 H1392 H 0.97794 0.40668 0.71110
 H1393 H 0.92337 0.44477 0.79171
 H1394 H 0.89775 0.46717 0.81395
 H1395 H 0.84243 0.44258 0.77455
 H1396 H 0.86839 0.41964 0.75264
 C1397 C 0.06184 0.61627 0.69118
 C1398 C 0.08097 0.60670 0.70066
 C1399 C 0.07984 0.58535 0.71052
 C1400 C 0.05993 0.57285 0.70906
 C1401 C 0.04101 0.58218 0.69928
 C1402 C 0.04143 0.60439 0.69114
 N1403 N 0.09814 0.57733 0.72366
 N1404 N 0.09423 0.56425 0.74000
 C1405 C 0.11095 0.55515 0.75436
 C1406 C 0.10393 0.54541 0.77429
 C1407 C 0.11921 0.53538 0.78860
 C1408 C 0.14196 0.53448 0.78306
 C1409 C 0.14914 0.54451 0.76306
 C1410 C 0.13372 0.55499 0.74883
 H1411 H 0.06273 0.63342 0.68508
 H1412 H 0.09624 0.61649 0.70158
 H1413 H 0.05881 0.55610 0.71614
 H1414 H 0.02577 0.57230 0.69888
 H1415 H 0.08642 0.54542 0.77867
 H1416 H 0.11302 0.52770 0.80374
 H1417 H 0.16654 0.54399 0.75831
 H1418 H 0.13944 0.56239 0.73338
 C1419 C 0.05742 0.39154 0.30230
 C1420 C 0.07616 0.40267 0.29348
 C1421 C 0.08137 0.40071 0.27085
 C1422 C 0.06813 0.38669 0.25734
 C1423 C 0.04947 0.37571 0.26607
 C1424 C 0.04358 0.37844 0.28848
 N1425 N 0.09899 0.41421 0.26149
 N1426 N 0.10287 0.41378 0.24070
 C1427 C 0.11903 0.42781 0.22980
 C1428 C 0.11987 0.42726 0.20660
 C1429 C 0.13333 0.44240 0.19492
 C1430 C 0.14652 0.45828 0.20629
 C1431 C 0.14660 0.45810 0.22968
 C1432 C 0.13278 0.44306 0.24141
 H1433 H 0.05320 0.39396 0.31961
 H1434 H 0.08617 0.41342 0.30410
 H1435 H 0.07178 0.38470 0.23985
 H1436 H 0.03927 0.36544 0.25514
 H1437 H 0.10935 0.41559 0.19749
 H1438 H 0.13302 0.44204 0.17692
 H1439 H 0.15653 0.47024 0.23884
 H1440 H 0.13239 0.44376 0.25938
   
