data_POSCAR
  _audit_creation_date              2014-09-24
  _audit_creation_method            'ToBaCCo'
  _symmetry_space_group_name_H-M    'P1'
  _symmetry_Int_Tables_number       1
  _symmetry_cell_setting            triclinic
  loop_
  _symmetry_equiv_pos_as_xyz
 x,y,z
_cell_length_a 71.1615
_cell_length_b 71.1478
_cell_length_c 71.2339
_cell_angle_alpha 90.015700
_cell_angle_beta 90.013500
_cell_angle_gamma 90.016000
loop_
  _atom_site_label
  _atom_site_type_symbol
  _atom_site_fract_x
  _atom_site_fract_y
  _atom_site_fract_z
C1 C 0.35966 0.33638 0.33681
 N2 N 0.35183 0.35191 0.32899
 C3 C 0.33630 0.35973 0.33680
 N4 N 0.32850 0.35193 0.35233
 C5 C 0.33633 0.33640 0.36016
 N6 N 0.35186 0.32858 0.35234
 C7 C 0.36008 0.83652 -0.16386
 N8 N 0.35231 0.82872 -0.14831
 C9 C 0.33677 0.83651 -0.14048
 N10 N 0.32890 0.85201 -0.14831
 C11 C 0.33665 0.85981 -0.16387
 N12 N 0.35220 0.85202 -0.17169
 C13 C 0.85952 0.33696 -0.16386
 N14 N 0.85171 0.32918 -0.14832
 C15 C 0.83620 0.33703 -0.14050
 N16 N 0.82839 0.35257 -0.14832
 C17 C 0.83619 0.36035 -0.16387
 N18 N 0.85171 0.35250 -0.17168
 C19 C 0.86036 0.83622 0.33649
 N20 N 0.85254 0.85176 0.32868
 C21 C 0.83704 0.85962 0.33651
 N22 N 0.82926 0.85184 0.35207
 C23 C 0.83707 0.83630 0.35988
 N24 N 0.85257 0.82845 0.35204
 C25 C 0.64018 0.66351 0.33667
 N26 N 0.64800 0.64798 0.32884
 C27 C 0.66353 0.64015 0.33665
 N28 N 0.67134 0.64795 0.35219
 C29 C 0.66352 0.66348 0.36002
 N30 N 0.64799 0.67130 0.35221
 C31 C 0.63994 0.16348 -0.16394
 N32 N 0.64782 0.14798 -0.17177
 C33 C 0.66339 0.14021 -0.16396
 N34 N 0.67116 0.14803 -0.14842
 C35 C 0.66328 0.16353 -0.14058
 N36 N 0.64772 0.17130 -0.14839
 C37 C 0.14054 0.66305 -0.16375
 N38 N 0.14834 0.64749 -0.17156
 C39 C 0.16385 0.63964 -0.16374
 N40 N 0.17167 0.64744 -0.14820
 C41 C 0.16387 0.66299 -0.14039
 N42 N 0.14836 0.67084 -0.14821
 C43 C 0.14014 0.16363 0.33594
 N44 N 0.14799 0.14812 0.32810
 C45 C 0.16348 0.14025 0.33595
 N46 N 0.17122 0.14799 0.35156
 C47 C 0.16338 0.16350 0.35941
 N48 N 0.14789 0.17137 0.35155
 C49 C 0.64012 0.33624 0.66335
 N50 N 0.64793 0.32844 0.64781
 C51 C 0.66345 0.33629 0.63999
 N52 N 0.67125 0.35184 0.64781
 C53 C 0.66345 0.35963 0.66334
 N54 N 0.64793 0.35178 0.67116
 C55 C 0.63958 0.83622 1.16370
 N56 N 0.64736 0.82840 1.14815
 C57 C 0.66289 0.83621 1.14032
 N58 N 0.67073 0.85174 1.14812
 C59 C 0.66296 0.85957 1.16366
 N60 N 0.64743 0.85175 1.17150
 C61 C 0.14024 0.33664 1.16383
 N62 N 0.14805 0.32885 1.14829
 C63 C 0.16357 0.33670 1.14047
 N64 N 0.17137 0.35225 1.14828
 C65 C 0.16356 0.36005 1.16382
 N66 N 0.14805 0.35220 1.17163
 C67 C 0.14007 0.83644 0.66387
 N68 N 0.14784 0.82868 0.64829
 C69 C 0.16337 0.83650 0.64048
 N70 N 0.17124 0.85200 0.64834
 C71 C 0.16348 0.85976 0.66392
 N72 N 0.14795 0.85193 0.67173
 C73 C 0.35968 0.66354 0.66341
 N74 N 0.35188 0.64800 0.67122
 C75 C 0.33636 0.64014 0.66340
 N76 N 0.32855 0.64793 0.64786
 C77 C 0.33635 0.66347 0.64004
 N78 N 0.35187 0.67132 0.64787
 C79 C 0.35999 0.16352 1.16405
 N80 N 0.35221 0.17131 1.14850
 C81 C 0.33666 0.16350 1.14068
 N82 N 0.32880 0.14800 1.14852
 C83 C 0.33657 0.14020 1.16407
 N84 N 0.35212 0.14802 1.17188
 C85 C 0.85943 0.66308 1.16358
 N86 N 0.85162 0.64754 1.17140
 C87 C 0.83609 0.63969 1.16359
 N88 N 0.82827 0.64749 1.14806
 C89 C 0.83608 0.66303 1.14024
 N90 N 0.85161 0.67087 1.14805
 C91 C 0.85993 0.16352 0.66380
 N92 N 0.85217 0.17128 0.64822
 C93 C 0.83663 0.16346 0.64040
 N94 N 0.82876 0.14797 0.64825
 C95 C 0.83651 0.14020 0.66382
 N96 N 0.85205 0.14802 0.67165
 C97 C 0.33639 0.35947 0.66385
 N98 N 0.32857 0.35165 0.64833
 C99 C 0.33638 0.33610 0.64053
 N100 N 0.35191 0.32828 0.64834
 C101 C 0.35973 0.33610 0.66386
 N102 N 0.35193 0.35165 0.67166
 C103 C 0.33652 0.86050 0.16335
 N104 N 0.32870 0.85268 0.14783
 C105 C 0.33650 0.83713 0.14001
 N106 N 0.35204 0.82931 0.14782
 C107 C 0.35986 0.83713 0.16335
 N108 N 0.35206 0.85267 0.17116
 C109 C 0.83710 0.35987 0.16315
 N110 N 0.82927 0.35204 0.14764
 C111 C 0.83709 0.33650 0.13982
 N112 N 0.85265 0.32870 0.14761
 C113 C 0.86048 0.33654 0.16313
 N114 N 0.85266 0.35207 0.17094
 C115 C 0.83682 0.86061 0.66358
 N116 N 0.82900 0.85276 0.64807
 C117 C 0.83681 0.83722 0.64027
 N118 N 0.85236 0.82942 0.64807
 C119 C 0.86019 0.83726 0.66358
 N120 N 0.85237 0.85280 0.67138
 C121 C 0.66342 0.64037 0.66378
 N122 N 0.67124 0.64819 0.64825
 C123 C 0.66343 0.66374 0.64045
 N124 N 0.64790 0.67156 0.64827
 C125 C 0.64009 0.66375 0.66380
 N126 N 0.64790 0.64820 0.67159
 C127 C 0.66339 0.13990 0.16316
 N128 N 0.64783 0.14769 0.17095
 C129 C 0.63999 0.16321 0.16312
 N130 N 0.64781 0.17103 0.14760
 C131 C 0.66336 0.16324 0.13981
 N132 N 0.67120 0.14772 0.14764
 C133 C 0.16315 0.64014 0.16318
 N134 N 0.17098 0.64797 0.14767
 C135 C 0.16320 0.66353 0.13988
 N136 N 0.14768 0.67136 0.14769
 C137 C 0.13984 0.66354 0.16320
 N138 N 0.14762 0.64798 0.17099
 C139 C 0.16312 0.13921 0.66353
 N140 N 0.17093 0.14703 0.64801
 C141 C 0.16311 0.16256 0.64019
 N142 N 0.14757 0.17037 0.64799
 C143 C 0.13975 0.16256 0.66351
 N144 N 0.14757 0.14703 0.67133
 C145 C 0.33629 0.64020 0.33633
 N146 N 0.35183 0.64801 0.32853
 C147 C 0.35965 0.66356 0.33634
 N148 N 0.35183 0.67138 0.35186
 C149 C 0.33629 0.66356 0.35967
 N150 N 0.32848 0.64802 0.35186
 C151 C 0.33654 0.13939 0.83695
 N152 N 0.32871 0.14722 0.85246
 C153 C 0.33653 0.16277 0.86027
 N154 N 0.35208 0.17058 0.85248
 C155 C 0.35991 0.16274 0.83697
 N156 N 0.35209 0.14720 0.82916
 C157 C 0.83688 0.64031 0.83656
 N158 N 0.85240 0.64815 0.82875
 C159 C 0.86021 0.66370 0.83655
 N160 N 0.85239 0.67153 0.85207
 C161 C 0.83686 0.66370 0.85988
 N162 N 0.82906 0.64814 0.85208
 C163 C 0.83727 0.14003 0.33638
 N164 N 0.85281 0.14784 0.32857
 C165 C 0.86064 0.16338 0.33639
 N166 N 0.85284 0.17119 0.35192
 C167 C 0.83730 0.16338 0.35973
 N168 N 0.82947 0.14784 0.35191
 C169 C 0.66357 0.35969 0.33631
 N170 N 0.64801 0.35188 0.32851
 C171 C 0.64019 0.33634 0.33632
 N172 N 0.64802 0.32853 0.35184
 C173 C 0.66357 0.33634 0.35964
 N174 N 0.67139 0.35188 0.35182
 C175 C 0.66346 0.86063 0.83672
 N176 N 0.64791 0.85283 0.82892
 C177 C 0.64008 0.83728 0.83671
 N178 N 0.64791 0.82945 0.85222
 C179 C 0.66347 0.83724 0.86002
 N180 N 0.67129 0.85279 0.85222
 C181 C 0.16313 0.35959 0.83679
 N182 N 0.17095 0.35177 0.85231
 C183 C 0.16314 0.33621 0.86009
 N184 N 0.14762 0.32838 0.85226
 C185 C 0.13980 0.33620 0.83674
 N186 N 0.14761 0.35176 0.82896
 C187 C 0.16323 0.86053 0.33650
 N188 N 0.14770 0.85270 0.32868
 C189 C 0.13989 0.83715 0.33649
 N190 N 0.14771 0.82934 0.35201
 C191 C 0.16324 0.83717 0.35982
 N192 N 0.17105 0.85272 0.35202
 O193 O 0.27383 0.98251 0.24807
 O194 O 0.24797 1.01919 0.27383
 O195 O 0.24796 0.98252 0.27383
 O196 O 0.27386 1.01918 0.24810
 O197 O 0.25193 1.01919 0.22609
 O198 O 0.22602 0.98253 0.25183
 O199 O 0.22603 1.01920 0.25183
 O200 O 0.25190 0.98252 0.22607
 Cu201 Cu 0.26312 1.00085 0.26318
 Cu202 Cu 0.23676 1.00086 0.23674
 C203 C 0.26718 0.97627 0.23276
 C204 C 0.23268 1.02545 0.26714
 C205 C 0.23267 0.97627 0.26713
 C206 C 0.26723 1.02544 0.23280
 O207 O 0.27367 0.48160 0.74833
 O208 O 0.24788 0.51831 0.77410
 O209 O 0.24786 0.48164 0.77414
 O210 O 0.27368 0.51827 0.74827
 O211 O 0.25168 0.51823 0.72633
 O212 O 0.22586 0.48161 0.75221
 O213 O 0.22588 0.51828 0.75217
 O214 O 0.25168 0.48157 0.72639
 Cu215 Cu 0.26299 0.49996 0.76343
 Cu216 Cu 0.23655 0.49992 0.73706
 C217 C 0.26698 0.47533 0.73305
 C218 C 0.23257 0.52456 0.76744
 C219 C 0.23255 0.47538 0.76749
 C220 C 0.26699 0.52450 0.73298
 O221 O 0.72632 0.01816 0.24803
 O222 O 0.75218 -0.01849 0.27383
 O223 O 0.75223 0.01818 0.27377
 O224 O 0.72626 -0.01850 0.24810
 O225 O 0.74817 -0.01857 0.22608
 O226 O 0.77414 0.01811 0.25176
 O227 O 0.77409 -0.01856 0.25181
 O228 O 0.74823 0.01809 0.22602
 Cu229 Cu 0.73703 -0.00016 0.26315
 Cu230 Cu 0.76337 -0.00024 0.23670
 C231 C 0.73296 0.02437 0.23271
 C232 C 0.76745 -0.02477 0.26713
 C233 C 0.76752 0.02440 0.26706
 C234 C 0.73287 -0.02479 0.23280
 O235 O 0.77403 0.51825 0.75201
 O236 O 0.74816 0.48161 0.72619
 O237 O 0.74817 0.51827 0.72623
 O238 O 0.77401 0.48158 0.75199
 O239 O 0.75205 0.48157 0.77395
 O240 O 0.72621 0.51826 0.74820
 O241 O 0.72620 0.48159 0.74815
 O242 O 0.75208 0.51824 0.77398
 Cu243 Cu 0.76331 0.49993 0.73689
 Cu244 Cu 0.73692 0.49992 0.76329
 C245 C 0.76737 0.52450 0.76731
 C246 C 0.73286 0.47535 0.73286
 C247 C 0.73288 0.52452 0.73291
 C248 C 0.76734 0.47532 0.76727
 O249 O 0.25150 0.48148 0.27374
 O250 O 0.22570 0.51809 0.24785
 O251 O 0.22569 0.48142 0.24791
 O252 O 0.25151 0.51814 0.27368
 O253 O 0.27350 0.51810 0.25175
 O254 O 0.24769 0.48138 0.22598
 O255 O 0.24769 0.51805 0.22592
 O256 O 0.27350 0.48144 0.25182
 Cu257 Cu 0.23638 0.49979 0.26301
 Cu258 Cu 0.26281 0.49974 0.23665
 C259 C 0.26681 0.47522 0.26711
 C260 C 0.23239 0.52432 0.23256
 C261 C 0.23238 0.47514 0.23264
 C262 C 0.26682 0.52438 0.26702
 O263 O 0.77397 0.98263 0.74816
 O264 O 0.74807 1.01931 0.77389
 O265 O 0.74812 0.98264 0.77394
 O266 O 0.77394 1.01930 0.74812
 O267 O 0.75199 1.01925 0.72614
 O268 O 0.72616 0.98258 0.75196
 O269 O 0.72612 1.01925 0.75191
 O270 O 0.75202 0.98258 0.72618
 Cu271 Cu 0.76324 1.00098 0.76325
 Cu272 Cu 0.73686 1.00091 0.73683
 C273 C 0.76732 0.97635 0.73287
 C274 C 0.73277 1.02553 0.76720
 C275 C 0.73283 0.97636 0.76726
 C276 C 0.76728 1.02552 0.73282
 O277 O 0.75210 0.51839 0.22587
 O278 O 0.72634 0.48167 0.25168
 O279 O 0.72630 0.51834 0.25171
 O280 O 0.75216 0.48172 0.22586
 O281 O 0.77415 0.48175 0.24780
 O282 O 0.74829 0.51836 0.27365
 O283 O 0.74833 0.48170 0.27362
 O284 O 0.77409 0.51842 0.24781
 Cu285 Cu 0.73700 0.50003 0.23657
 Cu286 Cu 0.76344 0.50006 0.26293
 C287 C 0.76740 0.52466 0.23253
 C288 C 0.73303 0.47543 0.26696
 C289 C 0.73298 0.52459 0.26700
 C290 C 0.76748 0.47549 0.23252
 O291 O 0.25193 -0.01929 0.77404
 O292 O 0.22603 0.01736 0.74829
 O293 O 0.22606 -0.01930 0.74826
 O294 O 0.25188 0.01738 0.77408
 O295 O 0.27384 0.01743 0.75211
 O296 O 0.24801 -0.01926 0.72629
 O297 O 0.24798 0.01741 0.72632
 O298 O 0.27389 -0.01924 0.75206
 Cu299 Cu 0.23676 -0.00097 0.76339
 Cu300 Cu 0.26314 -0.00091 0.73698
 C301 C 0.26724 -0.02551 0.76735
 C302 C 0.23268 0.02363 0.73300
 C303 C 0.23272 -0.02553 0.73296
 C304 C 0.26717 0.02365 0.76741
 O305 O 0.25189 0.22584 0.98205
 O306 O 0.22613 0.25179 1.01864
 O307 O 0.22606 0.25167 0.98202
 O308 O 0.25195 0.22595 1.01868
 O309 O 0.27393 0.24793 1.01858
 O310 O 0.24804 0.27365 0.98192
 O311 O 0.24811 0.27377 1.01855
 O312 O 0.27387 0.24781 0.98196
 Cu313 Cu 0.23679 0.23659 1.00036
 Cu314 Cu 0.26321 0.26301 1.00024
 C315 C 0.26718 0.23249 0.97577
 C316 C 0.23282 0.26711 1.02484
 C317 C 0.23273 0.26696 0.97572
 C318 C 0.26726 0.23264 1.02488
 O319 O 0.25164 0.72635 0.48155
 O320 O 0.22585 0.75215 0.51822
 O321 O 0.22585 0.75222 0.48159
 O322 O 0.25165 0.72629 0.51817
 O323 O 0.27365 0.74824 0.51822
 O324 O 0.24786 0.77418 0.48165
 O325 O 0.24785 0.77410 0.51827
 O326 O 0.27365 0.74831 0.48160
 Cu327 Cu 0.23653 0.73704 0.49988
 Cu328 Cu 0.26297 0.76342 0.49994
 C329 C 0.26696 0.73302 0.47532
 C330 C 0.23254 0.76743 0.52450
 C331 C 0.23255 0.76753 0.47538
 C332 C 0.26696 0.73294 0.52443
 O333 O 0.27412 0.75198 -0.01842
 O334 O 0.24822 0.72621 0.01820
 O335 O 0.24833 0.72609 -0.01842
 O336 O 0.27402 0.75209 0.01820
 O337 O 0.25201 0.77403 0.01808
 O338 O 0.22632 0.74803 -0.01855
 O339 O 0.22621 0.74815 0.01807
 O340 O 0.25211 0.77391 -0.01855
 Cu341 Cu 0.26339 0.73688 -0.00010
 Cu342 Cu 0.23694 0.76324 -0.00025
 C343 C 0.26743 0.76725 -0.02473
 C344 C 0.23289 0.73287 0.02438
 C345 C 0.23303 0.73271 -0.02473
 C346 C 0.26730 0.76740 0.02438
 O347 O 0.27363 0.25154 0.48191
 O348 O 0.24780 0.22558 0.51845
 O349 O 0.24780 0.22569 0.48182
 O350 O 0.27362 0.25144 0.51853
 O351 O 0.25163 0.27341 0.51859
 O352 O 0.22582 0.24765 0.48188
 O353 O 0.22581 0.24755 0.51851
 O354 O 0.25164 0.27350 0.48197
 Cu355 Cu 0.26293 0.23635 0.50017
 Cu356 Cu 0.23651 0.26274 0.50024
 C357 C 0.26695 0.26686 0.47571
 C358 C 0.23249 0.23223 0.52471
 C359 C 0.23250 0.23237 0.47559
 C360 C 0.26694 0.26673 0.52482
 O361 O 0.75180 0.72618 0.98161
 O362 O 0.72583 0.75184 1.01826
 O363 O 0.72597 0.75201 0.98163
 O364 O 0.75166 0.72601 1.01824
 O365 O 0.77364 0.74799 1.01843
 O366 O 0.74795 0.77400 0.98183
 O367 O 0.74780 0.77382 1.01845
 O368 O 0.77378 0.74816 0.98181
 Cu369 Cu 0.73660 0.73679 0.99991
 Cu370 Cu 0.76301 0.76321 1.00015
 C371 C 0.76713 0.73288 0.97546
 C372 C 0.73248 0.76712 1.02460
 C373 C 0.73267 0.76735 0.97549
 C374 C 0.76694 0.73266 1.02458
 O375 O 0.74838 0.27373 0.48153
 O376 O 0.77420 0.24796 0.51820
 O377 O 0.77427 0.24796 0.48157
 O378 O 0.74832 0.27373 0.51815
 O379 O 0.72639 0.25170 0.51810
 O380 O 0.75235 0.22593 0.48152
 O381 O 0.75227 0.22592 0.51815
 O382 O 0.72645 0.25170 0.48148
 Cu383 Cu 0.76351 0.26307 0.49987
 Cu384 Cu 0.73715 0.23659 0.49981
 C385 C 0.73310 0.26702 0.47526
 C386 C 0.76755 0.23264 0.52443
 C387 C 0.76764 0.23264 0.47531
 C388 C 0.73302 0.26702 0.52437
 O389 O 0.74803 0.22616 0.01797
 O390 O 0.77377 0.25209 -0.01864
 O391 O 0.77388 0.25199 0.01798
 O392 O 0.74795 0.22624 -0.01865
 O393 O 0.72597 0.24821 -0.01854
 O394 O 0.75191 0.27396 0.01810
 O395 O 0.75180 0.27407 -0.01853
 O396 O 0.72606 0.24813 0.01808
 Cu397 Cu 0.76312 0.23690 -0.00034
 Cu398 Cu 0.73672 0.26331 -0.00021
 C399 C 0.73274 0.23281 0.02427
 C400 C 0.76708 0.26741 -0.02483
 C401 C 0.76723 0.26728 0.02428
 C402 C 0.73263 0.23293 -0.02484
 O403 O 0.72632 0.74822 0.48189
 O404 O 0.75214 0.77413 0.51848
 O405 O 0.75220 0.77402 0.48186
 O406 O 0.72628 0.74831 0.51851
 O407 O 0.74823 0.72631 0.51859
 O408 O 0.77414 0.75201 0.48195
 O409 O 0.77409 0.75213 0.51857
 O410 O 0.74826 0.72622 0.48197
 Cu411 Cu 0.73702 0.76339 0.50018
 Cu412 Cu 0.76339 0.73694 0.50028
 C413 C 0.73297 0.73289 0.47569
 C414 C 0.76743 0.76746 0.52476
 C415 C 0.76750 0.76731 0.47565
 C416 C 0.73293 0.73301 0.52480
 O417 O 1.01920 0.27403 0.24787
 O418 O 0.98256 0.24815 0.27364
 O419 O 1.01922 0.24817 0.27365
 O420 O 0.98254 0.27398 0.24784
 O421 O 0.98256 0.25201 0.22587
 O422 O 1.01923 0.22620 0.25168
 O423 O 0.98257 0.22618 0.25167
 O424 O 1.01922 0.25207 0.22590
 Cu425 Cu 1.00088 0.26330 0.26297
 Cu426 Cu 1.00090 0.23690 0.23656
 C427 C 1.02546 0.26738 0.23258
 C428 C 0.97632 0.23284 0.26696
 C429 C 1.02547 0.23287 0.26697
 C430 C 0.97630 0.26731 0.23255
 O431 O 0.51845 0.27331 0.74828
 O432 O 0.48186 0.24745 0.77417
 O433 O 0.51853 0.24747 0.77408
 O434 O 0.48179 0.27329 0.74837
 O435 O 0.48174 0.25131 0.72641
 O436 O 0.51848 0.22549 0.75213
 O437 O 0.48181 0.22547 0.75222
 O438 O 0.51840 0.25132 0.72632
 Cu439 Cu 0.50016 0.26260 0.76344
 Cu440 Cu 0.50010 0.23618 0.73706
 C441 C 0.52466 0.26663 0.73297
 C442 C 0.47560 0.23215 0.76752
 C443 C 0.52477 0.23217 0.76740
 C444 C 0.47550 0.26661 0.73310
 O445 O 0.01792 0.24756 0.72602
 O446 O -0.01869 0.27358 0.75170
 O447 O 0.01797 0.27345 0.75178
 O448 O -0.01874 0.24767 0.72595
 O449 O -0.01885 0.22574 0.74795
 O450 O 0.01785 0.25152 0.77378
 O451 O -0.01880 0.25165 0.77370
 O452 O 0.01781 0.22563 0.74801
 Cu453 Cu -0.00038 0.26278 0.73664
 Cu454 Cu -0.00051 0.23642 0.76308
 C455 C 0.02411 0.23225 0.73272
 C456 C -0.02499 0.26696 0.76699
 C457 C 0.02416 0.26680 0.76710
 C458 C -0.02506 0.23240 0.73264
 O459 O 0.48139 0.27357 0.25189
 O460 O 0.51798 0.24776 0.22597
 O461 O 0.48132 0.24774 0.22607
 O462 O 0.51805 0.27358 0.25181
 O463 O 0.51811 0.25159 0.27374
 O464 O 0.48138 0.22575 0.24800
 O465 O 0.51804 0.22577 0.24791
 O466 O 0.48145 0.25158 0.27383
 Cu467 Cu 0.49968 0.26288 0.23672
 Cu468 Cu 0.49975 0.23645 0.26308
 C469 C 0.47518 0.26689 0.26719
 C470 C 0.52425 0.23246 0.23262
 C471 C 0.47508 0.23243 0.23274
 C472 C 0.52434 0.26690 0.26707
 O473 O 0.98213 0.75235 0.72602
 O474 O 1.01876 0.72636 0.75172
 O475 O 0.98210 0.72646 0.75177
 O476 O 1.01880 0.75226 0.72598
 O477 O 1.01889 0.77419 0.74799
 O478 O 0.98220 0.74840 0.77378
 O479 O 1.01885 0.74829 0.77373
 O480 O 0.98223 0.77429 0.74803
 Cu481 Cu 1.00044 0.73715 0.73665
 Cu482 Cu 1.00055 0.76351 0.76310
 C483 C 0.97593 0.76766 0.73274
 C484 C 1.02505 0.73298 0.76701
 C485 C 0.97589 0.73312 0.76709
 C486 C 1.02510 0.76754 0.73268
 O487 O 0.48170 0.74834 0.27377
 O488 O 0.51841 0.77414 0.24799
 O489 O 0.48174 0.77418 0.24798
 O490 O 0.51836 0.74832 0.27381
 O491 O 0.51834 0.72633 0.25186
 O492 O 0.48172 0.75220 0.22602
 O493 O 0.51838 0.75215 0.22604
 O494 O 0.48168 0.72636 0.25182
 Cu495 Cu 0.50005 0.76346 0.26310
 Cu496 Cu 0.50003 0.73704 0.23672
 C497 C 0.47543 0.73304 0.26710
 C498 C 0.52465 0.76745 0.23271
 C499 C 0.47549 0.76751 0.23269
 C500 C 0.52459 0.73300 0.26715
 O501 O -0.01863 0.72616 0.24815
 O502 O 0.01804 0.75209 0.27389
 O503 O -0.01862 0.75200 0.27397
 O504 O 0.01803 0.72625 0.24807
 O505 O 0.01793 0.74823 0.22612
 O506 O -0.01872 0.77398 0.25202
 O507 O 0.01794 0.77407 0.25194
 O508 O -0.01873 0.74814 0.22620
 Cu509 Cu -0.00029 0.73691 0.26324
 Cu510 Cu -0.00041 0.76332 0.23686
 C511 C -0.02493 0.73282 0.23288
 C512 C 0.02424 0.76741 0.26721
 C513 C -0.02492 0.76729 0.26732
 C514 C 0.02423 0.73294 0.23277
 O515 O 0.48139 0.77441 0.75207
 O516 O 0.51810 0.74858 0.72633
 O517 O 0.48144 0.74855 0.72628
 O518 O 0.51805 0.77445 0.75211
 O519 O 0.51805 0.75249 0.77409
 O520 O 0.48143 0.72659 0.74825
 O521 O 0.51809 0.72662 0.74831
 O522 O 0.48138 0.75246 0.77404
 Cu523 Cu 0.49975 0.76371 0.73698
 Cu524 Cu 0.49974 0.73733 0.76339
 C525 C 0.47513 0.76775 0.76736
 C526 C 0.52435 0.73328 0.73302
 C527 C 0.47519 0.73324 0.73295
 C528 C 0.52430 0.76780 0.76741
 C529 C 0.40469 0.31089 0.31131
 C530 C 0.40667 0.31618 0.29051
 C531 C 0.42124 0.30742 0.28173
 C532 C 0.43242 0.29421 0.29460
 C533 C 0.41778 0.28060 0.30270
 C534 C 0.40321 0.28936 0.31148
 C535 C 0.42393 0.31526 0.32005
 C536 C 0.43852 0.30648 0.31126
 C537 C 0.38888 0.32023 0.32066
 C538 C 0.37566 0.32771 0.32815
 C539 C 0.44799 0.28468 0.28505
 C540 C 0.46055 0.27666 0.27700
 H541 H 0.39744 0.32597 0.28332
 H542 H 0.42450 0.30970 0.26702
 H543 H 0.41878 0.26541 0.30165
 H544 H 0.39173 0.28168 0.31795
 H545 H 0.42591 0.32443 0.33207
 H546 H 0.45300 0.30814 0.31575
 C547 C 0.40437 0.81161 0.81118
 C548 C 0.41619 0.79929 0.82435
 C549 C 0.43083 0.79056 0.81562
 C550 C 0.43220 0.79501 0.79457
 C551 C 0.43307 0.81654 0.79345
 C552 C 0.41843 0.82527 0.80218
 C553 C 0.39829 0.79847 0.79520
 C554 C 0.41291 0.78975 0.78648
 C555 C 0.38850 0.82091 0.82049
 C556 C 0.37524 0.82835 0.82794
 C557 C 0.44784 0.78552 0.78508
 C558 C 0.46044 0.77751 0.77709
 H559 H 0.41333 0.79758 0.83922
 H560 H 0.44051 0.78138 0.82301
 H561 H 0.44420 0.82425 0.78642
 H562 H 0.41702 0.84046 0.80264
 H563 H 0.38377 0.79621 0.79110
 H564 H 0.41091 0.78002 0.77490
 C565 C -0.09549 0.31132 0.81073
 C566 C -0.08375 0.29893 0.82392
 C567 C -0.06917 0.29009 0.81520
 C568 C -0.06776 0.29451 0.79416
 C569 C -0.06674 0.31603 0.79301
 C570 C -0.08133 0.32488 0.80173
 C571 C -0.10164 0.29820 0.79477
 C572 C -0.08708 0.28937 0.78606
 C573 C -0.11129 0.32074 0.82003
 C574 C -0.12450 0.32826 0.82748
 C575 C -0.05218 0.28490 0.78469
 C576 C -0.03963 0.27681 0.77671
 H577 H -0.08663 0.29726 0.83879
 H578 H -0.05956 0.28085 0.82261
 H579 H -0.05555 0.32366 0.78598
 H580 H -0.08263 0.34007 0.80217
 H581 H -0.11618 0.29604 0.79065
 H582 H -0.08914 0.27965 0.77449
 C583 C -0.09548 0.81119 0.31143
 C584 C -0.08392 0.79847 0.32445
 C585 C -0.06932 0.78972 0.31566
 C586 C -0.06773 0.79455 0.29472
 C587 C -0.06658 0.81609 0.29401
 C588 C -0.08118 0.82484 0.30279
 C589 C -0.10160 0.79843 0.29516
 C590 C -0.08702 0.78969 0.28638
 C591 C -0.11130 0.82052 0.32079
 C592 C -0.12452 0.82800 0.32827
 C593 C -0.05214 0.78504 0.28517
 C594 C -0.03957 0.77704 0.27712
 H595 H -0.08692 0.79653 0.33927
 H596 H -0.05982 0.78028 0.32295
 H597 H -0.05530 0.82378 0.28721
 H598 H -0.08240 0.84003 0.30353
 H599 H -0.11611 0.79643 0.29090
 H600 H -0.08905 0.78021 0.27461
 C601 C 0.59514 0.68900 0.31119
 C602 C 0.58486 0.70328 0.32367
 C603 C 0.57027 0.71204 0.31489
 C604 C 0.56739 0.70567 0.29450
 C605 C 0.56519 0.68422 0.29557
 C606 C 0.57979 0.67546 0.30435
 C607 C 0.60101 0.70012 0.29368
 C608 C 0.58643 0.70887 0.28492
 C609 C 0.61095 0.67966 0.32054
 C610 C 0.62418 0.67218 0.32801
 C611 C 0.55180 0.71519 0.28496
 C612 C 0.53923 0.72322 0.27693
 H613 H 0.58869 0.70623 0.33812
 H614 H 0.56160 0.72250 0.32183
 H615 H 0.55323 0.67660 0.28995
 H616 H 0.58033 0.66033 0.30625
 H617 H 0.61537 0.70103 0.28861
 H618 H 0.58831 0.71728 0.27234
 C619 C 0.59560 0.18834 0.81115
 C620 C 0.59461 0.18445 0.78998
 C621 C 0.57996 0.19317 0.78127
 C622 C 0.56773 0.20493 0.79458
 C623 C 0.58143 0.21856 0.80417
 C624 C 0.59607 0.20984 0.81289
 C625 C 0.57628 0.18252 0.81881
 C626 C 0.56162 0.19125 0.81009
 C627 C 0.61148 0.17905 0.82044
 C628 C 0.62476 0.17163 0.82788
 C629 C 0.55208 0.21441 0.78510
 C630 C 0.53947 0.22241 0.77712
 H631 H 0.60452 0.17561 0.78249
 H632 H 0.57734 0.19179 0.76632
 H633 H 0.57976 0.23373 0.80414
 H634 H 0.60694 0.21754 0.82032
 H635 H 0.57430 0.17244 0.83008
 H636 H 0.54708 0.18865 0.81388
 C637 C 1.09555 0.68867 0.81082
 C638 C 1.10149 0.70604 0.79951
 C639 C 1.08693 0.71486 0.79079
 C640 C 1.06782 0.70546 0.79421
 C641 C 1.06578 0.70460 0.81565
 C642 C 1.08037 0.69577 0.82439
 C643 C 1.08505 0.67614 0.79675
 C644 C 1.07047 0.68496 0.78802
 C645 C 1.11135 0.67927 0.82012
 C646 C 1.12456 0.67175 0.82759
 C647 C 1.05225 0.71506 0.78473
 C648 C 1.03969 0.72314 0.77674
 H649 H 1.11589 0.71099 0.79845
 H650 H 1.08885 0.72736 0.78226
 H651 H 1.05393 0.71041 0.82330
 H652 H 1.08100 0.69401 0.83951
 H653 H 1.08873 0.66160 0.79390
 H654 H 1.06166 0.67799 0.77770
 C655 C 1.09601 0.18876 0.31092
 C656 C 1.09783 0.21025 0.31060
 C657 C 1.08325 0.21904 0.30185
 C658 C 1.06828 0.20549 0.29427
 C659 C 1.06226 0.19369 0.31129
 C660 C 1.07685 0.18489 0.32005
 C661 C 1.09362 0.18302 0.29028
 C662 C 1.07904 0.19182 0.28153
 C663 C 1.11182 0.17938 0.32025
 C664 C 1.12504 0.17188 0.32772
 C665 C 1.05269 0.21505 0.28476
 C666 C 1.04013 0.22309 0.27674
 H667 H 1.10953 0.21790 0.31671
 H668 H 1.08247 0.23422 0.30047
 H669 H 1.04783 0.19236 0.31604
 H670 H 1.07492 0.17602 0.33230
 H671 H 1.10257 0.17293 0.28317
 H672 H 1.07551 0.18926 0.26692
 C673 C 0.59513 0.31069 0.68886
 C674 C 0.58466 0.32330 0.70287
 C675 C 0.57008 0.31452 0.71166
 C676 C 0.56741 0.29399 0.70557
 C677 C 0.58651 0.28460 0.70903
 C678 C 0.60107 0.29337 0.70025
 C679 C 0.57992 0.30352 0.67534
 C680 C 0.56534 0.29474 0.68413
 C681 C 0.61093 0.32004 0.67950
 C682 C 0.62414 0.32754 0.67201
 C683 C 0.55184 0.28445 0.71512
 C684 C 0.53929 0.27642 0.72317
 H685 H 0.58836 0.33784 0.70564
 H686 H 0.56129 0.32155 0.72195
 H687 H 0.58843 0.27214 0.71762
 H688 H 0.61547 0.28842 0.70132
 H689 H 0.58054 0.30521 0.66020
 H690 H 0.55347 0.28891 0.67653
 C691 C 0.59534 0.81129 0.18872
 C692 C 0.59337 0.79043 0.18358
 C693 C 0.57876 0.78171 0.19234
 C694 C 0.56754 0.79469 0.20540
 C695 C 0.56149 0.81127 0.19300
 C696 C 0.57612 0.82001 0.18422
 C697 C 0.59674 0.81163 0.21022
 C698 C 0.58213 0.80291 0.21899
 C699 C 0.61118 0.82059 0.17938
 C700 C 0.62443 0.82803 0.17191
 C701 C 0.55192 0.78520 0.21493
 C702 C 0.53933 0.77720 0.22295
 H703 H 0.60263 0.78315 0.17389
 H704 H 0.57550 0.76696 0.19016
 H705 H 0.54702 0.81576 0.19126
 H706 H 0.57417 0.83197 0.17497
 H707 H 0.60819 0.81817 0.21790
 H708 H 0.58107 0.80198 0.23416
 C709 C 1.09605 0.31153 0.18877
 C710 C 1.08555 0.32411 0.20279
 C711 C 1.07095 0.31531 0.21151
 C712 C 1.06829 0.29480 0.20536
 C713 C 1.08738 0.28539 0.20884
 C714 C 1.10197 0.29419 0.20013
 C715 C 1.08088 0.30440 0.17519
 C716 C 1.06628 0.29560 0.18391
 C717 C 1.11188 0.32091 0.17947
 C718 C 1.12511 0.32841 0.17202
 C719 C 1.05269 0.28523 0.21484
 C720 C 1.04012 0.27718 0.22284
 H721 H 1.08924 0.33865 0.20560
 H722 H 1.06213 0.32231 0.22180
 H723 H 1.08928 0.27291 0.21740
 H724 H 1.11636 0.28924 0.20123
 H725 H 1.08155 0.30613 0.16006
 H726 H 1.05443 0.28978 0.17626
 C727 C 1.09582 0.81145 0.68881
 C728 C 1.08508 0.82420 0.70249
 C729 C 1.07045 0.81545 0.71123
 C730 C 1.06800 0.79481 0.70542
 C731 C 1.08713 0.78562 0.70927
 C732 C 1.10174 0.79436 0.70055
 C733 C 1.08084 0.80396 0.67521
 C734 C 1.06621 0.79521 0.68395
 C735 C 1.11167 0.82077 0.67951
 C736 C 1.12493 0.82823 0.67206
 C737 C 1.05238 0.78530 0.71492
 C738 C 1.03978 0.77729 0.72292
 H739 H 1.08863 0.83881 0.70508
 H740 H 1.06148 0.82257 0.72129
 H741 H 1.08903 0.77331 0.71808
 H742 H 1.11615 0.78953 0.70188
 H743 H 1.08165 0.80542 0.66006
 H744 H 1.05448 0.78917 0.67628
 C745 C 0.40469 0.68911 0.68891
 C746 C 0.39864 0.70120 0.70571
 C747 C 0.41321 0.70998 0.71448
 C748 C 0.43242 0.70583 0.70560
 C749 C 0.43028 0.71130 0.68486
 C750 C 0.41570 0.70251 0.67609
 C751 C 0.41946 0.67552 0.69681
 C752 C 0.43405 0.68432 0.70558
 C753 C 0.38889 0.67974 0.67956
 C754 C 0.37567 0.67224 0.67208
 C755 C 0.44800 0.71539 0.71514
 C756 C 0.46055 0.72344 0.72317
 H757 H 0.38418 0.70272 0.71032
 H758 H 0.41122 0.71902 0.72659
 H759 H 0.43942 0.72119 0.67770
 H760 H 0.41234 0.70487 0.66141
 H761 H 0.41856 0.66034 0.69559
 H762 H 0.44564 0.67667 0.71189
 C763 C 0.40429 0.18849 0.18897
 C764 C 0.41562 0.20143 0.17596
 C765 C 0.43027 0.21018 0.18468
 C766 C 0.43214 0.20513 0.20555
 C767 C 0.43343 0.18359 0.20600
 C768 C 0.41878 0.17484 0.19729
 C769 C 0.39829 0.20102 0.20545
 C770 C 0.41292 0.20977 0.21416
 C771 C 0.38842 0.17917 0.17968
 C772 C 0.37516 0.17171 0.17224
 C773 C 0.44778 0.21464 0.21502
 C774 C 0.46039 0.22266 0.22301
 H775 H 0.41244 0.20352 0.16120
 H776 H 0.43962 0.21977 0.17739
 H777 H 0.44484 0.17590 0.21258
 H778 H 0.41765 0.15965 0.19639
 H779 H 0.38382 0.20287 0.20989
 H780 H 0.41097 0.21910 0.22606
 C781 C -0.09551 0.68864 0.18901
 C782 C -0.07653 0.68573 0.17919
 C783 C -0.06193 0.69453 0.18793
 C784 C -0.06776 0.70538 0.20564
 C785 C -0.07778 0.69085 0.21803
 C786 C -0.09237 0.68206 0.20929
 C787 C -0.09788 0.71004 0.19038
 C788 C -0.08329 0.71884 0.19912
 C789 C -0.11134 0.67927 0.17970
 C790 C -0.12457 0.67177 0.17223
 C791 C -0.05216 0.71495 0.21514
 C792 C -0.03959 0.72300 0.22314
 H793 H -0.07472 0.67748 0.16649
 H794 H -0.04761 0.69383 0.18273
 H795 H -0.07376 0.68774 0.23240
 H796 H -0.10085 0.67141 0.21617
 H797 H -0.10995 0.71763 0.18495
 H798 H -0.08287 0.73395 0.20117
 C799 C -0.09580 0.18849 0.68876
 C800 C -0.10176 0.20056 0.70560
 C801 C -0.08714 0.20930 0.71433
 C802 C -0.06797 0.20513 0.70537
 C803 C -0.07018 0.21064 0.68465
 C804 C -0.08481 0.20189 0.67592
 C805 C -0.08102 0.17486 0.69657
 C806 C -0.06639 0.18361 0.70531
 C807 C -0.11166 0.17917 0.67945
 C808 C -0.12492 0.17171 0.67200
 C809 C -0.05234 0.21464 0.71487
 C810 C -0.03974 0.22265 0.72288
 H811 H -0.11620 0.20210 0.71026
 H812 H -0.08907 0.21833 0.72646
 H813 H -0.06105 0.22052 0.67747
 H814 H -0.08821 0.20428 0.66125
 H815 H -0.08196 0.15968 0.69534
 H816 H -0.05479 0.17593 0.71157
 C817 C 0.31080 0.40474 0.31126
 C818 C 0.31399 0.42380 0.32086
 C819 C 0.30522 0.43839 0.31206
 C820 C 0.29413 0.43246 0.29453
 C821 C 0.28062 0.41710 0.30136
 C822 C 0.28937 0.40254 0.31015
 C823 C 0.31719 0.40761 0.29088
 C824 C 0.30843 0.42218 0.28209
 C825 C 0.32014 0.38894 0.32063
 C826 C 0.32763 0.37572 0.32813
 C827 C 0.28460 0.44803 0.28497
 C828 C 0.27658 0.46058 0.27691
 H829 H 0.32239 0.42568 0.33344
 H830 H 0.30610 0.45276 0.31710
 H831 H 0.26548 0.41763 0.29947
 H832 H 0.28175 0.39059 0.31579
 H833 H 0.32769 0.39897 0.28397
 H834 H 0.31143 0.42602 0.26765
 C835 C 0.31148 -0.09605 0.81117
 C836 C 0.29251 -0.09087 0.82002
 C837 C 0.28369 -0.07629 0.81130
 C838 C 0.29470 -0.06831 0.79457
 C839 C 0.29829 -0.08522 0.78169
 C840 C 0.30711 -0.09979 0.79040
 C841 C 0.32290 -0.07773 0.81129
 C842 C 0.31407 -0.06314 0.80256
 C843 C 0.32088 -0.11185 0.82047
 C844 C 0.32840 -0.12507 0.82793
 C845 C 0.28512 -0.05273 0.78509
 C846 C 0.27705 -0.04016 0.77709
 H847 H 0.28653 -0.09802 0.83209
 H848 H 0.27016 -0.07095 0.81589
 H849 H 0.29427 -0.08571 0.76699
 H850 H 0.31064 -0.11276 0.78318
 H851 H 0.33669 -0.07635 0.81767
 H852 H 0.32030 -0.04925 0.80146
 C853 C 0.81124 0.40461 0.81116
 C854 C 0.79234 0.40996 0.82005
 C855 C 0.78360 0.42458 0.81131
 C856 C 0.79463 0.43243 0.79453
 C857 C 0.79805 0.41545 0.78168
 C858 C 0.80678 0.40084 0.79042
 C859 C 0.82280 0.42284 0.81118
 C860 C 0.81406 0.43747 0.80243
 C861 C 0.82055 0.38876 0.82048
 C862 C 0.82800 0.37551 0.82794
 C863 C 0.78512 0.44805 0.78502
 C864 C 0.77711 0.46064 0.77702
 H865 H 0.78635 0.40290 0.83216
 H866 H 0.77013 0.43004 0.81593
 H867 H 0.79398 0.41495 0.76700
 H868 H 0.81019 0.38782 0.78322
 H869 H 0.83662 0.42414 0.81751
 H870 H 0.82039 0.45131 0.80127
 C871 C 0.81153 -0.09533 0.31106
 C872 C 0.82246 -0.07674 0.31219
 C873 C 0.81367 -0.06214 0.30344
 C874 C 0.79483 -0.06757 0.29442
 C875 C 0.78326 -0.07628 0.31040
 C876 C 0.79204 -0.09087 0.31914
 C877 C 0.80823 -0.09862 0.29003
 C878 C 0.79945 -0.08404 0.28128
 C879 C 0.82089 -0.11114 0.32039
 C880 C 0.82838 -0.12437 0.32786
 C881 C 0.78528 -0.05199 0.28491
 C882 C 0.77724 -0.03942 0.27689
 H883 H 0.83589 -0.07519 0.31924
 H884 H 0.81957 -0.04808 0.30299
 H885 H 0.76940 -0.07140 0.31449
 H886 H 0.78570 -0.09848 0.33073
 H887 H 0.81243 -0.11129 0.28264
 H888 H 0.79613 -0.08422 0.26641
 C889 C 0.31092 0.59507 0.68890
 C890 C 0.30744 0.59848 0.70989
 C891 C 0.29870 0.58389 0.71866
 C892 C 0.29428 0.56731 0.70560
 C893 C 0.31322 0.56195 0.69677
 C894 C 0.32198 0.57656 0.68798
 C895 C 0.29152 0.59041 0.68070
 C896 C 0.28277 0.57582 0.68948
 C897 C 0.32024 0.61089 0.67954
 C898 C 0.32771 0.62413 0.67206
 C899 C 0.28477 0.55171 0.71515
 C900 C 0.27676 0.53914 0.72319
 H901 H 0.31150 0.61123 0.71722
 H902 H 0.29527 0.58415 0.73351
 H903 H 0.31922 0.54794 0.69736
 H904 H 0.33547 0.57506 0.68104
 H905 H 0.28521 0.59790 0.66901
 H906 H 0.26898 0.57081 0.68531
 C907 C 0.31143 1.09603 0.18902
 C908 C 0.29917 1.10207 0.20569
 C909 C 0.29037 1.08749 0.21439
 C910 C 0.29467 1.06827 0.20560
 C911 C 0.31619 1.06673 0.20580
 C912 C 0.32501 1.08133 0.19708
 C913 C 0.29821 1.08494 0.17609
 C914 C 0.28939 1.07034 0.18481
 C915 C 0.32082 1.11185 0.17973
 C916 C 0.32833 1.12508 0.17228
 C917 C 0.28510 1.05267 0.21508
 C918 C 0.27703 1.04010 0.22306
 H919 H 0.29755 1.11654 0.21025
 H920 H 0.28120 1.08947 0.22642
 H921 H 0.32383 1.05518 0.21221
 H922 H 0.34020 1.08230 0.19602
 H923 H 0.29597 1.08824 0.16138
 H924 H 0.27961 1.06114 0.17756
 C925 C 0.81118 0.59542 0.18858
 C926 C 0.80012 0.60122 0.20615
 C927 C 0.79142 0.58660 0.21490
 C928 C 0.79460 0.56759 0.20524
 C929 C 0.81604 0.56543 0.20408
 C930 C 0.82475 0.58006 0.19532
 C931 C 0.79686 0.58515 0.17612
 C932 C 0.78815 0.57052 0.18488
 C933 C 0.82046 0.61128 0.17926
 C934 C 0.82790 0.62454 0.17179
 C935 C 0.78512 0.55195 0.21476
 C936 C 0.77714 0.53935 0.22277
 H937 H 0.79922 0.61557 0.21128
 H938 H 0.78306 0.58843 0.22752
 H939 H 0.82369 0.55345 0.20963
 H940 H 0.83987 0.58063 0.19337
 H941 H 0.79385 0.58903 0.16169
 H942 H 0.77767 0.56186 0.17795
 C943 C 0.81138 1.09607 0.68885
 C944 C 0.80072 1.10187 0.70666
 C945 C 0.79193 1.08729 0.71541
 C946 C 0.79466 1.06833 0.70551
 C947 C 0.81603 1.06585 0.70396
 C948 C 0.82483 1.08044 0.69520
 C949 C 0.79670 1.08616 0.67654
 C950 C 0.78791 1.07157 0.68529
 C951 C 0.82075 1.11188 0.67952
 C952 C 0.82826 1.12509 0.67204
 C953 C 0.78510 1.05274 0.71503
 C954 C 0.77706 1.04018 0.72305
 H955 H 0.80012 1.11617 0.71195
 H956 H 0.78381 1.08912 0.72819
 H957 H 0.82359 1.05370 0.70926
 H958 H 0.83992 1.08080 0.69300
 H959 H 0.79351 1.09022 0.66220
 H960 H 0.77718 1.06314 0.67846
 C961 C 0.68900 0.59512 0.31110
 C962 C 0.69263 0.57819 0.32397
 C963 C 0.70139 0.56360 0.31517
 C964 C 0.70565 0.56738 0.29438
 C965 C 0.71707 0.58568 0.29425
 C966 C 0.70832 0.60025 0.30303
 C967 C 0.67788 0.58717 0.29442
 C968 C 0.68663 0.57259 0.28563
 C969 C 0.67967 0.61093 0.32047
 C970 C 0.67219 0.62415 0.32797
 C971 C 0.71517 0.55180 0.28482
 C972 C 0.72319 0.53924 0.27678
 H973 H 0.68866 0.57770 0.33867
 H974 H 0.70492 0.55061 0.32234
 H975 H 0.73084 0.58707 0.28782
 H976 H 0.71460 0.61412 0.30413
 H977 H 0.66432 0.59251 0.28992
 H978 H 0.68057 0.56543 0.27360
 C979 C 0.68856 1.09607 0.81106
 C980 C 0.68756 1.07753 0.82204
 C981 C 0.69638 1.06294 0.81330
 C982 C 0.70532 1.06833 0.79444
 C983 C 0.71840 1.08488 0.79896
 C984 C 0.70959 1.09946 0.80769
 C985 C 0.68044 1.09148 0.79162
 C986 C 0.68925 1.07690 0.78288
 C987 C 0.67917 1.11188 0.82037
 C988 C 0.67165 1.12510 0.82783
 C989 C 0.71490 1.05275 0.78494
 C990 C 0.72296 1.04018 0.77694
 H991 H 0.68054 1.07600 0.83549
 H992 H 0.69692 1.04890 0.81925
 H993 H 0.73328 1.08513 0.79561
 H994 H 0.71693 1.11219 0.81182
 H995 H 0.66878 1.09900 0.78528
 H996 H 0.68514 1.07193 0.76907
 C997 C 0.18875 0.59533 0.81131
 C998 C 0.19458 0.59963 0.79102
 C999 C 0.20330 0.58501 0.78229
 C1000 C 0.20534 0.56749 0.79469
 C1001 C 0.18530 0.56291 0.80125
 C1002 C 0.17658 0.57756 0.80999
 C1003 C 0.20689 0.58899 0.82110
 C1004 C 0.21561 0.57435 0.81237
 C1005 C 0.17946 0.61120 0.82062
 C1006 C 0.17202 0.62447 0.82807
 C1007 C 0.21482 0.55185 0.78519
 C1008 C 0.22282 0.53925 0.77719
 H1009 H 0.19207 0.61300 0.78410
 H1010 H 0.20825 0.58585 0.76790
 H1011 H 0.17857 0.54937 0.79922
 H1012 H 0.16237 0.57656 0.81545
 H1013 H 0.21239 0.59541 0.83379
 H1014 H 0.22858 0.56823 0.81757
 C1015 C 0.18857 1.09606 0.31097
 C1016 C 0.19214 1.07916 0.32388
 C1017 C 0.20094 1.06455 0.31514
 C1018 C 0.20529 1.06829 0.29437
 C1019 C 0.21671 1.08659 0.29425
 C1020 C 0.20793 1.10118 0.30298
 C1021 C 0.17752 1.08809 0.29426
 C1022 C 0.18631 1.07348 0.28553
 C1023 C 0.17920 1.11189 0.32028
 C1024 C 0.17171 1.12512 0.32774
 C1025 C 0.21485 1.05269 0.28488
 C1026 C 0.22289 1.04011 0.27688
 H1027 H 0.18811 1.07869 0.33857
 H1028 H 0.20444 1.05157 0.32235
 H1029 H 0.23051 1.08797 0.28788
 H1030 H 0.21420 1.11505 0.30408
 H1031 H 0.16398 1.09342 0.28969
 H1032 H 0.18030 1.06631 0.27349
 C1033 C 0.68889 0.40473 0.68884
 C1034 C 0.67527 0.41951 0.69666
 C1035 C 0.68402 0.43412 0.70544
 C1036 C 0.70554 0.43251 0.70552
 C1037 C 0.71107 0.43033 0.68480
 C1038 C 0.70231 0.41572 0.67603
 C1039 C 0.70093 0.39873 0.70568
 C1040 C 0.70967 0.41332 0.71444
 C1041 C 0.67957 0.38889 0.67949
 C1042 C 0.67210 0.37565 0.67201
 C1043 C 0.71506 0.44812 0.71505
 C1044 C 0.72308 0.46069 0.72308
 H1045 H 0.66009 0.41859 0.69541
 H1046 H 0.67635 0.44572 0.71171
 H1047 H 0.72097 0.43947 0.67765
 H1048 H 0.70471 0.41235 0.66136
 H1049 H 0.70245 0.38427 0.71032
 H1050 H 0.71868 0.41136 0.72659
 C1051 C 0.68858 -0.09538 0.18904
 C1052 C 0.71000 -0.09764 0.19014
 C1053 C 0.71882 -0.08305 0.19885
 C1054 C 0.70537 -0.06762 0.20563
 C1055 C 0.69105 -0.07779 0.21813
 C1056 C 0.68222 -0.09238 0.20942
 C1057 C 0.68545 -0.07635 0.17936
 C1058 C 0.69428 -0.06175 0.18808
 C1059 C 0.67918 -0.11120 0.17975
 C1060 C 0.67166 -0.12443 0.17230
 C1061 C 0.71496 -0.05202 0.21510
 C1062 C 0.72304 -0.03945 0.22308
 H1063 H 0.71758 -0.10964 0.18455
 H1064 H 0.73396 -0.08256 0.20073
 H1065 H 0.68808 -0.07387 0.23256
 H1066 H 0.67170 -0.10095 0.21638
 H1067 H 0.67704 -0.07452 0.16678
 H1068 H 0.69344 -0.04740 0.18297
 C1069 C 0.18850 0.40436 0.18877
 C1070 C 0.20995 0.40231 0.18971
 C1071 C 0.21868 0.41694 0.19845
 C1072 C 0.20511 0.43220 0.20539
 C1073 C 0.19098 0.42182 0.21793
 C1074 C 0.18224 0.40719 0.20920
 C1075 C 0.18511 0.42340 0.17921
 C1076 C 0.19385 0.43805 0.18795
 C1077 C 0.17919 0.38849 0.17946
 C1078 C 0.17174 0.37522 0.17200
 C1079 C 0.21461 0.44784 0.21489
 C1080 C 0.22262 0.46045 0.22289
 H1081 H 0.21761 0.39042 0.18401
 H1082 H 0.23382 0.41757 0.20022
 H1083 H 0.18807 0.42564 0.23240
 H1084 H 0.17186 0.39847 0.21618
 H1085 H 0.17660 0.42522 0.16669
 H1086 H 0.19283 0.45242 0.18292
 C1087 C 0.18861 -0.09610 0.68898
 C1088 C 0.17503 -0.08124 0.69674
 C1089 C 0.18383 -0.06664 0.70550
 C1090 C 0.20534 -0.06835 0.70564
 C1091 C 0.21091 -0.07060 0.68494
 C1092 C 0.20211 -0.08519 0.67618
 C1093 C 0.20058 -0.10212 0.70586
 C1094 C 0.20937 -0.08754 0.71462
 C1095 C 0.17924 -0.11191 0.67964
 C1096 C 0.17173 -0.12513 0.67216
 C1097 C 0.21490 -0.05276 0.71516
 C1098 C 0.22294 -0.04019 0.72319
 H1099 H 0.15985 -0.08209 0.69545
 H1100 H 0.17619 -0.05500 0.71172
 H1101 H 0.22087 -0.06152 0.67779
 H1102 H 0.20454 -0.08861 0.66152
 H1103 H 0.20202 -0.11657 0.71054
 H1104 H 0.21834 -0.08951 0.72679
 C1105 C 0.31089 0.31094 0.40520
 C1106 C 0.29505 0.32261 0.41404
 C1107 C 0.28630 0.31384 0.42863
 C1108 C 0.29424 0.29425 0.43295
 C1109 C 0.31536 0.29735 0.43614
 C1110 C 0.32411 0.30613 0.42155
 C1111 C 0.30166 0.29221 0.39977
 C1112 C 0.29292 0.28344 0.41435
 C1113 C 0.32021 0.32028 0.38939
 C1114 C 0.32768 0.32775 0.37616
 C1115 C 0.28473 0.28471 0.44853
 C1116 C 0.27671 0.27667 0.46108
 H1117 H 0.29108 0.33655 0.40927
 H1118 H 0.27483 0.32026 0.43636
 H1119 H 0.32277 0.29305 0.44875
 H1120 H 0.33903 0.30934 0.42165
 H1121 H 0.30198 0.28633 0.38571
 H1122 H 0.28574 0.27006 0.41276
 C1123 C 0.31140 0.81110 -0.09536
 C1124 C 0.31380 0.78966 -0.09542
 C1125 C 0.30506 0.78093 -0.08081
 C1126 C 0.29477 0.79448 -0.06757
 C1127 C 0.28134 0.80560 -0.08027
 C1128 C 0.29009 0.81433 -0.09487
 C1129 C 0.31850 0.81749 -0.07603
 C1130 C 0.30974 0.80875 -0.06141
 C1131 C 0.32072 0.82041 -0.11121
 C1132 C 0.32816 0.82786 -0.12445
 C1133 C 0.28525 0.78499 -0.05196
 C1134 C 0.27722 0.77699 -0.03939
 H1135 H 0.32169 0.78200 -0.10599
 H1136 H 0.30546 0.76580 -0.07887
 H1137 H 0.26629 0.80655 -0.07797
 H1138 H 0.28252 0.82276 -0.10508
 H1139 H 0.32942 0.82795 -0.07400
 H1140 H 0.31317 0.81172 -0.04685
 C1141 C 0.81083 0.31156 -0.09541
 C1142 C 0.81325 0.29012 -0.09553
 C1143 C 0.80455 0.28134 -0.08094
 C1144 C 0.79426 0.29484 -0.06764
 C1145 C 0.78080 0.30598 -0.08027
 C1146 C 0.78951 0.31477 -0.09487
 C1147 C 0.81795 0.31790 -0.07607
 C1148 C 0.80923 0.30910 -0.06146
 C1149 C 0.82011 0.32092 -0.11124
 C1150 C 0.82756 0.32840 -0.12448
 C1151 C 0.78479 0.28528 -0.05204
 C1152 C 0.77681 0.27722 -0.03948
 H1153 H 0.82113 0.28251 -0.10614
 H1154 H 0.80497 0.26620 -0.07905
 H1155 H 0.76575 0.30691 -0.07795
 H1156 H 0.78191 0.32322 -0.10504
 H1157 H 0.82887 0.32837 -0.07403
 H1158 H 0.81268 0.31203 -0.04690
 C1159 C 0.81161 0.81099 0.40500
 C1160 C 0.81396 0.78955 0.40499
 C1161 C 0.80518 0.78085 0.41959
 C1162 C 0.79490 0.79445 0.43280
 C1163 C 0.78151 0.80558 0.42007
 C1164 C 0.79029 0.81427 0.40547
 C1165 C 0.81869 0.81740 0.42434
 C1166 C 0.80990 0.80869 0.43896
 C1167 C 0.82096 0.82026 0.38916
 C1168 C 0.82843 0.82769 0.37591
 C1169 C 0.78535 0.78499 0.44841
 C1170 C 0.77730 0.77702 0.46099
 H1171 H 0.82185 0.78186 0.39444
 H1172 H 0.80555 0.76573 0.42155
 H1173 H 0.76646 0.80656 0.42235
 H1174 H 0.78276 0.82270 0.39523
 H1175 H 0.82963 0.82784 0.42636
 H1176 H 0.81331 0.81168 0.45352
 C1177 C 0.68893 0.31088 0.59492
 C1178 C 0.69980 0.29318 0.60070
 C1179 C 0.70857 0.28445 0.58612
 C1180 C 0.70562 0.29426 0.56716
 C1181 C 0.71219 0.31458 0.57029
 C1182 C 0.70342 0.32332 0.58489
 C1183 C 0.67543 0.30434 0.57942
 C1184 C 0.68421 0.29560 0.56482
 C1185 C 0.67958 0.32019 0.61075
 C1186 C 0.67211 0.32765 0.62398
 C1187 C 0.71516 0.28477 0.55157
 C1188 C 0.72321 0.27677 0.53901
 H1189 H 0.70054 0.28795 0.61500
 H1190 H 0.71682 0.27174 0.58793
 H1191 H 0.72279 0.32150 0.56178
 H1192 H 0.70650 0.33772 0.58888
 H1193 H 0.66032 0.30640 0.57987
 H1194 H 0.67662 0.29017 0.55276
 C1195 C 0.68833 0.81082 1.09523
 C1196 C 0.69554 0.79105 1.09999
 C1197 C 0.70432 0.78235 1.08540
 C1198 C 0.70504 0.79425 1.06745
 C1199 C 0.71441 0.81277 1.07336
 C1200 C 0.70563 0.82148 1.08797
 C1201 C 0.67571 0.80814 1.07794
 C1202 C 0.68450 0.79943 1.06333
 C1203 C 0.67898 0.82010 1.11106
 C1204 C 0.67151 0.82755 1.12430
 C1205 C 0.71460 0.78479 1.05184
 C1206 C 0.72265 0.77682 1.03926
 H1207 H 0.69388 0.78446 1.11364
 H1208 H 0.71018 0.76831 1.08655
 H1209 H 0.72683 0.81854 1.06666
 H1210 H 0.71053 0.83471 1.09378
 H1211 H 0.66117 0.81269 1.07724
 H1212 H 0.67749 0.79652 1.05011
 C1213 C 0.18899 0.31123 1.09540
 C1214 C 0.19642 0.29158 1.10031
 C1215 C 0.20514 0.28281 1.08572
 C1216 C 0.20559 0.29453 1.06764
 C1217 C 0.21484 0.31319 1.07328
 C1218 C 0.20611 0.32197 1.08788
 C1219 C 0.17624 0.30825 1.07826
 C1220 C 0.18497 0.29947 1.06366
 C1221 C 0.17968 0.32058 1.11122
 C1222 C 0.17222 0.32805 1.12446
 C1223 C 0.21509 0.28498 1.05205
 C1224 C 0.22308 0.27693 1.03948
 H1225 H 0.19495 0.28512 1.11403
 H1226 H 0.21115 0.26884 1.08696
 H1227 H 0.22715 0.31901 1.06640
 H1228 H 0.21094 0.33531 1.09350
 H1229 H 0.16165 0.31267 1.07765
 H1230 H 0.17787 0.29636 1.05053
 C1231 C 0.18870 0.81120 0.59527
 C1232 C 0.17806 0.81299 0.57661
 C1233 C 0.18679 0.80428 0.56196
 C1234 C 0.20530 0.79463 0.56743
 C1235 C 0.20010 0.78129 0.58353
 C1236 C 0.19137 0.78999 0.59816
 C1237 C 0.20846 0.81883 0.59123
 C1238 C 0.21719 0.81013 0.57659
 C1239 C 0.17940 0.82047 0.61115
 C1240 C 0.17197 0.82790 0.62442
 C1241 C 0.21479 0.78516 0.55179
 C1242 C 0.22279 0.77717 0.53919
 H1243 H 0.16484 0.82045 0.57503
 H1244 H 0.18106 0.80427 0.54783
 H1245 H 0.20300 0.76631 0.58345
 H1246 H 0.18680 0.78246 0.61061
 H1247 H 0.21502 0.83010 0.59916
 H1248 H 0.23122 0.81394 0.57198
 C1249 C 0.31090 0.68890 0.59498
 C1250 C 0.29145 0.68075 0.59042
 C1251 C 0.28269 0.68951 0.57583
 C1252 C 0.29425 0.70556 0.56722
 C1253 C 0.31313 0.69661 0.56186
 C1254 C 0.32189 0.68785 0.57646
 C1255 C 0.30752 0.70995 0.59829
 C1256 C 0.29877 0.71870 0.58371
 C1257 C 0.32023 0.67957 0.61080
 C1258 C 0.32770 0.67211 0.62403
 C1259 C 0.28473 0.71509 0.55163
 C1260 C 0.27672 0.72313 0.53907
 H1261 H 0.28511 0.66911 0.59798
 H1262 H 0.26886 0.68538 0.57089
 H1263 H 0.31909 0.69711 0.54784
 H1264 H 0.33535 0.68084 0.57495
 H1265 H 0.31165 0.71733 0.61098
 H1266 H 0.29541 0.73358 0.58391
 C1267 C 0.31126 0.18887 1.09555
 C1268 C 0.32254 0.18831 1.07719
 C1269 C 0.31378 0.19703 1.06256
 C1270 C 0.29461 0.20545 1.06775
 C1271 C 0.29857 0.21850 1.08445
 C1272 C 0.30732 0.20979 1.09906
 C1273 C 0.29208 0.18031 1.09062
 C1274 C 0.28333 0.18902 1.07600
 C1275 C 0.32059 0.17958 1.11140
 C1276 C 0.32804 0.17214 1.12465
 C1277 C 0.28508 0.21493 1.05213
 C1278 C 0.27705 0.22292 1.03955
 H1279 H 0.33619 0.18165 1.07580
 H1280 H 0.31993 0.19785 1.04864
 H1281 H 0.29484 0.23329 1.08478
 H1282 H 0.31108 0.21712 1.11189
 H1283 H 0.28593 0.16843 1.09795
 H1284 H 0.26968 0.18461 1.07081
 C1285 C 0.81067 0.68850 1.09517
 C1286 C 0.82404 0.70017 1.08291
 C1287 C 0.81532 0.70896 1.06830
 C1288 C 0.79410 0.70521 1.06740
 C1289 C 0.78656 0.71106 1.08672
 C1290 C 0.79527 0.70229 1.10131
 C1291 C 0.80092 0.67493 1.08152
 C1292 C 0.79220 0.68372 1.06692
 C1293 C 0.81997 0.67915 1.11100
 C1294 C 0.82742 0.67167 1.12423
 C1295 C 0.78462 0.71477 1.05180
 C1296 C 0.77665 0.72283 1.03923
 H1297 H 0.83903 0.70141 1.08546
 H1298 H 0.82285 0.71772 1.05835
 H1299 H 0.77536 0.72122 1.08877
 H1300 H 0.79152 0.70492 1.11585
 H1301 H 0.80088 0.65976 1.08318
 H1302 H 0.78470 0.67608 1.05606
 C1303 C 0.81134 0.18881 0.59520
 C1304 C 0.81888 0.20863 0.59123
 C1305 C 0.81018 0.21736 0.57659
 C1306 C 0.79477 0.20541 0.56735
 C1307 C 0.78141 0.20009 0.58341
 C1308 C 0.79011 0.19137 0.59804
 C1309 C 0.81324 0.17823 0.57650
 C1310 C 0.80452 0.18696 0.56185
 C1311 C 0.82062 0.17951 0.61107
 C1312 C 0.82804 0.17208 0.62434
 C1313 C 0.78530 0.21490 0.55171
 C1314 C 0.77730 0.22289 0.53911
 H1315 H 0.83009 0.21523 0.59921
 H1316 H 0.81393 0.23142 0.57203
 H1317 H 0.76642 0.20292 0.58329
 H1318 H 0.78257 0.18673 0.61045
 H1319 H 0.82077 0.16506 0.57491
 H1320 H 0.80458 0.18127 0.54771
 C1321 C 0.68899 0.68890 0.40510
 C1322 C 0.67937 0.70721 0.41123
 C1323 C 0.68813 0.71596 0.42583
 C1324 C 0.70566 0.70555 0.43287
 C1325 C 0.71815 0.70321 0.41547
 C1326 C 0.70940 0.69446 0.40088
 C1327 C 0.69006 0.67687 0.42296
 C1328 C 0.69883 0.68563 0.43757
 C1329 C 0.67965 0.67958 0.38928
 C1330 C 0.67218 0.67212 0.37604
 C1331 C 0.71518 0.71507 0.44847
 C1332 C 0.72321 0.72310 0.46104
 H1333 H 0.66677 0.71280 0.40470
 H1334 H 0.68304 0.72904 0.43180
 H1335 H 0.73262 0.70800 0.41468
 H1336 H 0.71637 0.69176 0.38760
 H1337 H 0.68442 0.66273 0.42404
 H1338 H 0.70070 0.67899 0.45117
 C1339 C 0.68866 0.18901 -0.09548
 C1340 C 0.67707 0.20500 -0.08681
 C1341 C 0.68581 0.21376 -0.07220
 C1342 C 0.70529 0.20566 -0.06769
 C1343 C 0.71624 0.20678 -0.08621
 C1344 C 0.70751 0.19803 -0.10081
 C1345 C 0.69323 0.17583 -0.07903
 C1346 C 0.70198 0.18459 -0.06442
 C1347 C 0.67935 0.17967 -0.11132
 C1348 C 0.67190 0.17220 -0.12456
 C1349 C 0.71480 0.21518 -0.05208
 C1350 C 0.72283 0.22319 -0.03950
 H1351 H 0.66320 0.20907 -0.09170
 H1352 H 0.67944 0.22533 -0.06458
 H1353 H 0.72969 0.21383 -0.08773
 H1354 H 0.71348 0.19759 -0.11483
 H1355 H 0.68988 0.16094 -0.07888
 H1356 H 0.70612 0.17721 -0.05174
 C1357 C 0.18928 0.68849 -0.09531
 C1358 C 0.18064 0.70762 -0.09035
 C1359 C 0.18936 0.71642 -0.07576
 C1360 C 0.20586 0.70523 -0.06755
 C1361 C 0.21887 0.70135 -0.08428
 C1362 C 0.21016 0.69255 -0.09887
 C1363 C 0.18883 0.67720 -0.07695
 C1364 C 0.19755 0.68601 -0.06234
 C1365 C 0.17999 0.67912 -0.11114
 C1366 C 0.17253 0.67164 -0.12438
 C1367 C 0.21534 0.71480 -0.05195
 C1368 C 0.22331 0.72288 -0.03938
 H1369 H 0.16871 0.71372 -0.09765
 H1370 H 0.18489 0.73005 -0.07055
 H1371 H 0.23364 0.70516 -0.08464
 H1372 H 0.21747 0.68883 -0.11172
 H1373 H 0.18224 0.66351 -0.07555
 H1374 H 0.19844 0.67986 -0.04842
 C1375 C 0.18868 0.18873 0.40469
 C1376 C 0.20747 0.17965 0.41017
 C1377 C 0.21618 0.18833 0.42483
 C1378 C 0.20527 0.20524 0.43259
 C1379 C 0.18573 0.19751 0.43749
 C1380 C 0.17700 0.18883 0.42281
 C1381 C 0.19337 0.20945 0.40095
 C1382 C 0.20209 0.21812 0.41560
 C1383 C 0.17940 0.17948 0.38879
 C1384 C 0.17197 0.17208 0.37549
 C1385 C 0.21475 0.21468 0.44826
 C1386 C 0.22275 0.22265 0.46088
 H1387 H 0.21339 0.16746 0.40316
 H1388 H 0.22957 0.18358 0.43039
 H1389 H 0.17932 0.19875 0.45126
 H1390 H 0.16312 0.18262 0.42401
 H1391 H 0.19012 0.21668 0.38793
 H1392 H 0.20630 0.23279 0.41513
 C1393 C 0.31095 0.40461 0.68923
 C1394 C 0.30697 0.40107 0.71011
 C1395 C 0.29821 0.41568 0.71882
 C1396 C 0.29429 0.43242 0.70582
 C1397 C 0.28303 0.42419 0.68938
 C1398 C 0.29179 0.40957 0.68065
 C1399 C 0.32225 0.42299 0.68873
 C1400 C 0.31348 0.43763 0.69746
 C1401 C 0.32028 0.38876 0.67993
 C1402 C 0.32775 0.37550 0.67248
 C1403 C 0.28477 0.44805 0.71531
 C1404 C 0.27675 0.46064 0.72331
 H1405 H 0.31071 0.38821 0.71741
 H1406 H 0.29446 0.41533 0.73359
 H1407 H 0.26939 0.42940 0.68495
 H1408 H 0.28565 0.40225 0.66876
 H1409 H 0.33591 0.42440 0.68210
 H1410 H 0.31964 0.45157 0.69831
 C1411 C 0.31110 0.90560 0.18881
 C1412 C 0.30596 0.92181 0.17555
 C1413 C 0.29722 0.93643 0.18431
 C1414 C 0.29448 0.93340 0.20548
 C1415 C 0.31422 0.92929 0.21314
 C1416 C 0.32296 0.91468 0.20438
 C1417 C 0.29257 0.90010 0.19836
 C1418 C 0.28384 0.91470 0.20712
 C1419 C 0.32042 0.88976 0.17948
 C1420 C 0.32788 0.87652 0.17201
 C1421 C 0.28497 0.94901 0.21500
 C1422 C 0.27696 0.96160 0.22301
 H1423 H 0.30893 0.92181 0.16060
 H1424 H 0.29270 0.94896 0.17688
 H1425 H 0.32077 0.93718 0.22444
 H1426 H 0.33699 0.91004 0.20817
 H1427 H 0.28680 0.88597 0.19825
 H1428 H 0.27059 0.91308 0.21450
 C1429 C 0.81158 0.40493 0.18859
 C1430 C 0.80743 0.40127 0.20942
 C1431 C 0.79865 0.41585 0.21815
 C1432 C 0.79486 0.43269 0.20522
 C1433 C 0.78371 0.42458 0.18864
 C1434 C 0.79250 0.40999 0.17990
 C1435 C 0.82293 0.42329 0.18829
 C1436 C 0.81413 0.43789 0.19703
 C1437 C 0.82095 0.38911 0.17928
 C1438 C 0.82843 0.37588 0.17181
 C1439 C 0.78531 0.44828 0.21473
 C1440 C 0.77726 0.46084 0.22275
 H1441 H 0.81108 0.38836 0.21667
 H1442 H 0.79477 0.41543 0.23289
 H1443 H 0.77012 0.42984 0.18415
 H1444 H 0.78643 0.40276 0.16792
 H1445 H 0.83665 0.42469 0.18177
 H1446 H 0.82031 0.45181 0.19801
 C1447 C 0.81135 0.90571 0.68900
 C1448 C 0.80715 0.90204 0.70981
 C1449 C 0.79839 0.91664 0.71855
 C1450 C 0.79468 0.93349 0.70563
 C1451 C 0.78354 0.92544 0.68901
 C1452 C 0.79231 0.91083 0.68027
 C1453 C 0.82275 0.92403 0.68874
 C1454 C 0.81398 0.93865 0.69749
 C1455 C 0.82069 0.88987 0.67968
 C1456 C 0.82816 0.87663 0.67222
 C1457 C 0.78515 0.94910 0.71513
 C1458 C 0.77711 0.96169 0.72313
 H1459 H 0.81074 0.88911 0.71706
 H1460 H 0.79448 0.91621 0.73327
 H1461 H 0.76997 0.93075 0.68450
 H1462 H 0.78625 0.90363 0.66827
 H1463 H 0.83649 0.92540 0.68226
 H1464 H 0.82020 0.95255 0.69850
 C1465 C 0.68888 0.59524 0.68914
 C1466 C 0.69997 0.58254 0.67569
 C1467 C 0.70873 0.56791 0.68440
 C1468 C 0.70555 0.56742 0.70571
 C1469 C 0.68412 0.56736 0.70818
 C1470 C 0.67535 0.58199 0.69946
 C1471 C 0.70318 0.60140 0.70406
 C1472 C 0.71194 0.58679 0.71276
 C1473 C 0.67955 0.61109 0.67985
 C1474 C 0.67207 0.62435 0.67241
 C1475 C 0.71508 0.55180 0.71519
 C1476 C 0.72311 0.53920 0.72318
 H1477 H 0.70084 0.58483 0.66064
 H1478 H 0.71711 0.55766 0.67683
 H1479 H 0.67650 0.55675 0.71605
 H1480 H 0.66022 0.58391 0.69987
 H1481 H 0.70617 0.61597 0.70749
 H1482 H 0.72242 0.58884 0.72365
 C1483 C 0.68892 0.09489 0.18867
 C1484 C 0.70050 0.08249 0.17537
 C1485 C 0.70928 0.06791 0.18415
 C1486 C 0.70560 0.06716 0.20537
 C1487 C 0.68412 0.06675 0.20732
 C1488 C 0.67534 0.08134 0.19854
 C1489 C 0.70276 0.10111 0.20398
 C1490 C 0.71153 0.08654 0.21276
 C1491 C 0.67956 0.11070 0.17932
 C1492 C 0.67208 0.12391 0.17183
 C1493 C 0.71514 0.05158 0.21491
 C1494 C 0.72317 0.03902 0.22294
 H1495 H 0.70169 0.08494 0.16037
 H1496 H 0.71798 0.05786 0.17667
 H1497 H 0.67648 0.05595 0.21492
 H1498 H 0.66018 0.08303 0.19861
 H1499 H 0.70545 0.11568 0.20762
 H1500 H 0.72172 0.08864 0.22390
 C1501 C 0.18853 0.59499 0.18859
 C1502 C 0.20007 0.58258 0.17526
 C1503 C 0.20880 0.56795 0.18401
 C1504 C 0.20514 0.56718 0.20523
 C1505 C 0.18365 0.56684 0.20720
 C1506 C 0.17492 0.58146 0.19845
 C1507 C 0.20240 0.60114 0.20391
 C1508 C 0.21113 0.58653 0.21265
 C1509 C 0.17922 0.61085 0.17927
 C1510 C 0.17177 0.62410 0.17181
 C1511 C 0.21463 0.55156 0.21475
 C1512 C 0.22263 0.53898 0.22277
 H1513 H 0.20126 0.58505 0.16027
 H1514 H 0.21748 0.55789 0.17651
 H1515 H 0.17598 0.55605 0.21478
 H1516 H 0.15976 0.58321 0.19853
 H1517 H 0.20514 0.61570 0.20757
 H1518 H 0.22133 0.58858 0.22380
 C1519 C 0.18861 0.09417 0.68902
 C1520 C 0.18491 0.09338 0.71024
 C1521 C 0.19368 0.07880 0.71900
 C1522 C 0.20530 0.06643 0.70570
 C1523 C 0.21886 0.08001 0.69587
 C1524 C 0.21009 0.09459 0.68711
 C1525 C 0.18269 0.07480 0.68158
 C1526 C 0.19147 0.06020 0.69036
 C1527 C 0.17926 0.10999 0.67968
 C1528 C 0.17178 0.12321 0.67220
 C1529 C 0.21483 0.05084 0.71523
 C1530 C 0.22288 0.03828 0.72325
 H1531 H 0.17616 0.10339 0.71772
 H1532 H 0.19244 0.07632 0.73399
 H1533 H 0.23402 0.07832 0.69579
 H1534 H 0.21774 0.10539 0.67952
 H1535 H 0.17251 0.07273 0.67042
 H1536 H 0.18881 0.04562 0.68671
 C1537 C 0.31082 0.59508 0.31091
 C1538 C 0.31629 0.59289 0.29018
 C1539 C 0.30753 0.57828 0.28144
 C1540 C 0.29414 0.56728 0.29428
 C1541 C 0.28055 0.58206 0.30214
 C1542 C 0.28931 0.59667 0.31087
 C1543 C 0.31500 0.57589 0.31985
 C1544 C 0.30623 0.56127 0.31110
 C1545 C 0.32016 0.61092 0.32022
 C1546 C 0.32763 0.62417 0.32769
 C1547 C 0.28461 0.55166 0.28478
 C1548 C 0.27659 0.53907 0.27677
 H1549 H 0.32619 0.60200 0.28300
 H1550 H 0.30993 0.57487 0.26678
 H1551 H 0.26536 0.58112 0.30096
 H1552 H 0.28162 0.60824 0.31717
 H1553 H 0.32405 0.57397 0.33197
 H1554 H 0.30776 0.54681 0.31573
 C1555 C 0.31110 0.09429 0.81146
 C1556 C 0.31680 0.09197 0.79081
 C1557 C 0.30806 0.07737 0.78204
 C1558 C 0.29446 0.06651 0.79477
 C1559 C 0.28086 0.08140 0.80239
 C1560 C 0.28960 0.09600 0.81117
 C1561 C 0.31506 0.07512 0.82054
 C1562 C 0.30631 0.06051 0.81175
 C1563 C 0.32041 0.11013 0.82082
 C1564 C 0.32788 0.12337 0.82830
 C1565 C 0.28495 0.05090 0.78522
 C1566 C 0.27694 0.03832 0.77719
 H1567 H 0.32684 0.10100 0.78371
 H1568 H 0.31061 0.07389 0.76742
 H1569 H 0.26568 0.08055 0.80104
 H1570 H 0.28191 0.10765 0.81733
 H1571 H 0.32396 0.07320 0.83277
 H1572 H 0.30771 0.04606 0.81646
 C1573 C 0.81141 0.59518 0.81117
 C1574 C 0.79541 0.58652 0.82275
 C1575 C 0.78664 0.57190 0.81402
 C1576 C 0.79473 0.56737 0.79457
 C1577 C 0.81579 0.56407 0.79787
 C1578 C 0.82457 0.57870 0.80661
 C1579 C 0.80239 0.60052 0.79234
 C1580 C 0.79363 0.58591 0.78362
 C1581 C 0.82075 0.61103 0.82047
 C1582 C 0.82823 0.62428 0.82792
 C1583 C 0.78519 0.55175 0.78507
 C1584 C 0.77716 0.53916 0.77707
 H1585 H 0.79134 0.59143 0.83660
 H1586 H 0.77506 0.56428 0.82039
 H1587 H 0.82316 0.55137 0.79374
 H1588 H 0.83945 0.57853 0.80995
 H1589 H 0.80285 0.61456 0.78637
 H1590 H 0.78658 0.58744 0.77018
 C1591 C 0.81172 0.09498 0.31092
 C1592 C 0.81753 0.09250 0.29032
 C1593 C 0.80873 0.07791 0.28157
 C1594 C 0.79498 0.06722 0.29428
 C1595 C 0.78144 0.08225 0.30175
 C1596 C 0.79023 0.09684 0.31049
 C1597 C 0.81549 0.07583 0.32013
 C1598 C 0.80669 0.06123 0.31137
 C1599 C 0.82109 0.11080 0.32024
 C1600 C 0.82859 0.12402 0.32772
 C1601 C 0.78541 0.05163 0.28478
 C1602 C 0.77735 0.03906 0.27678
 H1603 H 0.82767 0.10141 0.28322
 H1604 H 0.81134 0.07433 0.26699
 H1605 H 0.76627 0.08150 0.30030
 H1606 H 0.78259 0.10858 0.31653
 H1607 H 0.82430 0.07392 0.33242
 H1608 H 0.80795 0.04680 0.31617
 C1609 C 0.68905 0.40478 0.31087
 C1610 C 0.68792 0.42334 0.32181
 C1611 C 0.69670 0.43796 0.31306
 C1612 C 0.70573 0.43256 0.29424
 C1613 C 0.68974 0.42387 0.28265
 C1614 C 0.68097 0.40926 0.29140
 C1615 C 0.71011 0.40150 0.30758
 C1616 C 0.71887 0.41610 0.29885
 C1617 C 0.67971 0.38894 0.32019
 C1618 C 0.67223 0.37570 0.32765
 C1619 C 0.71525 0.44817 0.28473
 C1620 C 0.72327 0.46075 0.27672
 H1621 H 0.68086 0.42487 0.33522
 H1622 H 0.69714 0.45201 0.31898
 H1623 H 0.68565 0.42876 0.26881
 H1624 H 0.66938 0.40165 0.28504
 H1625 H 0.71750 0.38882 0.31177
 H1626 H 0.73377 0.41592 0.29554
 C1627 C 0.68891 0.90572 0.81126
 C1628 C 0.68782 0.92429 0.82221
 C1629 C 0.69657 0.93890 0.81343
 C1630 C 0.70554 0.93351 0.79459
 C1631 C 0.68952 0.92482 0.78305
 C1632 C 0.68078 0.91021 0.79181
 C1633 C 0.70996 0.90244 0.80792
 C1634 C 0.71870 0.91704 0.79916
 C1635 C 0.67959 0.88989 0.82060
 C1636 C 0.67212 0.87665 0.82807
 C1637 C 0.71505 0.94911 0.78506
 C1638 C 0.72306 0.96169 0.77703
 H1639 H 0.68079 0.92582 0.83564
 H1640 H 0.69703 0.95296 0.81936
 H1641 H 0.68539 0.92972 0.76922
 H1642 H 0.66916 0.90261 0.78549
 H1643 H 0.71736 0.88977 0.81208
 H1644 H 0.73358 0.91686 0.79581
 C1645 C 0.18858 0.40473 0.81142
 C1646 C 0.18533 0.40523 0.79012
 C1647 C 0.19408 0.41984 0.78139
 C1648 C 0.20524 0.43253 0.79480
 C1649 C 0.21877 0.41925 0.80507
 C1650 C 0.21002 0.40464 0.81380
 C1651 C 0.18224 0.42410 0.81851
 C1652 C 0.19101 0.43872 0.80976
 C1653 C 0.17925 0.38888 0.82072
 C1654 C 0.17178 0.37563 0.82817
 C1655 C 0.21476 0.44814 0.78529
 C1656 C 0.22278 0.46072 0.77727
 H1657 H 0.17688 0.39502 0.78256
 H1658 H 0.19313 0.42214 0.76635
 H1659 H 0.23391 0.42116 0.80547
 H1660 H 0.21766 0.39404 0.82168
 H1661 H 0.17180 0.42614 0.82942
 H1662 H 0.18807 0.45330 0.81319
 C1663 C 0.18867 0.90564 0.31105
 C1664 C 0.18600 0.92457 0.32105
 C1665 C 0.19475 0.93919 0.31229
 C1666 C 0.20532 0.93342 0.29440
 C1667 C 0.19058 0.92355 0.28213
 C1668 C 0.18183 0.90895 0.29089
 C1669 C 0.21003 0.90317 0.30938
 C1670 C 0.21878 0.91777 0.30063
 C1671 C 0.17935 0.88980 0.32038
 C1672 C 0.17188 0.87655 0.32785
 C1673 C 0.21484 0.94903 0.28488
 C1674 C 0.22287 0.96161 0.27688
 H1675 H 0.17793 0.92634 0.33386
 H1676 H 0.19420 0.95348 0.31760
 H1677 H 0.18728 0.92768 0.26783
 H1678 H 0.17104 0.90057 0.28409
 H1679 H 0.21763 0.89102 0.31463
 H1680 H 0.23387 0.91812 0.29838
 C1681 C 0.40483 0.31062 0.68927
 C1682 C 0.40403 0.31186 0.71077
 C1683 C 0.41863 0.30309 0.71950
 C1684 C 0.43262 0.29394 0.70588
 C1685 C 0.43876 0.30985 0.69267
 C1686 C 0.42414 0.31862 0.68393
 C1687 C 0.40610 0.28953 0.68492
 C1688 C 0.42070 0.28076 0.69365
 C1689 C 0.38899 0.31997 0.67997
 C1690 C 0.37575 0.32744 0.67251
 C1691 C 0.44823 0.28441 0.71537
 C1692 C 0.46082 0.27638 0.72336
 H1693 H 0.39296 0.31900 0.71847
 H1694 H 0.42008 0.30273 0.73467
 H1695 H 0.45330 0.31386 0.69038
 H1696 H 0.42616 0.33015 0.67416
 H1697 H 0.39638 0.28213 0.67577
 H1698 H 0.42350 0.26586 0.69198
 C1699 C 0.40492 0.81160 0.18878
 C1700 C 0.41859 0.80194 0.17518
 C1701 C 0.43319 0.79315 0.18392
 C1702 C 0.43268 0.79489 0.20540
 C1703 C 0.41333 0.78732 0.21116
 C1704 C 0.39874 0.79610 0.20242
 C1705 C 0.41719 0.82489 0.20054
 C1706 C 0.43179 0.81610 0.20929
 C1707 C 0.38910 0.82096 0.17946
 C1708 C 0.37587 0.82845 0.17200
 C1709 C 0.44828 0.78534 0.21490
 C1710 C 0.46084 0.77730 0.22292
 H1711 H 0.41696 0.80201 0.16003
 H1712 H 0.44407 0.78569 0.17626
 H1713 H 0.41125 0.77605 0.22121
 H1714 H 0.38418 0.79234 0.20500
 H1715 H 0.41464 0.83987 0.20188
 H1716 H 0.44175 0.82356 0.21811
 C1717 C 0.90561 0.31115 0.18857
 C1718 C 0.90494 0.31268 0.21005
 C1719 C 0.91955 0.30396 0.21881
 C1720 C 0.93342 0.29456 0.20523
 C1721 C 0.93956 0.31025 0.19178
 C1722 C 0.92493 0.31898 0.18301
 C1723 C 0.90675 0.29000 0.18449
 C1724 C 0.92136 0.28127 0.19325
 C1725 C 0.88976 0.32045 0.17923
 C1726 C 0.87651 0.32790 0.17177
 C1727 C 0.94904 0.28507 0.21476
 C1728 C 0.96162 0.27707 0.22278
 H1729 H 0.89396 0.31998 0.21771
 H1730 H 0.92109 0.30379 0.23397
 H1731 H 0.95411 0.31416 0.18935
 H1732 H 0.92695 0.33037 0.17307
 H1733 H 0.89695 0.28252 0.17550
 H1734 H 0.92407 0.26633 0.19176
 C1735 C 0.90529 0.81179 0.68898
 C1736 C 0.91894 0.80212 0.67536
 C1737 C 0.93356 0.79334 0.68409
 C1738 C 0.93309 0.79509 0.70556
 C1739 C 0.91374 0.78752 0.71135
 C1740 C 0.89914 0.79629 0.70264
 C1741 C 0.91758 0.82508 0.70072
 C1742 C 0.93219 0.81630 0.70945
 C1743 C 0.88945 0.82114 0.67968
 C1744 C 0.87621 0.82861 0.67223
 C1745 C 0.94870 0.78554 0.71504
 C1746 C 0.96128 0.77749 0.72302
 H1747 H 0.91729 0.80219 0.66021
 H1748 H 0.94442 0.78588 0.67641
 H1749 H 0.91169 0.77625 0.72142
 H1750 H 0.88459 0.79253 0.70524
 H1751 H 0.91503 0.84007 0.70206
 H1752 H 0.94217 0.82376 0.71825
 C1753 C 0.59506 0.31088 0.31092
 C1754 C 0.59331 0.31580 0.29001
 C1755 C 0.57869 0.30704 0.28128
 C1756 C 0.56725 0.29422 0.29431
 C1757 C 0.56118 0.30689 0.31067
 C1758 C 0.57581 0.31566 0.31941
 C1759 C 0.59626 0.28935 0.31153
 C1760 C 0.58164 0.28060 0.30280
 C1761 C 0.61091 0.32022 0.32023
 C1762 C 0.62416 0.32769 0.32768
 C1763 C 0.55162 0.28470 0.28481
 C1764 C 0.53902 0.27668 0.27681
 H1765 H 0.60271 0.32533 0.28271
 H1766 H 0.57558 0.30907 0.26650
 H1767 H 0.54668 0.30881 0.31501
 H1768 H 0.57385 0.32508 0.33124
 H1769 H 0.60759 0.28165 0.31824
 H1770 H 0.58046 0.26540 0.30203
 C1771 C 0.59496 0.81183 0.81130
 C1772 C 0.60101 0.79919 0.79491
 C1773 C 0.58640 0.79043 0.78619
 C1774 C 0.56715 0.79515 0.79468
 C1775 C 0.56591 0.81669 0.79410
 C1776 C 0.58054 0.82546 0.80284
 C1777 C 0.58354 0.79898 0.82432
 C1778 C 0.56892 0.79021 0.81558
 C1779 C 0.61080 0.82117 0.82061
 C1780 C 0.62405 0.82864 0.82807
 C1781 C 0.55154 0.78562 0.78518
 C1782 C 0.53896 0.77759 0.77717
 H1783 H 0.61550 0.79729 0.79055
 H1784 H 0.58839 0.78103 0.77434
 H1785 H 0.55455 0.82437 0.78743
 H1786 H 0.58170 0.84065 0.80366
 H1787 H 0.58665 0.79696 0.83911
 H1788 H 0.55951 0.78068 0.82288
 C1789 C 0.09476 0.31073 0.81119
 C1790 C 0.09781 0.30800 0.79004
 C1791 C 0.08323 0.29925 0.78125
 C1792 C 0.06700 0.29408 0.79447
 C1793 C 0.06146 0.31261 0.80403
 C1794 C 0.07606 0.32137 0.81283
 C1795 C 0.09065 0.29098 0.81883
 C1796 C 0.07606 0.28223 0.81004
 C1797 C 0.11058 0.32005 0.82056
 C1798 C 0.12380 0.32753 0.82806
 C1799 C 0.05141 0.28457 0.78492
 C1800 C 0.03883 0.27656 0.77688
 H1801 H 0.11033 0.31255 0.78260
 H1802 H 0.08325 0.29632 0.76630
 H1803 H 0.04732 0.31835 0.80391
 H1804 H 0.07444 0.33461 0.82024
 H1805 H 0.09849 0.28444 0.83015
 H1806 H 0.07140 0.26820 0.81384
 C1807 C 0.09483 0.81160 0.31106
 C1808 C 0.09798 0.80853 0.28996
 C1809 C 0.08339 0.79973 0.28123
 C1810 C 0.06706 0.79486 0.29444
 C1811 C 0.06158 0.81357 0.30368
 C1812 C 0.07618 0.82237 0.31242
 C1813 C 0.09056 0.79199 0.31897
 C1814 C 0.07596 0.78319 0.31024
 C1815 C 0.11065 0.82097 0.32037
 C1816 C 0.12388 0.82847 0.32783
 C1817 C 0.05147 0.78529 0.28495
 C1818 C 0.03890 0.77723 0.27695
 H1819 H 0.11056 0.81289 0.28253
 H1820 H 0.08348 0.79656 0.26632
 H1821 H 0.04748 0.81938 0.30339
 H1822 H 0.07460 0.83573 0.31962
 H1823 H 0.09830 0.78559 0.33044
 H1824 H 0.07121 0.76925 0.31423
 C1825 C 0.59501 0.68925 0.68921
 C1826 C 0.58094 0.67563 0.69827
 C1827 C 0.56633 0.68441 0.70700
 C1828 C 0.56722 0.70594 0.70581
 C1829 C 0.56857 0.71033 0.68475
 C1830 C 0.58319 0.70155 0.67602
 C1831 C 0.60113 0.70243 0.70514
 C1832 C 0.58653 0.71120 0.71386
 C1833 C 0.61085 0.67990 0.67991
 C1834 C 0.62408 0.67242 0.67245
 C1835 C 0.55161 0.71548 0.71529
 C1836 C 0.53903 0.72351 0.72329
 H1837 H 0.58233 0.66044 0.69785
 H1838 H 0.55519 0.67674 0.71406
 H1839 H 0.55890 0.71950 0.67735
 H1840 H 0.58603 0.70321 0.66114
 H1841 H 0.61566 0.70468 0.70922
 H1842 H 0.58856 0.72095 0.72541
 C1843 C 0.59488 0.18860 0.18857
 C1844 C 0.58064 0.17493 0.19728
 C1845 C 0.56602 0.18367 0.20605
 C1846 C 0.56708 0.20521 0.20524
 C1847 C 0.56863 0.20995 0.18428
 C1848 C 0.58325 0.20122 0.17551
 C1849 C 0.60096 0.20145 0.20477
 C1850 C 0.58637 0.21018 0.21353
 C1851 C 0.61072 0.17930 0.17923
 C1852 C 0.62396 0.17185 0.17176
 C1853 C 0.55148 0.21470 0.21478
 C1854 C 0.53890 0.22270 0.22282
 H1855 H 0.58191 0.15974 0.19660
 H1856 H 0.55477 0.17596 0.21289
 H1857 H 0.55908 0.21933 0.17696
 H1858 H 0.58622 0.20312 0.16068
 H1859 H 0.61548 0.20352 0.20900
 H1860 H 0.58838 0.21971 0.22526
 C1861 C 0.09480 0.68903 0.18869
 C1862 C 0.08069 0.67539 0.19765
 C1863 C 0.06609 0.68414 0.20643
 C1864 C 0.06704 0.70567 0.20539
 C1865 C 0.06842 0.71020 0.18436
 C1866 C 0.08301 0.70145 0.17558
 C1867 C 0.10094 0.70208 0.20471
 C1868 C 0.08636 0.71083 0.21348
 C1869 C 0.11062 0.67970 0.17934
 C1870 C 0.12384 0.67222 0.17186
 C1871 C 0.05145 0.71518 0.21493
 C1872 C 0.03888 0.72319 0.22297
 H1873 H 0.08204 0.66020 0.19712
 H1874 H 0.05493 0.67645 0.21343
 H1875 H 0.05877 0.71945 0.17701
 H1876 H 0.08587 0.70320 0.16071
 H1877 H 0.11547 0.70427 0.20882
 H1878 H 0.08840 0.72050 0.22510
 C1879 C 0.09467 0.18806 0.68892
 C1880 C 0.09222 0.18229 0.70953
 C1881 C 0.07763 0.19108 0.71826
 C1882 C 0.06691 0.20479 0.70553
 C1883 C 0.06093 0.19303 0.68846
 C1884 C 0.07553 0.18423 0.67972
 C1885 C 0.09651 0.20956 0.68930
 C1886 C 0.08192 0.21834 0.69803
 C1887 C 0.11050 0.17870 0.67961
 C1888 C 0.12373 0.17122 0.67216
 C1889 C 0.05132 0.21435 0.71502
 C1890 C 0.03875 0.22241 0.72301
 H1891 H 0.10115 0.17218 0.71665
 H1892 H 0.07406 0.18849 0.73285
 H1893 H 0.04650 0.19172 0.68367
 H1894 H 0.07362 0.17539 0.66745
 H1895 H 0.10823 0.21721 0.68324
 H1896 H 0.08115 0.23352 0.69944
 C1897 C 0.40476 0.68904 0.31095
 C1898 C 0.42368 0.68635 0.32095
 C1899 C 0.43830 0.69512 0.31222
 C1900 C 0.43255 0.70572 0.29435
 C1901 C 0.41689 0.71918 0.30059
 C1902 C 0.40229 0.71041 0.30931
 C1903 C 0.40808 0.68223 0.29077
 C1904 C 0.42269 0.69100 0.28205
 C1905 C 0.38891 0.67970 0.32025
 C1906 C 0.37567 0.67222 0.32770
 C1907 C 0.44816 0.71525 0.28485
 C1908 C 0.46075 0.72328 0.27686
 H1909 H 0.42544 0.67826 0.33376
 H1910 H 0.45259 0.69456 0.31754
 H1911 H 0.41725 0.73427 0.29837
 H1912 H 0.39014 0.71800 0.31456
 H1913 H 0.39971 0.67145 0.28395
 H1914 H 0.42683 0.68773 0.26775
 C1915 C 0.40500 0.18819 0.81153
 C1916 C 0.41785 0.19913 0.82496
 C1917 C 0.43246 0.20789 0.81620
 C1918 C 0.43278 0.20484 0.79487
 C1919 C 0.41341 0.21136 0.78800
 C1920 C 0.39881 0.20262 0.79675
 C1921 C 0.41811 0.17466 0.80102
 C1922 C 0.43272 0.18342 0.79226
 C1923 C 0.38917 0.17887 0.82086
 C1924 C 0.37593 0.17140 0.82832
 C1925 C 0.44838 0.21435 0.78534
 C1926 C 0.46095 0.22237 0.77731
 H1927 H 0.41568 0.19992 0.84003
 H1928 H 0.44281 0.21617 0.82376
 H1929 H 0.41133 0.22193 0.77720
 H1930 H 0.38424 0.20569 0.79345
 H1931 H 0.41610 0.15954 0.80052
 H1932 H 0.44323 0.17580 0.78425
 C1933 C 0.90527 0.68918 0.81108
 C1934 C 0.92421 0.68653 0.82108
 C1935 C 0.93882 0.69529 0.81231
 C1936 C 0.93304 0.70583 0.79440
 C1937 C 0.91738 0.71929 0.80062
 C1938 C 0.90279 0.71054 0.80938
 C1939 C 0.90859 0.68230 0.79092
 C1940 C 0.92319 0.69105 0.78216
 C1941 C 0.88945 0.67985 0.82042
 C1942 C 0.87622 0.67237 0.82789
 C1943 C 0.94865 0.71534 0.78487
 C1944 C 0.96122 0.72336 0.77685
 H1945 H 0.92598 0.67849 0.83391
 H1946 H 0.95311 0.69475 0.81762
 H1947 H 0.91772 0.73437 0.79834
 H1948 H 0.89064 0.71813 0.81461
 H1949 H 0.90023 0.67150 0.78414
 H1950 H 0.92732 0.68774 0.76786
 C1951 C 0.90572 0.18884 0.31093
 C1952 C 0.90180 0.19356 0.29027
 C1953 C 0.91639 0.20231 0.28152
 C1954 C 0.93349 0.20549 0.29426
 C1955 C 0.93848 0.18594 0.30190
 C1956 C 0.92387 0.17718 0.31067
 C1957 C 0.91125 0.20762 0.32000
 C1958 C 0.92585 0.21637 0.31123
 C1959 C 0.88989 0.17951 0.32027
 C1960 C 0.87666 0.17204 0.32774
 C1961 C 0.94909 0.21502 0.28474
 C1962 C 0.96166 0.22305 0.27672
 H1963 H 0.88871 0.19030 0.28314
 H1964 H 0.91579 0.20654 0.26689
 H1965 H 0.95227 0.17955 0.30055
 H1966 H 0.92514 0.16328 0.31683
 H1967 H 0.90432 0.21351 0.33223
 H1968 H 0.93143 0.22977 0.31597
 C1969 C 0.31091 0.31063 0.59547
 C1970 C 0.29667 0.29565 0.60162
 C1971 C 0.28792 0.28690 0.58703
 C1972 C 0.29425 0.29399 0.56769
 C1973 C 0.31569 0.29160 0.56759
 C1974 C 0.32445 0.30035 0.58220
 C1975 C 0.29976 0.32407 0.58281
 C1976 C 0.29100 0.31532 0.56820
 C1977 C 0.32024 0.31996 0.61130
 C1978 C 0.32771 0.32743 0.62453
 C1979 C 0.28473 0.28448 0.55208
 C1980 C 0.27671 0.27647 0.53950
 H1981 H 0.29371 0.29220 0.61617
 H1982 H 0.27747 0.27597 0.58908
 H1983 H 0.32332 0.28374 0.55698
 H1984 H 0.33958 0.29999 0.58411
 H1985 H 0.29884 0.33913 0.58510
 H1986 H 0.28257 0.32288 0.55798
 C1987 C 0.31108 0.81161 0.09496
 C1988 C 0.29712 0.79637 0.10112
 C1989 C 0.28840 0.78758 0.08654
 C1990 C 0.29448 0.79488 0.06720
 C1991 C 0.31596 0.79282 0.06694
 C1992 C 0.32468 0.80162 0.08154
 C1993 C 0.29963 0.82495 0.08246
 C1994 C 0.29090 0.81615 0.06786
 C1995 C 0.32038 0.82098 0.11078
 C1996 C 0.32784 0.82847 0.12401
 C1997 C 0.28500 0.78531 0.05161
 C1998 C 0.27702 0.77724 0.03904
 H1999 H 0.29432 0.79279 0.11567
 H2000 H 0.27814 0.77647 0.08860
 H2001 H 0.32363 0.78515 0.05623
 H2002 H 0.33983 0.80149 0.08334
 H2003 H 0.29849 0.83997 0.08486
 H2004 H 0.28229 0.82363 0.05775
 C2005 C 0.81150 0.31107 0.09481
 C2006 C 0.82313 0.31075 0.07666
 C2007 C 0.81430 0.30202 0.06207
 C2008 C 0.79472 0.29448 0.06707
 C2009 C 0.78395 0.31154 0.07473
 C2010 C 0.79277 0.32026 0.08931
 C2011 C 0.80666 0.29042 0.09872
 C2012 C 0.79784 0.28170 0.08415
 C2013 C 0.82090 0.32037 0.11062
 C2014 C 0.82841 0.32783 0.12383
 C2015 C 0.78512 0.28500 0.05149
 C2016 C 0.77705 0.27701 0.03893
 H2017 H 0.83706 0.31684 0.07538
 H2018 H 0.82067 0.30064 0.04829
 H2019 H 0.77058 0.31635 0.06918
 H2020 H 0.78696 0.33254 0.09624
 H2021 H 0.80989 0.28326 0.11178
 H2022 H 0.79352 0.26708 0.08473
 C2023 C 0.81135 0.81164 0.59527
 C2024 C 0.79708 0.79670 0.60146
 C2025 C 0.78835 0.78790 0.58690
 C2026 C 0.79471 0.79489 0.56754
 C2027 C 0.81615 0.79248 0.56748
 C2028 C 0.82490 0.80129 0.58207
 C2029 C 0.80023 0.82503 0.58253
 C2030 C 0.79148 0.81623 0.56795
 C2031 C 0.82067 0.82102 0.61107
 C2032 C 0.82814 0.82853 0.62428
 C2033 C 0.78521 0.78532 0.55196
 C2034 C 0.77719 0.77726 0.53940
 H2035 H 0.79411 0.79332 0.61603
 H2036 H 0.77789 0.77699 0.58898
 H2037 H 0.82379 0.78457 0.55692
 H2038 H 0.84003 0.80092 0.58400
 H2039 H 0.79933 0.84010 0.58476
 H2040 H 0.78308 0.82375 0.55768
 C2041 C 0.31086 0.68904 0.40472
 C2042 C 0.30893 0.67667 0.42227
 C2043 C 0.30018 0.68544 0.43688
 C2044 C 0.29423 0.70571 0.43248
 C2045 C 0.28205 0.70424 0.41476
 C2046 C 0.29078 0.69548 0.40017
 C2047 C 0.32104 0.70682 0.41147
 C2048 C 0.31230 0.71559 0.42607
 C2049 C 0.32018 0.67970 0.38889
 C2050 C 0.32764 0.67222 0.37567
 C2051 C 0.28473 0.71524 0.44808
 C2052 C 0.27672 0.72326 0.46066
 H2053 H 0.31399 0.66230 0.42315
 H2054 H 0.29775 0.67859 0.45027
 H2055 H 0.26780 0.70960 0.41376
 H2056 H 0.28401 0.69334 0.38668
 H2057 H 0.33399 0.71206 0.40534
 H2058 H 0.31776 0.72833 0.43244
 C2059 C 0.31107 0.18832 0.90527
 C2060 C 0.32393 0.20174 0.91622
 C2061 C 0.31518 0.21054 0.93080
 C2062 C 0.29444 0.20505 0.93300
 C2063 C 0.29448 0.18353 0.93465
 C2064 C 0.30322 0.17473 0.92007
 C2065 C 0.29422 0.20037 0.89926
 C2066 C 0.28549 0.20916 0.91383
 C2067 C 0.32039 0.17894 0.88947
 C2068 C 0.32786 0.17145 0.87626
 C2069 C 0.28493 0.21461 0.94858
 C2070 C 0.27693 0.22267 0.96113
 H2071 H 0.33861 0.20412 0.91283
 H2072 H 0.32237 0.22045 0.93990
 H2073 H 0.28820 0.17589 0.94626
 H2074 H 0.30445 0.15955 0.91918
 H2075 H 0.28956 0.20187 0.88483
 H2076 H 0.27334 0.21818 0.91187
 C2077 C 0.81133 0.68912 0.90491
 C2078 C 0.80930 0.67669 0.92241
 C2079 C 0.80049 0.68542 0.93701
 C2080 C 0.79459 0.70571 0.93266
 C2081 C 0.78249 0.70431 0.91488
 C2082 C 0.79128 0.69560 0.90030
 C2083 C 0.82150 0.70686 0.91177
 C2084 C 0.81271 0.71559 0.92636
 C2085 C 0.82070 0.67981 0.88910
 C2086 C 0.82819 0.67235 0.87588
 C2087 C 0.78502 0.71519 0.94825
 C2088 C 0.77696 0.72317 0.96081
 H2089 H 0.81434 0.66231 0.92327
 H2090 H 0.79799 0.67852 0.95037
 H2091 H 0.76825 0.70969 0.91383
 H2092 H 0.78457 0.69351 0.88677
 H2093 H 0.83449 0.71211 0.90572
 H2094 H 0.81815 0.72830 0.93280
 C2095 C 0.81180 0.18880 0.40478
 C2096 C 0.80427 0.20841 0.39987
 C2097 C 0.79549 0.21713 0.41445
 C2098 C 0.79508 0.20540 0.43253
 C2099 C 0.81572 0.20057 0.43653
 C2100 C 0.82452 0.19183 0.42193
 C2101 C 0.79472 0.17797 0.41228
 C2102 C 0.78593 0.18670 0.42687
 C2103 C 0.82116 0.17949 0.38896
 C2104 C 0.82864 0.17203 0.37573
 C2105 C 0.78552 0.21490 0.44811
 C2106 C 0.77746 0.22289 0.46067
 H2107 H 0.80572 0.21488 0.38615
 H2108 H 0.78942 0.23107 0.41321
 H2109 H 0.82280 0.20371 0.44966
 H2110 H 0.83913 0.18749 0.42256
 H2111 H 0.78996 0.16461 0.40665
 H2112 H 0.77364 0.18082 0.43373
 C2113 C 0.68906 0.31091 0.40468
 C2114 C 0.68084 0.31598 0.42395
 C2115 C 0.68962 0.30723 0.43856
 C2116 C 0.70575 0.29428 0.43244
 C2117 C 0.71885 0.30681 0.42075
 C2118 C 0.71008 0.31555 0.40617
 C2119 C 0.68814 0.28938 0.40368
 C2120 C 0.69691 0.28064 0.41826
 C2121 C 0.67971 0.32023 0.38886
 C2122 C 0.67223 0.32769 0.37564
 C2123 C 0.71529 0.28478 0.44803
 C2124 C 0.72332 0.27677 0.46060
 H2125 H 0.66916 0.32558 0.42595
 H2126 H 0.68546 0.30934 0.45307
 H2127 H 0.73371 0.30867 0.42369
 H2128 H 0.71742 0.32489 0.39661
 H2129 H 0.68119 0.28167 0.39250
 H2130 H 0.69747 0.26545 0.41957
 C2131 C 0.68889 0.81165 0.90501
 C2132 C 0.70259 0.79618 0.89882
 C2133 C 0.71131 0.78737 0.91338
 C2134 C 0.70549 0.79487 0.93273
 C2135 C 0.68399 0.79309 0.93317
 C2136 C 0.67526 0.80192 0.91859
 C2137 C 0.70063 0.82491 0.91734
 C2138 C 0.70935 0.81608 0.93192
 C2139 C 0.67959 0.82104 0.88921
 C2140 C 0.67213 0.82856 0.87600
 C2141 C 0.71497 0.78527 0.94830
 C2142 C 0.72295 0.77719 0.96085
 H2143 H 0.70522 0.79248 0.88427
 H2144 H 0.72140 0.77611 0.91130
 H2145 H 0.67630 0.78559 0.94399
 H2146 H 0.66010 0.80197 0.91692
 H2147 H 0.70195 0.83990 0.91485
 H2148 H 0.71815 0.82352 0.94192
 C2149 C 0.18864 0.31077 0.90513
 C2150 C 0.20243 0.29538 0.89898
 C2151 C 0.21120 0.28665 0.91357
 C2152 C 0.20534 0.29417 0.93289
 C2153 C 0.18385 0.29227 0.93335
 C2154 C 0.17507 0.30100 0.91875
 C2155 C 0.20029 0.32414 0.91742
 C2156 C 0.20908 0.31540 0.93202
 C2157 C 0.17928 0.32008 0.88931
 C2158 C 0.17180 0.32754 0.87609
 C2159 C 0.21489 0.28468 0.94849
 C2160 C 0.22293 0.27669 0.96106
 H2161 H 0.20507 0.29165 0.88444
 H2162 H 0.22136 0.27545 0.91151
 H2163 H 0.17621 0.28474 0.94419
 H2164 H 0.15990 0.30096 0.91708
 H2165 H 0.20153 0.33913 0.91490
 H2166 H 0.21783 0.32292 0.94200
 C2167 C 0.18868 0.81166 0.40486
 C2168 C 0.20238 0.79619 0.39869
 C2169 C 0.21111 0.78741 0.41327
 C2170 C 0.20529 0.79495 0.43260
 C2171 C 0.18380 0.79317 0.43307
 C2172 C 0.17506 0.80196 0.41847
 C2173 C 0.20042 0.82495 0.41715
 C2174 C 0.20915 0.81616 0.43174
 C2175 C 0.17937 0.82103 0.38904
 C2176 C 0.17191 0.82851 0.37582
 C2177 C 0.21479 0.78539 0.44819
 C2178 C 0.22279 0.77734 0.46075
 H2179 H 0.20500 0.79245 0.38415
 H2180 H 0.22120 0.77615 0.41120
 H2181 H 0.17612 0.78569 0.44390
 H2182 H 0.15989 0.80201 0.41681
 H2183 H 0.20173 0.83994 0.41463
 H2184 H 0.21795 0.82362 0.44172
 C2185 C 0.68889 0.68918 0.59540
 C2186 C 0.67548 0.69505 0.57957
 C2187 C 0.68424 0.70379 0.56496
 C2188 C 0.70556 0.70580 0.56763
 C2189 C 0.71266 0.68574 0.57122
 C2190 C 0.70390 0.67700 0.58582
 C2191 C 0.69915 0.70729 0.60105
 C2192 C 0.70791 0.71603 0.58646
 C2193 C 0.67956 0.67986 0.61123
 C2194 C 0.67208 0.67240 0.62445
 C2195 C 0.71509 0.71529 0.55203
 C2196 C 0.72313 0.72329 0.53946
 H2197 H 0.66043 0.69255 0.57981
 H2198 H 0.67671 0.70878 0.55269
 H2199 H 0.72360 0.67900 0.56300
 H2200 H 0.70733 0.66277 0.59011
 H2201 H 0.69950 0.71279 0.61526
 H2202 H 0.71576 0.72900 0.58819
 C2203 C 0.68882 0.18873 0.09479
 C2204 C 0.67661 0.20364 0.08511
 C2205 C 0.68537 0.21241 0.07052
 C2206 C 0.70548 0.20542 0.06705
 C2207 C 0.70361 0.18408 0.06444
 C2208 C 0.69485 0.17530 0.07903
 C2209 C 0.70685 0.19912 0.10049
 C2210 C 0.71560 0.20788 0.08592
 C2211 C 0.67949 0.17938 0.11060
 C2212 C 0.67202 0.17190 0.12382
 C2213 C 0.71499 0.21496 0.05147
 C2214 C 0.72300 0.22301 0.03891
 H2215 H 0.66234 0.20699 0.08932
 H2216 H 0.67860 0.22328 0.06224
 H2217 H 0.70870 0.17653 0.05221
 H2218 H 0.69244 0.16023 0.07930
 H2219 H 0.71227 0.19955 0.11473
 H2220 H 0.72851 0.21582 0.08768
 C2221 C 0.18876 0.68898 0.09488
 C2222 C 0.17797 0.70605 0.08729
 C2223 C 0.18677 0.71479 0.07271
 C2224 C 0.20548 0.70561 0.06716
 C2225 C 0.20063 0.68496 0.06319
 C2226 C 0.19183 0.67621 0.07778
 C2227 C 0.20835 0.69651 0.09985
 C2228 C 0.21714 0.70525 0.08528
 C2229 C 0.17938 0.67966 0.11069
 C2230 C 0.17189 0.67219 0.12390
 C2231 C 0.21504 0.71512 0.05158
 C2232 C 0.22309 0.72312 0.03902
 H2233 H 0.16460 0.71083 0.09285
 H2234 H 0.18093 0.72707 0.06579
 H2235 H 0.20382 0.67784 0.05009
 H2236 H 0.18748 0.66159 0.07717
 H2237 H 0.21477 0.69509 0.11361
 H2238 H 0.23108 0.71131 0.08657
 C2239 C 0.18857 0.18808 0.59518
 C2240 C 0.20332 0.17582 0.58532
 C2241 C 0.21207 0.18461 0.57074
 C2242 C 0.20521 0.20480 0.56745
 C2243 C 0.20786 0.21477 0.58638
 C2244 C 0.19912 0.20599 0.60094
 C2245 C 0.17509 0.19432 0.57955
 C2246 C 0.18384 0.20311 0.56496
 C2247 C 0.17924 0.17872 0.61099
 C2248 C 0.17178 0.17123 0.62420
 C2249 C 0.21472 0.21436 0.55188
 C2250 C 0.22273 0.22241 0.53933
 H2251 H 0.20659 0.16149 0.58942
 H2252 H 0.22284 0.17781 0.56235
 H2253 H 0.21591 0.22762 0.58818
 H2254 H 0.19968 0.21132 0.61522
 H2255 H 0.16001 0.19202 0.57989
 H2256 H 0.17626 0.20834 0.55281
   
