data_POSCAR
  _audit_creation_date              2014-09-24
  _audit_creation_method            'ToBaCCo'
  _symmetry_space_group_name_H-M    'P1'
  _symmetry_Int_Tables_number       1
  _symmetry_cell_setting            triclinic
  loop_
  _symmetry_equiv_pos_as_xyz
 x,y,z
_cell_length_a 54.8335
_cell_length_b 54.7296
_cell_length_c 54.6744
_cell_angle_alpha 90.157700
_cell_angle_beta 90.078600
_cell_angle_gamma 89.956200
loop_
  _atom_site_label
  _atom_site_type_symbol
  _atom_site_fract_x
  _atom_site_fract_y
  _atom_site_fract_z
N1 N 0.29981 1.29710 0.29942
 N2 N 0.29672 0.79531 0.79620
 N3 N 0.79889 1.29969 0.79895
 N4 N 0.79611 0.79589 0.29448
 N5 N 0.70577 0.70637 0.29441
 N6 N 0.70602 0.20691 0.79490
 N7 N 1.20470 0.70499 0.79579
 N8 N 1.20445 0.20426 0.29767
 N9 N 0.61898 1.38130 0.62096
 N10 N 0.70673 0.79792 1.20344
 N11 N 1.20374 1.29819 1.20409
 N12 N 1.20682 0.79353 0.70633
 N13 N 0.29745 0.70440 0.70528
 N14 N 0.29883 0.20366 1.20460
 N15 N 0.79722 0.70661 1.20375
 N16 N 0.79289 0.20893 0.70893
 N17 N 1.30217 0.30482 0.69895
 N18 N 1.30330 0.80466 1.19877
 N19 N 0.78935 0.28690 1.21292
 N20 N 0.78851 0.78537 0.71572
 N21 N 0.71260 0.71267 0.71262
 N22 N 0.70846 1.20927 1.21036
 N23 N 0.19932 0.70083 1.20002
 N24 N 0.12293 1.12141 0.62014
 N25 N 1.37730 0.62215 0.38028
 N26 N 1.30163 1.20067 0.80183
 N27 N 0.78664 0.71300 0.78744
 N28 N 0.79143 1.20355 0.29608
 N29 N 0.71084 0.28793 0.29024
 N30 N 0.71272 0.78472 0.78857
 N31 N 0.20041 0.30187 0.80037
 N32 N 0.19868 0.80429 0.30354
 O33 O 0.97446 0.91119 0.87641
 O34 O 0.97478 0.88255 0.84794
 C35 C 0.96594 0.90215 0.85675
 C36 C 0.94431 0.91339 0.84506
 C37 C 0.93061 0.89983 0.82804
 H38 H 0.93680 0.88194 0.82218
 O39 O 1.02207 1.08566 0.87803
 O40 O 1.02191 1.11357 0.84900
 C41 C 1.02988 1.09360 0.85770
 C42 C 1.04890 1.07982 0.84442
 C43 C 1.05536 1.08617 0.82042
 H44 H 1.04579 1.10074 0.81104
 O45 O 0.87558 0.97457 0.90924
 O46 O 0.84747 0.97523 0.88034
 C47 C 0.85608 0.96614 0.89986
 C48 C 0.84434 0.94444 0.91079
 C49 C 0.82781 0.93037 0.89699
 H50 H 0.82236 0.93624 0.87886
 O51 O 1.12043 1.02334 0.91145
 O52 O 1.14836 1.02383 0.88248
 C53 C 1.13977 1.03226 0.90236
 C54 C 1.15187 1.05327 0.91449
 C55 C 1.17138 1.06523 0.90294
 H56 H 1.17832 1.05859 0.88560
 O57 O 0.90916 0.87878 0.97272
 O58 O 0.88053 0.85048 0.97337
 C59 C 0.89993 0.85922 0.96421
 C60 C 0.91090 0.84756 0.94237
 C61 C 0.89715 0.83107 0.92818
 H62 H 0.87907 0.82564 0.93403
 O63 O 1.08788 1.12113 0.97640
 O64 O 1.11631 1.14961 0.97606
 C65 C 1.09672 1.14062 0.96751
 C66 C 1.08499 1.15212 0.94604
 C67 C 1.09684 1.17119 0.93369
 H68 H 1.11391 1.17846 0.94061
 O69 O 0.90984 1.02278 0.87742
 O70 O 0.88157 1.02337 0.84868
 C71 C 0.90097 1.03197 0.85803
 C72 C 0.91211 1.05409 0.84733
 C73 C 0.89856 1.06833 0.83080
 H74 H 0.88073 1.06229 0.82465
 O75 O 1.08793 0.97413 0.87887
 O76 O 1.11631 0.97422 0.85029
 C77 C 1.09688 0.96537 0.85929
 C78 C 1.08539 0.94386 0.84751
 C79 C 1.09828 0.93061 0.82967
 H80 H 1.11608 0.93676 0.82365
 O81 O 1.02150 0.87753 0.91075
 O82 O 1.02176 0.84900 0.88217
 C83 C 1.03021 0.85787 0.90194
 C84 C 1.05151 0.84616 0.91377
 C85 C 1.06438 0.82767 0.90138
 H86 H 1.05788 0.82085 0.88392
 O87 O 0.97627 1.12059 0.91252
 O88 O 0.97675 1.14891 0.88387
 C89 C 0.96814 1.14043 0.90368
 C90 C 0.94735 1.15292 0.91553
 C91 C 0.93521 1.17176 0.90308
 H92 H 0.94198 1.17822 0.88564
 O93 O 0.87794 1.08846 0.97551
 O94 O 0.84998 1.11743 0.97457
 C95 C 0.85878 1.09761 0.96618
 C96 C 0.84745 1.08612 0.94436
 C97 C 0.83061 1.09955 0.93040
 H98 H 0.82496 1.11764 0.93626
 O99 O 1.12058 0.91156 0.97474
 O100 O 1.14877 0.88279 0.97537
 C101 C 1.14032 0.90248 0.96655
 C102 C 1.15280 0.91423 0.94569
 C103 C 1.17156 0.90189 0.93324
 H104 H 1.17791 0.88428 0.93968
 O105 O 0.97439 1.08744 0.87902
 O106 O 0.97447 1.11599 0.85059
 C107 C 0.96545 1.09668 0.85967
 C108 C 0.94345 1.08585 0.84836
 C109 C 0.92955 1.09975 0.83184
 H110 H 0.93558 1.11781 0.82643
 O111 O 1.02246 0.91064 0.87723
 O112 O 1.02278 0.88198 0.84879
 C113 C 1.03150 0.90151 0.85786
 C114 C 1.05338 0.91272 0.84667
 C115 C 1.06667 0.89976 0.82888
 H116 H 1.06022 0.88221 0.82230
 O117 O 1.12174 0.97551 0.91161
 O118 O 1.15000 0.97586 0.88294
 C119 C 1.14145 0.96719 0.90267
 C120 C 1.15354 0.94613 0.91448
 C121 C 1.17229 0.93350 0.90230
 H122 H 1.17914 0.94012 0.88495
 O123 O 0.87704 1.02262 0.91101
 O124 O 0.84893 1.02332 0.88212
 C125 C 0.85784 1.03185 0.90187
 C126 C 0.84681 1.05392 0.91310
 C127 C 0.82995 1.06777 0.89955
 H128 H 0.82384 1.06148 0.88174
 O129 O 0.91134 1.12194 0.97644
 O130 O 0.88323 1.15078 0.97569
 C131 C 0.90298 1.14170 0.96761
 C132 C 0.91539 1.15347 0.94672
 C133 C 0.90361 1.17232 0.93391
 H134 H 0.88616 1.17925 0.94013
 O135 O 1.08632 0.87896 0.97460
 O136 O 1.11468 0.85036 0.97516
 C137 C 1.09513 0.85914 0.96628
 C138 C 1.08339 0.84692 0.94514
 C139 C 1.09592 0.82845 0.93241
 H140 H 1.11360 0.82223 0.93877
 O141 O 1.08685 1.02171 0.87791
 O142 O 1.11471 1.02176 0.84883
 C143 C 1.09475 1.02964 0.85760
 C144 C 1.08078 1.04859 0.84441
 C145 C 1.08704 1.05523 0.82043
 H146 H 1.10185 1.04602 0.81106
 O147 O 0.90992 0.97470 0.87687
 O148 O 0.88161 0.97529 0.84817
 C149 C 0.90104 0.96629 0.85709
 C150 C 0.91243 0.94471 0.84530
 C151 C 0.89904 0.93080 0.82829
 H152 H 0.88102 0.93669 0.82260
 O153 O 1.02399 1.11968 0.91124
 O154 O 1.02442 1.14755 0.88219
 C155 C 1.03292 1.13899 0.90201
 C156 C 1.05401 1.15109 0.91382
 C157 C 1.06621 1.17015 0.90177
 H158 H 1.05971 1.17667 0.88423
 O159 O 0.97355 0.87773 0.90950
 O160 O 0.97383 0.84928 0.88083
 C161 C 0.96476 0.85831 0.90022
 C162 C 0.94270 0.84714 0.91103
 C163 C 0.92866 0.83065 0.89716
 H164 H 0.93478 0.82488 0.87921
 O165 O 1.12100 1.08761 0.97669
 O166 O 1.14936 1.11616 0.97640
 C167 C 1.14056 1.09640 0.96794
 C168 C 1.15243 1.08439 0.94676
 C169 C 1.17196 1.09596 0.93490
 H170 H 1.17929 1.11295 0.94202
 O171 O 0.87536 0.91148 0.97275
 O172 O 0.84695 0.88297 0.97369
 C173 C 0.85573 0.90228 0.96442
 C174 C 0.84409 0.91313 0.94257
 C175 C 0.82751 0.89935 0.92854
 H176 H 0.82181 0.88141 0.93466
 Cu177 Cu 0.99798 0.89714 0.89633
 Cu178 Cu 0.99836 0.86286 0.86207
 Cu179 Cu 0.99930 1.10049 0.89810
 Cu180 Cu 0.99955 1.13438 0.86357
 Cu181 Cu 0.89592 0.99850 0.89653
 Cu182 Cu 0.86208 0.99936 0.86196
 Cu183 Cu 1.10146 0.99877 0.89790
 Cu184 Cu 1.13524 0.99909 0.86329
 C185 C 0.93517 0.93595 0.85343
 H186 H 0.94524 0.94613 0.86713
 C187 C 0.90793 0.90829 0.82001
 C188 C 1.06152 1.06082 0.85615
 H189 H 1.05684 1.05605 0.87478
 C190 C 1.07427 1.07385 0.80847
 C191 C 0.85216 0.93577 0.93366
 H192 H 0.86548 0.94614 0.94403
 C193 C 0.81966 0.90778 0.90570
 C194 C 1.14265 1.06288 0.93654
 H195 H 1.12723 1.05414 0.94526
 C196 C 1.18120 1.08657 0.91301
 C197 C 0.93376 0.85533 0.93371
 H198 H 0.94413 0.86859 0.94415
 C199 C 0.90587 0.82290 0.90553
 C200 C 1.06343 1.14231 0.93608
 H201 H 1.05450 1.12720 0.94516
 C202 C 1.08763 1.17996 0.91155
 C203 C 0.93462 1.06296 0.85598
 H204 H 0.94483 1.05249 0.86933
 C205 C 0.90706 1.09120 0.82344
 C206 C 1.06283 0.93487 0.85579
 H207 H 1.05307 0.94464 0.87000
 C208 C 1.08915 0.90853 0.82068
 C209 C 1.06105 0.85552 0.93580
 H210 H 1.05163 0.87026 0.94510
 C211 C 1.08660 0.81910 0.91052
 C212 C 0.93744 1.14402 0.93751
 H213 H 0.94626 1.12897 0.94682
 C214 C 0.91331 1.18112 0.91206
 C215 C 0.85543 1.06321 0.93560
 H216 H 0.86905 1.05310 0.94579
 C217 C 0.82225 1.09061 0.90796
 C218 C 1.14417 0.93652 0.93636
 H219 H 1.12931 0.94583 0.94553
 C220 C 1.18108 0.91138 0.91153
 O221 O 1.02156 0.91397 1.12033
 O222 O 1.02124 0.88540 1.14871
 C223 C 1.02994 0.90506 1.14008
 C224 C 1.05091 0.91686 1.15241
 C225 C 1.06290 0.90482 1.17167
 H226 H 1.05608 0.88752 1.17843
 O227 O 0.97490 1.09033 1.12138
 O228 O 0.97496 1.11907 1.14976
 C229 C 0.96611 1.09954 1.14083
 C230 C 0.94418 1.08856 1.15205
 C231 C 0.93012 1.10237 1.16856
 H232 H 0.93622 1.12031 1.17441
 O233 O 0.87618 1.02694 1.08762
 O234 O 0.84776 1.02653 1.11614
 C235 C 0.85659 1.03548 1.09670
 C236 C 0.84494 1.05714 1.08555
 C237 C 0.82849 1.07136 1.09925
 H238 H 0.82300 1.06557 1.11738
 O239 O 1.11943 0.97772 1.08758
 O240 O 1.14770 0.97715 1.11631
 C241 C 1.13895 0.96885 1.09641
 C242 C 1.15096 0.94788 1.08417
 C243 C 1.17066 0.93608 1.09559
 H244 H 1.17788 0.94297 1.11274
 O245 O 1.08624 0.87921 1.02254
 O246 O 1.11454 0.85055 1.02305
 C247 C 1.09488 0.85957 1.03138
 C248 C 1.08280 0.84783 1.05247
 C249 C 1.09454 0.82869 1.06489
 H250 H 1.11179 0.82159 1.05829
 O251 O 0.91012 1.12211 1.02442
 O252 O 0.88179 1.15075 1.02367
 C253 C 0.90102 1.14172 1.03297
 C254 C 0.91191 1.15321 1.05497
 C255 C 0.89802 1.16958 1.06914
 H256 H 0.87991 1.17491 1.06323
 O257 O 0.90987 0.97881 1.12047
 O258 O 0.88130 0.97864 1.14882
 C259 C 0.90093 0.97004 1.14001
 C260 C 0.91252 0.94864 1.15177
 C261 C 0.90006 0.93591 1.17024
 H262 H 0.88265 0.94251 1.17691
 O263 O 1.08669 1.02589 1.12140
 O264 O 1.11507 1.02535 1.15003
 C265 C 1.09562 1.03434 1.14113
 C266 C 1.08419 1.05581 1.15301
 C267 C 1.09695 1.06878 1.17119
 H268 H 1.11451 1.06229 1.17757
 O269 O 0.97409 0.88071 1.08607
 O270 O 0.97397 0.85227 1.11458
 C271 C 0.96557 0.86099 1.09477
 C272 C 0.94476 0.84872 1.08265
 C273 C 0.93270 0.82958 1.09467
 H274 H 0.93934 0.82296 1.11213
 O275 O 1.02282 1.12334 1.08789
 O276 O 1.02288 1.15196 1.11637
 C277 C 1.03155 1.14294 1.09678
 C278 C 1.05308 1.15446 1.08522
 C279 C 1.06610 1.17269 1.09785
 H280 H 1.05959 1.17943 1.11533
 O281 O 0.87703 0.91342 1.02076
 O282 O 0.84869 0.88488 1.02171
 C283 C 0.85761 0.90473 1.02989
 C284 C 0.84604 0.91692 1.05118
 C285 C 0.82743 0.90484 1.06402
 H286 H 0.82072 0.88729 1.05770
 O287 O 1.12157 1.08870 1.02464
 O288 O 1.14989 1.11730 1.02432
 C289 C 1.14115 1.09776 1.03317
 C290 C 1.15300 1.08630 1.05459
 C291 C 1.17125 1.09888 1.06758
 H292 H 1.17784 1.11637 1.06109
 O293 O 1.02279 1.09027 1.12160
 O294 O 1.02289 1.11900 1.14997
 C295 C 1.03148 1.09928 1.14120
 C296 C 1.05280 1.08762 1.15305
 C297 C 1.06592 1.10028 1.17121
 H298 H 1.05965 1.11796 1.17762
 O299 O 0.97370 0.91383 1.11999
 O300 O 0.97349 0.88522 1.14832
 C301 C 0.96496 0.90491 1.13954
 C302 C 0.94378 0.91673 1.15147
 C303 C 0.93101 0.90434 1.16994
 H304 H 0.93736 0.88673 1.17639
 O305 O 1.12069 1.02556 1.08874
 O306 O 1.14891 1.02497 1.11752
 C307 C 1.14036 1.03384 1.09787
 C308 C 1.15258 1.05497 1.08635
 C309 C 1.17083 1.06782 1.09906
 H310 H 1.17711 1.06146 1.11675
 O311 O 0.87761 0.97897 1.08586
 O312 O 0.84917 0.97868 1.11434
 C313 C 0.85806 0.97019 1.09459
 C314 C 0.84625 0.94890 1.08268
 C315 C 0.82762 0.93644 1.09507
 H316 H 0.82106 0.94309 1.11257
 O317 O 1.08781 1.12171 1.02438
 O318 O 1.11629 1.15015 1.02403
 C319 C 1.09669 1.14146 1.03280
 C320 C 1.08501 1.15365 1.05398
 C321 C 1.09769 1.17188 1.06694
 H322 H 1.11541 1.17801 1.06069
 O323 O 0.90982 0.87933 1.02075
 O324 O 0.88141 0.85085 1.02147
 C325 C 0.90116 0.85978 1.02971
 C326 C 0.91328 0.84808 1.05087
 C327 C 0.90154 0.82896 1.06330
 H328 H 0.88428 0.82189 1.05670
 O329 O 1.08628 0.97797 1.12130
 O330 O 1.11462 0.97742 1.14995
 C331 C 1.09490 0.96917 1.14099
 C332 C 1.08267 0.94823 1.15285
 C333 C 1.09429 0.93589 1.17213
 H334 H 1.11155 0.94246 1.17925
 O335 O 0.91031 1.02687 1.12023
 O336 O 0.88163 1.02666 1.14848
 C337 C 0.90117 1.03553 1.13975
 C338 C 0.91232 1.05727 1.15144
 C339 C 0.89859 1.07141 1.16794
 H340 H 0.88049 1.06557 1.17335
 O341 O 0.97478 1.12349 1.08816
 O342 O 0.97481 1.15205 1.11672
 C343 C 0.96589 1.14293 1.09728
 C344 C 0.94376 1.15394 1.08633
 C345 C 0.92957 1.17033 1.10016
 H346 H 0.93568 1.17622 1.11809
 O347 O 1.02183 0.88037 1.08692
 O348 O 1.02155 0.85197 1.11547
 C349 C 1.03026 0.86066 1.09584
 C350 C 1.05126 0.84841 1.08405
 C351 C 1.06335 0.82928 1.09616
 H352 H 1.05664 0.82262 1.11356
 O353 O 1.11935 0.91284 1.02258
 O354 O 1.14757 0.88410 1.02316
 C355 C 1.13887 0.90399 1.03145
 C356 C 1.15093 0.91620 1.05243
 C357 C 1.17062 0.90476 1.06423
 H358 H 1.17780 0.88761 1.05735
 O359 O 0.87612 1.08969 1.02365
 O360 O 0.84803 1.11855 1.02268
 C361 C 0.85657 1.09909 1.03191
 C362 C 0.84481 1.08833 1.05368
 C363 C 0.82838 1.10232 1.06768
 H364 H 0.82285 1.12032 1.06155
 Cu365 Cu 0.99783 0.90012 1.10048
 Cu366 Cu 0.99752 0.86587 1.13463
 Cu367 Cu 0.99889 1.10400 1.10188
 Cu368 Cu 0.99898 1.13841 1.13603
 Cu369 Cu 0.89569 0.89861 0.99668
 Cu370 Cu 0.86156 0.86444 0.99779
 Cu371 Cu 1.10028 0.89852 0.99851
 Cu372 Cu 1.13419 0.86405 0.99927
 Cu373 Cu 0.89667 1.10262 1.00006
 Cu374 Cu 0.86293 1.13723 0.99893
 Cu375 Cu 1.10171 1.10192 1.00060
 Cu376 Cu 1.13580 1.13618 1.00015
 Cu377 Cu 0.89638 1.00293 1.10070
 Cu378 Cu 0.86214 1.00250 1.13479
 Cu379 Cu 1.10043 1.00183 1.10187
 Cu380 Cu 1.13439 1.00109 1.13635
 C381 C 1.06082 0.93871 1.14326
 H382 H 1.05208 0.94774 1.12797
 C383 C 1.08460 0.91417 1.18127
 C384 C 0.93521 1.06592 1.14371
 H385 H 0.94555 1.05555 1.13037
 C386 C 0.90728 1.09401 1.17613
 C387 C 0.85276 1.06565 1.06266
 H388 H 0.86599 1.05513 1.05235
 C389 C 0.82052 1.09401 1.09053
 C390 C 1.14132 0.93792 1.06242
 H391 H 1.12572 0.94651 1.05383
 C392 C 1.18024 0.91453 1.08580
 C393 C 1.06099 0.85742 1.06206
 H394 H 1.05215 0.87259 1.05295
 C395 C 1.08501 0.81968 1.08675
 C396 C 0.93483 1.14556 1.06368
 H397 H 0.94529 1.13233 1.05327
 C398 C 0.90665 1.17782 1.09179
 C399 C 0.93452 0.93902 1.14265
 H400 H 0.94390 0.94835 1.12797
 C401 C 0.90913 0.91374 1.17906
 C402 C 1.06199 1.06527 1.14421
 H403 H 1.05238 1.05575 1.12973
 C404 C 1.08803 1.09105 1.17999
 C405 C 0.93506 0.85773 1.06059
 H406 H 0.94385 0.87295 1.05157
 C407 C 0.91108 0.82000 1.08521
 C408 C 1.06259 1.14519 1.06316
 H409 H 1.05306 1.13063 1.05369
 C410 C 1.08844 1.18109 1.08892
 C411 C 0.85529 0.93909 1.06059
 H412 H 0.87016 0.94815 1.05129
 C413 C 0.81857 0.91439 1.08598
 C414 C 1.14400 1.06420 1.06398
 H415 H 1.12950 1.05472 1.05439
 C416 C 1.17994 1.08980 1.08984
 O417 O 1.08516 0.52491 0.62270
 O418 O 1.11365 0.52424 0.65122
 C419 C 1.09415 0.53326 0.64245
 C420 C 1.08275 0.55468 0.65452
 C421 C 1.09554 0.56744 0.67282
 H422 H 1.11309 0.56084 0.67913
 O423 O 0.90955 0.47949 0.62194
 O424 O 0.88067 0.47880 0.64994
 C425 C 0.90060 0.47060 0.64140
 C426 C 0.91279 0.44977 0.65360
 C427 C 0.90146 0.43815 0.67345
 H428 H 0.88438 0.44507 0.68065
 O429 O 1.02198 0.62356 0.59020
 O430 O 1.02239 0.65192 0.61894
 C431 C 1.03085 0.64307 0.59919
 C432 C 1.05216 0.65477 0.58742
 C433 C 1.06506 0.67325 0.59979
 H434 H 1.05868 0.67995 0.61733
 O435 O 0.97153 0.38045 0.58828
 O436 O 0.97121 0.35206 0.61684
 C437 C 0.96253 0.36106 0.59729
 C438 C 0.94100 0.34953 0.58572
 C439 C 0.92805 0.33130 0.59824
 H440 H 0.93445 0.32484 0.61585
 O441 O 1.11975 0.58928 0.52692
 O442 O 1.14840 0.61756 0.52676
 C443 C 1.13940 0.59812 0.53555
 C444 C 1.15119 0.58642 0.55687
 C445 C 1.16964 0.59871 0.56984
 H446 H 1.17627 0.61625 0.56351
 O447 O 0.87629 0.41519 0.52144
 O448 O 0.84685 0.38775 0.52150
 C449 C 0.85601 0.40755 0.52955
 C450 C 0.84328 0.42145 0.54898
 C451 C 0.81940 0.41518 0.55572
 H452 H 0.80982 0.40069 0.54615
 O453 O 0.97353 0.59093 0.62341
 O454 O 0.97379 0.61956 0.65191
 C455 C 0.96470 0.60021 0.64282
 C456 C 0.94249 0.58951 0.65383
 C457 C 0.92793 0.60373 0.66955
 H458 H 0.93378 0.62189 0.67492
 O459 O 1.02080 0.41245 0.62117
 O460 O 1.02076 0.38363 0.64928
 C461 C 1.02944 0.40332 0.64070
 C462 C 1.05039 0.41516 0.65304
 C463 C 1.06206 0.40355 0.67276
 H464 H 1.05523 0.38632 0.67966
 O465 O 1.11796 0.47706 0.58846
 O466 O 1.14632 0.47632 0.61708
 C467 C 1.13751 0.46813 0.59716
 C468 C 1.14945 0.44720 0.58475
 C469 C 1.16974 0.43584 0.59560
 H470 H 1.17746 0.44305 0.61240
 O471 O 0.87591 0.52776 0.58935
 O472 O 0.84723 0.52711 0.61762
 C473 C 0.85618 0.53615 0.59826
 C474 C 0.84435 0.55759 0.58686
 C475 C 0.82657 0.57089 0.59979
 H476 H 0.82042 0.56469 0.61756
 O477 O 0.90977 0.62404 0.52619
 O478 O 0.88125 0.65249 0.52589
 C479 C 0.90066 0.64355 0.53493
 C480 C 0.91185 0.65501 0.55682
 C481 C 0.89834 0.67164 0.57108
 H482 H 0.88024 0.67721 0.56535
 O483 O 1.08353 0.37844 0.52260
 O484 O 1.11133 0.34930 0.52296
 C485 C 1.09146 0.35826 0.53084
 C486 C 1.07772 0.34540 0.55016
 C487 C 1.08427 0.32163 0.55720
 H488 H 1.09904 0.31220 0.54798
 O489 O 0.90942 0.52749 0.62236
 O490 O 0.88047 0.52702 0.65035
 C491 C 0.89999 0.53610 0.64176
 C492 C 0.91080 0.55805 0.65336
 C493 C 0.89658 0.57258 0.66910
 H494 H 0.87835 0.56683 0.67412
 O495 O 1.08511 0.47695 0.62242
 O496 O 1.11353 0.47630 0.65100
 C497 C 1.09381 0.46804 0.64203
 C498 C 1.08169 0.44699 0.65380
 C499 C 1.09300 0.43508 0.67353
 H500 H 1.10997 0.44201 0.68100
 O501 O 1.01919 0.37933 0.58713
 O502 O 1.01875 0.35046 0.61519
 C503 C 1.02695 0.35905 0.59527
 C504 C 1.04615 0.34573 0.58170
 C505 C 1.05298 0.32194 0.58850
 H506 H 1.04370 0.31276 0.60337
 O507 O 0.97411 0.62390 0.58996
 O508 O 0.97454 0.65232 0.61866
 C509 C 0.96561 0.64350 0.59909
 C510 C 0.94386 0.65510 0.58805
 C511 C 0.93013 0.67184 0.60187
 H512 H 0.93644 0.67758 0.61979
 O513 O 0.87600 0.59125 0.52557
 O514 O 0.84767 0.61989 0.52490
 C515 C 0.85632 0.60034 0.53385
 C516 C 0.84432 0.58899 0.55519
 C517 C 0.82651 0.60201 0.56837
 H518 H 0.82033 0.61972 0.56202
 O519 O 1.11714 0.41186 0.52362
 O520 O 1.14501 0.38281 0.52435
 C521 C 1.13653 0.40283 0.53256
 C522 C 1.14886 0.41518 0.55334
 C523 C 1.16915 0.40418 0.56456
 H524 H 1.17645 0.38715 0.55750
 O525 O 0.97315 0.41413 0.62139
 O526 O 0.97305 0.38563 0.64984
 C527 C 0.96479 0.40555 0.64122
 C528 C 0.94431 0.41806 0.65364
 C529 C 0.93267 0.40683 0.67351
 H530 H 0.93950 0.38969 0.68071
 O531 O 1.02154 0.58985 0.62336
 O532 O 1.02184 0.61833 0.65198
 C533 C 1.03027 0.59860 0.64306
 C534 C 1.05148 0.58664 0.65483
 C535 C 1.06463 0.59906 0.67313
 H536 H 1.05847 0.61672 0.67968
 O537 O 0.87692 0.48007 0.58734
 O538 O 0.84789 0.47966 0.61522
 C539 C 0.85678 0.47181 0.59522
 C540 C 0.84373 0.45266 0.58119
 C541 C 0.81985 0.44602 0.58762
 H542 H 0.81060 0.45525 0.60254
 O543 O 1.11928 0.52496 0.59018
 O544 O 1.14760 0.52414 0.61887
 C545 C 1.13895 0.53322 0.59936
 C546 C 1.15104 0.55456 0.58810
 C547 C 1.16948 0.56716 0.60082
 H548 H 1.17594 0.56049 0.61832
 O549 O 0.90793 0.38006 0.52296
 O550 O 0.87861 0.35253 0.52352
 C551 C 0.89838 0.36102 0.53213
 C552 C 0.90962 0.34943 0.55385
 C553 C 0.89697 0.33119 0.56675
 H554 H 0.87950 0.32465 0.56016
 O555 O 1.08627 0.62243 0.52618
 O556 O 1.11507 0.65054 0.52585
 C557 C 1.09534 0.64207 0.53459
 C558 C 1.08369 0.65434 0.55575
 C559 C 1.09624 0.67281 0.56846
 H560 H 1.11381 0.67914 0.56198
 Cu561 Cu 1.09903 0.50103 0.60306
 Cu562 Cu 1.13309 0.50010 0.63742
 Cu563 Cu 0.89589 0.50365 0.60248
 Cu564 Cu 0.86129 0.50281 0.63623
 Cu565 Cu 0.99783 0.60418 0.60389
 Cu566 Cu 0.99828 0.63836 0.63826
 Cu567 Cu 0.99629 0.39946 0.60164
 Cu568 Cu 0.99601 0.36510 0.63567
 C569 C 1.06060 0.56433 0.64577
 H570 H 1.05098 0.55502 0.63116
 C571 C 1.08670 0.58966 0.68181
 C572 C 0.93440 0.43974 0.64398
 H573 H 0.94290 0.44819 0.62825
 C574 C 0.91125 0.41669 0.68317
 C575 C 1.06151 0.64559 0.56525
 H576 H 1.05207 0.63088 0.55596
 C577 C 1.08712 0.68199 0.59050
 C578 C 0.93175 0.35835 0.56341
 H579 H 0.94131 0.37283 0.55396
 C580 C 0.90604 0.32237 0.58896
 C581 C 1.14221 0.56420 0.56599
 H582 H 1.12760 0.55492 0.55640
 C583 C 1.17854 0.58927 0.59185
 C584 C 0.85524 0.44041 0.56167
 H585 H 0.87378 0.44518 0.55680
 C586 C 0.80774 0.42747 0.57485
 C587 C 0.93384 0.56659 0.64599
 H588 H 0.94459 0.55586 0.63327
 C589 C 0.90495 0.59546 0.67686
 C590 C 1.06022 0.43703 0.64383
 H591 H 1.05168 0.44579 0.62828
 C592 C 1.08337 0.41338 0.68279
 C593 C 1.13926 0.43686 0.56343
 H594 H 1.12326 0.44516 0.55526
 C595 C 1.17938 0.41436 0.58566
 C596 C 0.85291 0.56665 0.56444
 H597 H 0.86707 0.55683 0.55471
 C598 C 0.81792 0.59315 0.59072
 C599 C 0.93469 0.64693 0.56542
 H600 H 0.94481 0.63344 0.55503
 C601 C 0.90732 0.67974 0.59366
 C602 C 1.05847 0.35720 0.56235
 H603 H 1.05355 0.37567 0.55723
 C604 C 1.07189 0.30993 0.57619
 O605 O 1.08547 0.47617 0.37925
 O606 O 1.11415 0.47644 0.35101
 C607 C 1.09440 0.46778 0.35953
 C608 C 1.08262 0.44671 0.34722
 C609 C 1.09528 0.43377 0.32899
 H610 H 1.11301 0.44003 0.32287
 O611 O 0.91029 0.52490 0.37790
 O612 O 0.88180 0.52576 0.34941
 C613 C 0.90161 0.53388 0.35833
 C614 C 0.91378 0.55496 0.34664
 C615 C 0.90200 0.56763 0.32766
 H616 H 0.88467 0.56120 0.32057
 O617 O 0.97457 0.62258 0.41348
 O618 O 0.97491 0.65102 0.38498
 C619 C 0.96618 0.64231 0.40461
 C620 C 0.94514 0.65455 0.41636
 C621 C 0.93262 0.67314 0.40386
 H622 H 0.93909 0.67943 0.38625
 O623 O 1.02039 0.37872 0.41035
 O624 O 1.02039 0.35036 0.38161
 C625 C 1.02902 0.35911 0.40133
 C626 C 1.05029 0.34720 0.41304
 C627 C 1.06304 0.32863 0.40063
 H628 H 1.05659 0.32204 0.38305
 O629 O 1.11848 0.41120 0.47574
 O630 O 1.14657 0.38233 0.47642
 C631 C 1.13814 0.40202 0.46754
 C632 C 1.15044 0.41358 0.44648
 C633 C 1.16921 0.40121 0.43408
 H634 H 1.17579 0.38377 0.44076
 O635 O 0.87744 0.59025 0.47756
 O636 O 0.84926 0.61901 0.47693
 C637 C 0.85810 0.59924 0.46847
 C638 C 0.84654 0.58754 0.44687
 C639 C 0.82832 0.60016 0.43393
 H640 H 0.82187 0.61777 0.44038
 O641 O 1.02244 0.58895 0.38018
 O642 O 1.02275 0.61761 0.35189
 C643 C 1.03117 0.59783 0.36062
 C644 C 1.05219 0.58585 0.34858
 C645 C 1.06431 0.59766 0.32932
 H646 H 1.05758 0.61493 0.32237
 O647 O 0.97249 0.41221 0.37701
 O648 O 0.97258 0.38375 0.34837
 C649 C 0.96379 0.40326 0.35738
 C650 C 0.94213 0.41463 0.34589
 C651 C 0.92812 0.40124 0.32899
 H652 H 0.93403 0.38325 0.32311
 O653 O 1.11921 0.52279 0.41411
 O654 O 1.14816 0.52283 0.38614
 C655 C 1.13940 0.53085 0.40612
 C656 C 1.15250 0.55011 0.41996
 C657 C 1.17634 0.55684 0.41347
 H658 H 1.18565 0.54749 0.39867
 O659 O 0.87599 0.47718 0.41037
 O660 O 0.84761 0.47811 0.38174
 C661 C 0.85644 0.46880 0.40106
 C662 C 0.84499 0.44681 0.41168
 C663 C 0.82865 0.43284 0.39756
 H664 H 0.82307 0.43906 0.37959
 O665 O 1.08684 0.62196 0.47826
 O666 O 1.11585 0.64984 0.47778
 C667 C 1.09600 0.64131 0.46937
 C668 C 1.08407 0.65341 0.44834
 C669 C 1.09583 0.67274 0.43628
 H670 H 1.11317 0.67958 0.44295
 O671 O 0.90909 0.37949 0.47485
 O672 O 0.87996 0.35172 0.47517
 C673 C 0.89969 0.36006 0.46630
 C674 C 0.91077 0.34819 0.44460
 C675 C 0.89713 0.33137 0.43074
 H676 H 0.87922 0.32568 0.43687
 O677 O 0.90932 0.47692 0.37732
 O678 O 0.88072 0.47779 0.34891
 C679 C 0.90006 0.46849 0.35771
 C680 C 0.91087 0.44656 0.34604
 C681 C 0.89713 0.43280 0.32916
 H682 H 0.87924 0.43905 0.32345
 O683 O 1.08646 0.52407 0.37982
 O684 O 1.11531 0.52451 0.35177
 C685 C 1.09557 0.53300 0.36045
 C686 C 1.08376 0.55422 0.34856
 C687 C 1.09556 0.56638 0.32930
 H688 H 1.11280 0.55962 0.32232
 O689 O 0.97251 0.37912 0.41057
 O690 O 0.97246 0.35084 0.38174
 C691 C 0.96375 0.35965 0.40141
 C692 C 0.94211 0.34813 0.41273
 C693 C 0.92814 0.33131 0.39922
 H694 H 0.93406 0.32553 0.38119
 O695 O 1.02240 0.62232 0.41372
 O696 O 1.02262 0.65085 0.38530
 C697 C 1.03109 0.64196 0.40499
 C698 C 1.05219 0.65385 0.41699
 C699 C 1.06425 0.67321 0.40529
 H700 H 1.05738 0.68037 0.38814
 O701 O 0.87577 0.41266 0.47359
 O702 O 0.84688 0.38461 0.47386
 C703 C 0.85619 0.40376 0.46478
 C704 C 0.84505 0.41482 0.44278
 C705 C 0.82872 0.40114 0.42837
 H706 H 0.82316 0.38304 0.43410
 O707 O 1.11948 0.58763 0.47919
 O708 O 1.14859 0.61543 0.47916
 C709 C 1.13967 0.59554 0.47109
 C710 C 1.15262 0.58173 0.45173
 C711 C 1.17646 0.58816 0.44494
 H712 H 1.18587 0.60287 0.45434
 O713 O 1.02046 0.41265 0.37758
 O714 O 1.02058 0.38418 0.34895
 C715 C 1.02923 0.40377 0.35798
 C716 C 1.05075 0.41537 0.34647
 C717 C 1.06380 0.40277 0.32826
 H718 H 1.05737 0.38525 0.32159
 O719 O 0.97466 0.58924 0.37971
 O720 O 0.97510 0.61786 0.35139
 C721 C 0.96637 0.59818 0.35994
 C722 C 0.94544 0.58644 0.34748
 C723 C 0.93334 0.59876 0.32849
 H724 H 0.94006 0.61621 0.32203
 O725 O 0.87735 0.52526 0.41185
 O726 O 0.84897 0.52615 0.38325
 C727 C 0.85794 0.53442 0.40307
 C728 C 0.84645 0.55590 0.41501
 C729 C 0.82819 0.56892 0.40253
 H730 H 0.82163 0.56257 0.38492
 O731 O 1.11930 0.47507 0.41213
 O732 O 1.14784 0.47526 0.38372
 C733 C 1.13890 0.46640 0.40317
 C734 C 1.15068 0.44504 0.41481
 C735 C 1.16944 0.43236 0.40267
 H736 H 1.17624 0.43888 0.38526
 O737 O 1.08448 0.37873 0.47485
 O738 O 1.11270 0.34998 0.47528
 C739 C 1.09333 0.35903 0.46628
 C740 C 1.08178 0.34722 0.44480
 C741 C 1.09417 0.32863 0.43210
 H742 H 1.11161 0.32201 0.43869
 O743 O 0.91044 0.62399 0.47812
 O744 O 0.88216 0.65266 0.47775
 C745 C 0.90180 0.64365 0.46935
 C746 C 0.91373 0.65531 0.44810
 C747 C 0.90155 0.67390 0.43526
 H748 H 0.88415 0.68076 0.44172
 Cu749 Cu 1.09972 0.49957 0.39913
 Cu750 Cu 1.13415 0.49993 0.36523
 Cu751 Cu 0.89608 0.50102 0.39723
 Cu752 Cu 0.86190 0.50218 0.36300
 Cu753 Cu 1.10016 0.60253 0.50259
 Cu754 Cu 1.13479 0.63625 0.50221
 Cu755 Cu 1.09812 0.39799 0.49924
 Cu756 Cu 1.13176 0.36323 0.49998
 Cu757 Cu 0.89627 0.60453 0.50193
 Cu758 Cu 0.86227 0.63889 0.50123
 Cu759 Cu 0.89523 0.39957 0.49825
 Cu760 Cu 0.86025 0.36627 0.49875
 Cu761 Cu 0.99846 0.60290 0.39964
 Cu762 Cu 0.99886 0.63721 0.36556
 Cu763 Cu 0.99647 0.39853 0.39675
 Cu764 Cu 0.99654 0.36446 0.36229
 C765 C 1.06021 0.43747 0.35571
 H766 H 1.05067 0.44692 0.37027
 C767 C 1.08608 0.41178 0.31981
 C768 C 0.93566 0.56439 0.35629
 H769 H 0.94449 0.55515 0.37141
 C770 C 0.91159 0.58957 0.31889
 C771 C 0.93567 0.64589 0.43863
 H772 H 0.94482 0.63108 0.44802
 C773 C 0.91078 0.68250 0.41309
 C774 C 1.05971 0.35624 0.43524
 H775 H 1.05037 0.37099 0.44460
 C776 C 1.08499 0.31959 0.40999
 C777 C 1.14150 0.43563 0.43684
 H778 H 1.12663 0.44497 0.44597
 C779 C 1.17849 0.41044 0.41216
 C780 C 0.85545 0.56529 0.43731
 H781 H 0.87003 0.55580 0.44671
 C782 C 0.81947 0.59106 0.41175
 C783 C 1.06192 0.56398 0.35793
 H784 H 1.05302 0.55508 0.37317
 C785 C 1.08600 0.58809 0.31992
 C786 C 0.93344 0.43739 0.35415
 H787 H 0.94376 0.44746 0.36774
 C788 C 0.90558 0.41009 0.32095
 C789 C 1.14088 0.56251 0.43929
 H790 H 1.12238 0.55765 0.44421
 C791 C 1.18828 0.57570 0.42599
 C792 C 0.85296 0.43771 0.43435
 H793 H 0.86610 0.44802 0.44499
 C794 C 0.82086 0.40995 0.40570
 C795 C 1.06211 0.64422 0.43867
 H796 H 1.05324 0.62890 0.44748
 C797 C 1.08607 0.68240 0.41476
 C798 C 0.93338 0.35629 0.43553
 H799 H 0.94365 0.36987 0.44567
 C800 C 0.90561 0.32326 0.40801
 O801 O 0.48057 0.91276 0.38161
 O802 O 0.48031 0.88379 0.35350
 C803 C 0.47191 0.90369 0.36203
 C804 C 0.45121 0.91581 0.34959
 C805 C 0.43993 0.90460 0.32937
 H806 H 0.44692 0.88752 0.32214
 O807 O 0.52785 1.08829 0.38020
 O808 O 0.52779 1.11694 0.35190
 C809 C 0.53651 1.09729 0.36065
 C810 C 0.55801 1.08579 0.34892
 C811 C 0.57070 1.09830 0.33047
 H812 H 0.56392 1.11562 0.32370
 O813 O 0.38249 0.97726 0.41429
 O814 O 0.35425 0.97672 0.38554
 C815 C 0.36292 0.96849 0.40546
 C816 C 0.35073 0.94770 0.41773
 C817 C 0.33042 0.93651 0.40675
 H818 H 0.32287 0.94373 0.38991
 O819 O 0.62675 1.02417 0.41465
 O820 O 0.65528 1.02377 0.38625
 C821 C 0.64670 1.03228 0.40608
 C822 C 0.65936 1.05263 0.41869
 C823 C 0.67941 1.06418 0.40767
 H824 H 0.68657 1.05744 0.39045
 O825 O 0.41616 0.87926 0.47983
 O826 O 0.38840 0.85012 0.47919
 C827 C 0.40830 0.85908 0.47145
 C828 C 0.42216 0.84616 0.45215
 C829 C 0.41568 0.82234 0.44513
 H830 H 0.40089 0.81296 0.45430
 O831 O 0.59335 1.12028 0.47720
 O832 O 0.62178 1.14879 0.47774
 C833 C 0.60247 1.13979 0.46854
 C834 C 0.59121 1.15147 0.44684
 C835 C 0.60424 1.16906 0.43342
 H836 H 0.62216 1.17490 0.43947
 O837 O 0.41555 1.02498 0.38047
 O838 O 0.38722 1.02439 0.35178
 C839 C 0.40671 1.03330 0.36067
 C840 C 0.41835 1.05452 0.34866
 C841 C 0.40589 1.06718 0.33012
 H842 H 0.38839 1.06064 0.32358
 O843 O 0.59249 0.97709 0.38089
 O844 O 0.62096 0.97688 0.35243
 C845 C 0.60127 0.96842 0.36120
 C846 C 0.58937 0.94726 0.34922
 C847 C 0.60164 0.93444 0.33062
 H848 H 0.61909 0.94089 0.32395
 O849 O 0.52893 0.88004 0.41496
 O850 O 0.52886 0.85141 0.38647
 C851 C 0.53758 0.86040 0.40606
 C852 C 0.55885 0.84855 0.41771
 C853 C 0.57170 0.83030 0.40498
 H854 H 0.56539 0.82408 0.38722
 O855 O 0.48026 1.12170 0.41411
 O856 O 0.48022 1.15026 0.38573
 C857 C 0.47162 1.14137 0.40536
 C858 C 0.45034 1.15320 0.41717
 C859 C 0.43752 1.17168 0.40480
 H860 H 0.44395 1.17829 0.38728
 O861 O 0.38157 1.08887 0.47700
 O862 O 0.35330 1.11759 0.47740
 C863 C 0.36208 1.09809 0.46838
 C864 C 0.35030 1.08675 0.44683
 C865 C 0.33221 1.09945 0.43376
 H866 H 0.32585 1.11710 0.44015
 O867 O 0.62625 0.91255 0.48030
 O868 O 0.65416 0.88351 0.47971
 C869 C 0.64549 0.90332 0.47122
 C870 C 0.65693 0.91472 0.44951
 C871 C 0.67471 0.90176 0.43624
 H872 H 0.68114 0.88417 0.44266
 O873 O 0.47994 1.08876 0.38005
 O874 O 0.47988 1.11744 0.35180
 C875 C 0.47123 1.09779 0.36050
 C876 C 0.44988 1.08614 0.34859
 C877 C 0.43706 1.09851 0.33007
 H878 H 0.44351 1.11602 0.32347
 O879 O 0.52834 0.91296 0.38125
 O880 O 0.52810 0.88417 0.35294
 C881 C 0.53677 0.90392 0.36156
 C882 C 0.55783 0.91564 0.34941
 C883 C 0.57047 0.90313 0.33084
 H884 H 0.56399 0.88556 0.32436
 O885 O 0.62540 0.97637 0.41473
 O886 O 0.65375 0.97596 0.38614
 C887 C 0.64484 0.96741 0.40579
 C888 C 0.65646 0.94594 0.41747
 C889 C 0.67424 0.93262 0.40460
 H890 H 0.68034 0.93871 0.38678
 O891 O 0.38171 1.02515 0.41320
 O892 O 0.35354 1.02459 0.38436
 C893 C 0.36217 1.03358 0.40397
 C894 C 0.35025 1.05502 0.41531
 C895 C 0.33214 1.06796 0.40253
 H896 H 0.32574 1.06145 0.38492
 O897 O 0.41574 1.12119 0.47817
 O898 O 0.38732 1.14973 0.47870
 C899 C 0.40693 1.14097 0.46989
 C900 C 0.41871 1.15304 0.44876
 C901 C 0.40625 1.17152 0.43604
 H902 H 0.38868 1.17796 0.44247
 O903 O 0.59316 0.87902 0.48009
 O904 O 0.62123 0.85013 0.47979
 C905 C 0.60179 0.85935 0.47121
 C906 C 0.59014 0.84792 0.44962
 C907 C 0.60265 0.82966 0.43654
 H908 H 0.62011 0.82294 0.44300
 O909 O 0.59303 1.02505 0.38128
 O910 O 0.62166 1.02486 0.35299
 C911 C 0.60204 1.03365 0.36170
 C912 C 0.59029 1.05486 0.34964
 C913 C 0.60269 1.06776 0.33124
 H914 H 0.62043 1.06160 0.32501
 O915 O 0.41595 0.97717 0.38088
 O916 O 0.38767 0.97660 0.35216
 C917 C 0.40741 0.96838 0.36113
 C918 C 0.41980 0.94757 0.34909
 C919 C 0.40891 0.93610 0.32885
 H920 H 0.39207 0.94318 0.32122
 O921 O 0.52826 1.12163 0.41356
 O922 O 0.52821 1.15016 0.38514
 C923 C 0.53709 1.14110 0.40459
 C924 C 0.55899 1.15236 0.41581
 C925 C 0.57230 1.17000 0.40279
 H926 H 0.56573 1.17651 0.38526
 O927 O 0.48129 0.87955 0.41545
 O928 O 0.48140 0.85052 0.38738
 C929 C 0.47326 0.85934 0.40728
 C930 C 0.45391 0.84625 0.42078
 C931 C 0.44712 0.82241 0.41400
 H932 H 0.45650 0.81310 0.39922
 O933 O 0.62689 1.08718 0.47919
 O934 O 0.65518 1.11580 0.48019
 C935 C 0.64683 1.09598 0.47139
 C936 C 0.65957 1.08378 0.45086
 C937 C 0.67961 1.09505 0.43956
 H938 H 0.68686 1.11204 0.44677
 O939 O 0.38236 0.91255 0.47901
 O940 O 0.35452 0.88351 0.47803
 C941 C 0.36302 0.90353 0.46994
 C942 C 0.35083 0.91585 0.44913
 C943 C 0.33053 0.90498 0.43775
 H944 H 0.32306 0.88805 0.44475
 Cu945 Cu 0.50469 0.89926 0.40113
 Cu946 Cu 0.50453 0.86462 0.36719
 Cu947 Cu 0.50403 1.10223 0.39983
 Cu948 Cu 0.50398 1.13658 0.36584
 Cu949 Cu 0.40174 1.00117 0.40013
 Cu950 Cu 0.36783 1.00041 0.36558
 Cu951 Cu 0.60653 1.00080 0.40071
 Cu952 Cu 0.64074 1.00037 0.36659
 C953 C 0.44114 0.93746 0.35919
 H954 H 0.44934 0.94590 0.37515
 C955 C 0.41880 0.91463 0.31921
 C956 C 0.56784 1.06394 0.35823
 H957 H 0.55849 1.05451 0.37288
 C958 C 0.59307 1.08951 0.32190
 C959 C 0.36067 0.93738 0.43910
 H960 H 0.37666 0.94557 0.44739
 C961 C 0.32051 0.91519 0.41660
 C962 C 0.64983 1.06236 0.44049
 H963 H 0.63401 1.05390 0.44876
 C964 C 0.68936 1.08537 0.41798
 C965 C 0.44147 0.85789 0.44004
 H966 H 0.44637 0.87638 0.44516
 C967 C 0.42816 0.81050 0.42622
 C968 C 0.56852 1.14334 0.43793
 H969 H 0.55868 1.12931 0.44777
 C970 C 0.59497 1.17804 0.41134
 C971 C 0.44048 1.06401 0.35760
 H972 H 0.44986 1.05470 0.37232
 C973 C 0.41504 1.08919 0.32108
 C974 C 0.56731 0.93785 0.35832
 H975 H 0.55808 0.94725 0.37311
 C976 C 0.59239 0.91236 0.32172
 C977 C 0.56811 0.85715 0.44015
 H978 H 0.55869 0.87169 0.44974
 C979 C 0.59362 0.82117 0.41420
 C980 C 0.44089 1.14414 0.43930
 H981 H 0.45028 1.12943 0.44861
 C982 C 0.41550 1.18059 0.41407
 C983 C 0.35899 1.06441 0.43759
 H984 H 0.37332 1.05482 0.44727
 C985 C 0.32333 1.09018 0.41161
 C986 C 0.64800 0.93692 0.44003
 H987 H 0.63374 0.94666 0.44969
 C988 C 0.68302 0.91050 0.41376
 O989 O 0.52799 0.91122 0.62575
 O990 O 0.52775 0.88237 0.65386
 C991 C 0.53680 0.90181 0.64508
 C992 C 0.55900 0.91238 0.65632
 C993 C 0.57307 0.89819 0.67246
 H994 H 0.56679 0.88027 0.67803
 O995 O 0.47998 1.08637 0.62416
 O996 O 0.48042 1.11502 0.65261
 C997 C 0.47166 1.09534 0.64391
 C998 C 0.45058 1.08363 0.65603
 C999 C 0.43869 1.09559 0.67542
 H1000 H 0.44574 1.11268 0.68256
 O1001 O 0.38181 1.02227 0.58972
 O1002 O 0.35289 1.02266 0.61773
 C1003 C 0.36169 1.03053 0.59774
 C1004 C 0.34869 1.04977 0.58389
 C1005 C 0.32474 1.05647 0.59013
 H1006 H 0.31530 1.04713 0.60480
 O1007 O 0.62744 0.97396 0.59249
 O1008 O 0.65555 0.97465 0.62140
 C1009 C 0.64696 0.96553 0.60183
 C1010 C 0.65865 0.94376 0.59079
 C1011 C 0.67484 0.92939 0.60467
 H1012 H 0.68022 0.93519 0.62287
 O1013 O 0.59280 0.87919 0.52811
 O1014 O 0.62095 0.85037 0.52776
 C1015 C 0.60152 0.85945 0.53663
 C1016 C 0.58993 0.84780 0.55810
 C1017 C 0.60297 0.83036 0.57171
 H1018 H 0.62089 0.82444 0.56577
 O1019 O 0.41485 1.12069 0.52612
 O1020 O 0.38622 1.14899 0.52683
 C1021 C 0.40590 1.14010 0.53523
 C1022 C 0.41781 1.15178 0.55656
 C1023 C 0.40620 1.17114 0.56883
 H1024 H 0.38908 1.17839 0.56206
 O1025 O 0.41506 0.97526 0.62429
 O1026 O 0.38651 0.97597 0.65266
 C1027 C 0.40615 0.96708 0.64405
 C1028 C 0.41788 0.94602 0.65632
 C1029 C 0.40517 0.93312 0.67445
 H1030 H 0.38744 0.93942 0.68056
 O1031 O 0.59253 1.02159 0.62482
 O1032 O 0.62066 1.02220 0.65368
 C1033 C 0.60101 1.03049 0.64456
 C1034 C 0.58886 1.05172 0.65620
 C1035 C 0.60053 1.06416 0.67546
 H1036 H 0.61769 1.05748 0.68272
 O1037 O 0.47962 0.87867 0.59201
 O1038 O 0.47947 0.85001 0.62029
 C1039 C 0.47087 0.85905 0.60072
 C1040 C 0.44950 0.84741 0.58892
 C1041 C 0.43673 0.82883 0.60116
 H1042 H 0.44324 0.82205 0.61860
 O1043 O 0.52669 1.11997 0.58977
 O1044 O 0.52668 1.14896 0.61787
 C1045 C 0.53463 1.14024 0.59786
 C1046 C 0.55358 1.15356 0.58405
 C1047 C 0.55967 1.17773 0.59026
 H1048 H 0.55010 1.18705 0.60491
 O1049 O 0.38099 0.91175 0.52695
 O1050 O 0.35299 0.88284 0.52606
 C1051 C 0.36143 0.90246 0.53517
 C1052 C 0.34938 0.91372 0.55662
 C1053 C 0.33141 0.90081 0.56956
 H1054 H 0.32504 0.88326 0.56292
 O1055 O 0.62488 1.08757 0.52704
 O1056 O 0.65264 1.11668 0.52812
 C1057 C 0.64398 1.09683 0.53642
 C1058 C 0.65568 1.08510 0.55788
 C1059 C 0.67421 1.09747 0.57066
 H1060 H 0.68062 1.11510 0.56433
 O1061 O 0.52782 1.08654 0.62349
 O1062 O 0.52826 1.11550 0.65160
 C1063 C 0.53665 1.09563 0.64299
 C1064 C 0.55759 1.08368 0.65524
 C1065 C 0.56962 1.09574 0.67451
 H1066 H 0.56302 1.11324 0.68109
 O1067 O 0.47993 0.91201 0.62566
 O1068 O 0.47971 0.88321 0.65380
 C1069 C 0.47116 0.90298 0.64513
 C1070 C 0.44972 0.91461 0.65687
 C1071 C 0.43662 0.90200 0.67497
 H1072 H 0.44299 0.88442 0.68147
 O1073 O 0.62587 1.02204 0.59148
 O1074 O 0.65396 1.02282 0.62038
 C1075 C 0.64510 1.03125 0.60061
 C1076 C 0.65644 1.05295 0.58905
 C1077 C 0.67496 1.06574 0.60144
 H1078 H 0.68189 1.05909 0.61878
 O1079 O 0.38126 0.97458 0.59139
 O1080 O 0.35285 0.97509 0.61993
 C1081 C 0.36163 0.96613 0.60040
 C1082 C 0.34969 0.94484 0.58878
 C1083 C 0.33175 0.93163 0.60147
 H1084 H 0.32560 0.93778 0.61929
 O1085 O 0.59118 1.12077 0.52498
 O1086 O 0.61889 1.14997 0.52544
 C1087 C 0.59895 1.14105 0.53316
 C1088 C 0.58494 1.15403 0.55229
 C1089 C 0.59076 1.17818 0.55875
 H1090 H 0.60511 1.18784 0.54919
 O1091 O 0.41511 0.87941 0.52754
 O1092 O 0.38697 0.85063 0.52684
 C1093 C 0.40631 0.85967 0.53593
 C1094 C 0.41788 0.84779 0.55730
 C1095 C 0.40543 0.82925 0.56988
 H1096 H 0.38790 0.82279 0.56332
 O1097 O 0.59341 0.97363 0.62500
 O1098 O 0.62175 0.97416 0.65369
 C1099 C 0.60241 0.96507 0.64462
 C1100 C 0.59126 0.94325 0.65601
 C1101 C 0.60504 0.92871 0.67211
 H1102 H 0.62328 0.93425 0.67741
 O1103 O 0.41484 1.02305 0.62384
 O1104 O 0.38604 1.02394 0.65194
 C1105 C 0.40594 1.03204 0.64333
 C1106 C 0.41826 1.05283 0.65553
 C1107 C 0.40672 1.06509 0.67493
 H1108 H 0.38931 1.05871 0.68177
 O1109 O 0.47911 1.11965 0.59088
 O1110 O 0.47933 1.14816 0.61949
 C1111 C 0.47053 1.13929 0.59990
 C1112 C 0.44938 1.15136 0.58820
 C1113 C 0.43742 1.17071 0.60017
 H1114 H 0.44426 1.17760 0.61747
 O1115 O 0.52754 0.87861 0.59172
 O1116 O 0.52733 0.84995 0.62001
 C1117 C 0.53618 0.85897 0.60055
 C1118 C 0.55789 0.84748 0.58924
 C1119 C 0.57125 0.83000 0.60245
 H1120 H 0.56484 0.82380 0.62013
 O1121 O 0.62751 0.91106 0.52845
 O1122 O 0.65546 0.88205 0.52785
 C1123 C 0.64692 0.90159 0.53698
 C1124 C 0.65860 0.91237 0.55890
 C1125 C 0.67482 0.89830 0.57302
 H1126 H 0.68023 0.88023 0.56690
 O1127 O 0.38196 1.08673 0.52473
 O1128 O 0.35319 1.11492 0.52497
 C1129 C 0.36186 1.09489 0.53288
 C1130 C 0.34876 1.08120 0.55212
 C1131 C 0.32482 1.08759 0.55863
 H1132 H 0.31545 1.10220 0.54909
 Cu1133 Cu 0.50372 0.89805 0.60599
 Cu1134 Cu 0.50349 0.86354 0.63982
 Cu1135 Cu 0.50348 1.10020 0.60425
 Cu1136 Cu 0.50386 1.13471 0.63833
 Cu1137 Cu 0.40141 0.89870 0.50331
 Cu1138 Cu 0.36785 0.86391 0.50226
 Cu1139 Cu 0.60716 0.89840 0.50431
 Cu1140 Cu 0.64076 0.86365 0.50370
 Cu1141 Cu 0.40140 1.10153 0.50152
 Cu1142 Cu 0.36724 1.13577 0.50219
 Cu1143 Cu 0.60627 1.10105 0.50206
 Cu1144 Cu 0.63998 1.13566 0.50308
 Cu1145 Cu 0.40112 0.99881 0.60447
 Cu1146 Cu 0.36677 0.99965 0.63848
 Cu1147 Cu 0.60703 0.99772 0.60554
 Cu1148 Cu 0.64080 0.99864 0.64016
 C1149 C 0.56817 0.93500 0.64835
 H1150 H 0.55778 0.94570 0.63534
 C1151 C 0.59612 0.90611 0.68001
 C1152 C 0.44036 1.06208 0.64637
 H1153 H 0.44905 1.05310 0.63100
 C1154 C 0.41677 1.08646 0.68464
 C1155 C 0.36046 1.06209 0.56469
 H1156 H 0.37903 1.05725 0.55997
 C1157 C 0.31284 1.07519 0.57745
 C1158 C 0.65090 0.93521 0.56780
 H1159 H 0.63786 0.94580 0.55734
 C1160 C 0.68265 0.90662 0.59594
 C1161 C 0.56730 0.85619 0.56696
 H1162 H 0.55752 0.87024 0.55704
 C1163 C 0.59383 0.82179 0.59394
 C1164 C 0.43954 1.14215 0.56627
 H1165 H 0.44831 1.12688 0.55724
 C1166 C 0.41585 1.18039 0.59062
 C1167 C 0.44030 0.93676 0.64781
 H1168 H 0.44986 0.94621 0.63332
 C1169 C 0.41430 0.91105 0.68343
 C1170 C 0.56723 1.06152 0.64632
 H1171 H 0.55843 1.05243 0.63106
 C1172 C 0.59111 1.08617 0.68433
 C1173 C 0.44001 0.85666 0.56687
 H1174 H 0.44938 0.87143 0.55765
 C1175 C 0.41466 0.82005 0.59184
 C1176 C 0.56617 1.14195 0.56489
 H1177 H 0.56181 1.12320 0.56024
 C1178 C 0.57806 1.19000 0.57754
 C1179 C 0.35815 0.93589 0.56622
 H1180 H 0.37241 0.94565 0.55666
 C1181 C 0.32286 0.90960 0.59202
 C1182 C 0.64700 1.06272 0.56714
 H1183 H 0.63229 1.05336 0.55778
 C1184 C 0.68357 1.08799 0.59244
 O1185 O 0.47992 0.41422 0.88087
 O1186 O 0.48030 0.38602 0.85196
 C1187 C 0.47156 0.40555 0.86096
 C1188 C 0.45077 0.41758 0.84863
 C1189 C 0.43901 0.40586 0.82898
 H1190 H 0.44573 0.38851 0.82212
 O1191 O 0.52853 0.59153 0.87976
 O1192 O 0.52848 0.62028 0.85155
 C1193 C 0.53744 0.60083 0.86046
 C1194 C 0.55957 0.59001 0.84936
 C1195 C 0.57358 0.60375 0.83284
 H1196 H 0.56736 0.62159 0.82692
 O1197 O 0.38212 0.47881 0.91265
 O1198 O 0.35419 0.47850 0.88359
 C1199 C 0.36274 0.46999 0.90343
 C1200 C 0.35076 0.44877 0.91511
 C1201 C 0.33167 0.43658 0.90301
 H1202 H 0.32482 0.44334 0.88570
 O1203 O 0.62715 0.52766 0.91406
 O1204 O 0.65539 0.52676 0.88537
 C1205 C 0.64676 0.53592 0.90489
 C1206 C 0.65848 0.55759 0.91608
 C1207 C 0.67508 0.57168 0.90253
 H1208 H 0.68083 0.56570 0.88452
 O1209 O 0.41508 0.38027 0.97742
 O1210 O 0.38680 0.35164 0.97654
 C1211 C 0.40661 0.36055 0.96851
 C1212 C 0.41905 0.34859 0.94766
 C1213 C 0.40746 0.32943 0.93508
 H1214 H 0.39010 0.32244 0.94144
 O1215 O 0.59197 0.62292 0.97755
 O1216 O 0.62037 0.65144 0.97872
 C1217 C 0.60101 0.64264 0.96940
 C1218 C 0.58989 0.65455 0.94781
 C1219 C 0.60345 0.67153 0.93420
 H1220 H 0.62145 0.67705 0.94029
 O1221 O 0.41556 0.52699 0.87983
 O1222 O 0.38747 0.52669 0.85092
 C1223 C 0.40693 0.53547 0.86001
 C1224 C 0.41876 0.55664 0.84813
 C1225 C 0.40643 0.56936 0.82956
 H1226 H 0.38886 0.56297 0.82305
 O1227 O 0.59194 0.48085 0.88115
 O1228 O 0.61983 0.48026 0.85212
 C1229 C 0.59986 0.47253 0.86096
 C1230 C 0.58598 0.45332 0.84792
 C1231 C 0.59192 0.44697 0.82374
 H1232 H 0.60631 0.45656 0.81418
 O1233 O 0.52830 0.38096 0.91377
 O1234 O 0.52877 0.35321 0.88446
 C1235 C 0.53715 0.36160 0.90444
 C1236 C 0.55812 0.34933 0.91626
 C1237 C 0.57017 0.33010 0.90418
 H1238 H 0.56351 0.32345 0.88671
 O1239 O 0.47992 0.62407 0.91300
 O1240 O 0.47989 0.65267 0.88465
 C1241 C 0.47115 0.64365 0.90413
 C1242 C 0.44957 0.65517 0.91564
 C1243 C 0.43663 0.67345 0.90308
 H1244 H 0.44318 0.68013 0.88564
 O1245 O 0.38070 0.58997 0.97626
 O1246 O 0.35257 0.61880 0.97671
 C1247 C 0.36111 0.59913 0.96784
 C1248 C 0.34905 0.58758 0.94653
 C1249 C 0.33064 0.60008 0.93374
 H1250 H 0.32406 0.61758 0.94031
 O1251 O 0.62502 0.41404 0.97942
 O1252 O 0.65329 0.38537 0.97865
 C1253 C 0.64455 0.40531 0.97053
 C1254 C 0.65652 0.41761 0.94960
 C1255 C 0.67587 0.40594 0.93747
 H1256 H 0.68290 0.38867 0.94412
 O1257 O 0.48053 0.59070 0.87947
 O1258 O 0.48046 0.61941 0.85124
 C1259 C 0.47188 0.59968 0.85988
 C1260 C 0.45058 0.58800 0.84794
 C1261 C 0.43785 0.60041 0.82939
 H1262 H 0.44439 0.61786 0.82275
 O1263 O 0.52744 0.41554 0.88137
 O1264 O 0.52757 0.38780 0.85202
 C1265 C 0.53552 0.40767 0.86107
 C1266 C 0.55459 0.42158 0.84803
 C1267 C 0.56080 0.41552 0.82386
 H1268 H 0.55126 0.40095 0.81438
 O1269 O 0.62532 0.47970 0.91491
 O1270 O 0.65331 0.47864 0.88601
 C1271 C 0.64459 0.47048 0.90592
 C1272 C 0.65642 0.44930 0.91798
 C1273 C 0.67575 0.43719 0.90623
 H1274 H 0.68272 0.44389 0.88896
 O1275 O 0.38118 0.52670 0.91221
 O1276 O 0.35323 0.52638 0.88315
 C1277 C 0.36160 0.53509 0.90299
 C1278 C 0.34932 0.55616 0.91469
 C1279 C 0.33090 0.56892 0.90217
 H1280 H 0.32452 0.56249 0.88452
 O1281 O 0.41466 0.62270 0.97631
 O1282 O 0.38638 0.65139 0.97677
 C1283 C 0.40588 0.64249 0.96794
 C1284 C 0.41761 0.65454 0.94681
 C1285 C 0.40502 0.67282 0.93393
 H1286 H 0.38730 0.67902 0.94018
 O1287 O 0.59256 0.37974 0.97856
 O1288 O 0.62089 0.35113 0.97800
 C1289 C 0.60131 0.36017 0.96956
 C1290 C 0.58942 0.34855 0.94817
 C1291 C 0.60115 0.32935 0.93575
 H1292 H 0.61832 0.32216 0.94248
 O1293 O 0.59348 0.52858 0.88127
 O1294 O 0.62196 0.52791 0.85279
 C1295 C 0.60264 0.53711 0.86172
 C1296 C 0.59161 0.55890 0.85013
 C1297 C 0.60532 0.57295 0.83360
 H1298 H 0.62344 0.56712 0.82825
 O1299 O 0.41578 0.47913 0.87961
 O1300 O 0.38776 0.47889 0.85063
 C1301 C 0.40734 0.47047 0.85976
 C1302 C 0.41953 0.44946 0.84789
 C1303 C 0.40812 0.43746 0.82823
 H1304 H 0.39110 0.44435 0.82083
 O1305 O 0.52782 0.62429 0.91361
 O1306 O 0.52781 0.65287 0.88523
 C1307 C 0.53652 0.64388 0.90479
 C1308 C 0.55820 0.65525 0.91627
 C1309 C 0.57206 0.67225 0.90301
 H1310 H 0.56600 0.67831 0.88515
 O1311 O 0.48043 0.38078 0.91417
 O1312 O 0.48088 0.35276 0.88510
 C1313 C 0.47210 0.36118 0.90491
 C1314 C 0.45106 0.34886 0.91649
 C1315 C 0.43905 0.32975 0.90419
 H1316 H 0.44590 0.32307 0.88683
 O1317 O 0.62633 0.59069 0.97752
 O1318 O 0.65450 0.61943 0.97889
 C1319 C 0.64596 0.60004 0.96944
 C1320 C 0.65795 0.58919 0.94775
 C1321 C 0.67455 0.60304 0.93394
 H1322 H 0.67992 0.62112 0.94006
 O1323 O 0.38178 0.41383 0.97680
 O1324 O 0.35361 0.38510 0.97587
 C1325 C 0.36240 0.40494 0.96768
 C1326 C 0.35063 0.41699 0.94653
 C1327 C 0.33151 0.40521 0.93413
 H1328 H 0.32453 0.38792 0.94070
 Cu1329 Cu 0.50405 0.40063 0.90054
 Cu1330 Cu 0.50454 0.36704 0.86556
 Cu1331 Cu 0.50416 0.60475 0.89928
 Cu1332 Cu 0.50409 0.63917 0.86533
 Cu1333 Cu 0.40146 0.50297 0.89902
 Cu1334 Cu 0.36787 0.50256 0.86416
 Cu1335 Cu 0.60670 0.50419 0.90077
 Cu1336 Cu 0.64053 0.50305 0.86625
 C1337 C 0.44103 0.43953 0.85784
 H1338 H 0.44962 0.44835 0.87339
 C1339 C 0.41768 0.41565 0.81902
 C1340 C 0.56867 0.56749 0.85776
 H1341 H 0.55832 0.55713 0.87102
 C1342 C 0.59649 0.59543 0.82527
 C1343 C 0.36001 0.43892 0.93701
 H1344 H 0.37516 0.44780 0.94611
 C1345 C 0.32229 0.41481 0.91237
 C1346 C 0.65029 0.56637 0.93881
 H1347 H 0.63696 0.55595 0.94901
 C1348 C 0.68285 0.59446 0.91128
 C1349 C 0.44103 0.35802 0.93838
 H1350 H 0.44975 0.37322 0.94761
 C1351 C 0.41724 0.32028 0.91334
 C1352 C 0.56718 0.64664 0.93877
 H1353 H 0.55699 0.63295 0.94873
 C1354 C 0.59474 0.68003 0.91173
 C1355 C 0.44097 0.56598 0.85706
 H1356 H 0.45025 0.55666 0.87184
 C1357 C 0.41577 0.59126 0.82047
 C1358 C 0.56712 0.44068 0.85986
 H1359 H 0.56262 0.44526 0.87860
 C1360 C 0.57926 0.42826 0.81176
 C1361 C 0.56775 0.35828 0.93840
 H1362 H 0.55891 0.37347 0.94752
 C1363 C 0.59170 0.32036 0.91376
 C1364 C 0.44001 0.64596 0.93763
 H1365 H 0.44949 0.63140 0.94708
 C1366 C 0.41433 0.68199 0.91203
 C1367 C 0.35802 0.56546 0.93703
 H1368 H 0.37263 0.55605 0.94645
 C1369 C 0.32177 0.59090 0.91155
 C1370 C 0.64700 0.43946 0.93983
 H1371 H 0.63164 0.44824 0.94866
 C1372 C 0.68518 0.41552 0.91577
 O1373 O 0.52702 0.41102 1.12344
 O1374 O 0.52664 0.38219 1.15156
 C1375 C 0.53574 0.40163 1.14282
 C1376 C 0.55781 0.41234 1.15424
 C1377 C 0.57186 0.39834 1.17058
 H1378 H 0.56573 0.38034 1.17609
 O1379 O 0.47933 0.58683 1.12267
 O1380 O 0.47928 0.61472 1.15187
 C1381 C 0.47119 0.59489 1.14289
 C1382 C 0.45180 0.58132 1.15578
 C1383 C 0.44491 0.58790 1.17965
 H1384 H 0.45424 0.60260 1.18913
 O1385 O 0.38087 0.52439 1.08832
 O1386 O 0.35290 0.52505 1.11726
 C1387 C 0.36160 0.53347 1.09748
 C1388 C 0.34980 0.55472 1.08562
 C1389 C 0.33036 0.56680 1.09725
 H1390 H 0.32324 0.56003 1.11443
 O1391 O 0.62598 0.47460 1.09129
 O1392 O 0.65410 0.47529 1.12019
 C1393 C 0.64555 0.46624 1.10060
 C1394 C 0.65738 0.44461 1.08950
 C1395 C 0.67391 0.43053 1.10326
 H1396 H 0.67940 0.43646 1.12140
 O1397 O 0.59190 0.37946 1.02652
 O1398 O 0.62035 0.35094 1.02603
 C1399 C 0.60077 0.35972 1.03487
 C1400 C 0.58906 0.34773 1.05608
 C1401 C 0.60197 0.33016 1.06967
 H1402 H 0.61996 0.32433 1.06387
 O1403 O 0.41499 0.62235 1.02422
 O1404 O 0.38680 0.65112 1.02465
 C1405 C 0.40642 0.64205 1.03304
 C1406 C 0.41854 0.65380 1.05420
 C1407 C 0.40729 0.67362 1.06605
 H1408 H 0.39045 0.68122 1.05895
 O1409 O 0.41323 0.47522 1.12081
 O1410 O 0.38482 0.47548 1.14936
 C1411 C 0.40431 0.46662 1.14041
 C1412 C 0.41598 0.44539 1.15237
 C1413 C 0.40338 0.43253 1.17060
 H1414 H 0.38558 0.43869 1.17664
 O1415 O 0.59123 0.52224 1.12378
 O1416 O 0.61939 0.52271 1.15261
 C1417 C 0.59976 0.53106 1.14355
 C1418 C 0.58765 0.55222 1.15533
 C1419 C 0.59938 0.56463 1.17458
 H1420 H 0.61657 0.55796 1.18176
 O1421 O 0.47871 0.37861 1.08946
 O1422 O 0.47826 0.35004 1.11783
 C1423 C 0.46974 0.35911 1.09824
 C1424 C 0.44817 0.34776 1.08652
 C1425 C 0.43501 0.32958 1.09893
 H1426 H 0.44137 0.32285 1.11644
 O1427 O 0.52653 0.62110 1.08962
 O1428 O 0.52606 0.64927 1.11854
 C1429 C 0.53478 0.64081 1.09874
 C1430 C 0.55562 0.65329 1.08699
 C1431 C 0.56737 0.67268 1.09910
 H1432 H 0.56047 0.67941 1.11643
 O1433 O 0.37994 0.41298 1.02463
 O1434 O 0.35176 0.38425 1.02366
 C1435 C 0.36014 0.40396 1.03261
 C1436 C 0.34756 0.41572 1.05349
 C1437 C 0.32887 0.40335 1.06592
 H1438 H 0.32250 0.38576 1.05937
 O1439 O 0.62421 0.58837 1.02549
 O1440 O 0.65238 0.61708 1.02681
 C1441 C 0.64357 0.59713 1.03476
 C1442 C 0.65526 0.58490 1.05592
 C1443 C 0.67403 0.59691 1.06867
 H1444 H 0.68080 0.61440 1.06233
 O1445 O 0.52694 0.58728 1.12255
 O1446 O 0.52669 0.61561 1.15133
 C1447 C 0.53539 0.59602 1.14238
 C1448 C 0.55631 0.58407 1.15461
 C1449 C 0.56838 0.59612 1.17385
 H1450 H 0.56176 0.61360 1.18050
 O1451 O 0.47893 0.41208 1.12278
 O1452 O 0.47854 0.38338 1.15102
 C1453 C 0.46998 0.40306 1.14217
 C1454 C 0.44830 0.41454 1.15355
 C1455 C 0.43535 0.40202 1.17181
 H1456 H 0.44206 0.38473 1.17874
 O1457 O 0.62419 0.52254 1.08994
 O1458 O 0.65227 0.52319 1.11884
 C1459 C 0.64353 0.53156 1.09899
 C1460 C 0.65525 0.55293 1.08726
 C1461 C 0.67399 0.56540 1.09964
 H1462 H 0.68070 0.55874 1.11706
 O1463 O 0.37917 0.47652 1.08816
 O1464 O 0.35089 0.47709 1.11682
 C1465 C 0.35939 0.46836 1.09704
 C1466 C 0.34709 0.44744 1.08506
 C1467 C 0.32838 0.43481 1.09720
 H1468 H 0.32165 0.44136 1.11465
 O1469 O 0.59136 0.62250 1.02552
 O1470 O 0.61963 0.65112 1.02669
 C1471 C 0.59984 0.64212 1.03464
 C1472 C 0.58742 0.65390 1.05562
 C1473 C 0.59881 0.67328 1.06807
 H1474 H 0.61604 0.68049 1.06159
 O1475 O 0.41408 0.38032 1.02535
 O1476 O 0.38573 0.35175 1.02444
 C1477 C 0.40511 0.36061 1.03361
 C1478 C 0.41650 0.34859 1.05498
 C1479 C 0.40368 0.33041 1.06770
 H1480 H 0.38602 0.32428 1.06122
 O1481 O 0.59169 0.47422 1.12350
 O1482 O 0.62005 0.47465 1.15216
 C1483 C 0.60073 0.46556 1.14306
 C1484 C 0.58966 0.44363 1.15432
 C1485 C 0.60337 0.42933 1.17069
 H1486 H 0.62144 0.43515 1.17628
 O1487 O 0.41426 0.52280 1.12192
 O1488 O 0.38634 0.52298 1.15092
 C1489 C 0.40629 0.53085 1.14221
 C1490 C 0.42009 0.54994 1.15547
 C1491 C 0.41349 0.55675 1.17934
 H1492 H 0.39866 0.54750 1.18859
 O1493 O 0.47880 0.62073 1.08953
 O1494 O 0.47833 0.64862 1.11871
 C1495 C 0.47007 0.64023 1.09868
 C1496 C 0.44947 0.65275 1.08648
 C1497 C 0.43785 0.67255 1.09802
 H1498 H 0.44451 0.67938 1.11543
 O1499 O 0.52660 0.37845 1.08929
 O1500 O 0.52613 0.34979 1.11759
 C1501 C 0.53506 0.35875 1.09814
 C1502 C 0.55671 0.34714 1.08687
 C1503 C 0.56986 0.32948 1.10003
 H1504 H 0.56324 0.32310 1.11756
 O1505 O 0.62633 0.41160 1.02736
 O1506 O 0.65459 0.38289 1.02657
 C1507 C 0.64585 0.40228 1.03582
 C1508 C 0.65748 0.41315 1.05771
 C1509 C 0.67399 0.39933 1.07172
 H1510 H 0.67958 0.38130 1.06561
 O1511 O 0.38141 0.58925 1.02416
 O1512 O 0.35329 0.61808 1.02460
 C1513 C 0.36192 0.59824 1.03295
 C1514 C 0.34987 0.58626 1.05396
 C1515 C 0.33041 0.59797 1.06590
 H1516 H 0.32334 0.61514 1.05904
 Cu1517 Cu 0.50284 0.39796 1.10345
 Cu1518 Cu 0.50232 0.36351 1.13735
 Cu1519 Cu 0.50285 0.60118 1.10314
 Cu1520 Cu 0.50247 0.63493 1.13797
 Cu1521 Cu 0.40056 0.39974 1.00116
 Cu1522 Cu 0.36667 0.36529 0.99998
 Cu1523 Cu 0.60612 0.39908 1.00304
 Cu1524 Cu 0.64011 0.36472 1.00214
 Cu1525 Cu 0.40077 0.60315 1.00017
 Cu1526 Cu 0.36694 0.63775 1.00077
 Cu1527 Cu 0.60566 0.60323 1.00140
 Cu1528 Cu 0.63954 0.63762 1.00304
 Cu1529 Cu 0.39965 0.49975 1.10185
 Cu1530 Cu 0.36584 0.50030 1.13643
 Cu1531 Cu 0.60545 0.49835 1.10424
 Cu1532 Cu 0.63924 0.49916 1.13885
 C1533 C 0.56682 0.43504 1.14632
 H1534 H 0.55650 0.44556 1.13309
 C1535 C 0.59469 0.40662 1.17847
 C1536 C 0.43944 0.56215 1.14394
 H1537 H 0.44444 0.55719 1.12541
 C1538 C 0.42591 0.57557 1.19139
 C1539 C 0.35930 0.56449 1.06383
 H1540 H 0.37466 0.55565 1.05505
 C1541 C 0.32088 0.58840 1.08753
 C1542 C 0.64953 0.43590 1.06661
 H1543 H 0.63629 0.44631 1.05623
 C1544 C 0.68191 0.40783 1.09455
 C1545 C 0.56632 0.35599 1.06476
 H1546 H 0.55663 0.37012 1.05488
 C1547 C 0.59253 0.32134 1.09170
 C1548 C 0.43980 0.64363 1.06441
 H1549 H 0.44826 0.62797 1.05572
 C1550 C 0.41677 0.68276 1.08794
 C1551 C 0.43856 0.43637 1.14407
 H1552 H 0.44809 0.44584 1.12957
 C1553 C 0.41291 0.41087 1.18009
 C1554 C 0.56596 0.56198 1.14558
 H1555 H 0.55713 0.55292 1.13031
 C1556 C 0.58993 0.58660 1.18356
 C1557 C 0.43886 0.35702 1.06442
 H1558 H 0.44853 0.37149 1.05506
 C1559 C 0.41277 0.32115 1.08968
 C1560 C 0.56565 0.64416 1.06510
 H1561 H 0.55711 0.62877 1.05602
 C1562 C 0.58900 0.68240 1.08982
 C1563 C 0.35626 0.43795 1.06299
 H1564 H 0.37107 0.44726 1.05383
 C1565 C 0.31948 0.41276 1.08779
 C1566 C 0.64605 0.56276 1.06527
 H1567 H 0.63108 0.55372 1.05599
 C1568 C 0.68304 0.58740 1.09055
 C1569 C 1.13220 1.13341 1.22315
 C1570 C 1.12750 1.15874 1.22567
 C1571 C 1.14308 1.17345 1.24037
 C1572 C 1.16329 1.16275 1.25242
 C1573 C 1.16822 1.13750 1.24961
 C1574 C 1.15266 1.12280 1.23486
 C1575 C 1.15798 1.09761 1.23227
 C1576 C 1.17794 1.08720 1.24412
 C1577 C 1.19307 1.10155 1.25865
 C1578 C 1.18839 1.12644 1.26137
 C1579 C 1.13792 1.19869 1.24279
 C1580 C 1.11796 1.20912 1.23098
 C1581 C 1.10277 1.19477 1.21652
 C1582 C 1.10740 1.16986 1.21382
 C1583 C 1.17855 1.17760 1.26824
 C1584 C 1.19078 1.19000 1.28178
 C1585 C 1.11609 1.11828 1.20842
 C1586 C 1.10302 1.10576 1.19584
 H1587 H 1.14678 1.08571 1.22111
 H1588 H 1.18177 1.06792 1.24189
 H1589 H 1.20859 1.09338 1.26775
 H1590 H 1.20073 1.13687 1.27277
 H1591 H 1.14922 1.21062 1.25381
 H1592 H 1.11425 1.22844 1.23313
 H1593 H 1.08728 1.20293 1.20738
 H1594 H 1.09505 1.15944 1.20241
 C1595 C 1.13091 0.63241 0.72453
 C1596 C 1.15229 0.62245 0.73515
 C1597 C 1.16809 0.63762 0.74913
 C1598 C 1.16242 0.66266 0.75241
 C1599 C 1.14110 0.67264 0.74174
 C1600 C 1.12533 0.65749 0.72770
 C1601 C 1.10413 0.66791 0.71719
 C1602 C 1.09854 0.69252 0.72071
 C1603 C 1.11387 0.70727 0.73461
 C1604 C 1.13499 0.69759 0.74492
 C1605 C 1.18925 0.62723 0.75972
 C1606 C 1.19456 0.60251 0.75671
 C1607 C 1.17916 0.58768 0.74297
 C1608 C 1.15829 0.59746 0.73221
 C1609 C 1.17805 0.67794 0.76743
 C1610 C 1.19064 0.69055 0.78041
 C1611 C 1.11485 0.61694 0.71012
 C1612 C 1.10177 0.60431 0.69765
 H1613 H 1.09161 0.65715 0.70629
 H1614 H 1.08219 0.70015 0.71265
 H1615 H 1.10939 0.72632 0.73747
 H1616 H 1.14639 0.70983 0.75547
 H1617 H 1.20184 0.63804 0.77047
 H1618 H 1.21079 0.59485 0.76498
 H1619 H 1.18345 0.56851 0.74055
 H1620 H 1.14688 0.58520 0.72167
 C1621 C 0.63261 1.12925 0.72910
 C1622 C 0.65613 1.12146 0.73644
 C1623 C 0.67155 1.13764 0.74968
 C1624 C 0.66337 1.16152 0.75533
 C1625 C 0.63970 1.16917 0.74837
 C1626 C 0.62423 1.15295 0.73529
 C1627 C 0.60056 1.16093 0.72865
 C1628 C 0.59243 1.18428 0.73481
 C1629 C 0.60761 1.20018 0.74754
 C1630 C 0.63102 1.19284 0.75423
 C1631 C 0.69491 1.12941 0.75705
 C1632 C 0.70275 1.10580 0.75160
 C1633 C 0.68774 1.09003 0.73849
 C1634 C 0.66470 1.09768 0.73090
 C1635 C 0.67904 1.17801 0.76889
 C1636 C 0.69175 1.19155 0.78071
 C1637 C 0.61746 1.11333 0.71429
 C1638 C 0.60519 1.10060 0.70117
 H1639 H 0.58806 1.14919 0.71878
 H1640 H 0.57426 1.19007 0.72965
 H1641 H 0.60124 1.21831 0.75226
 H1642 H 0.64219 1.20589 0.76404
 H1643 H 0.70729 1.14104 0.76720
 H1644 H 0.72058 1.09973 0.75757
 H1645 H 0.69397 1.07174 0.73420
 H1646 H 0.65363 1.08470 0.72087
 C1647 C 0.63138 0.62959 1.22855
 C1648 C 0.65388 0.62091 1.23782
 C1649 C 0.66936 0.63690 1.25123
 C1650 C 0.66223 0.66146 1.25520
 C1651 C 0.63946 0.66995 1.24648
 C1652 C 0.62397 0.65396 1.23310
 C1653 C 0.60124 0.66285 1.22460
 C1654 C 0.59395 0.68678 1.22942
 C1655 C 0.60907 0.70238 1.24260
 C1656 C 0.63166 0.69422 1.25092
 C1657 C 0.69170 0.62780 1.26048
 C1658 C 0.69845 0.60353 1.25677
 C1659 C 0.68336 0.58792 1.24356
 C1660 C 0.66135 0.59643 1.23407
 C1661 C 0.67805 0.67783 1.26875
 C1662 C 0.69102 0.69126 1.28044
 C1663 C 0.61626 0.61375 1.21359
 C1664 C 0.60402 0.60103 1.20042
 H1665 H 0.58880 0.65137 1.21435
 H1666 H 0.57643 0.69323 1.22295
 H1667 H 0.60329 0.72089 1.24644
 H1668 H 0.64284 0.70708 1.26095
 H1669 H 0.70409 0.63927 1.27078
 H1670 H 0.71553 0.59683 1.26410
 H1671 H 0.68873 0.56910 1.24063
 H1672 H 0.65019 0.58358 1.22397
 C1673 C 0.86698 0.87057 1.22303
 C1674 C 0.84415 0.87898 1.23176
 C1675 C 0.82923 0.86330 1.24601
 C1676 C 0.83717 0.83928 1.25135
 C1677 C 0.86002 0.83090 1.24271
 C1678 C 0.87498 0.84659 1.22852
 C1679 C 0.89783 0.83783 1.22021
 C1680 C 0.90574 0.81434 1.22596
 C1681 C 0.89113 0.79904 1.23991
 C1682 C 0.86846 0.80707 1.24811
 C1683 C 0.80662 0.87219 1.25480
 C1684 C 0.79903 0.89594 1.24976
 C1685 C 0.81355 0.91123 1.23569
 C1686 C 0.83583 0.90292 1.22669
 C1687 C 0.82219 0.82348 1.26636
 C1688 C 0.80997 0.81053 1.27926
 C1689 C 0.88210 0.88642 1.20816
 C1690 C 0.89456 0.89918 1.19531
 H1691 H 0.90987 0.84906 1.20934
 H1692 H 0.92332 0.80799 1.21958
 H1693 H 0.89737 0.78084 1.24442
 H1694 H 0.85770 0.79444 1.25877
 H1695 H 0.79463 0.86095 1.26573
 H1696 H 0.78176 0.90248 1.25678
 H1697 H 0.80751 0.92963 1.23173
 H1698 H 0.84650 0.91550 1.21586
 C1699 C 0.87061 0.37604 0.73050
 C1700 C 0.88136 0.35684 0.74406
 C1701 C 0.86644 0.34122 0.75833
 C1702 C 0.84087 0.34473 0.75869
 C1703 C 0.83019 0.36432 0.74566
 C1704 C 0.84511 0.38004 0.73150
 C1705 C 0.83404 0.39947 0.71853
 C1706 C 0.80893 0.40331 0.71962
 C1707 C 0.79434 0.38797 0.73355
 C1708 C 0.80474 0.36865 0.74645
 C1709 C 0.87757 0.32216 0.77181
 C1710 C 0.90269 0.31845 0.77094
 C1711 C 0.91727 0.33365 0.75683
 C1712 C 0.90684 0.35270 0.74356
 C1713 C 0.82559 0.32828 0.77257
 C1714 C 0.81306 0.31482 0.78455
 C1715 C 0.88557 0.39102 0.71471
 C1716 C 0.89759 0.40304 0.70083
 H1717 H 0.84465 0.41197 0.70754
 H1718 H 0.80078 0.41829 0.70963
 H1719 H 0.77486 0.39106 0.73441
 H1720 H 0.79264 0.35725 0.75708
 H1721 H 0.86698 0.30983 0.78302
 H1722 H 0.91088 0.30370 0.78125
 H1723 H 0.93678 0.33070 0.75620
 H1724 H 0.91895 0.36410 0.73294
 C1725 C 0.36975 0.86788 0.72492
 C1726 C 0.37276 0.84218 0.72419
 C1727 C 0.35698 0.82694 0.73799
 C1728 C 0.33830 0.83749 0.75241
 C1729 C 0.33503 0.86315 0.75283
 C1730 C 0.35075 0.87840 0.73897
 C1731 C 0.34705 0.90399 0.73959
 C1732 C 0.32839 0.91423 0.75355
 C1733 C 0.31311 0.89933 0.76723
 C1734 C 0.31634 0.87408 0.76696
 C1735 C 0.36042 0.80131 0.73714
 C1736 C 0.37893 0.79101 0.72306
 C1737 C 0.39430 0.80590 0.70948
 C1738 C 0.39135 0.83119 0.70996
 C1739 C 0.32302 0.82206 0.76749
 C1740 C 0.31066 0.80947 0.78061
 C1741 C 0.38599 0.88343 0.71096
 C1742 C 0.39919 0.89617 0.69887
 H1743 H 0.35849 0.91633 0.72929
 H1744 H 0.32575 0.93384 0.75373
 H1745 H 0.29861 0.90734 0.77801
 H1746 H 0.30398 0.86323 0.77784
 H1747 H 0.34888 0.78899 0.74734
 H1748 H 0.38136 0.77139 0.72279
 H1749 H 0.40867 0.79783 0.69859
 H1750 H 0.40383 0.84200 0.69913
 C1751 C 0.37059 0.36850 1.22456
 C1752 C 0.34710 0.37662 1.23162
 C1753 C 0.33213 0.36145 1.24637
 C1754 C 0.34070 0.33823 1.25386
 C1755 C 0.36399 0.32991 1.24634
 C1756 C 0.37904 0.34517 1.23179
 C1757 C 0.40237 0.33659 1.22472
 C1758 C 0.41049 0.31350 1.23164
 C1759 C 0.39565 0.29848 1.24564
 C1760 C 0.37267 0.30651 1.25302
 C1761 C 0.30877 0.36999 1.25331
 C1762 C 0.30047 0.39289 1.24598
 C1763 C 0.31508 0.40770 1.23151
 C1764 C 0.33812 0.39973 1.22430
 C1765 C 0.32583 0.32325 1.26983
 C1766 C 0.31362 0.31105 1.28347
 C1767 C 0.38584 0.38390 1.20941
 C1768 C 0.39838 0.39639 1.19640
 H1769 H 0.41455 0.34762 1.21380
 H1770 H 0.42835 0.30719 1.22601
 H1771 H 0.40198 0.28048 1.25071
 H1772 H 0.36174 0.29418 1.26384
 H1773 H 0.29667 0.35908 1.26442
 H1774 H 0.28261 0.39916 1.25151
 H1775 H 0.30851 0.42546 1.22583
 H1776 H 0.34879 0.41188 1.21300
 C1777 C 0.86308 1.13594 0.78281
 C1778 C 0.84745 1.15301 0.79441
 C1779 C 0.83254 1.16869 0.78005
 C1780 C 0.83341 1.16717 0.75421
 C1781 C 0.84891 1.14996 0.74265
 C1782 C 0.86380 1.13431 0.75700
 C1783 C 0.87918 1.11728 0.74502
 C1784 C 0.87980 1.11573 0.71959
 C1785 C 0.86525 1.13103 0.70554
 C1786 C 0.84996 1.14798 0.71682
 C1787 C 0.81713 1.18566 0.79199
 C1788 C 0.81655 1.18722 0.81744
 C1789 C 0.83112 1.17190 0.83149
 C1790 C 0.84640 1.15492 0.82021
 C1791 C 0.81848 1.18312 0.73924
 C1792 C 0.80649 1.19551 0.72554
 C1793 C 0.87862 1.12011 0.79730
 C1794 C 0.89166 1.10687 0.80907
 H1795 H 0.89084 1.10495 0.75514
 H1796 H 0.89167 1.10259 0.71076
 H1797 H 0.86583 1.12980 0.68578
 H1798 H 0.83898 1.15942 0.70504
 H1799 H 0.80544 1.19791 0.78181
 H1800 H 0.80473 1.20038 0.82630
 H1801 H 0.83058 1.17316 0.85124
 H1802 H 0.85737 1.14337 0.83189
 C1803 C 0.86990 0.63280 0.27451
 C1804 C 0.87680 0.65738 0.27042
 C1805 C 0.86155 0.67291 0.25631
 C1806 C 0.83948 0.66380 0.24642
 C1807 C 0.83269 0.63916 0.25031
 C1808 C 0.84791 0.62363 0.26446
 C1809 C 0.84073 0.59908 0.26815
 C1810 C 0.81929 0.59004 0.25785
 C1811 C 0.80452 0.60517 0.24383
 C1812 C 0.81096 0.62950 0.24017
 C1813 C 0.86890 0.69735 0.25226
 C1814 C 0.89080 0.70612 0.26174
 C1815 C 0.90566 0.69099 0.27568
 C1816 C 0.89880 0.66689 0.28009
 C1817 C 0.82413 0.67953 0.23167
 C1818 C 0.81154 0.69231 0.21892
 C1819 C 0.88515 0.61709 0.28941
 C1820 C 0.89747 0.60428 0.30237
 H1821 H 0.85163 0.58660 0.27891
 H1822 H 0.81411 0.57120 0.26080
 H1823 H 0.78789 0.59806 0.23585
 H1824 H 0.79881 0.64059 0.22926
 H1825 H 0.85790 0.70987 0.24166
 H1826 H 0.89625 0.72477 0.25819
 H1827 H 0.92264 0.69791 0.28305
 H1828 H 0.91098 0.65580 0.29101
 C1829 C 0.37201 1.13140 0.27674
 C1830 C 0.37936 1.15551 0.27101
 C1831 C 0.36393 1.17073 0.25672
 C1832 C 0.34130 1.16169 0.24809
 C1833 C 0.33388 1.13763 0.25390
 C1834 C 0.34924 1.12247 0.26833
 C1835 C 0.34135 1.09854 0.27401
 C1836 C 0.31903 1.08977 0.26552
 C1837 C 0.30408 1.10456 0.25130
 C1838 C 0.31128 1.12825 0.24556
 C1839 C 0.37160 1.19481 0.25139
 C1840 C 0.39396 1.20355 0.25977
 C1841 C 0.40910 1.18865 0.27365
 C1842 C 0.40196 1.16491 0.27930
 C1843 C 0.32589 1.17694 0.23281
 C1844 C 0.31323 1.18943 0.21982
 C1845 C 0.38762 1.11604 0.29174
 C1846 C 0.40037 1.10361 0.30470
 H1847 H 0.35235 1.08635 0.28501
 H1848 H 0.31330 1.07141 0.27003
 H1849 H 0.28676 1.09767 0.24473
 H1850 H 0.29897 1.13908 0.23452
 H1851 H 0.36041 1.20711 0.24075
 H1852 H 0.39955 1.22200 0.25551
 H1853 H 0.42647 1.19553 0.28011
 H1854 H 0.41436 1.15403 0.29018
 C1855 C 0.37226 0.63315 0.77645
 C1856 C 0.37865 0.65769 0.77142
 C1857 C 0.36272 0.67259 0.75736
 C1858 C 0.34050 0.66287 0.74844
 C1859 C 0.33418 0.63830 0.75330
 C1860 C 0.35010 0.62339 0.76736
 C1861 C 0.34344 0.59884 0.77191
 C1862 C 0.32181 0.58922 0.76259
 C1863 C 0.30630 0.60378 0.74873
 C1864 C 0.31225 0.62809 0.74419
 C1865 C 0.36960 0.69699 0.75236
 C1866 C 0.39171 0.70631 0.76076
 C1867 C 0.40723 0.69178 0.77461
 C1868 C 0.40084 0.66777 0.78003
 C1869 C 0.32459 0.67788 0.73351
 C1870 C 0.31176 0.69024 0.72060
 C1871 C 0.38825 0.61811 0.79130
 C1872 C 0.40115 0.60576 0.80417
 H1873 H 0.35493 0.58680 0.78255
 H1874 H 0.31705 0.57037 0.76617
 H1875 H 0.28953 0.59622 0.74150
 H1876 H 0.29955 0.63871 0.73341
 H1877 H 0.35806 0.70909 0.74184
 H1878 H 0.39680 0.72491 0.75646
 H1879 H 0.42436 0.69912 0.78116
 H1880 H 0.41354 0.65718 0.79085
 C1881 C 1.13352 0.86542 0.77858
 C1882 C 1.12728 0.84069 0.77419
 C1883 C 1.14309 0.82558 0.76016
 C1884 C 1.16501 0.83530 0.75062
 C1885 C 1.17137 0.85995 0.75519
 C1886 C 1.15559 0.87506 0.76925
 C1887 C 1.16233 0.89967 0.77358
 C1888 C 1.18392 0.90911 0.76410
 C1889 C 1.19927 0.89436 0.75024
 C1890 C 1.19321 0.87003 0.74584
 C1891 C 1.13641 0.80096 0.75584
 C1892 C 1.11463 0.79160 0.76492
 C1893 C 1.09919 0.80634 0.77869
 C1894 C 1.10539 0.83060 0.78341
 C1895 C 1.18052 0.82020 0.73531
 C1896 C 1.19295 0.80775 0.72205
 C1897 C 1.11737 0.88087 0.79287
 C1898 C 1.10422 0.89358 0.80516
 H1899 H 1.15098 0.91189 0.78421
 H1900 H 1.18878 0.92797 0.76756
 H1901 H 1.21600 0.90179 0.74290
 H1902 H 1.20581 0.85929 0.73502
 H1903 H 1.14788 0.78873 0.74536
 H1904 H 1.10972 0.77281 0.76120
 H1905 H 1.08229 0.79899 0.78573
 H1906 H 1.09278 0.84134 0.79421
 C1907 C 1.13010 0.36897 0.27710
 C1908 C 1.12281 0.34498 0.27066
 C1909 C 1.13866 0.32989 0.25666
 C1910 C 1.16159 0.33895 0.24903
 C1911 C 1.16904 0.36279 0.25581
 C1912 C 1.15324 0.37784 0.26990
 C1913 C 1.16107 0.40163 0.27644
 C1914 C 1.18382 0.41030 0.26920
 C1915 C 1.19924 0.39558 0.25539
 C1916 C 1.19205 0.37207 0.24875
 C1917 C 1.13106 0.30594 0.25053
 C1918 C 1.10833 0.29723 0.25778
 C1919 C 1.09278 0.31202 0.27137
 C1920 C 1.09987 0.33561 0.27786
 C1921 C 1.17707 0.32413 0.23341
 C1922 C 1.18961 0.31200 0.21994
 C1923 C 1.11401 0.38435 0.29152
 C1924 C 1.10099 0.39700 0.30399
 H1925 H 1.14971 0.41377 0.28715
 H1926 H 1.18951 0.42853 0.27435
 H1927 H 1.21688 0.40240 0.24983
 H1928 H 1.20472 0.36127 0.23810
 H1929 H 1.14261 0.29369 0.24018
 H1930 H 1.10277 0.27890 0.25284
 H1931 H 1.07512 0.30518 0.27695
 H1932 H 1.08717 0.34640 0.28851
 C1933 C 0.63497 0.86985 0.27727
 C1934 C 0.63069 0.84436 0.27601
 C1935 C 0.64584 0.82934 0.26119
 C1936 C 0.66522 0.83990 0.24782
 C1937 C 0.66942 0.86540 0.24897
 C1938 C 0.65432 0.88041 0.26384
 C1939 C 0.65892 0.90584 0.26477
 C1940 C 0.67774 0.91617 0.25119
 C1941 C 0.69236 0.90152 0.23645
 C1942 C 0.68836 0.87641 0.23534
 C1943 C 0.64102 0.80397 0.25993
 C1944 C 0.62172 0.79374 0.27287
 C1945 C 0.60698 0.80838 0.28749
 C1946 C 0.61137 0.83340 0.28916
 C1947 C 0.68042 0.82462 0.23239
 C1948 C 0.69278 0.81210 0.21913
 C1949 C 0.61951 0.88519 0.29242
 C1950 C 0.60691 0.89776 0.30539
 H1951 H 0.64802 0.91800 0.27594
 H1952 H 0.68101 0.93566 0.25212
 H1953 H 0.70694 0.90964 0.22591
 H1954 H 0.70022 0.86576 0.22367
 H1955 H 0.65199 0.79180 0.24882
 H1956 H 0.61816 0.77436 0.27144
 H1957 H 0.59198 0.80037 0.29751
 H1958 H 0.59937 0.84406 0.30071
 C1959 C 0.59489 0.41064 0.74075
 C1960 C 0.58362 0.38996 0.72999
 C1961 C 0.58839 0.38398 0.70516
 C1962 C 0.60436 0.39874 0.69125
 C1963 C 0.61572 0.41935 0.70204
 C1964 C 0.61101 0.42529 0.72690
 C1965 C 0.62265 0.44591 0.73734
 C1966 C 0.63849 0.46027 0.72360
 C1967 C 0.64304 0.45449 0.69926
 C1968 C 0.63182 0.43430 0.68850
 C1969 C 0.57698 0.36318 0.69479
 C1970 C 0.56127 0.34873 0.70856
 C1971 C 0.55657 0.35460 0.73285
 C1972 C 0.56757 0.37495 0.74354
 C1973 C 0.60929 0.39258 0.66594
 C1974 C 0.61365 0.38735 0.64497
 C1975 C 0.58968 0.41695 0.76598
 C1976 C 0.58509 0.42214 0.78689
 H1977 H 0.61968 0.45113 0.75621
 H1978 H 0.64723 0.47598 0.73188
 H1979 H 0.65531 0.46573 0.68863
 H1980 H 0.63586 0.43060 0.66950
 H1981 H 0.58008 0.35788 0.67597
 H1982 H 0.55271 0.33289 0.70034
 H1983 H 0.54435 0.34332 0.74349
 H1984 H 0.56337 0.37874 0.76251
 C1985 C 1.22445 1.13232 1.13253
 C1986 C 1.22697 1.12701 1.15776
 C1987 C 1.24202 1.14195 1.17279
 C1988 C 1.25438 1.16217 1.16254
 C1989 C 1.25186 1.16749 1.13733
 C1990 C 1.23680 1.15257 1.12230
 C1991 C 1.23456 1.15825 1.09715
 C1992 C 1.24708 1.17795 1.08708
 C1993 C 1.26191 1.19246 1.10175
 C1994 C 1.26427 1.18744 1.12661
 C1995 C 1.24448 1.13613 1.19789
 C1996 C 1.23249 1.11605 1.20783
 C1997 C 1.21770 1.10149 1.19315
 C1998 C 1.21484 1.10687 1.16842
 C1999 C 1.27003 1.17720 1.17782
 C2000 C 1.28332 1.18956 1.19037
 C2001 C 1.20918 1.11697 1.11715
 C2002 C 1.19618 1.10440 1.10452
 H2003 H 1.22320 1.14753 1.08500
 H2004 H 1.24518 1.18203 1.06781
 H2005 H 1.27156 1.20777 1.09386
 H2006 H 1.27597 1.19927 1.13728
 H2007 H 1.25577 1.14692 1.21005
 H2008 H 1.23478 1.11175 1.22700
 H2009 H 1.20847 1.08587 1.20091
 H2010 H 1.20313 1.09501 1.15776
 C2011 C 1.22342 0.63173 0.63423
 C2012 C 1.22746 0.62570 0.65909
 C2013 C 1.24227 0.64102 0.67399
 C2014 C 1.25293 0.66229 0.66395
 C2015 C 1.24894 0.66831 0.63910
 C2016 C 1.23412 0.65301 0.62420
 C2017 C 1.23044 0.65939 0.59940
 C2018 C 1.24130 0.68015 0.58953
 C2019 C 1.25587 0.69505 0.60408
 C2020 C 1.25960 0.68937 0.62862
 C2021 C 1.24619 0.63453 0.69873
 C2022 C 1.23591 0.61342 0.70845
 C2023 C 1.22138 0.59847 0.69390
 C2024 C 1.21708 0.60448 0.66952
 C2025 C 1.26853 0.67761 0.67898
 C2026 C 1.28183 0.69016 0.69129
 C2027 C 1.20810 0.61621 0.61905
 C2028 C 1.19498 0.60366 0.60653
 H2029 H 1.21924 0.64838 0.58736
 H2030 H 1.23834 0.68473 0.57051
 H2031 H 1.26420 0.71121 0.59635
 H2032 H 1.27098 0.70162 0.63921
 H2033 H 1.25730 0.64562 0.71079
 H2034 H 1.23928 0.60865 0.72735
 H2035 H 1.21346 0.58206 0.70150
 H2036 H 1.20568 0.59226 0.65894
 C2037 C 0.72735 1.13133 0.63491
 C2038 C 0.73376 1.12395 0.65888
 C2039 C 0.74696 1.14012 0.67438
 C2040 C 0.75354 1.16360 0.66586
 C2041 C 0.74757 1.17080 0.64174
 C2042 C 0.73446 1.15461 0.62620
 C2043 C 0.72877 1.16220 0.60212
 C2044 C 0.73593 1.18508 0.59361
 C2045 C 0.74876 1.20089 0.60882
 C2046 C 0.75449 1.19397 0.63264
 C2047 C 0.75339 1.13228 0.69819
 C2048 C 0.74708 1.10906 0.70640
 C2049 C 0.73402 1.09330 0.69132
 C2050 C 0.72734 1.10059 0.66783
 C2051 C 0.76701 1.18011 0.68166
 C2052 C 0.77874 1.19364 0.69450
 C2053 C 0.71272 1.11538 0.61954
 C2054 C 0.69990 1.10257 0.60700
 H2055 H 0.71888 1.15051 0.58959
 H2056 H 0.73149 1.19056 0.57511
 H2057 H 0.75429 1.21864 0.60216
 H2058 H 0.76441 1.20695 0.64380
 H2059 H 0.76349 1.14390 0.71063
 H2060 H 0.75236 1.10328 0.72457
 H2061 H 0.72908 1.07531 0.69782
 H2062 H 0.71731 1.08764 0.65673
 C2063 C 0.72653 0.63098 1.13282
 C2064 C 0.73051 0.62543 1.15779
 C2065 C 0.74422 0.64171 1.17268
 C2066 C 0.75390 0.66337 1.16249
 C2067 C 0.74982 0.66898 1.13755
 C2068 C 0.73609 0.65272 1.12266
 C2069 C 0.73225 0.65866 1.09776
 C2070 C 0.74173 0.68007 1.08787
 C2071 C 0.75515 0.69598 1.10243
 C2072 C 0.75921 0.69060 1.12700
 C2073 C 0.74796 0.63583 1.19761
 C2074 C 0.73859 0.61437 1.20747
 C2075 C 0.72518 0.59843 1.19290
 C2076 C 0.72107 0.60384 1.16834
 C2077 C 0.76882 0.67939 1.17743
 C2078 C 0.78177 0.69225 1.18975
 C2079 C 0.71198 0.61478 1.11775
 C2080 C 0.69927 0.60188 1.10523
 H2081 H 0.72197 0.64684 1.08567
 H2082 H 0.73868 0.68430 1.06878
 H2083 H 0.76249 0.71255 1.09463
 H2084 H 0.76972 0.70353 1.13762
 H2085 H 0.75810 0.64774 1.20972
 H2086 H 0.74180 0.61010 1.22652
 H2087 H 0.71795 0.58177 1.20064
 H2088 H 0.71052 0.59088 1.15774
 C2089 C 1.22608 0.86902 0.86939
 C2090 C 1.23116 0.87607 0.84501
 C2091 C 1.24547 0.86063 0.82977
 C2092 C 1.25458 0.83827 0.83901
 C2093 C 1.24987 0.83143 0.86351
 C2094 C 1.23549 0.84681 0.87873
 C2095 C 1.23098 0.83957 0.90315
 C2096 C 1.24075 0.81795 0.91239
 C2097 C 1.25499 0.80302 0.89755
 C2098 C 1.25941 0.80950 0.87334
 C2099 C 1.25049 0.86811 0.80553
 C2100 C 1.24181 0.89031 0.79665
 C2101 C 1.22773 0.90537 0.81151
 C2102 C 1.22234 0.89840 0.83540
 C2103 C 1.26927 0.82257 0.82350
 C2104 C 1.28185 0.80975 0.81075
 C2105 C 1.21086 0.88443 0.88471
 C2106 C 1.19771 0.89695 0.89718
 H2107 H 1.22002 0.85059 0.91540
 H2108 H 1.23722 0.81272 0.93114
 H2109 H 1.26253 0.78625 0.90480
 H2110 H 1.27047 0.79722 0.86248
 H2111 H 1.26125 0.85697 0.79324
 H2112 H 1.24604 0.89582 0.77814
 H2113 H 1.22094 0.92255 0.80450
 H2114 H 1.21138 0.91077 0.84627
 C2115 C 1.22465 0.36852 0.37072
 C2116 C 1.23164 0.37664 0.34718
 C2117 C 1.24681 0.36171 0.33227
 C2118 C 1.25491 0.33873 0.34097
 C2119 C 1.24778 0.33055 0.36445
 C2120 C 1.23260 0.34548 0.37936
 C2121 C 1.22570 0.33690 0.40275
 C2122 C 1.23368 0.31428 0.41122
 C2123 C 1.24854 0.29971 0.39667
 C2124 C 1.25552 0.30763 0.37352
 C2125 C 1.25355 0.37024 0.30882
 C2126 C 1.24561 0.39289 0.30039
 C2127 C 1.23079 0.40749 0.31497
 C2128 C 1.22379 0.39953 0.33809
 C2129 C 1.27081 0.32369 0.32591
 C2130 C 1.28423 0.31130 0.31353
 C2131 C 1.20890 0.38366 0.38581
 C2132 C 1.19540 0.39606 0.39804
 H2133 H 1.21414 0.34757 0.41474
 H2134 H 1.22825 0.30801 0.42916
 H2135 H 1.25464 0.28216 0.40335
 H2136 H 1.26702 0.29561 0.36284
 H2137 H 1.26499 0.35952 0.29678
 H2138 H 1.25094 0.39916 0.28244
 H2139 H 1.22466 0.42507 0.30832
 H2140 H 1.21223 0.41153 0.34874
 C2141 C 0.72446 0.86686 0.36931
 C2142 C 0.72450 0.87134 0.34380
 C2143 C 0.73860 0.85629 0.32799
 C2144 C 0.75242 0.83676 0.33777
 C2145 C 0.75219 0.83213 0.36323
 C2146 C 0.73812 0.84719 0.37905
 C2147 C 0.73819 0.84222 0.40444
 C2148 C 0.75193 0.82303 0.41396
 C2149 C 0.76580 0.80839 0.39851
 C2150 C 0.76596 0.81277 0.37343
 C2151 C 0.73867 0.86133 0.30261
 C2152 C 0.72519 0.88069 0.29312
 C2153 C 0.71123 0.89529 0.30853
 C2154 C 0.71080 0.89074 0.33360
 C2155 C 0.76748 0.82189 0.32180
 C2156 C 0.78056 0.80971 0.30891
 C2157 C 0.71039 0.88248 0.38549
 C2158 C 0.69832 0.89538 0.39866
 H2159 H 0.72767 0.85306 0.41720
 H2160 H 0.75173 0.81945 0.43342
 H2161 H 0.77640 0.79347 0.40597
 H2162 H 0.77698 0.80084 0.36216
 H2163 H 0.74922 0.85046 0.28988
 H2164 H 0.72572 0.88444 0.27371
 H2165 H 0.70080 0.91033 0.30108
 H2166 H 0.69972 0.90265 0.34486
 C2167 C 0.73018 0.37340 0.87368
 C2168 C 0.74092 0.35202 0.88347
 C2169 C 0.75425 0.33601 0.86797
 C2170 C 0.75700 0.34164 0.84288
 C2171 C 0.74658 0.36322 0.83317
 C2172 C 0.73305 0.37911 0.84861
 C2173 C 0.72268 0.40053 0.83848
 C2174 C 0.72568 0.40610 0.81381
 C2175 C 0.73902 0.39061 0.79873
 C2176 C 0.74938 0.36938 0.80819
 C2177 C 0.76461 0.31461 0.87808
 C2178 C 0.76222 0.30940 0.90290
 C2179 C 0.74932 0.32514 0.91810
 C2180 C 0.73866 0.34619 0.90858
 C2181 C 0.77139 0.32584 0.82721
 C2182 C 0.78391 0.31337 0.81408
 C2183 C 0.71528 0.38892 0.88912
 C2184 C 0.70210 0.40138 0.90157
 H2185 H 0.71225 0.41322 0.84951
 H2186 H 0.71765 0.42256 0.80638
 H2187 H 0.74138 0.39504 0.77959
 H2188 H 0.75958 0.35790 0.79571
 H2189 H 0.77449 0.30164 0.86691
 H2190 H 0.77021 0.29292 0.91032
 H2191 H 0.74740 0.32094 0.93735
 H2192 H 0.72874 0.35785 0.92111
 C2193 C 0.77593 0.87170 1.12966
 C2194 C 0.77006 0.87945 1.15367
 C2195 C 0.75661 0.86378 1.16932
 C2196 C 0.74902 0.84054 1.16079
 C2197 C 0.75487 0.83283 1.13678
 C2198 C 0.76846 0.84842 1.12119
 C2199 C 0.77420 0.84030 1.09728
 C2200 C 0.76641 0.81755 1.08889
 C2201 C 0.75289 0.80241 1.10406
 C2202 C 0.74730 0.80977 1.12780
 C2203 C 0.75094 0.87188 1.19325
 C2204 C 0.75806 0.89494 1.20137
 C2205 C 0.77123 0.91027 1.18607
 C2206 C 0.77730 0.90268 1.16250
 C2207 C 0.73442 0.82496 1.17638
 C2208 C 0.72176 0.81226 1.18908
 C2209 C 0.79014 0.88738 1.11385
 C2210 C 0.80259 0.89997 1.10088
 H2211 H 0.78462 0.85145 1.08477
 H2212 H 0.77087 0.81167 1.07052
 H2213 H 0.74677 0.78483 1.09741
 H2214 H 0.73693 0.79726 1.13898
 H2215 H 0.74095 0.86051 1.20590
 H2216 H 0.75335 0.90092 1.21965
 H2217 H 0.77681 0.92815 1.19250
 H2218 H 0.78757 0.91524 1.15127
 C2219 C 0.73785 0.40905 0.59305
 C2220 C 0.72698 0.41894 0.61436
 C2221 C 0.70242 0.41310 0.62015
 C2222 C 0.68890 0.39748 0.60453
 C2223 C 0.69990 0.38725 0.58345
 C2224 C 0.72447 0.39305 0.57769
 C2225 C 0.73512 0.38260 0.55653
 C2226 C 0.72188 0.36681 0.54152
 C2227 C 0.69785 0.36111 0.54718
 C2228 C 0.68688 0.37119 0.56785
 C2229 C 0.69196 0.42307 0.64162
 C2230 C 0.70537 0.43843 0.65692
 C2231 C 0.72937 0.44423 0.65120
 C2232 C 0.74014 0.43464 0.63019
 C2233 C 0.66372 0.39183 0.61021
 C2234 C 0.64287 0.38701 0.61509
 C2235 C 0.76270 0.41549 0.58680
 C2236 C 0.78327 0.42094 0.58144
 H2237 H 0.75378 0.38644 0.55140
 H2238 H 0.73033 0.35896 0.52542
 H2239 H 0.68764 0.34881 0.53549
 H2240 H 0.66813 0.36623 0.57148
 H2241 H 0.67339 0.41904 0.64686
 H2242 H 0.69711 0.44584 0.67331
 H2243 H 0.73972 0.45618 0.66313
 H2244 H 0.75889 0.43961 0.62656
 C2245 C 0.27991 0.86592 0.63478
 C2246 C 0.27956 0.86964 0.66044
 C2247 C 0.26503 0.85434 0.67550
 C2248 C 0.25111 0.83532 0.66485
 C2249 C 0.25161 0.83146 0.63924
 C2250 C 0.26605 0.84681 0.62416
 C2251 C 0.26617 0.84267 0.59859
 C2252 C 0.25237 0.82392 0.58822
 C2253 C 0.23822 0.80894 0.60297
 C2254 C 0.23778 0.81257 0.62820
 C2255 C 0.26466 0.85862 0.70105
 C2256 C 0.27825 0.87748 0.71142
 C2257 C 0.29261 0.89233 0.69673
 C2258 C 0.29335 0.88853 0.67153
 C2259 C 0.23573 0.82013 0.68009
 C2260 C 0.22248 0.80768 0.69243
 C2261 C 0.29458 0.88169 0.61936
 C2262 C 0.30710 0.89460 0.60671
 H2263 H 0.27688 0.85385 0.58636
 H2264 H 0.25273 0.82097 0.56864
 H2265 H 0.22760 0.79434 0.59486
 H2266 H 0.22651 0.80041 0.63890
 H2267 H 0.25380 0.84753 0.71324
 H2268 H 0.27753 0.88061 0.73095
 H2269 H 0.30314 0.90696 0.70487
 H2270 H 0.30473 0.90061 0.66086
 C2271 C 0.27467 0.37075 1.13032
 C2272 C 0.26815 0.37911 1.15395
 C2273 C 0.25393 0.36402 1.16953
 C2274 C 0.24624 0.34070 1.16133
 C2275 C 0.25260 0.33241 1.13763
 C2276 C 0.26689 0.34747 1.12209
 C2277 C 0.27299 0.33878 1.09847
 C2278 C 0.26502 0.31599 1.09035
 C2279 C 0.25099 0.30131 1.10552
 C2280 C 0.24489 0.30927 1.12894
 C2281 C 0.24765 0.37278 1.19308
 C2282 C 0.25497 0.39588 1.20091
 C2283 C 0.26883 0.41065 1.18568
 C2284 C 0.27548 0.40242 1.16249
 C2285 C 0.23131 0.32543 1.17700
 C2286 C 0.21861 0.31273 1.18970
 C2287 C 0.28983 0.38589 1.11471
 C2288 C 0.30293 0.39830 1.10215
 H2289 H 0.28384 0.34955 1.08598
 H2290 H 0.26975 0.30969 1.07218
 H2291 H 0.24480 0.28363 1.09913
 H2292 H 0.23401 0.29715 1.14009
 H2293 H 0.23697 0.36192 1.20562
 H2294 H 0.24989 0.40236 1.21890
 H2295 H 0.27448 0.42858 1.19186
 H2296 H 0.28627 0.41459 1.15132
 C2297 C 0.78300 1.13634 0.86376
 C2298 C 0.78284 1.13311 0.83804
 C2299 C 0.76844 1.14874 0.82315
 C2300 C 0.75449 1.16758 0.83406
 C2301 C 0.75560 1.17157 0.85963
 C2302 C 0.76986 1.15586 0.87454
 C2303 C 0.77052 1.16006 0.90010
 C2304 C 0.75748 1.17928 0.91060
 C2305 C 0.74355 1.19468 0.89601
 C2306 C 0.74254 1.19095 0.87081
 C2307 C 0.76847 1.14517 0.79750
 C2308 C 0.78261 1.12686 0.78684
 C2309 C 0.79682 1.11166 0.80139
 C2310 C 0.79691 1.11459 0.82673
 C2311 C 0.73804 1.18211 0.81931
 C2312 C 0.72345 1.19382 0.80773
 C2313 C 0.79659 1.11966 0.87921
 C2314 C 0.80797 1.10615 0.89232
 H2315 H 0.78111 1.14861 0.91224
 H2316 H 0.75823 1.18223 0.93017
 H2317 H 0.73347 1.20961 0.90424
 H2318 H 0.73148 1.20345 0.86023
 H2319 H 0.75784 1.15666 0.78543
 H2320 H 0.78265 1.12455 0.76717
 H2321 H 0.80791 1.09758 0.79300
 H2322 H 0.80829 1.10239 0.83730
 C2323 C 0.77708 0.63442 0.36815
 C2324 C 0.76693 0.65634 0.37749
 C2325 C 0.75315 0.67182 0.36189
 C2326 C 0.74964 0.66531 0.33707
 C2327 C 0.75972 0.64338 0.32773
 C2328 C 0.77351 0.62789 0.34332
 C2329 C 0.78331 0.60598 0.33361
 C2330 C 0.77934 0.59944 0.30927
 C2331 C 0.76572 0.61454 0.29407
 C2332 C 0.75612 0.63635 0.30305
 C2333 C 0.74291 0.69349 0.37169
 C2334 C 0.74606 0.69957 0.39625
 C2335 C 0.75966 0.68449 0.41148
 C2336 C 0.77009 0.66314 0.40229
 C2337 C 0.73466 0.68053 0.32146
 C2338 C 0.72152 0.69274 0.30874
 C2339 C 0.79135 0.61872 0.38401
 C2340 C 0.80372 0.60591 0.39692
 H2341 H 0.79399 0.59361 0.34473
 H2342 H 0.78681 0.58252 0.30221
 H2343 H 0.76249 0.60932 0.27524
 H2344 H 0.74580 0.64755 0.29046
 H2345 H 0.73233 0.70590 0.36052
 H2346 H 0.73800 0.71614 0.40346
 H2347 H 0.76217 0.68936 0.43052
 H2348 H 0.78052 0.65200 0.41484
 C2349 C 0.27855 1.13247 0.36919
 C2350 C 0.27014 1.15523 0.37823
 C2351 C 0.25530 1.17038 0.36326
 C2352 C 0.24904 1.16271 0.33931
 C2353 C 0.25750 1.13999 0.33024
 C2354 C 0.27225 1.12479 0.34525
 C2355 C 0.28030 1.10205 0.33585
 C2356 C 0.27391 1.09455 0.31232
 C2357 C 0.25955 1.10946 0.29762
 C2358 C 0.25145 1.13197 0.30636
 C2359 C 0.24694 1.19296 0.37275
 C2360 C 0.25291 1.20027 0.39644
 C2361 C 0.26746 1.18549 0.41107
 C2362 C 0.27612 1.16326 0.40213
 C2363 C 0.23338 1.17787 0.32424
 C2364 C 0.22005 1.19023 0.31182
 C2365 C 0.29390 1.11713 0.38442
 C2366 C 0.30701 1.10466 0.39697
 H2367 H 0.29149 1.08981 0.34660
 H2368 H 0.28016 1.07707 0.30546
 H2369 H 0.25466 1.10359 0.27935
 H2370 H 0.24040 1.14296 0.29422
 H2371 H 0.23566 1.20513 0.36204
 H2372 H 0.24623 1.21750 0.40347
 H2373 H 0.27206 1.19127 0.42945
 H2374 H 0.28741 1.15242 0.41420
 C2375 C 0.27736 0.63332 0.86888
 C2376 C 0.27280 0.62637 0.84432
 C2377 C 0.25828 0.64152 0.82906
 C2378 C 0.24842 0.66354 0.83843
 C2379 C 0.25288 0.67046 0.86300
 C2380 C 0.26744 0.65532 0.87826
 C2381 C 0.27162 0.66259 0.90278
 C2382 C 0.26145 0.68404 0.91203
 C2383 C 0.24712 0.69877 0.89714
 C2384 C 0.24295 0.69224 0.87285
 C2385 C 0.25382 0.63413 0.80462
 C2386 C 0.26331 0.61230 0.79558
 C2387 C 0.27758 0.59750 0.81048
 C2388 C 0.28238 0.60439 0.83456
 C2389 C 0.23316 0.67870 0.82296
 C2390 C 0.22009 0.69102 0.81022
 C2391 C 0.29246 0.61798 0.88438
 C2392 C 0.30543 0.60545 0.89700
 H2393 H 0.28267 0.65175 0.91508
 H2394 H 0.26476 0.68928 0.93084
 H2395 H 0.23929 0.71543 0.90441
 H2396 H 0.23180 0.70438 0.86196
 H2397 H 0.24290 0.64506 0.79230
 H2398 H 0.25954 0.60685 0.77692
 H2399 H 0.28495 0.58056 0.80337
 H2400 H 0.29356 0.59227 0.84544
 C2401 C 1.13154 1.22429 1.13236
 C2402 C 1.15691 1.22577 1.12767
 C2403 C 1.17203 1.24047 1.14286
 C2404 C 1.16175 1.25349 1.16273
 C2405 C 1.13647 1.25166 1.16769
 C2406 C 1.12134 1.23699 1.15249
 C2407 C 1.09612 1.23544 1.15782
 C2408 C 1.08613 1.24812 1.17754
 C2409 C 1.10092 1.26254 1.19235
 C2410 C 1.12581 1.26433 1.18759
 C2411 C 1.19729 1.24184 1.13768
 C2412 C 1.20732 1.22898 1.11810
 C2413 C 1.19256 1.21449 1.10333
 C2414 C 1.16763 1.21284 1.10796
 C2415 C 1.17705 1.26916 1.17775
 C2416 C 1.18957 1.28252 1.19005
 C2417 C 1.11601 1.20957 1.11662
 C2418 C 1.10325 1.19698 1.10378
 H2419 H 1.08388 1.22444 1.14684
 H2420 H 1.06682 1.24669 1.18139
 H2421 H 1.09306 1.27233 1.20765
 H2422 H 1.13657 1.27573 1.19964
 H2423 H 1.20952 1.25284 1.14867
 H2424 H 1.22665 1.23033 1.11438
 H2425 H 1.20042 1.20453 1.08813
 H2426 H 1.15689 1.20137 1.09594
 C2427 C 1.13105 0.72531 0.63289
 C2428 C 1.15590 0.72799 0.62638
 C2429 C 1.17181 0.74184 0.64158
 C2430 C 1.16281 0.75271 0.66328
 C2431 C 1.13791 0.75028 0.66964
 C2432 C 1.12199 0.73648 0.65443
 C2433 C 1.09717 0.73430 0.66118
 C2434 C 1.08826 0.74571 0.68216
 C2435 C 1.10380 0.75938 0.69691
 C2436 C 1.12838 0.76157 0.69091
 C2437 C 1.19647 0.74465 0.63450
 C2438 C 1.20517 0.73412 0.61299
 C2439 C 1.18970 0.72033 0.59827
 C2440 C 1.16535 0.71720 0.60482
 C2441 C 1.17900 0.76683 0.67881
 C2442 C 1.19211 0.77903 0.69166
 C2443 C 1.11494 0.71075 0.61760
 C2444 C 1.10195 0.69810 0.60508
 H2445 H 1.08437 0.72391 0.65025
 H2446 H 1.06921 0.74390 0.68703
 H2447 H 1.09680 0.76823 0.71318
 H2448 H 1.13975 0.77234 0.70300
 H2449 H 1.20923 0.75514 0.64538
 H2450 H 1.22399 0.73675 0.60772
 H2451 H 1.19657 0.71208 0.58163
 H2452 H 1.15400 0.70642 0.59271
 C2453 C 0.59413 1.26097 0.59489
 C2454 C 0.61404 1.27284 0.58353
 C2455 C 0.61913 1.29769 0.58910
 C2456 C 0.60423 1.31052 0.60593
 C2457 C 0.58452 1.29857 0.61752
 C2458 C 0.57944 1.27371 0.61199
 C2459 C 0.55962 1.26214 0.62381
 C2460 C 0.54526 1.27478 0.64064
 C2461 C 0.55026 1.29910 0.64606
 C2462 C 0.56962 1.31095 0.63467
 C2463 C 0.63918 1.30918 0.57761
 C2464 C 0.65378 1.29648 0.56105
 C2465 C 0.64878 1.27218 0.55555
 C2466 C 0.62916 1.26040 0.56661
 C2467 C 0.60924 1.33597 0.61133
 C2468 C 0.61365 1.35709 0.61580
 C2469 C 0.58861 1.23574 0.58886
 C2470 C 0.58388 1.21485 0.58376
 H2471 H 0.55504 1.24324 0.62023
 H2472 H 0.53019 1.26565 0.64953
 H2473 H 0.53907 1.30884 0.65915
 H2474 H 0.57278 1.32988 0.63946
 H2475 H 0.64382 1.32803 0.58133
 H2476 H 0.66906 1.30555 0.55247
 H2477 H 0.66018 1.26240 0.54267
 H2478 H 0.62604 1.24147 0.56180
 C2479 C 0.63133 0.72772 1.13156
 C2480 C 0.62346 0.73577 1.15488
 C2481 C 0.63942 0.74969 1.16994
 C2482 C 0.66323 0.75526 1.16166
 C2483 C 0.67120 0.74697 1.13846
 C2484 C 0.65513 0.73334 1.12327
 C2485 C 0.66340 0.72548 1.10002
 C2486 C 0.68701 0.73063 1.09216
 C2487 C 0.70283 0.74368 1.10716
 C2488 C 0.69509 0.75189 1.13003
 C2489 C 0.63110 0.75769 1.19312
 C2490 C 0.60770 0.75205 1.20123
 C2491 C 0.59217 0.73825 1.18659
 C2492 C 0.59985 0.73016 1.16366
 C2493 C 0.67925 0.77004 1.17676
 C2494 C 0.69219 0.78280 1.18923
 C2495 C 0.61544 0.71267 1.11657
 C2496 C 0.60291 0.69940 1.10424
 H2497 H 0.65175 0.71530 1.08770
 H2498 H 0.69306 0.72440 1.07435
 H2499 H 0.72118 0.74747 1.10106
 H2500 H 0.70804 0.76198 1.14105
 H2501 H 0.64256 0.76835 1.20523
 H2502 H 0.60164 0.75838 1.21899
 H2503 H 0.57406 0.73379 1.19303
 H2504 H 0.58708 0.71954 1.15290
 C2505 C 0.87185 1.22585 0.86913
 C2506 C 0.87195 1.22260 0.84342
 C2507 C 0.85685 1.23748 0.82847
 C2508 C 0.84172 1.25541 0.83936
 C2509 C 0.84193 1.25890 0.86503
 C2510 C 0.85689 1.24394 0.87999
 C2511 C 0.85660 1.24758 0.90564
 C2512 C 0.84214 1.26570 0.91617
 C2513 C 0.82775 1.28058 0.90150
 C2514 C 0.82756 1.27728 0.87623
 C2515 C 0.85736 1.23408 0.80280
 C2516 C 0.87234 1.21639 0.79222
 C2517 C 0.88701 1.20173 0.80685
 C2518 C 0.88689 1.20472 0.83217
 C2519 C 0.82616 1.27056 0.82428
 C2520 C 0.81334 1.28383 0.81232
 C2521 C 0.88699 1.21054 0.88448
 C2522 C 0.89924 1.19751 0.89724
 H2523 H 0.86762 1.23658 0.91781
 H2524 H 0.84219 1.26828 0.93581
 H2525 H 0.81675 1.29480 0.90973
 H2526 H 0.81624 1.28944 0.86557
 H2527 H 0.84619 1.24498 0.79067
 H2528 H 0.87239 1.21390 0.77257
 H2529 H 0.89843 1.18785 0.79855
 H2530 H 0.89859 1.19286 0.84279
 C2531 C 0.86843 0.72555 0.36910
 C2532 C 0.84378 0.73010 0.37533
 C2533 C 0.82874 0.74392 0.35932
 C2534 C 0.83846 0.75319 0.33725
 C2535 C 0.86312 0.74871 0.33105
 C2536 C 0.87813 0.73474 0.34698
 C2537 C 0.90271 0.73042 0.34036
 C2538 C 0.91228 0.73993 0.31881
 C2539 C 0.89767 0.75379 0.30336
 C2540 C 0.87332 0.75805 0.30923
 C2541 C 0.80418 0.74831 0.36595
 C2542 C 0.79483 0.73957 0.38790
 C2543 C 0.80952 0.72602 0.40356
 C2544 C 0.83371 0.72121 0.39739
 C2545 C 0.82330 0.76802 0.32138
 C2546 C 0.81064 0.78079 0.30866
 C2547 C 0.88371 0.71108 0.38521
 C2548 C 0.89625 0.69853 0.39822
 H2549 H 0.91480 0.71976 0.35180
 H2550 H 0.93114 0.73650 0.31407
 H2551 H 0.90521 0.76117 0.28667
 H2552 H 0.86263 0.76878 0.29655
 H2553 H 0.79199 0.75859 0.35429
 H2554 H 0.77609 0.74337 0.39278
 H2555 H 0.80217 0.71921 0.42059
 H2556 H 0.84443 0.71060 0.41016
 C2557 C 0.37306 1.22527 0.37185
 C2558 C 0.34919 1.23134 0.37959
 C2559 C 0.33392 1.24575 0.36432
 C2560 C 0.34263 1.25402 0.34144
 C2561 C 0.36656 1.24802 0.33375
 C2562 C 0.38181 1.23360 0.34902
 C2563 C 0.40569 1.22788 0.34101
 C2564 C 0.41429 1.23628 0.31860
 C2565 C 0.39940 1.25042 0.30371
 C2566 C 0.37577 1.25622 0.31106
 C2567 C 0.31014 1.25164 0.37248
 C2568 C 0.30178 1.24370 0.39515
 C2569 C 0.31671 1.22962 0.41008
 C2570 C 0.34012 1.22337 0.40244
 C2571 C 0.32716 1.26915 0.32612
 C2572 C 0.31436 1.28203 0.31365
 C2573 C 0.38845 1.21009 0.38717
 C2574 C 0.40100 1.19702 0.39964
 H2575 H 0.41799 1.21699 0.35199
 H2576 H 0.43260 1.23176 0.31277
 H2577 H 0.40622 1.25687 0.28636
 H2578 H 0.36485 1.26721 0.29883
 H2579 H 0.29780 1.26247 0.36150
 H2580 H 0.28362 1.24848 0.40117
 H2581 H 0.31014 1.22352 0.42768
 H2582 H 0.35104 1.21236 0.41469
 C2583 C 0.37081 0.72476 0.86883
 C2584 C 0.34624 0.72888 0.87568
 C2585 C 0.33063 0.74266 0.86019
 C2586 C 0.33968 0.75223 0.83796
 C2587 C 0.36422 0.74812 0.83109
 C2588 C 0.37984 0.73434 0.84658
 C2589 C 0.40435 0.73057 0.83941
 C2590 C 0.41324 0.74035 0.81767
 C2591 C 0.39799 0.75390 0.80257
 C2592 C 0.37371 0.75768 0.80903
 C2593 C 0.30620 0.74672 0.86751
 C2594 C 0.29750 0.73758 0.88958
 C2595 C 0.31272 0.72401 0.90468
 C2596 C 0.33682 0.71960 0.89788
 C2597 C 0.32401 0.76711 0.82263
 C2598 C 0.31122 0.78000 0.81022
 C2599 C 0.38666 0.71036 0.88447
 C2600 C 0.39953 0.69787 0.89724
 H2601 H 0.41693 0.72019 0.85056
 H2602 H 0.43207 0.73736 0.81252
 H2603 H 0.40498 0.76146 0.78572
 H2604 H 0.36253 0.76824 0.79660
 H2605 H 0.29361 0.75705 0.85632
 H2606 H 0.27885 0.74112 0.89500
 H2607 H 0.30588 0.71691 0.92181
 H2608 H 0.34798 0.70901 0.91028
 C2609 C 1.13003 0.77539 0.86811
 C2610 C 1.12084 0.76456 0.84643
 C2611 C 1.13659 0.75064 0.83116
 C2612 C 1.16140 0.74765 0.83768
 C2613 C 1.17051 0.75816 0.85953
 C2614 C 1.15479 0.77211 0.87478
 C2615 C 1.16430 0.78234 0.89662
 C2616 C 1.18854 0.77857 0.90334
 C2617 C 1.20384 0.76478 0.88849
 C2618 C 1.19510 0.75481 0.86672
 C2619 C 1.12696 0.73974 0.80972
 C2620 C 1.10241 0.74228 0.80368
 C2621 C 1.08702 0.75596 0.81856
 C2622 C 1.09605 0.76712 0.83964
 C2623 C 1.17729 0.73295 0.82240
 C2624 C 1.19020 0.72019 0.80992
 C2625 C 1.11415 0.79014 0.88340
 C2626 C 1.10130 0.80291 0.89593
 H2627 H 1.15309 0.79312 0.90883
 H2628 H 1.19543 0.78632 0.92023
 H2629 H 1.22258 0.76169 0.89387
 H2630 H 1.20776 0.74433 0.85574
 H2631 H 1.13823 0.72903 0.79750
 H2632 H 1.09533 0.73370 0.78728
 H2633 H 1.06799 0.75800 0.81370
 H2634 H 1.08336 0.77757 0.85064
 C2635 C 1.12847 0.27486 0.36862
 C2636 C 1.15223 0.26928 0.37716
 C2637 C 1.16823 0.25507 0.36244
 C2638 C 1.16036 0.24647 0.33930
 C2639 C 1.13652 0.25181 0.33087
 C2640 C 1.12055 0.26611 0.34554
 C2641 C 1.09682 0.27123 0.33671
 C2642 C 1.08899 0.26220 0.31417
 C2643 C 1.10457 0.24811 0.29989
 C2644 C 1.12812 0.24303 0.30798
 C2645 C 1.19186 0.24967 0.37137
 C2646 C 1.19943 0.25795 0.39426
 C2647 C 1.18381 0.27187 0.40866
 C2648 C 1.16048 0.27757 0.40029
 C2649 C 1.17656 0.23172 0.32436
 C2650 C 1.18968 0.21911 0.31193
 C2651 C 1.11243 0.29000 0.38339
 C2652 C 1.09957 0.30308 0.39561
 H2653 H 1.08403 0.28208 0.34718
 H2654 H 1.07073 0.26615 0.30775
 H2655 H 1.09839 0.24108 0.28242
 H2656 H 1.13958 0.23204 0.29618
 H2657 H 1.20468 0.23894 0.36082
 H2658 H 1.21750 0.25353 0.40086
 H2659 H 1.18979 0.27828 0.42643
 H2660 H 1.14897 0.28839 0.41220
 C2661 C 0.63577 0.77843 0.36963
 C2662 C 0.66125 0.77679 0.37356
 C2663 C 0.67590 0.76267 0.35741
 C2664 C 0.66500 0.75044 0.33735
 C2665 C 0.63954 0.75214 0.33337
 C2666 C 0.62487 0.76619 0.34955
 C2667 C 0.59943 0.76751 0.34528
 C2668 C 0.58877 0.75512 0.32570
 C2669 C 0.60312 0.74130 0.30992
 C2670 C 0.62823 0.73984 0.31358
 C2671 C 0.70127 0.76095 0.36190
 C2672 C 0.71186 0.77284 0.38179
 C2673 C 0.69759 0.78683 0.39748
 C2674 C 0.67257 0.78887 0.39349
 C2675 C 0.67982 0.73528 0.32146
 C2676 C 0.69198 0.72209 0.30868
 C2677 C 0.62077 0.79290 0.38604
 C2678 C 0.60830 0.80535 0.39922
 H2679 H 0.58751 0.77805 0.35703
 H2680 H 0.56929 0.75635 0.32270
 H2681 H 0.59477 0.73179 0.29468
 H2682 H 0.63864 0.72898 0.30075
 H2683 H 0.71319 0.75036 0.35020
 H2684 H 0.73124 0.77109 0.38505
 H2685 H 0.70589 0.79604 0.41291
 H2686 H 0.66223 0.79987 0.40627
 C2687 C 0.63318 0.27411 0.87210
 C2688 C 0.62258 0.25953 0.85348
 C2689 C 0.63774 0.24543 0.83779
 C2690 C 0.66338 0.24608 0.84076
 C2691 C 0.67394 0.26008 0.85980
 C2692 C 0.65881 0.27423 0.87546
 C2693 C 0.66983 0.28828 0.89424
 C2694 C 0.69503 0.28808 0.89762
 C2695 C 0.70977 0.27402 0.88243
 C2696 C 0.69947 0.26025 0.86363
 C2697 C 0.62676 0.23090 0.81938
 C2698 C 0.60151 0.23035 0.81651
 C2699 C 0.58667 0.24422 0.83179
 C2700 C 0.59700 0.25869 0.85008
 C2701 C 0.67891 0.23241 0.82418
 C2702 C 0.69166 0.22077 0.81051
 C2703 C 0.61790 0.28960 0.88727
 C2704 C 0.60564 0.30316 0.89958
 H2705 H 0.65912 0.29938 0.90662
 H2706 H 0.70312 0.29881 0.91217
 H2707 H 0.72928 0.27367 0.88522
 H2708 H 0.71171 0.24961 0.85231
 H2709 H 0.63753 0.21969 0.80715
 H2710 H 0.59342 0.21908 0.80239
 H2711 H 0.56705 0.24375 0.82947
 H2712 H 0.58473 0.26908 0.86159
 C2713 C 0.86959 0.77571 1.12845
 C2714 C 0.84553 0.76975 1.12119
 C2715 C 0.83025 0.75626 1.13719
 C2716 C 0.83922 0.74864 1.16023
 C2717 C 0.86335 0.75440 1.16740
 C2718 C 0.87857 0.76808 1.15149
 C2719 C 0.90259 0.77376 1.15911
 C2720 C 0.91143 0.76586 1.18165
 C2721 C 0.89663 0.75225 1.19708
 C2722 C 0.87279 0.74668 1.19021
 C2723 C 0.80622 0.75061 1.12961
 C2724 C 0.79764 0.75781 1.10675
 C2725 C 0.81258 0.77095 1.09106
 C2726 C 0.83625 0.77698 1.09814
 C2727 C 0.82390 0.73415 1.17619
 C2728 C 0.81139 0.72158 1.18915
 C2729 C 0.88477 0.79041 1.11257
 C2730 C 0.89701 0.80336 1.09974
 H2731 H 0.91482 0.78423 1.14769
 H2732 H 0.92989 0.77030 1.18715
 H2733 H 0.90361 0.74603 1.21451
 H2734 H 0.86190 0.73622 1.20291
 H2735 H 0.79385 0.74061 1.14124
 H2736 H 0.77927 0.75322 1.10121
 H2737 H 0.80581 0.77654 1.07332
 H2738 H 0.84719 0.78723 1.08531
 C2739 C 0.86450 0.27867 0.63310
 C2740 C 0.85010 0.25935 0.62366
 C2741 C 0.83542 0.24521 0.63969
 C2742 C 0.83520 0.25049 0.66507
 C2743 C 0.84959 0.26979 0.67451
 C2744 C 0.86426 0.28395 0.65849
 C2745 C 0.87840 0.30325 0.66839
 C2746 C 0.87808 0.30835 0.69337
 C2747 C 0.86380 0.29441 0.70900
 C2748 C 0.84967 0.27536 0.69979
 C2749 C 0.82117 0.22599 0.62983
 C2750 C 0.82133 0.22096 0.60483
 C2751 C 0.83566 0.23481 0.58915
 C2752 C 0.84994 0.25378 0.59836
 C2753 C 0.82014 0.23605 0.68139
 C2754 C 0.80752 0.22365 0.69449
 C2755 C 0.87929 0.29339 0.61675
 C2756 C 0.89153 0.30617 0.60367
 H2757 H 0.88985 0.31456 0.65697
 H2758 H 0.88900 0.32316 0.70062
 H2759 H 0.86365 0.29828 0.72838
 H2760 H 0.83885 0.26507 0.71270
 H2761 H 0.80981 0.21465 0.64129
 H2762 H 0.81028 0.20622 0.59761
 H2763 H 0.83572 0.23082 0.56974
 H2764 H 0.86082 0.26402 0.58545
 C2765 C 0.37144 0.77575 0.63359
 C2766 C 0.34596 0.77565 0.62923
 C2767 C 0.33042 0.76112 0.64403
 C2768 C 0.34041 0.74695 0.66319
 C2769 C 0.36588 0.74698 0.66751
 C2770 C 0.38144 0.76148 0.65272
 C2771 C 0.40683 0.76131 0.65746
 C2772 C 0.41656 0.74716 0.67627
 C2773 C 0.40135 0.73287 0.69064
 C2774 C 0.37629 0.73269 0.68638
 C2775 C 0.30505 0.76106 0.63917
 C2776 C 0.29529 0.77500 0.62026
 C2777 C 0.31045 0.78939 0.60592
 C2778 C 0.33550 0.78978 0.61025
 C2779 C 0.32457 0.73211 0.67830
 C2780 C 0.31176 0.71941 0.69085
 C2781 C 0.38726 0.79074 0.61857
 C2782 C 0.40004 0.80368 0.60623
 H2783 H 0.41940 0.77210 0.64675
 H2784 H 0.43601 0.74731 0.67970
 H2785 H 0.40898 0.72190 0.70522
 H2786 H 0.36521 0.72128 0.69805
 H2787 H 0.29252 0.75017 0.64983
 H2788 H 0.27588 0.77454 0.61670
 H2789 H 0.30278 0.80021 0.59126
 H2790 H 0.34655 0.80117 0.59852
 C2791 C 0.37000 0.27712 1.13215
 C2792 C 0.37891 0.26906 1.15508
 C2793 C 0.36387 0.25455 1.17041
 C2794 C 0.34001 0.24824 1.16275
 C2795 C 0.33101 0.25651 1.13994
 C2796 C 0.34607 0.27095 1.12456
 C2797 C 0.33671 0.27888 1.10177
 C2798 C 0.31322 0.27257 1.09433
 C2799 C 0.29850 0.25847 1.10939
 C2800 C 0.30714 0.25059 1.13200
 C2801 C 0.37321 0.24660 1.19319
 C2802 C 0.39673 0.25279 1.20061
 C2803 C 0.41141 0.26705 1.18567
 C2804 C 0.40270 0.27514 1.16314
 C2805 C 0.32501 0.23267 1.17800
 C2806 C 0.31275 0.21933 1.19046
 C2807 C 0.38532 0.29211 1.11662
 C2808 C 0.39799 0.30498 1.10410
 H2809 H 0.34746 0.28992 1.08944
 H2810 H 0.30640 0.27867 1.07677
 H2811 H 0.28028 0.25360 1.10355
 H2812 H 0.29493 0.23985 1.14316
 H2813 H 0.36243 0.23555 1.20547
 H2814 H 0.40360 0.24652 1.21805
 H2815 H 0.42964 0.27188 1.19157
 H2816 H 0.41482 0.28613 1.15212
 C2817 C 1.09280 1.09242 0.73850
 C2818 C 1.11419 1.08252 0.72790
 C2819 C 1.12043 1.08847 0.70342
 C2820 C 1.10519 1.10421 0.68970
 C2821 C 1.08392 1.11429 0.70037
 C2822 C 1.07772 1.10841 0.72488
 C2823 C 1.05642 1.11879 0.73521
 C2824 C 1.04166 1.13450 0.72168
 C2825 C 1.04769 1.14021 0.69768
 C2826 C 1.06854 1.13025 0.68705
 C2827 C 1.14195 1.07845 0.69323
 C2828 C 1.15688 1.06296 0.70681
 C2829 C 1.15075 1.05709 0.73075
 C2830 C 1.12968 1.06671 0.74127
 C2831 C 1.11149 1.11018 0.66466
 C2832 C 1.11678 1.11531 0.64392
 C2833 C 1.08622 1.08598 0.76334
 C2834 C 1.08077 1.08050 0.78393
 H2835 H 1.05098 1.11493 0.75382
 H2836 H 1.02544 1.14227 0.72986
 H2837 H 1.03614 1.15239 0.68723
 H2838 H 1.07245 1.13519 0.66833
 H2839 H 1.14750 1.08252 0.67471
 H2840 H 1.17328 1.05549 0.69873
 H2841 H 1.16239 1.04503 0.74123
 H2842 H 1.12572 1.06167 0.75997
 C2843 C 1.12715 0.62928 0.27330
 C2844 C 1.14895 0.61957 0.26337
 C2845 C 1.16427 0.63456 0.24881
 C2846 C 1.15760 0.65911 0.24415
 C2847 C 1.13582 0.66883 0.25409
 C2848 C 1.12053 0.65386 0.26871
 C2849 C 1.09885 0.66399 0.27847
 C2850 C 1.09247 0.68820 0.27388
 C2851 C 1.10744 0.70285 0.25961
 C2852 C 1.12890 0.69337 0.24981
 C2853 C 1.18610 0.62455 0.23929
 C2854 C 1.19255 0.60036 0.24389
 C2855 C 1.17752 0.58565 0.25803
 C2856 C 1.15595 0.59505 0.26772
 C2857 C 1.17285 0.67419 0.22868
 C2858 C 1.18528 0.68663 0.21549
 C2859 C 1.11206 0.61427 0.28901
 C2860 C 1.09991 0.60208 0.30266
 H2861 H 1.08659 0.65332 0.28966
 H2862 H 1.07579 0.69563 0.28143
 H2863 H 1.10242 0.72164 0.25611
 H2864 H 1.14001 0.70549 0.23891
 H2865 H 1.19845 0.63531 0.22833
 H2866 H 1.20933 0.59302 0.23647
 H2867 H 1.18260 0.56687 0.26156
 H2868 H 1.14486 0.58290 0.27862
 C2869 C 0.63545 1.13342 0.27873
 C2870 C 0.65973 1.13797 0.28636
 C2871 C 0.67486 1.15385 0.27252
 C2872 C 0.66567 1.16506 0.25112
 C2873 C 0.64133 1.16071 0.24359
 C2874 C 0.62617 1.14483 0.25743
 C2875 C 0.60191 1.14078 0.24955
 C2876 C 0.59286 1.15211 0.22861
 C2877 C 0.60767 1.16763 0.21510
 C2878 C 0.63164 1.17194 0.22240
 C2879 C 0.69900 1.15821 0.28054
 C2880 C 0.70793 1.14731 0.30171
 C2881 C 0.69322 1.13174 0.31524
 C2882 C 0.66939 1.12701 0.30773
 C2883 C 0.68128 1.18097 0.23678
 C2884 C 0.69408 1.19413 0.22465
 C2885 C 0.61998 1.11740 0.29312
 C2886 C 0.60751 1.10440 0.30575
 H2887 H 0.58971 1.12885 0.25946
 H2888 H 0.57424 1.14882 0.22283
 H2889 H 0.60056 1.17639 0.19885
 H2890 H 0.64245 1.18417 0.21129
 H2891 H 0.71121 1.17013 0.27063
 H2892 H 0.72636 1.15106 0.30756
 H2893 H 0.70026 1.12329 0.33167
 H2894 H 0.65865 1.11474 0.31886
 C2895 C 0.64166 0.64078 0.78661
 C2896 C 0.66472 0.63217 0.77872
 C2897 C 0.68024 0.64768 0.76491
 C2898 C 0.67258 0.67166 0.75902
 C2899 C 0.65021 0.68075 0.76816
 C2900 C 0.63471 0.66529 0.78204
 C2901 C 0.61261 0.67491 0.79130
 C2902 C 0.60607 0.69916 0.78708
 C2903 C 0.62122 0.71425 0.77346
 C2904 C 0.64303 0.70524 0.76399
 C2905 C 0.70340 0.63888 0.75765
 C2906 C 0.71100 0.61541 0.76380
 C2907 C 0.69579 0.60018 0.77719
 C2908 C 0.67287 0.60835 0.78457
 C2909 C 0.68739 0.68674 0.74309
 C2910 C 0.69925 0.69897 0.72917
 C2911 C 0.62539 0.62459 0.79988
 C2912 C 0.61206 0.61117 0.81113
 H2913 H 0.60027 0.66389 0.80206
 H2914 H 0.58914 0.70626 0.79438
 H2915 H 0.61606 0.73305 0.77017
 H2916 H 0.65428 0.71773 0.75363
 H2917 H 0.71600 0.65017 0.74751
 H2918 H 0.72887 0.60906 0.75833
 H2919 H 0.70187 0.58201 0.78205
 H2920 H 0.66175 0.59590 0.79510
 C2921 C 0.86328 0.86181 0.78178
 C2922 C 0.84699 0.84675 0.79502
 C2923 C 0.83119 0.83046 0.78231
 C2924 C 0.83178 0.82934 0.75646
 C2925 C 0.84833 0.84413 0.74325
 C2926 C 0.86415 0.86036 0.75595
 C2927 C 0.88068 0.87479 0.74235
 C2928 C 0.88148 0.87332 0.71692
 C2929 C 0.86598 0.85749 0.70448
 C2930 C 0.84958 0.84302 0.71739
 C2931 C 0.81521 0.81550 0.79591
 C2932 C 0.81492 0.81654 0.82137
 C2933 C 0.83029 0.83247 0.83381
 C2934 C 0.84617 0.84747 0.82088
 C2935 C 0.81560 0.81298 0.74319
 C2936 C 0.80276 0.79992 0.73087
 C2937 C 0.87926 0.87862 0.79474
 C2938 C 0.89245 0.89239 0.80584
 H2939 H 0.89319 0.88728 0.75121
 H2940 H 0.89427 0.88446 0.70681
 H2941 H 0.86671 0.85633 0.68473
 H2942 H 0.83797 0.83096 0.70684
 H2943 H 0.80295 0.80276 0.78704
 H2944 H 0.80278 0.80478 0.83152
 H2945 H 0.83000 0.83311 0.85360
 H2946 H 0.85787 0.85948 0.83137
 C2947 C 0.86121 0.36446 0.28123
 C2948 C 0.84638 0.34739 0.29375
 C2949 C 0.83133 0.33096 0.28031
 C2950 C 0.83130 0.33157 0.25443
 C2951 C 0.84606 0.34869 0.24193
 C2952 C 0.86098 0.36521 0.25535
 C2953 C 0.87545 0.38222 0.24242
 C2954 C 0.87520 0.38291 0.21694
 C2955 C 0.86068 0.36672 0.20380
 C2956 C 0.84626 0.34976 0.21605
 C2957 C 0.81636 0.31441 0.29324
 C2958 C 0.81600 0.31431 0.31870
 C2959 C 0.83086 0.33018 0.33186
 C2960 C 0.84601 0.34648 0.31962
 C2961 C 0.81601 0.31486 0.24049
 C2962 C 0.80356 0.30158 0.22800
 C2963 C 0.87687 0.38104 0.29492
 C2964 C 0.88998 0.39455 0.30646
 H2965 H 0.88703 0.39519 0.25183
 H2966 H 0.88637 0.39606 0.20736
 H2967 H 0.86062 0.36725 0.18401
 H2968 H 0.83528 0.33757 0.20499
 H2969 H 0.80448 0.30170 0.28382
 H2970 H 0.80394 0.30200 0.32827
 H2971 H 0.83046 0.33004 0.35165
 H2972 H 0.85710 0.35859 0.33063
 C2973 C 0.37828 0.87625 0.26957
 C2974 C 0.35424 0.88426 0.26450
 C2975 C 0.33864 0.86972 0.24969
 C2976 C 0.34722 0.84730 0.24001
 C2977 C 0.37151 0.83968 0.24442
 C2978 C 0.38707 0.85418 0.25932
 C2979 C 0.41122 0.84611 0.26368
 C2980 C 0.41978 0.82438 0.25348
 C2981 C 0.40458 0.81025 0.23880
 C2982 C 0.38070 0.81771 0.23428
 C2983 C 0.31464 0.87802 0.24494
 C2984 C 0.30636 0.90018 0.25440
 C2985 C 0.32163 0.91442 0.26889
 C2986 C 0.34528 0.90662 0.27401
 C2987 C 0.33112 0.83207 0.22553
 C2988 C 0.31801 0.81932 0.21325
 C2989 C 0.39349 0.89014 0.28622
 C2990 C 0.40551 0.90144 0.30080
 H2991 H 0.42375 0.85653 0.27490
 H2992 H 0.43832 0.81851 0.25694
 H2993 H 0.41134 0.79343 0.23085
 H2994 H 0.36959 0.80614 0.22271
 H2995 H 0.30209 0.86756 0.23380
 H2996 H 0.28802 0.90634 0.25044
 H2997 H 0.31514 0.93165 0.27617
 H2998 H 0.35649 0.91836 0.28533
 C2999 C 0.37612 0.37532 0.77184
 C3000 C 0.35317 0.38454 0.76437
 C3001 C 0.33743 0.36981 0.74990
 C3002 C 0.34488 0.34606 0.74279
 C3003 C 0.36790 0.33690 0.75011
 C3004 C 0.38355 0.35156 0.76476
 C3005 C 0.40642 0.34198 0.77203
 C3006 C 0.41367 0.31863 0.76484
 C3007 C 0.39843 0.30432 0.75039
 C3008 C 0.37576 0.31325 0.74310
 C3009 C 0.31436 0.37920 0.74305
 C3010 C 0.30704 0.40250 0.75031
 C3011 C 0.32249 0.41696 0.76437
 C3012 C 0.34533 0.40821 0.77134
 C3013 C 0.32910 0.33124 0.72753
 C3014 C 0.31637 0.31894 0.71443
 C3015 C 0.39158 0.38987 0.78767
 C3016 C 0.40389 0.40179 0.80149
 H3017 H 0.41895 0.35243 0.78325
 H3018 H 0.43126 0.31162 0.77046
 H3019 H 0.40418 0.28622 0.74477
 H3020 H 0.36453 0.30142 0.73191
 H3021 H 0.30168 0.36858 0.73222
 H3022 H 0.28929 0.40936 0.74503
 H3023 H 0.31675 0.43507 0.76992
 H3024 H 0.35668 0.42015 0.78231
 C3025 C 1.12612 0.87320 1.22794
 C3026 C 1.12120 0.84797 1.23082
 C3027 C 1.13651 0.83347 1.24594
 C3028 C 1.15664 0.84430 1.25804
 C3029 C 1.16166 0.86948 1.25505
 C3030 C 1.14634 0.88399 1.23994
 C3031 C 1.15172 0.90912 1.23718
 C3032 C 1.17169 0.91962 1.24898
 C3033 C 1.18666 0.90543 1.26378
 C3034 C 1.18178 0.88065 1.26687
 C3035 C 1.13124 0.80830 1.24860
 C3036 C 1.11141 0.79775 1.23664
 C3037 C 1.09646 0.81192 1.22181
 C3038 C 1.10121 0.83675 1.21885
 C3039 C 1.17192 0.82966 1.27394
 C3040 C 1.18445 0.81775 1.28753
 C3041 C 1.11079 0.88791 1.21211
 C3042 C 1.09851 0.90002 1.19846
 H3043 H 1.14058 0.92092 1.22589
 H3044 H 1.17554 0.93888 1.24665
 H3045 H 1.20214 0.91366 1.27293
 H3046 H 1.19395 0.87037 1.27857
 H3047 H 1.14237 0.79653 1.25991
 H3048 H 1.10763 0.77848 1.23894
 H3049 H 1.08104 0.80367 1.21259
 H3050 H 1.08903 0.84702 1.20715
 C3051 C 1.12501 0.37422 0.73089
 C3052 C 1.15036 0.37920 0.73164
 C3053 C 1.16600 0.36453 0.74625
 C3054 C 1.15622 0.34497 0.75996
 C3055 C 1.13081 0.34038 0.75972
 C3056 C 1.11515 0.35504 0.74510
 C3057 C 1.08984 0.35003 0.74501
 C3058 C 1.08025 0.33112 0.75906
 C3059 C 1.09556 0.31684 0.77343
 C3060 C 1.12057 0.32132 0.77380
 C3061 C 1.19126 0.36985 0.74677
 C3062 C 1.20079 0.38914 0.73324
 C3063 C 1.18551 0.40345 0.71888
 C3064 C 1.16058 0.39861 0.71800
 C3065 C 1.17229 0.32951 0.77424
 C3066 C 1.18548 0.31664 0.78625
 C3067 C 1.10935 0.38828 0.71478
 C3068 C 1.09702 0.39982 0.70066
 H3069 H 1.07720 0.36070 0.73419
 H3070 H 1.06083 0.32755 0.75881
 H3071 H 1.08804 0.30221 0.78434
 H3072 H 1.13173 0.30971 0.78527
 H3073 H 1.20389 0.35926 0.75769
 H3074 H 1.22011 0.39303 0.73400
 H3075 H 1.19298 0.41845 0.70844
 H3076 H 1.14944 0.41033 0.70664
 C3077 C 0.64088 0.85925 0.71759
 C3078 C 0.66276 0.86807 0.72820
 C3079 C 0.67786 0.85206 0.74196
 C3080 C 0.67108 0.82728 0.74490
 C3081 C 0.64986 0.81816 0.73328
 C3082 C 0.63478 0.83416 0.71944
 C3083 C 0.61410 0.82447 0.70733
 C3084 C 0.60852 0.79966 0.70879
 C3085 C 0.62312 0.78407 0.72251
 C3086 C 0.64351 0.79314 0.73475
 C3087 C 0.69966 0.86130 0.75236
 C3088 C 0.70644 0.88560 0.74908
 C3089 C 0.69175 0.90121 0.73548
 C3090 C 0.67011 0.89266 0.72519
 C3091 C 0.68599 0.81128 0.75990
 C3092 C 0.69841 0.79864 0.77296
 C3093 C 0.62483 0.87594 0.70459
 C3094 C 0.61164 0.88983 0.69368
 H3095 H 0.60225 0.83587 0.69636
 H3096 H 0.59278 0.79250 0.69920
 H3097 H 0.61868 0.76482 0.72362
 H3098 H 0.65441 0.78027 0.74505
 H3099 H 0.71173 0.84983 0.76300
 H3100 H 0.72321 0.89235 0.75708
 H3101 H 0.69715 0.92006 0.73288
 H3102 H 0.65930 0.90547 0.71473
 C3103 C 0.64016 0.36076 1.21647
 C3104 C 0.63533 0.33534 1.21713
 C3105 C 0.65047 0.31964 1.23122
 C3106 C 0.67051 0.32941 1.24433
 C3107 C 0.67620 0.35457 1.24249
 C3108 C 0.66097 0.37029 1.22854
 C3109 C 0.66702 0.39537 1.22699
 C3110 C 0.68747 0.40467 1.23897
 C3111 C 0.70233 0.38931 1.25267
 C3112 C 0.69689 0.36452 1.25441
 C3113 C 0.64545 0.29427 1.23141
 C3114 C 0.62638 0.28462 1.21757
 C3115 C 0.61169 0.29994 1.20364
 C3116 C 0.61587 0.32506 1.20356
 C3117 C 0.68499 0.31381 1.26015
 C3118 C 0.69700 0.30151 1.27393
 C3119 C 0.62382 0.37708 1.20335
 C3120 C 0.61038 0.39065 1.19233
 H3121 H 0.65608 0.40802 1.21644
 H3122 H 0.69186 0.42388 1.23755
 H3123 H 0.71823 0.39663 1.26189
 H3124 H 0.70913 0.35327 1.26509
 H3125 H 0.65654 0.28160 1.24176
 H3126 H 0.62314 0.26511 1.21747
 H3127 H 0.59706 0.29232 1.19271
 H3128 H 0.60403 0.33623 1.19235
 C3129 C 0.86103 1.13835 1.21484
 C3130 C 0.86560 1.16368 1.21749
 C3131 C 0.85020 1.17816 1.23260
 C3132 C 0.83021 1.16724 1.24473
 C3133 C 0.82433 1.14246 1.24017
 C3134 C 0.83987 1.12793 1.22529
 C3135 C 0.83369 1.10316 1.22109
 C3136 C 0.81261 1.09313 1.23109
 C3137 C 0.79731 1.10740 1.24548
 C3138 C 0.80307 1.13176 1.25012
 C3139 C 0.85490 1.20348 1.23479
 C3140 C 0.87395 1.21432 1.22195
 C3141 C 0.88891 1.20019 1.20702
 C3142 C 0.88501 1.17510 1.20493
 C3143 C 0.81620 1.18107 1.26251
 C3144 C 0.80467 1.19180 1.27796
 C3145 C 0.87788 1.12296 1.20131
 C3146 C 0.89154 1.10980 1.19009
 H3147 H 0.84490 1.09137 1.20982
 H3148 H 0.80802 1.07423 1.22750
 H3149 H 0.78077 1.09962 1.25290
 H3150 H 0.79048 1.14221 1.26121
 H3151 H 0.84354 1.21521 1.24595
 H3152 H 0.87701 1.23381 1.22346
 H3153 H 0.90357 1.20871 1.19694
 H3154 H 0.89699 1.16487 1.19298
 C3155 C 0.85801 0.64146 0.71295
 C3156 C 0.86390 0.66647 0.71613
 C3157 C 0.84833 0.68184 0.73018
 C3158 C 0.82683 0.67217 0.74068
 C3159 C 0.81985 0.64779 0.73562
 C3160 C 0.83551 0.63236 0.72177
 C3161 C 0.82802 0.60813 0.71673
 C3162 C 0.80557 0.59949 0.72488
 C3163 C 0.79025 0.61460 0.73836
 C3164 C 0.79723 0.63846 0.74380
 C3165 C 0.85445 0.70681 0.73291
 C3166 C 0.87503 0.71647 0.72156
 C3167 C 0.89015 0.70149 0.70769
 C3168 C 0.88487 0.67670 0.70516
 C3169 C 0.81206 0.68713 0.75690
 C3170 C 0.80010 0.69925 0.77092
 C3171 C 0.87489 0.62518 0.70044
 C3172 C 0.88877 0.61158 0.68999
 H3173 H 0.83923 0.59573 0.70617
 H3174 H 0.80001 0.58100 0.72060
 H3175 H 0.77278 0.60786 0.74452
 H3176 H 0.78453 0.64962 0.75404
 H3177 H 0.84314 0.71923 0.74335
 H3178 H 0.87921 0.73571 0.72347
 H3179 H 0.90606 0.70910 0.69884
 H3180 H 0.89715 0.66577 0.69416
 C3181 C 0.37534 1.12784 0.73102
 C3182 C 0.35062 1.12130 0.73469
 C3183 C 0.33524 1.13658 0.74896
 C3184 C 0.34467 1.15826 0.75949
 C3185 C 0.36946 1.16462 0.75612
 C3186 C 0.38485 1.14936 0.74181
 C3187 C 0.40957 1.15608 0.73866
 C3188 C 0.41885 1.17720 0.74949
 C3189 C 0.40382 1.19211 0.76353
 C3190 C 0.37938 1.18599 0.76683
 C3191 C 0.31059 1.12971 0.75239
 C3192 C 0.30143 1.10831 0.74202
 C3193 C 0.31646 1.09337 0.72802
 C3194 C 0.34079 1.09971 0.72433
 C3195 C 0.32901 1.17372 0.77420
 C3196 C 0.31615 1.18636 0.78684
 C3197 C 0.39069 1.11286 0.71547
 C3198 C 0.40296 1.10064 0.70189
 H3199 H 0.42198 1.14507 0.72789
 H3200 H 0.43780 1.18206 0.74691
 H3201 H 0.41110 1.20851 0.77188
 H3202 H 0.36839 1.19815 0.77788
 H3203 H 0.29816 1.14077 0.76306
 H3204 H 0.28256 1.10333 0.74486
 H3205 H 0.30925 1.07677 0.71999
 H3206 H 0.35178 1.08748 0.71334
 C3207 C 0.40671 0.59415 1.26131
 C3208 C 0.42151 0.61047 1.27489
 C3209 C 0.41545 0.61613 1.29952
 C3210 C 0.39453 0.60556 1.31034
 C3211 C 0.37951 0.58955 1.29663
 C3212 C 0.38564 0.58379 1.27203
 C3213 C 0.37039 0.56768 1.25870
 C3214 C 0.34964 0.55759 1.26935
 C3215 C 0.34362 0.56327 1.29339
 C3216 C 0.35832 0.57904 1.30696
 C3217 C 0.43061 0.63235 1.31282
 C3218 C 0.45109 0.64281 1.30204
 C3219 C 0.45696 0.63737 1.27790
 C3220 C 0.44242 0.62138 1.26441
 C3221 C 0.38838 0.61132 1.33550
 C3222 C 0.38325 0.61628 1.35635
 C3223 C 0.41338 0.58775 1.23644
 C3224 C 0.41906 0.58228 1.21586
 H3225 H 0.37429 0.56276 1.23992
 H3226 H 0.33817 0.54532 1.25888
 H3227 H 0.32745 0.55544 1.30157
 H3228 H 0.35289 0.58293 1.32557
 H3229 H 0.42683 0.63709 1.33165
 H3230 H 0.46248 0.65520 1.31247
 H3231 H 0.47287 0.64555 1.26959
 H3232 H 0.44772 0.61772 1.24570
 C3233 C 1.12928 1.22627 0.87052
 C3234 C 1.12166 1.25034 0.86496
 C3235 C 1.13666 1.26556 0.85031
 C3236 C 1.15921 1.25663 0.84139
 C3237 C 1.16670 1.23246 0.84667
 C3238 C 1.15168 1.21722 0.86127
 C3239 C 1.15944 1.19303 0.86614
 C3240 C 1.18126 1.18410 0.85660
 C3241 C 1.19595 1.19903 0.84234
 C3242 C 1.18891 1.22300 0.83749
 C3243 C 1.12858 1.28951 0.84482
 C3244 C 1.10630 1.29814 0.85350
 C3245 C 1.09167 1.28327 0.86789
 C3246 C 1.09918 1.25964 0.87365
 C3247 C 1.17454 1.27234 0.82664
 C3248 C 1.18679 1.28588 0.81442
 C3249 C 1.11399 1.21063 0.88539
 C3250 C 1.10167 1.19707 0.89752
 H3251 H 1.14868 1.18071 0.87717
 H3252 H 1.18673 1.16546 0.86025
 H3253 H 1.21284 1.19200 0.83490
 H3254 H 1.20095 1.23392 0.82633
 H3255 H 1.13932 1.30178 0.83372
 H3256 H 1.10038 1.31648 0.84904
 H3257 H 1.07439 1.29006 0.87462
 H3258 H 1.08716 1.24875 0.88489
 C3259 C 1.12701 0.72949 0.37392
 C3260 C 1.11873 0.73704 0.35057
 C3261 C 1.13386 0.75193 0.33571
 C3262 C 1.15716 0.75910 0.34427
 C3263 C 1.16549 0.75144 0.36754
 C3264 C 1.15031 0.73669 0.38247
 C3265 C 1.15895 0.72942 0.40576
 C3266 C 1.18198 0.73644 0.41399
 C3267 C 1.19689 0.75074 0.39931
 C3268 C 1.18883 0.75820 0.37633
 C3269 C 1.12519 0.75935 0.31248
 C3270 C 1.10221 0.75229 0.30419
 C3271 C 1.08743 0.73767 0.31869
 C3272 C 1.09552 0.73004 0.34161
 C3273 C 1.17231 0.77487 0.32940
 C3274 C 1.18467 0.78838 0.31727
 C3275 C 1.11196 0.71360 0.38877
 C3276 C 1.09989 0.69980 0.40086
 H3277 H 1.14803 0.71829 0.41786
 H3278 H 1.18832 0.73069 0.43182
 H3279 H 1.21482 0.75603 0.40572
 H3280 H 1.20112 0.76920 0.36553
 H3281 H 1.13604 0.77068 0.30050
 H3282 H 1.09585 0.75820 0.28640
 H3283 H 1.06960 0.73220 0.31214
 H3284 H 1.08335 0.71871 0.35224
 C3285 C 0.63806 1.21929 0.36614
 C3286 C 0.63008 1.22454 0.34205
 C3287 C 0.64542 1.23784 0.32589
 C3288 C 0.66867 1.24582 0.33388
 C3289 C 0.67681 1.24020 0.35781
 C3290 C 0.66143 1.22703 0.37402
 C3291 C 0.66992 1.22194 0.39794
 C3292 C 0.69290 1.22966 0.40562
 C3293 C 0.70795 1.24240 0.38971
 C3294 C 0.70017 1.24754 0.36603
 C3295 C 0.63704 1.24286 0.30192
 C3296 C 0.61415 1.23498 0.29412
 C3297 C 0.59913 1.22201 0.30990
 C3298 C 0.60690 1.21681 0.33361
 C3299 C 0.68388 1.26050 0.31786
 C3300 C 0.69645 1.27312 0.30489
 C3301 C 0.62254 1.20539 0.38259
 C3302 C 0.60986 1.19334 0.39599
 H3303 H 0.65888 1.21204 0.41096
 H3304 H 0.69908 1.22568 0.42399
 H3305 H 0.72579 1.24831 0.39572
 H3306 H 0.71265 1.25723 0.35425
 H3307 H 0.64807 1.25289 0.28897
 H3308 H 0.60803 1.23899 0.27574
 H3309 H 0.58134 1.21596 0.30376
 H3310 H 0.59455 1.20674 0.34524
 C3311 C 0.63946 0.71874 0.86608
 C3312 C 0.63935 0.74459 0.86598
 C3313 C 0.65481 0.75749 0.84967
 C3314 C 0.67030 0.74449 0.83352
 C3315 C 0.67052 0.71864 0.83371
 C3316 C 0.65504 0.70572 0.85002
 C3317 C 0.65565 0.67987 0.84993
 C3318 C 0.67139 0.66718 0.83449
 C3319 C 0.68665 0.67984 0.81872
 C3320 C 0.68614 0.70527 0.81807
 C3321 C 0.65439 0.78336 0.84996
 C3322 C 0.63915 0.79609 0.86590
 C3323 C 0.62402 0.78345 0.88181
 C3324 C 0.62403 0.75800 0.88192
 C3325 C 0.68595 0.75790 0.81689
 C3326 C 0.69854 0.77004 0.80351
 C3327 C 0.62352 0.70556 0.88265
 C3328 C 0.61032 0.69432 0.89617
 H3329 H 0.64418 0.66921 0.86192
 H3330 H 0.67187 0.64741 0.83488
 H3331 H 0.69912 0.66993 0.80704
 H3332 H 0.69832 0.71429 0.80543
 H3333 H 0.66581 0.79404 0.83793
 H3334 H 0.63909 0.81586 0.86587
 H3335 H 0.61220 0.79342 0.89415
 H3336 H 0.61193 0.74901 0.89464
 C3337 C 0.86216 1.21734 1.13747
 C3338 C 0.84583 1.20508 1.15331
 C3339 C 0.83058 1.21875 1.16935
 C3340 C 0.83176 1.24459 1.16949
 C3341 C 0.84813 1.25683 1.15370
 C3342 C 0.86333 1.24318 1.13764
 C3343 C 0.87950 1.25586 1.12200
 C3344 C 0.88064 1.28129 1.12225
 C3345 C 0.86583 1.29464 1.13799
 C3346 C 0.84974 1.28266 1.15357
 C3347 C 0.81448 1.20610 1.18504
 C3348 C 0.81354 1.18067 1.18497
 C3349 C 0.82841 1.16730 1.16929
 C3350 C 0.84440 1.17927 1.15358
 C3351 C 0.81616 1.25880 1.18565
 C3352 C 0.80358 1.27157 1.19854
 C3353 C 0.87787 1.20347 1.12110
 C3354 C 0.89101 1.19200 1.10758
 H3355 H 0.89141 1.24629 1.10943
 H3356 H 0.89309 1.29067 1.11015
 H3357 H 0.86680 1.31439 1.13813
 H3358 H 0.83862 1.29388 1.16548
 H3359 H 0.80257 1.21571 1.19758
 H3360 H 0.80121 1.17126 1.19718
 H3361 H 0.82759 1.14754 1.16935
 H3362 H 0.85563 1.16809 1.14174
 C3363 C 0.86379 0.71782 0.64128
 C3364 C 0.86703 0.74323 0.64493
 C3365 C 0.85138 0.75616 0.66113
 C3366 C 0.83258 0.74362 0.67362
 C3367 C 0.82981 0.71808 0.67055
 C3368 C 0.84550 0.70512 0.65437
 C3369 C 0.84253 0.67954 0.65177
 C3370 C 0.82493 0.66709 0.66518
 C3371 C 0.80967 0.67978 0.68102
 C3372 C 0.81173 0.70504 0.68347
 C3373 C 0.85492 0.78160 0.66441
 C3374 C 0.87325 0.79393 0.65189
 C3375 C 0.88856 0.78127 0.63606
 C3376 C 0.88565 0.75619 0.63262
 C3377 C 0.81607 0.75729 0.68928
 C3378 C 0.80298 0.76992 0.70176
 C3379 C 0.87920 0.70479 0.62402
 C3380 C 0.89201 0.69373 0.60987
 H3381 H 0.85394 0.66886 0.63964
 H3382 H 0.82314 0.64747 0.66335
 H3383 H 0.79619 0.66992 0.69150
 H3384 H 0.79930 0.71420 0.69584
 H3385 H 0.84360 0.79224 0.67665
 H3386 H 0.87560 0.81340 0.65452
 H3387 H 0.90280 0.79095 0.62642
 H3388 H 0.89816 0.74707 0.62030
 C3389 C 0.37512 1.22852 0.63089
 C3390 C 0.37699 1.22838 0.65674
 C3391 C 0.36175 1.24391 0.67095
 C3392 C 0.34468 1.25938 0.65921
 C3393 C 0.34294 1.25965 0.63338
 C3394 C 0.35817 1.24413 0.61917
 C3395 C 0.35596 1.24462 0.59336
 C3396 C 0.33922 1.26003 0.58195
 C3397 C 0.32443 1.27530 0.59585
 C3398 C 0.32621 1.27520 0.62127
 C3399 C 0.36401 1.24357 0.69674
 C3400 C 0.38077 1.22821 0.70818
 C3401 C 0.39558 1.21292 0.69432
 C3402 C 0.39381 1.21296 0.66889
 C3403 C 0.32915 1.27527 0.67365
 C3404 C 0.31644 1.28884 0.68546
 C3405 C 0.39014 1.21213 0.61640
 C3406 C 0.40218 1.19804 0.60449
 H3407 H 0.36713 1.23313 0.58175
 H3408 H 0.33777 1.26016 0.56220
 H3409 H 0.31152 1.28732 0.58691
 H3410 H 0.31437 1.28745 0.63129
 H3411 H 0.35289 1.25513 0.70833
 H3412 H 0.38228 1.22823 0.72791
 H3413 H 0.40859 1.20103 0.70327
 H3414 H 0.40577 1.20082 0.65889
 C3415 C 0.37597 0.73084 1.12794
 C3416 C 0.38216 0.73537 1.15269
 C3417 C 0.36666 0.75007 1.16745
 C3418 C 0.34520 0.76028 1.15730
 C3419 C 0.33919 0.75602 1.13247
 C3420 C 0.35461 0.74121 1.11774
 C3421 C 0.34821 0.73716 1.09296
 C3422 C 0.32725 0.74759 1.08299
 C3423 C 0.31222 0.76215 1.09739
 C3424 C 0.31800 0.76633 1.12187
 C3425 C 0.37311 0.75422 1.19220
 C3426 C 0.39435 0.74428 1.20204
 C3427 C 0.40955 0.72996 1.18758
 C3428 C 0.40360 0.72546 1.16319
 C3429 C 0.32969 0.77569 1.17223
 C3430 C 0.31720 0.78896 1.18460
 C3431 C 0.39105 0.71470 1.11332
 C3432 C 0.40314 0.70060 1.10153
 H3433 H 0.35935 0.72599 1.08103
 H3434 H 0.32262 0.74431 1.06401
 H3435 H 0.29597 0.77021 1.08957
 H3436 H 0.30573 0.77773 1.13234
 H3437 H 0.36181 0.76514 1.20419
 H3438 H 0.39901 0.74768 1.22100
 H3439 H 0.42603 0.72226 1.19531
 H3440 H 0.41603 0.71424 1.15267
 C3441 C 0.86071 0.78410 0.85991
 C3442 C 0.83917 0.77347 0.86937
 C3443 C 0.82355 0.75977 0.85374
 C3444 C 0.82952 0.75683 0.82871
 C3445 C 0.85047 0.76834 0.81901
 C3446 C 0.86606 0.78211 0.83463
 C3447 C 0.88650 0.79406 0.82438
 C3448 C 0.89131 0.79255 0.79941
 C3449 C 0.87615 0.77896 0.78419
 C3450 C 0.85599 0.76687 0.79378
 C3451 C 0.80209 0.74936 0.86361
 C3452 C 0.79623 0.75242 0.88820
 C3453 C 0.81143 0.76592 0.90345
 C3454 C 0.83269 0.77634 0.89426
 C3455 C 0.81417 0.74178 0.81313
 C3456 C 0.80137 0.72864 0.80089
 C3457 C 0.87703 0.79744 0.87612
 C3458 C 0.89032 0.80873 0.88965
 H3459 H 0.89875 0.80497 0.83544
 H3460 H 0.90688 0.80202 0.79183
 H3461 H 0.87996 0.77785 0.76482
 H3462 H 0.84460 0.75674 0.78113
 H3463 H 0.78955 0.73890 0.85244
 H3464 H 0.77970 0.74440 0.89542
 H3465 H 0.80668 0.76842 0.92250
 H3466 H 0.84386 0.78677 0.90686
 C3467 C 0.86061 0.28389 0.36285
 C3468 C 0.86860 0.27715 0.33915
 C3469 C 0.85356 0.26226 0.32406
 C3470 C 0.83064 0.25426 0.33277
 C3471 C 0.82193 0.26243 0.35575
 C3472 C 0.83695 0.27734 0.37083
 C3473 C 0.82778 0.28552 0.39361
 C3474 C 0.80435 0.27927 0.40120
 C3475 C 0.78965 0.26469 0.38646
 C3476 C 0.79826 0.25626 0.36401
 C3477 C 0.86188 0.25570 0.30046
 C3478 C 0.88440 0.26378 0.29191
 C3479 C 0.89910 0.27840 0.30664
 C3480 C 0.89141 0.28500 0.33003
 C3481 C 0.81651 0.23678 0.31869
 C3482 C 0.80486 0.22155 0.30782
 C3483 C 0.87668 0.29752 0.37901
 C3484 C 0.88997 0.30894 0.39241
 H3485 H 0.83847 0.29704 0.40565
 H3486 H 0.79754 0.28582 0.41860
 H3487 H 0.77143 0.25997 0.39240
 H3488 H 0.78606 0.24519 0.35306
 H3489 H 0.85101 0.24447 0.28831
 H3490 H 0.89046 0.25868 0.27377
 H3491 H 0.91657 0.28465 0.29991
 H3492 H 0.90343 0.29646 0.34078
 C3493 C 0.40801 0.74089 0.40759
 C3494 C 0.41810 0.72920 0.38680
 C3495 C 0.41138 0.70477 0.38106
 C3496 C 0.39467 0.69217 0.39619
 C3497 C 0.38423 0.70401 0.41671
 C3498 C 0.39091 0.72845 0.42243
 C3499 C 0.38022 0.73990 0.44305
 C3500 C 0.36337 0.72758 0.45755
 C3501 C 0.35683 0.70367 0.45193
 C3502 C 0.36711 0.69192 0.43179
 C3503 C 0.42162 0.69348 0.36014
 C3504 C 0.43804 0.70595 0.34530
 C3505 C 0.44467 0.72982 0.35094
 C3506 C 0.43488 0.74140 0.37143
 C3507 C 0.38831 0.66704 0.39067
 C3508 C 0.38315 0.64614 0.38593
 C3509 C 0.41531 0.76561 0.41384
 C3510 C 0.42128 0.78610 0.41931
 H3511 H 0.38469 0.75849 0.44814
 H3512 H 0.35534 0.73663 0.47322
 H3513 H 0.34372 0.69417 0.46323
 H3514 H 0.36147 0.67333 0.42816
 H3515 H 0.41698 0.67496 0.35499
 H3516 H 0.44564 0.69705 0.32933
 H3517 H 0.45743 0.73944 0.33935
 H3518 H 0.44053 0.76001 0.37504
 C3519 C 0.37498 0.27467 0.87182
 C3520 C 0.35289 0.26563 0.88167
 C3521 C 0.33719 0.25111 0.86694
 C3522 C 0.34365 0.24578 0.84244
 C3523 C 0.36564 0.25497 0.83252
 C3524 C 0.38140 0.26940 0.84729
 C3525 C 0.40338 0.27823 0.83704
 C3526 C 0.40962 0.27292 0.81290
 C3527 C 0.39416 0.25886 0.79844
 C3528 C 0.37237 0.25000 0.80802
 C3529 C 0.31525 0.24217 0.87718
 C3530 C 0.30896 0.24749 0.90129
 C3531 C 0.32428 0.26177 0.91569
 C3532 C 0.34602 0.27077 0.90610
 C3533 C 0.32812 0.23015 0.82773
 C3534 C 0.31560 0.21664 0.81564
 C3535 C 0.39069 0.29002 0.88669
 C3536 C 0.40322 0.30336 0.89894
 H3537 H 0.41600 0.28924 0.84757
 H3538 H 0.42655 0.27973 0.80540
 H3539 H 0.39906 0.25477 0.77970
 H3540 H 0.36087 0.23927 0.79601
 H3541 H 0.30273 0.23104 0.86668
 H3542 H 0.29212 0.24049 0.90883
 H3543 H 0.31930 0.26589 0.93441
 H3544 H 0.35735 0.28175 0.91804
 C3545 C 1.12668 0.77385 1.12845
 C3546 C 1.11759 0.76460 1.15080
 C3547 C 1.13282 0.75006 1.16595
 C3548 C 1.15703 0.74485 1.15862
 C3549 C 1.16609 0.75399 1.13621
 C3550 C 1.15087 0.76857 1.12108
 C3551 C 1.16030 0.77749 1.09873
 C3552 C 1.18404 0.77203 1.09147
 C3553 C 1.19892 0.75771 1.10624
 C3554 C 1.19017 0.74881 1.12841
 C3555 C 1.12333 0.74093 1.18819
 C3556 C 1.09942 0.74593 1.19520
 C3557 C 1.08452 0.76016 1.18038
 C3558 C 1.09341 0.76950 1.15845
 C3559 C 1.17238 0.72951 1.17378
 C3560 C 1.18499 0.71635 1.18611
 C3561 C 1.11138 0.78929 1.11332
 C3562 C 1.09905 0.80270 1.10100
 H3563 H 1.14942 0.78866 1.08657
 H3564 H 1.19090 0.77888 1.07426
 H3565 H 1.21732 0.75342 1.10049
 H3566 H 1.20245 0.73777 1.13927
 H3567 H 1.13424 0.72982 1.20034
 H3568 H 1.09243 0.73875 1.21223
 H3569 H 1.06597 0.76405 1.18593
 H3570 H 1.08112 0.78048 1.14755
 C3571 C 1.09220 0.24036 0.59447
 C3572 C 1.10995 0.22830 0.58000
 C3573 C 1.11666 0.20383 0.58546
 C3574 C 1.10561 0.19161 0.60533
 C3575 C 1.08825 0.20383 0.62011
 C3576 C 1.08148 0.22828 0.61464
 C3577 C 1.06402 0.24011 0.62962
 C3578 C 1.05361 0.22813 0.64950
 C3579 C 1.06029 0.20424 0.65490
 C3580 C 1.07739 0.19213 0.64042
 C3581 C 1.13443 0.19212 0.57076
 C3582 C 1.14530 0.20425 0.55125
 C3583 C 1.13874 0.22818 0.54590
 C3584 C 1.12126 0.24016 0.56003
 C3585 C 1.11195 0.16640 0.61048
 C3586 C 1.11709 0.14547 0.61487
 C3587 C 1.08483 0.26509 0.58842
 C3588 C 1.07881 0.28556 0.58305
 H3589 H 1.05830 0.25872 0.62619
 H3590 H 1.04032 0.23745 0.66079
 H3591 H 1.05222 0.19503 0.67039
 H3592 H 1.08205 0.17359 0.64539
 H3593 H 1.14014 0.17352 0.57422
 H3594 H 1.15889 0.19502 0.54023
 H3595 H 1.14723 0.23753 0.53072
 H3596 H 1.11681 0.25879 0.55517
 C3597 C 0.63738 0.78155 0.63953
 C3598 C 0.63594 0.75575 0.64008
 C3599 C 0.65143 0.74229 0.65597
 C3600 C 0.66825 0.75472 0.67125
 C3601 C 0.66948 0.78054 0.67093
 C3602 C 0.65399 0.79401 0.65502
 C3603 C 0.65552 0.81982 0.65503
 C3604 C 0.67181 0.83197 0.67036
 C3605 C 0.68695 0.81879 0.68589
 C3606 C 0.68592 0.79336 0.68622
 C3607 C 0.64970 0.71647 0.65612
 C3608 C 0.63312 0.70433 0.64107
 C3609 C 0.61795 0.71751 0.62558
 C3610 C 0.61927 0.74293 0.62499
 C3611 C 0.68447 0.74071 0.68685
 C3612 C 0.69766 0.72804 0.69913
 C3613 C 0.62179 0.79527 0.62303
 C3614 C 0.60893 0.80696 0.60951
 H3615 H 0.64411 0.83088 0.64328
 H3616 H 0.67270 0.85172 0.67020
 H3617 H 0.69955 0.82834 0.69777
 H3618 H 0.69803 0.78391 0.69865
 H3619 H 0.66107 0.70538 0.66786
 H3620 H 0.63204 0.68458 0.64147
 H3621 H 0.60507 0.70800 0.61394
 H3622 H 0.60708 0.75237 0.61263
 C3623 C 0.63472 0.28018 1.13772
 C3624 C 0.63186 0.25452 1.13899
 C3625 C 0.64703 0.24060 1.15478
 C3626 C 0.66515 0.25240 1.16901
 C3627 C 0.66746 0.27815 1.16838
 C3628 C 0.65209 0.29210 1.15279
 C3629 C 0.65436 0.31786 1.15284
 C3630 C 0.67119 0.32950 1.16799
 C3631 C 0.68625 0.31583 1.18318
 C3632 C 0.68463 0.29043 1.18331
 C3633 C 0.64364 0.21498 1.15593
 C3634 C 0.62583 0.20345 1.14185
 C3635 C 0.61111 0.21705 1.12628
 C3636 C 0.61402 0.24230 1.12477
 C3637 C 0.68132 0.23787 1.18417
 C3638 C 0.69421 0.22487 1.19641
 C3639 C 0.61972 0.29430 1.12103
 C3640 C 0.60729 0.30626 1.10735
 H3641 H 0.64290 0.32928 1.14150
 H3642 H 0.67237 0.34924 1.16815
 H3643 H 0.69901 0.32499 1.19520
 H3644 H 0.69663 0.28058 1.19554
 H3645 H 0.65463 0.20359 1.16776
 H3646 H 0.62344 0.18385 1.14306
 H3647 H 0.59732 0.20801 1.11534
 H3648 H 0.60209 0.25210 1.11244
 C3649 C 1.22938 1.12769 0.87365
 C3650 C 1.23983 1.11832 0.85189
 C3651 C 1.25479 1.13354 0.83720
 C3652 C 1.25916 1.15804 0.84435
 C3653 C 1.24900 1.16731 0.86627
 C3654 C 1.23405 1.15208 0.88098
 C3655 C 1.22384 1.16184 0.90267
 C3656 C 1.22820 1.18598 0.90958
 C3657 C 1.24284 1.20086 0.89520
 C3658 C 1.25320 1.19171 0.87380
 C3659 C 1.26503 1.12379 0.81550
 C3660 C 1.26056 1.09971 0.80849
 C3661 C 1.24588 1.08484 0.82284
 C3662 C 1.23559 1.09394 0.84431
 C3663 C 1.27411 1.17366 0.82912
 C3664 C 1.28676 1.18638 0.81643
 C3665 C 1.21306 1.11257 0.88795
 C3666 C 1.19893 1.10039 0.89955
 H3667 H 1.21233 1.15098 0.91447
 H3668 H 1.22018 1.19316 0.92620
 H3669 H 1.24617 1.21960 0.90064
 H3670 H 1.26440 1.20399 0.86319
 H3671 H 1.27659 1.13463 0.80377
 H3672 H 1.26854 1.09256 0.79184
 H3673 H 1.24247 1.06614 0.81733
 H3674 H 1.22435 1.08165 0.85489
 C3675 C 1.25813 0.59432 0.40737
 C3676 C 1.26945 0.61473 0.41858
 C3677 C 1.29400 0.62065 0.41277
 C3678 C 1.30709 0.60608 0.39585
 C3679 C 1.29566 0.58587 0.38438
 C3680 C 1.27109 0.58000 0.39012
 C3681 C 1.26003 0.55975 0.37839
 C3682 C 1.27288 0.54569 0.36146
 C3683 C 1.29693 0.55141 0.35588
 C3684 C 1.30829 0.57123 0.36717
 C3685 C 1.30493 0.64116 0.42418
 C3686 C 1.29198 0.65542 0.44085
 C3687 C 1.26798 0.64962 0.44656
 C3688 C 1.25675 0.62952 0.43561
 C3689 C 1.33230 0.61184 0.39030
 C3690 C 1.35325 0.61664 0.38568
 C3691 C 1.23330 0.58785 0.41383
 C3692 C 1.21274 0.58235 0.41931
 H3693 H 1.24135 0.55460 0.38211
 H3694 H 1.26413 0.53028 0.35263
 H3695 H 1.30685 0.54042 0.34274
 H3696 H 1.32703 0.57491 0.36228
 H3697 H 1.32355 0.64642 0.42032
 H3698 H 1.30061 0.67107 0.44938
 H3699 H 1.25798 0.66074 0.45952
 H3700 H 1.23804 0.62577 0.44060
 C3701 C 0.73765 1.12564 0.37792
 C3702 C 0.74249 1.15016 0.38462
 C3703 C 0.75557 1.16557 0.36841
 C3704 C 0.76351 1.15642 0.34552
 C3705 C 0.76032 1.13141 0.33969
 C3706 C 0.74721 1.11600 0.35588
 C3707 C 0.74363 1.09122 0.34937
 C3708 C 0.75294 1.08189 0.32756
 C3709 C 0.76595 1.09692 0.31183
 C3710 C 0.76962 1.12143 0.31770
 C3711 C 0.76043 1.18995 0.37557
 C3712 C 0.75270 1.19878 0.39820
 C3713 C 0.73958 1.18383 0.41390
 C3714 C 0.73439 1.15979 0.40724
 C3715 C 0.77373 1.17300 0.32758
 C3716 C 0.78189 1.18712 0.31279
 C3717 C 0.72162 1.11084 0.39288
 C3718 C 0.70742 1.09894 0.40469
 H3719 H 0.73375 1.07880 0.36109
 H3720 H 0.75012 1.06287 0.32289
 H3721 H 0.77328 1.08950 0.29503
 H3722 H 0.77988 1.13243 0.30494
 H3723 H 0.77056 1.20228 0.36397
 H3724 H 0.75697 1.21732 0.40359
 H3725 H 0.73350 1.19084 0.43140
 H3726 H 0.72429 1.14878 0.42014
 C3727 C 0.72152 0.63932 0.86553
 C3728 C 0.72179 0.66494 0.86931
 C3729 C 0.73497 0.68028 0.85306
 C3730 C 0.74758 0.66995 0.83294
 C3731 C 0.74700 0.64440 0.82895
 C3732 C 0.73389 0.62906 0.84524
 C3733 C 0.73350 0.60359 0.84075
 C3734 C 0.74592 0.59355 0.82091
 C3735 C 0.75889 0.60853 0.80511
 C3736 C 0.75938 0.63368 0.80893
 C3737 C 0.73478 0.70583 0.85708
 C3738 C 0.72163 0.71600 0.87638
 C3739 C 0.70859 0.70102 0.89215
 C3740 C 0.70870 0.67577 0.88882
 C3741 C 0.76112 0.68554 0.81633
 C3742 C 0.77279 0.69833 0.80272
 C3743 C 0.70826 0.62351 0.88222
 C3744 C 0.69701 0.61023 0.89571
 H3745 H 0.72366 0.59117 0.85250
 H3746 H 0.74545 0.57404 0.81776
 H3747 H 0.76853 0.60063 0.78974
 H3748 H 0.76962 0.64458 0.79609
 H3749 H 0.74445 0.71823 0.84516
 H3750 H 0.72145 0.73561 0.87901
 H3751 H 0.69828 0.70900 0.90703
 H3752 H 0.69821 0.66488 0.90150
 C3753 C 1.22836 0.87454 1.12648
 C3754 C 1.23465 0.85056 1.11906
 C3755 C 1.24968 0.83590 1.13430
 C3756 C 1.25842 0.84540 1.15677
 C3757 C 1.25225 0.86944 1.16412
 C3758 C 1.23713 0.88406 1.14893
 C3759 C 1.23109 0.90801 1.15667
 C3760 C 1.23978 0.91728 1.17879
 C3761 C 1.25462 0.90299 1.19363
 C3762 C 1.26084 0.87934 1.18648
 C3763 C 1.25563 0.81191 1.12661
 C3764 C 1.24718 0.80276 1.10437
 C3765 C 1.23255 0.81713 1.08941
 C3766 C 1.22623 0.84074 1.09661
 C3767 C 1.27415 0.83061 1.17207
 C3768 C 1.28755 0.81846 1.18458
 C3769 C 1.21212 0.88910 1.11147
 C3770 C 1.19802 0.90092 1.09945
 H3771 H 1.21965 0.91984 1.14572
 H3772 H 1.23498 0.93565 1.18442
 H3773 H 1.26134 0.91028 1.21078
 H3774 H 1.27240 0.86892 1.19865
 H3775 H 1.26684 0.80001 1.13769
 H3776 H 1.25199 0.78441 1.09874
 H3777 H 1.22606 0.80995 1.07214
 H3778 H 1.21479 0.85121 1.08436
 C3779 C 1.22993 0.37593 0.62492
 C3780 C 1.23764 0.38501 0.64792
 C3781 C 1.25285 0.37048 0.66312
 C3782 C 1.26019 0.34694 0.65521
 C3783 C 1.25306 0.33816 0.63190
 C3784 C 1.23793 0.35274 0.61666
 C3785 C 1.23106 0.34361 0.59340
 C3786 C 1.23895 0.32073 0.58541
 C3787 C 1.25370 0.30644 0.60034
 C3788 C 1.26067 0.31494 0.62335
 C3789 C 1.26034 0.37994 0.68604
 C3790 C 1.25314 0.40315 0.69366
 C3791 C 1.23822 0.41733 0.67882
 C3792 C 1.23043 0.40844 0.65624
 C3793 C 1.27511 0.33178 0.67101
 C3794 C 1.28760 0.31918 0.68404
 C3795 C 1.21288 0.38995 0.61029
 C3796 C 1.19804 0.40131 0.59870
 H3797 H 1.21963 0.35408 0.58113
 H3798 H 1.23361 0.31407 0.56753
 H3799 H 1.25977 0.28867 0.59407
 H3800 H 1.27206 0.30313 0.63434
 H3801 H 1.27187 0.36954 0.69825
 H3802 H 1.25907 0.41015 0.71122
 H3803 H 1.23262 0.43532 0.68485
 H3804 H 1.21884 0.42017 0.64534
 C3805 C 0.72040 0.86033 0.64129
 C3806 C 0.72176 0.83504 0.63579
 C3807 C 0.73525 0.81913 0.65129
 C3808 C 0.74702 0.82852 0.67237
 C3809 C 0.74477 0.85359 0.67845
 C3810 C 0.73137 0.86951 0.66292
 C3811 C 0.72907 0.89440 0.66962
 C3812 C 0.73970 0.90332 0.69103
 C3813 C 0.75294 0.88779 0.70612
 C3814 C 0.75552 0.86320 0.69999
 C3815 C 0.73614 0.79390 0.64558
 C3816 C 0.72366 0.78456 0.62542
 C3817 C 0.71028 0.80005 0.61040
 C3818 C 0.70942 0.82504 0.61534
 C3819 C 0.76127 0.81247 0.68798
 C3820 C 0.77366 0.79965 0.70094
 C3821 C 0.70740 0.87684 0.62499
 C3822 C 0.69643 0.89055 0.61164
 H3823 H 0.71893 0.90719 0.65849
 H3824 H 0.73768 0.92239 0.69592
 H3825 H 0.76123 0.89483 0.72268
 H3826 H 0.76593 0.85183 0.71237
 H3827 H 0.74619 0.78111 0.65681
 H3828 H 0.72433 0.76517 0.62148
 H3829 H 0.70050 0.79267 0.59483
 H3830 H 0.69870 0.83635 0.60319
 C3831 C 0.71969 0.36170 1.13995
 C3832 C 0.72321 0.33699 1.13300
 C3833 C 0.73644 0.32093 1.14856
 C3834 C 0.74607 0.32967 1.17097
 C3835 C 0.74178 0.35412 1.17833
 C3836 C 0.72852 0.37016 1.16281
 C3837 C 0.72442 0.39449 1.17063
 C3838 C 0.73325 0.40276 1.19308
 C3839 C 0.74629 0.38711 1.20821
 C3840 C 0.75051 0.36303 1.20105
 C3841 C 0.73960 0.29630 1.14130
 C3842 C 0.72991 0.28771 1.11933
 C3843 C 0.71698 0.30339 1.10411
 C3844 C 0.71363 0.32777 1.11077
 C3845 C 0.76087 0.31374 1.18619
 C3846 C 0.77384 0.30103 1.19868
 C3847 C 0.70679 0.37832 1.12370
 C3848 C 0.69582 0.39195 1.11029
 H3849 H 0.71436 0.40735 1.15951
 H3850 H 0.72993 0.42142 1.19878
 H3851 H 0.75309 0.39362 1.22564
 H3852 H 0.76062 0.35152 1.21351
 H3853 H 0.74945 0.28339 1.15254
 H3854 H 0.73248 0.26880 1.11409
 H3855 H 0.70950 0.29664 1.08704
 H3856 H 0.70341 0.33924 1.09835
 C3857 C 0.78243 1.13905 1.13690
 C3858 C 0.77224 1.12921 1.15852
 C3859 C 0.75823 1.14434 1.17434
 C3860 C 0.75453 1.16926 1.16851
 C3861 C 0.76610 1.17948 1.14780
 C3862 C 0.78009 1.16434 1.13194
 C3863 C 0.79186 1.17507 1.11163
 C3864 C 0.79012 1.20010 1.10728
 C3865 C 0.77644 1.21489 1.12278
 C3866 C 0.76441 1.20477 1.14276
 C3867 C 0.74829 1.13410 1.19588
 C3868 C 0.75219 1.10964 1.20169
 C3869 C 0.76596 1.09486 1.18628
 C3870 C 0.77586 1.10442 1.16488
 C3871 C 0.73854 1.18415 1.18362
 C3872 C 0.72471 1.19600 1.19609
 C3873 C 0.79556 1.12321 1.12003
 C3874 C 0.80662 1.10989 1.10632
 H3875 H 0.80279 1.16432 1.09914
 H3876 H 0.79947 1.20804 1.09180
 H3877 H 0.77517 1.23432 1.11935
 H3878 H 0.75414 1.21700 1.15442
 H3879 H 0.73761 1.14490 1.20855
 H3880 H 0.74458 1.10215 1.21832
 H3881 H 0.76906 1.07591 1.19096
 H3882 H 0.78651 1.09223 1.15351
 C3883 C 0.77655 0.63731 0.63487
 C3884 C 0.77490 0.66263 0.62984
 C3885 C 0.76188 0.67829 0.64600
 C3886 C 0.75057 0.66853 0.66708
 C3887 C 0.75213 0.64320 0.67205
 C3888 C 0.76525 0.62757 0.65597
 C3889 C 0.76674 0.60235 0.66146
 C3890 C 0.75526 0.59278 0.68204
 C3891 C 0.74226 0.60804 0.69763
 C3892 C 0.74080 0.63300 0.69289
 C3893 C 0.76089 0.70362 0.64088
 C3894 C 0.77246 0.71323 0.62039
 C3895 C 0.78514 0.69791 0.60455
 C3896 C 0.78638 0.67289 0.60910
 C3897 C 0.73751 0.68455 0.68373
 C3898 C 0.72620 0.69772 0.69733
 C3899 C 0.79051 0.62142 0.61880
 C3900 C 0.80259 0.60835 0.60577
 H3901 H 0.77660 0.58974 0.64984
 H3902 H 0.75643 0.57342 0.68587
 H3903 H 0.73329 0.60051 0.71351
 H3904 H 0.73058 0.64413 0.70563
 H3905 H 0.75131 0.71626 0.65270
 H3906 H 0.77153 0.73265 0.61676
 H3907 H 0.79400 0.70544 0.58861
 H3908 H 0.79645 0.66172 0.59624
 C3909 C 0.24254 1.09358 0.59472
 C3910 C 0.23152 1.11418 0.58361
 C3911 C 0.20685 1.12010 0.58893
 C3912 C 0.19333 1.10536 0.60528
 C3913 C 0.20444 1.08492 0.61658
 C3914 C 0.22913 1.07905 0.61133
 C3915 C 0.23986 1.05857 0.62290
 C3916 C 0.22655 1.04431 0.63920
 C3917 C 0.20239 1.05002 0.64430
 C3918 C 0.19135 1.07006 0.63315
 C3919 C 0.19622 1.14079 0.57764
 C3920 C 0.20960 1.15522 0.56155
 C3921 C 0.23372 1.14940 0.55632
 C3922 C 0.24465 1.12914 0.56717
 C3923 C 0.16806 1.11120 0.61046
 C3924 C 0.14704 1.11598 0.61490
 C3925 C 0.26753 1.08716 0.58881
 C3926 C 0.28822 1.08173 0.58374
 H3927 H 0.25862 1.05340 0.61954
 H3928 H 0.23505 1.02872 0.64789
 H3929 H 0.19211 1.03886 0.65694
 H3930 H 0.17250 1.07373 0.63764
 H3931 H 0.17753 1.14605 0.58114
 H3932 H 0.20120 1.17099 0.55309
 H3933 H 0.24404 1.16065 0.54380
 H3934 H 0.26348 1.12539 0.56257
 C3935 C 0.27283 0.62951 1.12734
 C3936 C 0.27432 0.65530 1.12576
 C3937 C 0.25902 0.67014 1.14059
 C3938 C 0.24239 0.65909 1.15695
 C3939 C 0.24061 0.63331 1.15824
 C3940 C 0.25594 0.61847 1.14344
 C3941 C 0.25401 0.59274 1.14521
 C3942 C 0.23732 0.58199 1.16108
 C3943 C 0.22221 0.59651 1.17545
 C3944 C 0.22376 0.62188 1.17411
 C3945 C 0.26077 0.69587 1.13867
 C3946 C 0.27727 0.70663 1.12261
 C3947 C 0.29232 0.69213 1.10817
 C3948 C 0.29094 0.66676 1.10965
 C3949 C 0.22719 0.67420 1.17253
 C3950 C 0.21436 0.68664 1.18540
 C3951 C 0.28912 0.61441 1.11287
 C3952 C 0.30320 0.60224 1.10113
 H3953 H 0.26531 0.58069 1.13434
 H3954 H 0.23607 0.56228 1.16220
 H3955 H 0.20920 0.58809 1.18767
 H3956 H 0.21155 0.63241 1.18554
 H3957 H 0.24940 0.70792 1.14948
 H3958 H 0.27832 0.72633 1.12135
 H3959 H 0.30511 0.70055 1.09571
 H3960 H 0.30297 0.65626 1.09799
 C3961 C 0.78136 0.86139 0.86082
 C3962 C 0.77924 0.86632 0.83548
 C3963 C 0.76602 0.85005 0.82006
 C3964 C 0.75513 0.82887 0.83004
 C3965 C 0.75814 0.82339 0.85514
 C3966 C 0.77131 0.83967 0.87057
 C3967 C 0.77428 0.83362 0.89554
 C3968 C 0.76456 0.81211 0.90497
 C3969 C 0.75163 0.79624 0.88990
 C3970 C 0.74841 0.80172 0.86526
 C3971 C 0.76454 0.85510 0.79474
 C3972 C 0.77605 0.87547 0.78485
 C3973 C 0.78903 0.89134 0.79990
 C3974 C 0.79056 0.88697 0.82495
 C3975 C 0.74065 0.81279 0.81464
 C3976 C 0.72796 0.79958 0.80235
 C3977 C 0.79442 0.87825 0.87674
 C3978 C 0.80557 0.89195 0.89001
 H3979 H 0.78424 0.84534 0.90800
 H3980 H 0.76713 0.80770 0.92407
 H3981 H 0.74417 0.77951 0.89727
 H3982 H 0.73839 0.78869 0.85424
 H3983 H 0.75489 0.84313 0.78229
 H3984 H 0.77497 0.87888 0.76538
 H3985 H 0.79802 0.90710 0.79212
 H3986 H 0.80097 0.89974 0.83591
 C3987 C 0.78178 0.36409 0.36101
 C3988 C 0.76839 0.34486 0.37184
 C3989 C 0.75428 0.32889 0.35695
 C3990 C 0.75387 0.33203 0.33125
 C3991 C 0.76765 0.35096 0.32035
 C3992 C 0.78172 0.36698 0.33527
 C3993 C 0.79572 0.38544 0.32391
 C3994 C 0.79587 0.38799 0.29855
 C3995 C 0.78199 0.37245 0.28399
 C3996 C 0.76794 0.35416 0.29467
 C3997 C 0.74066 0.31014 0.36829
 C3998 C 0.74100 0.30718 0.39358
 C3999 C 0.75502 0.32258 0.40812
 C4000 C 0.76862 0.34121 0.39747
 C4001 C 0.73897 0.31599 0.31618
 C4002 C 0.72608 0.30281 0.30403
 C4003 C 0.79546 0.38086 0.37648
 C4004 C 0.80680 0.39438 0.38974
 H4005 H 0.80690 0.39788 0.33448
 H4006 H 0.80692 0.40202 0.29016
 H4007 H 0.78224 0.37444 0.26429
 H4008 H 0.75758 0.34240 0.28259
 H4009 H 0.72952 0.29767 0.35776
 H4010 H 0.73036 0.29284 0.40196
 H4011 H 0.75537 0.32010 0.42775
 H4012 H 0.77924 0.35271 0.40956
 C4013 C 0.26958 0.87755 0.37690
 C4014 C 0.25721 0.85729 0.38705
 C4015 C 0.24194 0.84262 0.37200
 C4016 C 0.23925 0.84824 0.34688
 C4017 C 0.25082 0.86909 0.33696
 C4018 C 0.26605 0.88379 0.35202
 C4019 C 0.27750 0.90451 0.34169
 C4020 C 0.27384 0.91062 0.31723
 C4021 C 0.25891 0.89626 0.30251
 C4022 C 0.24757 0.87564 0.31214
 C4023 C 0.22968 0.82249 0.38254
 C4024 C 0.23245 0.81701 0.40726
 C4025 C 0.24748 0.83128 0.42196
 C4026 C 0.25980 0.85120 0.41206
 C4027 C 0.22482 0.83245 0.33123
 C4028 C 0.21277 0.81930 0.31828
 C4029 C 0.28677 0.89131 0.39168
 C4030 C 0.30173 0.90239 0.40343
 H4031 H 0.28922 0.91629 0.35243
 H4032 H 0.28257 0.92665 0.30971
 H4033 H 0.25602 0.90113 0.28356
 H4034 H 0.23613 0.86504 0.29997
 H4035 H 0.21773 0.81092 0.37186
 H4036 H 0.22284 0.80163 0.41506
 H4037 H 0.24957 0.82695 0.44116
 H4038 H 0.27121 0.86184 0.42424
 C4039 C 0.27604 0.37291 0.87119
 C4040 C 0.25291 0.36566 0.88005
 C4041 C 0.23771 0.35044 0.86546
 C4042 C 0.24572 0.34264 0.84210
 C4043 C 0.26898 0.34961 0.83338
 C4044 C 0.28421 0.36478 0.84798
 C4045 C 0.30747 0.37138 0.83896
 C4046 C 0.31554 0.36308 0.81626
 C4047 C 0.30064 0.34826 0.80198
 C4048 C 0.27757 0.34163 0.81030
 C4049 C 0.21471 0.34330 0.87475
 C4050 C 0.20698 0.35095 0.89780
 C4051 C 0.22183 0.36588 0.91205
 C4052 C 0.24454 0.37321 0.90335
 C4053 C 0.22986 0.32772 0.82697
 C4054 C 0.21631 0.31558 0.81454
 C4055 C 0.29166 0.38833 0.88608
 C4056 C 0.30520 0.40075 0.89823
 H4057 H 0.31973 0.38287 0.84938
 H4058 H 0.33349 0.36811 0.80980
 H4059 H 0.30698 0.34177 0.78440
 H4060 H 0.26664 0.33005 0.79853
 H4061 H 0.20252 0.33167 0.86438
 H4062 H 0.18938 0.34526 0.90464
 H4063 H 0.21572 0.37179 0.92994
 H4064 H 0.25546 0.38478 0.91510
   
