data_POSCAR
  _audit_creation_date              2014-09-24
  _audit_creation_method            'ToBaCCo'
  _symmetry_space_group_name_H-M    'P1'
  _symmetry_Int_Tables_number       1
  _symmetry_cell_setting            triclinic
  loop_
  _symmetry_equiv_pos_as_xyz
 x,y,z
_cell_length_a 35.6915
_cell_length_b 35.7790
_cell_length_c 34.5048
_cell_angle_alpha 89.412700
_cell_angle_beta 89.990400
_cell_angle_gamma 89.336300
loop_
  _atom_site_label
  _atom_site_type_symbol
  _atom_site_fract_x
  _atom_site_fract_y
  _atom_site_fract_z
C1 C 0.43243 0.03394 0.28763
 H2 H 0.43843 0.04268 0.25820
 C3 C 0.45255 0.04913 0.31832
 H4 H 0.47485 0.06866 0.31243
 C5 C 0.39642 -0.00257 0.33119
 H6 H 0.37431 -0.02247 0.33605
 C7 C 0.41505 0.01268 0.36273
 H8 H 0.40806 0.00311 0.39170
 N9 N 0.40598 0.00755 0.29447
 C10 C 0.39435 -0.03347 0.17722
 H11 H 0.36407 -0.03329 0.17574
 C12 C 0.41537 -0.03951 0.14382
 H13 H 0.40052 -0.04318 0.11688
 C14 C 0.44953 -0.02588 0.21436
 H15 H 0.46266 -0.02068 0.24195
 C16 C 0.47172 -0.03178 0.18162
 H17 H 0.50191 -0.03010 0.18411
 Zn18 Zn 0.37932 -0.01173 0.25190
 N19 N 0.41157 -0.02525 0.21112
 C20 C 0.36047 0.05136 0.20685
 N21 N 0.34774 0.02774 0.23495
 C22 C 0.31663 0.03612 0.25595
 C23 C 0.29751 0.06988 0.24971
 C24 C 0.34247 0.08563 0.19998
 C25 C 0.37255 -0.08316 0.28388
 C26 C 0.35749 -0.11875 0.28843
 C27 C 0.30214 -0.09730 0.25412
 C28 C 0.31820 -0.06193 0.25075
 N29 N 0.35295 -0.05567 0.26517
 H30 H 0.38604 0.04476 0.19146
 H31 H 0.30767 0.01732 0.27880
 H32 H 0.27290 0.07576 0.26697
 H33 H 0.35405 0.10490 0.17884
 H34 H 0.40066 -0.07781 0.29399
 H35 H 0.37433 -0.14021 0.30274
 H36 H 0.27493 -0.10079 0.24115
 H37 H 0.30366 -0.04006 0.23473
 C38 C 0.45469 -0.03756 0.14555
 C39 C 0.44385 0.03855 0.35637
 C40 C 0.32226 -0.12696 0.27241
 C41 C 0.31149 0.09592 0.22258
 C42 C 0.06000 0.05004 0.72136
 H43 H 0.05533 0.06353 0.74889
 C44 C 0.03668 0.05858 0.68984
 H45 H 0.01369 0.07831 0.69316
 C46 C 0.09466 0.00658 0.68382
 H47 H 0.11708 -0.01387 0.68170
 C48 C 0.07290 0.01516 0.65135
 H49 H 0.07822 0.00045 0.62458
 N50 N 0.08733 0.02334 0.71818
 C51 C 0.10052 -0.01145 0.83858
 H52 H 0.13062 -0.00946 0.84147
 C53 C 0.07890 -0.02266 0.87022
 H54 H 0.09272 -0.02760 0.89771
 C55 C 0.04640 -0.00610 0.79910
 H56 H 0.03390 -0.00088 0.77107
 C57 C 0.02370 -0.01714 0.82995
 H58 H -0.00634 -0.01861 0.82577
 Zn59 Zn 0.11588 0.00940 0.76229
 N60 N 0.08397 -0.00248 0.80420
 C61 C 0.14105 0.07176 0.80557
 N62 N 0.14710 0.05044 0.77365
 C63 C 0.17185 0.06106 0.74581
 C64 C 0.19063 0.09497 0.74867
 C65 C 0.15935 0.10590 0.80964
 C66 C 0.11923 -0.06498 0.74685
 C67 C 0.13326 -0.10139 0.74647
 C68 C 0.19536 -0.07725 0.75703
 C69 C 0.17994 -0.04097 0.75766
 N70 N 0.14235 -0.03574 0.75312
 H71 H 0.12056 0.06338 0.82691
 H72 H 0.17579 0.04386 0.72049
 H73 H 0.20986 0.10293 0.72587
 H74 H 0.15318 0.12323 0.83445
 H75 H 0.08940 -0.06003 0.74396
 H76 H 0.11413 -0.12439 0.74282
 H77 H 0.22501 -0.08126 0.76242
 H78 H 0.19763 -0.01738 0.76362
 C79 C 0.03978 -0.02529 0.86614
 C80 C 0.04308 0.04096 0.65441
 C81 C 0.17157 -0.10798 0.75219
 C82 C 0.18346 0.11849 0.78033
 C83 C 0.57283 0.54732 0.19774
 H84 H 0.56795 0.56279 0.22407
 C85 C 0.55078 0.55466 0.16492
 H86 H 0.52857 0.57550 0.16606
 C87 C 0.60710 0.50058 0.16424
 H88 H 0.62900 0.47950 0.16402
 C89 C 0.58647 0.50758 0.13072
 H90 H 0.59210 0.49089 0.10532
 N91 N 0.59951 0.51979 0.19712
 C92 C 0.61444 0.48868 0.31837
 H93 H 0.64474 0.48752 0.31888
 C94 C 0.59426 0.48177 0.35219
 H95 H 0.60972 0.47649 0.37863
 C96 C 0.55836 0.49885 0.28287
 H97 H 0.54448 0.50485 0.25569
 C98 C 0.53701 0.49211 0.31604
 H99 H 0.50675 0.49422 0.31432
 Zn100 Zn 0.62761 0.50742 0.24193
 N101 N 0.59639 0.49819 0.28496
 C102 C 0.65348 0.56912 0.28400
 N103 N 0.65985 0.54761 0.25234
 C104 C 0.68666 0.55665 0.22600
 C105 C 0.70799 0.58880 0.23067
 C106 C 0.67400 0.60152 0.28973
 C107 C 0.62969 0.43260 0.23048
 C108 C 0.64354 0.39618 0.23041
 C109 C 0.70623 0.42033 0.23671
 C110 C 0.69102 0.45661 0.23713
 N111 N 0.65327 0.46183 0.23448
 H112 H 0.63138 0.56211 0.30408
 H113 H 0.69083 0.53931 0.20082
 H114 H 0.72912 0.59513 0.20924
 H115 H 0.66770 0.61887 0.31449
 H116 H 0.59978 0.43765 0.22896
 H117 H 0.62417 0.37315 0.22868
 H118 H 0.73610 0.41628 0.24061
 H119 H 0.70910 0.48026 0.24126
 C120 C 0.55490 0.48408 0.35142
 C121 C 0.55766 0.53467 0.13092
 C122 C 0.68207 0.38969 0.23410
 C123 C 0.70102 0.61228 0.26247
 C124 C 0.91500 0.53166 0.79606
 H125 H 0.92536 0.54768 0.77164
 C126 C 0.93070 0.53642 0.83288
 H127 H 0.95337 0.55591 0.83607
 C128 C 0.87235 0.48727 0.82098
 H129 H 0.84939 0.46841 0.81638
 C130 C 0.88618 0.49197 0.85817
 H131 H 0.87390 0.47586 0.88162
 N132 N 0.88755 0.50611 0.79063
 C133 C 0.89126 0.47941 0.66808
 H134 H 0.86139 0.47912 0.66280
 C135 C 0.91613 0.47175 0.63807
 H136 H 0.90490 0.46705 0.60944
 C137 C 0.94155 0.48770 0.71190
 H138 H 0.95133 0.49299 0.74088
 C139 C 0.96751 0.48049 0.68258
 H140 H 0.99720 0.48172 0.68891
 Zn141 Zn 0.86691 0.49683 0.74132
 N142 N 0.90424 0.48813 0.70383
 C143 C 0.84594 0.56076 0.69667
 N144 N 0.83719 0.53885 0.72780
 C145 C 0.81024 0.54929 0.75344
 C146 C 0.79210 0.58385 0.74936
 C147 C 0.82817 0.59541 0.69126
 C148 C 0.86229 0.42169 0.74987
 C149 C 0.84787 0.38587 0.74848
 C150 C 0.78664 0.41268 0.73516
 C151 C 0.80250 0.44836 0.73629
 N152 N 0.83979 0.45198 0.74339
 H153 H 0.86805 0.55238 0.67712
 H154 H 0.80417 0.53150 0.77814
 H155 H 0.77136 0.59213 0.77061
 H156 H 0.83639 0.61327 0.66725
 H157 H 0.89187 0.42548 0.75515
 H158 H 0.86647 0.36205 0.75294
 H159 H 0.75719 0.40993 0.72845
 H160 H 0.78535 0.47291 0.73057
 C161 C 0.95490 0.47268 0.64509
 C162 C 0.91669 0.51565 0.86450
 C163 C 0.80977 0.38098 0.74087
 C164 C 0.80199 0.60783 0.71861
 C165 C 0.19271 0.40741 0.96848
 H166 H 0.19939 0.38929 0.94452
 C167 C 0.16169 0.43145 0.96597
 H168 H 0.14557 0.43189 0.93946
 C169 C 0.20636 0.42896 1.03152
 H170 H 0.22375 0.42751 1.05719
 C171 C 0.17533 0.45311 1.03044
 H172 H 0.16891 0.47005 1.05548
 N173 N 0.21376 0.40588 1.00129
 C174 C 0.33031 0.36992 1.01023
 H175 H 0.32715 0.34013 1.00775
 C176 C 0.36592 0.38508 1.00746
 H177 H 0.38991 0.36657 1.00396
 C178 C 0.30294 0.43044 1.01376
 H179 H 0.27825 0.44813 1.01439
 C180 C 0.33831 0.44686 1.01135
 H181 H 0.34034 0.47701 1.01035
 Zn182 Zn 0.25253 0.36923 1.00576
 N183 N 0.29956 0.39256 1.01261
 C184 C 0.27663 0.35642 0.92932
 N185 N 0.25660 0.34161 0.95921
 C186 C 0.24198 0.30681 0.95701
 C187 C 0.24725 0.28548 0.92376
 C188 C 0.28262 0.33602 0.89547
 C189 C 0.26405 0.30464 1.05209
 C190 C 0.25776 0.27919 1.08219
 C191 C 0.20528 0.31706 1.10299
 C192 C 0.21216 0.34152 1.07194
 N193 N 0.24182 0.33556 1.04776
 H194 H 0.28836 0.38402 0.93195
 H195 H 0.22607 0.29557 0.98101
 H196 H 0.23483 0.25804 0.92237
 H197 H 0.29893 0.34851 0.87246
 H198 H 0.28646 0.29930 1.03187
 H199 H 0.27626 0.25515 1.08549
 H200 H 0.18196 0.32266 1.12222
 H201 H 0.19372 0.36524 1.06750
 C202 C 0.37018 0.42391 1.00720
 C203 C 0.15181 0.45372 0.99790
 C204 C 0.22869 0.28570 1.10864
 C205 C 0.26749 0.30004 0.89224
 C206 C 0.80015 0.07386 1.02227
 H207 H 0.78353 0.07371 1.04851
 C208 C 0.83342 0.05299 1.02069
 H209 H 0.84103 0.03653 1.04593
 C210 C 0.80969 0.09704 0.95858
 H211 H 0.80103 0.11523 0.93497
 C212 C 0.84297 0.07631 0.95552
 H213 H 0.85925 0.07862 0.92910
 N214 N 0.78933 0.09583 0.99183
 C215 C 0.67273 0.12507 1.01286
 H216 H 0.67605 0.15494 1.01567
 C217 C 0.63699 0.11017 1.01014
 H218 H 0.61278 0.12866 1.01166
 C219 C 0.70042 0.06513 1.00446
 H220 H 0.72530 0.04809 1.00036
 C221 C 0.66494 0.04888 1.00207
 H222 H 0.66285 0.01926 0.99655
 Zn223 Zn 0.74849 0.12880 1.00072
 N224 N 0.70350 0.10272 1.00909
 C225 C 0.72805 0.14312 0.92369
 N226 N 0.73803 0.16004 0.95720
 C227 C 0.73642 0.19787 0.96053
 C228 C 0.72607 0.22024 0.92883
 C229 C 0.71748 0.16443 0.89124
 C230 C 0.74398 0.15261 1.07870
 C231 C 0.75481 0.17281 1.11117
 C232 C 0.80210 0.20322 1.07236
 C233 C 0.79108 0.18161 1.04087
 N234 N 0.76187 0.15762 1.04431
 H235 H 0.72851 0.11293 0.92214
 H236 H 0.74276 0.21085 0.98782
 H237 H 0.72606 0.25037 0.93166
 H238 H 0.71148 0.15013 0.86453
 H239 H 0.72139 0.13285 1.08102
 H240 H 0.73963 0.16918 1.13810
 H241 H 0.82443 0.22322 1.06893
 H242 H 0.80539 0.18443 1.01337
 C243 C 0.63276 0.07184 1.00392
 C244 C 0.85606 0.05474 0.98720
 C245 C 0.78410 0.19863 1.10808
 C246 C 0.71662 0.20368 0.89353
 C247 C 0.32020 0.59604 0.47276
 H248 H 0.31383 0.61470 0.44877
 C249 C 0.35348 0.57513 0.47256
 H250 H 0.37160 0.57730 0.44755
 C251 C 0.30390 0.57064 0.53405
 H252 H 0.28477 0.56970 0.55836
 C253 C 0.33707 0.54949 0.53521
 H254 H 0.34314 0.53211 0.56038
 N255 N 0.29668 0.59425 0.50369
 C256 C 0.17830 0.62448 0.50827
 H257 H 0.18053 0.65442 0.50588
 C258 C 0.14341 0.60824 0.50370
 H259 H 0.11897 0.62605 0.49936
 C260 C 0.20760 0.56485 0.51286
 H261 H 0.23287 0.54802 0.51446
 C262 C 0.17296 0.54731 0.50862
 H263 H 0.17203 0.51713 0.50757
 Zn264 Zn 0.25564 0.62852 0.50651
 N265 N 0.20967 0.60286 0.51221
 C266 C 0.23474 0.63669 0.42897
 N267 N 0.25011 0.65546 0.45906
 C268 C 0.25690 0.69269 0.45632
 C269 C 0.24782 0.71249 0.42242
 C270 C 0.22509 0.65541 0.39458
 C271 C 0.23970 0.69149 0.55366
 C272 C 0.24436 0.71604 0.58440
 C273 C 0.29895 0.68059 0.60460
 C274 C 0.29370 0.65710 0.57291
 N275 N 0.26384 0.66222 0.54864
 H276 H 0.22903 0.60719 0.43212
 H277 H 0.26907 0.70717 0.48051
 H278 H 0.25380 0.74208 0.42068
 H279 H 0.21234 0.63964 0.37166
 H280 H 0.21694 0.69622 0.53361
 H281 H 0.22444 0.73879 0.58816
 H282 H 0.32248 0.67563 0.62384
 H283 H 0.31357 0.63474 0.56808
 C284 C 0.14046 0.56930 0.50316
 C285 C 0.36300 0.55258 0.50487
 C286 C 0.27370 0.71023 0.61084
 C287 C 0.23172 0.69397 0.39089
 C288 C 0.69359 0.93628 0.47615
 H289 H 0.71775 0.95145 0.46615
 C290 C 0.65830 0.95419 0.47673
 H291 H 0.65613 0.98324 0.46801
 C292 C 0.66670 0.87986 0.49844
 H293 H 0.66978 0.85082 0.50681
 C294 C 0.63138 0.89636 0.49929
 H295 H 0.60779 0.87963 0.50846
 N296 N 0.69726 0.90003 0.48831
 C297 C 0.81565 0.87571 0.51381
 H298 H 0.81168 0.84582 0.51258
 C299 C 0.85133 0.88960 0.51959
 H300 H 0.87471 0.87021 0.52271
 C301 C 0.79003 0.93700 0.50979
 H302 H 0.76613 0.95538 0.50630
 C303 C 0.82560 0.95227 0.51567
 H304 H 0.82864 0.98232 0.51531
 Zn305 Zn 0.74261 0.87194 0.49481
 N306 N 0.78609 0.89925 0.50746
 C307 C 0.78453 0.84865 0.42879
 N308 N 0.75249 0.84355 0.44960
 C309 C 0.72771 0.81667 0.43991
 C310 C 0.73561 0.79238 0.40959
 C311 C 0.79334 0.82521 0.39782
 C312 C 0.72382 0.85542 0.57104
 C313 C 0.71799 0.83366 0.60418
 C314 C 0.73494 0.77887 0.56743
 C315 C 0.74054 0.80172 0.53502
 N316 N 0.73494 0.83928 0.53741
 H317 H 0.80355 0.87069 0.43630
 H318 H 0.70231 0.81329 0.45658
 H319 H 0.71568 0.77086 0.40257
 H320 H 0.81922 0.82935 0.38211
 H321 H 0.71996 0.88543 0.57214
 H322 H 0.71067 0.84774 0.63071
 H323 H 0.74062 0.74915 0.56533
 H324 H 0.75039 0.78946 0.50840
 C325 C 0.85687 0.92823 0.51964
 C326 C 0.62676 0.93414 0.48930
 C327 C 0.72382 0.79472 0.60268
 C328 C 0.76876 0.79640 0.38819
 C329 C 0.04107 0.30654 0.41569
 H330 H 0.06394 0.29712 0.39764
 C331 C 0.04647 0.33646 0.44053
 H332 H 0.07329 0.35035 0.44053
 C333 C -0.02134 0.29992 0.43780
 H334 H -0.04756 0.28531 0.43713
 C335 C -0.01720 0.32996 0.46300
 H336 H -0.04057 0.33793 0.48120
 N337 N 0.00737 0.28929 0.41419
 C338 C -0.01090 0.17384 0.38802
 H339 H -0.01621 0.17704 0.35729
 C340 C -0.01335 0.13891 0.40541
 H341 H -0.02086 0.11538 0.38756
 C342 C 0.00589 0.20110 0.44783
 H343 H 0.01368 0.22561 0.46389
 C344 C 0.00387 0.16629 0.46665
 H345 H 0.01014 0.16470 0.49726
 Zn346 Zn 0.00245 0.24838 0.38002
 N347 N -0.00117 0.20394 0.40915
 C348 C 0.06863 0.21467 0.35518
 N349 N 0.04556 0.24441 0.34786
 C350 C 0.05514 0.27136 0.32153
 C351 C 0.08981 0.26942 0.30238
 C352 C 0.10323 0.21187 0.33717
 C353 C -0.07348 0.24281 0.37109
 C354 C -0.10721 0.23670 0.35236
 C355 C -0.07680 0.24881 0.29101
 C356 C -0.04316 0.25428 0.31110
 N357 N -0.04220 0.25115 0.35050
 H358 H 0.06138 0.19395 0.37671
 H359 H 0.03678 0.29524 0.31685
 H360 H 0.09822 0.29194 0.28317
 H361 H 0.12195 0.18894 0.34498
 H362 H -0.07177 0.23846 0.40205
 H363 H -0.13155 0.22928 0.36944
 H364 H -0.07702 0.25049 0.25969
 H365 H -0.01774 0.25947 0.29507
 C366 C -0.00568 0.13447 0.44513
 C367 C 0.01696 0.34908 0.46399
 C368 C -0.10917 0.23933 0.31192
 C369 C 0.11446 0.23972 0.31114
 C370 C 0.01801 0.69189 0.05504
 H371 H 0.04331 0.70756 0.05101
 C372 C 0.01098 0.66167 0.03063
 H373 H 0.03190 0.65407 0.00939
 C374 C -0.03936 0.68263 0.08773
 H375 H -0.05925 0.69074 0.10970
 C376 C -0.04761 0.65252 0.06390
 H377 H -0.07337 0.63742 0.06870
 N378 N -0.00616 0.70069 0.08427
 C379 C 0.02754 0.81169 0.12096
 H380 H 0.03584 0.80481 0.15036
 C381 C 0.03160 0.84804 0.10693
 H382 H 0.04292 0.86905 0.12589
 C383 C 0.00162 0.79270 0.06120
 H384 H -0.01054 0.77101 0.04379
 C385 C 0.00509 0.82900 0.04591
 H386 H -0.00500 0.83482 0.01691
 Zn387 Zn 0.00616 0.73761 0.12240
 N388 N 0.01223 0.78503 0.09837
 C389 C 0.08372 0.72399 0.12541
 N390 N 0.05246 0.72574 0.14783
 C391 C 0.05495 0.72274 0.18722
 C392 C 0.08989 0.71765 0.20529
 C393 C 0.11883 0.71804 0.14208
 C394 C -0.05305 0.77290 0.16413
 C395 C -0.08392 0.77471 0.18904
 C396 C -0.07262 0.71010 0.20667
 C397 C -0.04168 0.70979 0.18175
 N398 N -0.03311 0.74057 0.16021
 H399 H 0.08178 0.72860 0.09459
 H400 H 0.03009 0.72537 0.20485
 H401 H 0.09146 0.71555 0.23656
 H402 H 0.14334 0.71698 0.12357
 H403 H -0.04579 0.79722 0.14703
 H404 H -0.09881 0.80107 0.19005
 H405 H -0.07950 0.68457 0.22215
 H406 H -0.02528 0.68440 0.17843
 C407 C 0.01983 0.85735 0.06922
 C408 C -0.02174 0.64070 0.03583
 C409 C -0.09529 0.74245 0.20993
 C410 C 0.12234 0.71536 0.18243
 C411 C 0.46318 0.19434 0.58765
 H412 H 0.43857 0.19855 0.60528
 C413 C 0.46571 0.16247 0.56464
 H414 H 0.44298 0.14274 0.56541
 C415 C 0.52388 0.21281 0.56833
 H416 H 0.54711 0.23162 0.57090
 C417 C 0.52770 0.18119 0.54521
 H418 H 0.55377 0.17630 0.52988
 N419 N 0.49195 0.21900 0.58897
 C420 C 0.46427 0.33167 0.59029
 H421 H 0.44139 0.32805 0.61025
 C422 C 0.46358 0.36258 0.56546
 H423 H 0.43990 0.38178 0.56656
 C424 C 0.52345 0.31289 0.56609
 H425 H 0.54704 0.29380 0.56666
 C426 C 0.52425 0.34414 0.54109
 H427 H 0.54825 0.34830 0.52245
 Zn428 Zn 0.48922 0.26217 0.62130
 N429 N 0.49327 0.30665 0.58950
 C430 C 0.53817 0.29153 0.67724
 N431 N 0.52909 0.25999 0.65793
 C432 C 0.54882 0.22759 0.66352
 C433 C 0.58005 0.22647 0.68807
 C434 C 0.56914 0.29167 0.70206
 C435 C 0.41098 0.26470 0.62494
 C436 C 0.37557 0.26902 0.64123
 C437 C 0.40382 0.26887 0.70481
 C438 C 0.43911 0.26499 0.68710
 N439 N 0.44204 0.26346 0.64773
 H440 H 0.52199 0.31691 0.67243
 H441 H 0.54089 0.20266 0.64827
 H442 H 0.59604 0.20072 0.69034
 H443 H 0.57675 0.31748 0.71601
 H444 H 0.41391 0.26358 0.59376
 H445 H 0.35138 0.27073 0.62230
 H446 H 0.40201 0.27097 0.73602
 H447 H 0.46413 0.26400 0.70477
 C448 C 0.49359 0.36912 0.54027
 C449 C 0.49842 0.15557 0.54302
 C450 C 0.37156 0.27140 0.68153
 C451 C 0.59102 0.25909 0.70728
 C452 C 0.53233 0.79724 0.93273
 H453 H 0.55614 0.77855 0.92946
 C454 C 0.53481 0.82772 0.95738
 H455 H 0.56062 0.83229 0.97306
 C456 C 0.47093 0.81556 0.91384
 H457 H 0.44659 0.81137 0.89585
 C458 C 0.47217 0.84644 0.93832
 H459 H 0.44869 0.86582 0.93824
 N460 N 0.50108 0.79216 0.91091
 C461 C 0.50811 0.67653 0.87500
 H462 H 0.50096 0.67988 0.84479
 C463 C 0.51351 0.64080 0.89029
 H464 H 0.51175 0.61694 0.87131
 C465 C 0.51621 0.70308 0.93701
 H466 H 0.51660 0.72734 0.95531
 C467 C 0.52099 0.66753 0.95378
 H468 H 0.52587 0.66480 0.98465
 Zn469 Zn 0.50277 0.75391 0.87311
 N470 N 0.51061 0.70693 0.89806
 C471 C 0.55558 0.73745 0.81288
 N472 N 0.54315 0.76391 0.83809
 C473 C 0.56172 0.79669 0.84189
 C474 C 0.59602 0.80203 0.82342
 C475 C 0.58979 0.74172 0.79364
 C476 C 0.42786 0.73792 0.86896
 C477 C 0.39296 0.73161 0.85254
 C478 C 0.41711 0.75227 0.79058
 C479 C 0.45199 0.75785 0.80827
 N480 N 0.45651 0.75075 0.84685
 H481 H 0.54016 0.71210 0.80898
 H482 H 0.55090 0.81822 0.86064
 H483 H 0.61147 0.82737 0.82871
 H484 H 0.60033 0.71903 0.77609
 H485 H 0.43241 0.73209 0.89943
 H486 H 0.37055 0.72134 0.87082
 H487 H 0.41406 0.75778 0.75986
 H488 H 0.47546 0.76747 0.79119
 C489 C 0.51996 0.63601 0.93002
 C490 C 0.50484 0.85320 0.95991
 C491 C 0.38706 0.73889 0.81299
 C492 C 0.61111 0.77379 0.80015
 C493 C -0.20377 0.64532 0.92553
 H494 H -0.18821 0.61934 0.92727
 C495 C -0.19658 0.67034 0.89498
 H496 H -0.17579 0.66278 0.87359
 C497 C -0.24916 0.68684 0.95140
 H498 H -0.26918 0.69369 0.97376
 C499 C -0.24261 0.71265 0.92188
 H500 H -0.25870 0.73852 0.92129
 N501 N -0.23051 0.65348 0.95243
 C502 C -0.27789 0.64848 1.06354
 H503 H -0.29785 0.62628 1.05992
 C504 C -0.28153 0.67291 1.09473
 H505 H -0.30446 0.66880 1.11470
 C506 C -0.22348 0.67974 1.04177
 H507 H -0.20077 0.68197 1.02114
 C508 C -0.22650 0.70518 1.07170
 H509 H -0.20547 0.72668 1.07398
 Zn510 Zn -0.24316 0.62131 0.99480
 N511 N -0.24904 0.65227 1.03809
 C512 C -0.18674 0.58679 1.04058
 N513 N -0.20442 0.58585 1.00558
 C514 C -0.19341 0.56138 0.97781
 C515 C -0.16151 0.53905 0.98342
 C516 C -0.15508 0.56441 1.04768
 C517 C -0.31929 0.62159 0.97916
 C518 C -0.35545 0.60778 0.97730
 C519 C -0.33022 0.54525 0.98554
 C520 C -0.29424 0.56041 0.98764
 N521 N -0.28962 0.59810 0.98517
 H522 H -0.19628 0.60589 1.06262
 H523 H -0.20848 0.56036 0.95066
 H524 H -0.15180 0.52114 0.96027
 H525 H -0.14015 0.56677 1.07485
 H526 H -0.31525 0.65137 0.97795
 H527 H -0.37887 0.62716 0.97430
 H528 H -0.33374 0.51546 0.98959
 H529 H -0.27035 0.54226 0.99301
 C530 C -0.25531 0.70173 1.09924
 C531 C -0.21685 0.70428 0.89255
 C532 C -0.36133 0.56936 0.98119
 C533 C -0.14139 0.54139 1.01829
 C534 C -0.21154 0.34385 0.56715
 H535 H -0.19420 0.36836 0.56532
 C536 C -0.20943 0.32146 0.59846
 H537 H -0.18995 0.32846 0.62114
 C538 C -0.25749 0.30585 0.53714
 H539 H -0.27749 0.30089 0.51430
 C540 C -0.25569 0.28012 0.57057
 H541 H -0.27447 0.25651 0.57094
 N542 N -0.23720 0.33580 0.53628
 C543 C -0.28674 0.35581 0.42611
 H544 H -0.30146 0.38162 0.43201
 C545 C -0.29651 0.33525 0.39344
 H546 H -0.31840 0.34555 0.37426
 C547 C -0.24015 0.31088 0.44326
 H548 H -0.21799 0.30168 0.46264
 C549 C -0.24971 0.28902 0.41167
 H550 H -0.23444 0.26319 0.40650
 Zn551 Zn -0.24532 0.37038 0.49518
 N552 N -0.25870 0.34356 0.45004
 C553 C -0.17701 0.38690 0.45744
 N554 N -0.20078 0.39762 0.48619
 C555 C -0.19217 0.42627 0.51004
 C556 C -0.15792 0.44456 0.50632
 C557 C -0.14241 0.40427 0.45281
 C558 C -0.30862 0.39269 0.53859
 C559 C -0.34198 0.41241 0.54508
 C560 C -0.32624 0.45370 0.49187
 C561 C -0.29310 0.43326 0.48659
 N562 N -0.28563 0.40258 0.50885
 H563 H -0.18434 0.36416 0.43867
 H564 H -0.21167 0.43445 0.53250
 H565 H -0.15214 0.46728 0.52573
 H566 H -0.12346 0.39463 0.43041
 H567 H -0.30205 0.36843 0.55629
 H568 H -0.36054 0.40294 0.56794
 H569 H -0.33105 0.47742 0.47289
 H570 H -0.27404 0.44086 0.46349
 C571 C -0.27782 0.30140 0.38612
 C572 C -0.23394 0.28804 0.60124
 C573 C -0.35220 0.44243 0.52059
 C574 C -0.13201 0.43292 0.47793
 C575 C 0.27865 -0.18682 0.05408
 H576 H 0.27899 -0.20447 0.02888
 C577 C 0.28966 -0.20089 0.08852
 H578 H 0.29768 -0.23006 0.09028
 C579 C 0.27165 -0.12542 0.07934
 H580 H 0.26472 -0.09610 0.07564
 C581 C 0.28288 -0.13959 0.11776
 H582 H 0.28251 -0.12022 0.14174
 N583 N 0.26764 -0.14811 0.05046
 C584 C 0.23705 -0.14007 -0.07208
 H585 H 0.24547 -0.11129 -0.07541
 C586 C 0.22802 -0.16061 -0.10474
 H587 H 0.23097 -0.14744 -0.13292
 C588 C 0.22491 -0.19199 -0.03107
 H589 H 0.22252 -0.20369 -0.00222
 C590 C 0.21602 -0.21385 -0.06317
 H591 H 0.20838 -0.24281 -0.05889
 Zn592 Zn 0.25041 -0.12394 0.00445
 N593 N 0.23659 -0.15621 -0.03626
 C594 C 0.31814 -0.11261 -0.03314
 N595 N 0.29120 -0.09476 -0.01219
 C596 C 0.29645 -0.05970 0.00149
 C597 C 0.33047 -0.04164 -0.00493
 C598 C 0.35224 -0.09540 -0.04073
 C599 C 0.18569 -0.10406 0.04650
 C600 C 0.15083 -0.08691 0.05216
 C601 C 0.16084 -0.05021 -0.00599
 C602 C 0.19567 -0.06799 -0.01036
 N603 N 0.20723 -0.09459 0.01550
 H604 H 0.31374 -0.14094 -0.04261
 H605 H 0.27491 -0.04647 0.01882
 H606 H 0.33453 -0.01404 0.00678
 H607 H 0.37380 -0.11043 -0.05652
 H608 H 0.19474 -0.12617 0.06604
 H609 H 0.13392 -0.09571 0.07663
 H610 H 0.15282 -0.02966 -0.02764
 H611 H 0.21306 -0.06136 -0.03511
 C612 C 0.21780 -0.19826 -0.10061
 C613 C 0.29016 -0.17625 0.12321
 C614 C 0.13730 -0.06019 0.02532
 C615 C 0.35918 -0.06007 -0.02546
 C616 C 0.28363 1.18323 0.46561
 H617 H 0.29490 1.19024 0.49368
 C618 C 0.29579 1.20234 0.43247
 H619 H 0.31579 1.22471 0.43508
 C620 C 0.24307 1.14612 0.42803
 H621 H 0.22260 1.12415 0.42649
 C622 C 0.25525 1.16370 0.39411
 H623 H 0.24300 1.15593 0.36666
 N624 N 0.25686 1.15655 0.46294
 C625 C 0.21949 1.15156 0.58290
 H626 H 0.22208 1.12173 0.58787
 C627 C 0.20820 1.17488 0.61298
 H628 H 0.20368 1.16263 0.64136
 C629 C 0.22409 1.20333 0.53987
 H630 H 0.22945 1.21420 0.51112
 C631 C 0.21307 1.22773 0.56917
 H632 H 0.21154 1.25748 0.56310
 Zn633 Zn 0.24139 1.13168 0.50871
 N634 N 0.22806 1.16613 0.54752
 C635 C 0.30663 1.11360 0.55183
 N636 N 0.28255 1.10161 0.52416
 C637 C 0.29111 1.07181 0.50164
 C638 C 0.32550 1.05334 0.50569
 C639 C 0.34171 1.09628 0.55644
 C640 C 0.16780 1.12530 0.48828
 C641 C 0.13182 1.11080 0.48855
 C642 C 0.15729 1.05198 0.51222
 C643 C 0.19304 1.06782 0.51180
 N644 N 0.19741 1.10406 0.50042
 H645 H 0.29969 1.13810 0.56858
 H646 H 0.27186 1.06346 0.47920
 H647 H 0.33132 1.02972 0.48728
 H648 H 0.36135 1.10728 0.57724
 H649 H 0.17198 1.15429 0.48036
 H650 H 0.10838 1.12868 0.48028
 H651 H 0.15396 1.02381 0.52329
 H652 H 0.21672 1.05190 0.52282
 C653 C 0.20532 1.21369 0.60638
 C654 C 0.28168 1.19246 0.39622
 C655 C 0.12609 1.07403 0.50132
 C656 C 0.35211 1.06670 0.53215
 C657 C 0.18556 0.43916 0.26719
 H658 H 0.20076 0.46222 0.27917
 C659 C 0.20178 0.40318 0.26774
 H660 H 0.22967 0.39943 0.27944
 C661 C 0.13008 0.41560 0.23948
 H662 H 0.10190 0.42027 0.22894
 C663 C 0.14494 0.37961 0.23959
 H664 H 0.12795 0.35709 0.22875
 N665 N 0.15073 0.44482 0.25188
 C666 C 0.13354 0.56520 0.23370
 H667 H 0.10341 0.56256 0.23228
 C668 C 0.14922 0.60048 0.23447
 H669 H 0.13102 0.62493 0.23333
 C670 C 0.19349 0.53643 0.23898
 H671 H 0.21063 0.51148 0.24075
 C672 C 0.21058 0.57157 0.23945
 H673 H 0.24068 0.57328 0.24259
 Zn674 Zn 0.12517 0.49144 0.24556
 N675 N 0.15541 0.53410 0.23791
 C676 C 0.10351 0.52820 0.31473
 N677 N 0.09490 0.50000 0.29012
 C678 C 0.06494 0.47777 0.29689
 C679 C 0.04163 0.48427 0.32867
 C680 C 0.08115 0.53545 0.34710
 C681 C 0.11227 0.47487 0.16795
 C682 C 0.09194 0.46988 0.13386
 C683 C 0.03657 0.49210 0.16724
 C684 C 0.05798 0.49629 0.20069
 N685 N 0.09510 0.48756 0.20050
 H686 H 0.12800 0.54500 0.30960
 H687 H 0.05891 0.45519 0.27734
 H688 H 0.01794 0.46619 0.33366
 H689 H 0.08845 0.55818 0.36600
 H690 H 0.14193 0.46831 0.16861
 H691 H 0.10718 0.46018 0.10880
 H692 H 0.00713 0.49986 0.16819
 H693 H 0.04496 0.50708 0.22660
 C694 C 0.18797 0.60399 0.23856
 C695 C 0.18143 0.37296 0.25304
 C696 C 0.05328 0.47891 0.13289
 C697 C 0.04977 0.51319 0.35442
 C698 C -0.17795 1.05373 0.27778
 H699 H -0.19580 1.03031 0.28364
 C700 C -0.19391 1.08953 0.27379
 H701 H -0.22404 1.09270 0.27528
 C702 C -0.11724 1.07830 0.26869
 H703 H -0.08737 1.07371 0.26588
 C704 C -0.13185 1.11426 0.26445
 H705 H -0.11298 1.13721 0.25884
 N706 N -0.14035 1.04865 0.27322
 C707 C -0.11951 0.92966 0.25335
 H708 H -0.08955 0.93333 0.25567
 C709 C -0.13389 0.89387 0.25237
 H710 H -0.11481 0.87009 0.25354
 C711 C -0.18053 0.95630 0.25059
 H712 H -0.19867 0.98049 0.24941
 C713 C -0.19630 0.92060 0.24920
 H714 H -0.22644 0.91792 0.24819
 Zn715 Zn -0.11418 1.00279 0.26602
 N716 N -0.14275 0.95996 0.25450
 C717 C -0.10177 0.96508 0.33664
 N718 N -0.08668 0.99072 0.31185
 C719 C -0.05288 1.00624 0.31927
 C720 C -0.03221 0.99477 0.35173
 C721 C -0.08226 0.95317 0.36969
 C722 C -0.09944 1.02775 0.19144
 C723 C -0.07919 1.03522 0.15770
 C724 C -0.02459 1.00748 0.18838
 C725 C -0.04597 1.00057 0.22152
 N726 N -0.08272 1.01079 0.22247
 H727 H -0.12909 0.95369 0.33077
 H728 H -0.04182 1.02734 0.29991
 H729 H -0.00537 1.00749 0.35734
 H730 H -0.09469 0.93264 0.38887
 H731 H -0.12883 1.03535 0.19288
 H732 H -0.09402 1.04808 0.13369
 H733 H 0.00443 0.99822 0.18805
 H734 H -0.03337 0.98613 0.24596
 C735 C -0.17266 0.88896 0.25145
 C736 C -0.17064 1.12009 0.26567
 C737 C -0.04113 1.02452 0.15551
 C738 C -0.04692 0.96803 0.37741
 C739 C 0.31347 0.55357 -0.24472
 H740 H 0.29501 0.53000 -0.24556
 C741 C 0.29809 0.58977 -0.24304
 H742 H 0.26797 0.59335 -0.24391
 C743 C 0.37482 0.57791 -0.24282
 H744 H 0.40481 0.57315 -0.24332
 C745 C 0.36080 0.61429 -0.24137
 H746 H 0.38016 0.63738 -0.24052
 N747 N 0.35133 0.54848 -0.24628
 C748 C 0.37065 0.42588 -0.25324
 H749 H 0.40022 0.42773 -0.24690
 C750 C 0.35395 0.39290 -0.25057
 H751 H 0.37044 0.36850 -0.24218
 C752 C 0.31466 0.45697 -0.27396
 H753 H 0.29955 0.48165 -0.28344
 C754 C 0.29486 0.42067 -0.27181
 H755 H 0.26545 0.42042 -0.27917
 Zn756 Zn 0.37834 0.50331 -0.25607
 N757 N 0.34964 0.45907 -0.26333
 C758 C 0.39177 0.47678 -0.18098
 N759 N 0.40866 0.49350 -0.21184
 C760 C 0.44608 0.50018 -0.21182
 C761 C 0.46812 0.48911 -0.18023
 C762 C 0.41279 0.46490 -0.14895
 C763 C 0.40312 0.54176 -0.32402
 C764 C 0.42803 0.55005 -0.35415
 C765 C 0.46460 0.49554 -0.33565
 C766 C 0.43880 0.48803 -0.30633
 N767 N 0.40932 0.51160 -0.30028
 H768 H 0.36197 0.47165 -0.18179
 H769 H 0.45892 0.51421 -0.23621
 H770 H 0.49779 0.49516 -0.18052
 H771 H 0.39851 0.45083 -0.12548
 H772 H 0.37900 0.55971 -0.31947
 H773 H 0.42286 0.57447 -0.37220
 H774 H 0.48819 0.47664 -0.33964
 H775 H 0.44301 0.46399 -0.28754
 C776 C 0.31345 0.38976 -0.25915
 C777 C 0.32207 0.62071 -0.24242
 C778 C 0.45955 0.52694 -0.35988
 C779 C 0.45161 0.47132 -0.14816
 C780 C 0.67958 -0.05024 -0.24382
 H781 H 0.69612 -0.02527 -0.24159
 C782 C 0.69684 -0.08379 -0.24537
 H783 H 0.72710 -0.08503 -0.24434
 C784 C 0.61903 -0.07718 -0.24910
 H785 H 0.58907 -0.07459 -0.25269
 C786 C 0.63666 -0.11429 -0.25204
 H787 H 0.61863 -0.13816 -0.25592
 N788 N 0.63932 -0.04738 -0.24612
 C789 C 0.63709 0.06053 -0.29633
 H790 H 0.61622 0.05218 -0.31710
 C791 C 0.65503 0.09470 -0.30133
 H792 H 0.64790 0.11194 -0.32633
 C793 C 0.66999 0.04908 -0.23778
 H794 H 0.67475 0.03170 -0.21239
 C795 C 0.68839 0.08316 -0.24141
 H796 H 0.70810 0.09015 -0.21899
 Zn797 Zn 0.61206 -0.00181 -0.25363
 N798 N 0.64395 0.03906 -0.26432
 C799 C 0.58802 0.04108 -0.18829
 N800 N 0.58197 0.00959 -0.20929
 C801 C 0.55376 -0.01401 -0.19971
 C802 C 0.53075 -0.00661 -0.16796
 C803 C 0.56628 0.04898 -0.15557
 C804 C 0.59666 -0.02797 -0.32758
 C805 C 0.57532 -0.03640 -0.36013
 C806 C 0.52185 -0.00696 -0.32959
 C807 C 0.54415 0.00051 -0.29738
 N808 N 0.58093 -0.00976 -0.29713
 H809 H 0.60969 0.06027 -0.19661
 H810 H 0.54871 -0.03841 -0.21700
 H811 H 0.50860 -0.02590 -0.16062
 H812 H 0.57186 0.07375 -0.13884
 H813 H 0.62589 -0.03623 -0.32640
 H814 H 0.58873 -0.05134 -0.38348
 H815 H 0.49288 0.00241 -0.32980
 H816 H 0.53222 0.01500 -0.27289
 C817 C 0.67992 0.10737 -0.27291
 C818 C 0.67418 -0.11809 -0.25080
 C819 C 0.53747 -0.02509 -0.36181
 C820 C 0.53732 0.02481 -0.14513
 C821 C 0.03884 0.27261 0.82565
 H822 H 0.02204 0.29790 0.82349
 C823 C 0.07209 0.26927 0.80420
 H824 H 0.08086 0.29254 0.78627
 C825 C 0.04886 0.21264 0.85371
 H826 H 0.04026 0.19078 0.87347
 C827 C 0.08216 0.20823 0.83305
 H828 H 0.09884 0.18302 0.83734
 N829 N 0.02798 0.24452 0.84995
 C830 C -0.09246 0.25384 0.86814
 H831 H -0.09247 0.24996 0.89928
 C832 C -0.12605 0.26016 0.84867
 H833 H -0.15201 0.26098 0.86496
 C834 C -0.05848 0.25819 0.80924
 H835 H -0.03198 0.25763 0.79411
 C836 C -0.09187 0.26363 0.78830
 H837 H -0.09099 0.26753 0.75715
 Zn838 Zn -0.01619 0.24941 0.88063
 N839 N -0.05941 0.25433 0.84860
 C840 C -0.04086 0.31835 0.91065
 N841 N -0.01295 0.29222 0.91335
 C842 C 0.01606 0.29667 0.93855
 C843 C 0.01720 0.32808 0.96270
 C844 C -0.04141 0.34920 0.93482
 C845 C -0.03441 0.17542 0.88934
 C846 C -0.03913 0.14063 0.90681
 C847 C -0.02041 0.16676 0.96799
 C848 C -0.01645 0.20155 0.94923
 N849 N -0.02276 0.20494 0.91038
 H850 H -0.06289 0.31571 0.88960
 H851 H 0.03831 0.27591 0.93989
 H852 H 0.04039 0.33143 0.98254
 H853 H -0.06409 0.36947 0.93217
 H854 H -0.03939 0.17885 0.85858
 H855 H -0.04771 0.11745 0.88903
 H856 H -0.01439 0.16447 0.99863
 H857 H -0.00762 0.22550 0.96557
 C858 C -0.12599 0.26543 0.80843
 C859 C 0.09437 0.23674 0.80811
 C860 C -0.03144 0.13558 0.94641
 C861 C -0.01221 0.35450 0.96112
 C862 C 0.45686 0.27423 0.18701
 H863 H 0.47501 0.29822 0.18545
 C864 C 0.42657 0.27436 0.21252
 H865 H 0.42157 0.29861 0.23042
 C866 C 0.44001 0.21473 0.16363
 H867 H 0.44482 0.19201 0.14375
 C868 C 0.40926 0.21368 0.18877
 H869 H 0.39057 0.19018 0.18724
 N870 N 0.46255 0.24511 0.16257
 C871 C 0.57798 0.26310 0.12679
 H872 H 0.57570 0.26025 0.09588
 C873 C 0.61279 0.27036 0.14294
 H874 H 0.63677 0.27385 0.12403
 C875 C 0.55049 0.25946 0.18914
 H876 H 0.52636 0.25442 0.20721
 C877 C 0.58513 0.26605 0.20665
 H878 H 0.58702 0.26688 0.23793
 Zn879 Zn 0.50098 0.24955 0.12459
 N880 N 0.54740 0.25869 0.14976
 C881 C 0.51267 0.29903 0.06033
 N882 N 0.48914 0.29023 0.09007
 C883 C 0.45852 0.31198 0.09758
 C884 C 0.45321 0.34595 0.07811
 C885 C 0.50844 0.33286 0.04007
 C886 C 0.52257 0.17571 0.11713
 C887 C 0.52939 0.14163 0.09923
 C888 C 0.50304 0.16713 0.03997
 C889 C 0.49699 0.20107 0.05906
 N890 N 0.50661 0.20453 0.09702
 H891 H 0.53554 0.28051 0.05296
 H892 H 0.43889 0.30401 0.11982
 H893 H 0.42989 0.36392 0.08618
 H894 H 0.52916 0.34031 0.01856
 H895 H 0.53017 0.17937 0.14720
 H896 H 0.54190 0.11894 0.11597
 H897 H 0.49521 0.16501 0.00982
 H898 H 0.48451 0.22452 0.04360
 C899 C 0.61672 0.27174 0.18324
 C900 C 0.40183 0.24425 0.21314
 C901 C 0.51932 0.13677 0.06032
 C902 C 0.47918 0.35747 0.05013
 C903 C -0.05176 0.76280 0.67963
 H904 H -0.03513 0.78767 0.68290
 C905 C -0.08270 0.75815 0.70113
 H906 H -0.09048 0.77990 0.72117
 C907 C -0.05890 0.70407 0.64869
 H908 H -0.04958 0.68285 0.62881
 C909 C -0.09373 0.69819 0.67083
 H910 H -0.10963 0.67315 0.66534
 N911 N -0.04042 0.73503 0.65201
 C912 C 0.05495 0.73211 0.68262
 H913 H 0.04116 0.70550 0.68592
 C914 C 0.08662 0.73992 0.70496
 H915 H 0.09732 0.71866 0.72466
 C916 C 0.05890 0.79098 0.65101
 H917 H 0.04807 0.81105 0.63020
 C918 C 0.09045 0.79993 0.67263
 H919 H 0.10403 0.82646 0.66751
 Zn920 Zn 0.00296 0.74404 0.62121
 N921 N 0.04275 0.75691 0.65511
 C922 C 0.02272 0.79136 0.55995
 N923 N -0.00514 0.78411 0.58580
 C924 C -0.03623 0.80630 0.58775
 C925 C -0.03858 0.83904 0.56545
 C926 C 0.02156 0.82385 0.53717
 C927 C 0.04851 0.68245 0.59738
 C928 C 0.05606 0.64934 0.57767
 C929 C -0.00270 0.65692 0.54364
 C930 C -0.00909 0.68998 0.56401
 N931 N 0.01567 0.70127 0.59140
 H932 H 0.04692 0.77293 0.55868
 H933 H -0.05850 0.79952 0.60774
 H934 H -0.06308 0.85693 0.56822
 H935 H 0.04498 0.83039 0.51842
 H936 H 0.06853 0.69244 0.61816
 H937 H 0.08156 0.63379 0.58415
 H938 H -0.02406 0.64738 0.52398
 H939 H -0.03467 0.70588 0.55922
 C940 C 0.10534 0.77392 0.69921
 C941 C -0.10613 0.72431 0.69574
 C942 C 0.02990 0.63564 0.55117
 C943 C -0.00851 0.84899 0.54117
 C944 C 0.57526 0.79032 0.32811
 H945 H 0.56860 0.81435 0.34552
 C946 C 0.60446 0.79263 0.30150
 H947 H 0.61987 0.81846 0.29899
 C948 C 0.56431 0.72746 0.31101
 H949 H 0.54825 0.70222 0.31481
 C950 C 0.59408 0.72832 0.28439
 H951 H 0.60077 0.70357 0.26789
 N952 N 0.55555 0.75824 0.33228
 C953 C 0.43825 0.76021 0.36433
 H954 H 0.44183 0.76518 0.39497
 C955 C 0.40250 0.75791 0.34885
 H956 H 0.37851 0.76086 0.36788
 C957 C 0.46538 0.74972 0.30259
 H958 H 0.49014 0.74653 0.28484
 C959 C 0.42973 0.74762 0.28563
 H960 H 0.42719 0.74202 0.25498
 Zn961 Zn 0.51492 0.75800 0.36818
 N962 N 0.46880 0.75509 0.34148
 C963 C 0.50119 0.83334 0.37247
 N964 N 0.51281 0.80405 0.39488
 C965 C 0.52027 0.80837 0.43331
 C966 C 0.51690 0.84376 0.45030
 C967 C 0.49745 0.86877 0.38808
 C968 C 0.49096 0.69224 0.40656
 C969 C 0.49319 0.66189 0.43217
 C970 C 0.55472 0.68208 0.45119
 C971 C 0.55108 0.71252 0.42552
 N972 N 0.51952 0.71703 0.40376
 H973 H 0.49497 0.82907 0.34217
 H974 H 0.52891 0.78456 0.45078
 H975 H 0.52357 0.84684 0.48066
 H976 H 0.48843 0.89166 0.36937
 H977 H 0.46658 0.69529 0.38831
 H978 H 0.47060 0.64198 0.43249
 H979 H 0.58046 0.67821 0.46745
 H980 H 0.57368 0.73222 0.42244
 C981 C 0.39787 0.75111 0.30925
 C982 C 0.61454 0.76141 0.27950
 C983 C 0.52544 0.65641 0.45492
 C984 C 0.50536 0.87452 0.42736
 B985 B -0.01741 0.01927 1.04761
 B986 B -0.04669 0.00911 1.01130
 B987 B -0.01335 0.04119 1.00473
 B988 B 0.02556 0.02751 1.02919
 B989 B 0.01565 -0.01440 1.05081
 B990 B -0.02970 -0.02549 1.03994
 B991 B 0.01016 -0.02320 0.97274
 B992 B 0.03936 -0.01293 1.00885
 B993 B 0.00601 -0.04508 1.01546
 B994 B -0.03288 -0.03140 0.99102
 B995 B -0.02279 0.01033 0.96937
 B996 B 0.02231 0.02161 0.98031
 B997 B 0.49651 0.53149 0.53544
 B998 B 0.47106 0.52768 0.49489
 B999 B 0.50804 0.55609 0.49574
 B1000 B 0.54213 0.53628 0.52313
 B1001 B 0.52563 0.49411 0.53905
 B1002 B 0.48093 0.48940 0.52189
 B1003 B 0.52825 0.49243 0.46021
 B1004 B 0.55410 0.49653 0.50035
 B1005 B 0.51715 0.46787 0.49988
 B1006 B 0.48289 0.48780 0.47246
 B1007 B 0.49960 0.52986 0.45646
 B1008 B 0.54401 0.53464 0.47356
 B1009 B 0.50993 0.98850 0.53046
 B1010 B 0.53463 0.99819 0.49019
 B1011 B 0.49893 0.96800 0.48831
 B1012 B 0.46458 0.98273 0.51833
 B1013 B 0.47932 1.02365 0.53841
 B1014 B 0.52327 1.03274 0.52112
 B1015 B 0.47470 1.03423 0.46022
 B1016 B 0.45015 1.02411 0.50025
 B1017 B 0.48540 1.05459 0.50197
 B1018 B 0.52012 1.04000 0.47222
 B1019 B 0.50542 0.99943 0.45212
 B1020 B 0.46155 0.98995 0.46939
 B1021 B 0.02357 0.48245 1.02690
 B1022 B 0.04601 0.48488 0.98424
 B1023 B 0.01028 0.45548 0.99025
 B1024 B -0.02251 0.47581 1.01874
 B1025 B -0.00618 0.51910 1.02999
 B1026 B 0.03688 0.52435 1.00890
 B1027 B -0.01481 0.51631 0.95143
 B1028 B -0.03732 0.51398 0.99388
 B1029 B -0.00154 0.54344 0.98825
 B1030 B 0.03118 0.52305 0.95968
 B1031 B 0.01475 0.47981 0.94833
 B1032 B -0.02795 0.47447 0.96965
 B1033 B 0.02283 0.51283 0.46343
 B1034 B 0.04945 0.50741 0.50334
 B1035 B 0.01320 0.53781 0.50334
 B1036 B -0.02217 0.51994 0.47709
 B1037 B -0.00730 0.47707 0.46131
 B1038 B 0.03763 0.46986 0.47725
 B1039 B -0.00808 0.47505 0.54016
 B1040 B -0.03472 0.48079 0.50069
 B1041 B 0.00129 0.45030 0.50064
 B1042 B 0.03678 0.46795 0.52674
 B1043 B 0.02191 0.51061 0.54269
 B1044 B -0.02283 0.51822 0.52663
 B1045 B 0.51335 0.02007 -0.03664
 B1046 B 0.54023 0.01184 0.00256
 B1047 B 0.50431 0.04255 0.00499
 B1048 B 0.46858 0.02681 -0.02213
 B1049 B 0.48278 -0.01512 -0.04094
 B1050 B 0.52771 -0.02390 -0.02591
 B1051 B 0.48253 -0.02214 0.03763
 B1052 B 0.45571 -0.01350 -0.00120
 B1053 B 0.49128 -0.04439 -0.00354
 B1054 B 0.52724 -0.02886 0.02337
 B1055 B 0.51302 0.01278 0.04237
 B1056 B 0.46825 0.02194 0.02725
 B1057 B 0.48344 0.47714 -0.04181
 B1058 B 0.46223 0.48459 0.00088
 B1059 B 0.49832 0.45419 -0.00187
 B1060 B 0.52979 0.47055 -0.03413
 B1061 B 0.51266 0.51231 -0.05103
 B1062 B 0.47030 0.52080 -0.02937
 B1063 B 0.52393 0.51859 0.02676
 B1064 B 0.54513 0.51095 -0.01578
 B1065 B 0.50904 0.54140 -0.01310
 B1066 B 0.47757 0.52506 0.01927
 B1067 B 0.49481 0.48325 0.03629
 B1068 B 0.53706 0.47480 0.01453
 B1069 B -0.02542 0.97728 0.48436
 B1070 B -0.05041 0.98800 0.52408
 B1071 B -0.01386 0.95836 0.52752
 B1072 B 0.02013 0.97243 0.49685
 B1073 B 0.00395 1.01229 0.47463
 B1074 B -0.04041 1.02142 0.49148
 B1075 B 0.00836 1.02565 0.55195
 B1076 B 0.03315 1.01474 0.51240
 B1077 B -0.00372 1.04447 0.50905
 B1078 B -0.03738 1.03027 0.53992
 B1079 B -0.02110 0.99052 0.56222
 B1080 B 0.02304 0.98117 0.54530
 B1081 B 0.77622 0.23361 0.21192
 B1082 B 0.76845 0.21278 0.25486
 B1083 B 0.79847 0.24852 0.25167
 B1084 B 0.78195 0.27992 0.21894
 B1085 B 0.74056 0.26310 0.20213
 B1086 B 0.73243 0.22100 0.22435
 B1087 B 0.73315 0.27449 0.27998
 B1088 B 0.74097 0.29559 0.23717
 B1089 B 0.71098 0.25986 0.24017
 B1090 B 0.72747 0.22836 0.27279
 B1091 B 0.76885 0.24524 0.28963
 B1092 B 0.77692 0.28730 0.26754
 B1093 B 0.73274 0.76583 0.71106
 B1094 B 0.73907 0.79298 0.74978
 B1095 B 0.71030 0.75606 0.75261
 B1096 B 0.72837 0.72103 0.72595
 B1097 B 0.76967 0.73658 0.70691
 B1098 B 0.77594 0.78160 0.72158
 B1099 B 0.77594 0.73656 0.78568
 B1100 B 0.76929 0.70947 0.74703
 B1101 B 0.79828 0.74600 0.74425
 B1102 B 0.78024 0.78132 0.77083
 B1103 B 0.73902 0.76585 0.78990
 B1104 B 0.73270 0.72083 0.77529
 B1105 B 0.25601 0.27578 0.78339
 B1106 B 0.24788 0.30267 0.74407
 B1107 B 0.27701 0.26545 0.74109
 B1108 B 0.26038 0.23070 0.76946
 B1109 B 0.21969 0.24685 0.78977
 B1110 B 0.21221 0.29190 0.77417
 B1111 B 0.21028 0.24663 0.71131
 B1112 B 0.21869 0.21951 0.75033
 B1113 B 0.18942 0.25642 0.75342
 B1114 B 0.20594 0.29145 0.72521
 B1115 B 0.24650 0.27538 0.70493
 B1116 B 0.25404 0.23038 0.72036
 B1117 B 0.23819 0.72006 0.28165
 B1118 B 0.24739 0.69655 0.24076
 B1119 B 0.21570 0.73157 0.24022
 B1120 B 0.23025 0.76543 0.27019
 B1121 B 0.27233 0.75100 0.28885
 B1122 B 0.28257 0.70763 0.27070
 B1123 B 0.28019 0.75759 0.21044
 B1124 B 0.27069 0.78105 0.25135
 B1125 B 0.30258 0.74590 0.25160
 B1126 B 0.28791 0.71203 0.22179
 B1127 B 0.24613 0.72669 0.20296
 B1128 B 0.23551 0.76974 0.22114
 B1129 B 0.26710 0.73949 0.71867
 B1130 B 0.26122 0.71429 0.75949
 B1131 B 0.29033 0.75090 0.75919
 B1132 B 0.27201 0.78486 0.73045
 B1133 B 0.23037 0.76886 0.71333
 B1134 B 0.22405 0.72460 0.73118
 B1135 B 0.22536 0.77248 0.79213
 B1136 B 0.23136 0.79777 0.75143
 B1137 B 0.20222 0.76112 0.75173
 B1138 B 0.22052 0.72712 0.78042
 B1139 B 0.26203 0.74321 0.79763
 B1140 B 0.26846 0.78740 0.77973
 B1141 B 0.23473 0.25411 0.21604
 B1142 B 0.24245 0.27903 0.25621
 B1143 B 0.21170 0.24376 0.25729
 B1144 B 0.22781 0.20903 0.22884
 B1145 B 0.27008 0.22301 0.21066
 B1146 B 0.27869 0.26693 0.22738
 B1147 B 0.27607 0.21925 0.28936
 B1148 B 0.26801 0.19437 0.24943
 B1149 B 0.29900 0.22915 0.24852
 B1150 B 0.28302 0.26430 0.27665
 B1151 B 0.24103 0.25033 0.29495
 B1152 B 0.23227 0.20643 0.27811
 B1153 B 0.77729 0.76664 0.28121
 B1154 B 0.77086 0.79497 0.24258
 B1155 B 0.80298 0.76011 0.24074
 B1156 B 0.78635 0.72275 0.26550
 B1157 B 0.74271 0.73503 0.28191
 B1158 B 0.73366 0.78023 0.26807
 B1159 B 0.74117 0.73829 0.20309
 B1160 B 0.74766 0.70996 0.24136
 B1161 B 0.71567 0.74452 0.24313
 B1162 B 0.73213 0.78194 0.21860
 B1163 B 0.77562 0.76987 0.20211
 B1164 B 0.78482 0.72464 0.21596
 B1165 B 0.71704 0.23243 0.78539
 B1166 B 0.72488 0.20395 0.74806
 B1167 B 0.69392 0.23946 0.74373
 B1168 B 0.71014 0.27639 0.76837
 B1169 B 0.75211 0.26307 0.78778
 B1170 B 0.76099 0.21772 0.77537
 B1171 B 0.75837 0.25954 0.70900
 B1172 B 0.75060 0.28825 0.74644
 B1173 B 0.78141 0.25254 0.75094
 B1174 B 0.76514 0.21565 0.72615
 B1175 B 0.72288 0.22902 0.70673
 B1176 B 0.71445 0.27452 0.71904
 C1177 C 0.46846 1.04949 0.38859
 C1178 C 0.45485 1.05397 0.42441
 H1179 H 0.49825 1.04492 0.38434
 H1180 H 0.42527 1.06013 0.42758
 C1181 C -0.06746 0.51515 0.90170
 C1182 C -0.03465 0.53028 0.91241
 H1183 H -0.08190 0.49791 0.92278
 H1184 H -0.01846 0.54736 0.89276
 C1185 C 0.01468 -0.02995 0.89988
 C1186 C 0.02650 -0.04169 0.93485
 H1187 H -0.01286 -0.01711 0.89713
 H1188 H 0.05295 -0.05649 0.93776
 C1189 C 0.53212 0.48419 0.38724
 C1190 C 0.54547 0.47474 0.42237
 H1191 H 0.50466 0.49731 0.38502
 H1192 H 0.57185 0.45992 0.42543
 C1193 C 0.53273 0.53890 0.09699
 C1194 C 0.54660 0.53613 0.06114
 H1195 H 0.50274 0.53845 0.10186
 H1196 H 0.57667 0.53720 0.05747
 C1197 C 0.01620 1.04528 0.62219
 C1198 C 0.02843 1.04716 0.58563
 H1199 H -0.01289 1.03915 0.62828
 H1200 H 0.05754 1.05399 0.58079
 C1201 C -0.01781 0.47194 0.61300
 C1202 C -0.02559 0.45778 0.57816
 H1203 H 0.00717 0.48844 0.61682
 H1204 H -0.04929 0.43957 0.57458
 C1205 C 0.47803 -0.03479 0.11021
 C1206 C 0.46541 -0.04199 0.07451
 H1207 H 0.50497 -0.02149 0.11348
 H1208 H 0.43963 -0.05694 0.07037
 C1209 C 0.40761 0.43871 -0.00174
 C1210 C 0.42047 0.47187 0.00966
 H1211 H 0.42581 0.42022 -0.01789
 H1212 H 0.40289 0.49028 0.02667
 C1213 C -0.10407 0.94127 0.51936
 C1214 C -0.09278 0.97548 0.52912
 H1215 H -0.08368 0.92116 0.50911
 H1216 H -0.11271 0.99590 0.53983
 C1217 C -0.10811 0.03783 0.98454
 C1218 C -0.08961 0.02090 1.01396
 H1219 H -0.09366 0.04067 0.95711
 H1220 H -0.10237 0.01704 1.04203
 C1221 C 0.39994 0.53327 0.50855
 C1222 C 0.43050 0.54521 0.48986
 H1223 H 0.40259 0.51039 0.52925
 H1224 H 0.42859 0.56905 0.47047
 C1225 C 0.10343 0.55349 0.49443
 C1226 C 0.09185 0.51997 0.50672
 H1227 H 0.08395 0.57192 0.47947
 H1228 H 0.11070 0.50175 0.52287
 C1229 C 0.59465 0.05798 -0.00359
 C1230 C 0.58290 0.02369 0.00592
 H1231 H 0.57502 0.07805 -0.01581
 H1232 H 0.60218 0.00375 0.01909
 C1233 C 0.58863 0.95030 0.49381
 C1234 C 0.57715 0.98503 0.48428
 H1235 H 0.56865 0.93163 0.50684
 H1236 H 0.59633 1.00478 0.47148
 C1237 C 0.11638 0.47586 0.99947
 C1238 C 0.08653 0.46793 0.97766
 H1239 H 0.11348 0.49654 1.02205
 H1240 H 0.08831 0.44639 0.95602
 C1241 C 0.02253 0.38380 0.48616
 C1242 C -0.00553 0.40694 0.49637
 H1243 H 0.05107 0.39369 0.48806
 H1244 H -0.03431 0.39834 0.49385
 C1245 C 0.51112 -0.11098 -0.02011
 C1246 C 0.48359 -0.08732 -0.00991
 H1247 H 0.53997 -0.10226 -0.01722
 H1248 H 0.45473 -0.09604 -0.01086
 C1249 C 0.01977 -0.10255 1.05788
 C1250 C 0.01384 -0.08857 1.02205
 H1251 H 0.02307 -0.08324 1.08159
 H1252 H 0.01101 -0.10681 0.99747
 C1253 C 0.49172 0.40330 0.51564
 C1254 C 0.52158 0.42382 0.50578
 H1255 H 0.46400 0.41549 0.51173
 H1256 H 0.54950 0.41268 0.51034
 C1257 C 0.50500 1.11987 0.52258
 C1258 C 0.47757 1.09724 0.51103
 H1259 H 0.53392 1.11075 0.51952
 H1260 H 0.44864 1.10644 0.51226
 C1261 C -0.02758 0.60363 1.01787
 C1262 C -0.00548 0.58777 0.99084
 H1263 H -0.04831 0.58650 1.03217
 H1264 H 0.01536 0.60402 0.97570
 C1265 C 0.52542 0.59765 -0.05522
 C1266 C 0.51215 0.58502 -0.02118
 H1267 H 0.53729 0.57808 -0.07573
 H1268 H 0.49886 0.60400 -0.00103
 C1269 C -0.00749 1.09816 0.46051
 C1270 C -0.00143 1.08746 0.49752
 H1271 H -0.01447 1.07668 0.43986
 H1272 H 0.00475 1.10723 0.52002
 C1273 C 0.78421 0.73001 0.85865
 C1274 C 0.79574 0.71984 0.82329
 H1275 H 0.76804 0.75568 0.86136
 H1276 H 0.81246 0.69483 0.81965
 C1277 C 0.29008 0.21539 0.36159
 C1278 C 0.29354 0.19984 0.32665
 H1279 H 0.28601 0.24533 0.36409
 H1280 H 0.29883 0.17006 0.32522
 C1281 C 0.71537 0.27948 0.35098
 C1282 C 0.71524 0.29562 0.31575
 H1283 H 0.72021 0.24957 0.35352
 H1284 H 0.71313 0.32576 0.31351
 C1285 C 0.21483 0.77727 0.86518
 C1286 C 0.20736 0.79067 0.82950
 H1287 H 0.22458 0.74864 0.86880
 H1288 H 0.19613 0.81866 0.82634
 C1289 C 0.29292 0.81017 0.16156
 C1290 C 0.29795 0.77420 0.17183
 H1291 H 0.28625 0.82986 0.18400
 H1292 H 0.30664 0.75377 0.15073
 C1293 C 0.76144 0.26679 0.63539
 C1294 C 0.77674 0.27456 0.66997
 H1295 H 0.74095 0.24470 0.63429
 H1296 H 0.79799 0.29544 0.67253
 C1297 C 0.20145 0.24035 0.63865
 C1298 C 0.19006 0.23042 0.67432
 H1299 H 0.21511 0.26698 0.63439
 H1300 H 0.17389 0.20536 0.67831
 C1301 C 0.74585 0.72546 0.13128
 C1302 C 0.72547 0.72197 0.16389
 H1303 H 0.76824 0.74566 0.13101
 H1304 H 0.70257 0.70263 0.16622
 C1305 C 0.20237 0.64165 0.24587
 C1306 C 0.23599 0.65412 0.23494
 H1307 H 0.18293 0.66047 0.25996
 H1308 H 0.25540 0.63580 0.22001
 C1309 C 0.69363 0.14407 0.72359
 C1310 C 0.71314 0.16158 0.75111
 H1311 H 0.68616 0.15989 0.69768
 H1312 H 0.72080 0.14778 0.77793
 C1313 C 0.81500 0.15778 0.25546
 C1314 C 0.78114 0.17121 0.26498
 H1315 H 0.83408 0.17555 0.23962
 H1316 H 0.76187 0.15429 0.28156
 C1317 C 0.30864 0.65985 0.75402
 C1318 C 0.27441 0.67191 0.76413
 H1319 H 0.32850 0.67960 0.74246
 H1320 H 0.25451 0.65263 0.77657
 C1321 C 0.29740 0.35437 0.74663
 C1322 C 0.26184 0.34466 0.73931
 H1323 H 0.31605 0.33309 0.75821
 H1324 H 0.24168 0.36475 0.72812
 C1325 C 0.81361 0.85052 0.25577
 C1326 C 0.78129 0.83805 0.24158
 H1327 H 0.83279 0.83116 0.26975
 H1328 H 0.76239 0.85705 0.22648
 C1329 C 0.68970 0.84600 0.74411
 C1330 C 0.72515 0.83551 0.75194
 H1331 H 0.67075 0.82497 0.73404
 H1332 H 0.74506 0.85540 0.76274
 C1333 C 0.19588 0.33407 0.25062
 C1334 C 0.23023 0.32179 0.26048
 H1335 H 0.17655 0.31445 0.23858
 H1336 H 0.25073 0.34072 0.27192
 C1337 C 0.13254 0.23332 0.79147
 C1338 C 0.14568 0.25350 0.76149
 H1339 H 0.15150 0.21461 0.80683
 H1340 H 0.12717 0.27183 0.74507
 C1341 C 0.64802 0.76461 0.25432
 C1342 C 0.67229 0.73636 0.24830
 H1343 H 0.65686 0.79282 0.24745
 H1344 H 0.66478 0.70816 0.25641
 C1345 C 0.65448 0.27806 0.19892
 C1346 C 0.66732 0.26311 0.23226
 H1347 H 0.67388 0.29186 0.17948
 H1348 H 0.64880 0.24787 0.25139
 C1349 C 0.14308 0.78092 0.71510
 C1350 C 0.15818 0.76292 0.74572
 H1351 H 0.16036 0.79989 0.69839
 H1352 H 0.14131 0.74466 0.76358
 C1353 C 0.85793 0.72026 0.71216
 C1354 C 0.84232 0.74345 0.73815
 H1355 H 0.84074 0.69820 0.70081
 H1356 H 0.85850 0.76495 0.75183
 C1357 C 0.36603 0.24872 0.23448
 C1358 C 0.34208 0.22090 0.24150
 H1359 H 0.35735 0.27714 0.24095
 H1360 H 0.35040 0.19220 0.23669
 C1361 C 0.35946 0.74452 0.29559
 C1362 C 0.34607 0.75138 0.25975
 H1363 H 0.34044 0.73492 0.31796
 H1364 H 0.36393 0.76216 0.23701
 C1365 C 0.83788 0.27392 0.78956
 C1366 C 0.82531 0.25611 0.75816
 H1367 H 0.81858 0.29071 0.80648
 H1368 H 0.84398 0.23786 0.74217
 C1369 C 0.51442 0.97210 0.60253
 C1370 C 0.52939 0.96941 0.56696
 H1371 H 0.48501 0.97957 0.60515
 H1372 H 0.55888 0.96361 0.56392
 C1373 C 0.03223 0.47844 1.10025
 C1374 C 0.04408 0.46776 1.06491
 H1375 H 0.00400 0.48986 1.10228
 H1376 H 0.07048 0.45343 1.06074
 C1377 C -0.02010 0.02592 1.12099
 C1378 C -0.03309 0.03750 1.08615
 H1379 H 0.00732 0.01259 1.12204
 H1380 H -0.05905 0.05304 1.08334
 C1381 C 0.48677 0.53270 0.60830
 C1382 C 0.47758 0.54744 0.57357
 H1383 H 0.51302 0.51742 0.61123
 H1384 H 0.45115 0.56208 0.56977
 C1385 C 0.47531 0.46358 -0.11359
 C1386 C 0.46140 0.46084 -0.07755
 H1387 H 0.50516 0.46783 -0.11708
 H1388 H 0.43165 0.45808 -0.07343
 C1389 C -0.02605 0.95919 0.41341
 C1390 C -0.04337 0.95753 0.44794
 H1391 H 0.00384 0.96419 0.41257
 H1392 H -0.07345 0.95454 0.44861
 C1393 C 0.02632 0.51718 0.38957
 C1394 C 0.04006 0.52796 0.42391
 H1395 H -0.00103 0.50441 0.38855
 H1396 H 0.06802 0.53898 0.42522
 C1397 C 0.51458 0.02998 -0.10983
 C1398 C 0.53015 0.03749 -0.07538
 H1399 H 0.48642 0.01903 -0.11080
 H1400 H 0.55897 0.04640 -0.07450
 C1401 C 0.59978 0.55679 -0.01413
 C1402 C 0.58717 0.52307 -0.02384
 H1403 H 0.58088 0.57685 -0.00119
 H1404 H 0.60586 0.50294 -0.03719
 C1405 C 0.08707 1.06186 0.50705
 C1406 C 0.07568 1.02637 0.50614
 H1407 H 0.06709 1.08391 0.51246
 H1408 H 0.09568 1.00419 0.50025
 C1409 C 0.10042 -0.04630 1.03017
 C1410 C 0.08241 -0.02345 1.00511
 H1411 H 0.08497 -0.05613 1.05524
 H1412 H 0.09602 -0.01263 0.97951
 C1413 C 0.61161 0.45835 0.52464
 C1414 C 0.59633 0.48284 0.49940
 H1415 H 0.59421 0.44840 0.54828
 H1416 H 0.61193 0.49319 0.47486
 C1417 C -0.09380 0.44878 0.47413
 C1418 C -0.07706 0.46808 0.50220
 H1419 H -0.07792 0.44196 0.44832
 H1420 H -0.09172 0.47417 0.52881
 C1421 C 0.39720 -0.04455 -0.02940
 C1422 C 0.41318 -0.02525 -0.00094
 H1423 H 0.41377 -0.05279 -0.05428
 H1424 H 0.39739 -0.01880 0.02499
 C1425 C 0.39134 1.05238 0.53323
 C1426 C 0.40747 1.03593 0.50266
 H1427 H 0.40821 1.05839 0.55848
 H1428 H 0.39144 1.03112 0.47669
 C1429 C -0.10406 0.52359 1.02214
 C1430 C -0.07858 0.53006 0.99470
 H1431 H -0.09684 0.50785 1.04811
 H1432 H -0.08609 0.54881 0.97101
 C1433 C 0.03507 0.59698 0.53705
 C1434 C 0.01615 0.58186 0.50751
 H1435 H 0.05356 0.57922 0.55426
 H1436 H -0.00167 0.59902 0.48910
 C1437 C 0.52501 0.09914 0.04364
 C1438 C 0.50759 0.08623 0.01202
 H1439 H 0.54154 0.07973 0.06107
 H1440 H 0.49019 0.10448 -0.00567
 C1441 C -0.03302 0.09679 0.96194
 C1442 C -0.02123 0.08467 0.99700
 H1443 H -0.04132 0.07626 0.94094
 H1444 H -0.01201 0.10409 1.01868
 C1445 C 0.53144 0.62133 0.47744
 C1446 C 0.50324 0.60001 0.49050
 H1447 H 0.55996 0.61068 0.47897
 H1448 H 0.47501 0.61127 0.49090
 C1449 C 0.50198 0.91330 0.44154
 C1450 C 0.50347 0.92466 0.47858
 H1451 H 0.49716 0.93409 0.41901
 H1452 H 0.50701 0.90488 0.50221
 C1453 C -0.01336 0.38893 0.98442
 C1454 C 0.01620 0.41140 0.98784
 H1455 H -0.04105 0.40006 0.99082
 H1456 H 0.04368 0.40114 0.97966
 C1457 C 0.47751 0.39678 0.03664
 C1458 C 0.49519 0.41048 0.00532
 H1459 H 0.46192 0.41584 0.05497
 H1460 H 0.51016 0.39217 -0.01419
 C1461 C -0.00620 0.88652 0.52280
 C1462 C -0.01958 0.91665 0.54098
 H1463 H 0.01013 0.88991 0.49655
 H1464 H -0.03374 0.91330 0.56854
 C1465 C 0.22577 0.26057 0.14279
 C1466 C 0.21738 0.27327 0.17825
 H1467 H 0.23821 0.23297 0.13993
 H1468 H 0.20693 0.30153 0.18104
 C1469 C 0.72475 0.77076 0.63790
 C1470 C 0.71364 0.78211 0.67304
 H1471 H 0.73996 0.74450 0.63540
 H1472 H 0.69693 0.80718 0.67588
 C1473 C 0.27536 0.73444 0.64530
 C1474 C 0.28464 0.72141 0.68073
 H1475 H 0.26167 0.76152 0.64256
 H1476 H 0.29653 0.69364 0.68357
 C1477 C 0.79253 0.22358 0.14074
 C1478 C 0.79330 0.21047 0.17720
 H1479 H 0.79115 0.25343 0.13515
 H1480 H 0.79498 0.18049 0.18154
 C1481 C 0.71216 0.22808 0.85883
 C1482 C 0.69970 0.21632 0.82435
 H1483 H 0.72520 0.25522 0.86055
 H1484 H 0.68479 0.19029 0.82236
 C1485 C 0.22534 0.71553 0.35434
 C1486 C 0.22198 0.69990 0.31923
 H1487 H 0.23022 0.74534 0.35574
 H1488 H 0.21814 0.67018 0.31705
 C1489 C 0.77500 0.77128 0.35498
 C1490 C 0.79099 0.78257 0.32167
 H1491 H 0.75927 0.74559 0.35558
 H1492 H 0.80545 0.80876 0.32127
 C1493 C 0.26905 0.27785 0.85608
 C1494 C 0.27521 0.29266 0.82074
 H1495 H 0.25837 0.24966 0.85808
 H1496 H 0.28492 0.32096 0.81798
 C1497 C 0.79647 0.34235 0.73696
 C1498 C 0.76206 0.33103 0.74642
 H1499 H 0.81728 0.32208 0.72813
 H1500 H 0.74147 0.35108 0.75660
 C1501 C 0.31078 0.83698 0.27335
 C1502 C 0.27953 0.82408 0.25659
 H1503 H 0.32900 0.81668 0.28738
 H1504 H 0.25897 0.84274 0.24376
 C1505 C 0.18445 0.85281 0.75665
 C1506 C 0.21862 0.84036 0.74694
 H1507 H 0.16410 0.83334 0.76780
 H1508 H 0.23878 0.85960 0.73484
 C1509 C 0.69491 0.35080 0.23980
 C1510 C 0.72840 0.33755 0.22882
 H1511 H 0.67522 0.33236 0.25383
 H1512 H 0.74798 0.35565 0.21404
 C1513 C 0.71930 0.64897 0.26735
 C1514 C 0.73562 0.66774 0.23826
 H1515 H 0.71586 0.66259 0.29506
 H1516 H 0.73825 0.65546 0.20991
 C1517 C 0.19907 0.15674 0.78246
 C1518 C 0.20483 0.17755 0.75054
 H1519 H 0.20302 0.16893 0.81076
 H1520 H 0.19957 0.16556 0.72251
 C1521 C 0.29669 0.13475 0.21933
 C1522 C 0.27940 0.15166 0.24887
 H1523 H 0.30350 0.15089 0.19357
 H1524 H 0.27373 0.13630 0.27528
 C1525 C 0.78728 0.64652 0.71597
 C1526 C 0.78297 0.66734 0.74770
 H1527 H 0.78311 0.65895 0.68750
 H1528 H 0.78873 0.65494 0.77579
 C1529 C 0.87201 0.74010 0.23016
 C1530 C 0.84623 0.76777 0.23322
 H1531 H 0.86455 0.71302 0.24213
 H1532 H 0.85186 0.79513 0.22172
 C1533 C 0.33326 0.27756 0.69688
 C1534 C 0.32090 0.26688 0.73209
 H1535 H 0.31330 0.28871 0.67603
 H1536 H 0.34001 0.25464 0.75311
 C1537 C 0.34895 0.73259 0.79757
 C1538 C 0.33448 0.74872 0.76548
 H1539 H 0.33057 0.71662 0.81626
 H1540 H 0.35171 0.76566 0.74664
 C1541 C 0.85443 0.23126 0.29380
 C1542 C 0.84217 0.24596 0.26014
 H1543 H 0.83495 0.21600 0.31193
 H1544 H 0.86060 0.26238 0.24202
 C1545 C 0.15413 0.23974 0.30009
 C1546 C 0.16785 0.24827 0.26492
 H1547 H 0.17297 0.22984 0.32269
 H1548 H 0.14921 0.25609 0.24138
 C1549 C 0.65074 0.77652 0.78817
 C1550 C 0.66624 0.75786 0.75856
 H1551 H 0.66828 0.79417 0.80574
 H1552 H 0.64914 0.74113 0.73972
 C1553 C 0.62730 0.26205 0.72822
 C1554 C 0.65038 0.23317 0.73701
 H1555 H 0.63720 0.29019 0.73286
 H1556 H 0.64119 0.20472 0.73394
 C1557 C 0.16045 0.71101 0.19868
 C1558 C 0.17212 0.72678 0.23170
 H1559 H 0.18088 0.69800 0.17975
 H1560 H 0.15238 0.74125 0.25022
   
