data_POSCAR
  _audit_creation_date              2014-09-24
  _audit_creation_method            'ToBaCCo'
  _symmetry_space_group_name_H-M    'P1'
  _symmetry_Int_Tables_number       1
  _symmetry_cell_setting            triclinic
  loop_
  _symmetry_equiv_pos_as_xyz
 x,y,z
_cell_length_a 57.8107
_cell_length_b 57.8536
_cell_length_c 57.8438
_cell_angle_alpha 89.999000
_cell_angle_beta 89.988100
_cell_angle_gamma 89.998300
loop_
  _atom_site_label
  _atom_site_type_symbol
  _atom_site_fract_x
  _atom_site_fract_y
  _atom_site_fract_z
C1 C 0.23466 1.06912 -0.01176
 C2 C 0.23475 1.06929 0.01193
 C3 C 0.24466 1.04858 0.01895
 N4 N 0.25019 1.03560 0.00030
 C5 C 0.24416 1.04820 -0.01844
 C6 C 0.24927 1.04214 0.04215
 C7 C 0.25396 1.01878 0.04807
 C8 C 0.26482 1.01148 0.06822
 C9 C 0.26462 0.98773 0.06798
 C10 C 0.25404 0.98115 0.04754
 N11 N 0.24774 1.00011 0.03540
 C12 C 0.24889 0.95815 0.04132
 C13 C 0.24433 0.95161 0.01831
 C14 C 0.23490 0.93066 0.01164
 C15 C 0.23500 0.93049 -0.01206
 C16 C 0.24484 0.95123 -0.01907
 N17 N 0.25033 0.96423 -0.00043
 C18 C 0.24945 0.95769 -0.04227
 C19 C 0.25406 0.98106 -0.04819
 C20 C 0.26489 0.98840 -0.06834
 C21 C 0.26461 1.01215 -0.06811
 C22 C 0.25399 1.01869 -0.04766
 N23 N 0.24776 0.99971 -0.03552
 C24 C 0.24876 1.04167 -0.04145
 H25 H 0.22827 1.08280 -0.02282
 H26 H 0.22817 1.08307 0.02273
 H27 H 0.23750 0.99957 -0.02071
 H28 H 0.27210 1.02214 0.08176
 H29 H 0.27146 0.97657 0.08135
 H30 H 0.22856 0.91696 0.02270
 H31 H 0.22847 0.91669 -0.02286
 H32 H 0.27142 1.02334 -0.08147
 H33 H 0.23749 1.00021 0.02059
 H34 H 0.27222 0.97777 -0.08188
 C35 C 0.76139 0.48767 0.57064
 C36 C 0.76163 0.51138 0.57075
 C37 C 0.75481 0.51840 0.54888
 N38 N 0.75039 0.49981 0.53544
 C39 C 0.75447 0.48101 0.54869
 C40 C 0.75139 0.54158 0.54206
 C41 C 0.74727 0.54821 0.51890
 C42 C 0.73887 0.56962 0.51212
 C43 C 0.73869 0.56972 0.48835
 C44 C 0.74701 0.54838 0.48126
 N45 N 0.75223 0.53539 0.49999
 C46 C 0.75086 0.54199 0.45798
 C47 C 0.75459 0.51893 0.45092
 C48 C 0.76151 0.51224 0.42898
 C49 C 0.76166 0.48853 0.42886
 C50 C 0.75480 0.48154 0.45074
 N51 N 0.75042 0.50014 0.46417
 C52 C 0.75129 0.45836 0.45755
 C53 C 0.74711 0.45175 0.48070
 C54 C 0.73864 0.43038 0.48748
 C55 C 0.73843 0.43028 0.51124
 C56 C 0.74682 0.45158 0.51835
 N57 N 0.75211 0.46456 0.49962
 C58 C 0.75068 0.45796 0.54163
 H59 H 0.76574 0.47662 0.58509
 H60 H 0.76618 0.52221 0.58532
 H61 H 0.76110 0.48011 0.49975
 H62 H 0.73355 0.58377 0.52315
 H63 H 0.73321 0.58397 0.47754
 H64 H 0.76591 0.52328 0.41453
 H65 H 0.76619 0.47769 0.41430
 H66 H 0.73289 0.41605 0.52206
 H67 H 0.76117 0.51980 0.49986
 H68 H 0.73327 0.41625 0.47644
 C69 C 0.73610 0.93084 0.98758
 C70 C 0.73578 0.93058 1.01128
 C71 C 0.74566 0.95122 1.01854
 N72 N 0.75153 0.96426 1.00004
 C73 C 0.74574 0.95177 0.98116
 C74 C 0.74995 0.95755 1.04184
 C75 C 0.75495 0.98081 1.04786
 C76 C 0.76582 0.98787 1.06809
 C77 C 0.76602 1.01162 1.06792
 C78 C 0.75559 1.01844 1.04747
 N79 N 0.74906 0.99961 1.03523
 C80 C 0.75072 1.04154 1.04137
 C81 C 0.74594 1.04821 1.01844
 C82 C 0.73642 1.06919 1.01199
 C83 C 0.73617 1.06945 0.98830
 C84 C 0.74597 1.04877 0.98106
 N85 N 0.75171 1.03570 0.99957
 C86 C 0.75029 1.04241 0.95777
 C87 C 0.75519 1.01912 0.95176
 C88 C 0.76609 1.01201 0.93157
 C89 C 0.76616 0.98826 0.93174
 C90 C 0.75564 0.98149 0.95216
 N91 N 0.74917 1.00035 0.96438
 C92 C 0.75063 0.95842 0.95825
 H93 H 0.72983 0.91724 0.97636
 H94 H 0.72895 0.91678 1.02190
 H95 H 0.73890 1.00032 0.97918
 H96 H 0.77285 0.97704 1.08163
 H97 H 0.77297 1.02262 1.08136
 H98 H 0.73019 1.08282 1.02320
 H99 H 0.72944 1.08328 0.97766
 H100 H 0.77310 0.97722 0.91831
 H101 H 0.73884 0.99970 1.02040
 H102 H 0.77321 1.02280 0.91805
 C103 C 0.26159 0.51181 0.57083
 C104 C 0.26145 0.48810 0.57087
 C105 C 0.25461 0.48127 0.54894
 N106 N 0.25048 0.49997 0.53557
 C107 C 0.25480 0.51866 0.54890
 C108 C 0.25089 0.45816 0.54203
 C109 C 0.24708 0.45161 0.51879
 C110 C 0.23875 0.43024 0.51182
 C111 C 0.23895 0.43019 0.48806
 C112 C 0.24738 0.45154 0.48115
 N113 N 0.25235 0.46448 0.49998
 C114 C 0.25151 0.45803 0.45794
 C115 C 0.25498 0.48117 0.45100
 C116 C 0.26180 0.48804 0.42907
 C117 C 0.26159 0.51175 0.42904
 C118 C 0.25467 0.51856 0.45095
 N119 N 0.25057 0.49985 0.46432
 C120 C 0.25086 0.54166 0.45785
 C121 C 0.24698 0.54819 0.48108
 C122 C 0.23857 0.56954 0.48804
 C123 C 0.23872 0.56959 0.51180
 C124 C 0.24719 0.54826 0.51873
 N125 N 0.25224 0.53534 0.49990
 C126 C 0.25127 0.54179 0.54194
 H127 H 0.26606 0.52274 0.58534
 H128 H 0.26580 0.47715 0.58540
 H129 H 0.26123 0.51978 0.49989
 H130 H 0.23322 0.41607 0.52273
 H131 H 0.23361 0.41599 0.47711
 H132 H 0.26634 0.47712 0.41457
 H133 H 0.26594 0.52271 0.41451
 H134 H 0.23331 0.58378 0.52274
 H135 H 0.26129 0.48006 0.50001
 H136 H 0.23303 0.58370 0.47712
 C137 C 1.06810 0.23213 -0.01193
 C138 C 1.06829 0.23254 0.01174
 C139 C 1.04844 0.24416 0.01856
 N140 N 1.03597 0.25060 -0.00017
 C141 C 1.04818 0.24356 -0.01884
 C142 C 1.04229 0.24927 0.04171
 C143 C 1.01901 0.25427 0.04759
 C144 C 1.01173 0.26548 0.06754
 C145 C 0.98795 0.26492 0.06752
 C146 C 0.98139 0.25378 0.04737
 N147 N 1.00035 0.24756 0.03519
 C148 C 0.95846 0.24797 0.04146
 C149 C 0.95197 0.24283 0.01857
 C150 C 0.93125 0.23277 0.01207
 C151 C 0.93103 0.23263 -0.01164
 C152 C 0.95149 0.24298 -0.01878
 N153 N 0.96439 0.24895 -0.00025
 C154 C 0.95768 0.24796 -0.04194
 C155 C 0.98094 0.25323 -0.04776
 C156 C 0.98784 0.26557 -0.06715
 C157 C 1.01159 0.26573 -0.06713
 C158 C 1.01861 0.25350 -0.04774
 N159 N 0.99982 0.24633 -0.03574
 C160 C 1.04186 0.24826 -0.04201
 H161 H 1.08105 0.22411 -0.02281
 H162 H 1.08137 0.22487 0.02270
 H163 H 0.99996 0.23531 -0.02147
 H164 H 1.02241 0.27311 0.08087
 H165 H 0.97677 0.27182 0.08085
 H166 H 0.91773 0.22624 0.02324
 H167 H 0.91734 0.22572 -0.02236
 H168 H 1.02246 0.27399 -0.07993
 H169 H 1.00055 0.23700 0.02059
 H170 H 0.97690 0.27373 -0.07994
 C171 C 0.48809 0.75992 0.57076
 C172 C 0.51182 0.76010 0.57067
 C173 C 0.51864 0.75329 0.54873
 N174 N 0.49992 0.74891 0.53545
 C175 C 0.48122 0.75303 0.54886
 C176 C 0.54178 0.74984 0.54171
 C177 C 0.54822 0.74573 0.51849
 C178 C 0.56959 0.73735 0.51153
 C179 C 0.56952 0.73722 0.48776
 C180 C 0.54812 0.74555 0.48084
 N181 N 0.53525 0.75073 0.49968
 C182 C 0.54156 0.74947 0.45762
 C183 C 0.51842 0.75316 0.45075
 C184 C 0.51154 0.76008 0.42886
 C185 C 0.48781 0.76023 0.42895
 C186 C 0.48099 0.75337 0.45088
 N187 N 0.49973 0.74899 0.46415
 C188 C 0.45786 0.74989 0.45790
 C189 C 0.45143 0.74571 0.48111
 C190 C 0.43007 0.73728 0.48805
 C191 C 0.43014 0.73710 0.51182
 C192 C 0.45153 0.74544 0.51876
 N193 N 0.46439 0.75069 0.49993
 C194 C 0.45808 0.74933 0.54199
 H195 H 0.47716 0.76430 0.58530
 H196 H 0.52278 0.76464 0.58514
 H197 H 0.47997 0.75965 0.49993
 H198 H 0.58383 0.73201 0.52244
 H199 H 0.58370 0.73177 0.47682
 H200 H 0.52247 0.76450 0.41433
 H201 H 0.47684 0.76478 0.41449
 H202 H 0.41597 0.73160 0.52275
 H203 H 0.51966 0.75967 0.49970
 H204 H 0.41584 0.73195 0.47713
 C205 C -0.01166 0.76616 -0.06891
 C206 C 0.01202 0.76620 -0.06873
 C207 C 0.01875 0.75533 -0.04846
 N208 N -0.00006 0.74885 -0.03609
 C209 C -0.01869 0.75521 -0.04876
 C210 C 0.04194 0.75101 -0.04182
 C211 C 0.04770 0.74699 -0.01833
 C212 C 0.06785 0.73648 -0.01056
 C213 C 0.06755 0.73765 0.01315
 C214 C 0.04704 0.74844 0.01926
 N215 N 0.03493 0.75393 0.00001
 C216 C 0.04062 0.75408 0.04212
 C217 C 0.01754 0.75862 0.04855
 C218 C 0.01049 0.76611 0.07017
 C219 C -0.01323 0.76561 0.07009
 C220 C -0.01993 0.75813 0.04827
 N221 N -0.00102 0.75375 0.03524
 C222 C -0.04277 0.75237 0.04154
 C223 C -0.04839 0.74622 0.01844
 C224 C -0.06893 0.73595 0.01137
 C225 C -0.06856 0.73529 -0.01235
 C226 C -0.04815 0.74578 -0.01931
 N227 N -0.03581 0.75209 -0.00046
 C228 C -0.04198 0.75070 -0.04255
 H229 H -0.02246 0.77369 -0.08220
 H230 H 0.02303 0.77375 -0.08184
 H231 H -0.02110 0.76246 -0.00067
 H232 H 0.08145 0.72883 -0.02089
 H233 H 0.08088 0.73124 0.02461
 H234 H 0.02129 0.77075 0.08472
 H235 H -0.02412 0.76954 0.08477
 H236 H -0.08210 0.72830 -0.02322
 H237 H 0.02007 0.76410 -0.00067
 H238 H -0.08312 0.72997 0.02196
 C239 C 0.57080 0.24020 0.51237
 C240 C 0.57091 0.24000 0.48865
 C241 C 0.54902 0.24683 0.48165
 N242 N 0.53558 0.25123 0.50025
 C243 C 0.54883 0.24711 0.51905
 C244 C 0.54220 0.25026 0.45846
 C245 C 0.51903 0.25440 0.45184
 C246 C 0.51226 0.26280 0.43043
 C247 C 0.48848 0.26296 0.43031
 C248 C 0.48136 0.25463 0.45164
 N249 N 0.50010 0.24942 0.46465
 C250 C 0.45807 0.25072 0.45800
 C251 C 0.45100 0.24701 0.48107
 C252 C 0.42905 0.24006 0.48775
 C253 C 0.42893 0.23990 0.51147
 C254 C 0.45081 0.24677 0.51846
 N255 N 0.46424 0.25117 0.49986
 C256 C 0.45763 0.25025 0.54164
 C257 C 0.48079 0.25443 0.54826
 C258 C 0.48755 0.26287 0.56966
 C259 C 0.51133 0.26307 0.56978
 C260 C 0.51845 0.25471 0.54847
 N261 N 0.49973 0.24946 0.53546
 C262 C 0.54175 0.25083 0.54211
 H263 H 0.58525 0.23582 0.52342
 H264 H 0.58549 0.23545 0.47782
 H265 H 0.49987 0.24049 0.51989
 H266 H 0.52330 0.26813 0.41629
 H267 H 0.47766 0.26843 0.41605
 H268 H 0.41460 0.23565 0.47671
 H269 H 0.41437 0.23534 0.52231
 H270 H 0.52213 0.26857 0.58403
 H271 H 0.49998 0.24047 0.48023
 H272 H 0.47649 0.26820 0.58379
 C273 C 1.07070 -0.01092 0.23581
 C274 C 1.07061 0.01274 0.23649
 C275 C 1.04907 0.01935 0.24476
 N276 N 1.03627 0.00037 0.24971
 C277 C 1.04950 -0.01817 0.24439
 C278 C 1.04229 0.04235 0.24993
 C279 C 1.01905 0.04839 0.25507
 C280 C 1.01169 0.06977 0.26323
 C281 C 0.98793 0.06956 0.26290
 C282 C 0.98131 0.04821 0.25432
 N283 N 1.00033 0.03543 0.24962
 C284 C 0.95826 0.04177 0.24935
 C285 C 0.95155 0.01871 0.24506
 C286 C 0.92987 0.01186 0.23747
 C287 C 0.93000 -0.01185 0.23715
 C288 C 0.95178 -0.01863 0.24453
 N289 N 0.96490 0.00005 0.24939
 C290 C 0.95872 -0.04164 0.24845
 C291 C 0.98196 -0.04780 0.25278
 C292 C 0.98886 -0.06844 0.26275
 C293 C 1.01261 -0.06839 0.26281
 C294 C 1.01963 -0.04784 0.25254
 N295 N 1.00078 -0.03526 0.24668
 C296 C 1.04298 -0.04154 0.24818
 H297 H 1.08490 -0.02151 0.22981
 H298 H 1.08499 0.02364 0.23163
 H299 H 1.00074 -0.02019 0.23684
 H300 H 1.02218 0.08443 0.26816
 H301 H 0.97681 0.08379 0.26783
 H302 H 0.91540 0.02279 0.23283
 H303 H 0.91567 -0.02284 0.23225
 H304 H 1.02347 -0.08197 0.26971
 H305 H 1.00055 0.02006 0.24032
 H306 H 0.97792 -0.08209 0.26939
 C307 C 0.48772 0.57077 0.76151
 C308 C 0.51145 0.57082 0.76175
 C309 C 0.51842 0.54891 0.75500
 N310 N 0.49978 0.53551 0.75061
 C311 C 0.48100 0.54882 0.75465
 C312 C 0.54161 0.54204 0.75159
 C313 C 0.54821 0.51887 0.74751
 C314 C 0.56963 0.51205 0.73913
 C315 C 0.56971 0.48829 0.73899
 C316 C 0.54835 0.48123 0.74733
 N317 N 0.53536 0.49998 0.75251
 C318 C 0.54193 0.45796 0.75122
 C319 C 0.51883 0.45096 0.75495
 C320 C 0.51209 0.42904 0.76190
 C321 C 0.48836 0.42899 0.76210
 C322 C 0.48141 0.45087 0.75522
 N323 N 0.50006 0.46424 0.75081
 C324 C 0.45822 0.45773 0.75175
 C325 C 0.45163 0.48088 0.74752
 C326 C 0.43024 0.48765 0.73905
 C327 C 0.43016 0.51141 0.73878
 C328 C 0.45150 0.51852 0.74712
 N329 N 0.46447 0.49979 0.75244
 C330 C 0.45791 0.54180 0.75089
 H331 H 0.47669 0.58526 0.76582
 H332 H 0.52231 0.58537 0.76627
 H333 H 0.48005 0.49992 0.76140
 H334 H 0.58380 0.52305 0.73378
 H335 H 0.58396 0.47745 0.73353
 H336 H 0.52311 0.41457 0.76631
 H337 H 0.47749 0.41446 0.76666
 H338 H 0.41593 0.52222 0.73323
 H339 H 0.51976 0.49990 0.76144
 H340 H 0.41608 0.47662 0.73374
 C341 C 0.92982 0.98802 0.76234
 C342 C 0.92994 1.01173 0.76258
 C343 C 0.95173 1.01850 0.75525
 N344 N 0.96488 0.99982 0.75048
 C345 C 0.95154 0.98116 0.75483
 C346 C 0.95867 1.04150 0.75128
 C347 C 0.98192 1.04767 0.74699
 C348 C 0.98884 1.06828 0.73698
 C349 C 1.01259 1.06825 0.73699
 C350 C 1.01959 1.04773 0.74735
 N351 N 1.00072 1.03515 0.75318
 C352 C 1.04293 1.04148 0.75182
 C353 C 1.04946 1.01813 0.75566
 C354 C 1.07064 1.01090 0.76430
 C355 C 1.07058 0.98725 0.76367
 C356 C 1.04906 0.98060 0.75537
 N357 N 1.03626 0.99956 0.75035
 C358 C 1.04232 0.95759 0.75022
 C359 C 1.01909 0.95152 0.74505
 C360 C 1.01177 0.93011 0.73693
 C361 C 0.98801 0.93029 0.73722
 C362 C 0.98135 0.95166 0.74573
 N363 N 1.00035 0.96447 0.75043
 C364 C 0.95828 0.95810 0.75064
 H365 H 0.91535 0.97709 0.76697
 H366 H 0.91558 1.02272 0.76741
 H367 H 1.00053 0.97987 0.75969
 H368 H 0.97791 1.08190 0.73027
 H369 H 1.02346 1.08182 0.73009
 H370 H 1.08482 1.02152 0.77033
 H371 H 1.08496 0.97636 0.76859
 H372 H 0.97692 0.91604 0.73231
 H373 H 1.00066 1.02012 0.76308
 H374 H 1.02229 0.91544 0.73207
 C375 C 0.51166 0.57092 0.26175
 C376 C 0.48793 0.57087 0.26153
 C377 C 0.48119 0.54894 0.25462
 N378 N 0.49997 0.53564 0.25052
 C379 C 0.51861 0.54903 0.25493
 C380 C 0.45810 0.54197 0.25082
 C381 C 0.45160 0.51872 0.24697
 C382 C 0.43024 0.51172 0.23862
 C383 C 0.43022 0.48795 0.23881
 C384 C 0.45160 0.48108 0.24725
 N385 N 0.46451 0.49994 0.25224
 C386 C 0.45813 0.45789 0.25134
 C387 C 0.48131 0.45100 0.25478
 C388 C 0.48826 0.42909 0.26153
 C389 C 0.51199 0.42913 0.26130
 C390 C 0.51873 0.45108 0.25446
 N391 N 0.49996 0.46440 0.25041
 C392 C 0.54183 0.45807 0.25067
 C393 C 0.54832 0.48133 0.24690
 C394 C 0.56970 0.48836 0.23857
 C395 C 0.56971 0.51213 0.23885
 C396 C 0.54833 0.51897 0.24731
 N397 N 0.53542 0.50010 0.25223
 C398 C 0.54180 0.54215 0.25147
 H399 H 0.52254 0.58545 0.26629
 H400 H 0.47691 0.58536 0.26588
 H401 H 0.51983 0.50001 0.26118
 H402 H 0.41604 0.52259 0.23309
 H403 H 0.41604 0.47699 0.23346
 H404 H 0.47739 0.41454 0.26603
 H405 H 0.52301 0.41463 0.26561
 H406 H 0.58390 0.52311 0.23352
 H407 H 0.48009 0.50000 0.26119
 H408 H 0.58389 0.47750 0.23301
 O409 O 0.24996 0.18986 0.21788
 O410 O 0.27672 0.18439 0.25022
 O411 O 0.19008 0.21763 0.25103
 O412 O 0.18108 0.24783 0.27335
 O413 O 0.21801 0.24961 0.18948
 O414 O 0.24822 0.27636 0.18402
 O415 O 0.25075 0.28158 0.30980
 O416 O 0.22382 0.25122 0.31611
 O417 O 0.30976 0.25081 0.28147
 O418 O 0.31593 0.22381 0.25184
 O419 O 0.28174 0.30938 0.25083
 O420 O 0.24912 0.31712 0.22504
 O421 O 0.25061 0.30934 0.28206
 O422 O 0.22375 0.31612 0.24879
 O423 O 0.30959 0.28168 0.25065
 O424 O 0.31559 0.25192 0.22337
 O425 O 0.28211 0.25100 0.30939
 O426 O 0.25052 0.22420 0.31686
 O427 O 0.25012 0.21755 0.19003
 O428 O 0.27707 0.25011 0.18468
 O429 O 0.19024 0.24990 0.21737
 O430 O 0.18465 0.27694 0.24986
 O431 O 0.21776 0.18967 0.24991
 O432 O 0.24819 0.18432 0.27684
 Zr433 Zr 0.24895 0.20838 0.24922
 O434 O 0.27064 0.22829 0.27056
 Zr435 Zr 0.20837 0.24905 0.24902
 O436 O 0.22817 0.27049 0.27093
 Zr437 Zr 0.24905 0.24901 0.20838
 O438 O 0.27047 0.27065 0.22830
 Zr439 Zr 0.25060 0.25041 0.29120
 O440 O 0.22858 0.22877 0.27152
 Zr441 Zr 0.29096 0.25051 0.25040
 O442 O 0.27135 0.22848 0.22860
 Zr443 Zr 0.25032 0.29100 0.25065
 O444 O 0.22864 0.27129 0.22867
 O445 O 0.22760 0.22764 0.22770
 O446 O 0.27210 0.27213 0.27218
 C447 C 0.25051 0.19633 0.19663
 C448 C 0.19655 0.19632 0.25099
 C449 C 0.19676 0.25017 0.19607
 C450 C 0.25081 0.30281 0.30330
 C451 C 0.30334 0.25106 0.30275
 C452 C 0.30302 0.30291 0.25086
 H453 H 0.28057 0.21787 0.27979
 H454 H 0.28020 0.28008 0.21788
 H455 H 0.21769 0.21770 0.21791
 H456 H 0.21779 0.27989 0.28073
 H457 H 0.21208 0.23979 0.31113
 H458 H 0.18632 0.25625 0.28727
 H459 H 0.31031 0.24091 0.21139
 H460 H 0.27139 0.24548 0.16916
 H461 H 0.26244 0.21265 0.31278
 H462 H 0.23705 0.19023 0.28841
 H463 H 0.26072 0.31321 0.21309
 H464 H 0.23738 0.28815 0.19007
 H465 H 0.27080 0.16885 0.24596
 H466 H 0.31021 0.21129 0.24169
 H467 H 0.18926 0.28779 0.23745
 H468 H 0.21300 0.31337 0.26180
 O469 O 0.75005 0.81000 0.21774
 O470 O 0.72347 0.81554 0.25022
 O471 O 0.81006 0.78216 0.25061
 O472 O 0.81913 0.75195 0.27288
 O473 O 0.78179 0.75021 0.18921
 O474 O 0.75153 0.72347 0.18394
 O475 O 0.74959 0.71835 0.30973
 O476 O 0.77659 0.74868 0.31588
 O477 O 0.69048 0.74917 0.28170
 O478 O 0.68421 0.77616 0.25208
 O479 O 0.71827 0.69054 0.25092
 O480 O 0.75074 0.68274 0.22501
 O481 O 0.74954 0.69056 0.28202
 O482 O 0.77624 0.68373 0.24860
 O483 O 0.69045 0.71828 0.25088
 O484 O 0.68436 0.74805 0.22363
 O485 O 0.71826 0.74898 0.30948
 O486 O 0.74993 0.77573 0.31675
 O487 O 0.74972 0.78228 0.18992
 O488 O 0.72271 0.74976 0.18473
 O489 O 0.80969 0.74990 0.21695
 O490 O 0.81538 0.72283 0.24943
 O491 O 0.78242 0.81016 0.24962
 O492 O 0.75212 0.81558 0.27669
 Zr493 Zr 0.75120 0.79150 0.24909
 O494 O 0.72958 0.77164 0.27056
 Zr495 Zr 0.79171 0.75076 0.24871
 O496 O 0.77199 0.72937 0.27074
 Zr497 Zr 0.75084 0.75084 0.20828
 O498 O 0.72948 0.72925 0.22833
 Zr499 Zr 0.74968 0.74951 0.29111
 O500 O 0.77164 0.77109 0.27130
 Zr501 Zr 0.70912 0.74943 0.25052
 O502 O 0.72867 0.77141 0.22861
 Zr503 Zr 0.74971 0.70888 0.25058
 O504 O 0.77131 0.72854 0.22847
 O505 O 0.77241 0.77219 0.22747
 O506 O 0.72807 0.72779 0.27222
 C507 C 0.74939 0.80351 0.19650
 C508 C 0.80363 0.80347 0.25059
 C509 C 0.80307 0.74965 0.19569
 C510 C 0.74946 0.69711 0.30325
 C511 C 0.69700 0.74893 0.30295
 C512 C 0.69700 0.69705 0.25105
 H513 H 0.71971 0.78208 0.27983
 H514 H 0.71969 0.71982 0.21796
 H515 H 0.78229 0.78211 0.21763
 H516 H 0.78240 0.71996 0.28049
 H517 H 0.78833 0.76008 0.31082
 H518 H 0.81394 0.74356 0.28684
 H519 H 0.68960 0.75904 0.21161
 H520 H 0.72832 0.75437 0.16917
 H521 H 0.73800 0.78730 0.31273
 H522 H 0.76331 0.80965 0.28820
 H523 H 0.73913 0.68668 0.21308
 H524 H 0.76240 0.71168 0.18993
 H525 H 0.72939 0.83106 0.24591
 H526 H 0.68990 0.78867 0.24190
 H527 H 0.81071 0.71200 0.23703
 H528 H 0.78705 0.68647 0.26157
 O529 O 0.75035 0.18996 0.78183
 O530 O 0.72392 0.18398 0.74981
 O531 O 0.81014 0.21783 0.74864
 O532 O 0.81915 0.24802 0.72643
 O533 O 0.78206 0.24989 0.81025
 O534 O 0.75188 0.27586 0.81624
 O535 O 0.74922 0.28157 0.68988
 O536 O 0.77594 0.25126 0.68343
 O537 O 0.69026 0.25101 0.71855
 O538 O 0.68275 0.22555 0.74779
 O539 O 0.71859 0.30969 0.74895
 O540 O 0.75143 0.31742 0.77446
 O541 O 0.74947 0.30940 0.71754
 O542 O 0.77665 0.31613 0.75072
 O543 O 0.69074 0.28203 0.74961
 O544 O 0.68571 0.24762 0.77753
 O545 O 0.71780 0.25115 0.69052
 O546 O 0.74941 0.22409 0.68308
 O547 O 0.75030 0.21766 0.80969
 O548 O 0.72223 0.24965 0.81399
 O549 O 0.80982 0.25011 0.78235
 O550 O 0.81538 0.27716 0.74966
 O551 O 0.78252 0.18982 0.74972
 O552 O 0.75176 0.18478 0.72247
 Zr553 Zr 0.75128 0.20844 0.75045
 O554 O 0.72938 0.22836 0.72933
 Zr555 Zr 0.79176 0.24920 0.75065
 O556 O 0.77193 0.27056 0.72870
 Zr557 Zr 0.75107 0.24908 0.79129
 O558 O 0.72976 0.27100 0.77150
 Zr559 Zr 0.74938 0.25046 0.70857
 O560 O 0.77156 0.22890 0.72815
 Zr561 Zr 0.70919 0.25068 0.74955
 O562 O 0.72889 0.22851 0.77103
 Zr563 Zr 0.74992 0.29117 0.74901
 O564 O 0.77149 0.27141 0.77103
 O565 O 0.77257 0.22776 0.77196
 O566 O 0.72799 0.27226 0.72765
 C567 C 0.74989 0.19643 0.80309
 C568 C 0.80372 0.19651 0.74867
 C569 C 0.80331 0.25044 0.80365
 C570 C 0.74921 0.30282 0.69632
 C571 C 0.69660 0.25126 0.69724
 C572 C 0.69732 0.30325 0.74923
 H573 H 0.71938 0.21796 0.72017
 H574 H 0.72033 0.28065 0.78198
 H575 H 0.78253 0.21786 0.78174
 H576 H 0.78230 0.27990 0.71883
 H577 H 0.78782 0.23998 0.68843
 H578 H 0.81375 0.25603 0.71233
 H579 H 0.68651 0.26202 0.78671
 H580 H 0.72747 0.24515 0.82969
 H581 H 0.73716 0.21282 0.68698
 H582 H 0.76341 0.19039 0.71125
 H583 H 0.73985 0.31369 0.78648
 H584 H 0.76184 0.28825 0.80989
 H585 H 0.73024 0.16847 0.75359
 H586 H 0.68990 0.21082 0.75269
 H587 H 0.81092 0.28791 0.76220
 H588 H 0.78716 0.31349 0.73748
 O589 O 0.25005 0.80990 0.78206
 O590 O 0.27663 0.81534 0.74956
 O591 O 0.18996 0.78216 0.74932
 O592 O 0.18078 0.75195 0.72711
 O593 O 0.21826 0.75020 0.81072
 O594 O 0.24848 0.72342 0.81598
 O595 O 0.25024 0.71815 0.69019
 O596 O 0.22326 0.74850 0.68405
 O597 O 0.30942 0.74887 0.71809
 O598 O 0.31580 0.77588 0.74767
 O599 O 0.28155 0.69034 0.74901
 O600 O 0.24907 0.68264 0.77496
 O601 O 0.25026 0.69039 0.71793
 O602 O 0.22357 0.68365 0.75137
 O603 O 0.30943 0.71801 0.74896
 O604 O 0.31562 0.74780 0.77615
 O605 O 0.28159 0.74872 0.69035
 O606 O 0.24996 0.77553 0.68311
 O607 O 0.25037 0.78222 0.80993
 O608 O 0.27735 0.74965 0.81511
 O609 O 0.19032 0.74991 0.78303
 O610 O 0.18450 0.72285 0.75057
 O611 O 0.21767 0.81010 0.75024
 O612 O 0.24795 0.81541 0.72312
 Zr613 Zr 0.24885 0.79136 0.75075
 O614 O 0.27039 0.77144 0.72927
 Zr615 Zr 0.20824 0.75072 0.75124
 O616 O 0.22789 0.72926 0.72920
 Zr617 Zr 0.24918 0.75076 0.79161
 O618 O 0.27045 0.72910 0.77154
 Zr619 Zr 0.25020 0.74932 0.70877
 O620 O 0.22832 0.77098 0.72859
 Zr621 Zr 0.29082 0.74920 0.74930
 O622 O 0.27136 0.77126 0.77122
 Zr623 Zr 0.25015 0.70874 0.74934
 O624 O 0.22862 0.72848 0.77146
 O625 O 0.22762 0.77213 0.77242
 O626 O 0.27180 0.72759 0.72765
 C627 C 0.25073 0.80344 0.80332
 C628 C 0.19645 0.80346 0.74930
 C629 C 0.19697 0.74965 0.80427
 C630 C 0.25034 0.69692 0.69669
 C631 C 0.30286 0.74863 0.69686
 C632 C 0.30284 0.69679 0.74885
 H633 H 0.28026 0.78184 0.71997
 H634 H 0.28024 0.71966 0.78191
 H635 H 0.21777 0.78208 0.78226
 H636 H 0.21744 0.71987 0.71947
 H637 H 0.21155 0.75994 0.68910
 H638 H 0.18593 0.74354 0.71315
 H639 H 0.31043 0.75882 0.78816
 H640 H 0.27177 0.75430 0.83066
 H641 H 0.26193 0.78706 0.68709
 H642 H 0.23672 0.80951 0.71163
 H643 H 0.26071 0.68656 0.78686
 H644 H 0.23758 0.71164 0.81002
 H645 H 0.27074 0.83088 0.75385
 H646 H 0.31015 0.78841 0.75785
 H647 H 0.18919 0.71200 0.76295
 H648 H 0.21276 0.68640 0.73841
 O649 O 0.24927 0.30975 0.71820
 O650 O 0.22242 0.31519 0.75056
 O651 O 0.30913 0.28213 0.75150
 O652 O 0.31813 0.25195 0.77388
 O653 O 0.28136 0.25003 0.68994
 O654 O 0.25118 0.22320 0.68449
 O655 O 0.24850 0.21803 0.81020
 O656 O 0.27541 0.24849 0.81651
 O657 O 0.18948 0.24883 0.78182
 O658 O 0.18336 0.27582 0.75216
 O659 O 0.21758 0.19027 0.75123
 O660 O 0.25029 0.18259 0.72540
 O661 O 0.24870 0.19029 0.78244
 O662 O 0.27554 0.18351 0.74924
 O663 O 0.18972 0.21796 0.75105
 O664 O 0.18371 0.24765 0.72375
 O665 O 0.21708 0.24862 0.80977
 O666 O 0.24859 0.27538 0.81733
 O667 O 0.24923 0.28201 0.69040
 O668 O 0.22233 0.24946 0.68503
 O669 O 0.30908 0.24982 0.71786
 O670 O 0.31469 0.22284 0.75035
 O671 O 0.28140 0.31003 0.75033
 O672 O 0.25096 0.31541 0.77714
 Zr673 Zr 0.25026 0.29127 0.74958
 O674 O 0.22860 0.27135 0.77095
 Zr675 Zr 0.29090 0.25066 0.74949
 O676 O 0.27110 0.22918 0.77136
 Zr677 Zr 0.25029 0.25061 0.70879
 O678 O 0.22885 0.22898 0.72870
 Zr679 Zr 0.24862 0.24923 0.79162
 O680 O 0.27061 0.27092 0.77194
 Zr681 Zr 0.20832 0.24912 0.75077
 O682 O 0.22793 0.27113 0.72896
 Zr683 Zr 0.24900 0.20866 0.75105
 O684 O 0.27071 0.22838 0.72912
 O685 O 0.27168 0.27202 0.72812
 O686 O 0.22717 0.22750 0.77257
 C687 C 0.24878 0.30324 0.69695
 C688 C 0.30262 0.30342 0.75144
 C689 C 0.30260 0.24952 0.69656
 C690 C 0.24849 0.19679 0.80368
 C691 C 0.19587 0.24857 0.80310
 C692 C 0.19631 0.19674 0.75126
 H693 H 0.21865 0.28176 0.78017
 H694 H 0.21913 0.21954 0.71827
 H695 H 0.28159 0.28197 0.71834
 H696 H 0.28149 0.21979 0.78117
 H697 H 0.28710 0.25999 0.81155
 H698 H 0.31290 0.24346 0.78776
 H699 H 0.18902 0.25859 0.71172
 H700 H 0.22805 0.25404 0.66951
 H701 H 0.23678 0.28701 0.81315
 H702 H 0.26199 0.30946 0.78879
 H703 H 0.23859 0.18641 0.71352
 H704 H 0.26208 0.21146 0.69053
 H705 H 0.22829 0.33072 0.74621
 H706 H 0.18902 0.28827 0.74189
 H707 H 0.31008 0.21194 0.73798
 H708 H 0.28636 0.18636 0.76218
 O709 O 0.75046 0.69016 0.71812
 O710 O 0.77710 0.68474 0.75064
 O711 O 0.69044 0.71792 0.75103
 O712 O 0.68135 0.74817 0.77329
 O713 O 0.71864 0.74988 0.68956
 O714 O 0.74890 0.77666 0.68426
 O715 O 0.75085 0.78204 0.80996
 O716 O 0.72380 0.75166 0.81616
 O717 O 0.80994 0.75107 0.78199
 O718 O 0.81620 0.72401 0.75241
 O719 O 0.78216 0.80963 0.75109
 O720 O 0.74960 0.81732 0.72509
 O721 O 0.75087 0.80973 0.78215
 O722 O 0.72423 0.81651 0.74882
 O723 O 0.80996 0.78188 0.75114
 O724 O 0.81610 0.75214 0.72396
 O725 O 0.78217 0.75137 0.80979
 O726 O 0.75055 0.72469 0.81719
 O727 O 0.75074 0.71785 0.69027
 O728 O 0.77770 0.75035 0.68500
 O729 O 0.69075 0.75018 0.71732
 O730 O 0.68498 0.77723 0.74972
 O731 O 0.71815 0.68999 0.75006
 O732 O 0.74840 0.68459 0.77704
 Zr733 Zr 0.74931 0.70869 0.74946
 O734 O 0.77087 0.72861 0.77093
 Zr735 Zr 0.70874 0.74936 0.74906
 O736 O 0.72843 0.77086 0.77101
 Zr737 Zr 0.74959 0.74929 0.70860
 O738 O 0.77095 0.77090 0.72860
 Zr739 Zr 0.75075 0.75080 0.79144
 O740 O 0.72885 0.72912 0.77167
 Zr741 Zr 0.79131 0.75076 0.75082
 O742 O 0.77179 0.72876 0.72893
 Zr743 Zr 0.75070 0.79131 0.75080
 O744 O 0.72909 0.77158 0.72877
 O745 O 0.72806 0.72794 0.72784
 O746 O 0.77236 0.77246 0.77248
 C747 C 0.75111 0.69663 0.69686
 C748 C 0.69693 0.69662 0.75105
 C749 C 0.69737 0.75044 0.69606
 C750 C 0.75097 0.80326 0.80340
 C751 C 0.80342 0.75137 0.80324
 C752 C 0.80342 0.80311 0.75125
 H753 H 0.78073 0.71820 0.78023
 H754 H 0.78075 0.78031 0.71820
 H755 H 0.71819 0.71799 0.71802
 H756 H 0.71801 0.78028 0.78074
 H757 H 0.71212 0.74017 0.81116
 H758 H 0.68650 0.75669 0.78718
 H759 H 0.81083 0.74122 0.71190
 H760 H 0.77206 0.74577 0.66945
 H761 H 0.76237 0.71304 0.81311
 H762 H 0.73732 0.69058 0.78863
 H763 H 0.76136 0.81347 0.71328
 H764 H 0.73796 0.78841 0.69020
 H765 H 0.77125 0.66921 0.74628
 H766 H 0.81060 0.71157 0.74210
 H767 H 0.68971 0.78811 0.73738
 H768 H 0.71332 0.81369 0.76169
 O769 O 0.24917 0.69003 0.28161
 O770 O 0.22285 0.68414 0.24939
 O771 O 0.30918 0.71774 0.24874
 O772 O 0.31841 0.74793 0.22662
 O773 O 0.28079 0.74990 0.31022
 O774 O 0.25061 0.77594 0.31600
 O775 O 0.24880 0.78177 0.18968
 O776 O 0.27554 0.75135 0.18340
 O777 O 0.18961 0.75125 0.21792
 O778 O 0.18186 0.72573 0.24705
 O779 O 0.21785 0.80980 0.24856
 O780 O 0.25059 0.81740 0.27438
 O781 O 0.24893 0.80954 0.21741
 O782 O 0.27586 0.81620 0.25069
 O783 O 0.18994 0.78218 0.24901
 O784 O 0.18464 0.74779 0.27685
 O785 O 0.21732 0.75138 0.19006
 O786 O 0.24888 0.72430 0.18276
 O787 O 0.24902 0.71774 0.30945
 O788 O 0.22096 0.74973 0.31358
 O789 O 0.30873 0.75004 0.28249
 O790 O 0.31461 0.77705 0.24985
 O791 O 0.28146 0.68981 0.24963
 O792 O 0.25089 0.68482 0.22227
 Zr793 Zr 0.25029 0.70851 0.25021
 O794 O 0.22861 0.72850 0.22893
 Zr795 Zr 0.29088 0.74917 0.25067
 O796 O 0.27124 0.77061 0.22863
 Zr797 Zr 0.24994 0.74914 0.29105
 O798 O 0.22879 0.77109 0.27115
 Zr799 Zr 0.24878 0.75060 0.20832
 O800 O 0.27076 0.72894 0.22804
 Zr801 Zr 0.20833 0.75082 0.24905
 O802 O 0.22782 0.72861 0.27066
 Zr803 Zr 0.24914 0.79124 0.24883
 O804 O 0.27054 0.77142 0.27095
 O805 O 0.27151 0.72777 0.27185
 O806 O 0.22732 0.77240 0.22730
 C807 C 0.24863 0.69652 0.30287
 C808 C 0.30268 0.69644 0.24870
 C809 C 0.30208 0.75040 0.30375
 C810 C 0.24878 0.80301 0.19618
 C811 C 0.19608 0.75154 0.19666
 C812 C 0.19656 0.80338 0.24868
 H813 H 0.21864 0.71813 0.21969
 H814 H 0.21931 0.78075 0.28158
 H815 H 0.28139 0.71785 0.28168
 H816 H 0.28169 0.77995 0.21884
 H817 H 0.28732 0.73999 0.18844
 H818 H 0.31313 0.75599 0.21250
 H819 H 0.18545 0.76216 0.28608
 H820 H 0.22611 0.74525 0.32933
 H821 H 0.23666 0.71299 0.18662
 H822 H 0.26253 0.69047 0.21105
 H823 H 0.23878 0.81379 0.28621
 H824 H 0.26068 0.78828 0.30973
 H825 H 0.22908 0.66863 0.25327
 H826 H 0.18892 0.71101 0.25212
 H827 H 0.31005 0.78784 0.26233
 H828 H 0.28653 0.81347 0.23760
 O829 O 0.75038 0.30972 0.28158
 O830 O 0.77717 0.31511 0.24916
 O831 O 0.69047 0.28206 0.24842
 O832 O 0.68147 0.25186 0.22604
 O833 O 0.71831 0.25004 0.30996
 O834 O 0.74849 0.22321 0.31541
 O835 O 0.75108 0.21787 0.18971
 O836 O 0.72412 0.24830 0.18339
 O837 O 0.81009 0.24872 0.21799
 O838 O 0.81623 0.27578 0.24760
 O839 O 0.78206 0.19021 0.24871
 O840 O 0.74935 0.18256 0.27458
 O841 O 0.75091 0.19017 0.21752
 O842 O 0.72411 0.18341 0.25073
 O843 O 0.80990 0.21792 0.24882
 O844 O 0.81593 0.24764 0.27605
 O845 O 0.78246 0.24848 0.19006
 O846 O 0.75092 0.27522 0.18250
 O847 O 0.75047 0.28202 0.30942
 O848 O 0.77734 0.24946 0.31481
 O849 O 0.69056 0.24978 0.28208
 O850 O 0.68491 0.22277 0.24964
 O851 O 0.71821 0.30995 0.24952
 O852 O 0.74859 0.31531 0.22265
 Zr853 Zr 0.74934 0.29120 0.25023
 O854 O 0.77098 0.27125 0.22886
 Zr855 Zr 0.70871 0.25059 0.25043
 O856 O 0.72849 0.22907 0.22857
 Zr857 Zr 0.74936 0.25059 0.29108
 O858 O 0.77079 0.22894 0.27118
 Zr859 Zr 0.75094 0.24910 0.20825
 O860 O 0.72897 0.27081 0.22792
 Zr861 Zr 0.79128 0.24906 0.24906
 O862 O 0.77169 0.27109 0.27086
 Zr863 Zr 0.75062 0.20858 0.24888
 O864 O 0.72893 0.22833 0.27080
 O865 O 0.72795 0.27198 0.27175
 O866 O 0.77242 0.22741 0.22731
 C867 C 0.75092 0.30324 0.30283
 C868 C 0.69699 0.30335 0.24846
 C869 C 0.69707 0.24951 0.30337
 C870 C 0.75112 0.19665 0.19627
 C871 C 0.80368 0.24843 0.19671
 C872 C 0.80333 0.19670 0.24866
 H873 H 0.78091 0.28165 0.21961
 H874 H 0.78052 0.21952 0.28161
 H875 H 0.71806 0.28193 0.28153
 H876 H 0.71810 0.21966 0.21878
 H877 H 0.71243 0.25980 0.18835
 H878 H 0.68667 0.24330 0.21219
 H879 H 0.81062 0.25858 0.28808
 H880 H 0.77164 0.25406 0.33033
 H881 H 0.76273 0.28686 0.18665
 H882 H 0.73754 0.30934 0.21101
 H883 H 0.76108 0.18639 0.28643
 H884 H 0.73758 0.21147 0.30940
 H885 H 0.77132 0.33065 0.25351
 H886 H 0.81059 0.28823 0.25788
 H887 H 0.68957 0.21186 0.26198
 H888 H 0.71326 0.18626 0.23781
 C889 C 0.25056 0.09362 0.09441
 C890 C 0.23938 0.07256 0.09841
 C891 C 0.23898 0.05557 0.08124
 C892 C 0.24973 0.05937 0.05966
 C893 C 0.26102 0.08069 0.05596
 C894 C 0.26140 0.09763 0.07318
 C895 C 0.25085 0.11116 0.11204
 C896 C 0.25105 0.12592 0.12675
 C897 C 0.25121 0.14357 0.14428
 C898 C 0.25110 0.13744 0.16767
 C899 C 0.25102 0.15458 0.18471
 C900 C 0.25104 0.17814 0.17856
 C901 C 0.25125 0.18409 0.15496
 C902 C 0.25133 0.16691 0.13796
 H903 H 0.23085 0.06932 0.11477
 H904 H 0.22972 0.03965 0.08463
 H905 H 0.27007 0.08408 0.03991
 H906 H 0.27023 0.11383 0.06995
 H907 H 0.25099 0.11942 0.17275
 H908 H 0.25083 0.14934 0.20268
 H909 H 0.25125 0.20202 0.14958
 H910 H 0.25141 0.17184 0.11989
 C911 C 0.75171 0.59419 0.59439
 C912 C 0.73472 0.57694 0.59467
 C913 C 0.73456 0.55983 0.57760
 C914 C 0.75144 0.55981 0.56014
 C915 C 0.76838 0.57720 0.55988
 C916 C 0.76852 0.59431 0.57695
 C917 C 0.75190 0.61175 0.61200
 C918 C 0.75201 0.62647 0.62675
 C919 C 0.75208 0.64405 0.64435
 C920 C 0.75182 0.63783 0.66772
 C921 C 0.75164 0.65490 0.68483
 C922 C 0.75173 0.67848 0.67876
 C923 C 0.75208 0.68452 0.65518
 C924 C 0.75226 0.66741 0.63812
 H925 H 0.72162 0.57671 0.60806
 H926 H 0.72131 0.54660 0.57798
 H927 H 0.78151 0.57742 0.54652
 H928 H 0.78172 0.60759 0.57657
 H929 H 0.75167 0.61979 0.67273
 H930 H 0.75134 0.64961 0.70278
 H931 H 0.75213 0.70247 0.64985
 H932 H 0.75245 0.67240 0.62007
 C933 C 0.74929 0.90611 0.09415
 C934 C 0.76048 0.90188 0.07314
 C935 C 0.76077 0.91880 0.05591
 C936 C 0.74980 0.94033 0.05937
 C937 C 0.73872 0.94436 0.08074
 C938 C 0.73846 0.92738 0.09793
 C939 C 0.74896 0.88859 0.11181
 C940 C 0.74873 0.87386 0.12655
 C941 C 0.74856 0.85622 0.14409
 C942 C 0.74849 0.83287 0.13780
 C943 C 0.74860 0.81571 0.15481
 C944 C 0.74880 0.82169 0.17842
 C945 C 0.74877 0.84526 0.18454
 C946 C 0.74866 0.86237 0.16748
 H947 H 0.76908 0.88551 0.07010
 H948 H 0.77007 0.91523 0.04005
 H949 H 0.72973 0.96047 0.08396
 H950 H 0.72969 0.93081 0.11413
 H951 H 0.74844 0.82793 0.11973
 H952 H 0.74865 0.79778 0.14945
 H953 H 0.74894 0.85051 0.20251
 H954 H 0.74872 0.88041 0.17254
 C955 C 0.24925 0.40554 0.59434
 C956 C 0.26639 0.40512 0.57722
 C957 C 0.26691 0.42223 0.56017
 C958 C 0.25030 0.43993 0.56011
 C959 C 0.23309 0.44023 0.57725
 C960 C 0.23260 0.42312 0.59431
 C961 C 0.24881 0.38800 0.61196
 C962 C 0.24849 0.37330 0.62673
 C963 C 0.24822 0.35575 0.64435
 C964 C 0.24821 0.33238 0.63815
 C965 C 0.24823 0.31529 0.65524
 C966 C 0.24828 0.32136 0.67882
 C967 C 0.24819 0.34495 0.68485
 C968 C 0.24816 0.36200 0.66772
 H969 H 0.27935 0.39159 0.57709
 H970 H 0.28029 0.42177 0.54707
 H971 H 0.22010 0.45372 0.57738
 H972 H 0.21926 0.42359 0.60745
 H973 H 0.24827 0.32735 0.62011
 H974 H 0.24833 0.29734 0.64994
 H975 H 0.24825 0.35027 0.70280
 H976 H 0.24819 0.38005 0.67270
 C977 C 0.74994 0.09382 0.90543
 C978 C 0.73903 0.07258 0.90164
 C979 C 0.73920 0.05561 0.91884
 C980 C 0.75024 0.05962 0.94023
 C981 C 0.76129 0.08110 0.94369
 C982 C 0.76110 0.09802 0.92645
 C983 C 0.74968 0.11133 0.88776
 C984 C 0.74949 0.12607 0.87303
 C985 C 0.74934 0.14370 0.85549
 C986 C 0.74930 0.13756 0.83209
 C987 C 0.74936 0.15468 0.81504
 C988 C 0.74945 0.17825 0.82117
 C989 C 0.74941 0.18422 0.84477
 C990 C 0.74935 0.16705 0.86178
 H991 H 0.73028 0.06918 0.88543
 H992 H 0.73014 0.03954 0.91562
 H993 H 0.77058 0.08464 0.95956
 H994 H 0.76976 0.11435 0.92949
 H995 H 0.74930 0.11953 0.82703
 H996 H 0.74941 0.14943 0.79707
 H997 H 0.74951 0.20215 0.85014
 H998 H 0.74939 0.17199 0.87985
 C999 C 0.24917 0.59422 0.40549
 C1000 C 0.23256 0.57659 0.40551
 C1001 C 0.23307 0.55950 0.42259
 C1002 C 0.25024 0.55987 0.43977
 C1003 C 0.26680 0.57762 0.43971
 C1004 C 0.26626 0.59472 0.42263
 C1005 C 0.24871 0.61174 0.38784
 C1006 C 0.24838 0.62642 0.37306
 C1007 C 0.24810 0.64398 0.35544
 C1008 C 0.24814 0.63774 0.33207
 C1009 C 0.24815 0.65480 0.31494
 C1010 C 0.24813 0.67838 0.32099
 C1011 C 0.24799 0.68444 0.34457
 C1012 C 0.24798 0.66735 0.36165
 H1013 H 0.21925 0.57606 0.39234
 H1014 H 0.22012 0.54598 0.42245
 H1015 H 0.28015 0.57814 0.45284
 H1016 H 0.27918 0.60828 0.42277
 H1017 H 0.24825 0.61969 0.32708
 H1018 H 0.24829 0.64948 0.29699
 H1019 H 0.24800 0.70239 0.34988
 H1020 H 0.24796 0.67236 0.37969
 C1021 C 0.25090 0.90621 0.90547
 C1022 C 0.23966 0.92724 0.90147
 C1023 C 0.23920 0.94423 0.91864
 C1024 C 0.24997 0.94046 0.94022
 C1025 C 0.26133 0.91917 0.94391
 C1026 C 0.26175 0.90224 0.92670
 C1027 C 0.25122 0.88866 0.88785
 C1028 C 0.25143 0.87389 0.87315
 C1029 C 0.25159 0.85623 0.85564
 C1030 C 0.25139 0.86235 0.83224
 C1031 C 0.25127 0.84520 0.81521
 C1032 C 0.25135 0.82164 0.82137
 C1033 C 0.25166 0.81570 0.84498
 C1034 C 0.25178 0.83289 0.86196
 H1035 H 0.23111 0.93045 0.88511
 H1036 H 0.22990 0.96012 0.91525
 H1037 H 0.27038 0.91581 0.95996
 H1038 H 0.27063 0.88606 0.92992
 H1039 H 0.25123 0.88037 0.82715
 H1040 H 0.25100 0.85043 0.79723
 H1041 H 0.25169 0.79778 0.85037
 H1042 H 0.25192 0.82797 0.88004
 C1043 C 0.75152 0.40572 0.40526
 C1044 C 0.73459 0.42303 0.40495
 C1045 C 0.73446 0.44015 0.42200
 C1046 C 0.75132 0.44013 0.43948
 C1047 C 0.76820 0.42269 0.43976
 C1048 C 0.76830 0.40556 0.42272
 C1049 C 0.75168 0.38814 0.38767
 C1050 C 0.75178 0.37342 0.37293
 C1051 C 0.75183 0.35583 0.35534
 C1052 C 0.75167 0.36204 0.33196
 C1053 C 0.75151 0.34496 0.31486
 C1054 C 0.75150 0.32139 0.32093
 C1055 C 0.75174 0.31535 0.34452
 C1056 C 0.75190 0.33247 0.36158
 H1057 H 0.72151 0.42328 0.39154
 H1058 H 0.72125 0.45343 0.42160
 H1059 H 0.78131 0.42244 0.45314
 H1060 H 0.78147 0.39224 0.42312
 H1061 H 0.75160 0.38008 0.32695
 H1062 H 0.75130 0.35026 0.29691
 H1063 H 0.75171 0.29741 0.34985
 H1064 H 0.75201 0.32748 0.37963
 C1065 C 0.09410 0.24998 0.09372
 C1066 C 0.07259 0.23988 0.09818
 C1067 C 0.05551 0.23962 0.08108
 C1068 C 0.05964 0.24949 0.05914
 C1069 C 0.08148 0.25957 0.05495
 C1070 C 0.09851 0.25981 0.07209
 C1071 C 0.11168 0.25022 0.11133
 C1072 C 0.12643 0.25040 0.12606
 C1073 C 0.14406 0.25058 0.14362
 C1074 C 0.13788 0.25074 0.16700
 C1075 C 0.15499 0.25073 0.18408
 C1076 C 0.17858 0.25055 0.17798
 C1077 C 0.18459 0.25046 0.15438
 C1078 C 0.16744 0.25047 0.13735
 H1079 H 0.06905 0.23208 0.11484
 H1080 H 0.03924 0.23113 0.08486
 H1081 H 0.08523 0.26785 0.03857
 H1082 H 0.11509 0.26777 0.06850
 H1083 H 0.11983 0.25082 0.17204
 H1084 H 0.14972 0.25078 0.20204
 H1085 H 0.20254 0.25029 0.14903
 H1086 H 0.17241 0.25034 0.11929
 C1087 C 0.59489 0.75020 0.59356
 C1088 C 0.57764 0.73321 0.59399
 C1089 C 0.56037 0.73304 0.57708
 C1090 C 0.56018 0.74990 0.55962
 C1091 C 0.57757 0.76684 0.55921
 C1092 C 0.59484 0.76699 0.57612
 C1093 C 0.61256 0.75046 0.61106
 C1094 C 0.62733 0.75065 0.62578
 C1095 C 0.64490 0.75083 0.64338
 C1096 C 0.63862 0.75103 0.66674
 C1097 C 0.65566 0.75102 0.68389
 C1098 C 0.67927 0.75081 0.67788
 C1099 C 0.68538 0.75068 0.65431
 C1100 C 0.66830 0.75069 0.63721
 H1101 H 0.57753 0.72013 0.60740
 H1102 H 0.54714 0.71979 0.57757
 H1103 H 0.57767 0.77996 0.54585
 H1104 H 0.60811 0.78021 0.57563
 H1105 H 0.62055 0.75113 0.67171
 H1106 H 0.65031 0.75110 0.70183
 H1107 H 0.70336 0.75049 0.64904
 H1108 H 0.67334 0.75052 0.61916
 C1109 C 0.09451 0.74994 0.90690
 C1110 C 0.07321 0.73932 0.90268
 C1111 C 0.05591 0.73964 0.91955
 C1112 C 0.05959 0.75062 0.94104
 C1113 C 0.08122 0.76125 0.94500
 C1114 C 0.09848 0.76090 0.92807
 C1115 C 0.11224 0.74969 0.88942
 C1116 C 0.12702 0.74949 0.87471
 C1117 C 0.14458 0.74930 0.85707
 C1118 C 0.13827 0.74896 0.83372
 C1119 C 0.15528 0.74895 0.81654
 C1120 C 0.17890 0.74929 0.82249
 C1121 C 0.18505 0.74955 0.84606
 C1122 C 0.16799 0.74956 0.86320
 H1123 H 0.06999 0.73069 0.88637
 H1124 H 0.03979 0.73078 0.91596
 H1125 H 0.08460 0.77041 0.96098
 H1126 H 0.11488 0.76931 0.93146
 H1127 H 0.12019 0.74876 0.82879
 H1128 H 0.14990 0.74877 0.79861
 H1129 H 0.20303 0.74984 0.85129
 H1130 H 0.17306 0.74983 0.88123
 C1131 C 0.59442 0.24978 0.40571
 C1132 C 0.59477 0.26677 0.42295
 C1133 C 0.57776 0.26698 0.44012
 C1134 C 0.56026 0.25014 0.44021
 C1135 C 0.55993 0.23318 0.42284
 C1136 C 0.57695 0.23301 0.40567
 C1137 C 0.61199 0.24953 0.38810
 C1138 C 0.62674 0.24934 0.37337
 C1139 C 0.64437 0.24915 0.35582
 C1140 C 0.66773 0.24937 0.36209
 C1141 C 0.68489 0.24936 0.34506
 C1142 C 0.67889 0.24915 0.32146
 C1143 C 0.65530 0.24886 0.31536
 C1144 C 0.63819 0.24886 0.33244
 H1145 H 0.60820 0.27984 0.42311
 H1146 H 0.57818 0.28023 0.45333
 H1147 H 0.54655 0.22009 0.42268
 H1148 H 0.57651 0.21980 0.39241
 H1149 H 0.67270 0.24960 0.38015
 H1150 H 0.70284 0.24961 0.35040
 H1151 H 0.65003 0.24871 0.29740
 H1152 H 0.62014 0.24870 0.32740
 C1153 C 0.90543 0.75082 0.09299
 C1154 C 0.91283 0.73024 0.08263
 C1155 C 0.92994 0.73071 0.06556
 C1156 C 0.93979 0.75183 0.05857
 C1157 C 0.93235 0.77241 0.06918
 C1158 C 0.91524 0.77189 0.08625
 C1159 C 0.88784 0.75031 0.11060
 C1160 C 0.87311 0.74992 0.12535
 C1161 C 0.85554 0.74954 0.14298
 C1162 C 0.83214 0.74966 0.13682
 C1163 C 0.81506 0.74954 0.15393
 C1164 C 0.82116 0.74931 0.17750
 C1165 C 0.84478 0.74910 0.18349
 C1166 C 0.86182 0.74922 0.16633
 H1167 H 0.90544 0.71383 0.08781
 H1168 H 0.93570 0.71458 0.05797
 H1169 H 0.93969 0.78888 0.06410
 H1170 H 0.90966 0.78791 0.09419
 H1171 H 0.82709 0.74992 0.11878
 H1172 H 0.79708 0.74974 0.14867
 H1173 H 0.85014 0.74895 0.20143
 H1174 H 0.87989 0.74913 0.17129
 C1175 C 0.40538 0.24977 0.59436
 C1176 C 0.42287 0.23302 0.59444
 C1177 C 0.43990 0.23320 0.57728
 C1178 C 0.43956 0.25013 0.55989
 C1179 C 0.42204 0.26695 0.55995
 C1180 C 0.40501 0.26674 0.57710
 C1181 C 0.38778 0.24951 0.61195
 C1182 C 0.37302 0.24932 0.62665
 C1183 C 0.35536 0.24913 0.64418
 C1184 C 0.36151 0.24886 0.66757
 C1185 C 0.34437 0.24887 0.68463
 C1186 C 0.32080 0.24914 0.67849
 C1187 C 0.31482 0.24934 0.65489
 C1188 C 0.33201 0.24934 0.63788
 H1189 H 0.42331 0.21983 0.60772
 H1190 H 0.45330 0.22012 0.57747
 H1191 H 0.42161 0.28019 0.54671
 H1192 H 0.39157 0.27979 0.57691
 H1193 H 0.37955 0.24871 0.67263
 H1194 H 0.34962 0.24873 0.70259
 H1195 H 0.29688 0.24959 0.64952
 H1196 H 0.32707 0.24956 0.61981
 C1197 C 0.90611 0.24970 0.90585
 C1198 C 0.92754 0.23942 0.90141
 C1199 C 0.94455 0.23887 0.91858
 C1200 C 0.94039 0.24855 0.94060
 C1201 C 0.91869 0.25898 0.94471
 C1202 C 0.90174 0.25951 0.92750
 C1203 C 0.88855 0.25013 0.88823
 C1204 C 0.87378 0.25046 0.87352
 C1205 C 0.85610 0.25077 0.85600
 C1206 C 0.86224 0.25097 0.83261
 C1207 C 0.84509 0.25102 0.81557
 C1208 C 0.82151 0.25085 0.82172
 C1209 C 0.81555 0.25074 0.84533
 C1210 C 0.83274 0.25069 0.86232
 H1211 H 0.93108 0.23171 0.88471
 H1212 H 0.96080 0.23033 0.91480
 H1213 H 0.91500 0.26732 0.96106
 H1214 H 0.88525 0.26767 0.93106
 H1215 H 0.88028 0.25102 0.82753
 H1216 H 0.85033 0.25108 0.79760
 H1217 H 0.79761 0.25058 0.85071
 H1218 H 0.82781 0.25052 0.88040
 C1219 C 0.40465 0.75031 0.40615
 C1220 C 0.42193 0.73335 0.40564
 C1221 C 0.43924 0.73317 0.42250
 C1222 C 0.43944 0.74999 0.44000
 C1223 C 0.42203 0.76691 0.44049
 C1224 C 0.40471 0.76706 0.42363
 C1225 C 0.38692 0.75056 0.38870
 C1226 C 0.37212 0.75075 0.37403
 C1227 C 0.35454 0.75092 0.35643
 C1228 C 0.36081 0.75108 0.33307
 C1229 C 0.34378 0.75104 0.31593
 C1230 C 0.32016 0.75083 0.32193
 C1231 C 0.31405 0.75075 0.34550
 C1232 C 0.33114 0.75079 0.36261
 H1233 H 0.42202 0.72030 0.39221
 H1234 H 0.45249 0.71994 0.42196
 H1235 H 0.42194 0.77999 0.45389
 H1236 H 0.39142 0.78025 0.42419
 H1237 H 0.37888 0.75117 0.32810
 H1238 H 0.34913 0.75108 0.29799
 H1239 H 0.29608 0.75056 0.35077
 H1240 H 0.32610 0.75066 0.38065
 C1241 C 0.09356 0.09430 0.25105
 C1242 C 0.08712 0.08407 0.23008
 C1243 C 0.07010 0.06692 0.22967
 C1244 C 0.05932 0.05978 0.25028
 C1245 C 0.06584 0.07020 0.27126
 C1246 C 0.08287 0.08735 0.27162
 C1247 C 0.11119 0.11185 0.25145
 C1248 C 0.12600 0.12653 0.25171
 C1249 C 0.14369 0.14402 0.25191
 C1250 C 0.13760 0.16742 0.25247
 C1251 C 0.15476 0.18444 0.25235
 C1252 C 0.17833 0.17827 0.25165
 C1253 C 0.18425 0.15466 0.25121
 C1254 C 0.16704 0.13769 0.25134
 H1255 H 0.09526 0.08935 0.21406
 H1256 H 0.06522 0.05929 0.21328
 H1257 H 0.05791 0.06486 0.28738
 H1258 H 0.08775 0.09514 0.28795
 H1259 H 0.11957 0.17251 0.25291
 H1260 H 0.14954 0.20241 0.25267
 H1261 H 0.20218 0.14927 0.25064
 H1262 H 0.17195 0.11962 0.25088
 C1263 C 0.59432 0.59428 0.75186
 C1264 C 0.57710 0.59453 0.73484
 C1265 C 0.55996 0.57749 0.73470
 C1266 C 0.55988 0.56008 0.75162
 C1267 C 0.57724 0.55985 0.76858
 C1268 C 0.59439 0.57689 0.76870
 C1269 C 0.61192 0.61186 0.75203
 C1270 C 0.62665 0.62660 0.75213
 C1271 C 0.64426 0.64417 0.75217
 C1272 C 0.63807 0.66754 0.75245
 C1273 C 0.65517 0.68463 0.75224
 C1274 C 0.67875 0.67854 0.75173
 C1275 C 0.68477 0.65495 0.75155
 C1276 C 0.66763 0.63791 0.75176
 H1277 H 0.57692 0.60788 0.72171
 H1278 H 0.54674 0.57784 0.72143
 H1279 H 0.57742 0.54653 0.78174
 H1280 H 0.60765 0.57653 0.78193
 H1281 H 0.62002 0.67257 0.75275
 H1282 H 0.64989 0.70259 0.75236
 H1283 H 0.70272 0.64961 0.75114
 H1284 H 0.67261 0.61986 0.75153
 C1285 C 0.90674 0.09453 0.74912
 C1286 C 0.92454 0.09562 0.76551
 C1287 C 0.94147 0.07837 0.76619
 C1288 C 0.94072 0.05986 0.75050
 C1289 C 0.92291 0.05894 0.73401
 C1290 C 0.90598 0.07618 0.73335
 C1291 C 0.88916 0.11214 0.74859
 C1292 C 0.87437 0.12683 0.74823
 C1293 C 0.85666 0.14430 0.74792
 C1294 C 0.86273 0.16771 0.74744
 C1295 C 0.84553 0.18470 0.74750
 C1296 C 0.82198 0.17850 0.74804
 C1297 C 0.81609 0.15488 0.74838
 C1298 C 0.83332 0.13793 0.74832
 H1299 H 0.92528 0.10974 0.77778
 H1300 H 0.95510 0.07936 0.77900
 H1301 H 0.92216 0.04487 0.72168
 H1302 H 0.89230 0.07519 0.72059
 H1303 H 0.88075 0.17283 0.74714
 H1304 H 0.85072 0.20269 0.74726
 H1305 H 0.79817 0.14945 0.74883
 H1306 H 0.82844 0.11985 0.74871
 C1307 C 0.40532 0.59412 0.24906
 C1308 C 0.40490 0.57703 0.26620
 C1309 C 0.42208 0.56002 0.26676
 C1310 C 0.43982 0.56000 0.25018
 C1311 C 0.44011 0.57713 0.23299
 C1312 C 0.42294 0.59413 0.23245
 C1313 C 0.38772 0.61169 0.24857
 C1314 C 0.37297 0.62642 0.24824
 C1315 C 0.35536 0.64398 0.24796
 C1316 C 0.36155 0.66735 0.24749
 C1317 C 0.34444 0.68444 0.24755
 C1318 C 0.32086 0.67835 0.24810
 C1319 C 0.31485 0.65476 0.24846
 C1320 C 0.33199 0.63772 0.24839
 H1321 H 0.39134 0.57687 0.27913
 H1322 H 0.42162 0.54693 0.28014
 H1323 H 0.45363 0.57728 0.22002
 H1324 H 0.42341 0.60727 0.21911
 H1325 H 0.37960 0.67238 0.24717
 H1326 H 0.34972 0.70240 0.24730
 H1327 H 0.29690 0.64942 0.24891
 H1328 H 0.32702 0.61967 0.24878
 C1329 C 0.09359 0.90563 0.74927
 C1330 C 0.08712 0.91590 0.77021
 C1331 C 0.07011 0.93306 0.77056
 C1332 C 0.05936 0.94017 0.74993
 C1333 C 0.06593 0.92971 0.72897
 C1334 C 0.08295 0.91255 0.72866
 C1335 C 0.11120 0.88805 0.74892
 C1336 C 0.12598 0.87335 0.74869
 C1337 C 0.14365 0.85583 0.74850
 C1338 C 0.16701 0.86213 0.74896
 C1339 C 0.18420 0.84514 0.74906
 C1340 C 0.17824 0.82153 0.74871
 C1341 C 0.15467 0.81539 0.74814
 C1342 C 0.13752 0.83244 0.74804
 H1343 H 0.09522 0.91064 0.78625
 H1344 H 0.06520 0.94072 0.78694
 H1345 H 0.05803 0.93502 0.71283
 H1346 H 0.08785 0.90473 0.71236
 H1347 H 0.17194 0.88020 0.74933
 H1348 H 0.20213 0.85051 0.74953
 H1349 H 0.14943 0.79743 0.74789
 H1350 H 0.11948 0.82737 0.74770
 C1351 C 0.59455 0.40586 0.24876
 C1352 C 0.59498 0.42291 0.26594
 C1353 C 0.57783 0.43994 0.26655
 C1354 C 0.56010 0.44004 0.24997
 C1355 C 0.55979 0.42296 0.23272
 C1356 C 0.57694 0.40593 0.23214
 C1357 C 0.61211 0.38825 0.24824
 C1358 C 0.62682 0.37349 0.24790
 C1359 C 0.64440 0.35590 0.24762
 C1360 C 0.66778 0.36211 0.24813
 C1361 C 0.68489 0.34505 0.24822
 C1362 C 0.67884 0.32147 0.24780
 C1363 C 0.65525 0.31542 0.24716
 C1364 C 0.63818 0.33253 0.24707
 H1365 H 0.60853 0.42301 0.27888
 H1366 H 0.57830 0.45299 0.27996
 H1367 H 0.54628 0.42286 0.21976
 H1368 H 0.57645 0.39283 0.21877
 H1369 H 0.67278 0.38016 0.24857
 H1370 H 0.70285 0.35036 0.24874
 H1371 H 0.64995 0.29747 0.24686
 H1372 H 0.62012 0.32754 0.24669
 C1373 C 0.90673 0.90538 0.25033
 C1374 C 0.90595 0.92367 0.26616
 C1375 C 0.92291 0.94089 0.26560
 C1376 C 0.94076 0.94000 0.24915
 C1377 C 0.94154 0.92154 0.23341
 C1378 C 0.92458 0.90432 0.23399
 C1379 C 0.88912 0.88780 0.25076
 C1380 C 0.87431 0.87313 0.25105
 C1381 C 0.85659 0.85566 0.25130
 C1382 C 0.83325 0.86205 0.25091
 C1383 C 0.81601 0.84511 0.25085
 C1384 C 0.82189 0.82148 0.25117
 C1385 C 0.84544 0.81527 0.25167
 C1386 C 0.86264 0.83226 0.25173
 H1387 H 0.89224 0.92464 0.27889
 H1388 H 0.92214 0.95493 0.27797
 H1389 H 0.95520 0.92058 0.22063
 H1390 H 0.92534 0.89023 0.22167
 H1391 H 0.82838 0.88013 0.25057
 H1392 H 0.79809 0.85054 0.25043
 H1393 H 0.85063 0.79729 0.25189
 H1394 H 0.88067 0.82713 0.25202
 C1395 C 0.40538 0.40562 0.75221
 C1396 C 0.40533 0.42309 0.76896
 C1397 C 0.42253 0.44008 0.76879
 C1398 C 0.43994 0.43970 0.75187
 C1399 C 0.43985 0.42220 0.73505
 C1400 C 0.42265 0.40522 0.73524
 C1401 C 0.38771 0.38810 0.75243
 C1402 C 0.37293 0.37341 0.75255
 C1403 C 0.35530 0.35587 0.75262
 C1404 C 0.33193 0.36213 0.75206
 C1405 C 0.31478 0.34510 0.75184
 C1406 C 0.32079 0.32151 0.75217
 C1407 C 0.34437 0.31541 0.75283
 C1408 C 0.36147 0.33249 0.75305
 H1409 H 0.39203 0.42357 0.78215
 H1410 H 0.42236 0.45347 0.78188
 H1411 H 0.45310 0.42174 0.72181
 H1412 H 0.42283 0.39179 0.72219
 H1413 H 0.32697 0.38019 0.75171
 H1414 H 0.29684 0.35045 0.75130
 H1415 H 0.34964 0.29746 0.75306
 H1416 H 0.37952 0.32745 0.75347
 C1417 C 0.09312 0.24798 0.90539
 C1418 C 0.07133 0.23839 0.90115
 C1419 C 0.05442 0.23852 0.91843
 C1420 C 0.05902 0.24822 0.94036
 C1421 C 0.08110 0.25792 0.94426
 C1422 C 0.09795 0.25777 0.92694
 C1423 C 0.11057 0.24778 0.88764
 C1424 C 0.12529 0.24769 0.87288
 C1425 C 0.14296 0.24768 0.85536
 C1426 C 0.13687 0.24765 0.83195
 C1427 C 0.15405 0.24788 0.81493
 C1428 C 0.17761 0.24816 0.82112
 C1429 C 0.18353 0.24807 0.84474
 C1430 C 0.16631 0.24785 0.86171
 H1431 H 0.06744 0.23068 0.88453
 H1432 H 0.03791 0.23044 0.91481
 H1433 H 0.08519 0.26620 0.96055
 H1434 H 0.11472 0.26539 0.93035
 H1435 H 0.11883 0.24750 0.82685
 H1436 H 0.14884 0.24787 0.79695
 H1437 H 0.20146 0.24824 0.85015
 H1438 H 0.17121 0.24786 0.87979
 C1439 C 0.59438 0.74849 0.40542
 C1440 C 0.59469 0.76546 0.42269
 C1441 C 0.57750 0.76577 0.43969
 C1442 C 0.55983 0.74911 0.43955
 C1443 C 0.55964 0.73209 0.42224
 C1444 C 0.57683 0.73181 0.40524
 C1445 C 0.61201 0.74827 0.38785
 C1446 C 0.62677 0.74815 0.37312
 C1447 C 0.64439 0.74812 0.35552
 C1448 C 0.66777 0.74828 0.36174
 C1449 C 0.68490 0.74849 0.34467
 C1450 C 0.67885 0.74856 0.32108
 C1451 C 0.65525 0.74829 0.31503
 C1452 C 0.63817 0.74808 0.33215
 H1453 H 0.60819 0.77844 0.42299
 H1454 H 0.57789 0.77901 0.45292
 H1455 H 0.54619 0.71906 0.42195
 H1456 H 0.57644 0.71860 0.39197
 H1457 H 0.67277 0.74830 0.37979
 H1458 H 0.70286 0.74864 0.34998
 H1459 H 0.64994 0.74828 0.29708
 H1460 H 0.62011 0.74795 0.32714
 C1461 C 0.90603 0.75167 0.90564
 C1462 C 0.92716 0.74071 0.90141
 C1463 C 0.94430 0.74037 0.91845
 C1464 C 0.94059 0.75101 0.94010
 C1465 C 0.91915 0.76199 0.94406
 C1466 C 0.90206 0.76231 0.92698
 C1467 C 0.88839 0.75194 0.88808
 C1468 C 0.87364 0.75210 0.87336
 C1469 C 0.85603 0.75217 0.85578
 C1470 C 0.86225 0.75205 0.83241
 C1471 C 0.84517 0.75186 0.81530
 C1472 C 0.82157 0.75176 0.82136
 C1473 C 0.81552 0.75200 0.84495
 C1474 C 0.83265 0.75219 0.86201
 H1475 H 0.93037 0.73231 0.88498
 H1476 H 0.96028 0.73127 0.91486
 H1477 H 0.91578 0.77087 0.96021
 H1478 H 0.88578 0.77095 0.93038
 H1479 H 0.88031 0.75204 0.82739
 H1480 H 0.85048 0.75173 0.79735
 H1481 H 0.79756 0.75198 0.85027
 H1482 H 0.82764 0.75229 0.88006
 C1483 C 0.40616 0.25177 0.40494
 C1484 C 0.42344 0.23480 0.40469
 C1485 C 0.44037 0.23449 0.42195
 C1486 C 0.44014 0.25114 0.43961
 C1487 C 0.42284 0.26817 0.43972
 C1488 C 0.40591 0.26847 0.42247
 C1489 C 0.38860 0.25195 0.38730
 C1490 C 0.37385 0.25203 0.37258
 C1491 C 0.35618 0.25201 0.35506
 C1492 C 0.36230 0.25187 0.33165
 C1493 C 0.34515 0.25162 0.31462
 C1494 C 0.32157 0.25148 0.32079
 C1495 C 0.31563 0.25173 0.34440
 C1496 C 0.33282 0.25198 0.36138
 H1497 H 0.42379 0.22181 0.39122
 H1498 H 0.45360 0.22123 0.42163
 H1499 H 0.42248 0.28120 0.45317
 H1500 H 0.39262 0.28167 0.42281
 H1501 H 0.38034 0.25191 0.32657
 H1502 H 0.35037 0.25149 0.29664
 H1503 H 0.29769 0.25167 0.34980
 H1504 H 0.32790 0.25209 0.37946
 C1505 C 0.09330 0.75362 0.09444
 C1506 C 0.07493 0.73788 0.09560
 C1507 C 0.05776 0.73801 0.07858
 C1508 C 0.05878 0.75394 0.06029
 C1509 C 0.07730 0.76961 0.05915
 C1510 C 0.09447 0.76946 0.07617
 C1511 C 0.11096 0.75348 0.11197
 C1512 C 0.12573 0.75331 0.12668
 C1513 C 0.14337 0.75304 0.14423
 C1514 C 0.13719 0.75281 0.16762
 C1515 C 0.15431 0.75236 0.18469
 C1516 C 0.17789 0.75212 0.17858
 C1517 C 0.18390 0.75244 0.15498
 C1518 C 0.16674 0.75289 0.13795
 H1519 H 0.07390 0.72552 0.10963
 H1520 H 0.04370 0.72568 0.07962
 H1521 H 0.07838 0.78196 0.04511
 H1522 H 0.10863 0.78168 0.07508
 H1523 H 0.11914 0.75294 0.17266
 H1524 H 0.14903 0.75218 0.20265
 H1525 H 0.20185 0.75232 0.14963
 H1526 H 0.17171 0.75308 0.11989
 C1527 C 0.59361 0.25198 0.59523
 C1528 C 0.57635 0.23499 0.59546
 C1529 C 0.55944 0.23464 0.57819
 C1530 C 0.55967 0.25127 0.56051
 C1531 C 0.57695 0.26833 0.56041
 C1532 C 0.59386 0.26866 0.57768
 C1533 C 0.61115 0.25218 0.61288
 C1534 C 0.62591 0.25227 0.62760
 C1535 C 0.64361 0.25227 0.64508
 C1536 C 0.63755 0.25209 0.66850
 C1537 C 0.65475 0.25183 0.68549
 C1538 C 0.67831 0.25172 0.67926
 C1539 C 0.68419 0.25202 0.65563
 C1540 C 0.66695 0.25228 0.63870
 H1541 H 0.57600 0.22200 0.60895
 H1542 H 0.54623 0.22137 0.57850
 H1543 H 0.57731 0.28134 0.54695
 H1544 H 0.60713 0.28188 0.57734
 H1545 H 0.61952 0.25209 0.67364
 H1546 H 0.64957 0.25166 0.70348
 H1547 H 0.70211 0.25199 0.65019
 H1548 H 0.67183 0.25243 0.62061
 C1549 C 0.90647 0.24770 0.09450
 C1550 C 0.92590 0.23339 0.09647
 C1551 C 0.94285 0.23350 0.07923
 C1552 C 0.94050 0.24793 0.05984
 C1553 C 0.92101 0.26232 0.05801
 C1554 C 0.90407 0.26218 0.07525
 C1555 C 0.88896 0.24752 0.11217
 C1556 C 0.87421 0.24745 0.12691
 C1557 C 0.85654 0.24746 0.14443
 C1558 C 0.83319 0.24763 0.13809
 C1559 C 0.81598 0.24789 0.15507
 C1560 C 0.82192 0.24799 0.17868
 C1561 C 0.84548 0.24771 0.18486
 C1562 C 0.86265 0.24745 0.16783
 H1563 H 0.92792 0.22212 0.11130
 H1564 H 0.95775 0.22227 0.08091
 H1565 H 0.91898 0.27366 0.04325
 H1566 H 0.88912 0.27335 0.07358
 H1567 H 0.82828 0.24763 0.12001
 H1568 H 0.79805 0.24806 0.14967
 H1569 H 0.85070 0.24773 0.20284
 H1570 H 0.88069 0.24730 0.17292
 C1571 C 0.40530 0.74819 0.59422
 C1572 C 0.42287 0.73152 0.59435
 C1573 C 0.44004 0.73185 0.57733
 C1574 C 0.43982 0.74890 0.56005
 C1575 C 0.42213 0.76554 0.55996
 C1576 C 0.40496 0.76518 0.57698
 C1577 C 0.38770 0.74793 0.61181
 C1578 C 0.37296 0.74780 0.62657
 C1579 C 0.35539 0.74776 0.64419
 C1580 C 0.36164 0.74771 0.66756
 C1581 C 0.34459 0.74793 0.68470
 C1582 C 0.32098 0.74822 0.67869
 C1583 C 0.31489 0.74814 0.65512
 C1584 C 0.33199 0.74793 0.63802
 H1585 H 0.42329 0.71829 0.60760
 H1586 H 0.45351 0.71884 0.57759
 H1587 H 0.42172 0.77881 0.54675
 H1588 H 0.39145 0.77816 0.57671
 H1589 H 0.37971 0.74757 0.67253
 H1590 H 0.34993 0.74793 0.70265
 H1591 H 0.29692 0.74831 0.64984
 H1592 H 0.32696 0.74795 0.61997
 C1593 C 0.24840 0.09401 0.90587
 C1594 C 0.23353 0.07498 0.90417
 C1595 C 0.23369 0.05791 0.92128
 C1596 C 0.24872 0.05974 0.94027
 C1597 C 0.26367 0.07882 0.94183
 C1598 C 0.26348 0.09588 0.92472
 C1599 C 0.24817 0.11164 0.88832
 C1600 C 0.24803 0.12643 0.87364
 C1601 C 0.24795 0.14409 0.85611
 C1602 C 0.24810 0.13794 0.83272
 C1603 C 0.24823 0.15506 0.81566
 C1604 C 0.24821 0.17863 0.82178
 C1605 C 0.24796 0.18461 0.84538
 C1606 C 0.24784 0.16744 0.86240
 H1607 H 0.22180 0.07336 0.88965
 H1608 H 0.22202 0.04333 0.91982
 H1609 H 0.27546 0.08044 0.95628
 H1610 H 0.27508 0.11051 0.92618
 H1611 H 0.24818 0.11991 0.82766
 H1612 H 0.24837 0.14980 0.79769
 H1613 H 0.24790 0.20254 0.85073
 H1614 H 0.24771 0.17239 0.88046
 C1615 C 0.74956 0.59488 0.40594
 C1616 C 0.73286 0.57736 0.40583
 C1617 C 0.73322 0.56017 0.42281
 C1618 C 0.75035 0.56034 0.44003
 C1619 C 0.76701 0.57800 0.44012
 C1620 C 0.76662 0.59519 0.42314
 C1621 C 0.74929 0.61246 0.38835
 C1622 C 0.74912 0.62716 0.37359
 C1623 C 0.74901 0.64470 0.35595
 C1624 C 0.74907 0.63841 0.33259
 C1625 C 0.74917 0.65543 0.31543
 C1626 C 0.74923 0.67903 0.32142
 C1627 C 0.74906 0.68514 0.34499
 C1628 C 0.74896 0.66808 0.36211
 H1629 H 0.71958 0.57697 0.39262
 H1630 H 0.72020 0.54671 0.42256
 H1631 H 0.78034 0.57836 0.45327
 H1632 H 0.77962 0.60867 0.42338
 H1633 H 0.74909 0.62035 0.32764
 H1634 H 0.74925 0.65008 0.29749
 H1635 H 0.74905 0.70310 0.35025
 H1636 H 0.74890 0.67313 0.38014
 C1637 C 0.75168 0.09377 0.09415
 C1638 C 0.73655 0.07496 0.09598
 C1639 C 0.73627 0.05792 0.07884
 C1640 C 0.75113 0.05955 0.05969
 C1641 C 0.76635 0.07841 0.05801
 C1642 C 0.76660 0.09545 0.07515
 C1643 C 0.75181 0.11141 0.11170
 C1644 C 0.75187 0.12621 0.12637
 C1645 C 0.75186 0.14388 0.14389
 C1646 C 0.75152 0.13776 0.16728
 C1647 C 0.75132 0.15489 0.18432
 C1648 C 0.75144 0.17846 0.17819
 C1649 C 0.75186 0.18441 0.15458
 C1650 C 0.75206 0.16723 0.13758
 H1651 H 0.72493 0.07350 0.11061
 H1652 H 0.72439 0.04352 0.08040
 H1653 H 0.77801 0.07990 0.04343
 H1654 H 0.77839 0.10992 0.07358
 H1655 H 0.75136 0.11973 0.17236
 H1656 H 0.75103 0.14965 0.20229
 H1657 H 0.75202 0.20234 0.14921
 H1658 H 0.75234 0.17216 0.11951
 C1659 C 0.25103 0.59461 0.59406
 C1660 C 0.23414 0.57726 0.59432
 C1661 C 0.23416 0.56009 0.57732
 C1662 C 0.25112 0.56011 0.55993
 C1663 C 0.26795 0.57760 0.55968
 C1664 C 0.26791 0.59477 0.57669
 C1665 C 0.25105 0.61220 0.61165
 C1666 C 0.25105 0.62691 0.62641
 C1667 C 0.25099 0.64446 0.64404
 C1668 C 0.25071 0.63819 0.66740
 C1669 C 0.25052 0.65522 0.68454
 C1670 C 0.25059 0.67881 0.67853
 C1671 C 0.25094 0.68491 0.65496
 C1672 C 0.25113 0.66783 0.63786
 H1673 H 0.22099 0.57699 0.60767
 H1674 H 0.22100 0.54677 0.57768
 H1675 H 0.28114 0.57785 0.54638
 H1676 H 0.28104 0.60813 0.57632
 H1677 H 0.25061 0.62013 0.67236
 H1678 H 0.25030 0.64988 0.70248
 H1679 H 0.25106 0.70287 0.64969
 H1680 H 0.25136 0.67287 0.61982
 C1681 C 0.75151 0.90617 0.90548
 C1682 C 0.73647 0.92506 0.90360
 C1683 C 0.73623 0.94210 0.92074
 C1684 C 0.75102 0.94040 0.93992
 C1685 C 0.76614 0.92146 0.94166
 C1686 C 0.76636 0.90443 0.92452
 C1687 C 0.75162 0.88852 0.88794
 C1688 C 0.75166 0.87371 0.87327
 C1689 C 0.75164 0.85604 0.85576
 C1690 C 0.75139 0.86215 0.83236
 C1691 C 0.75120 0.84501 0.81533
 C1692 C 0.75124 0.82145 0.82148
 C1693 C 0.75157 0.81550 0.84509
 C1694 C 0.75176 0.83269 0.86208
 H1695 H 0.72491 0.92657 0.88894
 H1696 H 0.72442 0.95656 0.91914
 H1697 H 0.77774 0.91993 0.95627
 H1698 H 0.77807 0.88990 0.92613
 H1699 H 0.75130 0.88018 0.82728
 H1700 H 0.75100 0.85025 0.79736
 H1701 H 0.75166 0.79758 0.85047
 H1702 H 0.75196 0.82777 0.88015
 C1703 C 0.25151 0.40517 0.40586
 C1704 C 0.23458 0.42249 0.40556
 C1705 C 0.23453 0.43967 0.42254
 C1706 C 0.25145 0.43971 0.43996
 C1707 C 0.26833 0.42226 0.44025
 C1708 C 0.26835 0.40507 0.42326
 C1709 C 0.25159 0.38756 0.38830
 C1710 C 0.25162 0.37283 0.37356
 C1711 C 0.25158 0.35528 0.35594
 C1712 C 0.25122 0.36154 0.33258
 C1713 C 0.25101 0.34450 0.31544
 C1714 C 0.25114 0.32091 0.32145
 C1715 C 0.25159 0.31482 0.34503
 C1716 C 0.25180 0.33190 0.36212
 H1717 H 0.22145 0.42271 0.39220
 H1718 H 0.22133 0.45296 0.42215
 H1719 H 0.28149 0.42205 0.45357
 H1720 H 0.28151 0.39174 0.42366
 H1721 H 0.25107 0.37960 0.32761
 H1722 H 0.25071 0.34984 0.29750
 H1723 H 0.25175 0.29687 0.35030
 H1724 H 0.25209 0.32687 0.38016
 C1725 C 0.24869 0.90577 0.09396
 C1726 C 0.26379 0.90397 0.07512
 C1727 C 0.26393 0.92105 0.05803
 C1728 C 0.24891 0.94008 0.05959
 C1729 C 0.23387 0.94184 0.07859
 C1730 C 0.23376 0.92476 0.09568
 C1731 C 0.24850 0.88812 0.11150
 C1732 C 0.24839 0.87332 0.12617
 C1733 C 0.24832 0.85567 0.14371
 C1734 C 0.24821 0.83232 0.13743
 C1735 C 0.24832 0.81516 0.15446
 C1736 C 0.24856 0.82116 0.17806
 C1737 C 0.24858 0.84473 0.18416
 C1738 C 0.24847 0.86184 0.16709
 H1739 H 0.27544 0.88938 0.07365
 H1740 H 0.27574 0.91948 0.04357
 H1741 H 0.22215 0.95638 0.08006
 H1742 H 0.22201 0.92632 0.11019
 H1743 H 0.24808 0.82736 0.11937
 H1744 H 0.24825 0.79722 0.14912
 H1745 H 0.24871 0.85000 0.20212
 H1746 H 0.24854 0.87987 0.17214
 C1747 C 0.74923 0.40501 0.59360
 C1748 C 0.76628 0.40468 0.57640
 C1749 C 0.76673 0.42189 0.55945
 C1750 C 0.75013 0.43960 0.55957
 C1751 C 0.73299 0.43980 0.57679
 C1752 C 0.73257 0.42259 0.59374
 C1753 C 0.74891 0.38741 0.61117
 C1754 C 0.74871 0.37270 0.62593
 C1755 C 0.74859 0.35518 0.64358
 C1756 C 0.74838 0.33179 0.63744
 C1757 C 0.74851 0.31474 0.65457
 C1758 C 0.74888 0.32088 0.67813
 C1759 C 0.74899 0.34448 0.68410
 C1760 C 0.74885 0.36149 0.66692
 H1761 H 0.77925 0.39116 0.57614
 H1762 H 0.78006 0.42151 0.54629
 H1763 H 0.72001 0.45329 0.57706
 H1764 H 0.71930 0.42299 0.60696
 H1765 H 0.74817 0.32672 0.61941
 H1766 H 0.74837 0.29678 0.64933
 H1767 H 0.74923 0.34985 0.70203
 H1768 H 0.74901 0.37955 0.67186
 C1769 C 0.09423 0.09389 0.75185
 C1770 C 0.07348 0.09720 0.76381
 C1771 C 0.05655 0.07996 0.76377
 C1772 C 0.06014 0.05900 0.75181
 C1773 C 0.08113 0.05601 0.73970
 C1774 C 0.09800 0.07330 0.73977
 C1775 C 0.11168 0.11162 0.75195
 C1776 C 0.12634 0.12643 0.75199
 C1777 C 0.14387 0.14407 0.75198
 C1778 C 0.13758 0.16741 0.75206
 C1779 C 0.15461 0.18457 0.75186
 C1780 C 0.17822 0.17857 0.75157
 C1781 C 0.18434 0.15501 0.75158
 C1782 C 0.16727 0.13790 0.75177
 H1783 H 0.07041 0.11308 0.77326
 H1784 H 0.04082 0.08279 0.77356
 H1785 H 0.08428 0.04049 0.72972
 H1786 H 0.11396 0.07064 0.73030
 H1787 H 0.11950 0.17236 0.75223
 H1788 H 0.14925 0.20250 0.75192
 H1789 H 0.20232 0.14975 0.75140
 H1790 H 0.17232 0.11987 0.75172
 C1791 C 0.59460 0.59436 0.25164
 C1792 C 0.57726 0.59470 0.23474
 C1793 C 0.56009 0.57767 0.23463
 C1794 C 0.56010 0.56018 0.25147
 C1795 C 0.57758 0.55987 0.26832
 C1796 C 0.59475 0.57689 0.26840
 C1797 C 0.61221 0.61196 0.25178
 C1798 C 0.62694 0.62672 0.25184
 C1799 C 0.64450 0.64436 0.25185
 C1800 C 0.63823 0.66772 0.25186
 C1801 C 0.65527 0.68487 0.25165
 C1802 C 0.67888 0.67888 0.25142
 C1803 C 0.68498 0.65531 0.25151
 C1804 C 0.66790 0.63820 0.25171
 H1805 H 0.57700 0.60811 0.22167
 H1806 H 0.54679 0.57810 0.22145
 H1807 H 0.57783 0.54649 0.28141
 H1808 H 0.60810 0.57646 0.28153
 H1809 H 0.62015 0.67268 0.25197
 H1810 H 0.64992 0.70281 0.25164
 H1811 H 0.70296 0.65004 0.25138
 H1812 H 0.67295 0.62016 0.25172
 C1813 C 0.09442 0.90618 0.24822
 C1814 C 0.07372 0.90283 0.23619
 C1815 C 0.05674 0.92003 0.23621
 C1816 C 0.06023 0.94097 0.24823
 C1817 C 0.08116 0.94398 0.26042
 C1818 C 0.09809 0.92675 0.26036
 C1819 C 0.11192 0.88850 0.24812
 C1820 C 0.12661 0.87372 0.24808
 C1821 C 0.14416 0.85609 0.24808
 C1822 C 0.16756 0.86224 0.24802
 C1823 C 0.18463 0.84513 0.24818
 C1824 C 0.17849 0.82157 0.24842
 C1825 C 0.15487 0.81559 0.24839
 C1826 C 0.13785 0.83274 0.24823
 H1827 H 0.07073 0.88697 0.22669
 H1828 H 0.04106 0.91717 0.22636
 H1829 H 0.08424 0.95950 0.27044
 H1830 H 0.11400 0.92943 0.26988
 H1831 H 0.17262 0.88027 0.24789
 H1832 H 0.20261 0.85037 0.24815
 H1833 H 0.14950 0.79766 0.24852
 H1834 H 0.11978 0.82780 0.24826
 C1835 C 0.59491 0.40593 0.74986
 C1836 C 0.59525 0.42316 0.76687
 C1837 C 0.57802 0.44012 0.76730
 C1838 C 0.56028 0.43998 0.75072
 C1839 C 0.56007 0.42271 0.73365
 C1840 C 0.57730 0.40575 0.73325
 C1841 C 0.61256 0.38837 0.74953
 C1842 C 0.62730 0.37363 0.74930
 C1843 C 0.64486 0.35598 0.74910
 C1844 C 0.66827 0.36213 0.74884
 C1845 C 0.68534 0.34501 0.74883
 C1846 C 0.67922 0.32144 0.74911
 C1847 C 0.65560 0.31547 0.74928
 C1848 C 0.63858 0.33263 0.74929
 H1849 H 0.60880 0.42346 0.77981
 H1850 H 0.57843 0.45331 0.78058
 H1851 H 0.54656 0.42242 0.72068
 H1852 H 0.57687 0.39251 0.72001
 H1853 H 0.67333 0.38016 0.74868
 H1854 H 0.70332 0.35026 0.74865
 H1855 H 0.65024 0.29753 0.74945
 H1856 H 0.62050 0.32768 0.74948
 C1857 C 0.90590 0.09434 0.24875
 C1858 C 0.90526 0.07680 0.26542
 C1859 C 0.92233 0.05970 0.26567
 C1860 C 0.94018 0.05999 0.24920
 C1861 C 0.94080 0.07766 0.23257
 C1862 C 0.92372 0.09476 0.23235
 C1863 C 0.88829 0.11190 0.24848
 C1864 C 0.87352 0.12660 0.24831
 C1865 C 0.85591 0.14416 0.24819
 C1866 C 0.86213 0.16753 0.24797
 C1867 C 0.84506 0.18462 0.24807
 C1868 C 0.82146 0.17857 0.24840
 C1869 C 0.81541 0.15499 0.24851
 C1870 C 0.83253 0.13793 0.24842
 H1871 H 0.89156 0.07634 0.27820
 H1872 H 0.92167 0.04623 0.27866
 H1873 H 0.95446 0.07810 0.21975
 H1874 H 0.92439 0.10826 0.21939
 H1875 H 0.88019 0.17253 0.24777
 H1876 H 0.85037 0.20257 0.24791
 H1877 H 0.79744 0.14968 0.24873
 H1878 H 0.82754 0.11988 0.24858
 C1879 C 0.40504 0.59393 0.74922
 C1880 C 0.40462 0.57676 0.76629
 C1881 C 0.42181 0.55976 0.76681
 C1882 C 0.43957 0.55979 0.75025
 C1883 C 0.43985 0.57697 0.73310
 C1884 C 0.42267 0.59398 0.73261
 C1885 C 0.38746 0.61154 0.74882
 C1886 C 0.37276 0.62633 0.74856
 C1887 C 0.35523 0.64400 0.74836
 C1888 C 0.36155 0.66735 0.74811
 C1889 C 0.34454 0.68453 0.74819
 C1890 C 0.32092 0.67859 0.74855
 C1891 C 0.31477 0.65503 0.74868
 C1892 C 0.33182 0.63789 0.74860
 H1893 H 0.39106 0.57656 0.77922
 H1894 H 0.42135 0.54663 0.78015
 H1895 H 0.45339 0.57718 0.72015
 H1896 H 0.42315 0.60716 0.71932
 H1897 H 0.37963 0.67227 0.74791
 H1898 H 0.34992 0.70246 0.74802
 H1899 H 0.29678 0.64980 0.74892
 H1900 H 0.32673 0.61986 0.74880
 C1901 C 0.90600 0.90545 0.75127
 C1902 C 0.92377 0.90511 0.76772
 C1903 C 0.94083 0.92224 0.76749
 C1904 C 0.94023 0.93985 0.75080
 C1905 C 0.92243 0.94007 0.73429
 C1906 C 0.90537 0.92294 0.73455
 C1907 C 0.88841 0.88788 0.75154
 C1908 C 0.87365 0.87317 0.75172
 C1909 C 0.85603 0.85561 0.75183
 C1910 C 0.83266 0.86186 0.75153
 C1911 C 0.81552 0.84481 0.75141
 C1912 C 0.82156 0.82123 0.75156
 C1913 C 0.84515 0.81516 0.75197
 C1914 C 0.86224 0.83224 0.75210
 H1915 H 0.92442 0.89165 0.78072
 H1916 H 0.95445 0.92185 0.78034
 H1917 H 0.92179 0.95349 0.72125
 H1918 H 0.89172 0.92334 0.72173
 H1919 H 0.82767 0.87991 0.75133
 H1920 H 0.79757 0.85013 0.75113
 H1921 H 0.85045 0.79720 0.75215
 H1922 H 0.88030 0.82723 0.75235
 C1923 C 0.40532 0.40568 0.25138
 C1924 C 0.40517 0.42311 0.26819
 C1925 C 0.42234 0.44013 0.26815
 C1926 C 0.43982 0.43986 0.25130
 C1927 C 0.43983 0.42242 0.23441
 C1928 C 0.42266 0.40539 0.23448
 C1929 C 0.38772 0.38808 0.25149
 C1930 C 0.37300 0.37331 0.25154
 C1931 C 0.35546 0.35565 0.25154
 C1932 C 0.33205 0.36179 0.25148
 C1933 C 0.31498 0.34466 0.25130
 C1934 C 0.32111 0.32110 0.25116
 C1935 C 0.34473 0.31513 0.25131
 C1936 C 0.36176 0.33230 0.25149
 H1937 H 0.39182 0.42350 0.28134
 H1938 H 0.42209 0.45347 0.28129
 H1939 H 0.45313 0.42203 0.22122
 H1940 H 0.42292 0.39201 0.22137
 H1941 H 0.32698 0.37982 0.25153
 H1942 H 0.29700 0.34991 0.25123
 H1943 H 0.35010 0.29720 0.25126
 H1944 H 0.37983 0.32736 0.25155
   
