data_POSCAR
  _audit_creation_date              2014-09-24
  _audit_creation_method            'ToBaCCo'
  _symmetry_space_group_name_H-M    'P1'
  _symmetry_Int_Tables_number       1
  _symmetry_cell_setting            triclinic
  loop_
  _symmetry_equiv_pos_as_xyz
 x,y,z
_cell_length_a 72.2166
_cell_length_b 71.9635
_cell_length_c 72.0239
_cell_angle_alpha 90.035700
_cell_angle_beta 90.077500
_cell_angle_gamma 90.024900
loop_
  _atom_site_label
  _atom_site_type_symbol
  _atom_site_fract_x
  _atom_site_fract_y
  _atom_site_fract_z
C1 C 0.30619 0.44440 0.92155
 N2 N 0.32181 0.45189 0.92893
 C3 C 0.32942 0.44440 0.94446
 N4 N 0.32154 0.42928 0.95247
 C5 C 0.30592 0.42179 0.94510
 N6 N 0.29832 0.42929 0.92957
 C7 C 0.44569 0.82772 0.44558
 N8 N 0.43041 0.81988 0.45325
 C9 C 0.42271 0.80457 0.44538
 N10 N 0.43014 0.79725 0.42970
 C11 C 0.44542 0.80509 0.42203
 N12 N 0.45311 0.82039 0.42990
 C13 C 0.94383 0.92177 0.80592
 N14 N 0.95184 0.92953 0.82111
 C15 C 0.94444 0.94506 0.82881
 N16 N 0.92888 0.95267 0.82146
 C17 C 0.92087 0.94491 0.80626
 N18 N 0.92828 0.92939 0.79857
 C19 C 0.44366 -0.07893 0.30471
 N20 N 0.45165 -0.07116 0.31991
 C21 C 0.44428 -0.05560 0.32757
 N22 N 0.42877 -0.04795 0.32016
 C23 C 0.42077 -0.05571 0.30495
 N24 N 0.42816 -0.07127 0.29730
 C25 C 0.80580 0.30537 0.32797
 N26 N 0.82135 0.29784 0.32056
 C27 C 0.82930 0.30570 0.30541
 N28 N 0.82182 0.32124 0.29781
 C29 C 0.80627 0.32878 0.30522
 N30 N 0.79833 0.32091 0.32036
 C31 C -0.19399 0.82956 0.80586
 N32 N -0.20188 0.82171 0.82104
 C33 C -0.19436 0.80621 0.82867
 N34 N -0.17880 0.79870 0.82125
 C35 C -0.17090 0.80654 0.80607
 N36 N -0.17844 0.82204 0.79845
 C37 C 0.94479 0.32802 0.44444
 N38 N 0.92966 0.32006 0.45227
 C39 C 0.92222 0.30447 0.44470
 N40 N 0.92976 0.29699 0.42915
 C41 C 0.94489 0.30495 0.42131
 N42 N 0.95233 0.32053 0.42889
 C43 C 0.44340 0.44357 0.83013
 N44 N 0.42798 0.45121 0.82253
 C45 C 0.42030 0.44357 0.80711
 N46 N 0.42791 0.42815 0.79941
 C47 C 0.44334 0.42051 0.80700
 N48 N 0.45101 0.42815 0.82243
 C49 C 0.80542 0.92228 0.94565
 N50 N 0.82075 0.93008 0.95329
 C51 C 0.82847 0.94536 0.94541
 N52 N 0.82099 0.95268 0.92974
 C53 C 0.80566 0.94488 0.92209
 N54 N 0.79795 0.92961 0.92998
 C55 C 0.30617 0.82997 0.30529
 N56 N 0.32173 0.82244 0.29789
 C57 C 0.32925 0.80694 0.30551
 N58 N 0.32134 0.79909 0.32068
 C59 C 0.30577 0.80661 0.32809
 N60 N 0.29826 0.82211 0.32046
 C61 C 0.80599 0.42184 0.44444
 N62 N 0.82150 0.42947 0.45189
 C63 C 0.82928 0.44466 0.44392
 N64 N 0.82168 0.45208 0.42836
 C65 C 0.80618 0.44444 0.42090
 N66 N 0.79840 0.42925 0.42888
 C67 C 0.94583 0.82756 -0.05505
 N68 N 0.93056 0.81970 -0.04737
 C69 C 0.92287 0.80438 -0.05523
 N70 N 0.93030 0.79706 -0.07091
 C71 C 0.94557 0.80491 -0.07860
 N72 N 0.95325 0.82023 -0.07073
 C73 C 0.30622 0.32883 0.80571
 N74 N 0.32172 0.32113 0.79835
 C75 C 0.32907 0.30557 0.80602
 N76 N 0.32105 0.29784 0.82119
 C77 C 0.30555 0.30552 0.82855
 N78 N 0.29821 0.32108 0.82088
 C79 C 0.17302 0.55478 0.55396
 N80 N 0.18068 0.54696 0.56929
 C81 C 0.19593 0.55468 0.57717
 N82 N 0.20337 0.57038 0.56987
 C83 C 0.19571 0.57821 0.55454
 N84 N 0.18046 0.57047 0.54666
 C85 C 0.57871 0.69546 0.05454
 N86 N 0.57099 0.70339 0.06978
 C87 C 0.55532 0.69612 0.07721
 N88 N 0.54751 0.68078 0.06953
 C89 C 0.55520 0.67285 0.05428
 N90 N 0.57087 0.68012 0.04686
 C91 C 0.69499 0.19543 0.67211
 N92 N 0.70283 0.18016 0.67987
 C93 C 0.69555 0.17275 0.69557
 N94 N 0.68029 0.18047 0.70337
 C95 C 0.67244 0.19575 0.69562
 N96 N 0.67972 0.20315 0.67991
 C97 C 1.07799 0.05352 0.19479
 N98 N 1.07014 0.06882 0.20249
 C99 C 1.05480 0.07644 0.19471
 N100 N 1.04744 0.06890 0.17908
 C101 C 1.05528 0.05360 0.17136
 N102 N 1.07062 0.04599 0.17915
 C103 C 0.05610 0.16976 1.05650
 N104 N 0.07161 0.17723 1.04894
 C105 C 0.07912 0.19287 1.05633
 N106 N 0.07124 0.20091 1.07142
 C107 C 0.05573 0.19346 1.07899
 N108 N 0.04823 0.17782 1.07160
 C109 C 0.17240 0.69616 0.69544
 N110 N 0.18024 0.68083 0.70309
 C111 C 0.19551 0.67316 0.69524
 N112 N 0.20278 0.68068 0.67959
 C113 C 0.19494 0.69600 0.67193
 N114 N 0.17968 0.70367 0.67979
 C115 C 1.19560 0.17194 0.19455
 N116 N 1.20285 0.17951 0.17890
 C117 C 1.19501 0.19486 0.17130
 N118 N 1.17976 0.20251 0.17921
 C119 C 1.17250 0.19496 0.19486
 N120 N 1.18035 0.17960 0.20245
 C121 C 0.67083 1.05647 0.55537
 N122 N 0.67858 1.04841 0.57053
 C123 C 0.69411 1.05577 0.57821
 N124 N 0.70175 1.07134 0.57086
 C125 C 0.69402 1.07942 0.55570
 N126 N 0.67849 1.07204 0.54802
 C127 C 0.55366 0.55362 0.17348
 N128 N 0.56911 0.54609 0.18112
 C129 C 0.57679 0.55386 0.19648
 N130 N 0.56915 0.56934 0.20405
 C131 C 0.55369 0.57688 0.19641
 N132 N 0.54603 0.56909 0.18105
 C133 C 0.67251 0.69615 0.19511
 N134 N 0.67976 0.70364 0.17943
 C135 C 0.69501 0.69597 0.17155
 N136 N 0.70287 0.68066 0.17922
 C137 C 0.69563 0.67316 0.19490
 N138 N 0.68037 0.68083 0.20277
 C139 C 0.17017 0.05526 1.05531
 N140 N 0.17781 0.07080 1.04788
 C141 C 0.19336 0.07820 1.05548
 N142 N 0.20115 0.07018 1.07064
 C143 C 0.19353 0.05463 1.07807
 N144 N 0.17797 0.04725 1.07047
 C145 C 0.57902 0.19457 0.55537
 N146 N 0.57119 0.20253 0.57054
 C147 C 0.55569 0.19504 0.57810
 N148 N 0.54816 0.17945 0.57064
 C149 C 0.55598 0.17149 0.55548
 N150 N 0.57148 0.17898 0.54792
 C151 C 0.07668 0.55373 0.69674
 N152 N 0.06894 0.56916 0.70429
 C153 C 0.05357 0.57672 0.69652
 N154 N 0.04609 0.56900 0.68103
 C155 C 0.05382 0.55357 0.67348
 N156 N 0.06919 0.54602 0.68126
 C157 C 0.67247 0.55482 0.05351
 N158 N 0.67989 0.57050 0.04614
 C159 C 0.69521 0.57821 0.05391
 N160 N 0.70296 0.57038 0.06919
 C161 C 0.69555 0.55471 0.07656
 N162 N 0.68023 0.54701 0.06879
 C163 C 0.05508 0.69597 0.57757
 N164 N 0.07076 0.70330 0.57022
 C165 C 0.07852 0.69548 0.55495
 N166 N 0.07072 0.68018 0.54717
 C167 C 0.05504 0.67284 0.55451
 N168 N 0.04730 0.68066 0.56979
 C169 C 0.55474 1.05429 0.67108
 N170 N 0.57002 1.04656 0.67890
 C171 C 0.57732 1.05396 0.69463
 N172 N 0.56949 1.06923 0.70240
 C173 C 0.55421 1.07696 0.69459
 N174 N 0.54692 1.06956 0.67887
 C175 C 0.44375 0.32940 0.94464
 N176 N 0.45132 0.32193 0.92909
 C177 C 0.44392 0.30633 0.92151
 N178 N 0.42883 0.29831 0.92936
 C179 C 0.42127 0.30576 0.94491
 N180 N 0.42866 0.32137 0.95247
 C181 C 0.94298 0.44257 0.33035
 N182 N 0.92764 0.45039 0.32276
 C183 C 0.91992 0.44293 0.30727
 N184 N 0.92743 0.42750 0.29948
 C185 C 0.94277 0.41967 0.30705
 N186 N 0.95048 0.42714 0.32255
 C187 C 0.30568 0.94570 0.42126
 N188 N 0.29785 0.93050 0.42917
 C189 C 0.30521 0.92320 0.44491
 N190 N 0.32055 0.93095 0.45259
 C191 C 0.32838 0.94616 0.44469
 N192 N 0.32101 0.95345 0.42895
 O193 O 0.24878 0.54978 0.72618
 O194 O 0.28038 0.54383 0.72865
 O195 O 0.22643 0.50092 0.70067
 O196 O 0.22577 0.47034 0.70622
 O197 O 0.20046 0.52398 0.74946
 O198 O 0.20744 0.52275 0.78176
 O199 O 0.27430 0.45175 0.75099
 O200 O 0.27065 0.45701 0.71946
 O201 O 0.29839 0.49896 0.77415
 O202 O 0.29193 0.53241 0.77295
 O203 O 0.25141 0.47631 0.79876
 O204 O 0.21831 0.47713 0.79238
 O205 O 0.25208 0.45164 0.77345
 O206 O 0.21773 0.45839 0.77165
 O207 O 0.27354 0.49882 0.79895
 O208 O 0.27146 0.53301 0.79190
 O209 O 0.29831 0.47629 0.75209
 O210 O 0.29222 0.48249 0.71851
 O211 O 0.22681 0.54993 0.74893
 O212 O 0.22840 0.54294 0.78189
 O213 O 0.20032 0.50161 0.72707
 O214 O 0.20798 0.46806 0.72997
 O215 O 0.24831 0.52375 0.70072
 O216 O 0.28168 0.51967 0.70810
 Zr217 Zr 0.25988 0.52280 0.72758
 O218 O 0.27769 0.50667 0.74421
 Zr219 Zr 0.22718 0.49019 0.72783
 O220 O 0.24395 0.47245 0.74389
 Zr221 Zr 0.22748 0.52294 0.76039
 O222 O 0.24373 0.50638 0.77819
 Zr223 Zr 0.27206 0.47845 0.73955
 O224 O 0.25535 0.49450 0.72148
 Zr225 Zr 0.27187 0.51096 0.77243
 O226 O 0.25560 0.52894 0.75589
 Zr227 Zr 0.23951 0.47809 0.77215
 O228 O 0.22126 0.49466 0.75609
 O229 O 0.23183 0.51827 0.73231
 O230 O 0.26761 0.48273 0.76782
 C231 C 0.23606 0.55770 0.73580
 C232 C 0.23562 0.51403 0.69284
 C233 C 0.19254 0.51452 0.73659
 C234 C 0.26531 0.44402 0.76427
 C235 C 0.30597 0.48551 0.76526
 C236 C 0.26455 0.48547 0.80653
 H237 H 0.29071 0.50965 0.74116
 H238 H 0.24065 0.50934 0.79123
 H239 H 0.22388 0.52617 0.72437
 H240 H 0.24120 0.45937 0.74071
 H241 H 0.26665 0.46291 0.70770
 H242 H 0.23531 0.46087 0.70890
 H243 H 0.26097 0.53087 0.80045
 H244 H 0.24050 0.54932 0.78083
 H245 H 0.30100 0.47191 0.71901
 H246 H 0.28054 0.52953 0.69853
 H247 H 0.21883 0.48886 0.79952
 H248 H 0.20171 0.51025 0.78156
 H249 H 0.28013 0.54902 0.74138
 H250 H 0.29940 0.53139 0.76150
 H251 H 0.20068 0.47024 0.74139
 H252 H 0.22009 0.44969 0.76128
 O253 O 0.20033 0.02402 0.24817
 O254 O 0.20648 0.02176 0.27986
 O255 O 0.24885 0.04952 0.22545
 O256 O 0.27932 0.04398 0.22462
 O257 O 0.22568 0.00056 0.19974
 O258 O 0.22717 -0.03178 0.20681
 O259 O 0.29824 -0.00052 0.27342
 O260 O 0.29296 0.03102 0.26962
 O261 O 0.25139 -0.02355 0.29791
 O262 O 0.21803 -0.02250 0.29156
 O263 O 0.27372 -0.04847 0.25073
 O264 O 0.27267 -0.04230 0.21756
 O265 O 0.29824 -0.02310 0.25120
 O266 O 0.29126 -0.02147 0.21676
 O267 O 0.25148 -0.04855 0.27309
 O268 O 0.21737 -0.04160 0.27113
 O269 O 0.27393 -0.00142 0.29763
 O270 O 0.26769 0.03212 0.29135
 O271 O 0.20009 0.00108 0.22627
 O272 O 0.20716 -0.03186 0.22793
 O273 O 0.24793 0.02300 0.19940
 O274 O 0.28148 0.02009 0.20687
 O275 O 0.22622 0.04956 0.24747
 O276 O 0.23052 0.04239 0.28095
 Zr277 Zr 0.22730 0.02274 0.25919
 O278 O 0.24353 0.00624 0.27704
 Zr279 Zr 0.25958 0.02235 0.22625
 O280 O 0.27740 0.00641 0.24304
 Zr281 Zr 0.22702 -0.01030 0.22684
 O282 O 0.24366 -0.02798 0.24313
 Zr283 Zr 0.27161 0.01091 0.27124
 O284 O 0.25547 0.02887 0.25449
 Zr285 Zr 0.23928 -0.02205 0.27135
 O286 O 0.22122 -0.00563 0.25505
 Zr287 Zr 0.27181 -0.02190 0.23873
 O288 O 0.25514 -0.00598 0.22044
 O289 O 0.23164 0.01784 0.23108
 O290 O 0.26737 -0.01742 0.26691
 C291 C 0.19238 0.01427 0.23551
 C292 C 0.23583 0.05739 0.23468
 C293 C 0.23499 0.01346 0.19173
 C294 C 0.30590 -0.01385 0.26441
 C295 C 0.26479 -0.01455 0.30543
 C296 C 0.26472 -0.05617 0.26400
 H297 H 0.24064 0.00937 0.29009
 H298 H 0.24072 -0.04105 0.24011
 H299 H 0.22369 0.02573 0.22313
 H300 H 0.29041 0.00960 0.24020
 H301 H 0.28704 0.04275 0.26557
 H302 H 0.28884 0.04137 0.23414
 H303 H 0.21947 -0.05024 0.26066
 H304 H 0.20091 -0.03078 0.24010
 H305 H 0.27829 0.03170 0.30011
 H306 H 0.22067 0.05193 0.27981
 H307 H 0.26094 -0.04937 0.21810
 H308 H 0.23955 -0.03149 0.20092
 H309 H 0.20131 0.00902 0.27966
 H310 H 0.21903 -0.01096 0.29896
 H311 H 0.27920 0.00866 0.19955
 H312 H 0.29995 -0.01109 0.21906
 O313 O 0.50128 0.70111 0.22572
 O314 O 0.46969 0.70707 0.22802
 O315 O 0.52362 0.75000 0.20023
 O316 O 0.52424 0.78059 0.20580
 O317 O 0.54959 0.72694 0.24899
 O318 O 0.54268 0.72832 0.28132
 O319 O 0.47567 0.79916 0.25043
 O320 O 0.47934 0.79387 0.21891
 O321 O 0.45166 0.75198 0.27354
 O322 O 0.45813 0.71852 0.27232
 O323 O 0.49868 0.77462 0.29829
 O324 O 0.53170 0.77394 0.29197
 O325 O 0.49787 0.79931 0.27297
 O326 O 0.53227 0.79261 0.27120
 O327 O 0.47656 0.75209 0.29841
 O328 O 0.47860 0.71793 0.29130
 O329 O 0.45170 0.77460 0.25145
 O330 O 0.45780 0.76836 0.21788
 O331 O 0.52324 0.70102 0.24854
 O332 O 0.52176 0.70810 0.28147
 O333 O 0.54971 0.74932 0.22665
 O334 O 0.54204 0.78290 0.22961
 O335 O 0.50181 0.72711 0.20022
 O336 O 0.46841 0.73121 0.20747
 Zr337 Zr 0.49020 0.72810 0.22704
 O338 O 0.47236 0.74422 0.24363
 Zr339 Zr 0.52285 0.76075 0.22739
 O340 O 0.50606 0.77849 0.24340
 Zr341 Zr 0.52260 0.72804 0.25994
 O342 O 0.50633 0.74459 0.27770
 Zr343 Zr 0.47795 0.77245 0.23899
 O344 O 0.49469 0.75641 0.22096
 Zr345 Zr 0.47818 0.73998 0.27186
 O346 O 0.49448 0.72200 0.25536
 Zr347 Zr 0.51050 0.77289 0.27168
 O348 O 0.52878 0.75633 0.25566
 O349 O 0.51823 0.73266 0.23185
 O350 O 0.48241 0.76821 0.26728
 C351 C 0.51397 0.69321 0.23542
 C352 C 0.51448 0.73685 0.19238
 C353 C 0.55749 0.73639 0.23613
 C354 C 0.48464 0.80690 0.26374
 C355 C 0.44404 0.76539 0.26462
 C356 C 0.48558 0.76542 0.30604
 H357 H 0.45935 0.74123 0.24054
 H358 H 0.50942 0.74165 0.29073
 H359 H 0.52617 0.72474 0.22394
 H360 H 0.50879 0.79157 0.24024
 H361 H 0.48335 0.78796 0.20716
 H362 H 0.51470 0.79006 0.20847
 H363 H 0.48911 0.72006 0.29987
 H364 H 0.50965 0.70172 0.28042
 H365 H 0.44901 0.77893 0.21836
 H366 H 0.46958 0.72135 0.19790
 H367 H 0.53133 0.76212 0.29896
 H368 H 0.54848 0.74079 0.28104
 H369 H 0.46988 0.70194 0.24076
 H370 H 0.45063 0.71956 0.26087
 H371 H 0.54937 0.78069 0.24102
 H372 H 0.52986 0.80133 0.26087
 O373 O 0.00101 0.70082 0.72615
 O374 O -0.03057 0.70683 0.72851
 O375 O 0.02339 0.74967 0.70067
 O376 O 0.02402 0.78026 0.70624
 O377 O 0.04941 0.72658 0.74938
 O378 O 0.04254 0.72791 0.78171
 O379 O -0.02439 0.79889 0.75099
 O380 O -0.02079 0.79363 0.71946
 O381 O -0.04846 0.75171 0.77408
 O382 O -0.04202 0.71824 0.77285
 O383 O -0.00137 0.77430 0.79878
 O384 O 0.03167 0.77351 0.79240
 O385 O -0.00213 0.79899 0.77348
 O386 O 0.03222 0.79222 0.77167
 O387 O -0.02353 0.75181 0.79892
 O388 O -0.02152 0.71764 0.79181
 O389 O -0.04842 0.77435 0.75202
 O390 O -0.04238 0.76816 0.71845
 O391 O 0.02302 0.70068 0.74892
 O392 O 0.02159 0.70772 0.78186
 O393 O 0.04951 0.74898 0.72704
 O394 O 0.04189 0.78254 0.73001
 O395 O 0.00154 0.72682 0.70067
 O396 O -0.03185 0.73099 0.70799
 Zr397 Zr -0.01003 0.72783 0.72752
 O398 O -0.02781 0.74397 0.74415
 Zr399 Zr 0.02267 0.76043 0.72782
 O400 O 0.00594 0.77817 0.74389
 Zr401 Zr 0.02243 0.72769 0.76036
 O402 O 0.00621 0.74425 0.77816
 Zr403 Zr -0.02219 0.77218 0.73953
 O404 O -0.00551 0.75613 0.72144
 Zr405 Zr -0.02194 0.73969 0.77237
 O406 O -0.00571 0.72170 0.75582
 Zr407 Zr 0.01043 0.77254 0.77215
 O408 O 0.02865 0.75597 0.75609
 O409 O 0.01802 0.73234 0.73228
 O410 O -0.01768 0.76791 0.76780
 C411 C 0.01371 0.69289 0.73581
 C412 C 0.01422 0.73654 0.69282
 C413 C 0.05729 0.73604 0.73652
 C414 C -0.01537 0.80661 0.76429
 C415 C -0.05607 0.76513 0.76518
 C416 C -0.01449 0.76514 0.80653
 H417 H -0.04083 0.74099 0.74108
 H418 H 0.00932 0.74129 0.79119
 H419 H 0.02594 0.72442 0.72435
 H420 H 0.00869 0.79125 0.74073
 H421 H -0.01682 0.78772 0.70770
 H422 H 0.01453 0.78977 0.70896
 H423 H -0.01101 0.71976 0.80037
 H424 H 0.00947 0.70137 0.78083
 H425 H -0.05115 0.77874 0.71895
 H426 H -0.03071 0.72114 0.69841
 H427 H 0.03123 0.76173 0.79945
 H428 H 0.04833 0.74038 0.78145
 H429 H -0.03034 0.70167 0.74125
 H430 H -0.04953 0.71929 0.76141
 H431 H 0.04923 0.78034 0.74142
 H432 H 0.02984 0.80093 0.76133
 O433 O -0.04942 -0.00150 -0.02379
 O434 O -0.04342 0.03020 -0.02112
 O435 O -0.00088 -0.02381 -0.04951
 O436 O 0.02963 -0.02444 -0.04403
 O437 O -0.02374 -0.05018 -0.00094
 O438 O -0.02234 -0.04345 0.03144
 O439 O 0.04839 0.02386 0.00108
 O440 O 0.04305 0.02043 -0.03047
 O441 O 0.00147 0.04789 0.02445
 O442 O -0.03188 0.04144 0.02326
 O443 O 0.02401 0.00049 0.04872
 O444 O 0.02316 -0.03264 0.04210
 O445 O 0.04853 0.00139 0.02338
 O446 O 0.04174 -0.03308 0.02132
 O447 O 0.00163 0.02273 0.04909
 O448 O -0.03246 0.02075 0.04205
 O449 O 0.02397 0.04797 0.00235
 O450 O 0.01769 0.04210 -0.03126
 O451 O -0.04952 -0.02373 -0.00120
 O452 O -0.04245 -0.02241 0.03176
 O453 O -0.00150 -0.05016 -0.02333
 O454 O 0.03197 -0.04253 -0.02039
 O455 O -0.02360 -0.00185 -0.04928
 O456 O -0.01940 0.03161 -0.04172
 Zr457 Zr -0.02251 0.00960 -0.02235
 O458 O -0.00636 0.02734 -0.00562
 Zr459 Zr 0.00994 -0.02322 -0.02238
 O460 O 0.02769 -0.00653 -0.00622
 Zr461 Zr -0.02259 -0.02317 0.01023
 O462 O -0.00601 -0.00700 0.02812
 Zr463 Zr 0.02174 0.02172 -0.01035
 O464 O 0.00567 0.00510 -0.02853
 Zr465 Zr -0.01054 0.02129 0.02256
 O466 O -0.02854 0.00510 0.00593
 Zr467 Zr 0.02216 -0.01120 0.02202
 O468 O 0.00557 -0.02939 0.00585
 O469 O -0.01802 -0.01857 -0.01782
 O470 O 0.01757 0.01703 0.01789
 C471 C -0.05730 -0.01434 -0.01425
 C472 C -0.01398 -0.01455 -0.05725
 C473 C -0.01437 -0.05802 -0.01389
 C474 C 0.05611 0.01474 0.01429
 C475 C 0.01483 0.05557 0.01559
 C476 C 0.01493 0.01361 0.05660
 H477 H -0.00932 0.04043 -0.00858
 H478 H -0.00893 -0.01020 0.04114
 H479 H -0.02594 -0.02648 -0.02580
 H480 H 0.04071 -0.00928 -0.00943
 H481 H 0.03713 0.01651 -0.04225
 H482 H 0.03915 -0.01496 -0.04124
 H483 H -0.03033 0.01015 0.05052
 H484 H -0.04878 -0.01025 0.03080
 H485 H 0.02825 0.05090 -0.03071
 H486 H -0.02926 0.03053 -0.05127
 H487 H 0.01145 -0.03222 0.04919
 H488 H -0.00992 -0.04925 0.03113
 H489 H -0.04856 0.02985 -0.00840
 H490 H -0.03090 0.04901 0.01185
 H491 H 0.02980 -0.04995 -0.00903
 H492 H 0.05041 -0.03062 0.01098
 O493 O 0.04989 0.52394 0.50060
 O494 O 0.04381 0.52142 0.46894
 O495 O 0.00136 0.54957 0.52309
 O496 O -0.02913 0.54406 0.52376
 O497 O 0.02434 0.50083 0.54923
 O498 O 0.02304 0.46848 0.54235
 O499 O -0.04796 0.49912 0.47541
 O500 O -0.04261 0.53068 0.47887
 O501 O -0.00108 0.47576 0.45121
 O502 O 0.03230 0.47702 0.45755
 O503 O -0.02343 0.45134 0.49846
 O504 O -0.02246 0.45784 0.53163
 O505 O -0.04799 0.47669 0.49776
 O506 O -0.04111 0.47858 0.53216
 O507 O -0.00107 0.45105 0.47624
 O508 O 0.03301 0.45815 0.47817
 O509 O -0.02365 0.49784 0.45126
 O510 O -0.01734 0.53148 0.45715
 O511 O 0.05009 0.50125 0.52274
 O512 O 0.04308 0.46828 0.52131
 O513 O 0.00207 0.52323 0.54933
 O514 O -0.03139 0.52036 0.54173
 O515 O 0.02402 0.54945 0.50110
 O516 O 0.01974 0.54199 0.46765
 Zr517 Zr 0.02295 0.52254 0.48956
 O518 O 0.00678 0.50584 0.47180
 Zr519 Zr -0.00941 0.52241 0.52242
 O520 O -0.02717 0.50628 0.50572
 Zr521 Zr 0.02318 0.48980 0.52218
 O522 O 0.00659 0.47193 0.50599
 Zr523 Zr -0.02131 0.51053 0.47749
 O524 O -0.00522 0.52867 0.49414
 Zr525 Zr 0.01103 0.47761 0.47774
 O526 O 0.02904 0.49422 0.49395
 Zr527 Zr -0.02158 0.47801 0.51027
 O528 O -0.00497 0.49414 0.52847
 O529 O 0.01856 0.51789 0.51772
 O530 O -0.01707 0.48225 0.48207
 C531 C 0.05782 0.51434 0.51337
 C532 C 0.01441 0.55737 0.51383
 C533 C 0.01494 0.51372 0.55714
 C534 C -0.05563 0.48587 0.48450
 C535 C -0.01453 0.48460 0.44361
 C536 C -0.01435 0.44350 0.48532
 H537 H 0.00969 0.50884 0.45873
 H538 H 0.00954 0.45890 0.50913
 H539 H 0.02647 0.52585 0.52565
 H540 H -0.04019 0.50948 0.50850
 H541 H -0.03668 0.54246 0.48280
 H542 H -0.03862 0.54133 0.51424
 H543 H 0.03092 0.44962 0.48873
 H544 H 0.04938 0.46929 0.50915
 H545 H -0.02792 0.53094 0.44838
 H546 H 0.02958 0.55156 0.46874
 H547 H -0.01079 0.45068 0.53108
 H548 H 0.01062 0.46870 0.54813
 H549 H 0.04892 0.50866 0.46919
 H550 H 0.03123 0.48844 0.44999
 H551 H -0.02922 0.50894 0.54908
 H552 H -0.04976 0.48897 0.52980
 O553 O 0.45055 -0.00122 0.47570
 O554 O 0.45656 0.03049 0.47813
 O555 O 0.49912 -0.02375 0.45024
 O556 O 0.52962 -0.02437 0.45578
 O557 O 0.47616 -0.04974 0.49897
 O558 O 0.47748 -0.04278 0.53129
 O559 O 0.54830 0.02429 0.50057
 O560 O 0.54305 0.02061 0.46905
 O561 O 0.50134 0.04849 0.52366
 O562 O 0.46801 0.04204 0.52248
 O563 O 0.52383 0.00125 0.54835
 O564 O 0.52300 -0.03191 0.54196
 O565 O 0.54840 0.00199 0.52304
 O566 O 0.54161 -0.03251 0.52120
 O567 O 0.50146 0.02352 0.54851
 O568 O 0.46739 0.02149 0.54142
 O569 O 0.52387 0.04840 0.50159
 O570 O 0.51768 0.04226 0.46802
 O571 O 0.45038 -0.02328 0.49845
 O572 O 0.45740 -0.02172 0.53142
 O573 O 0.49844 -0.04991 0.47662
 O574 O 0.53191 -0.04227 0.47956
 O575 O 0.47642 -0.00177 0.45026
 O576 O 0.48062 0.03173 0.45759
 Zr577 Zr 0.47746 0.00987 0.47711
 O578 O 0.49358 0.02772 0.49374
 Zr579 Zr 0.50989 -0.02297 0.47739
 O580 O 0.52762 -0.00617 0.49346
 Zr581 Zr 0.47729 -0.02265 0.50993
 O582 O 0.49385 -0.00637 0.52774
 Zr583 Zr 0.52168 0.02205 0.48910
 O584 O 0.50565 0.00530 0.47102
 Zr585 Zr 0.48934 0.02188 0.52196
 O586 O 0.47137 0.00558 0.50541
 Zr587 Zr 0.52203 -0.01062 0.52171
 O588 O 0.50546 -0.02892 0.50565
 O589 O 0.48192 -0.01827 0.48186
 O590 O 0.51746 0.01758 0.51738
 C591 C 0.44264 -0.01397 0.48532
 C592 C 0.48605 -0.01454 0.44241
 C593 C 0.48555 -0.05769 0.48610
 C594 C 0.55600 0.01527 0.51387
 C595 C 0.51471 0.05611 0.51474
 C596 C 0.51474 0.01444 0.55611
 H597 H 0.49063 0.04079 0.49068
 H598 H 0.49091 -0.00947 0.54077
 H599 H 0.47402 -0.02624 0.47392
 H600 H 0.54065 -0.00894 0.49029
 H601 H 0.53716 0.01659 0.45729
 H602 H 0.53913 -0.01487 0.45852
 H603 H 0.46951 0.01095 0.54997
 H604 H 0.45106 -0.00957 0.53035
 H605 H 0.52824 0.05107 0.46851
 H606 H 0.47078 0.03059 0.44802
 H607 H 0.51127 -0.03146 0.54900
 H608 H 0.48990 -0.04859 0.53106
 H609 H 0.45139 0.03024 0.49085
 H610 H 0.46900 0.04951 0.51100
 H611 H 0.52972 -0.04960 0.49098
 H612 H 0.55031 -0.03011 0.51088
 O613 O 0.50090 0.54950 0.02415
 O614 O 0.46927 0.54357 0.02170
 O615 O 0.52315 0.50061 0.04963
 O616 O 0.52385 0.47005 0.04404
 O617 O 0.54910 0.52368 0.00081
 O618 O 0.54209 0.52235 -0.03150
 O619 O 0.47518 0.45144 -0.00067
 O620 O 0.47889 0.45672 0.03087
 O621 O 0.45111 0.49864 -0.02375
 O622 O 0.45761 0.53208 -0.02257
 O623 O 0.49806 0.47594 -0.04843
 O624 O 0.53116 0.47676 -0.04210
 O625 O 0.49739 0.45131 -0.02314
 O626 O 0.53175 0.45805 -0.02136
 O627 O 0.47593 0.49845 -0.04858
 O628 O 0.47807 0.53265 -0.04154
 O629 O 0.45119 0.47599 -0.00169
 O630 O 0.45736 0.48222 0.03188
 O631 O 0.52281 0.54959 0.00134
 O632 O 0.52117 0.54257 -0.03160
 O633 O 0.54925 0.50135 0.02321
 O634 O 0.54157 0.46776 0.02026
 O635 O 0.50132 0.52347 0.04962
 O636 O 0.46794 0.51945 0.04226
 Zr637 Zr 0.48974 0.52253 0.02275
 O638 O 0.47188 0.50637 0.00616
 Zr639 Zr 0.52239 0.48989 0.02246
 O640 O 0.50558 0.47214 0.00643
 Zr641 Zr 0.52208 0.52260 -0.01011
 O642 O 0.50578 0.50603 -0.02788
 Zr643 Zr 0.47747 0.47815 0.01080
 O644 O 0.49423 0.49422 0.02884
 Zr645 Zr 0.47765 0.51062 -0.02207
 O646 O 0.49398 0.52862 -0.00556
 Zr647 Zr 0.50998 0.47775 -0.02184
 O648 O 0.52828 0.49433 -0.00581
 O649 O 0.51777 0.51798 0.01799
 O650 O 0.48190 0.48240 -0.01748
 C651 C 0.51361 0.55739 0.01448
 C652 C 0.51398 0.51372 0.05748
 C653 C 0.55702 0.51426 0.01369
 C654 C 0.48415 0.44370 -0.01396
 C655 C 0.44351 0.48522 -0.01485
 C656 C 0.48491 0.48509 -0.05617
 H657 H 0.45887 0.50936 0.00923
 H658 H 0.50885 0.50897 -0.04092
 H659 H 0.52573 0.52588 0.02593
 H660 H 0.50831 0.45906 0.00960
 H661 H 0.48292 0.46263 0.04263
 H662 H 0.51426 0.46062 0.04141
 H663 H 0.48852 0.53048 -0.05012
 H664 H 0.50907 0.54894 -0.03054
 H665 H 0.44856 0.47164 0.03139
 H666 H 0.46911 0.52932 0.05182
 H667 H 0.53065 0.48850 -0.04922
 H668 H 0.54784 0.50987 -0.03126
 H669 H 0.46953 0.54876 0.00898
 H670 H 0.45019 0.53110 -0.01108
 H671 H 0.54889 0.46998 0.00886
 H672 H 0.52940 0.44936 -0.01099
 O673 O 0.77459 0.29903 0.49887
 O674 O 0.77210 0.29310 0.53057
 O675 O 0.79978 0.25004 0.47656
 O676 O 0.79408 0.21947 0.47596
 O677 O 0.75135 0.27335 0.45039
 O678 O 0.71908 0.27215 0.45721
 O679 O 0.74923 0.20116 0.52450
 O680 O 0.78071 0.20621 0.52092
 O681 O 0.72648 0.24856 0.54852
 O682 O 0.72782 0.28196 0.54196
 O683 O 0.70179 0.22593 0.50129
 O684 O 0.70819 0.22664 0.46816
 O685 O 0.72688 0.20113 0.50211
 O686 O 0.72877 0.20782 0.46766
 O687 O 0.70173 0.24844 0.52350
 O688 O 0.70895 0.28259 0.52139
 O689 O 0.74836 0.22579 0.54856
 O690 O 0.78188 0.23173 0.54248
 O691 O 0.75189 0.29925 0.47678
 O692 O 0.71900 0.29239 0.47821
 O693 O 0.77354 0.25086 0.45034
 O694 O 0.77037 0.21729 0.45800
 O695 O 0.79984 0.27292 0.49845
 O696 O 0.79248 0.26886 0.53191
 Zr697 Zr 0.77305 0.27207 0.51001
 O698 O 0.75636 0.25604 0.52783
 Zr699 Zr 0.77264 0.23942 0.47726
 O700 O 0.75650 0.22178 0.49404
 Zr701 Zr 0.74034 0.27231 0.47741
 O702 O 0.72249 0.25587 0.49366
 Zr703 Zr 0.76084 0.22779 0.52225
 O704 O 0.77897 0.24372 0.50553
 Zr705 Zr 0.72825 0.26046 0.52189
 O706 O 0.74486 0.27834 0.50561
 Zr707 Zr 0.72836 0.22754 0.48949
 O708 O 0.74448 0.24401 0.47122
 O709 O 0.76832 0.26752 0.48189
 O710 O 0.73267 0.23220 0.51767
 C711 C 0.76502 0.30697 0.48608
 C712 C 0.80764 0.26315 0.48575
 C713 C 0.76417 0.26385 0.44252
 C714 C 0.73595 0.19349 0.51543
 C715 C 0.73530 0.23513 0.55620
 C716 C 0.69409 0.23513 0.51444
 H717 H 0.75942 0.25904 0.54088
 H718 H 0.70951 0.25889 0.49052
 H719 H 0.77628 0.27539 0.47395
 H720 H 0.75959 0.20867 0.49131
 H721 H 0.79247 0.21202 0.51690
 H722 H 0.79129 0.20998 0.48547
 H723 H 0.70039 0.28046 0.51086
 H724 H 0.72005 0.29877 0.49034
 H725 H 0.78131 0.22118 0.55131
 H726 H 0.80207 0.27867 0.53078
 H727 H 0.70121 0.23846 0.46858
 H728 H 0.71930 0.25967 0.45141
 H729 H 0.75946 0.29840 0.53024
 H730 H 0.73926 0.28094 0.54946
 H731 H 0.75902 0.21956 0.45061
 H732 H 0.73906 0.19907 0.47008
 O733 O 0.75158 0.77479 -0.04978
 O734 O 0.71995 0.77243 -0.04388
 O735 O 0.77402 0.80004 -0.00088
 O736 O 0.77465 0.79438 0.02967
 O737 O 0.79977 0.75120 -0.02409
 O738 O 0.79270 0.71888 -0.02291
 O739 O 0.72597 0.74978 0.04808
 O740 O 0.72970 0.78130 0.04291
 O741 O 0.70176 0.72684 0.00078
 O742 O 0.70821 0.72809 -0.03260
 O743 O 0.74871 0.70189 0.02336
 O744 O 0.78176 0.70812 0.02265
 O745 O 0.74811 0.72720 0.04813
 O746 O 0.78247 0.72886 0.04138
 O747 O 0.72657 0.70187 0.00084
 O748 O 0.72864 0.70908 -0.03328
 O749 O 0.70192 0.74885 0.02350
 O750 O 0.70815 0.78244 0.01743
 O751 O 0.77346 0.75191 -0.04998
 O752 O 0.77173 0.71889 -0.04311
 O753 O 0.80001 0.77354 -0.00167
 O754 O 0.79237 0.77051 0.03187
 O755 O 0.75215 0.80017 -0.02371
 O756 O 0.71874 0.79294 -0.01967
 Zr757 Zr 0.74046 0.77334 -0.02285
 O758 O 0.72259 0.75673 -0.00680
 Zr759 Zr 0.77316 0.77283 0.00976
 O760 O 0.75633 0.75678 0.02742
 Zr761 Zr 0.77274 0.74034 -0.02306
 O762 O 0.75642 0.72256 -0.00659
 Zr763 Zr 0.72822 0.76127 0.02142
 O764 O 0.74501 0.77933 0.00546
 Zr765 Zr 0.72830 0.72847 -0.01116
 O766 O 0.74463 0.74501 -0.02907
 Zr767 Zr 0.76066 0.72850 0.02171
 O768 O 0.77898 0.74453 0.00521
 O769 O 0.76848 0.76846 -0.01831
 O770 O 0.73257 0.73296 0.01707
 C771 C 0.76427 0.76512 -0.05770
 C772 C 0.76488 0.80796 -0.01397
 C773 C 0.80774 0.76404 -0.01462
 C774 C 0.73494 0.73644 0.05577
 C775 C 0.69419 0.73574 0.01422
 C776 C 0.73557 0.69419 0.01414
 H777 H 0.70958 0.75985 -0.00978
 H778 H 0.75946 0.70951 -0.00958
 H779 H 0.77646 0.77639 -0.02617
 H780 H 0.75910 0.75992 0.04050
 H781 H 0.73376 0.79306 0.03705
 H782 H 0.76511 0.79171 0.03911
 H783 H 0.73910 0.70047 -0.03117
 H784 H 0.75965 0.72005 -0.04951
 H785 H 0.69936 0.78195 0.02798
 H786 H 0.71992 0.80254 -0.02949
 H787 H 0.78132 0.70113 0.01084
 H788 H 0.79849 0.71907 -0.01044
 H789 H 0.72018 0.75972 -0.04913
 H790 H 0.70085 0.73962 -0.03160
 H791 H 0.79966 0.75909 0.02962
 H792 H 0.78016 0.73921 0.05011
 O793 O 1.00122 0.19975 0.22559
 O794 O 0.96961 0.20575 0.22798
 O795 O 1.02362 0.24857 0.20017
 O796 O 1.02414 0.27919 0.20572
 O797 O 1.04958 0.22552 0.24888
 O798 O 1.04269 0.22682 0.28122
 O799 O 0.97570 0.29776 0.25057
 O800 O 0.97939 0.29258 0.21901
 O801 O 0.95169 0.25058 0.27355
 O802 O 0.95815 0.21711 0.27229
 O803 O 0.99878 0.27316 0.29828
 O804 O 1.03186 0.27237 0.29187
 O805 O 0.99796 0.29784 0.27306
 O806 O 1.03233 0.29117 0.27120
 O807 O 0.97660 0.25068 0.29839
 O808 O 0.97863 0.21651 0.29127
 O809 O 0.95173 0.27323 0.25149
 O810 O 0.95782 0.26709 0.21791
 O811 O 1.02324 0.19961 0.24836
 O812 O 1.02175 0.20659 0.28131
 O813 O 1.04969 0.24793 0.22656
 O814 O 1.04205 0.28149 0.22952
 O815 O 1.00175 0.22574 0.20016
 O816 O 0.96836 0.22991 0.20744
 Zr817 Zr 0.99015 0.22674 0.22699
 O818 O 0.97236 0.24287 0.24362
 Zr819 Zr 1.02284 0.25936 0.22732
 O820 O 1.00610 0.27709 0.24340
 Zr821 Zr 1.02260 0.22660 0.25984
 O822 O 1.00637 0.24314 0.27765
 Zr823 Zr 0.97798 0.27109 0.23902
 O824 O 0.99466 0.25505 0.22093
 Zr825 Zr 0.97821 0.23857 0.27184
 O826 O 0.99447 0.22059 0.25529
 Zr827 Zr 1.01058 0.27143 0.27165
 O828 O 1.02881 0.25488 0.25558
 O829 O 1.01819 0.23127 0.23177
 O830 O 0.98248 0.26679 0.26729
 C831 C 1.01396 0.19184 0.23522
 C832 C 1.01446 0.23543 0.19233
 C833 C 1.05748 0.23499 0.23603
 C834 C 0.98468 0.30546 0.26391
 C835 C 0.94408 0.26401 0.26465
 C836 C 0.98565 0.26400 0.30601
 H837 H 0.95934 0.23989 0.24054
 H838 H 1.00948 0.24017 0.29068
 H839 H 1.02613 0.22337 0.22384
 H840 H 1.00883 0.29018 0.24026
 H841 H 0.98337 0.28670 0.20724
 H842 H 1.01473 0.28875 0.20851
 H843 H 0.98915 0.21863 0.29983
 H844 H 1.00963 0.20024 0.28026
 H845 H 0.94904 0.27767 0.21841
 H846 H 0.96949 0.22005 0.19787
 H847 H 1.03136 0.26063 0.29897
 H848 H 1.04848 0.23929 0.28097
 H849 H 0.96988 0.20054 0.24070
 H850 H 0.95065 0.21817 0.26084
 H851 H 1.04935 0.27931 0.24096
 H852 H 1.02992 0.29990 0.26087
 O853 O 0.70016 1.02367 0.74906
 O854 O 0.70609 1.02121 0.78077
 O855 O 0.74880 1.04940 0.72685
 O856 O 0.77927 1.04391 0.72611
 O857 O 0.72588 1.00054 0.70068
 O858 O 0.72739 0.96815 0.70757
 O859 O 0.79798 0.99926 0.77479
 O860 O 0.79260 1.03079 0.77116
 O861 O 0.75103 0.97592 0.79887
 O862 O 0.71770 0.97694 0.79232
 O863 O 0.77370 0.95133 0.75171
 O864 O 0.77288 0.95764 0.71860
 O865 O 0.79817 0.97679 0.75245
 O866 O 0.79136 0.97857 0.71797
 O867 O 0.75131 0.95107 0.77390
 O868 O 0.71721 0.95795 0.77179
 O869 O 0.77352 0.99810 0.79884
 O870 O 0.76721 1.03167 0.79274
 O871 O 0.70011 1.00085 0.72703
 O872 O 0.70724 0.96791 0.72856
 O873 O 0.74807 1.02304 0.70061
 O874 O 0.78158 1.02013 0.70827
 O875 O 0.72602 1.04926 0.74871
 O876 O 0.73006 1.04189 0.78217
 Zr877 Zr 0.72705 1.02237 0.76026
 O878 O 0.74321 1.00582 0.77812
 Zr879 Zr 0.75955 1.02225 0.72752
 O880 O 0.77730 1.00626 0.74434
 Zr881 Zr 0.72706 0.98952 0.72772
 O882 O 0.74364 0.97179 0.74402
 Zr883 Zr 0.77131 1.01059 0.77253
 O884 O 0.75523 1.02860 0.75577
 Zr885 Zr 0.73908 0.97755 0.77225
 O886 O 0.72107 0.99401 0.75592
 Zr887 Zr 0.77180 0.97796 0.73983
 O888 O 0.75522 0.99394 0.72152
 O889 O 0.73159 1.01765 0.73215
 O890 O 0.76718 0.98228 0.76801
 C891 C 0.69232 1.01398 0.73628
 C892 C 0.73571 1.05719 0.73605
 C893 C 0.73520 1.01351 0.69280
 C894 C 0.80573 0.98601 0.76574
 C895 C 0.76438 0.98490 0.80652
 C896 C 0.76463 0.94353 0.76487
 H897 H 0.74023 1.00887 0.79117
 H898 H 0.74075 0.95873 0.74091
 H899 H 0.72368 1.02558 0.72420
 H900 H 0.79032 1.00950 0.74160
 H901 H 0.78667 1.04252 0.76714
 H902 H 0.78869 1.04131 0.73572
 H903 H 0.71937 0.94940 0.76126
 H904 H 0.70091 0.96892 0.74070
 H905 H 0.77775 1.03123 0.80156
 H906 H 0.72020 1.05142 0.78101
 H907 H 0.76113 0.95060 0.71896
 H908 H 0.73980 0.96852 0.70176
 H909 H 0.70096 1.00846 0.78046
 H910 H 0.71864 0.98843 0.79980
 H911 H 0.77935 1.00876 0.70085
 H912 H 0.80003 0.98894 0.72039
 O913 O 0.70080 0.52429 0.24844
 O914 O 0.70683 0.52191 0.28009
 O915 O 0.74946 0.54986 0.22601
 O916 O 0.77994 0.54431 0.22539
 O917 O 0.72640 0.50111 0.19991
 O918 O 0.72772 0.46875 0.20677
 O919 O 0.79851 0.49939 0.27400
 O920 O 0.79336 0.53097 0.27032
 O921 O 0.75151 0.47633 0.29804
 O922 O 0.71817 0.47750 0.29152
 O923 O 0.77401 0.45166 0.25082
 O924 O 0.77316 0.45810 0.21766
 O925 O 0.79858 0.47694 0.25165
 O926 O 0.79186 0.47885 0.21718
 O927 O 0.75166 0.45149 0.27307
 O928 O 0.71758 0.45853 0.27097
 O929 O 0.77408 0.49843 0.29803
 O930 O 0.76797 0.53203 0.29193
 O931 O 0.70062 0.50151 0.22636
 O932 O 0.70763 0.46856 0.22777
 O933 O 0.74873 0.52347 0.19981
 O934 O 0.78219 0.52052 0.20747
 O935 O 0.72673 0.54981 0.24792
 O936 O 0.73092 0.54245 0.28139
 Zr937 Zr 0.72773 0.52293 0.25951
 O938 O 0.74382 0.50628 0.27733
 Zr939 Zr 0.76017 0.52268 0.22673
 O940 O 0.77788 0.50660 0.24351
 Zr941 Zr 0.72754 0.49009 0.22694
 O942 O 0.74405 0.47227 0.24320
 Zr943 Zr 0.77194 0.51093 0.27171
 O944 O 0.75593 0.52903 0.25499
 Zr945 Zr 0.73954 0.47803 0.27143
 O946 O 0.72160 0.49460 0.25515
 Zr947 Zr 0.77224 0.47832 0.23899
 O948 O 0.75571 0.49440 0.22073
 O949 O 0.73219 0.51820 0.23138
 O950 O 0.76766 0.48264 0.26717
 C951 C 0.69288 0.51462 0.23570
 C952 C 0.73639 0.55769 0.23521
 C953 C 0.73582 0.51399 0.19200
 C954 C 0.80618 0.48607 0.26498
 C955 C 0.76489 0.48525 0.30569
 C956 C 0.76493 0.44390 0.26400
 H957 H 0.74086 0.50933 0.29039
 H958 H 0.74110 0.45923 0.24008
 H959 H 0.72428 0.52614 0.22344
 H960 H 0.79091 0.50976 0.24078
 H961 H 0.78750 0.54276 0.26633
 H962 H 0.78943 0.54158 0.23490
 H963 H 0.71973 0.44995 0.26047
 H964 H 0.70134 0.46955 0.23994
 H965 H 0.77852 0.53153 0.30073
 H966 H 0.72111 0.55204 0.28025
 H967 H 0.76145 0.45099 0.21814
 H968 H 0.74015 0.46900 0.20099
 H969 H 0.70168 0.50916 0.27985
 H970 H 0.71921 0.48895 0.29906
 H971 H 0.77999 0.50910 0.20012
 H972 H 0.80057 0.48918 0.21962
 O973 O 0.54934 0.22558 0.74938
 O974 O 0.54334 0.22790 0.78106
 O975 O 0.50070 0.20003 0.72678
 O976 O 0.47022 0.20556 0.72608
 O977 O 0.52371 0.24889 0.70093
 O978 O 0.52234 0.28123 0.70793
 O979 O 0.45157 0.25025 0.77478
 O980 O 0.45685 0.21869 0.77110
 O981 O 0.49857 0.27340 0.79908
 O982 O 0.53190 0.27225 0.79269
 O983 O 0.47603 0.29810 0.75194
 O984 O 0.47690 0.29180 0.71875
 O985 O 0.45148 0.27276 0.75251
 O986 O 0.45826 0.27102 0.71809
 O987 O 0.49842 0.29826 0.77420
 O988 O 0.53252 0.29123 0.77217
 O989 O 0.47599 0.25132 0.79892
 O990 O 0.48221 0.21771 0.79278
 O991 O 0.54947 0.24843 0.72740
 O992 O 0.54244 0.28138 0.72899
 O993 O 0.50144 0.22648 0.70069
 O994 O 0.46795 0.22938 0.70827
 O995 O 0.52345 0.20004 0.74874
 O996 O 0.51928 0.20731 0.78223
 Zr997 Zr 0.52243 0.22689 0.76043
 O998 O 0.50631 0.24348 0.77829
 Zr999 Zr 0.48997 0.22719 0.72758
 O1000 O 0.47225 0.24321 0.74438
 Zr1001 Zr 0.52256 0.25983 0.72801
 O1002 O 0.50602 0.27758 0.74430
 Zr1003 Zr 0.47820 0.23881 0.77259
 O1004 O 0.49423 0.22077 0.75583
 Zr1005 Zr 0.51056 0.27174 0.77251
 O1006 O 0.52852 0.25524 0.75621
 Zr1007 Zr 0.47785 0.27150 0.73998
 O1008 O 0.49440 0.25549 0.72169
 O1009 O 0.51795 0.23170 0.73232
 O1010 O 0.48244 0.26712 0.76816
 C1011 C 0.55723 0.23529 0.73667
 C1012 C 0.51378 0.19219 0.73598
 C1013 C 0.51434 0.23600 0.69296
 C1014 C 0.44388 0.26355 0.76575
 C1015 C 0.48517 0.26449 0.80665
 C1016 C 0.48512 0.30585 0.76515
 H1017 H 0.50927 0.24040 0.79134
 H1018 H 0.50896 0.29063 0.74123
 H1019 H 0.52585 0.22379 0.72436
 H1020 H 0.45923 0.24002 0.74159
 H1021 H 0.46275 0.20694 0.76707
 H1022 H 0.46077 0.20821 0.73564
 H1023 H 0.53035 0.29986 0.76171
 H1024 H 0.54877 0.28032 0.74114
 H1025 H 0.47166 0.21820 0.80157
 H1026 H 0.52911 0.19774 0.78108
 H1027 H 0.48860 0.29892 0.71929
 H1028 H 0.50991 0.28097 0.70211
 H1029 H 0.54849 0.24065 0.78086
 H1030 H 0.53090 0.26076 0.80014
 H1031 H 0.47017 0.24079 0.70094
 H1032 H 0.44960 0.26063 0.72041
 O1033 O 0.25122 0.77480 0.45052
 O1034 O 0.21959 0.77231 0.45646
 O1035 O 0.27361 0.80029 0.49930
 O1036 O 0.27425 0.79475 0.52987
 O1037 O 0.29953 0.75145 0.47627
 O1038 O 0.29256 0.71911 0.47753
 O1039 O 0.22578 0.74998 0.54848
 O1040 O 0.22940 0.78151 0.54322
 O1041 O 0.20161 0.72683 0.50128
 O1042 O 0.20803 0.72797 0.46790
 O1043 O 0.24870 0.70212 0.52389
 O1044 O 0.28175 0.70851 0.52313
 O1045 O 0.24801 0.72749 0.54858
 O1046 O 0.28234 0.72927 0.54182
 O1047 O 0.22653 0.70194 0.50141
 O1048 O 0.22853 0.70904 0.46726
 O1049 O 0.20171 0.74892 0.52392
 O1050 O 0.20783 0.78251 0.51775
 O1051 O 0.27320 0.75201 0.45038
 O1052 O 0.27157 0.71901 0.45734
 O1053 O 0.29969 0.77386 0.49862
 O1054 O 0.29208 0.77096 0.53216
 O1055 O 0.25170 0.80026 0.47650
 O1056 O 0.21832 0.79291 0.48059
 Zr1057 Zr 0.24012 0.77338 0.47746
 O1058 O 0.22233 0.75676 0.49359
 Zr1059 Zr 0.27285 0.77312 0.51005
 O1060 O 0.25610 0.75706 0.52778
 Zr1061 Zr 0.27252 0.74051 0.47734
 O1062 O 0.25629 0.72272 0.49388
 Zr1063 Zr 0.22797 0.76141 0.52179
 O1064 O 0.24467 0.77949 0.50575
 Zr1065 Zr 0.22814 0.72851 0.48931
 O1066 O 0.24439 0.74505 0.47134
 Zr1067 Zr 0.26053 0.72877 0.52215
 O1068 O 0.27877 0.74482 0.50559
 O1069 O 0.26817 0.76863 0.48199
 O1070 O 0.23243 0.73311 0.51752
 C1071 C 0.26396 0.76517 0.44262
 C1072 C 0.26441 0.80812 0.48619
 C1073 C 0.30745 0.76434 0.48571
 C1074 C 0.23480 0.73670 0.55620
 C1075 C 0.19402 0.73576 0.51469
 C1076 C 0.23558 0.69434 0.51472
 H1077 H 0.20931 0.75982 0.49061
 H1078 H 0.25938 0.70968 0.49092
 H1079 H 0.27611 0.77656 0.47411
 H1080 H 0.25886 0.76024 0.54084
 H1081 H 0.23341 0.79327 0.53733
 H1082 H 0.26476 0.79205 0.53936
 H1083 H 0.23904 0.70049 0.46938
 H1084 H 0.25948 0.72011 0.45095
 H1085 H 0.19905 0.78202 0.52832
 H1086 H 0.21946 0.80247 0.47073
 H1087 H 0.28128 0.70143 0.51137
 H1088 H 0.29835 0.71936 0.49000
 H1089 H 0.21989 0.75959 0.45123
 H1090 H 0.20064 0.73950 0.46885
 H1091 H 0.29939 0.75954 0.52996
 H1092 H 0.28000 0.73965 0.55051
 O1093 O 0.25086 0.27403 0.95107
 O1094 O 0.21923 0.27157 0.95702
 O1095 O 0.27325 0.29940 0.99994
 O1096 O 0.27382 0.29377 1.03052
 O1097 O 0.29917 0.25072 0.97674
 O1098 O 0.29228 0.21835 0.97798
 O1099 O 0.22542 0.24892 1.04895
 O1100 O 0.22900 0.28048 1.04377
 O1101 O 0.20130 0.22587 1.00167
 O1102 O 0.20774 0.22719 0.96825
 O1103 O 0.24830 0.20116 1.02425
 O1104 O 0.28138 0.20751 1.02347
 O1105 O 0.24767 0.22644 1.04899
 O1106 O 0.28200 0.22823 1.04222
 O1107 O 0.22616 0.20106 1.00174
 O1108 O 0.22823 0.20823 0.96760
 O1109 O 0.20137 0.24786 1.02441
 O1110 O 0.20741 0.28149 1.01832
 O1111 O 0.27284 0.25125 0.95087
 O1112 O 0.27130 0.21824 0.95776
 O1113 O 0.29931 0.27304 0.99918
 O1114 O 0.29171 0.26998 1.03271
 O1115 O 0.25138 0.29943 0.97711
 O1116 O 0.21798 0.29209 0.98122
 Zr1117 Zr 0.23977 0.27256 0.97802
 O1118 O 0.22197 0.25587 0.99408
 Zr1119 Zr 0.27247 0.27220 1.01062
 O1120 O 0.25573 0.25607 1.02828
 Zr1121 Zr 0.27220 0.23971 0.97780
 O1122 O 0.25596 0.22184 0.99427
 Zr1123 Zr 0.22760 0.26043 1.02229
 O1124 O 0.24430 0.27858 1.00633
 Zr1125 Zr 0.22781 0.22764 0.98970
 O1126 O 0.24407 0.24425 0.97180
 Zr1127 Zr 0.26018 0.22780 1.02256
 O1128 O 0.27842 0.24393 1.00607
 O1129 O 0.26781 0.26779 0.98255
 O1130 O 0.23208 0.23215 1.01793
 C1131 C 0.26359 0.26442 0.94315
 C1132 C 0.26410 0.30726 0.98683
 C1133 C 0.30707 0.26361 0.98621
 C1134 C 0.23445 0.23562 1.05664
 C1135 C 0.19371 0.23471 1.01513
 C1136 C 0.23516 0.19342 1.01506
 H1137 H 0.20895 0.25893 0.99110
 H1138 H 0.25905 0.20881 0.99127
 H1139 H 0.27574 0.27575 0.97468
 H1140 H 0.25849 0.25921 1.04136
 H1141 H 0.23300 0.29226 1.03791
 H1142 H 0.26436 0.29099 1.04002
 H1143 H 0.23871 0.19965 0.96973
 H1144 H 0.25920 0.21932 0.95139
 H1145 H 0.19863 0.28095 1.02889
 H1146 H 0.21912 0.30168 0.97140
 H1147 H 0.28090 0.20047 1.01168
 H1148 H 0.29806 0.21858 0.99045
 H1149 H 0.21951 0.25886 0.95176
 H1150 H 0.20027 0.23866 0.96931
 H1151 H 0.29905 0.25858 1.03047
 H1152 H 0.27967 0.23860 1.05093
 C1153 C 0.29900 0.34581 0.79819
 C1154 C 0.29320 0.36033 0.79220
 C1155 C 0.28669 0.37758 0.78556
 C1156 C 0.28139 0.39253 0.78019
 C1157 C 0.27548 0.41025 0.77427
 C1158 C 0.27069 0.42558 0.76953
 C1159 C 0.29916 -0.15402 0.29821
 C1160 C 0.29318 -0.13958 0.29221
 C1161 C 0.28649 -0.12240 0.28554
 C1162 C 0.28106 -0.10752 0.28014
 C1163 C 0.27502 -0.08985 0.27416
 C1164 C 0.27015 -0.07458 0.26935
 C1165 C 0.79900 0.84558 0.79880
 C1166 C 0.79303 0.86003 0.79282
 C1167 C 0.78636 0.87722 0.78618
 C1168 C 0.78094 0.89212 0.78082
 C1169 C 0.77491 0.90981 0.77489
 C1170 C 0.77006 0.92511 0.77014
 C1171 C 0.45053 0.90500 0.29762
 C1172 C 0.45641 0.89051 0.29163
 C1173 C 0.46300 0.87328 0.28499
 C1174 C 0.46837 0.85836 0.27964
 C1175 C 0.47436 0.84065 0.27374
 C1176 C 0.47921 0.82534 0.26900
 C1177 C -0.04891 0.90481 0.79838
 C1178 C -0.04310 0.89031 0.79237
 C1179 C -0.03662 0.87306 0.78568
 C1180 C -0.03134 0.85812 0.78029
 C1181 C -0.02547 0.84039 0.77433
 C1182 C -0.02072 0.82506 0.76956
 C1183 C -0.04711 -0.15653 -0.04777
 C1184 C -0.04117 -0.14213 -0.04160
 C1185 C -0.03463 -0.12494 -0.03478
 C1186 C -0.02941 -0.10999 -0.02933
 C1187 C -0.02372 -0.09218 -0.02341
 C1188 C -0.01924 -0.07671 -0.01880
 C1189 C -0.04794 0.34504 0.45186
 C1190 C -0.04212 0.35959 0.45777
 C1191 C -0.03562 0.37689 0.46433
 C1192 C -0.03033 0.39187 0.46963
 C1193 C -0.02445 0.40965 0.47547
 C1194 C -0.01969 0.42501 0.48014
 C1195 C 0.45276 -0.15637 0.45285
 C1196 C 0.45871 -0.14196 0.45897
 C1197 C 0.46526 -0.12474 0.46570
 C1198 C 0.47050 -0.10976 0.47106
 C1199 C 0.47620 -0.09191 0.47684
 C1200 C 0.48069 -0.07642 0.48133
 C1201 C 0.45060 0.34551 -0.04830
 C1202 C 0.45640 0.36002 -0.04227
 C1203 C 0.46286 0.37728 -0.03554
 C1204 C 0.46812 0.39221 -0.03009
 C1205 C 0.47399 0.40994 -0.02406
 C1206 C 0.47876 0.42526 -0.01925
 C1207 C 0.79840 0.40515 0.45224
 C1208 C 0.79236 0.39083 0.45844
 C1209 C 0.78569 0.37372 0.46526
 C1210 C 0.78035 0.35883 0.47070
 C1211 C 0.77454 0.34106 0.47659
 C1212 C 0.76996 0.32563 0.48118
 C1213 C 0.79831 0.90641 -0.04706
 C1214 C 0.79229 0.89204 -0.04093
 C1215 C 0.78563 0.87488 -0.03420
 C1216 C 0.78029 0.85995 -0.02886
 C1217 C 0.77446 0.84214 -0.02311
 C1218 C 0.76986 0.82667 -0.01866
 C1219 C 0.79801 0.29767 0.34459
 C1220 C 0.79182 0.29152 0.35885
 C1221 C 0.78499 0.28472 0.37590
 C1222 C 0.77955 0.27928 0.39074
 C1223 C 0.77366 0.27338 0.40846
 C1224 C 0.76906 0.26877 0.42387
 C1225 C 0.79832 0.79894 -0.15557
 C1226 C 0.79212 0.79279 -0.14131
 C1227 C 0.78527 0.78601 -0.12426
 C1228 C 0.77980 0.78058 -0.10942
 C1229 C 0.77387 0.77469 -0.09172
 C1230 C 0.76923 0.77008 -0.07633
 C1231 C 0.29870 0.45173 0.90461
 C1232 C 0.29270 0.45760 0.89013
 C1233 C 0.28602 0.46414 0.87290
 C1234 C 0.28061 0.46945 0.85798
 C1235 C 0.27463 0.47535 0.84028
 C1236 C 0.26984 0.48012 0.82497
 C1237 C 0.29846 -0.04719 0.40410
 C1238 C 0.29267 -0.04153 0.38945
 C1239 C 0.28618 -0.03524 0.37206
 C1240 C 0.28089 -0.03013 0.35703
 C1241 C 0.27499 -0.02443 0.33922
 C1242 C 0.27019 -0.01980 0.32387
 C1243 C -0.04813 -0.04777 -0.15540
 C1244 C -0.04185 -0.04171 -0.14111
 C1245 C -0.03493 -0.03504 -0.12402
 C1246 C -0.02942 -0.02971 -0.10914
 C1247 C -0.02347 -0.02392 -0.09138
 C1248 C -0.01886 -0.01940 -0.07594
 C1249 C -0.04980 0.44957 0.34631
 C1250 C -0.04365 0.45556 0.36069
 C1251 C -0.03679 0.46230 0.37778
 C1252 C -0.03122 0.46782 0.39257
 C1253 C -0.02504 0.47398 0.41013
 C1254 C -0.02006 0.47898 0.42531
 C1255 C 0.45211 -0.04801 0.34425
 C1256 C 0.45836 -0.04196 0.35856
 C1257 C 0.46524 -0.03527 0.37565
 C1258 C 0.47072 -0.02992 0.39054
 C1259 C 0.47663 -0.02409 0.40830
 C1260 C 0.48121 -0.01950 0.42373
 C1261 C 0.45053 0.45066 -0.15392
 C1262 C 0.45659 0.45669 -0.13952
 C1263 C 0.46332 0.46340 -0.12239
 C1264 C 0.46876 0.46884 -0.10752
 C1265 C 0.47477 0.47486 -0.08987
 C1266 C 0.47958 0.47970 -0.07459
 C1267 C 0.45265 0.79798 0.40489
 C1268 C 0.45842 0.79232 0.39024
 C1269 C 0.46484 0.78603 0.37284
 C1270 C 0.47004 0.78093 0.35778
 C1271 C 0.47579 0.77525 0.33994
 C1272 C 0.48042 0.77064 0.32454
 C1273 C -0.04757 0.79816 0.90520
 C1274 C -0.04176 0.79243 0.89059
 C1275 C -0.03530 0.78605 0.87323
 C1276 C -0.03008 0.78086 0.85821
 C1277 C -0.02430 0.77509 0.84040
 C1278 C -0.01966 0.77041 0.82502
 C1279 C 0.34622 0.79954 0.29826
 C1280 C 0.36070 0.79360 0.29245
 C1281 C 0.37791 0.78696 0.28597
 C1282 C 0.39280 0.78157 0.28070
 C1283 C 0.41046 0.77558 0.27481
 C1284 C 0.42570 0.77076 0.27002
 C1285 C -0.15393 0.79916 0.79882
 C1286 C -0.13944 0.79324 0.79302
 C1287 C -0.12222 0.78663 0.78654
 C1288 C -0.10732 0.78126 0.78127
 C1289 C -0.08965 0.77530 0.77539
 C1290 C -0.07440 0.77050 0.77060
 C1291 C 0.90560 0.29668 0.45235
 C1292 C 0.89134 0.29048 0.45842
 C1293 C 0.87428 0.28366 0.46512
 C1294 C 0.85943 0.27823 0.47047
 C1295 C 0.84170 0.27239 0.47628
 C1296 C 0.82629 0.26789 0.48084
 C1297 C 0.90612 0.79674 -0.04772
 C1298 C 0.89174 0.79071 -0.04173
 C1299 C 0.87458 0.78410 -0.03510
 C1300 C 0.85965 0.77885 -0.02979
 C1301 C 0.84185 0.77318 -0.02401
 C1302 C 0.82641 0.76876 -0.01948
 C1303 C -0.15562 -0.04745 -0.04751
 C1304 C -0.14124 -0.04140 -0.04150
 C1305 C -0.12407 -0.03476 -0.03485
 C1306 C -0.10915 -0.02946 -0.02951
 C1307 C -0.09137 -0.02370 -0.02370
 C1308 C -0.07594 -0.01919 -0.01914
 C1309 C -0.15377 0.45211 0.45121
 C1310 C -0.13928 0.45807 0.45702
 C1311 C -0.12204 0.46468 0.46348
 C1312 C -0.10710 0.47002 0.46872
 C1313 C -0.08938 0.47591 0.47453
 C1314 C -0.07406 0.48063 0.47923
 C1315 C 0.34429 -0.04672 0.45181
 C1316 C 0.35868 -0.04074 0.45787
 C1317 C 0.37585 -0.03418 0.46460
 C1318 C 0.39078 -0.02896 0.46999
 C1319 C 0.40856 -0.02328 0.47585
 C1320 C 0.42399 -0.01882 0.48043
 C1321 C 0.34553 0.45134 -0.04869
 C1322 C 0.36005 0.45724 -0.04285
 C1323 C 0.37729 0.46381 -0.03633
 C1324 C 0.39220 0.46915 -0.03101
 C1325 C 0.40989 0.47507 -0.02509
 C1326 C 0.42515 0.47986 -0.02027
 C1327 C 0.40346 0.45108 0.79965
 C1328 C 0.38907 0.45710 0.79368
 C1329 C 0.37195 0.46381 0.78703
 C1330 C 0.35711 0.46925 0.78162
 C1331 C 0.33951 0.47528 0.77561
 C1332 C 0.32429 0.48012 0.77074
 C1333 C 0.40384 -0.04817 0.29771
 C1334 C 0.38938 -0.04212 0.29193
 C1335 C 0.37218 -0.03537 0.28550
 C1336 C 0.35728 -0.02992 0.28028
 C1337 C 0.33960 -0.02390 0.27446
 C1338 C 0.32431 -0.01910 0.26973
 C1339 C 0.09358 0.54643 0.70428
 C1340 C 0.10808 0.54065 0.71023
 C1341 C 0.12539 0.53429 0.71675
 C1342 C 0.14043 0.52920 0.72194
 C1343 C 0.15832 0.52365 0.72754
 C1344 C 0.17383 0.51928 0.73191
 C1345 C 0.09391 0.04653 0.20199
 C1346 C 0.10832 0.04066 0.20810
 C1347 C 0.12551 0.03420 0.21486
 C1348 C 0.14045 0.02906 0.22025
 C1349 C 0.15826 0.02346 0.22610
 C1350 C 0.17371 0.01905 0.23066
 C1351 C 0.65576 0.70361 0.20281
 C1352 C 0.64140 0.70953 0.20893
 C1353 C 0.62426 0.71607 0.21568
 C1354 C 0.60934 0.72131 0.22104
 C1355 C 0.59157 0.72702 0.22685
 C1356 C 0.57614 0.73152 0.23135
 C1357 C 0.15564 0.70360 0.70313
 C1358 C 0.14127 0.70948 0.70925
 C1359 C 0.12410 0.71595 0.71601
 C1360 C 0.10917 0.72111 0.72139
 C1361 C 0.09139 0.72675 0.72721
 C1362 C 0.07595 0.73119 0.73173
 C1363 C 0.59596 0.20190 0.54799
 C1364 C 0.61045 0.20773 0.54209
 C1365 C 0.62768 0.21421 0.53553
 C1366 C 0.64261 0.21945 0.53022
 C1367 C 0.66034 0.22524 0.52436
 C1368 C 0.67565 0.22991 0.51965
 C1369 C 0.59581 0.70257 0.04729
 C1370 C 0.61040 0.70827 0.04153
 C1371 C 0.62774 0.71466 0.03512
 C1372 C 0.64273 0.71986 0.02992
 C1373 C 0.66048 0.72567 0.02415
 C1374 C 0.67579 0.73040 0.01948
 C1375 C 0.15410 0.04840 0.04827
 C1376 C 0.13962 0.04257 0.04229
 C1377 C 0.12240 0.03605 0.03565
 C1378 C 0.10749 0.03075 0.03028
 C1379 C 0.08980 0.02486 0.02434
 C1380 C 0.07451 0.02009 0.01957
 C1381 C 0.15626 0.54725 0.54631
 C1382 C 0.14188 0.54127 0.54026
 C1383 C 0.12469 0.53467 0.53363
 C1384 C 0.10975 0.52940 0.52835
 C1385 C 0.09194 0.52367 0.52263
 C1386 C 0.07648 0.51918 0.51817
 C1387 C 0.65389 0.04921 0.54785
 C1388 C 0.63943 0.04337 0.54185
 C1389 C 0.62222 0.03681 0.53521
 C1390 C 0.60733 0.03146 0.52984
 C1391 C 0.58966 0.02549 0.52391
 C1392 C 0.57439 0.02067 0.51915
 C1393 C 0.65565 0.54731 0.04599
 C1394 C 0.64122 0.54132 0.04005
 C1395 C 0.62400 0.53470 0.03354
 C1396 C 0.60902 0.52940 0.02837
 C1397 C 0.59118 0.52363 0.02277
 C1398 C 0.57571 0.51911 0.01840
 C1399 C 0.04847 0.04665 0.15519
 C1400 C 0.04268 0.04078 0.14062
 C1401 C 0.03620 0.03430 0.12328
 C1402 C 0.03092 0.02908 0.10828
 C1403 C 0.02504 0.02333 0.09048
 C1404 C 0.02028 0.01872 0.07510
 C1405 C 0.04660 0.54609 0.65647
 C1406 C 0.04089 0.54016 0.64189
 C1407 C 0.03460 0.53364 0.62450
 C1408 C 0.02958 0.52845 0.60941
 C1409 C 0.02408 0.52283 0.59145
 C1410 C 0.01972 0.51843 0.57589
 C1411 C 0.54798 0.04746 0.65484
 C1412 C 0.54223 0.04168 0.64021
 C1413 C 0.53580 0.03525 0.62283
 C1414 C 0.53057 0.03006 0.60780
 C1415 C 0.52475 0.02429 0.58998
 C1416 C 0.52003 0.01964 0.57460
 C1417 C 0.54625 0.54608 0.15658
 C1418 C 0.54039 0.54012 0.14208
 C1419 C 0.53395 0.53357 0.12476
 C1420 C 0.52881 0.52837 0.10971
 C1421 C 0.52321 0.52275 0.09178
 C1422 C 0.51879 0.51838 0.07624
 C1423 C 0.20335 0.54705 0.59401
 C1424 C 0.20920 0.54097 0.60846
 C1425 C 0.21564 0.53428 0.62572
 C1426 C 0.22077 0.52895 0.64072
 C1427 C 0.22637 0.52320 0.65860
 C1428 C 0.23080 0.51874 0.67411
 C1429 C 0.20076 0.04720 0.09382
 C1430 C 0.20690 0.04095 0.10808
 C1431 C 0.21372 0.03408 0.12512
 C1432 C 0.21920 0.02863 0.13996
 C1433 C 0.22519 0.02276 0.15767
 C1434 C 0.22990 0.01823 0.17307
 C1435 C 0.70208 0.20262 0.65495
 C1436 C 0.70778 0.20832 0.64030
 C1437 C 0.71416 0.21462 0.62289
 C1438 C 0.71936 0.21972 0.60784
 C1439 C 0.72518 0.22537 0.59002
 C1440 C 0.72993 0.22995 0.57465
 C1441 C 0.70207 0.70328 0.15443
 C1442 C 0.70773 0.70911 0.13981
 C1443 C 0.71406 0.71557 0.12244
 C1444 C 0.71921 0.72080 0.10741
 C1445 C 0.72496 0.72658 0.08960
 C1446 C 0.72965 0.73124 0.07424
 C1447 C 0.54779 0.70383 0.09395
 C1448 C 0.54178 0.70992 0.10832
 C1449 C 0.53512 0.71661 0.12548
 C1450 C 0.52978 0.72191 0.14042
 C1451 C 0.52397 0.72764 0.15822
 C1452 C 0.51940 0.73210 0.17369
 C1453 C 0.04750 0.70359 0.59434
 C1454 C 0.04147 0.70964 0.60872
 C1455 C 0.03480 0.71629 0.62590
 C1456 C 0.02946 0.72158 0.64084
 C1457 C 0.02366 0.72731 0.65865
 C1458 C 0.01911 0.73178 0.67412
 C1459 C 0.54629 0.59388 0.20372
 C1460 C 0.54042 0.60845 0.20949
 C1461 C 0.53395 0.62584 0.21583
 C1462 C 0.52879 0.64093 0.22088
 C1463 C 0.52317 0.65889 0.22638
 C1464 C 0.51875 0.67445 0.23071
 C1465 C 0.04608 0.59368 0.70382
 C1466 C 0.04016 0.60822 0.70962
 C1467 C 0.03366 0.62558 0.71601
 C1468 C 0.02848 0.64065 0.72111
 C1469 C 0.02287 0.65860 0.72667
 C1470 C 0.01847 0.67414 0.73106
 C1471 C 0.04910 0.15363 0.04965
 C1472 C 0.04314 0.13910 0.04383
 C1473 C 0.03648 0.12184 0.03730
 C1474 C 0.03107 0.10691 0.03198
 C1475 C 0.02506 0.08922 0.02601
 C1476 C 0.02022 0.07394 0.02113
 C1477 C 0.04743 0.65604 0.54694
 C1478 C 0.04139 0.64162 0.54092
 C1479 C 0.03473 0.62441 0.53427
 C1480 C 0.02943 0.60944 0.52897
 C1481 C 0.02368 0.59159 0.52320
 C1482 C 0.01919 0.57610 0.51868
 C1483 C 0.54860 0.15446 0.54821
 C1484 C 0.54269 0.13990 0.54241
 C1485 C 0.53610 0.12260 0.53596
 C1486 C 0.53075 0.10762 0.53072
 C1487 C 0.52483 0.08986 0.52488
 C1488 C 0.52005 0.07453 0.52013
 C1489 C 0.54753 0.65602 0.04683
 C1490 C 0.54138 0.64159 0.04095
 C1491 C 0.53457 0.62437 0.03450
 C1492 C 0.52911 0.60940 0.02934
 C1493 C 0.52318 0.59156 0.02373
 C1494 C 0.51855 0.57609 0.01930
 C1495 C 0.70116 0.09549 0.54889
 C1496 C 0.70725 0.10997 0.54312
 C1497 C 0.71406 0.12719 0.53668
 C1498 C 0.71957 0.14210 0.53143
 C1499 C 0.72568 0.15979 0.52558
 C1500 C 0.73056 0.17508 0.52082
 C1501 C 0.70244 0.59534 0.04674
 C1502 C 0.70822 0.60998 0.04104
 C1503 C 0.71465 0.62738 0.03471
 C1504 C 0.71986 0.64243 0.02959
 C1505 C 0.72565 0.66028 0.02391
 C1506 C 0.73033 0.67568 0.01931
 C1507 C 0.20313 0.65634 0.70272
 C1508 C 0.20914 0.64191 0.70870
 C1509 C 0.21575 0.62469 0.71533
 C1510 C 0.22101 0.60971 0.72064
 C1511 C 0.22673 0.59187 0.72642
 C1512 C 0.23121 0.57639 0.73095
 C1513 C 0.20283 0.15600 0.20157
 C1514 C 0.20890 0.14158 0.20752
 C1515 C 0.21557 0.12437 0.21411
 C1516 C 0.22087 0.10940 0.21940
 C1517 C 0.22660 0.09157 0.22518
 C1518 C 0.23107 0.07609 0.22974
 C1519 C 0.70315 1.15596 0.70312
 C1520 C 0.70915 1.14153 0.70912
 C1521 C 0.71572 1.12430 0.71574
 C1522 C 0.72094 1.10931 0.72101
 C1523 C 0.72659 1.09143 0.72674
 C1524 C 0.73099 1.07592 0.73123
 C1525 C 0.70329 0.65636 0.20237
 C1526 C 0.70938 0.64194 0.20831
 C1527 C 0.71608 0.62472 0.21487
 C1528 C 0.72141 0.60975 0.22012
 C1529 C 0.72717 0.59191 0.22584
 C1530 C 0.73165 0.57641 0.23034
 C1531 C 0.54659 0.09372 0.70221
 C1532 C 0.54057 0.10810 0.70831
 C1533 C 0.53395 0.12528 0.71506
 C1534 C 0.52868 0.14021 0.72048
 C1535 C 0.52299 0.15802 0.72638
 C1536 C 0.51854 0.17349 0.73101
 C1537 C 1.04716 0.09325 0.20222
 C1538 C 1.04111 0.10766 0.20820
 C1539 C 1.03444 0.12487 0.21481
 C1540 C 1.02911 0.13983 0.22009
 C1541 C 1.02334 0.15766 0.22584
 C1542 C 1.01882 0.17314 0.23035
 C1543 C 0.20293 0.59537 0.54745
 C1544 C 0.20867 0.61003 0.54177
 C1545 C 0.21503 0.62746 0.53544
 C1546 C 0.22017 0.64253 0.53030
 C1547 C 0.22586 0.66040 0.52458
 C1548 C 0.23044 0.67582 0.51994
 C1549 C 0.20087 0.09517 1.04823
 C1550 C 0.20690 0.10968 1.04245
 C1551 C 0.21362 0.12693 1.03602
 C1552 C 0.21906 0.14188 1.03081
 C1553 C 0.22507 0.15962 1.02501
 C1554 C 0.22987 0.17496 1.02033
 C1555 C 0.20203 0.70334 0.65483
 C1556 C 0.20770 0.70920 0.64022
 C1557 C 0.21400 0.71572 0.62286
 C1558 C 0.21914 0.72099 0.60784
 C1559 C 0.22486 0.72682 0.59004
 C1560 C 0.22952 0.73150 0.57468
 C1561 C 0.20169 0.20185 1.15513
 C1562 C 0.20735 0.20778 1.14055
 C1563 C 0.21366 0.21438 1.12322
 C1564 C 0.21879 0.21972 1.10822
 C1565 C 0.22452 0.22562 1.09045
 C1566 C 0.22918 0.23036 1.07510
 C1567 C 0.70307 0.54708 0.09336
 C1568 C 0.70903 0.54102 0.10777
 C1569 C 0.71558 0.53434 0.12498
 C1570 C 0.72081 0.52901 0.13996
 C1571 C 0.72649 0.52326 0.15780
 C1572 C 0.73097 0.51877 0.17329
 C1573 C 0.70169 1.04785 0.59484
 C1574 C 0.70774 1.04153 0.60911
 C1575 C 0.71442 1.03456 0.62617
 C1576 C 0.71978 1.02901 0.64101
 C1577 C 0.72563 1.02302 0.65873
 C1578 C 0.73023 1.01839 0.67414
 C1579 C 0.54804 0.20281 0.59476
 C1580 C 0.54193 0.20894 0.60907
 C1581 C 0.53517 0.21567 0.62617
 C1582 C 0.52976 0.22101 0.64106
 C1583 C 0.52388 0.22676 0.65883
 C1584 C 0.51927 0.23124 0.67428
 C1585 C 1.04842 0.20095 0.09466
 C1586 C 1.04226 0.20729 0.10886
 C1587 C 1.03545 0.21430 0.12583
 C1588 C 1.03000 0.21988 0.14063
 C1589 C 1.02409 0.22590 0.15831
 C1590 C 1.01945 0.23055 0.17369
 C1591 C 0.65567 0.20321 0.70324
 C1592 C 0.64128 0.20908 0.70932
 C1593 C 0.62409 0.21550 0.71606
 C1594 C 0.60915 0.22061 0.72145
 C1595 C 0.59134 0.22616 0.72728
 C1596 C 0.57589 0.23053 0.73183
 C1597 C 1.15576 0.20239 0.20259
 C1598 C 1.14140 0.20829 0.20874
 C1599 C 1.12426 0.21479 0.21551
 C1600 C 1.10934 0.22000 0.22090
 C1601 C 1.09156 0.22567 0.22672
 C1602 C 1.07613 0.23014 0.23124
 C1603 C 0.09563 0.70263 0.54778
 C1604 C 0.11023 0.70834 0.54205
 C1605 C 0.12758 0.71471 0.53565
 C1606 C 0.14257 0.71989 0.53045
 C1607 C 0.16032 0.72568 0.52466
 C1608 C 0.17563 0.73040 0.51997
 C1609 C 0.09604 0.20023 1.04892
 C1610 C 0.11049 0.20616 1.04301
 C1611 C 0.12767 0.21281 1.03645
 C1612 C 0.14253 0.21824 1.03113
 C1613 C 0.16016 0.22430 1.02524
 C1614 C 0.17539 0.22920 1.02047
 C1615 C 0.59376 0.54657 0.20386
 C1616 C 0.60831 0.54078 0.20967
 C1617 C 0.62566 0.53439 0.21604
 C1618 C 0.64073 0.52928 0.22111
 C1619 C 0.65865 0.52373 0.22663
 C1620 C 0.67417 0.51935 0.23097
 C1621 C 0.59408 1.04645 0.70229
 C1622 C 0.60844 1.04052 0.70843
 C1623 C 0.62558 1.03401 0.71525
 C1624 C 0.64049 1.02882 0.72072
 C1625 C 0.65826 1.02319 0.72667
 C1626 C 0.67368 1.01876 0.73132
 C1627 C 0.90320 0.45068 0.29978
 C1628 C 0.88892 0.45691 0.29376
 C1629 C 0.87191 0.46387 0.28702
 C1630 C 0.85717 0.46950 0.28153
 C1631 C 0.83966 0.47570 0.27542
 C1632 C 0.82448 0.48065 0.27049
 C1633 C 0.90389 0.95238 0.79909
 C1634 C 0.88938 0.95834 0.79334
 C1635 C 0.87212 0.96495 0.78692
 C1636 C 0.85718 0.97028 0.78169
 C1637 C 0.83946 0.97615 0.77585
 C1638 C 0.82415 0.98084 0.77110
 C1639 C 0.34599 0.29800 0.79884
 C1640 C 0.36045 0.29192 0.79312
 C1641 C 0.37765 0.28514 0.78674
 C1642 C 0.39254 0.27966 0.78156
 C1643 C 0.41021 0.27362 0.77578
 C1644 C 0.42548 0.26881 0.77108
 C1645 C 0.84626 0.29828 0.29817
 C1646 C 0.86074 0.29231 0.29239
 C1647 C 0.87795 0.28564 0.28594
 C1648 C 0.89284 0.28022 0.28069
 C1649 C 0.91050 0.27421 0.27483
 C1650 C 0.92574 0.26938 0.27006
 C1651 C 0.40593 0.79696 0.45285
 C1652 C 0.39153 0.79096 0.45880
 C1653 C 0.37434 0.78437 0.46538
 C1654 C 0.35939 0.77914 0.47064
 C1655 C 0.34158 0.77348 0.47637
 C1656 C 0.32612 0.76907 0.48087
 C1657 C 0.40470 0.29789 0.95259
 C1658 C 0.39049 0.29161 0.95870
 C1659 C 0.37350 0.28467 0.96544
 C1660 C 0.35870 0.27913 0.97083
 C1661 C 0.34104 0.27315 0.97669
 C1662 C 0.32567 0.26851 0.98128
 C1663 C 0.79874 0.45168 0.40390
 C1664 C 0.79280 0.45747 0.38937
 C1665 C 0.78621 0.46393 0.37209
 C1666 C 0.78087 0.46920 0.35714
 C1667 C 0.77496 0.47507 0.33941
 C1668 C 0.77020 0.47985 0.32409
 C1669 C 0.79833 0.95202 0.90499
 C1670 C 0.79244 0.95769 0.89039
 C1671 C 0.78584 0.96400 0.87305
 C1672 C 0.78048 0.96913 0.85805
 C1673 C 0.77452 0.97487 0.84028
 C1674 C 0.76972 0.97955 0.82494
 C1675 C 0.29800 0.79891 0.34473
 C1676 C 0.29181 0.79278 0.35900
 C1677 C 0.28496 0.78601 0.37605
 C1678 C 0.27949 0.78059 0.39089
 C1679 C 0.27355 0.77471 0.40860
 C1680 C 0.26891 0.77010 0.42399
 C1681 C 0.29769 0.29794 0.84520
 C1682 C 0.29144 0.29189 0.85948
 C1683 C 0.28456 0.28519 0.87654
 C1684 C 0.27907 0.27983 0.89139
 C1685 C 0.27313 0.27397 0.90911
 C1686 C 0.26851 0.26938 0.92451
 C1687 C 0.45133 0.29897 0.90455
 C1688 C 0.45723 0.29303 0.89006
 C1689 C 0.46379 0.28636 0.87285
 C1690 C 0.46910 0.28092 0.85795
 C1691 C 0.47501 0.27485 0.84028
 C1692 C 0.47979 0.26996 0.82502
 C1693 C 0.95226 0.29762 0.40433
 C1694 C 0.95813 0.29175 0.38981
 C1695 C 0.96465 0.28522 0.37253
 C1696 C 0.96993 0.27992 0.35757
 C1697 C 0.97576 0.27404 0.33982
 C1698 C 0.98044 0.26930 0.32448
 C1699 C 0.45082 0.40366 0.79944
 C1700 C 0.45681 0.38926 0.79340
 C1701 C 0.46350 0.37210 0.78669
 C1702 C 0.46891 0.35723 0.78127
 C1703 C 0.47492 0.33956 0.77528
 C1704 C 0.47975 0.32427 0.77047
 C1705 C 0.95019 0.40286 0.29932
 C1706 C 0.95615 0.38851 0.29310
 C1707 C 0.96282 0.37143 0.28614
 C1708 C 0.96825 0.35663 0.28051
 C1709 C 0.97430 0.33905 0.27430
 C1710 C 0.97920 0.32382 0.26935
 C1711 C 0.29760 0.90649 0.45265
 C1712 C 0.29156 0.89215 0.45881
 C1713 C 0.28492 0.87501 0.46562
 C1714 C 0.27962 0.86009 0.47103
 C1715 C 0.27385 0.84229 0.47688
 C1716 C 0.26932 0.82683 0.48141
 C1717 C 0.29818 0.40520 0.95296
 C1718 C 0.29201 0.39095 0.95921
 C1719 C 0.28518 0.37392 0.96610
 C1720 C 0.27971 0.35908 0.97157
 C1721 C 0.27376 0.34136 0.97747
 C1722 C 0.26910 0.32594 0.98203
 C1723 C 0.79891 0.34574 0.29777
 C1724 C 0.79301 0.36023 0.29183
 C1725 C 0.78641 0.37747 0.28523
 C1726 C 0.78104 0.39240 0.27989
 C1727 C 0.77508 0.41012 0.27400
 C1728 C 0.77028 0.42544 0.26926
   
