data_POSCAR
  _audit_creation_date              2014-09-24
  _audit_creation_method            'ToBaCCo'
  _symmetry_space_group_name_H-M    'P1'
  _symmetry_Int_Tables_number       1
  _symmetry_cell_setting            triclinic
  loop_
  _symmetry_equiv_pos_as_xyz
 x,y,z
_cell_length_a 48.4059
_cell_length_b 48.5415
_cell_length_c 48.5419
_cell_angle_alpha 89.987800
_cell_angle_beta 90.063500
_cell_angle_gamma 90.001100
loop_
  _atom_site_label
  _atom_site_type_symbol
  _atom_site_fract_x
  _atom_site_fract_y
  _atom_site_fract_z
C1 C 0.25658 1.07283 0.00451
 C2 C 0.25819 1.05818 0.02939
 C3 C 0.25543 1.02934 0.02848
 C4 C 0.25030 1.01526 0.00341
 C5 C 0.24832 1.03110 -0.02107
 C6 C 0.25308 1.05975 -0.02106
 C7 C 0.24836 0.98416 0.00257
 C8 C 0.25239 0.96950 -0.02241
 C9 C 0.25096 0.94066 -0.02327
 C10 C 0.24644 0.92611 0.00113
 C11 C 0.24441 0.93965 0.02645
 C12 C 0.24393 0.96857 0.02692
 H13 H 0.25606 1.09509 0.00521
 H14 H 0.25893 1.01804 0.04726
 H15 H 0.24426 1.02107 -0.04039
 H16 H 0.25776 0.97992 -0.04128
 H17 H 0.24515 0.90383 0.00052
 H18 H 0.24088 0.97846 0.04657
 C19 C 0.74770 0.57844 0.49834
 C20 C 0.75094 0.56453 0.52336
 C21 C 0.75082 0.53560 0.52340
 C22 C 0.74623 0.52036 0.49889
 C23 C 0.74333 0.53532 0.47392
 C24 C 0.74531 0.56416 0.47345
 C25 C 0.74520 0.48923 0.49943
 C26 C 0.74806 0.47349 0.47497
 C27 C 0.74641 0.44461 0.47543
 C28 C 0.74404 0.43115 0.50078
 C29 C 0.74092 0.44587 0.52532
 C30 C 0.74094 0.47477 0.52448
 H31 H 0.74726 0.60075 0.49810
 H32 H 0.75509 0.52536 0.54267
 H33 H 0.74007 0.52502 0.45453
 H34 H 0.75122 0.48322 0.45528
 H35 H 0.74469 0.40885 0.50140
 H36 H 0.73697 0.48554 0.54351
 C37 C 0.74298 1.00359 1.07260
 C38 C 0.74073 0.97858 1.05830
 C39 C 0.74354 0.97912 1.02951
 C40 C 0.74992 1.00371 1.01514
 C41 C 0.75176 1.02850 1.03051
 C42 C 0.74685 1.02896 1.05918
 C43 C 0.75376 1.00328 0.98423
 C44 C 0.75211 1.02764 0.96812
 C45 C 0.75569 1.02688 0.93937
 C46 C 0.75882 1.00133 0.92638
 C47 C 0.76082 0.97695 0.94156
 C48 C 0.75919 0.97818 0.97035
 H49 H 0.74374 1.00308 1.09485
 H50 H 0.73935 0.96038 1.01835
 H51 H 0.75603 1.04760 1.02018
 H52 H 0.74828 1.04738 0.97749
 H53 H 0.75941 1.00038 0.90409
 H54 H 0.76264 0.95929 0.98156
 C55 C 0.24774 0.49537 0.57638
 C56 C 0.24414 0.47112 0.56129
 C57 C 0.24314 0.47246 0.53246
 C58 C 0.24667 0.49778 0.51832
 C59 C 0.24999 0.52198 0.53439
 C60 C 0.24936 0.52103 0.56334
 C61 C 0.24620 0.49897 0.48720
 C62 C 0.24163 0.52416 0.47307
 C63 C 0.24164 0.52534 0.44418
 C64 C 0.24546 0.50110 0.42917
 C65 C 0.24796 0.47558 0.44226
 C66 C 0.24959 0.47477 0.47113
 H67 H 0.24906 0.49423 0.59863
 H68 H 0.23872 0.45360 0.52158
 H69 H 0.25257 0.54182 0.52478
 H70 H 0.23718 0.54296 0.48403
 H71 H 0.24615 0.50205 0.40688
 H72 H 0.25300 0.45501 0.48064
 C73 C 1.07723 0.24167 -0.00242
 C74 C 1.06368 0.24764 0.02252
 C75 C 1.03455 0.24776 0.02252
 C76 C 1.01912 0.24076 -0.00125
 C77 C 1.03364 0.23399 -0.02554
 C78 C 1.06257 0.23491 -0.02637
 C79 C 0.98806 0.24055 -0.00051
 C80 C 0.97220 0.24411 -0.02485
 C81 C 0.94303 0.24278 -0.02436
 C82 C 0.93011 0.24064 0.00151
 C83 C 0.94514 0.23698 0.02581
 C84 C 0.97399 0.23635 0.02464
 H85 H 1.09953 0.24126 -0.00331
 H86 H 1.02393 0.25463 0.04083
 H87 H 1.02279 0.22743 -0.04386
 H88 H 0.98258 0.24697 -0.04426
 H89 H 0.90792 0.24285 0.00316
 H90 H 0.98518 0.23210 0.04345
 C91 C 0.57388 0.74557 0.49846
 C92 C 0.55998 0.75137 0.52309
 C93 C 0.53100 0.75151 0.52321
 C94 C 0.51568 0.74435 0.49948
 C95 C 0.53034 0.73804 0.47512
 C96 C 0.55931 0.73931 0.47428
 C97 C 0.48466 0.74352 0.50031
 C98 C 0.46876 0.74636 0.47595
 C99 C 0.43981 0.74503 0.47680
 C100 C 0.42665 0.74308 0.50233
 C101 C 0.44165 0.73956 0.52668
 C102 C 0.47058 0.73940 0.52554
 H103 H 0.59623 0.74597 0.49808
 H104 H 0.52063 0.75771 0.54192
 H105 H 0.51957 0.73160 0.45671
 H106 H 0.47858 0.74929 0.45621
 H107 H 0.40431 0.74412 0.50320
 H108 H 0.48182 0.73537 0.54437
 C109 C 0.00152 0.75668 -0.07373
 C110 C 0.02572 0.75300 -0.05852
 C111 C 0.02440 0.75334 -0.02977
 C112 C -0.00071 0.75875 -0.01585
 C113 C -0.02489 0.76256 -0.03199
 C114 C -0.02438 0.75966 -0.06095
 C115 C -0.00176 0.75873 0.01526
 C116 C -0.02693 0.75432 0.02958
 C117 C -0.02776 0.75260 0.05857
 C118 C -0.00275 0.75491 0.07311
 C119 C 0.02251 0.75805 0.05963
 C120 C 0.02276 0.76137 0.03100
 H121 H 0.00318 0.75761 -0.09595
 H122 H 0.04309 0.74841 -0.01871
 H123 H -0.04436 0.76635 -0.02203
 H124 H -0.04574 0.75027 0.01840
 H125 H -0.00265 0.75494 0.09541
 H126 H 0.04243 0.76520 0.02132
 C127 C 0.49945 0.25491 0.42504
 C128 C 0.52511 0.25145 0.43792
 C129 C 0.52617 0.24861 0.46669
 C130 C 0.50212 0.25147 0.48304
 C131 C 0.47665 0.25573 0.46930
 C132 C 0.47515 0.25680 0.44048
 C133 C 0.50372 0.25106 0.51410
 C134 C 0.47975 0.24712 0.53039
 C135 C 0.48084 0.24885 0.55924
 C136 C 0.50651 0.25207 0.57211
 C137 C 0.53062 0.25588 0.55676
 C138 C 0.52907 0.25585 0.52792
 H139 H 0.49836 0.25590 0.40275
 H140 H 0.54606 0.24480 0.47598
 H141 H 0.45776 0.25915 0.48055
 H142 H 0.45991 0.24334 0.52102
 H143 H 0.50770 0.25179 0.59440
 H144 H 0.54772 0.26055 0.51671
 C145 C 1.06990 -0.00135 0.25037
 C146 C 1.05653 0.02429 0.25172
 C147 C 1.02759 0.02474 0.24835
 C148 C 1.01232 0.00044 0.24257
 C149 C 1.02688 -0.02479 0.24123
 C150 C 1.05532 -0.02585 0.24632
 C151 C 0.98137 0.00148 0.23880
 C152 C 0.96464 -0.02237 0.24181
 C153 C 0.93570 -0.02144 0.23785
 C154 C 0.92356 0.00457 0.23359
 C155 C 0.93943 0.02842 0.23056
 C156 C 0.96819 0.02658 0.23217
 H157 H 1.09220 -0.00260 0.25144
 H158 H 1.01695 0.04395 0.25181
 H159 H 1.01649 -0.04391 0.23670
 H160 H 0.97413 -0.04184 0.24643
 H161 H 0.90132 0.00677 0.23397
 H162 H 0.97997 0.04501 0.22805
 C163 C 0.57516 0.49797 0.73941
 C164 C 0.56146 0.52316 0.74234
 C165 C 0.53250 0.52335 0.74372
 C166 C 0.51691 0.49893 0.73977
 C167 C 0.53156 0.47404 0.73534
 C168 C 0.56055 0.47338 0.73568
 C169 C 0.48571 0.49960 0.73965
 C170 C 0.46989 0.47521 0.74298
 C171 C 0.44087 0.47582 0.74197
 C172 C 0.42749 0.50129 0.73990
 C173 C 0.44235 0.52570 0.73636
 C174 C 0.47127 0.52468 0.73564
 H175 H 0.59753 0.49752 0.74008
 H176 H 0.52251 0.54284 0.74741
 H177 H 0.52090 0.45505 0.73085
 H178 H 0.47976 0.45553 0.74597
 H179 H 0.40515 0.50212 0.74106
 H180 H 0.48204 0.54362 0.73121
 C181 C 1.00697 1.07221 0.76310
 C182 C 0.98062 1.06036 0.75978
 C183 C 0.97909 1.03128 0.75813
 C184 C 1.00268 1.01445 0.76262
 C185 C 1.02819 1.02753 0.76796
 C186 C 1.03052 1.05619 0.76750
 C187 C 1.00068 0.98346 0.76256
 C188 C 1.02435 0.96685 0.75785
 C189 C 1.02324 0.93783 0.75990
 C190 C 0.99711 0.92568 0.76351
 C191 C 0.97337 0.94141 0.76803
 C192 C 0.97533 0.97016 0.76814
 H193 H 1.00971 1.09426 0.76125
 H194 H 0.95940 1.02170 0.75434
 H195 H 1.04645 1.01582 0.77309
 H196 H 1.04387 0.97656 0.75366
 H197 H 0.99475 0.90357 0.76186
 H198 H 0.95701 0.98179 0.77322
 C199 C 0.49617 0.57403 0.25431
 C200 C 0.47196 0.55930 0.25995
 C201 C 0.47261 0.53039 0.25931
 C202 C 0.49688 0.51607 0.25165
 C203 C 0.52069 0.53167 0.24530
 C204 C 0.52065 0.56045 0.24730
 C205 C 0.49749 0.48518 0.24971
 C206 C 0.52288 0.47080 0.25149
 C207 C 0.52405 0.44222 0.24771
 C208 C 0.49954 0.42786 0.24263
 C209 C 0.47378 0.44080 0.24444
 C210 C 0.47289 0.46964 0.24659
 H211 H 0.49594 0.59633 0.25513
 H212 H 0.45411 0.51944 0.26514
 H213 H 0.53934 0.52181 0.23811
 H214 H 0.54179 0.48144 0.25667
 H215 H 0.50045 0.40595 0.23848
 H216 H 0.45297 0.47957 0.24631
 O217 O 0.25070 0.17597 0.21604
 O218 O 0.28281 0.17243 0.25595
 O219 O 0.17736 0.20923 0.25167
 O220 O 0.16601 0.24533 0.27820
 O221 O 0.21339 0.24771 0.18021
 O222 O 0.25217 0.27793 0.17360
 O223 O 0.24734 0.28808 0.32352
 O224 O 0.21352 0.25237 0.32985
 O225 O 0.31774 0.25394 0.29396
 O226 O 0.32478 0.21522 0.26061
 O227 O 0.28700 0.31931 0.25324
 O228 O 0.24785 0.32675 0.22024
 O229 O 0.24725 0.32015 0.28933
 O230 O 0.21854 0.32852 0.24926
 O231 O 0.31998 0.28594 0.25539
 O232 O 0.32872 0.25052 0.22536
 O233 O 0.28372 0.25143 0.32615
 O234 O 0.24543 0.21974 0.33348
 O235 O 0.25368 0.20892 0.18289
 O236 O 0.28118 0.24859 0.17363
 O237 O 0.17841 0.24744 0.21136
 O238 O 0.17018 0.27971 0.24859
 O239 O 0.21109 0.17656 0.25388
 O240 O 0.24616 0.16965 0.28514
 Zr241 Zr 0.24809 0.19901 0.25292
 O242 O 0.27231 0.22340 0.27954
 Zr243 Zr 0.19904 0.24693 0.24972
 O244 O 0.22155 0.27343 0.27606
 Zr245 Zr 0.24971 0.24655 0.20374
 O246 O 0.27438 0.27254 0.22791
 Zr247 Zr 0.24725 0.25031 0.30228
 O248 O 0.22249 0.22365 0.27802
 Zr249 Zr 0.29758 0.24922 0.25595
 O250 O 0.27566 0.22272 0.22911
 Zr251 Zr 0.24908 0.29748 0.25255
 O252 O 0.22406 0.27337 0.22603
 O253 O 0.22326 0.22108 0.22568
 O254 O 0.27375 0.27562 0.27996
 C255 C 0.25381 0.18369 0.19088
 C256 C 0.18562 0.18408 0.25371
 C257 C 0.18766 0.24853 0.18655
 C258 C 0.24698 0.31306 0.31482
 C259 C 0.30915 0.25394 0.31897
 C260 C 0.31235 0.31125 0.25438
 H261 H 0.28363 0.21146 0.29160
 H262 H 0.28651 0.28336 0.21560
 H263 H 0.21208 0.20896 0.21364
 H264 H 0.20865 0.28495 0.28684
 H265 H 0.20011 0.23813 0.32391
 H266 H 0.17079 0.25757 0.29378
 H267 H 0.32688 0.23349 0.21431
 H268 H 0.29629 0.23646 0.18000
 H269 H 0.26025 0.20615 0.33006
 H270 H 0.23447 0.17774 0.29977
 H271 H 0.26379 0.32317 0.20802
 H272 H 0.23853 0.29219 0.17884
 H273 H 0.27721 0.15360 0.25026
 H274 H 0.34339 0.22261 0.26491
 H275 H 0.17686 0.29301 0.23465
 H276 H 0.20344 0.32377 0.26212
 O277 O 0.74117 0.82300 0.20791
 O278 O 0.71026 0.82765 0.24840
 O279 O 0.81583 0.79221 0.24571
 O280 O 0.82634 0.75681 0.27434
 O281 O 0.78322 0.75231 0.17374
 O282 O 0.74508 0.72129 0.16662
 O283 O 0.74924 0.71327 0.31625
 O284 O 0.77846 0.75347 0.32321
 O285 O 0.67448 0.74730 0.28487
 O286 O 0.66914 0.78518 0.25002
 O287 O 0.70714 0.68089 0.24573
 O288 O 0.74727 0.67297 0.21427
 O289 O 0.74434 0.68028 0.28337
 O290 O 0.77612 0.67210 0.24425
 O291 O 0.67386 0.71407 0.24531
 O292 O 0.66561 0.74901 0.21599
 O293 O 0.70857 0.74577 0.31706
 O294 O 0.73998 0.77911 0.32730
 O295 O 0.74352 0.79068 0.17412
 O296 O 0.71450 0.75071 0.16591
 O297 O 0.81615 0.75184 0.20717
 O298 O 0.82463 0.72238 0.24575
 O299 O 0.78164 0.82441 0.24351
 O300 O 0.74732 0.83152 0.27655
 Zr301 Zr 0.74511 0.80127 0.24512
 O302 O 0.72059 0.77696 0.27139
 Zr303 Zr 0.79460 0.75406 0.24449
 O304 O 0.77184 0.72720 0.27000
 Zr305 Zr 0.74586 0.75327 0.19618
 O306 O 0.72058 0.72745 0.22017
 Zr307 Zr 0.74534 0.75050 0.29486
 O308 O 0.77027 0.77763 0.27153
 Zr309 Zr 0.69612 0.75082 0.24724
 O310 O 0.71871 0.77702 0.22057
 Zr311 Zr 0.74502 0.70272 0.24607
 O312 O 0.77074 0.72696 0.22019
 O313 O 0.77102 0.77912 0.21904
 O314 O 0.71946 0.72478 0.27230
 C315 C 0.74093 0.81567 0.18249
 C316 C 0.80722 0.81733 0.24446
 C317 C 0.80848 0.75092 0.18186
 C318 C 0.74725 0.68807 0.30852
 C319 C 0.68306 0.74502 0.30986
 C320 C 0.68176 0.68883 0.24485
 H321 H 0.70907 0.78877 0.28338
 H322 H 0.70894 0.71643 0.20755
 H323 H 0.78237 0.79094 0.20689
 H324 H 0.78480 0.71605 0.28113
 H325 H 0.78904 0.77028 0.31844
 H326 H 0.82002 0.74657 0.29077
 H327 H 0.66845 0.76524 0.20401
 H328 H 0.70040 0.76464 0.17071
 H329 H 0.74048 0.79761 0.31890
 H330 H 0.76220 0.82591 0.28939
 H331 H 0.73199 0.67666 0.20124
 H332 H 0.75857 0.70727 0.17284
 H333 H 0.71544 0.84634 0.24193
 H334 H 0.65036 0.77816 0.25419
 H335 H 0.81785 0.70749 0.23357
 H336 H 0.78959 0.67595 0.25909
 O337 O 0.75679 0.18039 0.78405
 O338 O 0.72404 0.17467 0.74504
 O339 O 0.82723 0.21597 0.74915
 O340 O 0.83572 0.25501 0.71964
 O341 O 0.79066 0.25166 0.81969
 O342 O 0.75160 0.28153 0.82683
 O343 O 0.75291 0.29151 0.67689
 O344 O 0.78887 0.25400 0.66906
 O345 O 0.68566 0.25537 0.70669
 O346 O 0.68026 0.21623 0.74266
 O347 O 0.71482 0.32154 0.74354
 O348 O 0.75233 0.33107 0.77905
 O349 O 0.75354 0.32437 0.71026
 O350 O 0.78310 0.33291 0.75079
 O351 O 0.68207 0.28787 0.74458
 O352 O 0.67388 0.24898 0.77434
 O353 O 0.71946 0.25332 0.67429
 O354 O 0.76012 0.22341 0.66693
 O355 O 0.75257 0.21267 0.81784
 O356 O 0.72130 0.25057 0.82507
 O357 O 0.82541 0.25395 0.78821
 O358 O 0.83351 0.28544 0.75057
 O359 O 0.79535 0.18145 0.74695
 O360 O 0.75998 0.17420 0.71432
 Zr361 Zr 0.75742 0.20295 0.74704
 O362 O 0.73177 0.22636 0.72079
 Zr363 Zr 0.80449 0.25290 0.74995
 O364 O 0.78114 0.27834 0.72350
 Zr365 Zr 0.75415 0.25050 0.79640
 O366 O 0.72866 0.27602 0.77231
 Zr367 Zr 0.75607 0.25383 0.69790
 O368 O 0.78209 0.22836 0.72196
 Zr369 Zr 0.70593 0.25159 0.74473
 O370 O 0.72919 0.22574 0.77109
 Zr371 Zr 0.75311 0.30139 0.74709
 O372 O 0.77878 0.27834 0.77387
 O373 O 0.78124 0.22627 0.77394
 O374 O 0.72900 0.27823 0.72033
 C375 C 0.75450 0.18761 0.80943
 C376 C 0.82041 0.19034 0.74817
 C377 C 0.81636 0.25278 0.81312
 C378 C 0.75205 0.31668 0.68498
 C379 C 0.69406 0.25549 0.68163
 C380 C 0.68961 0.31321 0.74281
 H381 H 0.72079 0.21397 0.70887
 H382 H 0.71648 0.28693 0.78443
 H383 H 0.79297 0.21463 0.78592
 H384 H 0.79361 0.29033 0.71274
 H385 H 0.79961 0.27113 0.67175
 H386 H 0.82946 0.24329 0.70417
 H387 H 0.67787 0.26250 0.78906
 H388 H 0.70749 0.23718 0.81819
 H389 H 0.74567 0.20936 0.67013
 H390 H 0.77306 0.18190 0.70068
 H391 H 0.73538 0.32809 0.79001
 H392 H 0.76352 0.29683 0.82048
 H393 H 0.73095 0.15613 0.75024
 H394 H 0.66268 0.22148 0.73356
 H395 H 0.82627 0.29936 0.76359
 H396 H 0.79755 0.32944 0.73682
 O397 O 0.25080 0.82103 0.78998
 O398 O 0.28296 0.82640 0.75046
 O399 O 0.17949 0.78578 0.75410
 O400 O 0.16920 0.75063 0.72576
 O401 O 0.21513 0.74876 0.82495
 O402 O 0.25407 0.71851 0.83126
 O403 O 0.25089 0.71004 0.68103
 O404 O 0.21760 0.74607 0.67428
 O405 O 0.32198 0.74906 0.71221
 O406 O 0.32630 0.78512 0.74830
 O407 O 0.29126 0.67994 0.74760
 O408 O 0.25464 0.66998 0.78322
 O409 O 0.25083 0.67775 0.71497
 O410 O 0.22320 0.66877 0.75618
 O411 O 0.32429 0.71337 0.74828
 O412 O 0.33123 0.74701 0.78103
 O413 O 0.28770 0.74610 0.68027
 O414 O 0.24956 0.77848 0.67168
 O415 O 0.25444 0.78785 0.82291
 O416 O 0.28362 0.74824 0.83148
 O417 O 0.18147 0.74614 0.79232
 O418 O 0.17379 0.71561 0.75384
 O419 O 0.21142 0.82023 0.75258
 O420 O 0.24646 0.82780 0.72053
 Zr421 Zr 0.24925 0.79852 0.75276
 O422 O 0.27465 0.77505 0.72632
 Zr423 Zr 0.20209 0.74890 0.75445
 O424 O 0.22530 0.72350 0.72808
 Zr425 Zr 0.25187 0.75031 0.80157
 O426 O 0.27759 0.72531 0.77720
 Zr427 Zr 0.25067 0.74773 0.70275
 O428 O 0.22483 0.77342 0.72687
 Zr429 Zr 0.30063 0.74970 0.74993
 O430 O 0.27735 0.77525 0.77672
 Zr431 Zr 0.25315 0.70022 0.75178
 O432 O 0.22733 0.72305 0.77842
 O433 O 0.22504 0.77510 0.77931
 O434 O 0.27759 0.72313 0.72516
 C435 C 0.25371 0.81314 0.81512
 C436 C 0.18635 0.81137 0.75344
 C437 C 0.18975 0.74629 0.81746
 C438 C 0.25044 0.68494 0.68953
 C439 C 0.31329 0.74684 0.68731
 C440 C 0.31652 0.68809 0.74653
 H441 H 0.28576 0.78754 0.71467
 H442 H 0.29001 0.71444 0.78919
 H443 H 0.21339 0.78660 0.79149
 H444 H 0.21264 0.71186 0.71711
 H445 H 0.20400 0.76016 0.68011
 H446 H 0.17476 0.73970 0.70950
 H447 H 0.32883 0.76324 0.79310
 H448 H 0.29745 0.76239 0.82655
 H449 H 0.26441 0.79196 0.67538
 H450 H 0.23509 0.81933 0.70584
 H451 H 0.27138 0.67328 0.79444
 H452 H 0.24190 0.70353 0.82460
 H453 H 0.27647 0.84497 0.75602
 H454 H 0.34543 0.77887 0.74454
 H455 H 0.18024 0.70209 0.76770
 H456 H 0.20852 0.67223 0.74241
 O457 O 0.24752 0.31488 0.71031
 O458 O 0.21657 0.31969 0.75063
 O459 O 0.32311 0.28780 0.75082
 O460 O 0.33568 0.25244 0.77812
 O461 O 0.29248 0.24475 0.67825
 O462 O 0.25553 0.21233 0.67166
 O463 O 0.25848 0.20852 0.82164
 O464 O 0.28716 0.24953 0.82762
 O465 O 0.18331 0.24142 0.78877
 O466 O 0.17713 0.27572 0.75063
 O467 O 0.21911 0.17264 0.75392
 O468 O 0.25849 0.16540 0.72075
 O469 O 0.25676 0.17449 0.78951
 O470 O 0.28853 0.16692 0.75013
 O471 O 0.18476 0.20470 0.75537
 O472 O 0.17523 0.23558 0.72042
 O473 O 0.21715 0.24000 0.82127
 O474 O 0.24847 0.27455 0.83101
 O475 O 0.25161 0.28179 0.67737
 O476 O 0.22357 0.24038 0.67043
 O477 O 0.32527 0.24939 0.71157
 O478 O 0.33410 0.21787 0.75002
 O479 O 0.28806 0.31880 0.74602
 O480 O 0.25339 0.32555 0.77870
 Zr481 Zr 0.25229 0.29440 0.74811
 O482 O 0.22857 0.27000 0.77495
 Zr483 Zr 0.30346 0.24897 0.74886
 O484 O 0.28165 0.22213 0.77518
 Zr485 Zr 0.25494 0.24500 0.70046
 O486 O 0.23050 0.21882 0.72513
 Zr487 Zr 0.25419 0.24518 0.79931
 O488 O 0.27823 0.27241 0.77522
 Zr489 Zr 0.20532 0.24225 0.75141
 O490 O 0.22693 0.26851 0.72408
 Zr491 Zr 0.25599 0.19599 0.75173
 O492 O 0.28083 0.22037 0.72515
 O493 O 0.27896 0.27246 0.72276
 O494 O 0.22966 0.21803 0.77723
 C495 C 0.24788 0.30688 0.68510
 C496 C 0.31379 0.31254 0.74828
 C497 C 0.31770 0.24717 0.68631
 C498 C 0.25820 0.18306 0.81452
 C499 C 0.19167 0.23936 0.81382
 C500 C 0.19360 0.17979 0.75629
 H501 H 0.21650 0.28181 0.78639
 H502 H 0.21908 0.20681 0.71324
 H503 H 0.28980 0.28466 0.71053
 H504 H 0.29493 0.21178 0.78670
 H505 H 0.29760 0.26623 0.82220
 H506 H 0.32935 0.24317 0.79512
 H507 H 0.17736 0.25063 0.70687
 H508 H 0.20958 0.25475 0.67410
 H509 H 0.24587 0.29256 0.82196
 H510 H 0.26807 0.32049 0.79200
 H511 H 0.24224 0.16747 0.70855
 H512 H 0.26890 0.19861 0.67873
 H513 H 0.22113 0.33837 0.74366
 H514 H 0.15852 0.26839 0.75497
 H515 H 0.32884 0.20394 0.73607
 H516 H 0.30219 0.17207 0.76440
 O517 O 0.74920 0.68299 0.71052
 O518 O 0.78177 0.67670 0.74946
 O519 O 0.67677 0.71389 0.75008
 O520 O 0.66601 0.74869 0.77865
 O521 O 0.71094 0.75688 0.67970
 O522 O 0.74949 0.78681 0.67340
 O523 O 0.74899 0.78883 0.82425
 O524 O 0.71512 0.75286 0.82958
 O525 O 0.81850 0.75153 0.79037
 O526 O 0.82374 0.71883 0.75113
 O527 O 0.78640 0.82364 0.75534
 O528 O 0.74673 0.83315 0.72350
 O529 O 0.75083 0.82245 0.79166
 O530 O 0.71756 0.83251 0.75354
 O531 O 0.81927 0.79018 0.75815
 O532 O 0.82787 0.75984 0.72266
 O533 O 0.78540 0.75228 0.82361
 O534 O 0.74713 0.71984 0.83039
 O535 O 0.75043 0.71748 0.67882
 O536 O 0.77930 0.75779 0.67193
 O537 O 0.67688 0.75425 0.71186
 O538 O 0.66986 0.78479 0.75123
 O539 O 0.71056 0.68130 0.74703
 O540 O 0.74543 0.67302 0.77944
 Zr541 Zr 0.74738 0.70384 0.74859
 O542 O 0.77233 0.72655 0.77587
 Zr543 Zr 0.69845 0.75180 0.74964
 O544 O 0.72172 0.77680 0.77688
 Zr545 Zr 0.74795 0.75401 0.70203
 O546 O 0.77333 0.77859 0.72704
 Zr547 Zr 0.74803 0.75215 0.80097
 O548 O 0.72252 0.72689 0.77589
 Zr549 Zr 0.79709 0.75350 0.75298
 O550 O 0.77442 0.72864 0.72526
 Zr551 Zr 0.74868 0.80186 0.75383
 O552 O 0.72294 0.77941 0.72665
 O553 O 0.72203 0.72758 0.72341
 O554 O 0.77394 0.77827 0.77915
 C555 C 0.75089 0.69189 0.68564
 C556 C 0.68512 0.68873 0.74819
 C557 C 0.68541 0.75681 0.68688
 C558 C 0.75114 0.81414 0.81675
 C559 C 0.81074 0.75157 0.81564
 C560 C 0.81153 0.81551 0.75832
 H561 H 0.78383 0.71366 0.78671
 H562 H 0.78529 0.79028 0.71536
 H563 H 0.71053 0.71630 0.71086
 H564 H 0.70932 0.78780 0.78873
 H565 H 0.70156 0.73890 0.82335
 H566 H 0.67139 0.75968 0.79495
 H567 H 0.82511 0.74551 0.70846
 H568 H 0.79305 0.74319 0.67567
 H569 H 0.76142 0.70621 0.82532
 H570 H 0.73294 0.67998 0.79400
 H571 H 0.76247 0.83044 0.71080
 H572 H 0.73676 0.80119 0.68031
 H573 H 0.77567 0.65820 0.74325
 H574 H 0.84265 0.72508 0.75592
 H575 H 0.67648 0.79897 0.73815
 H576 H 0.70483 0.82873 0.76901
 O577 O 0.24332 0.67851 0.29096
 O578 O 0.21569 0.67022 0.25008
 O579 O 0.31760 0.71230 0.25680
 O580 O 0.32626 0.74991 0.22504
 O581 O 0.28156 0.74933 0.32534
 O582 O 0.24300 0.78021 0.33191
 O583 O 0.24843 0.78748 0.18182
 O584 O 0.27920 0.74766 0.17449
 O585 O 0.17602 0.74826 0.21233
 O586 O 0.16678 0.71790 0.24783
 O587 O 0.20662 0.81977 0.25219
 O588 O 0.24530 0.82961 0.28257
 O589 O 0.24362 0.82075 0.21439
 O590 O 0.27539 0.82941 0.25436
 O591 O 0.17387 0.78640 0.24814
 O592 O 0.16582 0.74712 0.28103
 O593 O 0.21005 0.75141 0.18020
 O594 O 0.24912 0.71936 0.17290
 O595 O 0.24291 0.71146 0.32433
 O596 O 0.21201 0.74964 0.33058
 O597 O 0.31601 0.75222 0.29358
 O598 O 0.32488 0.78135 0.25489
 O599 O 0.28521 0.67823 0.25524
 O600 O 0.25093 0.67178 0.22043
 Zr601 Zr 0.24758 0.70006 0.25354
 O602 O 0.22227 0.72340 0.22710
 Zr603 Zr 0.29518 0.74943 0.25561
 O604 O 0.27217 0.77473 0.22883
 Zr605 Zr 0.24493 0.74859 0.30202
 O606 O 0.21975 0.77400 0.27750
 Zr607 Zr 0.24679 0.75024 0.20361
 O608 O 0.27253 0.72479 0.22806
 Zr609 Zr 0.19669 0.74952 0.25019
 O610 O 0.21958 0.72371 0.27694
 Zr611 Zr 0.24442 0.79869 0.25185
 O612 O 0.26983 0.77573 0.27901
 O613 O 0.27164 0.72345 0.28016
 O614 O 0.21975 0.77575 0.22513
 C615 C 0.24182 0.68628 0.31624
 C616 C 0.31035 0.68678 0.25660
 C617 C 0.30716 0.75105 0.31848
 C618 C 0.24630 0.81273 0.18931
 C619 C 0.18455 0.74971 0.18735
 C620 C 0.18147 0.81166 0.25018
 H621 H 0.21117 0.71077 0.21555
 H622 H 0.20782 0.78516 0.28967
 H623 H 0.28284 0.71187 0.29269
 H624 H 0.28499 0.78622 0.21793
 H625 H 0.29312 0.76175 0.17941
 H626 H 0.32090 0.73601 0.21111
 H627 H 0.16760 0.76347 0.29306
 H628 H 0.19779 0.73676 0.32358
 H629 H 0.23452 0.70563 0.17670
 H630 H 0.26509 0.67904 0.20764
 H631 H 0.23193 0.82428 0.29701
 H632 H 0.25667 0.79433 0.32637
 H633 H 0.22310 0.65197 0.25565
 H634 H 0.17507 0.70156 0.25679
 H635 H 0.31738 0.79640 0.26642
 H636 H 0.28824 0.82677 0.23876
 O637 O 0.75316 0.32564 0.28791
 O638 O 0.78661 0.33090 0.24929
 O639 O 0.68214 0.29300 0.24759
 O640 O 0.67095 0.25743 0.22047
 O641 O 0.71446 0.25205 0.32028
 O642 O 0.75337 0.22289 0.32763
 O643 O 0.75226 0.21698 0.17659
 O644 O 0.72107 0.25434 0.16968
 O645 O 0.82436 0.25322 0.21052
 O646 O 0.82861 0.28865 0.24781
 O647 O 0.79091 0.18457 0.24322
 O648 O 0.75340 0.17470 0.27809
 O649 O 0.75095 0.18413 0.20997
 O650 O 0.72239 0.17491 0.25041
 O651 O 0.82471 0.21711 0.24590
 O652 O 0.83169 0.24977 0.27946
 O653 O 0.79082 0.25089 0.17773
 O654 O 0.75391 0.28581 0.16901
 O655 O 0.75142 0.29181 0.32040
 O656 O 0.78378 0.25292 0.32776
 O657 O 0.68151 0.25549 0.28697
 O658 O 0.67461 0.22273 0.24880
 O659 O 0.71478 0.32679 0.24926
 O660 O 0.75100 0.33409 0.21847
 Zr661 Zr 0.75202 0.30403 0.25006
 O662 O 0.77743 0.28038 0.22379
 Zr663 Zr 0.70343 0.25555 0.24961
 O664 O 0.72663 0.23012 0.22337
 Zr665 Zr 0.75183 0.25479 0.29803
 O666 O 0.77756 0.22960 0.27386
 Zr667 Zr 0.75327 0.25414 0.19916
 O668 O 0.72755 0.28001 0.22313
 Zr669 Zr 0.80196 0.25394 0.24770
 O670 O 0.77867 0.27959 0.27442
 Zr671 Zr 0.75321 0.20566 0.24733
 O672 O 0.72724 0.22856 0.27379
 O673 O 0.72644 0.28068 0.27531
 O674 O 0.77889 0.22846 0.22184
 C675 C 0.75225 0.31723 0.31304
 C676 C 0.68952 0.31843 0.24838
 C677 C 0.68918 0.25355 0.31225
 C678 C 0.75092 0.19176 0.18464
 C679 C 0.81624 0.25091 0.18543
 C680 C 0.81637 0.19213 0.24306
 H681 H 0.78921 0.29272 0.21265
 H682 H 0.78937 0.21816 0.28594
 H683 H 0.71450 0.29235 0.28703
 H684 H 0.71388 0.21905 0.21193
 H685 H 0.70745 0.26826 0.17587
 H686 H 0.67702 0.24718 0.20395
 H687 H 0.82850 0.26509 0.29250
 H688 H 0.79564 0.26928 0.32495
 H689 H 0.77049 0.29732 0.17201
 H690 H 0.74043 0.32596 0.20301
 H691 H 0.77034 0.17693 0.28928
 H692 H 0.74234 0.20750 0.32002
 H693 H 0.78054 0.34950 0.25521
 H694 H 0.84759 0.28201 0.24398
 H695 H 0.67968 0.21000 0.26392
 H696 H 0.70764 0.17965 0.23711
 C697 C 0.26395 0.10640 0.10173
 C698 C 0.25069 0.08072 0.10309
 C699 C 0.25021 0.06373 0.07955
 C700 C 0.26220 0.07275 0.05449
 C701 C 0.27690 0.09796 0.05448
 C702 C 0.27748 0.11491 0.07769
 C703 C 0.26280 0.12525 0.12555
 C704 C 0.27519 0.15131 0.12354
 C705 C 0.27262 0.16984 0.14539
 C706 C 0.25782 0.16262 0.16927
 C707 C 0.24633 0.13602 0.17150
 C708 C 0.24852 0.11729 0.14944
 C709 C 0.29053 0.14073 0.07689
 C710 C 0.28934 0.15868 0.09942
 C711 C 0.23717 0.07316 0.12760
 C712 C 0.23613 0.09110 0.15037
 H713 H 0.30117 0.14742 0.05843
 H714 H 0.29914 0.17868 0.09776
 H715 H 0.22685 0.05340 0.12903
 H716 H 0.22509 0.08460 0.16866
 H717 H 0.23867 0.04462 0.08034
 H718 H 0.28791 0.10469 0.03624
 H719 H 0.28189 0.19011 0.14366
 H720 H 0.23489 0.13034 0.18983
 C721 C 0.75643 0.61524 0.59548
 C722 C 0.74203 0.59017 0.59699
 C723 C 0.74114 0.57294 0.57372
 C724 C 0.75463 0.58070 0.54917
 C725 C 0.77013 0.60531 0.54866
 C726 C 0.77066 0.62286 0.57150
 C727 C 0.75593 0.63430 0.61915
 C728 C 0.76922 0.65993 0.61701
 C729 C 0.76758 0.67853 0.63898
 C730 C 0.75319 0.67152 0.66317
 C731 C 0.74066 0.64540 0.66536
 C732 C 0.74162 0.62683 0.64317
 C733 C 0.78443 0.64831 0.57048
 C734 C 0.78359 0.66661 0.59280
 C735 C 0.72817 0.58327 0.62148
 C736 C 0.72811 0.60121 0.64423
 H737 H 0.79549 0.65438 0.55205
 H738 H 0.79406 0.68626 0.59100
 H739 H 0.71705 0.56396 0.62300
 H740 H 0.71703 0.59515 0.66263
 H741 H 0.72907 0.55415 0.57436
 H742 H 0.78120 0.61119 0.53017
 H743 H 0.77753 0.69848 0.63730
 H744 H 0.72951 0.63992 0.68391
 C745 C 0.73364 0.90633 0.10659
 C746 C 0.74637 0.90465 0.08068
 C747 C 0.74739 0.92824 0.06382
 C748 C 0.73637 0.95366 0.07309
 C749 C 0.72226 0.95410 0.09862
 C750 C 0.72121 0.93082 0.11549
 C751 C 0.73414 0.88230 0.12519
 C752 C 0.72226 0.88454 0.15146
 C753 C 0.72411 0.86234 0.16967
 C754 C 0.73765 0.83788 0.16191
 C755 C 0.74871 0.83553 0.13515
 C756 C 0.74724 0.85790 0.11675
 C757 C 0.70869 0.93192 0.14155
 C758 C 0.70929 0.90918 0.15929
 C759 C 0.75877 0.87969 0.07268
 C760 C 0.75917 0.85672 0.09038
 H761 H 0.69891 0.95073 0.14856
 H762 H 0.69991 0.91104 0.17946
 H763 H 0.76866 0.87802 0.05274
 H764 H 0.76932 0.83805 0.08353
 H765 H 0.75856 0.92708 0.04454
 H766 H 0.71199 0.97266 0.10563
 H767 H 0.71522 0.86421 0.19008
 H768 H 0.75923 0.81679 0.12906
 C769 C 0.23926 0.39706 0.60896
 C770 C 0.25512 0.39710 0.58475
 C771 C 0.25573 0.42096 0.56830
 C772 C 0.24081 0.44462 0.57623
 C773 C 0.22411 0.44366 0.59995
 C774 C 0.22351 0.42012 0.61654
 C775 C 0.23998 0.37285 0.62734
 C776 C 0.22514 0.37352 0.65214
 C777 C 0.22724 0.35134 0.67038
 C778 C 0.24395 0.32847 0.66403
 C779 C 0.25794 0.32755 0.63861
 C780 C 0.25630 0.34997 0.62028
 C781 C 0.20820 0.41960 0.64108
 C782 C 0.20907 0.39670 0.65864
 C783 C 0.27075 0.37361 0.57805
 C784 C 0.27127 0.35043 0.59547
 H785 H 0.19593 0.43727 0.64707
 H786 H 0.19742 0.39734 0.67768
 H787 H 0.28303 0.37330 0.55941
 H788 H 0.28392 0.33295 0.58972
 H789 H 0.26871 0.42159 0.55013
 H790 H 0.21219 0.46160 0.60591
 H791 H 0.21621 0.35204 0.68980
 H792 H 0.27098 0.31007 0.63372
 C793 C 0.75776 0.09836 0.88720
 C794 C 0.77584 0.07632 0.88232
 C795 C 0.77567 0.05376 0.90020
 C796 C 0.75693 0.05245 0.92240
 C797 C 0.73925 0.07503 0.92738
 C798 C 0.73969 0.09813 0.90983
 C799 C 0.75740 0.12183 0.86790
 C800 C 0.73944 0.14405 0.87271
 C801 C 0.73893 0.16613 0.85392
 C802 C 0.75558 0.16543 0.83015
 C803 C 0.77350 0.14304 0.82578
 C804 C 0.77470 0.12134 0.84470
 C805 C 0.72210 0.12080 0.91406
 C806 C 0.72210 0.14343 0.89592
 C807 C 0.79338 0.07696 0.85930
 C808 C 0.79270 0.09902 0.84069
 H809 H 0.70810 0.12100 0.93146
 H810 H 0.70812 0.16039 0.89990
 H811 H 0.80743 0.06003 0.85537
 H812 H 0.80626 0.09853 0.82295
 H813 H 0.78994 0.03694 0.89655
 H814 H 0.72468 0.07432 0.94428
 H815 H 0.72508 0.18336 0.85728
 H816 H 0.78664 0.14264 0.80770
 C817 C 0.23495 0.59788 0.39460
 C818 C 0.21965 0.57432 0.38771
 C819 C 0.22043 0.55147 0.40520
 C820 C 0.23718 0.55153 0.42897
 C821 C 0.25155 0.57573 0.43625
 C822 C 0.25053 0.59902 0.41903
 C823 C 0.23554 0.62134 0.37530
 C824 C 0.25117 0.64483 0.38186
 C825 C 0.25242 0.66666 0.36288
 C826 C 0.23891 0.66455 0.33725
 C827 C 0.22317 0.64097 0.33116
 C828 C 0.22122 0.61940 0.35019
 C829 C 0.26557 0.62306 0.42510
 C830 C 0.26577 0.64562 0.40691
 C831 C 0.20477 0.57358 0.36287
 C832 C 0.20566 0.59570 0.34434
 H833 H 0.27761 0.62429 0.44389
 H834 H 0.27790 0.66360 0.41225
 H835 H 0.19287 0.55548 0.35739
 H836 H 0.19439 0.59409 0.32511
 H837 H 0.20885 0.53314 0.39975
 H838 H 0.26453 0.57593 0.45446
 H839 H 0.26468 0.68476 0.36755
 H840 H 0.21253 0.63941 0.31155
 C841 C 0.25837 0.89095 0.90427
 C842 C 0.27302 0.88380 0.92819
 C843 C 0.27173 0.90111 0.95117
 C844 C 0.25531 0.92507 0.95076
 C845 C 0.24152 0.93254 0.92627
 C846 C 0.24292 0.91542 0.90292
 C847 C 0.25840 0.87190 0.88060
 C848 C 0.24332 0.87863 0.85678
 C849 C 0.24257 0.85982 0.83474
 C850 C 0.25619 0.83424 0.83691
 C851 C 0.27152 0.82812 0.86079
 C852 C 0.27280 0.84687 0.88262
 C853 C 0.22847 0.92170 0.87856
 C854 C 0.22874 0.90368 0.85586
 C855 C 0.28791 0.85900 0.92906
 C856 C 0.28772 0.84078 0.90668
 H857 H 0.21653 0.94053 0.87717
 H858 H 0.21704 0.90917 0.83764
 H859 H 0.29933 0.85333 0.94742
 H860 H 0.29902 0.82159 0.90837
 H861 H 0.28284 0.89549 0.96975
 H862 H 0.22880 0.95091 0.92582
 H863 H 0.23062 0.86457 0.81644
 H864 H 0.28229 0.80860 0.86247
 C865 C 0.74623 0.39363 0.40317
 C866 C 0.76355 0.41684 0.40380
 C867 C 0.76339 0.43399 0.42719
 C868 C 0.74591 0.42797 0.44966
 C869 C 0.72798 0.40514 0.44800
 C870 C 0.72835 0.38771 0.42511
 C871 C 0.74719 0.37478 0.37936
 C872 C 0.73062 0.35104 0.37944
 C873 C 0.73245 0.33256 0.35746
 C874 C 0.75031 0.33781 0.33524
 C875 C 0.76618 0.36213 0.33490
 C876 C 0.76501 0.38055 0.35726
 C877 C 0.71154 0.36416 0.42405
 C878 C 0.71277 0.34603 0.40165
 C879 C 0.78099 0.42206 0.38124
 C880 C 0.78160 0.40432 0.35831
 H881 H 0.69765 0.35946 0.44090
 H882 H 0.69978 0.32785 0.40180
 H883 H 0.79441 0.43992 0.38136
 H884 H 0.79546 0.40904 0.34145
 H885 H 0.77732 0.45143 0.42822
 H886 H 0.71389 0.40070 0.46476
 H887 H 0.71991 0.31403 0.35755
 H888 H 0.77998 0.36616 0.31779
 C889 C 0.11320 0.25475 0.09413
 C890 C 0.12341 0.26403 0.06877
 C891 C 0.10636 0.26315 0.04553
 C892 C 0.07923 0.25233 0.04698
 C893 C 0.06891 0.24447 0.07318
 C894 C 0.08593 0.24536 0.09668
 C895 C 0.13173 0.25413 0.11829
 C896 C 0.12184 0.24425 0.14363
 C897 C 0.13994 0.24286 0.16631
 C898 C 0.16780 0.25087 0.16344
 C899 C 0.17710 0.26109 0.13790
 C900 C 0.15922 0.26279 0.11534
 C901 C 0.07658 0.23605 0.12250
 C902 C 0.09420 0.23554 0.14556
 C903 C 0.15083 0.27331 0.06688
 C904 C 0.16846 0.27263 0.08977
 H905 H 0.05557 0.22874 0.12482
 H906 H 0.08623 0.22791 0.16497
 H907 H 0.15890 0.28064 0.04739
 H908 H 0.18961 0.27952 0.08733
 H909 H 0.11444 0.27110 0.02632
 H910 H 0.04843 0.23573 0.07518
 H911 H 0.13258 0.23498 0.18586
 H912 H 0.19837 0.26768 0.13552
 C913 C 0.60956 0.76031 0.59575
 C914 C 0.61779 0.77327 0.57123
 C915 C 0.60077 0.77151 0.54795
 C916 C 0.57596 0.75634 0.54880
 C917 C 0.56762 0.74415 0.57384
 C918 C 0.58439 0.74605 0.59739
 C919 C 0.62814 0.76085 0.61986
 C920 C 0.62025 0.74740 0.64426
 C921 C 0.63858 0.74700 0.66674
 C922 C 0.66482 0.75935 0.66453
 C923 C 0.67210 0.77316 0.64006
 C924 C 0.65384 0.77404 0.61771
 C925 C 0.57696 0.73324 0.62229
 C926 C 0.59454 0.73398 0.64534
 C927 C 0.64331 0.78700 0.57020
 C928 C 0.66108 0.78730 0.59303
 H929 H 0.55756 0.72223 0.62385
 H930 H 0.58817 0.72353 0.66401
 H931 H 0.64985 0.79712 0.55141
 H932 H 0.68082 0.79766 0.59122
 H933 H 0.60714 0.78142 0.52898
 H934 H 0.54872 0.73221 0.57469
 H935 H 0.63292 0.73620 0.68545
 H936 H 0.69216 0.78295 0.63831
 C937 C 0.09961 0.74344 0.89409
 C938 C 0.07588 0.72834 0.88710
 C939 C 0.05238 0.73044 0.90368
 C940 C 0.05212 0.74804 0.92674
 C941 C 0.07641 0.76228 0.93412
 C942 C 0.10026 0.76013 0.91772
 C943 C 0.12380 0.74262 0.87566
 C944 C 0.14737 0.75826 0.88212
 C945 C 0.16978 0.75847 0.86368
 C946 C 0.16816 0.74375 0.83872
 C947 C 0.14463 0.72774 0.83297
 C948 C 0.12244 0.72702 0.85135
 C949 C 0.12441 0.77504 0.92385
 C950 C 0.14758 0.77406 0.90640
 C951 C 0.07572 0.71221 0.86310
 C952 C 0.09860 0.71164 0.84546
 H953 H 0.12525 0.78794 0.94204
 H954 H 0.16560 0.78621 0.91168
 H955 H 0.05753 0.70043 0.85758
 H956 H 0.09743 0.69942 0.82681
 H957 H 0.03394 0.71902 0.89816
 H958 H 0.07633 0.77593 0.95179
 H959 H 0.18781 0.77098 0.86807
 H960 H 0.14341 0.71619 0.81388
 C961 C 0.59805 0.25450 0.38785
 C962 C 0.59629 0.23454 0.40872
 C963 C 0.57257 0.23363 0.42544
 C964 C 0.55077 0.25246 0.42115
 C965 C 0.55331 0.27265 0.40047
 C966 C 0.57677 0.27371 0.38371
 C967 C 0.62240 0.25503 0.36959
 C968 C 0.62364 0.27457 0.34831
 C969 C 0.64600 0.27413 0.33011
 C970 C 0.66718 0.25456 0.33315
 C971 C 0.66635 0.23575 0.35522
 C972 C 0.64366 0.23566 0.37337
 C973 C 0.57919 0.29344 0.36271
 C974 C 0.60226 0.29388 0.34532
 C975 C 0.61813 0.21572 0.41213
 C976 C 0.64142 0.21630 0.39480
 H977 H 0.56298 0.30850 0.35949
 H978 H 0.60329 0.30934 0.32929
 H979 H 0.61711 0.20025 0.42819
 H980 H 0.65763 0.20126 0.39801
 H981 H 0.57078 0.21799 0.44127
 H982 H 0.53694 0.28760 0.39741
 H983 H 0.64690 0.28891 0.31342
 H984 H 0.68269 0.22066 0.35756
 C985 C 0.89957 0.74496 0.10629
 C986 C 0.92416 0.73270 0.11532
 C987 C 0.94761 0.73409 0.09868
 C988 C 0.94721 0.74828 0.07321
 C989 C 0.92171 0.75911 0.06375
 C990 C 0.89795 0.75784 0.08044
 C991 C 0.87535 0.74509 0.12470
 C992 C 0.85083 0.75807 0.11621
 C993 C 0.82829 0.75923 0.13451
 C994 C 0.83066 0.74800 0.16120
 C995 C 0.85520 0.73451 0.16895
 C996 C 0.87754 0.73298 0.15087
 C997 C 0.87286 0.77008 0.07235
 C998 C 0.84972 0.77018 0.08990
 C999 C 0.92520 0.71994 0.14126
 C1000 C 0.90227 0.72014 0.15879
 H1001 H 0.87123 0.78008 0.05246
 H1002 H 0.83096 0.78022 0.08300
 H1003 H 0.94410 0.71027 0.14834
 H1004 H 0.90408 0.71059 0.17888
 H1005 H 0.96621 0.72389 0.10577
 H1006 H 0.92064 0.77026 0.04445
 H1007 H 0.80945 0.76967 0.12844
 H1008 H 0.85704 0.72544 0.18929
 C1009 C 0.40847 0.25040 0.61031
 C1010 C 0.40911 0.23239 0.58766
 C1011 C 0.43265 0.23189 0.57066
 C1012 C 0.45528 0.24936 0.57627
 C1013 C 0.45371 0.26780 0.59865
 C1014 C 0.43063 0.26816 0.61588
 C1015 C 0.38436 0.25035 0.62886
 C1016 C 0.38436 0.26770 0.65200
 C1017 C 0.36212 0.26672 0.67028
 C1018 C 0.33977 0.24882 0.66550
 C1019 C 0.33950 0.23218 0.64173
 C1020 C 0.36207 0.23258 0.62347
 C1021 C 0.42951 0.28573 0.63883
 C1022 C 0.40680 0.28540 0.65668
 C1023 C 0.38634 0.21506 0.58277
 C1024 C 0.36319 0.21523 0.60030
 H1025 H 0.44652 0.29956 0.64326
 H1026 H 0.40691 0.29897 0.67441
 H1027 H 0.38647 0.20112 0.56535
 H1028 H 0.34619 0.20141 0.59587
 H1029 H 0.43360 0.21759 0.55356
 H1030 H 0.47058 0.28191 0.60275
 H1031 H 0.36222 0.27981 0.68839
 H1032 H 0.32233 0.21830 0.63808
 C1033 C 0.89172 0.24489 0.90462
 C1034 C 0.88290 0.23125 0.92845
 C1035 C 0.90038 0.23007 0.95127
 C1036 C 0.92661 0.24309 0.95124
 C1037 C 0.93543 0.25602 0.92654
 C1038 C 0.91798 0.25704 0.90327
 C1039 C 0.87291 0.24663 0.88073
 C1040 C 0.88155 0.26022 0.85668
 C1041 C 0.86326 0.26206 0.83414
 C1042 C 0.83642 0.25089 0.83605
 C1043 C 0.82838 0.23718 0.86031
 C1044 C 0.84650 0.23486 0.88257
 C1045 C 0.92601 0.27036 0.87879
 C1046 C 0.90816 0.27184 0.85589
 C1047 C 0.85654 0.21918 0.92923
 C1048 C 0.83859 0.22106 0.90670
 H1049 H 0.94621 0.27984 0.87734
 H1050 H 0.91517 0.28239 0.83751
 H1051 H 0.84959 0.20849 0.94756
 H1052 H 0.81830 0.21175 0.90823
 H1053 H 0.89350 0.21821 0.96887
 H1054 H 0.95512 0.26652 0.92556
 H1055 H 0.86962 0.27254 0.81549
 H1056 H 0.80800 0.22802 0.86180
 C1057 C 0.38628 0.74518 0.40644
 C1058 C 0.38108 0.72731 0.42853
 C1059 C 0.39955 0.72657 0.45059
 C1060 C 0.42263 0.74429 0.45141
 C1061 C 0.42803 0.76163 0.42874
 C1062 C 0.40986 0.76207 0.40608
 C1063 C 0.36632 0.74657 0.38355
 C1064 C 0.37149 0.76422 0.36120
 C1065 C 0.35223 0.76553 0.33955
 C1066 C 0.32769 0.74999 0.34081
 C1067 C 0.32286 0.73253 0.36339
 C1068 C 0.34223 0.73047 0.38465
 C1069 C 0.41439 0.77942 0.38333
 C1070 C 0.39563 0.78034 0.36119
 C1071 C 0.35713 0.71097 0.42852
 C1072 C 0.33792 0.71266 0.40700
 H1073 H 0.43252 0.79250 0.38268
 H1074 H 0.39988 0.79405 0.34410
 H1075 H 0.35298 0.69711 0.44552
 H1076 H 0.31949 0.70002 0.40793
 H1077 H 0.39562 0.71254 0.46752
 H1078 H 0.44571 0.77532 0.42912
 H1079 H 0.35597 0.77897 0.32211
 H1080 H 0.30420 0.72019 0.36415
 C1081 C 0.10738 0.09497 0.25881
 C1082 C 0.08155 0.09744 0.24590
 C1083 C 0.06391 0.07439 0.24477
 C1084 C 0.07225 0.04872 0.25599
 C1085 C 0.09775 0.04753 0.27030
 C1086 C 0.11544 0.07024 0.27134
 C1087 C 0.12675 0.11845 0.25854
 C1088 C 0.15292 0.11544 0.27066
 C1089 C 0.17178 0.13720 0.26921
 C1090 C 0.16468 0.16201 0.25595
 C1091 C 0.13804 0.16507 0.24456
 C1092 C 0.11904 0.14314 0.24556
 C1093 C 0.14146 0.06836 0.28405
 C1094 C 0.15994 0.09055 0.28362
 C1095 C 0.07435 0.12265 0.23350
 C1096 C 0.09274 0.14511 0.23338
 H1097 H 0.14783 0.04936 0.29391
 H1098 H 0.18002 0.08809 0.29319
 H1099 H 0.05448 0.12493 0.22346
 H1100 H 0.08646 0.16402 0.22331
 H1101 H 0.04471 0.07615 0.23344
 H1102 H 0.10408 0.02891 0.28085
 H1103 H 0.19209 0.13478 0.27835
 H1104 H 0.13244 0.18410 0.23426
 C1105 C 0.61069 0.59679 0.74225
 C1106 C 0.58778 0.59531 0.75993
 C1107 C 0.57134 0.57137 0.75990
 C1108 C 0.57778 0.54917 0.74225
 C1109 C 0.60040 0.55158 0.72414
 C1110 C 0.61706 0.57507 0.72428
 C1111 C 0.62872 0.62128 0.74292
 C1112 C 0.65213 0.62210 0.72591
 C1113 C 0.66997 0.64466 0.72754
 C1114 C 0.66451 0.66650 0.74576
 C1115 C 0.64044 0.66600 0.76203
 C1116 C 0.62260 0.64309 0.76096
 C1117 C 0.64025 0.57704 0.70704
 C1118 C 0.65758 0.60012 0.70793
 C1119 C 0.58213 0.61763 0.77753
 C1120 C 0.59916 0.64114 0.77796
 H1121 H 0.64530 0.56040 0.69304
 H1122 H 0.67552 0.60067 0.69463
 H1123 H 0.56449 0.61685 0.79122
 H1124 H 0.59416 0.65775 0.79199
 H1125 H 0.55406 0.56978 0.77397
 H1126 H 0.60515 0.53501 0.70993
 H1127 H 0.68831 0.64517 0.71475
 H1128 H 0.63627 0.68278 0.77616
 C1129 C 0.91093 0.11367 0.75619
 C1130 C 0.90903 0.08749 0.74410
 C1131 C 0.93191 0.06954 0.74540
 C1132 C 0.95675 0.07765 0.75872
 C1133 C 0.95735 0.10392 0.77153
 C1134 C 0.93494 0.12195 0.76998
 C1135 C 0.88738 0.13292 0.75431
 C1136 C 0.88971 0.15924 0.76606
 C1137 C 0.86769 0.17771 0.76371
 C1138 C 0.84318 0.17007 0.75007
 C1139 C 0.84083 0.14335 0.73888
 C1140 C 0.86310 0.12474 0.74070
 C1141 C 0.93624 0.14827 0.78196
 C1142 C 0.91405 0.16666 0.77991
 C1143 C 0.88438 0.07999 0.73066
 C1144 C 0.86180 0.09823 0.72908
 H1145 H 0.95471 0.15483 0.79276
 H1146 H 0.91599 0.18687 0.78919
 H1147 H 0.88251 0.05985 0.72122
 H1148 H 0.84324 0.09158 0.71850
 H1149 H 0.93045 0.04993 0.73493
 H1150 H 0.97497 0.11040 0.78365
 H1151 H 0.86954 0.19803 0.77284
 H1152 H 0.82200 0.13729 0.72840
 C1153 C 0.39939 0.60903 0.26599
 C1154 C 0.39802 0.58389 0.25174
 C1155 C 0.42133 0.56667 0.25129
 C1156 C 0.44585 0.57460 0.26485
 C1157 C 0.44620 0.59913 0.28036
 C1158 C 0.42323 0.61664 0.28062
 C1159 C 0.37591 0.62832 0.26455
 C1160 C 0.37798 0.65406 0.27756
 C1161 C 0.35633 0.67295 0.27486
 C1162 C 0.33256 0.66618 0.25955
 C1163 C 0.33034 0.63997 0.24733
 C1164 C 0.35222 0.62105 0.24945
 C1165 C 0.42411 0.64216 0.29421
 C1166 C 0.40188 0.66062 0.29262
 C1167 C 0.37378 0.57708 0.23728
 C1168 C 0.35122 0.59529 0.23626
 H1169 H 0.44238 0.64820 0.30561
 H1170 H 0.40359 0.68035 0.30292
 H1171 H 0.37240 0.55771 0.22628
 H1172 H 0.33307 0.58938 0.22459
 H1173 H 0.42090 0.54795 0.23912
 H1174 H 0.46479 0.60516 0.29127
 H1175 H 0.35793 0.69294 0.28472
 H1176 H 0.31206 0.63468 0.23555
 C1177 C 0.09420 0.88615 0.75851
 C1178 C 0.09549 0.91192 0.74550
 C1179 C 0.07213 0.92926 0.74591
 C1180 C 0.04740 0.92095 0.75926
 C1181 C 0.04730 0.89506 0.77283
 C1182 C 0.07024 0.87765 0.77222
 C1183 C 0.11832 0.86757 0.75769
 C1184 C 0.11659 0.84165 0.77037
 C1185 C 0.13910 0.82373 0.76892
 C1186 C 0.16347 0.83148 0.75513
 C1187 C 0.16527 0.85786 0.74308
 C1188 C 0.14250 0.87593 0.74406
 C1189 C 0.06954 0.85176 0.78515
 C1190 C 0.09230 0.83400 0.78413
 C1191 C 0.12007 0.91965 0.73210
 C1192 C 0.14318 0.90202 0.73146
 H1193 H 0.05113 0.84504 0.79590
 H1194 H 0.09082 0.81408 0.79411
 H1195 H 0.12147 0.93948 0.72195
 H1196 H 0.16164 0.90880 0.72084
 H1197 H 0.07317 0.94855 0.73481
 H1198 H 0.02971 0.88849 0.78490
 H1199 H 0.13768 0.80366 0.77866
 H1200 H 0.18397 0.86395 0.73244
 C1201 C 0.59742 0.39310 0.25274
 C1202 C 0.59922 0.41941 0.24084
 C1203 C 0.57544 0.43611 0.23983
 C1204 C 0.55023 0.42650 0.25083
 C1205 C 0.54947 0.40066 0.26401
 C1206 C 0.57266 0.38365 0.26440
 C1207 C 0.62164 0.37471 0.25233
 C1208 C 0.61908 0.34794 0.26288
 C1209 C 0.64154 0.33009 0.26141
 C1210 C 0.66679 0.33869 0.24990
 C1211 C 0.66942 0.36586 0.23994
 C1212 C 0.64660 0.38390 0.24073
 C1213 C 0.57120 0.35699 0.27544
 C1214 C 0.59395 0.33929 0.27437
 C1215 C 0.62457 0.42805 0.22960
 C1216 C 0.64789 0.41068 0.22971
 H1217 H 0.55210 0.34949 0.28435
 H1218 H 0.59176 0.31855 0.28230
 H1219 H 0.62635 0.44832 0.22043
 H1220 H 0.66694 0.41810 0.22068
 H1221 H 0.57629 0.45600 0.22972
 H1222 H 0.53050 0.39339 0.27339
 H1223 H 0.63929 0.30931 0.26926
 H1224 H 0.68876 0.37258 0.23094
 C1225 C 0.88352 0.90807 0.23861
 C1226 C 0.87579 0.93159 0.22380
 C1227 C 0.89350 0.95429 0.22319
 C1228 C 0.91882 0.95443 0.23793
 C1229 C 0.92642 0.93007 0.25228
 C1230 C 0.90883 0.90694 0.25266
 C1231 C 0.86456 0.88427 0.23960
 C1232 C 0.87215 0.86055 0.25437
 C1233 C 0.85370 0.83813 0.25554
 C1234 C 0.82768 0.83985 0.24258
 C1235 C 0.82065 0.86374 0.22770
 C1236 C 0.83901 0.88588 0.22600
 C1237 C 0.91580 0.88280 0.26716
 C1238 C 0.89784 0.85999 0.26792
 C1239 C 0.85031 0.93214 0.20992
 C1240 C 0.83216 0.90971 0.21112
 H1241 H 0.93527 0.88154 0.27811
 H1242 H 0.90402 0.84188 0.27941
 H1243 H 0.84419 0.95021 0.19831
 H1244 H 0.81255 0.91110 0.20042
 H1245 H 0.88756 0.97158 0.21040
 H1246 H 0.94523 0.92922 0.26430
 H1247 H 0.85921 0.81978 0.26703
 H1248 H 0.80085 0.86506 0.21730
 C1249 C 0.38937 0.40374 0.74247
 C1250 C 0.41325 0.40402 0.75896
 C1251 C 0.43051 0.42737 0.75861
 C1252 C 0.42398 0.45015 0.74174
 C1253 C 0.40045 0.44884 0.72462
 C1254 C 0.38289 0.42601 0.72523
 C1255 C 0.37051 0.37990 0.74357
 C1256 C 0.34618 0.38024 0.72780
 C1257 C 0.32782 0.35808 0.72961
 C1258 C 0.33381 0.33539 0.74664
 C1259 C 0.35864 0.33493 0.76181
 C1260 C 0.37694 0.35742 0.76065
 C1261 C 0.35870 0.42528 0.70925
 C1262 C 0.34056 0.40284 0.71063
 C1263 C 0.41906 0.38111 0.77573
 C1264 C 0.40131 0.35816 0.77645
 H1265 H 0.35354 0.44239 0.69585
 H1266 H 0.32192 0.40323 0.69825
 H1267 H 0.43743 0.38095 0.78850
 H1268 H 0.40654 0.34099 0.78973
 H1269 H 0.44848 0.42808 0.77191
 H1270 H 0.39558 0.46581 0.71093
 H1271 H 0.30893 0.35834 0.71758
 H1272 H 0.36330 0.31749 0.77498
 C1273 C 0.11282 0.22826 0.90158
 C1274 C 0.12063 0.21429 0.92568
 C1275 C 0.10294 0.21465 0.94847
 C1276 C 0.07805 0.22972 0.94771
 C1277 C 0.06988 0.24251 0.92293
 C1278 C 0.08728 0.24191 0.89978
 C1279 C 0.13234 0.22977 0.87832
 C1280 C 0.12488 0.24432 0.85442
 C1281 C 0.14407 0.24677 0.83287
 C1282 C 0.17076 0.23551 0.83559
 C1283 C 0.17768 0.22060 0.85951
 C1284 C 0.15851 0.21754 0.88087
 C1285 C 0.08028 0.25571 0.87528
 C1286 C 0.09870 0.25677 0.85294
 C1287 C 0.14654 0.20133 0.92699
 C1288 C 0.16522 0.20303 0.90499
 H1289 H 0.06061 0.26621 0.87354
 H1290 H 0.09265 0.26798 0.83460
 H1291 H 0.15274 0.19042 0.94547
 H1292 H 0.18527 0.19330 0.90708
 H1293 H 0.10912 0.20425 0.96725
 H1294 H 0.05084 0.25424 0.92217
 H1295 H 0.13864 0.25822 0.81447
 H1296 H 0.19803 0.21146 0.86151
 C1297 C 0.60775 0.73408 0.40069
 C1298 C 0.61667 0.72040 0.42458
 C1299 C 0.59989 0.72072 0.44807
 C1300 C 0.57465 0.73518 0.44807
 C1301 C 0.56551 0.74791 0.42357
 C1302 C 0.58207 0.74750 0.39981
 C1303 C 0.62619 0.73539 0.37654
 C1304 C 0.61767 0.74971 0.35283
 C1305 C 0.63590 0.75201 0.33041
 C1306 C 0.66266 0.74072 0.33206
 C1307 C 0.67055 0.72592 0.35577
 C1308 C 0.65241 0.72314 0.37802
 C1309 C 0.57398 0.76110 0.37553
 C1310 C 0.59143 0.76211 0.35242
 C1311 C 0.64266 0.70754 0.42488
 C1312 C 0.66027 0.70895 0.40200
 H1313 H 0.55417 0.77146 0.37454
 H1314 H 0.58455 0.77317 0.33428
 H1315 H 0.64972 0.69684 0.44317
 H1316 H 0.68040 0.69926 0.40327
 H1317 H 0.60688 0.71044 0.46664
 H1318 H 0.54624 0.75928 0.42340
 H1319 H 0.62974 0.76344 0.31223
 H1320 H 0.69098 0.71682 0.35702
 C1321 C 0.90340 0.75394 0.88960
 C1322 C 0.90218 0.76902 0.91421
 C1323 C 0.92597 0.77097 0.93090
 C1324 C 0.95106 0.75814 0.92288
 C1325 C 0.95116 0.74261 0.89816
 C1326 C 0.92775 0.74064 0.88153
 C1327 C 0.87881 0.75217 0.87170
 C1328 C 0.88046 0.73736 0.84693
 C1329 C 0.85761 0.73659 0.82943
 C1330 C 0.83308 0.75049 0.83633
 C1331 C 0.83127 0.76461 0.86165
 C1332 C 0.85433 0.76570 0.87938
 C1333 C 0.92838 0.72556 0.85686
 C1334 C 0.90513 0.72401 0.83980
 C1335 C 0.87725 0.78212 0.92139
 C1336 C 0.85377 0.78049 0.90430
 H1337 H 0.94711 0.71512 0.85053
 H1338 H 0.90656 0.71247 0.82075
 H1339 H 0.87592 0.79387 0.94032
 H1340 H 0.83510 0.79108 0.91054
 H1341 H 0.92499 0.78343 0.94935
 H1342 H 0.96919 0.73092 0.89204
 H1343 H 0.85905 0.72548 0.81011
 H1344 H 0.81248 0.77553 0.86695
 C1345 C 0.39963 0.26183 0.39484
 C1346 C 0.40150 0.24333 0.41700
 C1347 C 0.42583 0.24264 0.43283
 C1348 C 0.44824 0.25996 0.42619
 C1349 C 0.44558 0.27900 0.40447
 C1350 C 0.42138 0.27998 0.38869
 C1351 C 0.37495 0.26139 0.37698
 C1352 C 0.37370 0.27915 0.35421
 C1353 C 0.35130 0.27726 0.33610
 C1354 C 0.33030 0.25775 0.34048
 C1355 C 0.33101 0.24096 0.36412
 C1356 C 0.35361 0.24248 0.38234
 C1357 C 0.41883 0.29817 0.36633
 C1358 C 0.39533 0.29781 0.34943
 C1359 C 0.37940 0.22526 0.42224
 C1360 C 0.35587 0.22485 0.40521
 H1361 H 0.43536 0.31243 0.36153
 H1362 H 0.39431 0.31191 0.33217
 H1363 H 0.38053 0.21094 0.43932
 H1364 H 0.33957 0.21022 0.40967
 H1365 H 0.42784 0.22784 0.44943
 H1366 H 0.46265 0.29259 0.39951
 H1367 H 0.35041 0.29055 0.31823
 H1368 H 0.31483 0.22590 0.36749
 C1369 C 0.09528 0.75141 0.10966
 C1370 C 0.09473 0.77123 0.08856
 C1371 C 0.07117 0.77326 0.07162
 C1372 C 0.04845 0.75557 0.07588
 C1373 C 0.05000 0.73521 0.09652
 C1374 C 0.07307 0.73329 0.11367
 C1375 C 0.11922 0.74999 0.12841
 C1376 C 0.11900 0.73093 0.15018
 C1377 C 0.14094 0.73065 0.16888
 C1378 C 0.16322 0.74894 0.16578
 C1379 C 0.16378 0.76732 0.14333
 C1380 C 0.14148 0.76820 0.12472
 C1381 C 0.07401 0.71396 0.13517
 C1382 C 0.09655 0.71290 0.15323
 C1383 C 0.11752 0.78891 0.08529
 C1384 C 0.14053 0.78735 0.10299
 H1385 H 0.05695 0.69987 0.13837
 H1386 H 0.09627 0.69804 0.16989
 H1387 H 0.11747 0.80425 0.06908
 H1388 H 0.15752 0.80155 0.09990
 H1389 H 0.07020 0.78897 0.05578
 H1390 H 0.03297 0.72101 0.09950
 H1391 H 0.14061 0.71640 0.18609
 H1392 H 0.18086 0.78159 0.14112
 C1393 C 0.60478 0.26322 0.60418
 C1394 C 0.60501 0.24693 0.58027
 C1395 C 0.58113 0.24566 0.56379
 C1396 C 0.55719 0.26034 0.57140
 C1397 C 0.55792 0.27762 0.59469
 C1398 C 0.58148 0.27887 0.61133
 C1399 C 0.62887 0.26286 0.62281
 C1400 C 0.62786 0.27796 0.64745
 C1401 C 0.64979 0.27594 0.66609
 C1402 C 0.67269 0.25906 0.66028
 C1403 C 0.67409 0.24501 0.63495
 C1404 C 0.65191 0.24652 0.61625
 C1405 C 0.58176 0.29460 0.63561
 C1406 C 0.60455 0.29410 0.65342
 C1407 C 0.62872 0.23142 0.57398
 C1408 C 0.65180 0.23128 0.59162
 H1409 H 0.56392 0.30684 0.64124
 H1410 H 0.60369 0.30599 0.67229
 H1411 H 0.62924 0.21885 0.55554
 H1412 H 0.66943 0.21865 0.58623
 H1413 H 0.58068 0.23225 0.54594
 H1414 H 0.53974 0.28936 0.60038
 H1415 H 0.64886 0.28716 0.68540
 H1416 H 0.69172 0.23200 0.63045
 C1417 C 0.89520 0.23625 0.09832
 C1418 C 0.88791 0.21970 0.07574
 C1419 C 0.90558 0.21841 0.05303
 C1420 C 0.92993 0.23427 0.05223
 C1421 C 0.93764 0.24980 0.07555
 C1422 C 0.92022 0.25092 0.09870
 C1423 C 0.87567 0.23921 0.12142
 C1424 C 0.88258 0.25613 0.14388
 C1425 C 0.86338 0.25956 0.16536
 C1426 C 0.83725 0.24687 0.16381
 C1427 C 0.83089 0.22983 0.14126
 C1428 C 0.85004 0.22575 0.12014
 C1429 C 0.92667 0.26727 0.12174
 C1430 C 0.90824 0.26971 0.14401
 C1431 C 0.86251 0.20574 0.07574
 C1432 C 0.84382 0.20883 0.09753
 H1433 H 0.94593 0.27862 0.12239
 H1434 H 0.91389 0.28278 0.16120
 H1435 H 0.85672 0.19288 0.05842
 H1436 H 0.82418 0.19822 0.09649
 H1437 H 0.89975 0.20603 0.03536
 H1438 H 0.95630 0.26214 0.07505
 H1439 H 0.86837 0.27267 0.18274
 H1440 H 0.81099 0.21968 0.14022
 C1441 C 0.39158 0.73631 0.59903
 C1442 C 0.38416 0.72084 0.57575
 C1443 C 0.40191 0.72025 0.55311
 C1444 C 0.42635 0.73602 0.55295
 C1445 C 0.43415 0.75052 0.57689
 C1446 C 0.41674 0.75071 0.60008
 C1447 C 0.37209 0.73836 0.62224
 C1448 C 0.37924 0.75400 0.64552
 C1449 C 0.36019 0.75640 0.66724
 C1450 C 0.33393 0.74403 0.66516
 C1451 C 0.32722 0.72849 0.64164
 C1452 C 0.34627 0.72532 0.62029
 C1453 C 0.42337 0.76586 0.62387
 C1454 C 0.40503 0.76732 0.64628
 C1455 C 0.35856 0.70727 0.57502
 C1456 C 0.33983 0.70966 0.59685
 H1457 H 0.44275 0.77698 0.62505
 H1458 H 0.41085 0.77943 0.66411
 H1459 H 0.35265 0.69530 0.55712
 H1460 H 0.31999 0.69949 0.59522
 H1461 H 0.39607 0.70849 0.53502
 H1462 H 0.45289 0.76274 0.57694
 H1463 H 0.36543 0.76845 0.68530
 H1464 H 0.30717 0.71874 0.64005
 C1465 C 0.25841 0.10885 0.90670
 C1466 C 0.24279 0.08452 0.90586
 C1467 C 0.24120 0.06783 0.92957
 C1468 C 0.25500 0.07550 0.95421
 C1469 C 0.27136 0.09973 0.95382
 C1470 C 0.27281 0.11649 0.93052
 C1471 C 0.25944 0.12696 0.88231
 C1472 C 0.27454 0.15163 0.88366
 C1473 C 0.27450 0.16940 0.86102
 C1474 C 0.25974 0.16266 0.83699
 C1475 C 0.24534 0.13745 0.83552
 C1476 C 0.24488 0.11960 0.85837
 C1477 C 0.28827 0.14097 0.93081
 C1478 C 0.28901 0.15833 0.90779
 C1479 C 0.22865 0.07769 0.88144
 C1480 C 0.22973 0.09488 0.85811
 H1481 H 0.29956 0.14699 0.94913
 H1482 H 0.30081 0.17726 0.90899
 H1483 H 0.21649 0.05898 0.88041
 H1484 H 0.21835 0.08892 0.83982
 H1485 H 0.22810 0.04978 0.92893
 H1486 H 0.28378 0.10549 0.97148
 H1487 H 0.28577 0.18867 0.86218
 H1488 H 0.23374 0.13230 0.81711
 C1489 C 0.74921 0.61273 0.39967
 C1490 C 0.73033 0.59077 0.40083
 C1491 C 0.72926 0.57429 0.42471
 C1492 C 0.74691 0.57989 0.44718
 C1493 C 0.76629 0.60145 0.44505
 C1494 C 0.76729 0.61810 0.42162
 C1495 C 0.74967 0.63091 0.37531
 C1496 C 0.76784 0.65345 0.37486
 C1497 C 0.76726 0.67151 0.35246
 C1498 C 0.74896 0.66710 0.33040
 C1499 C 0.73145 0.64391 0.33057
 C1500 C 0.73146 0.62587 0.35331
 C1501 C 0.78569 0.64040 0.42004
 C1502 C 0.78586 0.65788 0.39709
 C1503 C 0.71262 0.58617 0.37829
 C1504 C 0.71324 0.60336 0.35492
 H1505 H 0.79975 0.64467 0.43689
 H1506 H 0.80004 0.67515 0.39686
 H1507 H 0.69799 0.56930 0.37881
 H1508 H 0.69905 0.59921 0.33814
 H1509 H 0.71428 0.55777 0.42613
 H1510 H 0.78045 0.60551 0.46189
 H1511 H 0.78087 0.68926 0.35228
 H1512 H 0.71714 0.64062 0.31369
 C1513 C 0.74480 0.10105 0.10875
 C1514 C 0.72988 0.07762 0.11655
 C1515 C 0.72987 0.05459 0.09940
 C1516 C 0.74561 0.05385 0.07478
 C1517 C 0.75977 0.07820 0.06684
 C1518 C 0.75942 0.10178 0.08382
 C1519 C 0.74542 0.12508 0.12734
 C1520 C 0.76028 0.14874 0.11971
 C1521 C 0.76132 0.17128 0.13797
 C1522 C 0.74832 0.16965 0.16390
 C1523 C 0.73320 0.14590 0.17086
 C1524 C 0.73152 0.12370 0.15266
 C1525 C 0.77387 0.12592 0.07672
 C1526 C 0.77414 0.14903 0.09426
 C1527 C 0.71551 0.07738 0.14167
 C1528 C 0.71648 0.09998 0.15952
 H1529 H 0.78519 0.12693 0.05751
 H1530 H 0.78557 0.16713 0.08797
 H1531 H 0.70384 0.05935 0.14782
 H1532 H 0.70553 0.09879 0.17895
 H1533 H 0.71702 0.03732 0.10534
 H1534 H 0.77227 0.07867 0.04839
 H1535 H 0.77288 0.18955 0.13245
 H1536 H 0.72278 0.14466 0.19059
 C1537 C 0.24763 0.59327 0.61458
 C1538 C 0.23167 0.57018 0.62150
 C1539 C 0.23192 0.54721 0.60417
 C1540 C 0.24868 0.54658 0.58042
 C1541 C 0.26441 0.57010 0.57358
 C1542 C 0.26382 0.59360 0.59059
 C1543 C 0.24761 0.61740 0.63306
 C1544 C 0.26333 0.64073 0.62617
 C1545 C 0.26349 0.66349 0.64414
 C1546 C 0.24877 0.66244 0.66914
 C1547 C 0.23305 0.63892 0.67555
 C1548 C 0.23217 0.61649 0.65751
 C1549 C 0.27927 0.61733 0.58433
 C1550 C 0.27890 0.64052 0.60172
 C1551 C 0.21598 0.57032 0.64582
 C1552 C 0.21638 0.59303 0.66363
 H1553 H 0.29181 0.61796 0.56587
 H1554 H 0.29115 0.65831 0.59612
 H1555 H 0.20358 0.55257 0.65132
 H1556 H 0.20429 0.59217 0.68238
 H1557 H 0.21901 0.52970 0.60930
 H1558 H 0.27746 0.56995 0.55547
 H1559 H 0.27570 0.68149 0.63919
 H1560 H 0.22147 0.63812 0.69465
 C1561 C 0.76364 0.90287 0.89389
 C1562 C 0.78073 0.92513 0.88677
 C1563 C 0.78104 0.94858 0.90353
 C1564 C 0.76385 0.95027 0.92686
 C1565 C 0.74767 0.92731 0.93437
 C1566 C 0.74742 0.90353 0.91785
 C1567 C 0.76174 0.87898 0.87522
 C1568 C 0.74408 0.85695 0.88183
 C1569 C 0.74132 0.83491 0.86320
 C1570 C 0.75545 0.83549 0.83788
 C1571 C 0.77353 0.85742 0.83196
 C1572 C 0.77683 0.87915 0.85054
 C1573 C 0.73048 0.88086 0.92414
 C1574 C 0.72892 0.85792 0.90650
 C1575 C 0.79634 0.92399 0.86243
 C1576 C 0.79435 0.90141 0.84456
 H1577 H 0.71794 0.88104 0.94261
 H1578 H 0.71527 0.84109 0.91192
 H1579 H 0.80967 0.94102 0.85680
 H1580 H 0.80625 0.90160 0.82565
 H1581 H 0.79393 0.96594 0.89787
 H1582 H 0.73425 0.92848 0.95220
 H1583 H 0.72741 0.81802 0.86779
 H1584 H 0.78480 0.85768 0.81265
 C1585 C 0.24531 0.40369 0.39077
 C1586 C 0.26278 0.40361 0.41391
 C1587 C 0.26359 0.42694 0.43113
 C1588 C 0.24687 0.45004 0.42529
 C1589 C 0.22879 0.44911 0.40249
 C1590 C 0.22827 0.42633 0.38496
 C1591 C 0.24511 0.37984 0.37196
 C1592 C 0.22840 0.38059 0.34830
 C1593 C 0.22908 0.35846 0.32988
 C1594 C 0.24584 0.33543 0.33524
 C1595 C 0.26194 0.33453 0.35942
 C1596 C 0.26197 0.35699 0.37771
 C1597 C 0.21132 0.42599 0.36147
 C1598 C 0.21153 0.40357 0.34333
 C1599 C 0.27931 0.38033 0.41904
 C1600 C 0.27881 0.35738 0.40134
 H1601 H 0.19809 0.44340 0.35685
 H1602 H 0.19845 0.40427 0.32520
 H1603 H 0.29284 0.37990 0.43683
 H1604 H 0.29196 0.33993 0.40602
 H1605 H 0.27759 0.42736 0.44855
 H1606 H 0.21517 0.46632 0.39821
 H1607 H 0.21652 0.35906 0.31137
 H1608 H 0.27504 0.31685 0.36342
 C1609 C 0.24762 0.88899 0.09884
 C1610 C 0.26496 0.88342 0.07640
 C1611 C 0.26413 0.90066 0.05342
 C1612 C 0.24561 0.92304 0.05218
 C1613 C 0.22867 0.92877 0.07511
 C1614 C 0.22962 0.91170 0.09858
 C1615 C 0.24803 0.87033 0.12282
 C1616 C 0.23069 0.87567 0.14539
 C1617 C 0.23077 0.85733 0.16788
 C1618 C 0.24750 0.83358 0.16727
 C1619 C 0.26487 0.82880 0.14458
 C1620 C 0.26538 0.84714 0.12242
 C1621 C 0.21271 0.91652 0.12164
 C1622 C 0.21330 0.89888 0.14466
 C1623 C 0.28252 0.86041 0.07709
 C1624 C 0.28262 0.84248 0.09968
 H1625 H 0.19876 0.93397 0.12181
 H1626 H 0.19979 0.90326 0.16189
 H1627 H 0.29600 0.85599 0.05983
 H1628 H 0.29617 0.82471 0.09925
 H1629 H 0.27785 0.89650 0.03627
 H1630 H 0.21439 0.94595 0.07441
 H1631 H 0.21721 0.86094 0.18527
 H1632 H 0.27796 0.81066 0.14417
 C1633 C 0.73879 0.39574 0.59782
 C1634 C 0.72241 0.38869 0.57501
 C1635 C 0.72169 0.40630 0.55222
 C1636 C 0.73790 0.43041 0.55161
 C1637 C 0.75329 0.43785 0.57515
 C1638 C 0.75386 0.42047 0.59835
 C1639 C 0.74113 0.37627 0.62105
 C1640 C 0.75794 0.38295 0.64371
 C1641 C 0.76097 0.36375 0.66523
 C1642 C 0.74800 0.33783 0.66354
 C1643 C 0.73091 0.33174 0.64089
 C1644 C 0.72726 0.35090 0.61968
 C1645 C 0.77003 0.42671 0.62161
 C1646 C 0.77192 0.40834 0.64396
 C1647 C 0.70798 0.36358 0.57492
 C1648 C 0.71046 0.34494 0.59685
 H1649 H 0.78168 0.44575 0.62237
 H1650 H 0.78491 0.41381 0.66131
 H1651 H 0.69522 0.35799 0.55745
 H1652 H 0.69947 0.32552 0.59572
 H1653 H 0.70934 0.40069 0.53443
 H1654 H 0.76591 0.45629 0.57484
 H1655 H 0.77408 0.36852 0.68271
 H1656 H 0.72046 0.31199 0.63977
 C1657 C 0.10541 0.10244 0.77108
 C1658 C 0.08301 0.11003 0.78780
 C1659 C 0.05931 0.09358 0.78800
 C1660 C 0.05756 0.07007 0.77113
 C1661 C 0.08068 0.06192 0.75550
 C1662 C 0.10468 0.07822 0.75526
 C1663 C 0.12940 0.12101 0.76892
 C1664 C 0.15142 0.11410 0.75136
 C1665 C 0.17337 0.13280 0.74806
 C1666 C 0.17268 0.15844 0.76156
 C1667 C 0.15088 0.16460 0.77968
 C1668 C 0.12921 0.14600 0.78347
 C1669 C 0.12744 0.07154 0.73857
 C1670 C 0.15045 0.08913 0.73672
 C1671 C 0.08418 0.13463 0.80297
 C1672 C 0.10690 0.15236 0.80080
 H1673 H 0.12721 0.05286 0.72636
 H1674 H 0.16730 0.08347 0.72318
 H1675 H 0.06705 0.14059 0.81603
 H1676 H 0.10672 0.17151 0.81228
 H1677 H 0.04168 0.09972 0.80032
 H1678 H 0.07937 0.04391 0.74237
 H1679 H 0.19019 0.12805 0.73411
 H1680 H 0.15056 0.18418 0.79046
 C1681 C 0.59244 0.61116 0.23973
 C1682 C 0.56782 0.61901 0.22656
 C1683 C 0.54490 0.60153 0.22778
 C1684 C 0.54619 0.57663 0.24259
 C1685 C 0.57134 0.56855 0.25487
 C1686 C 0.59455 0.58586 0.25359
 C1687 C 0.61608 0.63029 0.23990
 C1688 C 0.64057 0.62283 0.25359
 C1689 C 0.66263 0.64166 0.25454
 C1690 C 0.65982 0.66790 0.24248
 C1691 C 0.63526 0.67477 0.22852
 C1692 C 0.61339 0.65606 0.22708
 C1693 C 0.61953 0.57887 0.26666
 C1694 C 0.64217 0.59701 0.26660
 C1695 C 0.56626 0.64464 0.21324
 C1696 C 0.58867 0.66290 0.21356
 H1697 H 0.62146 0.55938 0.27738
 H1698 H 0.66091 0.59096 0.27723
 H1699 H 0.54738 0.65086 0.20296
 H1700 H 0.58647 0.68270 0.20348
 H1701 H 0.52577 0.60766 0.21789
 H1702 H 0.57243 0.54950 0.26646
 H1703 H 0.68147 0.63634 0.26540
 H1704 H 0.63312 0.69481 0.21888
 C1705 C 0.10372 0.90057 0.25137
 C1706 C 0.10703 0.92145 0.27107
 C1707 C 0.09003 0.94462 0.26989
 C1708 C 0.07039 0.94764 0.24867
 C1709 C 0.06665 0.92616 0.22949
 C1710 C 0.08337 0.90247 0.23078
 C1711 C 0.12255 0.87674 0.25182
 C1712 C 0.11960 0.85585 0.23200
 C1713 C 0.13829 0.83367 0.23205
 C1714 C 0.16015 0.83310 0.25118
 C1715 C 0.16261 0.85403 0.27099
 C1716 C 0.14375 0.87577 0.27159
 C1717 C 0.08079 0.88100 0.21149
 C1718 C 0.09850 0.85802 0.21218
 C1719 C 0.12786 0.91925 0.29109
 C1720 C 0.14605 0.89684 0.29124
 H1721 H 0.06515 0.88211 0.19555
 H1722 H 0.09597 0.84208 0.19676
 H1723 H 0.13051 0.93529 0.30639
 H1724 H 0.16223 0.89615 0.30667
 H1725 H 0.09259 0.96077 0.28511
 H1726 H 0.05160 0.92833 0.21309
 H1727 H 0.13658 0.81756 0.21667
 H1728 H 0.17936 0.85339 0.28584
 C1729 C 0.61058 0.40079 0.73161
 C1730 C 0.61778 0.42402 0.71597
 C1731 C 0.60030 0.44697 0.71600
 C1732 C 0.57614 0.44723 0.73217
 C1733 C 0.56858 0.42332 0.74685
 C1734 C 0.58585 0.40002 0.74671
 C1735 C 0.62991 0.37735 0.73317
 C1736 C 0.62315 0.35430 0.74936
 C1737 C 0.64230 0.33263 0.75180
 C1738 C 0.66826 0.33452 0.73886
 C1739 C 0.67438 0.35751 0.72227
 C1740 C 0.65528 0.37891 0.71926
 C1741 C 0.57949 0.37636 0.76218
 C1742 C 0.59776 0.35385 0.76338
 C1743 C 0.64287 0.42432 0.70147
 C1744 C 0.66136 0.40216 0.70316
 H1745 H 0.56043 0.37541 0.77383
 H1746 H 0.59222 0.33621 0.77589
 H1747 H 0.64857 0.44212 0.68925
 H1748 H 0.68079 0.40345 0.69216
 H1749 H 0.60600 0.46507 0.70421
 H1750 H 0.55009 0.42337 0.75942
 H1751 H 0.63753 0.31492 0.76455
 H1752 H 0.69416 0.35881 0.71187
 C1753 C 0.89268 0.10298 0.22813
 C1754 C 0.88491 0.08078 0.21128
 C1755 C 0.90155 0.05724 0.21054
 C1756 C 0.92533 0.05537 0.22719
 C1757 C 0.93355 0.07831 0.24301
 C1758 C 0.91719 0.10220 0.24362
 C1759 C 0.87408 0.12687 0.23068
 C1760 C 0.88138 0.14882 0.24813
 C1761 C 0.86288 0.17087 0.25152
 C1762 C 0.83702 0.17040 0.23825
 C1763 C 0.83032 0.14852 0.22045
 C1764 C 0.84880 0.12677 0.21648
 C1765 C 0.92415 0.12481 0.26034
 C1766 C 0.90660 0.14778 0.26245
 C1767 C 0.85999 0.08199 0.19650
 C1768 C 0.84216 0.10458 0.19914
 H1769 H 0.94306 0.12452 0.27230
 H1770 H 0.91253 0.16457 0.27592
 H1771 H 0.85385 0.06500 0.18338
 H1772 H 0.82280 0.10444 0.18792
 H1773 H 0.89535 0.03984 0.19797
 H1774 H 0.95171 0.07699 0.25603
 H1775 H 0.86805 0.18773 0.26522
 H1776 H 0.81059 0.14837 0.20983
 C1777 C 0.39365 0.59921 0.73375
 C1778 C 0.38582 0.57631 0.71789
 C1779 C 0.40282 0.55303 0.71752
 C1780 C 0.42713 0.55212 0.73347
 C1781 C 0.43530 0.57566 0.74841
 C1782 C 0.41852 0.59929 0.74870
 C1783 C 0.37485 0.62303 0.73568
 C1784 C 0.38223 0.64574 0.75209
 C1785 C 0.36357 0.66778 0.75488
 C1786 C 0.33751 0.66658 0.74203
 C1787 C 0.33078 0.64393 0.72522
 C1788 C 0.34936 0.62216 0.72189
 C1789 C 0.42550 0.62261 0.76441
 C1790 C 0.40773 0.64548 0.76599
 C1791 C 0.36062 0.57670 0.70355
 C1792 C 0.34263 0.59923 0.70559
 H1793 H 0.44467 0.62302 0.77596
 H1794 H 0.41373 0.66284 0.77867
 H1795 H 0.35444 0.55917 0.69118
 H1796 H 0.32309 0.59848 0.69470
 H1797 H 0.39666 0.53519 0.70555
 H1798 H 0.45392 0.57509 0.76083
 H1799 H 0.36878 0.68521 0.76784
 H1800 H 0.31088 0.64315 0.71494
 C1801 C 0.89955 0.89352 0.77225
 C1802 C 0.92252 0.88599 0.78824
 C1803 C 0.94577 0.90307 0.78849
 C1804 C 0.94662 0.92705 0.77215
 C1805 C 0.92292 0.93508 0.75731
 C1806 C 0.89929 0.91825 0.75721
 C1807 C 0.87598 0.87441 0.77006
 C1808 C 0.85328 0.88145 0.75342
 C1809 C 0.83157 0.86249 0.75027
 C1810 C 0.83308 0.83643 0.76294
 C1811 C 0.85570 0.82999 0.77998
 C1812 C 0.87715 0.84893 0.78372
 C1813 C 0.87591 0.92493 0.74135
 C1814 C 0.85324 0.90691 0.73960
 C1815 C 0.92237 0.86086 0.80257
 C1816 C 0.90008 0.84257 0.80027
 H1817 H 0.87535 0.94400 0.72976
 H1818 H 0.83583 0.91264 0.72677
 H1819 H 0.93997 0.85492 0.81505
 H1820 H 0.90106 0.82306 0.81109
 H1821 H 0.96379 0.89702 0.80032
 H1822 H 0.92347 0.95345 0.74462
 H1823 H 0.81412 0.86751 0.73718
 H1824 H 0.85668 0.81013 0.79018
 C1825 C 0.40265 0.38823 0.25127
 C1826 C 0.39966 0.41376 0.23796
 C1827 C 0.42278 0.43127 0.23558
 C1828 C 0.44851 0.42337 0.24685
 C1829 C 0.45045 0.39813 0.26116
 C1830 C 0.42798 0.38028 0.26280
 C1831 C 0.37897 0.36920 0.25288
 C1832 C 0.38263 0.34322 0.26500
 C1833 C 0.36060 0.32472 0.26547
 C1834 C 0.33467 0.33207 0.25458
 C1835 C 0.33101 0.35850 0.24302
 C1836 C 0.35336 0.37705 0.24173
 C1837 C 0.43061 0.35438 0.27537
 C1838 C 0.40839 0.33598 0.27611
 C1839 C 0.37370 0.42097 0.22705
 C1840 C 0.35092 0.40303 0.22908
 H1841 H 0.45018 0.34804 0.28421
 H1842 H 0.41146 0.31589 0.28532
 H1843 H 0.37098 0.44061 0.21681
 H1844 H 0.33133 0.40939 0.22032
 H1845 H 0.42085 0.45061 0.22461
 H1846 H 0.46963 0.39215 0.27102
 H1847 H 0.36377 0.30441 0.27416
 H1848 H 0.31121 0.36421 0.23428
   
