data_POSCAR
  _audit_creation_date              2014-09-24
  _audit_creation_method            'ToBaCCo'
  _symmetry_space_group_name_H-M    'P1'
  _symmetry_Int_Tables_number       1
  _symmetry_cell_setting            triclinic
  loop_
  _symmetry_equiv_pos_as_xyz
 x,y,z
_cell_length_a 41.5142
_cell_length_b 41.3622
_cell_length_c 41.2579
_cell_angle_alpha 90.033300
_cell_angle_beta 89.899600
_cell_angle_gamma 90.177100
loop_
  _atom_site_label
  _atom_site_type_symbol
  _atom_site_fract_x
  _atom_site_fract_y
  _atom_site_fract_z
O1 O 0.86044 0.16431 0.80138
 O2 O 0.89846 0.12288 0.79260
 O3 O 0.78385 0.11083 0.85059
 O4 O 0.78047 0.07958 0.89361
 O5 O 0.81277 0.20301 0.88637
 O6 O 0.85778 0.22313 0.91602
 O7 O 0.88793 0.05024 0.93983
 O8 O 0.84829 0.03116 0.90168
 O9 O 0.95859 0.09616 0.88717
 O10 O 0.96161 0.14018 0.85008
 O11 O 0.91469 0.14356 0.97018
 O12 O 0.86432 0.17008 0.97940
 O13 O 0.88225 0.09197 0.97530
 O14 O 0.83637 0.13080 0.98261
 O15 O 0.95279 0.14046 0.93065
 O16 O 0.95438 0.17780 0.88004
 O17 O 0.92654 0.05169 0.89051
 O18 O 0.88265 0.03180 0.86085
 O19 O 0.85674 0.20645 0.83663
 O20 O 0.89099 0.22459 0.87900
 O21 O 0.78047 0.15876 0.89191
 O22 O 0.78264 0.11599 0.93308
 O23 O 0.81933 0.11450 0.80865
 O24 O 0.86869 0.08299 0.79943
 Zr25 Zr 0.86467 0.12310 0.83098
 O26 O 0.90091 0.10113 0.85913
 Zr27 Zr 0.81230 0.11957 0.89137
 O28 O 0.84559 0.09628 0.92175
 Zr29 Zr 0.85971 0.18433 0.88268
 O30 O 0.89455 0.16439 0.91376
 Zr31 Zr 0.87963 0.07085 0.89398
 O32 O 0.84329 0.09023 0.86354
 Zr33 Zr 0.92636 0.13547 0.88686
 O34 O 0.89323 0.15809 0.85489
 Zr35 Zr 0.87222 0.13203 0.94602
 O36 O 0.83693 0.15530 0.91789
 O37 O 0.83233 0.15088 0.85718
 O38 O 0.90609 0.10437 0.92079
 C39 C 0.85829 0.19463 0.80781
 C40 C 0.79072 0.11039 0.82034
 C41 C 0.78520 0.18935 0.89055
 C42 C 0.88775 0.06225 0.96861
 C43 C 0.95431 0.06537 0.88792
 C44 C 0.94385 0.14408 0.96040
 H45 H 0.91541 0.08916 0.84441
 H46 H 0.90582 0.18209 0.92522
 H47 H 0.81620 0.16168 0.84329
 H48 H 0.83430 0.08160 0.93691
 H49 H 0.83027 0.03355 0.88618
 H50 H 0.79057 0.06309 0.90763
 H51 H 0.95243 0.19126 0.89978
 H52 H 0.90920 0.21773 0.86512
 H53 H 0.89269 0.04006 0.84074
 H54 H 0.85425 0.06594 0.80807
 H55 H 0.87666 0.18909 0.97170
 H56 H 0.84484 0.21555 0.93472
 H57 H 0.91505 0.13915 0.79827
 H58 H 0.95612 0.12443 0.83290
 H59 H 0.78633 0.13571 0.94618
 H60 H 0.82631 0.10909 0.98255
 O61 O 0.80677 0.69209 0.36748
 O62 O 0.84963 0.71453 0.39786
 O63 O 0.86195 0.64913 0.28760
 O64 O 0.89559 0.60812 0.28076
 O65 O 0.78060 0.59849 0.33394
 O66 O 0.77677 0.56774 0.38210
 O67 O 0.95242 0.58713 0.38406
 O68 O 0.95721 0.62540 0.34380
 O69 O 0.90361 0.63504 0.46120
 O70 O 0.85326 0.66564 0.46471
 O71 O 0.87825 0.54349 0.43393
 O72 O 0.84340 0.51990 0.39144
 O73 O 0.91997 0.54286 0.38743
 O74 O 0.87523 0.52115 0.35500
 O75 O 0.86851 0.58672 0.46654
 O76 O 0.82387 0.62717 0.46842
 O77 O 0.94405 0.63440 0.42397
 O78 O 0.94833 0.66839 0.37252
 O79 O 0.77394 0.64818 0.37279
 O80 O 0.77163 0.60704 0.41425
 O81 O 0.81859 0.60157 0.29426
 O82 O 0.86895 0.56620 0.29352
 O83 O 0.85261 0.69266 0.31995
 O84 O 0.88537 0.71363 0.36309
 Zr85 Zr 0.85386 0.67362 0.36744
 O86 O 0.88649 0.65589 0.40208
 Zr87 Zr 0.86244 0.60975 0.31966
 O88 O 0.89683 0.58987 0.35161
 Zr89 Zr 0.80596 0.60931 0.37638
 O90 O 0.83704 0.58829 0.41044
 Zr91 Zr 0.92023 0.62595 0.37907
 O92 O 0.88933 0.64623 0.34348
 Zr93 Zr 0.86212 0.62525 0.43445
 O94 O 0.82875 0.64650 0.40263
 Zr95 Zr 0.87285 0.56150 0.38645
 O96 O 0.83870 0.57884 0.35241
 O97 O 0.82833 0.63871 0.34203
 O98 O 0.89756 0.59649 0.41303
 C99 C 0.77891 0.67867 0.37036
 C100 C 0.85726 0.67945 0.29206
 C101 C 0.78930 0.59780 0.30415
 C102 C 0.94781 0.55649 0.38615
 C103 C 0.93332 0.63712 0.45325
 C104 C 0.87537 0.55694 0.46192
 H105 H 0.89685 0.67417 0.41345
 H106 H 0.82447 0.57481 0.42567
 H107 H 0.81318 0.64893 0.32666
 H108 H 0.91246 0.57721 0.33876
 H109 H 0.94786 0.63460 0.32379
 H110 H 0.91717 0.60523 0.29036
 H111 H 0.81274 0.60599 0.46829
 H112 H 0.77551 0.62608 0.42828
 H113 H 0.94388 0.68339 0.39065
 H114 H 0.90385 0.70626 0.34985
 H115 H 0.82656 0.52469 0.40771
 H116 H 0.78824 0.54981 0.37120
 H117 H 0.83745 0.70736 0.41723
 H118 H 0.86839 0.68307 0.45841
 H119 H 0.85120 0.55145 0.29986
 H120 H 0.89073 0.52650 0.33755
 O121 O 0.36157 0.17478 0.30465
 O122 O 0.40072 0.13389 0.29257
 O123 O 0.28628 0.11399 0.34989
 O124 O 0.28293 0.08038 0.39050
 O125 O 0.31443 0.20391 0.39273
 O126 O 0.36009 0.22094 0.42530
 O127 O 0.38999 0.04796 0.43346
 O128 O 0.34888 0.03295 0.39241
 O129 O 0.46045 0.09698 0.38458
 O130 O 0.46351 0.14339 0.34970
 O131 O 0.41753 0.13739 0.47029
 O132 O 0.36709 0.16489 0.48155
 O133 O 0.38517 0.08727 0.47168
 O134 O 0.33986 0.12460 0.48309
 O135 O 0.45512 0.14084 0.43027
 O136 O 0.45701 0.17922 0.38158
 O137 O 0.42805 0.05262 0.38505
 O138 O 0.38631 0.03543 0.35363
 O139 O 0.35716 0.21231 0.34471
 O140 O 0.39194 0.22711 0.38711
 O141 O 0.28230 0.15924 0.39442
 O142 O 0.28503 0.11373 0.43235
 O143 O 0.32088 0.12352 0.30806
 O144 O 0.37015 0.09393 0.29459
 Zr145 Zr 0.36648 0.13036 0.33037
 O146 O 0.40252 0.10520 0.35641
 Zr147 Zr 0.31456 0.12061 0.39096
 O148 O 0.34792 0.09510 0.41922
 Zr149 Zr 0.36156 0.18602 0.38786
 O150 O 0.39703 0.16364 0.41615
 Zr151 Zr 0.38156 0.07216 0.38908
 O152 O 0.34557 0.09438 0.36017
 Zr153 Zr 0.42854 0.13694 0.38651
 O154 O 0.39510 0.16284 0.35738
 Zr155 Zr 0.37473 0.12899 0.44579
 O156 O 0.33892 0.15414 0.42036
 O157 O 0.33418 0.15498 0.35954
 O158 O 0.40837 0.10343 0.41810
 C159 C 0.35846 0.20418 0.31475
 C160 C 0.29269 0.11706 0.31974
 C161 C 0.28682 0.18986 0.39511
 C162 C 0.39060 0.05814 0.46301
 C163 C 0.45590 0.06614 0.38384
 C164 C 0.44642 0.14087 0.46031
 H165 H 0.41685 0.09413 0.34083
 H166 H 0.40842 0.18040 0.42884
 H167 H 0.31785 0.16675 0.34671
 H168 H 0.33676 0.07929 0.43330
 H169 H 0.33230 0.03634 0.37551
 H170 H 0.29331 0.06285 0.40294
 H171 H 0.45322 0.19289 0.40089
 H172 H 0.41036 0.22156 0.37291
 H173 H 0.39155 0.04621 0.33292
 H174 H 0.35611 0.07587 0.30172
 H175 H 0.38100 0.18361 0.47621
 H176 H 0.34581 0.21218 0.44244
 H177 H 0.41666 0.15031 0.29956
 H178 H 0.45774 0.12875 0.33165
 H179 H 0.28891 0.13226 0.44705
 H180 H 0.32895 0.10344 0.48070
 O181 O 0.13272 0.32451 0.29305
 O182 O 0.09314 0.36424 0.27857
 O183 O 0.20510 0.38636 0.33948
 O184 O 0.20580 0.42212 0.37940
 O185 O 0.17588 0.29820 0.38465
 O186 O 0.12935 0.28129 0.41487
 O187 O 0.10238 0.45595 0.41645
 O188 O 0.13995 0.46878 0.37304
 O189 O 0.02925 0.40217 0.36803
 O190 O 0.02979 0.35571 0.33140
 O191 O 0.06702 0.36699 0.45422
 O192 O 0.11696 0.33979 0.46998
 O193 O 0.10093 0.41773 0.45606
 O194 O 0.14452 0.37956 0.47151
 O195 O 0.03252 0.35947 0.41216
 O196 O 0.03423 0.32059 0.36498
 O197 O 0.06078 0.44693 0.37264
 O198 O 0.09888 0.46307 0.33663
 O199 O 0.13581 0.28812 0.33425
 O200 O 0.09880 0.27411 0.37604
 O201 O 0.20745 0.34324 0.38627
 O202 O 0.20319 0.39030 0.42150
 O203 O 0.17237 0.37573 0.29654
 O204 O 0.12324 0.40419 0.27989
 Zr205 Zr 0.12605 0.36933 0.31727
 O206 O 0.08869 0.39495 0.34095
 Zr207 Zr 0.17502 0.38127 0.37970
 O208 O 0.14019 0.40709 0.40586
 Zr209 Zr 0.12897 0.31537 0.37669
 O210 O 0.09194 0.33819 0.40272
 Zr211 Zr 0.10794 0.42887 0.37356
 O212 O 0.14540 0.40635 0.34676
 Zr213 Zr 0.06188 0.36331 0.37051
 O214 O 0.09685 0.33703 0.34386
 Zr215 Zr 0.11192 0.37426 0.43244
 O216 O 0.14934 0.34873 0.40927
 O217 O 0.15723 0.34582 0.34857
 O218 O 0.07990 0.39823 0.40211
 C219 C 0.13578 0.29550 0.30402
 C220 C 0.19998 0.38254 0.30915
 C221 C 0.20317 0.31264 0.38797
 C222 C 0.09945 0.44706 0.44619
 C223 C 0.03324 0.43289 0.37036
 C224 C 0.03892 0.36160 0.44256
 H225 H 0.07500 0.40590 0.32476
 H226 H 0.08005 0.32170 0.41531
 H227 H 0.17432 0.33380 0.33697
 H228 H 0.15108 0.42321 0.41976
 H229 H 0.15551 0.46506 0.35520
 H230 H 0.19335 0.44047 0.38823
 H231 H 0.03800 0.30688 0.38423
 H232 H 0.08193 0.27835 0.35968
 H233 H 0.10921 0.45459 0.31683
 H234 H 0.13864 0.42168 0.28535
 H235 H 0.10343 0.32086 0.46442
 H236 H 0.14096 0.29158 0.43312
 H237 H 0.07714 0.34786 0.28556
 H238 H 0.03414 0.37254 0.31494
 H239 H 0.19798 0.37308 0.43733
 H240 H 0.15637 0.40013 0.46847
 O241 O 0.63284 0.82649 0.29019
 O242 O 0.59473 0.86972 0.27738
 O243 O 0.70689 0.88153 0.34082
 O244 O 0.70852 0.91466 0.38353
 O245 O 0.67148 0.79226 0.37838
 O246 O 0.62304 0.77762 0.40929
 O247 O 0.60524 0.95010 0.42263
 O248 O 0.64665 0.96454 0.38152
 O249 O 0.53205 0.90734 0.36726
 O250 O 0.53042 0.86319 0.32738
 O251 O 0.56508 0.86151 0.45149
 O252 O 0.61468 0.82922 0.46456
 O253 O 0.60088 0.90889 0.45888
 O254 O 0.64125 0.86960 0.47250
 O255 O 0.53106 0.86093 0.40840
 O256 O 0.53110 0.82580 0.35839
 O257 O 0.56627 0.94964 0.37477
 O258 O 0.60721 0.96576 0.34357
 O259 O 0.63146 0.78778 0.32936
 O260 O 0.59384 0.77339 0.36834
 O261 O 0.70572 0.83493 0.38423
 O262 O 0.70394 0.87903 0.42306
 O263 O 0.67444 0.87719 0.29660
 O264 O 0.62725 0.90746 0.28081
 Zr265 Zr 0.62755 0.87076 0.31647
 O266 O 0.59149 0.89739 0.34132
 Zr267 Zr 0.67580 0.87545 0.38043
 O268 O 0.64179 0.90108 0.40809
 Zr269 Zr 0.62576 0.81308 0.37244
 O270 O 0.58909 0.83608 0.39862
 Zr271 Zr 0.61174 0.92742 0.37711
 O272 O 0.64819 0.90450 0.34905
 Zr273 Zr 0.56170 0.86574 0.36777
 O274 O 0.59577 0.83885 0.34043
 Zr275 Zr 0.61085 0.86803 0.43137
 O276 O 0.64769 0.84256 0.40737
 O277 O 0.65646 0.84346 0.34669
 O278 O 0.58111 0.89659 0.40248
 C279 C 0.63339 0.79672 0.29980
 C280 C 0.70219 0.88130 0.31010
 C281 C 0.69963 0.80458 0.38267
 C282 C 0.60091 0.93881 0.45147
 C283 C 0.53793 0.93773 0.37089
 C284 C 0.53692 0.85959 0.43895
 H285 H 0.57907 0.91045 0.32567
 H286 H 0.57582 0.81944 0.40953
 H287 H 0.67305 0.83153 0.33431
 H288 H 0.65307 0.91539 0.42357
 H289 H 0.66254 0.96129 0.36388
 H290 H 0.69778 0.93208 0.39585
 H291 H 0.53338 0.81042 0.37659
 H292 H 0.57640 0.78034 0.35359
 H293 H 0.61446 0.95716 0.32248
 H294 H 0.64171 0.92487 0.28860
 H295 H 0.59790 0.81309 0.45909
 H296 H 0.63788 0.78451 0.42675
 H297 H 0.57853 0.85291 0.28269
 H298 H 0.53662 0.88062 0.31218
 H299 H 0.69676 0.86147 0.43770
 H300 H 0.65648 0.88781 0.46963
 O301 O 0.64206 0.68298 0.18916
 O302 O 0.60448 0.64558 0.21220
 O303 O 0.71213 0.61484 0.14784
 O304 O 0.71126 0.57578 0.11089
 O305 O 0.68100 0.69887 0.09691
 O306 O 0.63412 0.70893 0.06295
 O307 O 0.60303 0.53715 0.08708
 O308 O 0.64403 0.52861 0.12601
 O309 O 0.53499 0.59684 0.13341
 O310 O 0.53904 0.64892 0.16331
 O311 O 0.56647 0.61984 0.04055
 O312 O 0.61454 0.64480 0.01754
 O313 O 0.60241 0.56919 0.04237
 O314 O 0.64370 0.60630 0.01967
 O315 O 0.53512 0.63232 0.08400
 O316 O 0.53931 0.67738 0.12392
 O317 O 0.56614 0.55177 0.13415
 O318 O 0.61347 0.53992 0.16766
 O319 O 0.64135 0.71446 0.14393
 O320 O 0.60374 0.72207 0.10179
 O321 O 0.71245 0.65396 0.09786
 O322 O 0.70548 0.60385 0.06581
 O323 O 0.68109 0.62783 0.19148
 O324 O 0.63319 0.60535 0.21369
 Zr325 Zr 0.63442 0.63511 0.17208
 O326 O 0.59565 0.60697 0.15459
 Zr327 Zr 0.68011 0.61613 0.10865
 O328 O 0.64343 0.58698 0.08865
 Zr329 Zr 0.63417 0.68142 0.10614
 O330 O 0.59542 0.65544 0.08594
 Zr331 Zr 0.61315 0.56919 0.12543
 O332 O 0.65225 0.59510 0.14599
 Zr333 Zr 0.56741 0.63474 0.12305
 O334 O 0.60399 0.66405 0.14346
 Zr335 Zr 0.61325 0.61576 0.05976
 O336 O 0.65233 0.64422 0.07675
 O337 O 0.66385 0.65472 0.13658
 O338 O 0.58325 0.59587 0.09510
 C339 C 0.64303 0.71066 0.17469
 C340 C 0.70806 0.61962 0.17828
 C341 C 0.70844 0.68459 0.09507
 C342 C 0.59997 0.54153 0.05640
 C343 C 0.53880 0.56617 0.13624
 C344 C 0.53916 0.62629 0.05378
 H345 H 0.58279 0.59881 0.17302
 H346 H 0.58261 0.67006 0.07214
 H347 H 0.68131 0.66762 0.14662
 H348 H 0.65329 0.56915 0.07619
 H349 H 0.66372 0.53522 0.13784
 H350 H 0.69930 0.55683 0.10254
 H351 H 0.54196 0.68837 0.10279
 H352 H 0.58709 0.71980 0.11884
 H353 H 0.59946 0.55004 0.18416
 H354 H 0.64124 0.58393 0.20676
 H355 H 0.60375 0.66545 0.02270
 H356 H 0.64674 0.69661 0.04676
 H357 H 0.58770 0.66051 0.20420
 H358 H 0.54239 0.63299 0.18084
 H359 H 0.70024 0.62043 0.04936
 H360 H 0.65707 0.58731 0.02511
 O361 O 0.36709 0.85562 0.72270
 O362 O 0.40561 0.89884 0.72789
 O363 O 0.29485 0.90377 0.66191
 O364 O 0.29420 0.92766 0.61412
 O365 O 0.32504 0.80664 0.64026
 O366 O 0.37251 0.78410 0.61531
 O367 O 0.40096 0.95160 0.57143
 O368 O 0.36043 0.97522 0.60829
 O369 O 0.47098 0.91462 0.63441
 O370 O 0.46970 0.87672 0.68012
 O371 O 0.43488 0.85990 0.55707
 O372 O 0.38566 0.82643 0.54905
 O373 O 0.39883 0.90545 0.54154
 O374 O 0.35713 0.86390 0.53691
 O375 O 0.46897 0.86374 0.59993
 O376 O 0.46693 0.83549 0.65439
 O377 O 0.43965 0.95708 0.61972
 O378 O 0.39855 0.98084 0.64624
 O379 O 0.36407 0.81008 0.69192
 O380 O 0.40209 0.78701 0.65594
 O381 O 0.29330 0.84970 0.62804
 O382 O 0.29809 0.88643 0.58142
 O383 O 0.32677 0.90371 0.70669
 O384 O 0.37481 0.93653 0.71603
 Zr385 Zr 0.37350 0.89336 0.68856
 O386 O 0.41130 0.91278 0.66005
 Zr387 Zr 0.32547 0.88879 0.62464
 O388 O 0.36079 0.90790 0.59351
 Zr389 Zr 0.37175 0.82625 0.64431
 O390 O 0.40927 0.84256 0.61406
 Zr391 Zr 0.39267 0.93741 0.61976
 O392 O 0.35465 0.92168 0.65058
 Zr393 Zr 0.43871 0.87534 0.63945
 O394 O 0.40328 0.85592 0.67117
 Zr395 Zr 0.38940 0.86977 0.57617
 O396 O 0.35164 0.85028 0.60434
 O397 O 0.34294 0.86234 0.66371
 O398 O 0.42107 0.90108 0.59997
 C399 C 0.36390 0.82482 0.71935
 C400 C 0.29934 0.90705 0.69242
 C401 C 0.29767 0.81954 0.63358
 C402 C 0.40217 0.93606 0.54438
 C403 C 0.46712 0.94437 0.62624
 C404 C 0.46303 0.85919 0.56969
 H405 H 0.42467 0.92737 0.67348
 H406 H 0.42163 0.82385 0.60593
 H407 H 0.32574 0.85335 0.67772
 H408 H 0.35017 0.91999 0.57586
 H409 H 0.34380 0.97560 0.62555
 H410 H 0.30641 0.94323 0.60066
 H411 H 0.46395 0.81792 0.63839
 H412 H 0.41920 0.79580 0.67015
 H413 H 0.39561 0.97525 0.66931
 H414 H 0.36053 0.95216 0.70498
 H415 H 0.40114 0.81069 0.55805
 H416 H 0.36099 0.78945 0.59503
 H417 H 0.42176 0.88141 0.72568
 H418 H 0.46527 0.89697 0.69207
 H419 H 0.30254 0.86519 0.57130
 H420 H 0.34393 0.88371 0.53539
 O421 O 0.87139 0.35209 0.72765
 O422 O 0.90745 0.39739 0.73368
 O423 O 0.79641 0.39696 0.66798
 O424 O 0.79377 0.42097 0.62045
 O425 O 0.83313 0.30217 0.64357
 O426 O 0.88161 0.28266 0.61970
 O427 O 0.89652 0.45374 0.57847
 O428 O 0.85693 0.47366 0.61718
 O429 O 0.97127 0.41857 0.63919
 O430 O 0.97313 0.38118 0.68452
 O431 O 0.93827 0.36384 0.56183
 O432 O 0.89136 0.32801 0.55267
 O433 O 0.89956 0.40809 0.54786
 O434 O 0.86011 0.36343 0.54216
 O435 O 0.97222 0.36821 0.60476
 O436 O 0.97159 0.33922 0.65926
 O437 O 0.93715 0.45860 0.62393
 O438 O 0.89692 0.47946 0.65462
 O439 O 0.87103 0.30690 0.69620
 O440 O 0.91150 0.28754 0.65970
 O441 O 0.79838 0.34335 0.63313
 O442 O 0.80032 0.38124 0.58737
 O443 O 0.82828 0.39698 0.71280
 O444 O 0.87456 0.43332 0.72270
 Zr445 Zr 0.87559 0.39072 0.69433
 O446 O 0.91189 0.41300 0.66594
 Zr447 Zr 0.82776 0.38436 0.63049
 O448 O 0.86136 0.40628 0.59953
 Zr449 Zr 0.87820 0.32455 0.64887
 O450 O 0.91412 0.34375 0.61845
 Zr451 Zr 0.89132 0.43715 0.62636
 O452 O 0.85464 0.41855 0.65711
 Zr453 Zr 0.94148 0.37770 0.64450
 O454 O 0.90773 0.35564 0.67625
 Zr455 Zr 0.89234 0.37055 0.58125
 O456 O 0.85633 0.34802 0.60941
 O457 O 0.84708 0.35827 0.66891
 O458 O 0.92191 0.40314 0.60571
 C459 C 0.86981 0.32122 0.72385
 C460 C 0.80070 0.39916 0.69859
 C461 C 0.80503 0.31346 0.63727
 C462 C 0.89945 0.43888 0.55121
 C463 C 0.96540 0.44758 0.62995
 C464 C 0.96645 0.36404 0.57444
 H465 H 0.92440 0.42831 0.67942
 H466 H 0.92755 0.32600 0.60988
 H467 H 0.83047 0.34783 0.68264
 H468 H 0.84966 0.41796 0.58232
 H469 H 0.84107 0.47295 0.63514
 H470 H 0.80548 0.43860 0.60931
 H471 H 0.97003 0.32192 0.64277
 H472 H 0.92699 0.29681 0.67540
 H473 H 0.88702 0.47471 0.67586
 H474 H 0.85786 0.44753 0.71329
 H475 H 0.90735 0.31277 0.56162
 H476 H 0.87103 0.28790 0.59888
 H477 H 0.92468 0.38110 0.73102
 H478 H 0.96673 0.40034 0.69733
 H479 H 0.80623 0.36068 0.57664
 H480 H 0.84630 0.38281 0.54057
 O481 O 0.78851 0.88540 0.15665
 O482 O 0.79180 0.91827 0.10936
 O483 O 0.82110 0.79350 0.12181
 O484 O 0.86486 0.77078 0.10313
 O485 O 0.85976 0.83524 0.21287
 O486 O 0.89776 0.87637 0.22373
 O487 O 0.93165 0.85811 0.04871
 O488 O 0.88754 0.82413 0.03771
 O489 O 0.89705 0.94707 0.07480
 O490 O 0.85842 0.96803 0.11378
 O491 O 0.96584 0.90167 0.13446
 O492 O 0.96450 0.85842 0.17352
 O493 O 0.96458 0.85681 0.09257
 O494 O 0.96081 0.82042 0.14309
 O495 O 0.93448 0.94570 0.12547
 O496 O 0.88537 0.96550 0.15383
 O497 O 0.89586 0.90486 0.03945
 O498 O 0.85336 0.86454 0.02909
 O499 O 0.82023 0.88375 0.20152
 O500 O 0.86842 0.91656 0.21333
 O501 O 0.85853 0.79255 0.17807
 O502 O 0.90116 0.77579 0.13873
 O503 O 0.78900 0.83749 0.11487
 O504 O 0.79238 0.88038 0.07549
 Zr505 Zr 0.82051 0.87705 0.11804
 O506 O 0.85637 0.90001 0.09033
 Zr507 Zr 0.86704 0.81311 0.13180
 O508 O 0.90462 0.83295 0.10340
 Zr509 Zr 0.86716 0.87546 0.18284
 O510 O 0.90583 0.89732 0.15765
 Zr511 Zr 0.88580 0.86478 0.06879
 O512 O 0.84793 0.84152 0.09395
 Zr513 Zr 0.88743 0.92660 0.12053
 O514 O 0.84855 0.90725 0.14791
 Zr515 Zr 0.93353 0.86241 0.13306
 O516 O 0.89757 0.84013 0.16226
 O517 O 0.83745 0.84668 0.15434
 O518 O 0.91662 0.89309 0.09700
 C519 C 0.79266 0.88674 0.18744
 C520 C 0.79377 0.80690 0.11589
 C521 C 0.85742 0.80493 0.20673
 C522 C 0.95964 0.85626 0.06174
 C523 C 0.89895 0.93494 0.04613
 C524 C 0.96185 0.93223 0.13093
 H525 H 0.84588 0.91397 0.07407
 H526 H 0.91900 0.90984 0.17317
 H527 H 0.81995 0.83586 0.16658
 H528 H 0.91710 0.81557 0.09280
 H529 H 0.86895 0.81023 0.04351
 H530 H 0.87753 0.77514 0.08329
 H531 H 0.89903 0.95987 0.17261
 H532 H 0.85520 0.93337 0.20271
 H533 H 0.84122 0.88506 0.02923
 H534 H 0.79889 0.86219 0.06134
 H535 H 0.95854 0.87570 0.18896
 H536 H 0.91443 0.85975 0.21985
 H537 H 0.79990 0.93548 0.12394
 H538 H 0.84234 0.96281 0.09690
 H539 H 0.91373 0.78143 0.15831
 H540 H 0.96011 0.80630 0.12374
 O541 O 0.35881 0.31690 0.20075
 O542 O 0.39353 0.35746 0.22264
 O543 O 0.28378 0.37658 0.15679
 O544 O 0.28149 0.41578 0.12059
 O545 O 0.32353 0.29625 0.10587
 O546 O 0.37176 0.28855 0.07531
 O547 O 0.38471 0.46474 0.09663
 O548 O 0.34371 0.46865 0.13797
 O549 O 0.45900 0.41088 0.14306
 O550 O 0.46029 0.36040 0.17309
 O551 O 0.42919 0.38463 0.05061
 O552 O 0.38519 0.35689 0.02710
 O553 O 0.38928 0.43254 0.05220
 O554 O 0.35031 0.39024 0.03059
 O555 O 0.46173 0.37459 0.09368
 O556 O 0.46081 0.32988 0.13498
 O557 O 0.42464 0.45351 0.14166
 O558 O 0.38279 0.46146 0.17676
 O559 O 0.36254 0.28490 0.15605
 O560 O 0.40277 0.28050 0.11419
 O561 O 0.28844 0.33836 0.10593
 O562 O 0.29057 0.39037 0.07598
 O563 O 0.31516 0.36635 0.20075
 O564 O 0.36168 0.39447 0.22415
 Zr565 Zr 0.36286 0.36465 0.18246
 O566 O 0.39912 0.39595 0.16459
 Zr567 Zr 0.31656 0.37889 0.11855
 O568 O 0.35025 0.41136 0.09854
 Zr569 Zr 0.36806 0.31768 0.11727
 O570 O 0.40384 0.34715 0.09633
 Zr571 Zr 0.37895 0.43188 0.13512
 O572 O 0.34195 0.40285 0.15603
 Zr573 Zr 0.42989 0.37045 0.13323
 O574 O 0.39615 0.33824 0.15441
 Zr575 Zr 0.38262 0.38502 0.06987
 O576 O 0.34680 0.35281 0.08722
 O577 O 0.33570 0.34200 0.14687
 O578 O 0.41092 0.40757 0.10489
 C579 C 0.35994 0.28899 0.18683
 C580 C 0.28777 0.37173 0.18711
 C581 C 0.29527 0.30832 0.10235
 C582 C 0.38856 0.46044 0.06604
 C583 C 0.45298 0.44125 0.14428
 C584 C 0.45688 0.37990 0.06343
 H585 H 0.41095 0.40587 0.18287
 H586 H 0.41782 0.33357 0.08254
 H587 H 0.31921 0.32742 0.15627
 H588 H 0.33863 0.42807 0.08611
 H589 H 0.32734 0.46138 0.15389
 H590 H 0.29302 0.43653 0.11773
 H591 H 0.45954 0.31870 0.11381
 H592 H 0.41754 0.28352 0.13277
 H593 H 0.36989 0.45084 0.19382
 H594 H 0.34526 0.41135 0.22037
 H595 H 0.39553 0.33617 0.03284
 H596 H 0.36010 0.30004 0.05788
 H597 H 0.41137 0.34362 0.21491
 H598 H 0.45349 0.37433 0.19133
 H599 H 0.29664 0.37426 0.05932
 H600 H 0.33756 0.41008 0.03432
 O601 O 0.34933 0.66603 0.78815
 O602 O 0.38534 0.62613 0.77026
 O603 O 0.27798 0.60853 0.84003
 O604 O 0.27744 0.57556 0.88238
 O605 O 0.31388 0.69796 0.87841
 O606 O 0.36127 0.71157 0.90852
 O607 O 0.38548 0.53525 0.90835
 O608 O 0.34332 0.52332 0.87170
 O609 O 0.45469 0.58668 0.85405
 O610 O 0.45254 0.63413 0.81840
 O611 O 0.42543 0.62109 0.94386
 O612 O 0.38183 0.64988 0.96495
 O613 O 0.38641 0.57214 0.94923
 O614 O 0.34595 0.61616 0.96556
 O615 O 0.45664 0.62759 0.89900
 O616 O 0.45331 0.66781 0.85384
 O617 O 0.42217 0.54269 0.85963
 O618 O 0.37872 0.52894 0.82812
 O619 O 0.35349 0.70444 0.82747
 O620 O 0.39268 0.71627 0.86898
 O621 O 0.28081 0.65441 0.88435
 O622 O 0.28636 0.60752 0.92253
 O623 O 0.30881 0.61527 0.79490
 O624 O 0.35755 0.58645 0.77502
 Zr625 Zr 0.35627 0.62180 0.81215
 O626 O 0.39428 0.59543 0.83288
 Zr627 Zr 0.31101 0.61386 0.87799
 O628 O 0.34667 0.58592 0.90111
 Zr629 Zr 0.35961 0.67732 0.87050
 O630 O 0.39707 0.65258 0.89443
 Zr631 Zr 0.37586 0.56250 0.86673
 O632 O 0.33705 0.58641 0.84344
 Zr633 Zr 0.42390 0.62637 0.86020
 O634 O 0.38834 0.65358 0.83583
 Zr635 Zr 0.37825 0.61705 0.92581
 O636 O 0.34059 0.64506 0.90524
 O637 O 0.32834 0.64756 0.84483
 O638 O 0.40705 0.59190 0.89308
 C639 C 0.35015 0.69557 0.79773
 C640 C 0.28171 0.60998 0.80923
 C641 C 0.28606 0.68505 0.88333
 C642 C 0.38831 0.54300 0.93831
 C643 C 0.44986 0.55606 0.85508
 C644 C 0.45280 0.62492 0.92973
 H645 H 0.40631 0.58407 0.81560
 H646 H 0.41061 0.66830 0.90630
 H647 H 0.31119 0.65976 0.83360
 H648 H 0.33613 0.57022 0.91578
 H649 H 0.32497 0.52774 0.85707
 H650 H 0.28979 0.55604 0.88824
 H651 H 0.45169 0.68116 0.87368
 H652 H 0.40788 0.71157 0.85109
 H653 H 0.36079 0.53392 0.81328
 H654 H 0.34060 0.57027 0.77982
 H655 H 0.38708 0.67127 0.95563
 H656 H 0.34953 0.70188 0.92705
 H657 H 0.40310 0.64110 0.77598
 H658 H 0.44722 0.61699 0.80254
 H659 H 0.29107 0.62674 0.93604
 H660 H 0.33427 0.59528 0.96494
 O661 O 0.13296 0.66077 0.70077
 O662 O 0.09349 0.61988 0.70212
 O663 O 0.21147 0.61012 0.65231
 O664 O 0.22126 0.58759 0.60555
 O665 O 0.18636 0.70800 0.62509
 O666 O 0.14481 0.73069 0.59285
 O667 O 0.11590 0.56038 0.55070
 O668 O 0.15216 0.53778 0.58905
 O669 O 0.04138 0.60170 0.60202
 O670 O 0.03529 0.64289 0.64111
 O671 O 0.09117 0.65295 0.52545
 O672 O 0.14002 0.68287 0.52233
 O673 O 0.12622 0.60422 0.51909
 O674 O 0.17197 0.64588 0.52053
 O675 O 0.05037 0.64798 0.56191
 O676 O 0.04586 0.68309 0.61480
 O677 O 0.07399 0.55799 0.59629
 O678 O 0.11642 0.53555 0.62831
 O679 O 0.13954 0.70607 0.67020
 O680 O 0.10719 0.72804 0.62636
 O681 O 0.21915 0.66450 0.61839
 O682 O 0.22018 0.62660 0.57113
 O683 O 0.17324 0.61164 0.69188
 O684 O 0.12297 0.57996 0.69340
 Zr685 Zr 0.13028 0.62304 0.66676
 O686 O 0.09656 0.60401 0.63382
 Zr687 Zr 0.18755 0.62549 0.61066
 O688 O 0.15698 0.60470 0.57575
 Zr689 Zr 0.13946 0.68886 0.62178
 O690 O 0.10747 0.67178 0.58578
 Zr691 Zr 0.12095 0.57702 0.59842
 O692 O 0.15466 0.59357 0.63313
 Zr693 Zr 0.07354 0.64079 0.60728
 O694 O 0.10379 0.66021 0.64408
 Zr695 Zr 0.13220 0.64226 0.55254
 O696 O 0.16492 0.66337 0.58566
 O697 O 0.16468 0.65304 0.64606
 O698 O 0.09662 0.61262 0.57266
 C699 C 0.13631 0.69145 0.69763
 C700 C 0.20231 0.60719 0.68181
 C701 C 0.21429 0.69476 0.62303
 C702 C 0.11922 0.57423 0.52301
 C703 C 0.04613 0.57121 0.59881
 C704 C 0.06127 0.65232 0.53290
 H705 H 0.08095 0.59088 0.64630
 H706 H 0.09699 0.69022 0.57488
 H707 H 0.17968 0.66196 0.66244
 H708 H 0.16959 0.59143 0.56039
 H709 H 0.16980 0.53922 0.60512
 H710 H 0.21115 0.57084 0.59179
 H711 H 0.04748 0.69665 0.59512
 H712 H 0.08902 0.72027 0.63986
 H713 H 0.10188 0.54102 0.64650
 H714 H 0.13813 0.56375 0.68454
 H715 H 0.12842 0.70133 0.53206
 H716 H 0.15826 0.72435 0.57407
 H717 H 0.07786 0.63716 0.69698
 H718 H 0.03983 0.62656 0.65798
 H719 H 0.21896 0.64844 0.56140
 H720 H 0.18165 0.62415 0.51838
 O721 O 0.14070 0.18169 0.19399
 O722 O 0.10287 0.14582 0.21468
 O723 O 0.21865 0.11830 0.16470
 O724 O 0.22408 0.07512 0.13373
 O725 O 0.18911 0.19383 0.10314
 O726 O 0.14641 0.20157 0.06657
 O727 O 0.12284 0.02660 0.10113
 O728 O 0.15651 0.02499 0.14631
 O729 O 0.04506 0.08709 0.12783
 O730 O 0.03897 0.13726 0.15207
 O731 O 0.09052 0.10335 0.03964
 O732 O 0.13848 0.12689 0.02149
 O733 O 0.12318 0.05510 0.05411
 O734 O 0.17067 0.09205 0.03451
 O735 O 0.05246 0.12108 0.07507
 O736 O 0.04984 0.16879 0.11582
 O737 O 0.07740 0.04379 0.13698
 O738 O 0.11336 0.04000 0.18016
 O739 O 0.14412 0.21044 0.14715
 O740 O 0.10981 0.21229 0.09899
 O741 O 0.22223 0.15086 0.11106
 O742 O 0.22156 0.09589 0.08562
 O743 O 0.18201 0.13208 0.20339
 O744 O 0.12946 0.10542 0.22115
 Zr745 Zr 0.13692 0.13326 0.17874
 O746 O 0.10163 0.10260 0.15811
 Zr747 Zr 0.19103 0.11245 0.12327
 O748 O 0.15911 0.07909 0.10206
 Zr749 Zr 0.14264 0.17490 0.11011
 O750 O 0.10953 0.14474 0.08593
 Zr751 Zr 0.12450 0.06333 0.13589
 O752 O 0.15996 0.09251 0.15892
 Zr753 Zr 0.07705 0.12582 0.12000
 O754 O 0.10873 0.15818 0.14422
 Zr755 Zr 0.13269 0.10366 0.06678
 O756 O 0.16654 0.13671 0.08617
 O757 O 0.16955 0.15210 0.14559
 O758 O 0.09854 0.08559 0.09893
 C759 C 0.14258 0.20848 0.17827
 C760 C 0.21094 0.12583 0.19368
 C761 C 0.21710 0.18070 0.10427
 C762 C 0.12088 0.02849 0.07025
 C763 C 0.04954 0.05688 0.13326
 C764 C 0.06180 0.11173 0.04674
 H765 H 0.08654 0.09501 0.17508
 H766 H 0.09872 0.15758 0.06894
 H767 H 0.18513 0.16707 0.15585
 H768 H 0.17139 0.06074 0.09299
 H769 H 0.17201 0.03315 0.16261
 H770 H 0.21226 0.05449 0.13125
 H771 H 0.05300 0.17721 0.09359
 H772 H 0.09369 0.21275 0.11669
 H773 H 0.12912 0.04780 0.19629
 H774 H 0.14797 0.09054 0.22334
 H775 H 0.12939 0.14885 0.02374
 H776 H 0.15862 0.18789 0.05119
 H777 H 0.08574 0.15807 0.20346
 H778 H 0.04637 0.13183 0.17416
 H779 H 0.21926 0.11113 0.06728
 H780 H 0.17816 0.06995 0.03963
 O781 O 0.71019 0.37969 0.84459
 O782 O 0.70607 0.42304 0.88172
 O783 O 0.67518 0.29901 0.89590
 O784 O 0.63120 0.28558 0.92447
 O785 O 0.63997 0.31528 0.80028
 O786 O 0.60331 0.35262 0.77709
 O787 O 0.56321 0.38043 0.94875
 O788 O 0.60661 0.35218 0.97096
 O789 O 0.60174 0.46133 0.90245
 O790 O 0.64200 0.46967 0.85943
 O791 O 0.53261 0.40189 0.85575
 O792 O 0.53529 0.35054 0.82656
 O793 O 0.53180 0.36714 0.90565
 O794 O 0.53621 0.32121 0.86558
 O795 O 0.56444 0.44667 0.85573
 O796 O 0.61386 0.45781 0.82180
 O797 O 0.59959 0.42956 0.94737
 O798 O 0.64009 0.39348 0.97017
 O799 O 0.67985 0.36938 0.79979
 O800 O 0.63212 0.39339 0.77679
 O801 O 0.63778 0.28379 0.84544
 O802 O 0.59564 0.27802 0.88600
 O803 O 0.70772 0.34337 0.89546
 O804 O 0.70313 0.39427 0.92414
 Zr805 Zr 0.67677 0.38114 0.88230
 O806 O 0.64075 0.41107 0.90142
 Zr807 Zr 0.62942 0.31645 0.88364
 O808 O 0.59145 0.34326 0.90409
 Zr809 Zr 0.63232 0.36289 0.81787
 O810 O 0.59353 0.39131 0.83497
 Zr811 Zr 0.60985 0.38288 0.93010
 O812 O 0.64797 0.35333 0.91368
 Zr813 Zr 0.61134 0.42897 0.86414
 O814 O 0.65040 0.40252 0.84435
 Zr815 Zr 0.56435 0.36398 0.86651
 O816 O 0.60059 0.33442 0.84588
 O817 O 0.66039 0.34273 0.85402
 O818 O 0.58065 0.40280 0.89429
 C819 C 0.70681 0.37569 0.81406
 C820 C 0.70271 0.31299 0.89900
 C821 C 0.64044 0.28758 0.81468
 C822 C 0.53593 0.37394 0.93573
 C823 C 0.59814 0.45711 0.93310
 C824 C 0.53688 0.43252 0.85352
 H825 H 0.65110 0.42870 0.91380
 H826 H 0.58106 0.39968 0.81643
 H827 H 0.67791 0.32933 0.84488
 H828 H 0.57827 0.32914 0.91821
 H829 H 0.62506 0.33710 0.96969
 H830 H 0.61479 0.29323 0.94006
 H831 H 0.59811 0.44925 0.80600
 H832 H 0.64149 0.41426 0.78386
 H833 H 0.65374 0.41229 0.96454
 H834 H 0.69597 0.37967 0.94176
 H835 H 0.54092 0.36487 0.80822
 H836 H 0.58580 0.33828 0.78487
 H837 H 0.69898 0.43611 0.86296
 H838 H 0.65631 0.47012 0.87857
 H839 H 0.58242 0.27915 0.86608
 H840 H 0.53762 0.31096 0.88719
 O841 O 0.14022 0.84358 0.78394
 O842 O 0.10394 0.88392 0.77194
 O843 O 0.21130 0.89402 0.84201
 O844 O 0.21341 0.92065 0.88785
 O845 O 0.17638 0.79994 0.87137
 O846 O 0.12918 0.78152 0.89680
 O847 O 0.10382 0.95778 0.91879
 O848 O 0.14444 0.97514 0.88449
 O849 O 0.03441 0.91222 0.86399
 O850 O 0.03418 0.87006 0.82312
 O851 O 0.06736 0.86739 0.94759
 O852 O 0.11148 0.83799 0.96349
 O853 O 0.10495 0.91699 0.95577
 O854 O 0.14723 0.87187 0.96604
 O855 O 0.03474 0.86517 0.90348
 O856 O 0.03782 0.83091 0.85186
 O857 O 0.06709 0.95550 0.87282
 O858 O 0.11574 0.97232 0.83927
 O859 O 0.13758 0.80044 0.81808
 O860 O 0.09729 0.78326 0.85826
 O861 O 0.20941 0.84283 0.88096
 O862 O 0.20393 0.88548 0.92431
 O863 O 0.18022 0.89328 0.79662
 O864 O 0.13128 0.92483 0.78356
 Zr865 Zr 0.13294 0.88371 0.81396
 O866 O 0.09436 0.90629 0.83835
 Zr867 Zr 0.17915 0.88366 0.87951
 O868 O 0.14388 0.90884 0.90602
 Zr869 Zr 0.13079 0.82133 0.86475
 O870 O 0.09402 0.84263 0.89309
 Zr871 Zr 0.11372 0.93539 0.87494
 O872 O 0.15257 0.91477 0.84905
 Zr873 Zr 0.06578 0.87226 0.86326
 O874 O 0.10120 0.84913 0.83426
 Zr875 Zr 0.11337 0.87465 0.92784
 O876 O 0.15027 0.84911 0.90305
 O877 O 0.16164 0.85421 0.84261
 O878 O 0.08354 0.90293 0.89901
 C879 C 0.14036 0.81312 0.78961
 C880 C 0.20743 0.89662 0.81136
 C881 C 0.20409 0.81238 0.87776
 C882 C 0.10188 0.94693 0.94769
 C883 C 0.03916 0.94256 0.86879
 C884 C 0.03962 0.86427 0.93428
 H885 H 0.08139 0.91894 0.82285
 H886 H 0.08111 0.82538 0.90348
 H887 H 0.17888 0.84357 0.82993
 H888 H 0.15455 0.92308 0.92202
 H889 H 0.16448 0.97145 0.87199
 H890 H 0.20133 0.93979 0.89537
 H891 H 0.03914 0.81581 0.87039
 H892 H 0.08321 0.78958 0.84001
 H893 H 0.09734 0.96959 0.82431
 H894 H 0.14508 0.94154 0.79373
 H895 H 0.10587 0.81766 0.95219
 H896 H 0.13868 0.78908 0.91746
 H897 H 0.08518 0.86992 0.77687
 H898 H 0.04071 0.88722 0.80777
 H899 H 0.20055 0.86440 0.93517
 H900 H 0.15707 0.89352 0.96871
 O901 O 0.72413 0.11092 0.65975
 O902 O 0.72810 0.07535 0.61509
 O903 O 0.70215 0.20090 0.61560
 O904 O 0.66498 0.22156 0.58212
 O905 O 0.64639 0.17158 0.69808
 O906 O 0.60496 0.13119 0.70533
 O907 O 0.60646 0.13665 0.52597
 O908 O 0.65362 0.16741 0.52215
 O909 O 0.62759 0.04860 0.56337
 O910 O 0.66386 0.03076 0.61238
 O911 O 0.55406 0.09765 0.60733
 O912 O 0.54849 0.14318 0.64141
 O913 O 0.56556 0.14068 0.56251
 O914 O 0.55990 0.17953 0.61136
 O915 O 0.58502 0.05254 0.60948
 O916 O 0.62532 0.03256 0.64260
 O917 O 0.64033 0.08776 0.52676
 O918 O 0.68530 0.12416 0.52164
 O919 O 0.68556 0.11834 0.69832
 O920 O 0.63420 0.09033 0.70539
 O921 O 0.65567 0.20942 0.65917
 O922 O 0.62270 0.22384 0.61385
 O923 O 0.73384 0.15612 0.61710
 O924 O 0.73580 0.11126 0.57974
 Zr925 Zr 0.70035 0.11812 0.61596
 O926 O 0.66958 0.09402 0.58370
 Zr927 Zr 0.65464 0.18403 0.61546
 O928 O 0.62202 0.16303 0.58284
 Zr929 Zr 0.64284 0.12747 0.67126
 O930 O 0.60916 0.10361 0.64084
 Zr931 Zr 0.64652 0.12871 0.55495
 O932 O 0.68000 0.15255 0.58464
 Zr933 Zr 0.63248 0.07094 0.60953
 O934 O 0.66577 0.09189 0.64269
 Zr935 Zr 0.58726 0.13648 0.60881
 O936 O 0.61793 0.16092 0.64208
 O937 O 0.67829 0.15207 0.64602
 O938 O 0.60964 0.10323 0.57858
 C939 C 0.71474 0.11224 0.68925
 C940 C 0.72967 0.18679 0.61677
 C941 C 0.65115 0.20103 0.68867
 C942 C 0.57682 0.14029 0.53332
 C943 C 0.63216 0.05899 0.53421
 C944 C 0.55756 0.06678 0.60842
 H945 H 0.68213 0.07844 0.57069
 H946 H 0.59308 0.09252 0.65466
 H947 H 0.69349 0.16318 0.66079
 H948 H 0.61231 0.17996 0.56912
 H949 H 0.67227 0.18009 0.53013
 H950 H 0.65145 0.21806 0.56272
 H951 H 0.61592 0.04213 0.66243
 H952 H 0.64746 0.07166 0.69855
 H953 H 0.69723 0.10413 0.52663
 H954 H 0.73322 0.12902 0.56389
 H955 H 0.55281 0.12947 0.66054
 H956 H 0.59063 0.14855 0.69739
 H957 H 0.71638 0.05929 0.62846
 H958 H 0.67538 0.02886 0.59145
 H959 H 0.60489 0.21906 0.62911
 H960 H 0.56483 0.19255 0.59185
 C961 C 0.35996 0.80494 0.74899
 C962 C 0.35336 0.77322 0.74729
 C963 C 0.35259 0.75185 0.77603
 C964 C 0.34731 0.72013 0.77196
 H965 H 0.34952 0.76220 0.72374
 H966 H 0.35793 0.76157 0.79982
 H967 H 0.36337 0.81629 0.77242
 H968 H 0.34255 0.71114 0.74772
 C969 C 0.35606 0.23155 0.29163
 C970 C 0.35765 0.22955 0.25924
 C971 C 0.35684 0.25964 0.23945
 C972 C 0.35844 0.25921 0.20699
 H973 H 0.36023 0.20623 0.24754
 H974 H 0.35563 0.28271 0.25188
 H975 H 0.35349 0.25535 0.30240
 H976 H 0.35969 0.23611 0.19464
 C977 C 0.63647 0.76950 0.27695
 C978 C 0.64099 0.77144 0.24502
 C979 C 0.64232 0.74098 0.22615
 C980 C 0.64564 0.74068 0.19401
 H981 H 0.64302 0.79471 0.23313
 H982 H 0.63920 0.71822 0.23884
 H983 H 0.63477 0.74561 0.28773
 H984 H 0.64822 0.76342 0.18119
 C985 C 0.13955 0.26789 0.28146
 C986 C 0.14001 0.26973 0.24900
 C987 C 0.14192 0.23950 0.22964
 C988 C 0.14283 0.23915 0.19710
 H989 H 0.13830 0.29293 0.23696
 H990 H 0.14195 0.21672 0.24262
 H991 H 0.14141 0.24421 0.29261
 H992 H 0.14300 0.26182 0.18395
 C993 C 0.13654 0.71039 0.72810
 C994 C 0.14147 0.74233 0.72926
 C995 C 0.14012 0.76030 0.76035
 C996 C 0.14407 0.79239 0.76064
 H997 H 0.14598 0.75553 0.70701
 H998 H 0.13487 0.74751 0.78267
 H999 H 0.13223 0.69741 0.75053
 H1000 H 0.14879 0.80463 0.73786
 C1001 C 0.85776 0.21669 0.77962
 C1002 C 0.86014 0.24895 0.78185
 C1003 C 0.86239 0.26895 0.75217
 C1004 C 0.86608 0.30116 0.75338
 H1005 H 0.86152 0.26049 0.80540
 H1006 H 0.86162 0.25689 0.72885
 H1007 H 0.85695 0.20565 0.75578
 H1008 H 0.86665 0.31319 0.77673
 C1009 C 0.77121 0.40224 0.71802
 C1010 C 0.76927 0.39100 0.74819
 C1011 C 0.73794 0.38827 0.76478
 C1012 C 0.73672 0.37776 0.79522
 H1013 H 0.79070 0.38198 0.76012
 H1014 H 0.71600 0.39506 0.75232
 H1015 H 0.74945 0.41003 0.70583
 H1016 H 0.75902 0.37256 0.80784
 C1017 C 0.25249 0.60664 0.78935
 C1018 C 0.25401 0.60217 0.75738
 C1019 C 0.22499 0.60318 0.73697
 C1020 C 0.22803 0.59978 0.70498
 H1021 H 0.27729 0.59929 0.74576
 H1022 H 0.20189 0.60919 0.74765
 H1023 H 0.22923 0.60871 0.80115
 H1024 H 0.25158 0.59438 0.69491
 C1025 C 0.26482 0.11423 0.29807
 C1026 C 0.26547 0.12403 0.26742
 C1027 C 0.23603 0.12331 0.24763
 C1028 C 0.23822 0.12850 0.21596
 H1029 H 0.28775 0.13296 0.25691
 H1030 H 0.21298 0.11743 0.25857
 H1031 H 0.24229 0.10570 0.30840
 H1032 H 0.26177 0.13262 0.20526
 C1033 C 0.76299 0.10677 0.79831
 C1034 C 0.76569 0.10770 0.76615
 C1035 C 0.73690 0.10858 0.74515
 C1036 C 0.74068 0.10780 0.71311
 H1037 H 0.78939 0.10917 0.75514
 H1038 H 0.71310 0.11107 0.75570
 H1039 H 0.73919 0.10513 0.80909
 H1040 H 0.76482 0.10494 0.70340
 C1041 C 0.73152 0.88479 0.28995
 C1042 C 0.73161 0.88675 0.25760
 C1043 C 0.76249 0.88758 0.23950
 C1044 C 0.76306 0.89017 0.20719
 H1045 H 0.70904 0.88686 0.24443
 H1046 H 0.78488 0.88468 0.25266
 H1047 H 0.75440 0.88514 0.30260
 H1048 H 0.74046 0.89284 0.19434
 C1049 C 0.75052 0.69946 0.37099
 C1050 C 0.75310 0.73102 0.37681
 C1051 C 0.72449 0.75141 0.37799
 C1052 C 0.72726 0.78285 0.38439
 H1053 H 0.77653 0.74194 0.38091
 H1054 H 0.70116 0.74080 0.37265
 H1055 H 0.72698 0.68846 0.36794
 H1056 H 0.75077 0.79325 0.38928
 C1057 C 0.77825 0.29098 0.63452
 C1058 C 0.78288 0.25952 0.63011
 C1059 C 0.75505 0.23865 0.62551
 C1060 C 0.75825 0.20724 0.61948
 H1061 H 0.80694 0.24941 0.62915
 H1062 H 0.73130 0.24936 0.62750
 H1063 H 0.75405 0.30084 0.63435
 H1064 H 0.78193 0.19633 0.61808
 C1065 C 0.73774 0.70458 0.09246
 C1066 C 0.73717 0.73626 0.09870
 C1067 C 0.76700 0.75512 0.10283
 C1068 C 0.76531 0.78648 0.11027
 H1069 H 0.71433 0.74821 0.10300
 H1070 H 0.79017 0.74331 0.10052
 H1071 H 0.76065 0.69252 0.08902
 H1072 H 0.74192 0.79804 0.11163
 C1073 C 0.26823 0.28637 0.09546
 C1074 C 0.27153 0.25425 0.09529
 C1075 C 0.24299 0.23321 0.09431
 C1076 C 0.24554 0.20139 0.09919
 H1077 H 0.29508 0.24343 0.09840
 H1078 H 0.21944 0.24423 0.09203
 H1079 H 0.24446 0.29687 0.09292
 H1080 H 0.26916 0.19059 0.10181
 C1081 C 0.25765 0.70633 0.88619
 C1082 C 0.25946 0.73852 0.88319
 C1083 C 0.23014 0.75869 0.88224
 C1084 C 0.23233 0.79094 0.88063
 H1085 H 0.28273 0.75013 0.88025
 H1086 H 0.20670 0.74705 0.88227
 H1087 H 0.23425 0.69498 0.88916
 H1088 H 0.25592 0.80225 0.88139
 C1089 C 0.25800 0.20986 0.39755
 C1090 C 0.25967 0.24197 0.39762
 C1091 C 0.23026 0.26111 0.39610
 C1092 C 0.23194 0.29306 0.39302
 H1093 H 0.28281 0.25420 0.39712
 H1094 H 0.20713 0.24882 0.39598
 H1095 H 0.23472 0.19788 0.39790
 H1096 H 0.25517 0.30513 0.39322
 C1097 C 0.51009 0.62671 1.03345
 C1098 C 0.51117 0.62486 1.00115
 C1099 C 0.48128 0.62495 0.98204
 C1100 C 0.48215 0.62590 0.94969
 H1101 H 0.53415 0.62334 0.98871
 H1102 H 0.45834 0.62414 0.99463
 H1103 H 0.48698 0.62894 1.04552
 H1104 H 0.50521 0.62718 0.93736
 C1105 C 0.47016 0.14490 0.48614
 C1106 C 0.50175 0.14568 0.48127
 C1107 C 0.52322 0.14627 0.50948
 C1108 C 0.55484 0.14353 0.50576
 H1109 H 0.51160 0.14426 0.45695
 H1110 H 0.51291 0.14735 0.53364
 H1111 H 0.46100 0.14583 0.51078
 H1112 H 0.56496 0.14221 0.48153
 C1113 C 0.50950 0.85593 0.46122
 C1114 C 0.51379 0.85312 0.49327
 C1115 C 0.48625 0.85299 0.51550
 C1116 C 0.49042 0.85412 0.54767
 H1117 H 0.53785 0.85249 0.50341
 H1118 H 0.46225 0.85400 0.50523
 H1119 H 0.48536 0.85655 0.45127
 H1120 H 0.51450 0.85364 0.55777
 C1121 C 1.01215 0.35794 0.46561
 C1122 C 1.01697 0.35811 0.49769
 C1123 C 0.98969 0.35747 0.52026
 C1124 C 0.99400 0.36025 0.55231
 H1125 H 1.04113 0.36004 0.50747
 H1126 H 0.96558 0.35635 0.51024
 H1127 H 0.98791 0.35587 0.45606
 H1128 H 1.01814 0.36157 0.56221
 C1129 C -0.01335 0.85455 1.04130
 C1130 C -0.01547 0.85567 1.00875
 C1131 C 0.01357 0.85751 0.98801
 C1132 C 0.01124 0.85985 0.95561
 H1133 H -0.03884 0.85660 0.99710
 H1134 H 0.03703 0.85797 0.99949
 H1135 H 0.01030 0.85368 1.05241
 H1136 H -0.01233 0.85922 0.94437
 C1137 C -0.03209 0.14870 -0.01411
 C1138 C -0.00593 0.13033 -0.01229
 C1139 C 0.01419 0.13073 0.01707
 C1140 C 0.03899 0.11061 0.01966
 H1141 H -0.00053 0.11344 -0.03168
 H1142 H 0.00905 0.14778 0.03637
 H1143 H -0.03852 0.16394 0.00629
 H1144 H 0.04462 0.09460 -0.00039
 C1145 C 0.11607 0.99964 1.05334
 C1146 C 0.10901 0.99948 1.02182
 C1147 C 0.10637 0.96953 1.00285
 C1148 C 0.09675 0.97190 0.97220
 H1149 H 0.10577 1.02224 1.00915
 H1150 H 0.11507 0.94683 1.01255
 H1151 H 0.11752 0.97690 1.06633
 H1152 H 0.08883 0.99524 0.96324
 C1153 C 0.09512 0.47158 0.47147
 C1154 C 0.10248 0.50272 0.46723
 C1155 C 0.10324 0.52432 0.49549
 C1156 C 0.11502 0.55435 0.49371
 H1157 H 0.11030 0.51155 0.44375
 H1158 H 0.09551 0.51474 0.51872
 H1159 H 0.08856 0.46306 0.49547
 H1160 H 0.12236 0.56422 0.47051
 C1161 C 0.39124 0.48985 1.04573
 C1162 C 0.39392 0.48868 1.01341
 C1163 C 0.39267 0.51823 0.99321
 C1164 C 0.39332 0.51575 0.96087
 H1165 H 0.39562 0.46542 1.00141
 H1166 H 0.38965 0.54164 1.00463
 H1167 H 0.38943 0.51315 1.05763
 H1168 H 0.39591 0.49196 0.95010
 C1169 C 0.88022 0.53762 0.49123
 C1170 C 0.89103 0.50734 0.49068
 C1171 C 0.89416 0.48944 0.52117
 C1172 C 0.90134 0.45807 0.52136
 H1173 H 0.89669 0.49557 0.46788
 H1174 H 0.88859 0.50173 0.54372
 H1175 H 0.87489 0.54900 0.51432
 H1176 H 0.90601 0.44563 0.49869
 C1177 C 0.89375 1.04096 -0.00367
 C1178 C 0.90037 1.00964 -0.00701
 C1179 C 0.90197 0.98878 0.02167
 C1180 C 0.90367 0.95677 0.01850
 H1181 H 0.90264 0.99899 -0.03093
 H1182 H 0.89915 0.99955 0.04548
 H1183 H 0.89143 1.05123 0.02042
 H1184 H 0.90578 0.94618 -0.00546
 C1185 C 0.59700 -0.03898 0.47875
 C1186 C 0.60902 -0.00929 0.47783
 C1187 C 0.61159 0.01006 0.50747
 C1188 C 0.62815 0.03749 0.50648
 H1189 H 0.61958 -0.00019 0.45553
 H1190 H 0.60071 0.00176 0.52991
 H1191 H 0.58788 -0.04860 0.50145
 H1192 H 0.63829 0.04553 0.48358
 C1193 C 0.48479 1.04504 0.38151
 C1194 C 0.48294 1.01275 0.37770
 C1195 C 0.51213 0.99207 0.37597
 C1196 C 0.50983 0.95995 0.37118
 H1197 H 0.45953 1.00122 0.37593
 H1198 H 0.53560 1.00319 0.37911
 H1199 H 0.50828 1.05647 0.38282
 H1200 H 0.48617 0.94923 0.36809
 C1201 C -0.00885 -0.04741 0.13334
 C1202 C -0.00934 -0.01504 0.13301
 C1203 C 0.02087 0.00404 0.13484
 C1204 C 0.02026 0.03641 0.13429
 H1205 H -0.03213 -0.00245 0.13107
 H1206 H 0.04374 -0.00850 0.13572
 H1207 H 0.01408 -0.05967 0.13564
 H1208 H -0.00281 0.04855 0.13293
 C1209 C 0.50935 0.54654 0.14118
 C1210 C 0.50993 0.51436 0.14451
 C1211 C 0.47991 0.49500 0.14546
 C1212 C 0.48124 0.46276 0.14780
 H1213 H 0.53285 0.50188 0.14516
 H1214 H 0.45690 0.50697 0.14254
 H1215 H 0.48634 0.55887 0.14067
 H1216 H 0.50455 0.45129 0.15036
 C1217 C -0.00665 0.46910 0.62545
 C1218 C -0.00912 0.49879 0.61287
 C1219 C 0.01977 0.51898 0.60825
 C1220 C 0.01757 0.55005 0.59960
 H1221 H -0.03246 0.50837 0.60619
 H1222 H 0.04315 0.50861 0.61350
 H1223 H 0.01689 0.45986 0.63196
 H1224 H -0.00591 0.56080 0.59586
 C1225 C 0.47873 0.53565 0.85150
 C1226 C 0.47785 0.50336 0.85063
 C1227 C 0.50806 0.48459 0.85010
 C1228 C 0.50762 0.45229 0.84947
 H1229 H 0.45494 0.49073 0.85145
 H1230 H 0.53085 0.49737 0.85178
 H1231 H 0.50187 0.54785 0.85036
 H1232 H 0.48468 0.43976 0.84798
 C1233 C 0.59467 0.51407 1.03731
 C1234 C 0.59252 0.51516 1.00488
 C1235 C 0.59193 0.48522 0.98550
 C1236 C 0.59325 0.48627 0.95309
 H1237 H 0.59327 0.53816 0.99227
 H1238 H 0.59258 0.46215 0.99795
 H1239 H 0.59382 0.49076 1.04932
 H1240 H 0.59292 0.50948 0.94089
 C1241 C 0.39753 1.03721 0.48826
 C1242 C 0.40343 1.00576 0.48494
 C1243 C 0.40735 0.98655 0.51454
 C1244 C 0.40596 0.95445 0.51418
 H1245 H 0.40332 0.99420 0.46134
 H1246 H 0.40842 0.99918 0.53758
 H1247 H 0.39743 1.04747 0.51252
 H1248 H 0.40455 0.94166 0.49127
 C1249 C -0.04443 0.64198 0.48070
 C1250 C -0.01288 0.64748 0.47794
 C1251 C 0.00736 0.64925 0.50741
 C1252 C 0.03884 0.65550 0.50534
 H1253 H -0.00192 0.64971 0.45418
 H1254 H -0.00329 0.64375 0.53079
 H1255 H -0.05482 0.64038 0.50480
 H1256 H 0.04921 0.66055 0.48173
 C1257 C 0.48503 0.38017 1.04198
 C1258 C 0.48183 0.37926 1.00978
 C1259 C 0.51021 0.37872 0.98877
 C1260 C 0.50744 0.37440 0.95679
 H1261 H 0.45814 0.37834 0.99877
 H1262 H 0.53374 0.38163 0.99980
 H1263 H 0.50881 0.38008 1.05282
 H1264 H 0.48390 0.37093 0.94597
 C1265 C 0.49668 -0.03537 0.62421
 C1266 C 0.49682 -0.00386 0.61626
 C1267 C 0.52741 0.01489 0.61470
 C1268 C 0.52769 0.04686 0.60888
 H1269 H 0.47431 0.00827 0.61107
 H1270 H 0.54992 0.00241 0.61897
 H1271 H 0.51942 -0.04705 0.62950
 H1272 H 0.50499 0.05922 0.60531
 C1273 C -0.02330 0.53587 0.38618
 C1274 C -0.02464 0.50403 0.38046
 C1275 C 0.00501 0.48463 0.37846
 C1276 C 0.00402 0.45307 0.37125
 H1277 H -0.04768 0.49229 0.37644
 H1278 H 0.02793 0.49636 0.38315
 H1279 H -0.00006 0.54752 0.38922
 H1280 H -0.01903 0.44143 0.36701
 C1281 C -0.01805 1.04610 0.88515
 C1282 C -0.01887 1.01380 0.88177
 C1283 C 0.01113 0.99484 0.87790
 C1284 C 0.01015 0.96323 0.87072
 H1285 H -0.04178 1.00114 0.88121
 H1286 H 0.03414 1.00683 0.88128
 H1287 H 0.00516 1.05822 0.88452
 H1288 H -0.01305 0.95163 0.86729
 C1289 C 0.76279 0.59470 0.28059
 C1290 C 0.76479 0.60495 0.24995
 C1291 C 0.73534 0.60788 0.23005
 C1292 C 0.73691 0.61599 0.19877
 H1293 H 0.78768 0.61313 0.24021
 H1294 H 0.71204 0.60356 0.24120
 H1295 H 0.73947 0.58739 0.29002
 H1296 H 0.76029 0.61874 0.18733
 C1297 C 0.27007 0.91292 0.71169
 C1298 C 0.26901 0.90913 0.74374
 C1299 C 0.23785 0.90781 0.76091
 C1300 C 0.23714 0.90247 0.79274
 H1301 H 0.29100 0.90438 0.75704
 H1302 H 0.21558 0.90948 0.74734
 H1303 H 0.24780 0.91699 0.69862
 H1304 H 0.25971 0.90123 0.80589
 C1305 C 0.22861 0.38474 0.28839
 C1306 C 0.22842 0.37680 0.25714
 C1307 C 0.25870 0.37628 0.23869
 C1308 C 0.25834 0.37177 0.20679
 H1309 H 0.20609 0.36996 0.24534
 H1310 H 0.28137 0.38004 0.25118
 H1311 H 0.25121 0.39142 0.29980
 H1312 H 0.23546 0.36938 0.19433
 C1313 C 0.85723 0.69987 0.26271
 C1314 C 0.85301 0.73188 0.26353
 C1315 C 0.85483 0.75143 0.23362
 C1316 C 0.85310 0.78365 0.23509
 H1317 H 0.84900 0.74394 0.28652
 H1318 H 0.85873 0.73951 0.21054
 H1319 H 0.86139 0.68810 0.23959
 H1320 H 0.84985 0.79517 0.25848
 C1321 C 0.64391 0.25752 0.79528
 C1322 C 0.64654 0.25732 0.76297
 C1323 C 0.64756 0.22681 0.74391
 C1324 C 0.65166 0.22843 0.71180
 H1325 H 0.64734 0.28017 0.75012
 H1326 H 0.64435 0.20365 0.75576
 H1327 H 0.64329 0.23465 0.80810
 H1328 H 0.65501 0.25215 0.70106
 C1329 C 0.75665 0.20970 0.89361
 C1330 C 0.75869 0.24119 0.90004
 C1331 C 0.72944 0.26074 0.90122
 C1332 C 0.73102 0.29273 0.90466
 H1333 H 0.78196 0.25272 0.90340
 H1334 H 0.70647 0.24898 0.89677
 H1335 H 0.73322 0.19831 0.89103
 H1336 H 0.75414 0.30445 0.90830
 C1337 C 0.26892 0.79889 0.63244
 C1338 C 0.27060 0.76673 0.63312
 C1339 C 0.24125 0.74712 0.63023
 C1340 C 0.24305 0.71512 0.62684
 H1341 H 0.29375 0.75478 0.63487
 H1342 H 0.21804 0.75907 0.63019
 H1343 H 0.24569 0.81053 0.62982
 H1344 H 0.26642 0.70348 0.62641
   
