data_POSCAR
  _audit_creation_date              2014-09-24
  _audit_creation_method            'ToBaCCo'
  _symmetry_space_group_name_H-M    'P1'
  _symmetry_Int_Tables_number       1
  _symmetry_cell_setting            triclinic
  loop_
  _symmetry_equiv_pos_as_xyz
 x,y,z
_cell_length_a 59.4594
_cell_length_b 58.7038
_cell_length_c 57.1850
_cell_angle_alpha 90.151200
_cell_angle_beta 89.815900
_cell_angle_gamma 90.270000
loop_
  _atom_site_label
  _atom_site_type_symbol
  _atom_site_fract_x
  _atom_site_fract_y
  _atom_site_fract_z
C1 C 0.41445 0.02869 0.27809
 H2 H 0.41724 0.03773 0.26187
 C3 C 0.42622 0.03510 0.29820
 H4 H 0.43826 0.04897 0.29741
 C5 C 0.39531 -0.00039 0.29898
 H6 H 0.38314 -0.01410 0.29927
 C7 C 0.40634 0.00572 0.31954
 H8 H 0.40295 -0.00383 0.33533
 N9 N 0.39967 0.01094 0.27875
 C10 C 0.39349 -0.01029 0.20613
 H11 H 0.37533 -0.01084 0.20506
 C12 C 0.40644 -0.01605 0.18668
 H13 H 0.39784 -0.02040 0.17066
 C14 C 0.42624 -0.00323 0.22855
 H15 H 0.43387 0.00135 0.24502
 C16 C 0.43989 -0.00892 0.20950
 H17 H 0.45800 -0.00823 0.21136
 Zn18 Zn 0.38378 0.00280 0.25142
 N19 N 0.40348 -0.00371 0.22639
 C20 C 0.36844 0.03943 0.22368
 N21 N 0.36496 0.02748 0.24371
 C22 C 0.34934 0.03414 0.25965
 C23 C 0.33643 0.05357 0.25581
 C24 C 0.35598 0.05899 0.21913
 C25 C 0.38037 -0.04293 0.26018
 C26 C 0.37062 -0.06441 0.26226
 C27 C 0.33406 -0.04728 0.25722
 C28 C 0.34464 -0.02601 0.25506
 N29 N 0.36740 -0.02432 0.25654
 H30 H 0.38139 0.03429 0.21152
 H31 H 0.34726 0.02457 0.27567
 H32 H 0.32452 0.05830 0.26921
 H33 H 0.35936 0.06841 0.20321
 H34 H 0.39846 -0.04107 0.26100
 H35 H 0.38145 -0.07899 0.26479
 H36 H 0.31600 -0.04804 0.25544
 H37 H 0.33469 -0.01103 0.25165
 C38 C 0.43004 -0.01545 0.18823
 C39 C 0.42202 0.02369 0.31926
 C40 C 0.34719 -0.06697 0.26060
 C41 C 0.33985 0.06658 0.23535
 C42 C 0.09137 0.02105 0.72380
 H43 H 0.09061 0.03061 0.73998
 C44 C 0.07800 0.02742 0.70492
 H45 H 0.06682 0.04185 0.70661
 C46 C 0.10673 -0.00957 0.70196
 H47 H 0.11798 -0.02395 0.70090
 C48 C 0.09411 -0.00341 0.68243
 H49 H 0.09541 -0.01342 0.66656
 N50 N 0.10493 0.00250 0.72220
 C51 C 0.11252 -0.01442 0.79589
 H52 H 0.13066 -0.01488 0.79718
 C53 C 0.09928 -0.01859 0.81566
 H54 H 0.10757 -0.02168 0.83212
 C55 C 0.08001 -0.00942 0.77266
 H56 H 0.07250 -0.00647 0.75579
 C57 C 0.06615 -0.01346 0.79196
 H58 H 0.04806 -0.01306 0.78979
 Zn59 Zn 0.12194 -0.00539 0.74885
 N60 N 0.10276 -0.00964 0.77501
 C61 C 0.13990 0.03295 0.77280
 N62 N 0.14241 0.01887 0.75407
 C63 C 0.15811 0.02318 0.73733
 C64 C 0.17208 0.04229 0.73902
 C65 C 0.15328 0.05247 0.77504
 C66 C 0.12297 -0.05179 0.74114
 C67 C 0.13184 -0.07367 0.73957
 C68 C 0.16909 -0.05763 0.74395
 C69 C 0.15941 -0.03597 0.74560
 N70 N 0.13673 -0.03350 0.74417
 H71 H 0.12699 0.02953 0.78567
 H72 H 0.15942 0.01198 0.72233
 H73 H 0.18426 0.04546 0.72526
 H74 H 0.15064 0.06314 0.79020
 H75 H 0.10496 -0.04936 0.74043
 H76 H 0.12039 -0.08796 0.73747
 H77 H 0.18712 -0.05888 0.74565
 H78 H 0.17002 -0.02128 0.74865
 C79 C 0.07570 -0.01820 0.81378
 C80 C 0.07940 0.01520 0.68392
 C81 C 0.15517 -0.07699 0.74113
 C82 C 0.16945 0.05766 0.75772
 C83 C 0.60862 0.52036 0.21360
 H84 H 0.60524 0.53263 0.22730
 C85 C 0.60034 0.52395 0.19102
 H86 H 0.59067 0.53912 0.18755
 C87 C 0.62637 0.48627 0.20137
 H88 H 0.63693 0.47187 0.20523
 C89 C 0.61863 0.48926 0.17865
 H90 H 0.62306 0.47688 0.16535
 N91 N 0.62120 0.50164 0.21835
 C92 C 0.61881 0.49130 0.29373
 H93 H 0.63669 0.49068 0.29711
 C94 C 0.60355 0.48690 0.31174
 H95 H 0.60999 0.48365 0.32906
 C96 C 0.58907 0.49646 0.26680
 H97 H 0.58354 0.49960 0.24913
 C98 C 0.57318 0.49219 0.28434
 H99 H 0.55544 0.49248 0.28011
 Zn100 Zn 0.63382 0.49777 0.24838
 N101 N 0.61141 0.49584 0.27178
 C102 C 0.64872 0.53783 0.27133
 N103 N 0.65325 0.52276 0.25388
 C104 C 0.67057 0.52628 0.23875
 C105 C 0.68421 0.54559 0.24088
 C106 C 0.66173 0.55754 0.27393
 C107 C 0.63517 0.45121 0.24863
 C108 C 0.64393 0.42930 0.24883
 C109 C 0.68134 0.44552 0.25028
 C110 C 0.67175 0.46726 0.25041
 N111 N 0.64904 0.46963 0.24921
 H112 H 0.63462 0.53493 0.28292
 H113 H 0.67350 0.51428 0.22468
 H114 H 0.69777 0.54810 0.22843
 H115 H 0.65751 0.56897 0.28808
 H116 H 0.61716 0.45361 0.24784
 H117 H 0.63240 0.41495 0.24824
 H118 H 0.69943 0.44426 0.25127
 H119 H 0.68246 0.48214 0.25136
 C120 C 0.58037 0.48686 0.30702
 C121 C 0.60539 0.50819 0.17323
 C122 C 0.66730 0.42609 0.24933
 C123 C 0.67964 0.56189 0.25830
 C124 C 0.89237 0.52835 0.79452
 H125 H 0.87871 0.54007 0.79193
 C126 C 0.90736 0.53229 0.81286
 H127 H 0.90451 0.54713 0.82363
 C128 C 0.91250 0.49562 0.78281
 H129 H 0.91473 0.48151 0.77093
 C130 C 0.92809 0.49906 0.80067
 H131 H 0.94186 0.48713 0.80235
 N132 N 0.89470 0.50985 0.78035
 C133 C 0.87049 0.49284 0.71048
 H134 H 0.85293 0.49022 0.71475
 C135 C 0.87814 0.48878 0.68781
 H136 H 0.86635 0.48314 0.67458
 C137 C 0.90716 0.50344 0.72265
 H138 H 0.91832 0.50941 0.73624
 C139 C 0.91562 0.49930 0.70017
 H140 H 0.93325 0.50242 0.69667
 Zn141 Zn 0.87218 0.50354 0.75743
 N142 N 0.88496 0.50001 0.72734
 C143 C 0.85040 0.54147 0.73771
 N144 N 0.85112 0.52781 0.75684
 C145 C 0.83788 0.53198 0.77580
 C146 C 0.82344 0.55067 0.77609
 C147 C 0.83627 0.56036 0.73724
 C148 C 0.87043 0.45644 0.76273
 C149 C 0.86079 0.43492 0.76512
 C150 C 0.82453 0.45266 0.77011
 C151 C 0.83497 0.47393 0.76765
 N152 N 0.85757 0.47546 0.76407
 H153 H 0.86122 0.53809 0.72291
 H154 H 0.83895 0.52108 0.79097
 H155 H 0.81335 0.55380 0.79157
 H156 H 0.83651 0.57065 0.72165
 H157 H 0.88811 0.45783 0.75875
 H158 H 0.87149 0.42009 0.76354
 H159 H 0.80652 0.45225 0.77248
 H160 H 0.82477 0.48907 0.76778
 C161 C 0.90097 0.49170 0.68249
 C162 C 0.92535 0.51716 0.81661
 C163 C 0.83750 0.43266 0.76855
 C164 C 0.82269 0.56548 0.75683
 C165 C 0.22860 0.42137 1.00770
 H166 H 0.24514 0.42903 1.00690
 C167 C 0.20965 0.43524 1.00968
 H168 H 0.21168 0.45358 1.01021
 C169 C 0.20568 0.38821 1.00832
 H170 H 0.20439 0.36982 1.00800
 C171 C 0.18634 0.40139 1.01012
 H172 H 0.17018 0.39293 1.01152
 N173 N 0.22622 0.39833 1.00667
 C174 C 0.28208 0.40813 0.98371
 H175 H 0.26979 0.40808 0.96980
 C176 C 0.30230 0.41986 0.98088
 H177 H 0.30555 0.42890 0.96471
 C178 C 0.29313 0.39553 1.02132
 H179 H 0.28966 0.38553 1.03676
 C180 C 0.31350 0.40740 1.01937
 H181 H 0.32566 0.40628 1.03335
 Zn182 Zn 0.25119 0.37889 1.00370
 N183 N 0.27798 0.39610 1.00355
 C184 C 0.23323 0.36834 0.95939
 N185 N 0.24995 0.36334 0.97466
 C186 C 0.26712 0.34932 0.96845
 C187 C 0.26791 0.33965 0.94607
 C188 C 0.23338 0.35919 0.93690
 C189 C 0.24716 0.36805 1.05072
 C190 C 0.24398 0.35433 1.07034
 C191 C 0.24733 0.32119 1.04544
 C192 C 0.25013 0.33561 1.02624
 N193 N 0.25003 0.35859 1.02923
 H194 H 0.22010 0.38006 0.96427
 H195 H 0.28056 0.34614 0.98071
 H196 H 0.28204 0.32895 0.94172
 H197 H 0.21999 0.36377 0.92501
 H198 H 0.24694 0.38640 1.05253
 H199 H 0.24199 0.36270 1.08704
 H200 H 0.24739 0.30293 1.04262
 H201 H 0.25200 0.32840 1.00896
 C202 C 0.31828 0.41956 0.99879
 C203 C 0.18820 0.42525 1.01039
 C204 C 0.24377 0.33041 1.06787
 C205 C 0.25093 0.34478 0.92978
 C206 C 0.78187 0.09006 0.96766
 H207 H 0.76769 0.08654 0.95639
 C208 C 0.80205 0.07829 0.96441
 H209 H 0.80303 0.06562 0.95062
 C210 C 0.79761 0.11103 0.99899
 H211 H 0.79604 0.12404 1.01224
 C212 C 0.81814 0.10001 0.99620
 H213 H 0.83132 0.10475 1.00820
 N214 N 0.77980 0.10555 0.98524
 C215 C 0.70771 0.10859 0.99981
 H216 H 0.70619 0.12684 1.00193
 C217 C 0.68861 0.09479 1.00114
 H218 H 0.67245 0.10272 1.00404
 C219 C 0.73064 0.07652 0.99209
 H220 H 0.74703 0.06941 0.98873
 C221 C 0.71191 0.06207 0.99307
 H222 H 0.71402 0.04396 0.99022
 Zn223 Zn 0.75199 0.12051 0.99054
 N224 N 0.72811 0.09942 0.99479
 C225 C 0.72746 0.13505 0.95078
 N226 N 0.74596 0.13897 0.96416
 C227 C 0.76063 0.15603 0.95893
 C228 C 0.75639 0.17066 0.94027
 C229 C 0.72270 0.14908 0.93175
 C230 C 0.75907 0.12802 1.03849
 C231 C 0.76259 0.14063 1.05893
 C232 C 0.75383 0.17480 1.03745
 C233 C 0.75070 0.16154 1.01740
 N234 N 0.75395 0.13865 1.01810
 H235 H 0.71628 0.12105 0.95480
 H236 H 0.77543 0.15854 0.96960
 H237 H 0.76815 0.18440 0.93675
 H238 H 0.70757 0.14559 0.92197
 H239 H 0.76108 0.10972 1.03868
 H240 H 0.76694 0.13144 1.07458
 H241 H 0.75148 0.19306 1.03630
 H242 H 0.74585 0.16966 1.00129
 C243 C 0.69056 0.07119 0.99748
 C244 C 0.82068 0.08301 0.97884
 C245 C 0.76039 0.16454 1.05854
 C246 C 0.73720 0.16740 0.92633
 C247 C 0.27176 0.58105 0.49891
 H248 H 0.25480 0.57439 0.49935
 C249 C 0.28993 0.56604 0.49848
 H250 H 0.28684 0.54784 0.49847
 C251 C 0.29658 0.61277 0.49883
 H252 H 0.29896 0.63105 0.49921
 C253 C 0.31519 0.59841 0.49821
 H254 H 0.33186 0.60587 0.49850
 N255 N 0.27540 0.60395 0.49871
 C256 C 0.21742 0.59776 0.48078
 H257 H 0.22867 0.59741 0.46587
 C258 C 0.19647 0.58711 0.47943
 H259 H 0.19166 0.57849 0.46342
 C260 C 0.20972 0.61022 0.51944
 H261 H 0.21476 0.61975 0.53475
 C262 C 0.18866 0.59948 0.51896
 H263 H 0.17763 0.60100 0.53396
 Zn264 Zn 0.25131 0.62487 0.49896
 N265 N 0.22358 0.60913 0.50049
 C266 C 0.26639 0.63633 0.45367
 N267 N 0.25114 0.64156 0.47058
 C268 C 0.23419 0.65648 0.46641
 C269 C 0.23197 0.66665 0.44441
 C270 C 0.26482 0.64601 0.43154
 C271 C 0.25615 0.66703 0.52367
 C272 C 0.26033 0.68035 0.54351
 C273 C 0.26321 0.64589 0.56630
 C274 C 0.25877 0.63331 0.54608
 N275 N 0.25534 0.64395 0.52535
 H276 H 0.27935 0.62395 0.45695
 H277 H 0.22193 0.65991 0.47997
 H278 H 0.21799 0.67800 0.44168
 H279 H 0.27699 0.64116 0.41830
 H280 H 0.25377 0.67516 0.50694
 H281 H 0.26086 0.69872 0.54176
 H282 H 0.26551 0.63657 0.58233
 H283 H 0.25823 0.61490 0.54685
 C284 C 0.18182 0.58788 0.49864
 C285 C 0.31194 0.57469 0.49766
 C286 C 0.26418 0.66989 0.56525
 C287 C 0.24729 0.66115 0.42641
 C288 C 0.71982 0.92533 0.48370
 H289 H 0.73280 0.92688 0.47050
 C290 C 0.70016 0.93811 0.48189
 H291 H 0.69800 0.94952 0.46722
 C292 C 0.70666 0.90831 0.51874
 H293 H 0.70936 0.89707 0.53333
 C294 C 0.68670 0.92057 0.51749
 H295 H 0.67425 0.91856 0.53119
 N296 N 0.72235 0.91020 0.50149
 C297 C 0.78804 0.91020 0.48091
 H298 H 0.78496 0.89842 0.46676
 C299 C 0.80727 0.92386 0.48034
 H300 H 0.81872 0.92234 0.46568
 C301 C 0.77636 0.92731 0.51647
 H302 H 0.76419 0.92844 0.53053
 C303 C 0.79537 0.94139 0.51656
 H304 H 0.79789 0.95332 0.53080
 Zn305 Zn 0.74832 0.89170 0.50104
 N306 N 0.77345 0.91158 0.49921
 C307 C 0.73048 0.87362 0.45912
 N308 N 0.74774 0.87221 0.47454
 C309 C 0.76527 0.85786 0.47067
 C310 C 0.76682 0.84561 0.44970
 C311 C 0.73128 0.86172 0.43804
 C312 C 0.76827 0.87569 0.54249
 C313 C 0.76924 0.86398 0.56360
 C314 C 0.73296 0.84725 0.55519
 C315 C 0.73289 0.85907 0.53395
 N316 N 0.74998 0.87363 0.52846
 H317 H 0.71629 0.88446 0.46278
 H318 H 0.77863 0.85678 0.48343
 H319 H 0.78150 0.83518 0.44688
 H320 H 0.71763 0.86380 0.42571
 H321 H 0.78212 0.88659 0.53748
 H322 H 0.78388 0.86632 0.57462
 H323 H 0.71886 0.83625 0.55915
 H324 H 0.71883 0.85718 0.52213
 C325 C 0.81143 0.93920 0.49872
 C326 C 0.68303 0.93516 0.49847
 C327 C 0.75121 0.85000 0.57063
 C328 C 0.74991 0.84800 0.43267
 C329 C 0.02134 0.27092 0.41325
 H330 H 0.03397 0.25777 0.41195
 C331 C 0.02372 0.28832 0.42974
 H332 H 0.03820 0.28839 0.44119
 C333 C -0.01221 0.28742 0.39898
 H334 H -0.02580 0.28733 0.38647
 C335 C -0.01060 0.30507 0.41545
 H336 H -0.02303 0.31847 0.41529
 N337 N 0.00389 0.27104 0.39793
 C338 C -0.00158 0.21499 0.40821
 H339 H -0.01297 0.22740 0.41559
 C340 C 0.00133 0.19409 0.41950
 H341 H -0.00846 0.19102 0.43512
 C342 C 0.02484 0.20484 0.37908
 H343 H 0.03428 0.20900 0.36357
 C344 C 0.02809 0.18367 0.38958
 H345 H 0.03992 0.17196 0.38159
 Zn346 Zn 0.00449 0.24873 0.37373
 N347 N 0.00988 0.21992 0.38821
 C348 C 0.03371 0.24306 0.33383
 N349 N 0.02848 0.25645 0.35255
 C350 C 0.04089 0.27538 0.35744
 C351 C 0.06022 0.28045 0.34460
 C352 C 0.05308 0.24744 0.32048
 C353 C -0.04220 0.24213 0.37097
 C354 C -0.06324 0.23974 0.36051
 C355 C -0.04639 0.24897 0.32326
 C356 C -0.02556 0.25123 0.33453
 N357 N -0.02378 0.24754 0.35796
 H358 H 0.02325 0.22849 0.32968
 H359 H 0.03621 0.28644 0.37171
 H360 H 0.07012 0.29526 0.34951
 H361 H 0.05705 0.23589 0.30636
 H362 H -0.04057 0.23956 0.38957
 H363 H -0.07753 0.23524 0.37140
 H364 H -0.04700 0.25185 0.30463
 H365 H -0.01081 0.25576 0.32446
 C366 C 0.01625 0.17780 0.41007
 C367 C 0.00781 0.30583 0.43083
 C368 C -0.06569 0.24293 0.33629
 C369 C 0.06708 0.26608 0.32628
 C370 C -0.00585 0.72418 0.08735
 H371 H -0.01248 0.73933 0.07927
 C372 C -0.00247 0.70454 0.07386
 H373 H -0.00646 0.70483 0.05541
 C374 C 0.00837 0.70563 0.12094
 H375 H 0.01267 0.70625 0.13929
 C376 C 0.01233 0.68586 0.10808
 H377 H 0.01966 0.67125 0.11667
 N378 N -0.00049 0.72430 0.11049
 C379 C 0.00796 0.79325 0.10968
 H380 H 0.02362 0.79150 0.11898
 C381 C 0.00449 0.81252 0.09593
 H382 H 0.01754 0.82541 0.09507
 C383 C -0.02838 0.77921 0.10051
 H384 H -0.04112 0.76613 0.10247
 C385 C -0.03267 0.79841 0.08680
 H386 H -0.04879 0.80006 0.07822
 Zn387 Zn -0.00303 0.75047 0.12982
 N388 N -0.00823 0.77687 0.11145
 C389 C 0.02686 0.75381 0.16929
 N390 N 0.02489 0.75301 0.14560
 C391 C 0.04333 0.75189 0.13159
 C392 C 0.06480 0.75143 0.14118
 C393 C 0.04818 0.75348 0.17974
 C394 C -0.03912 0.72653 0.15037
 C395 C -0.05788 0.72327 0.16465
 C396 C -0.05244 0.76111 0.18036
 C397 C -0.03359 0.76358 0.16576
 N398 N -0.02737 0.74643 0.15109
 H399 H 0.01194 0.75421 0.18013
 H400 H 0.04128 0.75087 0.11282
 H401 H 0.07914 0.75026 0.12950
 H402 H 0.04908 0.75379 0.19860
 H403 H -0.03423 0.71318 0.13841
 H404 H -0.06699 0.70727 0.16347
 H405 H -0.05692 0.77522 0.19155
 H406 H -0.02410 0.77935 0.16585
 C407 C -0.01598 0.81517 0.08409
 C408 C 0.00683 0.68510 0.08430
 C409 C -0.06508 0.74070 0.17977
 C410 C 0.06761 0.75204 0.16556
 C411 C 0.48537 0.21590 0.58534
 H412 H 0.48068 0.23049 0.57500
 C413 C 0.48863 0.19473 0.57446
 H414 H 0.48652 0.19335 0.55573
 C415 C 0.49471 0.20016 0.62216
 H416 H 0.49711 0.20246 0.64076
 C417 C 0.49835 0.17891 0.61203
 H418 H 0.50353 0.16486 0.62299
 N419 N 0.48828 0.21812 0.60885
 C420 C 0.49708 0.28760 0.60356
 H421 H 0.51169 0.28700 0.61469
 C422 C 0.49454 0.30589 0.58823
 H423 H 0.50724 0.31914 0.58800
 C424 C 0.46227 0.27182 0.59144
 H425 H 0.44972 0.25849 0.59291
 C426 C 0.45893 0.28999 0.57605
 H427 H 0.44373 0.29058 0.56568
 Zn428 Zn 0.48508 0.24592 0.62552
 N429 N 0.48122 0.27083 0.60467
 C430 C 0.53106 0.24773 0.62879
 N431 N 0.51236 0.24941 0.64236
 C432 C 0.51391 0.25146 0.66601
 C433 C 0.53507 0.25197 0.67686
 C434 C 0.55236 0.24814 0.63877
 C435 C 0.44609 0.22496 0.64301
 C436 C 0.42611 0.22290 0.65560
 C437 C 0.43356 0.25946 0.67345
 C438 C 0.45352 0.26085 0.66032
 N439 N 0.45938 0.24371 0.64545
 H440 H 0.52935 0.24571 0.61007
 H441 H 0.49879 0.25227 0.67653
 H442 H 0.53569 0.25337 0.69568
 H443 H 0.56690 0.24660 0.62740
 H444 H 0.45058 0.21172 0.63076
 H445 H 0.41579 0.20785 0.65293
 H446 H 0.42927 0.27356 0.68478
 H447 H 0.46414 0.27581 0.66168
 C448 C 0.47533 0.30714 0.57407
 C449 C 0.49519 0.17589 0.58796
 C450 C 0.41935 0.24028 0.67096
 C451 C 0.55476 0.25011 0.66312
 C452 C 0.52256 0.78322 0.90647
 H453 H 0.53701 0.77227 0.90427
 C454 C 0.52386 0.80196 0.92148
 H455 H 0.53932 0.80518 0.93092
 C456 C 0.48530 0.79283 0.89602
 H457 H 0.47049 0.78954 0.88562
 C458 C 0.48586 0.81182 0.91089
 H459 H 0.47136 0.82282 0.91153
 N460 N 0.50355 0.77905 0.89398
 C461 C 0.50782 0.70694 0.87506
 H462 H 0.50363 0.70769 0.85673
 C463 C 0.51117 0.68579 0.88556
 H464 H 0.51020 0.67048 0.87498
 C465 C 0.51285 0.72570 0.91137
 H466 H 0.51313 0.74119 0.92154
 C467 C 0.51603 0.70483 0.92266
 H468 H 0.51934 0.70471 0.94125
 Zn469 Zn 0.50409 0.75455 0.87195
 N470 N 0.50921 0.72645 0.88786
 C471 C 0.53515 0.74419 0.83463
 N472 N 0.52767 0.76052 0.84969
 C473 C 0.53755 0.78147 0.85013
 C474 C 0.55643 0.78613 0.83638
 C475 C 0.55403 0.74815 0.82043
 C476 C 0.45840 0.74496 0.87075
 C477 C 0.43702 0.74179 0.86132
 C478 C 0.45160 0.75304 0.82358
 C479 C 0.47284 0.75593 0.83381
 N480 N 0.47578 0.75191 0.85702
 H481 H 0.52692 0.72781 0.83393
 H482 H 0.53105 0.79464 0.86146
 H483 H 0.56427 0.80280 0.83771
 H484 H 0.55978 0.73442 0.80936
 H485 H 0.46125 0.74174 0.88913
 H486 H 0.42353 0.73618 0.87276
 H487 H 0.44998 0.75633 0.80509
 H488 H 0.48698 0.76131 0.82321
 C489 C 0.51528 0.68453 0.90963
 C490 C 0.50545 0.81665 0.92378
 C491 C 0.43322 0.74580 0.83743
 C492 C 0.56537 0.76927 0.82162
 C493 C -0.22052 0.64792 0.96739
 H494 H -0.20826 0.63495 0.97112
 C495 C -0.21647 0.66304 0.94905
 H496 H -0.20110 0.66147 0.93899
 C497 C -0.25492 0.66619 0.97630
 H498 H -0.26986 0.66751 0.98691
 C499 C -0.25140 0.68183 0.95830
 H500 H -0.26383 0.69488 0.95510
 N501 N -0.23983 0.64925 0.98018
 C502 C -0.25429 0.62350 1.05020
 H503 H -0.25589 0.60559 1.04597
 C504 C -0.25809 0.63094 1.07300
 H505 H -0.26242 0.61843 1.08620
 C506 C -0.24690 0.66123 1.03770
 H507 H -0.24248 0.67290 1.02382
 C508 C -0.25107 0.66957 1.06024
 H509 H -0.24925 0.68768 1.06305
 Zn510 Zn -0.24606 0.62620 1.00276
 N511 N -0.24874 0.63857 1.03314
 C512 C -0.20858 0.60305 1.02089
 N513 N -0.22247 0.60448 1.00214
 C514 C -0.21863 0.59197 0.98249
 C515 C -0.20004 0.57759 0.98109
 C516 C -0.18980 0.58895 1.02026
 C517 C -0.29237 0.62569 1.00134
 C518 C -0.31407 0.61710 0.99916
 C519 C -0.29847 0.58092 0.98736
 C520 C -0.27692 0.59032 0.98977
 N521 N -0.27429 0.61243 0.99651
 H522 H -0.21157 0.61342 1.03620
 H523 H -0.22958 0.59380 0.96755
 H524 H -0.19709 0.56818 0.96504
 H525 H -0.17934 0.58863 1.03563
 H526 H -0.28998 0.64278 1.00790
 H527 H -0.32811 0.62808 1.00347
 H528 H -0.29984 0.56324 0.98229
 H529 H -0.26242 0.57971 0.98683
 C530 C -0.25692 0.65431 1.07840
 C531 C -0.23235 0.67989 0.94397
 C532 C -0.31749 0.59439 0.99229
 C533 C -0.18495 0.57623 0.99991
 C534 C -0.24953 0.33237 0.52124
 H535 H -0.25160 0.32412 0.50446
 C536 C -0.24651 0.31979 0.54049
 H537 H -0.24630 0.30139 0.53902
 C538 C -0.24706 0.36716 0.54276
 H539 H -0.24682 0.38557 0.54339
 C540 C -0.24367 0.35405 0.56437
 H541 H -0.24192 0.36365 0.58038
 N542 N -0.24973 0.35681 0.52283
 C543 C -0.23513 0.36350 0.45181
 H544 H -0.22178 0.37546 0.45555
 C545 C -0.23626 0.35361 0.42971
 H546 H -0.22346 0.35780 0.41688
 C547 C -0.26875 0.34473 0.46326
 H548 H -0.28170 0.34195 0.47629
 C549 C -0.27054 0.33440 0.44123
 H550 H -0.28494 0.32367 0.43759
 Zn551 Zn -0.25115 0.37586 0.49634
 N552 N -0.25127 0.35903 0.46807
 C553 C -0.20535 0.38375 0.49849
 N554 N -0.22535 0.39474 0.49744
 C555 C -0.22640 0.41787 0.49775
 C556 C -0.20664 0.43086 0.49824
 C557 C -0.18523 0.39598 0.49886
 C558 C -0.29338 0.39082 0.51371
 C559 C -0.31368 0.40264 0.51256
 C560 C -0.30101 0.41970 0.47639
 C561 C -0.28107 0.40745 0.47821
 N562 N -0.27763 0.39339 0.49665
 H563 H -0.20508 0.36532 0.49878
 H564 H -0.24251 0.42630 0.49757
 H565 H -0.20784 0.44927 0.49822
 H566 H -0.16988 0.38631 0.49983
 H567 H -0.29045 0.37923 0.52802
 H568 H -0.32568 0.39999 0.52649
 H569 H -0.30339 0.43066 0.46138
 H570 H -0.26837 0.40888 0.46469
 C571 C -0.25420 0.33907 0.42406
 C572 C -0.24306 0.33107 0.56353
 C573 C -0.31789 0.41722 0.49348
 C574 C -0.18559 0.42001 0.49838
 C575 C 0.25567 -0.11748 0.04451
 H576 H 0.25024 -0.10024 0.04121
 C577 C 0.25917 -0.12425 0.06646
 H578 H 0.25677 -0.11223 0.08065
 C579 C 0.26414 -0.15418 0.02896
 H580 H 0.26578 -0.16588 0.01451
 C581 C 0.26838 -0.16241 0.05295
 H582 H 0.27288 -0.18008 0.05502
 N583 N 0.25852 -0.13307 0.02532
 C584 C 0.22770 -0.14437 -0.03894
 H585 H 0.21524 -0.13162 -0.03494
 C586 C 0.22322 -0.16035 -0.05642
 H587 H 0.20713 -0.15992 -0.06517
 C588 C 0.26364 -0.16036 -0.03243
 H589 H 0.27960 -0.15993 -0.02343
 C590 C 0.25978 -0.17677 -0.04974
 H591 H 0.27276 -0.18907 -0.05378
 Zn592 Zn 0.25329 -0.12107 -0.00502
 N593 N 0.24770 -0.14450 -0.02741
 C594 C 0.29065 -0.10823 -0.03369
 N595 N 0.27866 -0.10335 -0.01402
 C596 C 0.28501 -0.08610 0.00043
 C597 C 0.30454 -0.07358 -0.00404
 C598 C 0.31043 -0.09624 -0.03880
 C599 C 0.20938 -0.11100 0.00837
 C600 C 0.18946 -0.09862 0.00969
 C601 C 0.20746 -0.06853 -0.01237
 C602 C 0.22707 -0.08152 -0.01319
 N603 N 0.22758 -0.10240 -0.00304
 H604 H 0.28516 -0.12165 -0.04531
 H605 H 0.27505 -0.08220 0.01572
 H606 H 0.30896 -0.06047 0.00838
 H607 H 0.31996 -0.10083 -0.05428
 H608 H 0.21028 -0.12774 0.01618
 H609 H 0.17545 -0.10641 0.01868
 H610 H 0.20735 -0.05204 -0.02085
 H611 H 0.24174 -0.07512 -0.02232
 C612 C 0.23955 -0.17660 -0.06225
 C613 C 0.26608 -0.14802 0.07126
 C614 C 0.18816 -0.07701 -0.00098
 C615 C 0.31793 -0.07885 -0.02373
 C616 C 0.25836 1.17237 0.48347
 H617 H 0.25457 1.17885 0.50073
 C618 C 0.26412 1.18746 0.46550
 H619 H 0.26448 1.20560 0.46897
 C620 C 0.26258 1.14090 0.45779
 H621 H 0.26182 1.12268 0.45497
 C622 C 0.26843 1.15529 0.43942
 H623 H 0.27154 1.14782 0.42243
 N624 N 0.25749 1.14958 0.47918
 C625 C 0.25746 1.13264 0.55040
 H626 H 0.27034 1.12001 0.54776
 C627 C 0.25242 1.13972 0.57306
 H628 H 0.26191 1.13280 0.58752
 C629 C 0.22849 1.15579 0.53515
 H630 H 0.21880 1.16137 0.52026
 C631 C 0.22287 1.16338 0.55763
 H632 H 0.20887 1.17489 0.55972
 Zn633 Zn 0.25023 1.12773 0.50205
 N634 N 0.24554 1.14070 0.53197
 C635 C 0.29492 1.11559 0.50863
 N636 N 0.27440 1.10704 0.50293
 C637 C 0.27160 1.08470 0.49732
 C638 C 0.28981 1.06981 0.49814
 C639 C 0.31354 1.10132 0.50994
 C640 C 0.21146 1.11739 0.47470
 C641 C 0.19138 1.10583 0.47002
 C642 C 0.19643 1.08434 0.50560
 C643 C 0.21629 1.09635 0.50958
 N644 N 0.22351 1.11232 0.49414
 H645 H 0.29674 1.13358 0.51238
 H646 H 0.25530 1.07836 0.49206
 H647 H 0.28715 1.05204 0.49372
 H648 H 0.32949 1.10899 0.51440
 H649 H 0.21724 1.13055 0.46292
 H650 H 0.18201 1.11018 0.45444
 H651 H 0.19149 1.07199 0.51858
 H652 H 0.22607 1.09300 0.52511
 C653 C 0.23488 1.15514 0.57697
 C654 C 0.26935 1.17894 0.44318
 C655 C 0.18354 1.08896 0.48549
 C656 C 0.31111 1.07789 0.50490
 C657 C 0.17398 0.47938 0.24224
 H658 H 0.17940 0.49652 0.23826
 C659 C 0.18928 0.46140 0.24045
 H660 H 0.20645 0.46480 0.23506
 C661 C 0.14510 0.45384 0.25399
 H662 H 0.12774 0.45104 0.25896
 C663 C 0.15981 0.43552 0.25267
 H664 H 0.15347 0.41859 0.25638
 N665 N 0.15229 0.47523 0.24870
 C666 C 0.13919 0.54179 0.26794
 H667 H 0.13003 0.53587 0.28307
 C668 C 0.14690 0.56419 0.26752
 H669 H 0.14375 0.57513 0.28245
 C670 C 0.15370 0.53521 0.22989
 H671 H 0.15576 0.52389 0.21508
 C672 C 0.16196 0.55757 0.22883
 H673 H 0.17032 0.56332 0.21307
 Zn674 Zn 0.13006 0.49810 0.25074
 N675 N 0.14271 0.52774 0.24935
 C676 C 0.12936 0.49091 0.29858
 N677 N 0.11557 0.49487 0.28015
 C678 C 0.09319 0.49849 0.28333
 C679 C 0.08407 0.49925 0.30591
 C680 C 0.12095 0.49116 0.32134
 C681 C 0.11255 0.47712 0.21018
 C682 C 0.09840 0.47466 0.19092
 C683 C 0.07842 0.50826 0.20353
 C684 C 0.09311 0.51016 0.22247
 N685 N 0.10965 0.49457 0.22556
 H686 H 0.14714 0.48831 0.29561
 H687 H 0.08246 0.50147 0.26849
 H688 H 0.06628 0.50241 0.30770
 H689 H 0.13246 0.48837 0.33570
 H690 H 0.12604 0.46512 0.21258
 H691 H 0.10131 0.46036 0.17942
 H692 H 0.06540 0.52094 0.20143
 H693 H 0.09150 0.52425 0.23457
 C694 C 0.15851 0.57232 0.24791
 C695 C 0.18227 0.43920 0.24593
 C696 C 0.08103 0.49048 0.18721
 C697 C 0.09816 0.49600 0.32542
 C698 C -0.14194 1.02654 0.28087
 H699 H -0.14322 1.01208 0.29250
 C700 C -0.15363 1.04657 0.28599
 H701 H -0.16401 1.04749 0.30156
 C702 C -0.12678 1.04305 0.24645
 H703 H -0.11586 1.04196 0.23141
 C704 C -0.13831 1.06323 0.25076
 H705 H -0.13611 1.07738 0.23886
 N706 N -0.12931 1.02495 0.26104
 C707 C -0.12807 0.95252 0.24432
 H708 H -0.11014 0.95005 0.24243
 C709 C -0.14273 0.93403 0.24200
 H710 H -0.13564 0.91741 0.23871
 C711 C -0.15855 0.97728 0.25212
 H712 H -0.16467 0.99416 0.25597
 C713 C -0.17383 0.95927 0.24992
 H714 H -0.19163 0.96245 0.25230
 Zn715 Zn -0.11475 0.99706 0.25437
 N716 N -0.13610 0.97351 0.24978
 C717 C -0.09917 0.97098 0.29290
 N718 N -0.09617 0.99027 0.28013
 C719 C -0.07989 1.00565 0.28566
 C720 C -0.06523 1.00150 0.30412
 C721 C -0.08507 0.96625 0.31175
 C722 C -0.10775 1.00504 0.20647
 C723 C -0.09534 1.00908 0.18610
 C724 C -0.06151 1.00011 0.20739
 C725 C -0.07456 0.99650 0.22736
 N726 N -0.09718 0.99968 0.22675
 H727 H -0.11254 0.95921 0.28858
 H728 H -0.07812 1.02104 0.27544
 H729 H -0.05221 1.01393 0.30797
 H730 H -0.08784 0.95056 0.32115
 H731 H -0.12585 1.00684 0.20631
 H732 H -0.10446 1.01360 0.17052
 H733 H -0.04346 0.99784 0.20847
 H734 H -0.06649 0.99133 0.24335
 C735 C -0.16601 0.93728 0.24494
 C736 C -0.15235 1.06494 0.27046
 C737 C -0.07170 1.00708 0.18648
 C738 C -0.06767 0.98163 0.31757
 C739 C 0.34531 0.52339 -0.24297
 H740 H 0.34151 0.51034 -0.23021
 C741 C 0.33491 0.54474 -0.24136
 H742 H 0.32310 0.54784 -0.22731
 C743 C 0.36664 0.53570 -0.27566
 H744 H 0.37966 0.53272 -0.28844
 C745 C 0.35676 0.55707 -0.27470
 H746 H 0.36201 0.56995 -0.28714
 N747 N 0.36089 0.51930 -0.25996
 C748 C 0.37327 0.44492 -0.26535
 H749 H 0.39144 0.44588 -0.26604
 C750 C 0.36295 0.42476 -0.26638
 H751 H 0.37295 0.40945 -0.26795
 C752 C 0.33858 0.46509 -0.26277
 H753 H 0.32929 0.48080 -0.26126
 C754 C 0.32634 0.44309 -0.26399
 H755 H 0.30821 0.44344 -0.26291
 Zn756 Zn 0.37809 0.49211 -0.26025
 N757 N 0.36047 0.46546 -0.26291
 C758 C 0.39325 0.47345 -0.21724
 N759 N 0.39479 0.49135 -0.23223
 C760 C 0.40764 0.50987 -0.22713
 C761 C 0.41985 0.51077 -0.20638
 C762 C 0.40529 0.47355 -0.19631
 C763 C 0.38728 0.49256 -0.30769
 C764 C 0.39981 0.49603 -0.32800
 C765 C 0.43345 0.49769 -0.30443
 C766 C 0.42017 0.49451 -0.28450
 N767 N 0.39745 0.49277 -0.28646
 H768 H 0.38244 0.45916 -0.22128
 H769 H 0.40827 0.52403 -0.23918
 H770 H 0.42991 0.52580 -0.20270
 H771 H 0.40337 0.45911 -0.18482
 H772 H 0.36920 0.49065 -0.30870
 H773 H 0.39092 0.49592 -0.34443
 H774 H 0.45148 0.49963 -0.30246
 H775 H 0.42799 0.49403 -0.26749
 C776 C 0.33805 0.42345 -0.26535
 C777 C 0.34089 0.56196 -0.25732
 C778 C 0.42326 0.49937 -0.32652
 C779 C 0.41886 0.49249 -0.19056
 C780 C 0.64392 -0.03779 -0.23012
 H781 H 0.63253 -0.03535 -0.21556
 C782 C 0.65843 -0.05514 -0.22986
 H783 H 0.65837 -0.06613 -0.21477
 C784 C 0.65653 -0.02527 -0.26760
 H785 H 0.65521 -0.01400 -0.28246
 C786 C 0.67286 -0.04407 -0.26809
 H787 H 0.68347 -0.04598 -0.28343
 N788 N 0.64312 -0.02266 -0.24980
 C789 C 0.61903 0.04680 -0.25269
 H790 H 0.60120 0.04316 -0.25161
 C791 C 0.62652 0.06926 -0.25343
 H792 H 0.61413 0.08276 -0.25289
 C793 C 0.65645 0.03325 -0.25448
 H794 H 0.66801 0.01910 -0.25456
 C795 C 0.66477 0.05555 -0.25543
 H796 H 0.68278 0.05776 -0.25620
 Zn797 Zn 0.62094 0.00008 -0.25197
 N798 N 0.63393 0.02937 -0.25339
 C799 C 0.61255 0.00668 -0.20503
 N800 N 0.60227 0.00042 -0.22523
 C801 C 0.57963 -0.00261 -0.22625
 C802 C 0.56637 0.00097 -0.20635
 C803 C 0.60001 0.01058 -0.18479
 C804 C 0.60742 0.00965 -0.29765
 C805 C 0.59818 0.00517 -0.31949
 C806 C 0.58305 -0.03016 -0.30445
 C807 C 0.59288 -0.02507 -0.28282
 N808 N 0.60474 -0.00540 -0.27984
 H809 H 0.63057 0.00929 -0.20485
 H810 H 0.57172 -0.00707 -0.24263
 H811 H 0.54831 -0.00122 -0.20764
 H812 H 0.60907 0.01557 -0.16928
 H813 H 0.61748 0.02483 -0.29528
 H814 H 0.60097 0.01733 -0.33345
 H815 H 0.57412 -0.04614 -0.30632
 H816 H 0.59154 -0.03707 -0.26855
 C817 C 0.64967 0.07410 -0.25496
 C818 C 0.67376 -0.05893 -0.25022
 C819 C 0.58592 -0.01498 -0.32330
 C820 C 0.57641 0.00815 -0.18529
 C821 C 0.01338 0.27646 0.84610
 H822 H 0.00058 0.28942 0.84763
 C823 C 0.03220 0.28017 0.83181
 H824 H 0.03377 0.29602 0.82227
 C825 C 0.02737 0.24040 0.85729
 H826 H 0.02591 0.22521 0.86775
 C827 C 0.04628 0.24331 0.84309
 H828 H 0.05906 0.23026 0.84304
 N829 N 0.01121 0.25672 0.85834
 C830 C -0.05975 0.24480 0.87367
 H831 H -0.05804 0.24029 0.89191
 C832 C -0.08097 0.24519 0.86346
 H833 H -0.09556 0.24084 0.87397
 C834 C -0.04279 0.25668 0.83816
 H835 H -0.02787 0.26140 0.82847
 C836 C -0.06382 0.25724 0.82717
 H837 H -0.06473 0.26266 0.80915
 Zn838 Zn -0.01406 0.25260 0.87841
 N839 N -0.04126 0.25106 0.86118
 C840 C -0.03439 0.29066 0.89977
 N841 N -0.01548 0.27775 0.89940
 C842 C 0.00256 0.28328 0.91289
 C843 C 0.00196 0.30247 0.92752
 C844 C -0.03582 0.30974 0.91420
 C845 C -0.01247 0.20551 0.88141
 C846 C -0.01014 0.18413 0.89157
 C847 C -0.00687 0.20230 0.92937
 C848 C -0.00904 0.22347 0.91835
 N849 N -0.01144 0.22466 0.89473
 H850 H -0.04841 0.28648 0.88861
 H851 H 0.01753 0.27290 0.91208
 H852 H 0.01665 0.30629 0.93789
 H853 H -0.05112 0.31971 0.91397
 H854 H -0.01474 0.20694 0.86270
 H855 H -0.01063 0.16919 0.88039
 H856 H -0.00456 0.20206 0.94810
 H857 H -0.00864 0.23891 0.92868
 C858 C -0.08330 0.25177 0.84006
 C859 C 0.04881 0.26336 0.82997
 C860 C -0.00719 0.18216 0.91585
 C861 C -0.01749 0.31616 0.92821
 C862 C 0.47651 0.27147 0.16813
 H863 H 0.48884 0.28508 0.16784
 C864 C 0.45891 0.27208 0.18435
 H865 H 0.45789 0.28619 0.19655
 C866 C 0.46237 0.23714 0.15195
 H867 H 0.46357 0.22366 0.13913
 C868 C 0.44450 0.23705 0.16795
 H869 H 0.43210 0.22357 0.16679
 N870 N 0.47759 0.25455 0.15185
 C871 C 0.54706 0.26354 0.12695
 H872 H 0.54465 0.26546 0.10840
 C873 C 0.56873 0.26538 0.13611
 H874 H 0.58267 0.26896 0.12442
 C875 C 0.53214 0.25601 0.16455
 H876 H 0.51790 0.25208 0.17561
 C877 C 0.55361 0.25764 0.17447
 H878 H 0.55530 0.25543 0.19314
 Zn879 Zn 0.49978 0.25685 0.12760
 N880 N 0.52918 0.25913 0.14116
 C881 C 0.50536 0.28658 0.08865
 N882 N 0.49366 0.28316 0.10887
 C883 C 0.47719 0.29787 0.11546
 C884 C 0.47284 0.31738 0.10238
 C885 C 0.50158 0.30595 0.07497
 C886 C 0.51561 0.21578 0.10704
 C887 C 0.51457 0.19666 0.09242
 C888 C 0.47785 0.20881 0.07970
 C889 C 0.47975 0.22781 0.09434
 N890 N 0.49832 0.23084 0.10780
 H891 H 0.51749 0.27412 0.08288
 H892 H 0.46724 0.29465 0.13087
 H893 H 0.45984 0.32891 0.10837
 H894 H 0.51148 0.30803 0.05926
 H895 H 0.53019 0.21842 0.11796
 H896 H 0.52853 0.18498 0.09279
 H897 H 0.46273 0.20669 0.06937
 H898 H 0.46627 0.24012 0.09517
 C899 C 0.57231 0.26238 0.16013
 C900 C 0.44238 0.25497 0.18418
 C901 C 0.49538 0.19284 0.07845
 C902 C 0.48527 0.32195 0.08198
 C903 C -0.03864 0.76700 0.64905
 H904 H -0.03408 0.77997 0.63654
 C905 C -0.05631 0.77042 0.66304
 H906 H -0.06558 0.78620 0.66163
 C907 C -0.03152 0.73036 0.66524
 H908 H -0.02196 0.71474 0.66581
 C909 C -0.05125 0.73327 0.68091
 H910 H -0.05533 0.71959 0.69279
 N911 N -0.02598 0.74623 0.65034
 C912 C 0.04502 0.74288 0.63112
 H913 H 0.04329 0.74612 0.61265
 C914 C 0.06632 0.74363 0.64111
 H915 H 0.08078 0.74672 0.62996
 C916 C 0.02820 0.73700 0.66820
 H917 H 0.01324 0.73509 0.67879
 C918 C 0.04936 0.73767 0.67901
 H919 H 0.05023 0.73608 0.69780
 Zn920 Zn -0.00156 0.74274 0.62875
 N921 N 0.02642 0.73962 0.64461
 C922 C 0.00948 0.78804 0.62312
 N923 N 0.00092 0.76995 0.61124
 C924 C -0.00566 0.77185 0.58857
 C925 C -0.00410 0.79289 0.57709
 C926 C 0.01143 0.80920 0.61242
 C927 C 0.00900 0.71189 0.59196
 C928 C 0.00629 0.69268 0.57771
 C929 C -0.02924 0.68535 0.59679
 C930 C -0.02579 0.70466 0.61070
 N931 N -0.00668 0.71730 0.60842
 H932 H 0.01453 0.78605 0.64116
 H933 H -0.01246 0.75718 0.57951
 H934 H -0.00970 0.79386 0.55918
 H935 H 0.01814 0.82334 0.62248
 H936 H 0.02376 0.72241 0.58980
 H937 H 0.01933 0.68907 0.56509
 H938 H -0.04448 0.67544 0.59927
 H939 H -0.03840 0.70940 0.62339
 C940 C 0.06878 0.74126 0.66533
 C941 C -0.06346 0.75258 0.67984
 C942 C -0.01296 0.67878 0.58023
 C943 C 0.00444 0.81206 0.58917
 C944 C 0.53802 0.77305 0.35698
 H945 H 0.53381 0.78432 0.37125
 C946 C 0.55705 0.77769 0.34341
 H947 H 0.56732 0.79244 0.34759
 C948 C 0.52990 0.74037 0.33415
 H949 H 0.51912 0.72589 0.33056
 C950 C 0.54889 0.74433 0.32016
 H951 H 0.55228 0.73284 0.30579
 N952 N 0.52516 0.75432 0.35257
 C953 C 0.45450 0.73836 0.36760
 H954 H 0.45573 0.73314 0.38560
 C955 C 0.43341 0.73925 0.35714
 H956 H 0.41869 0.73440 0.36721
 C957 C 0.47183 0.75238 0.33316
 H958 H 0.48676 0.75824 0.32415
 C959 C 0.45094 0.75343 0.32191
 H960 H 0.45014 0.76008 0.30431
 Zn961 Zn 0.50055 0.74738 0.37302
 N962 N 0.47319 0.74521 0.35576
 C963 C 0.47903 0.78487 0.39426
 N964 N 0.49726 0.77105 0.39556
 C965 C 0.51304 0.77412 0.41245
 C966 C 0.51097 0.79192 0.42865
 C967 C 0.47607 0.80256 0.41028
 C968 C 0.49296 0.71458 0.40833
 C969 C 0.49517 0.69375 0.41991
 C970 C 0.52475 0.68379 0.39283
 C971 C 0.52187 0.70474 0.38174
 N972 N 0.50575 0.71945 0.38919
 H973 H 0.46686 0.78251 0.38048
 H974 H 0.52742 0.76292 0.41313
 H975 H 0.52392 0.79423 0.44175
 H976 H 0.46163 0.81339 0.40799
 H977 H 0.48096 0.72691 0.41471
 H978 H 0.48444 0.69061 0.43483
 H979 H 0.53745 0.67225 0.38619
 H980 H 0.53243 0.70897 0.36703
 C981 C 0.43134 0.74715 0.33416
 C982 C 0.56305 0.76299 0.32509
 C983 C 0.51104 0.67772 0.41192
 C984 C 0.49221 0.80641 0.42789
 B985 B -0.00699 0.01370 1.02267
 B986 B -0.02095 0.01242 0.99736
 B987 B 0.00349 0.02649 0.99890
 B988 B 0.02084 0.01260 1.01720
 B989 B 0.00648 -0.01099 1.02683
 B990 B -0.01977 -0.01074 1.01461
 B991 B 0.01116 -0.01436 0.97948
 B992 B 0.02511 -0.01293 1.00478
 B993 B 0.00068 -0.02712 1.00320
 B994 B -0.01675 -0.01324 0.98493
 B995 B -0.00241 0.01030 0.97526
 B996 B 0.02382 0.01020 0.98750
 B997 B 0.48426 0.50310 0.50801
 B998 B 0.47095 0.50088 0.48240
 B999 B 0.49470 0.51611 0.48443
 B1000 B 0.51223 0.50317 0.50325
 B1001 B 0.49870 0.47908 0.51281
 B1002 B 0.47283 0.47794 0.49994
 B1003 B 0.50463 0.47545 0.46559
 B1004 B 0.51791 0.47774 0.49125
 B1005 B 0.49420 0.46244 0.48921
 B1006 B 0.47660 0.47538 0.47035
 B1007 B 0.49012 0.49950 0.46083
 B1008 B 0.51603 0.50061 0.47370
 B1009 B 0.50119 0.97438 0.52684
 B1010 B 0.51322 0.97700 0.50048
 B1011 B 0.48952 0.96173 0.50364
 B1012 B 0.47299 0.97448 0.52376
 B1013 B 0.48706 0.99829 0.53304
 B1014 B 0.51224 0.99968 0.51858
 B1015 B 0.47885 1.00266 0.48629
 B1016 B 0.46687 1.00010 0.51265
 B1017 B 0.49045 1.01529 0.50950
 B1018 B 0.50698 1.00264 0.48935
 B1019 B 0.49299 0.97866 0.48008
 B1020 B 0.46777 0.97747 0.49450
 B1021 B 0.01160 0.49001 1.02408
 B1022 B 0.02572 0.49112 0.99877
 B1023 B 0.00244 0.47520 1.00103
 B1024 B -0.01618 0.48868 1.01845
 B1025 B -0.00379 0.51378 1.02685
 B1026 B 0.02250 0.51497 1.01478
 B1027 B -0.00810 0.51421 0.97936
 B1028 B -0.02223 0.51308 1.00467
 B1029 B 0.00105 0.52900 1.00242
 B1030 B 0.01970 0.51553 0.98499
 B1031 B 0.00729 0.49042 0.97657
 B1032 B -0.01902 0.48922 0.98865
 B1033 B 0.01363 0.50408 0.48323
 B1034 B 0.02598 0.50513 0.50959
 B1035 B 0.00255 0.52013 0.50466
 B1036 B -0.01451 0.50493 0.48687
 B1037 B -0.00112 0.47979 0.48104
 B1038 B 0.02424 0.48011 0.49512
 B1039 B -0.00891 0.48216 0.52804
 B1040 B -0.02115 0.48123 0.50176
 B1041 B 0.00219 0.46623 0.50674
 B1042 B 0.01922 0.48135 0.52450
 B1043 B 0.00589 0.50647 0.53037
 B1044 B -0.01946 0.50613 0.51632
 B1045 B 0.51017 0.01862 -0.02157
 B1046 B 0.52444 0.01318 0.00296
 B1047 B 0.50350 0.03211 0.00324
 B1048 B 0.48290 0.02298 -0.01473
 B1049 B 0.49151 -0.00257 -0.02617
 B1050 B 0.51769 -0.00835 -0.01531
 B1051 B 0.48812 -0.00715 0.02117
 B1052 B 0.47375 -0.00166 -0.00322
 B1053 B 0.49469 -0.02066 -0.00359
 B1054 B 0.51534 -0.01147 0.01435
 B1055 B 0.50662 0.01400 0.02579
 B1056 B 0.48060 0.01981 0.01495
 B1057 B 0.49083 0.49275 -0.02513
 B1058 B 0.47741 0.49601 0.00050
 B1059 B 0.49792 0.47672 -0.00205
 B1060 B 0.51812 0.48714 -0.01988
 B1061 B 0.50978 0.51367 -0.02818
 B1062 B 0.48418 0.51911 -0.01548
 B1063 B 0.51494 0.51380 0.01924
 B1064 B 0.52832 0.51041 -0.00633
 B1065 B 0.50776 0.52976 -0.00381
 B1066 B 0.48761 0.51931 0.01409
 B1067 B 0.49602 0.49279 0.02244
 B1068 B 0.52152 0.48734 0.00975
 B1069 B -0.00135 0.97923 0.47661
 B1070 B -0.01881 0.98509 0.49874
 B1071 B 0.00330 0.96813 0.50299
 B1072 B 0.02512 0.97767 0.48686
 B1073 B 0.01604 1.00145 0.47250
 B1074 B -0.01157 1.00584 0.47982
 B1075 B 0.01353 1.00967 0.51945
 B1076 B 0.03097 1.00374 0.49730
 B1077 B 0.00890 1.02083 0.49308
 B1078 B -0.01297 1.01124 0.50923
 B1079 B -0.00391 0.98744 0.52355
 B1080 B 0.02366 0.98310 0.51620
 B1081 B 0.76855 0.23342 0.22248
 B1082 B 0.76308 0.21812 0.24649
 B1083 B 0.78179 0.23947 0.24752
 B1084 B 0.77277 0.26079 0.23019
 B1085 B 0.74767 0.25217 0.21853
 B1086 B 0.74189 0.22536 0.22856
 B1087 B 0.74288 0.25420 0.26604
 B1088 B 0.74827 0.26952 0.24196
 B1089 B 0.72959 0.24801 0.24098
 B1090 B 0.73866 0.22673 0.25824
 B1091 B 0.76362 0.23548 0.26999
 B1092 B 0.76959 0.26223 0.25982
 B1093 B 0.74331 0.76783 0.73149
 B1094 B 0.74433 0.78024 0.75789
 B1095 B 0.72653 0.75850 0.75309
 B1096 B 0.73898 0.73962 0.73495
 B1097 B 0.76521 0.75009 0.72882
 B1098 B 0.76836 0.77557 0.74309
 B1099 B 0.76261 0.74243 0.77578
 B1100 B 0.76148 0.73005 0.74943
 B1101 B 0.77928 0.75167 0.75427
 B1102 B 0.76693 0.77062 0.77239
 B1103 B 0.74068 0.76011 0.77857
 B1104 B 0.73750 0.73464 0.76441
 B1105 B 0.24827 0.26106 0.77348
 B1106 B 0.24484 0.27354 0.74744
 B1107 B 0.26128 0.25052 0.74976
 B1108 B 0.24984 0.23264 0.76965
 B1109 B 0.22555 0.24502 0.77944
 B1110 B 0.22266 0.27063 0.76562
 B1111 B 0.22138 0.23718 0.73254
 B1112 B 0.22485 0.22474 0.75861
 B1113 B 0.20844 0.24769 0.75612
 B1114 B 0.21983 0.26560 0.73637
 B1115 B 0.24404 0.25330 0.72653
 B1116 B 0.24701 0.22762 0.74033
 B1117 B 0.23727 0.74308 0.26984
 B1118 B 0.24096 0.72980 0.24416
 B1119 B 0.22357 0.75209 0.24604
 B1120 B 0.23439 0.77124 0.26496
 B1121 B 0.25920 0.76040 0.27477
 B1122 B 0.26322 0.73441 0.26181
 B1123 B 0.26265 0.76653 0.22752
 B1124 B 0.25891 0.77985 0.25314
 B1125 B 0.27632 0.75752 0.25130
 B1126 B 0.26548 0.73838 0.23237
 B1127 B 0.24069 0.74925 0.22255
 B1128 B 0.23667 0.77522 0.23548
 B1129 B 0.26365 0.73299 0.73191
 B1130 B 0.25961 0.71876 0.75696
 B1131 B 0.27682 0.74148 0.75635
 B1132 B 0.26611 0.76103 0.73799
 B1133 B 0.24156 0.75003 0.72726
 B1134 B 0.23771 0.72351 0.73900
 B1135 B 0.23721 0.75448 0.77463
 B1136 B 0.24127 0.76874 0.74965
 B1137 B 0.22408 0.74600 0.75022
 B1138 B 0.23478 0.72646 0.76857
 B1139 B 0.25934 0.73746 0.77930
 B1140 B 0.26318 0.76398 0.76758
 B1141 B 0.24192 0.25898 0.23132
 B1142 B 0.24585 0.27437 0.25564
 B1143 B 0.22743 0.25272 0.25554
 B1144 B 0.23764 0.23151 0.23873
 B1145 B 0.26327 0.24044 0.22842
 B1146 B 0.26811 0.26743 0.23879
 B1147 B 0.26537 0.23865 0.27605
 B1148 B 0.26138 0.22319 0.25184
 B1149 B 0.27990 0.24478 0.25184
 B1150 B 0.26970 0.26607 0.26864
 B1151 B 0.24412 0.25704 0.27895
 B1152 B 0.23916 0.23023 0.26857
 B1153 B 0.76293 0.76355 0.27731
 B1154 B 0.76297 0.77485 0.25049
 B1155 B 0.77783 0.75135 0.25591
 B1156 B 0.76349 0.73490 0.27500
 B1157 B 0.73896 0.74879 0.28123
 B1158 B 0.73883 0.77388 0.26602
 B1159 B 0.73955 0.73904 0.23450
 B1160 B 0.73953 0.72765 0.26129
 B1161 B 0.72464 0.75117 0.25591
 B1162 B 0.73901 0.76766 0.23684
 B1163 B 0.76351 0.75374 0.23060
 B1164 B 0.76364 0.72868 0.24574
 B1165 B 0.72247 0.24608 0.77156
 B1166 B 0.72724 0.23226 0.74639
 B1167 B 0.70974 0.25458 0.74700
 B1168 B 0.71982 0.27414 0.76595
 B1169 B 0.74426 0.26353 0.77700
 B1170 B 0.74867 0.23724 0.76492
 B1171 B 0.74955 0.26863 0.72985
 B1172 B 0.74483 0.28247 0.75501
 B1173 B 0.76226 0.26010 0.75440
 B1174 B 0.75219 0.24060 0.73547
 B1175 B 0.72776 0.25122 0.72436
 B1176 B 0.72334 0.27752 0.73649
 C1177 C 0.43480 1.02985 0.34045
 C1178 C 0.42540 1.02797 0.36272
 C1179 C 0.43896 1.02886 0.38410
 N1180 N 0.42866 1.02705 0.40520
 N1181 N 0.44072 1.02533 0.42468
 C1182 C 0.46354 1.02531 0.42379
 N1183 N 0.47386 1.02748 0.40270
 N1184 N 0.46179 1.02926 0.38320
 C1185 C 0.47691 1.02042 0.44474
 C1186 C 0.46669 1.01616 0.46625
 H1187 H 0.40760 1.02433 0.36456
 H1188 H 0.49478 1.01754 0.44255
 H1189 H 0.45202 1.03566 0.33847
 H1190 H 0.44890 1.01933 0.46839
 C1191 C -0.06030 0.51885 0.83487
 C1192 C -0.06230 0.53416 0.85364
 C1193 C -0.04768 0.53246 0.87428
 N1194 N -0.05393 0.54235 0.89477
 N1195 N -0.04170 0.53950 0.91403
 C1196 C -0.02267 0.52679 0.91341
 N1197 N -0.01619 0.51731 0.89283
 N1198 N -0.02848 0.52005 0.87363
 C1199 C -0.01000 0.52160 0.93472
 C1200 C -0.01834 0.52609 0.95708
 H1201 H -0.07594 0.54619 0.85477
 H1202 H 0.00521 0.51171 0.93269
 H1203 H -0.04677 0.50655 0.83587
 H1204 H -0.03352 0.53598 0.95921
 C1205 C 0.06055 -0.02170 0.83408
 C1206 C 0.06725 -0.03125 0.85527
 C1207 C 0.05223 -0.03177 0.87576
 N1208 N 0.06021 -0.03860 0.89680
 N1209 N 0.04730 -0.03750 0.91586
 C1210 C 0.02589 -0.02966 0.91454
 N1211 N 0.01779 -0.02322 0.89344
 N1212 N 0.03070 -0.02426 0.87440
 C1213 C 0.01233 -0.02565 0.93566
 C1214 C 0.02124 -0.02787 0.95804
 H1215 H 0.08408 -0.03777 0.85738
 H1216 H -0.00396 -0.01776 0.93344
 H1217 H 0.04323 -0.01633 0.83222
 H1218 H 0.03743 -0.03590 0.96032
 C1219 C 0.56341 0.48178 0.32531
 C1220 C 0.56826 0.46941 0.34550
 C1221 C 0.55183 0.46650 0.36454
 N1222 N 0.55842 0.45735 0.38517
 N1223 N 0.54422 0.45616 0.40320
 C1224 C 0.52283 0.46391 0.40118
 N1225 N 0.51612 0.47264 0.38041
 N1226 N 0.53034 0.47392 0.36242
 C1227 C 0.50787 0.46560 0.42159
 C1228 C 0.51562 0.46238 0.44432
 H1229 H 0.58479 0.46223 0.34799
 H1230 H 0.49153 0.47323 0.41887
 H1231 H 0.54640 0.48773 0.32257
 H1232 H 0.53179 0.45448 0.44710
 C1233 C 0.59797 0.51093 0.14876
 C1234 C 0.57980 0.52423 0.14174
 C1235 C 0.57200 0.52366 0.11732
 N1236 N 0.55229 0.53361 0.11124
 N1237 N 0.54447 0.53173 0.08947
 C1238 C 0.55617 0.51990 0.07302
 N1239 N 0.57599 0.51030 0.07903
 N1240 N 0.58377 0.51216 0.10072
 C1241 C 0.54715 0.51561 0.04958
 C1242 C 0.52647 0.52376 0.04195
 H1243 H 0.57017 0.53384 0.15440
 H1244 H 0.55664 0.50413 0.03849
 H1245 H 0.60644 0.50061 0.13573
 H1246 H 0.51690 0.53533 0.05284
 C1247 C 0.06472 1.02137 0.66421
 C1248 C 0.07206 1.02017 0.64110
 C1249 C 0.05674 1.02313 0.62125
 N1250 N 0.06526 1.02551 0.59937
 N1251 N 0.05166 1.02614 0.58093
 C1252 C 0.02902 1.02431 0.58367
 N1253 N 0.02047 1.02211 0.60559
 N1254 N 0.03407 1.02166 0.62406
 C1255 C 0.01428 1.02147 0.56327
 C1256 C 0.02248 1.02435 0.54063
 H1257 H 0.08954 1.01647 0.63740
 H1258 H -0.00210 1.01375 0.56602
 H1259 H 0.04793 1.02746 0.66803
 H1260 H 0.03826 1.03329 0.53809
 C1261 C -0.09144 0.48758 0.65822
 C1262 C -0.06948 0.48165 0.65220
 C1263 C -0.06261 0.47880 0.62761
 N1264 N -0.04130 0.47239 0.62223
 N1265 N -0.03462 0.47097 0.59999
 C1266 C -0.04906 0.47585 0.58234
 N1267 N -0.07039 0.48203 0.58774
 N1268 N -0.07707 0.48341 0.60993
 C1269 C -0.04146 0.47706 0.55792
 C1270 C -0.01956 0.47188 0.55105
 H1271 H -0.05700 0.47909 0.66566
 H1272 H -0.05278 0.48490 0.54560
 H1273 H -0.10400 0.48847 0.64457
 H1274 H -0.00829 0.46381 0.56331
 C1275 C 0.44479 -0.02022 0.16790
 C1276 C 0.43729 -0.03028 0.14717
 C1277 C 0.45111 -0.03027 0.12585
 N1278 N 0.44149 -0.03525 0.10496
 N1279 N 0.45320 -0.03320 0.08518
 C1280 C 0.47501 -0.02623 0.08562
 N1281 N 0.48476 -0.02176 0.10655
 N1282 N 0.47302 -0.02369 0.12631
 C1283 C 0.48743 -0.02135 0.06400
 C1284 C 0.47670 -0.01972 0.04245
 H1285 H 0.42037 -0.03690 0.14577
 H1286 H 0.50486 -0.01613 0.06561
 H1287 H 0.46217 -0.01470 0.16902
 H1288 H 0.45923 -0.02471 0.04083
 C1289 C 0.34030 0.43046 -0.00539
 C1290 C 0.35383 0.43927 0.01234
 C1291 C 0.37638 0.44828 0.00711
 N1292 N 0.38724 0.46182 0.02273
 N1293 N 0.40784 0.46971 0.01809
 C1294 C 0.41833 0.46414 -0.00227
 N1295 N 0.40754 0.45047 -0.01776
 N1296 N 0.38692 0.44276 -0.01321
 C1297 C 0.44132 0.47173 -0.00746
 C1298 C 0.45200 0.48917 0.00483
 H1299 H 0.34769 0.43996 0.03018
 H1300 H 0.45011 0.46279 -0.02119
 H1301 H 0.34584 0.43213 -0.02338
 H1302 H 0.44296 0.49810 0.01850
 C1303 C -0.16744 0.95250 0.49989
 C1304 C -0.14728 0.94370 0.49136
 C1305 C -0.12557 0.95539 0.49392
 N1306 N -0.10645 0.94397 0.48868
 N1307 N -0.08649 0.95401 0.49097
 C1308 C -0.08486 0.97590 0.49851
 N1309 N -0.10400 0.98744 0.50360
 N1310 N -0.12403 0.97733 0.50142
 C1311 C -0.06275 0.98700 0.50079
 C1312 C -0.04307 0.97435 0.49893
 H1313 H -0.14703 0.92683 0.48367
 H1314 H -0.06195 1.00522 0.50374
 H1315 H -0.16732 0.96841 0.50954
 H1316 H -0.04416 0.95606 0.49668
 C1317 C -0.16013 0.07094 0.97581
 C1318 C -0.14001 0.07513 0.98779
 C1319 C -0.12013 0.06047 0.98590
 N1320 N -0.10080 0.06729 0.99629
 N1321 N -0.08268 0.05412 0.99579
 C1322 C -0.08316 0.03352 0.98497
 N1323 N -0.10253 0.02661 0.97453
 N1324 N -0.12072 0.03987 0.97497
 C1325 C -0.06313 0.01882 0.98508
 C1326 C -0.04304 0.02680 0.99460
 H1327 H -0.13797 0.08988 0.99889
 H1328 H -0.06425 0.00171 0.97804
 H1329 H -0.16011 0.05713 0.96317
 H1330 H -0.04222 0.04411 1.00112
 C1331 C 0.33110 0.55873 0.49684
 C1332 C 0.35170 0.56449 0.48664
 C1333 C 0.37109 0.54906 0.48659
 N1334 N 0.39024 0.55528 0.47531
 N1335 N 0.40826 0.54190 0.47566
 C1336 C 0.40780 0.52179 0.48733
 N1337 N 0.38862 0.51552 0.49857
 N1338 N 0.37057 0.52889 0.49818
 C1339 C 0.42795 0.50745 0.48885
 C1340 C 0.44804 0.51350 0.47784
 H1341 H 0.35377 0.58082 0.47813
 H1342 H 0.42722 0.49247 0.49985
 H1343 H 0.32861 0.54167 0.50358
 H1344 H 0.44862 0.52835 0.46666
 C1345 C 0.15917 0.57773 0.49623
 C1346 C 0.14644 0.56964 0.51501
 C1347 C 0.12373 0.56019 0.51144
 N1348 N 0.11362 0.54765 0.52842
 N1349 N 0.09311 0.53893 0.52514
 C1350 C 0.08194 0.54264 0.50482
 N1351 N 0.09197 0.55537 0.48798
 N1352 N 0.11249 0.56392 0.49119
 C1353 C 0.05938 0.53324 0.50063
 C1354 C 0.04970 0.51648 0.51468
 H1355 H 0.15347 0.56943 0.53245
 H1356 H 0.05060 0.53938 0.48545
 H1357 H 0.15259 0.57574 0.47869
 H1358 H 0.05886 0.51034 0.52971
 C1359 C 0.67056 0.05614 -0.00330
 C1360 C 0.65078 0.06121 0.00873
 C1361 C 0.62974 0.04840 0.00537
 N1362 N 0.61159 0.05364 0.01868
 N1363 N 0.59198 0.04322 0.01517
 C1364 C 0.58969 0.02721 -0.00184
 N1365 N 0.60787 0.02188 -0.01515
 N1366 N 0.62757 0.03229 -0.01161
 C1367 C 0.56768 0.01645 -0.00633
 C1368 C 0.54916 0.02170 0.00759
 H1369 H 0.65044 0.07539 0.02085
 H1370 H 0.56587 0.00499 -0.02109
 H1371 H 0.67142 0.04071 -0.01370
 H1372 H 0.55135 0.03285 0.02253
 C1373 C 0.66137 0.94689 0.49537
 C1374 C 0.64114 0.93651 0.50174
 C1375 C 0.61919 0.94716 0.49803
 N1376 N 0.60021 0.93497 0.50225
 N1377 N 0.58008 0.94438 0.49953
 C1378 C 0.57819 0.96636 0.49250
 N1379 N 0.59718 0.97858 0.48824
 N1380 N 0.61735 0.96913 0.49088
 C1381 C 0.55606 0.97726 0.49099
 C1382 C 0.53634 0.96503 0.49522
 H1383 H 0.64124 0.91951 0.50904
 H1384 H 0.55544 0.99550 0.48827
 H1385 H 0.66116 0.96296 0.48611
 H1386 H 0.53726 0.94683 0.49778
 C1387 C 0.16812 0.43990 1.01161
 C1388 C 0.14768 0.43325 1.00183
 C1389 C 0.12741 0.44733 1.00313
 N1390 N 0.10871 0.44068 0.99141
 N1391 N 0.08995 0.45289 0.99271
 C1392 C 0.08917 0.47218 1.00583
 N1393 N 0.10788 0.47885 1.01758
 N1394 N 0.12669 0.46666 1.01623
 C1395 C 0.06830 0.48530 1.00792
 C1396 C 0.04916 0.47928 0.99532
 H1397 H 0.14647 0.41730 0.99237
 H1398 H 0.06782 0.49948 1.02006
 H1399 H 0.16980 0.45675 1.01921
 H1400 H 0.04988 0.46533 0.98291
 C1401 C 0.01220 0.32551 0.44650
 C1402 C -0.00439 0.34038 0.45455
 C1403 C 0.00137 0.36167 0.46701
 N1404 N -0.01505 0.37438 0.47710
 N1405 N -0.01021 0.39443 0.48695
 C1406 C 0.01124 0.40255 0.48700
 N1407 N 0.02765 0.38978 0.47701
 N1408 N 0.02283 0.36969 0.46731
 C1409 C 0.01648 0.42582 0.49510
 C1410 C 0.00090 0.43926 0.50703
 H1411 H -0.02195 0.33666 0.45132
 H1412 H 0.03226 0.43325 0.48938
 H1413 H 0.02945 0.32851 0.45179
 H1414 H -0.01427 0.43144 0.51385
 C1415 C 0.50809 -0.16261 -0.06153
 C1416 C 0.49050 -0.14829 -0.05476
 C1417 C 0.49469 -0.12652 -0.04251
 N1418 N 0.47722 -0.11287 -0.03648
 N1419 N 0.48088 -0.09263 -0.02651
 C1420 C 0.50219 -0.08530 -0.02219
 N1421 N 0.51962 -0.09902 -0.02805
 N1422 N 0.51596 -0.11924 -0.03799
 C1423 C 0.50677 -0.06229 -0.01298
 C1424 C 0.48975 -0.04692 -0.00739
 H1425 H 0.47327 -0.15267 -0.05885
 H1426 H 0.52417 -0.05679 -0.01219
 H1427 H 0.52498 -0.15823 -0.05601
 H1428 H 0.47242 -0.05257 -0.00754
 C1429 C -0.02062 -0.16436 1.06983
 C1430 C -0.00365 -0.15221 1.05831
 C1431 C -0.00775 -0.13046 1.04630
 N1432 N 0.00923 -0.12017 1.03435
 N1433 N 0.00630 -0.09980 1.02463
 C1434 C -0.01373 -0.08892 1.02652
 N1435 N -0.03076 -0.09927 1.03833
 N1436 N -0.02786 -0.11968 1.04800
 C1437 C -0.01658 -0.06550 1.01787
 C1438 C 0.00041 -0.05394 1.00581
 H1439 H 0.01339 -0.15863 1.05832
 H1440 H -0.03176 -0.05657 1.02285
 H1441 H -0.03793 -0.15899 1.06798
 H1442 H 0.01529 -0.06306 1.00029
 C1443 C 0.47155 0.32664 0.55814
 C1444 C 0.48916 0.33916 0.54816
 C1445 C 0.48554 0.36014 0.53460
 N1446 N 0.50335 0.37095 0.52460
 N1447 N 0.50067 0.39072 0.51357
 C1448 C 0.48004 0.40046 0.51212
 N1449 N 0.46219 0.38955 0.52196
 N1450 N 0.46486 0.36975 0.53294
 C1451 C 0.47713 0.42336 0.50209
 C1452 C 0.49497 0.43567 0.49234
 H1453 H 0.50634 0.33368 0.55064
 H1454 H 0.46094 0.43145 0.50439
 H1455 H 0.45437 0.33105 0.55390
 H1456 H 0.51096 0.42736 0.48948
 C1457 C 0.49960 1.15309 0.57787
 C1458 C 0.49078 1.14511 0.55675
 C1459 C 0.49440 1.12137 0.54910
 N1460 N 0.48333 1.11284 0.53024
 N1461 N 0.48589 1.09111 0.52389
 C1462 C 0.49969 1.07716 0.53615
 N1463 N 0.51089 1.08576 0.55482
 N1464 N 0.50830 1.10741 0.56117
 C1465 C 0.50207 1.05286 0.53040
 C1466 C 0.49014 1.04209 0.51252
 H1467 H 0.48005 1.15585 0.54630
 H1468 H 0.51286 1.04285 0.54157
 H1469 H 0.50922 1.14141 0.58850
 H1470 H 0.47919 1.05188 0.50135
 C1471 C 0.01198 0.66413 1.07100
 C1472 C 0.00014 0.65693 1.05125
 C1473 C 0.00488 0.63470 1.04030
 N1474 N -0.01021 0.62492 1.02554
 N1475 N -0.00658 0.60417 1.01678
 C1476 C 0.01238 0.59255 1.02233
 N1477 N 0.02762 0.60252 1.03671
 N1478 N 0.02394 0.62317 1.04554
 C1479 C 0.01603 0.56893 1.01466
 C1480 C -0.00050 0.55588 1.00365
 H1481 H -0.01387 0.66679 1.04484
 H1482 H 0.03154 0.56095 1.02009
 H1483 H 0.02463 0.65295 1.07821
 H1484 H -0.01604 0.56377 0.99821
 C1485 C 0.51917 0.66190 -0.07979
 C1486 C 0.51495 0.65668 -0.05633
 C1487 C 0.51798 0.63334 -0.04737
 N1488 N 0.50921 0.62713 -0.02633
 N1489 N 0.51107 0.60574 -0.01872
 C1490 C 0.52195 0.58987 -0.03182
 N1491 N 0.53097 0.59620 -0.05263
 N1492 N 0.52903 0.61748 -0.06027
 C1493 C 0.52297 0.56577 -0.02501
 C1494 C 0.51168 0.55647 -0.00577
 H1495 H 0.50806 0.66943 -0.04469
 H1496 H 0.53161 0.55451 -0.03705
 H1497 H 0.52429 0.64830 -0.09147
 H1498 H 0.50299 0.56750 0.00643
 C1499 C 0.01944 1.15683 0.41934
 C1500 C 0.00977 1.14858 0.44011
 C1501 C 0.01241 1.12462 0.44736
 N1502 N 0.00530 1.11775 0.46883
 N1503 N 0.00681 1.09595 0.47516
 C1504 C 0.01539 1.08021 0.46018
 N1505 N 0.02250 1.08709 0.43876
 N1506 N 0.02110 1.10886 0.43249
 C1507 C 0.01599 1.05583 0.46605
 C1508 C 0.01121 1.04731 0.48830
 H1509 H 0.00008 1.15944 0.45156
 H1510 H 0.01983 1.04413 0.45194
 H1511 H 0.03041 1.14523 0.40996
 H1512 H 0.00762 1.05894 0.50254
 C1513 C 0.77018 0.69528 0.92374
 C1514 C 0.78083 0.68860 0.90304
 C1515 C 0.77964 0.70243 0.88170
 N1516 N 0.78558 0.69325 0.86076
 N1517 N 0.78316 0.70510 0.84108
 C1518 C 0.77483 0.72659 0.84169
 N1519 N 0.76926 0.73588 0.86264
 N1520 N 0.77158 0.72401 0.88229
 C1521 C 0.77042 0.73941 0.82021
 C1522 C 0.77217 0.72980 0.79795
 H1523 H 0.78836 0.67190 0.90170
 H1524 H 0.76383 0.75649 0.82219
 H1525 H 0.76115 0.71127 0.92416
 H1526 H 0.77886 0.71283 0.79585
 C1527 C 0.27419 0.19501 0.42388
 C1528 C 0.28508 0.18849 0.40327
 C1529 C 0.28481 0.20263 0.38213
 N1530 N 0.29164 0.19361 0.36144
 N1531 N 0.28945 0.20531 0.34166
 C1532 C 0.28046 0.22652 0.34190
 N1533 N 0.27407 0.23573 0.36265
 N1534 N 0.27615 0.22399 0.38241
 C1535 C 0.27569 0.23871 0.32011
 C1536 C 0.27689 0.22809 0.29830
 H1537 H 0.29258 0.17180 0.40182
 H1538 H 0.26869 0.25566 0.32155
 H1539 H 0.26812 0.21231 0.42561
 H1540 H 0.28380 0.21112 0.29683
 C1541 C 0.74433 0.33063 0.39972
 C1542 C 0.73023 0.31312 0.39189
 C1543 C 0.73050 0.30632 0.36705
 N1544 N 0.72101 0.28638 0.35993
 N1545 N 0.72256 0.27973 0.33763
 C1546 C 0.73351 0.29292 0.32171
 N1547 N 0.74256 0.31299 0.32878
 N1548 N 0.74106 0.31957 0.35097
 C1549 C 0.73782 0.28531 0.29768
 C1550 C 0.73106 0.26428 0.28864
 H1551 H 0.71980 0.30363 0.40398
 H1552 H 0.74888 0.29609 0.28743
 H1553 H 0.75557 0.33856 0.38716
 H1554 H 0.72007 0.25329 0.29872
 C1555 C 0.23614 0.80682 0.91855
 C1556 C 0.22276 0.81150 0.89913
 C1557 C 0.22197 0.79632 0.87867
 N1558 N 0.21372 0.80410 0.85810
 N1559 N 0.21429 0.79110 0.83898
 C1560 C 0.22294 0.76975 0.83980
 N1561 N 0.23073 0.76180 0.86049
 N1562 N 0.23030 0.77484 0.87958
 C1563 C 0.22599 0.75607 0.81849
 C1564 C 0.22483 0.76567 0.79624
 H1565 H 0.21424 0.82769 0.89782
 H1566 H 0.23245 0.73897 0.82053
 H1567 H 0.24614 0.79144 0.91862
 H1568 H 0.21885 0.78293 0.79441
 C1569 C 0.26911 0.84564 0.09474
 C1570 C 0.27653 0.82437 0.10254
 C1571 C 0.27637 0.81849 0.12757
 N1572 N 0.28363 0.79774 0.13466
 N1573 N 0.28208 0.79166 0.15706
 C1574 C 0.27323 0.80615 0.17318
 N1575 N 0.26622 0.82696 0.16613
 N1576 N 0.26781 0.83304 0.14378
 C1577 C 0.26889 0.79891 0.19734
 C1578 C 0.27475 0.77743 0.20561
 H1579 H 0.28205 0.81139 0.09043
 H1580 H 0.25864 0.81000 0.20811
 H1581 H 0.26517 0.85832 0.10792
 H1582 H 0.28526 0.76643 0.19503
 C1583 C 0.76031 0.31731 0.58335
 C1584 C 0.76587 0.32547 0.60566
 C1585 C 0.76690 0.31061 0.62631
 N1586 N 0.77105 0.31991 0.64761
 N1587 N 0.77057 0.30710 0.66678
 C1588 C 0.76602 0.28445 0.66536
 N1589 N 0.76221 0.27507 0.64401
 N1590 N 0.76264 0.28790 0.62482
 C1591 C 0.76292 0.27063 0.68656
 C1592 C 0.76207 0.28053 0.70875
 H1593 H 0.76924 0.34331 0.60871
 H1594 H 0.75829 0.25288 0.68435
 H1595 H 0.75863 0.29904 0.58111
 H1596 H 0.76633 0.29835 0.71066
 C1597 C 0.22931 0.16112 0.60145
 C1598 C 0.21580 0.17935 0.60834
 C1599 C 0.21293 0.18497 0.63329
 N1600 N 0.20402 0.20526 0.63989
 N1601 N 0.20321 0.21116 0.66242
 C1602 C 0.21112 0.19688 0.67913
 N1603 N 0.21951 0.17642 0.67254
 N1604 N 0.22037 0.17056 0.65008
 C1605 C 0.21357 0.20412 0.70357
 C1606 C 0.20852 0.22604 0.71123
 H1607 H 0.20857 0.19065 0.59552
 H1608 H 0.22299 0.19291 0.71478
 H1609 H 0.23723 0.15105 0.61495
 H1610 H 0.19903 0.23729 0.70003
 C1611 C 0.73884 0.66088 0.10065
 C1612 C 0.73706 0.68342 0.10846
 C1613 C 0.73456 0.68884 0.13347
 N1614 N 0.72906 0.71027 0.14027
 N1615 N 0.72807 0.71571 0.16288
 C1616 C 0.73260 0.69992 0.17953
 N1617 N 0.73800 0.67848 0.17273
 N1618 N 0.73885 0.67301 0.15013
 C1619 C 0.73444 0.70636 0.20427
 C1620 C 0.72834 0.72787 0.21231
 H1621 H 0.73707 0.69757 0.09643
 H1622 H 0.74340 0.69488 0.21566
 H1623 H 0.73613 0.64768 0.11363
 H1624 H 0.71882 0.73901 0.20102
 C1625 C 0.16574 0.59641 0.24795
 C1626 C 0.18342 0.60509 0.23454
 C1627 C 0.19071 0.62897 0.23722
 N1628 N 0.20986 0.63651 0.22675
 N1629 N 0.21686 0.65792 0.22983
 C1630 C 0.20492 0.67254 0.24347
 N1631 N 0.18571 0.66505 0.25375
 N1632 N 0.17876 0.64368 0.25070
 C1633 C 0.21242 0.69604 0.24766
 C1634 C 0.23264 0.70468 0.23902
 H1635 H 0.19287 0.59408 0.22296
 H1636 H 0.20176 0.70663 0.25847
 H1637 H 0.15757 0.60759 0.26043
 H1638 H 0.24338 0.69394 0.22843
 C1639 C 0.65617 0.09617 0.74437
 C1640 C 0.67831 0.10410 0.74206
 C1641 C 0.68348 0.12863 0.74267
 N1642 N 0.70475 0.13605 0.73847
 N1643 N 0.70967 0.15820 0.73942
 C1644 C 0.69350 0.17370 0.74464
 N1645 N 0.67226 0.16627 0.74884
 N1646 N 0.66734 0.14415 0.74784
 C1647 C 0.69873 0.19806 0.74667
 C1648 C 0.72006 0.20673 0.74188
 H1649 H 0.69228 0.09267 0.73955
 H1650 H 0.68558 0.20911 0.75301
 H1651 H 0.64315 0.10901 0.74559
 H1652 H 0.73302 0.19535 0.73554
 C1653 C 0.83436 0.08569 0.27489
 C1654 C 0.82532 0.09813 0.25649
 C1655 C 0.81292 0.11944 0.25979
 N1656 N 0.80286 0.12918 0.24112
 N1657 N 0.79235 0.14902 0.24331
 C1658 C 0.79155 0.15993 0.26426
 N1659 N 0.80158 0.15017 0.28300
 N1660 N 0.81205 0.13023 0.28083
 C1661 C 0.78116 0.18252 0.26632
 C1662 C 0.77044 0.19245 0.24731
 H1663 H 0.82721 0.09193 0.23875
 H1664 H 0.78294 0.19182 0.28258
 H1665 H 0.83066 0.09053 0.29279
 H1666 H 0.76798 0.18260 0.23148
 C1667 C 0.33250 0.58561 0.74413
 C1668 C 0.31403 0.59281 0.75726
 C1669 C 0.30754 0.61702 0.75739
 N1670 N 0.28756 0.62368 0.76666
 N1671 N 0.28149 0.64553 0.76613
 C1672 C 0.29526 0.66148 0.75640
 N1673 N 0.31529 0.65485 0.74741
 N1674 N 0.32130 0.63306 0.74788
 C1675 C 0.28878 0.68552 0.75472
 C1676 C 0.26758 0.69340 0.76106
 H1677 H 0.30379 0.58073 0.76683
 H1678 H 0.30089 0.69704 0.74697
 H1679 H 0.34137 0.59817 0.73369
 H1680 H 0.25544 0.68163 0.76847
 C1681 C 0.32823 0.40165 0.73503
 C1682 C 0.30518 0.39674 0.73484
 C1683 C 0.29712 0.37319 0.73801
 N1684 N 0.27545 0.36752 0.73323
 N1685 N 0.26809 0.34626 0.73649
 C1686 C 0.28213 0.32999 0.74480
 N1687 N 0.30370 0.33571 0.74973
 N1688 N 0.31107 0.35688 0.74633
 C1689 C 0.27439 0.30664 0.74929
 C1690 C 0.25376 0.29830 0.74155
 H1691 H 0.29280 0.40989 0.73221
 H1692 H 0.28538 0.29590 0.75935
 H1693 H 0.33963 0.38731 0.73565
 H1694 H 0.24291 0.30921 0.73139
 C1695 C 0.81766 0.91813 0.24434
 C1696 C 0.82255 0.89680 0.23484
 C1697 C 0.80743 0.87709 0.23748
 N1698 N 0.81426 0.85636 0.22985
 N1699 N 0.80141 0.83802 0.23311
 C1700 C 0.78120 0.83969 0.24410
 N1701 N 0.77422 0.86048 0.25152
 N1702 N 0.78713 0.87885 0.24832
 C1703 C 0.76742 0.81929 0.24866
 C1704 C 0.77588 0.79758 0.24447
 H1705 H 0.83827 0.89399 0.22577
 H1706 H 0.75084 0.82136 0.25624
 H1707 H 0.80124 0.92086 0.25210
 H1708 H 0.79244 0.79579 0.23679
 C1709 C 0.68835 0.92231 0.74804
 C1710 C 0.69028 0.90522 0.76488
 C1711 C 0.70350 0.88446 0.76071
 N1712 N 0.70356 0.86776 0.77704
 N1713 N 0.71446 0.84836 0.77314
 C1714 C 0.72576 0.84492 0.75276
 N1715 N 0.72587 0.86170 0.73649
 N1716 N 0.71493 0.88112 0.74038
 C1717 C 0.73683 0.82308 0.74777
 C1718 C 0.73548 0.80495 0.76336
 H1719 H 0.68131 0.90616 0.78127
 H1720 H 0.74540 0.82107 0.73121
 H1721 H 0.69829 0.92052 0.73220
 H1722 H 0.72775 0.80759 0.78029
 C1723 C 0.19814 0.41999 0.24384
 C1724 C 0.19635 0.40099 0.25829
 C1725 C 0.20930 0.38003 0.25480
 N1726 N 0.20667 0.36276 0.27024
 N1727 N 0.21703 0.34300 0.26688
 C1728 C 0.23039 0.33966 0.24789
 N1729 N 0.23318 0.35700 0.23246
 N1730 N 0.22280 0.37686 0.23584
 C1731 C 0.24093 0.31735 0.24373
 C1732 C 0.23716 0.29941 0.25918
 H1733 H 0.18441 0.40115 0.27264
 H1734 H 0.25098 0.31478 0.22812
 H1735 H 0.21148 0.42090 0.23092
 H1736 H 0.22738 0.30243 0.27485
 C1737 C 0.06913 0.26762 0.81554
 C1738 C 0.08204 0.25005 0.80599
 C1739 C 0.10395 0.25405 0.79463
 N1740 N 0.11548 0.23622 0.78544
 N1741 N 0.13599 0.23921 0.77647
 C1742 C 0.14576 0.26017 0.77637
 N1743 N 0.13417 0.27803 0.78538
 N1744 N 0.11364 0.27505 0.79432
 C1745 C 0.16910 0.26346 0.76834
 C1746 C 0.18207 0.24566 0.75944
 H1747 H 0.07624 0.23260 0.80736
 H1748 H 0.17666 0.28009 0.77098
 H1749 H 0.07405 0.28514 0.81234
 H1750 H 0.17428 0.22927 0.75613
 C1751 C 0.58423 0.76768 0.31208
 C1752 C 0.59549 0.75177 0.29812
 C1753 C 0.61828 0.75623 0.28882
 N1754 N 0.62929 0.73985 0.27655
 N1755 N 0.65040 0.74318 0.26932
 C1756 C 0.66129 0.76305 0.27410
 N1757 N 0.65021 0.77948 0.28616
 N1758 N 0.62913 0.77617 0.29336
 C1759 C 0.68519 0.76645 0.26814
 C1760 C 0.69801 0.75013 0.25641
 H1761 H 0.58831 0.73507 0.29511
 H1762 H 0.69327 0.78170 0.27479
 H1763 H 0.59229 0.78400 0.31518
 H1764 H 0.68991 0.73505 0.24939
 C1765 C 0.59562 0.26464 0.16920
 C1766 C 0.60272 0.25741 0.19127
 C1767 C 0.62651 0.25913 0.19851
 N1768 N 0.63325 0.25023 0.21924
 N1769 N 0.65482 0.25110 0.22557
 C1770 C 0.67045 0.26098 0.21142
 N1771 N 0.66366 0.27002 0.19082
 N1772 N 0.64214 0.26913 0.18449
 C1773 C 0.69456 0.26119 0.21728
 C1774 C 0.70335 0.25120 0.23741
 H1775 H 0.59099 0.24948 0.20325
 H1776 H 0.70591 0.26869 0.20459
 H1777 H 0.60812 0.27161 0.15735
 H1778 H 0.69212 0.24384 0.25030
 C1779 C 0.09171 0.74397 0.67516
 C1780 C 0.09776 0.74085 0.69854
 C1781 C 0.12115 0.74497 0.70622
 N1782 N 0.12791 0.73903 0.72805
 N1783 N 0.14919 0.74232 0.73471
 C1784 C 0.16441 0.75182 0.71980
 N1785 N 0.15756 0.75795 0.69815
 N1786 N 0.13639 0.75460 0.69149
 C1787 C 0.18826 0.75466 0.72594
 C1788 C 0.19766 0.74706 0.74682
 H1789 H 0.08561 0.73499 0.71129
 H1790 H 0.19908 0.76204 0.71267
 H1791 H 0.10482 0.74889 0.66294
 H1792 H 0.18700 0.73980 0.76028
 C1793 C 0.91713 0.75687 0.69330
 C1794 C 0.90630 0.74155 0.70842
 C1795 C 0.88471 0.74753 0.71971
 N1796 N 0.87221 0.73134 0.73073
 N1797 N 0.85205 0.73637 0.73965
 C1798 C 0.84373 0.75784 0.73800
 N1799 N 0.85638 0.77406 0.72732
 N1800 N 0.87645 0.76902 0.71838
 C1801 C 0.82074 0.76349 0.74562
 C1802 C 0.80556 0.74728 0.75407
 H1803 H 0.91264 0.72453 0.71103
 H1804 H 0.81497 0.78063 0.74221
 H1805 H 0.90933 0.77335 0.69096
 H1806 H 0.81131 0.73020 0.75776
 C1807 C 0.42244 0.25752 0.19967
 C1808 C 0.40702 0.24009 0.20451
 C1809 C 0.38551 0.24448 0.21664
 N1810 N 0.37127 0.22694 0.22145
 N1811 N 0.35114 0.23080 0.23098
 C1812 C 0.34447 0.25238 0.23604
 N1813 N 0.35877 0.26988 0.23139
 N1814 N 0.37891 0.26602 0.22192
 C1815 C 0.32155 0.25720 0.24456
 C1816 C 0.30598 0.23998 0.24944
 H1817 H 0.41033 0.22286 0.19878
 H1818 H 0.31630 0.27483 0.24529
 H1819 H 0.41945 0.27422 0.20714
 H1820 H 0.31142 0.22243 0.24939
 C1821 C 0.40840 0.75031 0.32473
 C1822 C 0.40309 0.75272 0.30108
 C1823 C 0.37966 0.75693 0.29385
 N1824 N 0.37312 0.75357 0.27135
 N1825 N 0.35175 0.75680 0.26509
 C1826 C 0.33625 0.76373 0.28111
 N1827 N 0.34291 0.76739 0.30345
 N1828 N 0.36416 0.76404 0.30971
 C1829 C 0.31234 0.76641 0.27532
 C1830 C 0.30277 0.75924 0.25427
 H1831 H 0.41589 0.75076 0.28776
 H1832 H 0.30157 0.77287 0.28910
 H1833 H 0.39474 0.75042 0.33732
 H1834 H 0.31335 0.75268 0.24039
 C1835 C 0.89366 0.25412 0.83061
 C1836 C 0.88824 0.25596 0.80693
 C1837 C 0.86473 0.25939 0.79958
 N1838 N 0.85864 0.25681 0.77684
 N1839 N 0.83726 0.25951 0.77037
 C1840 C 0.82128 0.26507 0.78642
 N1841 N 0.82746 0.26791 0.80904
 N1842 N 0.84873 0.26511 0.81550
 C1843 C 0.79742 0.26728 0.78030
 C1844 C 0.78858 0.26167 0.75844
 H1845 H 0.90107 0.25428 0.79361
 H1846 H 0.78616 0.27235 0.79428
 H1847 H 0.88004 0.25418 0.84325
 H1848 H 0.79966 0.25656 0.74434
 C1849 C 0.57790 0.98081 0.65402
 C1850 C 0.56385 0.96280 0.64725
 C1851 C 0.55704 0.96069 0.62262
 N1852 N 0.53706 0.95095 0.61679
 N1853 N 0.53003 0.95106 0.59465
 C1854 C 0.54289 0.96065 0.57758
 N1855 N 0.56312 0.96972 0.58335
 N1856 N 0.57005 0.96976 0.60543
 C1857 C 0.53450 0.96392 0.55374
 C1858 C 0.51199 0.96080 0.54777
 H1859 H 0.55642 0.95136 0.65990
 H1860 H 0.54566 0.97265 0.54172
 H1861 H 0.58267 0.99292 0.64057
 H1862 H 0.50068 0.95234 0.55985
 C1863 C 0.06646 0.48948 1.16787
 C1864 C 0.06872 0.47452 1.14887
 C1865 C 0.05377 0.47571 1.12846
 N1866 N 0.05962 0.46516 1.10819
 N1867 N 0.04683 0.46709 1.08921
 C1868 C 0.02760 0.47947 1.08991
 N1869 N 0.02156 0.48966 1.11028
 N1870 N 0.03440 0.48784 1.12920
 C1871 C 0.01423 0.48358 1.06881
 C1872 C 0.02201 0.47836 1.04640
 H1873 H 0.08253 0.46271 1.14772
 H1874 H -0.00100 0.49344 1.07090
 H1875 H 0.05301 0.50188 1.16712
 H1876 H 0.03721 0.46850 1.04421
 C1877 C -0.05785 0.01154 1.16700
 C1878 C -0.06520 0.02042 1.14567
 C1879 C -0.04983 0.02329 1.12566
 N1880 N -0.05792 0.03060 1.10484
 N1881 N -0.04453 0.03184 1.08616
 C1882 C -0.02251 0.02595 1.08765
 N1883 N -0.01434 0.01902 1.10856
 N1884 N -0.02773 0.01775 1.12723
 C1885 C -0.00829 0.02422 1.06666
 C1886 C -0.01710 0.02693 1.04430
 H1887 H -0.08252 0.02514 1.14302
 H1888 H 0.00836 0.01711 1.06874
 H1889 H -0.04003 0.00813 1.16876
 H1890 H -0.03364 0.03427 1.04230
 C1891 C 0.43678 0.50428 0.65389
 C1892 C 0.42839 0.51021 0.63191
 C1893 C 0.44306 0.51366 0.61151
 N1894 N 0.43385 0.51899 0.59057
 N1895 N 0.44664 0.52058 0.57149
 C1896 C 0.46915 0.51701 0.57268
 N1897 N 0.47842 0.51206 0.59370
 N1898 N 0.46563 0.51045 0.61279
 C1899 C 0.48293 0.51552 0.55140
 C1900 C 0.47330 0.51615 0.52923
 H1901 H 0.41059 0.51249 0.62910
 H1902 H 0.50024 0.51016 0.55333
 H1903 H 0.45488 0.50423 0.65614
 H1904 H 0.45613 0.52182 0.52728
 C1905 C 0.43082 0.49440 -0.16949
 C1906 C 0.43224 0.47762 -0.15216
 C1907 C 0.44315 0.48263 -0.12963
 N1908 N 0.44673 0.46587 -0.11372
 N1909 N 0.45616 0.47065 -0.09311
 C1910 C 0.46219 0.49239 -0.08774
 N1911 N 0.45853 0.50905 -0.10360
 N1912 N 0.44923 0.50428 -0.12414
 C1913 C 0.47212 0.49874 -0.06525
 C1914 C 0.47934 0.48341 -0.04824
 H1915 H 0.42535 0.46075 -0.15469
 H1916 H 0.47435 0.51685 -0.06236
 H1917 H 0.43955 0.51036 -0.16629
 H1918 H 0.47805 0.46523 -0.05115
 C1919 C -0.05272 0.97819 0.33621
 C1920 C -0.05461 0.96097 0.35300
 C1921 C -0.03930 0.96036 0.37311
 N1922 N -0.04577 0.94997 0.39321
 N1923 N -0.03291 0.95120 0.41223
 C1924 C -0.01300 0.96263 0.41169
 N1925 N -0.00625 0.97243 0.39139
 N1926 N -0.01917 0.97136 0.37246
 C1927 C -0.00008 0.96700 0.43306
 C1928 C -0.00965 0.96447 0.45518
 H1929 H -0.06859 0.94917 0.35305
 H1930 H 0.01573 0.97606 0.43118
 H1931 H -0.03924 0.99051 0.33841
 H1932 H -0.02547 0.95545 0.45701
 C1933 C 0.09072 0.49764 0.34875
 C1934 C 0.06946 0.50513 0.35594
 C1935 C 0.06339 0.50647 0.38091
 N1936 N 0.04310 0.51485 0.38755
 N1937 N 0.03723 0.51547 0.41007
 C1938 C 0.05151 0.50779 0.42677
 N1939 N 0.07183 0.49956 0.42013
 N1940 N 0.07769 0.49898 0.39766
 C1941 C 0.04473 0.50619 0.45141
 C1942 C 0.02396 0.51370 0.45973
 H1943 H 0.05703 0.51060 0.34346
 H1944 H 0.05579 0.49693 0.46297
 H1945 H 0.10273 0.49354 0.36231
 H1946 H 0.01305 0.52341 0.44842
 C1947 C 0.56251 0.01273 -0.16584
 C1948 C 0.56997 0.02174 -0.14449
 C1949 C 0.55477 0.02517 -0.12445
 N1950 N 0.56325 0.03210 -0.10359
 N1951 N 0.54996 0.03407 -0.08490
 C1952 C 0.52764 0.02934 -0.08644
 N1953 N 0.51909 0.02276 -0.10739
 N1954 N 0.53239 0.02074 -0.12606
 C1955 C 0.51323 0.02862 -0.06554
 C1956 C 0.52195 0.03069 -0.04301
 H1957 H 0.58738 0.02622 -0.14176
 H1958 H 0.49604 0.02286 -0.06786
 H1959 H 0.54465 0.00933 -0.16762
 H1960 H 0.53896 0.03690 -0.04063
 C1961 C 0.66031 0.58615 -0.00823
 C1962 C 0.65365 0.56401 -0.01418
 C1963 C 0.63009 0.55679 -0.01116
 N1964 N 0.62296 0.53621 -0.01919
 N1965 N 0.60168 0.52956 -0.01603
 C1966 C 0.58687 0.54324 -0.00461
 N1967 N 0.59404 0.56371 0.00348
 N1968 N 0.61522 0.57036 0.00025
 C1969 C 0.56345 0.53647 -0.00061
 C1970 C 0.55386 0.51696 -0.01029
 H1971 H 0.66547 0.55163 -0.02078
 H1972 H 0.55340 0.54762 0.01022
 H1973 H 0.64719 0.59791 -0.00304
 H1974 H 0.56393 0.50587 -0.02121
 C1975 C 0.16302 1.07792 0.48055
 C1976 C 0.15365 1.06052 0.49414
 C1977 C 0.13120 1.05102 0.48972
 N1978 N 0.12257 1.03550 0.50482
 N1979 N 0.10193 1.02722 0.50181
 C1980 C 0.08913 1.03411 0.48356
 N1981 N 0.09781 1.04948 0.46828
 N1982 N 0.11849 1.05784 0.47133
 C1983 C 0.06604 1.02556 0.48075
 C1984 C 0.05598 1.01237 0.49808
 H1985 H 0.16238 1.05363 0.50901
 H1986 H 0.05675 1.03020 0.46526
 H1987 H 0.15370 1.08343 0.46533
 H1988 H 0.06548 1.00792 0.51352
 C1989 C 0.16840 -0.06386 0.99876
 C1990 C 0.14804 -0.07006 1.00941
 C1991 C 0.12748 -0.05645 1.00689
 N1992 N 0.10823 -0.06335 1.01759
 N1993 N 0.08929 -0.05160 1.01507
 C1994 C 0.08890 -0.03251 1.00172
 N1995 N 0.10816 -0.02558 0.99105
 N1996 N 0.12711 -0.03733 0.99358
 C1997 C 0.06805 -0.01960 0.99840
 C1998 C 0.04782 -0.02609 1.00886
 H1999 H 0.14652 -0.08536 1.01971
 H2000 H 0.06866 -0.00481 0.98713
 H2001 H 0.16888 -0.04786 0.98933
 H2002 H 0.04730 -0.04079 1.02024
 C2003 C 0.66177 0.42900 0.49042
 C2004 C 0.64281 0.42693 0.50482
 C2005 C 0.62162 0.43865 0.49952
 N2006 N 0.60312 0.43457 0.51282
 N2007 N 0.58369 0.44469 0.50802
 C2008 C 0.58204 0.45930 0.48973
 N2009 N 0.60055 0.46347 0.47648
 N2010 N 0.61998 0.45330 0.48126
 C2011 C 0.56068 0.47052 0.48417
 C2012 C 0.54098 0.46573 0.49648
 H2013 H 0.64274 0.41593 0.51991
 H2014 H 0.56048 0.48265 0.46994
 H2015 H 0.66043 0.44002 0.47529
 H2016 H 0.54121 0.45346 0.51058
 C2017 C -0.16591 0.43349 0.49819
 C2018 C -0.14415 0.42481 0.49582
 C2019 C -0.12392 0.43926 0.49625
 N2020 N -0.10353 0.42951 0.49300
 N2021 N -0.08484 0.44203 0.49379
 C2022 C -0.08581 0.46479 0.49784
 N2023 N -0.10622 0.47461 0.50104
 N2024 N -0.12496 0.46207 0.50024
 C2025 C -0.06508 0.47846 0.49959
 C2026 C -0.04404 0.46831 0.49748
 H2027 H -0.14128 0.40687 0.49308
 H2028 H -0.06638 0.49645 0.50363
 H2029 H -0.16774 0.45182 0.49941
 H2030 H -0.04304 0.45046 0.49291
 C2031 C 0.33876 -0.06819 -0.02842
 C2032 C 0.34811 -0.05064 -0.01494
 C2033 C 0.37137 -0.04254 -0.01806
 N2034 N 0.37963 -0.02658 -0.00319
 N2035 N 0.40097 -0.01981 -0.00471
 C2036 C 0.41490 -0.02873 -0.02117
 N2037 N 0.40660 -0.04454 -0.03625
 N2038 N 0.38522 -0.05137 -0.03470
 C2039 C 0.43878 -0.02200 -0.02213
 C2040 C 0.44810 -0.00826 -0.00475
 H2041 H 0.33879 -0.04283 -0.00086
 H2042 H 0.44929 -0.02869 -0.03602
 H2043 H 0.34857 -0.07446 -0.04309
 H2044 H 0.43745 -0.00184 0.00915
 C2045 C 0.32905 1.06241 0.50592
 C2046 C 0.35030 1.06752 0.51497
 C2047 C 0.36888 1.05116 0.51425
 N2048 N 0.38866 1.05654 0.52466
 N2049 N 0.40602 1.04236 0.52346
 C2050 C 0.40425 1.02226 0.51179
 N2051 N 0.38444 1.01681 0.50144
 N2052 N 0.36704 1.03099 0.50268
 C2053 C 0.42375 1.00722 0.50914
 C2054 C 0.44443 1.01278 0.51901
 H2055 H 0.35379 1.08372 0.52318
 H2056 H 0.42215 0.99235 0.49800
 H2057 H 0.32609 1.04519 0.49971
 H2058 H 0.44585 1.02751 0.53036
 C2059 C -0.16538 0.56303 0.99725
 C2060 C -0.14789 0.56214 1.01352
 C2061 C -0.12658 0.55046 1.00866
 N2062 N -0.10923 0.55295 1.02379
 N2063 N -0.08950 0.54320 1.01945
 C2064 C -0.08636 0.53055 0.99982
 N2065 N -0.10376 0.52788 0.98474
 N2066 N -0.12351 0.53772 0.98904
 C2067 C -0.06454 0.51991 0.99487
 C2068 C -0.04577 0.52458 1.00859
 H2069 H -0.14876 0.57124 1.02990
 H2070 H -0.06321 0.50842 0.98008
 H2071 H -0.16317 0.55380 0.98096
 H2072 H -0.04712 0.53643 1.02307
 C2073 C -0.01650 0.65851 0.56740
 C2074 C -0.00131 0.64892 0.55137
 C2075 C -0.00527 0.62633 0.54069
 N2076 N 0.01103 0.61637 0.52753
 N2077 N 0.00818 0.59541 0.51893
 C2078 C -0.01117 0.58368 0.52308
 N2079 N -0.02756 0.59376 0.53597
 N2080 N -0.02469 0.61466 0.54459
 C2081 C -0.01403 0.55977 0.51577
 C2082 C 0.00290 0.54719 0.50478
 H2083 H 0.01444 0.65721 0.54722
 H2084 H -0.02931 0.55129 0.52140
 H2085 H -0.03191 0.64913 0.57082
 H2086 H 0.01787 0.55587 0.49877
 C2087 C 0.49270 0.17359 0.06386
 C2088 C 0.50935 0.15735 0.05928
 C2089 C 0.50477 0.13638 0.04578
 N2090 N 0.52188 0.12201 0.04047
 N2091 N 0.51791 0.10240 0.02939
 C2092 C 0.49665 0.09639 0.02321
 N2093 N 0.47956 0.11081 0.02839
 N2094 N 0.48354 0.13045 0.03941
 C2095 C 0.49171 0.07390 0.01285
 C2096 C 0.50858 0.05831 0.00736
 H2097 H 0.52631 0.15964 0.06557
 H2098 H 0.47423 0.06886 0.01126
 H2099 H 0.47655 0.17120 0.05543
 H2100 H 0.52600 0.06361 0.00835
 C2101 C -0.00421 0.16023 0.92520
 C2102 C -0.00265 0.15478 0.94898
 C2103 C 0.00162 0.13112 0.95635
 N2104 N -0.00235 0.12445 0.97873
 N2105 N 0.00105 0.10289 0.98517
 C2106 C 0.00877 0.08733 0.96945
 N2107 N 0.01300 0.09412 0.94723
 N2108 N 0.00947 0.11556 0.94080
 C2109 C 0.01185 0.06323 0.97543
 C2110 C 0.00439 0.05334 0.99624
 H2111 H -0.00528 0.16745 0.96243
 H2112 H 0.01879 0.05243 0.96183
 H2113 H -0.00326 0.14621 0.91285
 H2114 H -0.00284 0.06382 1.00991
 C2115 C 0.51366 0.65590 0.42176
 C2116 C 0.50047 0.64665 0.43980
 C2117 C 0.50320 0.62281 0.44745
 N2118 N 0.48910 0.61378 0.46375
 N2119 N 0.49090 0.59201 0.47010
 C2120 C 0.50691 0.57849 0.46037
 N2121 N 0.52107 0.58758 0.44422
 N2122 N 0.51926 0.60929 0.43788
 C2123 C 0.50870 0.55415 0.46608
 C2124 C 0.49437 0.54296 0.48172
 H2125 H 0.48726 0.65635 0.44805
 H2126 H 0.52129 0.54449 0.45664
 H2127 H 0.52651 0.64506 0.41422
 H2128 H 0.48171 0.55246 0.49122
 C2129 C 0.49069 0.82462 0.44397
 C2130 C 0.47154 0.83813 0.44698
 C2131 C 0.47142 0.85919 0.46101
 N2132 N 0.49063 0.86837 0.46984
 N2133 N 0.49026 0.88843 0.48085
 C2134 C 0.47065 0.90000 0.48347
 N2135 N 0.45147 0.89066 0.47489
 N2136 N 0.45185 0.87066 0.46387
 C2137 C 0.47004 0.92313 0.49343
 C2138 C 0.48937 0.93493 0.50019
 H2139 H 0.45584 0.83354 0.43874
 H2140 H 0.45402 0.93183 0.49333
 H2141 H 0.50519 0.82836 0.45480
 H2142 H 0.50519 0.92598 0.50085
 C2143 C -0.01947 0.33618 0.94167
 C2144 C -0.00245 0.34620 0.95516
 C2145 C -0.00575 0.36863 0.96639
 N2146 N 0.01185 0.37970 0.97645
 N2147 N 0.00929 0.40059 0.98529
 C2148 C -0.01101 0.41112 0.98448
 N2149 N -0.02864 0.39991 0.97474
 N2150 N -0.02607 0.37909 0.96588
 C2151 C -0.01386 0.43489 0.99210
 C2152 C 0.00400 0.44833 0.99990
 H2153 H 0.01396 0.33853 0.95658
 H2154 H -0.03018 0.44256 0.98943
 H2155 H -0.03537 0.34511 0.94082
 H2156 H 0.02022 0.44061 1.00295
 C2157 C 0.48096 0.34240 0.06994
 C2158 C 0.49213 0.34999 0.04976
 C2159 C 0.48814 0.37297 0.04017
 N2160 N 0.50013 0.38049 0.02142
 N2161 N 0.49761 0.40172 0.01357
 C2162 C 0.48296 0.41617 0.02416
 N2163 N 0.47082 0.40855 0.04270
 N2164 N 0.47332 0.38738 0.05052
 C2165 C 0.48144 0.44031 0.01752
 C2166 C 0.49397 0.45005 -0.00060
 H2167 H 0.50470 0.33968 0.04119
 H2168 H 0.47151 0.45120 0.02882
 H2169 H 0.46828 0.35355 0.07732
 H2170 H 0.50377 0.43926 -0.01210
 C2171 C 0.00607 0.83402 0.57951
 C2172 C -0.00058 0.84049 0.55701
 C2173 C 0.00101 0.86455 0.54964
 N2174 N -0.00492 0.87092 0.52768
 N2175 N -0.00363 0.89273 0.52121
 C2176 C 0.00361 0.90891 0.53652
 N2177 N 0.00948 0.90252 0.55840
 N2178 N 0.00822 0.88080 0.56482
 C2179 C 0.00528 0.93310 0.53027
 C2180 C 0.00053 0.94178 0.50815
 H2181 H -0.00723 0.82827 0.54466
 H2182 H 0.01078 0.94463 0.54395
 H2183 H 0.01283 0.84728 0.59074
 H2184 H -0.00494 0.93054 0.49423
 C2185 C 0.24041 0.31545 0.08678
 C2186 C 0.23391 0.32217 0.10931
 C2187 C 0.23262 0.30603 0.12890
 N2188 N 0.22572 0.31337 0.15026
 N2189 N 0.22581 0.29938 0.16856
 C2190 C 0.23277 0.27749 0.16616
 N2191 N 0.23945 0.27008 0.14475
 N2192 N 0.23933 0.28406 0.12645
 C2193 C 0.23551 0.26266 0.18659
 C2194 C 0.23058 0.27004 0.20921
 H2195 H 0.22961 0.33963 0.11316
 H2196 H 0.24407 0.24660 0.18396
 H2197 H 0.24263 0.29738 0.08359
 H2198 H 0.22130 0.28566 0.21177
 C2199 C 0.75238 0.83967 0.59274
 C2200 C 0.73521 0.82716 0.60371
 C2201 C 0.73854 0.81785 0.62740
 N2202 N 0.72155 0.80706 0.63896
 N2203 N 0.72479 0.79863 0.66037
 C2204 C 0.74517 0.80078 0.67089
 N2205 N 0.76202 0.81154 0.65932
 N2206 N 0.75878 0.81994 0.63806
 C2207 C 0.75011 0.79107 0.69388
 C2208 C 0.73465 0.78009 0.70853
 H2209 H 0.71906 0.82454 0.59551
 H2210 H 0.76752 0.79235 0.69923
 H2211 H 0.76778 0.84231 0.60250
 H2212 H 0.71713 0.77868 0.70366
 C2213 C 0.26846 0.68377 0.58493
 C2214 C 0.27443 0.67566 0.60708
 C2215 C 0.27640 0.69066 0.62766
 N2216 N 0.28136 0.68154 0.64879
 N2217 N 0.28175 0.69450 0.66794
 C2218 C 0.27729 0.71713 0.66667
 N2219 N 0.27265 0.72633 0.64549
 N2220 N 0.27223 0.71336 0.62633
 C2221 C 0.27513 0.73112 0.68797
 C2222 C 0.27571 0.72149 0.71024
 H2223 H 0.27745 0.65778 0.61002
 H2224 H 0.27001 0.74869 0.68594
 H2225 H 0.26712 0.70206 0.58279
 H2226 H 0.28056 0.70387 0.71193
 C2227 C 0.76431 0.17862 0.07812
 C2228 C 0.77249 0.17127 0.09977
 C2229 C 0.77522 0.18702 0.11971
 N2230 N 0.78222 0.17902 0.14071
 N2231 N 0.78360 0.19283 0.15920
 C2232 C 0.77816 0.21520 0.15733
 N2233 N 0.77146 0.22324 0.13627
 N2234 N 0.77007 0.20945 0.11780
 C2235 C 0.77687 0.23011 0.17801
 C2236 C 0.78056 0.22214 0.20063
 H2237 H 0.77688 0.15369 0.10270
 H2238 H 0.76977 0.24688 0.17553
 H2239 H 0.76102 0.19667 0.07620
 H2240 H 0.78838 0.20572 0.20306
 C2241 C 0.73328 0.18267 0.90786
 C2242 C 0.71642 0.18028 0.89096
 C2243 C 0.71402 0.19694 0.87195
 N2244 N 0.70319 0.19104 0.85195
 N2245 N 0.70206 0.20557 0.83412
 C2246 C 0.71146 0.22665 0.83580
 N2247 N 0.72180 0.23271 0.85600
 N2248 N 0.72309 0.21813 0.87373
 C2249 C 0.71276 0.24202 0.81560
 C2250 C 0.70996 0.23417 0.79275
 H2251 H 0.70577 0.16535 0.89030
 H2252 H 0.71985 0.25881 0.81859
 H2253 H 0.74464 0.19708 0.90614
 H2254 H 0.70317 0.21729 0.78998
 C2255 C 0.24558 0.66927 0.40336
 C2256 C 0.22954 0.68465 0.39508
 C2257 C 0.22899 0.69088 0.37012
 N2258 N 0.21759 0.70956 0.36286
 N2259 N 0.21798 0.71573 0.34041
 C2260 C 0.22959 0.70324 0.32440
 N2261 N 0.24058 0.68436 0.33162
 N2262 N 0.24028 0.67829 0.35401
 C2263 C 0.23238 0.71065 0.30006
 C2264 C 0.22555 0.73190 0.29193
 H2265 H 0.21774 0.69286 0.40672
 H2266 H 0.24284 0.70005 0.28900
 H2267 H 0.25779 0.66297 0.39081
 H2268 H 0.21512 0.74265 0.30284
 C2269 C 0.75110 0.83827 0.41021
 C2270 C 0.76838 0.82434 0.40174
 C2271 C 0.76892 0.81752 0.37693
 N2272 N 0.78158 0.79961 0.36969
 N2273 N 0.78145 0.79308 0.34732
 C2274 C 0.76888 0.80447 0.33138
 N2275 N 0.75662 0.82259 0.33856
 N2276 N 0.75664 0.82900 0.36088
 C2277 C 0.76657 0.79662 0.30711
 C2278 C 0.77402 0.77543 0.29932
 H2279 H 0.78143 0.81798 0.41305
 H2280 H 0.75580 0.80668 0.29601
 H2281 H 0.73767 0.84235 0.39816
 H2282 H 0.78465 0.76519 0.31041
 C2283 C 0.25090 0.33686 0.90655
 C2284 C 0.26643 0.32174 0.89669
 C2285 C 0.26479 0.31518 0.87187
 N2286 N 0.27557 0.29642 0.86370
 N2287 N 0.27311 0.28982 0.84151
 C2288 C 0.25998 0.30193 0.82667
 N2289 N 0.24962 0.32090 0.83474
 N2290 N 0.25197 0.32740 0.85689
 C2291 C 0.25506 0.29398 0.80288
 C2292 C 0.26106 0.27246 0.79470
 H2293 H 0.27928 0.31373 0.90709
 H2294 H 0.24394 0.30446 0.79254
 H2295 H 0.23755 0.34289 0.89531
 H2296 H 0.27213 0.26186 0.80494
 C2297 C 0.82830 0.41057 0.76900
 C2298 C 0.80546 0.40517 0.77140
 C2299 C 0.79740 0.38166 0.76792
 N2300 N 0.77545 0.37625 0.77161
 N2301 N 0.76797 0.35514 0.76765
 C2302 C 0.78218 0.33876 0.75975
 N2303 N 0.80408 0.34418 0.75607
 N2304 N 0.81155 0.36521 0.76009
 C2305 C 0.77446 0.31551 0.75473
 C2306 C 0.75282 0.30779 0.75982
 H2307 H 0.79305 0.41805 0.77516
 H2308 H 0.78649 0.30422 0.74664
 H2309 H 0.83984 0.39651 0.76651
 H2310 H 0.74085 0.31929 0.76781
 C2311 C 0.33825 0.91084 0.26135
 C2312 C 0.31539 0.90514 0.26096
 C2313 C 0.30816 0.88121 0.25884
 N2314 N 0.28646 0.87518 0.26304
 N2315 N 0.27982 0.85357 0.26066
 C2316 C 0.29464 0.83728 0.25383
 N2317 N 0.31626 0.84335 0.24949
 N2318 N 0.32291 0.86488 0.25201
 C2319 C 0.28768 0.81351 0.25038
 C2320 C 0.26695 0.80513 0.25786
 H2321 H 0.30250 0.91799 0.26234
 H2322 H 0.29934 0.80244 0.24137
 H2323 H 0.35011 0.89688 0.26209
 H2324 H 0.25543 0.81632 0.26698
 C2325 C 0.16328 0.90051 0.74070
 C2326 C 0.18595 0.89420 0.74116
 C2327 C 0.19263 0.87012 0.74306
 N2328 N 0.21449 0.86411 0.74028
 N2329 N 0.22075 0.84244 0.74251
 C2330 C 0.20537 0.82602 0.74776
 N2331 N 0.18355 0.83206 0.75062
 N2332 N 0.17728 0.85368 0.74827
 C2333 C 0.21192 0.80211 0.75094
 C2334 C 0.23342 0.79419 0.74571
 H2335 H 0.19924 0.90675 0.74004
 H2336 H 0.19935 0.79062 0.75788
 H2337 H 0.15092 0.88688 0.74012
 H2338 H 0.24580 0.80594 0.73873
 C2339 C 0.67531 0.40362 0.24905
 C2340 C 0.69785 0.39716 0.24700
 C2341 C 0.70408 0.37291 0.24698
 N2342 N 0.72516 0.36640 0.24081
 N2343 N 0.73074 0.34441 0.24065
 C2344 C 0.71542 0.32821 0.24674
 N2345 N 0.69444 0.33475 0.25305
 N2346 N 0.68886 0.35666 0.25311
 C2347 C 0.72113 0.30396 0.24733
 C2348 C 0.74160 0.29544 0.23939
 H2349 H 0.71108 0.40959 0.24449
 H2350 H 0.70883 0.29260 0.25502
 H2351 H 0.66286 0.39008 0.24984
 H2352 H 0.75389 0.30690 0.23176
 C2353 C 0.69276 0.58191 0.25894
 C2354 C 0.68794 0.60111 0.27261
 C2355 C 0.70121 0.62225 0.27071
 N2356 N 0.69299 0.64194 0.27974
 N2357 N 0.70439 0.66140 0.27744
 C2358 C 0.72452 0.66185 0.26616
 N2359 N 0.73289 0.64212 0.25741
 N2360 N 0.72142 0.62269 0.25957
 C2361 C 0.73698 0.68327 0.26280
 C2362 C 0.72718 0.70444 0.26690
 H2363 H 0.67321 0.60171 0.28367
 H2364 H 0.75388 0.68232 0.25576
 H2365 H 0.70690 0.58309 0.24698
 H2366 H 0.71022 0.70530 0.27377
 C2367 C 0.18255 0.07773 0.75786
 C2368 C 0.17910 0.09629 0.77285
 C2369 C 0.19167 0.11781 0.77021
 N2370 N 0.18392 0.13702 0.78066
 N2371 N 0.19451 0.15686 0.77768
 C2372 C 0.21335 0.15820 0.76426
 N2373 N 0.22131 0.13893 0.75409
 N2374 N 0.21063 0.11911 0.75693
 C2375 C 0.22469 0.18015 0.76006
 C2376 C 0.21419 0.20082 0.76491
 H2377 H 0.16565 0.09621 0.78558
 H2378 H 0.24100 0.18001 0.75157
 H2379 H 0.19532 0.07958 0.74440
 H2380 H 0.19783 0.20076 0.77325
 C2381 C 0.32869 0.08722 0.23087
 C2382 C 0.31249 0.09704 0.24548
 C2383 C 0.30383 0.12015 0.24160
 N2384 N 0.28890 0.12908 0.25701
 N2385 N 0.28166 0.15035 0.25458
 C2386 C 0.28908 0.16355 0.23664
 N2387 N 0.30389 0.15457 0.22108
 N2388 N 0.31116 0.13326 0.22353
 C2389 C 0.28186 0.18739 0.23452
 C2390 C 0.26831 0.19736 0.25157
 H2391 H 0.30626 0.08829 0.26076
 H2392 H 0.28799 0.19744 0.21996
 H2393 H 0.33344 0.09655 0.21526
 H2394 H 0.26233 0.18716 0.26609
 C2395 C 0.80906 0.58500 0.75832
 C2396 C 0.80816 0.60216 0.74141
 C2397 C 0.79593 0.62355 0.74525
 N2398 N 0.79860 0.64090 0.72987
 N2399 N 0.78854 0.66080 0.73350
 C2400 C 0.77534 0.66410 0.75262
 N2401 N 0.77242 0.64667 0.76788
 N2402 N 0.78258 0.62676 0.76430
 C2403 C 0.76490 0.68632 0.75720
 C2404 C 0.77080 0.70550 0.74424
 H2405 H 0.81766 0.60101 0.72535
 H2406 H 0.75316 0.68779 0.77165
 H2407 H 0.79931 0.58745 0.77417
 H2408 H 0.78284 0.70397 0.73008
 C2409 C 0.91515 0.73697 0.19291
 C2410 C 0.90482 0.75270 0.20793
 C2411 C 0.88260 0.74789 0.21855
 N2412 N 0.87208 0.76394 0.23172
 N2413 N 0.85145 0.76019 0.24017
 C2414 C 0.84061 0.74019 0.23580
 N2415 N 0.85123 0.72409 0.22287
 N2416 N 0.87181 0.72784 0.21444
 C2417 C 0.81708 0.73635 0.24293
 C2418 C 0.80447 0.75238 0.25527
 H2419 H 0.91226 0.76919 0.21131
 H2420 H 0.80894 0.72109 0.23636
 H2421 H 0.90676 0.72068 0.19062
 H2422 H 0.81264 0.76742 0.26228
 C2423 C 0.39832 0.23788 0.68215
 C2424 C 0.38880 0.25302 0.69834
 C2425 C 0.36533 0.24985 0.70642
 N2426 N 0.35703 0.26214 0.72467
 N2427 N 0.33561 0.25972 0.73139
 C2428 C 0.32171 0.24500 0.71998
 N2429 N 0.33001 0.23283 0.70175
 N2430 N 0.35137 0.23514 0.69516
 C2431 C 0.29767 0.24284 0.72579
 C2432 C 0.28775 0.25162 0.74604
 H2433 H 0.39822 0.26734 0.70515
 H2434 H 0.28725 0.23399 0.71315
 H2435 H 0.38838 0.22300 0.67755
 H2436 H 0.29816 0.25925 0.75944
 C2437 C 0.41130 0.74224 0.82873
 C2438 C 0.40419 0.74596 0.80570
 C2439 C 0.38055 0.74194 0.79873
 N2440 N 0.37335 0.74784 0.77705
 N2441 N 0.35189 0.74479 0.77093
 C2442 C 0.33688 0.73561 0.78626
 N2443 N 0.34415 0.72954 0.80780
 N2444 N 0.36553 0.73264 0.81392
 C2445 C 0.31285 0.73304 0.78061
 C2446 C 0.30327 0.74033 0.75967
 H2447 H 0.41560 0.75240 0.79254
 H2448 H 0.30210 0.72608 0.79418
 H2449 H 0.39872 0.73629 0.84107
 H2450 H 0.31387 0.74715 0.74592
 C2451 C 0.91275 0.23979 0.32648
 C2452 C 0.90705 0.24214 0.30279
 C2453 C 0.88368 0.23844 0.29467
 N2454 N 0.87793 0.24246 0.27205
 N2455 N 0.85671 0.23972 0.26489
 C2456 C 0.84050 0.23272 0.28011
 N2457 N 0.84632 0.22853 0.30260
 N2458 N 0.86744 0.23130 0.30973
 C2459 C 0.81662 0.23092 0.27352
 C2460 C 0.80804 0.23592 0.25138
 H2461 H 0.91946 0.24703 0.28990
 H2462 H 0.80508 0.22692 0.28761
 H2463 H 0.89930 0.23510 0.33839
 H2464 H 0.81939 0.23994 0.23713
 C2465 C 0.08803 0.27053 0.31556
 C2466 C 0.09797 0.25756 0.29774
 C2467 C 0.12172 0.26113 0.29091
 N2468 N 0.13074 0.24926 0.27278
 N2469 N 0.15253 0.25134 0.26747
 C2470 C 0.16612 0.26531 0.28018
 N2471 N 0.15707 0.27723 0.29822
 N2472 N 0.13531 0.27523 0.30345
 C2473 C 0.19055 0.26648 0.27600
 C2474 C 0.20102 0.25584 0.25707
 H2475 H 0.08886 0.24398 0.28915
 H2476 H 0.20067 0.27498 0.28910
 H2477 H 0.09778 0.28471 0.32238
 H2478 H 0.19088 0.24759 0.24380
 C2479 C 0.58570 0.77400 0.80977
 C2480 C 0.59688 0.75925 0.79436
 C2481 C 0.62014 0.76394 0.78648
 N2482 N 0.63008 0.75042 0.77017
 N2483 N 0.65161 0.75356 0.76424
 C2484 C 0.66400 0.77031 0.77450
 N2485 N 0.65402 0.78388 0.79068
 N2486 N 0.63252 0.78082 0.79650
 C2487 C 0.68835 0.77264 0.77032
 C2488 C 0.69996 0.76091 0.75281
 H2489 H 0.58911 0.74361 0.78844
 H2490 H 0.69763 0.78275 0.78285
 H2491 H 0.59380 0.79020 0.81346
 H2492 H 0.69066 0.75092 0.74013
 C2493 C 0.57670 0.24958 0.67229
 C2494 C 0.58270 0.25144 0.69590
 C2495 C 0.60652 0.24969 0.70304
 N2496 N 0.61289 0.25445 0.72534
 N2497 N 0.63449 0.25320 0.73157
 C2498 C 0.65044 0.24701 0.71572
 N2499 N 0.64401 0.24207 0.69356
 N2500 N 0.62252 0.24339 0.68735
 C2501 C 0.67450 0.24617 0.72153
 C2502 C 0.68341 0.25269 0.74310
 H2503 H 0.57025 0.25449 0.70934
 H2504 H 0.68576 0.24092 0.70763
 H2505 H 0.59031 0.24745 0.65981
 H2506 H 0.67232 0.25790 0.75716
 C2507 C 0.08963 0.75051 0.17437
 C2508 C 0.09589 0.75150 0.19796
 C2509 C 0.11962 0.74854 0.20482
 N2510 N 0.12657 0.75379 0.22681
 N2511 N 0.14814 0.75156 0.23279
 C2512 C 0.16347 0.74381 0.21701
 N2513 N 0.15644 0.73830 0.19519
 N2514 N 0.13498 0.74063 0.18921
 C2515 C 0.18754 0.74207 0.22249
 C2516 C 0.19714 0.75013 0.24317
 H2517 H 0.08374 0.75496 0.21158
 H2518 H 0.19831 0.73531 0.20886
 H2519 H 0.10305 0.74839 0.16167
 H2520 H 0.18655 0.75693 0.25692
   
