data_POSCAR
  _audit_creation_date              2014-09-24
  _audit_creation_method            'ToBaCCo'
  _symmetry_space_group_name_H-M    'P1'
  _symmetry_Int_Tables_number       1
  _symmetry_cell_setting            triclinic
  loop_
  _symmetry_equiv_pos_as_xyz
 x,y,z
_cell_length_a 64.3522
_cell_length_b 64.3505
_cell_length_c 64.3596
_cell_angle_alpha 90.000000
_cell_angle_beta 90.000100
_cell_angle_gamma 90.000100
loop_
  _atom_site_label
  _atom_site_type_symbol
  _atom_site_fract_x
  _atom_site_fract_y
  _atom_site_fract_z
N1 N 0.32962 0.32963 0.32963
 N2 N 0.32959 0.82965 -0.17038
 N3 N 0.82961 0.32961 -0.17030
 N4 N 0.82961 0.82957 0.32968
 N5 N 0.67033 0.67038 0.32963
 N6 N 0.67041 0.17035 -0.17035
 N7 N 0.17037 0.67031 -0.17040
 N8 N 0.17037 0.17036 0.32962
 N9 N 0.67038 0.32961 0.67036
 N10 N 0.67034 0.82959 1.17036
 N11 N 0.17034 0.32962 1.17037
 N12 N 0.17037 0.82964 0.67038
 N13 N 0.32965 0.67035 0.67037
 N14 N 0.32964 0.17037 1.17036
 N15 N 0.82966 0.67041 1.17033
 N16 N 0.82963 0.17040 0.67032
 N17 N 0.32966 0.32957 0.67034
 N18 N 0.32959 0.82960 0.17031
 N19 N 0.82961 0.32962 0.17039
 N20 N 0.82963 0.82959 0.67034
 N21 N 0.67034 0.67035 0.67041
 N22 N 0.67036 0.17032 0.17040
 N23 N 0.17037 0.67038 0.17035
 N24 N 0.17034 0.17040 0.67035
 N25 N 0.32959 0.67037 0.32965
 N26 N 0.32963 0.17039 0.82966
 N27 N 0.82962 0.67037 0.82963
 N28 N 0.82961 0.17034 0.32963
 N29 N 0.67037 0.32968 0.32961
 N30 N 0.67037 0.82967 0.82963
 N31 N 0.17037 0.32961 0.82964
 N32 N 0.17038 0.82964 0.32968
 O33 O 0.22361 0.97968 0.25209
 O34 O 0.25211 1.02030 0.22357
 O35 O 0.25210 0.97967 0.22357
 O36 O 0.22361 1.02030 0.25209
 O37 O 0.24792 1.02030 0.27638
 O38 O 0.27642 0.97967 0.24786
 O39 O 0.27642 1.02030 0.24786
 O40 O 0.24792 0.97967 0.27638
 Cu41 Cu 0.23541 0.99999 0.23538
 Cu42 Cu 0.26462 0.99999 0.26457
 C43 C 0.23106 0.97266 0.26894
 C44 C 0.26896 1.02731 0.23101
 C45 C 0.26896 0.97266 0.23102
 C46 C 0.23107 1.02731 0.26894
 O47 O 0.25214 0.52026 0.72356
 O48 O 0.22363 0.47964 0.75207
 O49 O 0.22363 0.52027 0.75206
 O50 O 0.25214 0.47964 0.72356
 O51 O 0.27644 0.47964 0.74786
 O52 O 0.24793 0.52027 0.77636
 O53 O 0.24793 0.47964 0.77637
 O54 O 0.27644 0.52027 0.74786
 Cu55 Cu 0.23544 0.49995 0.73536
 Cu56 Cu 0.26464 0.49995 0.76456
 C57 C 0.26899 0.52728 0.73101
 C58 C 0.23108 0.47263 0.76892
 C59 C 0.23108 0.52728 0.76891
 C60 C 0.26899 0.47263 0.73101
 O61 O 0.74787 -0.02037 0.22365
 O62 O 0.77638 0.02026 0.25216
 O63 O 0.77638 -0.02037 0.25216
 O64 O 0.74787 0.02026 0.22365
 O65 O 0.72357 0.02026 0.24794
 O66 O 0.75207 -0.02037 0.27645
 O67 O 0.75208 0.02026 0.27645
 O68 O 0.72357 -0.02037 0.24794
 Cu69 Cu 0.76458 -0.00005 0.23545
 Cu70 Cu 0.73537 -0.00005 0.26465
 C71 C 0.73102 -0.02738 0.23109
 C72 C 0.76893 0.02727 0.26901
 C73 C 0.76892 -0.02738 0.26901
 C74 C 0.73102 0.02727 0.23109
 O75 O 0.75207 0.47967 0.77646
 O76 O 0.72356 0.52029 0.74794
 O77 O 0.72356 0.47966 0.74795
 O78 O 0.75207 0.52030 0.77646
 O79 O 0.77637 0.52030 0.75216
 O80 O 0.74787 0.47966 0.72365
 O81 O 0.74786 0.52029 0.72365
 O82 O 0.77637 0.47967 0.75217
 Cu83 Cu 0.73536 0.49998 0.76465
 Cu84 Cu 0.76457 0.49998 0.73546
 C85 C 0.76892 0.47266 0.76901
 C86 C 0.73101 0.52730 0.73110
 C87 C 0.73101 0.47265 0.73110
 C88 C 0.76892 0.52731 0.76901
 O89 O 0.25205 0.47969 0.27642
 O90 O 0.22354 0.52032 0.24791
 O91 O 0.22354 0.47969 0.24791
 O92 O 0.25205 0.52031 0.27643
 O93 O 0.27636 0.52032 0.25213
 O94 O 0.24785 0.47969 0.22362
 O95 O 0.24785 0.52032 0.22362
 O96 O 0.27636 0.47969 0.25213
 Cu97 Cu 0.23535 0.50000 0.26462
 Cu98 Cu 0.26455 0.50000 0.23542
 C99 C 0.26890 0.47268 0.26898
 C100 C 0.23100 0.52733 0.23107
 C101 C 0.23100 0.47268 0.23106
 C102 C 0.26890 0.52733 0.26898
 O103 O 0.74796 1.02032 0.77636
 O104 O 0.77646 0.97969 0.74784
 O105 O 0.77646 1.02031 0.74784
 O106 O 0.74796 0.97969 0.77636
 O107 O 0.72365 0.97969 0.75207
 O108 O 0.75215 1.02032 0.72355
 O109 O 0.75215 0.97969 0.72355
 O110 O 0.72365 1.02032 0.75207
 Cu111 Cu 0.76466 1.00000 0.76455
 Cu112 Cu 0.73545 1.00000 0.73536
 C113 C 0.73111 1.02733 0.76891
 C114 C 0.76900 0.97267 0.73099
 C115 C 0.76900 1.02733 0.73099
 C116 C 0.73110 0.97268 0.76892
 O117 O 0.74791 0.52035 0.27636
 O118 O 0.77642 0.47972 0.24786
 O119 O 0.77643 0.52035 0.24785
 O120 O 0.74791 0.47973 0.27636
 O121 O 0.72361 0.47972 0.25206
 O122 O 0.75213 0.52035 0.22355
 O123 O 0.75213 0.47972 0.22356
 O124 O 0.72361 0.52035 0.25206
 Cu125 Cu 0.76462 0.50004 0.26456
 Cu126 Cu 0.73542 0.50004 0.23536
 C127 C 0.73106 0.52736 0.26891
 C128 C 0.76897 0.47271 0.23101
 C129 C 0.76898 0.52736 0.23100
 C130 C 0.73106 0.47272 0.26891
 O131 O 0.22354 0.02035 0.74791
 O132 O 0.25205 -0.02028 0.77643
 O133 O 0.25205 0.02035 0.77643
 O134 O 0.22354 -0.02028 0.74791
 O135 O 0.24785 -0.02028 0.72362
 O136 O 0.27635 0.02035 0.75213
 O137 O 0.27635 -0.02028 0.75213
 O138 O 0.24785 0.02035 0.72362
 Cu139 Cu 0.23534 0.00004 0.76462
 Cu140 Cu 0.26455 0.00004 0.73543
 C141 C 0.23099 0.02736 0.73107
 C142 C 0.26890 -0.02729 0.76898
 C143 C 0.26890 0.02736 0.76898
 C144 C 0.23099 -0.02729 0.73107
 O145 O 0.24790 0.27643 0.97970
 O146 O 0.27642 0.24792 1.02033
 O147 O 0.27642 0.24793 0.97970
 O148 O 0.24790 0.27643 1.02033
 O149 O 0.22360 0.25212 1.02032
 O150 O 0.25212 0.22362 0.97970
 O151 O 0.25212 0.22362 1.02033
 O152 O 0.22360 0.25213 0.97970
 Cu153 Cu 0.26461 0.26463 1.00002
 Cu154 Cu 0.23541 0.23542 1.00001
 C155 C 0.23105 0.26898 0.97269
 C156 C 0.26897 0.23107 1.02734
 C157 C 0.26897 0.23107 0.97269
 C158 C 0.23105 0.26898 1.02733
 O159 O 0.24792 0.77643 0.47972
 O160 O 0.27644 0.74791 0.52034
 O161 O 0.27643 0.74791 0.47972
 O162 O 0.24793 0.77642 0.52034
 O163 O 0.22362 0.75212 0.52035
 O164 O 0.25213 0.72361 0.47972
 O165 O 0.25213 0.72361 0.52034
 O166 O 0.22362 0.75213 0.47972
 Cu167 Cu 0.26463 0.76462 0.50003
 Cu168 Cu 0.23542 0.73542 0.50003
 C169 C 0.23107 0.76898 0.47271
 C170 C 0.26898 0.73106 0.52735
 C171 C 0.26898 0.73106 0.47271
 C172 C 0.23108 0.76897 0.52735
 O173 O 0.27638 0.75207 -0.02035
 O174 O 0.24787 0.72355 0.02027
 O175 O 0.24787 0.72355 -0.02035
 O176 O 0.27638 0.75207 0.02027
 O177 O 0.25207 0.77637 0.02027
 O178 O 0.22356 0.74785 -0.02035
 O179 O 0.22356 0.74785 0.02027
 O180 O 0.25207 0.77637 -0.02035
 Cu181 Cu 0.26457 0.73536 -0.00004
 Cu182 Cu 0.23537 0.76456 -0.00004
 C183 C 0.26892 0.76892 -0.02736
 C184 C 0.23102 0.73100 0.02728
 C185 C 0.23102 0.73100 -0.02736
 C186 C 0.26892 0.76892 0.02728
 O187 O 0.27641 0.25208 0.47967
 O188 O 0.24789 0.22357 0.52029
 O189 O 0.24789 0.22357 0.47967
 O190 O 0.27641 0.25207 0.52029
 O191 O 0.25211 0.27638 0.52029
 O192 O 0.22359 0.24788 0.47967
 O193 O 0.22359 0.24788 0.52029
 O194 O 0.25211 0.27639 0.47967
 Cu195 Cu 0.26460 0.23537 0.49998
 Cu196 Cu 0.23540 0.26458 0.49998
 C197 C 0.26896 0.26893 0.47266
 C198 C 0.23104 0.23103 0.52730
 C199 C 0.23104 0.23103 0.47266
 C200 C 0.26896 0.26893 0.52730
 O201 O 0.74790 0.77645 0.97968
 O202 O 0.77642 0.74793 1.02030
 O203 O 0.77642 0.74794 0.97967
 O204 O 0.74790 0.77644 1.02030
 O205 O 0.72360 0.75213 1.02030
 O206 O 0.75212 0.72363 0.97967
 O207 O 0.75212 0.72363 1.02029
 O208 O 0.72360 0.75214 0.97967
 Cu209 Cu 0.76461 0.76464 0.99999
 Cu210 Cu 0.73541 0.73543 0.99998
 C211 C 0.73105 0.76899 0.97267
 C212 C 0.76897 0.73108 1.02730
 C213 C 0.76897 0.73109 0.97266
 C214 C 0.73105 0.76899 1.02731
 O215 O 0.75209 0.22363 0.47966
 O216 O 0.72359 0.25215 0.52028
 O217 O 0.72359 0.25215 0.47966
 O218 O 0.75210 0.22363 0.52028
 O219 O 0.77640 0.24793 0.52028
 O220 O 0.74789 0.27645 0.47966
 O221 O 0.74790 0.27645 0.52028
 O222 O 0.77640 0.24793 0.47965
 Cu223 Cu 0.73539 0.23544 0.49997
 Cu224 Cu 0.76460 0.26464 0.49997
 C225 C 0.76895 0.23108 0.47265
 C226 C 0.73104 0.26900 0.52729
 C227 C 0.73104 0.26900 0.47265
 C228 C 0.76895 0.23108 0.52729
 O229 O 0.77639 0.25206 -0.02027
 O230 O 0.74788 0.22354 0.02035
 O231 O 0.74789 0.22354 -0.02027
 O232 O 0.77639 0.25206 0.02036
 O233 O 0.75208 0.27636 0.02035
 O234 O 0.72358 0.24784 -0.02027
 O235 O 0.72358 0.24784 0.02035
 O236 O 0.75209 0.27636 -0.02027
 Cu237 Cu 0.76459 0.23535 0.00004
 Cu238 Cu 0.73538 0.26455 0.00004
 C239 C 0.76894 0.26891 -0.02728
 C240 C 0.73103 0.23099 0.02736
 C241 C 0.73104 0.23099 -0.02728
 C242 C 0.76893 0.26891 0.02736
 O243 O 0.74784 0.72353 0.52033
 O244 O 0.77635 0.75203 0.47971
 O245 O 0.77636 0.75203 0.52033
 O246 O 0.74783 0.72353 0.47971
 O247 O 0.72354 0.74784 0.47971
 O248 O 0.75206 0.77634 0.52033
 O249 O 0.75206 0.77634 0.47971
 O250 O 0.72354 0.74784 0.52033
 Cu251 Cu 0.76455 0.73533 0.50002
 Cu252 Cu 0.73535 0.76454 0.50002
 C253 C 0.73099 0.73098 0.52734
 C254 C 0.76891 0.76889 0.47270
 C255 C 0.76891 0.76889 0.52734
 C256 C 0.73099 0.73099 0.47270
 O257 O 0.97967 0.24785 0.27640
 O258 O 1.02030 0.27637 0.24789
 O259 O 0.97967 0.27637 0.24789
 O260 O 1.02030 0.24785 0.27640
 O261 O 1.02030 0.22355 0.25210
 O262 O 0.97967 0.25207 0.22359
 O263 O 1.02030 0.25207 0.22359
 O264 O 0.97967 0.22355 0.25210
 Cu265 Cu 0.99998 0.26456 0.26460
 Cu266 Cu 0.99998 0.23536 0.23540
 C267 C 0.97266 0.23100 0.26895
 C268 C 1.02731 0.26892 0.23104
 C269 C 0.97266 0.26892 0.23104
 C270 C 1.02731 0.23100 0.26895
 O271 O 0.47971 0.25203 0.72359
 O272 O 0.52034 0.22353 0.75211
 O273 O 0.47971 0.22353 0.75211
 O274 O 0.52034 0.25204 0.72359
 O275 O 0.52034 0.27635 0.74788
 O276 O 0.47971 0.24785 0.77640
 O277 O 0.52034 0.24785 0.77640
 O278 O 0.47971 0.27635 0.74788
 Cu279 Cu 0.50003 0.23533 0.73540
 Cu280 Cu 0.50003 0.26455 0.76459
 C281 C 0.47270 0.26889 0.73103
 C282 C 0.52735 0.23099 0.76896
 C283 C 0.47270 0.23099 0.76896
 C284 C 0.52735 0.26889 0.73104
 O285 O -0.02034 0.27644 0.75213
 O286 O 0.02029 0.24794 0.72360
 O287 O -0.02034 0.24794 0.72360
 O288 O 0.02029 0.27644 0.75213
 O289 O 0.02029 0.25212 0.77641
 O290 O -0.02034 0.22363 0.74789
 O291 O 0.02029 0.22362 0.74788
 O292 O -0.02034 0.25212 0.77642
 Cu293 Cu -0.00002 0.26464 0.73542
 Cu294 Cu -0.00002 0.23542 0.76460
 C295 C -0.02735 0.26898 0.76898
 C296 C 0.02730 0.23109 0.73104
 C297 C -0.02735 0.23109 0.73104
 C298 C 0.02730 0.26897 0.76897
 O299 O 0.52031 0.25213 0.27641
 O300 O 0.47969 0.22361 0.24790
 O301 O 0.52032 0.22361 0.24791
 O302 O 0.47969 0.25213 0.27641
 O303 O 0.47969 0.27642 0.25210
 O304 O 0.52032 0.24790 0.22360
 O305 O 0.47969 0.24790 0.22360
 O306 O 0.52031 0.27642 0.25210
 Cu307 Cu 0.50000 0.23542 0.26461
 Cu308 Cu 0.50000 0.26461 0.23540
 C309 C 0.52732 0.26898 0.26896
 C310 C 0.47268 0.23105 0.23105
 C311 C 0.52733 0.23105 0.23106
 C312 C 0.47267 0.26898 0.26895
 O313 O 1.02031 0.72355 0.75208
 O314 O 0.97969 0.75206 0.72357
 O315 O 1.02032 0.75206 0.72357
 O316 O 0.97969 0.72355 0.75208
 O317 O 0.97969 0.74785 0.77638
 O318 O 1.02032 0.77636 0.74787
 O319 O 0.97969 0.77636 0.74787
 O320 O 1.02032 0.74785 0.77638
 Cu321 Cu 1.00000 0.73536 0.73537
 Cu322 Cu 1.00000 0.76456 0.76457
 C323 C 1.02733 0.73100 0.76893
 C324 C 0.97268 0.76891 0.73102
 C325 C 1.02733 0.76891 0.73102
 C326 C 0.97268 0.73100 0.76893
 O327 O 0.47965 0.75207 0.22356
 O328 O 0.52027 0.72357 0.25208
 O329 O 0.47964 0.72357 0.25208
 O330 O 0.52027 0.75207 0.22356
 O331 O 0.52027 0.77638 0.24785
 O332 O 0.47964 0.74788 0.27637
 O333 O 0.52027 0.74788 0.27637
 O334 O 0.47964 0.77638 0.24785
 Cu335 Cu 0.49996 0.73536 0.23537
 Cu336 Cu 0.49996 0.76458 0.26456
 C337 C 0.47263 0.76892 0.23100
 C338 C 0.52728 0.73102 0.26893
 C339 C 0.47263 0.73102 0.26893
 C340 C 0.52728 0.76892 0.23101
 O341 O -0.02030 0.77643 0.25215
 O342 O 0.02033 0.74794 0.22362
 O343 O -0.02030 0.74793 0.22362
 O344 O 0.02032 0.77643 0.25215
 O345 O 0.02033 0.75211 0.27643
 O346 O -0.02030 0.72362 0.24790
 O347 O 0.02033 0.72362 0.24791
 O348 O -0.02030 0.75211 0.27643
 Cu349 Cu 0.00001 0.76464 0.23544
 Cu350 Cu 0.00001 0.73541 0.26462
 C351 C -0.02731 0.76896 0.26899
 C352 C 0.02734 0.73108 0.23106
 C353 C -0.02731 0.73108 0.23106
 C354 C 0.02733 0.76897 0.26900
 O355 O 0.52030 0.75216 0.77643
 O356 O 0.47968 0.72363 0.74793
 O357 O 0.52030 0.72363 0.74794
 O358 O 0.47967 0.75215 0.77643
 O359 O 0.47967 0.77645 0.75213
 O360 O 0.52031 0.74793 0.72363
 O361 O 0.47968 0.74793 0.72362
 O362 O 0.52030 0.77645 0.75213
 Cu363 Cu 0.49999 0.73544 0.76463
 Cu364 Cu 0.49999 0.76464 0.73543
 C365 C 0.52731 0.76901 0.76898
 C366 C 0.47267 0.73108 0.73108
 C367 C 0.52732 0.73108 0.73109
 C368 C 0.47266 0.76900 0.76898
 C369 C 0.38697 0.31198 0.31195
 N370 N 0.39614 0.32098 0.29524
 N371 N 0.41393 0.31349 0.28775
 C372 C 0.42310 0.29677 0.29673
 N373 N 0.41397 0.28782 0.31349
 N374 N 0.39617 0.29531 0.32098
 C375 C 0.36692 0.31888 0.31886
 C376 C 0.34970 0.32411 0.32409
 C377 C 0.44123 0.28759 0.28756
 C378 C 0.45591 0.27936 0.27933
 C379 C 0.38694 0.81200 0.81196
 N380 N 0.39612 0.82100 0.79526
 N381 N 0.41392 0.81351 0.78776
 C382 C 0.42308 0.79680 0.79675
 N383 N 0.41395 0.78784 0.81350
 N384 N 0.39615 0.79533 0.82099
 C385 C 0.36690 0.81890 0.81886
 C386 C 0.34968 0.82413 0.82409
 C387 C 0.44121 0.78762 0.78758
 C388 C 0.45589 0.77939 0.77935
 C389 C -0.11305 0.31195 0.81202
 N390 N -0.10385 0.32099 0.79535
 N391 N -0.08606 0.31350 0.78785
 C392 C -0.07692 0.29675 0.79679
 N393 N -0.08607 0.28776 0.81352
 N394 N -0.10386 0.29525 0.82102
 C395 C -0.13309 0.31886 0.81893
 C396 C -0.15031 0.32409 0.82417
 C397 C -0.05879 0.28758 0.78761
 C398 C -0.04411 0.27935 0.77937
 C399 C -0.11303 0.81192 0.31201
 N400 N -0.10384 0.82096 0.29534
 N401 N -0.08604 0.81348 0.28785
 C402 C -0.07690 0.79673 0.29680
 N403 N -0.08605 0.78774 0.31352
 N404 N -0.10385 0.79522 0.32101
 C405 C -0.13308 0.81882 0.31892
 C406 C -0.15030 0.82405 0.32415
 C407 C -0.05876 0.78756 0.28761
 C408 C -0.04408 0.77934 0.27938
 C409 C 0.61298 0.68803 0.31195
 N410 N 0.60380 0.67901 0.29527
 N411 N 0.58600 0.68650 0.28777
 C412 C 0.57685 0.70324 0.29673
 N413 N 0.58600 0.71221 0.31347
 N414 N 0.60379 0.70472 0.32096
 C415 C 0.63303 0.68113 0.31886
 C416 C 0.65025 0.67590 0.32410
 C417 C 0.55873 0.71242 0.28755
 C418 C 0.54405 0.72064 0.27932
 C419 C 0.61306 0.18801 0.81197
 N420 N 0.60388 0.17899 0.79529
 N421 N 0.58608 0.18648 0.78779
 C422 C 0.57693 0.20321 0.79676
 N423 N 0.58607 0.21218 0.81349
 N424 N 0.60387 0.20469 0.82099
 C425 C 0.63310 0.18110 0.81888
 C426 C 0.65032 0.17587 0.82412
 C427 C 0.55880 0.21239 0.78758
 C428 C 0.54412 0.22061 0.77935
 C429 C 1.11303 0.68799 0.81193
 N430 N 1.10384 0.70467 0.82095
 N431 N 1.08604 0.71216 0.81346
 C432 C 1.07690 0.70320 0.79671
 N433 N 1.08605 0.68647 0.78774
 N434 N 1.10384 0.67898 0.79523
 C435 C 1.13307 0.68108 0.81883
 C436 C 1.15029 0.67584 0.82407
 C437 C 1.05877 0.71238 0.78754
 C438 C 1.04409 0.72061 0.77931
 C439 C 1.11302 0.18801 0.31195
 N440 N 1.10384 0.17900 0.29525
 N441 N 1.08605 0.18649 0.28776
 C442 C 1.07689 0.20322 0.29673
 N443 N 1.08603 0.21218 0.31348
 N444 N 1.10382 0.20469 0.32097
 C445 C 1.13307 0.18111 0.31886
 C446 C 1.15029 0.17588 0.32409
 C447 C 1.05876 0.21239 0.28755
 C448 C 1.04408 0.22062 0.27933
 C449 C 0.61305 0.31191 0.68802
 N450 N 0.60384 0.32094 0.70469
 N451 N 0.58605 0.31344 0.71218
 C452 C 0.57692 0.29668 0.70324
 N453 N 0.58609 0.28770 0.68652
 N454 N 0.60388 0.29520 0.67903
 C455 C 0.63308 0.31883 0.68112
 C456 C 0.65030 0.32407 0.67589
 C457 C 0.55879 0.28750 0.71242
 C458 C 0.54412 0.27927 0.72065
 C459 C 0.61299 0.81192 0.18801
 N460 N 0.60382 0.79521 0.17901
 N461 N 0.58602 0.78772 0.18650
 C462 C 0.57686 0.79670 0.20322
 N463 N 0.58599 0.81346 0.21217
 N464 N 0.60379 0.82095 0.20468
 C465 C 0.63304 0.81883 0.18111
 C466 C 0.65026 0.82406 0.17588
 C467 C 0.55873 0.78753 0.21239
 C468 C 0.54405 0.77930 0.22062
 C469 C 1.11300 0.31194 0.18803
 N470 N 1.10380 0.32096 0.20471
 N471 N 1.08601 0.31347 0.21220
 C472 C 1.07687 0.29672 0.20325
 N473 N 1.08603 0.28774 0.18652
 N474 N 1.10383 0.29524 0.17903
 C475 C 1.13304 0.31885 0.18113
 C476 C 1.15026 0.32409 0.17590
 C477 C 1.05875 0.28753 0.21243
 C478 C 1.04407 0.27930 0.22065
 C479 C 1.11303 0.81194 0.68803
 N480 N 1.10382 0.82097 0.70470
 N481 N 1.08603 0.81347 0.71219
 C482 C 1.07690 0.79671 0.70324
 N483 N 1.08607 0.78774 0.68652
 N484 N 1.10386 0.79524 0.67903
 C485 C 1.13307 0.81886 0.68113
 C486 C 1.15029 0.82410 0.67590
 C487 C 1.05877 0.78753 0.71241
 C488 C 1.04409 0.77930 0.72064
 C489 C 0.38699 0.68804 0.68806
 N490 N 0.39618 0.70472 0.67904
 N491 N 0.41397 0.71222 0.68654
 C492 C 0.42311 0.70327 0.70329
 N493 N 0.41395 0.68654 0.71226
 N494 N 0.39617 0.67904 0.70476
 C495 C 0.36695 0.68112 0.68115
 C496 C 0.34973 0.67589 0.67591
 C497 C 0.44123 0.71245 0.71247
 C498 C 0.45591 0.72069 0.72069
 C499 C 0.38698 0.18803 0.18804
 N500 N 0.39616 0.17903 0.20474
 N501 N 0.41395 0.18652 0.21224
 C502 C 0.42311 0.20325 0.20326
 N503 N 0.41398 0.21221 0.18651
 N504 N 0.39618 0.20471 0.17902
 C505 C 0.36694 0.18113 0.18113
 C506 C 0.34972 0.17589 0.17589
 C507 C 0.44124 0.21243 0.21244
 C508 C 0.45592 0.22066 0.22067
 C509 C -0.11300 0.68808 0.18802
 N510 N -0.10381 0.67905 0.20469
 N511 N -0.08601 0.68654 0.21219
 C512 C -0.07687 0.70330 0.20325
 N513 N -0.08603 0.71228 0.18652
 N514 N -0.10382 0.70478 0.17902
 C515 C -0.13304 0.68117 0.18110
 C516 C -0.15026 0.67594 0.17587
 C517 C -0.05875 0.71247 0.21243
 C518 C -0.04407 0.72070 0.22067
 C519 C -0.11304 0.18809 0.68800
 N520 N -0.10387 0.20480 0.67901
 N521 N -0.08608 0.21230 0.68652
 C522 C -0.07692 0.20331 0.70323
 N523 N -0.08605 0.18655 0.71217
 N524 N -0.10384 0.17905 0.70467
 C525 C -0.13308 0.18118 0.68109
 C526 C -0.15029 0.17594 0.67585
 C527 C -0.05879 0.21249 0.71242
 C528 C -0.04411 0.22071 0.72065
 C529 C 0.31192 0.38697 0.31197
 N530 N 0.32095 0.39618 0.29530
 N531 N 0.31345 0.41397 0.28781
 C532 C 0.29670 0.42310 0.29676
 N533 N 0.28772 0.41394 0.31348
 N534 N 0.29522 0.39614 0.32097
 C535 C 0.31884 0.36693 0.31887
 C536 C 0.32408 0.34971 0.32410
 C537 C 0.28752 0.44123 0.28759
 C538 C 0.27929 0.45591 0.27936
 C539 C 0.31191 -0.11300 0.81198
 N540 N 0.32094 -0.10379 0.79531
 N541 N 0.31345 -0.08600 0.78782
 C542 C 0.29669 -0.07686 0.79677
 N543 N 0.28771 -0.08603 0.81349
 N544 N 0.29521 -0.10383 0.82098
 C545 C 0.31882 -0.13304 0.81888
 C546 C 0.32406 -0.15026 0.82410
 C547 C 0.28751 -0.05873 0.78759
 C548 C 0.27928 -0.04405 0.77937
 C549 C 0.81193 0.38696 0.81203
 N550 N 0.82096 0.39615 0.79535
 N551 N 0.81346 0.41395 0.78786
 C552 C 0.79671 0.42309 0.79681
 N553 N 0.78774 0.41393 0.81354
 N554 N 0.79523 0.39614 0.82103
 C555 C 0.81884 0.36692 0.81894
 C556 C 0.82408 0.34970 0.82417
 C557 C 0.78753 0.44121 0.78763
 C558 C 0.77931 0.45589 0.77940
 C559 C 0.81193 -0.11309 0.31201
 N560 N 0.82096 -0.10389 0.29534
 N561 N 0.81346 -0.08609 0.28784
 C562 C 0.79671 -0.07696 0.29680
 N563 N 0.78774 -0.08611 0.31352
 N564 N 0.79523 -0.10391 0.32102
 C565 C 0.81884 -0.13313 0.31892
 C566 C 0.82408 -0.15035 0.32415
 C567 C 0.78753 -0.05883 0.28762
 C568 C 0.77931 -0.04415 0.27939
 C569 C 0.31199 0.61299 0.68802
 N570 N 0.29531 0.60380 0.67900
 N571 N 0.28782 0.58601 0.68649
 C572 C 0.29678 0.57686 0.70323
 N573 N 0.31352 0.58600 0.71219
 N574 N 0.32101 0.60380 0.70471
 C575 C 0.31890 0.63304 0.68112
 C576 C 0.32413 0.65026 0.67590
 C577 C 0.28761 0.55872 0.71240
 C578 C 0.27938 0.54404 0.72062
 C579 C 0.31197 1.11302 0.18801
 N580 N 0.29527 1.10384 0.17901
 N581 N 0.28777 1.08605 0.18650
 C582 C 0.29675 1.07688 0.20322
 N583 N 0.31350 1.08602 0.21217
 N584 N 0.32100 1.10381 0.20468
 C585 C 0.31888 1.13306 0.18111
 C586 C 0.32411 1.15028 0.17588
 C587 C 0.28757 1.05875 0.21240
 C588 C 0.27935 1.04407 0.22063
 C589 C 0.81199 0.61306 0.18800
 N590 N 0.79530 0.60387 0.17898
 N591 N 0.78781 0.58608 0.18648
 C592 C 0.79677 0.57693 0.20321
 N593 N 0.81351 0.58608 0.21218
 N594 N 0.82101 0.60387 0.20469
 C595 C 0.81890 0.63310 0.18109
 C596 C 0.82413 0.65032 0.17586
 C597 C 0.78759 0.55880 0.21239
 C598 C 0.77936 0.54412 0.22062
 C599 C 0.81198 1.11304 0.68798
 N600 N 0.82100 1.10385 0.70466
 N601 N 0.81352 1.08606 0.71216
 C602 C 0.79678 1.07691 0.70319
 N603 N 0.78781 1.08605 0.68646
 N604 N 0.79529 1.10385 0.67897
 C605 C 0.81888 1.13309 0.68107
 C606 C 0.82410 1.15031 0.67584
 C607 C 0.78761 1.05877 0.71238
 C608 C 0.77939 1.04409 0.72060
 C609 C 0.68803 0.61305 0.31193
 N610 N 0.67902 0.60386 0.29524
 N611 N 0.68652 0.58607 0.28774
 C612 C 0.70326 0.57693 0.29670
 N613 N 0.71222 0.58607 0.31344
 N614 N 0.70472 0.60386 0.32094
 C615 C 0.68111 0.63308 0.31885
 C616 C 0.67587 0.65030 0.32409
 C617 C 0.71244 0.55881 0.28752
 C618 C 0.72067 0.54413 0.27929
 C619 C 0.68810 1.11302 0.81195
 N620 N 0.67907 1.10383 0.79527
 N621 N 0.68657 1.08604 0.78777
 C622 C 0.70332 1.07690 0.79672
 N623 N 0.71230 1.08605 0.81345
 N624 N 0.70480 1.10384 0.82095
 C625 C 0.68118 1.13305 0.81887
 C626 C 0.67595 1.15027 0.82411
 C627 C 0.71250 1.05877 0.78754
 C628 C 0.72073 1.04409 0.77930
 C629 C 0.18805 0.61297 0.81192
 N630 N 0.17905 0.60379 0.79522
 N631 N 0.18655 0.58600 0.78772
 C632 C 0.20327 0.57685 0.79670
 N633 N 0.21223 0.58599 0.81345
 N634 N 0.20473 0.60378 0.82094
 C635 C 0.18114 0.63301 0.81883
 C636 C 0.17590 0.65023 0.82406
 C637 C 0.21246 0.55872 0.78752
 C638 C 0.22069 0.54404 0.77929
 C639 C 0.18806 1.11302 0.31195
 N640 N 0.17903 1.10381 0.29528
 N641 N 0.18653 1.08602 0.28779
 C642 C 0.20328 1.07689 0.29673
 N643 N 0.21226 1.08605 0.31345
 N644 N 0.20477 1.10384 0.32095
 C645 C 0.18115 1.13306 0.31886
 C646 C 0.17591 1.15028 0.32409
 C647 C 0.21246 1.05876 0.28755
 C648 C 0.22069 1.04408 0.27932
 C649 C 0.68803 0.38695 0.68806
 N650 N 0.67903 0.39612 0.70477
 N651 N 0.68651 0.41391 0.71227
 C652 C 0.70323 0.42308 0.70330
 N653 N 0.71219 0.41395 0.68654
 N654 N 0.70470 0.39616 0.67904
 C655 C 0.68113 0.36691 0.68114
 C656 C 0.67591 0.34969 0.67590
 C657 C 0.71241 0.44121 0.71248
 C658 C 0.72063 0.45589 0.72071
 C659 C 0.68801 -0.11307 0.18806
 N660 N 0.67901 -0.10390 0.20476
 N661 N 0.68650 -0.08611 0.21226
 C662 C 0.70323 -0.07695 0.20329
 N663 N 0.71219 -0.08608 0.18654
 N664 N 0.70469 -0.10387 0.17904
 C665 C 0.68111 -0.13311 0.18114
 C666 C 0.67587 -0.15033 0.17590
 C667 C 0.71241 -0.05882 0.21248
 C668 C 0.72063 -0.04414 0.22071
 C669 C 0.18800 0.38697 0.18805
 N670 N 0.17899 0.39615 0.20474
 N671 N 0.18648 0.41395 0.21224
 C672 C 0.20321 0.42310 0.20327
 N673 N 0.21217 0.41397 0.18652
 N674 N 0.20468 0.39617 0.17903
 C675 C 0.18110 0.36693 0.18114
 C676 C 0.17587 0.34971 0.17590
 C677 C 0.21239 0.44123 0.21245
 C678 C 0.22061 0.45591 0.22068
 C679 C 0.18801 -0.11300 0.68806
 N680 N 0.20469 -0.10380 0.67904
 N681 N 0.21218 -0.08601 0.68653
 C682 C 0.20321 -0.07687 0.70327
 N683 N 0.18649 -0.08603 0.71225
 N684 N 0.17900 -0.10383 0.70475
 C685 C 0.18111 -0.13305 0.68115
 C686 C 0.17589 -0.15027 0.67591
 C687 C 0.21239 -0.05874 0.71245
 C688 C 0.22061 -0.04406 0.72068
 C689 C 0.31196 0.31194 0.38697
 N690 N 0.29529 0.32097 0.39617
 N691 N 0.28780 0.31348 0.41396
 C692 C 0.29675 0.29672 0.42309
 N693 N 0.31347 0.28774 0.41393
 N694 N 0.32096 0.29524 0.39614
 C695 C 0.31887 0.31886 0.36693
 C696 C 0.32409 0.32409 0.34971
 C697 C 0.28757 0.28754 0.44122
 C698 C 0.27935 0.27931 0.45590
 C699 C 0.31192 0.81195 -0.11305
 N700 N 0.32093 0.79526 -0.10387
 N701 N 0.31344 0.78776 -0.08608
 C702 C 0.29671 0.79672 -0.07693
 N703 N 0.28775 0.81347 -0.08606
 N704 N 0.29524 0.82097 -0.10385
 C705 C 0.31883 0.81887 -0.13308
 C706 C 0.32406 0.82411 -0.15030
 C707 C 0.28753 0.78754 -0.05880
 C708 C 0.27931 0.77931 -0.04413
 C709 C 0.81195 0.31194 -0.11296
 N710 N 0.82096 0.29525 -0.10378
 N711 N 0.81347 0.28775 -0.08599
 C712 C 0.79673 0.29672 -0.07684
 N713 N 0.78776 0.31345 -0.08598
 N714 N 0.79526 0.32095 -0.10377
 C715 C 0.81885 0.31885 -0.13300
 C716 C 0.82408 0.32408 -0.15022
 C717 C 0.78755 0.28753 -0.05871
 C718 C 0.77932 0.27930 -0.04404
 C719 C 0.81193 0.81189 0.38701
 N720 N 0.79525 0.82091 0.39620
 N721 N 0.78775 0.81342 0.41399
 C722 C 0.79671 0.79667 0.42313
 N723 N 0.81344 0.78770 0.41398
 N724 N 0.82094 0.79519 0.39619
 C725 C 0.81884 0.81880 0.36697
 C726 C 0.82408 0.82404 0.34975
 C727 C 0.78753 0.78750 0.44126
 C728 C 0.77930 0.77927 0.45593
 C729 C 0.68805 0.31198 0.61301
 N730 N 0.70476 0.32098 0.60384
 N731 N 0.71225 0.31350 0.58604
 C732 C 0.70326 0.29678 0.57687
 N733 N 0.68651 0.28783 0.58600
 N734 N 0.67902 0.29531 0.60380
 C735 C 0.68114 0.31887 0.63305
 C736 C 0.67591 0.32409 0.65027
 C737 C 0.71244 0.28761 0.55874
 C738 C 0.72066 0.27938 0.54406
 C739 C 0.68803 0.81196 1.11301
 N740 N 0.70472 0.82097 1.10384
 N741 N 0.71222 0.81349 1.08604
 C742 C 0.70325 0.79676 1.07688
 N743 N 0.68651 0.78779 1.08602
 N744 N 0.67901 0.79528 1.10381
 C745 C 0.68111 0.81885 1.13306
 C746 C 0.67588 0.82408 1.15028
 C747 C 0.71243 0.78759 1.05875
 C748 C 0.72066 0.77937 1.04407
 C749 C 0.18802 0.31197 1.11303
 N750 N 0.20471 0.32099 1.10385
 N751 N 0.21221 0.31350 1.08605
 C752 C 0.20325 0.29676 1.07690
 N753 N 0.18651 0.28779 1.08604
 N754 N 0.17901 0.29528 1.10383
 C755 C 0.18111 0.31887 1.13307
 C756 C 0.17588 0.32410 1.15029
 C757 C 0.21243 0.28759 1.05878
 C758 C 0.22066 0.27936 1.04410
 C759 C 0.18806 0.81198 0.61305
 N760 N 0.20476 0.82098 0.60387
 N761 N 0.21226 0.81349 0.58608
 C762 C 0.20328 0.79677 0.57692
 N763 N 0.18653 0.78781 0.58605
 N764 N 0.17903 0.79531 0.60384
 C765 C 0.18115 0.81889 0.63308
 C766 C 0.17591 0.82412 0.65030
 C767 C 0.21246 0.78759 0.55880
 C768 C 0.22069 0.77936 0.54412
 C769 C 0.31199 0.68803 0.61304
 N770 N 0.32100 0.70473 0.60386
 N771 N 0.31351 0.71223 0.58607
 C772 C 0.29678 0.70326 0.57691
 N773 N 0.28782 0.68651 0.58605
 N774 N 0.29531 0.67901 0.60384
 C775 C 0.31890 0.68112 0.63308
 C776 C 0.32413 0.67588 0.65029
 C777 C 0.28760 0.71244 0.55879
 C778 C 0.27937 0.72067 0.54411
 C779 C 0.31198 0.18805 1.11302
 N780 N 0.32098 0.20476 1.10385
 N781 N 0.31349 0.21225 1.08606
 C782 C 0.29676 0.20328 1.07690
 N783 N 0.28781 0.18653 1.08603
 N784 N 0.29530 0.17903 1.10382
 C785 C 0.31889 0.18114 1.13306
 C786 C 0.32412 0.17590 1.15028
 C787 C 0.28758 0.21246 1.05878
 C788 C 0.27936 0.22069 1.04410
 C789 C 0.81199 0.68808 1.11299
 N790 N 0.82100 0.70477 1.10381
 N791 N 0.81351 0.71227 1.08602
 C792 C 0.79677 0.70329 1.07687
 N793 N 0.78782 0.68655 1.08601
 N794 N 0.79531 0.67905 1.10380
 C795 C 0.81890 0.68117 1.13303
 C796 C 0.82414 0.67594 1.15025
 C797 C 0.78759 0.71247 1.05874
 C798 C 0.77936 0.72070 1.04407
 C799 C 0.81196 0.18807 0.61298
 N800 N 0.82098 0.20475 0.60379
 N801 N 0.81348 0.21225 0.58600
 C802 C 0.79674 0.20328 0.57685
 N803 N 0.78777 0.18655 0.58600
 N804 N 0.79527 0.17905 0.60379
 C805 C 0.81887 0.18116 0.63302
 C806 C 0.82410 0.17593 0.65024
 C807 C 0.78756 0.21246 0.55873
 C808 C 0.77933 0.22069 0.54405
 C809 C 0.68798 0.68801 0.38699
 N810 N 0.70466 0.67899 0.39618
 N811 N 0.71215 0.68647 0.41397
 C812 C 0.70319 0.70321 0.42312
 N813 N 0.68646 0.71219 0.41397
 N814 N 0.67897 0.70471 0.39617
 C815 C 0.68108 0.68112 0.36694
 C816 C 0.67585 0.67589 0.34972
 C817 C 0.71237 0.71238 0.44125
 C818 C 0.72060 0.72060 0.45593
 C819 C 0.68806 0.18800 -0.11300
 N820 N 0.70474 0.17898 -0.10381
 N821 N 0.71223 0.18647 -0.08601
 C822 C 0.70326 0.20320 -0.07686
 N823 N 0.68652 0.21217 -0.08601
 N824 N 0.67903 0.20468 -0.10381
 C825 C 0.68116 0.18110 -0.13304
 C826 C 0.67593 0.17587 -0.15027
 C827 C 0.71243 0.21238 -0.05873
 C828 C 0.72066 0.22061 -0.04405
 C829 C 0.18803 0.68798 -0.11306
 N830 N 0.20473 0.67897 -0.10388
 N831 N 0.21222 0.68647 -0.08609
 C832 C 0.20324 0.70319 -0.07693
 N833 N 0.18649 0.71215 -0.08607
 N834 N 0.17900 0.70465 -0.10386
 C835 C 0.18113 0.68107 -0.13310
 C836 C 0.17590 0.67584 -0.15032
 C837 C 0.21241 0.71238 -0.05880
 C838 C 0.22064 0.72061 -0.04412
 C839 C 0.18803 0.18803 0.38696
 N840 N 0.20470 0.17900 0.39616
 N841 N 0.21220 0.18649 0.41395
 C842 C 0.20324 0.20324 0.42309
 N843 N 0.18652 0.21222 0.41393
 N844 N 0.17903 0.20473 0.39614
 C845 C 0.18113 0.18112 0.36692
 C846 C 0.17590 0.17589 0.34970
 C847 C 0.21242 0.21242 0.44122
 C848 C 0.22065 0.22065 0.45590
 C849 C 0.31200 0.38692 0.68801
 N850 N 0.32101 0.39610 0.70471
 N851 N 0.31351 0.41389 0.71220
 C852 C 0.29679 0.42305 0.70323
 N853 N 0.28783 0.41391 0.68648
 N854 N 0.29532 0.39611 0.67899
 C855 C 0.31891 0.36688 0.68110
 C856 C 0.32414 0.34965 0.67587
 C857 C 0.28761 0.44118 0.71240
 C858 C 0.27938 0.45586 0.72063
 C859 C 0.31194 0.88695 0.18799
 N860 N 0.32096 0.89614 0.20467
 N861 N 0.31347 0.91393 0.21217
 C862 C 0.29673 0.92308 0.20321
 N863 N 0.28775 0.91393 0.18648
 N864 N 0.29524 0.89614 0.17899
 C865 C 0.31884 0.86691 0.18108
 C866 C 0.32407 0.84969 0.17584
 C867 C 0.28756 0.94121 0.21240
 C868 C 0.27934 0.95589 0.22063
 C869 C 0.81196 0.38698 0.18803
 N870 N 0.82098 0.39617 0.20472
 N871 N 0.81349 0.41397 0.21221
 C872 C 0.79676 0.42312 0.20323
 N873 N 0.78779 0.41397 0.18650
 N874 N 0.79528 0.39617 0.17901
 C875 C 0.81886 0.36693 0.18113
 C876 C 0.82409 0.34971 0.17591
 C877 C 0.78758 0.44126 0.21241
 C878 C 0.77936 0.45594 0.22063
 C879 C 0.81198 0.88695 0.68799
 N880 N 0.82101 0.89615 0.70467
 N881 N 0.81352 0.91395 0.71216
 C882 C 0.79677 0.92309 0.70320
 N883 N 0.78779 0.91393 0.68648
 N884 N 0.79528 0.89613 0.67899
 C885 C 0.81888 0.86691 0.68109
 C886 C 0.82411 0.84968 0.67587
 C887 C 0.78760 0.94122 0.71238
 C888 C 0.77938 0.95591 0.72061
 C889 C 0.68801 0.61301 0.68808
 N890 N 0.67900 0.60382 0.70478
 N891 N 0.68649 0.58603 0.71227
 C892 C 0.70322 0.57688 0.70330
 N893 N 0.71218 0.58602 0.68656
 N894 N 0.70469 0.60381 0.67906
 C895 C 0.68110 0.63305 0.68117
 C896 C 0.67587 0.65027 0.67594
 C897 C 0.71240 0.55875 0.71248
 C898 C 0.72063 0.54407 0.72071
 C899 C 0.68802 0.11298 0.18808
 N900 N 0.67901 0.10380 0.20477
 N901 N 0.68650 0.08600 0.21227
 C902 C 0.70323 0.07685 0.20330
 N903 N 0.71220 0.08599 0.18656
 N904 N 0.70470 0.10378 0.17906
 C905 C 0.68112 0.13302 0.18117
 C906 C 0.67589 0.15024 0.17593
 C907 C 0.71241 0.05872 0.21248
 C908 C 0.72064 0.04404 0.22071
 C909 C 0.18802 0.61304 0.18804
 N910 N 0.17901 0.60387 0.20474
 N911 N 0.18649 0.58607 0.21224
 C912 C 0.20322 0.57691 0.20327
 N913 N 0.21218 0.58604 0.18652
 N914 N 0.20469 0.60383 0.17902
 C915 C 0.18112 0.63308 0.18113
 C916 C 0.17589 0.65030 0.17589
 C917 C 0.21239 0.55878 0.21245
 C918 C 0.22061 0.54410 0.22068
 C919 C 0.18800 0.11306 0.68804
 N920 N 0.17899 0.10388 0.70473
 N921 N 0.18648 0.08609 0.71223
 C922 C 0.20321 0.07693 0.70326
 N923 N 0.21217 0.08607 0.68652
 N924 N 0.20468 0.10386 0.67902
 C925 C 0.18109 0.13310 0.68112
 C926 C 0.17586 0.15032 0.67588
 C927 C 0.21238 0.05880 0.71245
 C928 C 0.22061 0.04413 0.72068
 C929 C 0.31191 0.61303 0.31199
 N930 N 0.29521 0.60385 0.32099
 N931 N 0.28771 0.58606 0.31350
 C932 C 0.29669 0.57690 0.29677
 N933 N 0.31345 0.58603 0.28782
 N934 N 0.32094 0.60383 0.29532
 C935 C 0.31882 0.63307 0.31890
 C936 C 0.32406 0.65029 0.32413
 C937 C 0.28751 0.55877 0.28759
 C938 C 0.27929 0.54409 0.27937
 C939 C 0.31193 0.11305 0.81199
 N940 N 0.32096 0.10385 0.79532
 N941 N 0.31346 0.08606 0.78783
 C942 C 0.29670 0.07693 0.79677
 N943 N 0.28772 0.08609 0.81349
 N944 N 0.29522 0.10388 0.82099
 C945 C 0.31885 0.13309 0.81890
 C946 C 0.32409 0.15031 0.82413
 C947 C 0.28752 0.05880 0.78759
 C948 C 0.27929 0.04413 0.77937
 C949 C 0.81193 0.61302 0.81199
 N950 N 0.79522 0.60385 0.82099
 N951 N 0.78773 0.58606 0.81351
 C952 C 0.79671 0.57689 0.79679
 N953 N 0.81347 0.58601 0.78784
 N954 N 0.82096 0.60381 0.79533
 C955 C 0.81885 0.63306 0.81889
 C956 C 0.82409 0.65028 0.82411
 C957 C 0.78753 0.55876 0.78762
 C958 C 0.77930 0.54407 0.77939
 C959 C 0.81194 0.11298 0.31199
 N960 N 0.82097 0.10378 0.29532
 N961 N 0.81347 0.08598 0.28783
 C962 C 0.79672 0.07685 0.29679
 N963 N 0.78774 0.08601 0.31351
 N964 N 0.79524 0.10381 0.32100
 C965 C 0.81885 0.13303 0.31889
 C966 C 0.82408 0.15025 0.32411
 C967 C 0.78754 0.05872 0.28762
 C968 C 0.77931 0.04404 0.27939
 C969 C 0.68804 0.38702 0.31193
 N970 N 0.67903 0.39620 0.29524
 N971 N 0.68653 0.41400 0.28774
 C972 C 0.70326 0.42315 0.29671
 N973 N 0.71222 0.41401 0.31345
 N974 N 0.70472 0.39622 0.32095
 C975 C 0.68113 0.36698 0.31884
 C976 C 0.67590 0.34976 0.32408
 C977 C 0.71244 0.44127 0.28753
 C978 C 0.72067 0.45595 0.27930
 C979 C 0.68807 0.88700 0.81195
 N980 N 0.67905 0.89620 0.79527
 N981 N 0.68655 0.91398 0.78777
 C982 C 0.70330 0.92312 0.79672
 N983 N 0.71228 0.91396 0.81345
 N984 N 0.70478 0.89618 0.82095
 C985 C 0.68115 0.86696 0.81886
 C986 C 0.67591 0.84975 0.82410
 C987 C 0.71249 0.94124 0.78754
 C988 C 0.72072 0.95592 0.77931
 C989 C 0.18806 0.38694 0.81194
 N990 N 0.20475 0.39613 0.82096
 N991 N 0.21224 0.41392 0.81346
 C992 C 0.20328 0.42306 0.79672
 N993 N 0.18654 0.41391 0.78775
 N994 N 0.17905 0.39612 0.79525
 C995 C 0.18114 0.36690 0.81886
 C996 C 0.17591 0.34969 0.82410
 C997 C 0.21246 0.44119 0.78753
 C998 C 0.22069 0.45587 0.77930
 C999 C 0.18806 0.88698 0.31198
 N1000 N 0.20476 0.89616 0.32098
 N1001 N 0.21225 0.91395 0.31348
 C1002 C 0.20327 0.92310 0.29675
 N1003 N 0.18653 0.91396 0.28780
 N1004 N 0.17903 0.89617 0.29531
 C1005 C 0.18115 0.86694 0.31890
 C1006 C 0.17591 0.84972 0.32414
 C1007 C 0.21245 0.94123 0.28757
 C1008 C 0.22068 0.95590 0.27933
 C1009 C 0.38701 0.31189 0.68801
 N1010 N 0.39620 0.32092 0.70469
 N1011 N 0.41399 0.31343 0.71218
 C1012 C 0.42313 0.29667 0.70323
 N1013 N 0.41398 0.28769 0.68651
 N1014 N 0.39619 0.29519 0.67901
 C1015 C 0.36697 0.31880 0.68110
 C1016 C 0.34975 0.32404 0.67587
 C1017 C 0.44126 0.28750 0.71241
 C1018 C 0.45594 0.27927 0.72064
 C1019 C 0.38694 0.81192 0.18798
 N1020 N 0.39613 0.82095 0.20466
 N1021 N 0.41392 0.81346 0.21215
 C1022 C 0.42306 0.79671 0.20320
 N1023 N 0.41391 0.78773 0.18648
 N1024 N 0.39612 0.79522 0.17898
 C1025 C 0.36690 0.81883 0.18107
 C1026 C 0.34968 0.82407 0.17584
 C1027 C 0.44119 0.78753 0.21238
 C1028 C 0.45587 0.77930 0.22061
 C1029 C 0.88695 0.31194 0.18805
 N1030 N 0.89615 0.32095 0.20473
 N1031 N 0.91394 0.31345 0.21223
 C1032 C 0.92308 0.29671 0.20326
 N1033 N 0.91393 0.28774 0.18653
 N1034 N 0.89613 0.29524 0.17904
 C1035 C 0.86691 0.31885 0.18115
 C1036 C 0.84969 0.32409 0.17591
 C1037 C 0.94121 0.28753 0.21244
 C1038 C 0.95589 0.27930 0.22066
 C1039 C 0.88698 0.81192 0.68801
 N1040 N 0.89617 0.82095 0.70469
 N1041 N 0.91397 0.81345 0.71218
 C1042 C 0.92311 0.79671 0.70323
 N1043 N 0.91395 0.78773 0.68650
 N1044 N 0.89616 0.79522 0.67901
 C1045 C 0.86694 0.81883 0.68110
 C1046 C 0.84972 0.82406 0.67587
 C1047 C 0.94124 0.78753 0.71241
 C1048 C 0.95591 0.77930 0.72063
 C1049 C 0.61302 0.31200 0.31195
 N1050 N 0.60384 0.32101 0.29526
 N1051 N 0.58604 0.31352 0.28777
 C1052 C 0.57689 0.29678 0.29674
 N1053 N 0.58604 0.28782 0.31348
 N1054 N 0.60383 0.29532 0.32097
 C1055 C 0.63306 0.31892 0.31886
 C1056 C 0.65028 0.32415 0.32409
 C1057 C 0.55877 0.28760 0.28756
 C1058 C 0.54409 0.27937 0.27934
 C1059 C 0.61302 0.81202 0.81197
 N1060 N 0.60384 0.82102 0.79527
 N1061 N 0.58605 0.81353 0.78778
 C1062 C 0.57689 0.79680 0.79676
 N1063 N 0.58602 0.78785 0.81351
 N1064 N 0.60382 0.79534 0.82100
 C1065 C 0.63307 0.81892 0.81887
 C1066 C 0.65029 0.82415 0.82411
 C1067 C 0.55876 0.78762 0.78759
 C1068 C 0.54408 0.77939 0.77936
 C1069 C 0.11302 0.31195 0.81198
 N1070 N 0.10382 0.32099 0.79532
 N1071 N 0.08602 0.31350 0.78783
 C1072 C 0.07688 0.29674 0.79677
 N1073 N 0.08605 0.28775 0.81349
 N1074 N 0.10384 0.29524 0.82098
 C1075 C 0.13306 0.31885 0.81889
 C1076 C 0.15029 0.32408 0.82412
 C1077 C 0.05875 0.28757 0.78759
 C1078 C 0.04407 0.27935 0.77936
 C1079 C 0.11304 0.81197 0.31202
 N1080 N 0.10383 0.82100 0.29535
 N1081 N 0.08604 0.81351 0.28785
 C1082 C 0.07691 0.79675 0.29680
 N1083 N 0.08607 0.78777 0.31352
 N1084 N 0.10386 0.79526 0.32101
 C1085 C 0.13308 0.81888 0.31892
 C1086 C 0.15030 0.82411 0.32415
 C1087 C 0.05878 0.78758 0.28762
 C1088 C 0.04410 0.77935 0.27939
 C1089 C 0.61301 0.68804 0.68809
 N1090 N 0.60383 0.67904 0.70478
 N1091 N 0.58604 0.68654 0.71228
 C1092 C 0.57688 0.70327 0.70330
 N1093 N 0.58603 0.71222 0.68656
 N1094 N 0.60382 0.70472 0.67906
 C1095 C 0.63305 0.68113 0.68118
 C1096 C 0.65026 0.67589 0.67594
 C1097 C 0.55876 0.71246 0.71248
 C1098 C 0.54408 0.72069 0.72070
 C1099 C 0.61302 0.18801 0.18807
 N1100 N 0.60384 0.17901 0.20476
 N1101 N 0.58604 0.18651 0.21225
 C1102 C 0.57690 0.20324 0.20328
 N1103 N 0.58605 0.21220 0.18654
 N1104 N 0.60384 0.20470 0.17905
 C1105 C 0.63306 0.18110 0.18116
 C1106 C 0.65028 0.17586 0.17593
 C1107 C 0.55877 0.21243 0.21246
 C1108 C 0.54409 0.22066 0.22068
 C1109 C 0.11303 0.68808 0.18803
 N1110 N 0.10383 0.67904 0.20469
 N1111 N 0.08604 0.68654 0.21219
 C1112 C 0.07691 0.70330 0.20325
 N1113 N 0.08608 0.71229 0.18654
 N1114 N 0.10387 0.70480 0.17904
 C1115 C 0.13307 0.68116 0.18112
 C1116 C 0.15029 0.67592 0.17588
 C1117 C 0.05878 0.71248 0.21244
 C1118 C 0.04411 0.72071 0.22067
 C1119 C 0.11299 0.18809 0.68801
 N1120 N 0.10378 0.17904 0.70467
 N1121 N 0.08599 0.18654 0.71217
 C1122 C 0.07687 0.20330 0.70323
 N1123 N 0.08603 0.21230 0.68652
 N1124 N 0.10382 0.20480 0.67902
 C1125 C 0.13303 0.18117 0.68110
 C1126 C 0.15025 0.17594 0.67587
 C1127 C 0.05874 0.21248 0.71242
 C1128 C 0.04406 0.22071 0.72065
 C1129 C 0.38693 0.68803 0.31196
 N1130 N 0.39613 0.70472 0.32097
 N1131 N 0.41392 0.71221 0.31347
 C1132 C 0.42306 0.70324 0.29673
 N1133 N 0.41390 0.68651 0.28777
 N1134 N 0.39611 0.67902 0.29527
 C1135 C 0.36689 0.68113 0.31888
 C1136 C 0.34968 0.67590 0.32412
 C1137 C 0.44119 0.71242 0.28755
 C1138 C 0.45587 0.72064 0.27931
 C1139 C 0.38699 0.18802 0.81198
 N1140 N 0.39619 0.20470 0.82100
 N1141 N 0.41399 0.21219 0.81350
 C1142 C 0.42312 0.20322 0.79676
 N1143 N 0.41396 0.18649 0.78779
 N1144 N 0.39617 0.17901 0.79529
 C1145 C 0.36694 0.18113 0.81889
 C1146 C 0.34972 0.17591 0.82413
 C1147 C 0.44125 0.21239 0.78758
 C1148 C 0.45594 0.22061 0.77935
 C1149 C 0.88697 0.68802 0.81194
 N1150 N 0.89618 0.70469 0.82097
 N1151 N 0.91397 0.71218 0.81347
 C1152 C 0.92310 0.70322 0.79672
 N1153 N 0.91393 0.68650 0.78775
 N1154 N 0.89614 0.67901 0.79524
 C1155 C 0.86693 0.68112 0.81886
 C1156 C 0.84971 0.67589 0.82410
 C1157 C 0.94123 0.71239 0.78754
 C1158 C 0.95591 0.72062 0.77931
 C1159 C 0.88696 0.18800 0.31196
 N1160 N 0.89615 0.20468 0.32098
 N1161 N 0.91395 0.21217 0.31348
 C1162 C 0.92309 0.20321 0.29674
 N1163 N 0.91393 0.18648 0.28777
 N1164 N 0.89614 0.17899 0.29527
 C1165 C 0.86692 0.18109 0.31887
 C1166 C 0.84970 0.17586 0.32410
 C1167 C 0.94122 0.21239 0.28756
 C1168 C 0.95590 0.22062 0.27934
 C1169 C 0.31199 0.31191 0.61300
 N1170 N 0.29531 0.32094 0.60381
 N1171 N 0.28781 0.31345 0.58602
 C1172 C 0.29677 0.29671 0.57687
 N1173 N 0.31350 0.28773 0.58602
 N1174 N 0.32100 0.29522 0.60381
 C1175 C 0.31890 0.31881 0.63304
 C1176 C 0.32413 0.32404 0.65026
 C1177 C 0.28758 0.28753 0.55874
 C1178 C 0.27935 0.27931 0.54407
 C1179 C 0.31192 0.81194 0.11297
 N1180 N 0.32095 0.79526 0.10378
 N1181 N 0.31346 0.78777 0.08598
 C1182 C 0.29671 0.79672 0.07685
 N1183 N 0.28773 0.81345 0.08600
 N1184 N 0.29523 0.82094 0.10379
 C1185 C 0.31883 0.81884 0.13301
 C1186 C 0.32406 0.82408 0.15023
 C1187 C 0.28753 0.78754 0.05872
 C1188 C 0.27930 0.77931 0.04404
 C1189 C 0.81193 0.31194 0.11305
 N1190 N 0.82095 0.29525 0.10387
 N1191 N 0.81346 0.28775 0.08608
 C1192 C 0.79672 0.29671 0.07693
 N1193 N 0.78775 0.31345 0.08608
 N1194 N 0.79524 0.32095 0.10387
 C1195 C 0.81884 0.31885 0.13309
 C1196 C 0.82408 0.32409 0.15031
 C1197 C 0.78754 0.28753 0.05881
 C1198 C 0.77931 0.27930 0.04413
 C1199 C 0.81195 0.81190 0.61302
 N1200 N 0.79526 0.82093 0.60383
 N1201 N 0.78776 0.81343 0.58604
 C1202 C 0.79672 0.79668 0.57690
 N1203 N 0.81345 0.78771 0.58605
 N1204 N 0.82095 0.79521 0.60384
 C1205 C 0.81886 0.81882 0.63305
 C1206 C 0.82410 0.82406 0.65027
 C1207 C 0.78753 0.78750 0.55878
 C1208 C 0.77930 0.77927 0.54410
 C1209 C 0.31195 0.68804 0.38700
 N1210 N 0.32097 0.70474 0.39618
 N1211 N 0.31348 0.71224 0.41397
 C1212 C 0.29675 0.70326 0.42313
 N1213 N 0.28779 0.68652 0.41399
 N1214 N 0.29527 0.67902 0.39620
 C1215 C 0.31885 0.68113 0.36696
 C1216 C 0.32407 0.67590 0.34974
 C1217 C 0.28758 0.71244 0.44126
 C1218 C 0.27936 0.72067 0.45594
 C1219 C 0.31198 0.18807 0.88700
 N1220 N 0.29530 0.17904 0.89620
 N1221 N 0.28781 0.18653 0.91399
 C1222 C 0.29677 0.20328 0.92313
 N1223 N 0.31349 0.21226 0.91397
 N1224 N 0.32098 0.20477 0.89617
 C1225 C 0.31888 0.18116 0.86696
 C1226 C 0.32411 0.17592 0.84974
 C1227 C 0.28759 0.21246 0.94125
 C1228 C 0.27936 0.22069 0.95593
 C1229 C 0.81197 0.68807 0.88697
 N1230 N 0.82097 0.70478 0.89613
 N1231 N 0.81348 0.71228 0.91392
 C1232 C 0.79676 0.70329 0.92309
 N1233 N 0.78781 0.68653 0.91397
 N1234 N 0.79530 0.67903 0.89618
 C1235 C 0.81887 0.68115 0.86693
 C1236 C 0.82410 0.67591 0.84971
 C1237 C 0.78758 0.71248 0.94122
 C1238 C 0.77936 0.72070 0.95590
 C1239 C 0.81194 0.18804 0.38696
 N1240 N 0.79526 0.17903 0.39616
 N1241 N 0.78776 0.18653 0.41394
 C1242 C 0.79673 0.20327 0.42308
 N1243 N 0.81347 0.21224 0.41393
 N1244 N 0.82096 0.20473 0.39614
 C1245 C 0.81885 0.18112 0.36693
 C1246 C 0.82408 0.17588 0.34971
 C1247 C 0.78755 0.21246 0.44121
 C1248 C 0.77933 0.22069 0.45588
 C1249 C 0.68804 0.31202 0.38696
 N1250 N 0.70473 0.32103 0.39614
 N1251 N 0.71223 0.31353 0.41393
 C1252 C 0.70325 0.29680 0.42308
 N1253 N 0.68651 0.28784 0.41394
 N1254 N 0.67901 0.29534 0.39615
 C1255 C 0.68113 0.31892 0.36692
 C1256 C 0.67590 0.32416 0.34970
 C1257 C 0.71243 0.28762 0.44121
 C1258 C 0.72066 0.27939 0.45589
 C1259 C 0.68804 0.81200 0.88697
 N1260 N 0.70472 0.82102 0.89617
 N1261 N 0.71222 0.81353 0.91396
 C1262 C 0.70325 0.79678 0.92310
 N1263 N 0.68652 0.78781 0.91395
 N1264 N 0.67903 0.79531 0.89616
 C1265 C 0.68113 0.81891 0.86693
 C1266 C 0.67590 0.82414 0.84971
 C1267 C 0.71243 0.78760 0.94123
 C1268 C 0.72066 0.77938 0.95590
 C1269 C 0.18804 0.31196 0.88699
 N1270 N 0.20474 0.32098 0.89617
 N1271 N 0.21223 0.31349 0.91396
 C1272 C 0.20326 0.29676 0.92312
 N1273 N 0.18651 0.28780 0.91398
 N1274 N 0.17902 0.29529 0.89619
 C1275 C 0.18113 0.31886 0.86695
 C1276 C 0.17590 0.32409 0.84973
 C1277 C 0.21244 0.28759 0.94125
 C1278 C 0.22067 0.27936 0.95593
 C1279 C 0.18806 0.81198 0.38702
 N1280 N 0.20476 0.82099 0.39620
 N1281 N 0.21225 0.81350 0.41399
 C1282 C 0.20328 0.79677 0.42315
 N1283 N 0.18653 0.78781 0.41401
 N1284 N 0.17903 0.79531 0.39622
 C1285 C 0.18115 0.81889 0.36698
 C1286 C 0.17591 0.82412 0.34976
 C1287 C 0.21246 0.78759 0.44127
 C1288 C 0.22068 0.77936 0.45595
 C1289 C 0.68799 0.68800 0.61305
 N1290 N 0.70467 0.67898 0.60386
 N1291 N 0.71216 0.68646 0.58606
 C1292 C 0.70320 0.70320 0.57692
 N1293 N 0.68647 0.71218 0.58607
 N1294 N 0.67898 0.70469 0.60387
 C1295 C 0.68109 0.68110 0.63310
 C1296 C 0.67587 0.67587 0.65032
 C1297 C 0.71238 0.71238 0.55879
 C1298 C 0.72060 0.72060 0.54411
 C1299 C 0.68803 0.18798 0.11306
 N1300 N 0.70472 0.17897 0.10387
 N1301 N 0.71222 0.18646 0.08608
 C1302 C 0.70324 0.20319 0.07693
 N1303 N 0.68650 0.21216 0.08607
 N1304 N 0.67901 0.20466 0.10386
 C1305 C 0.68112 0.18108 0.13310
 C1306 C 0.67589 0.17585 0.15032
 C1307 C 0.71242 0.21237 0.05880
 C1308 C 0.72065 0.22060 0.04412
 C1309 C 0.18803 0.68802 0.11300
 N1310 N 0.20472 0.67901 0.10382
 N1311 N 0.21221 0.68650 0.08602
 C1312 C 0.20323 0.70322 0.07686
 N1313 N 0.18649 0.71218 0.08600
 N1314 N 0.17900 0.70469 0.10379
 C1315 C 0.18112 0.68112 0.13304
 C1316 C 0.17589 0.67590 0.15026
 C1317 C 0.21241 0.71239 0.05873
 C1318 C 0.22064 0.72062 0.04405
 C1319 C 0.18801 0.18805 0.61300
 N1320 N 0.20470 0.17903 0.60382
 N1321 N 0.21220 0.18651 0.58603
 C1322 C 0.20323 0.20325 0.57687
 N1323 N 0.18650 0.21222 0.58601
 N1324 N 0.17900 0.20473 0.60380
 C1325 C 0.18110 0.18115 0.63304
 C1326 C 0.17587 0.17592 0.65026
 C1327 C 0.21242 0.21242 0.55874
 C1328 C 0.22065 0.22065 0.54407
   
