data_POSCAR
  _audit_creation_date              2014-09-24
  _audit_creation_method            'ToBaCCo'
  _symmetry_space_group_name_H-M    'P1'
  _symmetry_Int_Tables_number       1
  _symmetry_cell_setting            triclinic
  loop_
  _symmetry_equiv_pos_as_xyz
 x,y,z
_cell_length_a 70.7404
_cell_length_b 71.0764
_cell_length_c 71.6234
_cell_angle_alpha 89.697400
_cell_angle_beta 90.296200
_cell_angle_gamma 89.813600
loop_
  _atom_site_label
  _atom_site_type_symbol
  _atom_site_fract_x
  _atom_site_fract_y
  _atom_site_fract_z
N1 N 0.35982 1.34854 0.30506
 N2 N 0.34528 1.36005 0.30461
 C3 C 0.34657 1.37134 0.28959
 C4 C 0.36301 1.36697 0.28009
 C5 C 0.37113 1.35240 0.29045
 H6 H 0.33652 1.38231 0.28619
 H7 H 0.38398 1.34478 0.28738
 Cu8 Cu 0.32648 1.35985 0.32407
 Cu9 Cu 0.36199 1.32878 0.32400
 Cu10 Cu 0.32645 1.32678 0.35761
 N11 N 0.30777 1.35987 0.34358
 N12 N 0.30701 1.34649 0.35626
 C13 C 0.29235 1.35001 0.36773
 C14 C 0.28373 1.36677 0.36208
 C15 C 0.29400 1.37247 0.34667
 H16 H 0.28879 1.34144 0.37972
 H17 H 0.29153 1.38476 0.33809
 N18 N 0.34767 1.30852 0.35650
 N19 N 0.36142 1.30977 0.34414
 C20 C 0.37413 1.29602 0.34750
 C21 C 0.36817 1.28552 0.36265
 C22 C 0.35129 1.29382 0.36798
 H23 H 0.38673 1.29366 0.33937
 H24 H 0.34255 1.28972 0.37964
 H25 H 0.33334 1.32669 0.32959
 H26 H 0.34736 1.34242 0.34508
 N27 N 0.35617 0.84870 0.80630
 N28 N 0.34147 0.86003 0.80670
 C29 C 0.34271 0.87241 0.79244
 C30 C 0.35914 0.86863 0.78268
 C31 C 0.36729 0.85349 0.79190
 H32 H 0.33255 0.88343 0.78948
 H33 H 0.38018 0.84623 0.78822
 Cu34 Cu 0.32227 0.85749 0.82589
 Cu35 Cu 0.35974 0.82828 0.82406
 Cu36 Cu 0.32587 0.82328 0.85842
 N37 N 0.30407 0.85513 0.84601
 N38 N 0.30534 0.84149 0.85841
 C39 C 0.29098 0.84297 0.87056
 C40 C 0.28018 0.85847 0.86561
 C41 C 0.28891 0.86588 0.84997
 H42 H 0.28883 0.83371 0.88238
 H43 H 0.28447 0.87809 0.84201
 N44 N 0.34775 0.80634 0.85611
 N45 N 0.36083 0.80844 0.84322
 C46 C 0.37405 0.79494 0.84549
 C47 C 0.36898 0.78376 0.86048
 C48 C 0.35224 0.79140 0.86687
 H49 H 0.38630 0.79318 0.83671
 H50 H 0.34406 0.78657 0.87866
 H51 H 0.33146 0.82464 0.83016
 H52 H 0.34509 0.84090 0.84558
 N53 N 0.85758 1.34923 0.80448
 N54 N 0.84191 1.35902 0.80278
 C55 C 0.84313 1.37043 0.78782
 C56 C 0.86066 1.36777 0.77954
 C57 C 0.86945 1.35417 0.79066
 H58 H 0.83209 1.38009 0.78356
 H59 H 0.88319 1.34785 0.78864
 Cu60 Cu 0.82150 1.35636 0.82048
 Cu61 Cu 0.86064 1.32979 0.82364
 Cu62 Cu 0.82348 1.32438 0.85489
 N63 N 0.80575 1.35856 0.84243
 N64 N 0.80602 1.34577 0.85573
 C65 C 0.79281 1.35017 0.86851
 C66 C 0.78404 1.36681 0.86300
 C67 C 0.79269 1.37171 0.84640
 H68 H 0.78989 1.34195 0.88091
 H69 H 0.78935 1.38366 0.83756
 N70 N 0.84636 1.30827 0.85532
 N71 N 0.86069 1.31076 0.84383
 C72 C 0.87409 1.29778 0.84765
 C73 C 0.86796 1.28651 0.86222
 C74 C 0.85029 1.29360 0.86673
 H75 H 0.88714 1.29628 0.84002
 H76 H 0.84101 1.28855 0.87759
 H77 H 0.83255 1.32420 0.82723
 H78 H 0.84285 1.34209 0.84318
 N79 N 0.85860 0.84772 0.30634
 N80 N 0.84466 0.85997 0.30570
 C81 C 0.84669 0.87115 0.29069
 C82 C 0.86295 0.86596 0.28130
 C83 C 0.87025 0.85101 0.29180
 H84 H 0.83720 0.88257 0.28717
 H85 H 0.88271 0.84274 0.28880
 Cu86 Cu 0.82539 0.86085 0.32476
 Cu87 Cu 0.85931 0.82765 0.32529
 Cu88 Cu 0.82313 0.82799 0.35816
 N89 N 0.80604 0.86173 0.34378
 N90 N 0.80491 0.84858 0.35667
 C91 C 0.79030 0.85252 0.36801
 C92 C 0.78195 0.86914 0.36194
 C93 C 0.79233 0.87455 0.34654
 H94 H 0.78635 0.84418 0.38003
 H95 H 0.78996 0.88688 0.33793
 N96 N 0.84293 0.80845 0.35749
 N97 N 0.85706 0.80854 0.34550
 C98 C 0.86826 0.79350 0.34908
 C99 C 0.86069 0.78345 0.36389
 C100 C 0.84468 0.79339 0.36883
 H101 H 0.88075 0.78986 0.34122
 H102 H 0.83511 0.78999 0.38005
 H103 H 0.83064 0.82736 0.33011
 H104 H 0.84533 0.84229 0.34579
 N105 N 0.63946 0.65636 0.30763
 N106 N 0.65253 0.64318 0.30805
 C107 C 0.64903 0.63085 0.29417
 C108 C 0.63274 0.63660 0.28485
 C109 C 0.62716 0.65283 0.29377
 H110 H 0.65733 0.61839 0.29136
 H111 H 0.61503 0.66150 0.29037
 Cu112 Cu 0.67207 0.64335 0.32748
 Cu113 Cu 0.63874 0.67705 0.32508
 Cu114 Cu 0.67338 0.67832 0.35922
 N115 N 0.69194 0.64462 0.34647
 N116 N 0.69234 0.65841 0.35865
 C117 C 0.70745 0.65624 0.36991
 C118 C 0.71710 0.64018 0.36466
 C119 C 0.70681 0.63311 0.34974
 H120 H 0.71104 0.66558 0.38124
 H121 H 0.71008 0.62068 0.34173
 N122 N 0.65297 0.69720 0.35732
 N123 N 0.64013 0.69691 0.34390
 C124 C 0.62851 0.71176 0.34581
 C125 C 0.63416 0.72186 0.36125
 C126 C 0.64968 0.71220 0.36829
 H127 H 0.61654 0.71485 0.33686
 H128 H 0.65808 0.71600 0.38034
 H129 H 0.66749 0.67712 0.33114
 H130 H 0.65205 0.66305 0.34702
 N131 N 0.64189 0.15599 0.80627
 N132 N 0.65339 0.14155 0.80808
 C133 C 0.65043 0.12973 0.79363
 C134 C 0.63649 0.13746 0.78202
 C135 C 0.63158 0.15416 0.79064
 H136 H 0.65806 0.11671 0.79159
 H137 H 0.62070 0.16399 0.78638
 Cu138 Cu 0.67138 0.14017 0.82901
 Cu139 Cu 0.63948 0.17543 0.82485
 Cu140 Cu 0.67267 0.17620 0.85998
 N141 N 0.69154 0.14255 0.84775
 N142 N 0.69201 0.15681 0.85937
 C143 C 0.70737 0.15531 0.87039
 C144 C 0.71720 0.13923 0.86559
 C145 C 0.70668 0.13139 0.85117
 H146 H 0.71096 0.16509 0.88134
 H147 H 0.70997 0.11871 0.84356
 N148 N 0.65188 0.19457 0.85824
 N149 N 0.63904 0.19404 0.84486
 C150 C 0.62630 0.20781 0.84762
 C151 C 0.63141 0.21761 0.86344
 C152 C 0.64776 0.20889 0.86980
 H153 H 0.61422 0.21061 0.83872
 H154 H 0.65578 0.21245 0.88217
 H155 H 0.66806 0.17408 0.83173
 H156 H 0.65141 0.16100 0.84744
 N157 N 1.13920 0.65583 0.80305
 N158 N 1.15185 0.64226 0.80295
 C159 C 1.14886 0.63140 0.78784
 C160 C 1.13363 0.63875 0.77793
 C161 C 1.12790 0.65425 0.78801
 H162 H 1.15718 0.61918 0.78422
 H163 H 1.11613 0.66348 0.78484
 Cu164 Cu 1.17076 0.64035 0.82275
 Cu165 Cu 1.13784 0.67433 0.82279
 Cu166 Cu 1.17487 0.67504 0.85453
 N167 N 1.19015 0.63966 0.84212
 N168 N 1.19187 0.65327 0.85438
 C169 C 1.20660 0.64937 0.86578
 C170 C 1.21448 0.63233 0.86047
 C171 C 1.20362 0.62662 0.84539
 H172 H 1.21109 0.65820 0.87722
 H173 H 1.20560 0.61404 0.83721
 N174 N 1.15334 0.69292 0.85545
 N175 N 1.13903 0.69204 0.84360
 C176 C 1.12613 0.70514 0.84806
 C177 C 1.13252 0.71489 0.86344
 C178 C 1.14992 0.70685 0.86775
 H179 H 1.11308 0.70761 0.84052
 H180 H 1.15913 0.71058 0.87923
 H181 H 1.16673 0.67418 0.82667
 H182 H 1.15284 0.65996 0.84386
 N183 N 1.14057 0.15631 0.30446
 N184 N 1.15280 0.14238 0.30500
 C185 C 1.14971 0.13108 0.29025
 C186 C 1.13480 0.13847 0.27990
 C187 C 1.12939 0.15448 0.28937
 H188 H 1.15783 0.11859 0.28711
 H189 H 1.11802 0.16401 0.28568
 Cu190 Cu 1.17148 0.14063 0.32499
 Cu191 Cu 1.14000 0.17599 0.32309
 Cu192 Cu 1.17576 0.17564 0.35620
 N193 N 1.19059 0.13988 0.34462
 N194 N 1.19222 0.15356 0.35680
 C195 C 1.20674 0.14968 0.36844
 C196 C 1.21460 0.13258 0.36334
 C197 C 1.20394 0.12679 0.34817
 H198 H 1.21117 0.15863 0.37980
 H199 H 1.20601 0.11417 0.34008
 N200 N 1.15535 0.19468 0.35584
 N201 N 1.14188 0.19472 0.34301
 C202 C 1.13045 0.20956 0.34575
 C203 C 1.13688 0.21936 0.36107
 C204 C 1.15264 0.20947 0.36728
 H205 H 1.11826 0.21301 0.33723
 H206 H 1.16168 0.21306 0.37893
 H207 H 1.16861 0.17466 0.32807
 H208 H 1.15337 0.16145 0.34486
 N209 N 0.64267 1.34717 0.69574
 N210 N 0.65730 1.35851 0.69605
 C211 C 0.65585 1.37005 0.71082
 C212 C 0.63940 1.36579 0.72030
 C213 C 0.63136 1.35119 0.71028
 H214 H 0.66586 1.38095 0.71429
 H215 H 0.61840 1.34384 0.71348
 Cu216 Cu 0.67651 1.35720 0.67683
 Cu217 Cu 0.63979 1.32779 0.67669
 Cu218 Cu 0.67438 1.32562 0.64227
 N219 N 0.69556 1.35655 0.65745
 N220 N 0.69463 1.34443 0.64367
 C221 C 0.70929 1.34745 0.63204
 C222 C 0.72003 1.36216 0.63906
 C223 C 0.71082 1.36754 0.65516
 H224 H 0.71206 1.33944 0.61955
 H225 H 0.71479 1.37890 0.66433
 N226 N 0.65269 1.30797 0.64348
 N227 N 0.63942 1.30915 0.65634
 C228 C 0.62656 1.29554 0.65339
 C229 C 0.63194 1.28515 0.63802
 C230 C 0.64863 1.29341 0.63212
 H231 H 0.61434 1.29308 0.66204
 H232 H 0.65708 1.28921 0.62030
 H233 H 0.66819 1.32464 0.67036
 H234 H 0.65443 1.34165 0.65577
 N235 N 0.64242 0.84922 1.19418
 N236 N 0.65625 0.86146 1.19291
 C237 C 0.65439 0.87429 1.20659
 C238 C 0.63863 0.86976 1.21710
 C239 C 0.63143 0.85373 1.20880
 H240 H 0.66384 0.88598 1.20885
 H241 H 0.61889 0.84612 1.21287
 Cu242 Cu 0.67538 0.85951 1.17348
 Cu243 Cu 0.63931 0.82873 1.17645
 Cu244 Cu 0.67205 0.82575 1.14079
 N245 N 0.69331 0.85780 1.15295
 N246 N 0.69174 0.84480 1.14006
 C247 C 0.70548 0.84720 1.12733
 C248 C 0.71636 0.86248 1.13253
 C249 C 0.70821 0.86883 1.14890
 H250 H 0.70751 0.83836 1.11526
 H251 H 0.71259 0.88083 1.15703
 N252 N 0.65115 0.80773 1.14377
 N253 N 0.63850 0.80899 1.15718
 C254 C 0.62581 0.79502 1.15513
 C255 C 0.63079 0.78436 1.13977
 C256 C 0.64695 0.79285 1.13296
 H257 H 0.61388 0.79267 1.16421
 H258 H 0.65483 0.78871 1.12076
 H259 H 0.66745 0.82636 1.16927
 H260 H 0.65251 0.84236 1.15455
 N261 N 1.14306 1.34780 1.19266
 N262 N 1.15641 1.36050 1.19091
 C263 C 1.15459 1.37328 1.20463
 C264 C 1.13937 1.36824 1.21563
 C265 C 1.13242 1.35196 1.20760
 H266 H 1.16374 1.38527 1.20659
 H267 H 1.12028 1.34394 1.21207
 Cu268 Cu 1.17478 1.35901 1.17083
 Cu269 Cu 1.14005 1.32712 1.17509
 Cu270 Cu 1.17277 1.32431 1.13928
 N271 N 1.19329 1.35707 1.15091
 N272 N 1.19220 1.34363 1.13842
 C273 C 1.20617 1.34581 1.12591
 C274 C 1.21668 1.36141 1.13086
 C275 C 1.20812 1.36818 1.14683
 H276 H 1.20857 1.33665 1.11414
 H277 H 1.21216 1.38051 1.15464
 N278 N 1.15209 1.30611 1.14247
 N279 N 1.13945 1.30728 1.15591
 C280 C 1.12691 1.29316 1.15394
 C281 C 1.13201 1.28253 1.13861
 C282 C 1.14804 1.29117 1.13173
 H283 H 1.11502 1.29070 1.16304
 H284 H 1.15593 1.28708 1.11951
 H285 H 1.16817 1.32553 1.16776
 H286 H 1.15251 1.34037 1.15263
 N287 N 1.13965 0.84668 0.69378
 N288 N 1.15326 0.85920 0.69323
 C289 C 1.15068 0.87175 0.70700
 C290 C 1.13467 0.86677 0.71684
 C291 C 1.12805 0.85072 0.70808
 H292 H 1.15983 0.88355 0.70982
 H293 H 1.11550 0.84284 0.71160
 Cu294 Cu 1.17299 0.85775 0.67457
 Cu295 Cu 1.13771 0.82665 0.67529
 Cu296 Cu 1.17260 0.82484 0.64114
 N297 N 1.19257 0.85680 0.65576
 N298 N 1.19231 0.84422 0.64236
 C299 C 1.20732 0.84713 0.63113
 C300 C 1.21759 0.86220 0.63808
 C301 C 1.20774 0.86793 0.65366
 H302 H 1.21071 0.83874 0.61904
 H303 H 1.21128 0.87958 0.66264
 N304 N 1.15141 0.80659 0.64253
 N305 N 1.13814 0.80749 0.65541
 C306 C 1.12553 0.79366 0.65246
 C307 C 1.13106 0.78341 0.63705
 C308 C 1.14760 0.79197 0.63115
 H309 H 1.11324 0.79112 0.66099
 H310 H 1.15601 0.78805 0.61922
 H311 H 1.16625 0.82460 0.66915
 H312 H 1.15182 0.84047 0.65395
 N313 N 0.35954 0.65571 0.68933
 N314 N 0.34600 0.64312 0.69040
 C315 C 0.34993 0.63122 0.70466
 C316 C 0.36690 0.63663 0.71278
 C317 C 0.37253 0.65221 0.70266
 H318 H 0.34129 0.61936 0.70865
 H319 H 0.38500 0.66062 0.70505
 Cu320 Cu 0.32484 0.64315 0.67269
 Cu321 Cu 0.35932 0.67622 0.67136
 Cu322 Cu 0.32347 0.67621 0.63872
 N323 N 0.30608 0.64252 0.65249
 N324 N 0.30600 0.65544 0.63930
 C325 C 0.29252 0.65151 0.62670
 C326 C 0.28349 0.63524 0.63215
 C327 C 0.29235 0.62991 0.64871
 H328 H 0.28947 0.65991 0.61443
 H329 H 0.28935 0.61756 0.65705
 N330 N 0.34239 0.69612 0.64009
 N331 N 0.35654 0.69589 0.65213
 C332 C 0.36767 0.71089 0.64883
 C333 C 0.35998 0.72105 0.63408
 C334 C 0.34398 0.71127 0.62894
 H335 H 0.38034 0.71424 0.65660
 H336 H 0.33451 0.71468 0.61751
 H337 H 0.33062 0.67652 0.66703
 H338 H 0.34505 0.66085 0.65161
 N339 N 0.35709 0.15248 1.19352
 N340 N 0.34287 0.14066 1.19260
 C341 C 0.34404 0.12854 1.20710
 C342 C 0.35993 0.13294 1.21756
 C343 C 0.36785 0.14821 1.20849
 H344 H 0.33420 0.11725 1.20976
 H345 H 0.38033 0.15589 1.21267
 Cu346 Cu 0.32432 0.14219 1.17247
 Cu347 Cu 0.36037 0.17286 1.17563
 Cu348 Cu 0.32624 0.17753 1.14105
 N349 N 0.30538 0.14502 1.15284
 N350 N 0.30594 0.15912 1.14091
 C351 C 0.29127 0.15775 1.12896
 C352 C 0.28101 0.14185 1.13353
 C353 C 0.29039 0.13412 1.14878
 H354 H 0.28858 0.16731 1.11744
 H355 H 0.28653 0.12153 1.15636
 N356 N 0.34794 0.19469 1.14342
 N357 N 0.36118 0.19265 1.15631
 C358 C 0.37430 0.20614 1.15394
 C359 C 0.36902 0.21727 1.13889
 C360 C 0.35223 0.20959 1.13257
 H361 H 0.38666 0.20791 1.16268
 H362 H 0.34393 0.21432 1.12073
 H363 H 0.33191 0.17548 1.16937
 H364 H 0.34634 0.16040 1.15355
 N365 N 0.86052 0.65550 1.19119
 N366 N 0.84731 0.64263 1.19274
 C367 C 0.85142 0.63142 1.20743
 C368 C 0.86813 0.63758 1.21547
 C369 C 0.87349 0.65289 1.20476
 H370 H 0.84308 0.61947 1.21178
 H371 H 0.88581 0.66162 1.20679
 Cu372 Cu 0.82651 0.64153 1.17493
 Cu373 Cu 0.85985 0.67487 1.17190
 Cu374 Cu 0.82244 0.67349 1.14046
 N375 N 0.80559 0.64077 1.15722
 N376 N 0.80437 0.65315 1.14357
 C377 C 0.78926 0.64916 1.13286
 C378 C 0.78045 0.63345 1.14020
 C379 C 0.79117 0.62852 1.15571
 H380 H 0.78496 0.65716 1.12068
 H381 H 0.78887 0.61664 1.16490
 N382 N 0.84219 0.69292 1.13969
 N383 N 0.85659 0.69323 1.15147
 C384 C 0.86774 0.70793 1.14723
 C385 C 0.85995 0.71740 1.13211
 C386 C 0.84373 0.70751 1.12772
 H387 H 0.88043 0.71169 1.15477
 H388 H 0.83392 0.71060 1.11649
 H389 H 0.83085 0.67481 1.16809
 H390 H 0.84503 0.65938 1.15241
 N391 N 0.85728 0.15362 0.69330
 N392 N 0.84310 0.14167 0.69317
 C393 C 0.84492 0.12977 0.70771
 C394 C 0.86115 0.13434 0.71750
 C395 C 0.86873 0.14951 0.70788
 H396 H 0.83523 0.11848 0.71087
 H397 H 0.88145 0.15716 0.71137
 Cu398 Cu 0.82351 0.14265 0.67409
 Cu399 Cu 0.85962 0.17335 0.67423
 Cu400 Cu 0.82031 0.17987 0.64579
 N401 N 0.80485 0.14359 0.65406
 N402 N 0.80370 0.15845 0.64314
 C403 C 0.78917 0.15642 0.63121
 C404 C 0.78066 0.13929 0.63474
 C405 C 0.79104 0.13146 0.64933
 H406 H 0.78513 0.16675 0.62079
 H407 H 0.78838 0.11824 0.65635
 N408 N 0.84203 0.19687 0.64579
 N409 N 0.85726 0.19457 0.65628
 C410 C 0.86966 0.20839 0.65212
 C411 C 0.86166 0.21988 0.63843
 C412 C 0.84424 0.21200 0.63477
 H413 H 0.88339 0.21003 0.65859
 H414 H 0.83405 0.21663 0.62443
 H415 H 0.83140 0.17594 0.67283
 H416 H 0.84239 0.16229 0.65348
 N417 N 1.35057 0.35739 0.69333
 N418 N 1.36334 0.34404 0.69165
 C419 C 1.37641 0.34597 0.70527
 C420 C 1.37144 0.36127 0.71611
 C421 C 1.35498 0.36817 0.70807
 H422 H 1.38836 0.33668 0.70746
 H423 H 1.34683 0.38020 0.71255
 Cu424 Cu 1.36072 0.32508 0.67233
 Cu425 Cu 1.32904 0.35988 0.67646
 Cu426 Cu 1.32381 0.32534 0.64274
 N427 N 1.35809 0.30600 0.65314
 N428 N 1.34311 0.30569 0.64222
 C429 C 1.34427 0.29077 0.63080
 C430 C 1.36105 0.28123 0.63454
 C431 C 1.36942 0.29142 0.64886
 H432 H 1.33387 0.28753 0.62020
 H433 H 1.38258 0.28831 0.65596
 N434 N 1.30602 0.34658 0.64551
 N435 N 1.30823 0.35989 0.65810
 C436 C 1.29449 0.37286 0.65581
 C437 C 1.28303 0.36746 0.64110
 C438 C 1.29076 0.35070 0.63494
 H439 H 1.29295 0.38536 0.66420
 H440 H 1.28596 0.34244 0.62322
 H441 H 1.32690 0.33153 0.67065
 H442 H 1.34074 0.34609 0.65385
 N443 N 1.35042 0.85854 1.19556
 N444 N 1.36443 0.84655 1.19376
 C445 C 1.37720 0.84948 1.20741
 C446 C 1.37079 0.86405 1.21858
 C447 C 1.35364 0.86938 1.21058
 H448 H 1.38999 0.84133 1.20924
 H449 H 1.34436 0.88061 1.21494
 Cu450 Cu 1.36419 0.82798 1.17407
 Cu451 Cu 1.32960 0.85980 1.17771
 Cu452 Cu 1.32682 0.82341 1.14552
 N453 N 1.36395 0.80941 1.15438
 N454 N 1.34908 0.80706 1.14359
 C455 C 1.35224 0.79234 1.13221
 C456 C 1.37023 0.78518 1.13596
 C457 C 1.37714 0.79654 1.15011
 H458 H 1.34220 0.78739 1.12194
 H459 H 1.39052 0.79520 1.15731
 N460 N 1.30841 0.84448 1.14635
 N461 N 1.30975 0.85837 1.15846
 C462 C 1.29614 0.87113 1.15482
 C463 C 1.28565 0.86510 1.13969
 C464 C 1.29377 0.84807 1.13471
 H465 H 1.29411 0.88400 1.16253
 H466 H 1.28977 0.83934 1.12303
 H467 H 1.32986 0.83139 1.17324
 H468 H 1.34212 0.84594 1.15521
 N469 N 0.84643 0.35977 1.18918
 N470 N 0.85878 0.34601 1.19091
 C471 C 0.87000 0.34953 1.20580
 C472 C 0.86451 0.36661 1.21362
 C473 C 0.84951 0.37258 1.20254
 H474 H 0.88149 0.34052 1.21033
 H475 H 0.84090 0.38501 1.20435
 Cu476 Cu 0.85904 0.32534 1.17292
 Cu477 Cu 0.82619 0.35982 1.17076
 Cu478 Cu 0.82464 0.32222 1.14051
 N479 N 0.85812 0.30435 1.15529
 N480 N 0.84431 0.30335 1.14298
 C481 C 0.84650 0.28787 1.13258
 C482 C 0.86258 0.27851 1.13848
 C483 C 0.86975 0.28942 1.15291
 H484 H 0.83726 0.28394 1.12119
 H485 H 0.88235 0.28660 1.16108
 N486 N 0.80595 0.34264 1.14000
 N487 N 0.80672 0.35722 1.15126
 C488 C 0.79202 0.36874 1.14744
 C489 C 0.78148 0.36094 1.13314
 C490 C 0.79074 0.34442 1.12877
 H491 H 0.78896 0.38163 1.15479
 H492 H 0.78677 0.33450 1.11807
 H493 H 0.82539 0.33101 1.16805
 H494 H 0.84035 0.34429 1.15108
 N495 N 0.84806 0.85595 0.69521
 N496 N 0.86185 0.84367 0.69351
 C497 C 0.87469 0.84652 0.70713
 C498 C 0.86860 0.86134 0.71803
 C499 C 0.85159 0.86696 0.71005
 H500 H 0.88743 0.83831 0.70910
 H501 H 0.84265 0.87846 0.71446
 Cu502 Cu 0.86155 0.82521 0.67366
 Cu503 Cu 0.82696 0.85708 0.67764
 Cu504 Cu 0.82659 0.82417 0.64181
 N505 N 0.86125 0.80663 0.65395
 N506 N 0.84742 0.80596 0.64164
 C507 C 0.85069 0.79162 0.62980
 C508 C 0.86759 0.78302 0.63491
 C509 C 0.87382 0.79293 0.65029
 H510 H 0.84167 0.78797 0.61815
 H511 H 0.88649 0.79019 0.65835
 N512 N 0.80691 0.84383 0.64459
 N513 N 0.80692 0.85601 0.65845
 C514 C 0.79182 0.86745 0.65664
 C515 C 0.78182 0.86238 0.64083
 C516 C 0.79182 0.84737 0.63350
 H517 H 0.78856 0.87896 0.66589
 H518 H 0.78829 0.83955 0.62106
 H519 H 0.82746 0.82897 0.67014
 H520 H 0.84096 0.84555 0.65504
 N521 N 0.65157 0.64145 0.69171
 N522 N 0.63877 0.65478 0.68985
 C523 C 0.62589 0.65292 0.70354
 C524 C 0.63099 0.63768 0.71461
 C525 C 0.64737 0.63076 0.70666
 H526 H 0.61388 0.66213 0.70550
 H527 H 0.65549 0.61867 0.71124
 Cu528 Cu 0.64034 0.67352 0.67001
 Cu529 Cu 0.67251 0.63865 0.67447
 Cu530 Cu 0.67711 0.67280 0.64021
 N531 N 0.64372 0.69292 0.65103
 N532 N 0.65829 0.69278 0.63972
 C533 C 0.65717 0.70775 0.62817
 C534 C 0.64096 0.71780 0.63239
 C535 C 0.63280 0.70796 0.64700
 H536 H 0.66716 0.71084 0.61722
 H537 H 0.61993 0.71157 0.65424
 N538 N 0.69468 0.65142 0.64288
 N539 N 0.69276 0.63821 0.65574
 C540 C 0.70643 0.62519 0.65348
 C541 C 0.71756 0.63050 0.63853
 C542 C 0.70969 0.64721 0.63219
 H543 H 0.70820 0.61278 0.66210
 H544 H 0.71427 0.65544 0.62032
 H545 H 0.67415 0.66708 0.66838
 H546 H 0.66013 0.65227 0.65187
 N547 N 0.65356 1.13860 1.19341
 N548 N 0.64260 1.15342 1.19517
 C549 C 0.63094 1.15053 1.20982
 C550 C 0.63472 1.13277 1.21740
 C551 C 0.64919 1.12578 1.20646
 H552 H 0.62029 1.16044 1.21433
 H553 H 0.65656 1.11256 1.20813
 Cu554 Cu 0.64444 1.17456 1.17748
 Cu555 Cu 0.67363 1.13696 1.17531
 Cu556 Cu 0.67659 1.17216 1.14242
 N557 N 0.64483 1.19286 1.15685
 N558 N 0.65731 1.19163 1.14336
 C559 C 0.65401 1.20527 1.13069
 C560 C 0.63863 1.21577 1.13639
 C561 C 0.63319 1.20755 1.15317
 H562 H 0.66221 1.20734 1.11816
 H563 H 0.62133 1.21161 1.16173
 N564 N 0.69473 1.15113 1.14376
 N565 N 0.69322 1.13745 1.15614
 C566 C 0.70697 1.12470 1.15322
 C567 C 0.71773 1.13062 1.13827
 C568 C 0.70960 1.14749 1.13264
 H569 H 0.70912 1.11210 1.16146
 H570 H 0.71395 1.15623 1.12104
 H571 H 0.67702 1.16569 1.17043
 H572 H 0.65925 1.15319 1.15547
 N573 N 0.15808 0.64111 1.19659
 N574 N 0.14403 0.65321 1.19647
 C575 C 0.13260 0.64945 1.21102
 C576 C 0.14014 0.63432 1.22098
 C577 C 0.15639 0.62954 1.21135
 H578 H 0.11996 0.65735 1.21424
 H579 H 0.16588 0.61794 1.21426
 Cu580 Cu 0.14274 0.67285 1.17746
 Cu581 Cu 0.17645 0.63979 1.17669
 Cu582 Cu 0.17314 0.67318 1.14134
 N583 N 0.14138 0.69200 1.15802
 N584 N 0.15282 0.69172 1.14363
 C585 C 0.14851 0.70621 1.13217
 C586 C 0.13372 0.71640 1.13994
 C587 C 0.12965 0.70687 1.15641
 H588 H 0.15606 0.70937 1.11946
 H589 H 0.11876 0.71025 1.16636
 N590 N 0.19268 0.65318 1.14189
 N591 N 0.19368 0.64051 1.15540
 C592 C 0.20772 0.62834 1.15173
 C593 C 0.21612 0.63356 1.13519
 C594 C 0.20636 0.64948 1.12933
 H595 H 0.21161 0.61648 1.16045
 H596 H 0.20875 0.65742 1.11665
 H597 H 0.17584 0.66818 1.16941
 H598 H 0.15969 0.65234 1.15612
 N599 N 0.15272 1.14281 0.69506
 N600 N 0.13937 1.15566 0.69417
 C601 C 0.12679 1.15262 0.70780
 C602 C 0.13246 1.13707 0.71812
 C603 C 0.14919 1.13127 0.70968
 H604 H 0.11452 1.16135 0.71013
 H605 H 0.15774 1.11915 0.71334
 Cu606 Cu 0.13921 1.17533 0.67549
 Cu607 Cu 0.17242 1.14137 0.67589
 Cu608 Cu 0.17029 1.17528 0.64059
 N609 N 0.13903 1.19486 0.65661
 N610 N 0.15063 1.19433 0.64240
 C611 C 0.14687 1.20895 0.63094
 C612 C 0.13221 1.21942 0.63856
 C613 C 0.12770 1.20999 0.65492
 H614 H 0.15463 1.21193 0.61831
 H615 H 0.11665 1.21351 0.66465
 N616 N 0.18927 1.15504 0.64128
 N617 N 0.19064 1.14249 0.65489
 C618 C 0.20538 1.13096 0.65126
 C619 C 0.21348 1.13652 0.63451
 C620 C 0.20289 1.15182 0.62869
 H621 H 0.20965 1.11917 0.65990
 H622 H 0.20514 1.16017 0.61626
 H623 H 0.17251 1.16958 0.66901
 H624 H 0.15656 1.15404 0.65525
 N625 N 1.34712 0.64133 0.30879
 N626 N 1.36154 0.65274 0.31091
 C627 C 1.37420 0.64966 0.29735
 C628 C 1.36758 0.63540 0.28604
 C629 C 1.35022 0.63048 0.29366
 H630 H 1.38725 0.65735 0.29580
 H631 H 1.34075 0.61963 0.28878
 Cu632 Cu 1.36311 0.67034 0.33132
 Cu633 Cu 1.32584 0.64161 0.32634
 Cu634 Cu 1.32568 0.67816 0.35851
 N635 N 1.36182 0.69223 0.34718
 N636 N 1.34703 0.69556 0.35766
 C637 C 1.35006 0.71141 0.36745
 C638 C 1.36787 0.71837 0.36296
 C639 C 1.37478 0.70572 0.34993
 H640 H 1.34023 0.71703 0.37749
 H641 H 1.38822 0.70616 0.34285
 N642 N 1.30555 0.65900 0.35722
 N643 N 1.30576 0.64480 0.34539
 C644 C 1.29076 0.63365 0.34890
 C645 C 1.28056 0.64128 0.36354
 C646 C 1.29039 0.65734 0.36839
 H647 H 1.28748 0.62091 0.34137
 H648 H 1.28706 0.66680 0.37968
 H649 H 1.32879 0.67006 0.33089
 H650 H 1.33888 0.65391 0.34904
 N651 N 1.34656 1.14221 0.80809
 N652 N 1.36018 1.15472 0.80889
 C653 C 1.37265 1.15137 0.79522
 C654 C 1.36665 1.13593 0.78521
 C655 C 1.34992 1.13049 0.79370
 H656 H 1.38521 1.15959 0.79266
 H657 H 1.34117 1.11861 0.79003
 Cu658 Cu 1.36072 1.17406 0.82784
 Cu659 Cu 1.32628 1.14167 0.82663
 Cu660 Cu 1.32752 1.17631 0.86082
 N661 N 1.36129 1.19341 0.84679
 N662 N 1.34802 1.19454 0.85950
 C663 C 1.35175 1.20918 0.87079
 C664 C 1.36836 1.21756 0.86490
 C665 C 1.37399 1.20716 0.84963
 H666 H 1.34328 1.21316 0.88266
 H667 H 1.38636 1.20955 0.84116
 N668 N 1.30796 1.15664 0.85982
 N669 N 1.30722 1.14363 0.84674
 C670 C 1.29248 1.13216 0.85027
 C671 C 1.28365 1.13815 0.86643
 C672 C 1.29386 1.15371 0.87203
 H673 H 1.28878 1.11998 0.84206
 H674 H 1.29123 1.16223 0.88420
 H675 H 1.32689 1.16998 0.83261
 H676 H 1.34140 1.15421 0.84786
 N677 N 0.84764 0.64095 0.80406
 N678 N 0.86136 0.65322 0.80590
 C679 C 0.87418 0.65041 0.79236
 C680 C 0.86820 0.63561 0.78134
 C681 C 0.85122 0.62998 0.78918
 H682 H 0.88686 0.65863 0.79052
 H683 H 0.84234 0.61851 0.78464
 Cu684 Cu 0.86102 0.67170 0.82582
 Cu685 Cu 0.82659 0.63981 0.82164
 Cu686 Cu 0.82619 0.67279 0.85745
 N687 N 0.86068 0.69041 0.84551
 N688 N 0.84691 0.69111 0.85774
 C689 C 0.85017 0.70548 0.86958
 C690 C 0.86699 0.71412 0.86455
 C691 C 0.87317 0.70414 0.84920
 H692 H 0.84118 0.70915 0.88118
 H693 H 0.88579 0.70685 0.84119
 N694 N 0.80658 0.65307 0.85464
 N695 N 0.80659 0.64084 0.84081
 C696 C 0.79155 0.62941 0.84261
 C697 C 0.78158 0.63451 0.85838
 C698 C 0.79156 0.64956 0.86568
 H699 H 0.78831 0.61788 0.83336
 H700 H 0.78805 0.65744 0.87806
 H701 H 0.82693 0.66790 0.82913
 H702 H 0.84060 0.65134 0.84431
 N703 N 0.84634 1.13786 0.30804
 N704 N 0.85861 1.15170 0.30756
 C705 C 0.87086 1.14853 0.29348
 C706 C 0.86600 1.13171 0.28490
 C707 C 0.85035 1.12547 0.29454
 H708 H 0.88262 1.15754 0.28996
 H709 H 0.84232 1.11286 0.29183
 Cu710 Cu 0.85719 1.17207 0.32586
 Cu711 Cu 0.82607 1.13639 0.32609
 Cu712 Cu 0.82309 1.17184 0.35873
 N713 N 0.85590 1.19148 0.34514
 N714 N 0.84223 1.19143 0.35752
 C715 C 0.84422 1.20631 0.36886
 C716 C 0.86004 1.21629 0.36348
 C717 C 0.86718 1.20642 0.34839
 H718 H 0.83501 1.20943 0.38044
 H719 H 0.87952 1.21001 0.34027
 N720 N 0.80510 1.15073 0.35771
 N721 N 0.80645 1.13712 0.34535
 C722 C 0.79275 1.12443 0.34853
 C723 C 0.78219 1.13029 0.36361
 C724 C 0.79038 1.14709 0.36905
 H725 H 0.79056 1.11184 0.34043
 H726 H 0.78621 1.15575 0.38070
 H727 H 0.82382 1.16505 0.33088
 H728 H 0.83978 1.15140 0.34687
 N729 N 0.65204 0.35741 0.30610
 N730 N 0.63969 0.34365 0.30552
 C731 C 0.62877 0.34562 0.29025
 C732 C 0.63418 0.36172 0.28071
 C733 C 0.64901 0.36894 0.29134
 H734 H 0.61734 0.33626 0.28669
 H735 H 0.65736 0.38128 0.28830
 Cu736 Cu 0.63855 0.32468 0.32494
 Cu737 Cu 0.67171 0.35828 0.32554
 Cu738 Cu 0.67077 0.32245 0.35899
 N739 N 0.63748 0.30520 0.34391
 N740 N 0.65072 0.30383 0.35675
 C741 C 0.64706 0.28893 0.36780
 C742 C 0.63037 0.28062 0.36174
 C743 C 0.62474 0.29144 0.34651
 H744 H 0.65556 0.28498 0.37978
 H745 H 0.61246 0.28935 0.33776
 N746 N 0.68977 0.34263 0.35897
 N747 N 0.69028 0.35626 0.34636
 C748 C 0.70483 0.36778 0.35047
 C749 C 0.71370 0.36119 0.36654
 C750 C 0.70376 0.34525 0.37147
 H751 H 0.70852 0.38025 0.34260
 H752 H 0.70661 0.33616 0.38330
 H753 H 0.67204 0.32980 0.33090
 H754 H 0.65668 0.34456 0.34601
 N755 N 0.65624 0.86003 0.80950
 N756 N 0.64303 0.84707 0.80992
 C757 C 0.63048 0.85062 0.79607
 C758 C 0.63614 0.86680 0.78677
 C759 C 0.65253 0.87229 0.79566
 H760 H 0.61797 0.84240 0.79325
 H761 H 0.66118 0.88432 0.79224
 Cu762 Cu 0.64343 0.82760 0.82925
 Cu763 Cu 0.67719 0.86065 0.82691
 Cu764 Cu 0.67888 0.82607 0.86095
 N765 N 0.64501 0.80776 0.84812
 N766 N 0.65897 0.80731 0.86031
 C767 C 0.65696 0.79226 0.87155
 C768 C 0.64082 0.78270 0.86624
 C769 C 0.63354 0.79298 0.85133
 H770 H 0.66645 0.78866 0.88290
 H771 H 0.62099 0.78978 0.84329
 N772 N 0.69774 0.84630 0.85911
 N773 N 0.69730 0.85911 0.84572
 C774 C 0.71215 0.87066 0.84775
 C775 C 0.72239 0.86498 0.86322
 C776 C 0.71284 0.84952 0.87017
 H777 H 0.71510 0.88264 0.83888
 H778 H 0.71674 0.84116 0.88225
 H779 H 0.67736 0.83203 0.83286
 H780 H 0.66337 0.84744 0.84879
 N781 N 0.15226 0.35868 0.80887
 N782 N 0.13896 0.34588 0.81049
 C783 C 0.12589 0.34865 0.79701
 C784 C 0.13125 0.36396 0.78626
 C785 C 0.14811 0.36995 0.79421
 H786 H 0.11365 0.33987 0.79481
 H787 H 0.15671 0.38165 0.78968
 Cu788 Cu 0.14080 0.32616 0.82937
 Cu789 Cu 0.17422 0.35953 0.82575
 Cu790 Cu 0.17787 0.32308 0.85809
 N791 N 0.14265 0.30592 0.84776
 N792 N 0.15784 0.30448 0.85828
 C793 C 0.15651 0.28912 0.86917
 C794 C 0.13940 0.28036 0.86553
 C795 C 0.13093 0.29155 0.85181
 H796 H 0.16706 0.28506 0.87938
 H797 H 0.11749 0.28922 0.84498
 N798 N 0.19667 0.34322 0.85601
 N799 N 0.19523 0.35748 0.84420
 C800 C 0.20995 0.36922 0.84713
 C801 C 0.22118 0.36177 0.86132
 C802 C 0.21226 0.34536 0.86655
 H803 H 0.21240 0.38213 0.83947
 H804 H 0.21657 0.33593 0.87767
 H805 H 0.17485 0.33107 0.83032
 H806 H 0.16206 0.34560 0.84781
 N807 N 0.15157 0.85654 0.30744
 N808 N 0.13937 0.84269 0.30846
 C809 C 0.12716 0.84410 0.29401
 C810 C 0.13192 0.85979 0.28350
 C811 C 0.14749 0.86731 0.29247
 H812 H 0.11558 0.83457 0.29141
 H813 H 0.15549 0.87952 0.28822
 Cu814 Cu 0.14056 0.82424 0.32863
 Cu815 Cu 0.17210 0.85946 0.32518
 Cu816 Cu 0.17701 0.82508 0.35925
 N817 N 0.14371 0.80510 0.34794
 N818 N 0.15837 0.80499 0.35927
 C819 C 0.15721 0.79000 0.37078
 C820 C 0.14074 0.78022 0.36666
 C821 C 0.13258 0.79033 0.35202
 H822 H 0.16733 0.78691 0.38173
 H823 H 0.11968 0.78708 0.34461
 N824 N 0.19428 0.84669 0.35701
 N825 N 0.19206 0.86001 0.34429
 C826 C 0.20539 0.87324 0.34680
 C827 C 0.21662 0.86800 0.36180
 C828 C 0.20919 0.85106 0.36791
 H829 H 0.20691 0.88572 0.33826
 H830 H 0.21402 0.84280 0.37973
 H831 H 0.17424 0.83092 0.33111
 H832 H 0.15979 0.84542 0.34748
 O833 O 0.97917 0.92986 0.90832
 O834 O 0.97831 0.90786 0.88674
 C835 C 0.97219 0.92327 0.89336
 C836 C 0.95647 0.93343 0.88394
 C837 C 0.94797 0.92609 0.86776
 H838 H 0.95319 0.91303 0.86197
 O839 O 1.01799 1.06838 0.90565
 O840 O 1.01814 1.09037 0.88383
 C841 C 1.02460 1.07505 0.89055
 C842 C 1.04023 1.06502 0.88104
 C843 C 1.04901 1.07283 0.86520
 H844 H 1.04420 1.08628 0.85979
 O845 O 0.90742 0.98322 0.93474
 O846 O 0.88445 0.98299 0.91381
 C847 C 0.89170 0.97687 0.92897
 C848 C 0.88204 0.96181 0.93963
 C849 C 0.86443 0.95506 0.93355
 H850 H 0.85747 0.96162 0.92168
 O851 O 1.09185 1.01659 0.92993
 O852 O 1.11344 1.01601 0.90783
 C853 C 1.10706 1.02287 0.92289
 C854 C 1.11703 1.03883 0.93183
 C855 C 1.13336 1.04636 0.92365
 H856 H 1.13932 1.03962 0.91149
 O857 O 0.93189 0.90573 0.98451
 O858 O 0.90910 0.88465 0.98512
 C859 C 0.92441 0.89076 0.97825
 C860 C 0.93319 0.88073 0.96237
 C861 C 0.92478 0.86445 0.95504
 H862 H 0.91252 0.85855 0.96188
 O863 O 1.06866 1.09306 0.97990
 O864 O 1.09082 1.11480 0.97930
 C865 C 1.07510 1.10844 0.97348
 C866 C 1.06450 1.11862 0.95863
 C867 C 1.07077 1.13614 0.95192
 H868 H 1.08278 1.14283 0.95852
 O869 O 0.93219 1.01876 0.90664
 O870 O 0.90935 1.01864 0.88557
 C871 C 0.92504 1.02497 0.89149
 C872 C 0.93490 1.04015 0.88117
 C873 C 0.92827 1.04670 0.86373
 H874 H 0.91629 1.03991 0.85718
 O875 O 1.06552 0.97932 0.90545
 O876 O 1.08722 0.97872 0.88348
 C877 C 1.07204 0.97238 0.89046
 C878 C 1.06223 0.95635 0.88146
 C879 C 1.06973 0.94792 0.86536
 H880 H 1.08255 0.95346 0.85927
 O881 O 1.01660 0.90391 0.93322
 O882 O 1.01607 0.88184 0.91170
 C883 C 1.02312 0.88871 0.92653
 C884 C 1.03958 0.87949 0.93572
 C885 C 1.04826 0.86362 0.92771
 H886 H 1.04251 0.85766 0.91502
 O887 O 0.98089 1.09406 0.93082
 O888 O 0.98052 1.11593 0.90888
 C889 C 0.97413 1.10925 0.92407
 C890 C 0.95837 1.11883 0.93382
 C891 C 0.94974 1.13503 0.92616
 H892 H 0.95490 1.14081 0.91314
 O893 O 0.90750 1.06900 0.98275
 O894 O 0.88530 1.09085 0.98322
 C895 C 0.89193 1.07564 0.97663
 C896 C 0.88194 1.06588 0.96121
 C897 C 0.86442 1.07251 0.95435
 H898 H 0.85760 1.08433 0.96104
 O899 O 1.09325 0.93089 0.98125
 O900 O 1.11539 0.90897 0.98091
 C901 C 1.10851 0.92430 0.97465
 C902 C 1.11798 0.93427 0.95915
 C903 C 1.13544 0.92787 0.95237
 H904 H 1.14255 0.91623 0.95928
 O905 O 0.98118 1.06790 0.90586
 O906 O 0.98117 1.08965 0.88379
 C907 C 0.97477 1.07439 0.89054
 C908 C 0.95934 1.06434 0.88082
 C909 C 0.95253 1.07076 0.86351
 H910 H 0.95895 1.08297 0.85707
 O911 O 1.01594 0.92960 0.90758
 O912 O 1.01520 0.90760 0.88599
 C913 C 1.02198 0.92284 0.89234
 C914 C 1.03760 0.93231 0.88234
 C915 C 1.04506 0.92436 0.86606
 H916 H 1.03839 0.91206 0.86013
 O917 O 1.09154 0.97986 0.93108
 O918 O 1.11324 0.97943 0.90909
 C919 C 1.10684 0.97333 0.92450
 C920 C 1.11705 0.95817 0.93457
 C921 C 1.13437 0.95144 0.92784
 H922 H 1.14034 0.95763 0.91535
 O923 O 0.90751 1.01989 0.93333
 O924 O 0.88462 1.01961 0.91232
 C925 C 0.89189 1.02628 0.92711
 C926 C 0.88219 1.04183 0.93693
 C927 C 0.86480 1.04870 0.93025
 H928 H 0.85853 1.04245 0.91794
 O929 O 0.93360 1.09436 0.98178
 O930 O 0.91144 1.11624 0.98235
 C931 C 0.92649 1.10953 0.97538
 C932 C 0.93528 1.11902 0.95912
 C933 C 0.92702 1.13528 0.95139
 H934 H 0.91493 1.14160 0.95817
 O935 O 1.06745 0.90507 0.98169
 O936 O 1.08961 0.88318 0.98138
 C937 C 1.07413 0.88986 0.97516
 C938 C 1.06437 0.88017 0.95962
 C939 C 1.07262 0.86421 0.95159
 H940 H 1.08538 0.85829 0.95769
 O941 O 1.06522 1.01631 0.90508
 O942 O 1.08687 1.01563 0.88305
 C943 C 1.07185 1.02258 0.88984
 C944 C 1.06277 1.03889 0.88046
 C945 C 1.07093 1.04660 0.86437
 H946 H 1.08270 1.03940 0.85791
 O947 O 0.93185 0.98197 0.90797
 O948 O 0.90892 0.98188 0.88700
 C949 C 0.92438 0.97523 0.89329
 C950 C 0.93330 0.95901 0.88384
 C951 C 0.92521 0.95163 0.86753
 H952 H 0.91319 0.95869 0.86118
 O953 O 1.01777 1.09358 0.93158
 O954 O 1.01753 1.11568 0.90985
 C955 C 1.02408 1.10893 0.92504
 C956 C 1.03959 1.11873 0.93488
 C957 C 1.04622 1.13605 0.92821
 H958 H 1.03963 1.14234 0.91599
 O959 O 0.97952 0.90407 0.93391
 O960 O 0.97877 0.88197 0.91244
 C961 C 0.97259 0.88891 0.92755
 C962 C 0.95670 0.87977 0.93750
 C963 C 0.94791 0.86364 0.93021
 H964 H 0.95315 0.85754 0.91741
 O965 O 1.09409 1.06675 0.97850
 O966 O 1.11632 1.08841 0.97772
 C967 C 1.10913 1.07334 0.97141
 C968 C 1.11798 1.06365 0.95534
 C969 C 1.13413 1.07116 0.94672
 H970 H 1.14027 1.08400 0.95204
 O971 O 0.90813 0.93357 0.98548
 O972 O 0.88535 0.91248 0.98601
 C973 C 0.89239 0.92757 0.97945
 C974 C 0.88242 0.93780 0.96425
 C975 C 0.86493 0.93121 0.95780
 H976 H 0.85866 0.91894 0.96428
 Cu977 Cu 0.99785 0.91899 0.92297
 Cu978 Cu 0.99701 0.89256 0.89709
 Cu979 Cu 0.99946 1.07880 0.92066
 Cu980 Cu 0.99934 1.10513 0.89439
 Cu981 Cu 0.92209 1.00104 0.92272
 Cu982 Cu 0.89454 1.00076 0.89757
 Cu983 Cu 1.07631 0.99802 0.92006
 Cu984 Cu 1.10231 0.99735 0.89361
 C985 C 0.94908 0.94995 0.89180
 H986 H 0.95525 0.95547 0.90451
 C987 C 0.93227 0.93507 0.85949
 C988 C 1.04725 1.04803 0.88854
 H989 H 1.04101 1.04221 0.90107
 C990 C 1.06453 1.06376 0.85684
 C991 C 0.89086 0.95322 0.95517
 H992 H 0.90459 0.95810 0.95978
 C993 C 0.85588 0.93965 0.94243
 C994 C 1.10957 1.04745 0.94780
 H995 H 1.09687 1.04182 0.95408
 C996 C 1.14191 1.06266 0.93079
 C997 C 0.94928 0.88810 0.95364
 H998 H 0.95569 0.90077 0.95911
 C999 C 0.93185 0.85586 0.93884
 C1000 C 1.04870 1.11019 0.95020
 H1001 H 1.04392 1.09659 0.95512
 C1002 C 1.06177 1.14494 0.93661
 C1003 C 0.95059 1.04892 0.88940
 H1004 H 0.95563 1.04413 0.90293
 C1005 C 0.93708 1.06200 0.85474
 C1006 C 1.04612 0.94846 0.88979
 H1007 H 1.04056 0.95455 0.90247
 C1008 C 1.06131 0.93182 0.85761
 C1009 C 1.04773 0.88760 0.95173
 H1010 H 1.04147 0.90009 0.95773
 C1011 C 1.06494 0.85601 0.93548
 C1012 C 0.95107 1.11103 0.95035
 H1013 H 0.95735 1.09835 0.95613
 C1014 C 0.93395 1.14330 0.93480
 C1015 C 0.89056 1.05040 0.95249
 H1016 H 0.90413 1.04532 0.95752
 C1017 C 0.85571 1.06394 0.93885
 C1018 C 1.10902 0.94960 0.95032
 H1019 H 1.09545 0.95447 0.95534
 C1020 C 1.14372 0.93633 0.93664
 O1021 O 1.02110 0.93172 1.09401
 O1022 O 1.02172 0.90992 1.11604
 C1023 C 1.02796 0.92517 1.10912
 C1024 C 1.04376 0.93511 1.11837
 C1025 C 1.05076 0.92886 1.13570
 H1026 H 1.04377 0.91740 1.14285
 O1027 O 0.98491 1.06815 1.09378
 O1028 O 0.98594 1.09034 1.11516
 C1029 C 0.97891 1.07520 1.10893
 C1030 C 0.96313 1.06610 1.11901
 C1031 C 0.95571 1.07431 1.13519
 H1032 H 0.96249 1.08662 1.14099
 O1033 O 0.90988 1.01907 1.07022
 O1034 O 0.88798 1.01955 1.09201
 C1035 C 0.89467 1.02584 1.07676
 C1036 C 0.88509 1.04164 1.06687
 C1037 C 0.86875 1.04991 1.07441
 H1038 H 0.86291 1.04443 1.08728
 O1039 O 1.09691 0.97999 1.06614
 O1040 O 1.11953 0.97995 1.08744
 C1041 C 1.11232 0.97334 1.07260
 C1042 C 1.12147 0.95730 1.06308
 C1043 C 1.13778 0.94874 1.07064
 H1044 H 1.14403 0.95426 1.08330
 O1045 O 1.06832 0.90526 1.01827
 O1046 O 1.09030 0.88318 1.01786
 C1047 C 1.07520 0.88998 1.02463
 C1048 C 1.06584 0.88033 1.04042
 C1049 C 1.07302 0.86324 1.04736
 H1050 H 1.08539 0.85712 1.04092
 O1051 O 0.93463 1.09467 1.01838
 O1052 O 0.91261 1.11667 1.01896
 C1053 C 0.92817 1.10995 1.02498
 C1054 C 0.93858 1.11952 1.04027
 C1055 C 0.93208 1.13671 1.04755
 H1056 H 0.91991 1.14358 1.04127
 O1057 O 0.93563 0.98243 1.09649
 O1058 O 0.91389 0.98270 1.11844
 C1059 C 0.92912 0.97604 1.11175
 C1060 C 0.93903 0.96019 1.12127
 C1061 C 0.93253 0.95295 1.13840
 H1062 H 0.92084 0.95979 1.14534
 O1063 O 1.07166 1.01699 1.09159
 O1064 O 1.09427 1.01706 1.11291
 C1065 C 1.07868 1.02342 1.10661
 C1066 C 1.06881 1.03868 1.11662
 C1067 C 1.07576 1.04519 1.13380
 H1068 H 1.08832 1.03880 1.13981
 O1069 O 0.98365 0.90597 1.06958
 O1070 O 0.98418 0.88401 1.09145
 C1071 C 0.97737 0.89069 1.07635
 C1072 C 0.96170 0.88092 1.06674
 C1073 C 0.95476 0.86376 1.07358
 H1074 H 0.96114 0.85750 1.08591
 O1075 O 1.02209 1.09252 1.06725
 O1076 O 1.02312 1.11456 1.08878
 C1077 C 1.02918 1.10761 1.07365
 C1078 C 1.04496 1.11688 1.06369
 C1079 C 1.05338 1.13313 1.07108
 H1080 H 1.04810 1.13896 1.08398
 O1081 O 0.90813 0.93206 1.02208
 O1082 O 0.88548 0.91083 1.02252
 C1083 C 0.89283 0.92574 1.02893
 C1084 C 0.88374 0.93549 1.04484
 C1085 C 0.86735 0.92803 1.05309
 H1086 H 0.86127 0.91522 1.04761
 O1087 O 1.09580 1.06629 1.01510
 O1088 O 1.11816 1.08782 1.01440
 C1089 C 1.11146 1.07265 1.02108
 C1090 C 1.12151 1.06273 1.03649
 C1091 C 1.13878 1.06963 1.04344
 H1092 H 1.14537 1.08159 1.03671
 O1093 O 1.02174 1.06660 1.09278
 O1094 O 1.02272 1.08860 1.11436
 C1095 C 1.02864 1.07309 1.10781
 C1096 C 1.04419 1.06282 1.11735
 C1097 C 1.05119 1.06899 1.13464
 H1098 H 1.04435 1.08065 1.14159
 O1099 O 0.98425 0.93184 1.09485
 O1100 O 0.98481 0.90997 1.11680
 C1101 C 0.97817 0.92527 1.11021
 C1102 C 0.96292 0.93527 1.12028
 C1103 C 0.95607 0.92811 1.13722
 H1104 H 0.96218 0.91532 1.14292
 O1105 O 1.09645 1.01680 1.06505
 O1106 O 1.11912 1.01682 1.08629
 C1107 C 1.11199 1.02323 1.07121
 C1108 C 1.12160 1.03867 1.06106
 C1109 C 1.13873 1.04588 1.06784
 H1110 H 1.14501 1.03984 1.08033
 O1111 O 0.90947 0.98230 1.07103
 O1112 O 0.88762 0.98266 1.09287
 C1113 C 0.89417 0.97597 1.07780
 C1114 C 0.88430 0.96017 1.06850
 C1115 C 0.86773 0.95270 1.07626
 H1116 H 0.86154 0.95942 1.08832
 O1117 O 1.07011 1.09221 1.01626
 O1118 O 1.09241 1.11382 1.01569
 C1119 C 1.07727 1.10726 1.02261
 C1120 C 1.06831 1.11682 1.03866
 C1121 C 1.07629 1.13326 1.04607
 H1122 H 1.08832 1.13959 1.03922
 O1123 O 0.93393 0.90613 1.02093
 O1124 O 0.91130 0.88487 1.02148
 C1125 C 0.92706 0.89101 1.02745
 C1126 C 0.93719 0.88095 1.04262
 C1127 C 0.93058 0.86364 1.04946
 H1128 H 0.91863 0.85698 1.04271
 O1129 O 1.07142 0.98040 1.09185
 O1130 O 1.09399 0.98048 1.11322
 C1131 C 1.07843 0.97409 1.10701
 C1132 C 1.06857 0.95890 1.11726
 C1133 C 1.07558 0.95227 1.13446
 H1134 H 1.08821 0.95849 1.14036
 O1135 O 0.93529 1.01929 1.09622
 O1136 O 0.91348 1.01972 1.11809
 C1137 C 0.92867 1.02614 1.11120
 C1138 C 0.93842 1.04221 1.12017
 C1139 C 0.93093 1.05085 1.13618
 H1140 H 0.91810 1.04539 1.14232
 O1141 O 0.98509 1.09311 1.06725
 O1142 O 0.98615 1.11529 1.08864
 C1143 C 0.97915 1.10864 1.07369
 C1144 C 0.96354 1.11877 1.06404
 C1145 C 0.95679 1.13586 1.07113
 H1146 H 0.96336 1.14177 1.08345
 O1147 O 1.02042 0.90566 1.06885
 O1148 O 1.02103 0.88375 1.09076
 C1149 C 1.02702 0.89031 1.07536
 C1150 C 1.04221 0.88036 1.06516
 C1151 C 1.04930 0.86300 1.07166
 H1152 H 1.04276 0.85630 1.08357
 O1153 O 1.09451 0.93059 1.01760
 O1154 O 1.11644 0.90847 1.01715
 C1155 C 1.11002 0.92376 1.02366
 C1156 C 1.12031 0.93319 1.03898
 C1157 C 1.13678 0.92504 1.04648
 H1158 H 1.14267 0.91259 1.04006
 O1159 O 0.90936 1.06829 1.01929
 O1160 O 0.88728 1.09024 1.01972
 C1161 C 0.89423 1.07497 1.02608
 C1162 C 0.88492 1.06542 1.04202
 C1163 C 0.86845 1.07321 1.04963
 H1164 H 0.86196 1.08536 1.04299
 Cu1165 Cu 1.00231 0.92099 1.07963
 Cu1166 Cu 1.00300 0.89473 1.10600
 Cu1167 Cu 1.00335 1.07788 1.07811
 Cu1168 Cu 1.00459 1.10444 1.10386
 Cu1169 Cu 0.92280 0.92148 1.00322
 Cu1170 Cu 0.89551 0.89614 1.00382
 Cu1171 Cu 1.07864 0.92015 0.99973
 Cu1172 Cu 1.10510 0.89370 0.99926
 Cu1173 Cu 0.92349 1.07941 1.00050
 Cu1174 Cu 0.89696 1.10569 1.00118
 Cu1175 Cu 1.07998 1.07739 0.99747
 Cu1176 Cu 1.10670 1.10334 0.99670
 Cu1177 Cu 0.92478 1.00072 1.08137
 Cu1178 Cu 0.89854 1.00116 1.10753
 Cu1179 Cu 1.08188 0.99855 1.07649
 Cu1180 Cu 1.10905 0.99864 1.10206
 C1181 C 1.05259 0.95030 1.10939
 H1182 H 1.04735 0.95507 1.09594
 C1183 C 1.06676 0.93726 1.14383
 C1184 C 0.95456 1.04992 1.11178
 H1185 H 0.96014 1.04365 1.09920
 C1186 C 0.93945 1.06701 1.14378
 C1187 C 0.89305 1.04949 1.05061
 H1188 H 0.90592 1.04356 1.04496
 C1189 C 0.86045 1.06582 1.06597
 C1190 C 1.11292 0.94946 1.04719
 H1191 H 1.10007 0.95567 1.04158
 C1192 C 1.14546 0.93247 1.06249
 C1193 C 1.05039 0.88874 1.04936
 H1194 H 1.04508 0.90216 1.04434
 C1195 C 1.06483 0.85433 1.06292
 C1196 C 0.95447 1.11080 1.04850
 H1197 H 0.95940 1.09742 1.04319
 C1198 C 0.94109 1.14498 1.06304
 C1199 C 0.95441 0.95138 1.11250
 H1200 H 0.95939 0.95671 1.09922
 C1201 C 0.94094 0.93682 1.14649
 C1202 C 1.05292 1.04748 1.10859
 H1203 H 1.04773 1.04278 1.09515
 C1204 C 1.06706 1.06033 1.14294
 C1205 C 0.95292 0.88931 1.05118
 H1206 H 0.95797 0.90275 1.04608
 C1207 C 0.93922 0.85496 1.06501
 C1208 C 1.05249 1.10887 1.04744
 H1209 H 1.04636 1.09610 1.04192
 C1210 C 1.06910 1.14142 1.06242
 C1211 C 0.89208 0.95159 1.05264
 H1212 H 0.90496 0.95714 1.04667
 C1213 C 0.85927 0.93645 1.06890
 C1214 C 1.11316 1.04710 1.04528
 H1215 H 1.09973 1.04186 1.04021
 C1216 C 1.14746 1.06133 1.05917
 O1217 O 1.06625 0.51767 0.59238
 O1218 O 1.08835 0.51811 0.61420
 C1219 C 1.07286 0.52429 0.60749
 C1220 C 1.06271 0.53967 0.61709
 C1221 C 1.06932 0.54637 0.63429
 H1222 H 1.08170 0.53995 0.64065
 O1223 O 0.93162 0.48017 0.59152
 O1224 O 0.90932 0.47998 0.61290
 C1225 C 0.92493 0.47379 0.60672
 C1226 C 0.93517 0.45859 0.61686
 C1227 C 0.92876 0.45187 0.63421
 H1228 H 0.91683 0.45866 0.64079
 O1229 O 1.01740 0.59346 0.56587
 O1230 O 1.01719 0.61545 0.58744
 C1231 C 1.02402 0.60862 0.57253
 C1232 C 1.04022 0.61798 0.56313
 C1233 C 1.04877 0.63403 0.57095
 H1234 H 1.04326 0.63981 0.58378
 O1235 O 0.98208 0.40576 0.56712
 O1236 O 0.98246 0.38350 0.58869
 C1237 C 0.97595 0.39022 0.57349
 C1238 C 0.96090 0.37998 0.56338
 C1239 C 0.95463 0.36251 0.57009
 H1240 H 0.96106 0.35648 0.58252
 O1241 O 1.09298 0.56733 0.51654
 O1242 O 1.11499 0.58921 0.51664
 C1243 C 1.10817 0.57406 0.52324
 C1244 C 1.11747 0.56456 0.53935
 C1245 C 1.13360 0.57242 0.54785
 H1246 H 1.13962 0.58524 0.54226
 O1247 O 0.90720 0.42917 0.51590
 O1248 O 0.88537 0.40710 0.51621
 C1249 C 0.89195 0.42251 0.52241
 C1250 C 0.88201 0.43247 0.53769
 C1251 C 0.86482 0.42551 0.54455
 H1252 H 0.85875 0.41301 0.53839
 O1253 O 0.97983 0.56792 0.59082
 O1254 O 0.97934 0.58989 0.61242
 C1255 C 0.97296 0.57462 0.60575
 C1256 C 0.95702 0.56479 0.61506
 C1257 C 0.94858 0.57233 0.63115
 H1258 H 0.95397 0.58529 0.63699
 O1259 O 1.01896 0.43090 0.59339
 O1260 O 1.01931 0.40859 0.61490
 C1261 C 1.02570 0.42395 0.60843
 C1262 C 1.04151 0.43360 0.61806
 C1263 C 1.04998 0.42587 0.63422
 H1264 H 1.04460 0.41285 0.64001
 O1265 O 1.09287 0.48120 0.56749
 O1266 O 1.11501 0.48159 0.58929
 C1267 C 1.10834 0.47496 0.57421
 C1268 C 1.11826 0.45942 0.56466
 C1269 C 1.13443 0.45104 0.57270
 H1270 H 1.13992 0.45628 0.58581
 O1271 O 0.90570 0.51637 0.56474
 O1272 O 0.88337 0.51631 0.58611
 C1273 C 0.89029 0.52290 0.57110
 C1274 C 0.88076 0.53882 0.56138
 C1275 C 0.86472 0.54734 0.56926
 H1276 H 0.85909 0.54191 0.58224
 O1277 O 0.93110 0.59206 0.51482
 O1278 O 0.90854 0.61355 0.51438
 C1279 C 0.92397 0.60718 0.52108
 C1280 C 0.93327 0.61706 0.53683
 C1281 C 0.92500 0.63330 0.54433
 H1282 H 0.91255 0.63929 0.53771
 O1283 O 1.06830 0.40781 0.51706
 O1284 O 1.09048 0.38592 0.51748
 C1285 C 1.07501 0.39252 0.52357
 C1286 C 1.06500 0.38246 0.53863
 C1287 C 1.07181 0.36504 0.54510
 H1288 H 1.08433 0.35901 0.53886
 O1289 O 0.93133 0.51693 0.59055
 O1290 O 0.90901 0.51675 0.61193
 C1291 C 0.92428 0.52349 0.60546
 C1292 C 0.93345 0.53963 0.61495
 C1293 C 0.92546 0.54723 0.63116
 H1294 H 0.91334 0.54041 0.63739
 O1295 O 1.06720 0.48089 0.59311
 O1296 O 1.08939 0.48144 0.61485
 C1297 C 1.07419 0.47461 0.60831
 C1298 C 1.06505 0.45864 0.61803
 C1299 C 1.07312 0.45095 0.63432
 H1300 H 1.08529 0.45771 0.64055
 O1301 O 1.01872 0.40670 0.56654
 O1302 O 1.01911 0.38426 0.58794
 C1303 C 1.02526 0.39126 0.57277
 C1304 C 1.04058 0.38168 0.56254
 C1305 C 1.04731 0.36406 0.56855
 H1306 H 1.04038 0.35694 0.58002
 O1307 O 0.98027 0.59340 0.56494
 O1308 O 0.97981 0.61546 0.58645
 C1309 C 0.97343 0.60858 0.57133
 C1310 C 0.95736 0.61780 0.56145
 C1311 C 0.94865 0.63390 0.56891
 H1312 H 0.95412 0.63994 0.58169
 O1313 O 0.90567 0.56595 0.51472
 O1314 O 0.88313 0.58745 0.51425
 C1315 C 0.89018 0.57239 0.52097
 C1316 C 0.88068 0.56282 0.53678
 C1317 C 0.86444 0.57084 0.54466
 H1318 H 0.85815 0.58319 0.53823
 O1319 O 1.09422 0.43343 0.51721
 O1320 O 1.11633 0.41148 0.51766
 C1321 C 1.10948 0.42670 0.52392
 C1322 C 1.11890 0.43609 0.53980
 C1323 C 1.13523 0.42815 0.54780
 H1324 H 1.14175 0.41604 0.54130
 O1325 O 0.98199 0.43169 0.59244
 O1326 O 0.98224 0.40949 0.61407
 C1327 C 0.97559 0.42482 0.60750
 C1328 C 0.95992 0.43454 0.61713
 C1329 C 0.95314 0.42779 0.63425
 H1330 H 0.95966 0.41547 0.64050
 O1331 O 1.01669 0.56766 0.59156
 O1332 O 1.01636 0.58952 0.61328
 C1333 C 1.02289 0.57418 0.60688
 C1334 C 1.03829 0.56408 0.61691
 C1335 C 1.04505 0.57052 0.63423
 H1336 H 1.03828 0.58243 0.64083
 O1337 O 0.90630 0.47942 0.56504
 O1338 O 0.88392 0.47933 0.58634
 C1339 C 0.89093 0.47280 0.57138
 C1340 C 0.88144 0.45700 0.56159
 C1341 C 0.86415 0.44983 0.56813
 H1342 H 0.85726 0.45651 0.57983
 O1343 O 1.09195 0.51789 0.56668
 O1344 O 1.11405 0.51824 0.58851
 C1345 C 1.10723 0.52452 0.57325
 C1346 C 1.11690 0.54022 0.56359
 C1347 C 1.13319 0.54801 0.57155
 H1348 H 1.13934 0.54158 0.58391
 O1349 O 0.93315 0.40339 0.51632
 O1350 O 0.91147 0.38118 0.51674
 C1351 C 0.92674 0.38813 0.52304
 C1352 C 0.93687 0.37880 0.53875
 C1353 C 0.93077 0.36133 0.54575
 H1354 H 0.91907 0.35418 0.53908
 O1355 O 1.06701 0.59301 0.51635
 O1356 O 1.08900 0.61491 0.51624
 C1357 C 1.07374 0.60823 0.52279
 C1358 C 1.06427 0.61782 0.53862
 C1359 C 1.07231 0.63403 0.54645
 H1360 H 1.08460 0.64023 0.53995
 Cu1361 Cu 1.07732 0.49934 0.57774
 Cu1362 Cu 1.10392 0.49996 0.60390
 Cu1363 Cu 0.92094 0.49815 0.57582
 Cu1364 Cu 0.89414 0.49803 0.60142
 Cu1365 Cu 0.99861 0.57847 0.57612
 Cu1366 Cu 0.99817 0.60484 0.60201
 Cu1367 Cu 1.00040 0.42107 0.57779
 Cu1368 Cu 1.00079 0.39425 0.60360
 C1369 C 1.04708 0.54849 0.60859
 H1370 H 1.04216 0.54359 0.59513
 C1371 C 1.06060 0.56174 0.64302
 C1372 C 0.95093 0.45001 0.60862
 H1373 H 0.95586 0.45501 0.59520
 C1374 C 0.93763 0.43639 0.64302
 C1375 C 1.04810 0.61004 0.54694
 H1376 H 1.04196 0.59742 0.54110
 C1377 C 1.06495 0.64210 0.56279
 C1378 C 0.95208 0.38792 0.54758
 H1379 H 0.95669 0.40153 0.54251
 C1380 C 0.93958 0.35310 0.56144
 C1381 C 1.10924 0.54842 0.54735
 H1382 H 1.09651 0.54257 0.54128
 C1383 C 1.14142 0.56431 0.56411
 C1384 C 0.89014 0.44831 0.54622
 H1385 H 0.90357 0.45356 0.54123
 C1386 C 0.85575 0.43404 0.55974
 C1387 C 0.94937 0.54839 0.60714
 H1388 H 0.95547 0.54272 0.59451
 C1389 C 0.93269 0.56372 0.63926
 C1390 C 1.04910 0.45004 0.61019
 H1391 H 1.04296 0.45582 0.59751
 C1392 C 1.06592 0.43440 0.64243
 C1393 C 1.11068 0.45189 0.54816
 H1394 H 1.09792 0.45791 0.54217
 C1395 C 1.14289 0.43524 0.56444
 C1396 C 0.88862 0.54666 0.54510
 H1397 H 0.90131 0.54054 0.53926
 C1398 C 0.85656 0.56348 0.56110
 C1399 C 0.94959 0.60956 0.54534
 H1400 H 0.95588 0.59687 0.53977
 C1401 C 0.93238 0.64171 0.56050
 C1402 C 1.04932 0.39064 0.54736
 H1403 H 1.04430 0.40431 0.54272
 C1404 C 1.06309 0.35571 0.56005
 O1405 O 1.06828 0.48019 0.40461
 O1406 O 1.09027 0.48047 0.38290
 C1407 C 1.07515 0.47366 0.38961
 C1408 C 1.06579 0.45756 0.38031
 C1409 C 1.07372 0.44931 0.36431
 H1410 H 1.08660 0.45504 0.35852
 O1411 O 0.93239 0.51481 0.40457
 O1412 O 0.91021 0.51481 0.38282
 C1413 C 0.92551 0.52138 0.38947
 C1414 C 0.93478 0.53745 0.38003
 C1415 C 0.92680 0.54516 0.36372
 H1416 H 0.91476 0.53834 0.35730
 O1417 O 0.98058 0.59257 0.42999
 O1418 O 0.98048 0.61443 0.40802
 C1419 C 0.97409 0.60786 0.42324
 C1420 C 0.95857 0.61779 0.43288
 C1421 C 0.95182 0.63514 0.42614
 H1422 H 0.95836 0.64144 0.41399
 O1423 O 1.01896 0.40501 0.43127
 O1424 O 1.01970 0.38269 0.41001
 C1425 C 1.02581 0.38972 0.42515
 C1426 C 1.04145 0.38040 0.43546
 C1427 C 1.04877 0.36307 0.42945
 H1428 H 1.04223 0.35596 0.41775
 O1429 O 1.09433 0.43341 0.48068
 O1430 O 1.11644 0.41145 0.48131
 C1431 C 1.10971 0.42662 0.47455
 C1432 C 1.11943 0.43585 0.45877
 C1433 C 1.13579 0.42774 0.45135
 H1434 H 1.14219 0.41578 0.45838
 O1435 O 0.90596 0.56572 0.47817
 O1436 O 0.88342 0.58722 0.47775
 C1437 C 0.89046 0.57201 0.47157
 C1438 C 0.88082 0.56184 0.45621
 C1439 C 0.86347 0.56843 0.44904
 H1440 H 0.85665 0.58040 0.45548
 O1441 O 1.01726 0.56638 0.40472
 O1442 O 1.01684 0.58810 0.38261
 C1443 C 1.02344 0.57287 0.38937
 C1444 C 1.03879 0.56292 0.37950
 C1445 C 1.04546 0.56983 0.36239
 H1446 H 1.03910 0.58238 0.35641
 O1447 O 0.98197 0.42983 0.40469
 O1448 O 0.98258 0.40758 0.38336
 C1449 C 0.97571 0.42282 0.38962
 C1450 C 0.95967 0.43201 0.37981
 C1451 C 0.95203 0.42402 0.36360
 H1452 H 0.95902 0.41200 0.35745
 O1453 O 1.09297 0.51780 0.43008
 O1454 O 1.11507 0.51806 0.40849
 C1455 C 1.10822 0.52449 0.42357
 C1456 C 1.11787 0.54015 0.43338
 C1457 C 1.13501 0.54727 0.42656
 H1458 H 1.14117 0.54112 0.41419
 O1459 O 0.90662 0.47814 0.43039
 O1460 O 0.88446 0.47822 0.40862
 C1461 C 0.89127 0.47170 0.42379
 C1462 C 0.88166 0.45586 0.43331
 C1463 C 0.86526 0.44811 0.42550
 H1464 H 0.85888 0.45474 0.41335
 O1465 O 1.06702 0.59306 0.47980
 O1466 O 1.08899 0.61499 0.47965
 C1467 C 1.07364 0.60831 0.47326
 C1468 C 1.06371 0.61790 0.45758
 C1469 C 1.07036 0.63511 0.45045
 H1470 H 1.08206 0.64201 0.45736
 O1471 O 0.93293 0.40289 0.47981
 O1472 O 0.91126 0.38066 0.48012
 C1473 C 0.92644 0.38748 0.47357
 C1474 C 0.93635 0.37788 0.45805
 C1475 C 0.92972 0.36069 0.45091
 H1476 H 0.91784 0.35381 0.45750
 O1477 O 0.93153 0.47794 0.40398
 O1478 O 0.90936 0.47794 0.38223
 C1479 C 0.92468 0.47136 0.38892
 C1480 C 0.93440 0.45550 0.37954
 C1481 C 0.92660 0.44697 0.36355
 H1482 H 0.91344 0.45229 0.35779
 O1483 O 1.06727 0.51687 0.40412
 O1484 O 1.08922 0.51729 0.38238
 C1485 C 1.07368 0.52336 0.38887
 C1486 C 1.06325 0.53860 0.37907
 C1487 C 1.06949 0.54549 0.36175
 H1488 H 1.08128 0.53869 0.35493
 O1489 O 0.98209 0.40421 0.43053
 O1490 O 0.98286 0.38195 0.40921
 C1491 C 0.97603 0.38870 0.42412
 C1492 C 0.96057 0.37863 0.43383
 C1493 C 0.95368 0.36155 0.42683
 H1494 H 0.95995 0.35563 0.41441
 O1495 O 1.01754 0.59218 0.43013
 O1496 O 1.01739 0.61393 0.40805
 C1497 C 1.02401 0.60736 0.42329
 C1498 C 1.03966 0.61723 0.43297
 C1499 C 1.04679 0.63419 0.42580
 H1500 H 1.04069 0.64001 0.41313
 O1501 O 0.90670 0.42834 0.47940
 O1502 O 0.88493 0.40621 0.47956
 C1503 C 0.89148 0.42145 0.47291
 C1504 C 0.88177 0.43103 0.45706
 C1505 C 0.86551 0.42322 0.44876
 H1506 H 0.85973 0.41024 0.45425
 O1507 O 1.09310 0.56730 0.47984
 O1508 O 1.11516 0.58913 0.47988
 C1509 C 1.10843 0.57392 0.47339
 C1510 C 1.11815 0.56419 0.45777
 C1511 C 1.13542 0.57099 0.45076
 H1512 H 1.14219 0.58283 0.45746
 O1513 O 1.01889 0.43035 0.40511
 O1514 O 1.01951 0.40808 0.38381
 C1515 C 1.02568 0.42354 0.39020
 C1516 C 1.04142 0.43324 0.38058
 C1517 C 1.04931 0.42548 0.36441
 H1518 H 1.04288 0.41316 0.35826
 O1519 O 0.98039 0.56629 0.40507
 O1520 O 0.97997 0.58812 0.38308
 C1521 C 0.97365 0.57285 0.38990
 C1522 C 0.95798 0.56288 0.38039
 C1523 C 0.94953 0.57056 0.36425
 H1524 H 0.95471 0.58372 0.35859
 O1525 O 0.90623 0.51497 0.42966
 O1526 O 0.88404 0.51495 0.40793
 C1527 C 0.89085 0.52150 0.42299
 C1528 C 0.88106 0.53721 0.43250
 C1529 C 0.86386 0.54420 0.42540
 H1530 H 0.85768 0.53781 0.41312
 O1531 O 1.09419 0.48104 0.43006
 O1532 O 1.11625 0.48114 0.40842
 C1533 C 1.10958 0.47463 0.42356
 C1534 C 1.11931 0.45900 0.43348
 C1535 C 1.13541 0.45029 0.42587
 H1536 H 1.14102 0.45534 0.41274
 O1537 O 1.06880 0.40729 0.48071
 O1538 O 1.09100 0.38543 0.48137
 C1539 C 1.07561 0.39190 0.47475
 C1540 C 1.06583 0.38159 0.45967
 C1541 C 1.07300 0.36432 0.45341
 H1542 H 1.08557 0.35843 0.45991
 O1543 O 0.93082 0.59259 0.47835
 O1544 O 0.90833 0.61415 0.47792
 C1545 C 0.92391 0.60782 0.47182
 C1546 C 0.93391 0.61785 0.45661
 C1547 C 0.92738 0.63532 0.44976
 H1548 H 0.91539 0.64205 0.45630
 Cu1549 Cu 1.07849 0.49896 0.41938
 Cu1550 Cu 1.10493 0.49937 0.39338
 Cu1551 Cu 0.92144 0.49642 0.41930
 Cu1552 Cu 0.89480 0.49650 0.39322
 Cu1553 Cu 1.07787 0.57797 0.49809
 Cu1554 Cu 1.10424 0.60423 0.49806
 Cu1555 Cu 1.07920 0.42275 0.49884
 Cu1556 Cu 1.10584 0.39642 0.49950
 Cu1557 Cu 0.92065 0.57694 0.49648
 Cu1558 Cu 0.89358 0.60271 0.49601
 Cu1559 Cu 0.92217 0.41813 0.49780
 Cu1560 Cu 0.89607 0.39158 0.49824
 Cu1561 Cu 0.99896 0.57719 0.41971
 Cu1562 Cu 0.99866 0.60333 0.39322
 Cu1563 Cu 1.00042 0.41959 0.42003
 Cu1564 Cu 1.00125 0.39287 0.39443
 C1565 C 1.04960 0.44943 0.38827
 H1566 H 1.04369 0.45537 0.40087
 C1567 C 1.06566 0.43315 0.35633
 C1568 C 0.95054 0.54626 0.38814
 H1569 H 0.95663 0.54053 0.40086
 C1570 C 0.93383 0.56187 0.35589
 C1571 C 0.94966 0.60938 0.44822
 H1572 H 0.95462 0.59583 0.45325
 C1573 C 0.93630 0.64412 0.43450
 C1574 C 1.04995 0.38943 0.45074
 H1575 H 1.04457 0.40293 0.45530
 C1576 C 1.06463 0.35496 0.43829
 C1577 C 1.11147 0.45166 0.44996
 H1578 H 1.09872 0.45785 0.45560
 C1579 C 1.14368 0.43450 0.43468
 C1580 C 0.88939 0.54608 0.44797
 H1581 H 0.90286 0.54103 0.45327
 C1582 C 0.85492 0.55980 0.43354
 C1583 C 1.04768 0.54722 0.38768
 H1584 H 1.04289 0.54213 0.40112
 C1585 C 1.06077 0.56124 0.35334
 C1586 C 0.95095 0.44791 0.38748
 H1587 H 0.95675 0.45404 0.40008
 C1588 C 0.93530 0.43111 0.35549
 C1589 C 1.10962 0.54863 0.44907
 H1590 H 1.09624 0.54342 0.45421
 C1591 C 1.14398 0.56263 0.43513
 C1592 C 0.88966 0.44740 0.44924
 H1593 H 0.90246 0.45323 0.45519
 C1594 C 0.85726 0.43159 0.43282
 C1595 C 1.04817 0.60925 0.44890
 H1596 H 1.04303 0.59594 0.45424
 C1597 C 1.06208 0.64336 0.43446
 C1598 C 0.95192 0.38659 0.44952
 H1599 H 0.95697 0.39993 0.45477
 C1600 C 0.93829 0.35239 0.43524
 O1601 O 0.48013 0.93497 0.40671
 O1602 O 0.47947 0.91316 0.38494
 C1603 C 0.47318 0.92844 0.39174
 C1604 C 0.45717 0.93840 0.38260
 C1605 C 0.44871 0.93108 0.36643
 H1606 H 0.45420 0.91821 0.36050
 O1607 O 0.51684 1.06991 0.40847
 O1608 O 0.51671 1.09267 0.38742
 C1609 C 0.52320 1.07710 0.39349
 C1610 C 0.53882 1.06771 0.38341
 C1611 C 0.54629 1.07589 0.36720
 H1612 H 0.53956 1.08831 0.36135
 O1613 O 0.40488 0.98455 0.43369
 O1614 O 0.38231 0.98524 0.41234
 C1615 C 0.38941 0.97826 0.42716
 C1616 C 0.38007 0.96216 0.43650
 C1617 C 0.36411 0.95362 0.42839
 H1618 H 0.35828 0.95921 0.41549
 O1619 O 0.59097 1.01923 0.43233
 O1620 O 0.61340 1.01986 0.41108
 C1621 C 0.60634 1.02597 0.42619
 C1622 C 0.61575 1.04150 0.43637
 C1623 C 0.63208 1.04994 0.42901
 H1624 H 0.63796 1.04480 0.41607
 O1625 O 0.43134 0.90847 0.48180
 O1626 O 0.40936 0.88653 0.48177
 C1627 C 0.42455 0.89333 0.47526
 C1628 C 0.43386 0.88384 0.45941
 C1629 C 0.42598 0.86743 0.45193
 H1630 H 0.41398 0.86102 0.45877
 O1631 O 0.56580 1.09314 0.48575
 O1632 O 0.58818 1.11466 0.48588
 C1633 C 0.57264 1.10841 0.47950
 C1634 C 0.56309 1.11851 0.46395
 C1635 C 0.57108 1.13497 0.45658
 H1636 H 0.58317 1.14115 0.46352
 O1637 O 0.43036 1.02146 0.40814
 O1638 O 0.40791 1.02212 0.38666
 C1639 C 0.42350 1.02816 0.39306
 C1640 C 0.43353 1.04353 0.38329
 C1641 C 0.42715 1.05030 0.36589
 H1642 H 0.41538 1.04345 0.35904
 O1643 O 0.56612 0.98301 0.40525
 O1644 O 0.58845 0.98344 0.38391
 C1645 C 0.57315 0.97667 0.39024
 C1646 C 0.56375 0.96073 0.38065
 C1647 C 0.57182 0.95233 0.36479
 H1648 H 0.58482 0.95793 0.35914
 O1649 O 0.51683 0.90860 0.43205
 O1650 O 0.51644 0.88657 0.41048
 C1651 C 0.52302 0.89316 0.42566
 C1652 C 0.53837 0.88313 0.43579
 C1653 C 0.54513 0.86568 0.42946
 H1654 H 0.53844 0.85905 0.41757
 O1655 O 0.48007 1.09501 0.43487
 O1656 O 0.47997 1.11770 0.41375
 C1657 C 0.47348 1.11049 0.42866
 C1658 C 0.45771 1.11989 0.43853
 C1659 C 0.44912 1.13610 0.43089
 H1660 H 0.45434 1.14190 0.41790
 O1661 O 0.40645 1.06904 0.48612
 O1662 O 0.38465 1.09129 0.48655
 C1663 C 0.39116 1.07607 0.47983
 C1664 C 0.38131 1.06700 0.46392
 C1665 C 0.36475 1.07507 0.45650
 H1666 H 0.35844 1.08706 0.46338
 O1667 O 0.59195 0.93359 0.48222
 O1668 O 0.61379 0.91139 0.48169
 C1669 C 0.60705 0.92681 0.47546
 C1670 C 0.61648 0.93637 0.45961
 C1671 C 0.63279 0.92843 0.45185
 H1672 H 0.63919 0.91619 0.45842
 O1673 O 0.48001 1.07016 0.40860
 O1674 O 0.47991 1.09280 0.38742
 C1675 C 0.47349 1.07731 0.39360
 C1676 C 0.45795 1.06770 0.38362
 C1677 C 0.45126 1.07448 0.36637
 H1678 H 0.45774 1.08679 0.36019
 O1679 O 0.51705 0.93383 0.40571
 O1680 O 0.51659 0.91194 0.38403
 C1681 C 0.52335 0.92709 0.39054
 C1682 C 0.53922 0.93656 0.38085
 C1683 C 0.54722 0.92862 0.36480
 H1684 H 0.54076 0.91628 0.35873
 O1685 O 0.59131 0.98253 0.43153
 O1686 O 0.61374 0.98297 0.41027
 C1687 C 0.60676 0.97614 0.42516
 C1688 C 0.61630 0.96020 0.43484
 C1689 C 0.63246 0.95175 0.42709
 H1690 H 0.63819 0.95718 0.41415
 O1691 O 0.40578 1.02138 0.43489
 O1692 O 0.38329 1.02219 0.41348
 C1693 C 0.39043 1.02828 0.42861
 C1694 C 0.38111 1.04392 0.43870
 C1695 C 0.36476 1.05249 0.43129
 H1696 H 0.35886 1.04740 0.41829
 O1697 O 0.43199 1.09495 0.48589
 O1698 O 0.41018 1.11718 0.48638
 C1699 C 0.42522 1.11032 0.47957
 C1700 C 0.43435 1.11988 0.46356
 C1701 C 0.42619 1.13623 0.45586
 H1702 H 0.41403 1.14252 0.46254
 O1703 O 0.56618 0.90780 0.48221
 O1704 O 0.58806 0.88562 0.48184
 C1705 C 0.57267 0.89252 0.47564
 C1706 C 0.56256 0.88292 0.46028
 C1707 C 0.56917 0.86557 0.45367
 H1708 H 0.58147 0.85913 0.46014
 O1709 O 0.56591 1.01992 0.40599
 O1710 O 0.58822 1.02060 0.38462
 C1711 C 0.57286 1.02701 0.39123
 C1712 C 0.56328 1.04336 0.38224
 C1713 C 0.57087 1.05207 0.36625
 H1714 H 0.58365 1.04647 0.36012
 O1715 O 0.43076 0.98488 0.40836
 O1716 O 0.40824 0.98550 0.38695
 C1717 C 0.42371 0.97878 0.39323
 C1718 C 0.43316 0.96319 0.38326
 C1719 C 0.42525 0.95599 0.36679
 H1720 H 0.41303 0.96289 0.36066
 O1721 O 0.51706 1.09450 0.43503
 O1722 O 0.51707 1.11727 0.41400
 C1723 C 0.52366 1.10991 0.42889
 C1724 C 0.53954 1.11902 0.43887
 C1725 C 0.54817 1.13513 0.43136
 H1726 H 0.54298 1.14092 0.41830
 O1727 O 0.47997 0.90847 0.43143
 O1728 O 0.47950 0.88659 0.40972
 C1729 C 0.47316 0.89334 0.42483
 C1730 C 0.45734 0.88389 0.43454
 C1731 C 0.44890 0.86770 0.42696
 H1732 H 0.45422 0.86195 0.41403
 O1733 O 0.59126 1.06686 0.48440
 O1734 O 0.61354 1.08848 0.48459
 C1735 C 0.60648 1.07357 0.47782
 C1736 C 0.61581 1.06453 0.46165
 C1737 C 0.63227 1.07251 0.45419
 H1738 H 0.63871 1.08445 0.46105
 O1739 O 0.40572 0.93457 0.48266
 O1740 O 0.38383 0.91255 0.48240
 C1741 C 0.39039 0.92797 0.47619
 C1742 C 0.38054 0.93777 0.46067
 C1743 C 0.36441 0.92972 0.45261
 H1744 H 0.35838 0.91719 0.45881
 Cu1745 Cu 0.49859 0.92365 0.42112
 Cu1746 Cu 0.49802 0.89741 0.39507
 Cu1747 Cu 0.49849 1.08014 0.42387
 Cu1748 Cu 0.49842 1.10744 0.39857
 Cu1749 Cu 0.42016 1.00304 0.42345
 Cu1750 Cu 0.39312 1.00385 0.39776
 Cu1751 Cu 0.57629 1.00110 0.42082
 Cu1752 Cu 0.60319 1.00178 0.39532
 C1753 C 0.44932 0.95449 0.39088
 H1754 H 0.45541 0.95990 0.40367
 C1755 C 0.43271 0.93976 0.35840
 C1756 C 0.54722 1.05129 0.39065
 H1757 H 0.54159 1.04503 0.40325
 C1758 C 0.56248 1.06844 0.35862
 C1759 C 0.38813 0.95415 0.45269
 H1760 H 0.40075 0.96028 0.45871
 C1761 C 0.35633 0.93724 0.43625
 C1762 C 0.60773 1.04889 0.45275
 H1763 H 0.59488 1.04281 0.45827
 C1764 C 0.64035 1.06555 0.43775
 C1765 C 0.44970 0.89184 0.45079
 H1766 H 0.45574 0.90460 0.45643
 C1767 C 0.43308 0.85942 0.43550
 C1768 C 0.54711 1.11081 0.45519
 H1769 H 0.54097 1.09800 0.46070
 C1770 C 0.56405 1.14319 0.44006
 C1771 C 0.44909 1.05214 0.39187
 H1772 H 0.45396 1.04708 0.40536
 C1773 C 0.43591 1.06583 0.35730
 C1774 C 0.54741 0.95276 0.38846
 H1775 H 0.54141 0.95882 0.40095
 C1776 C 0.56372 0.93614 0.35679
 C1777 C 0.54706 0.89152 0.45136
 H1778 H 0.54213 0.90508 0.45619
 C1779 C 0.56059 0.85682 0.43830
 C1780 C 0.45024 1.11193 0.45491
 H1781 H 0.45645 1.09918 0.46063
 C1782 C 0.43325 1.14430 0.43938
 C1783 C 0.38925 1.05126 0.45507
 H1784 H 0.40216 1.04509 0.46058
 C1785 C 0.35651 1.06813 0.44003
 C1786 C 0.60844 0.95240 0.45115
 H1787 H 0.59569 0.95846 0.45694
 C1788 C 0.64068 0.93573 0.43542
 O1789 O 0.51812 0.93134 0.59502
 O1790 O 0.51789 0.90858 0.61607
 C1791 C 0.52452 0.92398 0.60997
 C1792 C 0.54045 0.93295 0.61986
 C1793 C 0.54804 0.92470 0.63605
 H1794 H 0.54122 0.91251 0.64212
 O1795 O 0.48172 1.06631 0.59782
 O1796 O 0.48169 1.08783 0.61987
 C1797 C 0.47487 1.07295 0.61277
 C1798 C 0.45838 1.06356 0.62153
 C1799 C 0.44961 1.07135 0.63733
 H1800 H 0.45519 1.08412 0.64338
 O1801 O 0.40543 1.01804 0.56985
 O1802 O 0.38337 1.01750 0.59149
 C1803 C 0.39017 1.02446 0.57661
 C1804 C 0.38077 1.04080 0.56765
 C1805 C 0.36458 1.04870 0.57569
 H1806 H 0.35817 1.04186 0.58763
 O1807 O 0.59361 0.97955 0.56994
 O1808 O 0.61630 0.97901 0.59117
 C1809 C 0.60924 0.97303 0.57598
 C1810 C 0.61896 0.95797 0.56549
 C1811 C 0.63638 0.95067 0.57174
 H1812 H 0.64327 0.95688 0.58375
 O1813 O 0.56687 0.90700 0.51867
 O1814 O 0.58880 0.88488 0.51815
 C1815 C 0.57359 0.89154 0.52479
 C1816 C 0.56392 0.88157 0.54021
 C1817 C 0.57066 0.86410 0.54679
 H1818 H 0.58243 0.85737 0.53986
 O1819 O 0.43321 1.09408 0.52246
 O1820 O 0.41154 1.11644 0.52283
 C1821 C 0.42692 1.10943 0.52901
 C1822 C 0.43721 1.11884 0.54443
 C1823 C 0.43089 1.13622 0.55129
 H1824 H 0.41925 1.14336 0.54436
 O1825 O 0.43124 0.98074 0.59494
 O1826 O 0.40926 0.98024 0.61665
 C1827 C 0.42467 0.97404 0.61003
 C1828 C 0.43476 0.95849 0.61961
 C1829 C 0.42839 0.95158 0.63685
 H1830 H 0.41664 0.95844 0.64369
 O1831 O 0.56819 1.01555 0.59669
 O1832 O 0.59075 1.01494 0.61806
 C1833 C 0.57521 1.02156 0.61189
 C1834 C 0.56543 1.03673 0.62220
 C1835 C 0.57281 1.04332 0.63916
 H1836 H 0.58557 1.03699 0.64481
 O1837 O 0.48158 0.90688 0.56804
 O1838 O 0.48143 0.88412 0.58911
 C1839 C 0.47522 0.89129 0.57400
 C1840 C 0.46016 0.88159 0.56351
 C1841 C 0.45379 0.86391 0.56945
 H1842 H 0.46022 0.85728 0.58157
 O1843 O 0.51969 1.09166 0.57352
 O1844 O 0.52010 1.11317 0.59558
 C1845 C 0.52652 1.10665 0.58038
 C1846 C 0.54237 1.11620 0.57068
 C1847 C 0.55088 1.13242 0.57817
 H1848 H 0.54565 1.13822 0.59111
 O1849 O 0.40575 0.93319 0.51913
 O1850 O 0.38383 0.91120 0.51875
 C1851 C 0.39046 0.92633 0.52541
 C1852 C 0.38049 0.93573 0.54092
 C1853 C 0.36323 0.92864 0.54743
 H1854 H 0.35712 0.91640 0.54081
 O1855 O 0.59255 1.06591 0.52097
 O1856 O 0.61492 1.08745 0.52093
 C1857 C 0.60820 1.07212 0.52714
 C1858 C 0.61830 1.06182 0.54221
 C1859 C 0.63593 1.06814 0.54872
 H1860 H 0.64272 1.07992 0.54186
 O1861 O 0.51875 1.06516 0.59852
 O1862 O 0.51893 1.08653 0.62072
 C1863 C 0.52524 1.07129 0.61389
 C1864 C 0.54084 1.06094 0.62338
 C1865 C 0.54829 1.06719 0.64050
 H1866 H 0.54168 1.07895 0.64749
 O1867 O 0.48124 0.93155 0.59451
 O1868 O 0.48102 0.90886 0.61564
 C1869 C 0.47464 0.92440 0.60939
 C1870 C 0.45911 0.93409 0.61924
 C1871 C 0.45238 0.92717 0.63634
 H1872 H 0.45879 0.91472 0.64247
 O1873 O 0.59308 1.01607 0.57035
 O1874 O 0.61576 1.01562 0.59159
 C1875 C 0.60864 1.02229 0.57662
 C1876 C 0.61834 1.03766 0.56658
 C1877 C 0.63582 1.04431 0.57302
 H1878 H 0.64224 1.03800 0.58531
 O1879 O 0.40510 0.98126 0.56939
 O1880 O 0.38304 0.98070 0.59102
 C1881 C 0.38974 0.97464 0.57576
 C1882 C 0.37999 0.95935 0.56556
 C1883 C 0.36263 0.95211 0.57184
 H1884 H 0.35578 0.95842 0.58377
 O1885 O 0.56701 1.09214 0.52242
 O1886 O 0.58944 1.11361 0.52234
 C1887 C 0.57425 1.10703 0.52909
 C1888 C 0.56543 1.11641 0.54534
 C1889 C 0.57353 1.13272 0.55288
 H1890 H 0.58548 1.13911 0.54593
 O1891 O 0.43208 0.90768 0.51821
 O1892 O 0.41015 0.88568 0.51800
 C1893 C 0.42562 0.89217 0.52427
 C1894 C 0.43593 0.88191 0.53917
 C1895 C 0.42978 0.86413 0.54523
 H1896 H 0.41799 0.85743 0.53827
 O1897 O 0.56843 0.97893 0.59602
 O1898 O 0.59103 0.97816 0.61734
 C1899 C 0.57550 0.97199 0.61087
 C1900 C 0.56570 0.95624 0.62025
 C1901 C 0.57332 0.94764 0.63635
 H1902 H 0.58636 0.95289 0.64234
 O1903 O 0.43126 1.01741 0.59543
 O1904 O 0.40919 1.01691 0.61706
 C1905 C 0.42448 1.02359 0.61061
 C1906 C 0.43398 1.03926 0.62047
 C1907 C 0.42572 1.04701 0.63646
 H1908 H 0.41320 1.04054 0.64226
 O1909 O 0.48285 1.09213 0.57240
 O1910 O 0.48308 1.11380 0.59432
 C1911 C 0.47662 1.10748 0.57899
 C1912 C 0.46134 1.11777 0.56898
 C1913 C 0.45454 1.13495 0.57586
 H1914 H 0.46075 1.14074 0.58842
 O1915 O 0.51828 0.90675 0.56861
 O1916 O 0.51808 0.88397 0.58965
 C1917 C 0.52464 0.89117 0.57477
 C1918 C 0.54006 0.88152 0.56472
 C1919 C 0.54708 0.86419 0.57120
 H1920 H 0.54097 0.85782 0.58354
 O1921 O 0.59298 0.93247 0.51880
 O1922 O 0.61490 0.91036 0.51814
 C1923 C 0.60839 0.92550 0.52493
 C1924 C 0.61851 0.93473 0.54051
 C1925 C 0.63579 0.92744 0.54711
 H1926 H 0.64188 0.91522 0.54045
 O1927 O 0.40615 1.06943 0.52266
 O1928 O 0.38447 1.09177 0.52312
 C1929 C 0.39101 1.07630 0.52932
 C1930 C 0.38127 1.06643 0.54480
 C1931 C 0.36516 1.07431 0.55325
 H1932 H 0.35953 1.08757 0.54815
 Cu1933 Cu 0.49980 0.92147 0.57946
 Cu1934 Cu 0.49954 0.89411 0.60478
 Cu1935 Cu 0.50080 1.07664 0.58342
 Cu1936 Cu 0.50097 1.10246 0.60987
 Cu1937 Cu 0.42094 0.92320 0.50053
 Cu1938 Cu 0.39457 0.89681 0.50023
 Cu1939 Cu 0.57730 0.92246 0.50057
 Cu1940 Cu 0.60362 0.89588 0.49987
 Cu1941 Cu 0.42162 1.07964 0.50432
 Cu1942 Cu 0.39554 1.10639 0.50479
 Cu1943 Cu 0.57688 1.07736 0.50342
 Cu1944 Cu 0.60373 1.10322 0.50343
 Cu1945 Cu 0.42044 0.99933 0.58019
 Cu1946 Cu 0.39399 0.99875 0.60622
 Cu1947 Cu 0.57852 0.99755 0.58115
 Cu1948 Cu 0.60573 0.99692 0.60670
 C1949 C 0.54918 0.94887 0.61224
 H1950 H 0.54346 0.95514 0.59959
 C1951 C 0.56458 0.93177 0.64429
 C1952 C 0.45043 1.04749 0.61323
 H1953 H 0.45675 1.04169 0.60077
 C1954 C 0.43316 1.06323 0.64482
 C1955 C 0.38887 1.04962 0.55207
 H1956 H 0.40153 1.04370 0.54596
 C1957 C 0.35682 1.06559 0.56884
 C1958 C 0.61029 0.95006 0.54971
 H1959 H 0.59676 0.95547 0.54493
 C1960 C 0.64487 0.93528 0.56273
 C1961 C 0.54848 0.89003 0.54914
 H1962 H 0.54333 0.90357 0.54427
 C1963 C 0.56233 0.85531 0.56233
 C1964 C 0.45264 1.10987 0.55319
 H1965 H 0.45748 1.09638 0.54808
 C1966 C 0.43934 1.14435 0.56712
 C1967 C 0.45029 0.94982 0.61105
 H1968 H 0.45516 0.95499 0.59767
 C1969 C 0.43704 0.93584 0.64530
 C1970 C 0.54936 1.04551 0.61452
 H1971 H 0.54387 1.04074 0.60122
 C1972 C 0.56439 1.05853 0.64848
 C1973 C 0.45130 0.89041 0.54824
 H1974 H 0.45595 0.90424 0.54383
 C1975 C 0.43860 0.85508 0.56045
 C1976 C 0.54975 1.10839 0.55422
 H1977 H 0.54357 1.09570 0.54856
 C1978 C 0.56659 1.14074 0.56940
 C1979 C 0.38866 0.95118 0.54995
 H1980 H 0.40214 0.95649 0.54516
 C1981 C 0.35412 0.93670 0.56284
 C1982 C 0.60974 1.04641 0.55108
 H1983 H 0.59604 1.04159 0.54629
 C1984 C 0.64474 1.05955 0.56421
 O1985 O 0.56744 0.52066 1.09366
 O1986 O 0.59017 0.52054 1.11485
 C1987 C 0.57467 0.52710 1.10859
 C1988 C 0.56545 0.54292 1.11837
 C1989 C 0.57373 0.55050 1.13447
 H1990 H 0.58612 0.54379 1.14049
 O1991 O 0.43307 0.48434 1.09487
 O1992 O 0.41097 0.48436 1.11647
 C1993 C 0.42639 0.47792 1.11003
 C1994 C 0.43639 0.46237 1.11978
 C1995 C 0.43011 0.45562 1.13716
 H1996 H 0.41843 0.46256 1.14403
 O1997 O 0.51858 0.59546 1.06815
 O1998 O 0.51879 0.61799 1.08920
 C1999 C 0.52517 0.61088 1.07423
 C2000 C 0.54080 0.62028 1.06407
 C2001 C 0.54930 0.63652 1.07143
 H2002 H 0.54417 0.64226 1.08444
 O2003 O 0.48164 0.40785 1.06895
 O2004 O 0.48131 0.38617 1.09108
 C2005 C 0.47484 0.39283 1.07581
 C2006 C 0.45883 0.38347 1.06619
 C2007 C 0.45050 0.36723 1.07384
 H2008 H 0.45609 0.36129 1.08668
 O2009 O 0.59187 0.56949 1.01650
 O2010 O 0.61401 0.59126 1.01628
 C2011 C 0.60724 0.57610 1.02289
 C2012 C 0.61706 0.56636 1.03850
 C2013 C 0.63427 0.57331 1.04541
 H2014 H 0.64044 0.58570 1.03905
 O2015 O 0.40617 0.43491 1.01957
 O2016 O 0.38397 0.41320 1.01974
 C2017 C 0.39094 0.42828 1.02622
 C2018 C 0.38165 0.43781 1.04209
 C2019 C 0.36547 0.42999 1.05039
 H2020 H 0.35958 0.41713 1.04485
 O2021 O 0.48187 0.57078 1.09487
 O2022 O 0.48189 0.59316 1.11606
 C2023 C 0.47531 0.57781 1.10979
 C2024 C 0.45939 0.56827 1.11935
 C2025 C 0.45084 0.57614 1.13527
 H2026 H 0.45630 0.58908 1.14106
 O2027 O 0.51874 0.43340 1.09427
 O2028 O 0.51879 0.41180 1.11649
 C2029 C 0.52523 0.42701 1.10962
 C2030 C 0.54080 0.43715 1.11916
 C2031 C 0.54812 0.43076 1.13637
 H2032 H 0.54156 0.41889 1.14327
 O2033 O 0.59259 0.48385 1.06758
 O2034 O 0.61525 0.48401 1.08885
 C2035 C 0.60820 0.47753 1.07389
 C2036 C 0.61807 0.46215 1.06410
 C2037 C 0.63558 0.45558 1.07075
 H2038 H 0.64199 0.46212 1.08284
 O2039 O 0.40751 0.52092 1.06866
 O2040 O 0.38527 0.52128 1.09013
 C2041 C 0.39219 0.52762 1.07501
 C2042 C 0.38277 0.54334 1.06495
 C2043 C 0.36658 0.55203 1.07233
 H2044 H 0.36065 0.54689 1.08530
 O2045 O 0.43351 0.59442 1.01711
 O2046 O 0.41153 0.61649 1.01633
 C2047 C 0.42672 0.60980 1.02318
 C2048 C 0.43591 0.61961 1.03898
 C2049 C 0.42771 0.63601 1.04623
 H2050 H 0.41562 0.64225 1.03919
 O2051 O 0.56813 0.40614 1.02063
 O2052 O 0.59044 0.38440 1.02107
 C2053 C 0.57516 0.39109 1.02749
 C2054 C 0.56572 0.38171 1.04348
 C2055 C 0.57364 0.36560 1.05210
 H2056 H 0.58664 0.35967 1.04675
 O2057 O 0.43302 0.52106 1.09463
 O2058 O 0.41080 0.52109 1.11612
 C2059 C 0.42614 0.52759 1.10963
 C2060 C 0.43552 0.54348 1.11919
 C2061 C 0.42740 0.55133 1.13518
 H2062 H 0.41507 0.54476 1.14128
 O2063 O 0.56716 0.48383 1.09345
 O2064 O 0.58984 0.48383 1.11470
 C2065 C 0.57434 0.47734 1.10845
 C2066 C 0.56485 0.46175 1.11844
 C2067 C 0.57219 0.45495 1.13542
 H2068 H 0.58475 0.46137 1.14123
 O2069 O 0.51864 0.40722 1.06923
 O2070 O 0.51840 0.38556 1.09137
 C2071 C 0.52503 0.39199 1.07620
 C2072 C 0.54092 0.38212 1.06707
 C2073 C 0.54877 0.36589 1.07525
 H2074 H 0.54216 0.35983 1.08747
 O2075 O 0.48173 0.59539 1.06824
 O2076 O 0.48164 0.61792 1.08929
 C2077 C 0.47509 0.61076 1.07437
 C2078 C 0.45921 0.61998 1.06428
 C2079 C 0.45048 0.63613 1.07157
 H2080 H 0.45562 0.64199 1.08456
 O2081 O 0.40789 0.56844 1.01740
 O2082 O 0.38606 0.59066 1.01678
 C2083 C 0.39268 0.57548 1.02365
 C2084 C 0.38299 0.56652 1.03963
 C2085 C 0.36669 0.57482 1.04706
 H2086 H 0.36047 0.58696 1.04017
 O2087 O 0.59261 0.43320 1.01936
 O2088 O 0.61499 0.41152 1.01984
 C2089 C 0.60819 0.42695 1.02573
 C2090 C 0.61814 0.43743 1.04057
 C2091 C 0.63575 0.43115 1.04733
 H2092 H 0.64255 0.41917 1.04090
 O2093 O 0.48197 0.43381 1.09412
 O2094 O 0.48200 0.41218 1.11631
 C2095 C 0.47564 0.42746 1.10947
 C2096 C 0.46044 0.43766 1.11929
 C2097 C 0.45385 0.43099 1.13650
 H2098 H 0.46013 0.41844 1.14256
 O2099 O 0.51876 0.57056 1.09458
 O2100 O 0.51912 0.59292 1.11578
 C2101 C 0.52556 0.57752 1.10945
 C2102 C 0.54157 0.56781 1.11887
 C2103 C 0.55024 0.57541 1.13487
 H2104 H 0.54480 0.58830 1.14082
 O2105 O 0.40731 0.48421 1.06901
 O2106 O 0.38513 0.48447 1.09053
 C2107 C 0.39189 0.47788 1.07552
 C2108 C 0.38209 0.46218 1.06602
 C2109 C 0.36569 0.45441 1.07383
 H2110 H 0.35953 0.46087 1.08604
 O2111 O 0.59214 0.52052 1.06703
 O2112 O 0.61484 0.52054 1.08825
 C2113 C 0.60771 0.52691 1.07317
 C2114 C 0.61734 0.54229 1.06298
 C2115 C 0.63472 0.54925 1.06946
 H2116 H 0.64158 0.54256 1.08132
 O2117 O 0.43186 0.40890 1.01940
 O2118 O 0.40964 0.38721 1.01945
 C2119 C 0.42507 0.39369 1.02587
 C2120 C 0.43472 0.38385 1.04157
 C2121 C 0.42688 0.36744 1.04921
 H2122 H 0.41458 0.36125 1.04263
 O2123 O 0.56620 0.59549 1.01641
 O2124 O 0.58833 0.61725 1.01612
 C2125 C 0.57311 0.61066 1.02281
 C2126 C 0.56394 0.62030 1.03876
 C2127 C 0.57195 0.63674 1.04618
 H2128 H 0.58394 0.64308 1.03927
 Cu2129 Cu 0.57751 0.50223 1.07832
 Cu2130 Cu 0.60478 0.50223 1.10382
 Cu2131 Cu 0.42246 0.50259 1.07964
 Cu2132 Cu 0.39580 0.50278 1.10546
 Cu2133 Cu 0.50023 0.58078 1.07941
 Cu2134 Cu 0.50039 0.60778 1.10470
 Cu2135 Cu 0.50028 0.42270 1.07938
 Cu2136 Cu 0.50011 0.39670 1.10599
 C2137 C 0.54924 0.55149 1.11085
 H2138 H 0.54296 0.54578 1.09828
 C2139 C 0.56645 0.56686 1.14270
 C2140 C 0.45175 0.45344 1.11110
 H2141 H 0.45656 0.45839 1.09762
 C2142 C 0.43877 0.43986 1.14563
 C2143 C 0.54820 0.61232 1.04769
 H2144 H 0.54209 0.59952 1.04221
 C2145 C 0.56498 0.64481 1.06268
 C2146 C 0.45086 0.39161 1.05000
 H2147 H 0.45684 0.40441 1.04431
 C2148 C 0.43441 0.35918 1.06551
 C2149 C 0.60874 0.55078 1.04733
 H2150 H 0.59524 0.54561 1.04236
 C2151 C 0.64323 0.56487 1.06089
 C2152 C 0.38982 0.45394 1.05000
 H2153 H 0.40259 0.45974 1.04402
 C2154 C 0.35745 0.43812 1.06637
 C2155 C 0.45164 0.55188 1.11154
 H2156 H 0.45779 0.54598 1.09904
 C2157 C 0.43468 0.56780 1.14318
 C2158 C 0.54911 0.45284 1.11049
 H2159 H 0.54366 0.45778 1.09717
 C2160 C 0.56393 0.43951 1.14460
 C2161 C 0.60952 0.45310 1.04889
 H2162 H 0.59581 0.45787 1.04395
 C2163 C 0.64450 0.44007 1.06252
 C2164 C 0.39081 0.55066 1.04853
 H2165 H 0.40355 0.54436 1.04299
 C2166 C 0.35852 0.56788 1.06352
 C2167 C 0.45182 0.61184 1.04794
 H2168 H 0.45809 0.59908 1.04251
 C2169 C 0.43463 0.64422 1.06268
 C2170 C 0.54932 0.38975 1.05106
 H2171 H 0.54340 0.40239 1.04483
 C2172 C 0.56532 0.35767 1.06814
 O2173 O 0.56834 0.48138 0.90658
 O2174 O 0.59057 0.48086 0.88512
 C2175 C 0.57503 0.47473 0.89156
 C2176 C 0.56487 0.45929 0.88193
 C2177 C 0.57128 0.45227 0.86476
 H2178 H 0.58321 0.45888 0.85798
 O2179 O 0.43232 0.51897 0.90464
 O2180 O 0.40982 0.51865 0.88322
 C2181 C 0.42534 0.52510 0.88939
 C2182 C 0.43488 0.54049 0.87918
 C2183 C 0.42665 0.54817 0.86298
 H2184 H 0.41407 0.54176 0.85718
 O2185 O 0.48181 0.59223 0.92888
 O2186 O 0.48140 0.61427 0.90709
 C2187 C 0.47512 0.60747 0.92230
 C2188 C 0.45957 0.61709 0.93222
 C2189 C 0.45117 0.63334 0.92455
 H2190 H 0.45628 0.63899 0.91145
 O2191 O 0.51807 0.40691 0.93322
 O2192 O 0.51803 0.38457 0.91198
 C2193 C 0.52456 0.39149 0.92700
 C2194 C 0.54028 0.38190 0.93700
 C2195 C 0.54882 0.36578 0.92942
 H2196 H 0.54357 0.36010 0.91639
 O2197 O 0.59282 0.43165 0.98298
 O2198 O 0.61504 0.40982 0.98355
 C2199 C 0.60816 0.42487 0.97666
 C2200 C 0.61780 0.43409 0.96071
 C2201 C 0.63417 0.42593 0.95321
 H2202 H 0.64032 0.41366 0.95992
 O2203 O 0.40741 0.56837 0.98076
 O2204 O 0.38555 0.59057 0.98043
 C2205 C 0.39213 0.57524 0.97416
 C2206 C 0.38233 0.56592 0.95841
 C2207 C 0.36580 0.57388 0.95082
 H2208 H 0.35945 0.58595 0.95753
 O2209 O 0.51901 0.56715 0.90358
 O2210 O 0.51906 0.58915 0.88176
 C2211 C 0.52574 0.57396 0.88863
 C2212 C 0.54195 0.56441 0.87963
 C2213 C 0.55040 0.57206 0.86358
 H2214 H 0.54471 0.58487 0.85750
 O2215 O 0.48126 0.43236 0.90675
 O2216 O 0.48105 0.40998 0.88555
 C2217 C 0.47458 0.42538 0.89182
 C2218 C 0.45867 0.43494 0.88210
 C2219 C 0.45045 0.42705 0.86603
 H2220 H 0.45614 0.41410 0.86045
 O2221 O 0.59413 0.51807 0.93219
 O2222 O 0.61661 0.51764 0.91100
 C2223 C 0.60956 0.52448 0.92580
 C2224 C 0.61887 0.54058 0.93530
 C2225 C 0.63606 0.54789 0.92864
 H2226 H 0.64314 0.54101 0.91717
 O2227 O 0.40668 0.48333 0.93193
 O2228 O 0.38413 0.48329 0.91054
 C2229 C 0.39102 0.47712 0.92581
 C2230 C 0.38091 0.46222 0.93622
 C2231 C 0.36347 0.45560 0.92961
 H2232 H 0.35730 0.46178 0.91713
 O2233 O 0.56613 0.59537 0.97972
 O2234 O 0.58816 0.61724 0.97953
 C2235 C 0.57282 0.61056 0.97313
 C2236 C 0.56304 0.62009 0.95737
 C2237 C 0.56951 0.63745 0.95047
 H2238 H 0.58107 0.64450 0.95747
 O2239 O 0.43164 0.40920 0.98290
 O2240 O 0.40934 0.38760 0.98302
 C2241 C 0.42471 0.39405 0.97654
 C2242 C 0.43415 0.38418 0.96097
 C2243 C 0.42610 0.36783 0.95353
 H2244 H 0.41371 0.36182 0.96006
 O2245 O 0.43203 0.48229 0.90590
 O2246 O 0.40951 0.48198 0.88450
 C2247 C 0.42497 0.47553 0.89106
 C2248 C 0.43447 0.45955 0.88174
 C2249 C 0.42668 0.45168 0.86552
 H2250 H 0.41438 0.45820 0.85913
 O2251 O 0.56885 0.51802 0.90590
 O2252 O 0.59127 0.51759 0.88463
 C2253 C 0.57585 0.52427 0.89079
 C2254 C 0.56635 0.53997 0.88069
 C2255 C 0.57435 0.54758 0.86444
 H2256 H 0.58680 0.54103 0.85857
 O2257 O 0.48110 0.40762 0.93325
 O2258 O 0.48092 0.38519 0.91210
 C2259 C 0.47437 0.39236 0.92696
 C2260 C 0.45828 0.38330 0.93666
 C2261 C 0.44977 0.36710 0.92924
 H2262 H 0.45532 0.36095 0.91659
 O2263 O 0.51843 0.59336 0.92855
 O2264 O 0.51816 0.61544 0.90679
 C2265 C 0.52456 0.60886 0.92209
 C2266 C 0.53955 0.61910 0.93228
 C2267 C 0.54628 0.63637 0.92550
 H2268 H 0.54024 0.64232 0.91285
 O2269 O 0.40556 0.43495 0.98293
 O2270 O 0.38325 0.41337 0.98315
 C2271 C 0.39007 0.42853 0.97659
 C2272 C 0.38030 0.43843 0.96099
 C2273 C 0.36283 0.43196 0.95408
 H2274 H 0.35592 0.42018 0.96081
 O2275 O 0.59202 0.56931 0.97996
 O2276 O 0.61405 0.59117 0.97984
 C2277 C 0.60743 0.57583 0.97359
 C2278 C 0.61760 0.56575 0.95849
 C2279 C 0.63471 0.57287 0.95153
 H2280 H 0.64048 0.58565 0.95739
 O2281 O 0.51821 0.43248 0.90727
 O2282 O 0.51804 0.41022 0.88594
 C2283 C 0.52462 0.42557 0.89226
 C2284 C 0.54022 0.43523 0.88236
 C2285 C 0.54694 0.42832 0.86530
 H2286 H 0.54041 0.41601 0.85923
 O2287 O 0.48197 0.56758 0.90255
 O2288 O 0.48180 0.58948 0.88064
 C2289 C 0.47529 0.57430 0.88740
 C2290 C 0.45922 0.56473 0.87814
 C2291 C 0.45058 0.57248 0.86208
 H2292 H 0.45615 0.58526 0.85598
 O2293 O 0.40698 0.52001 0.93058
 O2294 O 0.38450 0.51994 0.90914
 C2295 C 0.39160 0.52661 0.92402
 C2296 C 0.38220 0.54249 0.93359
 C2297 C 0.36585 0.55094 0.92595
 H2298 H 0.35996 0.54561 0.91304
 O2299 O 0.59397 0.48101 0.93251
 O2300 O 0.61630 0.48046 0.91117
 C2301 C 0.60921 0.47406 0.92617
 C2302 C 0.61836 0.45794 0.93598
 C2303 C 0.63456 0.44930 0.92849
 H2304 H 0.64059 0.45471 0.91568
 O2305 O 0.56642 0.40653 0.98406
 O2306 O 0.58869 0.38475 0.98444
 C2307 C 0.57327 0.39131 0.97785
 C2308 C 0.56382 0.38167 0.96211
 C2309 C 0.57191 0.36542 0.95451
 H2310 H 0.58415 0.35910 0.96122
 O2311 O 0.43406 0.59330 0.98045
 O2312 O 0.41207 0.61536 0.97999
 C2313 C 0.42730 0.60844 0.97365
 C2314 C 0.43658 0.61768 0.95758
 C2315 C 0.42865 0.63409 0.94987
 H2316 H 0.41669 0.64068 0.95662
 Cu2317 Cu 0.57916 0.49967 0.92146
 Cu2318 Cu 0.60599 0.49908 0.89591
 Cu2319 Cu 0.42178 0.50117 0.92041
 Cu2320 Cu 0.39474 0.50089 0.89469
 Cu2321 Cu 0.57680 0.58027 0.99811
 Cu2322 Cu 0.60332 0.60643 0.99790
 Cu2323 Cu 0.57773 0.42151 1.00178
 Cu2324 Cu 0.60449 0.39542 1.00228
 Cu2325 Cu 0.42293 0.57889 0.99899
 Cu2326 Cu 0.39663 0.60548 0.99832
 Cu2327 Cu 0.42099 0.42420 1.00116
 Cu2328 Cu 0.39433 0.39818 1.00133
 Cu2329 Cu 0.50036 0.57780 0.91798
 Cu2330 Cu 0.50010 0.60424 0.89182
 Cu2331 Cu 0.49971 0.42207 0.92224
 Cu2332 Cu 0.49955 0.39522 0.89679
 C2333 C 0.54918 0.45081 0.89046
 H2334 H 0.54427 0.45599 0.90379
 C2335 C 0.56242 0.43674 0.85633
 C2336 C 0.45132 0.54866 0.88646
 H2337 H 0.45757 0.54291 0.89910
 C2338 C 0.43416 0.56434 0.85447
 C2339 C 0.45220 0.60938 0.94879
 H2340 H 0.45824 0.59656 0.95454
 C2341 C 0.43558 0.64181 0.93321
 C2342 C 0.54784 0.38968 0.95342
 H2343 H 0.54170 0.40240 0.95906
 C2344 C 0.56476 0.35755 0.93800
 C2345 C 0.61010 0.45021 0.95212
 H2346 H 0.59735 0.45644 0.95771
 C2347 C 0.64251 0.43317 0.93693
 C2348 C 0.39028 0.55008 0.94986
 H2349 H 0.40315 0.54400 0.95555
 C2350 C 0.35760 0.56676 0.93441
 C2351 C 0.55000 0.54832 0.88801
 H2352 H 0.54388 0.54262 0.90065
 C2353 C 0.56668 0.56379 0.85590
 C2354 C 0.45062 0.45124 0.88977
 H2355 H 0.45657 0.45712 0.90241
 C2356 C 0.43437 0.43527 0.85768
 C2357 C 0.60988 0.54953 0.95036
 H2358 H 0.59653 0.54416 0.95543
 C2359 C 0.64411 0.56408 0.93664
 C2360 C 0.38911 0.45371 0.95204
 H2361 H 0.40273 0.45856 0.95701
 C2362 C 0.35431 0.44049 0.93836
 C2363 C 0.54790 0.61116 0.94831
 H2364 H 0.54299 0.59766 0.95339
 C2365 C 0.56125 0.64569 0.93448
 C2366 C 0.45038 0.39170 0.95258
 H2367 H 0.45653 0.40446 0.95812
 C2368 C 0.43357 0.35934 0.93751
 C2369 C 1.10784 1.13618 1.23426
 C2370 C 1.10937 1.11696 1.22937
 C2371 C 1.11939 1.10486 1.24177
 C2372 C 1.12797 1.11198 1.25799
 C2373 C 1.12634 1.13106 1.26251
 C2374 C 1.11616 1.14301 1.25054
 C2375 C 1.12070 1.08568 1.23804
 C2376 C 1.11193 1.07807 1.22244
 C2377 C 1.10176 1.08948 1.20966
 C2378 C 1.10110 1.10934 1.21280
 C2379 C 1.09250 1.12096 1.19912
 C2380 C 1.08451 1.11346 1.18310
 C2381 C 1.08433 1.09410 1.18022
 C2382 C 1.09261 1.08176 1.19358
 C2383 C 1.09122 1.06218 1.19030
 C2384 C 1.08264 1.05532 1.17413
 C2385 C 1.07519 1.06765 1.16063
 C2386 C 1.07598 1.08705 1.16390
 H2387 H 1.09998 1.14628 1.22605
 H2388 H 1.13555 1.10253 1.26732
 H2389 H 1.11465 1.15783 1.25365
 H2390 H 1.12846 1.07638 1.24738
 H2391 H 1.11381 1.06317 1.22055
 H2392 H 1.09214 1.13607 1.20009
 H2393 H 1.07826 1.12297 1.17289
 H2394 H 1.09630 1.05176 1.20009
 H2395 H 1.08176 1.04024 1.17224
 H2396 H 1.07041 1.09678 1.15353
 C2397 C 1.10593 0.63715 0.73271
 C2398 C 1.10653 0.61784 0.72802
 C2399 C 1.11638 0.60548 0.74031
 C2400 C 1.12568 0.61242 0.75622
 C2401 C 1.12483 0.63156 0.76062
 C2402 C 1.11487 0.64380 0.74875
 C2403 C 1.11671 0.58621 0.73680
 C2404 C 1.10711 0.57879 0.72159
 C2405 C 1.09707 0.59047 0.70895
 C2406 C 1.09744 0.61038 0.71178
 C2407 C 1.08903 0.62217 0.69812
 C2408 C 1.08028 0.61480 0.68241
 C2409 C 1.07910 0.59543 0.67985
 C2410 C 1.08708 0.58294 0.69326
 C2411 C 1.08461 0.56341 0.69042
 C2412 C 1.07552 0.55668 0.67448
 C2413 C 1.06858 0.56908 0.66078
 C2414 C 1.07016 0.58848 0.66376
 H2415 H 1.09827 0.64747 0.72458
 H2416 H 1.13309 0.60278 0.76551
 H2417 H 1.11398 0.65868 0.75183
 H2418 H 1.12433 0.57670 0.74605
 H2419 H 1.10827 0.56379 0.71985
 H2420 H 1.08945 0.63729 0.69885
 H2421 H 1.07428 0.62443 0.67217
 H2422 H 1.08929 0.55294 0.70036
 H2423 H 1.07398 0.54162 0.67284
 H2424 H 1.06490 0.59826 0.65327
 C2425 C 0.60814 1.13461 0.73818
 C2426 C 0.61053 1.11569 0.73279
 C2427 C 0.62190 1.10396 0.74437
 C2428 C 0.63112 1.11130 0.76023
 C2429 C 0.62841 1.13014 0.76552
 C2430 C 0.61679 1.14159 0.75419
 C2431 C 0.62373 1.08488 0.74023
 C2432 C 0.61409 1.07706 0.72518
 C2433 C 0.60266 1.08820 0.71322
 C2434 C 0.60164 1.10799 0.71657
 C2435 C 0.59206 1.11949 0.70342
 C2436 C 0.58327 1.11190 0.68785
 C2437 C 0.58321 1.09255 0.68494
 C2438 C 0.59257 1.08034 0.69773
 C2439 C 0.59120 1.06075 0.69456
 C2440 C 0.58165 1.05377 0.67895
 C2441 C 0.57322 1.06597 0.66587
 C2442 C 0.57394 1.08538 0.66914
 H2443 H 0.59918 1.14435 0.73067
 H2444 H 0.63973 1.10203 0.76883
 H2445 H 0.61437 1.15624 0.75738
 H2446 H 0.63245 1.07579 0.74892
 H2447 H 0.61631 1.06223 0.72296
 H2448 H 0.59159 1.13460 0.70442
 H2449 H 0.57628 1.12133 0.67805
 H2450 H 0.59706 1.05044 0.70405
 H2451 H 0.58086 1.03867 0.67715
 H2452 H 0.56764 1.09506 0.65913
 C2453 C 0.59360 0.62238 1.25184
 C2454 C 0.60328 0.61219 1.23791
 C2455 C 0.62314 0.60998 1.23996
 C2456 C 0.63264 0.61732 1.25562
 C2457 C 0.62278 0.62755 1.26909
 C2458 C 0.60323 0.62994 1.26705
 C2459 C 0.63346 0.60072 1.22625
 C2460 C 0.62464 0.59401 1.21025
 C2461 C 0.60494 0.59596 1.20747
 C2462 C 0.59398 0.60448 1.22189
 C2463 C 0.57410 0.60481 1.21993
 C2464 C 0.56521 0.59746 1.20427
 C2465 C 0.57572 0.58988 1.18973
 C2466 C 0.59574 0.58930 1.19093
 C2467 C 0.60573 0.58229 1.17537
 C2468 C 0.59618 0.57543 1.15976
 C2469 C 0.57637 0.57522 1.15902
 C2470 C 0.56624 0.58274 1.17400
 H2471 H 0.57866 0.62526 1.25121
 H2472 H 0.64783 0.61564 1.25697
 H2473 H 0.59523 0.63774 1.27730
 H2474 H 0.64861 0.59885 1.22777
 H2475 H 0.63367 0.58694 1.20046
 H2476 H 0.56485 0.61024 1.23052
 H2477 H 0.54991 0.59787 1.20350
 H2478 H 0.62093 0.58222 1.17463
 H2479 H 0.60442 0.57036 1.14810
 H2480 H 0.55092 0.58273 1.17358
 C2481 C 0.86563 0.89537 1.23819
 C2482 C 0.88424 0.89210 1.23197
 C2483 C 0.89590 0.88001 1.24288
 C2484 C 0.88867 0.87081 1.25878
 C2485 C 0.87011 0.87429 1.26486
 C2486 C 0.85883 0.88678 1.25431
 C2487 C 0.91481 0.87743 1.23802
 C2488 C 0.92257 0.88705 1.22294
 C2489 C 0.91146 0.89915 1.21161
 C2490 C 0.89176 0.90083 1.21559
 C2491 C 0.88014 0.91084 1.20285
 C2492 C 0.88759 0.91944 1.18709
 C2493 C 0.90696 0.91897 1.18367
 C2494 C 0.91926 0.90920 1.19610
 C2495 C 0.93888 0.91017 1.19259
 C2496 C 0.94582 0.91963 1.17694
 C2497 C 0.93351 0.92831 1.16407
 C2498 C 0.91406 0.92809 1.16774
 H2499 H 0.85610 0.90501 1.23125
 H2500 H 0.89785 0.86156 1.26681
 H2501 H 0.84441 0.88988 1.25818
 H2502 H 0.92383 0.86814 1.24619
 H2503 H 0.93725 0.88425 1.22012
 H2504 H 0.86501 0.91172 1.20431
 H2505 H 0.87807 0.92672 1.17757
 H2506 H 0.94928 0.90409 1.20191
 H2507 H 0.96097 0.92013 1.17493
 H2508 H 0.90429 0.93465 1.15796
 C2509 C 0.86279 0.39702 0.73619
 C2510 C 0.88164 0.39439 0.73029
 C2511 C 0.89364 0.38318 0.74172
 C2512 C 0.88661 0.37420 0.75778
 C2513 C 0.86773 0.37669 0.76335
 C2514 C 0.85606 0.38844 0.75239
 C2515 C 0.91267 0.38103 0.73713
 C2516 C 0.92020 0.39017 0.72170
 C2517 C 0.90881 0.40141 0.70981
 C2518 C 0.88903 0.40276 0.71366
 C2519 C 0.87724 0.41197 0.70050
 C2520 C 0.88455 0.41997 0.68436
 C2521 C 0.90393 0.41969 0.68096
 C2522 C 0.91641 0.41086 0.69386
 C2523 C 0.93603 0.41208 0.69035
 C2524 C 0.94279 0.42083 0.67423
 C2525 C 0.93033 0.42852 0.66092
 C2526 C 0.91087 0.42808 0.66457
 H2527 H 0.85295 0.40603 0.72884
 H2528 H 0.89615 0.36560 0.76608
 H2529 H 0.84147 0.39098 0.75604
 H2530 H 0.92192 0.37234 0.74570
 H2531 H 0.93497 0.38761 0.71905
 H2532 H 0.86210 0.41266 0.70194
 H2533 H 0.87490 0.42661 0.67451
 H2534 H 0.94654 0.40677 0.69998
 H2535 H 0.95793 0.42158 0.67224
 H2536 H 0.90098 0.43390 0.65447
 C2537 C 0.36113 0.89724 0.73798
 C2538 C 0.38044 0.89578 0.73296
 C2539 C 0.39269 0.88587 0.74530
 C2540 C 0.38563 0.87716 0.76142
 C2541 C 0.36643 0.87834 0.76590
 C2542 C 0.35432 0.88867 0.75418
 C2543 C 0.41194 0.88458 0.74151
 C2544 C 0.41948 0.89310 0.72579
 C2545 C 0.40794 0.90303 0.71294
 C2546 C 0.38801 0.90385 0.71625
 C2547 C 0.37628 0.91228 0.70254
 C2548 C 0.38373 0.91981 0.68626
 C2549 C 0.40316 0.91971 0.68316
 C2550 C 0.41562 0.91172 0.69661
 C2551 C 0.43527 0.91287 0.69315
 C2552 C 0.44210 0.92091 0.67672
 C2553 C 0.42968 0.92805 0.66313
 C2554 C 0.41019 0.92751 0.66656
 H2555 H 0.35094 0.90507 0.72983
 H2556 H 0.39525 0.86959 0.77060
 H2557 H 0.33943 0.88991 0.75736
 H2558 H 0.42133 0.87691 0.75085
 H2559 H 0.43444 0.89114 0.72383
 H2560 H 0.36112 0.91282 0.70370
 H2561 H 0.37414 0.92588 0.67601
 H2562 H 0.44580 0.90803 0.70298
 H2563 H 0.45725 0.92166 0.67473
 H2564 H 0.40037 0.93288 0.65614
 C2565 C 0.36459 0.39683 1.23728
 C2566 C 0.38333 0.39424 1.23111
 C2567 C 0.39538 0.38248 1.24195
 C2568 C 0.38845 0.37294 1.25773
 C2569 C 0.36978 0.37571 1.26375
 C2570 C 0.35805 0.38787 1.25331
 C2571 C 0.41437 0.38054 1.23716
 C2572 C 0.42183 0.39049 1.22219
 C2573 C 0.41035 0.40229 1.21093
 C2574 C 0.39059 0.40331 1.21482
 C2575 C 0.37868 0.41296 1.20208
 C2576 C 0.38590 0.42177 1.18634
 C2577 C 0.40529 0.42191 1.18300
 C2578 C 0.41786 0.41263 1.19552
 C2579 C 0.43746 0.41431 1.19219
 C2580 C 0.44414 0.42378 1.17647
 C2581 C 0.43159 0.43178 1.16341
 C2582 C 0.41214 0.43106 1.16701
 H2583 H 0.35475 0.40619 1.23038
 H2584 H 0.39797 0.36398 1.26569
 H2585 H 0.34354 0.39043 1.25722
 H2586 H 0.42366 0.37147 1.24529
 H2587 H 0.43660 0.38814 1.21936
 H2588 H 0.36353 0.41334 1.20350
 H2589 H 0.37619 0.42871 1.17676
 H2590 H 0.44800 0.40874 1.20165
 H2591 H 0.45927 0.42475 1.17448
 H2592 H 0.40223 0.43717 1.15709
 C2593 C 0.86245 1.10616 0.76247
 C2594 C 0.88179 1.10664 0.76759
 C2595 C 0.89436 1.11630 0.75553
 C2596 C 0.88757 1.12560 0.73944
 C2597 C 0.86835 1.12503 0.73469
 C2598 C 0.85595 1.11515 0.74631
 C2599 C 0.91366 1.11657 0.75953
 C2600 C 0.92091 1.10713 0.77503
 C2601 C 0.90902 1.09730 0.78747
 C2602 C 0.88907 1.09768 0.78410
 C2603 C 0.87704 1.08943 0.79752
 C2604 C 0.88422 1.08091 0.81354
 C2605 C 0.90365 1.07977 0.81668
 C2606 C 0.91637 1.08754 0.80349
 C2607 C 0.93595 1.08508 0.80688
 C2608 C 0.94249 1.07627 0.82313
 C2609 C 0.92987 1.06960 0.83664
 C2610 C 0.91041 1.07110 0.83310
 H2611 H 0.85198 1.09867 0.77040
 H2612 H 0.89736 1.13292 0.73037
 H2613 H 0.84102 1.11445 0.74302
 H2614 H 0.92334 1.12406 0.75047
 H2615 H 0.93594 1.10828 0.77717
 H2616 H 0.86187 1.08981 0.79636
 H2617 H 0.87441 1.07505 0.82358
 H2618 H 0.94660 1.08958 0.79715
 H2619 H 0.95761 1.07473 0.82516
 H2620 H 0.90045 1.06602 0.84340
 C2621 C 0.90708 0.62473 0.24975
 C2622 C 0.89753 0.61340 0.26299
 C2623 C 0.87782 0.61074 0.26043
 C2624 C 0.86842 0.61853 0.24490
 C2625 C 0.87817 0.62944 0.23181
 C2626 C 0.89751 0.63261 0.23449
 C2627 C 0.86752 0.60033 0.27336
 C2628 C 0.87624 0.59265 0.28903
 C2629 C 0.89582 0.59482 0.29227
 C2630 C 0.90676 0.60480 0.27871
 C2631 C 0.92658 0.60548 0.28112
 C2632 C 0.93540 0.59697 0.29634
 C2633 C 0.92486 0.58784 0.31003
 C2634 C 0.90490 0.58695 0.30842
 C2635 C 0.89482 0.57841 0.32320
 C2636 C 0.90425 0.57050 0.33848
 C2637 C 0.92403 0.57069 0.33963
 C2638 C 0.93424 0.57956 0.32537
 H2639 H 0.92189 0.62804 0.25089
 H2640 H 0.85336 0.61630 0.24320
 H2641 H 0.90542 0.64104 0.22464
 H2642 H 0.85248 0.59815 0.27140
 H2643 H 0.86724 0.58461 0.29812
 H2644 H 0.93582 0.61212 0.27119
 H2645 H 0.95067 0.59768 0.29748
 H2646 H 0.87962 0.57796 0.32366
 H2647 H 0.89591 0.56442 0.34961
 H2648 H 0.94954 0.57988 0.32610
 C2649 C 0.36130 1.10457 0.26252
 C2650 C 0.38047 1.10610 0.26814
 C2651 C 0.39285 1.11614 0.25622
 C2652 C 0.38603 1.12489 0.23990
 C2653 C 0.36696 1.12351 0.23475
 C2654 C 0.35474 1.11310 0.24609
 C2655 C 0.41201 1.11746 0.26060
 C2656 C 0.41934 1.10879 0.27646
 C2657 C 0.40765 1.09872 0.28889
 C2658 C 0.38779 1.09794 0.28502
 C2659 C 0.37588 1.08946 0.29839
 C2660 C 0.38310 1.08186 0.31485
 C2661 C 0.40248 1.08188 0.31847
 C2662 C 0.41510 1.08988 0.30536
 C2663 C 0.43471 1.08856 0.30926
 C2664 C 0.44132 1.08047 0.32584
 C2665 C 0.42874 1.07344 0.33920
 C2666 C 0.40929 1.07403 0.33526
 H2667 H 0.35104 1.09664 0.27033
 H2668 H 0.39573 1.13256 0.23103
 H2669 H 0.33995 1.11172 0.24241
 H2670 H 0.42151 1.12523 0.25159
 H2671 H 0.43423 1.11077 0.27888
 H2672 H 0.36074 1.08897 0.29682
 H2673 H 0.37336 1.07577 0.32483
 H2674 H 0.44535 1.09331 0.29964
 H2675 H 0.45644 1.07962 0.32816
 H2676 H 0.39933 1.06871 0.34544
 C2677 C 0.40631 0.62270 0.74605
 C2678 C 0.39673 0.61248 0.76011
 C2679 C 0.37685 0.61046 0.75821
 C2680 C 0.36726 0.61791 0.74257
 C2681 C 0.37703 0.62798 0.72884
 C2682 C 0.39658 0.63032 0.73079
 C2683 C 0.36660 0.60118 0.77201
 C2684 C 0.37552 0.59409 0.78787
 C2685 C 0.39526 0.59569 0.79046
 C2686 C 0.40613 0.60444 0.77604
 C2687 C 0.42602 0.60457 0.77788
 C2688 C 0.43501 0.59667 0.79334
 C2689 C 0.42461 0.58872 0.80782
 C2690 C 0.40457 0.58845 0.80680
 C2691 C 0.39470 0.58110 0.82232
 C2692 C 0.40434 0.57364 0.83771
 C2693 C 0.42415 0.57311 0.83826
 C2694 C 0.43419 0.58094 0.82331
 H2695 H 0.42126 0.62544 0.74657
 H2696 H 0.35207 0.61629 0.74136
 H2697 H 0.40452 0.63802 0.72039
 H2698 H 0.35143 0.59949 0.77061
 H2699 H 0.36652 0.58697 0.79770
 H2700 H 0.43520 0.61027 0.76734
 H2701 H 0.45032 0.59691 0.79400
 H2702 H 0.37950 0.58121 0.82322
 H2703 H 0.39615 0.56840 0.84935
 H2704 H 0.44951 0.58073 0.82357
 C2705 C 1.12192 0.90542 0.75076
 C2706 C 1.11076 0.89588 0.76413
 C2707 C 1.10805 0.87627 0.76174
 C2708 C 1.11556 0.86695 0.74617
 C2709 C 1.12642 0.87669 0.73302
 C2710 C 1.12964 0.89593 0.73557
 C2711 C 1.09795 0.86599 0.77494
 C2712 C 1.09070 0.87462 0.79071
 C2713 C 1.09290 0.89411 0.79374
 C2714 C 1.10243 0.90505 0.77986
 C2715 C 1.10294 0.92479 0.78197
 C2716 C 1.09472 0.93354 0.79723
 C2717 C 1.08614 0.92301 0.81129
 C2718 C 1.08547 0.90312 0.80997
 C2719 C 1.07759 0.89305 0.82512
 C2720 C 1.07005 0.90240 0.84046
 C2721 C 1.06991 0.92210 0.84131
 C2722 C 1.07819 0.93231 0.82668
 H2723 H 1.12532 0.92014 0.75182
 H2724 H 1.11330 0.85197 0.74453
 H2725 H 1.13803 0.90381 0.72565
 H2726 H 1.09574 0.85102 0.77315
 H2727 H 1.08291 0.86565 0.80005
 H2728 H 1.10914 0.93402 0.77174
 H2729 H 1.09526 0.94875 0.79811
 H2730 H 1.07743 0.87791 0.82580
 H2731 H 1.06451 0.89405 0.85186
 H2732 H 1.07829 0.94755 0.82714
 C2733 C 1.12779 0.40688 0.25011
 C2734 C 1.11664 0.39737 0.26354
 C2735 C 1.11388 0.37777 0.26114
 C2736 C 1.12124 0.36846 0.24552
 C2737 C 1.13189 0.37818 0.23219
 C2738 C 1.13529 0.39739 0.23477
 C2739 C 1.10374 0.36749 0.27430
 C2740 C 1.09641 0.37612 0.29001
 C2741 C 1.09861 0.39561 0.29305
 C2742 C 1.10829 0.40653 0.27927
 C2743 C 1.10886 0.42627 0.28145
 C2744 C 1.10043 0.43502 0.29661
 C2745 C 1.09159 0.42449 0.31052
 C2746 C 1.09097 0.40460 0.30919
 C2747 C 1.08290 0.39451 0.32422
 C2748 C 1.07503 0.40382 0.33940
 C2749 C 1.07475 0.42353 0.34023
 C2750 C 1.08331 0.43377 0.32577
 H2751 H 1.13122 0.42159 0.25117
 H2752 H 1.11886 0.35350 0.24391
 H2753 H 1.14356 0.40525 0.22475
 H2754 H 1.10149 0.35253 0.27248
 H2755 H 1.08852 0.36715 0.29926
 H2756 H 1.11527 0.43548 0.27133
 H2757 H 1.10097 0.45023 0.29752
 H2758 H 1.08280 0.37937 0.32493
 H2759 H 1.06932 0.39544 0.35070
 H2760 H 1.08334 0.44901 0.32623
 C2761 C 0.62704 0.90869 0.25134
 C2762 C 0.61548 0.89941 0.26458
 C2763 C 0.61236 0.87987 0.26211
 C2764 C 0.61983 0.87041 0.24661
 C2765 C 0.63096 0.87988 0.23349
 C2766 C 0.63467 0.89903 0.23614
 C2767 C 0.60179 0.86980 0.27510
 C2768 C 0.59438 0.87857 0.29071
 C2769 C 0.59694 0.89799 0.29384
 C2770 C 0.60706 0.90873 0.28022
 C2771 C 0.60802 0.92844 0.28247
 C2772 C 0.59953 0.93735 0.29753
 C2773 C 0.59024 0.92699 0.31129
 C2774 C 0.58924 0.90713 0.30990
 C2775 C 0.58073 0.89719 0.32480
 C2776 C 0.57283 0.90664 0.33990
 C2777 C 0.57291 0.92635 0.34078
 C2778 C 0.58191 0.93642 0.32645
 H2779 H 0.63071 0.92334 0.25245
 H2780 H 0.61718 0.85550 0.24495
 H2781 H 0.64330 0.90671 0.22628
 H2782 H 0.59925 0.85489 0.27322
 H2783 H 0.58616 0.86975 0.29983
 H2784 H 0.61479 0.93753 0.27247
 H2785 H 0.60039 0.95254 0.29848
 H2786 H 0.58033 0.88205 0.32547
 H2787 H 0.56682 0.89833 0.35109
 H2788 H 0.58225 0.95166 0.32693
 C2789 C 0.63781 0.39348 0.76532
 C2790 C 0.61842 0.39288 0.77014
 C2791 C 0.60598 0.38330 0.75787
 C2792 C 0.61291 0.37426 0.74186
 C2793 C 0.63215 0.37493 0.73740
 C2794 C 0.64446 0.38470 0.74925
 C2795 C 0.58666 0.38285 0.76155
 C2796 C 0.57926 0.39197 0.77698
 C2797 C 0.59099 0.40169 0.78967
 C2798 C 0.61097 0.40160 0.78654
 C2799 C 0.62284 0.40990 0.80009
 C2800 C 0.61551 0.41819 0.81600
 C2801 C 0.59606 0.41897 0.81893
 C2802 C 0.58347 0.41109 0.80566
 C2803 C 0.56384 0.41309 0.80894
 C2804 C 0.55716 0.42175 0.82507
 C2805 C 0.56969 0.42873 0.83857
 C2806 C 0.58917 0.42747 0.83523
 H2807 H 0.64820 0.40088 0.77347
 H2808 H 0.60318 0.36702 0.73266
 H2809 H 0.65941 0.38547 0.74621
 H2810 H 0.57709 0.37545 0.75230
 H2811 H 0.56422 0.39070 0.77883
 H2812 H 0.63802 0.40982 0.79908
 H2813 H 0.62521 0.42415 0.82612
 H2814 H 0.55324 0.40837 0.79920
 H2815 H 0.54203 0.42303 0.82695
 H2816 H 0.59907 0.43273 0.84554
 C2817 C 1.23655 1.13921 1.10393
 C2818 C 1.23192 1.11985 1.10482
 C2819 C 1.24417 1.10784 1.11519
 C2820 C 1.25987 1.11515 1.12474
 C2821 C 1.26414 1.13436 1.12380
 C2822 C 1.25242 1.14625 1.11320
 C2823 C 1.24078 1.08855 1.11594
 C2824 C 1.22571 1.08073 1.10629
 C2825 C 1.21307 1.09201 1.09575
 C2826 C 1.21578 1.11197 1.09562
 C2827 C 1.20204 1.12337 1.08667
 C2828 C 1.18634 1.11558 1.07796
 C2829 C 1.18393 1.09613 1.07730
 C2830 C 1.19748 1.08403 1.08578
 C2831 C 1.19490 1.06440 1.08380
 C2832 C 1.17903 1.05721 1.07472
 C2833 C 1.16513 1.06921 1.06728
 C2834 C 1.16787 1.08872 1.06838
 H2835 H 1.22844 1.14925 1.09588
 H2836 H 1.26905 1.10573 1.13258
 H2837 H 1.25542 1.16115 1.11217
 H2838 H 1.25001 1.07933 1.12397
 H2839 H 1.22402 1.06576 1.10785
 H2840 H 1.20268 1.13850 1.08664
 H2841 H 1.17601 1.12492 1.07155
 H2842 H 1.20501 1.05419 1.08886
 H2843 H 1.17763 1.04209 1.07354
 H2844 H 1.15725 1.09821 1.06272
 C2845 C 1.25113 0.62074 0.59273
 C2846 C 1.23685 0.61046 0.60199
 C2847 C 1.23858 0.60812 0.62163
 C2848 C 1.25418 0.61553 0.63135
 C2849 C 1.26794 0.62593 0.62192
 C2850 C 1.26629 0.62834 0.60257
 C2851 C 1.22458 0.59866 0.63153
 C2852 C 1.20858 0.59194 0.62251
 C2853 C 1.20606 0.59411 0.60303
 C2854 C 1.22079 0.60280 0.59249
 C2855 C 1.21908 0.60332 0.57283
 C2856 C 1.20341 0.59590 0.56377
 C2857 C 1.18858 0.58810 0.57388
 C2858 C 1.18946 0.58749 0.59367
 C2859 C 1.17354 0.58049 0.60329
 C2860 C 1.15796 0.57350 0.59362
 C2861 C 1.15762 0.57310 0.57405
 C2862 C 1.17287 0.58079 0.56426
 H2863 H 1.25080 0.62365 0.57796
 H2864 H 1.25523 0.61380 0.64637
 H2865 H 1.27679 0.63623 0.59489
 H2866 H 1.22589 0.59664 0.64649
 H2867 H 1.19859 0.58464 0.63120
 H2868 H 1.22987 0.60897 0.56389
 H2869 H 1.20285 0.59641 0.54864
 H2870 H 1.17250 0.58051 0.61829
 H2871 H 1.14604 0.56841 0.60160
 H2872 H 1.17272 0.58073 0.54913
 C2873 C 0.73547 1.13642 0.60642
 C2874 C 0.73090 1.11708 0.60745
 C2875 C 0.74347 1.10505 0.61739
 C2876 C 0.75951 1.11235 0.62641
 C2877 C 0.76367 1.13158 0.62539
 C2878 C 0.75154 1.14346 0.61524
 C2879 C 0.74003 1.08577 0.61827
 C2880 C 0.72456 1.07802 0.60916
 C2881 C 0.71162 1.08937 0.59906
 C2882 C 0.71444 1.10930 0.59881
 C2883 C 0.70051 1.12081 0.59029
 C2884 C 0.68454 1.11315 0.58203
 C2885 C 0.68198 1.09374 0.58150
 C2886 C 0.69564 1.08151 0.58962
 C2887 C 0.69274 1.06190 0.58783
 C2888 C 0.67655 1.05488 0.57917
 C2889 C 0.66267 1.06707 0.57200
 C2890 C 0.66565 1.08652 0.57302
 H2891 H 0.72715 1.14650 0.59864
 H2892 H 0.76894 1.10293 0.63396
 H2893 H 0.75432 1.15839 0.61417
 H2894 H 0.74948 1.07652 0.62599
 H2895 H 0.72286 1.06305 0.61076
 H2896 H 0.70121 1.13593 0.59021
 H2897 H 0.67411 1.12256 0.57591
 H2898 H 0.70283 1.05159 0.59272
 H2899 H 0.67489 1.03978 0.57808
 H2900 H 0.65499 1.09613 0.56764
 C2901 C 0.73577 0.60440 1.13739
 C2902 C 0.73054 0.60625 1.11834
 C2903 C 0.74273 0.61663 1.10652
 C2904 C 0.75882 0.62551 1.11377
 C2905 C 0.76352 0.62388 1.13273
 C2906 C 0.75202 0.61304 1.14439
 C2907 C 0.73883 0.61815 1.08748
 C2908 C 0.72322 0.60932 1.07974
 C2909 C 0.71053 0.59894 1.09088
 C2910 C 0.71382 0.59803 1.11061
 C2911 C 0.70005 0.58941 1.12197
 C2912 C 0.68378 0.58168 1.11433
 C2913 C 0.68082 0.58169 1.09507
 C2914 C 0.69434 0.58990 1.08301
 C2915 C 0.69113 0.58856 1.06354
 C2916 C 0.67481 0.58017 1.05648
 C2917 C 0.66105 0.57289 1.06850
 C2918 C 0.66428 0.57360 1.08782
 H2919 H 0.72780 0.59610 1.14721
 H2920 H 0.76789 0.63347 1.10451
 H2921 H 0.75542 0.61141 1.15906
 H2922 H 0.74804 0.62618 1.07840
 H2923 H 0.72114 0.61144 1.06497
 H2924 H 0.70113 0.58894 1.13697
 H2925 H 0.67345 0.57548 1.12363
 H2926 H 0.70113 0.59349 1.05334
 H2927 H 0.67303 0.57929 1.04149
 H2928 H 0.65374 0.56813 1.09734
 C2929 C 1.23603 0.86056 0.89514
 C2930 C 1.23057 0.87969 0.89356
 C2931 C 1.24226 0.89179 0.88288
 C2932 C 1.25819 0.88473 0.87363
 C2933 C 1.26321 0.86573 0.87518
 C2934 C 1.25210 0.85378 0.88614
 C2935 C 1.23806 0.91091 0.88150
 C2936 C 1.22268 0.91848 0.89078
 C2937 C 1.21055 0.90708 0.90155
 C2938 C 1.21411 0.88725 0.90234
 C2939 C 1.20087 0.87563 0.91148
 C2940 C 1.18482 0.88309 0.91974
 C2941 C 1.18157 0.90244 0.91974
 C2942 C 1.19462 0.91478 0.91109
 C2943 C 1.19120 0.93435 0.91247
 C2944 C 1.17502 0.94122 0.92117
 C2945 C 1.16164 0.92892 0.92876
 C2946 C 1.16519 0.90951 0.92821
 H2947 H 1.22842 0.85051 0.90351
 H2948 H 1.26692 0.89420 0.86551
 H2949 H 1.25571 0.83903 0.88764
 H2950 H 1.24686 0.92019 0.87323
 H2951 H 1.22033 0.93333 0.88873
 H2952 H 1.20217 0.86053 0.91200
 H2953 H 1.17488 0.87358 0.92631
 H2954 H 1.20090 0.94476 0.90727
 H2955 H 1.17300 0.95631 0.92196
 H2956 H 1.15496 0.89979 0.93398
 C2957 C 1.24904 0.40474 0.37247
 C2958 C 1.23712 0.39618 0.38573
 C2959 C 1.24074 0.37713 0.39056
 C2960 C 1.25649 0.36758 0.38322
 C2961 C 1.26829 0.37634 0.37008
 C2962 C 1.26415 0.39498 0.36475
 C2963 C 1.22846 0.36764 0.40250
 C2964 C 1.21237 0.37647 0.40931
 C2965 C 1.20832 0.39550 0.40502
 C2966 C 1.22150 0.40577 0.39394
 C2967 C 1.21888 0.42538 0.39180
 C2968 C 1.20355 0.43455 0.39970
 C2969 C 1.18989 0.42450 0.40948
 C2970 C 1.19181 0.40476 0.41188
 C2971 C 1.17691 0.39505 0.42072
 C2972 C 1.16128 0.40469 0.42762
 C2973 C 1.15998 0.42437 0.42626
 C2974 C 1.17431 0.43414 0.41693
 H2975 H 1.24672 0.41883 0.36728
 H2976 H 1.25903 0.35308 0.38727
 H2977 H 1.27275 0.40249 0.35477
 H2978 H 1.23112 0.35309 0.40636
 H2979 H 1.20366 0.36819 0.41850
 H2980 H 1.22887 0.43422 0.38463
 H2981 H 1.20226 0.44966 0.39792
 H2982 H 1.17667 0.37994 0.42204
 H2983 H 1.15004 0.39658 0.43393
 H2984 H 1.17350 0.44932 0.41564
 C2985 C 0.74811 0.90824 0.37490
 C2986 C 0.73450 0.89878 0.38588
 C2987 C 0.73672 0.87909 0.38844
 C2988 C 0.75233 0.86958 0.38090
 C2989 C 0.76572 0.87923 0.37022
 C2990 C 0.76338 0.89858 0.36721
 C2991 C 0.72333 0.86892 0.39845
 C2992 C 0.70750 0.87775 0.40572
 C2993 C 0.70459 0.89732 0.40360
 C2994 C 0.71869 0.90812 0.39416
 C2995 C 0.71669 0.92790 0.39365
 C2996 C 0.70133 0.93682 0.40178
 C2997 C 0.68707 0.92643 0.41031
 C2998 C 0.68827 0.90651 0.41100
 C2999 C 0.67293 0.89661 0.41889
 C3000 C 0.65756 0.90615 0.42647
 C3001 C 0.65687 0.92586 0.42659
 C3002 C 0.67162 0.93591 0.41824
 H3003 H 0.74722 0.92303 0.37166
 H3004 H 0.75382 0.85454 0.38302
 H3005 H 0.77349 0.90642 0.35900
 H3006 H 0.72501 0.85389 0.40057
 H3007 H 0.69801 0.86885 0.41344
 H3008 H 0.72708 0.93703 0.38749
 H3009 H 0.70054 0.95205 0.40124
 H3010 H 0.67212 0.88149 0.41909
 H3011 H 0.64602 0.89796 0.43213
 H3012 H 0.67123 0.95116 0.41813
 C3013 C 0.75076 0.40596 0.87724
 C3014 C 0.73719 0.39646 0.88825
 C3015 C 0.73953 0.37677 0.89083
 C3016 C 0.75512 0.36729 0.88312
 C3017 C 0.76829 0.37695 0.87216
 C3018 C 0.76593 0.39632 0.86931
 C3019 C 0.72617 0.36657 0.90087
 C3020 C 0.71026 0.37534 0.90813
 C3021 C 0.70722 0.39488 0.90595
 C3022 C 0.72126 0.40573 0.89647
 C3023 C 0.71905 0.42549 0.89577
 C3024 C 0.70355 0.43433 0.90374
 C3025 C 0.68936 0.42391 0.91235
 C3026 C 0.69078 0.40402 0.91328
 C3027 C 0.67551 0.39409 0.92132
 C3028 C 0.65996 0.40357 0.92867
 C3029 C 0.65899 0.42329 0.92846
 C3030 C 0.67374 0.43334 0.92007
 H3031 H 0.74986 0.42076 0.87407
 H3032 H 0.75665 0.35224 0.88516
 H3033 H 0.77590 0.40414 0.86091
 H3034 H 0.72791 0.35155 0.90299
 H3035 H 0.70078 0.36639 0.91580
 H3036 H 0.72934 0.43466 0.88952
 H3037 H 0.70259 0.44955 0.90300
 H3038 H 0.67491 0.37895 0.92180
 H3039 H 0.64849 0.39532 0.93437
 H3040 H 0.67321 0.44858 0.91973
 C3041 C 0.75123 0.87483 1.09429
 C3042 C 0.76464 0.88611 1.10378
 C3043 C 0.76198 0.88892 1.12319
 C3044 C 0.74622 0.88132 1.13236
 C3045 C 0.73297 0.87042 1.12270
 C3046 C 0.73575 0.86712 1.10364
 C3047 C 0.77506 0.89930 1.13342
 C3048 C 0.79098 0.90675 1.12496
 C3049 C 0.79435 0.90440 1.10570
 C3050 C 0.78062 0.89452 1.09479
 C3051 C 0.78313 0.89372 1.07525
 C3052 C 0.79860 0.90209 1.06669
 C3053 C 0.81249 0.91110 1.07721
 C3054 C 0.81080 0.91201 1.09691
 C3055 C 0.82583 0.92029 1.10702
 C3056 C 0.84141 0.92795 1.09790
 C3057 C 0.84264 0.92784 1.07836
 C3058 C 0.82811 0.91920 1.06812
 H3059 H 0.75242 0.87144 1.07971
 H3060 H 0.74446 0.88369 1.14719
 H3061 H 0.72579 0.85870 1.09580
 H3062 H 0.77302 0.90163 1.14823
 H3063 H 0.80015 0.91481 1.13388
 H3064 H 0.77309 0.88713 1.06605
 H3065 H 0.79978 0.90132 1.05162
 H3066 H 0.82628 0.92065 1.12204
 H3067 H 0.85271 0.93376 1.10630
 H3068 H 0.82882 0.91890 1.05302
 C3069 C 0.76607 0.38899 0.63626
 C3070 C 0.77034 0.38865 0.61698
 C3071 C 0.75758 0.37909 0.60500
 C3072 C 0.74150 0.37001 0.61224
 C3073 C 0.73748 0.37068 0.63137
 C3074 C 0.74995 0.38022 0.64322
 C3075 C 0.76080 0.37881 0.58581
 C3076 C 0.77620 0.38809 0.57812
 C3077 C 0.78930 0.39787 0.58940
 C3078 C 0.78664 0.39765 0.60921
 C3079 C 0.80048 0.40622 0.62060
 C3080 C 0.81624 0.41487 0.61298
 C3081 C 0.81877 0.41571 0.59372
 C3082 C 0.80521 0.40753 0.58159
 C3083 C 0.80817 0.40948 0.56214
 C3084 C 0.82424 0.41843 0.55518
 C3085 C 0.83798 0.42578 0.56726
 C3086 C 0.83496 0.42455 0.58656
 H3087 H 0.77464 0.39622 0.64638
 H3088 H 0.73184 0.36286 0.60289
 H3089 H 0.74732 0.38091 0.65808
 H3090 H 0.75120 0.37144 0.57657
 H3091 H 0.77765 0.38700 0.56321
 H3092 H 0.79983 0.40617 0.63561
 H3093 H 0.82657 0.42107 0.62233
 H3094 H 0.79825 0.40445 0.55187
 H3095 H 0.82588 0.41963 0.54020
 H3096 H 0.84548 0.43006 0.59611
 C3097 C 0.26367 0.88896 0.63673
 C3098 C 0.26831 0.88903 0.61754
 C3099 C 0.25583 0.87968 0.60511
 C3100 C 0.23967 0.87036 0.61186
 C3101 C 0.23525 0.87070 0.63090
 C3102 C 0.24744 0.88002 0.64319
 C3103 C 0.25940 0.87990 0.58598
 C3104 C 0.27481 0.88956 0.57879
 C3105 C 0.28761 0.89917 0.59053
 C3106 C 0.28469 0.89831 0.61028
 C3107 C 0.29836 0.90653 0.62212
 C3108 C 0.31416 0.91553 0.61499
 C3109 C 0.31686 0.91710 0.59580
 C3110 C 0.30349 0.90927 0.58325
 C3111 C 0.30657 0.91203 0.56391
 C3112 C 0.32262 0.92136 0.55744
 C3113 C 0.33624 0.92828 0.56991
 C3114 C 0.33306 0.92631 0.58913
 H3115 H 0.27199 0.89606 0.64714
 H3116 H 0.23019 0.86338 0.60219
 H3117 H 0.24446 0.88045 0.65799
 H3118 H 0.25002 0.87268 0.57640
 H3119 H 0.27654 0.88887 0.56387
 H3120 H 0.29755 0.90588 0.63711
 H3121 H 0.32435 0.92142 0.62467
 H3122 H 0.29674 0.90736 0.55338
 H3123 H 0.32438 0.92315 0.54253
 H3124 H 0.34347 0.93150 0.59897
 C3125 C 0.25131 0.37396 1.09259
 C3126 C 0.26451 0.38553 1.10201
 C3127 C 0.26196 0.38824 1.12144
 C3128 C 0.24635 0.38044 1.13067
 C3129 C 0.23323 0.36938 1.12104
 C3130 C 0.23601 0.36602 1.10200
 C3131 C 0.27497 0.39875 1.13163
 C3132 C 0.29070 0.40648 1.12306
 C3133 C 0.29386 0.40435 1.10374
 C3134 C 0.28018 0.39432 1.09291
 C3135 C 0.28238 0.39385 1.07332
 C3136 C 0.29751 0.40265 1.06463
 C3137 C 0.31138 0.41177 1.07507
 C3138 C 0.31001 0.41237 1.09480
 C3139 C 0.32505 0.42077 1.10480
 C3140 C 0.34029 0.42886 1.09554
 C3141 C 0.34116 0.42908 1.07598
 C3142 C 0.32665 0.42031 1.06585
 H3143 H 0.25255 0.37051 1.07802
 H3144 H 0.24459 0.38279 1.14550
 H3145 H 0.22616 0.35742 1.09422
 H3146 H 0.27303 0.40096 1.14646
 H3147 H 0.29984 0.41461 1.13194
 H3148 H 0.27227 0.38724 1.06419
 H3149 H 0.29844 0.40214 1.04953
 H3150 H 0.32574 0.42089 1.11982
 H3151 H 0.35164 0.43475 1.10384
 H3152 H 0.32712 0.42026 1.05073
 C3153 C 0.76309 1.13821 0.89307
 C3154 C 0.76828 1.11897 0.89278
 C3155 C 0.75621 1.10643 0.88304
 C3156 C 0.73990 1.11312 0.87375
 C3157 C 0.73494 1.13220 0.87437
 C3158 C 0.74674 1.14461 0.88407
 C3159 C 0.76034 1.08725 0.88277
 C3160 C 0.77592 1.08007 0.89233
 C3161 C 0.78831 1.09189 0.90238
 C3162 C 0.78483 1.11174 0.90201
 C3163 C 0.79816 1.12369 0.91064
 C3164 C 0.81419 1.11656 0.91947
 C3165 C 0.81743 1.09723 0.92053
 C3166 C 0.80434 1.08458 0.91239
 C3167 C 0.80780 1.06509 0.91476
 C3168 C 0.82406 1.05858 0.92387
 C3169 C 0.83752 1.07114 0.93094
 C3170 C 0.83388 1.09050 0.92952
 H3171 H 0.77111 1.14869 0.90045
 H3172 H 0.73078 1.10333 0.86648
 H3173 H 0.74339 1.15946 0.88474
 H3174 H 0.75130 1.07761 0.87519
 H3175 H 0.77814 1.06512 0.89117
 H3176 H 0.79690 1.13879 0.91042
 H3177 H 0.82414 1.12632 0.92564
 H3178 H 0.79814 1.05447 0.90994
 H3179 H 0.82612 1.04353 0.92531
 H3180 H 0.84412 1.10042 0.93492
 C3181 C 0.76315 0.63716 0.39173
 C3182 C 0.76804 0.61788 0.39039
 C3183 C 0.75549 0.60597 0.38047
 C3184 C 0.73917 0.61333 0.37179
 C3185 C 0.73463 0.63247 0.37325
 C3186 C 0.74674 0.64423 0.38335
 C3187 C 0.75920 0.58673 0.37939
 C3188 C 0.77488 0.57889 0.38827
 C3189 C 0.78781 0.59011 0.39832
 C3190 C 0.78474 0.61002 0.39875
 C3191 C 0.79864 0.62143 0.40721
 C3192 C 0.81477 0.61369 0.41528
 C3193 C 0.81755 0.59427 0.41572
 C3194 C 0.80397 0.58214 0.40759
 C3195 C 0.80709 0.56251 0.40927
 C3196 C 0.82333 0.55539 0.41797
 C3197 C 0.83711 0.56748 0.42526
 C3198 C 0.83398 0.58695 0.42419
 H3199 H 0.77145 0.64712 0.39950
 H3200 H 0.72974 0.60402 0.36428
 H3201 H 0.74363 0.65907 0.38473
 H3202 H 0.74976 0.57756 0.37172
 H3203 H 0.77674 0.56396 0.38656
 H3204 H 0.79775 0.63655 0.40738
 H3205 H 0.82514 0.62305 0.42140
 H3206 H 0.79710 0.55225 0.40433
 H3207 H 0.82504 0.54028 0.41908
 H3208 H 0.84452 0.59653 0.42963
 C3209 C 0.24932 1.09412 0.37696
 C3210 C 0.26249 1.10372 0.38839
 C3211 C 0.25966 1.12329 0.39104
 C3212 C 0.24398 1.13253 0.38305
 C3213 C 0.23100 1.12274 0.37195
 C3214 C 0.23392 1.10350 0.36892
 C3215 C 0.27251 1.13361 0.40162
 C3216 C 0.28834 1.12506 0.40945
 C3217 C 0.29185 1.10562 0.40727
 C3218 C 0.27838 1.09466 0.39710
 C3219 C 0.28107 1.07498 0.39627
 C3220 C 0.29646 1.06632 0.40486
 C3221 C 0.31006 1.07688 0.41422
 C3222 C 0.30819 1.09671 0.41526
 C3223 C 0.32293 1.10681 0.42407
 C3224 C 0.33845 1.09752 0.43194
 C3225 C 0.33988 1.07785 0.43151
 C3226 C 0.32558 1.06764 0.42251
 H3227 H 0.25063 1.07941 0.37367
 H3228 H 0.24212 1.14749 0.38524
 H3229 H 0.22418 1.09552 0.36040
 H3230 H 0.27036 1.14855 0.40381
 H3231 H 0.29735 1.13406 0.41760
 H3232 H 0.27126 1.06571 0.38943
 H3233 H 0.29781 1.05114 0.40400
 H3234 H 0.32319 1.12194 0.42472
 H3235 H 0.34958 1.10589 0.43813
 H3236 H 0.32645 1.05242 0.42204
 C3237 C 0.24913 0.59353 0.87348
 C3238 C 0.26265 0.60301 0.88460
 C3239 C 0.26003 0.62259 0.88735
 C3240 C 0.24423 0.63198 0.87972
 C3241 C 0.23094 0.62233 0.86885
 C3242 C 0.23364 0.60306 0.86577
 C3243 C 0.27322 0.63278 0.89766
 C3244 C 0.28921 0.62410 0.90505
 C3245 C 0.29255 0.60465 0.90269
 C3246 C 0.27873 0.59380 0.89287
 C3247 C 0.28127 0.57410 0.89195
 C3248 C 0.29685 0.56532 0.90010
 C3249 C 0.31080 0.57576 0.90909
 C3250 C 0.30908 0.59562 0.91019
 C3251 C 0.32413 0.60561 0.91856
 C3252 C 0.33976 0.59623 0.92610
 C3253 C 0.34102 0.57654 0.92576
 C3254 C 0.32650 0.56642 0.91701
 H3255 H 0.25024 0.57881 0.87017
 H3256 H 0.24252 0.64695 0.88199
 H3257 H 0.22365 0.59517 0.85745
 H3258 H 0.27122 0.64772 0.89995
 H3259 H 0.29849 0.63301 0.91300
 H3260 H 0.27120 0.56492 0.88538
 H3261 H 0.29806 0.55014 0.89920
 H3262 H 0.32452 0.62074 0.91916
 H3263 H 0.35107 0.60454 0.93204
 H3264 H 0.32726 0.55119 0.91655
 C3265 C 1.09389 1.24723 1.12631
 C3266 C 1.10364 1.23440 1.11469
 C3267 C 1.12325 1.23737 1.11197
 C3268 C 1.13231 1.25300 1.11982
 C3269 C 1.12234 1.26581 1.13086
 C3270 C 1.10314 1.26261 1.13425
 C3271 C 1.13378 1.22479 1.10136
 C3272 C 1.12538 1.20910 1.09349
 C3273 C 1.10589 1.20550 1.09561
 C3274 C 1.09471 1.21871 1.10583
 C3275 C 1.07494 1.21604 1.10644
 C3276 C 1.06641 1.20088 1.09764
 C3277 C 1.07721 1.18747 1.08831
 C3278 C 1.09713 1.18936 1.08746
 C3279 C 1.10748 1.17483 1.07870
 C3280 C 1.09836 1.15947 1.07069
 C3281 C 1.07861 1.15799 1.07094
 C3282 C 1.06814 1.17211 1.07986
 H3283 H 1.07917 1.24568 1.12974
 H3284 H 1.14729 1.25505 1.11746
 H3285 H 1.09510 1.27221 1.14284
 H3286 H 1.14875 1.22706 1.09916
 H3287 H 1.13454 1.20030 1.08531
 H3288 H 1.06553 1.22575 1.11323
 H3289 H 1.05117 1.19954 1.09831
 H3290 H 1.12269 1.17459 1.07822
 H3291 H 1.10693 1.14848 1.06457
 H3292 H 1.05285 1.17122 1.08018
 C3293 C 1.09214 0.74923 0.62400
 C3294 C 1.10167 0.73576 0.61296
 C3295 C 1.12138 0.73820 0.61032
 C3296 C 1.13082 0.75385 0.61789
 C3297 C 1.12109 0.76709 0.62868
 C3298 C 1.10172 0.76451 0.63171
 C3299 C 1.13162 0.72497 0.60020
 C3300 C 1.12287 0.70916 0.59285
 C3301 C 1.10328 0.70607 0.59500
 C3302 C 1.09239 0.71992 0.60466
 C3303 C 1.07257 0.71764 0.60539
 C3304 C 1.06369 0.70231 0.59720
 C3305 C 1.07416 0.68833 0.58834
 C3306 C 1.09413 0.68979 0.58743
 C3307 C 1.10412 0.67474 0.57915
 C3308 C 1.09463 0.65938 0.57151
 C3309 C 1.07482 0.65837 0.57165
 C3310 C 1.06470 0.67290 0.58033
 H3311 H 1.07733 0.74822 0.62726
 H3312 H 1.14587 0.75548 0.61570
 H3313 H 1.09378 0.77447 0.63997
 H3314 H 1.14667 0.72677 0.59803
 H3315 H 1.13185 0.69981 0.58507
 H3316 H 1.06335 0.72777 0.61181
 H3317 H 1.04843 0.70133 0.59793
 H3318 H 1.11933 0.67416 0.57868
 H3319 H 1.10297 0.64808 0.56564
 H3320 H 1.04940 0.67237 0.58064
 C3321 C 0.59309 1.25053 0.62600
 C3322 C 0.60266 1.23671 0.61542
 C3323 C 0.62233 1.23922 0.61253
 C3324 C 0.63170 1.25517 0.61954
 C3325 C 0.62196 1.26867 0.63000
 C3326 C 0.60261 1.26611 0.63316
 C3327 C 0.63261 1.22574 0.60278
 C3328 C 0.62395 1.20958 0.59610
 C3329 C 0.60443 1.20634 0.59862
 C3330 C 0.59348 1.22044 0.60786
 C3331 C 0.57371 1.21794 0.60896
 C3332 C 0.56495 1.20213 0.60158
 C3333 C 0.57549 1.18793 0.59318
 C3334 C 0.59542 1.18964 0.59186
 C3335 C 0.60551 1.17441 0.58401
 C3336 C 0.59613 1.15864 0.57712
 C3337 C 0.57635 1.15735 0.57768
 C3338 C 0.56615 1.17203 0.58599
 H3339 H 0.57830 1.24957 0.62934
 H3340 H 0.64674 1.25680 0.61722
 H3341 H 0.59466 1.27630 0.64114
 H3342 H 0.64761 1.22762 0.60039
 H3343 H 0.63296 1.20005 0.58858
 H3344 H 0.56443 1.22821 0.61509
 H3345 H 0.54971 1.20097 0.60259
 H3346 H 0.62070 1.17405 0.58326
 H3347 H 0.60451 1.14727 0.57145
 H3348 H 0.55087 1.17125 0.58659
 C3349 C 0.59210 0.74960 1.12753
 C3350 C 0.60154 0.73674 1.11571
 C3351 C 0.62116 0.73947 1.11282
 C3352 C 0.63052 0.75494 1.12070
 C3353 C 0.62085 0.76780 1.13194
 C3354 C 0.60164 0.76480 1.13550
 C3355 C 0.63138 0.72681 1.10201
 C3356 C 0.62267 0.71131 1.09407
 C3357 C 0.60314 0.70799 1.09631
 C3358 C 0.59227 0.72125 1.10679
 C3359 C 0.57248 0.71884 1.10761
 C3360 C 0.56362 0.70389 1.09875
 C3361 C 0.57409 0.69044 1.08912
 C3362 C 0.59403 0.69208 1.08804
 C3363 C 0.60403 0.67754 1.07891
 C3364 C 0.59458 0.66242 1.07081
 C3365 C 0.57481 0.66117 1.07132
 C3366 C 0.56468 0.67530 1.08059
 H3367 H 0.57740 0.74821 1.13111
 H3368 H 0.64549 0.75682 1.11819
 H3369 H 0.59381 0.77441 1.14425
 H3370 H 0.64637 0.72886 1.09970
 H3371 H 0.63162 0.70243 1.08576
 H3372 H 0.56329 0.72859 1.11461
 H3373 H 0.54837 0.70276 1.09960
 H3374 H 0.61923 0.67712 1.07818
 H3375 H 0.60293 0.65142 1.06442
 H3376 H 0.54939 0.67460 1.08113
 C3377 C 0.90717 1.25258 0.87611
 C3378 C 0.89747 1.23850 0.88630
 C3379 C 0.87763 1.24062 0.88828
 C3380 C 0.86817 1.25636 0.88070
 C3381 C 0.87803 1.27015 0.87068
 C3382 C 0.89759 1.26803 0.86846
 C3383 C 0.86726 1.22697 0.89775
 C3384 C 0.87602 1.21104 0.90509
 C3385 C 0.89571 1.20816 0.90346
 C3386 C 0.90670 1.22238 0.89439
 C3387 C 0.92654 1.22011 0.89392
 C3388 C 0.93535 1.20446 0.90180
 C3389 C 0.92482 1.19021 0.91017
 C3390 C 0.90483 1.19169 0.91089
 C3391 C 0.89481 1.17646 0.91889
 C3392 C 0.90429 1.16088 0.92635
 C3393 C 0.92408 1.15979 0.92622
 C3394 C 0.93424 1.17450 0.91789
 H3395 H 0.92214 1.25200 0.87353
 H3396 H 0.85300 1.25763 0.88230
 H3397 H 0.90565 1.27844 0.86085
 H3398 H 0.85212 1.22856 0.89943
 H3399 H 0.86691 1.20138 0.91233
 H3400 H 0.93582 1.23041 0.88785
 H3401 H 0.95063 1.20345 0.90123
 H3402 H 0.87961 1.17594 0.91935
 H3403 H 0.89599 1.14947 0.93210
 H3404 H 0.94955 1.17386 0.91765
 C3405 C 0.86182 0.73752 0.39097
 C3406 C 0.88114 0.73229 0.39041
 C3407 C 0.89371 0.74451 0.38090
 C3408 C 0.88697 0.76089 0.37191
 C3409 C 0.86779 0.76580 0.37265
 C3410 C 0.85537 0.75397 0.38230
 C3411 C 0.91300 0.74043 0.38054
 C3412 C 0.92023 0.72469 0.38973
 C3413 C 0.90834 0.71207 0.39940
 C3414 C 0.88840 0.71555 0.39915
 C3415 C 0.87637 0.70202 0.40733
 C3416 C 0.88353 0.68581 0.41568
 C3417 C 0.90295 0.68255 0.41667
 C3418 C 0.91568 0.69580 0.40892
 C3419 C 0.93526 0.69223 0.41115
 C3420 C 0.94178 0.67581 0.41986
 C3421 C 0.92913 0.66229 0.42665
 C3422 C 0.90968 0.66595 0.42523
 H3423 H 0.85135 0.72945 0.39832
 H3424 H 0.89677 0.77007 0.36473
 H3425 H 0.84046 0.75734 0.38310
 H3426 H 0.92268 0.74962 0.37320
 H3427 H 0.93525 0.72255 0.38856
 H3428 H 0.86120 0.70327 0.40708
 H3429 H 0.87371 0.67572 0.42153
 H3430 H 0.94595 0.70195 0.40657
 H3431 H 0.95689 0.67372 0.42129
 H3432 H 0.89968 0.65565 0.43037
 C3433 C 0.40690 1.25133 0.37688
 C3434 C 0.39716 1.23790 0.38783
 C3435 C 0.37737 1.24035 0.38997
 C3436 C 0.36805 1.25597 0.38198
 C3437 C 0.37800 1.26919 0.37134
 C3438 C 0.39746 1.26662 0.36880
 C3439 C 0.36694 1.22718 0.40002
 C3440 C 0.37559 1.21142 0.40783
 C3441 C 0.39525 1.20832 0.40620
 C3442 C 0.40630 1.22209 0.39654
 C3443 C 0.42614 1.21976 0.39621
 C3444 C 0.43488 1.20444 0.40475
 C3445 C 0.42428 1.19057 0.41362
 C3446 C 0.40429 1.19210 0.41422
 C3447 C 0.39420 1.17718 0.42268
 C3448 C 0.40362 1.16181 0.43064
 C3449 C 0.42341 1.16070 0.43061
 C3450 C 0.43363 1.17514 0.42192
 H3451 H 0.42179 1.25033 0.37399
 H3452 H 0.35294 1.25760 0.38378
 H3453 H 0.40556 1.27658 0.36066
 H3454 H 0.35183 1.22901 0.40178
 H3455 H 0.36646 1.20212 0.41549
 H3456 H 0.43546 1.22981 0.38981
 H3457 H 0.45016 1.20338 0.40426
 H3458 H 0.37900 1.17669 0.42304
 H3459 H 0.39527 1.15057 0.43662
 H3460 H 0.44894 1.17450 0.42177
 C3461 C 0.40820 0.74928 0.87230
 C3462 C 0.39873 0.73559 0.88320
 C3463 C 0.37900 0.73789 0.88581
 C3464 C 0.36949 0.75361 0.87845
 C3465 C 0.37916 0.76718 0.86804
 C3466 C 0.39852 0.76476 0.86486
 C3467 C 0.36877 0.72452 0.89577
 C3468 C 0.37760 0.70868 0.90308
 C3469 C 0.39721 0.70569 0.90097
 C3470 C 0.40807 0.71969 0.89144
 C3471 C 0.42792 0.71752 0.89086
 C3472 C 0.43685 0.70214 0.89910
 C3473 C 0.42639 0.68806 0.90781
 C3474 C 0.40640 0.68940 0.90852
 C3475 C 0.39641 0.67422 0.91661
 C3476 C 0.40594 0.65888 0.92437
 C3477 C 0.42572 0.65805 0.92441
 C3478 C 0.43586 0.67261 0.91589
 H3479 H 0.42301 0.74834 0.86902
 H3480 H 0.35442 0.75510 0.88064
 H3481 H 0.40634 0.77499 0.85677
 H3482 H 0.35371 0.72629 0.89791
 H3483 H 0.36865 0.69926 0.91083
 H3484 H 0.43709 0.72778 0.88456
 H3485 H 0.45213 0.70121 0.89853
 H3486 H 0.38121 0.67352 0.91684
 H3487 H 0.39770 0.64747 0.93019
 H3488 H 0.45118 0.67206 0.91574
 C3489 C 1.09300 0.74671 0.87949
 C3490 C 1.10271 0.76141 0.88865
 C3491 C 1.12273 0.76018 0.88971
 C3492 C 1.13239 0.74469 0.88210
 C3493 C 1.12249 0.73048 0.87283
 C3494 C 1.10275 0.73163 0.87171
 C3495 C 1.13303 0.77454 0.89812
 C3496 C 1.12401 0.79034 0.90517
 C3497 C 1.10414 0.79235 0.90435
 C3498 C 1.09327 0.77736 0.89651
 C3499 C 1.07334 0.77874 0.89694
 C3500 C 1.06431 0.79425 0.90455
 C3501 C 1.07467 0.80922 0.91171
 C3502 C 1.09473 0.80868 0.91143
 C3503 C 1.10450 0.82464 0.91813
 C3504 C 1.09476 0.83997 0.92550
 C3505 C 1.07498 0.84003 0.92654
 C3506 C 1.06501 0.82470 0.91930
 H3507 H 1.07789 0.74656 0.87766
 H3508 H 1.14769 0.74403 0.88285
 H3509 H 1.09470 0.72078 0.86475
 H3510 H 1.14831 0.77364 0.89911
 H3511 H 1.13308 0.80063 0.91155
 H3512 H 1.06417 0.76784 0.89185
 H3513 H 1.04899 0.79456 0.90473
 H3514 H 1.11965 0.82590 0.91766
 H3515 H 1.10284 0.85192 0.93036
 H3516 H 1.04970 0.82461 0.91993
 C3517 C 1.11036 0.26543 0.36324
 C3518 C 1.11120 0.27002 0.38242
 C3519 C 1.12094 0.25742 0.39457
 C3520 C 1.12988 0.24125 0.38752
 C3521 C 1.12869 0.23693 0.36850
 C3522 C 1.11889 0.24916 0.35650
 C3523 C 1.12145 0.26087 0.41370
 C3524 C 1.11207 0.27626 0.42119
 C3525 C 1.10211 0.28917 0.40971
 C3526 C 1.10238 0.28642 0.38994
 C3527 C 1.09406 0.30030 0.37832
 C3528 C 1.08529 0.31603 0.38571
 C3529 C 1.08409 0.31845 0.40494
 C3530 C 1.09221 0.30497 0.41728
 C3531 C 1.08988 0.30783 0.43669
 C3532 C 1.08058 0.32376 0.44341
 C3533 C 1.07327 0.33737 0.43111
 C3534 C 1.07494 0.33448 0.41186
 H3535 H 1.10278 0.27378 0.35308
 H3536 H 1.13721 0.23169 0.39694
 H3537 H 1.11781 0.24620 0.34172
 H3538 H 1.12898 0.25139 0.42307
 H3539 H 1.11326 0.27789 0.43610
 H3540 H 1.09449 0.29971 0.36331
 H3541 H 1.07925 0.32638 0.37621
 H3542 H 1.09482 0.29791 0.44706
 H3543 H 1.07908 0.32540 0.45835
 H3544 H 1.06949 0.34497 0.40218
 C3545 C 0.60619 0.76716 0.36314
 C3546 C 0.60680 0.77176 0.38233
 C3547 C 0.61665 0.75933 0.39455
 C3548 C 0.62601 0.74340 0.38756
 C3549 C 0.62520 0.73912 0.36853
 C3550 C 0.61518 0.75110 0.35645
 C3551 C 0.61694 0.76271 0.41369
 C3552 C 0.60728 0.77794 0.42113
 C3553 C 0.59727 0.79074 0.40959
 C3554 C 0.59772 0.78805 0.38981
 C3555 C 0.58942 0.80191 0.37816
 C3556 C 0.58065 0.81767 0.38554
 C3557 C 0.57934 0.82007 0.40477
 C3558 C 0.58725 0.80647 0.41712
 C3559 C 0.58466 0.80915 0.43651
 C3560 C 0.57552 0.82514 0.44324
 C3561 C 0.56865 0.83902 0.43098
 C3562 C 0.57036 0.83620 0.41172
 H3563 H 0.59849 0.77538 0.35295
 H3564 H 0.63346 0.73400 0.39707
 H3565 H 0.61431 0.74810 0.34166
 H3566 H 0.62455 0.75334 0.42309
 H3567 H 0.60838 0.77959 0.43604
 H3568 H 0.58994 0.80132 0.36316
 H3569 H 0.57472 0.82808 0.37603
 H3570 H 0.58929 0.79906 0.44685
 H3571 H 0.57387 0.82666 0.45819
 H3572 H 0.56518 0.84684 0.40206
 C3573 C 0.59225 0.25128 0.87655
 C3574 C 0.60179 0.26468 0.88767
 C3575 C 0.62157 0.26242 0.89020
 C3576 C 0.63107 0.24691 0.88255
 C3577 C 0.62133 0.23371 0.87178
 C3578 C 0.60191 0.23613 0.86874
 C3579 C 0.63184 0.27566 0.90027
 C3580 C 0.62300 0.29135 0.90771
 C3581 C 0.60333 0.29424 0.90570
 C3582 C 0.59245 0.28033 0.89614
 C3583 C 0.57257 0.28230 0.89572
 C3584 C 0.56364 0.29748 0.90404
 C3585 C 0.57410 0.31156 0.91271
 C3586 C 0.59411 0.31037 0.91335
 C3587 C 0.60407 0.32554 0.92143
 C3588 C 0.59450 0.34075 0.92919
 C3589 C 0.57470 0.34144 0.92927
 C3590 C 0.56459 0.32684 0.92080
 H3591 H 0.57740 0.25225 0.87329
 H3592 H 0.64618 0.24536 0.88466
 H3593 H 0.59403 0.22616 0.86041
 H3594 H 0.64695 0.27396 0.90232
 H3595 H 0.63199 0.30073 0.91545
 H3596 H 0.56338 0.27202 0.88948
 H3597 H 0.54833 0.29827 0.90356
 H3598 H 0.61927 0.32634 0.92164
 H3599 H 0.60272 0.35218 0.93496
 H3600 H 0.54927 0.32724 0.92069
 C3601 C 0.86232 0.76266 1.10411
 C3602 C 0.88166 0.76758 1.10560
 C3603 C 0.89379 0.75509 1.11552
 C3604 C 0.88659 0.73889 1.12414
 C3605 C 0.86738 0.73445 1.12281
 C3606 C 0.85538 0.74635 1.11255
 C3607 C 0.91308 0.75879 1.11682
 C3608 C 0.92077 0.77451 1.10825
 C3609 C 0.90936 0.78745 1.09826
 C3610 C 0.88939 0.78431 1.09751
 C3611 C 0.87779 0.79819 1.08908
 C3612 C 0.88541 0.81446 1.08145
 C3613 C 0.90489 0.81734 1.08142
 C3614 C 0.91720 0.80372 1.08943
 C3615 C 0.93690 0.80692 1.08812
 C3616 C 0.94391 0.82330 1.07993
 C3617 C 0.93164 0.83711 1.07281
 C3618 C 0.91211 0.83391 1.07348
 H3619 H 0.85220 0.77093 1.09630
 H3620 H 0.89611 0.72956 1.13169
 H3621 H 0.84046 0.74322 1.11122
 H3622 H 0.92238 0.74935 1.12451
 H3623 H 0.93575 0.77640 1.11021
 H3624 H 0.86261 0.79719 1.08862
 H3625 H 0.87592 0.82485 1.07538
 H3626 H 0.94731 0.79691 1.09294
 H3627 H 0.95908 0.82509 1.07908
 H3628 H 0.90240 0.84449 1.06812
 C3629 C 0.86394 0.26555 0.61137
 C3630 C 0.88355 0.26916 0.61024
 C3631 C 0.89604 0.25610 0.61898
 C3632 C 0.88896 0.24026 0.62855
 C3633 C 0.86946 0.23692 0.62931
 C3634 C 0.85713 0.24979 0.62070
 C3635 C 0.91551 0.25883 0.61797
 C3636 C 0.92296 0.27402 0.60821
 C3637 C 0.91116 0.28734 0.59915
 C3638 C 0.89111 0.28512 0.60060
 C3639 C 0.87928 0.29904 0.59253
 C3640 C 0.88665 0.31445 0.58319
 C3641 C 0.90609 0.31660 0.58125
 C3642 C 0.91868 0.30301 0.58895
 C3643 C 0.93828 0.30574 0.58605
 C3644 C 0.94494 0.32166 0.57667
 C3645 C 0.93240 0.33534 0.56976
 C3646 C 0.91296 0.33252 0.57186
 H3647 H 0.85337 0.27443 0.60497
 H3648 H 0.89866 0.23031 0.63500
 H3649 H 0.84199 0.24777 0.62117
 H3650 H 0.92516 0.24901 0.62473
 H3651 H 0.93814 0.27509 0.60830
 H3652 H 0.86411 0.29871 0.59343
 H3653 H 0.87698 0.32483 0.57740
 H3654 H 0.94886 0.29587 0.59078
 H3655 H 0.96005 0.32331 0.57489
 H3656 H 0.90312 0.34309 0.56669
 C3657 C 0.36205 0.76615 0.60614
 C3658 C 0.38157 0.77047 0.60635
 C3659 C 0.39390 0.75798 0.61604
 C3660 C 0.38675 0.74222 0.62553
 C3661 C 0.36741 0.73820 0.62508
 C3662 C 0.35518 0.75028 0.61531
 C3663 C 0.41333 0.76114 0.61606
 C3664 C 0.42093 0.77621 0.60630
 C3665 C 0.40929 0.78904 0.59641
 C3666 C 0.38924 0.78655 0.59707
 C3667 C 0.37752 0.80040 0.58875
 C3668 C 0.38507 0.81601 0.57988
 C3669 C 0.40456 0.81827 0.57852
 C3670 C 0.41699 0.80463 0.58634
 C3671 C 0.43664 0.80719 0.58369
 C3672 C 0.44354 0.82319 0.57471
 C3673 C 0.43118 0.83713 0.56801
 C3674 C 0.41167 0.83436 0.56964
 H3675 H 0.35172 0.77443 0.59864
 H3676 H 0.39637 0.73276 0.63280
 H3677 H 0.34015 0.74750 0.61474
 H3678 H 0.42282 0.75173 0.62356
 H3679 H 0.43605 0.77771 0.60722
 H3680 H 0.36233 0.79993 0.58933
 H3681 H 0.37551 0.82644 0.57398
 H3682 H 0.44705 0.79705 0.58824
 H3683 H 0.45867 0.82473 0.57312
 H3684 H 0.40195 0.84507 0.56457
 C3685 C 0.40805 0.25160 1.12671
 C3686 C 0.39843 0.26527 1.11574
 C3687 C 0.37868 0.26300 1.11315
 C3688 C 0.36929 0.24733 1.12061
 C3689 C 0.37909 0.23379 1.13115
 C3690 C 0.39849 0.23619 1.13429
 C3691 C 0.36831 0.27637 1.10311
 C3692 C 0.37701 0.29217 1.09573
 C3693 C 0.39663 0.29514 1.09782
 C3694 C 0.40764 0.28114 1.10741
 C3695 C 0.42748 0.28328 1.10797
 C3696 C 0.43626 0.29863 1.09966
 C3697 C 0.42567 0.31274 1.09090
 C3698 C 0.40568 0.31142 1.09022
 C3699 C 0.39555 0.32662 1.08212
 C3700 C 0.40492 0.34199 1.07438
 C3701 C 0.42471 0.34284 1.07429
 C3702 C 0.43500 0.32819 1.08279
 H3703 H 0.42290 0.25250 1.12996
 H3704 H 0.35420 0.24587 1.11841
 H3705 H 0.40643 0.22600 1.14245
 H3706 H 0.35323 0.27463 1.10097
 H3707 H 0.36795 0.30159 1.08795
 H3708 H 0.43675 0.27303 1.11433
 H3709 H 0.45155 0.29952 1.10024
 H3710 H 0.38034 0.32734 1.08189
 H3711 H 0.39652 0.35342 1.06865
 H3712 H 0.45031 0.32867 1.08293
 C3713 C 1.09446 1.12699 0.75253
 C3714 C 1.10300 1.11354 0.76444
 C3715 C 1.12203 1.10844 0.76088
 C3716 C 1.13159 1.11575 0.74525
 C3717 C 1.12286 1.12910 0.73346
 C3718 C 1.10423 1.13465 0.73750
 C3719 C 1.13150 1.09625 0.77308
 C3720 C 1.12266 1.08940 0.78901
 C3721 C 1.10366 1.09394 0.79302
 C3722 C 1.09339 1.10537 0.77999
 C3723 C 1.07377 1.10788 0.78267
 C3724 C 1.06458 1.09996 0.79787
 C3725 C 1.07462 1.08975 0.81132
 C3726 C 1.09439 1.08699 0.80935
 C3727 C 1.10411 1.07767 0.82401
 C3728 C 1.09444 1.07063 0.83944
 C3729 C 1.07472 1.07236 0.84079
 C3730 C 1.06495 1.08220 0.82672
 H3731 H 1.08039 1.13235 0.75473
 H3732 H 1.14608 1.11151 0.74276
 H3733 H 1.09673 1.14477 0.72890
 H3734 H 1.14603 1.09219 0.77046
 H3735 H 1.13094 1.07999 0.79765
 H3736 H 1.06491 1.11538 0.77286
 H3737 H 1.04946 1.10203 0.79920
 H3738 H 1.11926 1.07603 0.82421
 H3739 H 1.10256 1.06391 0.85047
 H3740 H 1.04974 1.08379 0.82757
 C3741 C 1.13707 0.60354 0.26303
 C3742 C 1.11830 0.60651 0.26899
 C3743 C 1.10671 0.61872 0.25816
 C3744 C 1.11414 0.62841 0.24271
 C3745 C 1.13286 0.62533 0.23695
 C3746 C 1.14409 0.61263 0.24727
 C3747 C 1.08767 0.62099 0.26264
 C3748 C 1.07974 0.61102 0.27737
 C3749 C 1.09079 0.59891 0.28871
 C3750 C 1.11058 0.59745 0.28506
 C3751 C 1.12209 0.58743 0.29787
 C3752 C 1.11446 0.57872 0.31347
 C3753 C 1.09504 0.57907 0.31660
 C3754 C 1.08284 0.58869 0.30399
 C3755 C 1.06316 0.58748 0.30713
 C3756 C 1.05607 0.57803 0.32270
 C3757 C 1.06829 0.56962 0.33581
 C3758 C 1.08780 0.57000 0.33245
 H3759 H 1.14654 0.59380 0.26990
 H3760 H 1.10497 0.63773 0.23476
 H3761 H 1.15860 0.60980 0.24349
 H3762 H 1.07871 0.63034 0.25447
 H3763 H 1.06497 0.61364 0.27996
 H3764 H 1.13724 0.58668 0.29662
 H3765 H 1.12389 0.57149 0.32312
 H3766 H 1.05286 0.59338 0.29760
 H3767 H 1.04090 0.57736 0.32448
 H3768 H 1.09750 0.56366 0.34243
 C3769 C 0.62222 1.09509 0.25151
 C3770 C 0.61030 1.10451 0.26416
 C3771 C 0.60688 1.12395 0.26104
 C3772 C 0.61440 1.13318 0.24526
 C3773 C 0.62629 1.12358 0.23280
 C3774 C 0.63006 1.10443 0.23631
 C3775 C 0.59619 1.13413 0.27384
 C3776 C 0.58927 1.12558 0.28993
 C3777 C 0.59223 1.10623 0.29356
 C3778 C 0.60208 1.09535 0.27998
 C3779 C 0.60305 1.07563 0.28244
 C3780 C 0.59519 1.06689 0.29793
 C3781 C 0.58654 1.07740 0.31187
 C3782 C 0.58527 1.09726 0.31011
 C3783 C 0.57739 1.10732 0.32517
 C3784 C 0.57043 1.09797 0.34087
 C3785 C 0.57081 1.07825 0.34213
 C3786 C 0.57910 1.06809 0.32756
 H3787 H 0.62628 1.08056 0.25325
 H3788 H 0.61150 1.14801 0.24317
 H3789 H 0.63895 1.09624 0.22719
 H3790 H 0.59339 1.14897 0.27157
 H3791 H 0.58110 1.13444 0.29903
 H3792 H 0.60928 1.06641 0.27229
 H3793 H 0.59611 1.05169 0.29909
 H3794 H 0.57684 1.12247 0.32548
 H3795 H 0.56489 1.10634 0.35220
 H3796 H 0.57957 1.05286 0.32826
 C3797 C 0.59239 0.62599 0.74928
 C3798 C 0.60208 0.61480 0.76270
 C3799 C 0.62179 0.61212 0.76027
 C3800 C 0.63103 0.61959 0.74462
 C3801 C 0.62112 0.63022 0.73126
 C3802 C 0.60181 0.63357 0.73389
 C3803 C 0.63225 0.60196 0.77343
 C3804 C 0.62369 0.59449 0.78917
 C3805 C 0.60409 0.59658 0.79223
 C3806 C 0.59299 0.60631 0.77846
 C3807 C 0.57317 0.60680 0.78066
 C3808 C 0.56449 0.59828 0.79585
 C3809 C 0.57518 0.58940 0.80976
 C3810 C 0.59516 0.58880 0.80839
 C3811 C 0.60539 0.58061 0.82341
 C3812 C 0.59611 0.57274 0.83868
 C3813 C 0.57632 0.57256 0.83959
 C3814 C 0.56596 0.58110 0.82507
 H3815 H 0.57758 0.62937 0.75038
 H3816 H 0.64608 0.61727 0.74298
 H3817 H 0.59382 0.64186 0.72385
 H3818 H 0.64731 0.59978 0.77158
 H3819 H 0.63280 0.58660 0.79842
 H3820 H 0.56383 0.61324 0.77054
 H3821 H 0.54920 0.59879 0.79680
 H3822 H 0.62060 0.58047 0.82406
 H3823 H 0.60459 0.56701 0.85000
 H3824 H 0.55065 0.58115 0.82555
 C3825 C 0.90708 0.87442 0.75252
 C3826 C 0.89724 0.88546 0.76573
 C3827 C 0.87750 0.88794 0.76305
 C3828 C 0.86832 0.88021 0.74745
 C3829 C 0.87835 0.86954 0.73442
 C3830 C 0.89775 0.86663 0.73720
 C3831 C 0.86696 0.89808 0.77596
 C3832 C 0.87546 0.90562 0.79171
 C3833 C 0.89506 0.90359 0.79508
 C3834 C 0.90623 0.89392 0.78154
 C3835 C 0.92604 0.89333 0.78408
 C3836 C 0.93463 0.90157 0.79946
 C3837 C 0.92387 0.91035 0.81315
 C3838 C 0.90391 0.91124 0.81136
 C3839 C 0.89364 0.91954 0.82610
 C3840 C 0.90287 0.92709 0.84158
 C3841 C 0.92264 0.92676 0.84297
 C3842 C 0.93304 0.91825 0.82869
 H3843 H 0.92193 0.87126 0.75373
 H3844 H 0.85324 0.88227 0.74567
 H3845 H 0.90590 0.85843 0.72740
 H3846 H 0.85190 0.90013 0.77392
 H3847 H 0.86627 0.91341 0.80080
 H3848 H 0.93546 0.88697 0.77417
 H3849 H 0.94990 0.90090 0.80071
 H3850 H 0.87843 0.92007 0.82637
 H3851 H 0.89439 0.93296 0.85268
 H3852 H 0.94834 0.91789 0.82956
 C3853 C 0.87407 0.40395 0.24880
 C3854 C 0.88686 0.39502 0.26121
 C3855 C 0.89167 0.37599 0.25764
 C3856 C 0.88473 0.36681 0.24165
 C3857 C 0.87207 0.37591 0.22936
 C3858 C 0.86677 0.39455 0.23334
 C3859 C 0.90324 0.36615 0.27016
 C3860 C 0.90979 0.37462 0.28639
 C3861 C 0.90555 0.39359 0.29046
 C3862 C 0.89471 0.40421 0.27719
 C3863 C 0.89249 0.42374 0.28008
 C3864 C 0.90025 0.43253 0.29560
 C3865 C 0.90996 0.42217 0.30920
 C3866 C 0.91229 0.40247 0.30709
 C3867 C 0.92101 0.39242 0.32189
 C3868 C 0.92795 0.40171 0.33759
 C3869 C 0.92675 0.42136 0.33910
 C3870 C 0.91743 0.43146 0.32488
 H3871 H 0.86897 0.41808 0.25091
 H3872 H 0.88876 0.35231 0.23924
 H3873 H 0.85712 0.40227 0.22439
 H3874 H 0.90707 0.35163 0.26753
 H3875 H 0.91876 0.36607 0.29522
 H3876 H 0.88536 0.43282 0.27020
 H3877 H 0.89846 0.44760 0.29706
 H3878 H 0.92224 0.37731 0.32200
 H3879 H 0.93419 0.39332 0.34869
 H3880 H 0.91622 0.44663 0.32582
 C3881 C 0.40776 0.87517 0.25405
 C3882 C 0.39834 0.88812 0.26570
 C3883 C 0.37908 0.89205 0.26181
 C3884 C 0.37016 0.88431 0.24609
 C3885 C 0.37979 0.87179 0.23435
 C3886 C 0.39860 0.86710 0.23879
 C3887 C 0.36874 0.90365 0.27365
 C3888 C 0.37699 0.91116 0.28955
 C3889 C 0.39621 0.90789 0.29389
 C3890 C 0.40729 0.89700 0.28125
 C3891 C 0.42700 0.89581 0.28426
 C3892 C 0.43553 0.90457 0.29937
 C3893 C 0.42474 0.91423 0.31245
 C3894 C 0.40486 0.91561 0.31018
 C3895 C 0.39443 0.92436 0.32453
 C3896 C 0.40347 0.93198 0.34006
 C3897 C 0.42322 0.93144 0.34180
 C3898 C 0.43374 0.92246 0.32787
 H3899 H 0.42209 0.87062 0.25661
 H3900 H 0.35547 0.88777 0.24344
 H3901 H 0.40663 0.85742 0.23032
 H3902 H 0.35400 0.90678 0.27071
 H3903 H 0.36806 0.92010 0.29785
 H3904 H 0.43636 0.88875 0.27475
 H3905 H 0.45075 0.90352 0.30098
 H3906 H 0.37921 0.92497 0.32449
 H3907 H 0.39483 0.93803 0.35094
 H3908 H 0.44902 0.92190 0.32894
 C3909 C 0.40978 0.37275 0.75140
 C3910 C 0.39995 0.38383 0.76460
 C3911 C 0.38026 0.38646 0.76181
 C3912 C 0.37117 0.37908 0.74604
 C3913 C 0.38121 0.36859 0.73288
 C3914 C 0.40050 0.36525 0.73585
 C3915 C 0.36965 0.39654 0.77470
 C3916 C 0.37807 0.40400 0.79052
 C3917 C 0.39764 0.40197 0.79394
 C3918 C 0.40888 0.39227 0.78047
 C3919 C 0.42868 0.39178 0.78307
 C3920 C 0.43721 0.40033 0.79833
 C3921 C 0.42639 0.40924 0.81191
 C3922 C 0.40642 0.40979 0.81016
 C3923 C 0.39604 0.41803 0.82486
 C3924 C 0.40516 0.42603 0.84015
 C3925 C 0.42493 0.42627 0.84141
 C3926 C 0.43545 0.41763 0.82726
 H3927 H 0.42459 0.36940 0.75276
 H3928 H 0.35613 0.38135 0.74415
 H3929 H 0.40857 0.35704 0.72598
 H3930 H 0.35461 0.39867 0.77257
 H3931 H 0.36884 0.41183 0.79953
 H3932 H 0.43812 0.38533 0.77321
 H3933 H 0.45249 0.39983 0.79958
 H3934 H 0.38082 0.41815 0.82524
 H3935 H 0.39658 0.43186 0.85120
 H3936 H 0.45076 0.41761 0.82806
 C3937 C 1.10369 0.86197 1.23844
 C3938 C 1.10582 0.88100 1.23286
 C3939 C 1.11611 0.89304 1.24489
 C3940 C 1.12453 0.88600 1.26127
 C3941 C 1.12263 0.86705 1.26635
 C3942 C 1.11193 0.85519 1.25493
 C3943 C 1.11801 0.91206 1.24056
 C3944 C 1.10971 0.91961 1.22461
 C3945 C 1.09942 0.90826 1.21206
 C3946 C 1.09802 0.88852 1.21590
 C3947 C 1.08931 0.87691 1.20246
 C3948 C 1.08196 0.88432 1.18598
 C3949 C 1.08253 0.90360 1.18240
 C3950 C 1.09089 0.91593 1.19552
 C3951 C 1.09021 0.93547 1.19158
 C3952 C 1.08221 0.94229 1.17501
 C3953 C 1.07465 0.92996 1.16176
 C3954 C 1.07480 0.91059 1.16565
 H3955 H 1.09552 0.85199 1.23055
 H3956 H 1.13241 0.89544 1.27022
 H3957 H 1.11014 0.84050 1.25858
 H3958 H 1.12597 0.92129 1.24966
 H3959 H 1.11211 0.93438 1.22224
 H3960 H 1.08839 0.86187 1.20400
 H3961 H 1.07563 0.87481 1.17596
 H3962 H 1.09537 0.94593 1.20114
 H3963 H 1.08179 0.95735 1.17268
 H3964 H 1.06915 0.90084 1.15549
 C3965 C 1.09246 0.37560 0.75125
 C3966 C 1.10204 0.38633 0.73755
 C3967 C 1.12171 0.38923 0.74016
 C3968 C 1.13106 0.38220 0.75614
 C3969 C 1.12129 0.37175 0.76961
 C3970 C 1.10196 0.36844 0.76691
 C3971 C 1.13203 0.39907 0.72680
 C3972 C 1.12338 0.40594 0.71070
 C3973 C 1.10383 0.40353 0.70740
 C3974 C 1.09287 0.39409 0.72132
 C3975 C 1.07309 0.39306 0.71872
 C3976 C 1.06431 0.40082 0.70306
 C3977 C 1.07485 0.40952 0.68908
 C3978 C 1.09479 0.41066 0.69084
 C3979 C 1.10488 0.41876 0.67581
 C3980 C 1.09548 0.42608 0.66020
 C3981 C 1.07569 0.42575 0.65890
 C3982 C 1.06549 0.41717 0.67337
 H3983 H 1.07768 0.37218 0.75017
 H3984 H 1.14609 0.38458 0.75787
 H3985 H 1.09401 0.36039 0.77703
 H3986 H 1.14704 0.40143 0.72875
 H3987 H 1.13241 0.41357 0.70128
 H3988 H 1.06382 0.38673 0.72883
 H3989 H 1.04906 0.39988 0.70183
 H3990 H 1.12008 0.41936 0.67547
 H3991 H 1.10386 0.43189 0.64897
 H3992 H 1.05019 0.41671 0.67257
 C3993 C 0.62147 0.90556 0.75350
 C3994 C 0.61097 0.89585 0.73975
 C3995 C 0.60878 0.87612 0.74199
 C3996 C 0.61639 0.86677 0.75768
 C3997 C 0.62687 0.87666 0.77099
 C3998 C 0.62929 0.89607 0.76876
 C3999 C 0.59926 0.86577 0.72844
 C4000 C 0.59231 0.87442 0.71239
 C4001 C 0.59424 0.89399 0.70942
 C4002 C 0.60297 0.90499 0.72371
 C4003 C 0.60319 0.92476 0.72160
 C4004 C 0.59560 0.93348 0.70589
 C4005 C 0.58787 0.92291 0.69144
 C4006 C 0.58737 0.90299 0.69281
 C4007 C 0.58023 0.89292 0.67734
 C4008 C 0.57320 0.90230 0.66163
 C4009 C 0.57295 0.92200 0.66073
 C4010 C 0.58055 0.93221 0.67563
 H4011 H 0.62440 0.92039 0.75268
 H4012 H 0.61471 0.85168 0.75917
 H4013 H 0.63731 0.90406 0.77888
 H4014 H 0.59740 0.85072 0.73012
 H4015 H 0.58504 0.86538 0.70272
 H4016 H 0.60872 0.93404 0.73212
 H4017 H 0.59593 0.94871 0.70498
 H4018 H 0.58022 0.87779 0.67672
 H4019 H 0.56804 0.89403 0.65002
 H4020 H 0.58050 0.94746 0.67506
 C4021 C 0.60541 0.36441 1.23709
 C4022 C 0.60862 0.38298 1.23082
 C4023 C 0.62044 0.39459 1.24186
 C4024 C 0.62950 0.38735 1.25794
 C4025 C 0.62607 0.36885 1.26406
 C4026 C 0.61382 0.35761 1.25340
 C4027 C 0.62286 0.41346 1.23697
 C4028 C 0.61332 0.42121 1.22171
 C4029 C 0.60153 0.41013 1.21023
 C4030 C 0.60006 0.39048 1.21426
 C4031 C 0.59044 0.37890 1.20139
 C4032 C 0.58198 0.38634 1.18546
 C4033 C 0.58219 0.40565 1.18200
 C4034 C 0.59156 0.41790 1.19454
 C4035 C 0.59030 0.43746 1.19097
 C4036 C 0.58087 0.44437 1.17517
 C4037 C 0.57256 0.43212 1.16222
 C4038 C 0.57316 0.41272 1.16591
 H4039 H 0.59593 0.35493 1.23006
 H4040 H 0.63855 0.39650 1.26607
 H4041 H 0.61079 0.34323 1.25732
 H4042 H 0.63193 0.42245 1.24525
 H4043 H 0.61597 0.43587 1.21887
 H4044 H 0.58980 0.36383 1.20289
 H4045 H 0.57499 0.37687 1.17585
 H4046 H 0.59606 0.44779 1.20035
 H4047 H 0.58007 0.45946 1.17315
 H4048 H 0.56693 0.40299 1.15607
 C4049 C 0.88067 1.09317 1.25167
 C4050 C 0.89137 1.10288 1.23808
 C4051 C 0.89372 1.12257 1.24037
 C4052 C 0.88594 1.13188 1.25588
 C4053 C 0.87526 1.12198 1.26909
 C4054 C 0.87280 1.10258 1.26680
 C4055 C 0.90363 1.13291 1.22706
 C4056 C 0.91092 1.12429 1.21127
 C4057 C 0.90886 1.10477 1.20825
 C4058 C 0.89954 1.09379 1.22221
 C4059 C 0.89889 1.07405 1.21996
 C4060 C 0.90677 1.06536 1.20452
 C4061 C 0.91524 1.07592 1.19043
 C4062 C 0.91613 1.09579 1.19189
 C4063 C 0.92403 1.10585 1.17673
 C4064 C 0.93127 1.09650 1.16123
 C4065 C 0.93109 1.07679 1.16020
 C4066 C 0.92286 1.06662 1.17487
 H4067 H 0.87772 1.07835 1.25089
 H4068 H 0.88776 1.14693 1.25738
 H4069 H 0.86475 1.09447 1.27679
 H4070 H 0.90563 1.14792 1.22878
 H4071 H 0.91851 1.13333 1.20183
 H4072 H 0.89272 1.06476 1.23014
 H4073 H 0.90606 1.05017 1.20353
 H4074 H 0.92448 1.12099 1.17620
 H4075 H 0.93684 1.10486 1.14984
 H4076 H 0.92257 1.05139 1.17434
 C4077 C 0.90688 0.62290 0.74709
 C4078 C 0.89714 0.61226 0.73345
 C4079 C 0.87740 0.60976 0.73584
 C4080 C 0.86812 0.61714 0.75153
 C4081 C 0.87805 0.62754 0.76493
 C4082 C 0.89746 0.63039 0.76246
 C4083 C 0.86697 0.59995 0.72254
 C4084 C 0.87555 0.59277 0.70670
 C4085 C 0.89514 0.59484 0.70360
 C4086 C 0.90622 0.60421 0.71750
 C4087 C 0.92603 0.60492 0.71512
 C4088 C 0.93470 0.59699 0.69966
 C4089 C 0.92405 0.58841 0.68569
 C4090 C 0.90409 0.58750 0.68726
 C4091 C 0.89391 0.57945 0.67225
 C4092 C 0.90322 0.57204 0.65680
 C4093 C 0.92300 0.57224 0.65564
 C4094 C 0.93331 0.58067 0.67014
 H4095 H 0.92174 0.62599 0.74619
 H4096 H 0.85304 0.61507 0.75309
 H4097 H 0.90556 0.63833 0.77256
 H4098 H 0.85190 0.59787 0.72434
 H4099 H 0.86642 0.58522 0.69731
 H4100 H 0.93538 0.61115 0.72524
 H4101 H 0.94996 0.59772 0.69858
 H4102 H 0.87871 0.57896 0.67178
 H4103 H 0.89478 0.56630 0.64554
 H4104 H 0.94861 0.58100 0.66947
 C4105 C 0.40572 1.12200 0.75213
 C4106 C 0.39612 1.11139 0.73841
 C4107 C 0.37631 1.10905 0.74045
 C4108 C 0.36680 1.11663 0.75592
 C4109 C 0.37661 1.12713 0.76931
 C4110 C 0.39610 1.12970 0.76722
 C4111 C 0.36605 1.09930 0.72696
 C4112 C 0.37488 1.09217 0.71122
 C4113 C 0.39454 1.09418 0.70848
 C4114 C 0.40544 1.10330 0.72265
 C4115 C 0.42530 1.10376 0.72074
 C4116 C 0.43422 1.09588 0.70542
 C4117 C 0.42375 1.08764 0.69112
 C4118 C 0.40375 1.08701 0.69222
 C4119 C 0.39379 1.07942 0.67684
 C4120 C 0.40336 1.07211 0.66151
 C4121 C 0.42318 1.07192 0.66090
 C4122 C 0.43326 1.07996 0.67573
 H4123 H 0.42061 1.12500 0.75148
 H4124 H 0.35166 1.11477 0.75726
 H4125 H 0.40411 1.13767 0.77736
 H4126 H 0.35095 1.09731 0.72849
 H4127 H 0.36591 1.08467 0.70163
 H4128 H 0.43453 1.10971 0.73113
 H4129 H 0.44951 1.09640 0.70469
 H4130 H 0.37858 1.07927 0.67601
 H4131 H 0.39510 1.06672 0.64995
 H4132 H 0.44858 1.07999 0.67547
 C4133 C 0.40683 0.62239 1.25270
 C4134 C 0.39722 0.61288 1.23821
 C4135 C 0.37734 0.61081 1.23988
 C4136 C 0.36774 0.61774 1.25563
 C4137 C 0.37755 0.62724 1.26976
 C4138 C 0.39716 0.62939 1.26809
 C4139 C 0.36711 0.60196 1.22577
 C4140 C 0.37604 0.59543 1.20982
 C4141 C 0.39577 0.59726 1.20739
 C4142 C 0.40661 0.60558 1.22209
 C4143 C 0.42650 0.60609 1.22028
 C4144 C 0.43549 0.59893 1.20464
 C4145 C 0.42511 0.59131 1.18995
 C4146 C 0.40508 0.59068 1.19092
 C4147 C 0.39522 0.58362 1.17523
 C4148 C 0.40488 0.57671 1.15977
 C4149 C 0.42470 0.57648 1.15927
 C4150 C 0.43471 0.58416 1.17433
 H4151 H 0.42181 0.62499 1.25251
 H4152 H 0.35255 0.61612 1.25665
 H4153 H 0.40523 0.63649 1.27880
 H4154 H 0.35196 0.60016 1.22701
 H4155 H 0.36705 0.58860 1.19977
 H4156 H 0.43569 0.61159 1.23094
 H4157 H 0.45079 0.59946 1.20402
 H4158 H 0.38002 0.58345 1.17430
 H4159 H 0.39670 0.57154 1.14805
 H4160 H 0.45004 0.58418 1.17410
 C4161 C 1.13727 1.23662 0.89434
 C4162 C 1.11829 1.23094 0.89208
 C4163 C 1.10627 1.24248 0.88099
 C4164 C 1.11339 1.25846 0.87179
 C4165 C 1.13233 1.26394 0.87413
 C4166 C 1.14406 1.25281 0.88565
 C4167 C 1.08712 1.23815 0.87933
 C4168 C 1.07949 1.22292 0.88889
 C4169 C 1.09092 1.21097 0.90002
 C4170 C 1.11080 1.21446 0.90080
 C4171 C 1.12257 1.20113 0.90985
 C4172 C 1.11515 1.18520 0.91832
 C4173 C 1.09569 1.18221 0.91866
 C4174 C 1.08324 1.19528 0.90995
 C4175 C 1.06359 1.19218 0.91176
 C4176 C 1.05674 1.17626 0.92095
 C4177 C 1.06915 1.16277 0.92851
 C4178 C 1.08865 1.16604 0.92751
 H4179 H 1.14716 1.22917 0.90319
 H4180 H 1.10386 1.26693 0.86334
 H4181 H 1.15874 1.25630 0.88794
 H4182 H 1.07783 1.24681 0.87077
 H4183 H 1.06460 1.22049 0.88676
 H4184 H 1.13775 1.20225 0.91006
 H4185 H 1.12476 1.17520 0.92483
 H4186 H 1.05315 1.20199 0.90656
 H4187 H 1.04159 1.17451 0.92208
 H4188 H 1.09848 1.15576 0.93322
 C4189 C 1.13797 0.73734 0.39687
 C4190 C 1.11940 0.73089 0.39335
 C4191 C 1.10788 0.74176 0.38114
 C4192 C 1.11513 0.75773 0.37209
 C4193 C 1.13368 0.76392 0.37553
 C4194 C 1.14486 0.75359 0.38825
 C4195 C 1.08908 0.73674 0.37809
 C4196 C 1.08126 0.72138 0.38721
 C4197 C 1.09217 0.70998 0.39936
 C4198 C 1.11178 0.71425 0.40174
 C4199 C 1.12319 0.70150 0.41198
 C4200 C 1.11566 0.68528 0.41987
 C4201 C 1.09637 0.68148 0.41852
 C4202 C 1.08424 0.69405 0.40873
 C4203 C 1.06463 0.69027 0.40893
 C4204 C 1.05755 0.67419 0.41765
 C4205 C 1.06970 0.66114 0.42632
 C4206 C 1.08915 0.66507 0.42683
 H4207 H 1.14739 0.73041 0.40659
 H4208 H 1.10592 0.76560 0.36279
 H4209 H 1.15919 0.75778 0.39146
 H4210 H 1.08021 0.74493 0.36868
 H4211 H 1.06670 0.71838 0.38390
 H4212 H 1.13823 0.70330 0.41357
 H4213 H 1.12503 0.67571 0.42730
 H4214 H 1.05431 0.69971 0.40287
 H4215 H 1.04241 0.67206 0.41766
 H4216 H 1.09883 0.65519 0.43341
 C4217 C 0.59272 1.24565 0.37238
 C4218 C 0.60146 1.23419 0.38613
 C4219 C 0.62056 1.23796 0.39075
 C4220 C 0.62993 1.25345 0.38289
 C4221 C 0.62095 1.26503 0.36956
 C4222 C 0.60235 1.26064 0.36418
 C4223 C 0.63029 1.22622 0.40317
 C4224 C 0.62158 1.21055 0.41088
 C4225 C 0.60247 1.20640 0.40698
 C4226 C 0.59199 1.21896 0.39518
 C4227 C 0.57231 1.21622 0.39329
 C4228 C 0.56325 1.20147 0.40230
 C4229 C 0.57349 1.18844 0.41291
 C4230 C 0.59333 1.19040 0.41497
 C4231 C 0.60325 1.17604 0.42464
 C4232 C 0.59375 1.16083 0.43252
 C4233 C 0.57399 1.15946 0.43138
 C4234 C 0.56399 1.17338 0.42144
 H4235 H 0.57859 1.24313 0.36732
 H4236 H 0.64447 1.25605 0.38688
 H4237 H 0.59483 1.26899 0.35389
 H4238 H 0.64490 1.22903 0.40681
 H4239 H 0.63004 1.20233 0.42048
 H4240 H 0.56335 1.22573 0.38546
 H4241 H 0.54806 1.20010 0.40070
 H4242 H 0.61845 1.17580 0.42579
 H4243 H 0.60206 1.14991 0.43927
 H4244 H 0.54873 1.17259 0.42034
 C4245 C 0.63816 0.73709 0.89354
 C4246 C 0.61883 0.73220 0.89204
 C4247 C 0.60677 0.74457 0.88186
 C4248 C 0.61405 0.76076 0.87316
 C4249 C 0.63323 0.76531 0.87480
 C4250 C 0.64514 0.75334 0.88510
 C4251 C 0.58749 0.74082 0.88052
 C4252 C 0.57973 0.72526 0.88939
 C4253 C 0.59108 0.71252 0.89973
 C4254 C 0.61104 0.71567 0.90048
 C4255 C 0.62260 0.70203 0.90936
 C4256 C 0.61495 0.68604 0.91750
 C4257 C 0.59548 0.68314 0.91754
 C4258 C 0.58319 0.69647 0.90898
 C4259 C 0.56350 0.69320 0.91019
 C4260 C 0.55649 0.67701 0.91879
 C4261 C 0.56876 0.66350 0.92650
 C4262 C 0.58827 0.66682 0.92598
 H4263 H 0.64825 0.72889 0.90145
 H4264 H 0.60462 0.77007 0.86547
 H4265 H 0.66004 0.75645 0.88660
 H4266 H 0.57822 0.75013 0.87264
 H4267 H 0.56475 0.72337 0.88747
 H4268 H 0.63777 0.70300 0.90985
 H4269 H 0.62441 0.67586 0.92395
 H4270 H 0.55310 0.70297 0.90489
 H4271 H 0.54133 0.67509 0.91946
 H4272 H 0.59795 0.65646 0.93178
 C4273 C 0.86469 1.23269 1.11208
 C4274 C 0.88423 1.22842 1.11188
 C4275 C 0.89662 1.24089 1.12134
 C4276 C 0.88952 1.25680 1.13068
 C4277 C 0.87015 1.26093 1.13033
 C4278 C 0.85788 1.24863 1.12109
 C4279 C 0.91606 1.23759 1.12116
 C4280 C 0.92360 1.22251 1.11138
 C4281 C 0.91191 1.20984 1.10153
 C4282 C 0.89186 1.21246 1.10237
 C4283 C 0.88011 1.19893 1.09381
 C4284 C 0.88761 1.18356 1.08454
 C4285 C 0.90709 1.18116 1.08302
 C4286 C 0.91956 1.19441 1.09118
 C4287 C 0.93919 1.19167 1.08847
 C4288 C 0.94601 1.17603 1.07888
 C4289 C 0.93363 1.16251 1.07164
 C4290 C 0.91413 1.16538 1.07355
 H4291 H 0.85424 1.22432 1.10502
 H4292 H 0.89917 1.26632 1.13763
 H4293 H 0.84282 1.25135 1.12070
 H4294 H 0.92561 1.24691 1.12851
 H4295 H 0.93873 1.22096 1.11212
 H4296 H 0.86492 1.19953 1.09434
 H4297 H 0.87800 1.17346 1.07838
 H4298 H 0.94966 1.20145 1.09339
 H4299 H 0.96114 1.17449 1.07716
 H4300 H 0.90435 1.15502 1.06811
 C4301 C 0.90627 0.74942 0.62027
 C4302 C 0.89640 0.73581 0.60970
 C4303 C 0.87654 0.73805 0.60775
 C4304 C 0.86724 0.75364 0.61560
 C4305 C 0.87732 0.76695 0.62597
 C4306 C 0.89686 0.76462 0.62824
 C4307 C 0.86602 0.72466 0.59811
 C4308 C 0.87467 0.70885 0.59062
 C4309 C 0.89438 0.70595 0.59215
 C4310 C 0.90550 0.71999 0.60127
 C4311 C 0.92538 0.71791 0.60138
 C4312 C 0.93409 0.70251 0.59322
 C4313 C 0.92344 0.68834 0.58495
 C4314 C 0.90342 0.68964 0.58455
 C4315 C 0.89331 0.67441 0.57675
 C4316 C 0.90272 0.65897 0.56919
 C4317 C 0.92253 0.65810 0.56898
 C4318 C 0.93277 0.67284 0.57704
 H4319 H 0.92123 0.74858 0.62301
 H4320 H 0.85207 0.75514 0.61401
 H4321 H 0.90506 0.77468 0.63614
 H4322 H 0.85086 0.72632 0.59646
 H4323 H 0.86548 0.69934 0.58327
 H4324 H 0.93474 0.72820 0.60731
 H4325 H 0.94940 0.70164 0.59352
 H4326 H 0.87810 0.67376 0.57662
 H4327 H 0.89437 0.64750 0.56369
 H4328 H 0.94809 0.67239 0.57700
 C4329 C 0.36359 1.23829 0.60487
 C4330 C 0.38231 1.23196 0.60803
 C4331 C 0.39401 1.24295 0.61977
 C4332 C 0.38681 1.25893 0.62874
 C4333 C 0.36810 1.26498 0.62569
 C4334 C 0.35672 1.25453 0.61342
 C4335 C 0.41293 1.23804 0.62245
 C4336 C 0.42069 1.22264 0.61341
 C4337 C 0.40960 1.21112 0.60172
 C4338 C 0.38990 1.21531 0.59973
 C4339 C 0.37836 1.20246 0.58996
 C4340 C 0.38587 1.18625 0.58215
 C4341 C 0.40521 1.18251 0.58313
 C4342 C 0.41745 1.19515 0.59245
 C4343 C 0.43709 1.19137 0.59192
 C4344 C 0.44409 1.17523 0.58334
 C4345 C 0.43184 1.16218 0.57510
 C4346 C 0.41237 1.16608 0.57492
 H4347 H 0.35400 1.23127 0.59550
 H4348 H 0.39616 1.26690 0.63769
 H4349 H 0.34225 1.25861 0.61052
 H4350 H 0.42194 1.24632 0.63150
 H4351 H 0.43535 1.21973 0.61641
 H4352 H 0.36327 1.20420 0.58871
 H4353 H 0.37641 1.17661 0.57509
 H4354 H 0.44747 1.20084 0.59763
 H4355 H 0.45924 1.17304 0.58309
 H4356 H 0.40263 1.15615 0.56869
 C4357 C 0.40793 0.75057 1.12409
 C4358 C 0.39852 0.73814 1.11190
 C4359 C 0.37908 0.74151 1.10823
 C4360 C 0.36988 0.75730 1.11579
 C4361 C 0.37948 0.76964 1.12781
 C4362 C 0.39860 0.76589 1.13187
 C4363 C 0.36887 0.72899 1.09718
 C4364 C 0.37741 0.71296 1.09001
 C4365 C 0.39677 0.70908 1.09314
 C4366 C 0.40767 0.72233 1.10354
 C4367 C 0.42742 0.71959 1.10491
 C4368 C 0.43617 0.70419 1.09682
 C4369 C 0.42562 0.69062 1.08749
 C4370 C 0.40572 0.69262 1.08584
 C4371 C 0.39562 0.67788 1.07718
 C4372 C 0.40499 0.66225 1.06995
 C4373 C 0.42475 0.66076 1.07087
 C4374 C 0.43494 0.67503 1.07980
 H4375 H 0.42244 0.74863 1.12833
 H4376 H 0.35505 0.75953 1.11265
 H4377 H 0.40674 0.77485 1.14099
 H4378 H 0.35402 0.73147 1.09423
 H4379 H 0.36852 0.70412 1.08153
 H4380 H 0.43668 0.72945 1.11168
 H4381 H 0.45139 0.70279 1.09807
 H4382 H 0.38041 0.67774 1.07621
 H4383 H 0.39660 0.65113 1.06383
 H4384 H 0.45022 0.67413 1.08064
 C4385 C 0.90560 0.74791 0.87909
 C4386 C 0.89580 0.76147 0.88977
 C4387 C 0.87601 0.75912 0.89189
 C4388 C 0.86671 0.74350 0.88404
 C4389 C 0.87671 0.73025 0.87351
 C4390 C 0.89620 0.73269 0.87114
 C4391 C 0.86556 0.77243 0.90171
 C4392 C 0.87418 0.78824 0.90924
 C4393 C 0.89384 0.79127 0.90755
 C4394 C 0.90491 0.77735 0.89817
 C4395 C 0.92474 0.77963 0.89774
 C4396 C 0.93345 0.79506 0.90585
 C4397 C 0.92284 0.80909 0.91442
 C4398 C 0.90286 0.80758 0.91519
 C4399 C 0.89278 0.82264 0.92338
 C4400 C 0.90218 0.83815 0.93086
 C4401 C 0.92198 0.83930 0.93060
 C4402 C 0.93217 0.82465 0.92224
 H4403 H 0.92051 0.74878 0.87628
 H4404 H 0.85159 0.74194 0.88576
 H4405 H 0.90437 0.72269 0.86316
 H4406 H 0.85045 0.77070 0.90348
 H4407 H 0.86503 0.79768 0.91669
 H4408 H 0.93409 0.76948 0.89154
 H4409 H 0.94873 0.79608 0.90526
 H4410 H 0.87757 0.82310 0.92391
 H4411 H 0.89381 0.84948 0.93662
 H4412 H 0.94748 0.82524 0.92195
 C4413 C 0.86215 0.26153 0.39115
 C4414 C 0.88149 0.26649 0.39028
 C4415 C 0.89375 0.25435 0.38032
 C4416 C 0.88668 0.23831 0.37120
 C4417 C 0.86748 0.23365 0.37228
 C4418 C 0.85537 0.24540 0.38237
 C4419 C 0.91306 0.25817 0.37964
 C4420 C 0.92062 0.27354 0.38894
 C4421 C 0.90905 0.28606 0.39908
 C4422 C 0.88908 0.28287 0.39917
 C4423 C 0.87735 0.29632 0.40785
 C4424 C 0.88482 0.31216 0.41640
 C4425 C 0.90428 0.31509 0.41708
 C4426 C 0.91674 0.30193 0.40876
 C4427 C 0.93639 0.30518 0.41063
 C4428 C 0.94322 0.32120 0.41960
 C4429 C 0.93083 0.33463 0.42702
 C4430 C 0.91133 0.33129 0.42590
 H4431 H 0.85189 0.26956 0.39884
 H4432 H 0.89625 0.22917 0.36369
 H4433 H 0.84046 0.24221 0.38344
 H4434 H 0.92251 0.24904 0.37195
 H4435 H 0.93563 0.27549 0.38752
 H4436 H 0.86217 0.29531 0.40788
 H4437 H 0.87521 0.32219 0.42266
 H4438 H 0.94690 0.29550 0.40557
 H4439 H 0.95838 0.32305 0.42075
 H4440 H 0.90152 0.34153 0.43149
 C4441 C 0.40568 0.75334 0.37346
 C4442 C 0.39655 0.76582 0.38581
 C4443 C 0.37721 0.76257 0.38970
 C4444 C 0.36785 0.74683 0.38229
 C4445 C 0.37720 0.73428 0.37032
 C4446 C 0.39617 0.73800 0.36586
 C4447 C 0.36724 0.77507 0.40094
 C4448 C 0.37590 0.79101 0.40807
 C4449 C 0.39516 0.79484 0.40468
 C4450 C 0.40587 0.78156 0.39415
 C4451 C 0.42560 0.78418 0.39271
 C4452 C 0.43449 0.79951 0.40087
 C4453 C 0.42407 0.81315 0.41025
 C4454 C 0.40419 0.81126 0.41190
 C4455 C 0.39413 0.82609 0.42045
 C4456 C 0.40352 0.84165 0.42771
 C4457 C 0.42329 0.84300 0.42698
 C4458 C 0.43345 0.82871 0.41801
 H4459 H 0.42008 0.75527 0.36904
 H4460 H 0.35313 0.74468 0.38572
 H4461 H 0.40404 0.72898 0.35660
 H4462 H 0.35248 0.77261 0.40411
 H4463 H 0.36722 0.79980 0.41677
 H4464 H 0.43473 0.77425 0.38585
 H4465 H 0.44970 0.80079 0.39962
 H4466 H 0.37893 0.82636 0.42128
 H4467 H 0.39514 0.85281 0.43376
 H4468 H 0.44872 0.82955 0.41722
 C4469 C 0.40725 0.25140 0.87832
 C4470 C 0.39753 0.26506 0.88895
 C4471 C 0.37773 0.26288 0.89110
 C4472 C 0.36837 0.24726 0.88352
 C4473 C 0.37828 0.23382 0.87319
 C4474 C 0.39774 0.23613 0.87058
 C4475 C 0.36731 0.27634 0.90072
 C4476 C 0.37600 0.29219 0.90799
 C4477 C 0.39567 0.29504 0.90627
 C4478 C 0.40672 0.28088 0.89726
 C4479 C 0.42659 0.28283 0.89720
 C4480 C 0.43535 0.29822 0.90531
 C4481 C 0.42473 0.31256 0.91338
 C4482 C 0.40472 0.31139 0.91365
 C4483 C 0.39460 0.32680 0.92108
 C4484 C 0.40400 0.34225 0.92855
 C4485 C 0.42380 0.34296 0.92902
 C4486 C 0.43407 0.32808 0.92121
 H4487 H 0.42213 0.25226 0.87538
 H4488 H 0.35324 0.24579 0.88532
 H4489 H 0.40577 0.22598 0.86263
 H4490 H 0.35220 0.27469 0.90253
 H4491 H 0.36691 0.30174 0.91539
 H4492 H 0.43589 0.27238 0.89141
 H4493 H 0.45066 0.29899 0.90511
 H4494 H 0.37939 0.32760 0.92095
 H4495 H 0.39564 0.35386 0.93379
 H4496 H 0.44939 0.32845 0.92141
 C4497 C 1.10407 0.75984 1.13735
 C4498 C 1.10733 0.76630 1.11896
 C4499 C 1.11908 0.75521 1.10740
 C4500 C 1.12810 0.73902 1.11450
 C4501 C 1.12492 0.73284 1.13290
 C4502 C 1.11255 0.74338 1.14407
 C4503 C 1.12165 0.76023 1.08873
 C4504 C 1.11239 0.77575 1.08111
 C4505 C 1.10071 0.78736 1.09212
 C4506 C 1.09902 0.78314 1.11157
 C4507 C 1.08954 0.79616 1.12307
 C4508 C 1.08157 0.81250 1.11574
 C4509 C 1.08204 0.81617 1.09660
 C4510 C 1.09114 0.80339 1.08444
 C4511 C 1.09002 0.80706 1.06504
 C4512 C 1.08105 0.82321 1.05818
 C4513 C 1.07309 0.83644 1.07033
 C4514 C 1.07353 0.83265 1.08959
 H4515 H 1.09459 0.76690 1.14675
 H4516 H 1.13712 0.73096 1.10534
 H4517 H 1.10955 0.73926 1.15830
 H4518 H 1.13070 0.75190 1.07981
 H4519 H 1.11524 0.77874 1.06663
 H4520 H 1.08869 0.79447 1.13801
 H4521 H 1.07473 0.82226 1.12515
 H4522 H 1.09551 0.79748 1.05478
 H4523 H 1.08029 0.82525 1.04320
 H4524 H 1.06755 0.84269 1.09926
 C4525 C 1.10272 0.26277 0.63541
 C4526 C 1.10605 0.26896 0.61695
 C4527 C 1.11791 0.25780 0.60558
 C4528 C 1.12697 0.24177 0.61292
 C4529 C 1.12365 0.23583 0.63136
 C4530 C 1.11124 0.24648 0.64237
 C4531 C 1.12050 0.26255 0.58685
 C4532 C 1.11111 0.27785 0.57898
 C4533 C 1.09930 0.28949 0.58981
 C4534 C 1.09764 0.28559 0.60933
 C4535 C 1.08808 0.29869 0.62066
 C4536 C 1.07991 0.31478 0.61310
 C4537 C 1.08034 0.31811 0.59392
 C4538 C 1.08958 0.30529 0.58192
 C4539 C 1.08848 0.30870 0.56247
 C4540 C 1.07940 0.32470 0.55542
 C4541 C 1.07129 0.33791 0.56746
 C4542 C 1.07169 0.33437 0.58673
 H4543 H 1.09313 0.26987 0.64467
 H4544 H 1.13605 0.23361 0.60391
 H4545 H 1.10818 0.24255 0.65664
 H4546 H 1.12964 0.25415 0.57808
 H4547 H 1.11394 0.28064 0.56446
 H4548 H 1.08730 0.29727 0.63562
 H4549 H 1.07299 0.32462 0.62237
 H4550 H 1.09411 0.29907 0.55232
 H4551 H 1.07874 0.32670 0.54043
 H4552 H 1.06561 0.34448 0.59626
 C4553 C 0.63895 0.76289 0.60395
 C4554 C 0.61960 0.76799 0.60495
 C4555 C 0.60738 0.75581 0.61491
 C4556 C 0.61447 0.73969 0.62398
 C4557 C 0.63368 0.73500 0.62301
 C4558 C 0.64578 0.74667 0.61280
 C4559 C 0.58809 0.75969 0.61577
 C4560 C 0.58048 0.77525 0.60667
 C4561 C 0.59198 0.78786 0.59656
 C4562 C 0.61195 0.78457 0.59628
 C4563 C 0.62362 0.79817 0.58771
 C4564 C 0.61606 0.81431 0.57956
 C4565 C 0.59659 0.81735 0.57912
 C4566 C 0.58421 0.80397 0.58719
 C4567 C 0.56454 0.80725 0.58543
 C4568 C 0.55759 0.82358 0.57695
 C4569 C 0.56990 0.83726 0.56992
 C4570 C 0.58943 0.83386 0.57080
 H4571 H 0.64914 0.77093 0.59618
 H4572 H 0.60487 0.73059 0.63151
 H4573 H 0.66069 0.74337 0.61174
 H4574 H 0.57870 0.75051 0.62350
 H4575 H 0.56549 0.77730 0.60831
 H4576 H 0.63880 0.79704 0.58755
 H4577 H 0.62560 0.82450 0.57344
 H4578 H 0.55409 0.79736 0.59021
 H4579 H 0.54242 0.82550 0.57590
 H4580 H 0.59915 0.84431 0.56543
 C4581 C 0.62480 0.24910 1.09710
 C4582 C 0.61400 0.26303 1.10626
 C4583 C 0.61150 0.26104 1.12583
 C4584 C 0.61913 0.24545 1.13553
 C4585 C 0.62984 0.23185 1.12618
 C4586 C 0.63256 0.23390 1.10691
 C4587 C 0.60153 0.27469 1.13566
 C4588 C 0.59434 0.29055 1.12666
 C4589 C 0.59652 0.29328 1.10723
 C4590 C 0.60587 0.27895 1.09676
 C4591 C 0.60651 0.28087 1.07712
 C4592 C 0.59862 0.29637 1.06804
 C4593 C 0.59017 0.31084 1.07810
 C4594 C 0.58931 0.30970 1.09787
 C4595 C 0.58147 0.32521 1.10744
 C4596 C 0.57413 0.34069 1.09776
 C4597 C 0.57416 0.34138 1.07818
 C4598 C 0.58249 0.32644 1.06846
 H4599 H 0.62790 0.24969 1.08240
 H4600 H 0.61711 0.24417 1.15047
 H4601 H 0.64068 0.22362 1.09923
 H4602 H 0.59940 0.27319 1.15058
 H4603 H 0.58668 0.30025 1.13532
 H4604 H 0.61263 0.27036 1.06821
 H4605 H 0.59929 0.29709 1.05293
 H4606 H 0.58111 0.32603 1.12245
 H4607 H 0.56851 0.35231 1.10575
 H4608 H 0.58273 0.32678 1.05333
 C4609 C 1.24949 1.12432 0.90467
 C4610 C 1.23616 1.11302 0.89515
 C4611 C 1.23864 1.11052 0.87567
 C4612 C 1.25425 1.11846 0.86645
 C4613 C 1.26736 1.12948 0.87617
 C4614 C 1.26472 1.13240 0.89531
 C4615 C 1.22549 1.10021 0.86544
 C4616 C 1.20966 1.09259 0.87399
 C4617 C 1.20651 1.09463 0.89333
 C4618 C 1.22037 1.10436 0.90421
 C4619 C 1.21818 1.10479 0.92379
 C4620 C 1.20281 1.09639 0.93244
 C4621 C 1.18873 1.08763 0.92197
 C4622 C 1.19017 1.08691 0.90225
 C4623 C 1.17500 1.07872 0.89226
 C4624 C 1.15948 1.07109 0.90153
 C4625 C 1.15846 1.07116 0.92108
 C4626 C 1.17318 1.07959 0.93119
 H4627 H 1.24838 1.12754 0.91930
 H4628 H 1.25595 1.11635 0.85157
 H4629 H 1.27459 1.14085 0.90322
 H4630 H 1.22735 1.09813 0.85058
 H4631 H 1.20034 1.08470 0.86505
 H4632 H 1.22841 1.11113 0.93298
 H4633 H 1.20186 1.09693 0.94754
 H4634 H 1.17442 1.07840 0.87723
 H4635 H 1.14804 1.06535 0.89325
 H4636 H 1.17266 1.07978 0.94631
 C4637 C 1.23523 0.63899 0.39152
 C4638 C 1.23048 0.61966 0.39093
 C4639 C 1.24282 0.60748 0.38111
 C4640 C 1.25884 0.61461 0.37189
 C4641 C 1.26328 0.63380 0.37263
 C4642 C 1.25133 0.64583 0.38258
 C4643 C 1.23922 0.58822 0.38063
 C4644 C 1.22379 0.58063 0.38990
 C4645 C 1.21101 0.59210 0.39984
 C4646 C 1.21409 0.61200 0.39988
 C4647 C 1.20049 0.62360 0.40856
 C4648 C 1.18456 0.61608 0.41701
 C4649 C 1.18164 0.59670 0.41759
 C4650 C 1.19500 0.58437 0.40938
 C4651 C 1.19176 0.56480 0.41115
 C4652 C 1.17556 0.55791 0.41989
 C4653 C 1.16192 0.57017 0.42718
 C4654 C 1.16527 0.58960 0.42620
 H4655 H 1.22702 0.64921 0.39903
 H4656 H 1.26812 0.60507 0.36450
 H4657 H 1.25434 0.66073 0.38341
 H4658 H 1.24852 0.57884 0.37308
 H4659 H 1.22201 0.56565 0.38860
 H4660 H 1.20147 0.63871 0.40867
 H4661 H 1.17440 0.62559 0.42325
 H4662 H 1.20156 0.55437 0.40615
 H4663 H 1.17374 0.54282 0.42095
 H4664 H 1.15489 0.59931 0.43172
 C4665 C 0.74827 1.09162 0.37748
 C4666 C 0.73474 1.10128 0.38837
 C4667 C 0.73710 1.12095 0.39066
 C4668 C 0.75269 1.13026 0.38283
 C4669 C 0.76596 1.12042 0.37219
 C4670 C 0.76353 1.10107 0.36955
 C4671 C 0.72384 1.13130 0.40066
 C4672 C 0.70801 1.12268 0.40816
 C4673 C 0.70494 1.10316 0.40625
 C4674 C 0.71888 1.09217 0.39682
 C4675 C 0.71667 1.07242 0.39642
 C4676 C 0.70122 1.06373 0.40460
 C4677 C 0.68711 1.07430 0.41313
 C4678 C 0.68856 1.09419 0.41381
 C4679 C 0.67338 1.10428 0.42182
 C4680 C 0.65786 1.09495 0.42937
 C4681 C 0.65685 1.07526 0.42932
 C4682 C 0.67152 1.06504 0.42100
 H4683 H 0.74733 1.07682 0.37450
 H4684 H 0.75423 1.14530 0.38472
 H4685 H 0.77355 1.09306 0.36143
 H4686 H 0.72564 1.14631 0.40259
 H4687 H 0.69863 1.13172 0.41583
 H4688 H 0.72692 1.06315 0.39025
 H4689 H 0.70024 1.04852 0.40408
 H4690 H 0.67280 1.11942 0.42211
 H4691 H 0.64643 1.10328 0.43505
 H4692 H 0.67091 1.04980 0.42082
 C4693 C 0.73620 0.60627 0.86088
 C4694 C 0.73113 0.60756 0.87994
 C4695 C 0.74331 0.61787 0.89188
 C4696 C 0.75947 0.62689 0.88476
 C4697 C 0.76421 0.62548 0.86583
 C4698 C 0.75244 0.61501 0.85405
 C4699 C 0.73940 0.61905 0.91089
 C4700 C 0.72382 0.60998 0.91849
 C4701 C 0.71120 0.59957 0.90726
 C4702 C 0.71458 0.59885 0.88757
 C4703 C 0.70113 0.58972 0.87615
 C4704 C 0.68510 0.58140 0.88364
 C4705 C 0.68193 0.58141 0.90284
 C4706 C 0.69507 0.59019 0.91499
 C4707 C 0.69152 0.58907 0.93441
 C4708 C 0.67531 0.58031 0.94128
 C4709 C 0.66196 0.57233 0.92917
 C4710 C 0.66554 0.57279 0.90991
 H4711 H 0.72813 0.59832 0.85089
 H4712 H 0.76861 0.63468 0.89412
 H4713 H 0.75567 0.61365 0.83937
 H4714 H 0.74858 0.62698 0.92009
 H4715 H 0.72183 0.61180 0.93326
 H4716 H 0.70231 0.58914 0.86119
 H4717 H 0.67509 0.57477 0.87426
 H4718 H 0.70111 0.59459 0.94473
 H4719 H 0.67328 0.57971 0.95625
 H4720 H 0.65535 0.56678 0.90031
 C4721 C 1.25295 0.90449 1.12410
 C4722 C 1.23922 0.89500 1.11326
 C4723 C 1.24103 0.87520 1.11155
 C4724 C 1.25632 0.86557 1.11987
 C4725 C 1.26979 0.87525 1.13049
 C4726 C 1.26788 0.89475 1.13255
 C4727 C 1.22751 0.86504 1.10165
 C4728 C 1.21192 0.87399 1.09375
 C4729 C 1.20937 0.89365 1.09513
 C4730 C 1.22365 0.90442 1.10435
 C4731 C 1.22205 0.92424 1.10410
 C4732 C 1.20682 0.93323 1.09555
 C4733 C 1.19232 0.92290 1.08732
 C4734 C 1.19320 0.90296 1.08726
 C4735 C 1.17765 0.89315 1.07958
 C4736 C 1.16230 0.90277 1.07178
 C4737 C 1.16183 0.92249 1.07120
 C4738 C 1.17690 0.93246 1.07915
 H4739 H 1.25238 0.91940 1.12669
 H4740 H 1.25748 0.85044 1.11842
 H4741 H 1.27806 0.90265 1.14063
 H4742 H 1.22889 0.84993 1.10014
 H4743 H 1.20229 0.86508 1.08621
 H4744 H 1.23263 0.93333 1.11001
 H4745 H 1.20630 0.94848 1.09557
 H4746 H 1.17664 0.87804 1.07978
 H4747 H 1.15056 0.89465 1.06642
 H4748 H 1.17672 0.94771 1.07886
 C4749 C 1.24897 0.40681 0.62836
 C4750 C 1.23544 0.39753 0.61708
 C4751 C 1.23762 0.37787 0.61456
 C4752 C 1.25311 0.36823 0.62238
 C4753 C 1.26657 0.37771 0.63317
 C4754 C 1.26422 0.39702 0.63624
 C4755 C 1.22437 0.36785 0.60419
 C4756 C 1.20877 0.37682 0.59641
 C4757 C 1.20591 0.39637 0.59843
 C4758 C 1.21980 0.40702 0.60837
 C4759 C 1.21781 0.42679 0.60888
 C4760 C 1.20269 0.43585 0.60020
 C4761 C 1.18867 0.42561 0.59109
 C4762 C 1.18984 0.40570 0.59042
 C4763 C 1.17472 0.39593 0.58192
 C4764 C 1.15960 0.40557 0.57377
 C4765 C 1.15893 0.42528 0.57368
 C4766 C 1.17346 0.43521 0.58259
 H4767 H 1.24810 0.42156 0.63159
 H4768 H 1.25453 0.35322 0.62021
 H4769 H 1.27434 0.40474 0.64457
 H4770 H 1.22605 0.35284 0.60210
 H4771 H 1.19944 0.36802 0.58838
 H4772 H 1.22803 0.43581 0.61548
 H4773 H 1.20191 0.45107 0.60075
 H4774 H 1.17387 0.38080 0.58166
 H4775 H 1.14820 0.39746 0.56769
 H4776 H 1.17307 0.45046 0.58273
 C4777 C 0.73625 0.89036 0.63846
 C4778 C 0.73138 0.88964 0.61928
 C4779 C 0.74378 0.87983 0.60722
 C4780 C 0.75994 0.87062 0.61433
 C4781 C 0.76444 0.87145 0.63338
 C4782 C 0.75249 0.88147 0.64530
 C4783 C 0.74011 0.87937 0.58808
 C4784 C 0.72459 0.88874 0.58051
 C4785 C 0.71176 0.89866 0.59189
 C4786 C 0.71482 0.89850 0.61167
 C4787 C 0.70105 0.90689 0.62319
 C4788 C 0.68502 0.91540 0.61570
 C4789 C 0.68222 0.91635 0.59645
 C4790 C 0.69569 0.90835 0.58421
 C4791 C 0.69254 0.91054 0.56478
 C4792 C 0.67635 0.91958 0.55793
 C4793 C 0.66267 0.92672 0.57011
 C4794 C 0.66586 0.92517 0.58940
 H4795 H 0.72806 0.89801 0.64855
 H4796 H 0.76927 0.86321 0.60492
 H4797 H 0.75562 0.88238 0.66008
 H4798 H 0.74947 0.87181 0.57879
 H4799 H 0.72275 0.88750 0.56563
 H4800 H 0.70194 0.90667 0.63820
 H4801 H 0.67473 0.92143 0.62513
 H4802 H 0.70244 0.90573 0.55447
 H4803 H 0.67459 0.92106 0.54296
 H4804 H 0.65539 0.93048 0.59905
 C4805 C 0.73515 0.36331 1.10668
 C4806 C 0.73059 0.38270 1.10726
 C4807 C 0.74344 0.39487 1.11645
 C4808 C 0.75977 0.38767 1.12515
 C4809 C 0.76399 0.36843 1.12446
 C4810 C 0.75157 0.35638 1.11511
 C4811 C 0.74004 0.41418 1.11680
 C4812 C 0.72441 0.42186 1.10775
 C4813 C 0.71125 0.41040 1.09828
 C4814 C 0.71394 0.39044 1.09877
 C4815 C 0.69975 0.37887 1.09105
 C4816 C 0.68372 0.38650 1.08271
 C4817 C 0.68138 0.40592 1.08129
 C4818 C 0.69523 0.41819 1.08872
 C4819 C 0.69252 0.43777 1.08608
 C4820 C 0.67635 0.44476 1.07720
 C4821 C 0.66233 0.43255 1.07065
 C4822 C 0.66507 0.41311 1.07258
 H4823 H 0.72659 0.35313 1.09948
 H4824 H 0.76944 0.39718 1.13209
 H4825 H 0.75444 0.34144 1.11436
 H4826 H 0.74969 0.42353 1.12398
 H4827 H 0.72277 0.43688 1.10886
 H4828 H 0.70031 0.36374 1.09168
 H4829 H 0.67310 0.37706 1.07717
 H4830 H 0.70276 0.44807 1.09042
 H4831 H 0.67482 0.45983 1.07543
 H4832 H 0.65428 0.40351 1.06769
 C4833 C 0.75192 1.09186 1.12517
 C4834 C 0.76566 1.10154 1.11455
 C4835 C 0.76336 1.12126 1.11223
 C4836 C 0.74762 1.13059 1.11972
 C4837 C 0.73412 1.12073 1.13006
 C4838 C 0.73649 1.10133 1.13277
 C4839 C 0.77683 1.13163 1.10252
 C4840 C 0.79279 1.12298 1.09532
 C4841 C 0.79579 1.10341 1.09726
 C4842 C 0.78165 1.09241 1.10639
 C4843 C 0.78379 1.07264 1.10674
 C4844 C 0.79934 1.06392 1.09872
 C4845 C 0.81362 1.07450 1.09047
 C4846 C 0.81227 1.09441 1.08995
 C4847 C 0.82763 1.10451 1.08234
 C4848 C 0.84317 1.09517 1.07487
 C4849 C 0.84403 1.07547 1.07461
 C4850 C 0.82926 1.06522 1.08267
 H4851 H 0.75281 1.07703 1.12819
 H4852 H 0.74611 1.14566 1.11780
 H4853 H 0.72630 1.09331 1.14070
 H4854 H 0.77508 1.14668 1.10057
 H4855 H 0.80232 1.13204 1.08783
 H4856 H 0.77341 1.06337 1.11269
 H4857 H 0.80024 1.04869 1.09913
 H4858 H 0.82832 1.11964 1.08228
 H4859 H 0.85472 1.10349 1.06942
 H4860 H 0.82979 1.04997 1.08266
 C4861 C 0.75154 0.59131 0.62579
 C4862 C 0.76492 0.60072 0.61445
 C4863 C 0.76271 0.62042 0.61198
 C4864 C 0.74730 0.62995 0.61985
 C4865 C 0.73397 0.62034 0.63064
 C4866 C 0.73639 0.60101 0.63373
 C4867 C 0.77582 0.63057 0.60160
 C4868 C 0.79130 0.62170 0.59371
 C4869 C 0.79414 0.60210 0.59560
 C4870 C 0.78040 0.59134 0.60560
 C4871 C 0.78236 0.57156 0.60603
 C4872 C 0.79728 0.56260 0.59715
 C4873 C 0.81113 0.57293 0.58793
 C4874 C 0.81002 0.59285 0.58738
 C4875 C 0.82502 0.60270 0.57877
 C4876 C 0.83997 0.59313 0.57047
 C4877 C 0.84058 0.57341 0.57029
 C4878 C 0.82613 0.56342 0.57924
 H4879 H 0.75247 0.57652 0.62900
 H4880 H 0.74585 0.64499 0.61769
 H4881 H 0.72638 0.59321 0.64210
 H4882 H 0.77414 0.64561 0.59958
 H4883 H 0.80053 0.63060 0.58569
 H4884 H 0.77226 0.56247 0.61271
 H4885 H 0.79803 0.54736 0.59764
 H4886 H 0.82590 0.61782 0.57857
 H4887 H 0.85130 0.60130 0.56439
 H4888 H 0.82644 0.54817 0.57931
 C4889 C 0.24736 1.12368 0.59586
 C4890 C 0.26155 1.11323 0.60534
 C4891 C 0.25951 1.11062 0.62488
 C4892 C 0.24364 1.11781 0.63427
 C4893 C 0.22979 1.12815 0.62462
 C4894 C 0.23186 1.13098 0.60537
 C4895 C 0.27336 1.10097 0.63502
 C4896 C 0.28943 1.09410 0.62631
 C4897 C 0.29220 1.09633 0.60690
 C4898 C 0.27774 1.10552 0.59614
 C4899 C 0.27982 1.10642 0.57654
 C4900 C 0.29551 1.09881 0.56775
 C4901 C 0.30999 1.09036 0.57807
 C4902 C 0.30876 1.08931 0.59782
 C4903 C 0.32428 1.08139 0.60765
 C4904 C 0.33983 1.07410 0.59820
 C4905 C 0.34057 1.07436 0.57865
 C4906 C 0.32568 1.08282 0.56868
 H4907 H 0.24793 1.12682 0.58115
 H4908 H 0.24234 1.11575 0.64922
 H4909 H 0.22137 1.13883 0.59747
 H4910 H 0.27184 1.09882 0.64993
 H4911 H 0.29927 1.08666 0.63520
 H4912 H 0.26930 1.11254 0.56743
 H4913 H 0.29633 1.09965 0.55266
 H4914 H 0.32504 1.08085 0.62266
 H4915 H 0.35144 1.06830 0.60633
 H4916 H 0.32611 1.08320 0.55355
 C4917 C 0.24935 0.59470 1.12079
 C4918 C 0.26308 0.60433 1.11013
 C4919 C 0.26082 0.62405 1.10773
 C4920 C 0.24513 0.63346 1.11530
 C4921 C 0.23186 0.62365 1.12596
 C4922 C 0.23412 0.60425 1.12858
 C4923 C 0.27438 0.63434 1.09804
 C4924 C 0.29044 0.62562 1.09107
 C4925 C 0.29340 0.60605 1.09316
 C4926 C 0.27912 0.59513 1.10216
 C4927 C 0.28120 0.57536 1.10266
 C4928 C 0.29689 0.56656 1.09506
 C4929 C 0.31134 0.57705 1.08701
 C4930 C 0.31000 0.59697 1.08622
 C4931 C 0.32551 0.60695 1.07871
 C4932 C 0.34120 0.59748 1.07166
 C4933 C 0.34205 0.57777 1.07176
 C4934 C 0.32712 0.56767 1.07968
 H4935 H 0.25019 0.57988 1.12386
 H4936 H 0.24361 0.64854 1.11345
 H4937 H 0.22402 0.59632 1.13673
 H4938 H 0.27269 0.64939 1.09604
 H4939 H 0.30010 0.63462 1.08368
 H4940 H 0.27069 0.56613 1.10844
 H4941 H 0.29778 0.55134 1.09563
 H4942 H 0.32617 0.62208 1.07841
 H4943 H 0.35284 0.60569 1.06626
 H4944 H 0.32763 0.55242 1.07988
 C4945 C 0.76742 0.89314 0.86583
 C4946 C 0.77195 0.89248 0.88509
 C4947 C 0.75956 0.88251 0.89708
 C4948 C 0.74376 0.87309 0.88983
 C4949 C 0.73956 0.87396 0.87074
 C4950 C 0.75147 0.88408 0.85886
 C4951 C 0.76285 0.88218 0.91628
 C4952 C 0.77792 0.89194 0.92399
 C4953 C 0.79064 0.90210 0.91267
 C4954 C 0.78810 0.90164 0.89285
 C4955 C 0.80197 0.91003 0.88144
 C4956 C 0.81757 0.91895 0.88909
 C4957 C 0.81975 0.92031 0.90837
 C4958 C 0.80614 0.91229 0.92048
 C4959 C 0.80860 0.91495 0.93991
 C4960 C 0.82439 0.92431 0.94692
 C4961 C 0.83825 0.93133 0.93489
 C4962 C 0.83567 0.92949 0.91559
 H4963 H 0.77559 0.90096 0.85580
 H4964 H 0.73439 0.86557 0.89916
 H4965 H 0.74850 0.88499 0.84404
 H4966 H 0.75353 0.87446 0.92550
 H4967 H 0.77952 0.89081 0.93891
 H4968 H 0.80153 0.90946 0.86642
 H4969 H 0.82800 0.92496 0.87977
 H4970 H 0.79847 0.91021 0.95007
 H4971 H 0.82578 0.92600 0.96189
 H4972 H 0.84635 0.93474 0.90611
 C4973 C 0.74812 0.37309 0.40534
 C4974 C 0.76187 0.38410 0.39608
 C4975 C 0.75943 0.38722 0.37662
 C4976 C 0.74353 0.38014 0.36716
 C4977 C 0.73008 0.36930 0.37660
 C4978 C 0.73261 0.36581 0.39571
 C4979 C 0.77295 0.39727 0.36665
 C4980 C 0.78911 0.40398 0.37542
 C4981 C 0.79223 0.40126 0.39474
 C4982 C 0.77802 0.39185 0.40538
 C4983 C 0.78025 0.39086 0.42498
 C4984 C 0.79593 0.39852 0.43386
 C4985 C 0.81030 0.40700 0.42361
 C4986 C 0.80889 0.40808 0.40386
 C4987 C 0.82437 0.41576 0.39404
 C4988 C 0.84002 0.42291 0.40349
 C4989 C 0.84089 0.42283 0.42306
 C4990 C 0.82605 0.41451 0.43302
 H4991 H 0.74913 0.36946 0.41993
 H4992 H 0.74189 0.38266 0.35230
 H4993 H 0.72245 0.35748 0.40339
 H4994 H 0.77112 0.39984 0.35181
 H4995 H 0.79868 0.41179 0.36669
 H4996 H 0.76981 0.38470 0.43401
 H4997 H 0.79687 0.39766 0.44896
 H4998 H 0.82503 0.41611 0.37902
 H4999 H 0.85161 0.42845 0.39534
 H5000 H 0.82658 0.41419 0.44815
 C5001 C 0.24969 0.90782 0.37437
 C5002 C 0.26377 0.89862 0.38520
 C5003 C 0.26219 0.87887 0.38763
 C5004 C 0.24675 0.86905 0.38015
 C5005 C 0.23282 0.87845 0.36972
 C5006 C 0.23454 0.89786 0.36677
 C5007 C 0.27602 0.86894 0.39751
 C5008 C 0.29164 0.87808 0.40486
 C5009 C 0.29389 0.89773 0.40292
 C5010 C 0.27939 0.90827 0.39354
 C5011 C 0.28078 0.92810 0.39320
 C5012 C 0.29586 0.93731 0.40159
 C5013 C 0.31044 0.92719 0.41017
 C5014 C 0.30992 0.90725 0.41054
 C5015 C 0.32562 0.89764 0.41838
 C5016 C 0.34061 0.90744 0.42635
 C5017 C 0.34056 0.92715 0.42691
 C5018 C 0.32552 0.93695 0.41849
 H5019 H 0.25008 0.92265 0.37122
 H5020 H 0.24577 0.85397 0.38221
 H5021 H 0.22402 0.90550 0.35871
 H5022 H 0.27482 0.85386 0.39952
 H5023 H 0.30146 0.86934 0.41253
 H5024 H 0.27010 0.93702 0.38702
 H5025 H 0.29615 0.95256 0.40124
 H5026 H 0.32699 0.88254 0.41826
 H5027 H 0.35242 0.89947 0.43197
 H5028 H 0.32539 0.95220 0.41867
 C5029 C 0.26723 0.36410 0.88814
 C5030 C 0.27095 0.38363 0.88896
 C5031 C 0.25805 0.39595 0.87976
 C5032 C 0.24222 0.38881 0.87012
 C5033 C 0.23863 0.36945 0.86988
 C5034 C 0.25138 0.35724 0.87883
 C5035 C 0.26083 0.41534 0.88046
 C5036 C 0.27587 0.42289 0.89045
 C5037 C 0.28899 0.41127 0.90004
 C5038 C 0.28682 0.39130 0.89879
 C5039 C 0.30067 0.37966 0.90727
 C5040 C 0.31599 0.38717 0.91679
 C5041 C 0.31805 0.40656 0.91857
 C5042 C 0.30446 0.41893 0.91052
 C5043 C 0.30696 0.43847 0.91338
 C5044 C 0.32273 0.44531 0.92295
 C5045 C 0.33655 0.43302 0.93010
 C5046 C 0.33388 0.41361 0.92815
 H5047 H 0.27600 0.35368 0.89489
 H5048 H 0.23235 0.39840 0.86338
 H5049 H 0.24911 0.34219 0.87873
 H5050 H 0.25114 0.42484 0.87334
 H5051 H 0.27698 0.43799 0.89011
 H5052 H 0.30037 0.36455 0.90653
 H5053 H 0.32635 0.37765 0.92287
 H5054 H 0.29698 0.44887 0.90849
 H5055 H 0.32420 0.46037 0.92466
 H5056 H 0.34450 0.40394 0.93353
   
