data_POSCAR
  _audit_creation_date              2014-09-24
  _audit_creation_method            'ToBaCCo'
  _symmetry_space_group_name_H-M    'P1'
  _symmetry_Int_Tables_number       1
  _symmetry_cell_setting            triclinic
  loop_
  _symmetry_equiv_pos_as_xyz
 x,y,z
_cell_length_a 55.6899
_cell_length_b 55.6871
_cell_length_c 45.2538
_cell_angle_alpha 89.943000
_cell_angle_beta 90.020700
_cell_angle_gamma 90.019100
loop_
  _atom_site_label
  _atom_site_type_symbol
  _atom_site_fract_x
  _atom_site_fract_y
  _atom_site_fract_z
C1 C 0.32310 -0.03196 0.25146
 C2 C 0.33603 -0.01173 0.24193
 C3 C 0.35091 -0.01337 0.21706
 C4 C 0.35311 -0.03511 0.20186
 C5 C 0.34006 -0.05519 0.21113
 C6 C 0.32501 -0.05367 0.23590
 C7 C 0.33610 0.01049 0.25942
 C8 C 0.35104 0.01207 0.28427
 C9 C 0.35343 0.03386 0.29941
 C10 C 0.34048 0.05401 0.29004
 C11 C 0.32541 0.05250 0.26531
 C12 C 0.32332 0.03079 0.24985
 H13 H 0.31196 -0.03084 0.27106
 H14 H 0.36143 0.00206 0.21023
 H15 H 0.36144 -0.00345 0.29108
 H16 H 0.31216 0.02976 0.23026
 H17 H 0.34200 -0.07208 0.19942
 H18 H 0.34248 0.07098 0.30157
 C19 C 0.17620 -0.03111 0.74794
 C20 C 0.16329 -0.01091 0.75752
 C21 C 0.14846 -0.01261 0.78245
 C22 C 0.14631 -0.03440 0.79764
 C23 C 0.15936 -0.05444 0.78828
 C24 C 0.17433 -0.05283 0.76348
 C25 C 0.16321 0.01137 0.74008
 C26 C 0.14826 0.01302 0.71524
 C27 C 0.14587 0.03484 0.70014
 C28 C 0.15884 0.05497 0.70953
 C29 C 0.17392 0.05339 0.73426
 C30 C 0.17600 0.03164 0.74968
 H31 H 0.18730 -0.02999 0.72832
 H32 H 0.13796 0.00280 0.78935
 H33 H 0.13786 -0.00249 0.70840
 H34 H 0.18717 0.03056 0.76925
 H35 H 0.15750 -0.07138 0.79992
 H36 H 0.15685 0.07197 0.69804
 C37 C 0.67759 0.46858 0.24887
 C38 C 0.66468 0.48879 0.25837
 C39 C 0.64970 0.48709 0.28317
 C40 C 0.64742 0.46530 0.29830
 C41 C 0.66047 0.44524 0.28903
 C42 C 0.67559 0.44684 0.26435
 C43 C 0.66469 0.51107 0.24093
 C44 C 0.64974 0.51278 0.21610
 C45 C 0.64746 0.53460 0.20101
 C46 C 0.66049 0.55466 0.21037
 C47 C 0.67557 0.55305 0.23508
 C48 C 0.67758 0.53129 0.25051
 H49 H 0.68880 0.46969 0.22934
 H50 H 0.63918 0.50251 0.28999
 H51 H 0.63924 0.49736 0.20923
 H52 H 0.68876 0.53017 0.27008
 H53 H 0.65851 0.42829 0.30061
 H54 H 0.65851 0.57163 0.19883
 C55 C 0.82355 0.46846 0.75205
 C56 C 0.83649 0.48861 0.74231
 C57 C 0.85131 0.48680 0.71739
 C58 C 0.85341 0.46496 0.70236
 C59 C 0.84032 0.44497 0.71188
 C60 C 0.82536 0.44669 0.73668
 C61 C 0.83660 0.51095 0.75957
 C62 C 0.85151 0.51267 0.78443
 C63 C 0.85387 0.53453 0.79940
 C64 C 0.84092 0.55463 0.78986
 C65 C 0.82587 0.55297 0.76512
 C66 C 0.82382 0.53118 0.74983
 H67 H 0.81244 0.46967 0.77166
 H68 H 0.86183 0.50217 0.71037
 H69 H 0.86190 0.49718 0.79140
 H70 H 0.81265 0.53003 0.73025
 H71 H 0.84214 0.42799 0.70037
 H72 H 0.84288 0.57165 0.80126
 C73 C 0.24360 0.39812 1.03986
 C74 C 0.25531 0.40934 1.01610
 C75 C 0.27771 0.42018 1.02056
 C76 C 0.28833 0.42001 1.04856
 C77 C 0.27680 0.40856 1.07219
 C78 C 0.25445 0.39745 1.06780
 C79 C 0.24439 0.40939 0.98648
 C80 C 0.22197 0.42020 0.98205
 C81 C 0.21140 0.42017 0.95400
 C82 C 0.22302 0.40889 0.93034
 C83 C 0.24536 0.39784 0.93472
 C84 C 0.25616 0.39835 0.96268
 H85 H 0.22646 0.38932 1.03628
 H86 H 0.28680 0.42881 1.00220
 H87 H 0.21283 0.42871 1.00042
 H88 H 0.27330 0.38956 0.96615
 H89 H 0.28540 0.40791 1.09369
 H90 H 0.21451 0.40831 0.90879
 C91 C 0.75662 0.10176 1.03987
 C92 C 0.74466 0.09064 1.01624
 C93 C 0.72227 0.07988 1.02095
 C94 C 0.71187 0.08004 1.04908
 C95 C 0.72364 0.09140 1.07258
 C96 C 0.74600 0.10243 1.06794
 C97 C 0.75535 0.09056 0.98650
 C98 C 0.77773 0.07974 0.98187
 C99 C 0.78807 0.07972 0.95370
 C100 C 0.77627 0.09095 0.93011
 C101 C 0.75396 0.10201 0.93470
 C102 C 0.74339 0.10155 0.96277
 H103 H 0.77376 0.11051 1.03610
 H104 H 0.71299 0.07130 1.00271
 H105 H 0.78702 0.07127 1.00018
 H106 H 0.72628 0.11035 0.96640
 H107 H 0.71521 0.09205 1.09417
 H108 H 0.78460 0.09149 0.90847
 C109 C 0.25647 0.60130 0.53835
 C110 C 0.24456 0.59018 0.51469
 C111 C 0.22218 0.57936 0.51935
 C112 C 0.21176 0.57948 0.54747
 C113 C 0.22351 0.59085 0.57099
 C114 C 0.24583 0.60191 0.56638
 C115 C 0.25530 0.59017 0.48497
 C116 C 0.27768 0.57937 0.48035
 C117 C 0.28812 0.57950 0.45224
 C118 C 0.27639 0.59087 0.42869
 C119 C 0.25407 0.60191 0.43326
 C120 C 0.24341 0.60130 0.46128
 H121 H 0.27358 0.61011 0.53469
 H122 H 0.21293 0.57080 0.50108
 H123 H 0.28692 0.57081 0.49865
 H124 H 0.22630 0.61010 0.46490
 H125 H 0.21511 0.59151 0.59260
 H126 H 0.28480 0.59154 0.40710
 C127 C 0.74409 0.89907 0.53810
 C128 C 0.75591 0.91018 0.51437
 C129 C 0.77831 0.92101 0.51890
 C130 C 0.78883 0.92091 0.54700
 C131 C 0.77714 0.90954 0.57061
 C132 C 0.75481 0.89848 0.56609
 C133 C 0.74508 0.91016 0.48469
 C134 C 0.72264 0.92086 0.48013
 C135 C 0.71212 0.92070 0.45206
 C136 C 0.72382 0.90938 0.42848
 C137 C 0.74620 0.89843 0.43299
 C138 C 0.75694 0.89909 0.46097
 H139 H 0.72697 0.89025 0.53454
 H140 H 0.78745 0.92956 0.50051
 H141 H 0.71342 0.92938 0.49844
 H142 H 0.77410 0.89036 0.46455
 H143 H 0.78555 0.90886 0.59222
 H144 H 0.71535 0.90869 0.40692
 C145 C -0.02972 0.23927 0.37154
 C146 C -0.00803 0.23873 0.38732
 C147 C -0.00146 0.21791 0.40286
 C148 C -0.01664 0.19780 0.40290
 C149 C -0.03820 0.19836 0.38683
 C150 C -0.04470 0.21904 0.37102
 C151 C 0.00783 0.25991 0.38736
 C152 C 0.00122 0.28072 0.40285
 C153 C 0.01637 0.30082 0.40292
 C154 C 0.03794 0.30031 0.38695
 C155 C 0.04450 0.27967 0.37119
 C156 C 0.02955 0.25943 0.37167
 H157 H -0.03471 0.25535 0.35947
 H158 H 0.01527 0.21755 0.41514
 H159 H -0.01552 0.28111 0.41508
 H160 H 0.03464 0.24341 0.35959
 H161 H -0.04991 0.18277 0.38670
 H162 H 0.04962 0.31590 0.38685
 C163 C -0.03003 0.75940 0.12842
 C164 C -0.00835 0.75981 0.11264
 C165 C -0.00168 0.78056 0.09704
 C166 C -0.01674 0.80072 0.09695
 C167 C -0.03828 0.80031 0.11299
 C168 C -0.04490 0.77971 0.12887
 C169 C 0.00744 0.73859 0.11272
 C170 C 0.00081 0.71778 0.09723
 C171 C 0.01595 0.69766 0.09720
 C172 C 0.03754 0.69821 0.11321
 C173 C 0.04409 0.71887 0.12894
 C174 C 0.02915 0.73909 0.12842
 H175 H -0.03510 0.74337 0.14056
 H176 H 0.01503 0.78088 0.08476
 H177 H -0.01594 0.71745 0.08499
 H178 H 0.03425 0.75513 0.14047
 H179 H -0.04985 0.81599 0.11302
 H180 H 0.04927 0.68265 0.11338
 C181 C 0.46988 0.25998 0.62853
 C182 C 0.49154 0.26031 0.61271
 C183 C 0.49822 0.28103 0.59704
 C184 C 0.48320 0.30122 0.59694
 C185 C 0.46168 0.30086 0.61303
 C186 C 0.45506 0.28030 0.62895
 C187 C 0.50727 0.23906 0.61281
 C188 C 0.50067 0.21832 0.59719
 C189 C 0.51575 0.19817 0.59721
 C190 C 0.53723 0.19859 0.61339
 C191 C 0.54377 0.21918 0.62927
 C192 C 0.52890 0.23946 0.62872
 H193 H 0.46474 0.24402 0.64073
 H194 H 0.51492 0.28130 0.58472
 H195 H 0.48402 0.21801 0.58478
 H196 H 0.53398 0.25545 0.64087
 H197 H 0.45010 0.31652 0.61310
 H198 H 0.54886 0.18297 0.61354
 C199 C 0.47080 0.73963 0.87167
 C200 C 0.49246 0.73911 0.88749
 C201 C 0.49900 0.71830 0.90309
 C202 C 0.48381 0.69820 0.90313
 C203 C 0.46227 0.69877 0.88702
 C204 C 0.45582 0.71942 0.87117
 C205 C 0.50833 0.76028 0.88750
 C206 C 0.50177 0.78105 0.90309
 C207 C 0.51692 0.80116 0.90312
 C208 C 0.53844 0.80067 0.88703
 C209 C 0.54493 0.78006 0.87119
 C210 C 0.52999 0.75982 0.87169
 H211 H 0.46578 0.75566 0.85953
 H212 H 0.51571 0.71795 0.91540
 H213 H 0.48508 0.78142 0.91541
 H214 H 0.53503 0.74382 0.85954
 H215 H 0.45051 0.68323 0.88685
 H216 H 0.55011 0.81626 0.88690
 C217 C -0.28238 0.57379 0.99798
 C218 C -0.26206 0.58656 1.00753
 C219 C -0.26362 0.60145 1.03240
 C220 C -0.28536 0.60380 1.04758
 C221 C -0.30553 0.59090 1.03828
 C222 C -0.30409 0.57585 1.01350
 C223 C -0.23979 0.58645 0.99011
 C224 C -0.23804 0.60133 0.96521
 C225 C -0.21619 0.60358 0.95016
 C226 C -0.19615 0.59053 0.95966
 C227 C -0.19783 0.57551 0.98444
 C228 C -0.21960 0.57357 0.99981
 H229 H -0.28130 0.56265 0.97838
 H230 H -0.24812 0.61184 1.03927
 H231 H -0.25348 0.61182 0.95830
 H232 H -0.22076 0.56246 1.01944
 H233 H -0.32242 0.59295 1.04997
 H234 H -0.17913 0.59241 0.94821
 C235 C -0.28221 0.42679 0.50079
 C236 C -0.26189 0.41403 0.49132
 C237 C -0.26342 0.39910 0.46648
 C238 C -0.28515 0.39669 0.45127
 C239 C -0.30533 0.40960 0.46049
 C240 C -0.30391 0.42469 0.48522
 C241 C -0.23966 0.41414 0.50884
 C242 C -0.23805 0.39941 0.53388
 C243 C -0.21628 0.39718 0.54906
 C244 C -0.19616 0.41009 0.53960
 C245 C -0.19767 0.42497 0.51469
 C246 C -0.21938 0.42690 0.49915
 H247 H -0.28115 0.43796 0.52037
 H248 H -0.24791 0.38869 0.45969
 H249 H -0.25351 0.38899 0.54084
 H250 H -0.22042 0.43791 0.47942
 H251 H -0.32221 0.40751 0.44878
 H252 H -0.17923 0.40816 0.55122
 C253 C 0.21876 -0.07426 0.00017
 C254 C 0.23900 -0.08708 -0.00942
 C255 C 0.23734 -0.10197 -0.03428
 C256 C 0.21553 -0.10427 -0.04941
 C257 C 0.19543 -0.09127 -0.04003
 C258 C 0.19703 -0.07624 -0.01528
 C259 C 0.26126 -0.08708 0.00804
 C260 C 0.26288 -0.10192 0.03299
 C261 C 0.28466 -0.10416 0.04820
 C262 C 0.30477 -0.09114 0.03882
 C263 C 0.30321 -0.07617 0.01399
 C264 C 0.28151 -0.07424 -0.00155
 H265 H 0.21986 -0.06312 0.01976
 H266 H 0.25283 -0.11240 -0.04112
 H267 H 0.24739 -0.11235 0.03985
 H268 H 0.28044 -0.06312 -0.02119
 H269 H 0.17845 -0.09318 -0.05155
 H270 H 0.32173 -0.09300 0.05042
 C271 C 0.21852 1.07363 0.49879
 C272 C 0.23872 1.08655 0.50837
 C273 C 0.23698 1.10152 0.53315
 C274 C 0.21516 1.10379 0.54819
 C275 C 0.19511 1.09073 0.53883
 C276 C 0.19675 1.07563 0.51417
 C277 C 0.26101 1.08654 0.49101
 C278 C 0.26278 1.10153 0.46621
 C279 C 0.28461 1.10377 0.45113
 C280 C 0.30462 1.09062 0.46050
 C281 C 0.30293 1.07550 0.48518
 C282 C 0.28117 1.07355 0.50059
 H283 H 0.21966 1.06242 0.47926
 H284 H 0.25239 1.11205 0.54004
 H285 H 0.24735 1.11206 0.45938
 H286 H 0.28000 1.06233 0.52012
 H287 H 0.17814 1.09269 0.55033
 H288 H 0.32163 1.09248 0.44901
 C289 C 0.14863 0.49351 0.21201
 C290 C 0.15984 0.50539 0.23562
 C291 C 0.17063 0.52779 0.23092
 C292 C 0.17040 0.53823 0.20280
 C293 C 0.15895 0.52651 0.17932
 C294 C 0.14792 0.50418 0.18399
 C295 C 0.15993 0.49465 0.26535
 C296 C 0.17075 0.47227 0.26997
 C297 C 0.17067 0.46181 0.29809
 C298 C 0.15935 0.47352 0.32165
 C299 C 0.14828 0.49584 0.31708
 C300 C 0.14885 0.50652 0.28904
 H301 H 0.13984 0.47639 0.21571
 H302 H 0.17925 0.53702 0.24915
 H303 H 0.17927 0.46304 0.25167
 H304 H 0.14003 0.52363 0.28542
 H305 H 0.15821 0.53493 0.15773
 H306 H 0.15872 0.46510 0.34325
 C307 C -0.14847 1.00616 0.21080
 C308 C -0.15973 0.99443 0.23450
 C309 C -0.17055 0.97203 0.23002
 C310 C -0.17029 0.96139 0.20201
 C311 C -0.15877 0.97297 0.17843
 C312 C -0.14770 0.99533 0.18287
 C313 C -0.15982 1.00533 0.26412
 C314 C -0.17057 1.02777 0.26851
 C315 C -0.17051 1.03835 0.29657
 C316 C -0.15925 1.02666 0.32027
 C317 C -0.14826 1.00429 0.31590
 C318 C -0.14882 0.99352 0.28795
 H319 H -0.13967 1.02330 0.21441
 H320 H -0.17920 0.96296 0.24839
 H321 H -0.17902 1.03691 0.25005
 H322 H -0.14006 0.97636 0.28450
 H323 H -0.15800 0.96441 0.15690
 H324 H -0.15860 1.03511 0.34185
 C325 C 0.35201 0.50713 -0.28964
 C326 C 0.34075 0.49547 -0.26588
 C327 C 0.32983 0.47311 -0.27030
 C328 C 0.32996 0.46247 -0.29828
 C329 C 0.34146 0.47396 -0.32192
 C330 C 0.35265 0.49627 -0.31756
 C331 C 0.34075 0.50639 -0.23627
 C332 C 0.32997 0.52881 -0.23185
 C333 C 0.33003 0.53937 -0.20379
 C334 C 0.34132 0.52769 -0.18011
 C335 C 0.35234 0.50534 -0.18451
 C336 C 0.35179 0.49458 -0.21246
 H337 H 0.36088 0.52424 -0.28608
 H338 H 0.32117 0.46405 -0.25194
 H339 H 0.32147 0.53793 -0.25029
 H340 H 0.36055 0.47743 -0.21593
 H341 H 0.34208 0.46534 -0.34339
 H342 H 0.34195 0.53612 -0.15851
 C343 C 0.64771 -0.00662 -0.28918
 C344 C 0.65886 0.00522 -0.26548
 C345 C 0.66963 0.02763 -0.27007
 C346 C 0.66947 0.03815 -0.29814
 C347 C 0.65809 0.02649 -0.32171
 C348 C 0.64705 0.00413 -0.31720
 C349 C 0.65894 -0.00559 -0.23579
 C350 C 0.66981 -0.02797 -0.23123
 C351 C 0.66988 -0.03840 -0.20311
 C352 C 0.65864 -0.02670 -0.17948
 C353 C 0.64753 -0.00440 -0.18399
 C354 C 0.64795 0.00626 -0.21203
 H355 H 0.63895 -0.02377 -0.28551
 H356 H 0.67822 0.03682 -0.25177
 H357 H 0.67829 -0.03717 -0.24958
 H358 H 0.63912 0.02338 -0.21559
 H359 H 0.65745 0.03502 -0.34327
 H360 H 0.65815 -0.03510 -0.15786
 C361 C -0.01059 0.22044 0.87937
 C362 C -0.01110 0.24212 0.86357
 C363 C -0.03191 0.24870 0.84803
 C364 C -0.05201 0.23354 0.84804
 C365 C -0.05148 0.21200 0.86411
 C366 C -0.03082 0.20549 0.87990
 C367 C 0.01007 0.25798 0.86351
 C368 C 0.03080 0.25145 0.84781
 C369 C 0.05088 0.26663 0.84767
 C370 C 0.05041 0.28814 0.86375
 C371 C 0.02984 0.29461 0.87970
 C372 C 0.00962 0.27963 0.87931
 H373 H 0.00545 0.21538 0.89147
 H374 H -0.03232 0.26540 0.83572
 H375 H 0.03116 0.23477 0.83549
 H376 H -0.00636 0.28466 0.89152
 H377 H -0.06706 0.20031 0.86425
 H378 H 0.06598 0.29985 0.86378
 C379 C 0.51055 0.22064 0.12166
 C380 C 0.51111 0.24233 0.13739
 C381 C 0.53195 0.24890 0.15287
 C382 C 0.55202 0.23372 0.15288
 C383 C 0.55144 0.21217 0.13688
 C384 C 0.53076 0.20567 0.12114
 C385 C 0.48993 0.25818 0.13744
 C386 C 0.46916 0.25158 0.15304
 C387 C 0.44906 0.26671 0.15311
 C388 C 0.44954 0.28826 0.13705
 C389 C 0.47014 0.29480 0.12119
 C390 C 0.49039 0.27987 0.12166
 H391 H 0.49449 0.21558 0.10961
 H392 H 0.53239 0.26561 0.16513
 H393 H 0.46879 0.23486 0.16534
 H394 H 0.50638 0.28495 0.10950
 H395 H 0.56700 0.20047 0.13675
 H396 H 0.43395 0.29992 0.13695
 C397 C 0.00962 0.72025 0.62203
 C398 C 0.01015 0.74197 0.63771
 C399 C 0.03099 0.74859 0.65316
 C400 C 0.05110 0.73345 0.65319
 C401 C 0.05054 0.71188 0.63724
 C402 C 0.02986 0.70532 0.62152
 C403 C -0.01103 0.75782 0.63772
 C404 C -0.03183 0.75121 0.65325
 C405 C -0.05194 0.76637 0.65331
 C406 C -0.05138 0.78796 0.63728
 C407 C -0.03073 0.79449 0.62150
 C408 C -0.01051 0.77954 0.62199
 H409 H -0.00642 0.71516 0.60999
 H410 H 0.03142 0.76532 0.66539
 H411 H -0.03218 0.73445 0.66549
 H412 H 0.00551 0.78462 0.60989
 H413 H 0.06612 0.70020 0.63711
 H414 H -0.06693 0.79970 0.63712
 C415 C 0.49010 0.72034 0.37782
 C416 C 0.48968 0.74203 0.36202
 C417 C 0.46890 0.74869 0.34648
 C418 C 0.44874 0.73362 0.34648
 C419 C 0.44918 0.71207 0.36254
 C420 C 0.46981 0.70547 0.37834
 C421 C 0.51090 0.75783 0.36207
 C422 C 0.53167 0.75126 0.34648
 C423 C 0.55181 0.76637 0.34652
 C424 C 0.55135 0.78784 0.36268
 C425 C 0.53074 0.79434 0.37853
 C426 C 0.51047 0.77944 0.37795
 H427 H 0.50611 0.71522 0.38994
 H428 H 0.46856 0.76541 0.33419
 H429 H 0.53202 0.73460 0.33410
 H430 H 0.49447 0.78449 0.39010
 H431 H 0.43355 0.70045 0.36269
 H432 H 0.56696 0.79949 0.36286
 B433 B -0.02380 0.01456 1.01066
 B434 B -0.03252 0.00787 0.97640
 B435 B -0.01223 0.02937 0.98200
 B436 B 0.00568 0.02146 1.01048
 B437 B -0.00409 -0.00611 1.02231
 B438 B -0.02819 -0.01430 1.00107
 B439 B 0.01070 -0.01045 0.96513
 B440 B 0.01949 -0.00373 0.99933
 B441 B -0.00087 -0.02522 0.99378
 B442 B -0.01874 -0.01730 0.96529
 B443 B -0.00894 0.01024 0.95344
 B444 B 0.01512 0.01846 0.97465
 B445 B 0.47633 0.51487 0.50987
 B446 B 0.46765 0.50808 0.47562
 B447 B 0.48794 0.52959 0.48117
 B448 B 0.50581 0.52177 0.50973
 B449 B 0.49601 0.49424 0.52165
 B450 B 0.47194 0.48599 0.50040
 B451 B 0.51088 0.48972 0.46453
 B452 B 0.51963 0.49654 0.49871
 B453 B 0.49927 0.47504 0.49321
 B454 B 0.48144 0.48288 0.46465
 B455 B 0.49127 0.51038 0.45270
 B456 B 0.51530 0.51866 0.47393
 B457 B 0.52376 0.98468 0.51009
 B458 B 0.53238 0.99152 0.47582
 B459 B 0.51217 0.96993 0.48143
 B460 B 0.49431 0.97767 0.50999
 B461 B 0.50401 1.00523 0.52186
 B462 B 0.52802 1.01358 0.50057
 B463 B 0.48906 1.00972 0.46474
 B464 B 0.48038 1.00285 0.49895
 B465 B 0.50065 1.02443 0.49340
 B466 B 0.51847 1.01668 0.46483
 B467 B 0.50873 0.98915 0.45293
 B468 B 0.48476 0.98076 0.47419
 B469 B 0.02310 0.48508 1.01094
 B470 B 0.03190 0.49200 0.97677
 B471 B 0.01156 0.47049 0.98213
 B472 B -0.00639 0.47823 1.01060
 B473 B 0.00340 0.50570 1.02269
 B474 B 0.02755 0.51400 1.00160
 B475 B -0.01127 0.51046 0.96549
 B476 B -0.02014 0.50352 0.99961
 B477 B 0.00027 0.52501 0.99430
 B478 B 0.01818 0.51726 0.96581
 B479 B 0.00835 0.48982 0.95370
 B480 B -0.01576 0.48149 0.97476
 B481 B 0.02364 0.51483 0.49012
 B482 B 0.03230 0.50784 0.52432
 B483 B 0.01198 0.52934 0.51890
 B484 B -0.00585 0.52165 0.49027
 B485 B 0.00400 0.49422 0.47815
 B486 B 0.02806 0.48589 0.49938
 B487 B -0.01091 0.48930 0.53523
 B488 B -0.01964 0.49632 0.50107
 B489 B 0.00075 0.47483 0.50645
 B490 B 0.01854 0.48253 0.53509
 B491 B 0.00866 0.50993 0.54723
 B492 B -0.01537 0.51830 0.52603
 B493 B 0.52405 0.01502 -0.00973
 B494 B 0.53263 0.00818 0.02455
 B495 B 0.51230 0.02964 0.01892
 B496 B 0.49455 0.02181 -0.00974
 B497 B 0.50447 -0.00566 -0.02165
 B498 B 0.52849 -0.01387 -0.00027
 B499 B 0.48941 -0.01036 0.03539
 B500 B 0.48077 -0.00349 0.00116
 B501 B 0.50117 -0.02493 0.00675
 B502 B 0.51887 -0.01710 0.03542
 B503 B 0.50892 0.01034 0.04735
 B504 B 0.48494 0.01859 0.02600
 B505 B 0.47614 0.48544 -0.01040
 B506 B 0.46753 0.49223 0.02386
 B507 B 0.48786 0.47077 0.01827
 B508 B 0.50564 0.47863 -0.01034
 B509 B 0.49575 0.50612 -0.02227
 B510 B 0.47172 0.51432 -0.00095
 B511 B 0.51076 0.51072 0.03480
 B512 B 0.51943 0.50390 0.00060
 B513 B 0.49904 0.52535 0.00613
 B514 B 0.48130 0.51748 0.03476
 B515 B 0.49122 0.49002 0.04671
 B516 B 0.51521 0.48179 0.02542
 B517 B -0.02426 0.98507 0.48983
 B518 B -0.03291 0.99201 0.52404
 B519 B -0.01261 0.97050 0.51862
 B520 B 0.00522 0.97821 0.48999
 B521 B -0.00461 1.00567 0.47787
 B522 B -0.02865 1.01399 0.49910
 B523 B 0.01033 1.01048 0.53495
 B524 B 0.01904 1.00351 0.50080
 B525 B -0.00133 1.02501 0.50617
 B526 B -0.01912 1.01729 0.53481
 B527 B -0.00926 0.98985 0.54695
 B528 B 0.01475 0.98150 0.52576
 B529 B 0.76605 0.22577 0.24003
 B530 B 0.75907 0.21701 0.27420
 B531 B 0.78063 0.23730 0.26886
 B532 B 0.77296 0.25524 0.24030
 B533 B 0.74548 0.24550 0.22815
 B534 B 0.73711 0.22139 0.24928
 B535 B 0.74069 0.26024 0.28528
 B536 B 0.74769 0.26906 0.25117
 B537 B 0.72615 0.24870 0.25646
 B538 B 0.73382 0.23080 0.28503
 B539 B 0.76127 0.24058 0.29721
 B540 B 0.76968 0.26465 0.27610
 B541 B 0.73537 0.77387 0.73953
 B542 B 0.74222 0.78247 0.77378
 B543 B 0.72071 0.76218 0.76822
 B544 B 0.72849 0.74439 0.73961
 B545 B 0.75599 0.75423 0.72766
 B546 B 0.76427 0.77825 0.74896
 B547 B 0.76063 0.73921 0.78475
 B548 B 0.75374 0.73055 0.75055
 B549 B 0.77525 0.75091 0.75607
 B550 B 0.76746 0.76866 0.78468
 B551 B 0.73999 0.75879 0.79666
 B552 B 0.73167 0.73481 0.77538
 B553 B 0.26447 0.27441 0.76022
 B554 B 0.25767 0.28320 0.72601
 B555 B 0.27913 0.26286 0.73149
 B556 B 0.27130 0.24492 0.75998
 B557 B 0.24380 0.25473 0.77194
 B558 B 0.23559 0.27887 0.75077
 B559 B 0.23919 0.24003 0.71476
 B560 B 0.24603 0.23117 0.74892
 B561 B 0.22457 0.25159 0.74349
 B562 B 0.23242 0.26948 0.71499
 B563 B 0.25988 0.25964 0.70300
 B564 B 0.26813 0.23553 0.72415
 B565 B 0.23479 0.72652 0.25982
 B566 B 0.24167 0.71787 0.22561
 B567 B 0.22013 0.73813 0.23108
 B568 B 0.22788 0.75599 0.25964
 B569 B 0.25539 0.74623 0.27166
 B570 B 0.26370 0.72218 0.25044
 B571 B 0.26003 0.76114 0.21453
 B572 B 0.25312 0.76986 0.24869
 B573 B 0.27465 0.74952 0.24327
 B574 B 0.26689 0.73170 0.21470
 B575 B 0.23941 0.74150 0.20266
 B576 B 0.23106 0.76551 0.22385
 B577 B 0.26531 0.72630 0.73963
 B578 B 0.25846 0.71756 0.77385
 B579 B 0.27994 0.73792 0.76837
 B580 B 0.27213 0.75580 0.73981
 B581 B 0.24465 0.74594 0.72781
 B582 B 0.23641 0.72183 0.74903
 B583 B 0.23997 0.76075 0.78494
 B584 B 0.24684 0.76954 0.75077
 B585 B 0.22538 0.74912 0.75620
 B586 B 0.23320 0.73128 0.78477
 B587 B 0.26065 0.74117 0.79680
 B588 B 0.26892 0.76524 0.77561
 B589 B 0.23530 0.27372 0.24026
 B590 B 0.24214 0.28235 0.27451
 B591 B 0.22063 0.26205 0.26895
 B592 B 0.22843 0.24423 0.24037
 B593 B 0.25593 0.25408 0.22843
 B594 B 0.26419 0.27812 0.24971
 B595 B 0.26056 0.23911 0.28554
 B596 B 0.25369 0.23042 0.25135
 B597 B 0.27518 0.25079 0.25685
 B598 B 0.26737 0.26856 0.28544
 B599 B 0.23990 0.25868 0.29741
 B600 B 0.23161 0.23468 0.27616
 B601 B 0.76574 0.77425 0.25950
 B602 B 0.75885 0.78296 0.22528
 B603 B 0.78035 0.76264 0.23075
 B604 B 0.77259 0.74477 0.25933
 B605 B 0.74512 0.75458 0.27136
 B606 B 0.73683 0.77866 0.25014
 B607 B 0.74038 0.73974 0.21425
 B608 B 0.74731 0.73097 0.24842
 B609 B 0.72582 0.75135 0.24299
 B610 B 0.73358 0.76919 0.21440
 B611 B 0.76103 0.75935 0.20235
 B612 B 0.76935 0.73530 0.22354
 B613 B 0.73417 0.22599 0.76084
 B614 B 0.74102 0.21750 0.72656
 B615 B 0.71949 0.23773 0.73220
 B616 B 0.72726 0.25546 0.76088
 B617 B 0.75478 0.24564 0.77279
 B618 B 0.76307 0.22169 0.75140
 B619 B 0.75937 0.26082 0.71577
 B620 B 0.75249 0.26937 0.75000
 B621 B 0.77401 0.24907 0.74440
 B622 B 0.76623 0.23138 0.71572
 B623 B 0.73875 0.24124 0.70378
 B624 B 0.73041 0.26515 0.72515
 C625 C 0.40264 1.03712 0.36356
 N626 N 0.39700 1.03283 0.39223
 N627 N 0.41426 1.03079 0.41247
 C628 C 0.43767 1.03306 0.40468
 N629 N 0.44330 1.03750 0.37605
 N630 N 0.42604 1.03954 0.35581
 C631 C 0.38438 1.03682 0.34125
 C632 C 0.36954 1.03571 0.32192
 C633 C 0.45618 1.02750 0.42556
 C634 C 0.47123 1.02097 0.44288
 C635 C -0.09714 0.53807 0.86379
 N636 N -0.10291 0.53394 0.89245
 N637 N -0.08573 0.53193 0.91281
 C638 C -0.06229 0.53407 0.90514
 N639 N -0.05653 0.53835 0.87651
 N640 N -0.07370 0.54037 0.85616
 C641 C -0.11531 0.53769 0.84137
 C642 C -0.13008 0.53650 0.82197
 C643 C -0.04388 0.52846 0.92614
 C644 C -0.02894 0.52186 0.94356
 C645 C 0.09653 -0.03788 0.86338
 N646 N 0.07309 -0.04019 0.85578
 N647 N 0.05594 -0.03814 0.87614
 C648 C 0.06173 -0.03382 0.90474
 N649 N 0.08518 -0.03167 0.91238
 N650 N 0.10234 -0.03371 0.89202
 C651 C 0.11469 -0.03757 0.84096
 C652 C 0.12944 -0.03645 0.82155
 C653 C 0.04334 -0.02823 0.92575
 C654 C 0.02840 -0.02170 0.94317
 C655 C 0.59720 0.46192 0.36355
 N656 N 0.60283 0.46600 0.39225
 N657 N 0.58555 0.46812 0.41244
 C658 C 0.56213 0.46613 0.40455
 N659 N 0.55651 0.46190 0.37587
 N660 N 0.57379 0.45978 0.35569
 C661 C 0.61550 0.46217 0.34131
 C662 C 0.63039 0.46326 0.32205
 C663 C 0.54364 0.47180 0.42538
 C664 C 0.52863 0.47840 0.44268
 C665 C 0.59722 0.53820 0.13576
 N666 N 0.57383 0.54043 0.14362
 N667 N 0.55653 0.53842 0.12342
 C668 C 0.56212 0.53423 0.09474
 N669 N 0.58552 0.53215 0.08684
 N670 N 0.60282 0.53415 0.10704
 C671 C 0.61554 0.53784 0.15800
 C672 C 0.63043 0.53667 0.17726
 C673 C 0.54359 0.52864 0.07390
 C674 C 0.52854 0.52207 0.05660
 C675 C 0.09667 1.03822 0.63598
 N676 N 0.07327 1.04060 0.64372
 N677 N 0.05601 1.03854 0.62349
 C678 C 0.06165 1.03414 0.59486
 N679 N 0.08506 1.03191 0.58708
 N680 N 0.10232 1.03396 0.60732
 C681 C 0.11493 1.03789 0.65829
 C682 C 0.12977 1.03675 0.67763
 C683 C 0.04315 1.02850 0.57401
 C684 C 0.02811 1.02189 0.55672
 C685 C -0.09686 0.46130 0.63660
 N686 N -0.07343 0.45884 0.64419
 N687 N -0.05626 0.46093 0.62385
 C688 C -0.06203 0.46545 0.59528
 N689 N -0.08547 0.46776 0.58765
 N690 N -0.10264 0.46568 0.60799
 C691 C -0.11501 0.46164 0.65903
 C692 C -0.12975 0.46282 0.67845
 C693 C -0.04362 0.47116 0.57434
 C694 C -0.02865 0.47783 0.55700
 C695 C 0.40314 -0.03838 0.13639
 N696 N 0.42655 -0.04073 0.14414
 N697 N 0.44379 -0.03859 0.12391
 C698 C 0.43813 -0.03413 0.09529
 N699 N 0.41471 -0.03194 0.08750
 N700 N 0.39746 -0.03407 0.10774
 C701 C 0.38489 -0.03815 0.15871
 C702 C 0.37007 -0.03709 0.17803
 C703 C 0.45661 -0.02843 0.07443
 C704 C 0.47163 -0.02178 0.05715
 C705 C 0.35432 0.45113 0.05366
 N706 N 0.35722 0.47372 0.04302
 N707 N 0.37913 0.48301 0.03991
 C708 C 0.39878 0.46998 0.04737
 N709 N 0.39587 0.44743 0.05814
 N710 N 0.37396 0.43814 0.06124
 C711 C 0.33099 0.44027 0.05384
 C712 C 0.31148 0.43102 0.05234
 C713 C 0.42235 0.47887 0.04099
 C714 C 0.44219 0.48547 0.03430
 C715 C -0.14639 0.95130 0.55277
 N716 N -0.14332 0.97391 0.54227
 N717 N -0.12137 0.98313 0.53948
 C718 C -0.10182 0.97002 0.54712
 N719 N -0.10489 0.94745 0.55775
 N720 N -0.12685 0.93822 0.56053
 C721 C -0.16974 0.94049 0.55257
 C722 C -0.18926 0.93129 0.55075
 C723 C -0.07818 0.97882 0.54097
 C724 C -0.05828 0.98535 0.53441
 C725 C -0.14599 0.04868 0.94781
 N726 N -0.12644 0.06169 0.93992
 N727 N -0.10449 0.05245 0.94273
 C728 C -0.10145 0.02993 0.95351
 N729 N -0.12101 0.01687 0.96128
 N730 N -0.14295 0.02611 0.95846
 C731 C -0.16932 0.05950 0.94794
 C732 C -0.18882 0.06873 0.94969
 C733 C -0.07782 0.02111 0.95963
 C734 C -0.05792 0.01456 0.96614
 C735 C 0.35416 0.54865 0.44655
 N736 N 0.37370 0.56175 0.43884
 N737 N 0.39567 0.55257 0.44175
 C738 C 0.39873 0.53002 0.45247
 N739 N 0.37918 0.51688 0.46006
 N740 N 0.35722 0.52606 0.45713
 C741 C 0.33079 0.55940 0.44659
 C742 C 0.31126 0.56858 0.44827
 C743 C 0.42236 0.52126 0.45869
 C744 C 0.44226 0.51475 0.46528
 C745 C 0.14576 0.54852 0.55334
 N746 N 0.14270 0.52594 0.54280
 N747 N 0.12075 0.51672 0.53993
 C748 C 0.10119 0.52982 0.54753
 N749 N 0.10424 0.55236 0.55819
 N750 N 0.12620 0.56158 0.56106
 C751 C 0.16911 0.55932 0.55324
 C752 C 0.18863 0.56852 0.55150
 C753 C 0.07756 0.52103 0.54132
 C754 C 0.05767 0.51450 0.53472
 C755 C 0.64584 0.04910 0.05465
 N756 N 0.64291 0.02641 0.04440
 N757 N 0.62098 0.01717 0.04127
 C758 C 0.60134 0.03035 0.04830
 N759 N 0.60428 0.05300 0.05869
 N760 N 0.62620 0.06224 0.06181
 C761 C 0.66919 0.05991 0.05474
 C762 C 0.68872 0.06911 0.05309
 C763 C 0.57779 0.02150 0.04184
 C764 C 0.55795 0.01492 0.03507
 C765 C 0.64595 0.95132 0.44656
 N766 N 0.62642 0.93817 0.43893
 N767 N 0.60444 0.94728 0.44189
 C768 C 0.60133 0.96981 0.45259
 N769 N 0.62086 0.98300 0.46010
 N770 N 0.64284 0.97389 0.45713
 C771 C 0.66935 0.94064 0.44653
 C772 C 0.68892 0.93154 0.44816
 C773 C 0.57768 0.97851 0.45885
 C774 C 0.55777 0.98495 0.46546
 C775 C 0.14541 0.45121 0.94847
 N776 N 0.12586 0.43827 0.94037
 N777 N 0.10392 0.44751 0.94316
 C778 C 0.10087 0.46996 0.95411
 N779 N 0.12042 0.48294 0.96208
 N780 N 0.14237 0.47370 0.95930
 C781 C 0.16875 0.44038 0.94853
 C782 C 0.18826 0.43116 0.95017
 C783 C 0.07723 0.47878 0.96015
 C784 C 0.05732 0.48532 0.96658
 C785 C 0.00060 0.36152 0.44971
 N786 N 0.01232 0.36602 0.47541
 N787 N 0.00956 0.38701 0.48915
 C788 C -0.00511 0.40411 0.47774
 N789 N -0.01693 0.39955 0.45213
 N790 N -0.01417 0.37857 0.43837
 C791 C 0.00533 0.33983 0.43352
 C792 C 0.01004 0.32194 0.41962
 C793 C -0.00529 0.42787 0.49010
 C794 C -0.00385 0.44830 0.49877
 C795 C 0.50119 -0.13824 -0.04989
 N796 N 0.51310 -0.13365 -0.02435
 N797 N 0.51032 -0.11269 -0.01056
 C798 C 0.49543 -0.09570 -0.02178
 N799 N 0.48342 -0.10034 -0.04724
 N800 N 0.48620 -0.12130 -0.06103
 C801 C 0.50594 -0.15989 -0.06615
 C802 C 0.51063 -0.17775 -0.08010
 C803 C 0.49520 -0.07194 -0.00944
 C804 C 0.49662 -0.05149 -0.00082
 C805 C -0.00073 -0.13870 1.04993
 N806 N -0.01261 -0.13405 1.02438
 N807 N -0.00981 -0.11305 1.01064
 C808 C 0.00508 -0.09608 1.02190
 N809 N 0.01706 -0.10079 1.04737
 N810 N 0.01426 -0.12178 1.06112
 C811 C -0.00555 -0.16036 1.06619
 C812 C -0.01033 -0.17821 1.08015
 C813 C 0.00526 -0.07227 1.00966
 C814 C 0.00378 -0.05179 1.00116
 C815 C 0.49928 0.36170 0.54978
 N816 N 0.48745 0.36629 0.52418
 N817 N 0.49029 0.38726 0.51036
 C818 C 0.50515 0.40425 0.52161
 N819 N 0.51708 0.39960 0.54713
 N820 N 0.51425 0.37864 0.56095
 C821 C 0.49442 0.34008 0.56609
 C822 C 0.48962 0.32225 0.58009
 C823 C 0.50536 0.42803 0.50929
 C824 C 0.50391 0.44849 0.50071
 C825 C 0.50004 1.13768 0.55000
 N826 N 0.51195 1.13319 0.52445
 N827 N 0.50924 1.11224 0.51062
 C828 C 0.49443 1.09515 0.52180
 N829 N 0.48242 1.09970 0.54727
 N830 N 0.48513 1.12065 0.56111
 C831 C 0.50476 1.15930 0.56634
 C832 C 0.50945 1.17713 0.58036
 C833 C 0.49435 1.07140 0.50946
 C834 C 0.49590 1.05096 0.50087
 C835 C 0.00035 0.63822 1.05112
 N836 N -0.01452 0.62121 1.06236
 N837 N -0.01736 0.60027 1.04852
 C838 C -0.00553 0.59573 1.02292
 N839 N 0.00923 0.61279 1.01161
 N840 N 0.01207 0.63373 1.02544
 C841 C 0.00518 0.65985 1.06740
 C842 C 0.00996 0.67769 1.08136
 C843 C -0.00577 0.57198 1.01053
 C844 C -0.00434 0.55155 1.00188
 C845 C 0.49914 0.63869 -0.05065
 N846 N 0.51412 0.62174 -0.06175
 N847 N 0.51688 0.60077 -0.04791
 C848 C 0.50486 0.59613 -0.02246
 N849 N 0.48999 0.61314 -0.01129
 N850 N 0.48722 0.63411 -0.02512
 C851 C 0.49441 0.66035 -0.06696
 C852 C 0.48972 0.67822 -0.08096
 C853 C 0.50505 0.57237 -0.01007
 C854 C 0.50362 0.55192 -0.00143
 C855 C -0.00121 1.13827 0.44905
 N856 N -0.01295 1.13378 0.47474
 N857 N -0.01017 1.11282 0.48858
 C858 C 0.00453 1.09573 0.47728
 N859 N 0.01636 1.10027 0.45167
 N860 N 0.01359 1.12123 0.43781
 C861 C -0.00597 1.15993 0.43275
 C862 C -0.01069 1.17781 0.41877
 C863 C 0.00473 1.07198 0.48973
 C864 C 0.00329 1.05155 0.49846
 C865 C 0.78763 0.65274 0.88595
 N866 N 0.78343 0.64712 0.85727
 N867 N 0.78156 0.66439 0.83701
 C868 C 0.78392 0.68779 0.84479
 N869 N 0.78827 0.69340 0.87344
 N870 N 0.79015 0.67613 0.89370
 C871 C 0.78712 0.63448 0.90828
 C872 C 0.78584 0.61966 0.92763
 C873 C 0.77844 0.70633 0.82390
 C874 C 0.77194 0.72140 0.80657
 C875 C 0.28819 0.15290 0.38687
 N876 N 0.28396 0.14720 0.35822
 N877 N 0.28193 0.16444 0.33792
 C878 C 0.28414 0.18787 0.34565
 N879 N 0.28851 0.19354 0.37427
 N880 N 0.29055 0.17632 0.39457
 C881 C 0.28782 0.13467 0.40924
 C882 C 0.28661 0.11986 0.42860
 C883 C 0.27851 0.20633 0.32473
 C884 C 0.27192 0.22134 0.30738
 C885 C 0.71205 0.34648 0.38602
 N886 N 0.70993 0.32306 0.39387
 N887 N 0.71226 0.30579 0.37373
 C888 C 0.71668 0.31142 0.34509
 N889 N 0.71865 0.33485 0.33720
 N890 N 0.71633 0.35213 0.35735
 C891 C 0.71208 0.36479 0.40824
 C892 C 0.71300 0.37967 0.42751
 C893 C 0.72252 0.29295 0.32432
 C894 C 0.72925 0.27795 0.30708
 C895 C 0.21217 0.84672 0.88628
 N896 N 0.20984 0.82329 0.89396
 N897 N 0.21192 0.80610 0.87367
 C898 C 0.21631 0.81183 0.84506
 N899 N 0.21849 0.83528 0.83734
 N900 N 0.21641 0.85247 0.85764
 C901 C 0.21247 0.86491 0.90865
 C902 C 0.21361 0.87969 0.92803
 C903 C 0.22197 0.79341 0.82413
 C904 C 0.22858 0.77845 0.80679
 C905 C 0.28790 0.84704 0.11287
 N906 N 0.29043 0.82360 0.10538
 N907 N 0.28831 0.80646 0.12577
 C908 C 0.28368 0.81226 0.15429
 N909 N 0.28130 0.83571 0.16182
 N910 N 0.28342 0.85286 0.14142
 C911 C 0.28764 0.86516 0.09036
 C912 C 0.28654 0.87987 0.07087
 C913 C 0.27800 0.79386 0.17529
 C914 C 0.27139 0.77889 0.19267
 C915 C 0.78706 0.34728 0.61476
 N916 N 0.78968 0.32389 0.60710
 N917 N 0.78760 0.30664 0.62736
 C918 C 0.78291 0.31228 0.65591
 N919 N 0.78044 0.33568 0.66361
 N920 N 0.78251 0.35294 0.64335
 C921 C 0.78678 0.36551 0.59239
 C922 C 0.78570 0.38030 0.57300
 C923 C 0.77728 0.29376 0.67676
 C924 C 0.77070 0.27868 0.69403
 C925 C 0.21158 0.15394 0.61346
 N926 N 0.21550 0.14825 0.64220
 N927 N 0.21753 0.16549 0.66244
 C928 C 0.21562 0.18893 0.65457
 N929 N 0.21156 0.19460 0.62587
 N930 N 0.20953 0.17736 0.60563
 C931 C 0.21192 0.13567 0.59120
 C932 C 0.21307 0.12080 0.57193
 C933 C 0.22124 0.20738 0.67548
 C934 C 0.22783 0.22235 0.69285
 C935 C 0.71179 0.65376 0.11312
 N936 N 0.71618 0.64800 0.14174
 N937 N 0.71848 0.66520 0.16200
 C938 C 0.71639 0.68865 0.15426
 N939 N 0.71187 0.69439 0.12568
 N940 N 0.70956 0.67719 0.10543
 C941 C 0.71184 0.63554 0.09078
 C942 C 0.71278 0.62074 0.07143
 C943 C 0.72223 0.70706 0.17514
 C944 C 0.72894 0.72203 0.19244
 C945 C 0.20122 0.60431 0.19683
 N946 N 0.18810 0.62383 0.18907
 N947 N 0.19727 0.64581 0.19190
 C948 C 0.21982 0.64892 0.20257
 N949 N 0.23297 0.62939 0.21020
 N950 N 0.22380 0.60741 0.20736
 C951 C 0.19047 0.58093 0.19696
 C952 C 0.18132 0.56139 0.19873
 C953 C 0.22856 0.67257 0.20873
 C954 C 0.23505 0.69248 0.21528
 C955 C 0.70039 0.10421 0.69649
 N956 N 0.68729 0.12382 0.68903
 N957 N 0.69650 0.14576 0.69214
 C958 C 0.71907 0.14873 0.70281
 N959 N 0.73220 0.12912 0.71014
 N960 N 0.72300 0.10718 0.70702
 C961 C 0.68960 0.08085 0.69637
 C962 C 0.68041 0.06132 0.69795
 C963 C 0.72786 0.17231 0.70926
 C964 C 0.73438 0.19217 0.71602
 C965 C 0.79937 0.10325 0.30223
 N966 N 0.77683 0.10645 0.29160
 N967 N 0.76769 0.12846 0.28894
 C968 C 0.78083 0.14792 0.29684
 N969 N 0.80334 0.14471 0.30759
 N970 N 0.81248 0.12271 0.31025
 C971 C 0.81007 0.07986 0.30199
 C972 C 0.81920 0.06030 0.30020
 C973 C 0.77213 0.17162 0.29087
 C974 C 0.76567 0.19157 0.28445
 C975 C 0.29955 0.60410 0.80195
 N976 N 0.27693 0.60713 0.79147
 N977 N 0.26763 0.62906 0.78881
 C978 C 0.28068 0.64863 0.79656
 N979 N 0.30326 0.64560 0.80716
 N980 N 0.31256 0.62366 0.80982
 C981 C 0.31040 0.58078 0.80170
 C982 C 0.31963 0.56128 0.79989
 C983 C 0.27179 0.67226 0.79057
 C984 C 0.26520 0.69217 0.78413
 C985 C 0.29873 0.39654 0.69665
 N986 N 0.31162 0.37692 0.68878
 N987 N 0.30233 0.35501 0.69183
 C988 C 0.27987 0.35207 0.70284
 N989 N 0.26694 0.37169 0.71059
 N990 N 0.27623 0.39360 0.70754
 C991 C 0.30962 0.41985 0.69648
 C992 C 0.31890 0.43935 0.69797
 C993 C 0.27099 0.32848 0.70913
 C994 C 0.26440 0.30860 0.71572
 C995 C 0.79946 0.89653 0.19649
 N996 N 0.81257 0.87700 0.18880
 N997 N 0.80338 0.85502 0.19163
 C998 C 0.78082 0.85192 0.20224
 N999 N 0.76767 0.87145 0.20982
 N1000 N 0.77686 0.89343 0.20698
 C1001 C 0.81021 0.91990 0.19661
 C1002 C 0.81938 0.93944 0.19835
 C1003 C 0.77204 0.82827 0.20840
 C1004 C 0.76552 0.80836 0.21494
 C1005 C 0.70117 0.89575 0.80265
 N1006 N 0.72371 0.89281 0.79188
 N1007 N 0.73303 0.87090 0.78905
 C1008 C 0.72009 0.85129 0.79691
 N1009 N 0.69760 0.85423 0.80780
 N1010 N 0.68828 0.87614 0.81063
 C1011 C 0.69026 0.91904 0.80256
 C1012 C 0.68095 0.93851 0.80085
 C1013 C 0.72897 0.82770 0.79073
 C1014 C 0.73554 0.80782 0.78416
 C1015 C 0.20155 0.39577 0.30375
 N1016 N 0.22413 0.39274 0.29319
 N1017 N 0.23332 0.37078 0.29023
 C1018 C 0.22018 0.35121 0.29776
 N1019 N 0.19764 0.35425 0.30846
 N1020 N 0.18846 0.37620 0.31141
 C1021 C 0.19079 0.41913 0.30374
 C1022 C 0.18161 0.43866 0.30206
 C1023 C 0.22895 0.32759 0.29150
 C1024 C 0.23546 0.30771 0.28488
 C1025 C 0.11134 0.25110 0.80029
 N1026 N 0.11588 0.26320 0.77486
 N1027 N 0.13682 0.26052 0.76098
 C1028 C 0.15383 0.24554 0.77199
 N1029 N 0.14923 0.23334 0.79734
 N1030 N 0.12829 0.23603 0.81122
 C1031 C 0.08973 0.25576 0.81668
 C1032 C 0.07191 0.26040 0.83075
 C1033 C 0.17758 0.24544 0.75961
 C1034 C 0.19802 0.24694 0.75099
 C1035 C 0.61246 0.75079 0.29954
 N1036 N 0.61699 0.76270 0.27397
 N1037 N 0.63799 0.76003 0.26021
 C1038 C 0.65507 0.74526 0.27149
 N1039 N 0.65047 0.73325 0.29697
 N1040 N 0.62948 0.73592 0.31074
 C1041 C 0.59078 0.75545 0.31578
 C1042 C 0.57290 0.76010 0.32973
 C1043 C 0.67884 0.74518 0.25917
 C1044 C 0.69928 0.74669 0.25057
 C1045 C 0.61279 0.24929 0.19973
 N1046 N 0.62988 0.26403 0.18842
 N1047 N 0.65088 0.26670 0.20219
 C1048 C 0.65542 0.25483 0.22779
 N1049 N 0.63828 0.24019 0.23917
 N1050 N 0.61727 0.23751 0.22540
 C1051 C 0.59108 0.24463 0.18351
 C1052 C 0.57317 0.23999 0.16960
 C1053 C 0.67919 0.25492 0.24015
 C1054 C 0.69962 0.25339 0.24881
 C1055 C 0.11190 0.74924 0.69987
 N1056 N 0.12888 0.76408 0.68853
 N1057 N 0.14990 0.76684 0.70223
 C1058 C 0.15456 0.75496 0.72779
 N1059 N 0.13752 0.74022 0.73920
 N1060 N 0.11650 0.73746 0.72551
 C1061 C 0.09017 0.74449 0.68372
 C1062 C 0.07225 0.73978 0.66986
 C1063 C 0.17836 0.75515 0.74007
 C1064 C 0.19882 0.75371 0.74865
 C1065 C 0.88855 0.75086 0.69938
 N1066 N 0.87155 0.73600 0.68814
 N1067 N 0.85058 0.73320 0.70195
 C1068 C 0.84600 0.74507 0.72750
 N1069 N 0.86306 0.75983 0.73880
 N1070 N 0.88403 0.76263 0.72501
 C1071 C 0.91022 0.75565 0.68311
 C1072 C 0.92808 0.76040 0.66916
 C1073 C 0.82224 0.74486 0.73987
 C1074 C 0.80180 0.74630 0.74850
 C1075 C 0.38847 0.25084 0.20017
 N1076 N 0.37152 0.23588 0.18901
 N1077 N 0.35056 0.23307 0.20283
 C1078 C 0.34594 0.24501 0.22832
 N1079 N 0.36295 0.25987 0.23955
 N1080 N 0.38391 0.26269 0.22574
 C1081 C 0.41012 0.25564 0.18389
 C1082 C 0.42798 0.26037 0.16991
 C1083 C 0.32218 0.24478 0.24068
 C1084 C 0.30174 0.24620 0.24930
 C1085 C 0.38806 0.74962 0.29967
 N1086 N 0.38349 0.73794 0.27398
 N1087 N 0.36249 0.74076 0.26025
 C1088 C 0.34544 0.75545 0.27169
 N1089 N 0.35007 0.76723 0.29730
 N1090 N 0.37107 0.76441 0.31103
 C1091 C 0.40975 0.74479 0.31586
 C1092 C 0.42763 0.74002 0.32976
 C1093 C 0.32165 0.75565 0.25940
 C1094 C 0.30120 0.75419 0.25082
 C1095 C 0.88733 0.24929 0.80107
 N1096 N 0.88279 0.23749 0.77546
 N1097 N 0.86182 0.24026 0.76166
 C1098 C 0.84476 0.25502 0.77295
 N1099 N 0.84936 0.26693 0.79847
 N1100 N 0.87034 0.26416 0.81228
 C1101 C 0.90900 0.24454 0.81733
 C1102 C 0.92688 0.23984 0.83128
 C1103 C 0.82100 0.25519 0.76059
 C1104 C 0.80056 0.25372 0.75198
 C1105 C 0.60618 0.97738 0.61809
 N1106 N 0.61312 0.97894 0.58943
 N1107 N 0.59741 0.97490 0.56777
 C1108 C 0.57432 0.96905 0.57407
 N1109 N 0.56747 0.96723 0.60273
 N1110 N 0.58317 0.97126 0.62440
 C1111 C 0.62181 0.98558 0.64118
 C1112 C 0.63409 0.99382 0.66064
 C1113 C 0.55649 0.97026 0.55127
 C1114 C 0.54165 0.97437 0.53259
 C1115 C 0.10582 0.47698 1.11846
 N1116 N 0.11264 0.47830 1.08975
 N1117 N 0.09678 0.47439 1.06823
 C1118 C 0.07363 0.46893 1.07473
 N1119 N 0.06690 0.46734 1.10346
 N1120 N 0.08276 0.47123 1.12498
 C1121 C 0.12167 0.48509 1.14138
 C1122 C 0.13412 0.49326 1.16070
 C1123 C 0.05572 0.47031 1.05206
 C1124 C 0.04086 0.47459 1.03344
 C1125 C -0.10641 0.02185 1.11839
 N1126 N -0.11327 0.02049 1.08969
 N1127 N -0.09747 0.02452 1.06813
 C1128 C -0.07435 0.03014 1.07458
 N1129 N -0.06757 0.03176 1.10330
 N1130 N -0.08337 0.02775 1.12486
 C1131 C -0.12219 0.01370 1.14136
 C1132 C -0.13459 0.00553 1.16075
 C1133 C -0.05647 0.02895 1.05187
 C1134 C -0.04162 0.02484 1.03321
 C1135 C 0.39382 0.52255 0.61770
 N1136 N 0.38692 0.52104 0.58903
 N1137 N 0.40268 0.52497 0.56740
 C1138 C 0.42580 0.53067 0.57376
 N1139 N 0.43262 0.53245 0.60244
 N1140 N 0.41686 0.52852 0.62407
 C1141 C 0.37809 0.51450 0.64077
 C1142 C 0.36572 0.50640 0.66024
 C1143 C 0.44365 0.52939 0.55101
 C1144 C 0.45850 0.52523 0.53236
 C1145 C 0.39378 0.47801 -0.11836
 N1146 N 0.41678 0.47185 -0.12465
 N1147 N 0.43247 0.46782 -0.10297
 C1148 C 0.42562 0.46966 -0.07431
 N1149 N 0.40254 0.47552 -0.06804
 N1150 N 0.38684 0.47958 -0.08971
 C1151 C 0.37817 0.48621 -0.14148
 C1152 C 0.36591 0.49442 -0.16099
 C1153 C 0.44345 0.47088 -0.05152
 C1154 C 0.45829 0.47504 -0.03285
 C1155 C -0.10675 0.97711 0.38205
 N1156 N -0.08374 0.97100 0.37574
 N1157 N -0.06801 0.96707 0.39741
 C1158 C -0.07482 0.96899 0.42607
 N1159 N -0.09791 0.97482 0.43237
 N1160 N -0.11365 0.97876 0.41071
 C1161 C -0.12240 0.98523 0.35893
 C1162 C -0.13468 0.99340 0.33942
 C1163 C -0.05697 0.97033 0.44882
 C1164 C -0.04211 0.97458 0.46744
 C1165 C 0.10644 0.52302 0.38281
 N1166 N 0.08343 0.52899 0.37631
 N1167 N 0.06760 0.53289 0.39785
 C1168 C 0.07431 0.53107 0.42657
 N1169 N 0.09741 0.52539 0.43305
 N1170 N 0.11324 0.52148 0.41152
 C1171 C 0.12221 0.51491 0.35984
 C1172 C 0.13459 0.50675 0.34045
 C1173 C 0.05638 0.52967 0.44921
 C1174 C 0.04149 0.52537 0.46775
 C1175 C 0.60626 0.02289 -0.11777
 N1176 N 0.58325 0.02906 -0.12400
 N1177 N 0.56760 0.03301 -0.10227
 C1178 C 0.57450 0.03106 -0.07363
 N1179 N 0.59760 0.02518 -0.06742
 N1180 N 0.61325 0.02121 -0.08914
 C1181 C 0.62181 0.01474 -0.14095
 C1182 C 0.63402 0.00654 -0.16048
 C1183 C 0.55672 0.02973 -0.05081
 C1184 C 0.54190 0.02549 -0.03215
 C1185 C 0.63476 0.54312 -0.00909
 N1186 N 0.62979 0.52074 0.00103
 N1187 N 0.60774 0.51169 -0.00155
 C1188 C 0.58999 0.52471 -0.01439
 N1189 N 0.59500 0.54704 -0.02467
 N1190 N 0.61705 0.55609 -0.02209
 C1191 C 0.65745 0.55411 -0.00263
 C1192 C 0.67586 0.56400 0.00431
 C1193 C 0.56562 0.51658 -0.01272
 C1194 C 0.54513 0.51046 -0.00875
 C1195 C 0.13451 1.04225 0.49101
 N1196 N 0.12944 1.01994 0.50128
 N1197 N 0.10735 1.01096 0.49872
 C1198 C 0.08967 1.02400 0.48577
 N1199 N 0.09478 1.04626 0.47533
 N1200 N 0.11687 1.05523 0.47788
 C1201 C 0.15723 1.05318 0.49745
 C1202 C 0.17565 1.06304 0.50437
 C1203 C 0.06526 1.01598 0.48746
 C1204 C 0.04475 1.00996 0.49145
 C1205 C 0.13485 -0.04289 1.00810
 N1206 N 0.11722 -0.05585 1.02127
 N1207 N 0.09518 -0.04681 1.02403
 C1208 C 0.09012 -0.02449 1.01377
 N1209 N 0.10779 -0.01147 1.00077
 N1210 N 0.12983 -0.02051 0.99801
 C1211 C 0.15751 -0.05385 1.00153
 C1212 C 0.17591 -0.06371 0.99454
 C1213 C 0.06574 -0.01636 1.01231
 C1214 C 0.04524 -0.01026 1.00850
 C1215 C 0.63497 0.45740 0.50785
 N1216 N 0.61733 0.44447 0.52104
 N1217 N 0.59529 0.45352 0.52372
 C1218 C 0.59024 0.47582 0.51338
 N1219 N 0.60793 0.48880 0.50036
 N1220 N 0.62996 0.47975 0.49766
 C1221 C 0.65764 0.44641 0.50133
 C1222 C 0.67604 0.43653 0.49438
 C1223 C 0.56586 0.48394 0.51183
 C1224 C 0.54536 0.49004 0.50796
 C1225 C -0.13523 0.45789 0.49132
 N1226 N -0.13012 0.48030 0.50120
 N1227 N -0.10799 0.48917 0.49862
 C1228 C -0.09031 0.47593 0.48603
 N1229 N -0.09545 0.45357 0.47599
 N1230 N -0.11758 0.44471 0.47856
 C1231 C -0.15801 0.44711 0.49781
 C1232 C -0.17649 0.43738 0.50479
 C1233 C -0.06588 0.48388 0.48773
 C1234 C -0.04536 0.48988 0.49172
 C1235 C 0.36547 -0.04271 -0.00901
 N1236 N 0.37040 -0.02032 0.00107
 N1237 N 0.39246 -0.01127 -0.00142
 C1238 C 0.41025 -0.02429 -0.01411
 N1239 N 0.40528 -0.04663 -0.02435
 N1240 N 0.38322 -0.05568 -0.02187
 C1241 C 0.34277 -0.05370 -0.00264
 C1242 C 0.32434 -0.06359 0.00423
 C1243 C 0.43462 -0.01616 -0.01232
 C1244 C 0.45509 -0.01004 -0.00827
 C1245 C 0.36501 1.04181 0.50838
 N1246 N 0.38263 1.05462 0.52177
 N1247 N 0.40467 1.04556 0.52439
 C1248 C 0.40974 1.02337 0.51377
 N1249 N 0.39208 1.01050 0.50054
 N1250 N 0.37004 1.01957 0.49791
 C1251 C 0.34235 1.05286 0.50191
 C1252 C 0.32398 1.06281 0.49497
 C1253 C 0.43413 1.01529 0.51215
 C1254 C 0.45464 1.00925 0.50823
 C1255 C -0.13564 0.54227 1.00815
 N1256 N -0.11807 0.55529 1.02134
 N1257 N -0.09600 0.54633 1.02415
 C1258 C -0.09085 0.52405 1.01392
 N1259 N -0.10846 0.51097 1.00089
 N1260 N -0.13052 0.51992 0.99808
 C1261 C -0.15834 0.55316 1.00149
 C1262 C -0.17674 0.56298 0.99440
 C1263 C -0.06643 0.51602 1.01250
 C1264 C -0.04590 0.50999 1.00873
 C1265 C 0.02748 0.64247 0.57506
 N1266 N 0.04481 0.62557 0.57847
 N1267 N 0.04303 0.60445 0.56480
 C1268 C 0.02393 0.59960 0.54717
 N1269 N 0.00664 0.61652 0.54368
 N1270 N 0.00842 0.63765 0.55735
 C1271 C 0.02866 0.66470 0.59112
 C1272 C 0.02934 0.68323 0.60492
 C1273 C 0.02075 0.57599 0.53500
 C1274 C 0.01738 0.55574 0.52648
 C1275 C 0.52814 0.14283 0.07469
 N1276 N 0.54551 0.12595 0.07790
 N1277 N 0.54362 0.10481 0.06428
 C1278 C 0.52438 0.09994 0.04689
 N1279 N 0.50706 0.11685 0.04360
 N1280 N 0.50894 0.13799 0.05723
 C1281 C 0.52943 0.16506 0.09074
 C1282 C 0.53018 0.18358 0.10454
 C1283 C 0.52111 0.07632 0.03480
 C1284 C 0.51769 0.05606 0.02637
 C1285 C -0.02829 0.14266 0.92652
 N1286 N -0.00913 0.13784 0.94406
 N1287 N -0.00724 0.11669 0.95769
 C1288 C -0.02451 0.09974 0.95433
 N1289 N -0.04372 0.10458 0.93687
 N1290 N -0.04562 0.12574 0.92324
 C1291 C -0.02957 0.16489 0.91042
 C1292 C -0.03029 0.18341 0.89657
 C1293 C -0.02120 0.07609 0.96637
 C1294 C -0.01772 0.05581 0.97472
 C1295 C 0.47209 0.64273 0.42514
 N1296 N 0.49113 0.63799 0.44291
 N1297 N 0.49296 0.61688 0.45664
 C1298 C 0.47574 0.59988 0.45315
 N1299 N 0.45665 0.60465 0.43546
 N1300 N 0.45482 0.62577 0.42172
 C1301 C 0.47089 0.66492 0.40896
 C1302 C 0.47024 0.68342 0.39505
 C1303 C 0.47902 0.57627 0.46530
 C1304 C 0.48246 0.55602 0.47376
 C1305 C 0.52837 0.85693 0.42545
 N1306 N 0.54557 0.87396 0.42202
 N1307 N 0.54369 0.89504 0.43576
 C1308 C 0.52460 0.89972 0.45347
 N1309 N 0.50745 0.88266 0.45698
 N1310 N 0.50933 0.86157 0.44324
 C1311 C 0.52961 0.83479 0.40924
 C1312 C 0.53028 0.81633 0.39530
 C1313 C 0.52126 0.92330 0.46562
 C1314 C 0.51774 0.94353 0.47405
 C1315 C 0.02745 0.35736 0.92631
 N1316 N 0.00838 0.36211 0.94399
 N1317 N 0.00652 0.38323 0.95764
 C1318 C 0.02375 0.40023 0.95416
 N1319 N 0.04287 0.39545 0.93655
 N1320 N 0.04472 0.37432 0.92289
 C1321 C 0.02868 0.33516 0.91021
 C1322 C 0.02936 0.31666 0.89636
 C1323 C 0.02047 0.42384 0.96625
 C1324 C 0.01702 0.44408 0.97468
 C1325 C 0.47240 0.35758 0.07443
 N1326 N 0.49148 0.36243 0.05678
 N1327 N 0.49325 0.38354 0.04305
 C1328 C 0.47592 0.40044 0.04641
 N1329 N 0.45680 0.39557 0.06399
 N1330 N 0.45503 0.37445 0.07773
 C1331 C 0.47124 0.33538 0.09060
 C1332 C 0.47060 0.31687 0.10449
 C1333 C 0.47910 0.42406 0.03423
 C1334 C 0.48247 0.44433 0.02574
 C1335 C -0.02829 0.85735 0.57490
 N1336 N -0.04559 0.87427 0.57828
 N1337 N -0.04378 0.89540 0.56457
 C1338 C -0.02467 0.90023 0.54694
 N1339 N -0.00742 0.88327 0.54349
 N1340 N -0.00923 0.86215 0.55720
 C1341 C -0.02951 0.83512 0.59101
 C1342 C -0.03020 0.81659 0.60485
 C1343 C -0.02145 0.92384 0.53475
 C1344 C -0.01805 0.94409 0.52621
 C1345 C 0.22791 0.35636 0.13250
 N1346 N 0.22182 0.33336 0.12610
 N1347 N 0.21779 0.31759 0.14771
 C1348 C 0.21957 0.32436 0.17640
 N1349 N 0.22538 0.34745 0.18278
 N1350 N 0.22943 0.36322 0.16118
 C1351 C 0.23608 0.37207 0.10945
 C1352 C 0.24425 0.38442 0.09000
 C1353 C 0.22078 0.30647 0.19914
 C1354 C 0.22492 0.29159 0.21779
 C1355 C 0.72762 0.85665 0.63196
 N1356 N 0.72158 0.83365 0.62553
 N1357 N 0.71763 0.81784 0.64711
 C1358 C 0.71945 0.82457 0.67581
 N1359 N 0.72520 0.84766 0.68223
 N1360 N 0.72917 0.86348 0.66065
 C1361 C 0.73575 0.87241 0.60894
 C1362 C 0.74392 0.88478 0.58951
 C1363 C 0.72075 0.80665 0.69851
 C1364 C 0.72495 0.79176 0.71710
 C1365 C 0.27315 0.64373 0.63207
 N1366 N 0.27175 0.63686 0.66077
 N1367 N 0.27571 0.65266 0.68233
 C1368 C 0.28132 0.67579 0.67588
 N1369 N 0.28300 0.68257 0.64717
 N1370 N 0.27905 0.66678 0.62561
 C1371 C 0.26499 0.62798 0.60910
 C1372 C 0.25678 0.61561 0.58972
 C1373 C 0.28000 0.69366 0.69857
 C1374 C 0.27576 0.70851 0.71718
 C1375 C 0.77314 0.14332 0.13235
 N1376 N 0.77178 0.13642 0.16105
 N1377 N 0.77595 0.15215 0.18262
 C1378 C 0.78173 0.17524 0.17619
 N1379 N 0.78336 0.18206 0.14749
 N1380 N 0.77921 0.16633 0.12591
 C1381 C 0.76478 0.12767 0.10939
 C1382 C 0.75641 0.11538 0.09002
 C1383 C 0.78059 0.19311 0.19892
 C1384 C 0.77646 0.20796 0.21756
 C1385 C 0.72648 0.14341 0.86862
 N1386 N 0.72816 0.13652 0.83997
 N1387 N 0.72417 0.15224 0.81830
 C1388 C 0.71826 0.17531 0.82458
 N1389 N 0.71631 0.18212 0.85324
 N1390 N 0.72029 0.16640 0.87492
 C1391 C 0.73468 0.12780 0.89175
 C1392 C 0.74294 0.11555 0.91124
 C1393 C 0.71956 0.19318 0.80183
 C1394 C 0.72377 0.20806 0.78322
 C1395 C 0.22687 0.64378 0.36745
 N1396 N 0.22836 0.63695 0.33876
 N1397 N 0.22445 0.65276 0.31717
 C1398 C 0.21879 0.67587 0.32358
 N1399 N 0.21703 0.68262 0.35228
 N1400 N 0.22093 0.66681 0.37387
 C1401 C 0.23498 0.62801 0.39046
 C1402 C 0.24315 0.61563 0.40987
 C1403 C 0.22014 0.69378 0.30088
 C1404 C 0.22438 0.70866 0.28227
 C1405 C 0.77348 0.85676 0.36716
 N1406 N 0.77948 0.83374 0.37358
 N1407 N 0.78345 0.81798 0.35198
 C1408 C 0.78170 0.82478 0.32329
 N1409 N 0.77599 0.84789 0.31688
 N1410 N 0.77200 0.86365 0.33847
 C1411 C 0.76533 0.87246 0.39017
 C1412 C 0.75713 0.88479 0.40959
 C1413 C 0.78041 0.80692 0.30057
 C1414 C 0.77619 0.79207 0.28195
 C1415 C 0.27240 0.35641 0.86850
 N1416 N 0.27838 0.33335 0.87472
 N1417 N 0.28229 0.31770 0.85299
 C1418 C 0.28047 0.32465 0.82436
 N1419 N 0.27477 0.34780 0.81815
 N1420 N 0.27086 0.36345 0.83988
 C1421 C 0.26433 0.37201 0.89167
 C1422 C 0.25620 0.38426 0.91120
 C1423 C 0.27914 0.30691 0.80150
 C1424 C 0.27490 0.29215 0.78277
 C1425 C 0.79167 0.38464 0.76003
 N1426 N 0.80455 0.36692 0.77314
 N1427 N 0.79546 0.34488 0.77569
 C1428 C 0.77318 0.33990 0.76527
 N1429 N 0.76024 0.35767 0.75234
 N1430 N 0.76933 0.37971 0.74978
 C1431 C 0.80273 0.40729 0.75356
 C1432 C 0.81269 0.42566 0.74658
 C1433 C 0.76505 0.31553 0.76351
 C1434 C 0.75896 0.29505 0.75945
 C1435 C 0.29207 0.88528 0.25846
 N1436 N 0.30493 0.86762 0.27174
 N1437 N 0.29589 0.84555 0.27427
 C1438 C 0.27369 0.84049 0.26366
 N1439 N 0.26077 0.85818 0.25055
 N1440 N 0.26981 0.88025 0.24801
 C1441 C 0.30310 0.90796 0.25203
 C1442 C 0.31305 0.92634 0.24510
 C1443 C 0.26562 0.81609 0.26195
 C1444 C 0.25957 0.79559 0.25798
 C1445 C 0.20781 0.88494 0.74063
 N1446 N 0.23012 0.87995 0.75096
 N1447 N 0.23914 0.85788 0.74853
 C1448 C 0.22616 0.84014 0.73566
 N1449 N 0.20390 0.84516 0.72517
 N1450 N 0.19488 0.86723 0.72759
 C1451 C 0.19683 0.90765 0.74693
 C1452 C 0.18694 0.92607 0.75375
 C1453 C 0.23424 0.81575 0.73744
 C1454 C 0.24032 0.79526 0.74146
 C1455 C 0.70899 0.38457 0.24146
 N1456 N 0.73125 0.37948 0.25190
 N1457 N 0.74022 0.35740 0.24937
 C1458 C 0.72725 0.33975 0.23629
 N1459 N 0.70505 0.34487 0.22569
 N1460 N 0.69608 0.36696 0.22821
 C1461 C 0.69805 0.40729 0.24782
 C1462 C 0.68818 0.42572 0.25465
 C1463 C 0.73527 0.31534 0.23796
 C1464 C 0.74128 0.29482 0.24190
 C1465 C 0.70876 0.61539 0.25820
 N1466 N 0.69570 0.63302 0.27120
 N1467 N 0.70461 0.65513 0.27373
 C1468 C 0.72688 0.66029 0.26340
 N1469 N 0.73999 0.64263 0.25057
 N1470 N 0.73108 0.62051 0.24804
 C1471 C 0.69790 0.59264 0.25179
 C1472 C 0.68810 0.57418 0.24488
 C1473 C 0.73485 0.68471 0.26170
 C1474 C 0.74085 0.70524 0.25772
 C1475 C 0.20708 0.11570 0.75767
 N1476 N 0.19404 0.13330 0.77073
 N1477 N 0.20302 0.15537 0.77349
 C1478 C 0.22535 0.16049 0.76334
 N1479 N 0.23845 0.14285 0.75045
 N1480 N 0.22947 0.12078 0.74768
 C1481 C 0.19620 0.09298 0.75109
 C1482 C 0.18640 0.07455 0.74409
 C1483 C 0.23342 0.18490 0.76188
 C1484 C 0.23950 0.20542 0.75808
 C1485 C 0.29236 0.11492 0.24205
 N1486 N 0.26998 0.11999 0.25203
 N1487 N 0.26106 0.14209 0.24937
 C1488 C 0.27421 0.15977 0.23658
 N1489 N 0.29654 0.15466 0.22644
 N1490 N 0.30546 0.13256 0.22909
 C1491 C 0.30320 0.09216 0.24855
 C1492 C 0.31296 0.07369 0.25550
 C1493 C 0.26620 0.18418 0.23817
 C1494 C 0.26017 0.20470 0.24207
 C1495 C 0.79263 0.61517 0.74143
 N1496 N 0.77023 0.62020 0.75138
 N1497 N 0.76124 0.64226 0.74862
 C1498 C 0.77434 0.65995 0.73578
 N1499 N 0.79669 0.65488 0.72567
 N1500 N 0.80568 0.63282 0.72842
 C1501 C 0.80355 0.59249 0.74808
 C1502 C 0.81337 0.57408 0.75516
 C1503 C 0.76627 0.68434 0.73733
 C1504 C 0.76022 0.70485 0.74124
 C1505 C 0.89351 0.77779 0.17465
 N1506 N 0.88868 0.75888 0.19261
 N1507 N 0.86756 0.75722 0.20632
 C1508 C 0.85065 0.77449 0.20262
 N1509 N 0.85550 0.79345 0.18475
 N1510 N 0.87663 0.79511 0.17103
 C1511 C 0.91571 0.77882 0.15852
 C1512 C 0.93422 0.77935 0.14464
 C1513 C 0.82702 0.77139 0.21478
 C1514 C 0.80676 0.76806 0.22326
 C1515 C 0.39234 0.27831 0.67569
 N1516 N 0.38753 0.25934 0.69356
 N1517 N 0.36641 0.25761 0.70724
 C1518 C 0.34946 0.27485 0.70360
 N1519 N 0.35430 0.29387 0.68581
 N1520 N 0.37543 0.29561 0.67212
 C1521 C 0.41453 0.27940 0.65954
 C1522 C 0.43303 0.27996 0.64566
 C1523 C 0.32583 0.27167 0.71570
 C1524 C 0.30556 0.26828 0.72411
 C1525 C 0.39306 0.72201 0.82444
 N1526 N 0.37617 0.70464 0.82760
 N1527 N 0.35505 0.70653 0.81389
 C1528 C 0.35022 0.72577 0.79647
 N1529 N 0.36715 0.74309 0.79324
 N1530 N 0.38826 0.74121 0.80694
 C1531 C 0.41526 0.72072 0.84059
 C1532 C 0.43376 0.71998 0.85447
 C1533 C 0.32661 0.72906 0.78432
 C1534 C 0.30636 0.73249 0.77584
 C1535 C 0.89368 0.22148 0.32522
 N1536 N 0.87672 0.20421 0.32865
 N1537 N 0.85561 0.20604 0.31491
 C1538 C 0.85085 0.22513 0.29720
 N1539 N 0.86785 0.24235 0.29370
 N1540 N 0.88896 0.24052 0.30744
 C1541 C 0.91589 0.22025 0.34137
 C1542 C 0.93440 0.21956 0.35525
 C1543 C 0.82726 0.22838 0.28498
 C1544 C 0.80703 0.23181 0.27644
 C1545 C 0.10738 0.27742 0.32475
 N1546 N 0.12426 0.29478 0.32818
 N1547 N 0.14540 0.29304 0.31454
 C1548 C 0.15030 0.27395 0.29693
 N1549 N 0.13339 0.25664 0.29343
 N1550 N 0.11225 0.25838 0.30707
 C1551 C 0.08514 0.27855 0.34080
 C1552 C 0.06660 0.27919 0.35460
 C1553 C 0.17394 0.27080 0.28483
 C1554 C 0.19420 0.26745 0.27639
 C1555 C 0.60763 0.77777 0.82439
 N1556 N 0.62454 0.79511 0.82769
 N1557 N 0.64564 0.79333 0.81395
 C1558 C 0.65045 0.77421 0.79636
 N1559 N 0.63351 0.75692 0.79298
 N1560 N 0.61241 0.75870 0.80672
 C1561 C 0.58545 0.77895 0.84056
 C1562 C 0.56697 0.77959 0.85447
 C1563 C 0.67405 0.77100 0.78418
 C1564 C 0.69429 0.76761 0.77569
 C1565 C 0.60644 0.22157 0.67613
 N1566 N 0.61110 0.24062 0.69389
 N1567 N 0.63221 0.24253 0.70761
 C1568 C 0.64926 0.22538 0.70412
 N1569 N 0.64456 0.20628 0.68645
 N1570 N 0.62346 0.20437 0.67272
 C1571 C 0.58427 0.22030 0.65994
 C1572 C 0.56579 0.21962 0.64602
 C1573 C 0.67285 0.22873 0.71627
 C1574 C 0.69309 0.23223 0.72474
 C1575 C 0.10698 0.72161 0.17536
 N1576 N 0.11165 0.74072 0.19301
 N1577 N 0.13279 0.74273 0.20662
 C1578 C 0.14988 0.72561 0.20312
 N1579 N 0.14518 0.70645 0.18555
 N1580 N 0.12404 0.70445 0.17194
 C1581 C 0.08474 0.72022 0.15931
 C1582 C 0.06620 0.71943 0.14552
 C1583 C 0.17349 0.72904 0.21520
 C1584 C 0.19373 0.73259 0.22363
   
