data_POSCAR
  _audit_creation_date              2014-09-24
  _audit_creation_method            'ToBaCCo'
  _symmetry_space_group_name_H-M    'P1'
  _symmetry_Int_Tables_number       1
  _symmetry_cell_setting            triclinic
  loop_
  _symmetry_equiv_pos_as_xyz
 x,y,z
_cell_length_a 79.5183
_cell_length_b 79.5030
_cell_length_c 79.5373
_cell_angle_alpha 89.999400
_cell_angle_beta 89.956200
_cell_angle_gamma 90.022000
loop_
  _atom_site_label
  _atom_site_type_symbol
  _atom_site_fract_x
  _atom_site_fract_y
  _atom_site_fract_z
C1 C 0.35857 0.33680 0.33700
 C2 C 0.35127 0.35126 0.32991
 C3 C 0.33682 0.35857 0.33700
 C4 C 0.32973 0.35128 0.35146
 C5 C 0.33681 0.33683 0.35877
 C6 C 0.35126 0.32973 0.35146
 H7 H 0.35677 0.35675 0.31872
 H8 H 0.31856 0.35679 0.35696
 H9 H 0.35675 0.31855 0.35696
 C10 C 0.35866 0.83674 -0.16387
 C11 C 0.35126 0.85121 -0.17095
 C12 C 0.33675 0.85854 -0.16388
 C13 C 0.32974 0.85119 -0.14936
 C14 C 0.33688 0.83678 -0.14205
 C15 C 0.35133 0.82971 -0.14935
 H16 H 0.35675 0.85672 -0.18213
 H17 H 0.31856 0.85659 -0.14376
 H18 H 0.35679 0.81857 -0.14374
 C19 C 0.85822 0.33715 -0.16350
 C20 C 0.85092 0.33008 -0.14904
 C21 C 0.83648 0.33717 -0.14173
 C22 C 0.82938 0.35162 -0.14903
 C23 C 0.83642 0.35896 -0.16355
 C24 C 0.85092 0.35159 -0.17061
 H25 H 0.85642 0.31891 -0.14354
 H26 H 0.81821 0.35705 -0.14344
 H27 H 0.85651 0.35700 -0.18179
 C28 C 0.85836 0.83711 0.33663
 C29 C 0.85102 0.85152 0.32949
 C30 C 0.83650 0.85886 0.33652
 C31 C 0.82948 0.85153 0.35106
 C32 C 0.83662 0.83712 0.35840
 C33 C 0.85108 0.83006 0.35110
 H34 H 0.85659 0.85692 0.31829
 H35 H 0.81829 0.85694 0.35664
 H36 H 0.85661 0.81892 0.35663
 C37 C 0.64140 0.66329 0.33708
 C38 C 0.64869 0.64882 0.33000
 C39 C 0.66312 0.64149 0.33710
 C40 C 0.67020 0.64880 0.35156
 C41 C 0.66313 0.66327 0.35885
 C42 C 0.64870 0.67037 0.35153
 H43 H 0.64320 0.64332 0.31883
 H44 H 0.68136 0.64328 0.35706
 H45 H 0.64321 0.68156 0.35702
 C46 C 0.64156 0.16295 -0.16341
 C47 C 0.64883 0.17002 -0.14895
 C48 C 0.66330 0.16298 -0.14168
 C49 C 0.67045 0.14857 -0.14901
 C50 C 0.66344 0.14122 -0.16353
 C51 C 0.64891 0.14854 -0.17055
 H52 H 0.64329 0.18116 -0.14342
 H53 H 0.68164 0.14318 -0.14344
 H54 H 0.64334 0.14312 -0.18173
 C55 C 0.14161 0.66298 -0.16344
 C56 C 0.14891 0.67005 -0.14900
 C57 C 0.16334 0.66295 -0.14170
 C58 C 0.17043 0.64850 -0.14900
 C59 C 0.16339 0.64115 -0.16350
 C60 C 0.14890 0.64852 -0.17055
 H61 H 0.14342 0.68123 -0.14349
 H62 H 0.18159 0.64307 -0.14341
 H63 H 0.14331 0.64311 -0.18172
 C64 C 0.14140 0.16318 0.33684
 C65 C 0.14872 0.14874 0.32974
 C66 C 0.16316 0.14143 0.33683
 C67 C 0.17021 0.14871 0.35130
 C68 C 0.16311 0.16315 0.35863
 C69 C 0.14867 0.17025 0.35132
 H70 H 0.14325 0.14326 0.31854
 H71 H 0.18138 0.14320 0.35681
 H72 H 0.14316 0.18141 0.35683
 C73 C 0.64147 0.33681 0.66320
 C74 C 0.64878 0.35127 0.67029
 C75 C 0.66325 0.35857 0.66322
 C76 C 0.67035 0.35125 0.64877
 C77 C 0.66327 0.33680 0.64147
 C78 C 0.64879 0.32972 0.64876
 H79 H 0.64327 0.35677 0.68146
 H80 H 0.68154 0.35675 0.64328
 H81 H 0.64330 0.31854 0.64326
 C82 C 0.64143 0.83677 1.16373
 C83 C 0.64881 0.85125 1.17082
 C84 C 0.66331 0.85862 1.16375
 C85 C 0.67032 0.85130 1.14922
 C86 C 0.66320 0.83689 1.14189
 C87 C 0.64876 0.82977 1.14920
 H88 H 0.64332 0.85673 1.18202
 H89 H 0.68148 0.85674 1.14361
 H90 H 0.64331 0.81863 1.14358
 C91 C 0.14111 0.33655 1.16348
 C92 C 0.14846 0.32951 1.14896
 C93 C 0.16290 0.33662 1.14165
 C94 C 0.16999 0.35107 1.14894
 C95 C 0.16292 0.35836 1.16339
 C96 C 0.14847 0.35106 1.17052
 H97 H 0.14303 0.31834 1.14338
 H98 H 0.18116 0.35657 1.14342
 H99 H 0.14306 0.35665 1.18169
 C100 C 0.14149 0.83662 0.66366
 C101 C 0.14888 0.85110 0.67075
 C102 C 0.16338 0.85846 0.66368
 C103 C 0.17040 0.85113 0.64916
 C104 C 0.16327 0.83671 0.64183
 C105 C 0.14883 0.82961 0.64913
 H106 H 0.14338 0.85659 0.68193
 H107 H 0.18157 0.85655 0.64356
 H108 H 0.14338 0.81846 0.64352
 C109 C 0.35857 0.66324 0.66323
 C110 C 0.35125 0.64879 0.67032
 C111 C 0.33681 0.64148 0.66324
 C112 C 0.32974 0.64877 0.64878
 C113 C 0.33684 0.66322 0.64146
 C114 C 0.35129 0.67032 0.64876
 H115 H 0.35674 0.64330 0.68150
 H116 H 0.31857 0.64326 0.64328
 H117 H 0.35679 0.68149 0.64326
 C118 C 0.35839 0.16296 1.16318
 C119 C 0.35109 0.17004 1.14874
 C120 C 0.33664 0.16296 1.14146
 C121 C 0.32953 0.14851 1.14877
 C122 C 0.33658 0.14115 1.16326
 C123 C 0.35109 0.14851 1.17029
 H124 H 0.35660 0.18121 1.14323
 H125 H 0.31836 0.14308 1.14319
 H126 H 0.35667 0.14309 1.18146
 C127 C 0.85855 0.66329 1.16303
 C128 C 0.85124 0.67038 1.14859
 C129 C 0.83678 0.66329 1.14131
 C130 C 0.82969 0.64883 1.14862
 C131 C 0.83678 0.64152 1.16306
 C132 C 0.85124 0.64883 1.17013
 H133 H 0.85675 0.68156 1.14309
 H134 H 0.81851 0.64334 1.14313
 H135 H 0.85674 0.64333 1.18129
 C136 C 0.85870 0.16331 0.66362
 C137 C 0.85132 0.14882 0.67071
 C138 C 0.83683 0.14145 0.66364
 C139 C 0.82983 0.14877 0.64912
 C140 C 0.83695 0.16320 0.64180
 C141 C 0.85138 0.17031 0.64910
 H142 H 0.85681 0.14333 0.68189
 H143 H 0.81868 0.14333 0.64352
 H144 H 0.85682 0.18147 0.64348
 C145 C 0.33670 0.35857 0.66342
 C146 C 0.35115 0.35127 0.67050
 C147 C 0.35846 0.33682 0.66340
 C148 C 0.35116 0.32973 0.64896
 C149 C 0.33671 0.33681 0.64166
 C150 C 0.32961 0.35126 0.64897
 H151 H 0.35664 0.35678 0.68167
 H152 H 0.35667 0.31856 0.64346
 H153 H 0.31844 0.35675 0.64348
 C154 C 0.33719 0.85876 0.16271
 C155 C 0.33010 0.85144 0.14827
 C156 C 0.33719 0.83698 0.14097
 C157 C 0.35165 0.82991 0.14826
 C158 C 0.35895 0.83701 0.16270
 C159 C 0.35165 0.85147 0.16978
 H160 H 0.31892 0.85693 0.14278
 H161 H 0.35715 0.81873 0.14277
 H162 H 0.35714 0.85698 0.18095
 C163 C 0.83688 0.35866 0.16298
 C164 C 0.85134 0.35136 0.17004
 C165 C 0.85865 0.33691 0.16294
 C166 C 0.85134 0.32983 0.14849
 C167 C 0.83688 0.33691 0.14121
 C168 C 0.82979 0.35136 0.14853
 H169 H 0.85684 0.35685 0.18121
 H170 H 0.85684 0.31866 0.14298
 H171 H 0.81861 0.35685 0.14305
 C172 C 0.83718 0.85906 0.66314
 C173 C 0.85164 0.85176 0.67021
 C174 C 0.85894 0.83730 0.66312
 C175 C 0.85162 0.83020 0.64869
 C176 C 0.83716 0.83728 0.64140
 C177 C 0.83008 0.85174 0.64870
 H178 H 0.85715 0.85727 0.68137
 H179 H 0.85711 0.81902 0.64319
 H180 H 0.81890 0.85724 0.64322
 C181 C 0.66324 0.64155 0.66352
 C182 C 0.64878 0.64886 0.67061
 C183 C 0.64148 0.66331 0.66352
 C184 C 0.64879 0.67040 0.64907
 C185 C 0.66325 0.66331 0.64176
 C186 C 0.67033 0.64886 0.64906
 H187 H 0.64328 0.64336 0.68179
 H188 H 0.64330 0.68157 0.64357
 H189 H 0.68150 0.64336 0.64356
 C190 C 0.66314 0.14101 0.16306
 C191 C 0.67024 0.14832 0.14860
 C192 C 0.66316 0.16278 0.14131
 C193 C 0.64870 0.16987 0.14862
 C194 C 0.64139 0.16278 0.16307
 C195 C 0.64868 0.14832 0.17015
 H196 H 0.68141 0.14283 0.14310
 H197 H 0.64321 0.18105 0.14312
 H198 H 0.64318 0.14282 0.18132
 C199 C 0.16318 0.64141 0.16302
 C200 C 0.14873 0.64873 0.17011
 C201 C 0.14144 0.66319 0.16302
 C202 C 0.14876 0.67026 0.14856
 C203 C 0.16320 0.66316 0.14125
 C204 C 0.17028 0.64870 0.14856
 H205 H 0.14322 0.64324 0.18129
 H206 H 0.14327 0.68144 0.14306
 H207 H 0.18145 0.64319 0.14306
 C208 C 0.16294 0.14084 0.66333
 C209 C 0.14847 0.14813 0.67041
 C210 C 0.14117 0.16258 0.66332
 C211 C 0.14849 0.16969 0.64888
 C212 C 0.16295 0.16262 0.64158
 C213 C 0.17004 0.14816 0.64888
 H214 H 0.14296 0.14262 0.68158
 H215 H 0.14299 0.18086 0.64339
 H216 H 0.18123 0.14268 0.64339
 C217 C 0.33690 0.64158 0.33668
 C218 C 0.35135 0.64889 0.32958
 C219 C 0.35865 0.66335 0.33666
 C220 C 0.35135 0.67044 0.35112
 C221 C 0.33690 0.66334 0.35844
 C222 C 0.32981 0.64888 0.35114
 H223 H 0.35684 0.64339 0.31840
 H224 H 0.35685 0.68162 0.35661
 H225 H 0.31864 0.64337 0.35665
 C226 C 0.33668 0.14094 0.83690
 C227 C 0.32956 0.14825 0.85134
 C228 C 0.33664 0.16272 0.85864
 C229 C 0.35110 0.16981 0.85134
 C230 C 0.35843 0.16272 0.83690
 C231 C 0.35114 0.14825 0.82982
 H232 H 0.31838 0.14275 0.85683
 H233 H 0.35659 0.18100 0.85684
 H234 H 0.35666 0.14275 0.81865
 C235 C 0.83699 0.64165 0.83690
 C236 C 0.85144 0.64896 0.82979
 C237 C 0.85873 0.66344 0.83684
 C238 C 0.85140 0.67056 0.85128
 C239 C 0.83695 0.66347 0.85860
 C240 C 0.82988 0.64898 0.85133
 H241 H 0.85695 0.64344 0.81863
 H242 H 0.85689 0.68176 0.85675
 H243 H 0.81871 0.64348 0.85684
 C244 C 0.83691 0.14109 0.33669
 C245 C 0.85135 0.14842 0.32958
 C246 C 0.85866 0.16288 0.33667
 C247 C 0.85137 0.16994 0.35115
 C248 C 0.83693 0.16283 0.35847
 C249 C 0.82984 0.14838 0.35117
 H250 H 0.85684 0.14294 0.31839
 H251 H 0.85687 0.18112 0.35665
 H252 H 0.81868 0.14286 0.35668
 C253 C 0.66319 0.35833 0.33699
 C254 C 0.64874 0.35102 0.32991
 C255 C 0.64144 0.33654 0.33698
 C256 C 0.64875 0.32944 0.35142
 C257 C 0.66320 0.33654 0.35872
 C258 C 0.67028 0.35101 0.35143
 H259 H 0.64324 0.35652 0.31875
 H260 H 0.64326 0.31825 0.35690
 H261 H 0.68145 0.35652 0.35692
 C262 C 0.66307 0.85913 0.83693
 C263 C 0.67015 0.85183 0.85138
 C264 C 0.66304 0.83738 0.85870
 C265 C 0.64858 0.83030 0.85141
 C266 C 0.64128 0.83739 0.83696
 C267 C 0.64861 0.85184 0.82986
 H268 H 0.68133 0.85732 0.85687
 H269 H 0.64307 0.81913 0.85692
 H270 H 0.64312 0.85733 0.81869
 C271 C 0.16274 0.35846 0.83698
 C272 C 0.16982 0.35114 0.85142
 C273 C 0.16274 0.33666 0.85869
 C274 C 0.14831 0.32956 0.85137
 C275 C 0.14101 0.33666 0.83693
 C276 C 0.14831 0.35114 0.82987
 H277 H 0.18098 0.35665 0.85693
 H278 H 0.14282 0.31836 0.85685
 H279 H 0.14281 0.35665 0.81871
 C280 C 0.16323 0.85877 0.33686
 C281 C 0.14877 0.85148 0.32979
 C282 C 0.14144 0.83704 0.33689
 C283 C 0.14872 0.82996 0.35135
 C284 C 0.16318 0.83704 0.35864
 C285 C 0.17030 0.85148 0.35132
 H286 H 0.14329 0.85697 0.31861
 H287 H 0.14320 0.81879 0.35686
 H288 H 0.18148 0.85697 0.35680
 O289 O 0.25195 1.01656 0.22835
 O290 O 0.22886 0.98373 0.25150
 O291 O 0.22883 1.01652 0.25150
 O292 O 0.25197 0.98376 0.22834
 O293 O 0.27163 0.98378 0.24795
 O294 O 0.24849 1.01654 0.27112
 O295 O 0.24852 0.98375 0.27111
 O296 O 0.27161 1.01657 0.24796
 Cu297 Cu 0.23843 1.00014 0.23795
 Cu298 Cu 0.26204 1.00016 0.26151
 C299 C 0.26568 1.02219 0.23425
 C300 C 0.23479 0.97812 0.26521
 C301 C 0.23476 1.02215 0.26522
 C302 C 0.26571 0.97816 0.23423
 O303 O 0.25149 0.51646 0.72884
 O304 O 0.22830 0.48369 0.75197
 O305 O 0.22833 0.51649 0.75195
 O306 O 0.25147 0.48367 0.72886
 O307 O 0.27109 0.48368 0.74852
 O308 O 0.24795 0.51650 0.77160
 O309 O 0.24792 0.48370 0.77163
 O310 O 0.27111 0.51647 0.74849
 Cu311 Cu 0.23793 0.50008 0.73843
 Cu312 Cu 0.26149 0.50009 0.76203
 C313 C 0.26521 0.52208 0.73476
 C314 C 0.23420 0.47808 0.76570
 C315 C 0.23423 0.52212 0.76567
 C316 C 0.26518 0.47805 0.73479
 O317 O 0.72857 0.01593 0.24822
 O318 O 0.75169 -0.01684 0.27136
 O319 O 0.75170 0.01596 0.27132
 O320 O 0.72854 -0.01686 0.24827
 O321 O 0.74818 -0.01689 0.22860
 O322 O 0.77134 0.01593 0.25166
 O323 O 0.77133 -0.01687 0.25170
 O324 O 0.74821 0.01590 0.22856
 Cu325 Cu 0.73815 -0.00045 0.26177
 Cu326 Cu 0.76174 -0.00049 0.23815
 C327 C 0.73449 0.02153 0.23448
 C328 C 0.76541 -0.02247 0.26543
 C329 C 0.76543 0.02157 0.26538
 C330 C 0.73445 -0.02250 0.23454
 O331 O 0.72876 0.51639 0.74851
 O332 O 0.75188 0.48358 0.77158
 O333 O 0.75190 0.51638 0.77161
 O334 O 0.72876 0.48360 0.74847
 O335 O 0.74840 0.48363 0.72881
 O336 O 0.77154 0.51640 0.75195
 O337 O 0.77153 0.48360 0.75192
 O338 O 0.74840 0.51642 0.72885
 Cu339 Cu 0.73835 0.49998 0.76202
 Cu340 Cu 0.76194 0.50001 0.73841
 C341 C 0.73468 0.52203 0.73479
 C342 C 0.76561 0.47796 0.76564
 C343 C 0.76562 0.52201 0.76568
 C344 C 0.73468 0.47800 0.73473
 O345 O 0.25170 0.48360 0.27141
 O346 O 0.22858 0.51636 0.24825
 O347 O 0.22857 0.48357 0.24830
 O348 O 0.25171 0.51639 0.27136
 O349 O 0.27136 0.51636 0.25170
 O350 O 0.24821 0.48353 0.22864
 O351 O 0.24823 0.51633 0.22859
 O352 O 0.27135 0.48357 0.25175
 Cu353 Cu 0.23817 0.49998 0.26180
 Cu354 Cu 0.26176 0.49994 0.23820
 C355 C 0.26542 0.47797 0.26548
 C356 C 0.23451 0.52196 0.23452
 C357 C 0.23448 0.47792 0.23458
 C358 C 0.26544 0.52200 0.26542
 O359 O 0.72880 0.98414 0.75170
 O360 O 0.75197 1.01695 0.72859
 O361 O 0.75197 0.98415 0.72860
 O362 O 0.72880 1.01694 0.75170
 O363 O 0.74841 1.01695 0.77136
 O364 O 0.77158 0.98416 0.74826
 O365 O 0.77158 1.01696 0.74826
 O366 O 0.74841 0.98415 0.77136
 Cu367 Cu 0.73842 1.00054 0.73817
 Cu368 Cu 0.76197 1.00055 0.76178
 C369 C 0.73470 0.97853 0.76543
 C370 C 0.76569 1.02257 0.73453
 C371 C 0.76569 0.97854 0.73453
 C372 C 0.73469 1.02256 0.76542
 O373 O 0.75165 0.51641 0.22872
 O374 O 0.72856 0.48358 0.25188
 O375 O 0.72855 0.51638 0.25190
 O376 O 0.75167 0.48361 0.22872
 O377 O 0.77134 0.48362 0.24832
 O378 O 0.74822 0.51639 0.27150
 O379 O 0.74823 0.48359 0.27149
 O380 O 0.77132 0.51642 0.24833
 Cu381 Cu 0.73813 0.49999 0.23834
 Cu382 Cu 0.76175 0.50001 0.26188
 C383 C 0.76538 0.52204 0.23462
 C384 C 0.73450 0.47796 0.26559
 C385 C 0.73448 0.52200 0.26561
 C386 C 0.76541 0.47800 0.23461
 O387 O 0.24818 -0.01704 0.72862
 O388 O 0.27130 0.01577 0.75174
 O389 O 0.27135 -0.01703 0.75169
 O390 O 0.24815 0.01576 0.72865
 O391 O 0.22853 0.01571 0.74833
 O392 O 0.25173 -0.01708 0.77137
 O393 O 0.25168 0.01571 0.77142
 O394 O 0.22856 -0.01709 0.74830
 Cu395 Cu 0.26172 -0.00063 0.73820
 Cu396 Cu 0.23815 -0.00069 0.76183
 C397 C 0.23447 -0.02269 0.73456
 C398 C 0.26539 0.02136 0.76548
 C399 C 0.26545 -0.02267 0.76542
 C400 C 0.23443 0.02135 0.73460
 O401 O 0.24795 0.27115 0.98364
 O402 O 0.27112 0.24806 1.01640
 O403 O 0.27108 0.24802 0.98362
 O404 O 0.24799 0.27118 1.01642
 O405 O 0.22834 0.25152 1.01647
 O406 O 0.25144 0.22836 0.98367
 O407 O 0.25148 0.22840 1.01645
 O408 O 0.22831 0.25149 0.98369
 Cu409 Cu 0.26151 0.26158 1.00001
 Cu410 Cu 0.23792 0.23797 1.00008
 C411 C 0.23422 0.26522 0.97805
 C412 C 0.26521 0.23434 1.02204
 C413 C 0.26516 0.23428 0.97802
 C414 C 0.23427 0.26526 1.02207
 O415 O 0.24826 0.77151 0.48367
 O416 O 0.27140 0.74836 0.51641
 O417 O 0.27140 0.74839 0.48363
 O418 O 0.24826 0.77148 0.51645
 O419 O 0.22862 0.75182 0.51645
 O420 O 0.25176 0.72873 0.48363
 O421 O 0.25176 0.72870 0.51641
 O422 O 0.22862 0.75185 0.48367
 Cu423 Cu 0.26180 0.76191 0.50004
 Cu424 Cu 0.23822 0.73830 0.50004
 C425 C 0.23454 0.76559 0.47806
 C426 C 0.26548 0.73462 0.52202
 C427 C 0.26548 0.73467 0.47800
 C428 C 0.23454 0.76554 0.52208
 O429 O 0.27157 0.75169 -0.01673
 O430 O 0.24844 0.72858 0.01610
 O431 O 0.24844 0.72855 -0.01668
 O432 O 0.27159 0.75171 0.01605
 O433 O 0.25195 0.77136 0.01606
 O434 O 0.22880 0.74820 -0.01668
 O435 O 0.22880 0.74823 0.01610
 O436 O 0.25193 0.77134 -0.01672
 Cu437 Cu 0.26198 0.73816 -0.00032
 Cu438 Cu 0.23840 0.76176 -0.00031
 C439 C 0.26565 0.76541 -0.02235
 C440 C 0.23472 0.73450 0.02173
 C441 C 0.23471 0.73447 -0.02229
 C442 C 0.26568 0.76544 0.02167
 O443 O 0.27127 0.25162 0.48384
 O444 O 0.24815 0.22842 0.51660
 O445 O 0.24814 0.22847 0.48382
 O446 O 0.27126 0.25159 0.51662
 O447 O 0.25160 0.27122 0.51666
 O448 O 0.22849 0.24811 0.48386
 O449 O 0.22849 0.24805 0.51665
 O450 O 0.25161 0.27125 0.48388
 Cu451 Cu 0.26168 0.23805 0.50022
 Cu452 Cu 0.23807 0.26163 0.50026
 C453 C 0.26534 0.26535 0.47824
 C454 C 0.23442 0.23432 0.52224
 C455 C 0.23441 0.23439 0.47822
 C456 C 0.26533 0.26531 0.52226
 O457 O 0.74816 0.77178 0.98367
 O458 O 0.77128 0.74860 1.01641
 O459 O 0.77130 0.74866 0.98363
 O460 O 0.74816 0.77173 1.01645
 O461 O 0.72851 0.75207 1.01643
 O462 O 0.75165 0.72900 0.98360
 O463 O 0.75163 0.72895 1.01638
 O464 O 0.72851 0.75212 0.98365
 Cu465 Cu 0.76170 0.76217 1.00004
 Cu466 Cu 0.73810 0.73856 1.00002
 C467 C 0.73444 0.76586 0.97805
 C468 C 0.76536 0.73486 1.02200
 C469 C 0.76538 0.73493 0.97799
 C470 C 0.73443 0.76579 1.02207
 O471 O 0.75194 0.22830 0.48373
 O472 O 0.72883 0.25148 0.51651
 O473 O 0.72881 0.25143 0.48373
 O474 O 0.75197 0.22836 0.51651
 O475 O 0.77161 0.24802 0.51645
 O476 O 0.74845 0.27109 0.48367
 O477 O 0.74848 0.27114 0.51645
 O478 O 0.77158 0.24796 0.48367
 Cu479 Cu 0.73841 0.23791 0.50013
 Cu480 Cu 0.76201 0.26152 0.50005
 C481 C 0.76566 0.23422 0.47808
 C482 C 0.73475 0.26522 0.52209
 C483 C 0.73472 0.26515 0.47808
 C484 C 0.76569 0.23429 0.52210
 O485 O 0.77129 0.25180 -0.01658
 O486 O 0.74825 0.22856 0.01622
 O487 O 0.74821 0.22860 -0.01657
 O488 O 0.77133 0.25175 0.01620
 O489 O 0.75164 0.27135 0.01627
 O490 O 0.72852 0.24820 -0.01651
 O491 O 0.72855 0.24816 0.01628
 O492 O 0.75160 0.27140 -0.01651
 Cu493 Cu 0.76175 0.23821 -0.00019
 Cu494 Cu 0.73810 0.26174 -0.00011
 C495 C 0.76533 0.26552 -0.02217
 C496 C 0.73451 0.23443 0.02187
 C497 C 0.73447 0.23449 -0.02215
 C498 C 0.76539 0.26545 0.02185
 O499 O 0.72867 0.74848 0.48383
 O500 O 0.75184 0.77164 0.51656
 O501 O 0.75179 0.77163 0.48378
 O502 O 0.72871 0.74849 0.51661
 O503 O 0.74836 0.72886 0.51658
 O504 O 0.77144 0.75200 0.48374
 O505 O 0.77149 0.75200 0.51652
 O506 O 0.74832 0.72884 0.48380
 Cu507 Cu 0.73828 0.76203 0.50020
 Cu508 Cu 0.76188 0.73845 0.50016
 C509 C 0.73459 0.73475 0.47821
 C510 C 0.76558 0.76573 0.52215
 C511 C 0.76551 0.76572 0.47813
 C512 C 0.73464 0.73477 0.52222
 O513 O 1.01648 0.27148 0.24808
 O514 O 0.98366 0.24830 0.27116
 O515 O 1.01645 0.24834 0.27120
 O516 O 0.98369 0.27145 0.24804
 O517 O 0.98374 0.25180 0.22839
 O518 O 1.01650 0.22870 0.25155
 O519 O 0.98371 0.22866 0.25151
 O520 O 1.01653 0.25183 0.22843
 Cu521 Cu 1.00006 0.26187 0.26159
 Cu522 Cu 1.00012 0.23827 0.23800
 C523 C 1.02213 0.26556 0.23436
 C524 C 0.97806 0.23457 0.26523
 C525 C 1.02209 0.23462 0.26529
 C526 C 0.97810 0.26553 0.23431
 O527 O 0.48353 0.25160 0.72870
 O528 O 0.51632 0.22843 0.75175
 O529 O 0.48353 0.22841 0.75178
 O530 O 0.51632 0.25160 0.72866
 O531 O 0.51633 0.27121 0.74834
 O532 O 0.48354 0.24803 0.77146
 O533 O 0.51633 0.24804 0.77143
 O534 O 0.48354 0.27121 0.74838
 Cu535 Cu 0.49992 0.23804 0.73825
 Cu536 Cu 0.49993 0.26159 0.76188
 C537 C 0.47791 0.26531 0.73465
 C538 C 0.52195 0.23433 0.76548
 C539 C 0.47792 0.23431 0.76552
 C540 C 0.52194 0.26532 0.73460
 O541 O 0.01597 0.25151 0.77131
 O542 O -0.01682 0.22840 0.74819
 O543 O 0.01597 0.22832 0.74824
 O544 O -0.01681 0.25159 0.77126
 O545 O -0.01671 0.27120 0.75157
 O546 O 0.01607 0.24793 0.72855
 O547 O -0.01672 0.24800 0.72850
 O548 O 0.01608 0.27111 0.75163
 Cu549 Cu -0.00043 0.23798 0.76173
 Cu550 Cu -0.00031 0.26153 0.73808
 C551 C 0.02165 0.26521 0.76537
 C552 C -0.02240 0.23430 0.73444
 C553 C 0.02164 0.23420 0.73451
 C554 C -0.02238 0.26532 0.76530
 O555 O 0.48359 0.27118 0.25178
 O556 O 0.51636 0.24802 0.22863
 O557 O 0.48357 0.24807 0.22862
 O558 O 0.51638 0.27113 0.25178
 O559 O 0.51633 0.25146 0.27140
 O560 O 0.48352 0.22839 0.24825
 O561 O 0.51631 0.22835 0.24826
 O562 O 0.48354 0.25151 0.27140
 Cu563 Cu 0.49998 0.26157 0.23823
 Cu564 Cu 0.49992 0.23795 0.26180
 C565 C 0.47795 0.26525 0.26549
 C566 C 0.52195 0.23428 0.23454
 C567 C 0.47793 0.23434 0.23453
 C568 C 0.52198 0.26519 0.26550
 O569 O 0.98395 0.75205 0.72848
 O570 O 1.01667 0.72883 0.75157
 O571 O 0.98388 0.72889 0.75159
 O572 O 1.01674 0.75199 0.72848
 O573 O 1.01677 0.77162 0.74814
 O574 O 0.98392 0.74852 0.77125
 O575 O 1.01671 0.74846 0.77123
 O576 O 0.98398 0.77168 0.74814
 Cu577 Cu 1.00031 0.73847 0.73805
 Cu578 Cu 1.00035 0.76204 0.76167
 C579 C 0.97835 0.76578 0.73441
 C580 C 1.02230 0.73472 0.76530
 C581 C 0.97827 0.73481 0.76532
 C582 C 1.02239 0.76570 0.73441
 O583 O 0.51669 0.77167 0.24812
 O584 O 0.48382 0.74855 0.27118
 O585 O 0.51661 0.74855 0.27126
 O586 O 0.48390 0.77166 0.24803
 O587 O 0.48396 0.75199 0.22840
 O588 O 0.51667 0.72889 0.25164
 O589 O 0.48388 0.72888 0.25156
 O590 O 0.51675 0.75201 0.22850
 Cu591 Cu 0.50024 0.76208 0.26162
 Cu592 Cu 0.50032 0.73846 0.23805
 C593 C 0.52235 0.76574 0.23442
 C594 C 0.47822 0.73481 0.26526
 C595 C 0.52224 0.73482 0.26537
 C596 C 0.47832 0.76572 0.23430
 O597 O 0.01635 0.75192 0.27133
 O598 O -0.01641 0.72880 0.24818
 O599 O 0.01637 0.72879 0.24820
 O600 O -0.01644 0.75194 0.27130
 O601 O -0.01639 0.77159 0.25167
 O602 O 0.01642 0.74845 0.22856
 O603 O -0.01637 0.74846 0.22854
 O604 O 0.01640 0.77158 0.25170
 Cu605 Cu -0.00003 0.73839 0.26173
 Cu606 Cu 0.00002 0.76199 0.23814
 C607 C 0.02199 0.76565 0.26542
 C608 C -0.02201 0.73473 0.23445
 C609 C 0.02202 0.73472 0.23448
 C610 C -0.02204 0.76567 0.26538
 O611 O 0.48347 0.77175 0.75181
 O612 O 0.51632 0.74857 0.72880
 O613 O 0.48354 0.74856 0.72874
 O614 O 0.51626 0.77176 0.75187
 O615 O 0.51621 0.75216 0.77156
 O616 O 0.48348 0.72896 0.74842
 O617 O 0.51627 0.72896 0.74849
 O618 O 0.48342 0.75214 0.77149
 Cu619 Cu 0.49990 0.76213 0.73833
 Cu620 Cu 0.49984 0.73859 0.76197
 C621 C 0.47781 0.76585 0.76553
 C622 C 0.52193 0.73486 0.73476
 C623 C 0.47790 0.73484 0.73468
 C624 C 0.52185 0.76587 0.76562
 N625 N 0.39368 0.30744 0.32843
 C626 C 0.40048 0.31406 0.31428
 N627 N 0.39369 0.32821 0.30764
 N628 N 0.38047 0.33550 0.31493
 C629 C 0.37355 0.32891 0.32911
 N630 N 0.38046 0.31474 0.33571
 C631 C 0.41442 0.30596 0.30617
 C632 C 0.42599 0.29902 0.29925
 C633 C 0.43958 0.29063 0.29086
 N634 N 0.44597 0.29691 0.27635
 N635 N 0.45830 0.28889 0.26833
 C636 C 0.46465 0.27431 0.27454
 N637 N 0.45825 0.26806 0.28910
 N638 N 0.44591 0.27609 0.29712
 N639 N 0.39323 0.80792 0.82809
 C640 C 0.40003 0.81454 0.81395
 N641 N 0.39318 0.82863 0.80726
 N642 N 0.37991 0.83586 0.81449
 C643 C 0.37293 0.82928 0.82867
 N644 N 0.37995 0.81516 0.83532
 C645 C 0.41403 0.80648 0.80590
 C646 C 0.42565 0.79958 0.79903
 C647 C 0.43930 0.79121 0.79071
 N648 N 0.44571 0.79746 0.77620
 N649 N 0.45810 0.78945 0.76824
 C650 C 0.46448 0.77491 0.77453
 N651 N 0.45805 0.76870 0.78908
 N652 N 0.44567 0.77671 0.79704
 N653 N -0.10666 0.30778 0.82801
 C654 C -0.09986 0.31436 0.81384
 N655 N -0.10665 0.32849 0.80716
 N656 N -0.11987 0.33579 0.81443
 C657 C -0.12680 0.32924 0.82863
 N658 N -0.11988 0.31508 0.83527
 C659 C -0.08592 0.30623 0.80577
 C660 C -0.07435 0.29927 0.79887
 C661 C -0.06075 0.29083 0.79052
 N662 N -0.05434 0.29706 0.77600
 N663 N -0.04200 0.28899 0.76802
 C664 C -0.03568 0.27442 0.77430
 N665 N -0.04211 0.26824 0.78887
 N666 N -0.05444 0.27631 0.79684
 N667 N -0.10643 0.80783 0.32819
 C668 C -0.09964 0.81442 0.31401
 N669 N -0.10648 0.82852 0.30732
 N670 N -0.11972 0.83580 0.31457
 C671 C -0.12663 0.82923 0.32877
 N672 N -0.11967 0.81511 0.33543
 C673 C -0.08568 0.80633 0.30594
 C674 C -0.07409 0.79941 0.29904
 C675 C -0.06047 0.79102 0.29068
 N676 N -0.05407 0.79730 0.27618
 N677 N -0.04171 0.78929 0.26818
 C678 C -0.03535 0.77472 0.27442
 N679 N -0.04176 0.76848 0.28897
 N680 N -0.05412 0.77650 0.29696
 N681 N 0.60635 0.69269 0.32846
 C682 C 0.59956 0.68605 0.31432
 N683 N 0.60634 0.67188 0.30771
 N684 N 0.61953 0.66459 0.31501
 C685 C 0.62645 0.67119 0.32917
 N686 N 0.61954 0.68539 0.33576
 C687 C 0.58565 0.69416 0.30620
 C688 C 0.57410 0.70109 0.29925
 C689 C 0.56053 0.70948 0.29083
 N690 N 0.55421 0.70319 0.27631
 N691 N 0.54190 0.71120 0.26825
 C692 C 0.53551 0.72578 0.27446
 N693 N 0.54185 0.73202 0.28903
 N694 N 0.55416 0.72401 0.29708
 N695 N 0.60633 0.19219 0.82817
 C696 C 0.59955 0.18559 0.81401
 N697 N 0.60639 0.17149 0.80732
 N698 N 0.61964 0.16423 0.81456
 C699 C 0.62655 0.17081 0.82875
 N700 N 0.61957 0.18493 0.83541
 C701 C 0.58558 0.19367 0.80595
 C702 C 0.57399 0.20058 0.79907
 C703 C 0.56037 0.20896 0.79072
 N704 N 0.55400 0.20270 0.77621
 N705 N 0.54164 0.21072 0.76822
 C706 C 0.53526 0.22527 0.77449
 N707 N 0.54164 0.23149 0.78906
 N708 N 0.55400 0.22347 0.79703
 N709 N 1.10649 0.67163 0.80726
 C710 C 1.09971 0.68577 0.81393
 N711 N 1.10651 0.69237 0.82808
 N712 N 1.11972 0.68506 0.83533
 C713 C 1.12663 0.67089 0.82870
 N714 N 1.11970 0.66432 0.81452
 C715 C 1.08578 0.69390 0.80586
 C716 C 1.07422 0.70085 0.79895
 C717 C 1.06063 0.70927 0.79059
 N718 N 1.05430 0.72380 0.79689
 N719 N 1.04197 0.73185 0.78889
 C720 C 1.03558 0.72564 0.77433
 N721 N 1.04193 0.71107 0.76808
 N722 N 1.05425 0.70302 0.77607
 N723 N 1.10629 0.19252 0.32828
 C724 C 1.09952 0.18590 0.31412
 N725 N 1.10633 0.17176 0.30748
 N726 N 1.11953 0.16448 0.31477
 C727 C 1.12643 0.17107 0.32895
 N728 N 1.11949 0.18524 0.33556
 C729 C 1.08558 0.19400 0.30602
 C730 C 1.07402 0.20092 0.29908
 C731 C 1.06044 0.20930 0.29068
 N732 N 1.05411 0.20302 0.27615
 N733 N 1.04178 0.21102 0.26812
 C734 C 1.03537 0.22558 0.27435
 N735 N 1.04172 0.23182 0.28892
 N736 N 1.05405 0.22381 0.29695
 N737 N 0.60630 0.32827 0.69251
 C738 C 0.59950 0.31412 0.68588
 N739 N 0.60631 0.30748 0.67174
 N740 N 0.61955 0.31475 0.66448
 C741 C 0.62647 0.32893 0.67108
 N742 N 0.61953 0.33554 0.68524
 C743 C 0.58554 0.30602 0.69397
 C744 C 0.57396 0.29909 0.70089
 C745 C 0.56035 0.29070 0.70927
 N746 N 0.55397 0.27619 0.70297
 N747 N 0.54162 0.26817 0.71098
 C748 C 0.53525 0.27438 0.72556
 N749 N 0.54164 0.28894 0.73181
 N750 N 0.55399 0.29696 0.72380
 N751 N 0.60691 0.80787 0.17176
 C752 C 0.60011 0.81446 0.18592
 N753 N 0.60694 0.82856 0.19262
 N754 N 0.62020 0.83582 0.18539
 C755 C 0.62718 0.82927 0.17119
 N756 N 0.62017 0.81514 0.16454
 C757 C 0.58612 0.80637 0.19397
 C758 C 0.57451 0.79945 0.20085
 C759 C 0.56086 0.79108 0.20918
 N760 N 0.55444 0.79737 0.22367
 N761 N 0.54205 0.78936 0.23165
 C762 C 0.53569 0.77478 0.22541
 N763 N 0.54213 0.76854 0.21087
 N764 N 0.55452 0.77655 0.20290
 N765 N 1.10663 0.32842 0.19240
 C766 C 1.09981 0.31429 0.18576
 N767 N 1.10661 0.30765 0.17162
 N768 N 1.11987 0.31491 0.16437
 C769 C 1.12686 0.32907 0.17097
 N770 N 1.11988 0.33567 0.18514
 C771 C 1.08583 0.30622 0.19383
 C772 C 1.07422 0.29931 0.20073
 C773 C 1.06059 0.29093 0.20909
 N774 N 1.05424 0.27641 0.20280
 N775 N 1.04187 0.26839 0.21078
 C776 C 1.03545 0.27462 0.22534
 N777 N 1.04182 0.28919 0.23158
 N778 N 1.05419 0.29721 0.22359
 N779 N 1.10698 0.82844 0.69253
 C780 C 1.10015 0.81434 0.68584
 N781 N 1.10695 0.80774 0.67169
 N782 N 1.12022 0.81500 0.66447
 C783 C 1.12723 0.82913 0.67112
 N784 N 1.12025 0.83569 0.68530
 C785 C 1.08615 0.80626 0.69389
 C786 C 1.07454 0.79936 0.70077
 C787 C 1.06089 0.79100 0.70913
 N788 N 1.05449 0.77650 0.70283
 N789 N 1.04211 0.76850 0.71082
 C790 C 1.03572 0.77474 0.72538
 N791 N 1.04213 0.78928 0.73163
 N792 N 1.05451 0.79728 0.72364
 N793 N 0.39369 0.69260 0.67177
 C794 C 0.40047 0.68598 0.68592
 N795 N 0.39366 0.67184 0.69257
 N796 N 0.38045 0.66455 0.68529
 C797 C 0.37355 0.67114 0.67111
 N798 N 0.38048 0.68531 0.66450
 C799 C 0.41441 0.69409 0.69402
 C800 C 0.42597 0.70103 0.70094
 C801 C 0.43956 0.70943 0.70933
 N802 N 0.44589 0.70319 0.72387
 N803 N 0.45822 0.71122 0.73188
 C804 C 0.46462 0.72577 0.72563
 N805 N 0.45828 0.73197 0.71104
 N806 N 0.44595 0.72394 0.70303
 N807 N 0.39356 0.17154 0.19245
 C808 C 0.40036 0.18568 0.18580
 N809 N 0.39355 0.19231 0.17166
 N810 N 0.38031 0.18503 0.16441
 C811 C 0.37339 0.17085 0.17103
 N812 N 0.38033 0.16426 0.18519
 C813 C 0.41431 0.19378 0.19387
 C814 C 0.42590 0.20070 0.20078
 C815 C 0.43951 0.20906 0.20917
 N816 N 0.44590 0.22358 0.20290
 N817 N 0.45825 0.23157 0.21092
 C818 C 0.46461 0.22532 0.22547
 N819 N 0.45821 0.21075 0.23169
 N820 N 0.44585 0.20276 0.22367
 N821 N -0.10631 0.67184 0.19233
 C822 C -0.09951 0.68599 0.18570
 N823 N -0.10631 0.69263 0.17156
 N824 N -0.11953 0.68535 0.16430
 C825 C -0.12646 0.67117 0.17090
 N826 N -0.11953 0.66456 0.18506
 C827 C -0.08556 0.69409 0.19378
 C828 C -0.07399 0.70101 0.20070
 C829 C -0.06039 0.70939 0.20909
 N830 N -0.05400 0.72391 0.20282
 N831 N -0.04166 0.73192 0.21083
 C832 C -0.03531 0.72568 0.22540
 N833 N -0.04170 0.71112 0.23162
 N834 N -0.05404 0.70311 0.22360
 N835 N -0.10681 0.19223 0.67166
 C836 C -0.10002 0.18563 0.68582
 N837 N -0.10685 0.17152 0.69250
 N838 N -0.12009 0.16425 0.68527
 C839 C -0.12706 0.17081 0.67108
 N840 N -0.12005 0.18496 0.66444
 C841 C -0.08604 0.19372 0.69387
 C842 C -0.07445 0.20063 0.70076
 C843 C -0.06083 0.20900 0.70913
 N844 N -0.05450 0.20273 0.72366
 N845 N -0.04214 0.21073 0.73167
 C846 C -0.03571 0.22527 0.72540
 N847 N -0.04205 0.23149 0.71082
 N848 N -0.05441 0.22349 0.70282
 N849 N 0.32828 0.39369 0.30764
 C850 C 0.31414 0.40049 0.31428
 N851 N 0.30750 0.39371 0.32844
 N852 N 0.31478 0.38049 0.33572
 C853 C 0.32895 0.37355 0.32911
 N854 N 0.33555 0.38047 0.31493
 C855 C 0.30605 0.41444 0.30618
 C856 C 0.29913 0.42600 0.29925
 C857 C 0.29075 0.43960 0.29086
 N858 N 0.27624 0.44598 0.29714
 N859 N 0.26823 0.45831 0.28912
 C860 C 0.27446 0.46467 0.27454
 N861 N 0.28903 0.45828 0.26831
 N862 N 0.29704 0.44595 0.27633
 N863 N 0.32848 -0.10701 0.80723
 C864 C 0.31435 -0.10023 0.81391
 N865 N 0.30775 -0.10705 0.82806
 N866 N 0.31505 -0.12028 0.83529
 C867 C 0.32922 -0.12723 0.82865
 N868 N 0.33578 -0.12024 0.81447
 C869 C 0.30623 -0.08627 0.80587
 C870 C 0.29929 -0.07469 0.79898
 C871 C 0.29088 -0.06108 0.79064
 N872 N 0.27636 -0.05475 0.79696
 N873 N 0.26832 -0.04240 0.78899
 C874 C 0.27453 -0.03598 0.77443
 N875 N 0.28909 -0.04233 0.76815
 N876 N 0.29713 -0.05468 0.77613
 N877 N 0.82833 0.39344 0.80755
 C878 C 0.81421 0.40027 0.81421
 N879 N 0.80756 0.39347 0.82835
 N880 N 0.81480 0.38021 0.83559
 C881 C 0.82896 0.37321 0.82897
 N882 N 0.83556 0.38019 0.81480
 C883 C 0.80615 0.41426 0.80615
 C884 C 0.79926 0.42586 0.79925
 C885 C 0.79090 0.43950 0.79090
 N886 N 0.77639 0.44587 0.79720
 N887 N 0.76840 0.45824 0.78922
 C888 C 0.77464 0.46464 0.77466
 N889 N 0.78920 0.45825 0.76841
 N890 N 0.79719 0.44588 0.77640
 N891 N 0.82829 -0.10675 0.30755
 C892 C 0.81415 -0.09996 0.31419
 N893 N 0.80753 -0.10675 0.32834
 N894 N 0.81481 -0.11996 0.33561
 C895 C 0.82898 -0.12693 0.32901
 N896 N 0.83557 -0.11997 0.31483
 C897 C 0.80605 -0.08601 0.30610
 C898 C 0.79913 -0.07444 0.29917
 C899 C 0.79075 -0.06085 0.29079
 N900 N 0.77624 -0.05447 0.29707
 N901 N 0.76822 -0.04213 0.28906
 C902 C 0.77445 -0.03577 0.27448
 N903 N 0.78901 -0.04216 0.26824
 N904 N 0.79702 -0.05450 0.27626
 N905 N 0.32820 0.60637 0.69260
 C906 C 0.31406 0.59956 0.68597
 N907 N 0.30745 0.60635 0.67182
 N908 N 0.31474 0.61956 0.66453
 C909 C 0.32891 0.62650 0.67113
 N910 N 0.33549 0.61959 0.68531
 C911 C 0.30595 0.58562 0.69407
 C912 C 0.29902 0.57405 0.70100
 C913 C 0.29061 0.56046 0.70940
 N914 N 0.27610 0.55409 0.70312
 N915 N 0.26807 0.54175 0.71114
 C916 C 0.27428 0.53538 0.72571
 N917 N 0.28884 0.54176 0.73194
 N918 N 0.29687 0.55410 0.72392
 N919 N 0.32845 1.10667 0.19217
 C920 C 0.31431 1.09985 0.18554
 N921 N 0.30767 1.10666 0.17141
 N922 N 0.31493 1.11991 0.16416
 C923 C 0.32909 1.12690 0.17075
 N924 N 0.33570 1.11992 0.18491
 C925 C 0.30624 1.08587 0.19361
 C926 C 0.29934 1.07428 0.20053
 C927 C 0.29097 1.06065 0.20891
 N928 N 0.27646 1.05427 0.20264
 N929 N 0.26846 1.04190 0.21065
 C930 C 0.27471 1.03552 0.22520
 N931 N 0.28927 1.04191 0.23142
 N932 N 0.29727 1.05428 0.22341
 N933 N 0.82823 0.60638 0.19239
 C934 C 0.81407 0.59959 0.18578
 N935 N 0.80743 0.60639 0.17165
 N936 N 0.81471 0.61961 0.16437
 C937 C 0.82889 0.62654 0.17095
 N938 N 0.83551 0.61961 0.18511
 C939 C 0.80598 0.58564 0.19389
 C940 C 0.79906 0.57406 0.20082
 C941 C 0.79069 0.56045 0.20923
 N942 N 0.77616 0.55408 0.20298
 N943 N 0.76816 0.54173 0.21101
 C944 C 0.77441 0.53535 0.22556
 N945 N 0.78898 0.54174 0.23176
 N946 N 0.79698 0.55409 0.22373
 N947 N 0.82860 1.10700 0.69256
 C948 C 0.81449 1.10018 0.68589
 N949 N 0.80790 1.10697 0.67174
 N950 N 0.81518 1.12021 0.66449
 C951 C 0.82933 1.12721 0.67112
 N952 N 0.83588 1.12024 0.68531
 C953 C 0.80639 1.08621 0.69396
 C954 C 0.79946 1.07462 0.70086
 C955 C 0.79107 1.06100 0.70922
 N956 N 0.77656 1.05462 0.70293
 N957 N 0.76854 1.04227 0.71093
 C958 C 0.77475 1.03589 0.72549
 N959 N 0.78930 1.04228 0.73174
 N960 N 0.79732 1.05463 0.72374
 N961 N 0.67166 0.60634 0.30778
 C962 C 0.68579 0.59953 0.31442
 N963 N 0.69242 0.60632 0.32856
 N964 N 0.68515 0.61956 0.33583
 C965 C 0.67100 0.62650 0.32923
 N966 N 0.66440 0.61957 0.31506
 C967 C 0.69388 0.58557 0.30633
 C968 C 0.70079 0.57399 0.29940
 C969 C 0.70916 0.56039 0.29100
 N970 N 0.72369 0.55403 0.29725
 N971 N 0.73170 0.54168 0.28923
 C972 C 0.72544 0.53530 0.27468
 N973 N 0.71087 0.54167 0.26847
 N974 N 0.70287 0.55402 0.27650
 N975 N 0.67168 1.10682 0.80751
 C976 C 0.68583 1.10004 0.81414
 N977 N 0.69244 1.10685 0.82828
 N978 N 0.68515 1.12006 0.83555
 C979 C 0.67097 1.12701 0.82897
 N980 N 0.66439 1.12003 0.81479
 C981 C 0.69394 1.08610 0.80605
 C982 C 0.70088 1.07453 0.79913
 C983 C 0.70929 1.06094 0.79075
 N984 N 0.72380 1.05458 0.79704
 N985 N 0.73183 1.04224 0.78903
 C986 C 0.72563 1.03586 0.77446
 N987 N 0.71107 1.04223 0.76822
 N988 N 0.70304 1.05457 0.77623
 N989 N 0.17148 0.60665 0.80761
 C990 C 0.18560 0.59982 0.81425
 N991 N 0.19224 0.60663 0.82838
 N992 N 0.18500 0.61989 0.83562
 C993 C 0.17085 0.62689 0.82902
 N994 N 0.16425 0.61991 0.81486
 C995 C 0.19365 0.58583 0.80619
 C996 C 0.20055 0.57423 0.79929
 C997 C 0.20892 0.56059 0.79094
 N998 N 0.22341 0.55421 0.79724
 N999 N 0.23142 0.54184 0.78925
 C1000 C 0.22519 0.53544 0.77469
 N1001 N 0.21065 0.54184 0.76844
 N1002 N 0.20264 0.55421 0.77643
 N1003 N 0.19252 1.10633 0.32824
 C1004 C 0.18592 1.09955 0.31408
 N1005 N 0.17178 1.10636 0.30744
 N1006 N 0.16449 1.11956 0.31473
 C1007 C 0.17106 1.12646 0.32893
 N1008 N 0.18522 1.11953 0.33553
 C1009 C 0.19403 1.08562 0.30596
 C1010 C 0.20097 1.07407 0.29902
 C1011 C 0.20937 1.06049 0.29062
 N1012 N 0.20310 1.05412 0.27611
 N1013 N 0.21112 1.04179 0.26808
 C1014 C 0.22570 1.03543 0.27428
 N1015 N 0.23193 1.04181 0.28884
 N1016 N 0.22390 1.05414 0.29687
 N1017 N 0.69260 0.39369 0.67180
 C1018 C 0.68594 0.40050 0.68594
 N1019 N 0.67178 0.39370 0.69255
 N1020 N 0.66450 0.38048 0.68527
 C1021 C 0.67113 0.37355 0.67111
 N1022 N 0.68532 0.38047 0.66452
 C1023 C 0.69403 0.41444 0.69404
 C1024 C 0.70095 0.42602 0.70097
 C1025 C 0.70933 0.43962 0.70936
 N1026 N 0.70305 0.44596 0.72389
 N1027 N 0.71106 0.45830 0.73191
 C1028 C 0.72563 0.46470 0.72568
 N1029 N 0.73186 0.45834 0.71110
 N1030 N 0.72385 0.44600 0.70308
 N1031 N 0.69226 -0.10692 0.17183
 C1032 C 0.68566 -0.10012 0.18600
 N1033 N 0.67154 -0.10694 0.19268
 N1034 N 0.66426 -0.12018 0.18543
 C1035 C 0.67082 -0.12715 0.17123
 N1036 N 0.68497 -0.12016 0.16459
 C1037 C 0.69376 -0.08616 0.19405
 C1038 C 0.70068 -0.07457 0.20095
 C1039 C 0.70908 -0.06095 0.20929
 N1040 N 0.70281 -0.05455 0.22381
 N1041 N 0.71083 -0.04219 0.23179
 C1042 C 0.72540 -0.03582 0.22553
 N1043 N 0.73162 -0.04223 0.21097
 N1044 N 0.72360 -0.05459 0.20299
 N1045 N 0.17154 0.39353 0.19268
 C1046 C 0.18567 0.40033 0.18601
 N1047 N 0.19228 0.39352 0.17185
 N1048 N 0.18498 0.38029 0.16461
 C1049 C 0.17082 0.37336 0.17125
 N1050 N 0.16425 0.38030 0.18543
 C1051 C 0.19378 0.41429 0.19407
 C1052 C 0.20071 0.42587 0.20097
 C1053 C 0.20911 0.43949 0.20932
 N1054 N 0.22363 0.44584 0.20302
 N1055 N 0.23166 0.45820 0.21101
 C1056 C 0.22543 0.46461 0.22556
 N1057 N 0.21086 0.45824 0.23182
 N1058 N 0.20284 0.44588 0.22383
 N1059 N 0.19234 -0.10709 0.67177
 C1060 C 0.18573 -0.10029 0.68592
 N1061 N 0.17161 -0.10710 0.69259
 N1062 N 0.16433 -0.12034 0.68535
 C1063 C 0.17090 -0.12731 0.67116
 N1064 N 0.18506 -0.12033 0.66453
 C1065 C 0.19383 -0.08632 0.69399
 C1066 C 0.20075 -0.07473 0.70089
 C1067 C 0.20913 -0.06112 0.70925
 N1068 N 0.20287 -0.05476 0.72378
 N1069 N 0.21087 -0.04241 0.73178
 C1070 C 0.22542 -0.03600 0.72552
 N1071 N 0.23165 -0.04237 0.71095
 N1072 N 0.22364 -0.05473 0.70295
 N1073 N 0.30747 0.32830 0.39392
 C1074 C 0.31410 0.31416 0.40072
 N1075 N 0.32824 0.30751 0.39392
 N1076 N 0.33552 0.31479 0.38070
 C1077 C 0.32892 0.32896 0.37376
 N1078 N 0.31475 0.33557 0.38069
 C1079 C 0.30599 0.30607 0.41468
 C1080 C 0.29907 0.29914 0.42625
 C1081 C 0.29069 0.29075 0.43986
 N1082 N 0.29697 0.27623 0.44621
 N1083 N 0.28896 0.26820 0.45855
 C1084 C 0.27439 0.27442 0.46494
 N1085 N 0.26815 0.28898 0.45858
 N1086 N 0.27616 0.29701 0.44623
 N1087 N 0.32844 0.80750 -0.10682
 C1088 C 0.31429 0.81411 -0.10001
 N1089 N 0.30761 0.82823 -0.10683
 N1090 N 0.31486 0.83549 -0.12008
 C1091 C 0.32903 0.82891 -0.12702
 N1092 N 0.33568 0.81477 -0.12008
 C1093 C 0.30623 0.80602 -0.08603
 C1094 C 0.29933 0.79911 -0.07444
 C1095 C 0.29096 0.79074 -0.06081
 N1096 N 0.27645 0.79702 -0.05442
 N1097 N 0.26845 0.78902 -0.04205
 C1098 C 0.27469 0.77445 -0.03567
 N1099 N 0.28925 0.76821 -0.04208
 N1100 N 0.29725 0.77622 -0.05444
 N1101 N 0.80719 0.32858 -0.10654
 C1102 C 0.81385 0.31445 -0.09975
 N1103 N 0.82801 0.30785 -0.10656
 N1104 N 0.83526 0.31513 -0.11980
 C1105 C 0.82862 0.32929 -0.12673
 N1106 N 0.81444 0.33587 -0.11978
 C1107 C 0.80579 0.30635 -0.08578
 C1108 C 0.79890 0.29940 -0.07420
 C1109 C 0.79056 0.29098 -0.06058
 N1110 N 0.79688 0.27647 -0.05425
 N1111 N 0.78891 0.26842 -0.04190
 C1112 C 0.77434 0.27461 -0.03548
 N1113 N 0.76806 0.28917 -0.04183
 N1114 N 0.77603 0.29722 -0.05418
 N1115 N 0.80736 0.82855 0.39361
 C1116 C 0.81405 0.81445 0.40044
 N1117 N 0.82822 0.80786 0.39363
 N1118 N 0.83545 0.81513 0.38038
 C1119 C 0.82878 0.82925 0.37342
 N1120 N 0.81459 0.83582 0.38035
 C1121 C 0.80600 0.80637 0.41442
 C1122 C 0.79911 0.79945 0.42603
 C1123 C 0.79077 0.79107 0.43966
 N1124 N 0.79707 0.77656 0.44602
 N1125 N 0.78908 0.76854 0.45839
 C1126 C 0.77453 0.77477 0.46480
 N1127 N 0.76828 0.78933 0.45843
 N1128 N 0.77626 0.79734 0.44606
 N1129 N 0.69265 0.32821 0.60637
 C1130 C 0.68601 0.31407 0.59957
 N1131 N 0.67184 0.30745 0.60635
 N1132 N 0.66456 0.31474 0.61956
 C1133 C 0.67117 0.32890 0.62649
 N1134 N 0.68536 0.33550 0.61958
 C1135 C 0.69412 0.30596 0.58563
 C1136 C 0.70104 0.29903 0.57406
 C1137 C 0.70942 0.29062 0.56047
 N1138 N 0.70314 0.27609 0.55414
 N1139 N 0.71115 0.26806 0.54180
 C1140 C 0.72571 0.27429 0.53539
 N1141 N 0.73195 0.28887 0.54174
 N1142 N 0.72394 0.29690 0.55408
 N1143 N 0.67165 0.80767 1.10662
 C1144 C 0.68579 0.81433 1.09981
 N1145 N 0.69245 0.82845 1.10664
 N1146 N 0.68520 0.83567 1.11991
 C1147 C 0.67104 0.82905 1.12685
 N1148 N 0.66441 0.81491 1.11989
 C1149 C 0.69385 0.80627 1.08581
 C1150 C 0.70075 0.79939 1.07420
 C1151 C 0.70911 0.79105 1.06056
 N1152 N 0.72362 0.79735 1.05418
 N1153 N 0.73163 0.78937 1.04181
 C1154 C 0.72539 0.77481 1.03540
 N1155 N 0.71083 0.76856 1.04179
 N1156 N 0.70283 0.77654 1.05417
 N1157 N 0.17145 0.30733 1.10647
 C1158 C 0.18559 0.31398 1.09966
 N1159 N 0.19222 0.32813 1.10647
 N1160 N 0.18495 0.33538 1.11970
 C1161 C 0.17078 0.32876 1.12664
 N1162 N 0.16418 0.31458 1.11971
 C1163 C 0.19368 0.30591 1.08570
 C1164 C 0.20060 0.29899 1.07411
 C1165 C 0.20896 0.29061 1.06049
 N1166 N 0.22347 0.29690 1.05410
 N1167 N 0.23147 0.28888 1.04174
 C1168 C 0.22523 0.27431 1.03538
 N1169 N 0.21068 0.26807 1.04179
 N1170 N 0.20268 0.27609 1.05414
 N1171 N 0.17174 0.80747 0.60658
 C1172 C 0.18588 0.81412 0.59977
 N1173 N 0.19254 0.82824 0.60660
 N1174 N 0.18529 0.83548 0.61986
 C1175 C 0.17112 0.82886 0.62680
 N1176 N 0.16449 0.81472 0.61984
 C1177 C 0.19395 0.80606 0.58579
 C1178 C 0.20085 0.79917 0.57418
 C1179 C 0.20922 0.79082 0.56054
 N1180 N 0.22373 0.79712 0.55417
 N1181 N 0.23173 0.78913 0.54180
 C1182 C 0.22550 0.77457 0.53540
 N1183 N 0.21094 0.76831 0.54179
 N1184 N 0.20294 0.77630 0.55416
 N1185 N 0.32833 0.69253 0.60631
 C1186 C 0.31419 0.68589 0.59952
 N1187 N 0.30754 0.67174 0.60632
 N1188 N 0.31481 0.66448 0.61955
 C1189 C 0.32897 0.67109 0.62647
 N1190 N 0.33559 0.68526 0.61954
 C1191 C 0.30610 0.69397 0.58556
 C1192 C 0.29919 0.70089 0.57399
 C1193 C 0.29082 0.70927 0.56039
 N1194 N 0.27630 0.70299 0.55403
 N1195 N 0.26829 0.71100 0.54169
 C1196 C 0.27453 0.72557 0.53531
 N1197 N 0.28909 0.73181 0.54169
 N1198 N 0.29710 0.72380 0.55403
 N1199 N 0.32813 0.19230 1.10632
 C1200 C 0.31399 0.18566 1.09953
 N1201 N 0.30734 0.17152 1.10633
 N1202 N 0.31460 0.16424 1.11955
 C1203 C 0.32878 0.17084 1.12647
 N1204 N 0.33539 0.18501 1.11954
 C1205 C 0.30591 0.19376 1.08558
 C1206 C 0.29898 0.20067 1.07401
 C1207 C 0.29059 0.20904 1.06041
 N1208 N 0.27607 0.20275 1.05408
 N1209 N 0.26804 0.21074 1.04174
 C1210 C 0.27427 0.22531 1.03533
 N1211 N 0.28884 0.23156 1.04168
 N1212 N 0.29686 0.22356 1.05402
 N1213 N 0.82823 0.69264 1.10620
 C1214 C 0.81408 0.68602 1.09942
 N1215 N 0.80744 0.67187 1.10622
 N1216 N 0.81472 0.66459 1.11943
 C1217 C 0.82890 0.67118 1.12634
 N1218 N 0.83551 0.68536 1.11941
 C1219 C 0.80599 0.69412 1.08549
 C1220 C 0.79907 0.70106 1.07393
 C1221 C 0.79069 0.70946 1.06034
 N1222 N 0.77617 0.70319 1.05397
 N1223 N 0.76816 0.71122 1.04165
 C1224 C 0.77440 0.72580 1.03529
 N1225 N 0.78896 0.73203 1.04167
 N1226 N 0.79697 0.72399 1.05400
 N1227 N 0.80772 0.17164 0.60657
 C1228 C 0.81437 0.18577 0.59975
 N1229 N 0.82850 0.19244 0.60656
 N1230 N 0.83573 0.18520 0.61981
 C1231 C 0.82911 0.17104 0.62677
 N1232 N 0.81496 0.16440 0.61983
 C1233 C 0.80631 0.19382 0.58577
 C1234 C 0.79941 0.20071 0.57417
 C1235 C 0.79104 0.20905 0.56054
 N1236 N 0.79731 0.22356 0.55413
 N1237 N 0.78931 0.23154 0.54177
 C1238 C 0.77474 0.22528 0.53542
 N1239 N 0.76851 0.21072 0.54183
 N1240 N 0.77652 0.20275 0.55419
 N1241 N 0.69243 0.67181 0.39398
 C1242 C 0.68581 0.68597 0.40077
 N1243 N 0.67169 0.69262 0.39396
 N1244 N 0.66442 0.68534 0.38074
 C1245 C 0.67101 0.67115 0.37383
 N1246 N 0.68516 0.66453 0.38077
 C1247 C 0.69391 0.69407 0.41471
 C1248 C 0.70083 0.70099 0.42628
 C1249 C 0.70922 0.70938 0.43987
 N1250 N 0.70294 0.72390 0.44624
 N1251 N 0.71096 0.73192 0.45857
 C1252 C 0.72553 0.72570 0.46493
 N1253 N 0.73176 0.71113 0.45854
 N1254 N 0.72374 0.70311 0.44621
 N1255 N 0.69257 0.17160 -0.10652
 C1256 C 0.68586 0.18570 -0.09970
 N1257 N 0.67169 0.19229 -0.10648
 N1258 N 0.66446 0.18500 -0.11972
 C1259 C 0.67114 0.17087 -0.12667
 N1260 N 0.68533 0.16432 -0.11976
 C1261 C 0.69391 0.19381 -0.08574
 C1262 C 0.70081 0.20074 -0.07416
 C1263 C 0.70917 0.20913 -0.06055
 N1264 N 0.70286 0.22362 -0.05415
 N1265 N 0.71085 0.23164 -0.04181
 C1266 C 0.72544 0.22544 -0.03545
 N1267 N 0.73170 0.21089 -0.04186
 N1268 N 0.72370 0.20288 -0.05420
 N1269 N 0.17185 0.69230 -0.10656
 C1270 C 0.18599 0.68567 -0.09976
 N1271 N 0.19263 0.67152 -0.10655
 N1272 N 0.18537 0.66424 -0.11977
 C1273 C 0.17121 0.67084 -0.12671
 N1274 N 0.16459 0.68501 -0.11978
 C1275 C 0.19407 0.69377 -0.08581
 C1276 C 0.20098 0.70070 -0.07424
 C1277 C 0.20936 0.70909 -0.06065
 N1278 N 0.22388 0.70282 -0.05429
 N1279 N 0.23189 0.71084 -0.04195
 C1280 C 0.22566 0.72541 -0.03558
 N1281 N 0.21110 0.73164 -0.04195
 N1282 N 0.20309 0.72362 -0.05429
 N1283 N 0.17161 0.19242 0.39381
 C1284 C 0.18573 0.18577 0.40062
 N1285 N 0.19237 0.17163 0.39381
 N1286 N 0.18512 0.16438 0.38056
 C1287 C 0.17096 0.17100 0.37363
 N1288 N 0.16436 0.18517 0.38057
 C1289 C 0.19381 0.19384 0.41459
 C1290 C 0.20072 0.20074 0.42618
 C1291 C 0.20909 0.20910 0.43980
 N1292 N 0.22361 0.20282 0.44614
 N1293 N 0.23162 0.21081 0.45850
 C1294 C 0.22537 0.22536 0.46491
 N1295 N 0.21081 0.23160 0.45855
 N1296 N 0.20280 0.22360 0.44619
 N1297 N 0.30735 0.39369 0.67197
 C1298 C 0.31397 0.40050 0.68611
 N1299 N 0.32812 0.39370 0.69275
 N1300 N 0.33540 0.38048 0.68547
 C1301 C 0.32880 0.37355 0.67130
 N1302 N 0.31464 0.38047 0.66470
 C1303 C 0.30587 0.41445 0.69420
 C1304 C 0.29895 0.42603 0.70112
 C1305 C 0.29055 0.43963 0.70949
 N1306 N 0.29681 0.44601 0.72401
 N1307 N 0.28879 0.45836 0.73201
 C1308 C 0.27424 0.46474 0.72576
 N1309 N 0.26802 0.45835 0.71120
 N1310 N 0.27604 0.44600 0.70320
 N1311 N 0.30783 0.89387 0.17128
 C1312 C 0.31447 0.90069 0.18541
 N1313 N 0.32863 0.89390 0.19203
 N1314 N 0.33591 0.88068 0.18474
 C1315 C 0.32930 0.87374 0.17059
 N1316 N 0.31512 0.88065 0.16400
 C1317 C 0.30637 0.91463 0.19351
 C1318 C 0.29945 0.92620 0.20044
 C1319 C 0.29106 0.93979 0.20884
 N1320 N 0.29734 0.94616 0.22335
 N1321 N 0.28933 0.95850 0.23138
 C1322 C 0.27476 0.96486 0.22517
 N1323 N 0.26852 0.95848 0.21061
 N1324 N 0.27653 0.94615 0.20259
 N1325 N 0.80753 0.39376 0.17160
 C1326 C 0.81417 0.40056 0.18574
 N1327 N 0.82832 0.39377 0.19235
 N1328 N 0.83560 0.38055 0.18505
 C1329 C 0.82899 0.37363 0.17088
 N1330 N 0.81482 0.38055 0.16430
 C1331 C 0.80607 0.41449 0.19385
 C1332 C 0.79914 0.42606 0.20079
 C1333 C 0.79076 0.43965 0.20920
 N1334 N 0.79704 0.44601 0.22370
 N1335 N 0.78903 0.45834 0.23174
 C1336 C 0.77445 0.46471 0.22554
 N1337 N 0.76821 0.45833 0.21098
 N1338 N 0.77622 0.44600 0.20295
 N1339 N 0.80785 0.89420 0.67170
 C1340 C 0.81449 0.90100 0.68584
 N1341 N 0.82864 0.89421 0.69246
 N1342 N 0.83591 0.88098 0.68518
 C1343 C 0.82930 0.87405 0.67102
 N1344 N 0.81513 0.88097 0.66443
 C1345 C 0.80640 0.91496 0.69393
 C1346 C 0.79947 0.92653 0.70085
 C1347 C 0.79108 0.94014 0.70922
 N1348 N 0.79733 0.94651 0.72374
 N1349 N 0.78930 0.95885 0.73174
 C1350 C 0.77475 0.96523 0.72550
 N1351 N 0.76854 0.95885 0.71093
 N1352 N 0.77657 0.94650 0.70293
 N1353 N 0.69256 0.60641 0.67203
 C1354 C 0.68593 0.59961 0.68619
 N1355 N 0.67179 0.60641 0.69284
 N1356 N 0.66452 0.61964 0.68557
 C1357 C 0.67112 0.62657 0.67139
 N1358 N 0.68528 0.61963 0.66477
 C1359 C 0.69402 0.58565 0.69426
 C1360 C 0.70094 0.57407 0.70117
 C1361 C 0.70933 0.56046 0.70952
 N1362 N 0.70305 0.55407 0.72404
 N1363 N 0.71106 0.54172 0.73203
 C1364 C 0.72563 0.53535 0.72577
 N1365 N 0.73186 0.54175 0.71121
 N1366 N 0.72384 0.55410 0.70322
 N1367 N 0.69245 0.10587 0.17160
 C1368 C 0.68580 0.09907 0.18574
 N1369 N 0.67166 0.10587 0.19237
 N1370 N 0.66439 0.11909 0.18510
 C1371 C 0.67101 0.12603 0.17093
 N1372 N 0.68518 0.11910 0.16433
 C1373 C 0.69389 0.08511 0.19383
 C1374 C 0.70080 0.07353 0.20075
 C1375 C 0.70917 0.05993 0.20913
 N1376 N 0.70289 0.05358 0.22366
 N1377 N 0.71089 0.04123 0.23168
 C1378 C 0.72545 0.03484 0.22543
 N1379 N 0.73168 0.04120 0.21086
 N1380 N 0.72368 0.05355 0.20285
 N1381 N 0.19247 0.60625 0.17158
 C1382 C 0.18583 0.59947 0.18573
 N1383 N 0.17169 0.60628 0.19236
 N1384 N 0.16443 0.61950 0.18508
 C1385 C 0.17104 0.62642 0.17091
 N1386 N 0.18521 0.61948 0.16430
 C1387 C 0.19391 0.58552 0.19383
 C1388 C 0.20082 0.57394 0.20076
 C1389 C 0.20919 0.56034 0.20915
 N1390 N 0.20291 0.55399 0.22367
 N1391 N 0.21091 0.54165 0.23170
 C1392 C 0.22547 0.53526 0.22546
 N1393 N 0.23171 0.54162 0.21088
 N1394 N 0.22370 0.55396 0.20287
 N1395 N 0.17147 0.10569 0.69264
 C1396 C 0.18562 0.09890 0.68600
 N1397 N 0.19227 0.10571 0.67187
 N1398 N 0.18500 0.11894 0.66460
 C1399 C 0.17082 0.12586 0.67120
 N1400 N 0.16420 0.11891 0.68537
 C1401 C 0.19371 0.08495 0.69409
 C1402 C 0.20064 0.07337 0.70099
 C1403 C 0.20903 0.05976 0.70935
 N1404 N 0.22355 0.05341 0.70304
 N1405 N 0.23158 0.04106 0.71102
 C1406 C 0.22536 0.03466 0.72559
 N1407 N 0.21080 0.04102 0.73185
 N1408 N 0.20277 0.05337 0.72387
 N1409 N 0.30757 0.60641 0.32817
 C1410 C 0.31420 0.59961 0.31402
 N1411 N 0.32834 0.60642 0.30737
 N1412 N 0.33561 0.61966 0.31463
 C1413 C 0.32901 0.62658 0.32881
 N1414 N 0.31485 0.61964 0.33543
 C1415 C 0.30611 0.58565 0.30595
 C1416 C 0.29919 0.57406 0.29904
 C1417 C 0.29080 0.56045 0.29068
 N1418 N 0.29708 0.55406 0.27617
 N1419 N 0.28906 0.54170 0.26818
 C1420 C 0.27449 0.53532 0.27444
 N1421 N 0.26826 0.54172 0.28900
 N1422 N 0.27628 0.55408 0.29698
 N1423 N 0.30737 0.10577 0.82834
 C1424 C 0.31403 0.09897 0.81421
 N1425 N 0.32819 0.10577 0.80758
 N1426 N 0.33545 0.11901 0.81486
 C1427 C 0.32881 0.12594 0.82902
 N1428 N 0.31463 0.11901 0.83561
 C1429 C 0.30596 0.08500 0.80611
 C1430 C 0.29906 0.07341 0.79919
 C1431 C 0.29069 0.05980 0.79081
 N1432 N 0.29697 0.05346 0.77628
 N1433 N 0.28897 0.04110 0.76827
 C1434 C 0.27442 0.03468 0.77452
 N1435 N 0.26819 0.04103 0.78910
 N1436 N 0.27619 0.05339 0.79711
 N1437 N 0.80768 0.60646 0.82844
 C1438 C 0.81433 0.59963 0.81431
 N1439 N 0.82847 0.60643 0.80765
 N1440 N 0.83573 0.61968 0.81490
 C1441 C 0.82912 0.62664 0.82905
 N1442 N 0.81495 0.61971 0.83568
 C1443 C 0.80625 0.58565 0.80625
 C1444 C 0.79933 0.57406 0.79935
 C1445 C 0.79096 0.56043 0.79099
 N1446 N 0.79724 0.55407 0.77647
 N1447 N 0.78923 0.54171 0.76847
 C1448 C 0.77467 0.53532 0.77472
 N1449 N 0.76844 0.54170 0.78929
 N1450 N 0.77645 0.55406 0.79728
 N1451 N 0.80760 0.10593 0.32817
 C1452 C 0.81421 0.09915 0.31400
 N1453 N 0.82834 0.10598 0.30734
 N1454 N 0.83561 0.11920 0.31462
 C1455 C 0.82903 0.12611 0.32881
 N1456 N 0.81488 0.11915 0.33544
 C1457 C 0.80612 0.08519 0.30592
 C1458 C 0.79919 0.07361 0.29901
 C1459 C 0.79080 0.06000 0.29065
 N1460 N 0.79707 0.05362 0.27614
 N1461 N 0.78905 0.04126 0.26814
 C1462 C 0.77449 0.03488 0.27440
 N1463 N 0.76826 0.04128 0.28896
 N1464 N 0.77628 0.05364 0.29695
 N1465 N 0.67171 0.39352 0.30770
 C1466 C 0.68585 0.40032 0.31433
 N1467 N 0.69250 0.39351 0.32846
 N1468 N 0.68523 0.38027 0.33572
 C1469 C 0.67106 0.37333 0.32912
 N1470 N 0.66445 0.38028 0.31497
 C1471 C 0.69394 0.41430 0.30625
 C1472 C 0.70084 0.42589 0.29933
 C1473 C 0.70921 0.43951 0.29095
 N1474 N 0.72373 0.44589 0.29721
 N1475 N 0.73173 0.45825 0.28919
 C1476 C 0.72547 0.46464 0.27465
 N1477 N 0.71090 0.45825 0.26844
 N1478 N 0.70291 0.44589 0.27645
 N1479 N 0.69245 0.89424 0.82833
 C1480 C 0.68583 0.90104 0.81419
 N1481 N 0.67168 0.89424 0.80757
 N1482 N 0.66438 0.88103 0.81486
 C1483 C 0.67098 0.87411 0.82903
 N1484 N 0.68516 0.88103 0.83562
 C1485 C 0.69394 0.91498 0.80608
 C1486 C 0.70088 0.92654 0.79916
 C1487 C 0.70929 0.94014 0.79077
 N1488 N 0.70304 0.94650 0.77624
 N1489 N 0.71107 0.95884 0.76823
 C1490 C 0.72563 0.96522 0.77447
 N1491 N 0.73183 0.95885 0.78904
 N1492 N 0.72380 0.94651 0.79706
 N1493 N 0.17129 0.39366 0.80771
 C1494 C 0.18542 0.40047 0.81436
 N1495 N 0.19205 0.39366 0.82850
 N1496 N 0.18477 0.38041 0.83574
 C1497 C 0.17062 0.37347 0.82912
 N1498 N 0.16402 0.38041 0.81496
 C1499 C 0.19352 0.41444 0.80629
 C1500 C 0.20044 0.42604 0.79939
 C1501 C 0.20883 0.43966 0.79102
 N1502 N 0.22333 0.44603 0.79731
 N1503 N 0.23136 0.45839 0.78931
 C1504 C 0.22514 0.46477 0.77474
 N1505 N 0.21059 0.45838 0.76850
 N1506 N 0.20257 0.44603 0.77650
 N1507 N 0.19263 0.89386 0.32824
 C1508 C 0.18601 0.90065 0.31409
 N1509 N 0.17185 0.89386 0.30748
 N1510 N 0.16455 0.88066 0.31478
 C1511 C 0.17114 0.87374 0.32895
 N1512 N 0.18533 0.88065 0.33554
 C1513 C 0.19412 0.91458 0.30597
 C1514 C 0.20106 0.92614 0.29903
 C1515 C 0.20945 0.93973 0.29062
 N1516 N 0.20316 0.94609 0.27611
 N1517 N 0.21118 0.95842 0.26807
 C1518 C 0.22575 0.96481 0.27428
 N1519 N 0.23199 0.95844 0.28883
 N1520 N 0.22398 0.94610 0.29687
 N1521 N 0.39360 0.30750 0.67192
 C1522 C 0.40039 0.31413 0.68607
 N1523 N 0.39359 0.32827 0.69271
 N1524 N 0.38036 0.33554 0.68545
 C1525 C 0.37345 0.32894 0.67128
 N1526 N 0.38038 0.31478 0.66466
 C1527 C 0.41434 0.30604 0.69414
 C1528 C 0.42592 0.29911 0.70105
 C1529 C 0.43952 0.29071 0.70940
 N1530 N 0.44589 0.29696 0.72392
 N1531 N 0.45823 0.28893 0.73191
 C1532 C 0.46461 0.27438 0.72564
 N1533 N 0.45822 0.26817 0.71107
 N1534 N 0.44588 0.27620 0.70309
 N1535 N 0.39408 0.80769 0.17127
 C1536 C 0.40088 0.81435 0.18540
 N1537 N 0.39409 0.82851 0.19201
 N1538 N 0.38086 0.83577 0.18473
 C1539 C 0.37394 0.82914 0.17058
 N1540 N 0.38086 0.81496 0.16400
 C1541 C 0.41483 0.80627 0.19350
 C1542 C 0.42639 0.79937 0.20044
 C1543 C 0.43999 0.79101 0.20885
 N1544 N 0.44631 0.79731 0.22337
 N1545 N 0.45864 0.78932 0.23142
 C1546 C 0.46504 0.77475 0.22521
 N1547 N 0.45871 0.76850 0.21064
 N1548 N 0.44638 0.77649 0.20260
 N1549 N 0.89379 0.30758 0.17144
 C1550 C 0.90059 0.31422 0.18558
 N1551 N 0.89380 0.32837 0.19222
 N1552 N 0.88057 0.33564 0.18496
 C1553 C 0.87364 0.32903 0.17080
 N1554 N 0.88056 0.31486 0.16418
 C1555 C 0.91454 0.30613 0.19365
 C1556 C 0.92612 0.29921 0.20057
 C1557 C 0.93972 0.29084 0.20895
 N1558 N 0.94606 0.29712 0.22347
 N1559 N 0.95840 0.28912 0.23149
 C1560 C 0.96480 0.27456 0.22526
 N1561 N 0.95845 0.26832 0.21069
 N1562 N 0.94611 0.27633 0.20267
 N1563 N 0.89407 0.80797 0.67164
 C1564 C 0.90088 0.81461 0.68577
 N1565 N 0.89408 0.82876 0.69241
 N1566 N 0.88086 0.83603 0.68515
 C1567 C 0.87393 0.82942 0.67099
 N1568 N 0.88085 0.81525 0.66438
 C1569 C 0.91482 0.80652 0.69385
 C1570 C 0.92640 0.79959 0.70076
 C1571 C 0.93999 0.79119 0.70912
 N1572 N 0.94637 0.79745 0.72364
 N1573 N 0.95870 0.78942 0.73164
 C1574 C 0.96507 0.77485 0.72538
 N1575 N 0.95868 0.76864 0.71082
 N1576 N 0.94635 0.77667 0.70283
 N1577 N 0.60633 0.30718 0.32841
 C1578 C 0.59952 0.31384 0.31429
 N1579 N 0.60631 0.32800 0.30767
 N1580 N 0.61953 0.33528 0.31495
 C1581 C 0.62646 0.32865 0.32910
 N1582 N 0.61955 0.31446 0.33568
 C1583 C 0.58557 0.30575 0.30619
 C1584 C 0.57399 0.29883 0.29927
 C1585 C 0.56039 0.29047 0.29087
 N1586 N 0.55405 0.29677 0.27636
 N1587 N 0.54170 0.28878 0.26834
 C1588 C 0.53529 0.27421 0.27456
 N1589 N 0.54164 0.26795 0.28911
 N1590 N 0.55399 0.27595 0.29713
 N1591 N 0.60615 0.82883 0.80766
 C1592 C 0.59933 0.81470 0.81431
 N1593 N 0.60612 0.80807 0.82846
 N1594 N 0.61935 0.81535 0.83572
 C1595 C 0.62629 0.82951 0.82910
 N1596 N 0.61938 0.83611 0.81493
 C1597 C 0.58538 0.80660 0.80623
 C1598 C 0.57381 0.79967 0.79932
 C1599 C 0.56021 0.79127 0.79094
 N1600 N 0.55382 0.77677 0.79725
 N1601 N 0.54148 0.76874 0.78924
 C1602 C 0.53513 0.77494 0.77466
 N1603 N 0.54154 0.78949 0.76840
 N1604 N 0.55387 0.79752 0.77641
 N1605 N 0.10592 0.32811 0.80758
 C1606 C 0.09913 0.31394 0.81418
 N1607 N 0.10592 0.30728 0.82831
 N1608 N 0.11913 0.31457 0.83560
 C1609 C 0.12604 0.32877 0.82903
 N1610 N 0.11912 0.33539 0.81487
 C1611 C 0.08519 0.30584 0.80607
 C1612 C 0.07363 0.29892 0.79913
 C1613 C 0.06003 0.29054 0.79074
 N1614 N 0.05361 0.27604 0.79703
 N1615 N 0.04127 0.26803 0.78901
 C1616 C 0.03495 0.27425 0.77442
 N1617 N 0.04138 0.28879 0.76817
 N1618 N 0.05372 0.29680 0.77619
 N1619 N 0.10631 0.82849 0.30757
 C1620 C 0.09949 0.81435 0.31421
 N1621 N 0.10627 0.80772 0.32836
 N1622 N 0.11950 0.81499 0.33563
 C1623 C 0.12645 0.82916 0.32902
 N1624 N 0.11954 0.83576 0.31485
 C1625 C 0.08554 0.80626 0.30612
 C1626 C 0.07397 0.79935 0.29919
 C1627 C 0.06037 0.79097 0.29080
 N1628 N 0.05398 0.77645 0.29707
 N1629 N 0.04164 0.76844 0.28905
 C1630 C 0.03529 0.77469 0.27448
 N1631 N 0.04169 0.78925 0.26826
 N1632 N 0.05403 0.79726 0.27628
 N1633 N 0.60634 0.67188 0.69286
 C1634 C 0.59954 0.68602 0.68621
 N1635 N 0.60634 0.69264 0.67206
 N1636 N 0.61957 0.68536 0.66479
 C1637 C 0.62650 0.67120 0.67141
 N1638 N 0.61957 0.66461 0.68559
 C1639 C 0.58558 0.69412 0.69429
 C1640 C 0.57399 0.70105 0.70119
 C1641 C 0.56038 0.70945 0.70954
 N1642 N 0.55403 0.72396 0.70322
 N1643 N 0.54167 0.73199 0.71119
 C1644 C 0.53525 0.72579 0.72576
 N1645 N 0.54162 0.71124 0.73203
 N1646 N 0.55398 0.70321 0.72406
 N1647 N 0.60625 0.17133 0.19241
 C1648 C 0.59946 0.18549 0.18578
 N1649 N 0.60626 0.19212 0.17163
 N1650 N 0.61949 0.18484 0.16436
 C1651 C 0.62640 0.17066 0.17096
 N1652 N 0.61947 0.16406 0.18513
 C1653 C 0.58551 0.19358 0.19388
 C1654 C 0.57394 0.20051 0.20080
 C1655 C 0.56034 0.20890 0.20919
 N1656 N 0.55400 0.22344 0.20292
 N1657 N 0.54166 0.23146 0.21094
 C1658 C 0.53525 0.22522 0.22549
 N1659 N 0.54160 0.21064 0.23171
 N1660 N 0.55394 0.20262 0.22369
 N1661 N 0.10631 0.67177 0.19237
 C1662 C 0.09953 0.68593 0.18573
 N1663 N 0.10634 0.69256 0.17158
 N1664 N 0.11956 0.68526 0.16431
 C1665 C 0.12647 0.67109 0.17091
 N1666 N 0.11953 0.66449 0.18508
 C1667 C 0.08559 0.69403 0.19383
 C1668 C 0.07402 0.70096 0.20076
 C1669 C 0.06042 0.70936 0.20914
 N1670 N 0.05407 0.72388 0.20287
 N1671 N 0.04172 0.73190 0.21088
 C1672 C 0.03532 0.72567 0.22544
 N1673 N 0.04169 0.71109 0.23167
 N1674 N 0.05403 0.70307 0.22365
 N1675 N 0.10600 0.17113 0.69264
 C1676 C 0.09919 0.18526 0.68599
 N1677 N 0.10600 0.19189 0.67184
 N1678 N 0.11924 0.18462 0.66458
 C1679 C 0.12617 0.17046 0.67120
 N1680 N 0.11923 0.16386 0.68537
 C1681 C 0.08523 0.19336 0.69407
 C1682 C 0.07365 0.20030 0.70096
 C1683 C 0.06004 0.20872 0.70930
 N1684 N 0.05372 0.22324 0.70298
 N1685 N 0.04137 0.23129 0.71095
 C1686 C 0.03494 0.22510 0.72551
 N1687 N 0.04128 0.21054 0.73179
 N1688 N 0.05363 0.20248 0.72382
 N1689 N 0.39379 0.67192 0.30730
 C1690 C 0.40059 0.68606 0.31394
 N1691 N 0.39379 0.69270 0.32808
 N1692 N 0.38057 0.68542 0.33536
 C1693 C 0.37364 0.67124 0.32876
 N1694 N 0.38056 0.66464 0.31459
 C1695 C 0.41455 0.69416 0.30584
 C1696 C 0.42614 0.70108 0.29892
 C1697 C 0.43975 0.70947 0.29055
 N1698 N 0.44610 0.72400 0.29683
 N1699 N 0.45847 0.73201 0.28883
 C1700 C 0.46489 0.72577 0.27429
 N1701 N 0.45852 0.71119 0.26805
 N1702 N 0.44616 0.70318 0.27605
 N1703 N 0.39356 0.19209 0.82836
 C1704 C 0.40038 0.18545 0.81422
 N1705 N 0.39360 0.17130 0.80759
 N1706 N 0.38037 0.16401 0.81486
 C1707 C 0.37342 0.17061 0.82902
 N1708 N 0.38033 0.18480 0.83563
 C1709 C 0.41434 0.19356 0.80614
 C1710 C 0.42592 0.20050 0.79922
 C1711 C 0.43952 0.20890 0.79085
 N1712 N 0.44589 0.20265 0.77632
 N1713 N 0.45823 0.21068 0.76831
 C1714 C 0.46461 0.22524 0.77456
 N1715 N 0.45824 0.23145 0.78914
 N1716 N 0.44589 0.22341 0.79715
 N1717 N 0.89388 0.67196 0.80749
 C1718 C 0.90066 0.68613 0.81409
 N1719 N 0.89385 0.69280 0.82822
 N1720 N 0.88062 0.68552 0.83551
 C1721 C 0.87371 0.67133 0.82894
 N1722 N 0.88065 0.66469 0.81479
 C1723 C 0.91462 0.69422 0.80598
 C1724 C 0.92621 0.70113 0.79905
 C1725 C 0.93982 0.70950 0.79066
 N1726 N 0.94622 0.72401 0.79695
 N1727 N 0.95858 0.73201 0.78894
 C1728 C 0.96495 0.72578 0.77436
 N1729 N 0.95853 0.71123 0.76812
 N1730 N 0.94617 0.70323 0.77614
 N1731 N 0.89375 0.17152 0.30728
 C1732 C 0.90055 0.18566 0.31393
 N1733 N 0.89377 0.19226 0.32810
 N1734 N 0.88056 0.18496 0.33539
 C1735 C 0.87363 0.17079 0.32877
 N1736 N 0.88054 0.16422 0.31457
 C1737 C 0.91449 0.19378 0.30583
 C1738 C 0.92606 0.20073 0.29891
 C1739 C 0.93966 0.20914 0.29053
 N1740 N 0.94600 0.22367 0.29682
 N1741 N 0.95834 0.23172 0.28882
 C1742 C 0.96475 0.22550 0.27426
 N1743 N 0.95840 0.21092 0.26802
 N1744 N 0.94605 0.20288 0.27602
 N1745 N 0.30739 0.32822 0.60655
 C1746 C 0.31403 0.31408 0.59975
 N1747 N 0.32818 0.30746 0.60654
 N1748 N 0.33545 0.31475 0.61976
 C1749 C 0.32883 0.32892 0.62668
 N1750 N 0.31466 0.33551 0.61977
 C1751 C 0.30595 0.30598 0.58581
 C1752 C 0.29903 0.29905 0.57424
 C1753 C 0.29065 0.29066 0.56064
 N1754 N 0.29694 0.27615 0.55427
 N1755 N 0.28894 0.26813 0.54193
 C1756 C 0.27437 0.27435 0.53556
 N1757 N 0.26812 0.28891 0.54195
 N1758 N 0.27613 0.29693 0.55429
 N1759 N 0.30785 0.82839 0.10588
 C1760 C 0.31448 0.81424 0.09908
 N1761 N 0.32863 0.80761 0.10587
 N1762 N 0.33590 0.81490 0.11908
 C1763 C 0.32930 0.82908 0.12600
 N1764 N 0.31513 0.83568 0.11908
 C1765 C 0.30638 0.80613 0.08515
 C1766 C 0.29945 0.79920 0.07359
 C1767 C 0.29106 0.79081 0.06001
 N1768 N 0.29732 0.77629 0.05364
 N1769 N 0.28930 0.76826 0.04131
 C1770 C 0.27474 0.77450 0.03495
 N1771 N 0.26851 0.78907 0.04133
 N1772 N 0.27654 0.79709 0.05366
 N1773 N 0.80752 0.32836 0.10612
 C1774 C 0.81416 0.31421 0.09931
 N1775 N 0.82831 0.30758 0.10608
 N1776 N 0.83559 0.31486 0.11930
 C1777 C 0.82899 0.32903 0.12624
 N1778 N 0.81481 0.33563 0.11933
 C1779 C 0.80605 0.30612 0.08537
 C1780 C 0.79913 0.29920 0.07380
 C1781 C 0.79074 0.29081 0.06021
 N1782 N 0.79704 0.27632 0.05381
 N1783 N 0.78902 0.26830 0.04148
 C1784 C 0.77443 0.27451 0.03514
 N1785 N 0.76818 0.28905 0.04156
 N1786 N 0.77620 0.29707 0.05389
 N1787 N 0.82857 0.80791 0.60631
 C1788 C 0.81442 0.81454 0.59953
 N1789 N 0.80780 0.82870 0.60633
 N1790 N 0.81509 0.83598 0.61953
 C1791 C 0.82927 0.82938 0.62644
 N1792 N 0.83586 0.81520 0.61951
 C1793 C 0.80631 0.80644 0.58561
 C1794 C 0.79937 0.79950 0.57405
 C1795 C 0.79097 0.79111 0.56047
 N1796 N 0.77644 0.79738 0.55414
 N1797 N 0.76841 0.78935 0.54182
 C1798 C 0.77464 0.77479 0.53543
 N1799 N 0.78922 0.76857 0.54178
 N1800 N 0.79724 0.77659 0.55410
 N1801 N 0.30758 0.67186 0.39360
 C1802 C 0.31421 0.68601 0.40040
 N1803 N 0.32835 0.69266 0.39358
 N1804 N 0.33562 0.68539 0.38035
 C1805 C 0.32902 0.67122 0.37343
 N1806 N 0.31486 0.66460 0.38037
 C1807 C 0.30613 0.69410 0.41436
 C1808 C 0.29921 0.70101 0.42594
 C1809 C 0.29083 0.70937 0.43956
 N1810 N 0.29710 0.72389 0.44594
 N1811 N 0.28909 0.73189 0.45830
 C1812 C 0.27453 0.72564 0.46468
 N1813 N 0.26830 0.71107 0.45829
 N1814 N 0.27631 0.70308 0.44593
 N1815 N 0.30725 0.17129 0.89374
 C1816 C 0.31388 0.18544 0.90053
 N1817 N 0.32804 0.19207 0.89374
 N1818 N 0.33533 0.18479 0.88053
 C1819 C 0.32873 0.17061 0.87361
 N1820 N 0.31454 0.16401 0.88052
 C1821 C 0.30578 0.19355 0.91447
 C1822 C 0.29885 0.20048 0.92604
 C1823 C 0.29047 0.20889 0.93963
 N1824 N 0.29676 0.22342 0.94597
 N1825 N 0.28875 0.23145 0.95831
 C1826 C 0.27419 0.22522 0.96472
 N1827 N 0.26795 0.21064 0.95837
 N1828 N 0.27596 0.20261 0.94603
 N1829 N 0.82835 0.69287 0.89366
 C1830 C 0.81421 0.68622 0.90048
 N1831 N 0.80760 0.67205 0.89372
 N1832 N 0.81489 0.66476 0.88051
 C1833 C 0.82905 0.67137 0.87356
 N1834 N 0.83563 0.68558 0.88045
 C1835 C 0.80610 0.69433 0.91442
 C1836 C 0.79916 0.70125 0.92599
 C1837 C 0.79076 0.70963 0.93958
 N1838 N 0.77624 0.70334 0.94594
 N1839 N 0.76821 0.71134 0.95829
 C1840 C 0.77443 0.72590 0.96468
 N1841 N 0.78901 0.73215 0.95831
 N1842 N 0.79703 0.72415 0.94596
 N1843 N 0.80764 0.17133 0.39367
 C1844 C 0.81429 0.18547 0.40047
 N1845 N 0.82843 0.19212 0.39365
 N1846 N 0.83568 0.18486 0.38041
 C1847 C 0.82907 0.17069 0.37348
 N1848 N 0.81491 0.16407 0.38043
 C1849 C 0.80621 0.19355 0.41444
 C1850 C 0.79931 0.20047 0.42604
 C1851 C 0.79095 0.20885 0.43966
 N1852 N 0.79724 0.22338 0.44600
 N1853 N 0.78925 0.23140 0.45835
 C1854 C 0.77469 0.22516 0.46477
 N1855 N 0.76845 0.21059 0.45842
 N1856 N 0.77644 0.20257 0.44606
 N1857 N 0.69254 0.32799 0.39382
 C1858 C 0.68592 0.31382 0.40060
 N1859 N 0.67178 0.30717 0.39381
 N1860 N 0.66450 0.31445 0.38060
 C1861 C 0.67109 0.32864 0.37369
 N1862 N 0.68525 0.33526 0.38061
 C1863 C 0.69402 0.30572 0.41454
 C1864 C 0.70095 0.29881 0.42611
 C1865 C 0.70934 0.29044 0.43970
 N1866 N 0.70307 0.27592 0.44609
 N1867 N 0.71109 0.26793 0.45843
 C1868 C 0.72566 0.27418 0.46478
 N1869 N 0.73189 0.28874 0.45837
 N1870 N 0.72387 0.29673 0.44604
 N1871 N 0.69238 0.82882 0.89380
 C1872 C 0.68573 0.81468 0.90061
 N1873 N 0.67157 0.80805 0.89383
 N1874 N 0.66430 0.81534 0.88062
 C1875 C 0.67092 0.82950 0.87368
 N1876 N 0.68510 0.83609 0.88058
 C1877 C 0.69381 0.80658 0.91455
 C1878 C 0.70073 0.79965 0.92611
 C1879 C 0.70911 0.79125 0.93970
 N1880 N 0.70282 0.77672 0.94605
 N1881 N 0.71083 0.76869 0.95838
 C1882 C 0.72539 0.77493 0.96477
 N1883 N 0.73163 0.78951 0.95840
 N1884 N 0.72362 0.79753 0.94607
 N1885 N 0.17130 0.30727 0.89377
 C1886 C 0.18543 0.31393 0.90059
 N1887 N 0.19205 0.32810 0.89382
 N1888 N 0.18477 0.33539 0.88061
 C1889 C 0.17062 0.32876 0.87366
 N1890 N 0.16403 0.31456 0.88056
 C1891 C 0.19352 0.30583 0.91453
 C1892 C 0.20045 0.29891 0.92609
 C1893 C 0.20884 0.29053 0.93968
 N1894 N 0.22336 0.29682 0.94602
 N1895 N 0.23139 0.28882 0.95835
 C1896 C 0.22516 0.27425 0.96475
 N1897 N 0.21059 0.26801 0.95840
 N1898 N 0.20257 0.27601 0.94607
 N1899 N 0.19249 0.82848 0.39376
 C1900 C 0.18583 0.81435 0.40058
 N1901 N 0.17168 0.80772 0.39379
 N1902 N 0.16442 0.81500 0.38057
 C1903 C 0.17105 0.82916 0.37363
 N1904 N 0.18523 0.83575 0.38054
 C1905 C 0.19391 0.80625 0.41452
 C1906 C 0.20083 0.79933 0.42610
 C1907 C 0.20920 0.79095 0.43969
 N1908 N 0.20292 0.77642 0.44605
 N1909 N 0.21093 0.76840 0.45839
 C1910 C 0.22549 0.77464 0.46477
 N1911 N 0.23173 0.78922 0.45839
 N1912 N 0.22371 0.79723 0.44606
 N1913 N 0.69259 0.67186 0.60661
 C1914 C 0.68595 0.68601 0.59981
 N1915 N 0.67181 0.69264 0.60662
 N1916 N 0.66453 0.68536 0.61984
 C1917 C 0.67113 0.67119 0.62677
 N1918 N 0.68530 0.66459 0.61984
 C1919 C 0.69405 0.69410 0.58585
 C1920 C 0.70097 0.70102 0.57427
 C1921 C 0.70934 0.70941 0.56066
 N1922 N 0.70305 0.72393 0.55430
 N1923 N 0.71105 0.73194 0.54195
 C1924 C 0.72561 0.72572 0.53554
 N1925 N 0.73186 0.71115 0.54192
 N1926 N 0.72385 0.70314 0.55427
 N1927 N 0.69251 0.17136 0.10618
 C1928 C 0.68588 0.18551 0.09938
 N1929 N 0.67172 0.19213 0.10618
 N1930 N 0.66444 0.18484 0.11940
 C1931 C 0.67105 0.17067 0.12633
 N1932 N 0.68523 0.16408 0.11940
 C1933 C 0.69397 0.19361 0.08544
 C1934 C 0.70089 0.20056 0.07386
 C1935 C 0.70925 0.20898 0.06026
 N1936 N 0.70293 0.22349 0.05392
 N1937 N 0.71092 0.23154 0.04158
 C1938 C 0.72549 0.22535 0.03517
 N1939 N 0.73177 0.21079 0.04153
 N1940 N 0.72377 0.20274 0.05387
 N1941 N 0.19256 0.67167 0.10611
 C1942 C 0.18594 0.68582 0.09930
 N1943 N 0.17180 0.69247 0.10611
 N1944 N 0.16452 0.68521 0.11934
 C1945 C 0.17110 0.67103 0.12626
 N1946 N 0.18527 0.66441 0.11933
 C1947 C 0.19405 0.69390 0.08535
 C1948 C 0.20098 0.70081 0.07377
 C1949 C 0.20937 0.70919 0.06015
 N1950 N 0.20309 0.72370 0.05378
 N1951 N 0.21111 0.73171 0.04143
 C1952 C 0.22567 0.72547 0.03504
 N1953 N 0.23190 0.71090 0.04143
 N1954 N 0.22388 0.70290 0.05378
 N1955 N 0.17152 0.19199 0.60648
 C1956 C 0.18569 0.18538 0.59969
 N1957 N 0.19234 0.17124 0.60649
 N1958 N 0.18505 0.16395 0.61970
 C1959 C 0.17085 0.17052 0.62661
 N1960 N 0.16424 0.18469 0.61969
 C1961 C 0.19379 0.19350 0.58576
 C1962 C 0.20071 0.20045 0.57419
 C1963 C 0.20909 0.20887 0.56060
 N1964 N 0.22362 0.20262 0.55422
 N1965 N 0.23162 0.21067 0.54188
 C1966 C 0.22538 0.22524 0.53553
 N1967 N 0.21081 0.23145 0.54193
 N1968 N 0.20280 0.22340 0.55427
   
