data_POSCAR
  _audit_creation_date              2014-09-24
  _audit_creation_method            'ToBaCCo'
  _symmetry_space_group_name_H-M    'P1'
  _symmetry_Int_Tables_number       1
  _symmetry_cell_setting            triclinic
  loop_
  _symmetry_equiv_pos_as_xyz
 x,y,z
_cell_length_a 70.1086
_cell_length_b 70.1043
_cell_length_c 70.1122
_cell_angle_alpha 89.976800
_cell_angle_beta 90.046500
_cell_angle_gamma 89.980500
loop_
  _atom_site_label
  _atom_site_type_symbol
  _atom_site_fract_x
  _atom_site_fract_y
  _atom_site_fract_z
C1 C 0.12525 0.00201 0.24949
 C2 C 0.37513 -0.00090 0.74956
 C3 C 0.87500 0.49896 0.24807
 C4 C 0.62549 0.50110 0.74954
 C5 C 0.24952 0.12563 1.00134
 C6 C 0.75168 0.37472 1.00039
 C7 C 0.25161 0.87487 0.50107
 C8 C 0.74815 0.62569 0.50080
 C9 C 0.00049 0.25052 0.12509
 C10 C -0.00100 0.75010 0.37454
 C11 C 0.49846 0.24806 0.87463
 C12 C 0.50092 0.75030 0.62524
 C13 C 0.87531 1.00116 0.74924
 C14 C 0.37517 0.50188 0.24945
 C15 C 0.62511 0.99917 0.24989
 C16 C 0.12520 0.49910 0.74821
 C17 C 0.74953 0.87566 0.00036
 C18 C 0.24837 0.37574 0.50133
 C19 C 0.25171 0.62450 0.00113
 C20 C 0.75124 0.12468 0.50049
 C21 C 1.00105 0.75059 0.87524
 C22 C 0.50077 0.25039 0.37526
 C23 C 0.99834 0.24986 0.62485
 C24 C 0.49878 0.74806 0.12442
 O25 O -0.01267 0.94654 0.99064
 O26 O -0.00305 0.94621 1.02211
 O27 O -0.05461 0.99155 0.98849
 O28 O -0.05599 1.02266 0.99433
 O29 O -0.00967 0.98872 0.94573
 O30 O 0.02304 0.99714 0.94584
 O31 O -0.00362 1.04274 1.03686
 O32 O -0.03344 1.02948 1.03898
 O33 O 0.03596 0.99812 1.04228
 O34 O 0.04057 0.96732 1.02679
 O35 O 0.04180 1.03719 0.99725
 O36 O 0.02636 1.04200 0.96682
 O37 O 0.01168 1.05398 1.01047
 O38 O 0.00224 1.05417 0.97582
 O39 O 0.05314 1.01078 1.01235
 O40 O 0.05307 0.97640 1.00285
 O41 O 0.00973 1.01372 1.05335
 O42 O -0.02292 0.99993 1.05279
 O43 O 0.00313 0.95754 0.96442
 O44 O 0.03343 0.97342 0.96036
 O45 O -0.03614 1.00395 0.95674
 O46 O -0.03866 1.03525 0.97300
 O47 O -0.04337 0.96481 1.00315
 O48 O -0.02751 0.96342 1.03468
 Zr49 Zr -0.01437 0.97064 1.00838
 O50 O 0.00315 0.98705 1.02644
 Zr51 Zr -0.03045 1.00913 0.98578
 O52 O -0.01413 1.02713 1.00342
 Zr53 Zr 0.00809 0.98672 0.96985
 O54 O 0.02619 1.00420 0.98630
 Zr55 Zr -0.00904 1.01415 1.02993
 O56 O -0.02764 0.99719 1.01323
 Zr57 Zr 0.02964 0.99217 1.01353
 O58 O 0.01303 0.97369 0.99640
 Zr59 Zr 0.01308 1.03069 0.99145
 O60 O -0.00391 1.01411 0.97269
 O61 O -0.01881 0.98227 0.98141
 O62 O 0.01794 1.01906 1.01836
 C63 C -0.00487 0.94428 0.97423
 C64 C -0.05676 0.97487 0.99574
 C65 C -0.02621 0.99622 0.94346
 C66 C 0.00457 1.05598 1.02724
 C67 C 0.02644 1.00655 1.05543
 C68 C 0.05509 1.02757 1.00536
 H69 H 0.00450 0.98045 1.03884
 H70 H 0.03849 1.00565 0.97959
 H71 H -0.02698 0.97412 0.97327
 H72 H -0.02090 1.03939 1.00504
 H73 H -0.04463 1.02140 1.03598
 H74 H -0.05300 1.02993 1.00603
 H75 H 0.05771 0.98290 0.99122
 H76 H 0.03740 0.96450 0.97057
 H77 H -0.02235 1.00832 1.06416
 H78 H -0.03497 0.95151 1.03298
 H79 H 0.03567 1.03244 0.96224
 H80 H 0.01864 1.01041 0.94384
 H81 H 0.01036 0.94499 1.01788
 H82 H 0.03132 0.96328 1.03664
 H83 H -0.02926 1.03800 0.96283
 H84 H -0.00920 1.05895 0.98255
 O85 O 0.48617 0.44618 0.49079
 O86 O 0.49572 0.44558 0.52225
 O87 O 0.44439 0.49139 0.48893
 O88 O 0.44312 0.52247 0.49492
 O89 O 0.48936 0.48863 0.44619
 O90 O 0.52206 0.49694 0.44634
 O91 O 0.49553 0.54200 0.53770
 O92 O 0.46568 0.52882 0.53974
 O93 O 0.53498 0.49723 0.54277
 O94 O 0.53951 0.46655 0.52711
 O95 O 0.54094 0.53660 0.49806
 O96 O 0.52560 0.54174 0.46773
 O97 O 0.51087 0.55340 0.51140
 O98 O 0.50140 0.55381 0.47671
 O99 O 0.55220 0.51003 0.51294
 O100 O 0.55197 0.47569 0.50317
 O101 O 0.50881 0.51281 0.55399
 O102 O 0.47610 0.49914 0.55331
 O103 O 0.50205 0.45731 0.46467
 O104 O 0.53241 0.47314 0.46074
 O105 O 0.46293 0.50390 0.45725
 O106 O 0.46054 0.53513 0.47376
 O107 O 0.45548 0.46449 0.50340
 O108 O 0.47135 0.46283 0.53494
 Zr109 Zr 0.48453 0.47017 0.50869
 O110 O 0.50211 0.48636 0.52687
 Zr111 Zr 0.46862 0.50888 0.48634
 O112 O 0.48498 0.52667 0.50415
 Zr113 Zr 0.50709 0.48644 0.47030
 O114 O 0.52523 0.50374 0.48686
 Zr115 Zr 0.49003 0.51348 0.53057
 O116 O 0.47136 0.49674 0.51372
 Zr117 Zr 0.52862 0.49149 0.51400
 O118 O 0.51195 0.47319 0.49675
 Zr119 Zr 0.51221 0.53024 0.49221
 O120 O 0.49519 0.51385 0.47331
 O121 O 0.48016 0.48200 0.48179
 O122 O 0.51702 0.51839 0.51903
 C123 C 0.49399 0.44400 0.47438
 C124 C 0.44215 0.47468 0.49606
 C125 C 0.47285 0.49620 0.44393
 C126 C 0.50376 0.55529 0.52819
 C127 C 0.52550 0.50558 0.55599
 C128 C 0.55421 0.52687 0.50608
 H129 H 0.50344 0.47967 0.53922
 H130 H 0.53754 0.50520 0.48016
 H131 H 0.47196 0.47393 0.47360
 H132 H 0.47825 0.53895 0.50586
 H133 H 0.45446 0.52081 0.53666
 H134 H 0.44609 0.52952 0.50676
 H135 H 0.55669 0.48231 0.49164
 H136 H 0.53631 0.46409 0.47087
 H137 H 0.47671 0.50743 0.56475
 H138 H 0.46382 0.45098 0.53315
 H139 H 0.53474 0.53211 0.46298
 H140 H 0.51773 0.51025 0.44444
 H141 H 0.50915 0.44437 0.51808
 H142 H 0.53022 0.46242 0.53689
 H143 H 0.46992 0.53787 0.46356
 H144 H 0.49004 0.55866 0.48352
 O145 O 0.45857 -0.03597 0.49715
 O146 O 0.47243 -0.03904 0.46743
 O147 O 0.50571 -0.04242 0.53613
 O148 O 0.53336 -0.02813 0.54219
 O149 O 0.46546 0.00428 0.54320
 O150 O 0.46139 0.03403 0.52765
 O151 O 0.55515 0.00915 0.48675
 O152 O 0.55572 -0.02173 0.49741
 O153 O 0.51078 0.01305 0.44653
 O154 O 0.47714 0.00459 0.44619
 O155 O 0.51431 0.05390 0.49024
 O156 O 0.50649 0.05474 0.52359
 O157 O 0.54435 0.03572 0.50206
 O158 O 0.52844 0.03988 0.53407
 O159 O 0.49853 0.04298 0.46407
 O160 O 0.46684 0.02689 0.46062
 O161 O 0.53741 -0.00198 0.45747
 O162 O 0.53711 -0.03448 0.47168
 O163 O 0.44751 -0.00921 0.51199
 O164 O 0.44769 0.02413 0.50322
 O165 O 0.49183 -0.01114 0.55424
 O166 O 0.52568 -0.00091 0.55295
 O167 O 0.48948 -0.05347 0.51024
 O168 O 0.50055 -0.05237 0.47674
 Zr169 Zr 0.48742 -0.02971 0.49195
 O170 O 0.50426 -0.01309 0.47347
 Zr171 Zr 0.50992 -0.01329 0.53036
 O172 O 0.52815 0.00342 0.51335
 Zr173 Zr 0.47138 0.00899 0.51417
 O174 O 0.48798 0.02717 0.49696
 Zr175 Zr 0.53103 -0.00853 0.48605
 O176 O 0.51486 -0.02672 0.50392
 Zr177 Zr 0.49252 0.01426 0.47031
 O178 O 0.47428 -0.00313 0.48691
 Zr179 Zr 0.51549 0.03015 0.50857
 O180 O 0.49795 0.01407 0.52725
 O181 O 0.48304 -0.01785 0.51881
 O182 O 0.51970 0.01865 0.48152
 C183 C 0.44529 -0.02592 0.50477
 C184 C 0.49752 -0.05570 0.52654
 C185 C 0.47533 -0.00353 0.55649
 C186 C 0.55743 0.02589 0.49379
 C187 C 0.52759 0.00615 0.44434
 C188 C 0.50696 0.05609 0.47363
 H189 H 0.50553 -0.01975 0.46111
 H190 H 0.48141 0.03959 0.49576
 H191 H 0.47496 -0.02599 0.52705
 H192 H 0.54069 0.00450 0.51972
 H193 H 0.55147 -0.03378 0.50342
 H194 H 0.54440 -0.02561 0.53381
 H195 H 0.46399 0.03788 0.46899
 H196 H 0.44508 0.01884 0.49039
 H197 H 0.54961 -0.03309 0.46521
 H198 H 0.49285 -0.06412 0.47844
 H199 H 0.49343 0.05782 0.51924
 H200 H 0.47192 0.03861 0.53587
 H201 H 0.46475 -0.02808 0.46290
 H202 H 0.48231 -0.00803 0.44258
 H203 H 0.51911 0.01109 0.55646
 H204 H 0.53962 0.03167 0.53667
 O205 O -0.04092 0.46353 0.99503
 O206 O -0.02655 0.46046 0.96555
 O207 O 0.00550 0.45721 1.03483
 O208 O 0.03303 0.47153 1.04134
 O209 O -0.03491 0.50386 1.04115
 O210 O -0.03882 0.53357 1.02548
 O211 O 0.05570 0.50890 0.98620
 O212 O 0.05620 0.47805 0.99695
 O213 O 0.01203 0.51263 0.94526
 O214 O -0.02155 0.50416 0.94434
 O215 O 0.01469 0.55352 0.98908
 O216 O 0.00632 0.55431 1.02231
 O217 O 0.04458 0.53544 1.00133
 O218 O 0.02818 0.53954 1.03309
 O219 O -0.00057 0.54260 0.96261
 O220 O -0.03218 0.52640 0.95863
 O221 O 0.03848 0.49761 0.95667
 O222 O 0.03803 0.46516 0.97095
 O223 O -0.05230 0.49026 1.00967
 O224 O -0.05205 0.52359 1.00084
 O225 O -0.00870 0.48851 1.05267
 O226 O 0.02516 0.49876 1.05194
 O227 O -0.01023 0.44611 1.00866
 O228 O 0.00145 0.44723 0.97535
 Zr229 Zr -0.01200 0.46986 0.99032
 O230 O 0.00511 0.48652 0.97213
 Zr231 Zr 0.00979 0.48634 1.02910
 O232 O 0.02828 0.50308 1.01240
 Zr233 Zr -0.02851 0.50853 1.01222
 O234 O -0.01165 0.52675 0.99530
 Zr235 Zr 0.03165 0.49113 0.98516
 O236 O 0.01522 0.47291 1.00276
 Zr237 Zr -0.00663 0.51384 0.96874
 O238 O -0.02511 0.49641 0.98502
 Zr239 Zr 0.01564 0.52978 1.00740
 O240 O -0.00219 0.51367 1.02577
 O241 O -0.01688 0.48172 1.01709
 O242 O 0.02035 0.51829 0.98042
 C243 C -0.05435 0.47355 1.00242
 C244 C -0.00250 0.44392 1.02512
 C245 C -0.02525 0.49610 1.05462
 C246 C 0.05781 0.52565 0.99325
 C247 C 0.02886 0.50570 0.94336
 C248 C 0.00764 0.55573 0.97234
 H249 H 0.00660 0.47985 0.95979
 H250 H -0.01823 0.53915 0.99399
 H251 H -0.02508 0.47358 1.02520
 H252 H 0.04071 0.50420 1.01897
 H253 H 0.05189 0.46599 1.00291
 H254 H 0.04421 0.47407 1.03315
 H255 H -0.03518 0.53740 0.96693
 H256 H -0.05443 0.51828 0.98798
 H257 H 0.05064 0.46657 0.96469
 H258 H -0.00624 0.43546 0.97693
 H259 H -0.00664 0.55741 1.01769
 H260 H -0.02845 0.53818 1.03389
 H261 H -0.03417 0.47140 0.96088
 H262 H -0.01637 0.49150 0.94089
 H263 H 0.01852 0.51076 1.05532
 H264 H 0.03935 0.53136 1.03586
 O265 O -0.03899 0.49611 0.45711
 O266 O -0.04214 0.46670 0.47161
 O267 O -0.04467 0.53604 0.50352
 O268 O -0.03005 0.54252 0.53089
 O269 O 0.00168 0.54201 0.46271
 O270 O 0.03125 0.52615 0.45864
 O271 O 0.00715 0.48718 0.55344
 O272 O -0.02363 0.49815 0.55413
 O273 O 0.01021 0.44613 0.50986
 O274 O 0.00142 0.44523 0.47632
 O275 O 0.05142 0.48967 0.51210
 O276 O 0.05233 0.52292 0.50355
 O277 O 0.03369 0.50211 0.54204
 O278 O 0.03789 0.53379 0.52554
 O279 O 0.04017 0.46324 0.49701
 O280 O 0.02370 0.45931 0.46553
 O281 O -0.00447 0.45770 0.53640
 O282 O -0.03683 0.47217 0.53616
 O283 O -0.01225 0.51056 0.44551
 O284 O 0.02100 0.50157 0.44553
 O285 O -0.01338 0.55367 0.48900
 O286 O -0.00283 0.55293 0.52276
 O287 O -0.05607 0.50993 0.48792
 O288 O -0.05506 0.47663 0.49967
 Zr289 Zr -0.03246 0.49143 0.48601
 O290 O -0.01577 0.47316 0.50306
 Zr291 Zr -0.01553 0.53014 0.50757
 O292 O 0.00126 0.51337 0.52597
 Zr293 Zr 0.00621 0.51306 0.46915
 O294 O 0.02446 0.49603 0.48591
 Zr295 Zr -0.01083 0.48621 0.52952
 O296 O -0.02909 0.50390 0.51317
 Zr297 Zr 0.01142 0.46957 0.49112
 O298 O -0.00605 0.48595 0.47272
 Zr299 Zr 0.02781 0.50817 0.51314
 O300 O 0.01167 0.52661 0.49539
 O301 O -0.02047 0.51812 0.48097
 O302 O 0.01618 0.48127 0.51802
 C303 C -0.02902 0.50339 0.44358
 C304 C -0.05810 0.52640 0.49566
 C305 C -0.00591 0.55555 0.47240
 C306 C 0.02398 0.49412 0.55538
 C307 C 0.00344 0.44431 0.52676
 C308 C 0.05343 0.47289 0.50510
 H309 H -0.02251 0.46087 0.50465
 H310 H 0.03679 0.49462 0.47925
 H311 H -0.02863 0.52627 0.47280
 H312 H 0.00254 0.51996 0.53837
 H313 H -0.03569 0.50416 0.54989
 H314 H -0.02746 0.53434 0.54208
 H315 H 0.03474 0.46753 0.46242
 H316 H 0.01563 0.48871 0.44327
 H317 H -0.03536 0.46594 0.54878
 H318 H -0.06689 0.47828 0.49206
 H319 H 0.05535 0.51817 0.49062
 H320 H 0.03601 0.53453 0.46896
 H321 H -0.03130 0.46193 0.46394
 H322 H -0.01118 0.44183 0.48166
 H323 H 0.00914 0.55620 0.51604
 H324 H 0.02980 0.53667 0.53673
 O325 O 0.51112 0.94459 0.00974
 O326 O 0.50132 0.94417 -0.02167
 O327 O 0.55267 0.98993 0.01159
 O328 O 0.55378 1.02104 0.00571
 O329 O 0.50806 0.98672 0.05461
 O330 O 0.47530 0.99492 0.05473
 O331 O 0.50101 1.04069 -0.03654
 O332 O 0.53088 1.02763 -0.03887
 O333 O 0.46172 0.99576 -0.04163
 O334 O 0.45743 0.96498 -0.02607
 O335 O 0.45588 1.03484 0.00338
 O336 O 0.47139 1.03985 0.03362
 O337 O 0.48582 1.05185 -0.01005
 O338 O 0.49549 1.05204 0.02460
 O339 O 0.44463 1.00835 -0.01159
 O340 O 0.44506 0.97396 -0.00204
 O341 O 0.48774 1.01154 -0.05292
 O342 O 0.52050 0.99800 -0.05254
 O343 O 0.49538 0.95547 0.03604
 O344 O 0.46497 0.97115 0.04027
 O345 O 0.53432 1.00217 0.04342
 O346 O 0.53646 1.03352 0.02710
 O347 O 0.54160 0.96309 -0.00296
 O348 O 0.52555 0.96158 -0.03442
 Zr349 Zr 0.51251 0.96870 -0.00804
 O350 O 0.49473 0.98495 -0.02600
 Zr351 Zr 0.52840 1.00732 0.01442
 O352 O 0.51183 1.02517 -0.00316
 Zr353 Zr 0.49015 0.98462 0.03061
 O354 O 0.47182 1.00197 0.01427
 Zr355 Zr 0.50667 1.01214 -0.02962
 O356 O 0.52552 0.99535 -0.01301
 Zr357 Zr 0.46828 0.98990 -0.01292
 O358 O 0.48516 0.97154 0.00412
 Zr359 Zr 0.48468 1.02855 0.00900
 O360 O 0.50191 1.01210 0.02767
 O361 O 0.51701 0.98037 0.01889
 O362 O 0.47973 1.01687 -0.01787
 C363 C 0.50344 0.94227 0.02620
 C364 C 0.55494 0.97326 0.00438
 C365 C 0.52456 0.99434 0.05677
 C366 C 0.49282 1.05390 -0.02687
 C367 C 0.47109 1.00423 -0.05487
 C368 C 0.44260 1.02513 -0.00460
 H369 H 0.49334 0.97833 -0.03837
 H370 H 0.45955 1.00333 0.02107
 H371 H 0.52530 0.97228 0.02699
 H372 H 0.51850 1.03749 -0.00483
 H373 H 0.54216 1.01964 -0.03592
 H374 H 0.55068 1.02821 -0.00603
 H375 H 0.44043 0.98045 0.00960
 H376 H 0.46103 0.96217 0.03011
 H377 H 0.51979 1.00637 -0.06393
 H378 H 0.53313 0.94974 -0.03274
 H379 H 0.46237 1.03013 0.03841
 H380 H 0.47961 1.00822 0.05669
 H381 H 0.48794 0.94285 -0.01737
 H382 H 0.46667 0.96095 -0.03593
 H383 H 0.52716 1.03615 0.03738
 H384 H 0.50678 1.05698 0.01773
 O385 O 0.54345 0.46168 0.00301
 O386 O 0.52929 0.45840 0.03252
 O387 O 0.49668 0.45548 -0.03650
 O388 O 0.46916 0.46983 -0.04287
 O389 O 0.53699 0.50229 -0.04288
 O390 O 0.54093 0.53188 -0.02709
 O391 O 0.44674 0.50675 0.01269
 O392 O 0.44628 0.47594 0.00177
 O393 O 0.49062 0.51043 0.05332
 O394 O 0.52424 0.50198 0.05402
 O395 O 0.48753 0.55149 0.00976
 O396 O 0.49572 0.55250 -0.02353
 O397 O 0.45767 0.53341 -0.00236
 O398 O 0.47383 0.53772 -0.03424
 O399 O 0.50303 0.54047 0.03607
 O400 O 0.53473 0.52432 0.03976
 O401 O 0.46415 0.49541 0.04201
 O402 O 0.46465 0.46299 0.02763
 O403 O 0.55463 0.48855 -0.01156
 O404 O 0.55433 0.52182 -0.00258
 O405 O 0.51077 0.48693 -0.05431
 O406 O 0.47687 0.49711 -0.05330
 O407 O 0.51264 0.44424 -0.01052
 O408 O 0.50125 0.44518 0.02290
 Zr409 Zr 0.51453 0.46791 0.00792
 O410 O 0.49748 0.48442 0.02631
 Zr411 Zr 0.49244 0.48458 -0.03063
 O412 O 0.47399 0.50116 -0.01373
 Zr413 Zr 0.53077 0.50675 -0.01389
 O414 O 0.51396 0.52483 0.00323
 Zr415 Zr 0.47085 0.48904 0.01347
 O416 O 0.48722 0.47097 -0.00433
 Zr417 Zr 0.50915 0.51176 0.02975
 O418 O 0.52758 0.49447 0.01327
 Zr419 Zr 0.48658 0.52786 -0.00869
 O420 O 0.50435 0.51191 -0.02724
 O421 O 0.51920 0.47994 -0.01883
 O422 O 0.48209 0.51619 0.01826
 C423 C 0.55680 0.47180 -0.00439
 C424 C 0.50474 0.44213 -0.02690
 C425 C 0.52727 0.49459 -0.05633
 C426 C 0.44453 0.52355 0.00577
 C427 C 0.47380 0.50350 0.05529
 C428 C 0.49467 0.55362 0.02646
 H429 H 0.49608 0.47769 0.03863
 H430 H 0.52050 0.53725 0.00456
 H431 H 0.52737 0.47186 -0.02703
 H432 H 0.46151 0.50228 -0.02022
 H433 H 0.45059 0.46391 -0.00424
 H434 H 0.45806 0.47215 -0.03451
 H435 H 0.53762 0.53540 0.03151
 H436 H 0.55680 0.51644 0.01024
 H437 H 0.45207 0.46433 0.03396
 H438 H 0.50896 0.43342 0.02119
 H439 H 0.50869 0.55563 -0.01895
 H440 H 0.53047 0.53656 -0.03536
 H441 H 0.53683 0.46936 0.03726
 H442 H 0.51908 0.48931 0.05748
 H443 H 0.48347 0.50913 -0.05668
 H444 H 0.46265 0.52956 -0.03695
 O445 O -0.00232 -0.04239 0.46320
 O446 O -0.03180 -0.02804 0.46020
 O447 O 0.03736 0.00421 0.45730
 O448 O 0.04386 0.03157 0.47189
 O449 O 0.04381 -0.03663 0.50363
 O450 O 0.02815 -0.04079 0.53328
 O451 O -0.01140 0.05386 0.50929
 O452 O -0.00063 0.05462 0.47846
 O453 O -0.05221 0.01011 0.51264
 O454 O -0.05302 -0.02345 0.50386
 O455 O -0.00845 0.01255 0.55358
 O456 O 0.02480 0.00417 0.55439
 O457 O 0.00375 0.04255 0.53577
 O458 O 0.03557 0.02615 0.53979
 O459 O -0.03487 -0.00267 0.54249
 O460 O -0.03875 -0.03418 0.52609
 O461 O -0.04086 0.03670 0.49788
 O462 O -0.02660 0.03651 0.46542
 O463 O 0.01233 -0.05397 0.48987
 O464 O 0.00355 -0.05399 0.52318
 O465 O 0.05525 -0.01028 0.48851
 O466 O 0.05442 0.02350 0.49904
 O467 O 0.01125 -0.01149 0.44602
 O468 O -0.02209 0.00008 0.44720
 Zr469 Zr -0.00708 -0.01353 0.46974
 O470 O -0.02533 0.00343 0.48650
 Zr471 Zr 0.03163 0.00819 0.48646
 O472 O 0.01488 0.02653 0.50331
 Zr473 Zr 0.01486 -0.03032 0.50831
 O474 O -0.00212 -0.01363 0.52663
 Zr475 Zr -0.01236 0.02995 0.49134
 O476 O 0.00529 0.01369 0.47302
 Zr477 Zr -0.02869 -0.00854 0.51372
 O478 O -0.01234 -0.02685 0.49618
 Zr479 Zr 0.00991 0.01366 0.52990
 O480 O 0.02833 -0.00402 0.51368
 O481 O 0.01970 -0.01846 0.48160
 O482 O -0.01708 0.01842 0.51839
 C483 C 0.00507 -0.05590 0.47314
 C484 C 0.02766 -0.00367 0.44392
 C485 C 0.05726 -0.02688 0.49598
 C486 C -0.00437 0.05584 0.52608
 C487 C -0.05414 0.02701 0.50589
 C488 C -0.02518 0.00549 0.55569
 H489 H -0.03767 0.00496 0.47983
 H490 H -0.00342 -0.02030 0.53898
 H491 H 0.02783 -0.02659 0.47340
 H492 H 0.02142 0.03896 0.50454
 H493 H 0.00532 0.05041 0.46637
 H494 H 0.03559 0.04270 0.47441
 H495 H -0.03045 -0.03724 0.53710
 H496 H -0.00933 -0.05631 0.51787
 H497 H -0.03289 0.04910 0.46691
 H498 H -0.02049 -0.00753 0.43537
 H499 H 0.02020 -0.00882 0.55739
 H500 H 0.03650 -0.03043 0.53800
 H501 H -0.03648 -0.03573 0.47107
 H502 H -0.05655 -0.01810 0.49129
 H503 H 0.05783 0.01676 0.51098
 H504 H 0.03830 0.03740 0.53173
 O505 O 0.69638 0.23652 0.25940
 O506 O 0.69590 0.24606 0.22793
 O507 O 0.74150 0.19466 0.26144
 O508 O 0.77258 0.19330 0.25559
 O509 O 0.73866 0.23968 0.30413
 O510 O 0.74708 0.27236 0.30399
 O511 O 0.79236 0.24560 0.21280
 O512 O 0.77911 0.21578 0.21075
 O513 O 0.74771 0.28516 0.20755
 O514 O 0.71702 0.28981 0.22310
 O515 O 0.78697 0.29106 0.25239
 O516 O 0.79202 0.27579 0.28271
 O517 O 0.80373 0.26093 0.23913
 O518 O 0.80397 0.25147 0.27387
 O519 O 0.76049 0.30239 0.23741
 O520 O 0.72611 0.30226 0.24707
 O521 O 0.76325 0.25893 0.19640
 O522 O 0.74950 0.22626 0.19707
 O523 O 0.70746 0.25242 0.28554
 O524 O 0.72336 0.28278 0.28947
 O525 O 0.75390 0.21320 0.29315
 O526 O 0.78522 0.21074 0.27677
 O527 O 0.71467 0.20579 0.24686
 O528 O 0.71312 0.22164 0.21530
 Zr529 Zr 0.72042 0.23482 0.24158
 O530 O 0.73672 0.25235 0.22344
 Zr531 Zr 0.75902 0.21885 0.26408
 O532 O 0.77691 0.23513 0.24631
 Zr533 Zr 0.73662 0.25740 0.28000
 O534 O 0.75404 0.27546 0.26349
 Zr535 Zr 0.76381 0.24018 0.21985
 O536 O 0.74697 0.22158 0.23666
 Zr537 Zr 0.74188 0.27887 0.23631
 O538 O 0.72348 0.26226 0.25350
 Zr539 Zr 0.78051 0.26236 0.25824
 O540 O 0.76402 0.24542 0.27711
 O541 O 0.73215 0.23046 0.26851
 O542 O 0.76876 0.26718 0.23138
 C543 C 0.69417 0.24436 0.27580
 C544 C 0.72480 0.19245 0.25426
 C545 C 0.74616 0.22315 0.30642
 C546 C 0.80565 0.25380 0.22235
 C547 C 0.75607 0.27564 0.19436
 C548 C 0.77731 0.30435 0.24434
 H549 H 0.73006 0.25368 0.21107
 H550 H 0.75551 0.28778 0.27019
 H551 H 0.72404 0.22229 0.27668
 H552 H 0.78917 0.22837 0.24465
 H553 H 0.77106 0.20459 0.21382
 H554 H 0.77965 0.19622 0.24376
 H555 H 0.73271 0.30698 0.25862
 H556 H 0.71434 0.28666 0.27932
 H557 H 0.75782 0.22682 0.18565
 H558 H 0.70126 0.21413 0.21707
 H559 H 0.78235 0.28486 0.28750
 H560 H 0.76037 0.26798 0.30596
 H561 H 0.69470 0.25949 0.23210
 H562 H 0.71287 0.28050 0.21335
 H563 H 0.78791 0.22008 0.28700
 H564 H 0.80885 0.24013 0.26704
 O565 O 0.75409 0.71455 0.70800
 O566 O 0.78377 0.71151 0.72196
 O567 O 0.71504 0.70821 0.75504
 O568 O 0.70889 0.72258 0.78261
 O569 O 0.70796 0.75477 0.71462
 O570 O 0.72346 0.78452 0.71049
 O571 O 0.76431 0.75998 0.80445
 O572 O 0.75368 0.72911 0.80511
 O573 O 0.80456 0.76377 0.76019
 O574 O 0.80495 0.75524 0.72658
 O575 O 0.76073 0.80458 0.76348
 O576 O 0.72742 0.80537 0.75558
 O577 O 0.74894 0.78649 0.79353
 O578 O 0.71691 0.79054 0.77751
 O579 O 0.78697 0.79368 0.74782
 O580 O 0.79047 0.77748 0.71617
 O581 O 0.79361 0.74879 0.78682
 O582 O 0.77944 0.71629 0.78659
 O583 O 0.73922 0.74126 0.69680
 O584 O 0.74792 0.77461 0.69691
 O585 O 0.69690 0.73944 0.74101
 O586 O 0.69815 0.74977 0.77485
 O587 O 0.74095 0.69712 0.73891
 O588 O 0.77445 0.69830 0.75011
 Zr589 Zr 0.75922 0.72090 0.73684
 O590 O 0.77765 0.73760 0.75368
 Zr591 Zr 0.72077 0.73736 0.75917
 O592 O 0.73772 0.75413 0.77741
 Zr593 Zr 0.73697 0.75952 0.72061
 O594 O 0.75412 0.77778 0.73721
 Zr595 Zr 0.76504 0.74222 0.78039
 O596 O 0.74721 0.72395 0.76423
 Zr597 Zr 0.78078 0.76492 0.74186
 O598 O 0.76424 0.74745 0.72364
 Zr599 Zr 0.74246 0.78082 0.76467
 O600 O 0.72384 0.76468 0.74712
 O601 O 0.73235 0.73272 0.73234
 O602 O 0.76954 0.76937 0.76900
 C603 C 0.74649 0.72456 0.69465
 C604 C 0.72464 0.69492 0.74691
 C605 C 0.69466 0.74698 0.72448
 C606 C 0.75723 0.77672 0.80665
 C607 C 0.80674 0.75690 0.77701
 C608 C 0.77735 0.80679 0.75619
 H609 H 0.79003 0.73095 0.75500
 H610 H 0.75530 0.79018 0.73061
 H611 H 0.72414 0.72455 0.72426
 H612 H 0.73133 0.75524 0.78992
 H613 H 0.74770 0.71703 0.80089
 H614 H 0.71732 0.72505 0.79364
 H615 H 0.78211 0.78848 0.71329
 H616 H 0.76077 0.76934 0.69436
 H617 H 0.78589 0.71771 0.79910
 H618 H 0.77276 0.68651 0.74246
 H619 H 0.73174 0.80840 0.74250
 H620 H 0.71521 0.78912 0.72098
 H621 H 0.78833 0.72245 0.71430
 H622 H 0.80856 0.74263 0.73177
 H623 H 0.69460 0.76172 0.76822
 H624 H 0.71435 0.78240 0.78875
 O625 O 0.28465 0.20547 0.74628
 O626 O 0.28756 0.21959 0.71666
 O627 O 0.29120 0.25227 0.78559
 O628 O 0.27691 0.27984 0.79192
 O629 O 0.24458 0.21193 0.79257
 O630 O 0.21479 0.20791 0.77708
 O631 O 0.23925 0.30207 0.73673
 O632 O 0.27016 0.30263 0.74736
 O633 O 0.23531 0.25806 0.69626
 O634 O 0.24378 0.22443 0.69564
 O635 O 0.19467 0.26116 0.74023
 O636 O 0.19405 0.25301 0.77356
 O637 O 0.21280 0.29108 0.75211
 O638 O 0.20886 0.27497 0.78405
 O639 O 0.20545 0.24567 0.71386
 O640 O 0.22157 0.21399 0.71011
 O641 O 0.25037 0.28460 0.70734
 O642 O 0.28291 0.28424 0.72145
 O643 O 0.25800 0.19425 0.76117
 O644 O 0.22463 0.19445 0.75253
 O645 O 0.26000 0.23822 0.80374
 O646 O 0.24974 0.27208 0.80273
 O647 O 0.30216 0.23630 0.75953
 O648 O 0.30086 0.24766 0.72611
 Zr649 Zr 0.27831 0.23436 0.74133
 O650 O 0.26156 0.25134 0.72306
 Zr651 Zr 0.26204 0.25650 0.77997
 O652 O 0.24521 0.27487 0.76319
 Zr653 Zr 0.23976 0.21807 0.76359
 O654 O 0.22145 0.23480 0.74659
 Zr655 Zr 0.25701 0.27800 0.73585
 O656 O 0.27533 0.26169 0.75352
 Zr657 Zr 0.23422 0.23959 0.71992
 O658 O 0.25173 0.22123 0.73630
 Zr659 Zr 0.21849 0.26220 0.75844
 O660 O 0.23470 0.24451 0.77690
 O661 O 0.26660 0.22973 0.76821
 O662 O 0.22984 0.26667 0.73136
 C663 C 0.27466 0.19211 0.75384
 C664 C 0.30445 0.24420 0.77588
 C665 C 0.25240 0.22171 0.80591
 C666 C 0.22253 0.30424 0.74384
 C667 C 0.24220 0.27488 0.69416
 C668 C 0.19238 0.25400 0.72356
 H669 H 0.26816 0.25272 0.71067
 H670 H 0.20904 0.22823 0.74540
 H671 H 0.27478 0.22158 0.77636
 H672 H 0.24413 0.28735 0.76965
 H673 H 0.28226 0.29836 0.75329
 H674 H 0.27432 0.29096 0.78365
 H675 H 0.21061 0.21108 0.71849
 H676 H 0.22984 0.19198 0.73965
 H677 H 0.28147 0.29680 0.71509
 H678 H 0.31264 0.23996 0.72771
 H679 H 0.19088 0.24003 0.76903
 H680 H 0.21021 0.21837 0.78538
 H681 H 0.27659 0.21194 0.71212
 H682 H 0.25639 0.22961 0.69204
 H683 H 0.23776 0.26548 0.80622
 H684 H 0.21705 0.28616 0.78668
 O685 O 0.21262 0.79376 0.24684
 O686 O 0.20944 0.77950 0.21733
 O687 O 0.20687 0.74703 0.28642
 O688 O 0.22144 0.71961 0.29276
 O689 O 0.25331 0.78773 0.29274
 O690 O 0.28286 0.79190 0.27692
 O691 O 0.25855 0.69742 0.23728
 O692 O 0.22776 0.69670 0.24818
 O693 O 0.26174 0.74132 0.19655
 O694 O 0.25297 0.77490 0.19587
 O695 O 0.30289 0.73863 0.24007
 O696 O 0.30387 0.74695 0.27337
 O697 O 0.28511 0.70866 0.25231
 O698 O 0.28935 0.72492 0.28411
 O699 O 0.29168 0.75398 0.21376
 O700 O 0.27530 0.78554 0.21005
 O701 O 0.24702 0.71470 0.20790
 O702 O 0.21462 0.71491 0.22231
 O703 O 0.23938 0.80521 0.26139
 O704 O 0.27264 0.80521 0.25242
 O705 O 0.23821 0.76138 0.30419
 O706 O 0.24866 0.72758 0.30321
 O707 O 0.19548 0.76285 0.26042
 O708 O 0.19645 0.75138 0.22704
 Zr709 Zr 0.21909 0.76489 0.24196
 O710 O 0.23574 0.74795 0.22358
 Zr711 Zr 0.23599 0.74300 0.28052
 O712 O 0.25273 0.72469 0.26364
 Zr713 Zr 0.25780 0.78152 0.26374
 O714 O 0.27601 0.76486 0.24662
 Zr715 Zr 0.24062 0.72138 0.23644
 O716 O 0.22241 0.73762 0.25423
 Zr717 Zr 0.26295 0.75988 0.22011
 O718 O 0.24552 0.77818 0.23660
 Zr719 Zr 0.27931 0.73752 0.25856
 O720 O 0.26321 0.75516 0.27711
 O721 O 0.23110 0.76970 0.26870
 O722 O 0.26766 0.73288 0.23162
 C723 C 0.22262 0.80722 0.25423
 C724 C 0.19344 0.75498 0.27682
 C725 C 0.24572 0.77794 0.30620
 C726 C 0.27537 0.69540 0.24423
 C727 C 0.25498 0.72443 0.19460
 C728 C 0.30492 0.74575 0.22335
 H729 H 0.22900 0.74648 0.21127
 H730 H 0.28836 0.77151 0.24526
 H731 H 0.22296 0.77782 0.27690
 H732 H 0.25398 0.71224 0.27014
 H733 H 0.21570 0.70092 0.25419
 H734 H 0.22390 0.70850 0.28443
 H735 H 0.28635 0.78855 0.21829
 H736 H 0.26726 0.80758 0.23958
 H737 H 0.21608 0.70234 0.21598
 H738 H 0.18464 0.75900 0.22873
 H739 H 0.30692 0.75991 0.26870
 H740 H 0.28764 0.78149 0.28520
 H741 H 0.22030 0.78718 0.21262
 H742 H 0.24038 0.76957 0.19239
 H743 H 0.26064 0.73427 0.30656
 H744 H 0.28126 0.71371 0.28690
 O745 O 0.24177 0.69443 0.76256
 O746 O 0.27314 0.69400 0.75270
 O747 O 0.24026 0.73927 0.80469
 O748 O 0.24626 0.77034 0.80615
 O749 O 0.19702 0.73683 0.76013
 O750 O 0.19681 0.74537 0.72747
 O751 O 0.28833 0.79047 0.75346
 O752 O 0.29073 0.77706 0.78319
 O753 O 0.29309 0.74602 0.71365
 O754 O 0.27745 0.71534 0.70904
 O755 O 0.24818 0.78531 0.70842
 O756 O 0.21798 0.79022 0.72413
 O757 O 0.26182 0.80190 0.73846
 O758 O 0.22726 0.80217 0.74826
 O759 O 0.26302 0.75890 0.69680
 O760 O 0.25336 0.72453 0.69686
 O761 O 0.30455 0.76142 0.73983
 O762 O 0.30428 0.74750 0.77243
 O763 O 0.21543 0.70562 0.74705
 O764 O 0.21113 0.72166 0.71684
 O765 O 0.20837 0.75191 0.78655
 O766 O 0.22484 0.78312 0.78905
 O767 O 0.25468 0.71251 0.79325
 O768 O 0.28606 0.71107 0.77708
 Zr769 Zr 0.25963 0.71845 0.76421
 O770 O 0.27757 0.73485 0.74658
 Zr771 Zr 0.23738 0.75697 0.78063
 O772 O 0.25494 0.77495 0.76423
 Zr773 Zr 0.22095 0.73480 0.74215
 O774 O 0.23726 0.75230 0.72398
 Zr775 Zr 0.28134 0.76188 0.75883
 O776 O 0.26475 0.74492 0.77753
 Zr777 Zr 0.26440 0.74016 0.72023
 O778 O 0.24738 0.72168 0.73693
 Zr779 Zr 0.24268 0.77870 0.73715
 O780 O 0.22403 0.76213 0.75424
 O781 O 0.23276 0.73017 0.76893
 O782 O 0.26948 0.76698 0.73198
 C783 C 0.22526 0.69227 0.75491
 C784 C 0.24745 0.72256 0.80673
 C785 C 0.19495 0.74428 0.77670
 C786 C 0.27868 0.80380 0.74541
 C787 C 0.30640 0.75433 0.72308
 C788 C 0.25608 0.77573 0.69500
 H789 H 0.28992 0.72820 0.74508
 H790 H 0.23041 0.75384 0.71175
 H791 H 0.22467 0.72202 0.77715
 H792 H 0.25669 0.78718 0.77103
 H793 H 0.28782 0.76894 0.79438
 H794 H 0.25800 0.77751 0.80310
 H795 H 0.24174 0.73114 0.69232
 H796 H 0.22125 0.71270 0.71277
 H797 H 0.31569 0.75583 0.77179
 H798 H 0.28437 0.69915 0.78454
 H799 H 0.21321 0.78069 0.71488
 H800 H 0.19492 0.75864 0.73192
 H801 H 0.26880 0.69288 0.73931
 H802 H 0.28733 0.71116 0.71821
 H803 H 0.21456 0.78594 0.77978
 H804 H 0.23417 0.80692 0.75961
 O805 O 0.25426 0.21516 0.20857
 O806 O 0.28369 0.21217 0.22310
 O807 O 0.21433 0.20933 0.25490
 O808 O 0.20774 0.22391 0.28225
 O809 O 0.20817 0.25565 0.21405
 O810 O 0.22391 0.28528 0.20995
 O811 O 0.26287 0.26132 0.30485
 O812 O 0.25208 0.23050 0.30556
 O813 O 0.30397 0.26455 0.26133
 O814 O 0.30493 0.25581 0.22779
 O815 O 0.26021 0.30559 0.26347
 O816 O 0.22702 0.30642 0.25492
 O817 O 0.24781 0.28779 0.29343
 O818 O 0.21611 0.29184 0.27682
 O819 O 0.28671 0.29448 0.24843
 O820 O 0.29076 0.27805 0.21698
 O821 O 0.29245 0.24981 0.28786
 O822 O 0.27811 0.21740 0.28762
 O823 O 0.23969 0.24183 0.19690
 O824 O 0.24856 0.27513 0.19690
 O825 O 0.19657 0.24054 0.24033
 O826 O 0.19722 0.25109 0.27410
 O827 O 0.24052 0.19803 0.23937
 O828 O 0.27379 0.19917 0.25115
 Zr829 Zr 0.25890 0.22172 0.23746
 O830 O 0.27706 0.23848 0.25452
 Zr831 Zr 0.22009 0.23848 0.25894
 O832 O 0.23675 0.25534 0.27736
 Zr833 Zr 0.23710 0.26030 0.22052
 O834 O 0.25401 0.27862 0.23730
 Zr835 Zr 0.26396 0.24335 0.28096
 O836 O 0.24638 0.22503 0.26459
 Zr837 Zr 0.28053 0.26570 0.24256
 O838 O 0.26427 0.24815 0.22415
 Zr839 Zr 0.24184 0.28191 0.26451
 O840 O 0.22349 0.26570 0.24673
 O841 O 0.23215 0.23360 0.23236
 O842 O 0.26879 0.27039 0.26944
 C843 C 0.24693 0.22508 0.19502
 C844 C 0.22405 0.19594 0.24707
 C845 C 0.19466 0.24800 0.22373
 C846 C 0.25582 0.27810 0.30678
 C847 C 0.30581 0.25777 0.27823
 C848 C 0.27698 0.30769 0.25650
 H849 H 0.28938 0.23179 0.25612
 H850 H 0.25536 0.29096 0.23063
 H851 H 0.22405 0.22541 0.22420
 H852 H 0.23014 0.25657 0.28975
 H853 H 0.24612 0.21842 0.30133
 H854 H 0.21591 0.22650 0.29344
 H855 H 0.28247 0.28902 0.21383
 H856 H 0.26144 0.26979 0.19465
 H857 H 0.28433 0.21889 0.30024
 H858 H 0.27223 0.18734 0.24354
 H859 H 0.23167 0.30938 0.24194
 H860 H 0.21549 0.29001 0.22025
 H861 H 0.28838 0.22302 0.21538
 H862 H 0.30837 0.24320 0.23312
 H863 H 0.19387 0.26303 0.26734
 H864 H 0.21329 0.28378 0.28805
 O865 O 0.78572 0.70621 0.24598
 O866 O 0.78892 0.72060 0.21652
 O867 O 0.79126 0.75279 0.28574
 O868 O 0.77660 0.78016 0.29208
 O869 O 0.74492 0.71194 0.29173
 O870 O 0.71539 0.70778 0.27577
 O871 O 0.73955 0.80247 0.23654
 O872 O 0.77030 0.80323 0.24762
 O873 O 0.73662 0.75876 0.19565
 O874 O 0.74546 0.72521 0.19489
 O875 O 0.69530 0.76107 0.23904
 O876 O 0.69430 0.75267 0.27231
 O877 O 0.71297 0.79110 0.25140
 O878 O 0.70870 0.77472 0.28315
 O879 O 0.70664 0.74589 0.21271
 O880 O 0.72314 0.71444 0.20892
 O881 O 0.75126 0.78534 0.20718
 O882 O 0.78359 0.78518 0.22175
 O883 O 0.75895 0.69463 0.26038
 O884 O 0.72572 0.69458 0.25129
 O885 O 0.75993 0.73828 0.30333
 O886 O 0.74937 0.77204 0.30244
 O887 O 0.80275 0.73711 0.25972
 O888 O 0.80183 0.74871 0.22639
 Zr889 Zr 0.77918 0.73509 0.24117
 O890 O 0.76255 0.75207 0.22278
 Zr891 Zr 0.76214 0.75677 0.27974
 O892 O 0.74538 0.77511 0.26285
 Zr893 Zr 0.74047 0.71827 0.26273
 O894 O 0.72226 0.73495 0.24558
 Zr895 Zr 0.75755 0.77857 0.23573
 O896 O 0.77576 0.76229 0.25352
 Zr897 Zr 0.73537 0.74008 0.21915
 O898 O 0.75280 0.72176 0.23565
 Zr899 Zr 0.71885 0.76222 0.25760
 O900 O 0.73496 0.74455 0.27617
 O901 O 0.76712 0.73013 0.26784
 O902 O 0.73056 0.76702 0.23073
 C903 C 0.77574 0.69270 0.25328
 C904 C 0.80472 0.74491 0.27616
 C905 C 0.75247 0.72169 0.30525
 C906 C 0.72270 0.80441 0.24340
 C907 C 0.74338 0.77567 0.19380
 C908 C 0.69333 0.75400 0.22229
 H909 H 0.76932 0.75362 0.21051
 H910 H 0.70994 0.72826 0.24416
 H911 H 0.77527 0.72200 0.27604
 H912 H 0.74408 0.78753 0.26939
 H913 H 0.78235 0.79902 0.25369
 H914 H 0.77401 0.79132 0.28386
 H915 H 0.71210 0.71133 0.21714
 H916 H 0.73113 0.69228 0.23845
 H917 H 0.78212 0.79777 0.21547
 H918 H 0.81365 0.74110 0.22809
 H919 H 0.69132 0.73970 0.26762
 H920 H 0.71061 0.71812 0.28412
 H921 H 0.77809 0.71289 0.21176
 H922 H 0.75806 0.73057 0.19150
 H923 H 0.73738 0.76531 0.30569
 H924 H 0.71677 0.78593 0.28600
 O925 O 0.71241 0.29284 0.74699
 O926 O 0.70930 0.27888 0.71735
 O927 O 0.70599 0.24579 0.78612
 O928 O 0.72031 0.21820 0.79231
 O929 O 0.75270 0.28607 0.79311
 O930 O 0.78241 0.29012 0.77756
 O931 O 0.75760 0.19622 0.73687
 O932 O 0.72673 0.19566 0.74757
 O933 O 0.76146 0.24044 0.69658
 O934 O 0.75299 0.27408 0.69612
 O935 O 0.80229 0.23705 0.74038
 O936 O 0.80311 0.24500 0.77372
 O937 O 0.78416 0.20708 0.75219
 O938 O 0.78828 0.22304 0.78420
 O939 O 0.79139 0.25273 0.71412
 O940 O 0.77526 0.28445 0.71059
 O941 O 0.74642 0.21386 0.70758
 O942 O 0.71393 0.21421 0.72177
 O943 O 0.73917 0.30394 0.76182
 O944 O 0.77250 0.30373 0.75311
 O945 O 0.73731 0.25974 0.80423
 O946 O 0.74752 0.22587 0.80301
 O947 O 0.69491 0.26194 0.76018
 O948 O 0.69604 0.25077 0.72670
 Zr949 Zr 0.71868 0.26396 0.74191
 O950 O 0.73532 0.24706 0.72349
 Zr951 Zr 0.73513 0.24158 0.78038
 O952 O 0.75183 0.22329 0.76345
 Zr953 Zr 0.75737 0.28007 0.76410
 O954 O 0.77557 0.26341 0.74696
 Zr955 Zr 0.73989 0.22033 0.73614
 O956 O 0.72169 0.23656 0.75395
 Zr957 Zr 0.76266 0.25879 0.72032
 O958 O 0.74525 0.27707 0.73684
 Zr959 Zr 0.77855 0.23594 0.75867
 O960 O 0.76247 0.25355 0.77727
 O961 O 0.73054 0.26843 0.76877
 O962 O 0.76705 0.23164 0.73161
 C963 C 0.72247 0.30615 0.75455
 C964 C 0.69270 0.25393 0.77650
 C965 C 0.74493 0.27623 0.80644
 C966 C 0.77436 0.19398 0.74391
 C967 C 0.75456 0.22363 0.69444
 C968 C 0.80450 0.24432 0.72374
 H969 H 0.72865 0.24575 0.71112
 H970 H 0.78798 0.26998 0.74576
 H971 H 0.72240 0.27654 0.77698
 H972 H 0.75293 0.21077 0.76985
 H973 H 0.71467 0.19992 0.75354
 H974 H 0.72275 0.20715 0.78391
 H975 H 0.78629 0.28728 0.71893
 H976 H 0.76722 0.30628 0.74025
 H977 H 0.71532 0.20168 0.71535
 H978 H 0.68427 0.25846 0.72838
 H979 H 0.80623 0.25802 0.76928
 H980 H 0.78702 0.27961 0.78580
 H981 H 0.72027 0.28649 0.71276
 H982 H 0.74037 0.26892 0.69253
 H983 H 0.75952 0.23244 0.80652
 H984 H 0.78010 0.21184 0.78679
 C985 C 0.11344 1.00245 1.23224
 C986 C 0.10430 1.00313 1.21768
 C987 C 0.09400 1.00420 1.19996
 C988 C 0.08684 0.98761 1.19149
 C989 C 0.07773 0.98856 1.17376
 C990 C 0.07572 1.00614 1.16426
 C991 C 0.08277 1.02276 1.17301
 C992 C 0.09186 1.02178 1.19074
 C993 C 0.06665 1.00706 1.14512
 C994 C 0.07435 1.01876 1.13073
 C995 C 0.06612 1.01922 1.11257
 C996 C 0.05009 1.00804 1.10855
 C997 C 0.04223 0.99649 1.12280
 C998 C 0.05044 0.99599 1.14097
 C999 C 0.04190 1.00804 1.08972
 C1000 C 0.03494 1.00762 1.07400
 H1001 H 0.08855 0.97391 1.19844
 H1002 H 0.07268 0.97549 1.16729
 H1003 H 0.08123 1.03653 1.16617
 H1004 H 0.09739 1.03470 1.19716
 H1005 H 0.08697 1.02724 1.13341
 H1006 H 0.07237 1.02814 1.10161
 H1007 H 0.02980 0.98779 1.11985
 H1008 H 0.04404 0.98703 1.15180
 C1009 C 0.61363 0.50146 0.73233
 C1010 C 0.60442 0.50201 0.71781
 C1011 C 0.59402 0.50289 0.70014
 C1012 C 0.58653 0.48624 0.69207
 C1013 C 0.57738 0.48696 0.67435
 C1014 C 0.57563 0.50435 0.66446
 C1015 C 0.58295 0.52105 0.67284
 C1016 C 0.59211 0.52030 0.69055
 C1017 C 0.56662 0.50499 0.64529
 C1018 C 0.55448 0.52013 0.64012
 C1019 C 0.54619 0.52074 0.62197
 C1020 C 0.54996 0.50627 0.60876
 C1021 C 0.56204 0.49117 0.61376
 C1022 C 0.57032 0.49052 0.63188
 C1023 C 0.54131 0.50666 0.59015
 C1024 C 0.53409 0.50648 0.57454
 H1025 H 0.58796 0.47269 0.69936
 H1026 H 0.57166 0.47391 0.66840
 H1027 H 0.58204 0.53460 0.66549
 H1028 H 0.59797 0.53325 0.69661
 H1029 H 0.55121 0.53137 0.65019
 H1030 H 0.53680 0.53245 0.61828
 H1031 H 0.56507 0.47990 0.60363
 H1032 H 0.57983 0.47884 0.63531
 C1033 C 0.38746 -0.00058 0.73270
 C1034 C 0.39702 -0.00060 0.71841
 C1035 C 0.40779 -0.00090 0.70096
 C1036 C 0.40989 0.01579 0.69021
 C1037 C 0.41928 0.01525 0.67263
 C1038 C 0.42665 -0.00203 0.66554
 C1039 C 0.42471 -0.01867 0.67660
 C1040 C 0.41533 -0.01809 0.69418
 C1041 C 0.43585 -0.00276 0.64648
 C1042 C 0.43221 -0.01807 0.63401
 C1043 C 0.44042 -0.01850 0.61585
 C1044 C 0.45239 -0.00368 0.60992
 C1045 C 0.45623 0.01153 0.62227
 C1046 C 0.44802 0.01200 0.64043
 C1047 C 0.46050 -0.00390 0.59107
 C1048 C 0.46726 -0.00387 0.57527
 H1049 H 0.40397 0.02914 0.69525
 H1050 H 0.42032 0.02825 0.66435
 H1051 H 0.43044 -0.03213 0.67166
 H1052 H 0.41374 -0.03111 0.70237
 H1053 H 0.42269 -0.02951 0.63814
 H1054 H 0.43730 -0.03030 0.60638
 H1055 H 0.46551 0.02306 0.61783
 H1056 H 0.45128 0.02385 0.64978
 C1057 C -0.11291 0.49914 1.23104
 C1058 C -0.10353 0.49903 1.21663
 C1059 C -0.09298 0.49868 1.19905
 C1060 C -0.08788 0.51575 1.19006
 C1061 C -0.07869 0.51539 1.17238
 C1062 C -0.07451 0.49791 1.16342
 C1063 C -0.07944 0.48082 1.17273
 C1064 C -0.08863 0.48122 1.19040
 C1065 C -0.06553 0.49751 1.14425
 C1066 C -0.05143 0.48392 1.13983
 C1067 C -0.04324 0.48339 1.12165
 C1068 C -0.04905 0.49641 1.10767
 C1069 C -0.06304 0.50999 1.11193
 C1070 C -0.07123 0.51055 1.13009
 C1071 C -0.04063 0.49596 1.08896
 C1072 C -0.03361 0.49585 1.07327
 H1073 H -0.09122 0.52934 1.19661
 H1074 H -0.07486 0.52877 1.16570
 H1075 H -0.07664 0.46715 1.16610
 H1076 H -0.09265 0.46792 1.19717
 H1077 H -0.04659 0.47382 1.15049
 H1078 H -0.03237 0.47287 1.11852
 H1079 H -0.06766 0.52012 1.10120
 H1080 H -0.08225 0.52099 1.13295
 C1081 C -0.11325 0.49899 0.26536
 C1082 C -0.10420 0.49925 0.27999
 C1083 C -0.09407 0.49977 0.29783
 C1084 C -0.08975 0.51731 0.30633
 C1085 C -0.08099 0.51787 0.32424
 C1086 C -0.07649 0.50087 0.33392
 C1087 C -0.08063 0.48331 0.32513
 C1088 C -0.08939 0.48278 0.30721
 C1089 C -0.06794 0.50146 0.35331
 C1090 C -0.07409 0.48868 0.36751
 C1091 C -0.06626 0.48938 0.38584
 C1092 C -0.05220 0.50284 0.39023
 C1093 C -0.04596 0.51560 0.37621
 C1094 C -0.05378 0.51494 0.35786
 C1095 C -0.04407 0.50337 0.40907
 C1096 C -0.03724 0.50355 0.42485
 H1097 H -0.09346 0.53055 0.29926
 H1098 H -0.07821 0.53161 0.33073
 H1099 H -0.07711 0.46998 0.33210
 H1100 H -0.09271 0.46913 0.30078
 H1101 H -0.08516 0.47834 0.36454
 H1102 H -0.07121 0.47945 0.39659
 H1103 H -0.03501 0.52602 0.37944
 H1104 H -0.04861 0.52483 0.34718
 C1105 C 0.38663 0.99944 -0.23299
 C1106 C 0.39548 1.00000 -0.21824
 C1107 C 0.40538 1.00088 -0.20029
 C1108 C 0.41102 0.98409 -0.19109
 C1109 C 0.41961 0.98491 -0.17311
 C1110 C 0.42264 1.00257 -0.16406
 C1111 C 0.41718 1.01940 -0.17356
 C1112 C 0.40858 1.01854 -0.19154
 C1113 C 0.43109 1.00341 -0.14465
 C1114 C 0.44446 1.01760 -0.13987
 C1115 C 0.45235 1.01833 -0.12155
 C1116 C 0.44692 1.00495 -0.10777
 C1117 C 0.43358 0.99084 -0.11236
 C1118 C 0.42570 0.99007 -0.13065
 C1119 C 0.45534 1.00532 -0.08905
 C1120 C 0.46246 1.00513 -0.07339
 H1121 H 0.40858 0.97034 -0.19773
 H1122 H 0.42390 0.97173 -0.16629
 H1123 H 0.41910 1.03319 -0.16688
 H1124 H 0.40413 1.03162 -0.19847
 H1125 H 0.44904 1.02794 -0.15039
 H1126 H 0.46275 1.02925 -0.11818
 H1127 H 0.42928 0.98041 -0.10180
 H1128 H 0.41523 0.97916 -0.13379
 C1129 C 0.61350 0.50097 -0.23336
 C1130 C 0.60422 0.50058 -0.21889
 C1131 C 0.59379 0.49986 -0.20124
 C1132 C 0.58899 0.51675 -0.19176
 C1133 C 0.57995 0.51601 -0.17400
 C1134 C 0.57564 0.49835 -0.16548
 C1135 C 0.58026 0.48146 -0.17528
 C1136 C 0.58930 0.48223 -0.19303
 C1137 C 0.56684 0.49753 -0.14623
 C1138 C 0.55260 0.48402 -0.14203
 C1139 C 0.54457 0.48313 -0.12380
 C1140 C 0.55068 0.49569 -0.10954
 C1141 C 0.56480 0.50919 -0.11358
 C1142 C 0.57284 0.51012 -0.13179
 C1143 C 0.54239 0.49490 -0.09079
 C1144 C 0.53549 0.49456 -0.07505
 H1145 H 0.59244 0.53047 -0.19797
 H1146 H 0.57635 0.52926 -0.16693
 H1147 H 0.57735 0.46765 -0.16900
 H1148 H 0.59310 0.46907 -0.20019
 H1149 H 0.54754 0.47428 -0.15290
 H1150 H 0.53358 0.47268 -0.12084
 H1151 H 0.56965 0.51896 -0.10264
 H1152 H 0.58397 0.52048 -0.13449
 C1153 C 0.11322 0.00188 0.26656
 C1154 C 0.10394 0.00153 0.28103
 C1155 C 0.09354 0.00089 0.29869
 C1156 C 0.08830 0.01782 0.30785
 C1157 C 0.07931 0.01719 0.32564
 C1158 C 0.07549 -0.00041 0.33451
 C1159 C 0.08053 -0.01736 0.32503
 C1160 C 0.08952 -0.01669 0.30725
 C1161 C 0.06676 -0.00109 0.35379
 C1162 C 0.05291 -0.01490 0.35830
 C1163 C 0.04497 -0.01567 0.37658
 C1164 C 0.05079 -0.00269 0.39058
 C1165 C 0.06452 0.01111 0.38623
 C1166 C 0.07246 0.01192 0.36798
 C1167 C 0.04262 -0.00339 0.40939
 C1168 C 0.03580 -0.00370 0.42517
 H1169 H 0.09138 0.03151 0.30137
 H1170 H 0.07537 0.03047 0.33246
 H1171 H 0.07801 -0.03111 0.33158
 H1172 H 0.09366 -0.02988 0.30034
 H1173 H 0.04807 -0.02497 0.34764
 H1174 H 0.03429 -0.02637 0.37978
 H1175 H 0.06915 0.02121 0.39698
 H1176 H 0.08330 0.02253 0.36505
 C1177 C 0.23223 1.11390 1.00182
 C1178 C 0.21762 1.10484 1.00247
 C1179 C 0.19985 1.09464 1.00344
 C1180 C 0.19155 1.08729 0.98684
 C1181 C 0.17378 1.07828 0.98767
 C1182 C 0.16404 1.07656 1.00514
 C1183 C 0.17261 1.08380 1.02178
 C1184 C 0.19039 1.09279 1.02092
 C1185 C 0.14486 1.06760 1.00591
 C1186 C 0.13037 1.07551 1.01733
 C1187 C 0.11217 1.06734 1.01770
 C1188 C 0.10823 1.05117 1.00669
 C1189 C 0.12258 1.04311 0.99541
 C1190 C 0.14078 1.05126 0.99501
 C1191 C 0.08940 1.04301 1.00666
 C1192 C 0.07368 1.03605 1.00629
 H1193 H 0.19869 1.08878 0.97322
 H1194 H 0.16745 1.07308 0.97458
 H1195 H 0.16559 1.08248 1.03546
 H1196 H 0.19667 1.09846 1.03385
 H1197 H 0.13298 1.08823 1.02568
 H1198 H 0.10115 1.07374 1.02642
 H1199 H 0.11969 1.03057 0.98685
 H1200 H 0.15168 1.04470 0.98626
 C1201 C 0.73092 0.61389 0.50135
 C1202 C 0.71637 0.60474 0.50209
 C1203 C 0.69867 0.59443 0.50322
 C1204 C 0.68942 0.59247 0.52079
 C1205 C 0.67172 0.58337 0.52183
 C1206 C 0.66301 0.57610 0.50527
 C1207 C 0.67254 0.57793 0.48770
 C1208 C 0.69024 0.58707 0.48670
 C1209 C 0.64390 0.56702 0.50623
 C1210 C 0.63979 0.55068 0.49533
 C1211 C 0.62164 0.54245 0.49589
 C1212 C 0.60736 0.55042 0.50732
 C1213 C 0.61133 0.56658 0.51833
 C1214 C 0.62948 0.57483 0.51782
 C1215 C 0.58854 0.54223 0.50737
 C1216 C 0.57282 0.53529 0.50703
 H1217 H 0.69580 0.59816 0.53367
 H1218 H 0.66486 0.58197 0.53559
 H1219 H 0.66611 0.57272 0.47466
 H1220 H 0.69722 0.58863 0.47300
 H1221 H 0.65065 0.54421 0.48647
 H1222 H 0.61873 0.52993 0.48732
 H1223 H 0.60035 0.57292 0.52716
 H1224 H 0.63211 0.58755 0.52617
 C1225 C 0.73445 0.38656 0.00042
 C1226 C 0.71990 0.39573 0.00014
 C1227 C 0.70218 0.40606 -0.00046
 C1228 C 0.69165 0.40885 0.01625
 C1229 C 0.67388 0.41787 0.01548
 C1230 C 0.66638 0.42419 -0.00205
 C1231 C 0.67720 0.42154 -0.01873
 C1232 C 0.69498 0.41253 -0.01793
 C1233 C 0.64716 0.43307 -0.00297
 C1234 C 0.63450 0.42847 -0.01787
 C1235 C 0.61623 0.43646 -0.01847
 C1236 C 0.61039 0.44916 -0.00424
 C1237 C 0.62292 0.45394 0.01055
 C1238 C 0.64118 0.44596 0.01120
 C1239 C 0.59146 0.45710 -0.00463
 C1240 C 0.57561 0.46377 -0.00469
 H1241 H 0.69702 0.40376 0.02982
 H1242 H 0.66579 0.41947 0.02853
 H1243 H 0.67193 0.42646 -0.03240
 H1244 H 0.70300 0.41040 -0.03096
 H1245 H 0.63858 0.41840 -0.02884
 H1246 H 0.60662 0.43261 -0.02995
 H1247 H 0.61855 0.46379 0.02162
 H1248 H 0.65068 0.44996 0.02271
 C1249 C 0.23436 -0.11332 0.50106
 C1250 C 0.21981 -0.10415 0.50075
 C1251 C 0.20210 -0.09380 0.50011
 C1252 C 0.19482 -0.08754 0.48260
 C1253 C 0.17708 -0.07846 0.48178
 C1254 C 0.16637 -0.07553 0.49849
 C1255 C 0.17395 -0.08165 0.51606
 C1256 C 0.19168 -0.09074 0.51684
 C1257 C 0.14721 -0.06653 0.49757
 C1258 C 0.14142 -0.05341 0.51160
 C1259 C 0.12322 -0.04528 0.51093
 C1260 C 0.11057 -0.05015 0.49627
 C1261 C 0.11623 -0.06310 0.48219
 C1262 C 0.13443 -0.07124 0.48281
 C1263 C 0.09173 -0.04201 0.49584
 C1264 C 0.07596 -0.03515 0.49574
 H1265 H 0.20275 -0.08987 0.46955
 H1266 H 0.17175 -0.07370 0.46808
 H1267 H 0.16595 -0.07983 0.52914
 H1268 H 0.19713 -0.09566 0.53045
 H1269 H 0.15101 -0.04932 0.52300
 H1270 H 0.11900 -0.03523 0.52188
 H1271 H 0.10653 -0.06702 0.47081
 H1272 H 0.13837 -0.08149 0.47196
 C1273 C 0.26866 -0.11307 0.50110
 C1274 C 0.28308 -0.10369 0.50139
 C1275 C 0.30064 -0.09310 0.50197
 C1276 C 0.31075 -0.08955 0.48514
 C1277 C 0.32838 -0.08027 0.48584
 C1278 C 0.33616 -0.07446 0.50342
 C1279 C 0.32575 -0.07787 0.52023
 C1280 C 0.30812 -0.08714 0.51949
 C1281 C 0.35526 -0.06533 0.50423
 C1282 C 0.36832 -0.07028 0.51867
 C1283 C 0.38649 -0.06209 0.51913
 C1284 C 0.39184 -0.04883 0.50521
 C1285 C 0.37891 -0.04369 0.49089
 C1286 C 0.36073 -0.05187 0.49038
 C1287 C 0.41070 -0.04075 0.50538
 C1288 C 0.42651 -0.03399 0.50527
 H1289 H 0.30515 -0.09424 0.47152
 H1290 H 0.33615 -0.07808 0.47268
 H1291 H 0.33125 -0.07336 0.53394
 H1292 H 0.30043 -0.08986 0.53261
 H1293 H 0.36463 -0.08079 0.52937
 H1294 H 0.39642 -0.06623 0.53023
 H1295 H 0.38290 -0.03341 0.48006
 H1296 H 0.35093 -0.04760 0.47924
 C1297 C -0.23124 0.38674 1.00014
 C1298 C -0.21679 0.39607 1.00019
 C1299 C -0.19917 0.40657 1.00047
 C1300 C -0.19052 0.41210 0.98336
 C1301 C -0.17281 0.42125 0.98362
 C1302 C -0.16350 0.42497 1.00103
 C1303 C -0.17246 0.41962 1.01816
 C1304 C -0.19017 0.41045 1.01786
 C1305 C -0.14430 0.43392 1.00130
 C1306 C -0.13957 0.44764 1.01516
 C1307 C -0.12135 0.45575 1.01558
 C1308 C -0.10763 0.45024 1.00218
 C1309 C -0.11221 0.43664 0.98831
 C1310 C -0.13041 0.42853 0.98786
 C1311 C -0.08886 0.45852 1.00258
 C1312 C -0.07310 0.46539 1.00267
 H1313 H -0.19735 0.40912 0.96982
 H1314 H -0.16639 0.42543 0.97021
 H1315 H -0.16556 0.42205 1.03176
 H1316 H -0.19668 0.40610 1.03118
 H1317 H -0.15001 0.45223 1.02556
 H1318 H -0.11797 0.46632 1.02634
 H1319 H -0.10168 0.43225 0.97790
 H1320 H -0.13350 0.41780 0.97719
 C1321 C -0.23478 0.61363 0.50074
 C1322 C -0.22033 0.60428 0.50042
 C1323 C -0.20273 0.59374 0.49980
 C1324 C -0.19228 0.59068 0.51654
 C1325 C -0.17461 0.58146 0.51577
 C1326 C -0.16713 0.57523 0.49822
 C1327 C -0.17788 0.57816 0.48151
 C1328 C -0.19556 0.58736 0.48231
 C1329 C -0.14801 0.56615 0.49730
 C1330 C -0.13526 0.57076 0.48250
 C1331 C -0.11708 0.56258 0.48189
 C1332 C -0.11141 0.54968 0.49604
 C1333 C -0.12403 0.54490 0.51074
 C1334 C -0.14221 0.55307 0.51138
 C1335 C -0.09258 0.54151 0.49562
 C1336 C -0.07681 0.53465 0.49550
 H1337 H -0.19764 0.59570 0.53013
 H1338 H -0.16658 0.57965 0.52884
 H1339 H -0.17263 0.57331 0.46782
 H1340 H -0.20351 0.58971 0.46927
 H1341 H -0.13920 0.58098 0.47160
 H1342 H -0.10740 0.56643 0.47048
 H1343 H -0.11979 0.53489 0.52174
 H1344 H -0.15177 0.54907 0.52282
 C1345 C 0.26654 1.11350 0.00099
 C1346 C 0.28094 1.10409 0.00037
 C1347 C 0.29848 1.09348 -0.00065
 C1348 C 0.30804 1.08823 0.01607
 C1349 C 0.32564 1.07889 0.01503
 C1350 C 0.33392 1.07472 -0.00277
 C1351 C 0.32406 1.07985 -0.01949
 C1352 C 0.30647 1.08918 -0.01842
 C1353 C 0.35295 1.06547 -0.00387
 C1354 C 0.36651 1.07162 -0.01734
 C1355 C 0.38462 1.06328 -0.01800
 C1356 C 0.38941 1.04868 -0.00526
 C1357 C 0.37598 1.04234 0.00807
 C1358 C 0.35787 1.05067 0.00878
 C1359 C 0.40821 1.04044 -0.00553
 C1360 C 0.42395 1.03350 -0.00536
 H1361 H 0.30205 1.09163 0.02990
 H1362 H 0.33298 1.07535 0.02816
 H1363 H 0.32995 1.07663 -0.03340
 H1364 H 0.29920 1.09322 -0.03146
 H1365 H 0.36325 1.08315 -0.02708
 H1366 H 0.39494 1.06835 -0.02832
 H1367 H 0.37953 1.03103 0.01799
 H1368 H 0.34768 1.04547 0.01914
 C1369 C 0.00080 1.23319 1.11343
 C1370 C 0.00134 1.21856 1.10439
 C1371 C 0.00223 1.20078 1.09420
 C1372 C -0.01455 1.19185 1.08811
 C1373 C -0.01372 1.17408 1.07910
 C1374 C 0.00392 1.16497 1.07612
 C1375 C 0.02072 1.17418 1.08210
 C1376 C 0.01986 1.19196 1.09109
 C1377 C 0.00475 1.14580 1.06714
 C1378 C 0.01727 1.13176 1.07421
 C1379 C 0.01771 1.11356 1.06605
 C1380 C 0.00569 1.10917 1.05073
 C1381 C -0.00670 1.12307 1.04352
 C1382 C -0.00718 1.14127 1.05165
 C1383 C 0.00576 1.09033 1.04259
 C1384 C 0.00546 1.07459 1.03567
 H1385 H -0.02829 1.19849 1.09058
 H1386 H -0.02692 1.16725 1.07489
 H1387 H 0.03453 1.16766 1.07979
 H1388 H 0.03294 1.19873 1.09578
 H1389 H 0.02644 1.13472 1.08628
 H1390 H 0.02730 1.10288 1.07180
 H1391 H -0.01605 1.11983 1.03164
 H1392 H -0.01679 1.15183 1.04575
 C1393 C 0.50109 0.73295 0.61359
 C1394 C 0.50145 0.71828 0.60462
 C1395 C 0.50207 0.70042 0.59455
 C1396 C 0.48513 0.69159 0.58877
 C1397 C 0.48567 0.67368 0.58002
 C1398 C 0.50318 0.66434 0.57697
 C1399 C 0.52015 0.67347 0.58259
 C1400 C 0.51957 0.69137 0.59135
 C1401 C 0.50371 0.64498 0.56837
 C1402 C 0.51788 0.64007 0.55504
 C1403 C 0.51836 0.62179 0.54706
 C1404 C 0.50473 0.60819 0.55233
 C1405 C 0.49063 0.61293 0.56561
 C1406 C 0.49011 0.63118 0.57359
 C1407 C 0.50492 0.58948 0.54389
 C1408 C 0.50466 0.57383 0.53678
 H1409 H 0.47150 0.69845 0.59121
 H1410 H 0.47239 0.66714 0.57561
 H1411 H 0.53382 0.66656 0.58066
 H1412 H 0.53276 0.69802 0.59591
 H1413 H 0.52842 0.65044 0.55058
 H1414 H 0.52928 0.61830 0.53671
 H1415 H 0.48001 0.60251 0.56980
 H1416 H 0.47920 0.63442 0.58403
 C1417 C -0.00110 0.73289 0.38640
 C1418 C -0.00143 0.71833 0.39556
 C1419 C -0.00205 0.70059 0.40585
 C1420 C -0.01960 0.69179 0.40944
 C1421 C -0.02022 0.67398 0.41840
 C1422 C -0.00326 0.66472 0.42384
 C1423 C 0.01430 0.67382 0.42042
 C1424 C 0.01488 0.69163 0.41147
 C1425 C -0.00387 0.64544 0.43261
 C1426 C 0.00946 0.63141 0.42727
 C1427 C 0.00874 0.61318 0.43529
 C1428 C -0.00529 0.60869 0.44875
 C1429 C -0.01860 0.62253 0.45419
 C1430 C -0.01792 0.64079 0.44617
 C1431 C -0.00586 0.58993 0.45706
 C1432 C -0.00606 0.57421 0.46403
 H1433 H -0.03278 0.69854 0.40502
 H1434 H -0.03394 0.66725 0.42061
 H1435 H 0.02758 0.66717 0.42467
 H1436 H 0.02855 0.69831 0.40872
 H1437 H 0.02026 0.63445 0.41667
 H1438 H 0.01909 0.60256 0.43096
 H1439 H -0.02947 0.61923 0.46466
 H1440 H -0.02824 0.65134 0.45073
 C1441 C 0.49805 1.23081 -0.11357
 C1442 C 0.49736 1.21625 -0.10443
 C1443 C 0.49623 1.19853 -0.09413
 C1444 C 0.51284 1.18966 -0.08751
 C1445 C 0.51179 1.17194 -0.07842
 C1446 C 0.49408 1.16283 -0.07588
 C1447 C 0.47744 1.17199 -0.08239
 C1448 C 0.47853 1.18971 -0.09147
 C1449 C 0.49302 1.14370 -0.06683
 C1450 C 0.48075 1.12961 -0.07419
 C1451 C 0.48014 1.11143 -0.06599
 C1452 C 0.49174 1.10711 -0.05033
 C1453 C 0.50386 1.12107 -0.04280
 C1454 C 0.50451 1.13924 -0.05098
 C1455 C 0.49157 1.08826 -0.04219
 C1456 C 0.49187 1.07252 -0.03528
 H1457 H 0.52663 1.19630 -0.08964
 H1458 H 0.52487 1.16515 -0.07379
 H1459 H 0.46358 1.16546 -0.08044
 H1460 H 0.46558 1.19644 -0.09657
 H1461 H 0.47193 1.13251 -0.08654
 H1462 H 0.47077 1.10070 -0.07198
 H1463 H 0.51289 1.11788 -0.03066
 H1464 H 0.51392 1.14984 -0.04485
 C1465 C 0.49865 0.26513 -0.11333
 C1466 C 0.49909 0.27959 -0.10401
 C1467 C 0.49986 0.29722 -0.09355
 C1468 C 0.51747 0.30592 -0.09001
 C1469 C 0.51823 0.32366 -0.08092
 C1470 C 0.50136 0.33295 -0.07531
 C1471 C 0.48373 0.32393 -0.07868
 C1472 C 0.48301 0.30619 -0.08776
 C1473 C 0.50211 0.35219 -0.06647
 C1474 C 0.48879 0.36628 -0.07168
 C1475 C 0.48965 0.38449 -0.06364
 C1476 C 0.50383 0.38890 -0.05029
 C1477 C 0.51713 0.37498 -0.04497
 C1478 C 0.51630 0.35674 -0.05301
 C1479 C 0.50457 0.40766 -0.04201
 C1480 C 0.50486 0.42340 -0.03511
 H1481 H 0.53060 0.29916 -0.09457
 H1482 H 0.53199 0.33033 -0.07876
 H1483 H 0.47051 0.33060 -0.07430
 H1484 H 0.46930 0.29959 -0.09047
 H1485 H 0.47788 0.36332 -0.08222
 H1486 H 0.47930 0.39517 -0.06789
 H1487 H 0.52812 0.37822 -0.03459
 H1488 H 0.52662 0.34615 -0.04856
 C1489 C -0.00084 -0.23280 0.38655
 C1490 C -0.00043 -0.21834 0.39584
 C1491 C 0.00033 -0.20070 0.40629
 C1492 C -0.01653 -0.19176 0.41210
 C1493 C -0.01583 -0.17403 0.42120
 C1494 C 0.00179 -0.16499 0.42455
 C1495 C 0.01867 -0.17425 0.41891
 C1496 C 0.01793 -0.19197 0.40982
 C1497 C 0.00252 -0.14576 0.43342
 C1498 C 0.01671 -0.14122 0.44688
 C1499 C 0.01753 -0.12299 0.45495
 C1500 C 0.00420 -0.10909 0.44966
 C1501 C -0.00997 -0.11348 0.43631
 C1502 C -0.01082 -0.13168 0.42824
 C1503 C 0.00492 -0.09034 0.45798
 C1504 C 0.00520 -0.07461 0.46490
 H1505 H -0.03024 -0.19838 0.40941
 H1506 H -0.02905 -0.16738 0.42560
 H1507 H 0.03242 -0.16756 0.42107
 H1508 H 0.03106 -0.19871 0.40524
 H1509 H 0.02706 -0.15181 0.45131
 H1510 H 0.02851 -0.11976 0.46533
 H1511 H -0.02034 -0.10281 0.43209
 H1512 H -0.02173 -0.13464 0.41771
 C1513 C 0.50110 -0.23272 0.61305
 C1514 C 0.50099 -0.21832 0.60363
 C1515 C 0.50062 -0.20073 0.59306
 C1516 C 0.51736 -0.19013 0.59070
 C1517 C 0.51678 -0.17243 0.58154
 C1518 C 0.49940 -0.16507 0.57466
 C1519 C 0.48270 -0.17597 0.57686
 C1520 C 0.48332 -0.19368 0.58602
 C1521 C 0.49864 -0.14589 0.56569
 C1522 C 0.48356 -0.13329 0.56981
 C1523 C 0.48309 -0.11505 0.56175
 C1524 C 0.49766 -0.10916 0.54947
 C1525 C 0.51266 -0.12161 0.54518
 C1526 C 0.51316 -0.13986 0.55322
 C1527 C 0.49737 -0.09027 0.54144
 C1528 C 0.49731 -0.07446 0.53468
 H1529 H 0.53080 -0.19539 0.59625
 H1530 H 0.52983 -0.16427 0.58029
 H1531 H 0.46916 -0.17080 0.57151
 H1532 H 0.47027 -0.20175 0.58782
 H1533 H 0.47231 -0.13741 0.57955
 H1534 H 0.47144 -0.10550 0.56522
 H1535 H 0.52399 -0.11721 0.53565
 H1536 H 0.52484 -0.14929 0.54960
 C1537 C 0.00052 0.26750 1.11290
 C1538 C 0.00033 0.28187 1.10343
 C1539 C -0.00011 0.29939 1.09277
 C1540 C 0.01676 0.30956 1.08956
 C1541 C 0.01619 0.32719 1.08023
 C1542 C -0.00129 0.33490 1.07404
 C1543 C -0.01813 0.32442 1.07709
 C1544 C -0.01753 0.30680 1.08641
 C1545 C -0.00198 0.35399 1.06487
 C1546 C -0.01657 0.36699 1.06949
 C1547 C -0.01695 0.38515 1.06127
 C1548 C -0.00278 0.39056 1.04831
 C1549 C 0.01170 0.37770 1.04350
 C1550 C 0.01212 0.35953 1.05172
 C1551 C -0.00293 0.40940 1.04013
 C1552 C -0.00286 0.42518 1.03330
 H1553 H 0.03030 0.30403 1.09456
 H1554 H 0.02937 0.33501 1.07832
 H1555 H -0.03177 0.32986 1.07228
 H1556 H -0.03067 0.29906 1.08887
 H1557 H -0.02747 0.36325 1.07977
 H1558 H -0.02819 0.39503 1.06514
 H1559 H 0.02272 0.38173 1.03345
 H1560 H 0.02339 0.34977 1.04770
 C1561 C 0.75204 0.36292 0.01763
 C1562 C 0.75258 0.35377 0.03220
 C1563 C 0.75342 0.34346 0.04992
 C1564 C 0.73666 0.33677 0.05841
 C1565 C 0.73738 0.32774 0.07618
 C1566 C 0.75489 0.32532 0.08571
 C1567 C 0.77170 0.33184 0.07691
 C1568 C 0.77095 0.34088 0.05915
 C1569 C 0.75557 0.31645 0.10495
 C1570 C 0.77027 0.30368 0.10988
 C1571 C 0.77089 0.29548 0.12807
 C1572 C 0.75688 0.29997 0.14155
 C1573 C 0.74224 0.31268 0.13678
 C1574 C 0.74157 0.32087 0.11862
 C1575 C 0.75724 0.29137 0.16018
 C1576 C 0.75702 0.28420 0.17581
 H1577 H 0.72302 0.33872 0.05141
 H1578 H 0.72423 0.32264 0.08247
 H1579 H 0.78536 0.33040 0.08398
 H1580 H 0.78399 0.34613 0.05275
 H1581 H 0.78113 0.29984 0.09961
 H1582 H 0.78224 0.28559 0.13159
 H1583 H 0.73133 0.31627 0.14711
 H1584 H 0.73025 0.33087 0.11537
 C1585 C 0.25183 0.86292 0.51822
 C1586 C 0.25227 0.85369 0.53274
 C1587 C 0.25300 0.84333 0.55044
 C1588 C 0.23613 0.83754 0.55936
 C1589 C 0.23679 0.82853 0.57714
 C1590 C 0.25438 0.82524 0.58626
 C1591 C 0.27129 0.83085 0.57703
 C1592 C 0.27058 0.83986 0.55925
 C1593 C 0.25506 0.81641 0.60552
 C1594 C 0.26921 0.80293 0.61016
 C1595 C 0.26987 0.79479 0.62837
 C1596 C 0.25644 0.80004 0.64216
 C1597 C 0.24235 0.81346 0.63769
 C1598 C 0.24165 0.82160 0.61951
 C1599 C 0.25685 0.79150 0.66082
 C1600 C 0.25676 0.78433 0.67645
 H1601 H 0.22244 0.84019 0.55267
 H1602 H 0.22355 0.82415 0.58376
 H1603 H 0.28503 0.82873 0.58378
 H1604 H 0.28373 0.84442 0.55254
 H1605 H 0.27960 0.79850 0.59964
 H1606 H 0.28078 0.78435 0.63165
 H1607 H 0.23189 0.81764 0.64827
 H1608 H 0.23077 0.83214 0.61648
 C1609 C 0.74842 0.63792 0.51774
 C1610 C 0.74839 0.64736 0.53212
 C1611 C 0.74814 0.65795 0.54968
 C1612 C 0.73074 0.66230 0.55843
 C1613 C 0.73045 0.67144 0.57614
 C1614 C 0.74760 0.67631 0.58537
 C1615 C 0.76502 0.67216 0.57630
 C1616 C 0.76527 0.66301 0.55859
 C1617 C 0.74732 0.68517 0.60461
 C1618 C 0.76043 0.67935 0.61866
 C1619 C 0.75998 0.68739 0.63688
 C1620 C 0.74643 0.70134 0.64134
 C1621 C 0.73334 0.70728 0.62747
 C1622 C 0.73376 0.69924 0.60922
 C1623 C 0.74608 0.70959 0.66013
 C1624 C 0.74608 0.71643 0.67590
 H1625 H 0.71740 0.65829 0.55172
 H1626 H 0.71682 0.67422 0.58285
 H1627 H 0.77844 0.67595 0.58293
 H1628 H 0.77882 0.65967 0.55196
 H1629 H 0.77085 0.66834 0.61566
 H1630 H 0.77015 0.68267 0.64753
 H1631 H 0.72284 0.71813 0.63075
 H1632 H 0.72361 0.70417 0.59865
 C1633 C 0.24993 0.13767 0.01841
 C1634 C 0.24997 0.14702 0.03285
 C1635 C 0.24974 0.15754 0.05046
 C1636 C 0.23233 0.16297 0.05857
 C1637 C 0.23197 0.17215 0.07627
 C1638 C 0.24904 0.17595 0.08612
 C1639 C 0.26649 0.17068 0.07770
 C1640 C 0.26681 0.16152 0.06000
 C1641 C 0.24862 0.18492 0.10531
 C1642 C 0.26083 0.17839 0.11985
 C1643 C 0.26023 0.18658 0.13801
 C1644 C 0.24743 0.20139 0.14191
 C1645 C 0.23525 0.20803 0.12754
 C1646 C 0.23582 0.19985 0.10936
 C1647 C 0.24693 0.20980 0.16062
 C1648 C 0.24676 0.21678 0.17633
 H1649 H 0.21902 0.15982 0.05137
 H1650 H 0.21831 0.17580 0.08247
 H1651 H 0.27988 0.17364 0.08482
 H1652 H 0.28036 0.15733 0.05386
 H1653 H 0.27064 0.16674 0.11728
 H1654 H 0.26970 0.18131 0.14904
 H1655 H 0.22534 0.21955 0.13038
 H1656 H 0.22638 0.20533 0.09841
 C1657 C 0.24936 0.13743 0.98409
 C1658 C 0.24950 0.14653 0.96949
 C1659 C 0.24990 0.15671 0.95167
 C1660 C 0.23285 0.16187 0.94266
 C1661 C 0.23324 0.17067 0.92476
 C1662 C 0.25072 0.17437 0.91562
 C1663 C 0.26779 0.16939 0.92494
 C1664 C 0.26737 0.16059 0.94283
 C1665 C 0.25114 0.18294 0.89625
 C1666 C 0.26491 0.19674 0.89144
 C1667 C 0.26542 0.20456 0.87309
 C1668 C 0.25222 0.19867 0.85932
 C1669 C 0.23847 0.18498 0.86396
 C1670 C 0.23792 0.17716 0.88229
 C1671 C 0.25263 0.20677 0.84046
 C1672 C 0.25270 0.21355 0.82466
 H1673 H 0.21925 0.15889 0.94936
 H1674 H 0.21987 0.17456 0.91807
 H1675 H 0.28146 0.17183 0.91819
 H1676 H 0.28065 0.15651 0.94962
 H1677 H 0.27514 0.20163 0.90193
 H1678 H 0.27608 0.21521 0.86967
 H1679 H 0.22820 0.18031 0.85339
 H1680 H 0.22734 0.16637 0.88545
 C1681 C 0.74806 0.63730 0.48342
 C1682 C 0.74828 0.64626 0.46874
 C1683 C 0.74880 0.65632 0.45086
 C1684 C 0.73181 0.66132 0.44163
 C1685 C 0.73234 0.67006 0.42371
 C1686 C 0.74990 0.67390 0.41477
 C1687 C 0.76690 0.66906 0.42430
 C1688 C 0.76633 0.66031 0.44221
 C1689 C 0.75048 0.68249 0.39541
 C1690 C 0.76419 0.69640 0.39079
 C1691 C 0.76485 0.70427 0.37247
 C1692 C 0.75184 0.69833 0.35853
 C1693 C 0.73815 0.68452 0.36299
 C1694 C 0.73746 0.67664 0.38129
 C1695 C 0.75238 0.70650 0.33971
 C1696 C 0.75259 0.71339 0.32395
 H1697 H 0.71816 0.65826 0.44819
 H1698 H 0.71902 0.67384 0.41686
 H1699 H 0.78062 0.67159 0.41770
 H1700 H 0.77957 0.65636 0.44916
 H1701 H 0.77427 0.70135 0.40140
 H1702 H 0.77545 0.71502 0.36919
 H1703 H 0.72803 0.67980 0.35230
 H1704 H 0.72692 0.66576 0.38431
 C1705 C 0.25156 0.86297 0.48389
 C1706 C 0.25124 0.85380 0.46935
 C1707 C 0.25059 0.84353 0.45160
 C1708 C 0.26750 0.83895 0.44205
 C1709 C 0.26682 0.83009 0.42421
 C1710 C 0.24918 0.82572 0.41566
 C1711 C 0.23227 0.83010 0.42552
 C1712 C 0.23299 0.83898 0.44336
 C1713 C 0.24841 0.81708 0.39633
 C1714 C 0.23500 0.80277 0.39201
 C1715 C 0.23416 0.79488 0.37371
 C1716 C 0.24666 0.80120 0.35950
 C1717 C 0.26004 0.81540 0.36365
 C1718 C 0.26092 0.82330 0.38193
 C1719 C 0.24595 0.79301 0.34069
 C1720 C 0.24565 0.78616 0.32493
 H1721 H 0.28121 0.84246 0.44829
 H1722 H 0.28008 0.82666 0.41709
 H1723 H 0.21848 0.82715 0.41922
 H1724 H 0.21981 0.84260 0.45057
 H1725 H 0.22532 0.79754 0.40284
 H1726 H 0.22380 0.78383 0.37066
 H1727 H 0.26977 0.82041 0.35275
 H1728 H 0.27120 0.83449 0.38471
 C1729 C 0.75145 0.36266 0.98333
 C1730 C 0.75098 0.35331 0.96890
 C1731 C 0.75014 0.34279 0.95131
 C1732 C 0.73254 0.33663 0.94419
 C1733 C 0.73153 0.32746 0.92652
 C1734 C 0.74814 0.32434 0.91572
 C1735 C 0.76581 0.33033 0.92314
 C1736 C 0.76679 0.33952 0.94081
 C1737 C 0.74701 0.31531 0.89659
 C1738 C 0.76090 0.30207 0.89072
 C1739 C 0.76009 0.29399 0.87251
 C1740 C 0.74541 0.29902 0.85993
 C1741 C 0.73145 0.31206 0.86568
 C1742 C 0.73222 0.32016 0.88389
 C1743 C 0.74489 0.29101 0.84105
 C1744 C 0.74473 0.28429 0.82522
 H1745 H 0.71956 0.33914 0.95219
 H1746 H 0.71775 0.32280 0.92131
 H1747 H 0.77882 0.32837 0.91506
 H1748 H 0.78047 0.34436 0.94612
 H1749 H 0.77233 0.29788 0.90024
 H1750 H 0.77095 0.28387 0.86822
 H1751 H 0.72006 0.31611 0.85603
 H1752 H 0.72147 0.33050 0.88788
 C1753 C 0.86323 0.48170 0.24776
 C1754 C 0.85414 0.46710 0.24732
 C1755 C 0.84395 0.44931 0.24666
 C1756 C 0.83900 0.43999 0.26360
 C1757 C 0.83017 0.42213 0.26297
 C1758 C 0.82619 0.41333 0.24537
 C1759 C 0.83095 0.42296 0.22842
 C1760 C 0.83980 0.44082 0.22908
 C1761 C 0.81754 0.39401 0.24472
 C1762 C 0.80345 0.38952 0.23113
 C1763 C 0.79542 0.37127 0.23054
 C1764 C 0.80139 0.35727 0.24348
 C1765 C 0.81543 0.36158 0.25699
 C1766 C 0.82346 0.37980 0.25762
 C1767 C 0.79291 0.33858 0.24321
 C1768 C 0.78582 0.32292 0.24344
 H1769 H 0.84218 0.44642 0.27729
 H1770 H 0.82644 0.41520 0.27626
 H1771 H 0.82829 0.41647 0.21466
 H1772 H 0.84370 0.44785 0.21589
 H1773 H 0.79846 0.40020 0.22114
 H1774 H 0.78448 0.36810 0.22008
 H1775 H 0.82017 0.35085 0.26707
 H1776 H 0.83448 0.38272 0.26805
 C1777 C 0.36368 0.98162 0.74914
 C1778 C 0.35483 0.96688 0.74853
 C1779 C 0.34487 0.94897 0.74756
 C1780 C 0.34325 0.93942 0.73012
 C1781 C 0.33445 0.92154 0.72926
 C1782 C 0.32718 0.91297 0.74587
 C1783 C 0.32869 0.92279 0.76332
 C1784 C 0.33751 0.94066 0.76414
 C1785 C 0.31837 0.89372 0.74509
 C1786 C 0.30197 0.88955 0.75587
 C1787 C 0.29394 0.87131 0.75543
 C1788 C 0.30217 0.85699 0.74423
 C1789 C 0.31840 0.86100 0.73336
 C1790 C 0.32646 0.87924 0.73377
 C1791 C 0.29408 0.83812 0.74420
 C1792 C 0.28716 0.82238 0.74453
 H1793 H 0.34893 0.94571 0.71720
 H1794 H 0.33329 0.91446 0.71559
 H1795 H 0.32346 0.91647 0.77640
 H1796 H 0.33882 0.94787 0.77775
 H1797 H 0.29528 0.90044 0.76454
 H1798 H 0.28135 0.86837 0.76388
 H1799 H 0.32493 0.84999 0.72470
 H1800 H 0.33922 0.88192 0.72551
 C1801 C 0.13699 0.98472 0.24945
 C1802 C 0.14610 0.97013 0.24973
 C1803 C 0.15638 0.95237 0.25036
 C1804 C 0.15955 0.94204 0.23359
 C1805 C 0.16857 0.92427 0.23435
 C1806 C 0.17449 0.91656 0.25193
 C1807 C 0.17145 0.92719 0.26868
 C1808 C 0.16244 0.94496 0.26788
 C1809 C 0.18340 0.89736 0.25282
 C1810 C 0.17850 0.88451 0.26744
 C1811 C 0.18655 0.86627 0.26804
 C1812 C 0.19961 0.86064 0.25405
 C1813 C 0.20468 0.87336 0.23952
 C1814 C 0.19664 0.89160 0.23889
 C1815 C 0.20766 0.84176 0.25444
 C1816 C 0.21444 0.82596 0.25451
 H1817 H 0.15478 0.94758 0.21997
 H1818 H 0.17047 0.91633 0.22124
 H1819 H 0.17606 0.92176 0.28239
 H1820 H 0.16002 0.95283 0.28096
 H1821 H 0.16816 0.88843 0.27822
 H1822 H 0.18248 0.85652 0.27931
 H1823 H 0.21482 0.86916 0.22864
 H1824 H 0.20087 0.90124 0.22759
 C1825 C 0.63728 0.48384 0.74953
 C1826 C 0.64642 0.46926 0.74985
 C1827 C 0.65672 0.45152 0.75054
 C1828 C 0.65999 0.44119 0.73379
 C1829 C 0.66901 0.42341 0.73460
 C1830 C 0.67482 0.41571 0.75222
 C1831 C 0.67168 0.42634 0.76895
 C1832 C 0.66268 0.44412 0.76810
 C1833 C 0.68371 0.39650 0.75318
 C1834 C 0.67871 0.38366 0.76778
 C1835 C 0.68671 0.36540 0.76841
 C1836 C 0.69982 0.35974 0.75448
 C1837 C 0.70500 0.37244 0.73998
 C1838 C 0.69700 0.39070 0.73932
 C1839 C 0.70777 0.34081 0.75486
 C1840 C 0.71444 0.32496 0.75490
 H1841 H 0.65530 0.44672 0.72014
 H1842 H 0.67099 0.41547 0.72151
 H1843 H 0.67621 0.42092 0.78269
 H1844 H 0.66017 0.45199 0.78115
 H1845 H 0.66832 0.38760 0.77850
 H1846 H 0.68255 0.35565 0.77965
 H1847 H 0.71517 0.36821 0.72915
 H1848 H 0.70131 0.40033 0.72804
 C1849 C 0.63757 0.51815 0.74971
 C1850 C 0.64694 0.53258 0.74962
 C1851 C 0.65748 0.55017 0.74928
 C1852 C 0.66140 0.55910 0.73187
 C1853 C 0.67060 0.57679 0.73152
 C1854 C 0.67595 0.58581 0.74863
 C1855 C 0.67220 0.57657 0.76606
 C1856 C 0.66301 0.55888 0.76637
 C1857 C 0.68492 0.60500 0.74831
 C1858 C 0.67954 0.61895 0.76170
 C1859 C 0.68767 0.63714 0.76119
 C1860 C 0.70128 0.64165 0.74733
 C1861 C 0.70680 0.62787 0.73398
 C1862 C 0.69867 0.60966 0.73445
 C1863 C 0.70958 0.66042 0.74687
 C1864 C 0.71647 0.67617 0.74674
 H1865 H 0.65705 0.55255 0.71856
 H1866 H 0.67305 0.58363 0.71790
 H1867 H 0.67637 0.58304 0.77945
 H1868 H 0.66001 0.55211 0.77993
 H1869 H 0.66879 0.61591 0.77235
 H1870 H 0.68327 0.64771 0.77156
 H1871 H 0.71738 0.63120 0.72323
 H1872 H 0.70325 0.59917 0.72409
 C1873 C 0.13737 0.01902 0.24972
 C1874 C 0.14675 0.03344 0.24966
 C1875 C 0.15728 0.05104 0.24935
 C1876 C 0.16278 0.05974 0.26644
 C1877 C 0.17192 0.07747 0.26615
 C1878 C 0.17562 0.08674 0.24873
 C1879 C 0.17029 0.07772 0.23161
 C1880 C 0.16116 0.06000 0.23194
 C1881 C 0.18451 0.10596 0.24843
 C1882 C 0.19824 0.11068 0.23457
 C1883 C 0.20629 0.12892 0.23411
 C1884 C 0.20073 0.14267 0.24746
 C1885 C 0.18714 0.13810 0.26133
 C1886 C 0.17908 0.11988 0.26182
 C1887 C 0.20897 0.16146 0.24703
 C1888 C 0.21585 0.17721 0.24690
 H1889 H 0.15981 0.05294 0.28000
 H1890 H 0.17607 0.08393 0.27955
 H1891 H 0.17272 0.08459 0.21800
 H1892 H 0.15681 0.05346 0.21863
 H1893 H 0.20287 0.10022 0.22420
 H1894 H 0.21686 0.13230 0.22336
 H1895 H 0.18270 0.14865 0.27171
 H1896 H 0.16835 0.11678 0.27248
 C1897 C 0.36274 0.01594 0.74938
 C1898 C 0.35314 0.03021 0.74955
 C1899 C 0.34234 0.04765 0.75005
 C1900 C 0.33995 0.05845 0.73343
 C1901 C 0.33055 0.07602 0.73416
 C1902 C 0.32345 0.08305 0.75156
 C1903 C 0.32567 0.07195 0.76814
 C1904 C 0.33507 0.05437 0.76737
 C1905 C 0.31424 0.10211 0.75249
 C1906 C 0.31811 0.11455 0.76777
 C1907 C 0.30989 0.13271 0.76836
 C1908 C 0.29767 0.13868 0.75374
 C1909 C 0.29360 0.12636 0.73857
 C1910 C 0.30182 0.10820 0.73793
 C1911 C 0.28955 0.15753 0.75410
 C1912 C 0.28277 0.17333 0.75415
 H1913 H 0.34567 0.05345 0.71997
 H1914 H 0.32929 0.08434 0.72120
 H1915 H 0.32015 0.07686 0.78170
 H1916 H 0.33689 0.04615 0.78034
 H1917 H 0.32782 0.11040 0.77905
 H1918 H 0.31319 0.14216 0.78014
 H1919 H 0.28413 0.13082 0.72719
 H1920 H 0.29838 0.09888 0.72611
 C1921 C 0.86291 0.51602 0.24815
 C1922 C 0.85355 0.53045 0.24850
 C1923 C 0.84300 0.54804 0.24918
 C1924 C 0.83702 0.55538 0.26675
 C1925 C 0.82782 0.57305 0.26759
 C1926 C 0.82450 0.58363 0.25086
 C1927 C 0.83032 0.57599 0.23324
 C1928 C 0.83954 0.55832 0.23243
 C1929 C 0.81542 0.60276 0.25180
 C1930 C 0.80201 0.60841 0.23797
 C1931 C 0.79385 0.62660 0.23862
 C1932 C 0.79897 0.63937 0.25309
 C1933 C 0.81220 0.63384 0.26698
 C1934 C 0.82037 0.61566 0.26637
 C1935 C 0.79083 0.65821 0.25348
 C1936 C 0.78398 0.67398 0.25355
 H1937 H 0.83968 0.54755 0.27981
 H1938 H 0.82329 0.57844 0.28134
 H1939 H 0.82820 0.58389 0.22013
 H1940 H 0.84425 0.55283 0.21877
 H1941 H 0.79774 0.59873 0.22672
 H1942 H 0.78359 0.63072 0.22781
 H1943 H 0.81631 0.64364 0.27820
 H1944 H 0.83084 0.61183 0.27706
 C1945 C 0.98318 0.25070 0.13678
 C1946 C 0.96854 0.25108 0.14580
 C1947 C 0.95071 0.25171 0.15592
 C1948 C 0.94184 0.26925 0.15941
 C1949 C 0.92396 0.26986 0.16821
 C1950 C 0.91467 0.25290 0.17357
 C1951 C 0.92384 0.23534 0.17024
 C1952 C 0.94173 0.23477 0.16145
 C1953 C 0.89534 0.25347 0.18220
 C1954 C 0.88140 0.24008 0.17678
 C1955 C 0.86316 0.24066 0.18477
 C1956 C 0.85857 0.25460 0.19828
 C1957 C 0.87230 0.26802 0.20376
 C1958 C 0.89057 0.26748 0.19576
 C1959 C 0.83986 0.25486 0.20672
 C1960 C 0.82421 0.25464 0.21381
 H1961 H 0.94860 0.28244 0.15505
 H1962 H 0.91718 0.28357 0.17036
 H1963 H 0.91719 0.22206 0.17444
 H1964 H 0.94845 0.22111 0.15878
 H1965 H 0.88453 0.22931 0.16617
 H1966 H 0.85264 0.23021 0.18042
 H1967 H 0.86893 0.27882 0.21428
 H1968 H 0.90104 0.27786 0.20037
 C1969 C 0.48359 0.75064 0.63689
 C1970 C 0.46895 0.75115 0.64590
 C1971 C 0.45111 0.75193 0.65600
 C1972 C 0.44217 0.76951 0.65911
 C1973 C 0.42431 0.77024 0.66792
 C1974 C 0.41512 0.75336 0.67370
 C1975 C 0.42436 0.73578 0.67075
 C1976 C 0.44223 0.73508 0.66195
 C1977 C 0.39580 0.75405 0.68236
 C1978 C 0.38192 0.74047 0.67729
 C1979 C 0.36372 0.74111 0.68536
 C1980 C 0.35911 0.75531 0.69859
 C1981 C 0.37278 0.76893 0.70371
 C1982 C 0.39101 0.76833 0.69563
 C1983 C 0.34047 0.75558 0.70716
 C1984 C 0.32487 0.75531 0.71438
 H1985 H 0.44887 0.78263 0.65443
 H1986 H 0.41747 0.78397 0.66978
 H1987 H 0.41777 0.72256 0.67528
 H1988 H 0.44901 0.72140 0.65958
 H1989 H 0.38507 0.72949 0.66690
 H1990 H 0.35324 0.73050 0.68129
 H1991 H 0.36939 0.77993 0.71401
 H1992 H 0.40145 0.77886 0.69997
 C1993 C 0.48139 0.24830 0.86256
 C1994 C 0.46696 0.24820 0.85319
 C1995 C 0.44937 0.24777 0.84263
 C1996 C 0.44257 0.23051 0.83527
 C1997 C 0.42489 0.22982 0.82606
 C1998 C 0.41376 0.24642 0.82411
 C1999 C 0.42086 0.26376 0.83130
 C2000 C 0.43854 0.26441 0.84053
 C2001 C 0.39462 0.24557 0.81505
 C2002 C 0.38843 0.26023 0.80282
 C2003 C 0.37022 0.25964 0.79471
 C2004 C 0.35795 0.24441 0.79872
 C2005 C 0.36402 0.22969 0.81076
 C2006 C 0.38223 0.23024 0.81888
 C2007 C 0.33907 0.24405 0.79067
 C2008 C 0.32324 0.24397 0.78395
 H2009 H 0.45082 0.21754 0.83687
 H2010 H 0.41993 0.21631 0.82046
 H2011 H 0.41253 0.27672 0.83025
 H2012 H 0.44360 0.27782 0.84630
 H2013 H 0.39771 0.27209 0.79942
 H2014 H 0.36567 0.27109 0.78537
 H2015 H 0.35461 0.21786 0.81401
 H2016 H 0.38647 0.21888 0.82845
 C2017 C 0.98182 0.75015 0.36264
 C2018 C 0.96730 0.74990 0.35341
 C2019 C 0.94961 0.74934 0.34301
 C2020 C 0.93888 0.76599 0.34059
 C2021 C 0.92114 0.76524 0.33149
 C2022 C 0.91388 0.74778 0.32475
 C2023 C 0.92491 0.73116 0.32704
 C2024 C 0.94265 0.73195 0.33612
 C2025 C 0.89471 0.74686 0.31577
 C2026 C 0.88222 0.73171 0.31996
 C2027 C 0.86401 0.73106 0.31185
 C2028 C 0.85804 0.74552 0.29944
 C2029 C 0.87038 0.76058 0.29509
 C2030 C 0.88860 0.76127 0.30319
 C2031 C 0.83919 0.74503 0.29131
 C2032 C 0.82342 0.74483 0.28445
 H2033 H 0.94407 0.77950 0.34601
 H2034 H 0.91289 0.77824 0.33018
 H2035 H 0.91982 0.71756 0.32178
 H2036 H 0.95083 0.71896 0.33797
 H2037 H 0.88640 0.72055 0.32980
 H2038 H 0.85454 0.71937 0.31537
 H2039 H 0.86592 0.77182 0.28546
 H2040 H 0.89795 0.77298 0.29950
 C2041 C 0.01614 0.75016 0.36260
 C2042 C 0.03064 0.75045 0.35337
 C2043 C 0.04834 0.75103 0.34302
 C2044 C 0.05740 0.73406 0.33772
 C2045 C 0.07519 0.73461 0.32874
 C2046 C 0.08417 0.75217 0.32498
 C2047 C 0.07479 0.76916 0.33010
 C2048 C 0.05701 0.76857 0.33909
 C2049 C 0.10344 0.75275 0.31622
 C2050 C 0.10800 0.76660 0.30241
 C2051 C 0.12626 0.76728 0.29443
 C2052 C 0.14020 0.75418 0.30016
 C2053 C 0.13580 0.74035 0.31386
 C2054 C 0.11756 0.73963 0.32184
 C2055 C 0.15899 0.75479 0.29194
 C2056 C 0.17474 0.75504 0.28506
 H2057 H 0.05083 0.72040 0.34074
 H2058 H 0.08193 0.72130 0.32474
 H2059 H 0.08143 0.78288 0.32763
 H2060 H 0.05018 0.78179 0.34327
 H2061 H 0.09738 0.77676 0.29764
 H2062 H 0.12950 0.77800 0.28378
 H2063 H 0.14649 0.73015 0.31842
 H2064 H 0.11459 0.72899 0.33264
 C2065 C 0.51569 0.24801 0.86282
 C2066 C 0.53023 0.24829 0.85363
 C2067 C 0.54790 0.24894 0.84324
 C2068 C 0.55461 0.26632 0.83607
 C2069 C 0.57231 0.26721 0.82694
 C2070 C 0.58354 0.25071 0.82488
 C2071 C 0.57654 0.23325 0.83191
 C2072 C 0.55885 0.23240 0.84105
 C2073 C 0.60267 0.25175 0.81584
 C2074 C 0.60892 0.23724 0.80347
 C2075 C 0.62711 0.23803 0.79534
 C2076 C 0.63928 0.25331 0.79945
 C2077 C 0.63316 0.26787 0.81163
 C2078 C 0.61497 0.26712 0.81977
 C2079 C 0.65813 0.25385 0.79137
 C2080 C 0.67393 0.25406 0.78460
 H2081 H 0.54626 0.27922 0.83773
 H2082 H 0.57719 0.28080 0.82147
 H2083 H 0.58496 0.22035 0.83077
 H2084 H 0.55385 0.21890 0.84668
 H2085 H 0.59971 0.22535 0.79999
 H2086 H 0.63169 0.22669 0.78590
 H2087 H 0.64249 0.27973 0.81496
 H2088 H 0.61068 0.27838 0.82943
 C2089 C 0.51790 0.75036 0.63742
 C2090 C 0.53229 0.75016 0.64686
 C2091 C 0.54984 0.74969 0.65749
 C2092 C 0.55722 0.73225 0.66382
 C2093 C 0.57487 0.73160 0.67307
 C2094 C 0.58541 0.74841 0.67609
 C2095 C 0.57772 0.76591 0.66993
 C2096 C 0.56006 0.76653 0.66067
 C2097 C 0.60454 0.74766 0.68516
 C2098 C 0.61018 0.76174 0.69830
 C2099 C 0.62839 0.76127 0.70643
 C2100 C 0.64120 0.74676 0.70155
 C2101 C 0.63568 0.73262 0.68860
 C2102 C 0.61748 0.73304 0.68046
 C2103 C 0.66007 0.74657 0.70962
 C2104 C 0.67589 0.74662 0.71638
 H2105 H 0.54943 0.71912 0.66138
 H2106 H 0.58029 0.71794 0.67785
 H2107 H 0.58559 0.77907 0.67182
 H2108 H 0.55455 0.78009 0.65569
 H2109 H 0.60048 0.77304 0.70238
 H2110 H 0.63251 0.77227 0.71648
 H2111 H 0.64551 0.72136 0.68467
 H2112 H 0.61366 0.72215 0.67019
 C2113 C 0.01752 0.25072 0.13722
 C2114 C 0.03197 0.25064 0.14657
 C2115 C 0.04963 0.25032 0.15702
 C2116 C 0.05872 0.26741 0.16185
 C2117 C 0.07651 0.26708 0.17086
 C2118 C 0.08547 0.24962 0.17513
 C2119 C 0.07605 0.23251 0.17049
 C2120 C 0.05827 0.23288 0.16147
 C2121 C 0.10475 0.24924 0.18392
 C2122 C 0.10930 0.23578 0.19812
 C2123 C 0.12756 0.23530 0.20614
 C2124 C 0.14151 0.24821 0.20006
 C2125 C 0.13712 0.26165 0.18596
 C2126 C 0.11888 0.26218 0.17794
 C2127 C 0.16029 0.24782 0.20836
 C2128 C 0.17601 0.24775 0.21533
 H2129 H 0.05217 0.28100 0.15842
 H2130 H 0.08328 0.28049 0.17449
 H2131 H 0.08267 0.21885 0.17336
 H2132 H 0.05142 0.21956 0.15765
 H2133 H 0.09867 0.22578 0.20316
 H2134 H 0.13079 0.22489 0.21710
 H2135 H 0.14782 0.27170 0.18114
 H2136 H 0.11592 0.27251 0.16684
 C2137 C -0.11271 1.00144 0.76637
 C2138 C -0.10340 1.00128 0.78085
 C2139 C -0.09292 1.00073 0.79849
 C2140 C -0.08803 0.98316 0.80662
 C2141 C -0.07890 0.98250 0.82434
 C2142 C -0.07458 0.99944 0.83420
 C2143 C -0.07929 1.01704 0.82576
 C2144 C -0.08842 1.01767 0.80802
 C2145 C -0.06569 0.99871 0.85343
 C2146 C -0.07189 1.01112 0.86793
 C2147 C -0.06380 1.01025 0.88613
 C2148 C -0.04941 0.99699 0.89011
 C2149 C -0.04310 0.98461 0.87579
 C2150 C -0.05119 0.98544 0.85756
 C2151 C -0.04111 0.99625 0.90888
 C2152 C -0.03427 0.99599 0.92465
 H2153 H -0.09158 0.96995 0.79942
 H2154 H -0.07569 0.96873 0.83056
 H2155 H -0.07593 1.03033 0.83287
 H2156 H -0.09217 1.03134 0.80187
 H2157 H -0.08322 1.02129 0.86529
 H2158 H -0.06881 1.01988 0.89712
 H2159 H -0.03191 0.97434 0.87869
 H2160 H -0.04597 0.97585 0.84664
 C2161 C 0.38727 0.50206 0.26650
 C2162 C 0.39662 0.50185 0.28094
 C2163 C 0.40711 0.50126 0.29858
 C2164 C 0.41451 0.48394 0.30521
 C2165 C 0.42359 0.48305 0.32295
 C2166 C 0.42537 0.49950 0.33431
 C2167 C 0.41814 0.51691 0.32737
 C2168 C 0.40905 0.51776 0.30963
 C2169 C 0.43427 0.49842 0.35351
 C2170 C 0.44638 0.51306 0.36000
 C2171 C 0.45434 0.51225 0.37827
 C2172 C 0.45032 0.49683 0.39030
 C2173 C 0.43840 0.48214 0.38395
 C2174 C 0.43043 0.48291 0.36567
 C2175 C 0.45822 0.49626 0.40924
 C2176 C 0.46486 0.49605 0.42510
 H2177 H 0.41303 0.47107 0.29679
 H2178 H 0.42922 0.46950 0.32778
 H2179 H 0.41906 0.52976 0.33587
 H2180 H 0.40323 0.53120 0.30470
 H2181 H 0.44978 0.52506 0.35090
 H2182 H 0.46358 0.52368 0.38303
 H2183 H 0.43513 0.47018 0.39317
 H2184 H 0.42096 0.47156 0.36121
 C2185 C 0.61343 -0.00016 0.26720
 C2186 C 0.60439 0.00073 0.28179
 C2187 C 0.59420 0.00211 0.29954
 C2188 C 0.59267 0.01975 0.30877
 C2189 C 0.58367 0.02102 0.32650
 C2190 C 0.57607 0.00464 0.33526
 C2191 C 0.57747 -0.01299 0.32575
 C2192 C 0.58651 -0.01423 0.30802
 C2193 C 0.56709 0.00585 0.35440
 C2194 C 0.55053 -0.00468 0.35858
 C2195 C 0.54241 -0.00393 0.37677
 C2196 C 0.55070 0.00732 0.39102
 C2197 C 0.56708 0.01798 0.38697
 C2198 C 0.57522 0.01727 0.36878
 C2199 C 0.54266 0.00749 0.40989
 C2200 C 0.53585 0.00717 0.42567
 H2201 H 0.59861 0.03248 0.30234
 H2202 H 0.58260 0.03482 0.33335
 H2203 H 0.57200 -0.02589 0.33223
 H2204 H 0.58773 -0.02797 0.30106
 H2205 H 0.54381 -0.01341 0.34776
 H2206 H 0.52972 -0.01223 0.37975
 H2207 H 0.57367 0.02666 0.39792
 H2208 H 0.58811 0.02533 0.36609
 C2209 C 0.11353 0.49947 0.76553
 C2210 C 0.10456 0.50008 0.78019
 C2211 C 0.09454 0.50106 0.79806
 C2212 C 0.09015 0.51881 0.80607
 C2213 C 0.08151 0.51984 0.82401
 C2214 C 0.07721 0.50310 0.83421
 C2215 C 0.08142 0.48532 0.82590
 C2216 C 0.09005 0.48432 0.80796
 C2217 C 0.06876 0.50418 0.85361
 C2218 C 0.07507 0.49182 0.86812
 C2219 C 0.06719 0.49280 0.88639
 C2220 C 0.05292 0.50615 0.89044
 C2221 C 0.04658 0.51858 0.87614
 C2222 C 0.05446 0.51763 0.85784
 C2223 C 0.04449 0.50668 0.90914
 C2224 C 0.03741 0.50657 0.92480
 H2225 H 0.09372 0.53186 0.79860
 H2226 H 0.07867 0.53374 0.83011
 H2227 H 0.07803 0.47218 0.83327
 H2228 H 0.09342 0.47051 0.80191
 H2229 H 0.08625 0.48152 0.86540
 H2230 H 0.07219 0.48312 0.89735
 H2231 H 0.03546 0.52889 0.87909
 H2232 H 0.04918 0.52720 0.84692
 C2233 C 0.11304 0.49907 0.73121
 C2234 C 0.10359 0.49870 0.71682
 C2235 C 0.09295 0.49797 0.69928
 C2236 C 0.08845 0.48033 0.69111
 C2237 C 0.07915 0.47953 0.67347
 C2238 C 0.07429 0.49641 0.66375
 C2239 C 0.07862 0.51409 0.67224
 C2240 C 0.08791 0.51484 0.68988
 C2241 C 0.06521 0.49560 0.64462
 C2242 C 0.07091 0.50827 0.63014
 C2243 C 0.06256 0.50742 0.61206
 C2244 C 0.04840 0.49391 0.60818
 C2245 C 0.04261 0.48122 0.62246
 C2246 C 0.05097 0.48203 0.64057
 C2247 C 0.03969 0.49335 0.58959
 C2248 C 0.03249 0.49338 0.57397
 H2249 H 0.09242 0.46717 0.69820
 H2250 H 0.07623 0.46572 0.66722
 H2251 H 0.07484 0.52733 0.66524
 H2252 H 0.09136 0.52857 0.69607
 H2253 H 0.08204 0.51867 0.63271
 H2254 H 0.06716 0.51730 0.60111
 H2255 H 0.03159 0.47076 0.61963
 H2256 H 0.04614 0.47222 0.65147
 C2257 C 0.61292 0.99926 0.23290
 C2258 C 0.60344 0.99903 0.21854
 C2259 C 0.59275 0.99848 0.20103
 C2260 C 0.58786 1.01544 0.19172
 C2261 C 0.57852 1.01486 0.17409
 C2262 C 0.57399 0.99727 0.16554
 C2263 C 0.57870 0.98030 0.17518
 C2264 C 0.58804 0.98092 0.19280
 C2265 C 0.56489 0.99661 0.14641
 C2266 C 0.55055 0.98317 0.14232
 C2267 C 0.54228 0.98240 0.12417
 C2268 C 0.54823 0.99502 0.10990
 C2269 C 0.56245 1.00845 0.11385
 C2270 C 0.57073 1.00926 0.13196
 C2271 C 0.53975 0.99433 0.09122
 C2272 C 0.53277 0.99411 0.07550
 H2273 H 0.59147 1.02911 0.19795
 H2274 H 0.57486 1.02816 0.16715
 H2275 H 0.57563 0.96654 0.16887
 H2276 H 0.59189 0.96770 0.19983
 H2277 H 0.54561 0.97338 0.15320
 H2278 H 0.53122 0.97199 0.12129
 H2279 H 0.56720 1.01826 0.10289
 H2280 H 0.58193 1.01956 0.13457
 C2281 C 0.38691 0.50182 0.23218
 C2282 C 0.39601 0.50211 0.21758
 C2283 C 0.40623 0.50273 0.19981
 C2284 C 0.41467 0.48620 0.19248
 C2285 C 0.42370 0.48663 0.17471
 C2286 C 0.42437 0.50362 0.16402
 C2287 C 0.41607 0.52022 0.17165
 C2288 C 0.40704 0.51975 0.18941
 C2289 C 0.43328 0.50393 0.14480
 C2290 C 0.44443 0.51956 0.13891
 C2291 C 0.45258 0.51988 0.12071
 C2292 C 0.44967 0.50464 0.10816
 C2293 C 0.43861 0.48904 0.11389
 C2294 C 0.43046 0.48868 0.13207
 C2295 C 0.45815 0.50479 0.08948
 C2296 C 0.46527 0.50448 0.07384
 H2297 H 0.41410 0.47294 0.20041
 H2298 H 0.43017 0.47368 0.16934
 H2299 H 0.41613 0.53345 0.16367
 H2300 H 0.40044 0.53260 0.19490
 H2301 H 0.44703 0.53141 0.14846
 H2302 H 0.46119 0.53199 0.11645
 H2303 H 0.43625 0.47717 0.10428
 H2304 H 0.42172 0.47659 0.13606
 C2305 C -0.11280 0.00120 0.73207
 C2306 C -0.10356 0.00162 0.71757
 C2307 C -0.09311 0.00248 0.69994
 C2308 C -0.08870 0.02018 0.69185
 C2309 C -0.07948 0.02111 0.67420
 C2310 C -0.07456 0.00430 0.66440
 C2311 C -0.07885 -0.01344 0.67278
 C2312 C -0.08809 -0.01433 0.69042
 C2313 C -0.06538 0.00525 0.64534
 C2314 C -0.05071 -0.00753 0.64044
 C2315 C -0.04242 -0.00693 0.62233
 C2316 C -0.04866 0.00644 0.60886
 C2317 C -0.06314 0.01931 0.61363
 C2318 C -0.07145 0.01875 0.63175
 C2319 C -0.04045 0.00662 0.59006
 C2320 C -0.03353 0.00636 0.57433
 H2321 H -0.09256 0.03328 0.69908
 H2322 H -0.07615 0.03496 0.66824
 H2323 H -0.07549 -0.02662 0.66548
 H2324 H -0.09157 -0.02810 0.69650
 H2325 H -0.04556 -0.01792 0.65066
 H2326 H -0.03119 -0.01695 0.61879
 H2327 H -0.06814 0.02966 0.60329
 H2328 H -0.08288 0.02861 0.63499
 C2329 C -0.23340 0.88772 1.00077
 C2330 C -0.21897 0.89707 1.00080
 C2331 C -0.20137 0.90762 1.00056
 C2332 C -0.19510 0.91620 0.98366
 C2333 C -0.17741 0.92537 0.98306
 C2334 C -0.16571 0.92600 0.99937
 C2335 C -0.17229 0.91760 1.01637
 C2336 C -0.18999 0.90845 1.01694
 C2337 C -0.14651 0.93492 0.99852
 C2338 C -0.13089 0.92625 1.00769
 C2339 C -0.11276 0.93447 1.00673
 C2340 C -0.10997 0.95144 0.99661
 C2341 C -0.12541 0.96020 0.98744
 C2342 C -0.14357 0.95199 0.98836
 C2343 C -0.09128 0.95989 0.99587
 C2344 C -0.07555 0.96681 0.99559
 H2345 H -0.20374 0.91550 0.97086
 H2346 H -0.17265 0.93149 0.96971
 H2347 H -0.16373 0.91808 1.02923
 H2348 H -0.19469 0.90182 1.03008
 H2349 H -0.13262 0.91296 1.01536
 H2350 H -0.10091 0.92755 1.01385
 H2351 H -0.12342 0.97339 0.97964
 H2352 H -0.15534 0.95910 0.98133
 C2353 C 0.26541 0.38782 0.50163
 C2354 C 0.27982 0.39723 0.50149
 C2355 C 0.29736 0.40785 0.50094
 C2356 C 0.30365 0.41581 0.48376
 C2357 C 0.32128 0.42510 0.48288
 C2358 C 0.33287 0.42651 0.49922
 C2359 C 0.32628 0.41871 0.51650
 C2360 C 0.30865 0.40941 0.51733
 C2361 C 0.35195 0.43565 0.49814
 C2362 C 0.35853 0.44738 0.51304
 C2363 C 0.37671 0.45553 0.51223
 C2364 C 0.38856 0.45208 0.49655
 C2365 C 0.38210 0.44056 0.48159
 C2366 C 0.36392 0.43240 0.48236
 C2367 C 0.40745 0.46009 0.49601
 C2368 C 0.42330 0.46675 0.49584
 H2369 H 0.29504 0.41464 0.47097
 H2370 H 0.32584 0.43117 0.46944
 H2371 H 0.33497 0.41933 0.52925
 H2372 H 0.30399 0.40316 0.53067
 H2373 H 0.34957 0.45034 0.52526
 H2374 H 0.38155 0.46446 0.52388
 H2375 H 0.39119 0.43773 0.46942
 H2376 H 0.35939 0.42323 0.47079
 C2377 C 0.26870 0.61233 0.00145
 C2378 C 0.28306 0.60287 0.00205
 C2379 C 0.30056 0.59219 0.00305
 C2380 C 0.30966 0.58626 -0.01369
 C2381 C 0.32720 0.57682 -0.01272
 C2382 C 0.33591 0.57324 0.00502
 C2383 C 0.32652 0.57905 0.02177
 C2384 C 0.30897 0.58847 0.02077
 C2385 C 0.35491 0.56390 0.00601
 C2386 C 0.36885 0.57046 0.01890
 C2387 C 0.38693 0.56206 0.01942
 C2388 C 0.39132 0.54699 0.00711
 C2389 C 0.37750 0.54024 -0.00563
 C2390 C 0.35942 0.54863 -0.00619
 C2391 C 0.41012 0.53874 0.00715
 C2392 C 0.42586 0.53183 0.00678
 H2393 H 0.30334 0.58919 -0.02749
 H2394 H 0.33419 0.57276 -0.02588
 H2395 H 0.33274 0.57629 0.03565
 H2396 H 0.30206 0.59304 0.03381
 H2397 H 0.36591 0.58237 0.02829
 H2398 H 0.39755 0.56746 0.02927
 H2399 H 0.38075 0.52856 -0.01521
 H2400 H 0.34893 0.54311 -0.01609
 C2401 C -0.23149 0.11291 0.50052
 C2402 C -0.21684 0.10389 0.50080
 C2403 C -0.19894 0.09387 0.50134
 C2404 C -0.18593 0.09600 0.48638
 C2405 C -0.16801 0.08732 0.48740
 C2406 C -0.16284 0.07640 0.50344
 C2407 C -0.17615 0.07409 0.51828
 C2408 C -0.19407 0.08281 0.51724
 C2409 C -0.14354 0.06776 0.50480
 C2410 C -0.14108 0.04922 0.51210
 C2411 C -0.12288 0.04107 0.51310
 C2412 C -0.10694 0.05136 0.50691
 C2413 C -0.10924 0.06987 0.49980
 C2414 C -0.12740 0.07803 0.49875
 C2415 C -0.08831 0.04276 0.50719
 C2416 C -0.07268 0.03558 0.50692
 H2417 H -0.18954 0.10456 0.47402
 H2418 H -0.15819 0.08913 0.47562
 H2419 H -0.17252 0.06595 0.53090
 H2420 H -0.20398 0.08120 0.52898
 H2421 H -0.15324 0.04089 0.51668
 H2422 H -0.12128 0.02669 0.51852
 H2423 H -0.09700 0.07796 0.49495
 H2424 H -0.12879 0.09244 0.49335
 C2425 C 0.73417 0.11263 0.50011
 C2426 C 0.71972 0.10331 0.49939
 C2427 C 0.70212 0.09283 0.49818
 C2428 C 0.69395 0.08914 0.48035
 C2429 C 0.67629 0.07996 0.47911
 C2430 C 0.66655 0.07437 0.49574
 C2431 C 0.67502 0.07793 0.51360
 C2432 C 0.69267 0.08712 0.51480
 C2433 C 0.64745 0.06529 0.49449
 C2434 C 0.64255 0.05014 0.50671
 C2435 C 0.62437 0.04199 0.50590
 C2436 C 0.61085 0.04885 0.49290
 C2437 C 0.61563 0.06379 0.48057
 C2438 C 0.63381 0.07196 0.48133
 C2439 C 0.59195 0.04083 0.49262
 C2440 C 0.57615 0.03407 0.49285
 H2441 H 0.70113 0.09354 0.46739
 H2442 H 0.67026 0.07722 0.46516
 H2443 H 0.66777 0.07403 0.52667
 H2444 H 0.69880 0.09005 0.52868
 H2445 H 0.65280 0.04453 0.51682
 H2446 H 0.62083 0.03041 0.51550
 H2447 H 0.60524 0.06927 0.47051
 H2448 H 0.63705 0.08377 0.47192
 C2449 C 0.23441 0.61278 1.00067
 C2450 C 0.21984 0.60366 0.99987
 C2451 C 0.20215 0.59334 0.99856
 C2452 C 0.19290 0.58712 1.01510
 C2453 C 0.17524 0.57793 1.01383
 C2454 C 0.16659 0.57489 0.99596
 C2455 C 0.17612 0.58101 0.97940
 C2456 C 0.19378 0.59018 0.98072
 C2457 C 0.14753 0.56572 0.99464
 C2458 C 0.13372 0.57268 0.98181
 C2459 C 0.11561 0.56438 0.98094
 C2460 C 0.11107 0.54901 0.99283
 C2461 C 0.12475 0.54187 1.00551
 C2462 C 0.14287 0.55016 1.00642
 C2463 C 0.09225 0.54082 0.99242
 C2464 C 0.07649 0.53394 0.99252
 H2465 H 0.19919 0.58961 1.02900
 H2466 H 0.16816 0.57361 1.02684
 H2467 H 0.16995 0.57867 0.96544
 H2468 H 0.20081 0.59497 0.96782
 H2469 H 0.13679 0.58480 0.97274
 H2470 H 0.10509 0.57007 0.97114
 H2471 H 0.12139 0.52996 1.01477
 H2472 H 0.15325 0.54433 1.01626
 C2473 C 0.23109 0.38752 0.50125
 C2474 C 0.21648 0.39659 0.50154
 C2475 C 0.19867 0.40676 0.50218
 C2476 C 0.18921 0.41153 0.48526
 C2477 C 0.17132 0.42032 0.48592
 C2478 C 0.16263 0.42443 0.50354
 C2479 C 0.17240 0.41985 0.52047
 C2480 C 0.19029 0.41104 0.51977
 C2481 C 0.14328 0.43303 0.50426
 C2482 C 0.13884 0.44719 0.51778
 C2483 C 0.12055 0.45514 0.51846
 C2484 C 0.10647 0.44902 0.50570
 C2485 C 0.11073 0.43492 0.49224
 C2486 C 0.12900 0.42697 0.49152
 C2487 C 0.08773 0.45741 0.50608
 C2488 C 0.07204 0.46445 0.50593
 H2489 H 0.19555 0.40824 0.47156
 H2490 H 0.16427 0.42391 0.47264
 H2491 H 0.16601 0.42260 0.53425
 H2492 H 0.19742 0.40727 0.53296
 H2493 H 0.14958 0.45229 0.52764
 H2494 H 0.11742 0.46612 0.52887
 H2495 H 0.09994 0.43008 0.48230
 H2496 H 0.13187 0.41590 0.48115
 C2497 C 0.73231 0.88750 -0.00002
 C2498 C 0.71779 0.89672 0.00003
 C2499 C 0.70012 0.90715 0.00042
 C2500 C 0.69361 0.91507 0.01754
 C2501 C 0.67590 0.92421 0.01824
 C2502 C 0.66444 0.92553 0.00181
 C2503 C 0.67125 0.91776 -0.01540
 C2504 C 0.68896 0.90861 -0.01606
 C2505 C 0.64529 0.93453 0.00270
 C2506 C 0.63877 0.94623 -0.01226
 C2507 C 0.62054 0.95429 -0.01161
 C2508 C 0.60858 0.95078 0.00398
 C2509 C 0.61498 0.93928 0.01900
 C2510 C 0.63321 0.93121 0.01838
 C2511 C 0.58967 0.95874 0.00441
 C2512 C 0.57380 0.96537 0.00454
 H2513 H 0.70213 0.91398 0.03040
 H2514 H 0.67117 0.93026 0.03164
 H2515 H 0.66266 0.91831 -0.02823
 H2516 H 0.69380 0.90239 -0.02936
 H2517 H 0.64781 0.94924 -0.02441
 H2518 H 0.61574 0.96321 -0.02329
 H2519 H 0.60581 0.93641 0.03110
 H2520 H 0.63770 0.92206 0.02999
 C2521 C 0.00115 0.76755 0.88744
 C2522 C 0.00087 0.78192 0.89689
 C2523 C 0.00021 0.79945 0.90752
 C2524 C -0.01718 0.80607 0.91474
 C2525 C -0.01812 0.82371 0.92399
 C2526 C -0.00165 0.83499 0.92611
 C2527 C 0.01582 0.82807 0.91905
 C2528 C 0.01672 0.81043 0.90979
 C2529 C -0.00277 0.85410 0.93518
 C2530 C 0.01173 0.86040 0.94754
 C2531 C 0.01091 0.87860 0.95564
 C2532 C -0.00439 0.89075 0.95150
 C2533 C -0.01896 0.88457 0.93933
 C2534 C -0.01818 0.86637 0.93123
 C2535 C -0.00493 0.90964 0.95950
 C2536 C -0.00510 0.92547 0.96619
 H2537 H -0.03006 0.79771 0.91301
 H2538 H -0.03172 0.82853 0.92948
 H2539 H 0.02869 0.83652 0.92023
 H2540 H 0.03022 0.80551 0.90411
 H2541 H 0.02365 0.85121 0.95104
 H2542 H 0.02225 0.88322 0.96508
 H2543 H -0.03083 0.89389 0.93598
 H2544 H -0.02942 0.86205 0.92156
 C2545 C 0.50087 0.26742 0.38737
 C2546 C 0.50055 0.28182 0.39676
 C2547 C 0.49981 0.29937 0.40735
 C2548 C 0.48243 0.30581 0.41475
 C2549 C 0.48139 0.32344 0.42398
 C2550 C 0.49775 0.33490 0.42591
 C2551 C 0.51522 0.32817 0.41867
 C2552 C 0.51622 0.31053 0.40943
 C2553 C 0.49653 0.35399 0.43501
 C2554 C 0.51109 0.36042 0.44724
 C2555 C 0.51015 0.37860 0.45538
 C2556 C 0.49468 0.39058 0.45142
 C2557 C 0.48005 0.38428 0.43939
 C2558 C 0.48095 0.36610 0.43124
 C2559 C 0.49401 0.40944 0.45948
 C2560 C 0.49379 0.42524 0.46625
 H2561 H 0.46962 0.29729 0.41317
 H2562 H 0.46779 0.32812 0.42962
 H2563 H 0.52801 0.33676 0.41971
 H2564 H 0.52971 0.30575 0.40361
 H2565 H 0.52314 0.35136 0.45059
 H2566 H 0.52153 0.38333 0.46471
 H2567 H 0.46804 0.39347 0.43618
 H2568 H 0.46965 0.36167 0.42168
 C2569 C -0.00163 0.26710 0.61303
 C2570 C -0.00121 0.28169 0.60392
 C2571 C -0.00038 0.29948 0.59371
 C2572 C 0.01730 0.30792 0.58990
 C2573 C 0.01817 0.32577 0.58104
 C2574 C 0.00134 0.33544 0.57592
 C2575 C -0.01636 0.32669 0.57956
 C2576 C -0.01720 0.30884 0.58842
 C2577 C 0.00223 0.35476 0.56725
 C2578 C -0.01074 0.36901 0.57286
 C2579 C -0.00988 0.38723 0.56482
 C2580 C 0.00394 0.39148 0.55107
 C2581 C 0.01694 0.37743 0.54541
 C2582 C 0.01612 0.35918 0.55345
 C2583 C 0.00442 0.41015 0.54254
 C2584 C 0.00430 0.42578 0.53538
 H2585 H 0.03041 0.30086 0.59407
 H2586 H 0.03200 0.33222 0.57864
 H2587 H -0.02956 0.33366 0.57556
 H2588 H -0.03096 0.30244 0.59134
 H2589 H -0.02140 0.36615 0.58365
 H2590 H -0.02001 0.39800 0.56931
 H2591 H 0.02763 0.38054 0.53470
 H2592 H 0.02616 0.34846 0.54869
 C2593 C 0.49876 0.76509 0.11229
 C2594 C 0.49906 0.77951 0.10292
 C2595 C 0.49972 0.79711 0.09239
 C2596 C 0.51726 0.80443 0.08632
 C2597 C 0.51810 0.82214 0.07718
 C2598 C 0.50138 0.83278 0.07402
 C2599 C 0.48377 0.82516 0.07991
 C2600 C 0.48297 0.80745 0.08907
 C2601 C 0.50232 0.85196 0.06505
 C2602 C 0.48841 0.85774 0.05177
 C2603 C 0.48905 0.87598 0.04374
 C2604 C 0.50356 0.88869 0.04887
 C2605 C 0.51754 0.88304 0.06195
 C2606 C 0.51695 0.86479 0.06999
 C2607 C 0.50389 0.90762 0.04092
 C2608 C 0.50387 0.92346 0.03424
 H2609 H 0.53032 0.79656 0.08887
 H2610 H 0.53183 0.82751 0.07259
 H2611 H 0.47068 0.83311 0.07791
 H2612 H 0.46933 0.80199 0.09385
 H2613 H 0.47711 0.84811 0.04751
 H2614 H 0.47817 0.88020 0.03360
 H2615 H 0.52880 0.89279 0.06607
 H2616 H 0.52771 0.86087 0.08036
 C2617 C 0.49858 0.73076 0.11270
 C2618 C 0.49806 0.71616 0.10363
 C2619 C 0.49713 0.69840 0.09340
 C2620 C 0.47948 0.68959 0.09035
 C2621 C 0.47856 0.67184 0.08133
 C2622 C 0.49532 0.66262 0.07527
 C2623 C 0.51299 0.67171 0.07820
 C2624 C 0.51387 0.68947 0.08723
 C2625 C 0.49444 0.64346 0.06627
 C2626 C 0.50627 0.63894 0.05073
 C2627 C 0.50575 0.62075 0.04258
 C2628 C 0.49341 0.60684 0.04985
 C2629 C 0.48148 0.61123 0.06521
 C2630 C 0.48196 0.62943 0.07338
 C2631 C 0.49334 0.58799 0.04173
 C2632 C 0.49369 0.57224 0.03485
 H2633 H 0.46643 0.69637 0.09510
 H2634 H 0.46474 0.66533 0.07907
 H2635 H 0.52616 0.66488 0.07392
 H2636 H 0.52762 0.69609 0.08966
 H2637 H 0.51585 0.64950 0.04479
 H2638 H 0.51504 0.61750 0.03067
 H2639 H 0.47193 0.60055 0.07100
 H2640 H 0.47286 0.63239 0.08549
 C2641 C -0.00157 0.23277 0.61283
 C2642 C -0.00182 0.21829 0.60355
 C2643 C -0.00239 0.20061 0.59316
 C2644 C 0.01455 0.19191 0.58721
 C2645 C 0.01403 0.17413 0.57820
 C2646 C -0.00346 0.16479 0.57506
 C2647 C -0.02044 0.17380 0.58084
 C2648 C -0.01988 0.19158 0.58985
 C2649 C -0.00397 0.14552 0.56627
 C2650 C -0.01821 0.14069 0.55296
 C2651 C -0.01874 0.12245 0.54488
 C2652 C -0.00509 0.10881 0.55004
 C2653 C 0.00910 0.11348 0.56328
 C2654 C 0.00967 0.13169 0.57135
 C2655 C -0.00539 0.09011 0.54160
 C2656 C -0.00520 0.07444 0.53453
 H2657 H 0.02817 0.19876 0.58974
 H2658 H 0.02732 0.16768 0.57369
 H2659 H -0.03410 0.16688 0.57885
 H2660 H -0.03307 0.19812 0.59454
 H2661 H -0.02878 0.15108 0.54861
 H2662 H -0.02973 0.11901 0.53458
 H2663 H 0.01973 0.10302 0.56739
 H2664 H 0.02062 0.13486 0.58177
 C2665 C 0.50109 0.23312 0.38703
 C2666 C 0.50170 0.21854 0.39616
 C2667 C 0.50271 0.20081 0.40644
 C2668 C 0.52030 0.19167 0.40883
 C2669 C 0.52124 0.17391 0.41786
 C2670 C 0.50455 0.16501 0.42456
 C2671 C 0.48696 0.17446 0.42233
 C2672 C 0.48606 0.19223 0.41331
 C2673 C 0.50542 0.14577 0.43340
 C2674 C 0.49145 0.13202 0.42912
 C2675 C 0.49233 0.11384 0.43724
 C2676 C 0.50717 0.10912 0.44973
 C2677 C 0.52116 0.12267 0.45409
 C2678 C 0.52032 0.14089 0.44597
 C2679 C 0.50777 0.09043 0.45821
 C2680 C 0.50774 0.07474 0.46526
 H2681 H 0.53326 0.19813 0.40345
 H2682 H 0.53495 0.16691 0.41914
 H2683 H 0.47390 0.16810 0.42757
 H2684 H 0.47237 0.19917 0.41151
 H2685 H 0.47998 0.13523 0.41928
 H2686 H 0.48143 0.10345 0.43375
 H2687 H 0.53266 0.11919 0.46381
 H2688 H 0.53117 0.15122 0.44969
 C2689 C 0.00129 0.73324 0.88689
 C2690 C 0.00194 0.71860 0.89591
 C2691 C 0.00311 0.70081 0.90608
 C2692 C 0.02092 0.69244 0.90947
 C2693 C 0.02212 0.67466 0.91843
 C2694 C 0.00548 0.66499 0.92410
 C2695 C -0.01236 0.67364 0.92083
 C2696 C -0.01352 0.69142 0.91185
 C2697 C 0.00669 0.64581 0.93303
 C2698 C -0.00535 0.64090 0.94830
 C2699 C -0.00452 0.62268 0.95637
 C2700 C 0.00832 0.60913 0.94931
 C2701 C 0.02046 0.61391 0.93422
 C2702 C 0.01967 0.63213 0.92613
 C2703 C 0.00867 0.59022 0.95731
 C2704 C 0.00850 0.57442 0.96409
 H2705 H 0.03389 0.69958 0.90502
 H2706 H 0.03606 0.66850 0.92096
 H2707 H -0.02543 0.66644 0.92480
 H2708 H -0.02738 0.69770 0.90917
 H2709 H -0.01532 0.65117 0.95408
 H2710 H -0.01398 0.61913 0.96807
 H2711 H 0.03039 0.60350 0.92858
 H2712 H 0.02894 0.63539 0.91422
 C2713 C 0.25207 0.63651 0.98403
 C2714 C 0.25203 0.64580 0.96955
 C2715 C 0.25167 0.65625 0.95189
 C2716 C 0.23421 0.66191 0.94401
 C2717 C 0.23368 0.67097 0.92625
 C2718 C 0.25064 0.67443 0.91609
 C2719 C 0.26814 0.66895 0.92428
 C2720 C 0.26863 0.65990 0.94205
 C2721 C 0.25002 0.68324 0.89683
 C2722 C 0.26187 0.67639 0.88216
 C2723 C 0.26107 0.68442 0.86393
 C2724 C 0.24843 0.69938 0.86008
 C2725 C 0.23661 0.70635 0.87458
 C2726 C 0.23737 0.69833 0.89283
 C2727 C 0.24773 0.70762 0.84129
 C2728 C 0.24742 0.71445 0.82551
 H2729 H 0.22098 0.65901 0.95143
 H2730 H 0.21998 0.67478 0.92023
 H2731 H 0.28145 0.67164 0.91693
 H2732 H 0.28222 0.65554 0.94800
 H2733 H 0.27154 0.66461 0.88469
 H2734 H 0.27026 0.67890 0.85280
 H2735 H 0.22683 0.71799 0.87177
 H2736 H 0.22822 0.70405 0.90387
 C2737 C 0.75118 0.13682 0.48348
 C2738 C 0.75084 0.14622 0.46907
 C2739 C 0.75018 0.15679 0.45149
 C2740 C 0.76691 0.16000 0.44110
 C2741 C 0.76609 0.16919 0.42342
 C2742 C 0.74850 0.17525 0.41587
 C2743 C 0.73179 0.17219 0.42655
 C2744 C 0.73264 0.16301 0.44423
 C2745 C 0.74753 0.18426 0.39671
 C2746 C 0.73282 0.17945 0.38391
 C2747 C 0.73221 0.18751 0.36568
 C2748 C 0.74626 0.20049 0.36000
 C2749 C 0.76086 0.20549 0.37267
 C2750 C 0.76151 0.19743 0.39091
 C2751 C 0.74590 0.20847 0.34109
 C2752 C 0.74585 0.21514 0.32524
 H2753 H 0.78053 0.15509 0.44652
 H2754 H 0.77917 0.17111 0.41544
 H2755 H 0.71807 0.17690 0.42123
 H2756 H 0.71960 0.16055 0.45214
 H2757 H 0.72201 0.16915 0.38785
 H2758 H 0.72088 0.18349 0.35596
 H2759 H 0.77179 0.21555 0.36843
 H2760 H 0.77288 0.20159 0.40050
 C2761 C 0.24882 0.36399 0.48405
 C2762 C 0.24950 0.35491 0.46946
 C2763 C 0.25056 0.34471 0.45169
 C2764 C 0.23386 0.33893 0.44241
 C2765 C 0.23487 0.33006 0.42458
 C2766 C 0.25262 0.32689 0.41577
 C2767 C 0.26935 0.33249 0.42536
 C2768 C 0.26830 0.34136 0.44318
 C2769 C 0.25366 0.31820 0.39647
 C2770 C 0.26793 0.30480 0.39201
 C2771 C 0.26891 0.29677 0.37377
 C2772 C 0.25568 0.30206 0.35976
 C2773 C 0.24148 0.31541 0.36406
 C2774 C 0.24046 0.32343 0.38227
 C2775 C 0.25637 0.29361 0.34107
 C2776 C 0.25644 0.28654 0.32540
 H2777 H 0.22005 0.34148 0.44886
 H2778 H 0.22176 0.32568 0.41769
 H2779 H 0.28320 0.33046 0.41886
 H2780 H 0.28131 0.34591 0.45018
 H2781 H 0.27817 0.30034 0.40269
 H2782 H 0.27991 0.28638 0.37062
 H2783 H 0.23118 0.31961 0.35333
 H2784 H 0.22950 0.33392 0.38516
 C2785 C 0.75018 0.86376 0.98320
 C2786 C 0.75106 0.85452 0.96871
 C2787 C 0.75242 0.84410 0.95109
 C2788 C 0.73590 0.83773 0.94188
 C2789 C 0.73719 0.82852 0.92424
 C2790 C 0.75506 0.82561 0.91556
 C2791 C 0.77160 0.83187 0.92506
 C2792 C 0.77027 0.84106 0.94270
 C2793 C 0.75638 0.81647 0.89650
 C2794 C 0.76907 0.82356 0.88265
 C2795 C 0.76989 0.81532 0.86451
 C2796 C 0.75808 0.79989 0.85997
 C2797 C 0.74555 0.79262 0.87370
 C2798 C 0.74469 0.80084 0.89184
 C2799 C 0.75838 0.79180 0.84111
 C2800 C 0.75816 0.78497 0.82534
 H2801 H 0.72200 0.84015 0.94819
 H2802 H 0.72419 0.82410 0.91718
 H2803 H 0.78556 0.82963 0.91886
 H2804 H 0.78314 0.84597 0.94970
 H2805 H 0.77806 0.83574 0.88571
 H2806 H 0.77957 0.82113 0.85396
 H2807 H 0.73635 0.78066 0.87034
 H2808 H 0.73496 0.79491 0.90225
 C2809 C 0.74907 0.86371 0.01750
 C2810 C 0.74840 0.85445 0.03199
 C2811 C 0.74735 0.84402 0.04963
 C2812 C 0.72982 0.84200 0.05895
 C2813 C 0.72888 0.83286 0.07665
 C2814 C 0.74551 0.82566 0.08530
 C2815 C 0.76303 0.82752 0.07567
 C2816 C 0.76393 0.83666 0.05797
 C2817 C 0.74467 0.81670 0.10449
 C2818 C 0.75892 0.82051 0.11810
 C2819 C 0.75808 0.81227 0.13623
 C2820 C 0.74301 0.80011 0.14103
 C2821 C 0.72874 0.79622 0.12761
 C2822 C 0.72954 0.80447 0.10945
 C2823 C 0.74245 0.79147 0.15964
 C2824 C 0.74253 0.78426 0.17526
 H2825 H 0.71691 0.84777 0.05269
 H2826 H 0.71523 0.83187 0.08380
 H2827 H 0.77604 0.82190 0.08184
 H2828 H 0.77757 0.83817 0.05089
 H2829 H 0.77059 0.83008 0.11483
 H2830 H 0.76920 0.81539 0.14651
 H2831 H 0.71705 0.78676 0.13115
 H2832 H 0.71846 0.80111 0.09923
 C2833 C 0.24808 0.36363 0.51836
 C2834 C 0.24741 0.35423 0.53276
 C2835 C 0.24621 0.34362 0.55028
 C2836 C 0.22841 0.34022 0.55863
 C2837 C 0.22720 0.33086 0.57619
 C2838 C 0.24382 0.32477 0.58566
 C2839 C 0.26165 0.32804 0.57703
 C2840 C 0.26282 0.33742 0.55947
 C2841 C 0.24262 0.31546 0.60466
 C2842 C 0.25453 0.29996 0.60921
 C2843 C 0.25376 0.29156 0.62728
 C2844 C 0.24109 0.29852 0.64104
 C2845 C 0.22906 0.31382 0.63660
 C2846 C 0.22979 0.32223 0.61853
 C2847 C 0.24087 0.29025 0.65983
 C2848 C 0.24117 0.28329 0.67555
 H2849 H 0.21546 0.34499 0.55165
 H2850 H 0.21327 0.32834 0.58235
 H2851 H 0.27472 0.32376 0.58408
 H2852 H 0.27669 0.34011 0.55320
 H2853 H 0.26438 0.29427 0.59877
 H2854 H 0.26314 0.27971 0.63056
 H2855 H 0.21926 0.31938 0.64718
 H2856 H 0.22062 0.33430 0.61555
 C2857 C 0.75115 0.13642 0.51778
 C2858 C 0.75148 0.14556 0.53234
 C2859 C 0.75222 0.15591 0.55004
 C2860 C 0.76988 0.16077 0.55800
 C2861 C 0.77072 0.16994 0.57568
 C2862 C 0.75388 0.17435 0.58566
 C2863 C 0.73619 0.16961 0.57742
 C2864 C 0.73538 0.16043 0.55974
 C2865 C 0.75476 0.18352 0.60474
 C2866 C 0.74163 0.19783 0.60978
 C2867 C 0.74218 0.20610 0.62791
 C2868 C 0.75583 0.20020 0.64124
 C2869 C 0.76905 0.18608 0.63633
 C2870 C 0.76855 0.17779 0.61819
 C2871 C 0.75594 0.20838 0.66006
 C2872 C 0.75559 0.21529 0.67580
 H2873 H 0.78300 0.15731 0.55062
 H2874 H 0.78454 0.17361 0.58153
 H2875 H 0.72299 0.17259 0.58486
 H2876 H 0.72165 0.15660 0.55377
 H2877 H 0.73102 0.20271 0.59967
 H2878 H 0.73189 0.21704 0.63156
 H2879 H 0.77962 0.18134 0.64657
 H2880 H 0.77868 0.16664 0.61483
 C2881 C 0.25169 0.63635 0.01834
 C2882 C 0.25207 0.64556 0.03287
 C2883 C 0.25287 0.65597 0.05053
 C2884 C 0.27052 0.65974 0.05906
 C2885 C 0.27136 0.66896 0.07671
 C2886 C 0.25452 0.67453 0.08609
 C2887 C 0.23684 0.67087 0.07728
 C2888 C 0.23604 0.66162 0.05963
 C2889 C 0.25535 0.68375 0.10515
 C2890 C 0.24301 0.69891 0.10968
 C2891 C 0.24350 0.70726 0.12778
 C2892 C 0.25631 0.70060 0.14158
 C2893 C 0.26874 0.68562 0.13717
 C2894 C 0.26829 0.67725 0.11908
 C2895 C 0.25636 0.70891 0.16035
 C2896 C 0.25600 0.71593 0.17603
 H2897 H 0.28364 0.65539 0.05215
 H2898 H 0.28518 0.67179 0.08301
 H2899 H 0.22362 0.67474 0.08425
 H2900 H 0.22230 0.65864 0.05322
 H2901 H 0.23307 0.70438 0.09920
 H2902 H 0.23383 0.71887 0.13103
 H2903 H 0.27866 0.68029 0.14778
 H2904 H 0.27779 0.66544 0.11611
 C2905 C 0.13738 0.51609 0.74805
 C2906 C 0.14685 0.53045 0.74832
 C2907 C 0.15754 0.54794 0.74904
 C2908 C 0.16525 0.55420 0.76636
 C2909 C 0.17461 0.57177 0.76739
 C2910 C 0.17635 0.58335 0.75109
 C2911 C 0.16879 0.57680 0.73368
 C2912 C 0.15943 0.55922 0.73269
 C2913 C 0.18559 0.60238 0.75231
 C2914 C 0.19761 0.60887 0.73762
 C2915 C 0.20586 0.62699 0.73857
 C2916 C 0.20222 0.63888 0.75418
 C2917 C 0.19041 0.63251 0.76894
 C2918 C 0.18215 0.61438 0.76804
 C2919 C 0.21036 0.65771 0.75485
 C2920 C 0.21715 0.67350 0.75508
 H2921 H 0.16383 0.54560 0.77913
 H2922 H 0.18049 0.57631 0.78094
 H2923 H 0.16968 0.58548 0.72093
 H2924 H 0.15337 0.55458 0.71924
 H2925 H 0.20071 0.59988 0.72545
 H2926 H 0.21502 0.63177 0.72708
 H2927 H 0.18743 0.64162 0.78106
 H2928 H 0.17275 0.60991 0.77944
 C2929 C 0.63752 0.01597 0.24959
 C2930 C 0.64713 0.03024 0.24970
 C2931 C 0.65793 0.04768 0.25015
 C2932 C 0.66566 0.05417 0.26737
 C2933 C 0.67501 0.07177 0.26814
 C2934 C 0.67672 0.08312 0.25167
 C2935 C 0.66917 0.07631 0.23436
 C2936 C 0.65981 0.05871 0.23363
 C2937 C 0.68584 0.10222 0.25264
 C2938 C 0.69781 0.10859 0.23785
 C2939 C 0.70592 0.12679 0.23854
 C2940 C 0.70219 0.13886 0.25398
 C2941 C 0.69043 0.13261 0.26884
 C2942 C 0.68231 0.11441 0.26819
 C2943 C 0.71018 0.15776 0.25440
 C2944 C 0.71684 0.17361 0.25451
 H2945 H 0.66424 0.04576 0.28026
 H2946 H 0.68088 0.07651 0.28162
 H2947 H 0.67002 0.08482 0.22150
 H2948 H 0.65373 0.05389 0.22026
 H2949 H 0.70098 0.09946 0.22581
 H2950 H 0.71503 0.13148 0.22698
 H2951 H 0.68739 0.14187 0.28083
 H2952 H 0.67295 0.11003 0.27966
 C2953 C 0.86315 0.01817 0.74894
 C2954 C 0.85370 0.03253 0.74832
 C2955 C 0.84302 0.05003 0.74723
 C2956 C 0.83933 0.05836 0.72947
 C2957 C 0.82991 0.07591 0.72837
 C2958 C 0.82407 0.08537 0.74507
 C2959 C 0.82762 0.07675 0.76286
 C2960 C 0.83706 0.05920 0.76392
 C2961 C 0.81472 0.10436 0.74398
 C2962 C 0.79942 0.10892 0.75612
 C2963 C 0.79102 0.12700 0.75546
 C2964 C 0.79779 0.14076 0.74268
 C2965 C 0.81288 0.13632 0.73042
 C2966 C 0.82129 0.11824 0.73104
 C2967 C 0.78954 0.15956 0.74256
 C2968 C 0.78264 0.17531 0.74290
 H2969 H 0.84392 0.05139 0.71646
 H2970 H 0.82717 0.08206 0.71447
 H2971 H 0.82353 0.08379 0.77597
 H2972 H 0.83998 0.05295 0.77775
 H2973 H 0.79389 0.09848 0.76606
 H2974 H 0.77933 0.13028 0.76501
 H2975 H 0.81829 0.14690 0.72053
 H2976 H 0.83321 0.11526 0.72169
 C2977 C 0.36313 0.51897 0.24928
 C2978 C 0.35381 0.53342 0.24885
 C2979 C 0.34333 0.55105 0.24810
 C2980 C 0.33814 0.55885 0.23047
 C2981 C 0.32902 0.57658 0.22963
 C2982 C 0.32504 0.58677 0.24644
 C2983 C 0.33005 0.57865 0.26412
 C2984 C 0.33915 0.56092 0.26493
 C2985 C 0.31616 0.60598 0.24554
 C2986 C 0.32261 0.62069 0.25758
 C2987 C 0.31438 0.63882 0.25671
 C2988 C 0.29961 0.64253 0.24379
 C2989 C 0.29310 0.62803 0.23172
 C2990 C 0.30133 0.60987 0.23256
 C2991 C 0.29097 0.66115 0.24329
 C2992 C 0.28382 0.67679 0.24339
 H2993 H 0.34144 0.55139 0.21734
 H2994 H 0.32556 0.58254 0.21580
 H2995 H 0.32694 0.58602 0.27733
 H2996 H 0.34314 0.55502 0.27865
 H2997 H 0.33419 0.61824 0.26752
 H2998 H 0.31953 0.64994 0.26611
 H2999 H 0.28161 0.63073 0.22173
 H3000 H 0.29594 0.59880 0.22324
 C3001 C 0.36334 0.48466 0.24989
 C3002 C 0.35419 0.47011 0.25065
 C3003 C 0.34388 0.45241 0.25190
 C3004 C 0.33744 0.44333 0.23534
 C3005 C 0.32835 0.42562 0.23653
 C3006 C 0.32564 0.41673 0.25434
 C3007 C 0.33197 0.42610 0.27092
 C3008 C 0.34103 0.44381 0.26969
 C3009 C 0.31663 0.39760 0.25555
 C3010 C 0.32390 0.38368 0.26809
 C3011 C 0.31573 0.36550 0.26886
 C3012 C 0.30020 0.36100 0.25715
 C3013 C 0.29277 0.37479 0.24477
 C3014 C 0.30091 0.39297 0.24396
 C3015 C 0.29213 0.34213 0.25747
 C3016 C 0.28529 0.32636 0.25731
 H3017 H 0.33971 0.44980 0.22149
 H3018 H 0.32387 0.41866 0.22349
 H3019 H 0.32988 0.41975 0.28484
 H3020 H 0.34600 0.45071 0.28260
 H3021 H 0.33614 0.38672 0.27700
 H3022 H 0.32166 0.35490 0.27843
 H3023 H 0.28073 0.37146 0.23566
 H3024 H 0.29485 0.40344 0.23434
 C3025 C 0.86360 0.98386 0.74961
 C3026 C 0.85451 0.96927 0.75031
 C3027 C 0.84426 0.95153 0.75151
 C3028 C 0.84091 0.94317 0.76932
 C3029 C 0.83186 0.92545 0.77054
 C3030 C 0.82604 0.91584 0.75391
 C3031 C 0.82926 0.92448 0.73607
 C3032 C 0.83834 0.94220 0.73490
 C3033 C 0.81701 0.89671 0.75513
 C3034 C 0.80165 0.89190 0.74314
 C3035 C 0.79349 0.87373 0.74397
 C3036 C 0.80055 0.86012 0.75678
 C3037 C 0.81572 0.86480 0.76888
 C3038 C 0.82390 0.88298 0.76808
 C3039 C 0.79246 0.84126 0.75713
 C3040 C 0.78563 0.82548 0.75699
 H3041 H 0.84547 0.95027 0.78227
 H3042 H 0.82937 0.91929 0.78448
 H3043 H 0.82518 0.91733 0.72301
 H3044 H 0.84098 0.94848 0.72102
 H3045 H 0.79588 0.90222 0.73320
 H3046 H 0.78173 0.87025 0.73455
 H3047 H 0.82135 0.85435 0.77878
 H3048 H 0.83586 0.88616 0.77732
 C3049 C 0.63653 0.98166 0.24987
 C3050 C 0.64533 0.96688 0.24956
 C3051 C 0.65518 0.94888 0.24897
 C3052 C 0.66877 0.94531 0.23481
 C3053 C 0.67755 0.92743 0.23362
 C3054 C 0.67275 0.91285 0.24657
 C3055 C 0.65923 0.91668 0.26090
 C3056 C 0.65050 0.93456 0.26206
 C3057 C 0.68159 0.89366 0.24503
 C3058 C 0.67054 0.87713 0.24778
 C3059 C 0.67887 0.85906 0.24664
 C3060 C 0.69835 0.85723 0.24270
 C3061 C 0.70945 0.87356 0.23977
 C3062 C 0.70113 0.89167 0.24089
 C3063 C 0.70701 0.83862 0.24235
 C3064 C 0.71419 0.82300 0.24253
 H3065 H 0.67239 0.95626 0.22451
 H3066 H 0.68774 0.92486 0.22232
 H3067 H 0.65545 0.90585 0.27124
 H3068 H 0.63997 0.93716 0.27306
 H3069 H 0.65541 0.87818 0.25070
 H3070 H 0.67015 0.84651 0.24894
 H3071 H 0.72457 0.87231 0.23683
 H3072 H 0.71005 0.90412 0.23890
 C3073 C 0.13690 0.48178 0.74811
 C3074 C 0.14594 0.46714 0.74776
 C3075 C 0.15611 0.44932 0.74714
 C3076 C 0.16210 0.44185 0.72963
 C3077 C 0.17094 0.42398 0.72886
 C3078 C 0.17383 0.41332 0.74563
 C3079 C 0.16800 0.42109 0.76319
 C3080 C 0.15918 0.43897 0.76392
 C3081 C 0.18247 0.39399 0.74476
 C3082 C 0.17519 0.37911 0.75609
 C3083 C 0.18324 0.36089 0.75528
 C3084 C 0.19866 0.35727 0.74316
 C3085 C 0.20599 0.37195 0.73178
 C3086 C 0.19794 0.39020 0.73255
 C3087 C 0.20714 0.33858 0.74278
 C3088 C 0.21418 0.32289 0.74295
 H3089 H 0.15965 0.44970 0.71654
 H3090 H 0.17505 0.41830 0.71511
 H3091 H 0.17027 0.41335 0.77637
 H3092 H 0.15457 0.44460 0.77755
 H3093 H 0.16311 0.38149 0.76540
 H3094 H 0.17745 0.34963 0.76414
 H3095 H 0.21799 0.36932 0.72242
 H3096 H 0.20398 0.40140 0.72381
 C3097 C 0.01806 0.75067 0.86312
 C3098 C 0.03247 0.75037 0.85375
 C3099 C 0.05007 0.74966 0.84324
 C3100 C 0.05964 0.76653 0.83856
 C3101 C 0.07737 0.76577 0.82948
 C3102 C 0.08578 0.74810 0.82500
 C3103 C 0.07588 0.73123 0.82948
 C3104 C 0.05816 0.73202 0.83856
 C3105 C 0.10502 0.74724 0.81619
 C3106 C 0.10914 0.73382 0.80184
 C3107 C 0.12738 0.73287 0.79382
 C3108 C 0.14172 0.74528 0.80004
 C3109 C 0.13775 0.75868 0.81428
 C3110 C 0.11954 0.75967 0.82231
 C3111 C 0.16047 0.74446 0.79176
 C3112 C 0.17622 0.74414 0.78488
 H3113 H 0.05352 0.78026 0.84215
 H3114 H 0.08452 0.77901 0.82599
 H3115 H 0.08207 0.71741 0.82644
 H3116 H 0.05093 0.71887 0.84226
 H3117 H 0.09821 0.72420 0.79669
 H3118 H 0.13028 0.72250 0.78274
 H3119 H 0.14876 0.76835 0.81922
 H3120 H 0.11691 0.76995 0.83352
 C3121 C 0.51772 0.25045 0.36305
 C3122 C 0.53207 0.25013 0.35358
 C3123 C 0.54958 0.24943 0.34292
 C3124 C 0.55633 0.23196 0.33601
 C3125 C 0.57395 0.23101 0.32674
 C3126 C 0.58507 0.24753 0.32428
 C3127 C 0.57800 0.26508 0.33102
 C3128 C 0.56039 0.26599 0.34031
 C3129 C 0.60415 0.24642 0.31516
 C3130 C 0.61027 0.26074 0.30250
 C3131 C 0.62844 0.25992 0.29435
 C3132 C 0.64074 0.24481 0.29873
 C3133 C 0.63475 0.23043 0.31119
 C3134 C 0.61658 0.23120 0.31935
 C3135 C 0.65960 0.24428 0.29066
 C3136 C 0.67541 0.24413 0.28391
 H3137 H 0.54810 0.21904 0.33801
 H3138 H 0.57888 0.21735 0.32149
 H3139 H 0.58633 0.27800 0.32957
 H3140 H 0.55536 0.27956 0.34574
 H3141 H 0.60096 0.27251 0.29882
 H3142 H 0.63292 0.27112 0.28468
 H3143 H 0.64419 0.21870 0.31474
 H3144 H 0.61240 0.22011 0.32925
 C3145 C 0.51603 0.74829 0.13621
 C3146 C 0.53063 0.74884 0.14532
 C3147 C 0.54840 0.74978 0.15554
 C3148 C 0.55727 0.76742 0.15845
 C3149 C 0.57510 0.76833 0.16735
 C3150 C 0.58433 0.75156 0.17340
 C3151 C 0.57516 0.73391 0.17065
 C3152 C 0.55732 0.73304 0.16176
 C3153 C 0.60363 0.75243 0.18211
 C3154 C 0.61758 0.73884 0.17725
 C3155 C 0.63580 0.73972 0.18528
 C3156 C 0.64037 0.75417 0.19825
 C3157 C 0.62662 0.76778 0.20318
 C3158 C 0.60837 0.76695 0.19515
 C3159 C 0.65907 0.75474 0.20671
 C3160 C 0.67474 0.75472 0.21379
 H3161 H 0.55055 0.78046 0.15356
 H3162 H 0.58188 0.78210 0.16904
 H3163 H 0.58178 0.72078 0.17539
 H3164 H 0.55060 0.71930 0.15954
 H3165 H 0.61448 0.72768 0.16704
 H3166 H 0.64634 0.72911 0.18136
 H3167 H 0.62998 0.77898 0.21329
 H3168 H 0.59788 0.77749 0.19932
 C3169 C 0.01545 0.25000 0.63685
 C3170 C 0.02993 0.25047 0.64614
 C3171 C 0.04757 0.25136 0.65660
 C3172 C 0.05587 0.26906 0.66061
 C3173 C 0.07357 0.26999 0.66976
 C3174 C 0.08322 0.25318 0.67500
 C3175 C 0.07463 0.23545 0.67113
 C3176 C 0.05694 0.23456 0.66196
 C3177 C 0.10236 0.25411 0.68405
 C3178 C 0.10724 0.24159 0.69897
 C3179 C 0.12543 0.24214 0.70711
 C3180 C 0.13900 0.25519 0.70047
 C3181 C 0.13426 0.26781 0.68575
 C3182 C 0.11606 0.26730 0.67760
 C3183 C 0.15789 0.25528 0.70853
 C3184 C 0.17368 0.25496 0.71533
 H3185 H 0.04876 0.28215 0.65647
 H3186 H 0.07969 0.28384 0.67276
 H3187 H 0.08181 0.22226 0.67475
 H3188 H 0.05071 0.22078 0.65878
 H3189 H 0.09694 0.23144 0.70440
 H3190 H 0.12895 0.23232 0.71852
 H3191 H 0.14468 0.27791 0.68045
 H3192 H 0.11283 0.27695 0.66597
 C3193 C 0.98114 0.24956 0.63670
 C3194 C 0.96662 0.24895 0.64590
 C3195 C 0.94896 0.24788 0.65628
 C3196 C 0.93974 0.26457 0.66216
 C3197 C 0.92207 0.26353 0.67134
 C3198 C 0.91336 0.24576 0.67470
 C3199 C 0.92287 0.22905 0.66893
 C3200 C 0.94054 0.23012 0.65977
 C3201 C 0.89428 0.24468 0.68382
 C3202 C 0.88045 0.23179 0.67706
 C3203 C 0.86230 0.23115 0.68530
 C3204 C 0.85775 0.24335 0.70042
 C3205 C 0.87145 0.25610 0.70736
 C3206 C 0.88959 0.25678 0.69913
 C3207 C 0.83891 0.24315 0.70856
 C3208 C 0.82316 0.24341 0.71543
 H3209 H 0.94607 0.27840 0.65940
 H3210 H 0.91501 0.27666 0.67538
 H3211 H 0.91665 0.21515 0.67153
 H3212 H 0.94754 0.21711 0.65524
 H3213 H 0.88352 0.22248 0.66513
 H3214 H 0.85177 0.22129 0.67976
 H3215 H 0.86808 0.26559 0.71907
 H3216 H 0.89999 0.26668 0.70481
 C3217 C 0.48171 0.74814 0.13646
 C3218 C 0.46725 0.74791 0.14576
 C3219 C 0.44959 0.74739 0.15618
 C3220 C 0.44078 0.76438 0.16184
 C3221 C 0.42301 0.76390 0.17086
 C3222 C 0.41379 0.74640 0.17430
 C3223 C 0.42292 0.72938 0.16883
 C3224 C 0.44069 0.72990 0.15980
 C3225 C 0.39453 0.74592 0.18308
 C3226 C 0.38980 0.73191 0.19667
 C3227 C 0.37157 0.73142 0.20475
 C3228 C 0.35785 0.74488 0.19934
 C3229 C 0.36241 0.75884 0.18583
 C3230 C 0.38061 0.75937 0.17775
 C3231 C 0.33916 0.74463 0.20780
 C3232 C 0.32350 0.74486 0.21488
 H3233 H 0.44754 0.77800 0.15906
 H3234 H 0.41647 0.77722 0.17513
 H3235 H 0.41610 0.71571 0.17105
 H3236 H 0.44732 0.71667 0.15534
 H3237 H 0.40026 0.72149 0.20121
 H3238 H 0.36821 0.72060 0.21526
 H3239 H 0.35189 0.76932 0.18153
 H3240 H 0.38371 0.77015 0.16713
 C3241 C 0.48339 0.25061 0.36363
 C3242 C 0.46871 0.25117 0.35467
 C3243 C 0.45084 0.25216 0.34463
 C3244 C 0.44009 0.23561 0.34168
 C3245 C 0.42216 0.23674 0.33300
 C3246 C 0.41473 0.25447 0.32719
 C3247 C 0.42578 0.27099 0.32995
 C3248 C 0.44370 0.26983 0.33865
 C3249 C 0.39537 0.25576 0.31866
 C3250 C 0.39175 0.26803 0.30317
 C3251 C 0.37350 0.26914 0.29517
 C3252 C 0.35863 0.25807 0.30257
 C3253 C 0.36207 0.24592 0.31803
 C3254 C 0.38029 0.24477 0.32603
 C3255 C 0.33997 0.25868 0.29402
 C3256 C 0.32434 0.25862 0.28684
 H3257 H 0.44546 0.22187 0.34629
 H3258 H 0.41412 0.22374 0.33082
 H3259 H 0.42037 0.28486 0.32585
 H3260 H 0.45184 0.28275 0.34100
 H3261 H 0.40310 0.27652 0.29705
 H3262 H 0.37102 0.27851 0.28312
 H3263 H 0.35066 0.23728 0.32387
 H3264 H 0.38254 0.23542 0.33813
 C3265 C 0.98375 0.75094 0.86351
 C3266 C 0.96916 0.75165 0.85441
 C3267 C 0.95143 0.75288 0.84413
 C3268 C 0.94274 0.77064 0.84138
 C3269 C 0.92503 0.77185 0.83229
 C3270 C 0.91575 0.75526 0.82584
 C3271 C 0.92472 0.73748 0.82847
 C3272 C 0.94244 0.73631 0.83758
 C3273 C 0.89663 0.75645 0.81677
 C3274 C 0.89210 0.74494 0.80097
 C3275 C 0.87393 0.74571 0.79278
 C3276 C 0.86006 0.75796 0.80024
 C3277 C 0.86446 0.76958 0.81585
 C3278 C 0.88263 0.76886 0.82407
 C3279 C 0.84119 0.75818 0.79215
 C3280 C 0.82542 0.75790 0.78530
 H3281 H 0.94957 0.78355 0.84643
 H3282 H 0.91861 0.78575 0.83026
 H3283 H 0.91784 0.72444 0.82389
 H3284 H 0.94898 0.72248 0.83976
 H3285 H 0.90263 0.73543 0.79489
 H3286 H 0.87067 0.73665 0.78068
 H3287 H 0.85380 0.77905 0.82181
 H3288 H 0.88560 0.77770 0.83637
   
