data_POSCAR
  _audit_creation_date              2014-09-24
  _audit_creation_method            'ToBaCCo'
  _symmetry_space_group_name_H-M    'P1'
  _symmetry_Int_Tables_number       1
  _symmetry_cell_setting            triclinic
  loop_
  _symmetry_equiv_pos_as_xyz
 x,y,z
_cell_length_a 46.7486
_cell_length_b 46.6851
_cell_length_c 46.7455
_cell_angle_alpha 89.979200
_cell_angle_beta 90.020400
_cell_angle_gamma 90.046100
loop_
  _atom_site_label
  _atom_site_type_symbol
  _atom_site_fract_x
  _atom_site_fract_y
  _atom_site_fract_z
C1 C 0.35558 1.36055 0.32181
 C2 C 0.33193 1.37102 0.33733
 C3 C 0.32310 1.35834 0.36327
 C4 C 0.33850 1.33447 0.37339
 C5 C 0.36358 1.32504 0.35978
 C6 C 0.37173 1.33815 0.33396
 H7 H 0.31992 1.38910 0.32949
 H8 H 0.33091 1.32242 0.39158
 H9 H 0.39016 1.33032 0.32244
 C10 C 0.35204 0.85809 0.82006
 C11 C 0.36747 0.83480 0.83110
 C12 C 0.35794 0.81969 0.85531
 C13 C 0.33400 0.83017 0.87027
 C14 C 0.31918 0.85483 0.86101
 C15 C 0.32816 0.86805 0.83539
 H16 H 0.38692 0.82861 0.82033
 H17 H 0.32685 0.81835 0.88877
 H18 H 0.31643 0.88643 0.82782
 C19 C 0.85284 1.35728 0.81872
 C20 C 0.82773 1.36600 0.83280
 C21 C 0.81736 1.35129 0.85703
 C22 C 0.83463 1.32959 0.86893
 C23 C 0.86077 1.32161 0.85637
 C24 C 0.86925 1.33523 0.83093
 H25 H 0.81587 1.38427 0.82513
 H26 H 0.82821 1.31877 0.88830
 H27 H 0.88838 1.32848 0.81992
 C28 C 0.85669 0.86070 0.32065
 C29 C 0.83048 0.86836 0.33352
 C30 C 0.81897 0.85248 0.35640
 C31 C 0.83454 0.82894 0.36685
 C32 C 0.85940 0.81930 0.35303
 C33 C 0.87040 0.83558 0.33025
 H34 H 0.81835 0.88637 0.32557
 H35 H 0.82752 0.81769 0.38575
 H36 H 0.88995 0.82902 0.31992
 C37 C 0.64004 0.63550 0.32566
 C38 C 0.66651 0.62799 0.33786
 C39 C 0.67813 0.64355 0.36086
 C40 C 0.66188 0.66598 0.37271
 C41 C 0.63541 0.67409 0.36089
 C42 C 0.62545 0.65944 0.33658
 H43 H 0.67879 0.61057 0.32892
 H44 H 0.66960 0.67750 0.39116
 H45 H 0.60666 0.66692 0.32546
 C46 C 0.63983 0.13622 0.82369
 C47 C 0.66646 0.12885 0.83590
 C48 C 0.67787 0.14418 0.85920
 C49 C 0.66138 0.16623 0.87132
 C50 C 0.63503 0.17445 0.85942
 C51 C 0.62528 0.16018 0.83483
 H52 H 0.67906 0.11172 0.82682
 H53 H 0.66888 0.17747 0.89004
 H54 H 0.60665 0.16806 0.82370
 C55 C 1.14927 0.64338 0.81706
 C56 C 1.13378 0.66666 0.82812
 C57 C 1.14355 0.68204 0.85206
 C58 C 1.16826 0.67240 0.86622
 C59 C 1.18432 0.64925 0.85564
 C60 C 1.17399 0.63434 0.83164
 H61 H 1.11393 0.67238 0.81781
 H62 H 1.17457 0.68312 0.88568
 H63 H 1.18544 0.61552 0.82477
 C64 C 1.14843 0.14139 0.31819
 C65 C 1.17198 0.13090 0.33389
 C66 C 1.18102 0.14399 0.35957
 C67 C 1.16667 0.16893 0.36864
 C68 C 1.14298 0.17977 0.35364
 C69 C 1.13321 0.16483 0.32945
 H70 H 1.18342 0.11223 0.32660
 H71 H 1.17404 0.18070 0.38710
 H72 H 1.11374 0.17135 0.31889
 C73 C 0.63586 1.36200 0.67331
 C74 C 0.66008 1.37623 0.66247
 C75 C 0.67400 1.36679 0.63742
 C76 C 0.66443 1.34113 0.62467
 C77 C 0.64038 1.32630 0.63507
 C78 C 0.62684 1.33659 0.65987
 H79 H 0.66851 1.39412 0.67444
 H80 H 0.67660 1.33231 0.60713
 H81 H 0.60977 1.32403 0.66913
 C82 C 0.63746 0.85868 1.17676
 C83 C 0.66127 0.87341 1.16572
 C84 C 0.67571 0.86361 1.14125
 C85 C 0.66754 0.83717 1.12936
 C86 C 0.64529 0.82074 1.14129
 C87 C 0.62990 0.83220 1.16449
 H88 H 0.66878 0.89221 1.17685
 H89 H 0.67889 0.82961 1.11075
 H90 H 0.61257 0.81981 1.17348
 C91 C 1.13457 1.36196 1.17379
 C92 C 1.15899 1.37596 1.16286
 C93 C 1.17293 1.36618 1.13808
 C94 C 1.16340 1.34066 1.12532
 C95 C 1.13934 1.32590 1.13571
 C96 C 1.12574 1.33629 1.16048
 H97 H 1.16768 1.39396 1.17448
 H98 H 1.17566 1.33194 1.10780
 H99 H 1.10878 1.32357 1.16974
 C100 C 1.13811 0.85832 0.67658
 C101 C 1.12903 0.83319 0.66270
 C102 C 1.14320 0.82280 0.63829
 C103 C 1.16845 0.83663 0.62938
 C104 C 1.17947 0.86056 0.64418
 C105 C 1.16338 0.87166 0.66715
 H106 H 1.11114 0.82114 0.67103
 H107 H 1.18027 0.82835 0.61136
 H108 H 1.17024 0.89081 0.67808
 C109 C 0.35941 0.64630 0.68094
 C110 C 0.33590 0.63097 0.67010
 C111 C 0.32094 0.64044 0.64577
 C112 C 0.33159 0.66421 0.63066
 C113 C 0.35613 0.67897 0.63994
 C114 C 0.36949 0.67007 0.66541
 H115 H 0.32948 0.61169 0.68110
 H116 H 0.32001 0.67140 0.61203
 H117 H 0.38797 0.68183 0.67266
 C118 C 0.36615 0.13665 1.17343
 C119 C 0.34176 0.12255 1.16255
 C120 C 0.32772 0.13229 1.13778
 C121 C 0.33716 0.15781 1.12495
 C122 C 0.36120 0.17264 1.13527
 C123 C 0.37489 0.16233 1.16004
 H124 H 0.33316 0.10453 1.17420
 H125 H 0.32483 0.16649 1.10745
 H126 H 0.39183 0.17512 1.16925
 C127 C 0.85647 0.64880 1.18431
 C128 C 0.83314 0.63323 1.17319
 C129 C 0.81765 0.64299 1.14932
 C130 C 0.82715 0.66780 1.13518
 C131 C 0.85041 0.68382 1.14556
 C132 C 0.86550 0.67347 1.16943
 H133 H 0.82747 0.61324 1.18333
 H134 H 0.81627 0.67414 1.11582
 H135 H 0.88450 0.68491 1.17583
 C136 C 0.86273 0.14043 0.67612
 C137 C 0.83717 0.12742 0.66667
 C138 C 0.82114 0.13876 0.64373
 C139 C 0.83241 0.16252 0.62890
 C140 C 0.85769 0.17616 0.63786
 C141 C 0.87176 0.16571 0.66231
 H142 H 0.82992 0.10837 0.67755
 H143 H 0.82067 0.17091 0.61086
 H144 H 0.88951 0.17792 0.67070
 C145 C 1.36103 0.36273 0.67538
 C146 C 1.37558 0.33877 0.66444
 C147 C 1.36586 0.32432 0.63981
 C148 C 1.33933 0.33261 0.62806
 C149 C 1.32307 0.35495 0.64002
 C150 C 1.33467 0.37039 0.66309
 H151 H 1.39414 0.33115 0.67588
 H152 H 1.33143 0.32126 0.60956
 H153 H 1.32241 0.38783 0.67204
 C154 C 1.35092 0.85495 1.18511
 C155 C 1.36653 0.83173 1.17384
 C156 C 1.35689 0.81644 1.14979
 C157 C 1.33220 0.82606 1.13560
 C158 C 1.31613 0.84921 1.14612
 C159 C 1.32636 0.86411 1.17019
 H160 H 1.38646 0.82599 1.18400
 H161 H 1.32598 0.81539 1.11609
 H162 H 1.31493 0.88308 1.17670
 C163 C 0.85423 0.35713 1.18184
 C164 C 0.82937 0.36616 1.16735
 C165 C 0.81906 0.35147 1.14322
 C166 C 0.83579 0.32935 1.13162
 C167 C 0.86188 0.32122 1.14414
 C168 C 0.87055 0.33490 1.16953
 H169 H 0.81753 0.38465 1.17449
 H170 H 0.82896 0.31840 1.11248
 H171 H 0.88974 0.32800 1.18038
 C172 C 0.85617 0.86038 0.67718
 C173 C 0.87227 0.83795 0.66519
 C174 C 0.86411 0.82489 0.63931
 C175 C 0.83899 0.83440 0.62569
 C176 C 0.82345 0.85793 0.63622
 C177 C 0.83231 0.87063 0.66200
 H178 H 0.89064 0.83019 0.67685
 H179 H 0.83143 0.82277 0.60723
 H180 H 0.82017 0.88854 0.67000
 C181 C 0.65015 0.64406 0.68402
 C182 C 0.63467 0.66745 0.67316
 C183 C 0.64430 0.68289 0.64920
 C184 C 0.66895 0.67329 0.63491
 C185 C 0.68499 0.65003 0.64529
 C186 C 0.67476 0.63503 0.66928
 H187 H 0.61490 0.67316 0.68362
 H188 H 0.67519 0.68412 0.61549
 H189 H 0.68620 0.61614 0.67599
 C190 C 0.64665 1.14140 1.18056
 C191 C 0.67044 1.13142 1.16513
 C192 C 0.67936 1.14483 1.13972
 C193 C 0.66475 1.16950 1.13051
 C194 C 0.64103 1.18033 1.14569
 C195 C 0.63134 1.16491 1.16973
 H196 H 0.68214 1.11290 1.17238
 H197 H 0.67203 1.18096 1.11183
 H198 H 0.61187 1.17091 1.18057
 C199 C 0.14353 0.63971 1.17860
 C200 C 0.12994 0.66490 1.16894
 C201 C 0.14122 0.68141 1.14632
 C202 C 0.16606 0.67137 1.13252
 C203 C 0.18145 0.64778 1.14310
 C204 C 0.16979 0.63202 1.16594
 H205 H 0.11026 0.67133 1.17915
 H206 H 0.17326 0.68228 1.11348
 H207 H 0.18182 0.61401 1.17401
 C208 C 0.13977 1.13701 0.67508
 C209 C 0.12515 1.16089 0.66401
 C210 C 0.13485 1.17527 0.63933
 C211 C 0.16138 1.16700 0.62763
 C212 C 0.17772 1.14477 0.63970
 C213 C 0.16617 1.12939 0.66285
 H214 H 0.10656 1.16850 0.67538
 H215 H 0.16923 1.17829 0.60907
 H216 H 0.17849 1.11203 0.67190
 C217 C 1.35805 0.64672 0.31924
 C218 C 1.36686 0.67190 0.33323
 C219 C 1.35210 0.68251 0.35729
 C220 C 1.33028 0.66539 0.36919
 C221 C 1.32224 0.63914 0.35678
 C222 C 1.33589 0.63045 0.33145
 H223 H 1.38524 0.68361 0.32563
 H224 H 1.31942 0.67200 0.38846
 H225 H 1.32909 0.61125 0.32053
 C226 C 1.36382 1.14082 0.82497
 C227 C 1.33853 1.12769 0.83453
 C228 C 1.32277 1.13893 0.85753
 C229 C 1.33378 1.16283 0.87221
 C230 C 1.35925 1.17646 0.86338
 C231 C 1.37315 1.16590 0.83877
 H232 H 1.33121 1.10870 0.82361
 H233 H 1.32163 1.17122 0.88997
 H234 H 1.39094 1.17782 0.83005
 C235 C 0.85869 0.64500 0.81975
 C236 C 0.86758 0.67003 0.83395
 C237 C 0.85296 0.68034 0.85808
 C238 C 0.83091 0.66350 0.86977
 C239 C 0.82279 0.63733 0.85727
 C240 C 0.83649 0.62866 0.83191
 H241 H 0.88584 0.68198 0.82643
 H242 H 0.81999 0.67034 0.88891
 H243 H 0.82965 0.60952 0.82090
 C244 C 0.85913 1.14575 0.32056
 C245 C 0.83561 1.13058 0.33156
 C246 C 0.82087 1.14015 0.35599
 C247 C 0.83192 1.16377 0.37110
 C248 C 0.85657 1.17828 0.36163
 C249 C 0.86959 1.16931 0.33606
 H250 H 0.82896 1.11135 0.32062
 H251 H 0.82060 1.17106 0.38984
 H252 H 0.88815 1.18087 0.32868
 C253 C 0.63921 0.35570 0.32140
 C254 C 0.63136 0.32938 0.33403
 C255 C 0.64713 0.31739 0.35682
 C256 C 0.67057 0.33304 0.36759
 C257 C 0.68050 0.35789 0.35387
 C258 C 0.66443 0.36914 0.33107
 H259 H 0.61319 0.31761 0.32589
 H260 H 0.68156 0.32613 0.38669
 H261 H 0.67127 0.38867 0.32081
 C262 C 0.63734 0.85916 0.82439
 C263 C 0.66119 0.87392 0.83526
 C264 C 0.67565 0.86432 0.85980
 C265 C 0.66749 0.83799 0.87194
 C266 C 0.64520 0.82147 0.86018
 C267 C 0.62977 0.83277 0.83689
 H268 H 0.66872 0.89262 0.82395
 H269 H 0.67887 0.83058 0.89060
 H270 H 0.61240 0.82033 0.82804
 C271 C 0.14000 0.35557 0.82111
 C272 C 0.12945 0.33189 0.83661
 C273 C 0.14220 0.32294 0.86235
 C274 C 0.16599 0.33818 0.87265
 C275 C 0.17561 0.36328 0.85910
 C276 C 0.16256 0.37159 0.83326
 H277 H 0.11122 0.31995 0.82899
 H278 H 0.17769 0.33043 0.89098
 H279 H 0.17047 0.39006 0.82181
 C280 C 0.13988 0.85594 0.32114
 C281 C 0.12981 0.83189 0.33642
 C282 C 0.14274 0.82298 0.36210
 C283 C 0.16622 0.83862 0.37252
 C284 C 0.17538 0.86397 0.35913
 C285 C 0.16217 0.87224 0.33338
 H286 H 0.11183 0.81964 0.32870
 H287 H 0.17806 0.83100 0.39082
 H288 H 0.16976 0.89091 0.32204
 O289 O 0.96623 0.89827 0.85749
 O290 O 0.96438 0.86486 0.82420
 C291 C 0.95578 0.88857 0.83434
 C292 C 0.93272 0.90454 0.81961
 C293 C 0.92121 0.89432 0.79380
 H294 H 0.93049 0.87557 0.78384
 O295 O 1.03309 1.10141 0.85703
 O296 O 1.03517 1.13480 0.82372
 C297 C 1.04354 1.11096 0.83383
 C298 C 1.06603 1.09438 0.81884
 C299 C 1.07642 1.10333 0.79212
 H300 H 1.06757 1.12234 0.78221
 O301 O 0.85620 0.98021 0.89630
 O302 O 0.82271 0.98168 0.86310
 C303 C 0.83242 0.97153 0.88640
 C304 C 0.81640 0.94882 0.90175
 C305 C 0.78982 0.93920 0.89147
 H306 H 0.78115 0.94883 0.87233
 O307 O 1.14317 1.02087 0.89683
 O308 O 1.17650 1.01925 0.86350
 C309 C 1.16670 1.02981 0.88657
 C310 C 1.18224 1.05349 0.90097
 C311 C 1.20781 1.06419 0.88932
 H312 H 1.21699 1.05334 0.87114
 O313 O 0.88977 0.86342 0.97213
 O314 O 0.85481 0.83168 0.97222
 C315 C 0.87854 0.84060 0.96245
 C316 C 0.89275 0.82477 0.93899
 C317 C 0.88142 0.79873 0.92910
 H318 H 0.86349 0.78958 0.94036
 O319 O 1.10946 1.13751 0.97262
 O320 O 1.14416 1.16954 0.97252
 C321 C 1.12038 1.16046 0.96292
 C322 C 1.10551 1.17637 0.93988
 C323 C 1.11538 1.20339 0.93104
 H324 H 1.13406 1.21229 0.94134
 O325 O 0.89825 1.03343 0.85644
 O326 O 0.86497 1.03504 0.82303
 C327 C 0.88878 1.04356 0.83306
 C328 C 0.90537 1.06595 0.81787
 C329 C 0.89633 1.07637 0.79118
 H330 H 0.87727 1.06753 0.78139
 O331 O 1.10170 0.96643 0.85777
 O332 O 1.13507 0.96453 0.82449
 C333 C 1.11124 0.95608 0.83452
 C334 C 1.09467 0.93363 0.81937
 C335 C 1.10377 0.92310 0.79274
 H336 H 1.12292 0.93181 0.78300
 O337 O 1.02033 0.85654 0.89659
 O338 O 1.01862 0.82327 0.86315
 C339 C 1.02907 0.83293 0.88632
 C340 C 1.05246 0.81716 0.90075
 C341 C 1.06345 0.79199 0.88856
 H342 H 1.05283 0.78322 0.87006
 O343 O 0.97910 1.14332 0.89591
 O344 O 0.98091 1.17677 0.86265
 C345 C 0.97055 1.16711 0.88587
 C346 C 0.94787 1.18327 0.90103
 C347 C 0.93802 1.20960 0.89027
 H348 H 0.94736 1.21789 0.87083
 O349 O 0.86287 1.11073 0.97119
 O350 O 0.83136 1.14586 0.97135
 C351 C 0.84023 1.12217 0.96137
 C352 C 0.82460 1.10810 0.93760
 C353 C 0.79845 1.11916 0.92765
 H354 H 0.78911 1.13705 0.93886
 O355 O 1.13662 0.88931 0.97235
 O356 O 1.16838 0.85441 0.97238
 C357 C 1.15952 0.87827 0.96275
 C358 C 1.17564 0.89311 0.93980
 C359 C 1.20233 0.88275 0.93065
 H360 H 1.21084 0.86370 0.94060
 O361 O 0.97736 1.10442 0.85644
 O362 O 0.97936 1.13772 0.82303
 C363 C 0.96832 1.11495 0.83306
 C364 C 0.94428 1.10088 0.81784
 C365 C 0.93491 1.11106 0.79114
 H366 H 0.94562 1.12934 0.78187
 O367 O 1.02204 0.89562 0.85737
 O368 O 1.02017 0.86242 0.82387
 C369 C 1.03120 0.88513 0.83404
 C370 C 1.05542 0.89908 0.81907
 C371 C 1.06490 0.88876 0.79249
 H372 H 1.05409 0.87056 0.78324
 O373 O 1.14086 0.96488 0.89716
 O374 O 1.17443 0.96317 0.86408
 C375 C 1.16377 0.95404 0.88738
 C376 C 1.17772 0.93017 0.90298
 C377 C 1.20437 0.91952 0.89412
 H378 H 1.21496 0.92916 0.87590
 O379 O 0.85910 1.03599 0.89558
 O380 O 0.82563 1.03756 0.86237
 C381 C 0.83635 1.04694 0.88553
 C382 C 0.82272 1.07127 0.90058
 C383 C 0.79661 1.08257 0.89096
 H384 H 0.78574 1.07251 0.87312
 O385 O 0.90448 1.14732 0.97176
 O386 O 0.87309 1.18255 0.97193
 C387 C 0.89571 1.17115 0.96205
 C388 C 0.91143 1.18526 0.93840
 C389 C 0.90193 1.21154 0.92736
 H390 H 0.88339 1.22176 0.93675
 O391 O 1.09545 0.85211 0.97205
 O392 O 1.12709 0.81711 0.97188
 C393 C 1.10451 0.82854 0.96197
 C394 C 1.08933 0.81497 0.93767
 C395 C 1.10011 0.78991 0.92505
 H396 H 1.11870 0.77956 0.93424
 O397 O 1.10438 1.02220 0.85743
 O398 O 1.13759 1.02033 0.82400
 C399 C 1.11485 1.03131 0.83406
 C400 C 1.10079 1.05536 0.81887
 C401 C 1.11094 1.06466 0.79213
 H402 H 1.12911 1.05385 0.78288
 O403 O 0.89500 0.97763 0.85698
 O404 O 0.86164 0.97913 0.82364
 C405 C 0.88427 0.96810 0.83389
 C406 C 0.89774 0.94333 0.81939
 C407 C 0.88648 0.93275 0.79360
 H408 H 0.86921 0.94430 0.78349
 O409 O 1.03474 1.14060 0.89632
 O410 O 1.03663 1.17423 0.86323
 C411 C 1.04557 1.16359 0.88661
 C412 C 1.06904 1.17781 0.90250
 C413 C 1.07919 1.20480 0.89398
 H414 H 1.06959 1.21533 0.87571
 O415 O 0.96457 0.85907 0.89664
 O416 O 0.96280 0.82554 0.86346
 C417 C 0.95363 0.83624 0.88670
 C418 C 0.92941 0.82260 0.90193
 C419 C 0.91771 0.79665 0.89221
 H420 H 0.92738 0.78582 0.87415
 O421 O 1.14686 1.09674 0.97210
 O422 O 1.18170 1.12859 0.97183
 C423 C 1.17035 1.10591 0.96196
 C424 C 1.18402 1.09062 0.93777
 C425 C 1.20953 1.10099 0.92576
 H426 H 1.22006 1.11931 0.93532
 O427 O 0.85304 0.90502 0.97200
 O428 O 0.81804 0.87332 0.97201
 C429 C 0.82930 0.89610 0.96222
 C430 C 0.81501 0.91192 0.93876
 C431 C 0.78850 0.90263 0.92817
 H432 H 0.77836 0.88402 0.93762
 Cu433 Cu 0.99344 0.88073 0.88036
 Cu434 Cu 0.99131 0.84066 0.84033
 Cu435 Cu 1.00589 1.11908 0.87972
 Cu436 Cu 1.00826 1.15923 0.83980
 Cu437 Cu 0.88048 1.00670 0.87964
 Cu438 Cu 0.84038 1.00854 0.83968
 Cu439 Cu 1.11922 0.99369 0.88065
 Cu440 Cu 1.15929 0.99157 0.84073
 C441 C 0.92088 0.92910 0.83219
 H442 H 0.92931 0.93681 0.85235
 C443 C 0.89741 0.90762 0.78102
 C444 C 1.07806 1.07009 0.83181
 H445 H 1.07038 1.06325 0.85258
 C446 C 1.09844 1.08828 0.77811
 C447 C 0.82857 0.93535 0.92571
 H448 H 0.84924 0.94237 0.93350
 C449 C 0.77524 0.91649 0.90496
 C450 C 1.17056 1.06681 0.92523
 H451 H 1.15056 1.05903 0.93400
 C452 C 1.22121 1.08862 0.90091
 C453 C 0.91681 0.83644 0.92538
 H454 H 0.92535 0.85674 0.93267
 C455 C 0.89322 0.78475 0.90515
 C456 C 1.08205 1.16398 0.92578
 H457 H 1.07453 1.14302 0.93228
 C458 C 1.10184 1.21830 0.90860
 C459 C 0.92965 1.07804 0.83077
 H460 H 0.93654 1.07034 0.85152
 C461 C 0.91131 1.09848 0.77715
 C462 C 1.07019 0.92178 0.83211
 H463 H 1.06320 0.92956 0.85278
 C464 C 1.08870 0.90107 0.77866
 C465 C 1.06544 0.82841 0.92538
 H466 H 1.05741 0.84813 0.93455
 C467 C 1.08801 0.77870 0.89984
 C468 C 0.93473 1.17153 0.92538
 H469 H 0.94191 1.15104 0.93353
 C470 C 0.91539 1.22433 0.90365
 C471 C 0.83648 1.08414 0.92395
 H472 H 0.85683 1.07578 0.93123
 C473 C 0.78449 1.10699 0.90380
 C474 C 1.16377 0.91710 0.92614
 H475 H 1.14306 0.92498 0.93289
 C476 C 1.21739 0.89629 0.90828
 O477 O 1.02296 0.89588 1.14329
 O478 O 1.02104 0.86262 1.17673
 C479 C 1.03227 0.88520 1.16649
 C480 C 1.05710 0.89858 1.18103
 C481 C 1.06776 0.88713 1.20671
 H482 H 1.05619 0.86983 1.21680
 O483 O 0.97803 1.10399 1.14278
 O484 O 0.97970 1.13729 1.17617
 C485 C 0.96866 1.11462 1.16595
 C486 C 0.94389 1.10121 1.18048
 C487 C 0.93338 1.11268 1.20617
 H488 H 0.94517 1.12979 1.21629
 O489 O 0.85898 1.03500 1.10272
 O490 O 0.82538 1.03679 1.13578
 C491 C 0.83605 1.04582 1.11245
 C492 C 0.82202 1.06949 1.09670
 C493 C 0.79534 1.08004 1.10550
 H494 H 0.78481 1.07049 1.12380
 O495 O 1.14127 0.96459 1.10322
 O496 O 1.17489 0.96285 1.13628
 C497 C 1.16402 0.95354 1.11317
 C498 C 1.17736 0.92901 1.09818
 C499 C 1.20289 0.91686 1.10836
 H500 H 1.21362 0.92642 1.12656
 O501 O 1.09537 0.85207 1.02813
 O502 O 1.12691 0.81698 1.02811
 C503 C 1.10440 0.82844 1.03814
 C504 C 1.08929 0.81489 1.06255
 C505 C 1.10000 0.78972 1.07506
 H506 H 1.11836 0.77921 1.06561
 O507 O 0.90417 1.14693 1.02768
 O508 O 0.87274 1.18212 1.02792
 C509 C 0.89536 1.17062 1.03771
 C510 C 0.91111 1.18454 1.06151
 C511 C 0.90167 1.21078 1.07272
 H512 H 0.88305 1.22104 1.06350
 O513 O 0.89533 0.97768 1.14244
 O514 O 0.86206 0.97960 1.17581
 C515 C 0.88483 0.96862 1.16581
 C516 C 0.89889 0.94465 1.18109
 C517 C 0.88824 0.93499 1.20748
 H518 H 0.86968 0.94545 1.21636
 O519 O 1.10533 1.02257 1.14236
 O520 O 1.13889 1.02094 1.17548
 C521 C 1.11616 1.03197 1.16545
 C522 C 1.10280 1.05668 1.18015
 C523 C 1.11460 1.06742 1.20560
 H524 H 1.13207 1.05592 1.21539
 O525 O 0.96500 0.85994 1.10404
 O526 O 0.96299 0.82650 1.13731
 C527 C 0.95386 0.83722 1.11404
 C528 C 0.92952 0.82370 1.09885
 C529 C 0.91747 0.79803 1.10891
 H530 H 0.92691 0.78738 1.12721
 O531 O 1.03543 1.14083 1.10361
 O532 O 1.03686 1.17443 1.13674
 C533 C 1.04605 1.16386 1.11346
 C534 C 1.06963 1.17817 1.09789
 C535 C 1.07948 1.20526 1.10639
 H536 H 1.06956 1.21578 1.12449
 O537 O 0.85250 0.90460 1.02785
 O538 O 0.81749 0.87290 1.02778
 C539 C 0.82875 0.89562 1.03759
 C540 C 0.81452 0.91130 1.06114
 C541 C 0.78810 0.90190 1.07189
 H542 H 0.77793 0.88333 1.06244
 O543 O 1.14717 1.09633 1.02802
 O544 O 1.18211 1.12807 1.02792
 C545 C 1.17096 1.10523 1.03768
 C546 C 1.18537 1.08919 1.06096
 C547 C 1.21213 1.09808 1.07134
 H548 H 1.22242 1.11660 1.06190
 O549 O 1.03397 1.10155 1.14276
 O550 O 1.03571 1.13500 1.17601
 C551 C 1.04447 1.11133 1.16586
 C552 C 1.06780 1.09549 1.18039
 C553 C 1.07997 1.10596 1.20582
 H554 H 1.07107 1.12493 1.21573
 O555 O 0.96714 0.89903 1.14338
 O556 O 0.96516 0.86576 1.17681
 C557 C 0.95675 0.88955 1.16666
 C558 C 0.93409 0.90603 1.18154
 C559 C 0.92321 0.89674 1.20798
 H560 H 0.93197 0.87769 1.21788
 O561 O 1.14416 1.02046 1.10297
 O562 O 1.17782 1.01875 1.13598
 C563 C 1.16799 1.02908 1.11283
 C564 C 1.18398 1.05190 1.09761
 C565 C 1.21077 1.06112 1.10768
 H566 H 1.21955 1.05115 1.12660
 O567 O 0.85607 0.97930 1.10339
 O568 O 0.82265 0.98104 1.13663
 C569 C 0.83232 0.97069 1.11344
 C570 C 0.81623 0.94794 1.09830
 C571 C 0.78976 0.93824 1.10878
 H572 H 0.78125 0.94777 1.12803
 O573 O 1.11029 1.13784 1.02832
 O574 O 1.14504 1.16981 1.02821
 C575 C 1.12131 1.16079 1.03794
 C576 C 1.10647 1.17677 1.06096
 C577 C 1.11602 1.20398 1.06967
 H578 H 1.13463 1.21308 1.05940
 O579 O 0.89019 0.86398 1.02797
 O580 O 0.85522 0.83225 1.02797
 C581 C 0.87892 0.84126 1.03780
 C582 C 0.89301 0.82567 1.06154
 C583 C 0.88138 0.79991 1.07181
 H584 H 0.86339 0.79077 1.06061
 O585 O 1.10245 0.96671 1.14264
 O586 O 1.13596 0.96500 1.17581
 C587 C 1.11218 0.95637 1.16583
 C588 C 1.09614 0.93337 1.18070
 C589 C 1.10644 0.92167 1.20640
 H590 H 1.12533 0.93079 1.21625
 O591 O 0.89794 1.03345 1.14215
 O592 O 0.86451 1.03548 1.17536
 C593 C 0.88829 1.04397 1.16527
 C594 C 0.90450 1.06686 1.18005
 C595 C 0.89429 1.07865 1.20571
 H596 H 0.87523 1.06982 1.21550
 O597 O 0.97972 1.14292 1.10345
 O598 O 0.98119 1.17632 1.13677
 C599 C 0.97092 1.16660 1.11353
 C600 C 0.94799 1.18259 1.09851
 C601 C 0.93816 1.20885 1.10941
 H602 H 0.94771 1.21712 1.12876
 O603 O 1.02079 0.85682 1.10414
 O604 O 1.01890 0.82350 1.13752
 C605 C 1.02941 0.83313 1.11436
 C606 C 1.05274 0.81725 1.09985
 C607 C 1.06379 0.79204 1.11199
 H608 H 1.05336 0.78329 1.13063
 O609 O 1.13651 0.88916 1.02803
 O610 O 1.16812 0.85411 1.02799
 C611 C 1.15924 0.87787 1.03778
 C612 C 1.17498 0.89205 1.06135
 C613 C 1.20060 0.88029 1.07174
 H614 H 1.20950 0.86204 1.06079
 O615 O 0.86278 1.10992 1.02700
 O616 O 0.83119 1.14498 1.02713
 C617 C 0.83995 1.12105 1.03665
 C618 C 0.82385 1.10624 1.05960
 C619 C 0.79712 1.11654 1.06870
 H620 H 0.78853 1.13548 1.05862
 Cu621 Cu 0.99411 0.88126 1.12039
 Cu622 Cu 0.99177 0.84124 1.16043
 Cu623 Cu 1.00669 1.11892 1.11987
 Cu624 Cu 1.00854 1.15906 1.15983
 Cu625 Cu 0.87489 0.88744 0.99996
 Cu626 Cu 0.83288 0.84935 0.99997
 Cu627 Cu 1.11275 0.87410 1.00011
 Cu628 Cu 1.15070 0.83204 1.00005
 Cu629 Cu 0.88672 1.12521 0.99942
 Cu630 Cu 0.84899 1.16746 0.99965
 Cu631 Cu 1.12499 1.11389 1.00035
 Cu632 Cu 1.16683 1.15213 1.00014
 Cu633 Cu 0.88043 1.00618 1.11935
 Cu634 Cu 0.84031 1.00843 1.15927
 Cu635 Cu 1.11994 0.99374 1.11949
 Cu636 Cu 1.16025 0.99173 1.15923
 C637 C 1.07142 0.92172 1.16825
 H638 H 1.06365 0.93028 1.14816
 C639 C 1.09305 0.89785 1.21917
 C640 C 0.92936 1.07826 1.16763
 H641 H 0.93705 1.06968 1.14753
 C642 C 0.90794 1.10228 1.21852
 C643 C 0.83587 1.08243 1.07343
 H644 H 0.85662 1.07461 1.06673
 C645 C 0.78219 1.10310 1.09120
 C646 C 1.16362 0.91647 1.07460
 H647 H 1.14363 0.92535 1.06696
 C648 C 1.21441 0.89198 1.09584
 C649 C 1.06558 0.82844 1.07508
 H650 H 1.05758 0.84821 1.06598
 C651 C 1.08814 0.77857 1.10041
 C652 C 0.93460 1.17083 1.07429
 H653 H 0.94178 1.15038 1.06605
 C654 C 0.91536 1.22356 1.09632
 C655 C 0.92209 0.93030 1.16853
 H656 H 0.93011 0.93740 1.14798
 C657 C 0.90063 0.91138 1.22157
 C658 C 1.07936 1.07079 1.16778
 H659 H 1.07051 1.06290 1.14786
 C660 C 1.10406 1.09271 1.21818
 C661 C 0.91715 0.83731 1.07509
 H662 H 0.92593 0.85741 1.06753
 C663 C 0.89287 0.78623 1.09608
 C664 C 1.08299 1.16432 1.07490
 H665 H 1.07565 1.14327 1.06844
 C666 C 1.10206 1.21895 1.09187
 C667 C 0.82817 0.93464 1.07418
 H668 H 0.84874 0.94175 1.06623
 C669 C 0.77504 0.91562 1.09528
 C670 C 1.17170 1.06577 1.07395
 H671 H 1.15088 1.05902 1.06632
 C672 C 1.22551 1.08376 1.09424
 O673 O 0.96770 0.39787 0.35760
 O674 O 0.96565 0.36423 0.32456
 C675 C 0.95707 0.38799 0.33461
 C676 C 0.93385 0.40382 0.31995
 C677 C 0.92195 0.39323 0.29447
 H678 H 0.93104 0.37430 0.28468
 O679 O 1.03478 0.60090 0.35667
 O680 O 1.03661 0.63424 0.32329
 C681 C 1.04507 0.61044 0.33338
 C682 C 1.06756 0.59399 0.31829
 C683 C 1.07820 0.60335 0.29180
 H684 H 1.06947 0.62253 0.28212
 O685 O 0.85723 0.47871 0.39665
 O686 O 0.82403 0.48025 0.36316
 C687 C 0.83370 0.46982 0.38635
 C688 C 0.81808 0.44623 0.40074
 C689 C 0.79275 0.43533 0.38877
 H690 H 0.78372 0.44614 0.37048
 O691 O 1.14433 0.52029 0.39633
 O692 O 1.17788 0.51873 0.36321
 C693 C 1.16806 0.52906 0.38638
 C694 C 1.18398 0.55200 0.40155
 C695 C 1.21026 0.56197 0.39085
 H696 H 1.21865 0.55255 0.37150
 O697 O 0.89106 0.36254 0.47259
 O698 O 0.85650 0.33035 0.47238
 C699 C 0.88031 0.33950 0.46293
 C700 C 0.89541 0.32347 0.44017
 C701 C 0.88537 0.29656 0.43126
 H702 H 0.86640 0.28792 0.44123
 O703 O 1.11099 0.63693 0.47210
 O704 O 1.14584 0.66880 0.47210
 C705 C 1.12208 0.65981 0.46239
 C706 C 1.10735 0.67573 0.43928
 C707 C 1.11721 0.70277 0.43044
 H708 H 1.13588 0.71169 0.44074
 O709 O 0.89907 0.53273 0.35747
 O710 O 0.86579 0.53451 0.32409
 C711 C 0.88949 0.54313 0.33425
 C712 C 0.90556 0.56620 0.31954
 C713 C 0.89486 0.57855 0.29432
 H714 H 0.87562 0.56992 0.28470
 O715 O 1.10303 0.46604 0.35692
 O716 O 1.13645 0.46422 0.32371
 C717 C 1.11261 0.45573 0.33368
 C718 C 1.09597 0.43335 0.31848
 C719 C 1.10468 0.42318 0.29157
 H720 H 1.12368 0.43205 0.28168
 O721 O 1.02246 0.35662 0.39633
 O722 O 1.02072 0.32324 0.36302
 C723 C 1.03131 0.33306 0.38605
 C724 C 1.05493 0.31749 0.40034
 C725 C 1.06578 0.29217 0.38833
 H726 H 1.05499 0.28316 0.37003
 O727 O 0.98073 0.64269 0.39572
 O728 O 0.98248 0.67600 0.36229
 C729 C 0.97195 0.66629 0.38540
 C730 C 0.94843 0.68199 0.39972
 C731 C 0.93753 0.70728 0.38764
 H732 H 0.94823 0.71619 0.36923
 O733 O 0.86374 0.61007 0.47122
 O734 O 0.83201 0.64501 0.47123
 C735 C 0.84091 0.62122 0.46153
 C736 C 0.82508 0.60679 0.43814
 C737 C 0.79885 0.61773 0.42839
 H738 H 0.78954 0.63561 0.43966
 O739 O 1.13888 0.38987 0.47252
 O740 O 1.17076 0.35507 0.47258
 C741 C 1.16184 0.37892 0.46297
 C742 C 1.17787 0.39384 0.44004
 C743 C 1.20490 0.38404 0.43129
 H744 H 1.21384 0.36539 0.44162
 O745 O 0.97899 0.60342 0.35690
 O746 O 0.98078 0.63671 0.32347
 C747 C 0.96964 0.61409 0.33372
 C748 C 0.94477 0.60079 0.31924
 C749 C 0.93373 0.61282 0.29402
 H750 H 0.94519 0.63030 0.28415
 O751 O 1.02355 0.39538 0.35683
 O752 O 1.02150 0.36208 0.32345
 C753 C 1.03255 0.38486 0.33345
 C754 C 1.05663 0.39887 0.31825
 C755 C 1.06569 0.38895 0.29136
 H756 H 1.05465 0.37096 0.28194
 O757 O 1.14206 0.46450 0.39642
 O758 O 1.17573 0.46285 0.36345
 C759 C 1.16508 0.45380 0.38677
 C760 C 1.17930 0.43034 0.40266
 C761 C 1.20627 0.42025 0.39419
 H762 H 1.21676 0.42989 0.37591
 O763 O 0.85949 0.53465 0.39625
 O764 O 0.82608 0.53623 0.36298
 C765 C 0.83670 0.54553 0.38621
 C766 C 0.82299 0.56981 0.40131
 C767 C 0.79682 0.58110 0.39177
 H768 H 0.78588 0.57104 0.37398
 O769 O 0.90521 0.64685 0.47087
 O770 O 0.87354 0.68184 0.47057
 C771 C 0.89615 0.67041 0.46073
 C772 C 0.91142 0.68400 0.43650
 C773 C 0.90081 0.70923 0.42405
 H774 H 0.88231 0.71965 0.43333
 O775 O 1.09796 0.35255 0.47161
 O776 O 1.12968 0.31761 0.47138
 C777 C 1.10712 0.32905 0.46143
 C778 C 1.09198 0.31552 0.43710
 C779 C 1.10259 0.29028 0.42468
 H780 H 1.12106 0.27985 0.43400
 O781 O 1.10583 0.52182 0.35658
 O782 O 1.13921 0.52009 0.32331
 C783 C 1.11642 0.53101 0.33329
 C784 C 1.10242 0.55511 0.31816
 C785 C 1.11286 0.56481 0.29167
 H786 H 1.13120 0.55422 0.28248
 O787 O 0.89603 0.47686 0.35735
 O788 O 0.86288 0.47855 0.32381
 C789 C 0.88546 0.46747 0.33413
 C790 C 0.89890 0.44266 0.31966
 C791 C 0.88725 0.43169 0.29421
 H792 H 0.86976 0.44302 0.28421
 O793 O 1.03648 0.64001 0.39615
 O794 O 1.03821 0.67352 0.36294
 C795 C 1.04724 0.66297 0.38632
 C796 C 1.07078 0.67721 0.40205
 C797 C 1.08090 0.70419 0.39349
 H798 H 1.07120 0.71473 0.37527
 O799 O 0.96667 0.35879 0.39709
 O800 O 0.96493 0.32502 0.36416
 C801 C 0.95594 0.33570 0.38749
 C802 C 0.93238 0.32156 0.40334
 C803 C 0.92207 0.29463 0.39477
 H804 H 0.93175 0.28399 0.37662
 O805 O 1.14787 0.59553 0.47225
 O806 O 1.18287 0.62721 0.47226
 C807 C 1.17158 0.60447 0.46243
 C808 C 1.18570 0.58874 0.43876
 C809 C 1.21194 0.59833 0.42774
 H810 H 1.22207 0.61699 0.43707
 O811 O 0.85332 0.40306 0.47190
 O812 O 0.81864 0.37102 0.47150
 C813 C 0.82990 0.39377 0.46168
 C814 C 0.81625 0.40901 0.43743
 C815 C 0.79100 0.39838 0.42505
 H816 H 0.78063 0.37982 0.43434
 Cu817 Cu 0.99523 0.38054 0.38027
 Cu818 Cu 0.99295 0.34028 0.34047
 Cu819 Cu 1.00769 0.61840 0.37970
 Cu820 Cu 1.00981 0.65845 0.33963
 Cu821 Cu 0.88128 0.50564 0.38028
 Cu822 Cu 0.84136 0.50759 0.34015
 Cu823 Cu 1.12044 0.49327 0.37985
 Cu824 Cu 1.16070 0.49124 0.34010
 C825 C 0.92223 0.42860 0.33233
 H826 H 0.93095 0.43659 0.35226
 C827 C 0.89791 0.40631 0.28190
 C828 C 1.07949 0.56957 0.33103
 H829 H 1.07162 0.56244 0.35163
 C830 C 1.10047 0.58860 0.27786
 C831 C 0.82959 0.43300 0.42513
 H832 H 0.84942 0.44095 0.43413
 C833 C 0.77952 0.41070 0.40006
 C834 C 1.17211 0.56525 0.42579
 H835 H 1.15165 0.55797 0.43389
 C836 C 1.22485 0.58478 0.40415
 C837 C 0.91921 0.33557 0.42640
 H838 H 0.92681 0.35649 0.43295
 C839 C 0.89902 0.28145 0.40907
 C840 C 1.08386 0.66338 0.42525
 H841 H 1.07634 0.64242 0.43178
 C842 C 1.10358 0.71770 0.40804
 C843 C 0.93059 0.57744 0.33179
 H844 H 0.93865 0.56845 0.35158
 C845 C 0.90811 0.60262 0.28189
 C846 C 1.07165 0.42135 0.33138
 H847 H 1.06497 0.42885 0.35226
 C848 C 1.08928 0.40148 0.27732
 C849 C 1.06810 0.32895 0.42477
 H850 H 1.06016 0.34877 0.43381
 C851 C 1.09032 0.27887 0.39965
 C852 C 0.93530 0.67058 0.42421
 H853 H 0.94323 0.65076 0.43329
 C854 C 0.91302 0.72062 0.39899
 C855 C 0.83689 0.58278 0.42455
 H856 H 0.85732 0.57453 0.43170
 C857 C 0.78477 0.60556 0.40465
 C858 C 1.16550 0.41730 0.42591
 H859 H 1.14454 0.42477 0.43235
 C860 C 1.21979 0.39765 0.40885
 O861 O 1.02353 0.39424 0.64253
 O862 O 1.02172 0.36084 0.67585
 C863 C 1.03281 0.38355 0.66575
 C864 C 1.05742 0.39711 0.68047
 C865 C 1.06803 0.38577 0.70623
 H866 H 1.05660 0.36832 0.71623
 O867 O 0.97754 0.60412 0.64159
 O868 O 0.97925 0.63729 0.67511
 C869 C 0.96821 0.61463 0.66484
 C870 C 0.94361 0.60095 0.67949
 C871 C 0.93296 0.61236 0.70516
 H872 H 0.94441 0.62981 0.71512
 O873 O 0.85960 0.53437 0.60221
 O874 O 0.82623 0.53625 0.63549
 C875 C 0.83697 0.54552 0.61229
 C876 C 0.82363 0.57011 0.59732
 C877 C 0.79816 0.58230 0.60756
 H878 H 0.78747 0.57277 0.62579
 O879 O 1.14187 0.46389 0.60345
 O880 O 1.17515 0.46255 0.63686
 C881 C 1.16466 0.45313 0.61363
 C882 C 1.17851 0.42887 0.59868
 C883 C 1.20458 0.41756 0.60848
 H884 H 1.21536 0.42764 0.62635
 O885 O 1.09710 0.35223 0.52752
 O886 O 1.12859 0.31710 0.52743
 C887 C 1.10585 0.32837 0.53718
 C888 C 1.08986 0.31405 0.56055
 C889 C 1.09889 0.28741 0.57112
 H890 H 1.11740 0.27717 0.56170
 O891 O 0.90507 0.64749 0.52683
 O892 O 0.87359 0.68263 0.52658
 C893 C 0.89621 0.67131 0.53652
 C894 C 0.91185 0.68549 0.56019
 C895 C 0.90252 0.71193 0.57100
 H896 H 0.88411 0.72225 0.56145
 O897 O 0.89576 0.47631 0.64114
 O898 O 0.86246 0.47803 0.67449
 C899 C 0.88511 0.46694 0.66431
 C900 C 0.89858 0.44224 0.67900
 C901 C 0.88687 0.43153 0.70450
 H902 H 0.86941 0.44302 0.71430
 O903 O 1.10466 0.52156 0.64192
 O904 O 1.13778 0.52011 0.67549
 C905 C 1.11514 0.53103 0.66514
 C906 C 1.10162 0.55578 0.67963
 C907 C 1.11336 0.56658 0.70507
 H908 H 1.13067 0.55499 0.71503
 O909 O 0.96598 0.35800 0.60296
 O910 O 0.96429 0.32434 0.63603
 C911 C 0.95514 0.33506 0.61278
 C912 C 0.93128 0.32109 0.59728
 C913 C 0.92098 0.29421 0.60595
 H914 H 0.93082 0.28354 0.62401
 O915 O 1.03525 0.64082 0.60264
 O916 O 1.03685 0.67427 0.63590
 C917 C 1.04605 0.66372 0.61260
 C918 C 1.06986 0.67785 0.59714
 C919 C 1.08020 0.70468 0.60595
 H920 H 1.07042 0.71522 0.62411
 O921 O 0.85281 0.40329 0.52784
 O922 O 0.81802 0.37137 0.52759
 C923 C 0.82906 0.39422 0.53743
 C924 C 0.81462 0.41006 0.56078
 C925 C 0.78800 0.40096 0.57131
 H926 H 0.77778 0.38240 0.56189
 O927 O 1.14783 0.59595 0.52822
 O928 O 1.18276 0.62771 0.52841
 C929 C 1.17137 0.60505 0.53830
 C930 C 1.18503 0.58969 0.56246
 C931 C 1.21034 0.60019 0.57484
 H932 H 1.22074 0.61877 0.56563
 O933 O 1.03341 0.60141 0.64165
 O934 O 1.03525 0.63469 0.67505
 C935 C 1.04387 0.61100 0.66483
 C936 C 1.06698 0.59492 0.67946
 C937 C 1.07916 0.60546 0.70485
 H938 H 1.07048 0.62462 0.71458
 O939 O 0.96766 0.39735 0.64190
 O940 O 0.96569 0.36387 0.67512
 C941 C 0.95704 0.38759 0.66493
 C942 C 0.93369 0.40349 0.67935
 C943 C 0.92159 0.39307 0.70482
 H944 H 0.93057 0.37419 0.71482
 O945 O 1.14398 0.51984 0.60307
 O946 O 1.17711 0.51846 0.63663
 C947 C 1.16747 0.52880 0.61340
 C948 C 1.18313 0.55235 0.59901
 C949 C 1.20855 0.56306 0.61093
 H950 H 1.21759 0.55211 0.62911
 O951 O 0.85604 0.47853 0.60256
 O952 O 0.82265 0.48037 0.63581
 C953 C 0.83225 0.47000 0.61260
 C954 C 0.81610 0.44721 0.59751
 C955 C 0.78940 0.43783 0.60775
 H956 H 0.78069 0.44771 0.62673
 O957 O 1.11073 0.63711 0.52778
 O958 O 1.14554 0.66903 0.52776
 C959 C 1.12173 0.66008 0.53739
 C960 C 1.10686 0.67614 0.56034
 C961 C 1.11691 0.70304 0.56942
 H962 H 1.13580 0.71180 0.55940
 O963 O 0.89017 0.36223 0.52820
 O964 O 0.85553 0.33013 0.52796
 C965 C 0.87922 0.33921 0.53774
 C966 C 0.89410 0.32311 0.56067
 C967 C 0.88408 0.29615 0.56960
 H968 H 0.86515 0.28745 0.55961
 O969 O 1.10242 0.46564 0.64234
 O970 O 1.13561 0.46421 0.67584
 C971 C 1.11201 0.45540 0.66563
 C972 C 1.09607 0.43230 0.68041
 C973 C 1.10629 0.42077 0.70621
 H974 H 1.12499 0.43011 0.71620
 O975 O 0.89845 0.53223 0.64159
 O976 O 0.86520 0.53401 0.67498
 C977 C 0.88889 0.54263 0.66481
 C978 C 0.90493 0.56573 0.67950
 C979 C 0.89465 0.57744 0.70519
 H980 H 0.87585 0.56825 0.71514
 O981 O 0.97957 0.64362 0.60270
 O982 O 0.98115 0.67690 0.63612
 C983 C 0.97094 0.66735 0.61280
 C984 C 0.94830 0.68357 0.59758
 C985 C 0.93864 0.71007 0.60810
 H986 H 0.94813 0.71848 0.62742
 O987 O 1.02168 0.35559 0.60284
 O988 O 1.02001 0.32205 0.63603
 C989 C 1.03030 0.33179 0.61280
 C990 C 1.05300 0.31570 0.59756
 C991 C 1.06236 0.28899 0.60780
 H992 H 1.05264 0.28032 0.62690
 O993 O 1.13858 0.38902 0.52824
 O994 O 1.17023 0.35401 0.52829
 C995 C 1.16123 0.37771 0.53813
 C996 C 1.17677 0.39192 0.56182
 C997 C 1.20288 0.38092 0.57183
 H998 H 1.21230 0.36306 0.56064
 O999 O 0.86427 0.60991 0.52700
 O1000 O 0.83270 0.64498 0.52695
 C1001 C 0.84160 0.62122 0.53678
 C1002 C 0.82594 0.60707 0.56043
 C1003 C 0.80037 0.61885 0.57087
 H1004 H 0.79145 0.63709 0.55990
 Cu1005 Cu 0.99490 0.37968 0.61928
 Cu1006 Cu 0.99275 0.33947 0.65915
 Cu1007 Cu 1.00629 0.61914 0.61883
 Cu1008 Cu 1.00831 0.65907 0.65896
 Cu1009 Cu 0.87525 0.38605 0.50022
 Cu1010 Cu 0.83361 0.34758 0.49985
 Cu1011 Cu 1.11494 0.37440 0.49998
 Cu1012 Cu 1.15293 0.33237 0.49993
 Cu1013 Cu 0.88778 0.62510 0.49899
 Cu1014 Cu 0.84983 0.66717 0.49885
 Cu1015 Cu 1.12590 0.61317 0.50008
 Cu1016 Cu 1.16785 0.65128 0.50011
 Cu1017 Cu 0.88078 0.50517 0.61853
 Cu1018 Cu 0.84082 0.50733 0.65857
 Cu1019 Cu 1.11991 0.49279 0.61932
 Cu1020 Cu 1.15973 0.49118 0.65958
 C1021 C 1.07157 0.42039 0.66779
 H1022 H 1.06387 0.42887 0.64764
 C1023 C 1.09310 0.39680 0.71889
 C1024 C 0.92948 0.57759 0.66687
 H1025 H 0.93721 0.56906 0.64676
 C1026 C 0.90782 0.60148 0.71775
 C1027 C 0.83732 0.58263 0.57370
 H1028 H 0.85727 0.57372 0.56601
 C1029 C 0.78662 0.60719 0.59502
 C1030 C 1.16485 0.41592 0.57531
 H1031 H 1.14450 0.42422 0.56794
 C1032 C 1.21672 0.39307 0.59573
 C1033 C 1.06658 0.32780 0.57362
 H1034 H 1.05975 0.34856 0.56585
 C1035 C 1.08488 0.27421 0.59430
 C1036 C 0.93507 0.67173 0.57334
 H1037 H 0.94212 0.65113 0.56537
 C1038 C 0.91612 0.72488 0.59457
 C1039 C 0.92203 0.42813 0.66663
 H1040 H 0.93083 0.43598 0.64668
 C1041 C 0.89748 0.40629 0.71713
 C1042 C 1.07837 0.57003 0.66703
 H1043 H 1.06956 0.56211 0.64710
 C1044 C 1.10309 0.59210 0.71735
 C1045 C 0.91798 0.33515 0.57434
 H1046 H 0.92564 0.35603 0.56773
 C1047 C 0.89790 0.28100 0.59174
 C1048 C 1.08306 0.66399 0.57404
 H1049 H 1.07538 0.64315 0.56733
 C1050 C 1.10320 0.71802 0.59174
 C1051 C 0.82823 0.43351 0.57373
 H1052 H 0.84895 0.44040 0.56596
 C1053 C 0.77468 0.41514 0.59433
 C1054 C 1.17160 0.56572 0.57471
 H1055 H 1.15171 0.55788 0.56575
 C1056 C 1.22185 0.58769 0.59972
 O1057 O 0.46676 0.89738 0.35855
 O1058 O 0.46488 0.86396 0.32528
 C1059 C 0.45628 0.88769 0.33541
 C1060 C 0.43311 0.90368 0.32077
 C1061 C 0.42080 0.89296 0.29554
 H1062 H 0.42952 0.87379 0.28586
 O1063 O 0.53271 1.10168 0.35763
 O1064 O 0.53473 1.13500 0.32425
 C1065 C 0.54330 1.11130 0.33453
 C1066 C 0.56646 1.09520 0.32007
 C1067 C 0.57850 1.10542 0.29449
 H1068 H 0.56971 1.12442 0.28450
 O1069 O 0.35620 0.97960 0.39662
 O1070 O 0.32277 0.98124 0.36336
 C1071 C 0.33238 0.97103 0.38666
 C1072 C 0.31612 0.94843 0.40193
 C1073 C 0.28965 0.93880 0.39134
 H1074 H 0.28132 0.94832 0.37200
 O1075 O 0.64308 1.02030 0.39763
 O1076 O 0.67629 1.01877 0.36419
 C1077 C 0.66664 1.02917 0.38739
 C1078 C 0.68237 1.05265 0.40191
 C1079 C 0.70788 1.06333 0.39014
 H1080 H 0.71692 1.05248 0.37190
 O1081 O 0.38876 0.86343 0.47206
 O1082 O 0.35372 0.83177 0.47216
 C1083 C 0.37744 0.84068 0.46232
 C1084 C 0.39164 0.82486 0.43881
 C1085 C 0.38005 0.79906 0.42853
 H1086 H 0.36171 0.79015 0.43934
 O1087 O 0.60982 1.13742 0.47228
 O1088 O 0.64476 1.16919 0.47200
 C1089 C 0.62105 1.16010 0.46225
 C1090 C 0.60683 1.17553 0.43845
 C1091 C 0.61830 1.20129 0.42793
 H1092 H 0.63643 1.21057 0.43883
 O1093 O 0.39821 1.03315 0.35693
 O1094 O 0.36495 1.03472 0.32351
 C1095 C 0.38872 1.04329 0.33354
 C1096 C 0.40526 1.06570 0.31830
 C1097 C 0.39652 1.07570 0.29133
 H1098 H 0.37768 1.06657 0.28137
 O1099 O 0.60129 0.96631 0.35826
 O1100 O 0.63444 0.96469 0.32475
 C1101 C 0.61074 0.95608 0.33492
 C1102 C 0.59430 0.93344 0.31992
 C1103 C 0.60336 0.92295 0.29326
 H1104 H 0.62228 0.93193 0.28333
 O1105 O 0.52048 0.85526 0.39776
 O1106 O 0.51885 0.82183 0.36450
 C1107 C 0.52909 0.83147 0.38777
 C1108 C 0.55178 0.81535 0.40303
 C1109 C 0.56134 0.78874 0.39271
 H1110 H 0.55172 0.78010 0.37355
 O1111 O 0.47867 1.14360 0.39641
 O1112 O 0.48037 1.17695 0.36304
 C1113 C 0.47004 1.16732 0.38629
 C1114 C 0.44729 1.18344 0.40140
 C1115 C 0.43775 1.20999 0.39090
 H1116 H 0.44740 1.21848 0.37170
 O1117 O 0.36270 1.11020 0.47256
 O1118 O 0.33095 1.14510 0.47240
 C1119 C 0.33988 1.12126 0.46281
 C1120 C 0.32401 1.10648 0.43966
 C1121 C 0.29725 1.11661 0.43039
 H1122 H 0.28840 1.13543 0.44048
 O1123 O 0.63706 0.88902 0.47205
 O1124 O 0.66870 0.85402 0.47221
 C1125 C 0.65971 0.87767 0.46223
 C1126 C 0.67525 0.89179 0.43846
 C1127 C 0.70104 0.88039 0.42806
 H1128 H 0.71024 0.86224 0.43898
 O1129 O 0.47696 1.10463 0.35694
 O1130 O 0.47890 1.13780 0.32341
 C1131 C 0.46793 1.11503 0.33350
 C1132 C 0.44402 1.10078 0.31826
 C1133 C 0.43497 1.11053 0.29128
 H1134 H 0.44579 1.12867 0.28187
 O1135 O 0.52250 0.89453 0.35857
 O1136 O 0.52072 0.86127 0.32514
 C1137 C 0.53166 0.88405 0.33524
 C1138 C 0.55566 0.89821 0.32010
 C1139 C 0.56508 0.88795 0.29347
 H1140 H 0.55448 0.86956 0.28435
 O1141 O 0.64082 0.96431 0.39711
 O1142 O 0.67410 0.96277 0.36372
 C1143 C 0.66353 0.95339 0.38693
 C1144 C 0.67719 0.92894 0.40178
 C1145 C 0.70295 0.91728 0.39165
 H1146 H 0.71366 0.92724 0.37367
 O1147 O 0.35966 1.03530 0.39681
 O1148 O 0.32619 1.03693 0.36358
 C1149 C 0.33679 1.04611 0.38689
 C1150 C 0.32267 1.06983 0.40244
 C1151 C 0.29600 1.08025 0.39345
 H1152 H 0.28568 1.07069 0.37503
 O1153 O 0.40378 1.14749 0.47217
 O1154 O 0.37220 1.18254 0.47198
 C1155 C 0.39486 1.17118 0.46221
 C1156 C 0.41058 1.18526 0.43852
 C1157 C 0.40138 1.21175 0.42772
 H1158 H 0.38294 1.22210 0.43719
 O1159 O 0.59567 0.85212 0.47295
 O1160 O 0.62719 0.81701 0.47332
 C1161 C 0.60446 0.82822 0.46345
 C1162 C 0.58858 0.81380 0.44010
 C1163 C 0.59781 0.78726 0.42949
 H1164 H 0.61638 0.77712 0.43893
 O1165 O 0.60411 1.02218 0.35833
 O1166 O 0.63731 1.02051 0.32487
 C1167 C 0.61467 1.03153 0.33509
 C1168 C 0.60120 1.05616 0.32036
 C1169 C 0.61281 1.06663 0.29471
 H1170 H 0.63007 1.05491 0.28486
 O1171 O 0.39580 0.97722 0.35803
 O1172 O 0.36243 0.97872 0.32472
 C1173 C 0.38506 0.96766 0.33498
 C1174 C 0.39835 0.94273 0.32059
 C1175 C 0.38638 0.93166 0.29535
 H1176 H 0.36890 0.94307 0.28547
 O1177 O 0.53445 1.14097 0.39657
 O1178 O 0.53623 1.17443 0.36331
 C1179 C 0.54546 1.16375 0.38656
 C1180 C 0.56983 1.17738 0.40159
 C1181 C 0.58161 1.20311 0.39141
 H1182 H 0.57175 1.21381 0.37337
 O1183 O 0.46470 0.85829 0.39765
 O1184 O 0.46298 0.82473 0.36450
 C1185 C 0.45363 0.83556 0.38761
 C1186 C 0.42900 0.82224 0.40246
 C1187 C 0.41711 0.79650 0.39244
 H1188 H 0.42699 0.78556 0.37457
 O1189 O 0.64699 1.09637 0.47274
 O1190 O 0.68201 1.12803 0.47250
 C1191 C 0.67063 1.10531 0.46273
 C1192 C 0.68435 1.08980 0.43869
 C1193 C 0.70980 1.10017 0.42651
 H1194 H 0.72029 1.11860 0.43590
 O1195 O 0.35195 0.90488 0.47255
 O1196 O 0.31683 0.87333 0.47272
 C1197 C 0.32816 0.89604 0.46285
 C1198 C 0.31404 0.91183 0.43924
 C1199 C 0.28763 0.90255 0.42835
 H1200 H 0.27727 0.88408 0.43781
 Cu1201 Cu 0.49384 0.87968 0.38148
 Cu1202 Cu 0.49174 0.83959 0.34151
 Cu1203 Cu 0.50546 1.11939 0.38022
 Cu1204 Cu 0.50771 1.15940 0.34016
 Cu1205 Cu 0.38084 1.00623 0.38039
 Cu1206 Cu 0.34079 1.00812 0.34040
 Cu1207 Cu 0.61901 0.99337 0.38120
 Cu1208 Cu 0.65889 0.99151 0.34105
 C1209 C 0.42175 0.92863 0.33310
 H1210 H 0.43071 0.93672 0.35289
 C1211 C 0.39669 0.90611 0.28315
 C1212 C 0.57797 1.07051 0.33282
 H1213 H 0.56925 1.06283 0.35287
 C1214 C 0.60236 1.09190 0.28203
 C1215 C 0.32787 0.93511 0.42616
 H1216 H 0.34847 0.94213 0.43417
 C1217 C 0.27478 0.91624 0.40478
 C1218 C 0.67083 1.06596 0.42626
 H1219 H 0.65085 1.05822 0.43509
 C1220 C 0.72130 1.08781 0.40158
 C1221 C 0.41616 0.83619 0.42571
 H1222 H 0.42491 0.85631 0.43325
 C1223 C 0.39214 0.78498 0.40477
 C1224 C 0.58256 1.16380 0.42518
 H1225 H 0.57391 1.14368 0.43286
 C1226 C 0.60642 1.21491 0.40379
 C1227 C 0.42930 1.07808 0.33133
 H1228 H 0.43598 1.07070 0.35227
 C1229 C 0.41166 1.09762 0.27712
 C1230 C 0.57014 0.92121 0.33292
 H1231 H 0.56320 0.92896 0.35362
 C1232 C 0.58855 0.90061 0.27939
 C1233 C 0.56523 0.82743 0.42703
 H1234 H 0.55826 0.84811 0.43485
 C1235 C 0.58395 0.77405 0.40624
 C1236 C 0.43385 1.17150 0.42549
 H1237 H 0.44083 1.15086 0.43346
 C1238 C 0.41517 1.22477 0.40432
 C1239 C 0.33628 1.08279 0.42584
 H1240 H 0.35702 1.07505 0.43269
 C1241 C 0.28257 1.10313 0.40774
 C1242 C 0.66358 0.91609 0.42523
 H1243 H 0.64347 0.92470 0.43286
 C1244 C 0.71480 0.89248 0.40407
 O1245 O 0.52176 0.89628 0.64296
 O1246 O 0.51974 0.86304 0.67643
 C1247 C 0.53083 0.88575 0.66631
 C1248 C 0.55507 0.89959 0.68135
 C1249 C 0.56450 0.88916 0.70791
 H1250 H 0.55353 0.87104 0.71714
 O1251 O 0.47779 1.10502 0.64275
 O1252 O 0.47956 1.13822 0.67626
 C1253 C 0.46864 1.11545 0.66611
 C1254 C 0.44464 1.10128 0.68124
 C1255 C 0.43549 1.11128 0.70806
 H1256 H 0.44630 1.12948 0.71735
 O1257 O 0.35873 1.03585 0.60386
 O1258 O 0.32544 1.03767 0.63722
 C1259 C 0.33601 1.04685 0.61393
 C1260 C 0.32231 1.07108 0.59877
 C1261 C 0.29621 1.08241 0.60837
 H1262 H 0.28534 1.07238 0.62622
 O1263 O 0.64095 0.96534 0.60326
 O1264 O 0.67447 0.96362 0.63641
 C1265 C 0.66394 0.95462 0.61301
 C1266 C 0.67817 0.93114 0.59715
 C1267 C 0.70521 0.92106 0.60552
 H1268 H 0.71587 0.93080 0.62365
 O1269 O 0.59637 0.85285 0.52886
 O1270 O 0.62813 0.81795 0.52936
 C1271 C 0.60554 0.82942 0.53920
 C1272 C 0.59037 0.81599 0.56360
 C1273 C 0.60116 0.79100 0.57637
 H1274 H 0.61985 0.78070 0.56733
 O1275 O 0.40415 1.14749 0.52807
 O1276 O 0.37264 1.18261 0.52795
 C1277 C 0.39533 1.17129 0.53780
 C1278 C 0.41118 1.18552 0.56132
 C1279 C 0.40204 1.21210 0.57193
 H1280 H 0.38352 1.22231 0.56248
 O1281 O 0.39504 0.97801 0.64290
 O1282 O 0.36190 0.97987 0.67641
 C1283 C 0.38442 0.96869 0.66612
 C1284 C 0.39771 0.94385 0.68065
 C1285 C 0.38603 0.93314 0.70618
 H1286 H 0.36881 0.94482 0.71617
 O1287 O 0.60419 1.02250 0.64280
 O1288 O 0.63730 1.02058 0.67636
 C1289 C 0.61463 1.03162 0.66618
 C1290 C 0.60067 1.05578 0.68123
 C1291 C 0.61089 1.06507 0.70792
 H1292 H 0.62900 1.05416 0.71719
 O1293 O 0.46482 0.85958 0.60302
 O1294 O 0.46308 0.82592 0.63608
 C1295 C 0.45409 0.83655 0.61272
 C1296 C 0.43052 0.82239 0.59696
 C1297 C 0.42018 0.79556 0.60570
 H1298 H 0.42987 0.78501 0.62392
 O1299 O 0.53525 1.14173 0.60355
 O1300 O 0.53690 1.17525 0.63673
 C1301 C 0.54600 1.16470 0.61340
 C1302 C 0.56956 1.17895 0.59769
 C1303 C 0.57959 1.20602 0.60611
 H1304 H 0.56983 1.21660 0.62425
 O1305 O 0.35226 0.90435 0.52855
 O1306 O 0.31734 0.87258 0.52879
 C1307 C 0.32875 0.89520 0.53870
 C1308 C 0.31514 0.91039 0.56297
 C1309 C 0.28986 0.89973 0.57523
 H1310 H 0.27942 0.88132 0.56573
 O1311 O 0.64688 1.09695 0.52876
 O1312 O 0.68178 1.12873 0.52869
 C1313 C 0.67043 1.10613 0.53876
 C1314 C 0.68413 1.09097 0.56305
 C1315 C 0.70955 1.10147 0.57519
 H1316 H 0.72004 1.11983 0.56564
 O1317 O 0.53351 1.10231 0.64267
 O1318 O 0.53537 1.13559 0.67608
 C1319 C 0.54382 1.11177 0.66597
 C1320 C 0.56621 1.09509 0.68108
 C1321 C 0.57666 1.10400 0.70782
 H1322 H 0.56794 1.12307 0.71770
 O1323 O 0.46590 0.89844 0.64269
 O1324 O 0.46387 0.86490 0.67585
 C1325 C 0.45530 0.88864 0.66574
 C1326 C 0.43217 0.90461 0.68039
 C1327 C 0.42013 0.89415 0.70589
 H1328 H 0.42888 0.87503 0.71566
 O1329 O 0.64330 1.02123 0.60386
 O1330 O 0.67652 1.01959 0.63731
 C1331 C 0.66679 1.03017 0.61422
 C1332 C 0.68233 1.05388 0.59990
 C1333 C 0.70780 1.06469 0.61167
 H1334 H 0.71694 1.05389 0.62993
 O1335 O 0.35609 0.97992 0.60382
 O1336 O 0.32290 0.98164 0.63728
 C1337 C 0.33255 0.97108 0.61416
 C1338 C 0.31695 0.94742 0.59983
 C1339 C 0.29166 0.93639 0.61179
 H1340 H 0.28263 0.94702 0.63019
 O1341 O 0.60992 1.13827 0.52805
 O1342 O 0.64469 1.17022 0.52775
 C1343 C 0.62093 1.16130 0.53750
 C1344 C 0.60613 1.17741 0.56046
 C1345 C 0.61587 1.20456 0.56912
 H1346 H 0.63448 1.21352 0.55876
 O1347 O 0.38951 0.86330 0.52773
 O1348 O 0.35469 0.83139 0.52780
 C1349 C 0.37857 0.84031 0.53730
 C1350 C 0.39356 0.82417 0.56011
 C1351 C 0.38349 0.79728 0.56914
 H1352 H 0.36456 0.78858 0.55915
 O1353 O 0.60173 0.96669 0.64268
 O1354 O 0.63503 0.96470 0.67604
 C1355 C 0.61122 0.95629 0.66595
 C1356 C 0.59455 0.93387 0.68106
 C1357 C 0.60360 0.92323 0.70769
 H1358 H 0.62277 0.93184 0.71748
 O1359 O 0.39826 1.03380 0.64280
 O1360 O 0.36515 1.03568 0.67633
 C1361 C 0.38893 1.04407 0.66616
 C1362 C 0.40566 1.06644 0.68124
 C1363 C 0.39687 1.07668 0.70808
 H1364 H 0.37789 1.06780 0.71799
 O1365 O 0.47953 1.14414 0.60354
 O1366 O 0.48108 1.17752 0.63686
 C1367 C 0.47081 1.16785 0.61360
 C1368 C 0.44801 1.18390 0.59839
 C1369 C 0.43854 1.21056 0.60867
 H1370 H 0.44824 1.21924 0.62778
 O1371 O 0.52059 0.85714 0.60392
 O1372 O 0.51883 0.82384 0.63735
 C1373 C 0.52945 0.83360 0.61430
 C1374 C 0.55316 0.81802 0.60017
 C1375 C 0.56419 0.79292 0.61251
 H1376 H 0.55345 0.78409 0.63092
 O1377 O 0.63729 0.89020 0.52774
 O1378 O 0.66919 0.85542 0.52789
 C1379 C 0.66027 0.87933 0.53732
 C1380 C 0.67640 0.89439 0.56007
 C1381 C 0.70344 0.88457 0.56874
 H1382 H 0.71219 0.86578 0.55852
 O1383 O 0.36260 1.11079 0.52836
 O1384 O 0.33096 1.14580 0.52820
 C1385 C 0.33989 1.12210 0.53811
 C1386 C 0.32422 1.10791 0.56175
 C1387 C 0.29808 1.11896 0.57163
 H1388 H 0.28872 1.13683 0.56037
 Cu1389 Cu 0.49338 0.88123 0.61983
 Cu1390 Cu 0.49113 0.84107 0.65977
 Cu1391 Cu 0.50640 1.11997 0.61980
 Cu1392 Cu 0.50843 1.15999 0.65984
 Cu1393 Cu 0.37408 0.88721 0.50021
 Cu1394 Cu 0.33205 0.84917 0.50039
 Cu1395 Cu 0.61339 0.87452 0.50036
 Cu1396 Cu 0.65142 0.83252 0.50073
 Cu1397 Cu 0.38647 1.12549 0.50029
 Cu1398 Cu 0.34856 1.16757 0.50010
 Cu1399 Cu 0.62495 1.11405 0.50052
 Cu1400 Cu 0.66689 1.15215 0.50022
 Cu1401 Cu 0.38033 1.00681 0.61997
 Cu1402 Cu 0.34049 1.00899 0.66015
 Cu1403 Cu 0.61923 0.99399 0.61980
 Cu1404 Cu 0.65919 0.99184 0.65986
 C1405 C 0.56998 0.92220 0.66832
 H1406 H 0.56303 0.93005 0.64765
 C1407 C 0.58841 0.90124 0.72174
 C1408 C 0.42986 1.07856 0.66824
 H1409 H 0.43659 1.07101 0.64739
 C1410 C 0.41202 1.09866 0.72214
 C1411 C 0.33608 1.08394 0.57540
 H1412 H 0.35645 1.07560 0.56817
 C1413 C 0.28413 1.10686 0.59550
 C1414 C 0.66419 0.91797 0.57408
 H1415 H 0.64319 0.92541 0.56769
 C1416 C 0.71855 0.89829 0.59093
 C1417 C 0.56632 0.82933 0.57566
 H1418 H 0.55824 0.84899 0.56636
 C1419 C 0.58890 0.77972 0.60146
 C1420 C 0.43448 1.17182 0.57441
 H1421 H 0.44140 1.15111 0.56659
 C1422 C 0.41598 1.22531 0.59514
 C1423 C 0.42082 0.92950 0.66798
 H1424 H 0.42958 0.93737 0.64803
 C1425 C 0.39635 0.90765 0.71854
 C1426 C 0.57807 1.07067 0.66820
 H1427 H 0.57037 1.06382 0.64744
 C1428 C 0.59859 1.08879 0.72188
 C1429 C 0.41737 0.83629 0.57384
 H1430 H 0.42503 0.85717 0.56721
 C1431 C 0.39714 0.78231 0.59149
 C1432 C 0.58269 1.16506 0.57458
 H1433 H 0.57524 1.14403 0.56817
 C1434 C 0.60216 1.21959 0.59142
 C1435 C 0.32848 0.93430 0.57538
 H1436 H 0.34829 0.94229 0.56640
 C1437 C 0.27838 0.91186 0.60028
 C1438 C 0.67072 1.06713 0.57555
 H1439 H 0.65080 1.05924 0.56669
 C1440 C 0.72115 1.08917 0.60014
 O1441 O 0.46733 0.39788 0.85753
 O1442 O 0.46542 0.36467 0.82405
 C1443 C 0.45700 0.38846 0.83423
 C1444 C 0.43457 0.40511 0.81924
 C1445 C 0.42426 0.39628 0.79245
 H1446 H 0.43317 0.37733 0.78249
 O1447 O 0.53431 0.60141 0.85904
 O1448 O 0.53626 0.63470 0.82563
 C1449 C 0.54484 0.61101 0.83589
 C1450 C 0.56801 0.59499 0.82135
 C1451 C 0.58027 0.60557 0.79603
 H1452 H 0.57159 0.62473 0.78626
 O1453 O 0.35689 0.47836 0.89731
 O1454 O 0.32356 0.48028 0.86398
 C1455 C 0.33320 0.46973 0.88713
 C1456 C 0.31714 0.44667 0.90195
 C1457 C 0.29068 0.43714 0.89127
 H1458 H 0.28224 0.44704 0.87218
 O1459 O 0.64458 0.51906 0.89784
 O1460 O 0.67798 0.51743 0.86459
 C1461 C 0.66834 0.52770 0.88784
 C1462 C 0.68445 0.55055 0.90292
 C1463 C 0.71069 0.56043 0.89205
 H1464 H 0.71898 0.55085 0.87274
 O1465 O 0.39035 0.36126 0.97216
 O1466 O 0.35556 0.32933 0.97201
 C1467 C 0.37933 0.33838 0.96239
 C1468 C 0.39416 0.32252 0.93929
 C1469 C 0.38440 0.29545 0.93043
 H1470 H 0.36575 0.28644 0.94069
 O1471 O 0.61159 0.63650 0.97280
 O1472 O 0.64672 0.66804 0.97290
 C1473 C 0.62295 0.65924 0.96306
 C1474 C 0.60868 0.67506 0.93953
 C1475 C 0.61981 0.70119 0.92949
 H1476 H 0.63792 0.71038 0.94049
 O1477 O 0.39879 0.53277 0.85864
 O1478 O 0.36548 0.53485 0.82529
 C1479 C 0.38919 0.54340 0.83553
 C1480 C 0.40533 0.56655 0.82096
 C1481 C 0.39511 0.57855 0.79535
 H1482 H 0.37609 0.56976 0.78545
 O1483 O 0.60246 0.46568 0.85800
 O1484 O 0.63568 0.46418 0.82455
 C1485 C 0.61189 0.45563 0.83457
 C1486 C 0.59530 0.43332 0.81925
 C1487 C 0.60416 0.42330 0.79235
 H1488 H 0.62312 0.43235 0.78253
 O1489 O 0.52087 0.35566 0.89665
 O1490 O 0.51928 0.32237 0.86324
 C1491 C 0.52943 0.33190 0.88660
 C1492 C 0.55187 0.31560 0.90198
 C1493 C 0.56128 0.28896 0.89164
 H1494 H 0.55180 0.28050 0.87233
 O1495 O 0.48027 0.64349 0.89783
 O1496 O 0.48195 0.67667 0.86429
 C1497 C 0.47147 0.66706 0.88746
 C1498 C 0.44797 0.68278 0.90183
 C1499 C 0.43689 0.70800 0.88973
 H1500 H 0.44743 0.71687 0.87122
 O1501 O 0.36429 0.60979 0.97318
 O1502 O 0.33265 0.64480 0.97317
 C1503 C 0.34156 0.62101 0.96342
 C1504 C 0.32584 0.60675 0.93987
 C1505 C 0.30015 0.61840 0.92954
 H1506 H 0.29118 0.63658 0.94056
 O1507 O 0.63705 0.38801 0.97238
 O1508 O 0.66843 0.35276 0.97243
 C1509 C 0.65966 0.37655 0.96258
 C1510 C 0.67537 0.39062 0.93892
 C1511 C 0.70113 0.37906 0.92862
 H1512 H 0.71016 0.36086 0.93960
 O1513 O 0.47844 0.60411 0.85895
 O1514 O 0.48037 0.63725 0.82539
 C1515 C 0.46921 0.61465 0.83566
 C1516 C 0.44451 0.60120 0.82099
 C1517 C 0.43402 0.61280 0.79532
 H1518 H 0.44577 0.63004 0.78540
 O1519 O 0.52306 0.39467 0.85728
 O1520 O 0.52124 0.36157 0.82369
 C1521 C 0.53225 0.38426 0.83392
 C1522 C 0.55635 0.39842 0.81890
 C1523 C 0.56556 0.38866 0.79199
 H1524 H 0.55472 0.37059 0.78249
 O1525 O 0.64146 0.46319 0.89735
 O1526 O 0.67481 0.46153 0.86405
 C1527 C 0.66412 0.45215 0.88721
 C1528 C 0.67757 0.42762 0.90211
 C1529 C 0.70328 0.41578 0.89208
 H1530 H 0.71405 0.42557 0.87403
 O1531 O 0.35969 0.53429 0.89780
 O1532 O 0.32626 0.53628 0.86456
 C1533 C 0.33699 0.54541 0.88783
 C1534 C 0.32355 0.56983 0.90296
 C1535 C 0.29795 0.58189 0.89285
 H1536 H 0.28722 0.57232 0.87466
 O1537 O 0.40503 0.64738 0.97302
 O1538 O 0.37346 0.68244 0.97306
 C1539 C 0.39600 0.67103 0.96307
 C1540 C 0.41116 0.68475 0.93883
 C1541 C 0.40040 0.70993 0.92640
 H1542 H 0.38191 0.72028 0.93576
 O1543 O 0.59533 0.35147 0.97272
 O1544 O 0.62662 0.31615 0.97287
 C1545 C 0.60402 0.32761 0.96303
 C1546 C 0.58820 0.31351 0.93946
 C1547 C 0.59729 0.28694 0.92882
 H1548 H 0.61566 0.27657 0.93839
 O1549 O 0.60531 0.52153 0.85890
 O1550 O 0.63866 0.52002 0.82559
 C1551 C 0.61603 0.53106 0.83583
 C1552 C 0.60271 0.55593 0.82134
 C1553 C 0.61458 0.56679 0.79598
 H1554 H 0.63197 0.55524 0.78613
 O1555 O 0.39600 0.47694 0.85807
 O1556 O 0.36282 0.47896 0.82459
 C1557 C 0.38556 0.46795 0.83464
 C1558 C 0.39968 0.44401 0.81937
 C1559 C 0.38962 0.43483 0.79256
 H1560 H 0.37143 0.44564 0.78330
 O1561 O 0.53613 0.64080 0.89802
 O1562 O 0.53783 0.67420 0.86470
 C1563 C 0.54709 0.66358 0.88794
 C1564 C 0.57145 0.67724 0.90296
 C1565 C 0.58282 0.70333 0.89324
 H1566 H 0.57271 0.71427 0.87548
 O1567 O 0.46525 0.35833 0.89642
 O1568 O 0.46357 0.32488 0.86316
 C1569 C 0.45444 0.33542 0.88649
 C1570 C 0.43081 0.32118 0.90212
 C1571 C 0.42074 0.29418 0.89353
 H1572 H 0.43049 0.28368 0.87532
 O1573 O 0.64827 0.59480 0.97300
 O1574 O 0.68352 0.62620 0.97318
 C1575 C 0.67212 0.60353 0.96332
 C1576 C 0.68625 0.58762 0.93977
 C1577 C 0.71248 0.59712 0.92860
 H1578 H 0.72265 0.61585 0.93775
 O1579 O 0.35312 0.40231 0.97209
 O1580 O 0.31813 0.37061 0.97185
 C1581 C 0.32943 0.39340 0.96214
 C1582 C 0.31534 0.40935 0.93858
 C1583 C 0.28891 0.40018 0.92760
 H1584 H 0.27858 0.38157 0.93682
 Cu1585 Cu 0.49429 0.37998 0.88028
 Cu1586 Cu 0.49217 0.34005 0.84015
 Cu1587 Cu 0.50714 0.61913 0.88182
 Cu1588 Cu 0.50931 0.65903 0.84163
 Cu1589 Cu 0.38115 0.50537 0.88130
 Cu1590 Cu 0.34117 0.50777 0.84128
 Cu1591 Cu 0.62012 0.49246 0.88137
 Cu1592 Cu 0.66013 0.49061 0.84135
 C1593 C 0.42244 0.42928 0.83229
 H1594 H 0.43005 0.43602 0.85312
 C1595 C 0.40222 0.41134 0.77846
 C1596 C 0.57938 0.57011 0.83382
 H1597 H 0.57047 0.56214 0.85368
 C1598 C 0.60427 0.59227 0.78362
 C1599 C 0.32905 0.43291 0.92588
 H1600 H 0.34962 0.43989 0.93397
 C1601 C 0.27593 0.41427 0.90433
 C1602 C 0.67265 0.56400 0.92707
 H1603 H 0.65220 0.55681 0.93527
 C1604 C 0.72532 0.58337 0.90507
 C1605 C 0.41765 0.33495 0.92530
 H1606 H 0.42512 0.35592 0.93186
 C1607 C 0.39810 0.28057 0.90807
 C1608 C 0.58447 0.66336 0.92617
 H1609 H 0.57607 0.64301 0.93349
 C1610 C 0.60747 0.71530 0.90581
 C1611 C 0.43008 0.57802 0.83358
 H1612 H 0.43776 0.56932 0.85364
 C1613 C 0.40870 0.60235 0.78274
 C1614 C 0.57110 0.42103 0.83210
 H1615 H 0.56432 0.42843 0.85299
 C1616 C 0.58905 0.40147 0.77802
 C1617 C 0.56515 0.32744 0.92620
 H1618 H 0.55830 0.34815 0.93404
 C1619 C 0.58357 0.27399 0.90535
 C1620 C 0.43502 0.67139 0.92643
 H1621 H 0.44306 0.65163 0.93551
 C1622 C 0.41240 0.72131 0.90122
 C1623 C 0.33728 0.58239 0.92654
 H1624 H 0.35734 0.57359 0.93412
 C1625 C 0.28635 0.60670 0.90544
 C1626 C 0.66386 0.41494 0.92560
 H1627 H 0.64378 0.42367 0.93316
 C1628 C 0.71501 0.39101 0.90465
 O1629 O 0.52166 0.39453 1.14368
 O1630 O 0.51971 0.36128 1.17714
 C1631 C 0.53073 0.38402 1.16705
 C1632 C 0.55493 0.39792 1.18210
 C1633 C 0.56455 0.38741 1.20858
 H1634 H 0.55375 0.36919 1.21785
 O1635 O 0.47813 0.60304 1.14279
 O1636 O 0.47992 0.63610 1.17643
 C1637 C 0.46871 0.61360 1.16599
 C1638 C 0.44378 0.60024 1.18039
 C1639 C 0.43294 0.61197 1.20583
 H1640 H 0.44448 0.62933 1.21584
 O1641 O 0.35879 0.53415 1.10352
 O1642 O 0.32522 0.53587 1.13661
 C1643 C 0.33606 0.54521 1.11351
 C1644 C 0.32271 0.56980 1.09857
 C1645 C 0.29697 0.58167 1.10854
 H1646 H 0.28605 0.57179 1.12644
 O1647 O 0.64093 0.46316 1.10407
 O1648 O 0.67434 0.46125 1.13733
 C1649 C 0.66370 0.45216 1.11402
 C1650 C 0.67736 0.42802 1.09872
 C1651 C 0.70322 0.41631 1.10852
 H1652 H 0.71395 0.42593 1.12668
 O1653 O 0.59580 0.35160 1.02867
 O1654 O 0.62724 0.31640 1.02883
 C1655 C 0.60476 0.32798 1.03877
 C1656 C 0.58958 0.31445 1.06310
 C1657 C 0.60020 0.28918 1.07544
 H1658 H 0.61856 0.27868 1.06599
 O1659 O 0.40531 0.64705 1.02904
 O1660 O 0.37369 0.68208 1.02917
 C1661 C 0.39629 0.67065 1.03908
 C1662 C 0.41155 0.68423 1.06334
 C1663 C 0.40072 0.70919 1.07612
 H1664 H 0.38204 0.71950 1.06706
 O1665 O 0.39467 0.47609 1.14273
 O1666 O 0.36126 0.47787 1.17596
 C1667 C 0.38389 0.46675 1.16588
 C1668 C 0.39726 0.44204 1.18060
 C1669 C 0.38588 0.43159 1.20639
 H1670 H 0.36861 0.44322 1.21638
 O1671 O 0.60465 0.52058 1.14357
 O1672 O 0.63777 0.51859 1.17713
 C1673 C 0.61508 0.52960 1.16700
 C1674 C 0.60100 0.55358 1.18218
 C1675 C 0.61107 0.56282 1.20896
 H1676 H 0.62922 0.55200 1.21826
 O1677 O 0.46471 0.35782 1.10374
 O1678 O 0.46308 0.32414 1.13679
 C1679 C 0.45404 0.33475 1.11345
 C1680 C 0.43059 0.32046 1.09765
 C1681 C 0.42075 0.29333 1.10603
 H1682 H 0.43060 0.28277 1.12416
 O1683 O 0.53641 0.63947 1.10434
 O1684 O 0.53817 0.67266 1.13784
 C1685 C 0.54741 0.66217 1.11453
 C1686 C 0.57165 0.67602 1.09946
 C1687 C 0.58298 0.70210 1.10925
 H1688 H 0.57302 0.71282 1.12721
 O1689 O 0.35315 0.40233 1.02795
 O1690 O 0.31816 0.37064 1.02789
 C1691 C 0.32940 0.39342 1.03769
 C1692 C 0.31509 0.40940 1.06106
 C1693 C 0.28838 0.40047 1.07150
 H1694 H 0.27810 0.38194 1.06210
 O1695 O 0.64798 0.59499 1.02895
 O1696 O 0.68313 0.62651 1.02926
 C1697 C 0.67155 0.60394 1.03914
 C1698 C 0.68496 0.58863 1.06348
 C1699 C 0.70996 0.59939 1.07625
 H1700 H 0.72032 0.61807 1.06718
 O1701 O 0.53391 0.60003 1.14345
 O1702 O 0.53568 0.63309 1.17709
 C1703 C 0.54405 0.60931 1.16691
 C1704 C 0.56628 0.59258 1.18208
 C1705 C 0.57656 0.60148 1.20887
 H1706 H 0.56772 0.62050 1.21873
 O1707 O 0.46585 0.39696 1.14304
 O1708 O 0.46387 0.36344 1.17623
 C1709 C 0.45527 0.38717 1.16609
 C1710 C 0.43211 0.40313 1.18067
 C1711 C 0.42048 0.39302 1.20647
 H1712 H 0.42967 0.37427 1.21654
 O1713 O 0.64344 0.51910 1.10417
 O1714 O 0.67663 0.51728 1.13765
 C1715 C 0.66698 0.52788 1.11452
 C1716 C 0.68271 0.55149 1.10025
 C1717 C 0.70781 0.56253 1.11258
 H1718 H 0.71652 0.55184 1.13107
 O1719 O 0.35626 0.47824 1.10291
 O1720 O 0.32272 0.47993 1.13602
 C1721 C 0.33249 0.46959 1.11284
 C1722 C 0.31651 0.44671 1.09768
 C1723 C 0.28975 0.43745 1.10780
 H1724 H 0.28099 0.44741 1.12671
 O1725 O 0.61121 0.63630 1.02866
 O1726 O 0.64626 0.66794 1.02879
 C1727 C 0.62251 0.65900 1.03855
 C1728 C 0.60830 0.67453 1.06228
 C1729 C 0.61935 0.70065 1.07236
 H1730 H 0.63715 0.71015 1.06114
 O1731 O 0.39005 0.36088 1.02790
 O1732 O 0.35526 0.32895 1.02778
 C1733 C 0.37903 0.33792 1.03750
 C1734 C 0.39389 0.32189 1.06051
 C1735 C 0.38437 0.29463 1.06913
 H1736 H 0.36582 0.28553 1.05875
 O1737 O 0.60160 0.46491 1.14319
 O1738 O 0.63486 0.46292 1.17660
 C1739 C 0.61103 0.45457 1.16651
 C1740 C 0.59434 0.43225 1.18168
 C1741 C 0.60361 0.42152 1.20817
 H1742 H 0.62293 0.43000 1.21777
 O1743 O 0.39823 0.53195 1.14232
 O1744 O 0.36479 0.53384 1.17553
 C1745 C 0.38857 0.54242 1.16545
 C1746 C 0.40464 0.56553 1.18014
 C1747 C 0.39413 0.57762 1.20556
 H1748 H 0.37508 0.56875 1.21533
 O1749 O 0.48061 0.64253 1.10411
 O1750 O 0.48236 0.67560 1.13774
 C1751 C 0.47194 0.66612 1.11448
 C1752 C 0.44857 0.68201 1.10012
 C1753 C 0.43751 0.70707 1.11248
 H1754 H 0.44813 0.71576 1.13102
 O1755 O 0.52046 0.35571 1.10427
 O1756 O 0.51885 0.32238 1.13767
 C1757 C 0.52935 0.33216 1.11457
 C1758 C 0.55287 0.31655 1.10016
 C1759 C 0.56381 0.29124 1.11217
 H1760 H 0.55323 0.28231 1.13063
 O1761 O 0.63698 0.38861 1.02815
 O1762 O 0.66847 0.35346 1.02817
 C1763 C 0.65968 0.37729 1.03790
 C1764 C 0.67541 0.39148 1.06145
 C1765 C 0.70134 0.38011 1.07148
 H1766 H 0.71053 0.36218 1.06023
 O1767 O 0.36388 0.61016 1.02892
 O1768 O 0.33223 0.64516 1.02884
 C1769 C 0.34110 0.62138 1.03860
 C1770 C 0.32524 0.60705 1.06202
 C1771 C 0.29943 0.61857 1.07222
 H1772 H 0.29045 0.63681 1.06126
 Cu1773 Cu 0.49330 0.37963 1.12037
 Cu1774 Cu 0.49115 0.33945 1.16031
 Cu1775 Cu 0.50719 0.61796 1.12030
 Cu1776 Cu 0.50928 0.65769 1.16064
 Cu1777 Cu 0.37514 0.38487 1.00006
 Cu1778 Cu 0.33322 0.34675 0.99988
 Cu1779 Cu 0.61312 0.37344 1.00044
 Cu1780 Cu 0.65080 0.33111 1.00056
 Cu1781 Cu 0.38786 0.62514 1.00106
 Cu1782 Cu 0.34990 0.66720 1.00105
 Cu1783 Cu 0.62626 0.61250 1.00078
 Cu1784 Cu 0.66848 0.65028 1.00100
 Cu1785 Cu 0.38033 0.50493 1.11956
 Cu1786 Cu 0.34016 0.50705 1.15937
 Cu1787 Cu 0.61935 0.49206 1.12037
 Cu1788 Cu 0.65931 0.48976 1.16047
 C1789 C 0.56970 0.42063 1.16908
 H1790 H 0.56263 0.42854 1.14847
 C1791 C 0.58857 0.39947 1.22225
 C1792 C 0.42951 0.57698 1.16774
 H1793 H 0.43743 0.56819 1.14783
 C1794 C 0.40746 0.60158 1.21811
 C1795 C 0.33663 0.58262 1.07526
 H1796 H 0.35676 0.57392 1.06778
 C1797 C 0.28542 0.60658 1.09608
 C1798 C 0.66369 0.41550 1.07510
 H1799 H 0.64345 0.42406 1.06775
 C1800 C 0.71515 0.39184 1.09558
 C1801 C 0.56585 0.32796 1.07559
 H1802 H 0.55791 0.34779 1.06657
 C1803 C 0.58820 0.27787 1.10063
 C1804 C 0.43555 0.67085 1.07547
 H1805 H 0.44361 0.65119 1.06619
 C1806 C 0.41285 0.72033 1.10135
 C1807 C 0.42039 0.42769 1.16796
 H1808 H 0.42892 0.43533 1.14781
 C1809 C 0.39668 0.40646 1.21912
 C1810 C 0.57832 0.56832 1.16916
 H1811 H 0.57073 0.56153 1.14834
 C1812 C 0.59854 0.58641 1.22294
 C1813 C 0.41731 0.33435 1.07460
 H1814 H 0.42462 0.35544 1.06824
 C1815 C 0.39825 0.27965 1.09138
 C1816 C 0.58441 0.66247 1.07592
 H1817 H 0.57608 0.64211 1.06855
 C1818 C 0.60734 0.71439 1.09640
 C1819 C 0.32876 0.43285 1.07401
 H1820 H 0.34954 0.43963 1.06632
 C1821 C 0.27503 0.41478 1.09440
 C1822 C 0.67151 0.56461 1.07564
 H1823 H 0.65184 0.55657 1.06637
 C1824 C 0.72111 0.58719 1.10142
 C1825 C 1.13865 1.12829 1.29181
 C1826 C 1.13110 1.15028 1.26829
 C1827 C 1.12019 1.13849 1.24402
 C1828 C 1.11769 1.10560 1.24492
 C1829 C 1.14847 1.09591 1.25202
 C1830 C 1.15939 1.10768 1.27632
 C1831 C 1.11114 1.11078 1.29626
 C1832 C 1.10029 1.09907 1.27196
 H1833 H 1.13537 1.17309 1.26996
 H1834 H 1.11533 1.15136 1.22529
 H1835 H 1.16223 1.08424 1.23746
 H1836 H 1.18197 1.10552 1.28106
 H1837 H 1.10108 1.10768 1.31697
 H1838 H 1.08103 1.08606 1.27200
 C1839 C 1.13851 0.62883 0.78990
 C1840 C 1.15874 0.60732 0.77510
 C1841 C 1.14758 0.59516 0.75111
 C1842 C 1.11702 0.60533 0.74375
 C1843 C 1.09951 0.59993 0.77099
 C1844 C 1.11067 0.61209 0.79494
 C1845 C 1.13134 0.65033 0.76593
 C1846 C 1.12020 0.63814 0.74196
 H1847 H 1.18113 0.60444 0.78025
 H1848 H 1.16107 0.58263 0.73702
 H1849 H 1.07997 0.58735 0.77141
 H1850 H 1.10064 0.60985 0.81576
 H1851 H 1.13581 0.67311 0.76721
 H1852 H 1.11540 0.65064 0.72298
 C1853 C 0.62916 1.12231 0.79813
 C1854 C 0.59622 1.11971 0.79655
 C1855 C 0.58633 1.10820 0.77169
 C1856 C 0.61000 1.09992 0.75037
 C1857 C 0.62780 1.12725 0.74635
 C1858 C 0.63773 1.13885 0.77106
 C1859 C 0.63924 1.09126 0.79280
 C1860 C 0.62933 1.07964 0.76796
 H1861 H 0.58190 1.12475 0.81412
 H1862 H 0.56378 1.10383 0.76826
 H1863 H 0.63240 1.13665 0.72560
 H1864 H 0.65074 1.15813 0.77129
 H1865 H 0.65014 1.07813 0.80854
 H1866 H 0.63214 1.05702 0.76364
 C1867 C 0.62884 0.62063 1.29887
 C1868 C 0.59598 0.61803 1.29733
 C1869 C 0.58614 0.60619 1.27261
 C1870 C 0.60986 0.59778 1.25135
 C1871 C 0.62756 0.62515 1.24710
 C1872 C 0.63738 0.63700 1.27172
 C1873 C 0.63912 0.58965 1.29382
 C1874 C 0.62927 0.57773 1.26910
 H1875 H 0.58171 0.62348 1.31480
 H1876 H 0.56358 0.60181 1.26917
 H1877 H 0.63214 0.63440 1.22628
 H1878 H 0.65030 0.65634 1.27188
 H1879 H 0.65034 0.57687 1.30962
 H1880 H 0.63237 0.55514 1.26483
 C1881 C 0.86792 0.87567 1.29592
 C1882 C 0.86061 0.85968 1.26815
 C1883 C 0.87123 0.87200 1.24411
 C1884 C 0.88844 0.89947 1.24941
 C1885 C 0.86817 0.91904 1.26669
 C1886 C 0.85753 0.90670 1.29089
 C1887 C 0.90083 0.87880 1.29564
 C1888 C 0.91145 0.89104 1.27142
 H1889 H 0.84786 0.84023 1.26743
 H1890 H 0.86752 0.86304 1.22300
 H1891 H 0.86525 0.94173 1.26278
 H1892 H 0.84608 0.91944 1.30652
 H1893 H 0.91455 0.87344 1.31360
 H1894 H 0.93405 0.89578 1.26891
 C1895 C 0.86311 0.37105 0.79093
 C1896 C 0.89041 0.38884 0.79535
 C1897 C 0.90122 0.40044 0.77097
 C1898 C 0.88395 0.39347 0.74394
 C1899 C 0.88179 0.36053 0.74340
 C1900 C 0.87099 0.34890 0.76781
 C1901 C 0.84225 0.39134 0.77528
 C1902 C 0.85307 0.40294 0.75085
 H1903 H 0.90034 0.39218 0.81608
 H1904 H 0.92036 0.41363 0.77094
 H1905 H 0.88692 0.34749 0.72489
 H1906 H 0.86715 0.32606 0.76993
 H1907 H 0.81976 0.39370 0.78026
 H1908 H 0.83929 0.41455 0.73626
 C1909 C 0.36223 0.87206 0.79232
 C1910 C 0.39011 0.88896 0.79657
 C1911 C 0.40082 0.90072 0.77222
 C1912 C 0.38288 0.89478 0.74538
 C1913 C 0.37976 0.86193 0.74426
 C1914 C 0.36906 0.85015 0.76864
 C1915 C 0.34170 0.89324 0.77743
 C1916 C 0.35242 0.90500 0.75304
 H1917 H 0.40050 0.89160 0.81718
 H1918 H 0.42034 0.91335 0.77209
 H1919 H 0.38426 0.84911 0.72543
 H1920 H 0.36464 0.82738 0.77041
 H1921 H 0.31937 0.89610 0.78287
 H1922 H 0.33869 0.91725 0.73893
 C1923 C 0.36447 0.37277 1.29469
 C1924 C 0.34298 0.39242 1.27887
 C1925 C 0.35315 0.40353 1.25394
 C1926 C 0.38392 0.39417 1.24656
 C1927 C 0.40177 0.40199 1.27294
 C1928 C 0.39171 0.39096 1.29788
 C1929 C 0.37192 0.35009 1.27185
 C1930 C 0.38204 0.36120 1.24690
 H1931 H 0.32045 0.39428 1.28393
 H1932 H 0.33891 0.41446 1.23924
 H1933 H 0.42077 0.41536 1.27208
 H1934 H 0.40218 0.39498 1.31823
 H1935 H 0.36806 0.32730 1.27442
 H1936 H 0.38662 0.34776 1.22853
 C1937 C 0.87703 1.12956 0.70142
 C1938 C 0.86122 1.13848 0.72880
 C1939 C 0.87304 1.12834 0.75330
 C1940 C 0.89987 1.10998 0.74881
 C1941 C 0.89069 1.08643 0.72763
 C1942 C 0.87892 1.09656 0.70297
 C1943 C 0.90839 1.13901 0.70623
 C1944 C 0.92021 1.12889 0.73089
 H1945 H 0.84225 1.15190 0.72891
 H1946 H 0.86415 1.13314 0.77421
 H1947 H 0.89464 1.06377 0.73097
 H1948 H 0.87314 1.08235 0.68551
 H1949 H 0.92161 1.14941 0.69024
 H1950 H 0.94293 1.13118 0.73489
 C1951 C 0.87054 0.63855 0.20996
 C1952 C 0.89198 0.65888 0.22496
 C1953 C 0.90445 0.64751 0.24869
 C1954 C 0.89458 0.61674 0.25575
 C1955 C 0.86182 0.61963 0.25784
 C1956 C 0.84935 0.63095 0.23412
 C1957 C 0.88750 0.61088 0.20455
 C1958 C 0.89990 0.59957 0.22830
 H1959 H 0.89438 0.68151 0.22044
 H1960 H 0.91685 0.66096 0.26296
 H1961 H 0.84957 0.61466 0.27693
 H1962 H 0.82657 0.63541 0.23323
 H1963 H 0.88974 0.60105 0.18362
 H1964 H 0.91265 0.58015 0.22757
 C1965 C 0.37947 1.12650 0.19955
 C1966 C 0.41066 1.13610 0.20499
 C1967 C 0.42177 1.12671 0.23026
 C1968 C 0.40092 1.10833 0.24816
 C1969 C 0.37397 1.12681 0.25132
 C1970 C 0.36286 1.13622 0.22617
 C1971 C 0.38129 1.09355 0.20215
 C1972 C 0.39234 1.08417 0.22743
 H1973 H 0.42423 1.14623 0.18911
 H1974 H 0.44435 1.12923 0.23486
 H1975 H 0.36446 1.13219 0.27181
 H1976 H 0.34389 1.14961 0.22531
 H1977 H 0.37602 1.07881 0.18498
 H1978 H 0.39618 1.06161 0.23155
 C1979 C 0.37335 0.63619 0.70871
 C1980 C 0.39489 0.65664 0.72324
 C1981 C 0.40661 0.64603 0.74770
 C1982 C 0.39599 0.61575 0.75579
 C1983 C 0.36324 0.61931 0.75703
 C1984 C 0.35150 0.62991 0.73258
 C1985 C 0.38980 0.60801 0.70471
 C1986 C 0.40151 0.59741 0.72913
 H1987 H 0.39808 0.67889 0.71751
 H1988 H 0.41911 0.65980 0.76156
 H1989 H 0.35047 0.61512 0.77596
 H1990 H 0.32882 0.63457 0.73086
 H1991 H 0.39217 0.59735 0.68422
 H1992 H 0.41385 0.57772 0.72943
 C1993 C 1.12305 0.86974 0.70319
 C1994 C 1.09196 0.85978 0.70817
 C1995 C 1.08005 0.87002 0.73271
 C1996 C 1.10017 0.88942 0.75041
 C1997 C 1.12728 0.87148 0.75500
 C1998 C 1.13913 0.86129 0.73053
 C1999 C 1.12080 0.90268 0.70440
 C2000 C 1.10897 0.91289 0.72898
 H2001 H 1.07903 0.84873 0.69240
 H2002 H 1.05739 0.86732 0.73676
 H2003 H 1.13634 0.86700 0.77591
 H2004 H 1.15829 0.84815 0.73063
 H2005 H 1.12661 0.91674 0.68684
 H2006 H 1.10492 0.93555 0.73220
 C2007 C 1.12132 0.37223 0.19987
 C2008 C 1.09007 0.36282 0.20529
 C2009 C 1.07900 0.37232 0.23052
 C2010 C 1.09995 0.39062 0.24841
 C2011 C 1.12679 0.37199 0.25164
 C2012 C 1.13786 0.36246 0.22653
 C2013 C 1.11968 0.40520 0.20240
 C2014 C 1.10868 0.41469 0.22763
 H2015 H 1.07646 0.35273 0.18942
 H2016 H 1.05640 0.36995 0.23507
 H2017 H 1.13626 0.36658 0.27216
 H2018 H 1.15675 0.34896 0.22573
 H2019 H 1.12503 0.41988 0.18519
 H2020 H 1.10498 0.43728 0.23170
 C2021 C 0.62266 0.86993 0.20357
 C2022 C 0.59182 0.85944 0.20883
 C2023 C 0.57996 0.86942 0.23351
 C2024 C 0.59992 0.88915 0.25103
 C2025 C 0.62739 0.87168 0.25532
 C2026 C 0.63917 0.86173 0.23072
 C2027 C 0.61986 0.90283 0.20485
 C2028 C 0.60809 0.91280 0.22954
 H2029 H 0.57904 0.84800 0.19319
 H2030 H 0.55742 0.86621 0.23785
 H2031 H 0.63675 0.86735 0.27614
 H2032 H 0.65857 0.84895 0.23058
 H2033 H 0.62515 0.91704 0.18724
 H2034 H 0.60362 0.93538 0.23281
 C2035 C 0.62177 0.37266 0.70078
 C2036 C 0.59064 0.36295 0.70597
 C2037 C 0.57930 0.37234 0.73112
 C2038 C 0.59999 0.39076 0.74917
 C2039 C 0.62696 0.37232 0.75254
 C2040 C 0.63824 0.36294 0.72746
 C2041 C 0.62001 0.40554 0.70332
 C2042 C 0.60871 0.41494 0.72847
 H2043 H 0.57735 0.35253 0.69004
 H2044 H 0.55672 0.36964 0.73559
 H2045 H 0.63635 0.36695 0.77309
 H2046 H 0.65725 0.34962 0.72666
 H2047 H 0.62566 0.42023 0.68622
 H2048 H 0.60496 0.43750 0.73259
 C2049 C 1.30099 1.11755 1.12618
 C2050 C 1.29980 1.11609 1.09325
 C2051 C 1.27525 1.10444 1.08274
 C2052 C 1.25377 1.09513 1.10595
 C2053 C 1.27138 1.07452 1.12484
 C2054 C 1.29595 1.08618 1.13537
 C2055 C 1.27369 1.13349 1.13497
 C2056 C 1.24921 1.12187 1.12448
 H2057 H 1.31737 1.12229 1.07939
 H2058 H 1.27215 1.10078 1.06002
 H2059 H 1.26706 1.05181 1.12708
 H2060 H 1.31164 1.07297 1.14619
 H2061 H 1.27363 1.15237 1.14853
 H2062 H 1.22830 1.13086 1.12910
 C2063 C 1.29388 0.62560 0.63503
 C2064 C 1.26957 0.64666 0.62778
 C2065 C 1.24581 0.63401 0.61669
 C2066 C 1.24810 0.60122 0.61370
 C2067 C 1.27541 0.59621 0.59621
 C2068 C 1.29917 0.60885 0.60728
 C2069 C 1.27942 0.60394 0.65538
 C2070 C 1.25564 0.59129 0.64432
 H2071 H 1.27047 0.66948 0.63217
 H2072 H 1.22664 0.64615 0.61172
 H2073 H 1.27603 0.58354 0.57675
 H2074 H 1.32001 0.60694 0.59723
 H2075 H 1.28456 0.60138 0.67783
 H2076 H 1.24180 0.57867 0.65798
 C2077 C 0.79466 1.12573 0.63407
 C2078 C 0.77117 1.14748 0.62584
 C2079 C 0.74694 1.13534 0.61516
 C2080 C 0.74785 1.10238 0.61360
 C2081 C 0.77496 1.09543 0.59650
 C2082 C 0.79921 1.10750 0.60709
 C2083 C 0.77904 1.10570 0.65533
 C2084 C 0.75481 1.09355 0.64466
 H2085 H 0.77270 1.17037 0.62967
 H2086 H 0.72820 1.14802 0.60991
 H2087 H 0.77508 1.08191 0.57761
 H2088 H 0.81994 1.10421 0.59716
 H2089 H 0.78370 1.10430 0.67801
 H2090 H 0.74022 1.08229 0.65874
 C2091 C 0.79135 0.62726 1.13801
 C2092 C 0.79757 0.61106 1.11012
 C2093 C 0.77444 0.59763 1.09866
 C2094 C 0.74675 0.60138 1.11591
 C2095 C 0.75437 0.59136 1.14648
 C2096 C 0.77751 0.60482 1.15795
 C2097 C 0.76632 0.64744 1.13073
 C2098 C 0.74318 0.63401 1.11925
 H2099 H 0.81858 0.61009 1.10029
 H2100 H 0.77575 0.58521 1.07907
 H2101 H 0.74098 0.57797 1.15984
 H2102 H 0.78256 0.60218 1.18041
 H2103 H 0.76629 0.67024 1.13533
 H2104 H 0.72363 0.64547 1.11415
 C2105 C 1.29363 0.86525 0.87518
 C2106 C 1.28768 0.85470 0.90601
 C2107 C 1.26283 0.86483 0.91741
 C2108 C 1.24587 0.88476 0.89725
 C2109 C 1.26772 0.90827 0.88961
 C2110 C 1.29254 0.89816 0.87823
 C2111 C 1.26657 0.85733 0.85824
 C2112 C 1.24189 0.86746 0.86965
 H2113 H 1.30302 0.84366 0.91945
 H2114 H 1.25807 0.86180 0.93990
 H2115 H 1.26462 0.93084 0.89421
 H2116 H 1.31034 0.91227 0.87328
 H2117 H 1.26679 0.84453 0.83884
 H2118 H 1.22118 0.86330 0.85997
 C2119 C 1.29715 0.36833 0.37697
 C2120 C 1.29136 0.35843 0.40804
 C2121 C 1.26613 0.36800 0.41904
 C2122 C 1.24867 0.38681 0.39826
 C2123 C 1.26980 0.41083 0.39014
 C2124 C 1.29499 0.40126 0.37913
 C2125 C 1.27048 0.35909 0.36009
 C2126 C 1.24541 0.36869 0.37111
 H2127 H 1.30699 0.34829 0.42186
 H2128 H 1.26129 0.36540 0.44157
 H2129 H 1.26598 0.43339 0.39420
 H2130 H 1.31237 0.41579 0.37395
 H2131 H 1.27124 0.34582 0.34102
 H2132 H 1.22491 0.36361 0.36143
 C2133 C 0.79050 0.86162 0.36960
 C2134 C 0.76728 0.86868 0.34728
 C2135 C 0.74229 0.87826 0.35873
 C2136 C 0.74235 0.88008 0.39166
 C2137 C 0.75055 0.84942 0.40094
 C2138 C 0.77552 0.83983 0.38948
 C2139 C 0.79350 0.88893 0.38763
 C2140 C 0.76855 0.89849 0.39906
 H2141 H 0.76978 0.86517 0.32446
 H2142 H 0.72371 0.88284 0.34556
 H2143 H 0.73651 0.83480 0.41221
 H2144 H 0.78147 0.81750 0.39154
 H2145 H 0.81373 0.89979 0.39123
 H2146 H 0.76754 0.91750 0.41241
 C2147 C 0.79043 0.35988 0.86977
 C2148 C 0.76658 0.36601 0.84773
 C2149 C 0.74176 0.37570 0.85941
 C2150 C 0.74246 0.37842 0.89224
 C2151 C 0.75115 0.34811 0.90220
 C2152 C 0.77599 0.33844 0.89049
 C2153 C 0.79342 0.38771 0.88704
 C2154 C 0.76858 0.39730 0.89866
 H2155 H 0.76848 0.36170 0.82498
 H2156 H 0.72284 0.37964 0.84652
 H2157 H 0.73746 0.33361 0.91403
 H2158 H 0.78204 0.31615 0.89283
 H2159 H 0.81357 0.39891 0.89007
 H2160 H 0.76761 0.41662 0.91155
 C2161 C 0.70152 0.87939 1.12897
 C2162 C 0.70176 0.88096 1.09605
 C2163 C 0.72563 0.89344 1.08492
 C2164 C 0.74745 0.90336 1.10760
 C2165 C 0.72974 0.92335 1.12699
 C2166 C 0.70584 0.91090 1.13812
 C2167 C 0.72956 0.86432 1.13700
 C2168 C 0.75335 0.87674 1.12592
 H2169 H 0.68401 0.87423 1.08266
 H2170 H 0.72796 0.89729 1.06214
 H2171 H 0.73347 0.94617 1.12919
 H2172 H 0.69004 0.92367 1.14929
 H2173 H 0.73060 0.84542 1.15050
 H2174 H 0.77465 0.86841 1.12997
 C2175 C 0.69929 0.38093 0.62634
 C2176 C 0.70053 0.38244 0.59335
 C2177 C 0.72504 0.39416 0.58286
 C2178 C 0.74648 0.40361 0.60607
 C2179 C 0.72877 0.42417 0.62485
 C2180 C 0.70421 0.41245 0.63535
 C2181 C 0.72675 0.36521 0.63520
 C2182 C 0.75116 0.37695 0.62468
 H2183 H 0.68296 0.37635 0.57942
 H2184 H 0.72808 0.39792 0.56015
 H2185 H 0.73296 0.44692 0.62692
 H2186 H 0.68838 0.42580 0.64580
 H2187 H 0.72699 0.34636 0.64883
 H2188 H 0.77212 0.36810 0.62936
 C2189 C 0.20567 0.87404 0.63445
 C2190 C 0.22953 0.85272 0.62625
 C2191 C 0.25351 0.86530 0.61552
 C2192 C 0.25198 0.89824 0.61387
 C2193 C 0.22470 0.90464 0.59679
 C2194 C 0.20072 0.89213 0.60743
 C2195 C 0.22096 0.89441 0.65564
 C2196 C 0.24492 0.90703 0.64490
 H2197 H 0.22841 0.82981 0.63010
 H2198 H 0.27247 0.85297 0.61027
 H2199 H 0.22428 0.91813 0.57787
 H2200 H 0.17990 0.89500 0.59752
 H2201 H 0.21634 0.89577 0.67832
 H2202 H 0.25931 0.91862 0.65891
 C2203 C 0.19963 0.38091 1.12641
 C2204 C 0.20461 0.41232 1.13548
 C2205 C 0.22915 0.42400 1.12492
 C2206 C 0.24680 0.40337 1.10613
 C2207 C 0.25142 0.37670 1.12477
 C2208 C 0.22697 0.36506 1.13528
 C2209 C 0.20081 0.38227 1.09348
 C2210 C 0.22533 0.39394 1.08294
 H2211 H 0.18888 0.42555 1.14622
 H2212 H 0.23343 0.44673 1.12708
 H2213 H 0.27234 0.36777 1.12943
 H2214 H 0.22706 0.34622 1.14891
 H2215 H 0.18325 0.37599 1.07963
 H2216 H 0.22841 0.39755 1.06021
 C2217 C 0.70704 1.13581 0.87141
 C2218 C 0.72187 1.15792 0.89105
 C2219 C 0.74742 1.14901 0.90184
 C2220 C 0.75629 1.11870 0.89214
 C2221 C 0.73086 1.09944 0.90007
 C2222 C 0.70535 1.10831 0.88932
 C2223 C 0.72987 1.12963 0.84846
 C2224 C 0.75544 1.12074 0.85922
 H2225 H 0.71528 1.18004 0.89338
 H2226 H 0.76129 1.16395 0.91290
 H2227 H 0.73279 1.08038 0.91324
 H2228 H 0.68556 1.09679 0.89334
 H2229 H 0.72672 1.13331 0.82575
 H2230 H 0.77382 1.11688 0.84558
 C2231 C 0.70730 0.63501 0.37290
 C2232 C 0.72246 0.65699 0.39237
 C2233 C 0.74804 0.64788 0.40290
 C2234 C 0.75657 0.61745 0.39318
 C2235 C 0.73105 0.59843 0.40137
 C2236 C 0.70552 0.60753 0.39086
 C2237 C 0.72988 0.62859 0.34976
 C2238 C 0.75546 0.61945 0.36029
 H2239 H 0.71605 0.67916 0.39476
 H2240 H 0.76216 0.66276 0.41373
 H2241 H 0.73293 0.57937 0.41455
 H2242 H 0.68567 0.59621 0.39509
 H2243 H 0.72656 0.63226 0.32707
 H2244 H 0.77367 0.61537 0.34648
 C2245 C 0.20644 1.13351 0.37391
 C2246 C 0.20795 1.10057 0.37643
 C2247 C 0.23273 1.09066 0.38808
 C2248 C 0.25411 1.11437 0.39646
 C2249 C 0.25827 1.13219 0.36921
 C2250 C 0.23362 1.14212 0.35755
 C2251 C 0.21173 1.14357 0.40502
 C2252 C 0.23656 1.13367 0.41667
 H2253 H 0.19040 1.08630 0.37108
 H2254 H 0.23605 1.06807 0.39248
 H2255 H 0.27905 1.13681 0.35994
 H2256 H 0.23351 1.15520 0.33833
 H2257 H 0.19596 1.15407 0.41838
 H2258 H 0.24096 1.13637 0.43928
 C2259 C 0.21211 0.63944 0.86968
 C2260 C 0.22635 0.66031 0.89097
 C2261 C 0.25086 0.65013 0.90295
 C2262 C 0.25929 0.61982 0.89273
 C2263 C 0.23277 0.60125 0.89842
 C2264 C 0.20830 0.61143 0.88646
 C2265 C 0.23612 0.63318 0.84799
 C2266 C 0.26060 0.62297 0.85996
 H2267 H 0.22034 0.68254 0.89377
 H2268 H 0.26445 0.66427 0.91531
 H2269 H 0.23320 0.58173 0.91104
 H2270 H 0.18789 0.60058 0.88889
 H2271 H 0.23446 0.63755 0.82524
 H2272 H 0.27961 0.61871 0.84732
 C2273 C 1.12938 1.29776 1.12234
 C2274 C 1.13939 1.27175 1.13975
 C2275 C 1.13047 1.24613 1.12923
 C2276 C 1.11217 1.24833 1.10205
 C2277 C 1.08767 1.26899 1.10992
 C2278 C 1.09662 1.29465 1.12049
 C2279 C 1.13932 1.29166 1.09141
 C2280 C 1.13040 1.26595 1.08090
 H2281 H 1.15258 1.27339 1.15880
 H2282 H 1.13606 1.22595 1.13934
 H2283 H 1.06521 1.26446 1.10612
 H2284 H 1.08172 1.31170 1.12566
 H2285 H 1.14934 1.30729 1.07750
 H2286 H 1.13325 1.26065 1.05850
 C2287 C 1.13258 0.79535 0.62404
 C2288 C 1.14112 0.76872 0.64130
 C2289 C 1.13156 0.74361 0.63016
 C2290 C 1.11412 0.74688 0.60253
 C2291 C 1.09019 0.76830 0.61004
 C2292 C 1.09978 0.79347 0.62122
 C2293 C 1.14318 0.78935 0.59333
 C2294 C 1.13360 0.76414 0.58216
 H2295 H 1.15385 0.76957 0.66071
 H2296 H 1.13614 0.72310 0.64009
 H2297 H 1.06770 0.76461 0.60560
 H2298 H 1.08536 0.81099 0.62619
 H2299 H 1.15419 0.80481 0.57998
 H2300 H 1.13687 0.75913 0.55976
 C2301 C 0.63024 1.29823 0.62169
 C2302 C 0.63996 1.27216 0.63919
 C2303 C 0.63079 1.24660 0.62874
 C2304 C 0.61256 1.24890 0.60152
 C2305 C 0.58826 1.26981 0.60929
 C2306 C 0.59745 1.29542 0.61978
 C2307 C 0.64019 1.29195 0.59082
 C2308 C 0.63101 1.26630 0.58035
 H2309 H 0.65315 1.27372 0.65825
 H2310 H 0.63618 1.22640 0.63890
 H2311 H 0.56576 1.26546 0.60551
 H2312 H 0.58270 1.31263 0.62488
 H2313 H 0.65042 1.30744 0.57689
 H2314 H 0.63384 1.26095 0.55797
 C2315 C 0.63672 0.79164 1.12900
 C2316 C 0.60934 0.79359 1.11099
 C2317 C 0.60026 0.76813 1.10020
 C2318 C 0.61921 0.74250 1.10819
 C2319 C 0.64962 0.75115 1.09863
 C2320 C 0.65872 0.77664 1.10945
 C2321 C 0.63022 0.76879 1.15191
 C2322 C 0.62112 0.74328 1.14110
 H2323 H 0.59805 0.81350 1.10693
 H2324 H 0.58126 0.76637 1.08695
 H2325 H 0.66446 0.73712 1.08766
 H2326 H 0.68088 0.78309 1.10720
 H2327 H 0.63384 0.77188 1.17464
 H2328 H 0.61704 0.72489 1.15473
 C2329 C 0.87740 1.29648 0.86892
 C2330 C 0.86241 1.26798 0.86232
 C2331 C 0.87546 1.24468 0.87368
 C2332 C 0.90259 1.25147 0.89085
 C2333 C 0.92166 1.26881 0.87019
 C2334 C 0.90856 1.29225 0.85877
 C2335 C 0.88015 1.29729 0.90176
 C2336 C 0.89325 1.27388 0.91317
 H2337 H 0.84310 1.26628 0.84952
 H2338 H 0.86725 1.22314 0.87056
 H2339 H 0.94440 1.26532 0.86733
 H2340 H 0.92074 1.30786 0.84668
 H2341 H 0.87369 1.31538 0.91482
 H2342 H 0.89788 1.27225 0.93587
 C2343 C 0.87430 0.79229 0.36381
 C2344 C 0.89121 0.79780 0.39142
 C2345 C 0.90414 0.77417 0.40241
 C2346 C 0.89923 0.74673 0.38501
 C2347 C 0.86648 0.74410 0.38226
 C2348 C 0.85353 0.76775 0.37125
 C2349 C 0.89585 0.77797 0.34330
 C2350 C 0.90883 0.75433 0.35431
 H2351 H 0.89299 0.81870 0.40144
 H2352 H 0.91695 0.77495 0.42178
 H2353 H 0.85457 0.72477 0.38730
 H2354 H 0.83072 0.76834 0.36696
 H2355 H 0.89807 0.78314 0.32081
 H2356 H 0.92148 0.74059 0.34060
 C2357 C 0.37927 1.29895 0.37157
 C2358 C 0.41024 1.29403 0.36119
 C2359 C 0.42264 1.26989 0.37191
 C2360 C 0.40313 1.25258 0.39219
 C2361 C 0.39457 1.27466 0.41514
 C2362 C 0.38217 1.29876 0.40442
 C2363 C 0.36336 1.27114 0.36429
 C2364 C 0.37571 1.24711 0.37496
 H2365 H 0.42279 1.30960 0.34942
 H2366 H 0.44525 1.26580 0.36882
 H2367 H 0.39921 1.27225 0.43777
 H2368 H 0.37633 1.31667 0.41802
 H2369 H 0.34394 1.27041 0.35155
 H2370 H 0.36682 1.22594 0.37132
 C2371 C 0.37312 0.79279 0.86608
 C2372 C 0.39021 0.79844 0.89356
 C2373 C 0.40331 0.77488 0.90455
 C2374 C 0.39838 0.74736 0.88727
 C2375 C 0.36561 0.74463 0.88477
 C2376 C 0.35250 0.76821 0.87377
 C2377 C 0.39462 0.77844 0.84549
 C2378 C 0.40775 0.75488 0.85650
 H2379 H 0.39200 0.81939 0.90348
 H2380 H 0.41625 0.77579 0.92382
 H2381 H 0.35380 0.72529 0.89000
 H2382 H 0.32964 0.76876 0.86970
 H2383 H 0.39672 0.78345 0.82296
 H2384 H 0.42036 0.74115 0.84277
 C2385 C 1.12794 0.70838 0.86338
 C2386 C 1.14820 0.73330 0.87096
 C2387 C 1.13483 0.75647 0.88241
 C2388 C 1.10219 0.75304 0.88543
 C2389 C 1.09244 0.74562 0.85472
 C2390 C 1.10582 0.72244 0.84329
 C2391 C 1.11146 0.70208 0.89109
 C2392 C 1.09810 0.72526 0.90252
 H2393 H 1.17100 0.73324 0.86655
 H2394 H 1.14635 0.77598 0.88768
 H2395 H 1.07933 0.75920 0.84128
 H2396 H 1.10340 0.71752 0.82077
 H2397 H 1.11027 0.68100 0.90082
 H2398 H 1.08552 0.72391 0.92200
 C2399 C 1.12830 0.20689 0.36440
 C2400 C 1.14939 0.23104 0.37220
 C2401 C 1.13674 0.25481 0.38327
 C2402 C 1.10393 0.25268 0.38570
 C2403 C 1.09448 0.24547 0.35486
 C2404 C 1.10714 0.22170 0.34381
 C2405 C 1.11107 0.20145 0.39183
 C2406 C 1.09843 0.22520 0.40287
 H2407 H 1.17223 0.23010 0.36811
 H2408 H 1.14890 0.27391 0.38854
 H2409 H 1.08225 0.25957 0.34112
 H2410 H 1.10503 0.21683 0.32125
 H2411 H 1.10887 0.18050 0.40168
 H2412 H 1.08546 0.22448 0.42212
 C2413 C 0.61980 0.70008 0.37301
 C2414 C 0.58830 0.70439 0.36393
 C2415 C 0.57598 0.72844 0.37490
 C2416 C 0.59607 0.74629 0.39409
 C2417 C 0.60601 0.72461 0.41690
 C2418 C 0.61836 0.70060 0.40593
 C2419 C 0.63489 0.72808 0.36471
 C2420 C 0.62260 0.75201 0.37563
 H2421 H 0.57545 0.68850 0.35293
 H2422 H 0.55320 0.73221 0.37274
 H2423 H 0.60227 0.72714 0.43968
 H2424 H 0.62511 0.68294 0.41945
 H2425 H 0.65372 0.72898 0.35114
 H2426 H 0.63097 0.77330 0.37137
 C2427 C 0.61937 0.20029 0.87171
 C2428 C 0.58791 0.20470 0.86255
 C2429 C 0.57559 0.22867 0.87367
 C2430 C 0.59565 0.24632 0.89307
 C2431 C 0.60545 0.22444 0.91575
 C2432 C 0.61780 0.20051 0.90463
 C2433 C 0.63454 0.22832 0.86370
 C2434 C 0.62225 0.25217 0.87477
 H2435 H 0.57509 0.18891 0.85138
 H2436 H 0.55283 0.23251 0.87146
 H2437 H 0.60156 0.22675 0.93853
 H2438 H 0.62440 0.18270 0.91802
 H2439 H 0.65342 0.22931 0.85021
 H2440 H 0.63067 0.27348 0.87073
 C2441 C 0.86016 0.71169 1.13152
 C2442 C 0.83944 0.72586 1.11006
 C2443 C 0.84961 0.75046 1.09819
 C2444 C 0.87978 0.75905 1.10867
 C2445 C 0.87637 0.76033 1.14142
 C2446 C 0.86618 0.73575 1.15328
 C2447 C 0.88828 0.70803 1.11497
 C2448 C 0.89845 0.73259 1.10312
 H2449 H 0.81729 0.71972 1.10703
 H2450 H 0.83554 0.76400 1.08571
 H2451 H 0.88048 0.77936 1.15411
 H2452 H 0.86167 0.73404 1.17600
 H2453 H 0.89920 0.68765 1.11260
 H2454 H 0.91803 0.73313 1.09066
 C2455 C 0.86840 0.20362 0.62371
 C2456 C 0.90121 0.20547 0.62105
 C2457 C 0.91086 0.23066 0.60998
 C2458 C 0.88697 0.25211 0.60241
 C2459 C 0.86758 0.23493 0.58190
 C2460 C 0.85794 0.20970 0.59296
 C2461 C 0.85980 0.23020 0.64099
 C2462 C 0.86942 0.25532 0.62995
 H2463 H 0.91559 0.18792 0.62604
 H2464 H 0.93337 0.23433 0.60561
 H2465 H 0.86442 0.24003 0.55949
 H2466 H 0.84699 0.19427 0.57952
 H2467 H 0.84699 0.22930 0.66034
 H2468 H 0.86481 0.27581 0.63991
 C2469 C 0.36691 0.70592 0.62495
 C2470 C 0.35605 0.71168 0.59427
 C2471 C 0.36594 0.73657 0.58266
 C2472 C 0.38590 0.75375 0.60262
 C2473 C 0.36880 0.75768 0.63034
 C2474 C 0.35896 0.73291 0.64190
 C2475 C 0.39969 0.70720 0.62180
 C2476 C 0.40957 0.73206 0.61019
 H2477 H 0.34471 0.69626 0.58117
 H2478 H 0.36255 0.74134 0.56022
 H2479 H 0.36461 0.77840 0.64001
 H2480 H 0.34638 0.73255 0.66142
 H2481 H 0.41386 0.68952 0.62695
 H2482 H 0.43208 0.73535 0.60552
 C2483 C 0.37106 0.20080 1.12185
 C2484 C 0.36092 0.20697 1.09099
 C2485 C 0.36977 0.23270 1.08046
 C2486 C 0.38815 0.25026 1.10153
 C2487 C 0.37004 0.25241 1.12882
 C2488 C 0.36118 0.22677 1.13935
 C2489 C 0.40380 0.20389 1.11982
 C2490 C 0.41269 0.22957 1.10923
 H2491 H 0.35081 0.19136 1.07711
 H2492 H 0.36678 0.23803 1.05809
 H2493 H 0.36451 0.27257 1.13898
 H2494 H 0.34811 0.22510 1.15848
 H2495 H 0.41873 0.18683 1.12490
 H2496 H 0.43513 0.23411 1.10532
 C2497 C 1.12863 1.12227 0.70199
 C2498 C 1.13722 1.13873 0.72905
 C2499 C 1.12744 1.12698 0.75375
 C2500 C 1.10973 1.09958 0.74964
 C2501 C 1.08597 1.10792 0.72837
 C2502 C 1.09577 1.11967 0.70358
 C2503 C 1.13891 1.09130 0.70716
 C2504 C 1.12910 1.07948 0.73195
 H2505 H 1.15013 1.15807 0.72879
 H2506 H 1.13205 1.13630 0.77452
 H2507 H 1.06342 1.10357 0.73184
 H2508 H 1.08146 1.12507 0.68610
 H2509 H 1.15009 1.07845 0.69141
 H2510 H 1.13221 1.05690 0.73630
 C2511 C 1.13235 0.62470 0.20334
 C2512 C 1.09941 0.62203 0.20414
 C2513 C 1.08906 0.60963 0.22840
 C2514 C 1.11233 0.60064 0.24993
 C2515 C 1.13201 0.58099 0.23212
 C2516 C 1.14236 0.59345 0.20786
 C2517 C 1.14036 0.64028 0.23115
 C2518 C 1.13000 0.62782 0.25523
 H2519 H 1.08547 0.62768 0.18645
 H2520 H 1.06646 0.60509 0.23120
 H2521 H 1.13473 0.55823 0.23581
 H2522 H 1.15337 0.58073 0.19188
 H2523 H 1.15335 0.65956 0.23185
 H2524 H 1.13419 0.63650 0.27637
 C2525 C 0.63646 1.12736 0.20823
 C2526 C 0.65682 1.10583 0.22283
 C2527 C 0.64613 1.09407 0.24723
 C2528 C 0.61585 1.10464 0.25517
 C2529 C 0.61939 1.13743 0.25646
 C2530 C 0.63008 1.14922 0.23208
 C2531 C 0.60834 1.11085 0.20406
 C2532 C 0.59765 1.09908 0.22842
 H2533 H 0.67907 1.10270 0.21721
 H2534 H 0.65985 1.08159 0.26115
 H2535 H 0.61511 1.15020 0.27538
 H2536 H 0.63474 1.17195 0.23040
 H2537 H 0.59779 1.10845 0.18351
 H2538 H 0.57799 1.08669 0.22861
 C2539 C 0.63949 0.62933 0.71115
 C2540 C 0.65968 0.60756 0.72566
 C2541 C 0.64860 0.59526 0.74962
 C2542 C 0.61816 0.60558 0.75724
 C2543 C 0.62156 0.63835 0.75925
 C2544 C 0.63261 0.65067 0.73532
 C2545 C 0.61151 0.61281 0.70614
 C2546 C 0.60044 0.60051 0.73006
 H2547 H 0.68202 0.60457 0.72035
 H2548 H 0.66210 0.58251 0.76351
 H2549 H 0.61692 0.65072 0.77835
 H2550 H 0.63719 0.67344 0.73417
 H2551 H 0.60134 0.61080 0.68536
 H2552 H 0.58082 0.58805 0.72966
 C2553 C 0.86558 0.87340 0.70563
 C2554 C 0.89282 0.89151 0.70237
 C2555 C 0.90278 0.90276 0.72726
 C2556 C 0.88478 0.89513 0.75363
 C2557 C 0.85406 0.90444 0.74599
 C2558 C 0.84406 0.89318 0.72107
 C2559 C 0.87298 0.85087 0.72855
 C2560 C 0.88293 0.86214 0.75349
 H2561 H 0.90335 0.89529 0.68202
 H2562 H 0.92179 0.91610 0.72811
 H2563 H 0.83977 0.91563 0.76042
 H2564 H 0.82165 0.89526 0.71556
 H2565 H 0.86934 0.82805 0.72593
 H2566 H 0.88757 0.84880 0.77194
 C2567 C 0.86388 0.37029 0.20824
 C2568 C 0.87228 0.34831 0.23143
 C2569 C 0.88299 0.36019 0.25575
 C2570 C 0.88453 0.39317 0.25516
 C2571 C 0.90151 0.40047 0.22804
 C2572 C 0.89081 0.38866 0.20372
 C2573 C 0.84267 0.39015 0.22415
 C2574 C 0.85346 0.40203 0.24845
 H2575 H 0.86865 0.32541 0.22955
 H2576 H 0.88826 0.34727 0.27433
 H2577 H 0.92037 0.41405 0.22798
 H2578 H 0.90060 0.39225 0.18296
 H2579 H 0.81998 0.39172 0.21970
 H2580 H 0.83957 0.41325 0.26324
 C2581 C 0.36107 0.86884 0.21090
 C2582 C 0.38858 0.88612 0.20564
 C2583 C 0.39979 0.89841 0.22949
 C2584 C 0.38269 0.89266 0.25690
 C2585 C 0.35189 0.90232 0.24994
 C2586 C 0.34061 0.88997 0.22609
 C2587 C 0.36883 0.84745 0.23486
 C2588 C 0.38005 0.85981 0.25869
 H2589 H 0.39838 0.88866 0.18472
 H2590 H 0.41909 0.91134 0.22888
 H2591 H 0.33837 0.91448 0.26433
 H2592 H 0.31800 0.89220 0.22158
 H2593 H 0.36453 0.82461 0.23378
 H2594 H 0.38511 0.84740 0.27767
 C2595 C 0.37214 0.37747 0.70229
 C2596 C 0.36352 0.36097 0.72933
 C2597 C 0.37327 0.37270 0.75404
 C2598 C 0.39098 0.40010 0.74997
 C2599 C 0.41477 0.39179 0.72873
 C2600 C 0.40499 0.38005 0.70393
 C2601 C 0.36185 0.40843 0.70746
 C2602 C 0.37163 0.42023 0.73227
 H2603 H 0.35060 0.34163 0.72904
 H2604 H 0.36864 0.36335 0.77481
 H2605 H 0.43731 0.39614 0.73224
 H2606 H 0.41931 0.37466 0.68647
 H2607 H 0.35071 0.42131 0.69169
 H2608 H 0.36852 0.44280 0.73664
 C2609 C 1.12742 0.86505 1.29421
 C2610 C 1.10922 0.89222 1.29777
 C2611 C 1.09797 0.90250 1.27301
 C2612 C 1.10562 0.88489 1.24641
 C2613 C 1.13855 0.88313 1.24648
 C2614 C 1.14986 0.87282 1.27126
 C2615 C 1.10771 0.84361 1.27836
 C2616 C 1.09640 0.85398 1.25360
 H2617 H 1.10534 0.90251 1.31824
 H2618 H 1.08458 0.92148 1.27242
 H2619 H 1.15182 0.88793 1.22805
 H2620 H 1.17266 0.86904 1.27364
 H2621 H 1.10589 0.82100 1.28326
 H2622 H 1.08535 0.83983 1.23889
 C2623 C 1.12762 0.36458 0.79411
 C2624 C 1.10918 0.39161 0.79755
 C2625 C 1.09787 0.40168 0.77274
 C2626 C 1.10570 0.38405 0.74621
 C2627 C 1.13865 0.38257 0.74634
 C2628 C 1.15003 0.37246 0.77117
 C2629 C 1.10814 0.34291 0.77828
 C2630 C 1.09674 0.35309 0.75349
 H2631 H 1.10521 0.40194 0.81798
 H2632 H 1.08432 0.42054 0.77206
 H2633 H 1.15191 0.38741 0.72790
 H2634 H 1.17285 0.36885 0.77358
 H2635 H 1.10659 0.32029 0.78324
 H2636 H 1.08586 0.33879 0.73880
 C2637 C 0.62250 0.87035 0.79756
 C2638 C 0.63906 0.86227 0.77042
 C2639 C 0.62727 0.87225 0.74582
 C2640 C 0.59975 0.88964 0.75008
 C2641 C 0.57983 0.86978 0.76755
 C2642 C 0.59171 0.85976 0.79222
 C2643 C 0.61958 0.90325 0.79632
 C2644 C 0.60783 0.91325 0.77162
 H2645 H 0.65848 0.84953 0.77056
 H2646 H 0.63665 0.86798 0.72501
 H2647 H 0.55731 0.86649 0.76322
 H2648 H 0.57896 0.84823 0.80782
 H2649 H 0.62486 0.91743 0.81395
 H2650 H 0.60336 0.93583 0.76834
 C2651 C 0.62433 0.36707 1.29669
 C2652 C 0.63969 0.35882 1.26885
 C2653 C 0.62735 0.36936 1.24479
 C2654 C 0.60049 0.38743 1.25015
 C2655 C 0.58061 0.36800 1.26805
 C2656 C 0.59297 0.35747 1.29228
 C2657 C 0.62215 0.40009 1.29585
 C2658 C 0.60988 0.41062 1.27162
 H2659 H 0.65874 0.34554 1.26810
 H2660 H 0.63588 0.36504 1.22363
 H2661 H 0.55784 0.36560 1.26445
 H2662 H 0.58017 0.34660 1.30831
 H2663 H 0.62804 0.41399 1.31352
 H2664 H 0.60568 0.43331 1.26880
 C2665 C 0.87281 1.13571 1.29269
 C2666 C 0.85079 1.12908 1.26907
 C2667 C 0.86243 1.11860 1.24455
 C2668 C 0.89524 1.11550 1.24550
 C2669 C 0.90551 1.14593 1.25336
 C2670 C 0.89388 1.15644 1.27787
 C2671 C 0.88968 1.10778 1.29664
 C2672 C 0.90130 1.09729 1.27215
 H2673 H 0.82807 1.13351 1.27096
 H2674 H 0.84953 1.11430 1.22572
 H2675 H 0.91765 1.15982 1.23927
 H2676 H 0.89670 1.17879 1.28342
 H2677 H 0.89239 1.09719 1.31714
 H2678 H 0.91389 1.07777 1.27179
 C2679 C 0.87242 0.63492 0.79188
 C2680 C 0.85035 0.62705 0.76870
 C2681 C 0.86202 0.61657 0.74419
 C2682 C 0.89495 0.61465 0.74471
 C2683 C 0.90422 0.64556 0.75188
 C2684 C 0.89256 0.65610 0.77637
 C2685 C 0.89035 0.60769 0.79607
 C2686 C 0.90201 0.59717 0.77160
 H2687 H 0.82752 0.63070 0.77086
 H2688 H 0.84902 0.61152 0.72562
 H2689 H 0.91573 0.65957 0.73739
 H2690 H 0.89472 0.67862 0.78147
 H2691 H 0.89372 0.59758 0.81671
 H2692 H 0.91529 0.57810 0.77140
 C2693 C 0.37854 1.12946 0.79817
 C2694 C 0.40976 1.13898 0.79315
 C2695 C 0.42139 1.12888 0.76841
 C2696 C 0.40086 1.11004 0.75059
 C2697 C 0.39182 1.08643 0.77178
 C2698 C 0.38026 1.09652 0.79654
 C2699 C 0.36245 1.13851 0.77102
 C2700 C 0.37401 1.12845 0.74637
 H2701 H 0.42293 1.14965 0.80900
 H2702 H 0.44405 1.13130 0.76420
 H2703 H 0.39557 1.06375 0.76830
 H2704 H 0.37437 1.08233 0.81397
 H2705 H 0.34349 1.15193 0.77120
 H2706 H 0.36491 1.13332 0.72556
 C2707 C 0.37190 0.63627 1.29157
 C2708 C 0.34988 0.62824 1.26838
 C2709 C 0.36160 0.61733 1.24408
 C2710 C 0.39450 0.61520 1.24479
 C2711 C 0.40393 0.64616 1.25159
 C2712 C 0.39224 0.65711 1.27589
 C2713 C 0.38963 0.60898 1.29621
 C2714 C 0.40132 0.59804 1.27194
 H2715 H 0.32707 0.63210 1.27036
 H2716 H 0.34865 0.61214 1.22551
 H2717 H 0.41563 0.65987 1.23698
 H2718 H 0.39458 0.67967 1.28075
 H2719 H 0.39285 0.59914 1.31701
 H2720 H 0.41447 0.57889 1.27207
 C2721 C 1.13153 1.29558 0.87668
 C2722 C 1.09869 1.29366 0.87891
 C2723 C 1.08896 1.26849 0.88997
 C2724 C 1.11281 1.24717 0.89798
 C2725 C 1.13074 1.24384 0.87071
 C2726 C 1.14044 1.26892 0.85968
 C2727 C 1.14162 1.28969 0.90759
 C2728 C 1.13187 1.26451 0.91866
 H2729 H 1.08435 1.31114 0.87358
 H2730 H 1.06639 1.26475 0.89399
 H2731 H 1.13556 1.22331 0.86094
 H2732 H 1.15355 1.26973 0.84052
 H2733 H 1.15230 1.30519 0.92115
 H2734 H 1.13468 1.25959 0.94115
 C2735 C 1.13246 0.79541 0.37635
 C2736 C 1.09967 0.79324 0.37890
 C2737 C 1.09023 0.76793 0.38990
 C2738 C 1.11430 0.74670 0.39750
 C2739 C 1.13196 0.74370 0.37002
 C2740 C 1.14138 0.76893 0.35906
 C2741 C 1.14292 0.78936 0.40711
 C2742 C 1.13347 0.76402 0.41810
 H2743 H 1.08515 0.81064 0.37379
 H2744 H 1.06773 0.76400 0.39410
 H2745 H 1.13683 0.72327 0.36006
 H2746 H 1.15428 0.76997 0.33977
 H2747 H 1.15362 0.80481 0.42070
 H2748 H 1.13658 0.75896 0.44052
 C2749 C 0.63820 1.29035 0.36921
 C2750 C 0.66004 1.27462 0.38851
 C2751 C 0.65008 1.24975 0.39999
 C2752 C 0.61911 1.24232 0.39127
 C2753 C 0.60146 1.26883 0.39923
 C2754 C 0.61134 1.29371 0.38784
 C2755 C 0.63027 1.26733 0.34686
 C2756 C 0.62031 1.24245 0.35832
 H2757 H 0.68261 1.27979 0.38989
 H2758 H 0.66458 1.23514 0.41068
 H2759 H 0.58273 1.26808 0.41294
 H2760 H 0.60097 1.31413 0.39187
 H2761 H 0.63369 1.26973 0.32401
 H2762 H 0.61533 1.22398 0.34513
 C2763 C 0.63670 0.79244 0.87271
 C2764 C 0.65873 0.77766 0.89244
 C2765 C 0.64970 0.75222 0.90348
 C2766 C 0.61934 0.74339 0.89392
 C2767 C 0.60030 0.76902 0.90166
 C2768 C 0.60930 0.79443 0.89067
 C2769 C 0.63030 0.76940 0.84999
 C2770 C 0.62128 0.74394 0.86100
 H2771 H 0.68086 0.78418 0.89469
 H2772 H 0.66457 0.73837 0.91464
 H2773 H 0.58131 0.76731 0.91491
 H2774 H 0.59795 0.81434 0.89454
 H2775 H 0.63388 0.77235 0.82723
 H2776 H 0.61722 0.72544 0.84752
 C2777 C 0.87822 1.29595 1.13150
 C2778 C 0.90941 1.29147 1.14139
 C2779 C 0.92223 1.26796 1.12980
 C2780 C 0.90285 1.25077 1.10927
 C2781 C 0.87583 1.24416 1.12667
 C2782 C 0.86307 1.26755 1.13819
 C2783 C 0.88068 1.29678 1.09862
 C2784 C 0.89347 1.27328 1.08706
 H2785 H 0.92178 1.30696 1.15344
 H2786 H 0.94499 1.26436 1.13245
 H2787 H 0.86748 1.22267 1.12983
 H2788 H 0.84388 1.26597 1.15116
 H2789 H 0.87425 1.31494 1.08562
 H2790 H 0.89784 1.27163 1.06432
 C2791 C 0.87986 0.79886 0.62743
 C2792 C 0.91082 0.79397 0.63789
 C2793 C 0.92333 0.76991 0.62713
 C2794 C 0.90392 0.75262 0.60674
 C2795 C 0.87648 0.74701 0.62386
 C2796 C 0.86402 0.77096 0.63458
 C2797 C 0.88283 0.79880 0.59459
 C2798 C 0.89534 0.77478 0.58384
 H2799 H 0.92328 0.80952 0.64979
 H2800 H 0.94593 0.76586 0.63030
 H2801 H 0.86763 0.72580 0.62741
 H2802 H 0.84457 0.77013 0.64725
 H2803 H 0.87694 0.81674 0.58104
 H2804 H 0.90001 0.77247 0.56121
 C2805 C 0.38060 1.29960 0.62829
 C2806 C 0.41226 1.29526 0.63702
 C2807 C 0.42437 1.27107 0.62611
 C2808 C 0.40405 1.25316 0.60724
 C2809 C 0.37769 1.24762 0.62596
 C2810 C 0.36556 1.27162 0.63688
 C2811 C 0.38186 1.29887 0.59529
 C2812 C 0.39400 1.27474 0.58438
 H2813 H 0.42541 1.31126 0.64749
 H2814 H 0.44718 1.26730 0.62794
 H2815 H 0.36932 1.22637 0.63042
 H2816 H 0.34687 1.27075 0.65065
 H2817 H 0.37534 1.31654 0.58167
 H2818 H 0.39770 1.27214 0.56161
 C2819 C 0.37264 0.79024 1.13832
 C2820 C 0.35250 0.76524 1.13067
 C2821 C 0.36597 0.74220 1.11906
 C2822 C 0.39858 0.74583 1.11595
 C2823 C 0.40246 0.77373 1.09899
 C2824 C 0.38900 0.79677 1.11059
 C2825 C 0.39491 0.77620 1.15827
 C2826 C 0.40839 0.75315 1.14666
 H2827 H 0.32972 0.76515 1.13515
 H2828 H 0.35454 0.72266 1.11372
 H2829 H 0.41498 0.77526 1.07949
 H2830 H 0.39005 0.81791 1.10097
 H2831 H 0.39738 0.78101 1.18080
 H2832 H 0.42163 0.73958 1.15999
 C2833 C 0.86211 0.70880 0.87130
 C2834 C 0.84104 0.72302 0.89236
 C2835 C 0.85067 0.74808 0.90371
 C2836 C 0.88068 0.75706 0.89312
 C2837 C 0.89987 0.73112 0.89932
 C2838 C 0.89025 0.70610 0.88800
 C2839 C 0.86766 0.73250 0.84900
 C2840 C 0.87733 0.75754 0.86034
 H2841 H 0.81901 0.71647 0.89540
 H2842 H 0.83629 0.76160 0.91583
 H2843 H 0.91942 0.73234 0.91181
 H2844 H 0.90160 0.68602 0.89085
 H2845 H 0.86317 0.73023 0.82633
 H2846 H 0.88105 0.77639 0.84724
 C2847 C 0.86779 0.20516 0.37638
 C2848 C 0.85752 0.21104 0.40720
 C2849 C 0.86782 0.23587 0.41856
 C2850 C 0.88752 0.25292 0.39818
 C2851 C 0.91091 0.23108 0.39026
 C2852 C 0.90065 0.20624 0.37896
 C2853 C 0.85970 0.23217 0.35948
 C2854 C 0.86993 0.25690 0.37077
 H2855 H 0.84625 0.19572 0.42048
 H2856 H 0.86492 0.24068 0.44105
 H2857 H 0.93352 0.23424 0.39454
 H2858 H 0.91460 0.18844 0.37369
 H2859 H 0.84675 0.23184 0.34020
 H2860 H 0.86571 0.27762 0.36109
 C2861 C 0.36079 0.70950 0.36994
 C2862 C 0.36743 0.73318 0.34783
 C2863 C 0.37719 0.75803 0.35948
 C2864 C 0.37948 0.75751 0.39235
 C2865 C 0.34899 0.74913 0.40195
 C2866 C 0.33924 0.72426 0.39026
 C2867 C 0.38832 0.70639 0.38762
 C2868 C 0.39799 0.73126 0.39920
 H2869 H 0.36337 0.73118 0.32504
 H2870 H 0.38146 0.77686 0.34653
 H2871 H 0.33448 0.76304 0.41347
 H2872 H 0.31690 0.71838 0.39233
 H2873 H 0.39927 0.68614 0.39092
 H2874 H 0.41712 0.73216 0.41235
 C2875 C 0.36931 0.20265 0.87664
 C2876 C 0.35947 0.20853 0.90768
 C2877 C 0.36885 0.23395 0.91852
 C2878 C 0.38747 0.25150 0.89761
 C2879 C 0.41159 0.23050 0.88958
 C2880 C 0.40219 0.20512 0.87875
 C2881 C 0.35988 0.22915 0.85958
 C2882 C 0.36930 0.25441 0.87044
 H2883 H 0.34931 0.19284 0.92145
 H2884 H 0.36619 0.23894 0.94101
 H2885 H 0.43410 0.23452 0.89367
 H2886 H 0.41685 0.18778 0.87381
 H2887 H 0.34667 0.22812 0.84049
 H2888 H 0.36411 0.27483 0.86060
 C2889 C 1.12717 0.70709 1.13597
 C2890 C 1.10945 0.70129 1.10889
 C2891 C 1.09649 0.72485 1.09779
 C2892 C 1.10210 0.75257 1.11451
 C2893 C 1.09325 0.74569 1.14559
 C2894 C 1.10632 0.72216 1.15676
 C2895 C 1.14795 0.73141 1.12756
 C2896 C 1.13493 0.75494 1.11638
 H2897 H 1.10715 0.68024 1.09928
 H2898 H 1.08318 0.72384 1.07877
 H2899 H 1.08122 0.75993 1.15935
 H2900 H 1.10483 0.71769 1.17948
 H2901 H 1.17083 0.73093 1.13156
 H2902 H 1.14684 0.77413 1.11087
 C2903 C 1.12012 0.19996 0.62771
 C2904 C 1.11890 0.20061 0.59471
 C2905 C 1.10681 0.22474 0.58370
 C2906 C 1.09676 0.24636 0.60647
 C2907 C 1.07639 0.22851 0.62535
 C2908 C 1.08846 0.20434 0.63637
 C2909 C 1.13518 0.22794 0.63625
 C2910 C 1.12309 0.25193 0.62523
 H2911 H 1.12541 0.18290 0.58115
 H2912 H 1.10314 0.22730 0.56091
 H2913 H 1.05357 0.23229 0.62711
 H2914 H 1.07529 0.18837 0.64687
 H2915 H 1.15384 0.22883 0.65007
 H2916 H 1.13146 0.27317 0.62966
 C2917 C 0.62866 0.70926 0.63794
 C2918 C 0.61251 0.70313 0.61000
 C2919 C 0.59919 0.72634 0.59857
 C2920 C 0.60299 0.75401 0.61590
 C2921 C 0.59290 0.74631 0.64643
 C2922 C 0.60624 0.72308 0.65786
 C2923 C 0.64890 0.73432 0.63078
 C2924 C 0.63558 0.75753 0.61934
 H2925 H 0.61149 0.68211 0.60011
 H2926 H 0.58683 0.72509 0.57894
 H2927 H 0.57954 0.75970 0.65978
 H2928 H 0.60353 0.71796 0.68030
 H2929 H 0.67166 0.73429 0.63542
 H2930 H 0.64709 0.77711 0.61431
 C2931 C 0.62688 0.20605 1.13566
 C2932 C 0.60927 0.20053 1.10844
 C2933 C 0.59642 0.22422 1.09750
 C2934 C 0.60203 0.25174 1.11453
 C2935 C 0.59298 0.24460 1.14548
 C2936 C 0.60592 0.22095 1.15650
 C2937 C 0.64776 0.23038 1.12759
 C2938 C 0.63485 0.25404 1.11659
 H2939 H 0.60695 0.17957 1.09864
 H2940 H 0.58318 0.22341 1.07843
 H2941 H 0.58097 0.25878 1.15932
 H2942 H 0.60433 0.21645 1.17918
 H2943 H 0.67063 0.22971 1.13159
 H2944 H 0.64684 0.27324 1.11126
 C2945 C 1.29489 1.12517 0.86761
 C2946 C 1.27130 1.14689 0.87528
 C2947 C 1.24696 1.13475 0.88570
 C2948 C 1.24801 1.10179 0.88766
 C2949 C 1.25547 1.09262 0.85682
 C2950 C 1.27980 1.10478 0.84641
 C2951 C 1.29924 1.10732 0.89486
 C2952 C 1.27493 1.09520 0.90525
 H2953 H 1.27298 1.16976 0.87145
 H2954 H 1.22814 1.14740 0.89070
 H2955 H 1.24126 1.08098 0.84268
 H2956 H 1.28505 1.10293 0.82391
 H2957 H 1.31988 1.10436 0.90509
 H2958 H 1.27488 1.08192 0.92431
 C2959 C 1.29707 0.62262 0.36940
 C2960 C 1.26863 0.63748 0.36246
 C2961 C 1.24530 0.62451 0.37385
 C2962 C 1.25201 0.59756 0.39138
 C2963 C 1.26946 0.57826 0.37106
 C2964 C 1.29291 0.59129 0.35960
 C2965 C 1.29770 0.62026 0.40228
 C2966 C 1.27427 0.60723 0.41372
 H2967 H 1.26699 0.65667 0.34943
 H2968 H 1.22380 0.63265 0.37052
 H2969 H 1.26602 0.55544 0.36845
 H2970 H 1.30858 0.57901 0.34774
 H2971 H 1.31570 0.62689 0.41538
 H2972 H 1.27252 0.60286 0.43646
 C2973 C 0.79367 1.12554 0.36669
 C2974 C 0.79888 1.10815 0.39408
 C2975 C 0.77501 1.09559 0.40502
 C2976 C 0.74766 1.10133 0.38778
 C2977 C 0.74582 1.13422 0.38545
 C2978 C 0.76970 1.14678 0.37451
 C2979 C 0.77875 1.10451 0.34600
 C2980 C 0.75488 1.09195 0.35694
 H2981 H 0.81975 1.10577 0.40399
 H2982 H 0.77557 1.08254 0.42423
 H2983 H 0.72684 1.14652 0.39071
 H2984 H 0.77087 1.16967 0.37055
 H2985 H 0.78367 1.10241 0.32346
 H2986 H 0.74075 1.07981 0.34314
 C2987 C 0.79755 0.62090 0.86990
 C2988 C 0.76916 0.63597 0.86323
 C2989 C 0.74582 0.62310 0.87473
 C2990 C 0.75247 0.59602 0.89211
 C2991 C 0.76968 0.57671 0.87156
 C2992 C 0.79312 0.58966 0.85998
 C2993 C 0.79838 0.61837 0.90278
 C2994 C 0.77494 0.60546 0.91432
 H2995 H 0.76755 0.65522 0.85028
 H2996 H 0.72435 0.63139 0.87158
 H2997 H 0.76610 0.55393 0.86885
 H2998 H 0.80860 0.57736 0.84788
 H2999 H 0.81649 0.62489 0.91579
 H3000 H 0.77327 0.60106 0.93706
 C3001 C 1.28844 0.85907 1.13193
 C3002 C 1.29237 0.88710 1.11521
 C3003 C 1.26798 0.89733 1.10313
 C3004 C 1.24140 0.87879 1.10865
 C3005 C 1.24985 0.84849 1.09842
 C3006 C 1.27427 0.83826 1.11052
 C3007 C 1.26431 0.86534 1.15350
 C3008 C 1.23991 0.87560 1.14141
 H3009 H 1.31281 0.89793 1.11290
 H3010 H 1.26765 0.91687 1.09053
 H3011 H 1.23633 0.83439 1.08594
 H3012 H 1.28028 0.81603 1.10771
 H3013 H 1.26585 0.86095 1.17626
 H3014 H 1.22085 0.87988 1.15396
 C3015 C 1.29395 0.36356 0.62792
 C3016 C 1.27864 0.34142 0.60874
 C3017 C 1.25313 0.35057 0.59808
 C3018 C 1.24481 0.38118 0.60741
 C3019 C 1.24589 0.37958 0.64033
 C3020 C 1.27140 0.37041 0.65099
 C3021 C 1.29591 0.39080 0.60963
 C3022 C 1.27045 0.39993 0.59900
 H3023 H 1.28489 0.31918 0.60667
 H3024 H 1.23889 0.33567 0.58743
 H3025 H 1.22768 0.38387 0.65408
 H3026 H 1.27465 0.36692 0.67371
 H3027 H 1.31584 0.40194 0.60528
 H3028 H 1.26869 0.41884 0.58559
 C3029 C 0.79600 0.86852 0.62210
 C3030 C 0.79411 0.90140 0.61987
 C3031 C 0.76888 0.91117 0.60908
 C3032 C 0.74747 0.88731 0.60130
 C3033 C 0.76456 0.86820 0.58045
 C3034 C 0.78979 0.85840 0.59128
 C3035 C 0.76952 0.85960 0.63938
 C3036 C 0.74439 0.86935 0.62861
 H3037 H 0.81164 0.91576 0.62505
 H3038 H 0.76514 0.93377 0.60512
 H3039 H 0.75941 0.86537 0.55802
 H3040 H 0.80507 0.84760 0.57760
 H3041 H 0.77050 0.84645 0.65852
 H3042 H 0.72397 0.86452 0.63858
 C3043 C 0.79073 0.36065 1.12986
 C3044 C 0.77650 0.33949 1.10883
 C3045 C 0.75156 0.34916 1.09734
 C3046 C 0.74269 0.37926 1.10778
 C3047 C 0.74208 0.37603 1.14057
 C3048 C 0.76702 0.36635 1.15205
 C3049 C 0.79359 0.38875 1.11307
 C3050 C 0.76868 0.39840 1.10161
 H3051 H 0.78292 0.31739 1.10592
 H3052 H 0.73801 0.33477 1.08523
 H3053 H 0.72323 0.37981 1.15358
 H3054 H 0.76919 0.36193 1.17474
 H3055 H 0.81370 0.40006 1.11026
 H3056 H 0.76758 0.41793 1.08904
 C3057 C 0.70618 1.13390 1.12469
 C3058 C 0.73323 1.14168 1.14164
 C3059 C 0.75787 1.13166 1.13006
 C3060 C 0.75378 1.11457 1.10234
 C3061 C 0.73194 1.09101 1.10991
 C3062 C 0.70720 1.10106 1.12152
 C3063 C 0.71199 1.14474 1.09401
 C3064 C 0.73676 1.13468 1.08240
 H3065 H 0.73299 1.15428 1.16115
 H3066 H 0.77861 1.13573 1.13973
 H3067 H 0.73506 1.06845 1.10526
 H3068 H 0.68944 1.08699 1.12667
 H3069 H 0.69667 1.15620 1.08093
 H3070 H 0.74149 1.13804 1.05995
 C3071 C 0.71267 0.64017 0.63109
 C3072 C 0.72680 0.66095 0.60963
 C3073 C 0.75121 0.65070 0.59754
 C3074 C 0.75966 0.62040 0.60783
 C3075 C 0.76120 0.62365 0.64058
 C3076 C 0.73682 0.63393 0.65266
 C3077 C 0.70870 0.61212 0.61443
 C3078 C 0.73307 0.60187 0.60236
 H3079 H 0.72078 0.68317 0.60676
 H3080 H 0.76471 0.66478 0.58503
 H3081 H 0.78028 0.61937 0.65312
 H3082 H 0.73531 0.63835 0.67541
 H3083 H 0.68826 0.60130 0.61215
 H3084 H 0.73338 0.58232 0.58980
 C3085 C 0.20684 1.13623 0.62760
 C3086 C 0.22948 1.12964 0.65066
 C3087 C 0.25501 1.12054 0.64001
 C3088 C 0.25601 1.11873 0.60710
 C3089 C 0.23044 1.09980 0.59887
 C3090 C 0.20496 1.10887 0.60951
 C3091 C 0.22201 1.15832 0.60822
 C3092 C 0.24752 1.14922 0.59755
 H3093 H 0.22626 1.13323 0.67337
 H3094 H 0.27328 1.11642 0.65375
 H3095 H 0.23224 1.08082 0.58559
 H3096 H 0.18508 1.09760 0.60528
 H3097 H 0.21567 1.18053 0.60602
 H3098 H 0.26165 1.16411 0.58674
 C3099 C 0.20989 0.63834 1.13006
 C3100 C 0.20669 0.61102 1.11208
 C3101 C 0.23160 0.60115 1.10081
 C3102 C 0.25794 0.61931 1.10832
 C3103 C 0.25011 0.65004 1.09892
 C3104 C 0.22517 0.65992 1.11022
 C3105 C 0.23293 0.63110 1.15252
 C3106 C 0.25787 0.62120 1.14123
 H3107 H 0.18637 0.60037 1.10839
 H3108 H 0.23247 0.58211 1.08752
 H3109 H 0.26437 0.66452 1.08775
 H3110 H 0.21945 0.68231 1.10808
 H3111 H 0.23037 0.63473 1.17531
 H3112 H 0.27633 0.61646 1.15450
 C3113 C 0.70152 0.88015 0.87185
 C3114 C 0.70580 0.91161 0.86246
 C3115 C 0.72978 0.92411 0.87338
 C3116 C 0.74757 0.90423 0.89283
 C3117 C 0.72588 0.89447 0.91568
 C3118 C 0.70194 0.88194 0.90477
 C3119 C 0.72950 0.86502 0.86380
 C3120 C 0.75336 0.87749 0.87467
 H3121 H 0.68994 0.92431 0.85130
 H3122 H 0.73349 0.94692 0.87102
 H3123 H 0.72836 0.89846 0.93842
 H3124 H 0.68427 0.87530 0.91829
 H3125 H 0.73045 0.84603 0.85042
 H3126 H 0.77463 0.86913 0.87056
 C3127 C 0.70761 0.37251 0.36478
 C3128 C 0.70217 0.38974 0.39220
 C3129 C 0.72589 0.40246 0.40325
 C3130 C 0.75334 0.39702 0.38609
 C3131 C 0.75549 0.36417 0.38367
 C3132 C 0.73176 0.35144 0.37259
 C3133 C 0.72239 0.39370 0.34418
 C3134 C 0.74613 0.40645 0.35524
 H3135 H 0.68125 0.39188 0.40204
 H3136 H 0.72517 0.41543 0.42251
 H3137 H 0.77459 0.35203 0.38890
 H3138 H 0.73088 0.32858 0.36844
 H3139 H 0.71741 0.39580 0.32163
 H3140 H 0.76018 0.41877 0.34152
 C3141 C 0.20124 0.87987 0.37119
 C3142 C 0.20610 0.91094 0.36092
 C3143 C 0.23001 0.92349 0.37194
 C3144 C 0.24719 0.90401 0.39236
 C3145 C 0.22495 0.89522 0.41505
 C3146 C 0.20106 0.88268 0.40405
 C3147 C 0.22917 0.86415 0.36417
 C3148 C 0.25298 0.87665 0.37513
 H3149 H 0.19062 0.92343 0.34898
 H3150 H 0.23402 0.94617 0.36895
 H3151 H 0.22709 0.89980 0.43772
 H3152 H 0.18307 0.87665 0.41744
 H3153 H 0.23014 0.84476 0.35138
 H3154 H 0.27422 0.86790 0.37169
 C3155 C 0.20175 0.37881 0.87106
 C3156 C 0.20690 0.40983 0.86082
 C3157 C 0.23103 0.42209 0.87171
 C3158 C 0.24813 0.40238 0.89199
 C3159 C 0.22594 0.39379 0.91480
 C3160 C 0.20183 0.38155 0.90393
 C3161 C 0.22946 0.36278 0.86382
 C3162 C 0.25349 0.37499 0.87467
 H3163 H 0.19149 0.42249 0.84899
 H3164 H 0.23521 0.44474 0.86874
 H3165 H 0.22831 0.39825 0.93747
 H3166 H 0.18386 0.37571 0.91743
 H3167 H 0.23012 0.34340 0.85100
 H3168 H 0.27460 0.36600 0.87107
   
