data_POSCAR
  _audit_creation_date              2014-09-24
  _audit_creation_method            'ToBaCCo'
  _symmetry_space_group_name_H-M    'P1'
  _symmetry_Int_Tables_number       1
  _symmetry_cell_setting            triclinic
  loop_
  _symmetry_equiv_pos_as_xyz
 x,y,z
_cell_length_a 46.0753
_cell_length_b 46.9425
_cell_length_c 58.2409
_cell_angle_alpha 89.832800
_cell_angle_beta 89.992100
_cell_angle_gamma 89.941000
loop_
  _atom_site_label
  _atom_site_type_symbol
  _atom_site_fract_x
  _atom_site_fract_y
  _atom_site_fract_z
Zr1 Zr 0.24966 0.25487 0.29067
 O2 O 0.27392 0.27512 0.31685
 O3 O 0.21858 0.23240 0.30984
 O4 O 0.22418 0.28400 0.30888
 O5 O 0.29777 0.19915 0.28352
 O6 O 0.20387 0.31248 0.28145
 O7 O 0.27387 0.22553 0.31033
 O8 O 0.19040 0.21171 0.28239
 O9 O 0.21211 0.26005 0.27089
 O10 O 0.24554 0.21769 0.27142
 O11 O 0.25653 0.29206 0.27117
 O12 O 0.28883 0.25146 0.27215
 Zr13 Zr 0.25337 0.25578 0.21097
 Zr14 Zr 0.21983 0.29580 0.25013
 Zr15 Zr 0.28311 0.21518 0.25170
 Zr16 Zr 0.20926 0.22351 0.25077
 O17 O 0.32898 0.21290 0.25168
 O18 O 0.16512 0.23630 0.24972
 O19 O 0.24651 0.21833 0.23032
 O20 O 0.21459 0.25937 0.22980
 O21 O 0.25742 0.29341 0.22992
 O22 O 0.29056 0.25082 0.23112
 C23 C 0.19706 0.21687 0.30345
 C24 C 0.29159 0.20560 0.30446
 C25 C 0.20798 0.30489 0.30253
 O26 O 0.17407 0.29810 0.24785
 O27 O 0.20825 0.31419 0.21822
 O28 O 0.23107 0.28672 0.19148
 C29 C 0.21448 0.30762 0.19728
 O30 O 0.31412 0.30082 0.28167
 Zr31 Zr 0.29367 0.28745 0.25082
 O32 O 0.28420 0.27834 0.19177
 O33 O 0.22927 0.33985 0.25162
 O34 O 0.29214 0.33260 0.25102
 O35 O 0.33840 0.27678 0.25008
 O36 O 0.31051 0.30162 0.21901
 C37 C 0.30447 0.29546 0.19799
 O38 O 0.22804 0.23693 0.18476
 O39 O 0.27380 0.17105 0.25260
 O40 O 0.27690 0.22466 0.19270
 O41 O 0.29587 0.19612 0.22069
 O42 O 0.20850 0.17837 0.25222
 O43 O 0.19168 0.20679 0.21987
 C44 C 0.29188 0.20301 0.19951
 H45 H 0.24337 0.20033 0.28095
 H46 H 0.19761 0.26117 0.21948
 H47 H 0.30848 0.24818 0.22199
 H48 H 0.25883 0.30890 0.28119
 H49 H 0.15321 0.21943 0.25370
 H50 H 0.16888 0.31858 0.24834
 H51 H 0.21045 0.35000 0.25052
 H52 H 0.31180 0.33958 0.24703
 H53 H 0.18826 0.17252 0.25554
 H54 H 0.29268 0.16099 0.25359
 H55 H 0.33415 0.19240 0.25138
 H56 H 0.34929 0.29442 0.24642
 H57 H 0.17336 0.19663 0.22331
 H58 H 0.23660 0.24275 0.16983
 H59 H 0.26555 0.26913 0.33180
 H60 H 0.32890 0.31547 0.27807
 Zr61 Zr 0.75504 0.75443 0.28955
 O62 O 0.73461 0.73133 0.31634
 O63 O 0.78461 0.77957 0.30779
 O64 O 0.78491 0.72795 0.30671
 O65 O 0.70087 0.80497 0.28420
 O66 O 0.80741 0.70356 0.27797
 O67 O 0.72872 0.78085 0.31014
 O68 O 0.80943 0.80305 0.27967
 O69 O 0.79174 0.75362 0.26841
 O70 O 0.75409 0.79211 0.27041
 O71 O 0.75122 0.71702 0.27001
 O72 O 0.71480 0.75404 0.27227
 Zr73 Zr 0.74715 0.75398 0.20981
 Zr74 Zr 0.78683 0.71763 0.24767
 Zr75 Zr 0.71549 0.79093 0.25181
 Zr76 Zr 0.78963 0.79048 0.24851
 O77 O 0.66967 0.78847 0.25320
 O78 O 0.83476 0.78246 0.24543
 O79 O 0.75103 0.79175 0.22922
 O80 O 0.78704 0.75452 0.22737
 O81 O 0.74819 0.71607 0.22878
 O82 O 0.71079 0.75490 0.23128
 C83 C 0.80457 0.79671 0.30089
 C84 C 0.70871 0.79895 0.30491
 C85 C 0.80374 0.70989 0.29929
 O86 O 0.83229 0.72009 0.24289
 O87 O 0.79784 0.70010 0.21559
 O88 O 0.77145 0.72536 0.18942
 C89 C 0.78999 0.70586 0.19486
 O90 O 0.69544 0.70234 0.28236
 Zr91 Zr 0.71270 0.71797 0.25092
 O92 O 0.71769 0.72856 0.19160
 O93 O 0.78259 0.67285 0.25014
 O94 O 0.71912 0.67323 0.25099
 O95 O 0.66708 0.72397 0.25160
 O96 O 0.69597 0.70215 0.21965
 C97 C 0.70000 0.70913 0.19847
 O98 O 0.76898 0.77544 0.18285
 O99 O 0.72009 0.83576 0.25276
 O100 O 0.71957 0.78279 0.19256
 O101 O 0.69931 0.80911 0.22129
 O102 O 0.78539 0.83538 0.25074
 O103 O 0.80344 0.80975 0.21731
 C104 C 0.70294 0.80288 0.19995
 H105 H 0.75495 0.80943 0.28004
 H106 H 0.80351 0.75452 0.21645
 H107 H 0.69222 0.75577 0.22276
 H108 H 0.75149 0.69991 0.28000
 H109 H 0.84504 0.80037 0.24923
 H110 H 0.83978 0.70030 0.24332
 H111 H 0.80230 0.66476 0.24818
 H112 H 0.70012 0.66424 0.24770
 H113 H 0.80498 0.84325 0.25373
 H114 H 0.70031 0.84381 0.25440
 H115 H 0.66234 0.80833 0.25321
 H116 H 0.65797 0.70533 0.24821
 H117 H 0.82041 0.82212 0.22034
 H118 H 0.76025 0.76889 0.16821
 H119 H 0.74312 0.73799 0.33102
 H120 H 0.68202 0.68637 0.27920
 Zr121 Zr 0.75244 0.24553 -0.29084
 O122 O 0.73109 0.26822 -0.31741
 O123 O 0.78218 0.22089 -0.30939
 O124 O 0.78142 0.27237 -0.30838
 O125 O 0.69921 0.19427 -0.28488
 O126 O 0.80422 0.29723 -0.28008
 O127 O 0.72629 0.21869 -0.31112
 O128 O 0.80796 0.19790 -0.28153
 O129 O 0.78953 0.24688 -0.27016
 O130 O 0.75247 0.20787 -0.27168
 O131 O 0.74846 0.28296 -0.27135
 O132 O 0.71252 0.24546 -0.27314
 Zr133 Zr 0.74605 0.24607 -0.21109
 Zr134 Zr 0.78452 0.28288 -0.24945
 Zr135 Zr 0.71417 0.20861 -0.25267
 Zr136 Zr 0.78836 0.21004 -0.25019
 O137 O 0.66830 0.21049 -0.25354
 O138 O 0.83342 0.21854 -0.24747
 O139 O 0.75012 0.20830 -0.23049
 O140 O 0.78563 0.24603 -0.22910
 O141 O 0.74620 0.28396 -0.23012
 O142 O 0.70932 0.24464 -0.23213
 C143 C 0.80265 0.20419 -0.30268
 C144 C 0.70664 0.20034 -0.30568
 C145 C 0.80008 0.29075 -0.30133
 O146 O 0.83011 0.28097 -0.24533
 O147 O 0.79597 0.30048 -0.21747
 O148 O 0.77038 0.27492 -0.19101
 C149 C 0.78861 0.29458 -0.19665
 O150 O 0.69223 0.29676 -0.28312
 Zr151 Zr 0.71033 0.28155 -0.25183
 O152 O 0.71663 0.27124 -0.19257
 O153 O 0.77951 0.32760 -0.25181
 O154 O 0.71601 0.32637 -0.25214
 O155 O 0.66478 0.27505 -0.25186
 O156 O 0.69406 0.29732 -0.22041
 C157 C 0.69861 0.29049 -0.19927
 O158 O 0.76862 0.22487 -0.18436
 O159 O 0.71944 0.16384 -0.25359
 O160 O 0.71916 0.21699 -0.19349
 O161 O 0.69882 0.19035 -0.22196
 O162 O 0.78487 0.16509 -0.25247
 O163 O 0.80283 0.19094 -0.21909
 C164 C 0.70271 0.19668 -0.20068
 H165 H 0.75347 0.19056 -0.28132
 H166 H 0.80230 0.24623 -0.21837
 H167 H 0.69092 0.24358 -0.22339
 H168 H 0.74826 0.30004 -0.28137
 H169 H 0.84389 0.20074 -0.25134
 H170 H 0.83728 0.30086 -0.24583
 H171 H 0.79914 0.33594 -0.25012
 H172 H 0.69693 0.33512 -0.24865
 H173 H 0.80456 0.15753 -0.25564
 H174 H 0.69976 0.15554 -0.25500
 H175 H 0.66128 0.19054 -0.25346
 H176 H 0.65549 0.29361 -0.24845
 H177 H 0.81991 0.17874 -0.22226
 H178 H 0.76008 0.23136 -0.16962
 H179 H 0.73945 0.26170 -0.33219
 H180 H 0.67861 0.31257 -0.27985
 Zr181 Zr 0.24655 0.74789 -0.29086
 O182 O 0.27062 0.72731 -0.31701
 O183 O 0.21585 0.77078 -0.31013
 O184 O 0.22079 0.71921 -0.30920
 O185 O 0.29545 0.80269 -0.28348
 O186 O 0.19979 0.69107 -0.28190
 O187 O 0.27145 0.77678 -0.31037
 O188 O 0.18799 0.79201 -0.28287
 O189 O 0.20878 0.74327 -0.27126
 O190 O 0.24283 0.78510 -0.27163
 O191 O 0.25270 0.71054 -0.27139
 O192 O 0.28563 0.75057 -0.27219
 Zr193 Zr 0.24963 0.74665 -0.21114
 Zr194 Zr 0.21581 0.70736 -0.25050
 Zr195 Zr 0.28026 0.78688 -0.25173
 Zr196 Zr 0.20633 0.77981 -0.25113
 O197 O 0.32616 0.78844 -0.25144
 O198 O 0.16200 0.76777 -0.25037
 O199 O 0.24349 0.78425 -0.23050
 O200 O 0.21095 0.74382 -0.23015
 O201 O 0.25327 0.70902 -0.23013
 O202 O 0.28702 0.75108 -0.23114
 C203 C 0.19447 0.78677 -0.30399
 C204 C 0.28952 0.79646 -0.30454
 C205 C 0.20421 0.69861 -0.30294
 O206 O 0.17001 0.70582 -0.24835
 O207 O 0.20383 0.68900 -0.21868
 O208 O 0.22661 0.71604 -0.19180
 C209 C 0.20979 0.69530 -0.19761
 O210 O 0.31018 0.70078 -0.28166
 Zr211 Zr 0.28974 0.71446 -0.25088
 O212 O 0.28004 0.72355 -0.19184
 O213 O 0.22454 0.66316 -0.25211
 O214 O 0.28753 0.66934 -0.25114
 O215 O 0.33462 0.72441 -0.24997
 O216 O 0.30620 0.69999 -0.21905
 C217 C 0.30014 0.70617 -0.19804
 O218 O 0.22443 0.76584 -0.18498
 O219 O 0.27164 0.83116 -0.25264
 O220 O 0.27347 0.77739 -0.19275
 O221 O 0.29298 0.80569 -0.22065
 O222 O 0.20631 0.82496 -0.25246
 O223 O 0.18868 0.79677 -0.22033
 C224 C 0.28875 0.79883 -0.19950
 H225 H 0.24101 0.80249 -0.28118
 H226 H 0.19387 0.74226 -0.21992
 H227 H 0.30491 0.75342 -0.22194
 H228 H 0.25481 0.69368 -0.28142
 H229 H 0.15039 0.78483 -0.25444
 H230 H 0.16451 0.68543 -0.24890
 H231 H 0.20556 0.65333 -0.25106
 H232 H 0.30705 0.66203 -0.24707
 H233 H 0.18623 0.83117 -0.25600
 H234 H 0.29068 0.84090 -0.25356
 H235 H 0.33162 0.80885 -0.25113
 H236 H 0.34524 0.70659 -0.24630
 H237 H 0.17055 0.80724 -0.22388
 H238 H 0.23281 0.75983 -0.17003
 H239 H 0.26243 0.73349 -0.33198
 H240 H 0.32473 0.68590 -0.27802
 Zr241 Zr 1.25296 1.25403 0.78742
 O242 O 1.23051 1.23048 0.81289
 O243 O 1.28175 1.27810 0.80734
 O244 O 1.28105 1.22572 0.80466
 O245 O 1.19970 1.30535 0.78167
 O246 O 1.30442 1.20224 0.77586
 O247 O 1.22657 1.28059 0.80787
 O248 O 1.30840 1.30227 0.78071
 O249 O 1.29078 1.25359 0.76750
 O250 O 1.25349 1.29244 0.76925
 O251 O 1.24956 1.21764 0.76658
 O252 O 1.21361 1.25483 0.76886
 Zr253 Zr 1.24907 1.25733 0.70737
 Zr254 Zr 1.28631 1.21876 0.74545
 Zr255 Zr 1.21583 1.29252 0.74949
 Zr256 Zr 1.29014 1.29129 0.74854
 O257 O 1.16995 1.29047 0.74955
 O258 O 1.33524 1.28260 0.74669
 O259 O 1.25251 1.29404 0.72810
 O260 O 1.28807 1.25644 0.72619
 O261 O 1.24871 1.21864 0.72532
 O262 O 1.21165 1.25763 0.72768
 C263 C 1.30218 1.29536 0.80161
 C264 C 1.20690 1.29897 0.80242
 C265 C 1.29950 1.20727 0.79722
 O266 O 1.33203 1.22098 0.74259
 O267 O 1.29891 1.20260 0.71334
 O268 O 1.27326 1.22846 0.68705
 C269 C 1.29150 1.20870 0.69259
 O270 O 1.19263 1.20337 0.77661
 Zr271 Zr 1.21213 1.21986 0.74629
 O272 O 1.22020 1.23334 0.68747
 O273 O 1.28137 1.17394 0.74600
 O274 O 1.21783 1.17503 0.74583
 O275 O 1.16661 1.22652 0.74506
 O276 O 1.19787 1.20492 0.71395
 C277 C 1.20282 1.21310 0.69316
 O278 O 1.27283 1.27940 0.68180
 O279 O 1.22084 1.33723 0.75175
 O280 O 1.22279 1.28756 0.69014
 O281 O 1.20103 1.31203 0.71921
 O282 O 1.28651 1.33614 0.75189
 O283 O 1.30592 1.31177 0.71844
 C284 C 1.20564 1.30711 0.69779
 H285 H 1.25411 1.30940 0.77931
 H286 H 1.30507 1.25664 0.71579
 H287 H 1.19356 1.25908 0.71858
 H288 H 1.24898 1.20007 0.77601
 H289 H 1.34562 1.30009 0.75146
 H290 H 1.33928 1.20109 0.74257
 H291 H 1.30107 1.16565 0.74453
 H292 H 1.19895 1.16643 0.74160
 H293 H 1.30604 1.34354 0.75576
 H294 H 1.20109 1.34544 0.75308
 H295 H 1.16277 1.31038 0.74987
 H296 H 1.15756 1.20821 0.74059
 H297 H 1.32301 1.32355 0.72238
 H298 H 1.26476 1.27359 0.66674
 H299 H 1.23842 1.23635 0.82800
 H300 H 1.17875 1.18812 0.77248
 Zr301 Zr 0.74865 0.75439 0.79013
 O302 O 0.77192 0.77577 0.81625
 O303 O 0.71836 0.73106 0.80929
 O304 O 0.72161 0.78325 0.80774
 O305 O 0.79882 0.70029 0.78363
 O306 O 0.70042 0.80926 0.77919
 O307 O 0.77323 0.72561 0.81018
 O308 O 0.69061 0.70982 0.78186
 O309 O 0.71131 0.75797 0.76986
 O310 O 0.74597 0.71683 0.77111
 O311 O 0.75469 0.79133 0.77017
 O312 O 0.78816 0.75182 0.77190
 Zr313 Zr 0.75351 0.75421 0.71016
 Zr314 Zr 0.71833 0.79337 0.74866
 Zr315 Zr 0.78382 0.71518 0.75164
 Zr316 Zr 0.70981 0.72110 0.75012
 O317 O 0.82974 0.71423 0.75178
 O318 O 0.66537 0.73267 0.74830
 O319 O 0.74746 0.71690 0.72994
 O320 O 0.71438 0.75666 0.72862
 O321 O 0.75621 0.79206 0.72890
 O322 O 0.79055 0.75063 0.73069
 C323 C 0.69707 0.71525 0.80295
 C324 C 0.79186 0.70636 0.80447
 C325 C 0.70423 0.80282 0.80046
 O326 O 0.67261 0.79434 0.74526
 O327 O 0.70707 0.81146 0.71680
 O328 O 0.73096 0.78470 0.69022
 C329 C 0.71392 0.80529 0.69597
 O330 O 0.81191 0.80215 0.78100
 Zr331 Zr 0.79229 0.78753 0.75019
 O332 O 0.78361 0.77783 0.69100
 O333 O 0.72625 0.83770 0.75041
 O334 O 0.78949 0.83262 0.74996
 O335 O 0.83726 0.77784 0.74997
 O336 O 0.80906 0.80178 0.71837
 C337 C 0.80322 0.79563 0.69731
 O338 O 0.72905 0.73440 0.68391
 O339 O 0.77591 0.67081 0.75312
 O340 O 0.77817 0.72345 0.69246
 O341 O 0.79728 0.69581 0.72097
 O342 O 0.71053 0.67600 0.75234
 O343 O 0.69310 0.70297 0.71945
 C344 C 0.79343 0.70221 0.69969
 H345 H 0.74420 0.69953 0.78077
 H346 H 0.69753 0.75789 0.71811
 H347 H 0.80865 0.74838 0.72171
 H348 H 0.75616 0.80844 0.78000
 H349 H 0.65384 0.71565 0.75257
 H350 H 0.66669 0.81464 0.74566
 H351 H 0.70716 0.84729 0.74893
 H352 H 0.80899 0.84009 0.74605
 H353 H 0.69052 0.66964 0.75592
 H354 H 0.79509 0.66134 0.75431
 H355 H 0.83554 0.69389 0.75174
 H356 H 0.84778 0.79559 0.74600
 H357 H 0.67518 0.69220 0.72300
 H358 H 0.73763 0.74035 0.66902
 H359 H 0.76348 0.76971 0.83116
 H360 H 0.82665 0.81679 0.77728
 Zr361 Zr 1.25202 0.74563 0.21085
 O362 O 1.22904 0.76883 0.18545
 O363 O 1.28127 0.72221 0.19084
 O364 O 1.27945 0.77450 0.19360
 O365 O 1.19994 0.69326 0.21668
 O366 O 1.30218 0.79852 0.22241
 O367 O 1.22602 0.71868 0.19043
 O368 O 1.30864 0.69861 0.21737
 O369 O 1.28986 0.74684 0.23071
 O370 O 1.25355 0.70718 0.22894
 O371 O 1.24781 0.78188 0.23174
 O372 O 1.21277 0.74386 0.22947
 Zr373 Zr 1.24845 0.74219 0.29092
 Zr374 Zr 1.28464 0.78153 0.25282
 Zr375 Zr 1.21600 0.70624 0.24882
 Zr376 Zr 1.29020 0.70909 0.24959
 O377 O 1.17008 0.70712 0.24901
 O378 O 1.33510 0.71872 0.25136
 O379 O 1.25275 0.70556 0.27015
 O380 O 1.28735 0.74383 0.27199
 O381 O 1.24705 0.78087 0.27299
 O382 O 1.21100 0.74100 0.27067
 C383 C 1.30216 0.70542 0.19650
 C384 C 1.20676 0.69994 0.19591
 C385 C 1.29745 0.79333 0.20105
 O386 O 1.33044 0.78033 0.25531
 O387 O 1.29757 0.79746 0.28494
 O388 O 1.27241 0.77115 0.31122
 C389 C 1.29052 0.79097 0.30570
 O390 O 1.19086 0.79531 0.22177
 Zr391 Zr 1.21046 0.77873 0.25203
 O392 O 1.21968 0.76631 0.31093
 O393 O 1.27846 0.82620 0.25260
 O394 O 1.21501 0.82366 0.25312
 O395 O 1.16514 0.77087 0.25267
 O396 O 1.19499 0.79247 0.28430
 C397 C 1.20088 0.78531 0.30518
 O398 O 1.27256 0.72032 0.31642
 O399 O 1.22220 0.66167 0.24640
 O400 O 1.22271 0.71160 0.30817
 O401 O 1.20196 0.68629 0.27913
 O402 O 1.28756 0.66419 0.24620
 O403 O 1.30662 0.68886 0.27960
 C404 C 1.20627 0.69149 0.30054
 H405 H 1.25451 0.69028 0.21884
 H406 H 1.30441 0.74390 0.28233
 H407 H 1.19297 0.73915 0.27979
 H408 H 1.24679 0.79947 0.22236
 H409 H 1.34587 0.70147 0.24653
 H410 H 1.33721 0.80036 0.25535
 H411 H 1.29796 0.83493 0.25394
 H412 H 1.19588 0.83174 0.25737
 H413 H 1.30722 0.65719 0.24220
 H414 H 1.20266 0.65301 0.24512
 H415 H 1.16346 0.68705 0.24866
 H416 H 1.15544 0.78887 0.25714
 H417 H 1.32393 0.67739 0.27557
 H418 H 1.26445 0.72601 0.33151
 H419 H 1.23702 0.76312 0.17031
 H420 H 1.17673 0.81032 0.22596
 Zr421 Zr 0.74662 1.24622 0.20887
 O422 O 0.77037 1.22477 0.18302
 O423 O 0.71680 1.26972 0.18933
 O424 O 0.71996 1.21740 0.19091
 O425 O 0.79724 1.29971 0.21611
 O426 O 0.69821 1.19142 0.21921
 O427 O 0.77181 1.27488 0.18918
 O428 O 0.68854 1.29104 0.21642
 O429 O 0.70885 1.24272 0.22866
 O430 O 0.74362 1.28377 0.22788
 O431 O 0.75218 1.20924 0.22892
 O432 O 0.78572 1.24860 0.22765
 Zr433 Zr 0.74975 1.24620 0.28893
 Zr434 Zr 0.71537 1.20728 0.24996
 Zr435 Zr 0.78103 1.28523 0.24787
 Zr436 Zr 0.70700 1.27958 0.24839
 O437 O 0.82694 1.28612 0.24870
 O438 O 0.66250 1.26818 0.24956
 O439 O 0.74419 1.28356 0.26907
 O440 O 0.71102 1.24398 0.26994
 O441 O 0.75283 1.20838 0.27021
 O442 O 0.78724 1.24974 0.26890
 C443 C 0.69544 1.28564 0.19541
 C444 C 0.79070 1.29370 0.19518
 C445 C 0.70249 1.19783 0.19799
 O446 O 0.66957 1.20649 0.25268
 O447 O 0.70329 1.18918 0.28164
 O448 O 0.72677 1.21573 0.30854
 C449 C 0.70976 1.19525 0.30257
 O450 O 0.80958 1.19814 0.21884
 Zr451 Zr 0.78935 1.21287 0.24939
 O452 O 0.77953 1.22256 0.30846
 O453 O 0.72327 1.16292 0.24833
 O454 O 0.78652 1.16779 0.24957
 O455 O 0.83430 1.22252 0.25015
 O456 O 0.80549 1.19858 0.28138
 C457 C 0.79929 1.20474 0.30238
 O458 O 0.72469 1.26595 0.31490
 O459 O 0.77326 1.32962 0.24599
 O460 O 0.77381 1.27700 0.30696
 O461 O 0.79343 1.30473 0.27874
 O462 O 0.70791 1.32468 0.24627
 O463 O 0.68962 1.29772 0.27884
 C464 C 0.78902 1.29834 0.29996
 H465 H 0.74216 1.30107 0.21818
 H466 H 0.69395 1.24280 0.28022
 H467 H 0.80512 1.25197 0.27815
 H468 H 0.75385 1.19213 0.21911
 H469 H 0.65110 1.28526 0.24517
 H470 H 0.66362 1.18622 0.25217
 H471 H 0.70414 1.15339 0.24952
 H472 H 0.80593 1.16026 0.25374
 H473 H 0.68801 1.33116 0.24241
 H474 H 0.79249 1.33899 0.24515
 H475 H 0.83273 1.30644 0.24880
 H476 H 0.84476 1.20476 0.25426
 H477 H 0.67180 1.30857 0.27505
 H478 H 0.73296 1.25996 0.32989
 H479 H 0.76226 1.23090 0.16801
 H480 H 0.82430 1.18354 0.22276
 O481 O 0.47863 1.04804 0.02821
 O482 O 0.50967 0.95054 0.02760
 O483 O 0.44427 0.98503 0.02815
 O484 O 0.54384 1.01357 0.02815
 O485 O 0.46085 0.94585 0.01553
 O486 O 0.52748 1.05317 0.01608
 O487 O 0.54943 0.96602 0.01449
 O488 O 0.43879 1.03299 0.01492
 C489 C 0.45220 1.04526 0.03059
 C490 C 0.53604 0.95355 0.03013
 C491 C 0.44814 0.95924 0.03105
 C492 C 0.54056 1.03935 0.03121
 O493 O 0.50996 1.04863 -0.02866
 O494 O 0.47816 0.95145 -0.02920
 O495 O 0.44432 1.01486 -0.02911
 O496 O 0.54365 0.98530 -0.02927
 O497 O 0.52704 0.94583 -0.01722
 O498 O 0.46121 1.05385 -0.01647
 O499 O 0.54964 1.03276 -0.01564
 O500 O 0.43851 0.96697 -0.01581
 Co501 Co 0.49431 1.04600 -0.00024
 Co502 Co 0.49396 0.95334 -0.00080
 Co503 Co 0.44664 0.99994 -0.00047
 Co504 Co 0.54147 0.99944 -0.00056
 O505 O 0.49410 0.99968 -0.00052
 C506 C 0.53630 1.04541 -0.03122
 C507 C 0.45175 0.95455 -0.03151
 C508 C 0.44844 1.04061 -0.03202
 C509 C 0.54022 0.95954 -0.03235
 O510 O 0.98127 0.54322 0.53175
 O511 O 1.02195 0.44866 0.51903
 O512 O 0.94199 0.47935 0.52526
 O513 O 1.06951 0.52308 0.50724
 O514 O 0.96910 0.44353 0.51351
 O515 O 1.03141 0.54079 0.52387
 O516 O 1.03856 0.48966 0.53015
 O517 O 0.94081 0.53213 0.51669
 C518 C 0.95454 0.54221 0.53312
 C519 C 1.03464 0.46369 0.53400
 C520 C 0.95022 0.45389 0.52710
 C521 C 1.05849 0.54270 0.52022
 O522 O 1.02106 0.55176 0.47848
 O523 O 0.97736 0.45449 0.46756
 O524 O 0.94357 0.52124 0.47319
 O525 O 1.06066 0.47080 0.49321
 O526 O 1.02619 0.45932 0.47215
 O527 O 0.96944 0.55653 0.48657
 O528 O 1.04109 0.51200 0.47060
 O529 O 0.93803 0.46921 0.48239
 Co530 Co 1.00023 0.54394 0.50450
 Co531 Co 0.99849 0.45514 0.49366
 Co532 Co 0.94620 0.50048 0.49930
 Co533 Co 1.03798 0.50179 0.50042
 O534 O 0.99399 0.49902 0.49881
 C535 C 1.03587 0.53695 0.46505
 C536 C 0.95076 0.45671 0.46663
 C537 C 0.95203 0.54651 0.47179
 C538 C 1.05220 0.45645 0.47674
 O539 O 1.01573 0.46558 0.04331
 O540 O 1.01472 0.53351 -0.04533
 O541 O 1.02095 0.44634 -0.02646
 O542 O 1.01984 0.55291 0.02446
 O543 O 1.03462 0.48625 -0.04035
 O544 O 1.03430 0.51332 0.03855
 O545 O 1.03321 0.54839 -0.01466
 O546 O 1.03429 0.45101 0.01253
 C547 C 1.03643 0.45386 0.03352
 C548 C 1.03516 0.54577 -0.03568
 C549 C 1.03925 0.46049 -0.03756
 C550 C 1.03837 0.53915 0.03569
 O551 O 0.98005 0.53293 0.04333
 O552 O 0.98081 0.46540 -0.04518
 O553 O 0.97633 0.44566 0.02459
 O554 O 0.97495 0.55254 -0.02651
 O555 O 0.96090 0.51272 -0.04023
 O556 O 0.96127 0.48501 0.03859
 O557 O 0.96196 0.54803 0.01243
 O558 O 0.96290 0.45020 -0.01429
 Co559 Co 0.99782 0.49924 0.03669
 Co560 Co 0.99776 0.49945 -0.03851
 Co561 Co 0.99855 0.45315 -0.00092
 Co562 Co 0.99756 0.54562 -0.00107
 O563 O 0.99789 0.49937 -0.00094
 C564 C 0.95997 0.54563 0.03345
 C565 C 0.96083 0.45260 -0.03532
 C566 C 0.95762 0.45907 0.03584
 C567 C 0.95643 0.53852 -0.03743
 O568 O 0.53382 0.98629 0.53948
 O569 O 0.53280 1.01096 0.45999
 O570 O 0.53316 0.94927 0.48800
 O571 O 0.53233 1.04768 0.51181
 O572 O 0.51478 0.96301 0.45675
 O573 O 0.51453 1.03370 0.54315
 O574 O 0.51805 1.05096 0.47275
 O575 O 0.51971 0.94592 0.52714
 C576 C 0.53840 0.96046 0.53738
 C577 C 0.53675 1.03689 0.46205
 C578 C 0.53528 0.95135 0.46695
 C579 C 0.53473 1.04566 0.53284
 O580 O 0.46026 1.01324 0.53909
 O581 O 0.45999 0.98214 0.46116
 O582 O 0.46187 0.94961 0.51467
 O583 O 0.46069 1.04622 0.48587
 O584 O 0.47805 1.02996 0.45510
 O585 O 0.47968 0.96597 0.54517
 O586 O 0.47453 1.05251 0.52446
 O587 O 0.47546 0.94335 0.47593
 Co588 Co 0.49703 0.99962 0.53752
 Co589 Co 0.49643 0.99670 0.46246
 Co590 Co 0.49748 0.95192 0.50132
 Co591 Co 0.49648 1.04445 0.49886
 O592 O 0.49683 0.99817 0.50003
 C593 C 0.45600 1.03900 0.53584
 C594 C 0.45654 0.95628 0.46449
 C595 C 0.45969 0.95288 0.53558
 C596 C 0.45817 1.04294 0.46499
 O597 O 1.06072 1.02205 0.47336
 O598 O 0.95151 1.02315 0.52521
 O599 O 0.97189 1.01827 0.45548
 O600 O 1.04054 1.02014 0.54327
 O601 O 0.95615 1.03614 0.48617
 O602 O 1.05592 1.03644 0.51178
 O603 O 0.99201 1.03783 0.53843
 O604 O 1.02027 1.03661 0.46004
 C605 C 1.04655 1.04065 0.46276
 C606 C 0.96563 1.04164 0.53592
 C607 C 0.95926 1.03821 0.46523
 C608 C 1.05311 1.03950 0.53265
 O609 O 1.06094 0.98053 0.52567
 O610 O 0.95143 0.97935 0.47413
 O611 O 1.04031 0.98291 0.45590
 O612 O 0.97226 0.98443 0.54383
 O613 O 0.95635 0.96639 0.51324
 O614 O 1.05562 0.96569 0.48704
 O615 O 1.02062 0.96625 0.53928
 O616 O 0.99196 0.96498 0.46074
 Co617 Co 1.05334 1.00114 0.49946
 Co618 Co 0.95887 1.00126 0.49967
 Co619 Co 1.00615 1.00078 0.46216
 Co620 Co 1.00639 1.00205 0.53706
 O621 O 1.00618 1.00131 0.49960
 C622 C 1.04690 0.96223 0.53665
 C623 C 0.96560 0.96111 0.46316
 C624 C 1.05244 0.96298 0.46615
 C625 C 0.95982 0.96433 0.53416
 O626 O 0.55219 0.53630 -0.01435
 O627 O 0.45279 0.53584 0.01215
 O628 O 0.48834 0.53688 -0.04030
 O629 O 0.51661 0.53697 0.03827
 O630 O 0.44793 0.52257 -0.02663
 O631 O 0.55713 0.52298 0.02449
 O632 O 0.46820 0.51811 0.04301
 O633 O 0.53674 0.51842 -0.04504
 C634 C 0.54858 0.53870 -0.03522
 C635 C 0.45596 0.53819 0.03307
 C636 C 0.46208 0.54099 -0.03746
 C637 C 0.54298 0.54095 0.03577
 O638 O 0.55263 0.46608 0.01214
 O639 O 0.45311 0.46572 -0.01414
 O640 O 0.51670 0.46518 -0.04035
 O641 O 0.48892 0.46508 0.03828
 O642 O 0.44828 0.47897 0.02471
 O643 O 0.55716 0.47946 -0.02672
 O644 O 0.53715 0.48387 0.04286
 O645 O 0.46814 0.48365 -0.04504
 Co646 Co 0.54984 0.50118 -0.00111
 Co647 Co 0.45545 0.50079 -0.00098
 Co648 Co 0.50247 0.50103 -0.03855
 Co649 Co 0.50268 0.50101 0.03648
 O650 O 0.50260 0.50101 -0.00104
 C651 C 0.54910 0.46364 0.03301
 C652 C 0.45605 0.46351 -0.03509
 C653 C 0.54307 0.46125 -0.03777
 C654 C 0.46270 0.46073 0.03555
 C655 C 0.33763 1.15305 0.14933
 C656 C 0.33631 1.14420 0.17235
 C657 C 0.32093 1.16010 0.18848
 C658 C 0.30644 1.18525 0.18197
 C659 C 0.30724 1.19381 0.15883
 C660 C 0.32269 1.17787 0.14268
 C661 C 0.35487 1.13659 0.13244
 C662 C 0.34422 1.13194 0.11018
 C663 C 0.36041 1.11629 0.09435
 C664 C 0.38762 1.10496 0.10044
 C665 C 0.39834 1.10974 0.12266
 C666 C 0.38213 1.12537 0.13850
 C667 C 0.40471 1.08835 0.08355
 C668 C 0.43486 1.09225 0.08149
 C669 C 0.45059 1.07764 0.06469
 C670 C 0.43640 1.05895 0.04963
 C671 C 0.40645 1.05440 0.05217
 C672 C 0.39078 1.06893 0.06895
 H673 H 0.34715 1.12490 0.17790
 H674 H 0.32063 1.15276 0.20612
 H675 H 0.29647 1.21315 0.15326
 H676 H 0.32356 1.18536 0.12509
 H677 H 0.32320 1.14012 0.10508
 H678 H 0.35176 1.11329 0.07725
 H679 H 0.41913 1.10111 0.12788
 H680 H 0.39107 1.12892 0.15544
 H681 H 0.44614 1.10723 0.09241
 H682 H 0.47367 1.08154 0.06311
 H683 H 0.39501 1.03987 0.04096
 H684 H 0.36770 1.06504 0.07045
 C685 C 0.84000 0.65143 0.65063
 C686 C 0.83811 0.64286 0.67368
 C687 C 0.82253 0.65909 0.68946
 C688 C 0.80839 0.68425 0.68254
 C689 C 0.80979 0.69255 0.65936
 C690 C 0.82547 0.67630 0.64357
 C691 C 0.85730 0.63453 0.63410
 C692 C 0.84702 0.62984 0.61174
 C693 C 0.86325 0.61378 0.59624
 C694 C 0.89010 0.60202 0.60277
 C695 C 0.90046 0.60681 0.62509
 C696 C 0.88422 0.62291 0.64060
 C697 C 0.90721 0.58502 0.58619
 C698 C 0.93746 0.58836 0.58451
 C699 C 0.95318 0.57366 0.56776
 C700 C 0.93886 0.55549 0.55238
 C701 C 0.90881 0.55137 0.55463
 C702 C 0.89317 0.56593 0.57138
 H703 H 0.84861 0.62351 0.67953
 H704 H 0.82174 0.65194 0.70715
 H705 H 0.79928 0.71189 0.65349
 H706 H 0.82680 0.68358 0.62594
 H707 H 0.82626 0.63832 0.60631
 H708 H 0.85491 0.61081 0.57903
 H709 H 0.92097 0.59786 0.63064
 H710 H 0.89287 0.62648 0.65764
 H711 H 0.94883 0.60307 0.59560
 H712 H 0.97634 0.57725 0.56637
 H713 H 0.89727 0.53722 0.54317
 H714 H 0.86999 0.56243 0.57261
 C715 C 0.65240 0.85034 0.15080
 C716 C 0.66641 0.82501 0.14433
 C717 C 0.68326 0.80984 0.16015
 C718 C 0.68622 0.81956 0.18284
 C719 C 0.67228 0.84500 0.18924
 C720 C 0.65567 0.86028 0.17337
 C721 C 0.63427 0.86629 0.13412
 C722 C 0.63640 0.89607 0.13239
 C723 C 0.61957 0.91106 0.11646
 C724 C 0.60008 0.89658 0.10208
 C725 C 0.59766 0.86684 0.10403
 C726 C 0.61468 0.85183 0.11981
 C727 C 0.58305 0.91230 0.08456
 C728 C 0.55355 0.90613 0.08099
 C729 C 0.53795 0.92008 0.06369
 C730 C 0.55169 0.94018 0.04947
 C731 C 0.58102 0.94673 0.05335
 C732 C 0.59651 0.93302 0.07077
 H733 H 0.66448 0.81703 0.12697
 H734 H 0.69361 0.79027 0.15468
 H735 H 0.67412 0.85311 0.20657
 H736 H 0.64491 0.87962 0.17885
 H737 H 0.65145 0.90772 0.14312
 H738 H 0.62173 0.93399 0.11540
 H739 H 0.58301 0.85513 0.09300
 H740 H 0.61240 0.82891 0.12096
 H741 H 0.54258 0.89046 0.09156
 H742 H 0.51533 0.91469 0.06112
 H743 H 0.59212 0.96225 0.04272
 H744 H 0.61926 0.93803 0.07303
 C745 C 1.15517 0.35706 0.64997
 C746 C 1.17608 0.33762 0.64189
 C747 C 1.19285 0.32160 0.65730
 C748 C 1.18912 0.32477 0.68112
 C749 C 1.16844 0.34449 0.68910
 C750 C 1.15167 0.36031 0.67376
 C751 C 1.13653 0.37352 0.63382
 C752 C 1.12869 0.40183 0.63872
 C753 C 1.11023 0.41697 0.62405
 C754 C 1.09931 0.40425 0.60403
 C755 C 1.10738 0.37603 0.59902
 C756 C 1.12570 0.36083 0.61376
 C757 C 1.08028 0.42053 0.58805
 C758 C 1.05746 0.40692 0.57639
 C759 C 1.04148 0.42145 0.55966
 C760 C 1.04780 0.44998 0.55436
 C761 C 1.06945 0.46411 0.56691
 C762 C 1.08560 0.44951 0.58351
 H763 H 1.17957 0.33487 0.62365
 H764 H 1.20858 0.30664 0.65056
 H765 H 1.16476 0.34743 0.70731
 H766 H 1.13543 0.37464 0.68061
 H767 H 1.13693 0.41240 0.65387
 H768 H 1.10432 0.43858 0.62853
 H769 H 1.09981 0.36573 0.58353
 H770 H 1.13101 0.33897 0.60960
 H771 H 1.05231 0.38483 0.57987
 H772 H 1.02479 0.41007 0.55036
 H773 H 1.07496 0.48605 0.56308
 H774 H 1.10314 0.46061 0.59200
 C775 C 0.65313 1.14891 -0.15122
 C776 C 0.65634 1.13896 -0.17378
 C777 C 0.67271 1.15431 -0.18973
 C778 C 0.68646 1.17985 -0.18342
 C779 C 0.68363 1.18957 -0.16072
 C780 C 0.66702 1.17431 -0.14481
 C781 C 0.63510 1.13295 -0.13452
 C782 C 0.61546 1.14738 -0.12022
 C783 C 0.59836 1.13231 -0.10454
 C784 C 0.60077 1.10256 -0.10271
 C785 C 0.62036 1.08812 -0.11705
 C786 C 0.63727 1.10316 -0.13287
 C787 C 0.58361 1.08677 -0.08534
 C788 C 0.59696 1.06590 -0.07161
 C789 C 0.58136 1.05211 -0.05432
 C790 C 0.55203 1.05876 -0.05050
 C791 C 0.53839 1.07901 -0.06467
 C792 C 0.55410 1.09302 -0.08185
 H793 H 0.64566 1.11958 -0.17923
 H794 H 0.67446 1.14620 -0.20707
 H795 H 0.69385 1.20921 -0.15532
 H796 H 0.66513 1.18229 -0.12744
 H797 H 0.61315 1.17030 -0.12131
 H798 H 0.58365 1.14399 -0.09352
 H799 H 0.62250 1.06517 -0.11608
 H800 H 0.65237 1.09154 -0.14360
 H801 H 0.61973 1.06082 -0.07382
 H802 H 0.59238 1.03649 -0.04372
 H803 H 0.51577 1.08447 -0.06214
 H804 H 0.54322 1.10880 -0.09239
 C805 C 1.15656 0.64102 0.34833
 C806 C 1.17635 0.66150 0.35642
 C807 C 1.19299 0.67761 0.34102
 C808 C 1.19022 0.67351 0.31722
 C809 C 1.17080 0.65264 0.30925
 C810 C 1.15416 0.63669 0.32458
 C811 C 1.13781 0.62470 0.36442
 C812 C 1.13133 0.59590 0.36026
 C813 C 1.11274 0.58086 0.37486
 C814 C 1.10029 0.59423 0.39404
 C815 C 1.10697 0.62297 0.39831
 C816 C 1.12544 0.63803 0.38365
 C817 C 1.08122 0.57812 0.41004
 C818 C 1.05723 0.59143 0.42042
 C819 C 1.04130 0.57738 0.43741
 C820 C 1.04889 0.54965 0.44426
 C821 C 1.07169 0.53565 0.43290
 C822 C 1.08776 0.54979 0.41602
 H823 H 1.17898 0.66507 0.37466
 H824 H 1.20776 0.69345 0.34775
 H825 H 1.16793 0.64891 0.29105
 H826 H 1.13882 0.62147 0.31773
 H827 H 1.14075 0.58489 0.34575
 H828 H 1.10793 0.55882 0.37100
 H829 H 1.09819 0.63377 0.41317
 H830 H 1.12968 0.66027 0.38720
 H831 H 1.05118 0.61299 0.41579
 H832 H 1.02369 0.58860 0.44578
 H833 H 1.07814 0.51433 0.43792
 H834 H 1.10620 0.53897 0.40850
 C835 C 0.33518 0.84802 -0.14938
 C836 C 0.33362 0.85711 -0.17232
 C837 C 0.31796 0.84148 -0.18841
 C838 C 0.30344 0.81637 -0.18194
 C839 C 0.30442 0.80760 -0.15885
 C840 C 0.32015 0.82328 -0.14273
 C841 C 0.35279 0.86414 -0.13259
 C842 C 0.34243 0.86888 -0.11025
 C843 C 0.35895 0.88434 -0.09455
 C844 C 0.38618 0.89536 -0.10084
 C845 C 0.39664 0.89045 -0.12312
 C846 C 0.38010 0.87502 -0.13884
 C847 C 0.40355 0.91185 -0.08412
 C848 C 0.43366 0.90756 -0.08218
 C849 C 0.44965 0.92207 -0.06550
 C850 C 0.43575 0.94104 -0.05048
 C851 C 0.40585 0.94600 -0.05294
 C852 C 0.38993 0.93157 -0.06959
 H853 H 0.34452 0.87638 -0.17784
 H854 H 0.31751 0.84899 -0.20601
 H855 H 0.29362 0.78828 -0.15333
 H856 H 0.32118 0.81564 -0.12519
 H857 H 0.32138 0.86094 -0.10501
 H858 H 0.35051 0.88745 -0.07738
 H859 H 0.41745 0.89884 -0.12849
 H860 H 0.38880 0.87137 -0.15585
 H861 H 0.44470 0.89236 -0.09307
 H862 H 0.47269 0.91786 -0.06396
 H863 H 0.39463 0.96076 -0.04175
 H864 H 0.36688 0.93575 -0.07102
 C865 C 0.83357 0.34950 0.34971
 C866 C 0.81958 0.32425 0.35649
 C867 C 0.80448 0.30789 0.34046
 C868 C 0.80319 0.31645 0.31734
 C869 C 0.81666 0.34205 0.31073
 C870 C 0.83163 0.35841 0.32674
 C871 C 0.85072 0.36622 0.36638
 C872 C 0.87756 0.37797 0.35993
 C873 C 0.89392 0.39357 0.37563
 C874 C 0.88378 0.39768 0.39810
 C875 C 0.85694 0.38593 0.40456
 C876 C 0.84056 0.37036 0.38885
 C877 C 0.90126 0.41388 0.41488
 C878 C 0.88773 0.43282 0.43013
 C879 C 0.90397 0.44716 0.44664
 C880 C 0.93408 0.44289 0.44820
 C881 C 0.94777 0.42451 0.43260
 C882 C 0.93149 0.41009 0.41611
 H883 H 0.82096 0.31674 0.37405
 H884 H 0.79444 0.28822 0.34608
 H885 H 0.81587 0.34940 0.29309
 H886 H 0.84173 0.37805 0.32113
 H887 H 0.88611 0.37480 0.34280
 H888 H 0.91440 0.40258 0.37013
 H889 H 0.84876 0.38846 0.42187
 H890 H 0.81985 0.36175 0.39423
 H891 H 0.86456 0.43655 0.42929
 H892 H 0.89288 0.46140 0.45832
 H893 H 0.97095 0.42079 0.43346
 H894 H 0.94245 0.39540 0.40472
 C895 C 1.17344 0.35590 0.14286
 C896 C 1.19140 0.33254 0.13777
 C897 C 1.20516 0.31726 0.15536
 C898 C 1.20118 0.32485 0.17853
 C899 C 1.18354 0.34850 0.18357
 C900 C 1.16990 0.36384 0.16596
 C901 C 1.15769 0.37144 0.12430
 C902 C 1.15473 0.40122 0.12505
 C903 C 1.13804 0.41562 0.10865
 C904 C 1.12374 0.40062 0.09110
 C905 C 1.12761 0.37095 0.08980
 C906 C 1.14440 0.35653 0.10620
 C907 C 1.10309 0.41557 0.07545
 C908 C 1.10076 0.40832 0.05205
 C909 C 1.07977 0.42133 0.03800
 C910 C 1.06055 0.44159 0.04718
 C911 C 1.06344 0.44928 0.07037
 C912 C 1.08439 0.43649 0.08428
 H913 H 1.19485 0.32607 0.12014
 H914 H 1.21862 0.29923 0.15077
 H915 H 1.17991 0.35499 0.20116
 H916 H 1.15592 0.38150 0.17051
 H917 H 1.16517 0.41340 0.13848
 H918 H 1.13599 0.43855 0.10990
 H919 H 1.11664 0.35870 0.07670
 H920 H 1.14600 0.33356 0.10523
 H921 H 1.11503 0.39246 0.04467
 H922 H 1.07807 0.41503 0.02018
 H923 H 1.04907 0.46491 0.07795
 H924 H 1.08523 0.44234 0.10224
 C925 C 0.67494 0.85696 0.64280
 C926 C 0.69803 0.83841 0.63756
 C927 C 0.71083 0.82160 0.65474
 C928 C 0.70090 0.82310 0.67755
 C929 C 0.67799 0.84181 0.68274
 C930 C 0.66513 0.85837 0.66562
 C931 C 0.66029 0.87415 0.62463
 C932 C 0.64972 0.90160 0.62952
 C933 C 0.63311 0.91655 0.61343
 C934 C 0.62687 0.90462 0.59188
 C935 C 0.63872 0.87779 0.58653
 C936 C 0.65514 0.86270 0.60273
 C937 C 0.60634 0.91915 0.57587
 C938 C 0.58620 0.90314 0.56317
 C939 C 0.56491 0.91664 0.54997
 C940 C 0.56300 0.94650 0.54930
 C941 C 0.58373 0.96261 0.56127
 C942 C 0.60523 0.94908 0.57434
 H943 H 0.70633 0.83700 0.62021
 H944 H 0.72857 0.80756 0.65018
 H945 H 0.66957 0.84338 0.70006
 H946 H 0.64698 0.87186 0.67024
 H947 H 0.65378 0.91135 0.64604
 H948 H 0.62420 0.93701 0.61830
 H949 H 0.63483 0.86815 0.56995
 H950 H 0.66282 0.84160 0.59838
 H951 H 0.58602 0.88011 0.56416
 H952 H 0.54927 0.90362 0.54093
 H953 H 0.58295 0.98567 0.56093
 H954 H 0.62071 0.96210 0.58353
 C955 C 1.16954 0.64773 -0.14511
 C956 C 1.18834 0.67029 -0.13976
 C957 C 1.20216 0.68583 -0.15718
 C958 C 1.19736 0.67949 -0.18063
 C959 C 1.17867 0.65652 -0.18579
 C960 C 1.16508 0.64093 -0.16832
 C961 C 1.15402 0.63170 -0.12669
 C962 C 1.15063 0.60202 -0.12818
 C963 C 1.13421 0.58717 -0.11188
 C964 C 1.12054 0.60161 -0.09368
 C965 C 1.12485 0.63116 -0.09168
 C966 C 1.14142 0.64603 -0.10797
 C967 C 1.10023 0.58620 -0.07801
 C968 C 1.09844 0.59266 -0.05442
 C969 C 1.07795 0.57902 -0.04028
 C970 C 1.05870 0.55888 -0.04953
 C971 C 1.06099 0.55204 -0.07294
 C972 C 1.08140 0.56548 -0.08695
 H973 H 1.19248 0.67585 -0.12204
 H974 H 1.21637 0.70308 -0.15210
 H975 H 1.17413 0.65056 -0.20339
 H976 H 1.15046 0.62388 -0.17305
 H977 H 1.16054 0.59025 -0.14210
 H978 H 1.13190 0.56433 -0.11369
 H979 H 1.11441 0.64302 -0.07806
 H980 H 1.14342 0.66892 -0.10641
 H981 H 1.11280 0.60833 -0.04693
 H982 H 1.07671 0.58470 -0.02230
 H983 H 1.04658 0.53655 -0.08062
 H984 H 1.08176 0.56023 -0.10504
 C985 C 0.66985 1.14352 0.35529
 C986 C 0.66030 1.14230 0.33239
 C987 C 0.67343 1.15890 0.31541
 C988 C 0.69636 1.17745 0.32083
 C989 C 0.70598 1.17878 0.34372
 C990 C 0.69292 1.16195 0.36075
 C991 C 0.65507 1.12615 0.37330
 C992 C 0.64995 1.13731 0.39532
 C993 C 0.63382 1.12191 0.41150
 C994 C 0.62222 1.09503 0.40604
 C995 C 0.62829 1.08346 0.38432
 C996 C 0.64460 1.09874 0.36823
 C997 C 0.60234 1.07994 0.42223
 C998 C 0.60192 1.04998 0.42358
 C999 C 0.58120 1.03590 0.43705
 C1000 C 0.56056 1.05147 0.44960
 C1001 C 0.56174 1.08137 0.44904
 C1002 C 0.58226 1.09542 0.43546
 H1003 H 0.64219 1.12890 0.32759
 H1004 H 0.66524 1.15746 0.29802
 H1005 H 0.72372 1.19270 0.34846
 H1006 H 0.70105 1.16321 0.37815
 H1007 H 0.65753 1.15839 0.39982
 H1008 H 0.63004 1.13130 0.42819
 H1009 H 0.61955 1.06299 0.37935
 H1010 H 0.64861 1.08920 0.35163
 H1011 H 0.61739 1.03735 0.41400
 H1012 H 0.58098 1.01283 0.43727
 H1013 H 0.54614 1.09400 0.45850
 H1014 H 0.58156 1.11845 0.43463
 C1015 C 0.83319 0.65820 0.14140
 C1016 C 0.83596 0.65041 0.16462
 C1017 C 0.82153 0.66557 0.18175
 C1018 C 0.80373 0.68895 0.17621
 C1019 C 0.80011 0.69624 0.15291
 C1020 C 0.81469 0.68101 0.13568
 C1021 C 0.85039 0.64288 0.12360
 C1022 C 0.83837 0.63565 0.10216
 C1023 C 0.85448 0.61972 0.08622
 C1024 C 0.88283 0.61069 0.09147
 C1025 C 0.89508 0.61885 0.11253
 C1026 C 0.87914 0.63473 0.12833
 C1027 C 0.89977 0.59223 0.07560
 C1028 C 0.91598 0.56942 0.08457
 C1029 C 0.93445 0.55367 0.07053
 C1030 C 0.93724 0.56021 0.04708
 C1031 C 0.91986 0.58198 0.03770
 C1032 C 0.90123 0.59787 0.05187
 H1033 H 0.84944 0.63253 0.16961
 H1034 H 0.82460 0.65902 0.19943
 H1035 H 0.78653 0.71409 0.14801
 H1036 H 0.81216 0.68760 0.11796
 H1037 H 0.81626 0.64155 0.09801
 H1038 H 0.84448 0.61374 0.07012
 H1039 H 0.91714 0.61289 0.11684
 H1040 H 0.88938 0.64063 0.14436
 H1041 H 0.91478 0.56407 0.10265
 H1042 H 0.94719 0.53674 0.07821
 H1043 H 0.92154 0.58745 0.01967
 H1044 H 0.88895 0.61531 0.04448
 C1045 C 0.32968 1.15560 0.64015
 C1046 C 0.34166 1.15702 0.66231
 C1047 C 0.32942 1.17450 0.67904
 C1048 C 0.30494 1.19135 0.67412
 C1049 C 0.29320 1.19051 0.65184
 C1050 C 0.30542 1.17278 0.63504
 C1051 C 0.34289 1.13642 0.62264
 C1052 C 0.34554 1.14500 0.59958
 C1053 C 0.36031 1.12791 0.58372
 C1054 C 0.37291 1.10187 0.59052
 C1055 C 0.36920 1.09282 0.61337
 C1056 C 0.35429 1.10978 0.62915
 C1057 C 0.39165 1.08522 0.57450
 C1058 C 0.39276 1.05524 0.57554
 C1059 C 0.41290 1.03999 0.56237
 C1060 C 0.43227 1.05437 0.54775
 C1061 C 0.43019 1.08417 0.54585
 C1062 C 0.41025 1.09939 0.55910
 H1063 H 0.36078 1.14475 0.66673
 H1064 H 0.33928 1.17481 0.69593
 H1065 H 0.27425 1.20310 0.64752
 H1066 H 0.29552 1.17209 0.61819
 H1067 H 0.33711 1.16539 0.59395
 H1068 H 0.36228 1.13536 0.56618
 H1069 H 0.37878 1.07310 0.61937
 H1070 H 0.35213 1.10217 0.64663
 H1071 H 0.37840 1.04356 0.58686
 H1072 H 0.41383 1.01703 0.56409
 H1073 H 0.44475 1.09591 0.53473
 H1074 H 0.41038 1.12241 0.55800
 C1075 C 0.83260 0.34188 -0.14342
 C1076 C 0.83502 0.34982 -0.16663
 C1077 C 0.82033 0.33480 -0.18369
 C1078 C 0.80260 0.31142 -0.17808
 C1079 C 0.79934 0.30399 -0.15478
 C1080 C 0.81419 0.31907 -0.13763
 C1081 C 0.85006 0.35701 -0.12567
 C1082 C 0.83839 0.36392 -0.10404
 C1083 C 0.85477 0.37951 -0.08807
 C1084 C 0.88305 0.38855 -0.09350
 C1085 C 0.89494 0.38075 -0.11479
 C1086 C 0.87872 0.36520 -0.13062
 C1087 C 0.90027 0.40665 -0.07756
 C1088 C 0.91645 0.42952 -0.08641
 C1089 C 0.93507 0.44500 -0.07233
 C1090 C 0.93805 0.43814 -0.04895
 C1091 C 0.92075 0.41628 -0.03968
 C1092 C 0.90197 0.40065 -0.05389
 H1093 H 0.84843 0.36771 -0.17167
 H1094 H 0.82314 0.34144 -0.20138
 H1095 H 0.78585 0.28613 -0.14982
 H1096 H 0.81193 0.31234 -0.11992
 H1097 H 0.81635 0.35799 -0.09971
 H1098 H 0.84503 0.38523 -0.07180
 H1099 H 0.91693 0.38672 -0.11926
 H1100 H 0.88871 0.35956 -0.14681
 H1101 H 0.91508 0.43515 -0.10442
 H1102 H 0.94774 0.46201 -0.07993
 H1103 H 0.92257 0.41057 -0.02171
 H1104 H 0.88972 0.38316 -0.04659
 C1105 C 0.33229 0.83971 0.35886
 C1106 C 0.34543 0.83611 0.33732
 C1107 C 0.33171 0.82040 0.32018
 C1108 C 0.30468 0.80746 0.32424
 C1109 C 0.29151 0.81089 0.34586
 C1110 C 0.30507 0.82717 0.36295
 C1111 C 0.34751 0.85619 0.37691
 C1112 C 0.33362 0.87860 0.38852
 C1113 C 0.34898 0.89528 0.40435
 C1114 C 0.37829 0.88939 0.40917
 C1115 C 0.39187 0.86656 0.39788
 C1116 C 0.37673 0.85029 0.38184
 C1117 C 0.39524 0.90714 0.42542
 C1118 C 0.41336 0.89404 0.44170
 C1119 C 0.43213 0.91027 0.45516
 C1120 C 0.43348 0.94003 0.45253
 C1121 C 0.41432 0.95335 0.43704
 C1122 C 0.39527 0.93703 0.42367
 H1123 H 0.36630 0.84573 0.33369
 H1124 H 0.34247 0.81811 0.30375
 H1125 H 0.27060 0.80132 0.34942
 H1126 H 0.29458 0.82958 0.37947
 H1127 H 0.31114 0.88366 0.38487
 H1128 H 0.33800 0.91270 0.41287
 H1129 H 0.41451 0.86172 0.40108
 H1130 H 0.38789 0.83307 0.37318
 H1131 H 0.41349 0.87108 0.44362
 H1132 H 0.44638 0.89933 0.46707
 H1133 H 0.41482 0.97624 0.43466
 H1134 H 0.38157 0.94765 0.41119
 C1135 C 1.14850 1.17397 0.35604
 C1136 C 1.14782 1.16426 0.33330
 C1137 C 1.16286 1.17880 0.31613
 C1138 C 1.17929 1.20310 0.32143
 C1139 C 1.17946 1.21320 0.34416
 C1140 C 1.16394 1.19886 0.36130
 C1141 C 1.13437 1.15707 0.37426
 C1142 C 1.11435 1.16955 0.38939
 C1143 C 1.10014 1.15282 0.40585
 C1144 C 1.10633 1.12359 0.40768
 C1145 C 1.12684 1.11137 0.39285
 C1146 C 1.14058 1.12791 0.37621
 C1147 C 1.09087 1.10526 0.42431
 C1148 C 1.10649 1.08586 0.43788
 C1149 C 1.09196 1.06574 0.45126
 C1150 C 1.06150 1.06442 0.45109
 C1151 C 1.04581 1.08477 0.43839
 C1152 C 1.06041 1.10514 0.42517
 H1153 H 1.13586 1.14519 0.32888
 H1154 H 1.16233 1.17045 0.29882
 H1155 H 1.19181 1.23197 0.34871
 H1156 H 1.16478 1.20661 0.37879
 H1157 H 1.10925 1.19203 0.38808
 H1158 H 1.08440 1.16264 0.41715
 H1159 H 1.13172 1.08882 0.39378
 H1160 H 1.15609 1.11793 0.36479
 H1161 H 1.13000 1.08578 0.43764
 H1162 H 1.10464 1.05051 0.46103
 H1163 H 1.02231 1.08433 0.43805
 H1164 H 1.04795 1.11985 0.41473
 C1165 C 0.64756 0.67243 -0.14466
 C1166 C 0.63847 0.67195 -0.16769
 C1167 C 0.65416 0.68635 -0.18460
 C1168 C 0.67927 0.70171 -0.17887
 C1169 C 0.68779 0.70306 -0.15569
 C1170 C 0.67210 0.68855 -0.13876
 C1171 C 0.63230 0.65491 -0.12719
 C1172 C 0.62715 0.66522 -0.10489
 C1173 C 0.61260 0.64835 -0.08868
 C1174 C 0.60292 0.62095 -0.09456
 C1175 C 0.60859 0.61057 -0.11671
 C1176 C 0.62308 0.62731 -0.13280
 C1177 C 0.58686 0.60287 -0.07797
 C1178 C 0.56309 0.58681 -0.08561
 C1179 C 0.55008 0.56685 -0.07124
 C1180 C 0.56029 0.56263 -0.04879
 C1181 C 0.58281 0.57994 -0.04050
 C1182 C 0.59608 0.59992 -0.05505
 H1183 H 0.61930 0.66016 -0.17269
 H1184 H 0.64679 0.68510 -0.20223
 H1185 H 0.70704 0.71470 -0.15066
 H1186 H 0.67976 0.68914 -0.12119
 H1187 H 0.63393 0.68647 -0.10011
 H1188 H 0.60844 0.65689 -0.07175
 H1189 H 0.60207 0.58926 -0.12155
 H1190 H 0.62741 0.61845 -0.14960
 H1191 H 0.55502 0.58916 -0.10298
 H1192 H 0.53240 0.55416 -0.07795
 H1193 H 0.59099 0.57710 -0.02321
 H1194 H 0.61436 0.61206 -0.04873
 C1195 C 0.85643 1.16649 0.64509
 C1196 C 0.83857 1.18994 0.63995
 C1197 C 0.82113 1.20215 0.65690
 C1198 C 0.82128 1.19131 0.67944
 C1199 C 0.83944 1.16812 0.68467
 C1200 C 0.85671 1.15578 0.66767
 C1201 C 0.87409 1.15269 0.62689
 C1202 C 0.90185 1.14186 0.63184
 C1203 C 0.91755 1.12703 0.61519
 C1204 C 0.90595 1.12282 0.59314
 C1205 C 0.87866 1.13459 0.58792
 C1206 C 0.86287 1.14926 0.60461
 C1207 C 0.92133 1.10450 0.57630
 C1208 C 0.90566 1.08517 0.56271
 C1209 C 0.92011 1.06566 0.54874
 C1210 C 0.95056 1.06487 0.54815
 C1211 C 0.96628 1.08505 0.56085
 C1212 C 0.95180 1.10470 0.57476
 H1213 H 0.83819 1.19900 0.62284
 H1214 H 0.80765 1.22023 0.65236
 H1215 H 0.83997 1.15920 0.70183
 H1216 H 0.86982 1.13743 0.67213
 H1217 H 0.91133 1.14454 0.64870
 H1218 H 0.93835 1.11800 0.61989
 H1219 H 0.86927 1.13206 0.57101
 H1220 H 0.84147 1.15713 0.60025
 H1221 H 0.88222 1.08417 0.56367
 H1222 H 0.90739 1.05040 0.53913
 H1223 H 0.98977 1.08516 0.56053
 H1224 H 0.96449 1.11969 0.58466
 C1225 C 0.35220 0.66797 0.14174
 C1226 C 0.36047 0.66408 0.16477
 C1227 C 0.34436 0.67631 0.18254
 C1228 C 0.31964 0.69283 0.17768
 C1229 C 0.31157 0.69699 0.15459
 C1230 C 0.32762 0.68463 0.13684
 C1231 C 0.36869 0.65390 0.12301
 C1232 C 0.35407 0.64028 0.10493
 C1233 C 0.36951 0.62485 0.08844
 C1234 C 0.39991 0.62275 0.08967
 C1235 C 0.41458 0.63750 0.10715
 C1236 C 0.39915 0.65284 0.12365
 C1237 C 0.41597 0.60319 0.07418
 C1238 C 0.43782 0.58556 0.08322
 C1239 C 0.45128 0.56515 0.06954
 C1240 C 0.44329 0.56183 0.04643
 C1241 C 0.42225 0.58011 0.03701
 C1242 C 0.40857 0.60054 0.05083
 H1243 H 0.37908 0.65102 0.16910
 H1244 H 0.35121 0.67266 0.20009
 H1245 H 0.29268 0.70960 0.15018
 H1246 H 0.32087 0.68819 0.11926
 H1247 H 0.33059 0.64052 0.10410
 H1248 H 0.35755 0.61345 0.07537
 H1249 H 0.43802 0.63672 0.10831
 H1250 H 0.41103 0.66361 0.13711
 H1251 H 0.44378 0.58673 0.10118
 H1252 H 0.46756 0.55149 0.07725
 H1253 H 0.41577 0.57804 0.01922
 H1254 H 0.39199 0.61402 0.04334
 C1255 C 1.14689 0.82864 0.64488
 C1256 C 1.16776 0.80828 0.63885
 C1257 C 1.18346 0.79392 0.65587
 C1258 C 1.17825 0.79932 0.67941
 C1259 C 1.15611 0.81893 0.68515
 C1260 C 1.14096 0.83360 0.66810
 C1261 C 1.13258 0.84615 0.62712
 C1262 C 1.13469 0.87591 0.62819
 C1263 C 1.12133 0.89286 0.61159
 C1264 C 1.10519 0.88036 0.59386
 C1265 C 1.10284 0.85057 0.59283
 C1266 C 1.11680 0.83352 0.60922
 C1267 C 1.09056 0.89879 0.57688
 C1268 C 1.06043 0.89709 0.57363
 C1269 C 1.04616 0.91721 0.55990
 C1270 C 1.06193 0.93899 0.54896
 C1271 C 1.09228 0.93962 0.55126
 C1272 C 1.10642 0.91986 0.56526
 H1273 H 1.17263 0.80425 0.62095
 H1274 H 1.19993 0.77887 0.65045
 H1275 H 1.15094 0.82380 0.70287
 H1276 H 1.12475 0.84916 0.67303
 H1277 H 1.14690 0.88601 0.64182
 H1278 H 1.12320 0.91581 0.61277
 H1279 H 1.09046 0.84059 0.57925
 H1280 H 1.11494 0.81056 0.60819
 H1281 H 1.04783 0.88105 0.58255
 H1282 H 1.02276 0.91619 0.55834
 H1283 H 1.10500 0.95611 0.54300
 H1284 H 1.12970 0.92140 0.56749
 C1285 C 0.64734 0.32917 0.14252
 C1286 C 0.67180 0.31274 0.13686
 C1287 C 0.68702 0.29798 0.15394
 C1288 C 0.67810 0.29938 0.17703
 C1289 C 0.65304 0.31503 0.18250
 C1290 C 0.63783 0.32968 0.16545
 C1291 C 0.63258 0.34695 0.12494
 C1292 C 0.62363 0.37467 0.13052
 C1293 C 0.60941 0.39159 0.11440
 C1294 C 0.60371 0.38127 0.09223
 C1295 C 0.61322 0.35379 0.08636
 C1296 C 0.62752 0.33674 0.10260
 C1297 C 0.58767 0.39946 0.07569
 C1298 C 0.59682 0.40241 0.05274
 C1299 C 0.58348 0.42242 0.03823
 C1300 C 0.56097 0.43975 0.04657
 C1301 C 0.55086 0.43554 0.06905
 C1302 C 0.56394 0.41557 0.08338
 H1303 H 0.67976 0.31211 0.11938
 H1304 H 0.70624 0.28613 0.14911
 H1305 H 0.64536 0.31633 0.20004
 H1306 H 0.61871 0.34170 0.17026
 H1307 H 0.62793 0.38345 0.14736
 H1308 H 0.60304 0.41296 0.11924
 H1309 H 0.60904 0.34531 0.06941
 H1310 H 0.63411 0.31541 0.09785
 H1311 H 0.61508 0.39022 0.04638
 H1312 H 0.59159 0.42523 0.02091
 H1313 H 0.53319 0.44824 0.07580
 H1314 H 0.55591 0.41321 0.10077
 C1315 C 0.85754 0.83625 0.35277
 C1316 C 0.85745 0.84672 0.33011
 C1317 C 0.84050 0.83375 0.31322
 C1318 C 0.82304 0.81015 0.31862
 C1319 C 0.82328 0.79953 0.34123
 C1320 C 0.84040 0.81237 0.35807
 C1321 C 0.87487 0.85066 0.37088
 C1322 C 0.86374 0.85377 0.39322
 C1323 C 0.87931 0.86868 0.40990
 C1324 C 0.90630 0.88101 0.40463
 C1325 C 0.91776 0.87726 0.38246
 C1326 C 0.90228 0.86220 0.36582
 C1327 C 0.92163 0.89918 0.42163
 C1328 C 0.95212 0.89933 0.42291
 C1329 C 0.96649 0.91866 0.43716
 C1330 C 0.95066 0.93816 0.45049
 C1331 C 0.92020 0.93706 0.45007
 C1332 C 0.90586 0.91788 0.43575
 H1333 H 0.87000 0.86537 0.32551
 H1334 H 0.84072 0.84254 0.29600
 H1335 H 0.81034 0.78116 0.34591
 H1336 H 0.84033 0.80345 0.37524
 H1337 H 0.84260 0.84538 0.39768
 H1338 H 0.87002 0.87083 0.42689
 H1339 H 0.93832 0.88674 0.37769
 H1340 H 0.91171 0.85981 0.34891
 H1341 H 0.96491 0.88484 0.41260
 H1342 H 0.98999 0.91886 0.43726
 H1343 H 0.90740 0.95182 0.46013
 H1344 H 0.88239 0.91860 0.43501
 C1345 C 0.35175 0.33395 -0.14386
 C1346 C 0.35993 0.33770 -0.16693
 C1347 C 0.34394 0.32514 -0.18461
 C1348 C 0.31944 0.30840 -0.17964
 C1349 C 0.31143 0.30443 -0.15651
 C1350 C 0.32734 0.31714 -0.13885
 C1351 C 0.36825 0.34821 -0.12522
 C1352 C 0.35366 0.36178 -0.10707
 C1353 C 0.36912 0.37727 -0.09062
 C1354 C 0.39950 0.37947 -0.09195
 C1355 C 0.41414 0.36481 -0.10951
 C1356 C 0.39869 0.34942 -0.12597
 C1357 C 0.41560 0.39897 -0.07642
 C1358 C 0.43749 0.41655 -0.08542
 C1359 C 0.45109 0.43677 -0.07167
 C1360 C 0.44324 0.43998 -0.04852
 C1361 C 0.42214 0.42176 -0.03914
 C1362 C 0.40831 0.40151 -0.05302
 H1363 H 0.37839 0.35087 -0.17136
 H1364 H 0.35076 0.32867 -0.20218
 H1365 H 0.29269 0.29167 -0.15202
 H1366 H 0.32065 0.31367 -0.12124
 H1367 H 0.33019 0.36142 -0.10613
 H1368 H 0.35717 0.38858 -0.07748
 H1369 H 0.43757 0.36564 -0.11076
 H1370 H 0.41058 0.33870 -0.13947
 H1371 H 0.44338 0.41547 -0.10340
 H1372 H 0.46740 0.45040 -0.07936
 H1373 H 0.41573 0.42375 -0.02133
 H1374 H 0.39171 0.38806 -0.04555
 C1375 C 1.16583 0.34856 -0.14450
 C1376 C 1.15364 0.34681 -0.16658
 C1377 C 1.16667 0.33026 -0.18357
 C1378 C 1.19212 0.31475 -0.17891
 C1379 C 1.20396 0.31582 -0.15667
 C1380 C 1.19099 0.33261 -0.13966
 C1381 C 1.15213 0.36698 -0.12675
 C1382 C 1.15052 0.35814 -0.10370
 C1383 C 1.13583 0.37467 -0.08745
 C1384 C 1.12228 0.40037 -0.09387
 C1385 C 1.12481 0.40966 -0.11675
 C1386 C 1.13964 0.39325 -0.13293
 C1387 C 1.10373 0.41635 -0.07736
 C1388 C 1.10203 0.44630 -0.07807
 C1389 C 1.08191 0.46091 -0.06444
 C1390 C 1.06316 0.44586 -0.04976
 C1391 C 1.06591 0.41610 -0.04818
 C1392 C 1.08584 0.40153 -0.06186
 H1393 H 1.13388 0.35819 -0.17075
 H1394 H 1.15682 0.32972 -0.20044
 H1395 H 1.22368 0.30431 -0.15258
 H1396 H 1.20107 0.33364 -0.12290
 H1397 H 1.15980 0.33799 -0.09834
 H1398 H 1.13470 0.36707 -0.06991
 H1399 H 1.11443 0.42915 -0.12242
 H1400 H 1.14098 0.40103 -0.15042
 H1401 H 1.11585 0.45843 -0.08950
 H1402 H 1.08044 0.48387 -0.06592
 H1403 H 1.05183 0.40388 -0.03699
 H1404 H 1.08623 0.37849 -0.06102
 C1405 C 0.66721 0.84543 0.35979
 C1406 C 0.68537 0.82214 0.36475
 C1407 C 0.69882 0.80694 0.34700
 C1408 C 0.69413 0.81452 0.32388
 C1409 C 0.67566 0.83763 0.31900
 C1410 C 0.66246 0.85291 0.33671
 C1411 C 0.65289 0.86189 0.37840
 C1412 C 0.65137 0.89174 0.37709
 C1413 C 0.63559 0.90723 0.39330
 C1414 C 0.62077 0.89327 0.41118
 C1415 C 0.62342 0.86350 0.41315
 C1416 C 0.63937 0.84797 0.39694
 C1417 C 0.60068 0.90947 0.42636
 C1418 C 0.59808 0.90317 0.44994
 C1419 C 0.57756 0.91743 0.46355
 C1420 C 0.55909 0.93796 0.45373
 C1421 C 0.56227 0.94470 0.43035
 C1422 C 0.58276 0.93067 0.41687
 H1423 H 0.68951 0.81596 0.38238
 H1424 H 0.71291 0.78926 0.35140
 H1425 H 0.67151 0.84414 0.30145
 H1426 H 0.64822 0.87046 0.33232
 H1427 H 0.66209 0.90312 0.36329
 H1428 H 0.63453 0.93018 0.39157
 H1429 H 0.61207 0.85207 0.42659
 H1430 H 0.64005 0.82497 0.39834
 H1431 H 0.61176 0.88711 0.45779
 H1432 H 0.57558 0.91184 0.48154
 H1433 H 0.54845 0.96050 0.42230
 H1434 H 0.58383 0.93579 0.39875
 C1435 C 0.83063 0.65359 -0.14309
 C1436 C 0.80597 0.67020 -0.13813
 C1437 C 0.79371 0.68792 -0.15493
 C1438 C 0.80574 0.68927 -0.17710
 C1439 C 0.83060 0.67299 -0.18192
 C1440 C 0.84296 0.65553 -0.16513
 C1441 C 0.84380 0.63446 -0.12549
 C1442 C 0.85587 0.60812 -0.13190
 C1443 C 0.87049 0.59118 -0.11587
 C1444 C 0.87321 0.59998 -0.09293
 C1445 C 0.85995 0.62569 -0.08626
 C1446 C 0.84551 0.64276 -0.10235
 C1447 C 0.89177 0.58356 -0.07661
 C1448 C 0.90974 0.59800 -0.06101
 C1449 C 0.92971 0.58310 -0.04753
 C1450 C 0.93244 0.55338 -0.04942
 C1451 C 0.91361 0.53868 -0.06420
 C1452 C 0.89344 0.55362 -0.07762
 H1453 H 0.79577 0.66906 -0.12141
 H1454 H 0.77440 0.70002 -0.15073
 H1455 H 0.84060 0.67371 -0.19874
 H1456 H 0.86237 0.64366 -0.16941
 H1457 H 0.85442 0.60073 -0.14945
 H1458 H 0.88062 0.57170 -0.12173
 H1459 H 0.86119 0.63291 -0.06865
 H1460 H 0.83656 0.66293 -0.09680
 H1461 H 0.90941 0.62102 -0.05993
 H1462 H 0.94384 0.59506 -0.03626
 H1463 H 0.91508 0.51576 -0.06592
 H1464 H 0.87956 0.54176 -0.08914
 C1465 C 0.33095 1.15504 0.35809
 C1466 C 0.31425 1.17914 0.36359
 C1467 C 0.30150 1.19562 0.34623
 C1468 C 0.30537 1.18848 0.32297
 C1469 C 0.32226 1.16445 0.31754
 C1470 C 0.33483 1.14794 0.33487
 C1471 C 0.34479 1.13752 0.37635
 C1472 C 0.34507 1.10766 0.37469
 C1473 C 0.36018 1.09117 0.39073
 C1474 C 0.37548 1.10414 0.40877
 C1475 C 0.37419 1.13394 0.41100
 C1476 C 0.35897 1.15045 0.39496
 C1477 C 0.39458 1.08686 0.42400
 C1478 C 0.39711 1.09286 0.44758
 C1479 C 0.41699 1.07787 0.46128
 C1480 C 0.43485 1.05683 0.45157
 C1481 C 0.43161 1.05026 0.42820
 C1482 C 0.41175 1.06506 0.41460
 H1483 H 0.31075 1.18504 0.38134
 H1484 H 0.28860 1.21395 0.35106
 H1485 H 0.32574 1.15827 0.29985
 H1486 H 0.34796 1.12976 0.33008
 H1487 H 0.33383 1.09706 0.36081
 H1488 H 0.36026 1.06824 0.38880
 H1489 H 0.38602 1.14460 0.42453
 H1490 H 0.35931 1.17342 0.39659
 H1491 H 0.38394 1.10933 0.45537
 H1492 H 0.41900 1.08334 0.47927
 H1493 H 0.44499 1.03407 0.42024
 H1494 H 0.41066 1.06014 0.39647
 C1495 C 1.16514 0.65097 0.14272
 C1496 C 1.18977 0.66757 0.13768
 C1497 C 1.20296 0.68407 0.15475
 C1498 C 1.19189 0.68421 0.17726
 C1499 C 1.16698 0.66801 0.18214
 C1500 C 1.15374 0.65174 0.16510
 C1501 C 1.15117 0.63290 0.12489
 C1502 C 1.13953 0.60617 0.13077
 C1503 C 1.12448 0.59000 0.11458
 C1504 C 1.12085 0.59999 0.09199
 C1505 C 1.13350 0.62622 0.08584
 C1506 C 1.14843 0.64250 0.10210
 C1507 C 1.10226 0.58404 0.07551
 C1508 C 1.08347 0.59880 0.06062
 C1509 C 1.06366 0.58406 0.04695
 C1510 C 1.06195 0.55420 0.04793
 C1511 C 1.08155 0.53928 0.06202
 C1512 C 1.10153 0.55404 0.07562
 H1513 H 1.19924 0.66731 0.12067
 H1514 H 1.22224 0.69615 0.15046
 H1515 H 1.15768 0.66781 0.19922
 H1516 H 1.13439 0.63983 0.16947
 H1517 H 1.14175 0.59783 0.14803
 H1518 H 1.11482 0.57010 0.12005
 H1519 H 1.13151 0.63438 0.06851
 H1520 H 1.15702 0.66301 0.09698
 H1521 H 1.08310 0.62185 0.06026
 H1522 H 1.04889 0.59619 0.03624
 H1523 H 1.08090 0.51624 0.06302
 H1524 H 1.11606 0.54196 0.08654
 C1525 C 0.66527 1.15336 0.63972
 C1526 C 0.66098 1.14572 0.66282
 C1527 C 0.67411 1.16116 0.68046
 C1528 C 0.69206 1.18459 0.67547
 C1529 C 0.69628 1.19233 0.65233
 C1530 C 0.68289 1.17698 0.63466
 C1531 C 0.65106 1.13673 0.62116
 C1532 C 0.63711 1.15049 0.60274
 C1533 C 0.62141 1.13475 0.58654
 C1534 C 0.61944 1.10493 0.58839
 C1535 C 0.63469 1.09115 0.60616
 C1536 C 0.65021 1.10685 0.62237
 C1537 C 0.59963 1.08843 0.57322
 C1538 C 0.58230 1.06678 0.58269
 C1539 C 0.56201 1.05247 0.56925
 C1540 C 0.55843 1.05936 0.54594
 C1541 C 0.57633 1.08033 0.53612
 C1542 C 0.59666 1.09487 0.54969
 H1543 H 0.64715 1.12790 0.66729
 H1544 H 0.67034 1.15453 0.69803
 H1545 H 0.70995 1.21025 0.64785
 H1546 H 0.68669 1.18329 0.61702
 H1547 H 0.63727 1.17350 0.60143
 H1548 H 0.60971 1.14605 0.57320
 H1549 H 0.63416 1.06817 0.60780
 H1550 H 0.66128 1.09560 0.63607
 H1551 H 0.58365 1.06152 0.60077
 H1552 H 0.54864 1.03632 0.57730
 H1553 H 0.57402 1.08605 0.51818
 H1554 H 0.60988 1.11129 0.54185
 C1555 C 0.83421 0.34301 0.14305
 C1556 C 0.80699 0.33077 0.13852
 C1557 C 0.79301 0.31418 0.15524
 C1558 C 0.80576 0.31007 0.17695
 C1559 C 0.83287 0.32257 0.18145
 C1560 C 0.84703 0.33864 0.16464
 C1561 C 0.84962 0.36002 0.12536
 C1562 C 0.87892 0.35437 0.12057
 C1563 C 0.89398 0.37075 0.10448
 C1564 C 0.88023 0.39343 0.09303
 C1565 C 0.85092 0.39920 0.09782
 C1566 C 0.83564 0.38242 0.11370
 C1567 C 0.89691 0.41093 0.07638
 C1568 C 0.89721 0.44083 0.07783
 C1569 C 0.91603 0.45688 0.06395
 C1570 C 0.93463 0.44324 0.04828
 C1571 C 0.93293 0.41347 0.04597
 C1572 C 0.91443 0.39753 0.05993
 H1573 H 0.79676 0.33374 0.12194
 H1574 H 0.77203 0.30500 0.15135
 H1575 H 0.84327 0.31979 0.19799
 H1576 H 0.86791 0.34800 0.16861
 H1577 H 0.89015 0.33716 0.12926
 H1578 H 0.91663 0.36601 0.10127
 H1579 H 0.83983 0.41653 0.08917
 H1580 H 0.81310 0.38729 0.11723
 H1581 H 0.88393 0.45165 0.09043
 H1582 H 0.91682 0.47978 0.06610
 H1583 H 0.94673 0.40229 0.03393
 H1584 H 0.91429 0.37455 0.05825
 C1585 C 0.32996 0.84425 0.64342
 C1586 C 0.33530 0.85012 0.66665
 C1587 C 0.32204 0.83411 0.68396
 C1588 C 0.30274 0.81171 0.67859
 C1589 C 0.29751 0.80593 0.65512
 C1590 C 0.31106 0.82189 0.63783
 C1591 C 0.34450 0.86130 0.62522
 C1592 C 0.35723 0.84800 0.60610
 C1593 C 0.37307 0.86394 0.59006
 C1594 C 0.37640 0.89353 0.59275
 C1595 C 0.36250 0.90693 0.61132
 C1596 C 0.34684 0.89101 0.62738
 C1597 C 0.39602 0.91005 0.57737
 C1598 C 0.41440 0.93091 0.58669
 C1599 C 0.43435 0.94526 0.57288
 C1600 C 0.43657 0.93914 0.54935
 C1601 C 0.41770 0.91891 0.53975
 C1602 C 0.39766 0.90442 0.55366
 H1603 H 0.35013 0.86695 0.67148
 H1604 H 0.32701 0.83954 0.70160
 H1605 H 0.28292 0.78904 0.64992
 H1606 H 0.30644 0.81699 0.62004
 H1607 H 0.35594 0.82512 0.60406
 H1608 H 0.38374 0.85290 0.57611
 H1609 H 0.36408 0.92975 0.61363
 H1610 H 0.33676 0.90192 0.64168
 H1611 H 0.41409 0.93551 0.60489
 H1612 H 0.44852 0.96079 0.58078
 H1613 H 0.41890 0.91381 0.52165
 H1614 H 0.38360 0.88868 0.54592
 C1615 C 0.34647 1.15684 -0.15328
 C1616 C 0.32458 1.17573 -0.14613
 C1617 C 0.30955 1.19236 -0.16214
 C1618 C 0.31599 1.19037 -0.18567
 C1619 C 0.33801 1.17158 -0.19278
 C1620 C 0.35309 1.15506 -0.17677
 C1621 C 0.36237 1.13911 -0.13629
 C1622 C 0.36971 1.11070 -0.14128
 C1623 C 0.38471 1.09406 -0.12526
 C1624 C 0.39267 1.10547 -0.10389
 C1625 C 0.38523 1.13384 -0.09890
 C1626 C 0.37034 1.15048 -0.11493
 C1627 C 0.40843 1.08793 -0.08669
 C1628 C 0.43033 1.10021 -0.07317
 C1629 C 0.44376 1.08450 -0.05582
 C1630 C 0.43578 1.05609 -0.05168
 C1631 C 0.41476 1.04335 -0.06576
 C1632 C 0.40112 1.05917 -0.08307
 H1633 H 0.31870 1.17733 -0.12818
 H1634 H 0.29264 1.20650 -0.15606
 H1635 H 0.34366 1.16960 -0.21075
 H1636 H 0.37016 1.14107 -0.18278
 H1637 H 0.36357 1.10121 -0.15749
 H1638 H 0.39032 1.07235 -0.12968
 H1639 H 0.39064 1.14314 -0.08246
 H1640 H 0.36530 1.17236 -0.11065
 H1641 H 0.43695 1.12208 -0.07589
 H1642 H 0.46019 1.09475 -0.04543
 H1643 H 0.40821 1.02146 -0.06293
 H1644 H 0.38420 1.04916 -0.09309
 C1645 C 0.85733 0.66674 0.34912
 C1646 C 0.83479 0.68490 0.35623
 C1647 C 0.81760 0.69913 0.34008
 C1648 C 0.82244 0.69541 0.31644
 C1649 C 0.84530 0.67761 0.30935
 C1650 C 0.86257 0.66352 0.32549
 C1651 C 0.87445 0.65029 0.36626
 C1652 C 0.88212 0.62184 0.36189
 C1653 C 0.89659 0.60568 0.37847
 C1654 C 0.90361 0.61750 0.39990
 C1655 C 0.89672 0.64620 0.40407
 C1656 C 0.88230 0.66242 0.38742
 C1657 C 0.91668 0.59946 0.41817
 C1658 C 0.93834 0.61011 0.43283
 C1659 C 0.95000 0.59298 0.45027
 C1660 C 0.94016 0.56490 0.45337
 C1661 C 0.91861 0.55429 0.43863
 C1662 C 0.90697 0.57136 0.42131
 H1663 H 0.82991 0.68755 0.37428
 H1664 H 0.80022 0.71269 0.34617
 H1665 H 0.84985 0.67449 0.29129
 H1666 H 0.88007 0.65007 0.31945
 H1667 H 0.87617 0.61172 0.34589
 H1668 H 0.90200 0.58377 0.37459
 H1669 H 0.90168 0.65587 0.42046
 H1670 H 0.87707 0.68441 0.39119
 H1671 H 0.94646 0.63159 0.43068
 H1672 H 0.96671 0.60168 0.46127
 H1673 H 0.91046 0.53278 0.44058
 H1674 H 0.88994 0.56267 0.41062
 C1675 C 0.65447 1.14930 0.14842
 C1676 C 0.64812 1.14714 0.17193
 C1677 C 0.66374 1.16292 0.18791
 C1678 C 0.68600 1.18140 0.18077
 C1679 C 0.69223 1.18380 0.15723
 C1680 C 0.67665 1.16783 0.14121
 C1681 C 0.63771 1.13239 0.13159
 C1682 C 0.62912 1.14450 0.11060
 C1683 C 0.61255 1.12883 0.09508
 C1684 C 0.60411 1.10077 0.10027
 C1685 C 0.61292 1.08858 0.12118
 C1686 C 0.62960 1.10420 0.13665
 C1687 C 0.58637 1.08430 0.08380
 C1688 C 0.59207 1.05527 0.07991
 C1689 C 0.57641 1.04026 0.06338
 C1690 C 0.55496 1.05408 0.05034
 C1691 C 0.54857 1.08278 0.05476
 C1692 C 0.56405 1.09771 0.07137
 H1693 H 0.63078 1.13351 0.17798
 H1694 H 0.65816 1.16073 0.20589
 H1695 H 0.70931 1.19778 0.15120
 H1696 H 0.68222 1.16971 0.12320
 H1697 H 0.63479 1.16625 0.10631
 H1698 H 0.60651 1.13865 0.07892
 H1699 H 0.60659 1.06708 0.12573
 H1700 H 0.63624 1.09416 0.15257
 H1701 H 0.60928 1.04441 0.08909
 H1702 H 0.58177 1.01813 0.06027
 H1703 H 0.53188 1.09383 0.04511
 H1704 H 0.55870 1.11986 0.07438
 C1705 C 1.16406 0.65222 0.64200
 C1706 C 1.17715 0.67872 0.63801
 C1707 C 1.18980 0.69375 0.65597
 C1708 C 1.18968 0.68267 0.67844
 C1709 C 1.17640 0.65620 0.68254
 C1710 C 1.16381 0.64103 0.66443
 C1711 C 1.15044 0.63667 0.62273
 C1712 C 1.15461 0.60721 0.62006
 C1713 C 1.14171 0.59279 0.60173
 C1714 C 1.12422 0.60756 0.58591
 C1715 C 1.12036 0.63705 0.58847
 C1716 C 1.13334 0.65145 0.60666
 C1717 C 1.10841 0.59210 0.56770
 C1718 C 1.07890 0.59790 0.56404
 C1719 C 1.06313 0.58238 0.54801
 C1720 C 1.07652 0.56084 0.53511
 C1721 C 1.10628 0.55553 0.53817
 C1722 C 1.12208 0.57095 0.55450
 H1723 H 1.17794 0.68772 0.62087
 H1724 H 1.19976 0.71412 0.65217
 H1725 H 1.17603 0.64708 0.69964
 H1726 H 1.15358 0.62073 0.66798
 H1727 H 1.16795 0.59539 0.63207
 H1728 H 1.14477 0.56999 0.60025
 H1729 H 1.10709 0.64895 0.57645
 H1730 H 1.12957 0.67412 0.60840
 H1731 H 1.06772 0.61381 0.57417
 H1732 H 1.04019 0.58681 0.54616
 H1733 H 1.11708 0.53892 0.52854
 H1734 H 1.14489 0.56623 0.55693
 C1735 C 0.65456 0.85055 -0.15031
 C1736 C 0.67675 0.83208 -0.14294
 C1737 C 0.69289 0.81644 -0.15886
 C1738 C 0.68725 0.81911 -0.18248
 C1739 C 0.66503 0.83757 -0.18979
 C1740 C 0.64884 0.85302 -0.17391
 C1741 C 0.63722 0.86710 -0.13354
 C1742 C 0.62886 0.89527 -0.13845
 C1743 C 0.61199 0.91067 -0.12291
 C1744 C 0.60325 0.89828 -0.10205
 C1745 C 0.61180 0.87018 -0.09707
 C1746 C 0.62854 0.85473 -0.11266
 C1747 C 0.58562 0.91466 -0.08537
 C1748 C 0.56354 0.90118 -0.07274
 C1749 C 0.54822 0.91605 -0.05595
 C1750 C 0.55453 0.94477 -0.05155
 C1751 C 0.57577 0.95863 -0.06475
 C1752 C 0.59127 0.94368 -0.08144
 H1753 H 0.68190 0.82998 -0.12487
 H1754 H 0.70992 0.80248 -0.15267
 H1755 H 0.65991 0.83997 -0.20784
 H1756 H 0.63153 0.86662 -0.18011
 H1757 H 0.63553 0.90553 -0.15427
 H1758 H 0.60557 0.93219 -0.12734
 H1759 H 0.60581 0.86018 -0.08098
 H1760 H 0.63436 0.83297 -0.10848
 H1761 H 0.55823 0.87903 -0.07573
 H1762 H 0.53170 0.90496 -0.04618
 H1763 H 0.58109 0.98076 -0.06167
 H1764 H 0.60831 0.95461 -0.09074
 C1765 C 1.16686 0.35145 0.35720
 C1766 C 1.16746 0.36286 0.33485
 C1767 C 1.18049 0.34771 0.31689
 C1768 C 1.19340 0.32105 0.32106
 C1769 C 1.19288 0.30986 0.34350
 C1770 C 1.17975 0.32484 0.36130
 C1771 C 1.15218 0.36666 0.37620
 C1772 C 1.13391 0.35163 0.39125
 C1773 C 1.11959 0.36570 0.40899
 C1774 C 1.12333 0.39510 0.41217
 C1775 C 1.14208 0.41012 0.39747
 C1776 C 1.15626 0.39603 0.37952
 C1777 C 1.10595 0.41020 0.42970
 C1778 C 1.11860 0.43014 0.44465
 C1779 C 1.10145 0.44465 0.46072
 C1780 C 1.07141 0.43974 0.46169
 C1781 C 1.05897 0.41968 0.44683
 C1782 C 1.07605 0.40497 0.43113
 H1783 H 1.15742 0.38325 0.33122
 H1784 H 1.18062 0.35694 0.29983
 H1785 H 1.20258 0.28938 0.34738
 H1786 H 1.17985 0.31567 0.37839
 H1787 H 1.13020 0.32903 0.38899
 H1788 H 1.10533 0.35365 0.42015
 H1789 H 1.14508 0.43286 0.39946
 H1790 H 1.17046 0.40803 0.36827
 H1791 H 1.14166 0.43443 0.44387
 H1792 H 1.11146 0.46021 0.47189
 H1793 H 1.03584 0.41558 0.44714
 H1794 H 1.06571 0.38999 0.41963
 C1795 C 0.34412 0.84402 0.15164
 C1796 C 0.35066 0.84583 0.17514
 C1797 C 0.33560 0.82929 0.19112
 C1798 C 0.31370 0.81044 0.18397
 C1799 C 0.30729 0.80848 0.16043
 C1800 C 0.32229 0.82514 0.14446
 C1801 C 0.36014 0.86166 0.13469
 C1802 C 0.36827 0.85020 0.11339
 C1803 C 0.38346 0.86669 0.09747
 C1804 C 0.39102 0.89500 0.10250
 C1805 C 0.38285 0.90652 0.12378
 C1806 C 0.36756 0.89003 0.13970
 C1807 C 0.40715 0.91236 0.08542
 C1808 C 0.40010 0.94119 0.08173
 C1809 C 0.41408 0.95687 0.06454
 C1810 C 0.43519 0.94391 0.05065
 C1811 C 0.44293 0.91544 0.05486
 C1812 C 0.42915 0.89988 0.07211
 H1813 H 0.36769 0.85981 0.18118
 H1814 H 0.34124 0.83124 0.20909
 H1815 H 0.29046 0.79429 0.15434
 H1816 H 0.31648 0.82353 0.12649
 H1817 H 0.36318 0.82834 0.10911
 H1818 H 0.38902 0.85732 0.08108
 H1819 H 0.38854 0.92819 0.12822
 H1820 H 0.36129 0.89959 0.15586
 H1821 H 0.38310 0.95136 0.09160
 H1822 H 0.40772 0.97881 0.06163
 H1823 H 0.45942 0.90504 0.04461
 H1824 H 0.43557 0.87795 0.07490
 C1825 C 0.85047 0.33420 0.64715
 C1826 C 0.82812 0.31551 0.64084
 C1827 C 0.81205 0.30119 0.65757
 C1828 C 0.81783 0.30540 0.68103
 C1829 C 0.84055 0.32379 0.68733
 C1830 C 0.85679 0.33796 0.67053
 C1831 C 0.86624 0.35060 0.62935
 C1832 C 0.89660 0.35335 0.63009
 C1833 C 0.91116 0.36939 0.61340
 C1834 C 0.89553 0.38324 0.59593
 C1835 C 0.86523 0.38029 0.59513
 C1836 C 0.85075 0.36406 0.61162
 C1837 C 0.91045 0.40145 0.57885
 C1838 C 0.89920 0.42848 0.57360
 C1839 C 0.91243 0.44554 0.55703
 C1840 C 0.93708 0.43586 0.54515
 C1841 C 0.94860 0.40892 0.55057
 C1842 C 0.93548 0.39192 0.56741
 H1843 H 0.82304 0.31200 0.62291
 H1844 H 0.79486 0.28707 0.65205
 H1845 H 0.84568 0.32740 0.70523
 H1846 H 0.87379 0.35243 0.67583
 H1847 H 0.90902 0.34301 0.64353
 H1848 H 0.93453 0.37149 0.61442
 H1849 H 0.85272 0.39056 0.58171
 H1850 H 0.82732 0.36250 0.61076
 H1851 H 0.88016 0.43645 0.58240
 H1852 H 0.90306 0.46622 0.55331
 H1853 H 0.96766 0.40098 0.54178
 H1854 H 0.94448 0.37110 0.57114
 C1855 C 1.15907 1.16941 0.63861
 C1856 C 1.16665 1.15487 0.65882
 C1857 C 1.18043 1.16923 0.67674
 C1858 C 1.18747 1.19821 0.67449
 C1859 C 1.18011 1.21267 0.65413
 C1860 C 1.16565 1.19846 0.63644
 C1861 C 1.14402 1.15418 0.61999
 C1862 C 1.11611 1.16260 0.61311
 C1863 C 1.10083 1.14660 0.59690
 C1864 C 1.11360 1.12242 0.58696
 C1865 C 1.14196 1.11470 0.59319
 C1866 C 1.15694 1.13028 0.60980
 C1867 C 1.09659 1.10374 0.57171
 C1868 C 1.10707 1.09618 0.54992
 C1869 C 1.09212 1.07628 0.53655
 C1870 C 1.06699 1.06310 0.54513
 C1871 C 1.05624 1.07118 0.56671
 C1872 C 1.07071 1.09159 0.57976
 H1873 H 1.16159 1.13247 0.66080
 H1874 H 1.18603 1.15758 0.69220
 H1875 H 1.18522 1.23505 0.65204
 H1876 H 1.15992 1.20998 0.62095
 H1877 H 1.10578 1.18093 0.62089
 H1878 H 1.07891 1.15278 0.59236
 H1879 H 1.15203 1.09593 0.58589
 H1880 H 1.17848 1.12353 0.61492
 H1881 H 1.12705 1.10534 0.54347
 H1882 H 1.10088 1.07027 0.51999
 H1883 H 1.03691 1.06128 0.57368
 H1884 H 1.06242 1.09698 0.59661
 C1885 C 0.65074 0.66457 0.14711
 C1886 C 0.66285 0.69133 0.14219
 C1887 C 0.67897 0.70578 0.15883
 C1888 C 0.68289 0.69393 0.18083
 C1889 C 0.67029 0.66737 0.18583
 C1890 C 0.65457 0.65276 0.16909
 C1891 C 0.63476 0.64859 0.12925
 C1892 C 0.64113 0.61975 0.12543
 C1893 C 0.62623 0.60446 0.10865
 C1894 C 0.60440 0.61759 0.09551
 C1895 C 0.59785 0.64641 0.09938
 C1896 C 0.61312 0.66187 0.11598
 C1897 C 0.58839 0.60081 0.07814
 C1898 C 0.55790 0.60095 0.07757
 C1899 C 0.54291 0.58235 0.06303
 C1900 C 0.55821 0.56352 0.04869
 C1901 C 0.58869 0.56467 0.04837
 C1902 C 0.60360 0.58300 0.06302
 H1903 H 0.66033 0.70078 0.12532
 H1904 H 0.68825 0.72630 0.15451
 H1905 H 0.67293 0.65767 0.20259
 H1906 H 0.64525 0.63224 0.17334
 H1907 H 0.65786 0.60909 0.13531
 H1908 H 0.63147 0.58218 0.10616
 H1909 H 0.58114 0.65699 0.08943
 H1910 H 0.60774 0.68407 0.11872
 H1911 H 0.54569 0.61446 0.08912
 H1912 H 0.51942 0.58198 0.06362
 H1913 H 0.60112 0.55059 0.03742
 H1914 H 0.62711 0.58282 0.06291
 C1915 C 1.15603 0.83098 0.35852
 C1916 C 1.17916 0.81267 0.36407
 C1917 C 1.19347 0.79738 0.34683
 C1918 C 1.18491 0.80012 0.32372
 C1919 C 1.16128 0.81787 0.31835
 C1920 C 1.14699 0.83301 0.33553
 C1921 C 1.14179 0.84873 0.37632
 C1922 C 1.13427 0.87704 0.37121
 C1923 C 1.11946 0.89360 0.38717
 C1924 C 1.11182 0.88235 0.40870
 C1925 C 1.12026 0.85441 0.41428
 C1926 C 1.13509 0.83768 0.39818
 C1927 C 1.09448 0.89994 0.42473
 C1928 C 1.10207 0.90254 0.44803
 C1929 C 1.08754 0.92213 0.46211
 C1930 C 1.06531 0.93930 0.45300
 C1931 C 1.05667 0.93531 0.43013
 C1932 C 1.07103 0.91584 0.41619
 H1933 H 1.18671 0.81081 0.38161
 H1934 H 1.21162 0.78391 0.35155
 H1935 H 1.15387 0.82025 0.30081
 H1936 H 1.12883 0.84645 0.33078
 H1937 H 1.13984 0.88643 0.35479
 H1938 H 1.11388 0.91532 0.38264
 H1939 H 1.11462 0.84527 0.43078
 H1940 H 1.14058 0.81590 0.40256
 H1941 H 1.12006 0.89045 0.45502
 H1942 H 1.09452 0.92477 0.47973
 H1943 H 1.03927 0.94788 0.42275
 H1944 H 1.06426 0.91374 0.39847
 C1945 C 0.65028 0.33532 -0.14754
 C1946 C 0.65360 0.34695 -0.16962
 C1947 C 0.66900 0.33222 -0.18648
 C1948 C 0.68178 0.30572 -0.18150
 C1949 C 0.67836 0.29403 -0.15940
 C1950 C 0.66255 0.30861 -0.14262
 C1951 C 0.63468 0.35148 -0.12960
 C1952 C 0.61310 0.33844 -0.11614
 C1953 C 0.59797 0.35417 -0.09962
 C1954 C 0.60462 0.38301 -0.09602
 C1955 C 0.62646 0.39587 -0.10929
 C1956 C 0.64121 0.38031 -0.12599
 C1957 C 0.58858 0.40016 -0.07891
 C1958 C 0.60375 0.41823 -0.06400
 C1959 C 0.58880 0.43702 -0.04974
 C1960 C 0.55833 0.43835 -0.05028
 C1961 C 0.54306 0.41926 -0.06437
 C1962 C 0.55809 0.40022 -0.07851
 H1963 H 0.64413 0.36744 -0.17385
 H1964 H 0.67126 0.34180 -0.20332
 H1965 H 0.68781 0.27356 -0.15510
 H1966 H 0.66040 0.29931 -0.12567
 H1967 H 0.60761 0.31625 -0.11872
 H1968 H 0.58125 0.34382 -0.08955
 H1969 H 0.63176 0.41815 -0.10702
 H1970 H 0.65790 0.39076 -0.13604
 H1971 H 0.62726 0.41828 -0.06378
 H1972 H 0.60118 0.45129 -0.03895
 H1973 H 0.51957 0.41975 -0.06509
 H1974 H 0.54592 0.38652 -0.08993
 C1975 C 0.84776 1.16155 0.35531
 C1976 C 0.82372 1.17854 0.36104
 C1977 C 0.80809 1.19282 0.34392
 C1978 C 0.81620 1.19039 0.32070
 C1979 C 0.84056 1.17379 0.31508
 C1980 C 0.85617 1.15963 0.33216
 C1981 C 0.86374 1.14521 0.37314
 C1982 C 0.87322 1.11739 0.36843
 C1983 C 0.88933 1.10217 0.38455
 C1984 C 0.89635 1.11431 0.40585
 C1985 C 0.88616 1.14178 0.41097
 C1986 C 0.87003 1.15715 0.39471
 C1987 C 0.91459 1.09806 0.42226
 C1988 C 0.90714 1.09588 0.44563
 C1989 C 0.92256 1.07745 0.46019
 C1990 C 0.94554 1.06098 0.45150
 C1991 C 0.95402 1.06462 0.42853
 C1992 C 0.93877 1.08296 0.41410
 H1993 H 0.81657 1.18023 0.37870
 H1994 H 0.78939 1.20540 0.34884
 H1995 H 0.84762 1.17166 0.29743
 H1996 H 0.87496 1.14719 0.32723
 H1997 H 0.86807 1.10729 0.35224
 H1998 H 0.89627 1.08075 0.38037
 H1999 H 0.89131 1.15160 0.42727
 H2000 H 0.86312 1.17860 0.39879
 H2001 H 0.88860 1.10735 0.45233
 H2002 H 0.91567 1.07506 0.47787
 H2003 H 0.97198 1.05257 0.42148
 H2004 H 0.94543 1.08478 0.39632
 C2005 C 0.35252 0.66763 -0.14519
 C2006 C 0.33452 0.69099 -0.14015
 C2007 C 0.31732 0.70336 -0.15725
 C2008 C 0.31790 0.69277 -0.17981
 C2009 C 0.33596 0.66948 -0.18486
 C2010 C 0.35295 0.65699 -0.16773
 C2011 C 0.37034 0.65393 -0.12699
 C2012 C 0.39813 0.64329 -0.13205
 C2013 C 0.41396 0.62834 -0.11551
 C2014 C 0.40248 0.62386 -0.09343
 C2015 C 0.37522 0.63557 -0.08806
 C2016 C 0.35929 0.65035 -0.10467
 C2017 C 0.41791 0.60518 -0.07679
 C2018 C 0.40222 0.58575 -0.06321
 C2019 C 0.41666 0.56578 -0.04958
 C2020 C 0.44711 0.56460 -0.04937
 C2021 C 0.46287 0.58485 -0.06205
 C2022 C 0.44841 0.60499 -0.07558
 H2023 H 0.33395 0.69993 -0.12305
 H2024 H 0.30384 0.72145 -0.15284
 H2025 H 0.33677 0.66069 -0.20202
 H2026 H 0.36609 0.63865 -0.17210
 H2027 H 0.40752 0.64616 -0.14894
 H2028 H 0.43472 0.61937 -0.12034
 H2029 H 0.36595 0.63287 -0.07111
 H2030 H 0.33788 0.65811 -0.10023
 H2031 H 0.37876 0.58502 -0.06392
 H2032 H 0.40392 0.55048 -0.03995
 H2033 H 0.48637 0.58463 -0.06201
 H2034 H 0.46112 0.62004 -0.08547
 C2035 C 0.85201 0.83898 0.64472
 C2036 C 0.86046 0.84058 0.66787
 C2037 C 0.84476 0.82636 0.68487
 C2038 C 0.82031 0.81001 0.67913
 C2039 C 0.81219 0.80789 0.65590
 C2040 C 0.82787 0.82224 0.63887
 C2041 C 0.86795 0.85546 0.62696
 C2042 C 0.87385 0.84384 0.60520
 C2043 C 0.88957 0.85946 0.58888
 C2044 C 0.89975 0.88688 0.59411
 C2045 C 0.89326 0.89864 0.61565
 C2046 C 0.87754 0.88317 0.63185
 C2047 C 0.91730 0.90350 0.57749
 C2048 C 0.94151 0.91878 0.58531
 C2049 C 0.95604 0.93747 0.57074
 C2050 C 0.94682 0.94127 0.54797
 C2051 C 0.92382 0.92465 0.53959
 C2052 C 0.90911 0.90587 0.55430
 H2053 H 0.87931 0.85284 0.67287
 H2054 H 0.85182 0.82824 0.70254
 H2055 H 0.79340 0.79553 0.65088
 H2056 H 0.82067 0.82082 0.62122
 H2057 H 0.86686 0.82247 0.60099
 H2058 H 0.89434 0.84990 0.57240
 H2059 H 0.90020 0.92001 0.61994
 H2060 H 0.87269 0.89303 0.64819
 H2061 H 0.94874 0.91682 0.60294
 H2062 H 0.97406 0.94963 0.57753
 H2063 H 0.91636 0.92717 0.52206
 H2064 H 0.89051 0.89429 0.54785
 C2065 C 0.35649 0.33368 0.14484
 C2066 C 0.33859 0.31024 0.13999
 C2067 C 0.32163 0.29790 0.15722
 C2068 C 0.32234 0.30861 0.17974
 C2069 C 0.34042 0.33188 0.18464
 C2070 C 0.35719 0.34435 0.16738
 C2071 C 0.37379 0.34751 0.12642
 C2072 C 0.40158 0.35837 0.13110
 C2073 C 0.41690 0.37340 0.11432
 C2074 C 0.40491 0.37774 0.09239
 C2075 C 0.37765 0.36584 0.08741
 C2076 C 0.36222 0.35099 0.10426
 C2077 C 0.41982 0.39644 0.07551
 C2078 C 0.40369 0.41578 0.06214
 C2079 C 0.41769 0.43577 0.04827
 C2080 C 0.44812 0.43706 0.04763
 C2081 C 0.46429 0.41688 0.06008
 C2082 C 0.45027 0.39672 0.07384
 H2083 H 0.33787 0.30125 0.12290
 H2084 H 0.30815 0.27980 0.15292
 H2085 H 0.34134 0.34073 0.20178
 H2086 H 0.37029 0.36273 0.17161
 H2087 H 0.41134 0.35560 0.14787
 H2088 H 0.43769 0.38252 0.11885
 H2089 H 0.36799 0.36845 0.07059
 H2090 H 0.34080 0.34308 0.10011
 H2091 H 0.38025 0.41642 0.06320
 H2092 H 0.40465 0.45102 0.03883
 H2093 H 0.48779 0.41718 0.05970
 H2094 H 0.46330 0.38174 0.08356
   
