data_POSCAR
  _audit_creation_date              2014-09-24
  _audit_creation_method            'ToBaCCo'
  _symmetry_space_group_name_H-M    'P1'
  _symmetry_Int_Tables_number       1
  _symmetry_cell_setting            triclinic
  loop_
  _symmetry_equiv_pos_as_xyz
 x,y,z
_cell_length_a 39.4270
_cell_length_b 39.1277
_cell_length_c 39.8142
_cell_angle_alpha 90.174400
_cell_angle_beta 90.019300
_cell_angle_gamma 89.981500
loop_
  _atom_site_label
  _atom_site_type_symbol
  _atom_site_fract_x
  _atom_site_fract_y
  _atom_site_fract_z
C1 C 0.42411 0.27796 0.01514
 C2 C 0.42593 0.27953 -0.01893
 C3 C 0.39578 0.29381 -0.03017
 N4 N 0.37608 0.30220 -0.00353
 C5 C 0.39318 0.29207 0.02433
 C6 C 0.38642 0.29720 -0.06465
 C7 C 0.36433 0.32390 -0.07464
 C8 C 0.36781 0.34260 -0.10393
 C9 C 0.34236 0.36647 -0.10403
 C10 C 0.32373 0.36177 -0.07486
 N11 N 0.33787 0.33629 -0.05659
 C12 C 0.29529 0.38182 -0.06528
 C13 C 0.29040 0.39087 -0.03084
 C14 C 0.27360 0.41999 -0.01977
 C15 C 0.27212 0.41835 0.01429
 C16 C 0.28873 0.38863 0.02365
 N17 N 0.30029 0.37203 -0.00408
 C18 C 0.28978 0.37509 0.05676
 C19 C 0.30670 0.34401 0.06232
 C20 C 0.29585 0.31769 0.08281
 C21 C 0.32134 0.29362 0.08282
 C22 C 0.34692 0.30624 0.06250
 N23 N 0.33715 0.33622 0.04890
 C24 C 0.37904 0.29146 0.05723
 H25 H 0.44325 0.26609 0.03055
 H26 H 0.44719 0.27037 -0.03353
 H27 H 0.35203 0.35225 0.03399
 H28 H 0.38762 0.34042 -0.12262
 H29 H 0.33903 0.38610 -0.12283
 H30 H 0.26295 0.44056 -0.03443
 H31 H 0.25888 0.43678 0.02965
 H32 H 0.32067 0.26931 0.09567
 H33 H 0.32809 0.32581 -0.03463
 H34 H 0.27182 0.31567 0.09578
 C35 C 0.75919 0.61351 -0.02114
 C36 C 0.76065 0.61395 0.01293
 C37 C 0.73264 0.63209 0.02396
 N38 N 0.71433 0.64341 -0.00264
 C39 C 0.72987 0.63082 -0.03046
 C40 C 0.72442 0.63765 0.05823
 C41 C 0.70124 0.66325 0.06723
 C42 C 0.70645 0.68735 0.09208
 C43 C 0.67778 0.70744 0.09284
 C44 C 0.65533 0.69392 0.06939
 N45 N 0.67064 0.66787 0.05283
 C46 C 0.62122 0.70380 0.06357
 C47 C 0.60880 0.70068 0.03011
 C48 C 0.57514 0.69968 0.01980
 C49 C 0.57533 0.70016 -0.01460
 C50 C 0.60877 0.70352 -0.02441
 N51 N 0.62927 0.70280 0.00282
 C52 C 0.62023 0.71053 -0.05742
 C53 C 0.65064 0.69484 -0.06915
 C54 C 0.66517 0.69904 -0.10067
 C55 C 0.69274 0.67768 -0.10229
 C56 C 0.69380 0.65978 -0.07239
 N57 N 0.66838 0.67068 -0.05218
 C58 C 0.71779 0.63406 -0.06423
 H59 H 0.77815 0.60164 -0.03689
 H60 H 0.78063 0.60232 0.02752
 H61 H 0.66144 0.65966 -0.02943
 H62 H 0.72907 0.69078 0.10712
 H63 H 0.67487 0.73019 0.10800
 H64 H 0.55229 0.69851 0.03447
 H65 H 0.55313 0.69887 -0.03055
 H66 H 0.71015 0.67587 -0.12322
 H67 H 0.65960 0.65196 0.03477
 H68 H 0.65684 0.71480 -0.12125
 C69 C 0.61492 0.24402 0.98510
 C70 C 0.61511 0.24358 1.01935
 C71 C 0.62822 0.27457 1.03003
 N72 N 0.63741 0.29338 1.00292
 C73 C 0.62914 0.27488 0.97517
 C74 C 0.62963 0.28542 1.06432
 C75 C 0.65528 0.30823 1.07573
 C76 C 0.66836 0.30955 1.10813
 C77 C 0.69332 0.33412 1.10842
 C78 C 0.69538 0.34683 1.07607
 N79 N 0.67240 0.33066 1.05637
 C80 C 0.72001 0.37042 1.06447
 C81 C 0.73031 0.36853 1.03060
 C82 C 0.76356 0.36923 1.01939
 C83 C 0.76204 0.37080 0.98498
 C84 C 0.72793 0.37230 0.97667
 N85 N 0.70863 0.37010 1.00452
 C86 C 0.71392 0.37888 0.94476
 C87 C 0.68406 0.36057 0.93583
 C88 C 0.66191 0.36759 0.90968
 C89 C 0.63727 0.34275 0.91030
 C90 C 0.64612 0.31962 0.93508
 N91 N 0.67394 0.33136 0.95126
 C92 C 0.63051 0.28755 0.94149
 H93 H 0.60399 0.22389 0.97011
 H94 H 0.60600 0.22262 1.03450
 H95 H 0.68732 0.31817 0.96979
 H96 H 0.66228 0.29317 1.12909
 H97 H 0.70955 0.34013 1.12954
 H98 H 0.78638 0.36882 1.03447
 H99 H 0.78353 0.37146 0.96809
 H100 H 0.61504 0.34250 0.89441
 H101 H 0.66719 0.33632 1.03149
 H102 H 0.66241 0.38804 0.89171
 C103 C 0.31206 0.57401 0.97844
 C104 C 0.31269 0.57338 1.01298
 C105 C 0.30221 0.60543 1.02364
 N106 N 0.29622 0.62592 0.99707
 C107 C 0.30139 0.60644 0.96950
 C108 C 0.29637 0.61584 1.05711
 C109 C 0.31009 0.64779 1.06769
 C110 C 0.30559 0.66332 1.09883
 C111 C 0.32549 0.69213 1.09916
 C112 C 0.34239 0.69312 1.06868
 N113 N 0.33250 0.66638 1.04951
 C114 C 0.36685 0.71785 1.05939
 C115 C 0.36810 0.73000 1.02564
 C116 C 0.38167 0.76114 1.01589
 C117 C 0.38096 0.76184 0.98168
 C118 C 0.36689 0.73117 0.97111
 N119 N 0.35780 0.71230 0.99814
 C120 C 0.36450 0.72048 0.93696
 C121 C 0.34053 0.69557 0.92689
 C122 C 0.32368 0.69497 0.89636
 C123 C 0.30372 0.66611 0.89610
 C124 C 0.30835 0.65013 0.92686
 N125 N 0.33075 0.66846 0.94542
 C126 C 0.29482 0.61805 0.93669
 H127 H 0.31864 0.55313 0.96176
 H128 H 0.31981 0.55189 1.02853
 H129 H 0.34153 0.66085 0.96805
 H130 H 0.29046 0.65479 1.11980
 H131 H 0.32736 0.71024 1.11967
 H132 H 0.39128 0.78153 1.03160
 H133 H 0.39004 0.78280 0.96653
 H134 H 0.28839 0.65783 0.87512
 H135 H 0.34330 0.65911 1.02673
 H136 H 0.32538 0.71352 0.87633
 C137 C 0.01570 0.23913 0.37988
 C138 C -0.01885 0.23936 0.37966
 C139 C -0.02899 0.27113 0.36819
 N140 N -0.00119 0.28968 0.35972
 C141 C 0.02646 0.27027 0.36697
 C142 C -0.06336 0.28314 0.36840
 C143 C -0.07489 0.30623 0.34319
 C144 C -0.10787 0.30857 0.33100
 C145 C -0.10793 0.33302 0.30622
 C146 C -0.07492 0.34469 0.30337
 N147 N -0.05504 0.32794 0.32568
 C148 C -0.06299 0.36789 0.27871
 C149 C -0.02898 0.36517 0.26810
 C150 C -0.01804 0.36534 0.23504
 C151 C 0.01678 0.36592 0.23613
 C152 C 0.02561 0.36745 0.26981
 N153 N -0.00233 0.36617 0.28924
 C154 C 0.05812 0.37349 0.28329
 C155 C 0.06728 0.35503 0.31264
 C156 C 0.09407 0.36179 0.33420
 C157 C 0.09337 0.33707 0.35865
 C158 C 0.06786 0.31423 0.35025
 N159 N 0.05141 0.32605 0.32283
 C160 C 0.06074 0.28248 0.36609
 H161 H 0.03009 0.21819 0.38997
 H162 H -0.03460 0.21847 0.38810
 H163 H 0.03224 0.31317 0.30985
 H164 H -0.12948 0.29299 0.33765
 H165 H -0.12944 0.33965 0.29067
 H166 H -0.03355 0.36517 0.21262
 H167 H 0.03360 0.36602 0.21466
 H168 H 0.10954 0.33697 0.38055
 H169 H -0.02960 0.33271 0.33017
 H170 H 0.11243 0.38211 0.33346
 C171 C 0.02073 0.57608 0.69561
 C172 C -0.01401 0.57597 0.69609
 C173 C -0.02421 0.60958 0.69987
 N174 N 0.00313 0.63045 0.69944
 C175 C 0.03084 0.61006 0.69707
 C176 C -0.05768 0.62093 0.70684
 C177 C -0.06967 0.65112 0.69056
 C178 C -0.10181 0.66550 0.69376
 C179 C -0.10334 0.69269 0.67214
 C180 C -0.07274 0.69374 0.65519
 N181 N -0.05225 0.66867 0.66679
 C182 C -0.06425 0.71742 0.62964
 C183 C -0.03037 0.73027 0.62708
 C184 C -0.02117 0.75990 0.61018
 C185 C 0.01321 0.76191 0.61103
 C186 C 0.02448 0.73391 0.62899
 N187 N -0.00224 0.71511 0.63981
 C188 C 0.05908 0.72600 0.63470
 C189 C 0.06809 0.70300 0.66007
 C190 C 0.09283 0.70873 0.68396
 C191 C 0.09354 0.68009 0.70396
 C192 C 0.07022 0.65714 0.69061
 N193 N 0.05374 0.67212 0.66471
 C194 C 0.06447 0.62284 0.70046
 H195 H 0.03578 0.55320 0.69411
 H196 H -0.02996 0.55350 0.69473
 H197 H 0.03579 0.66066 0.64900
 H198 H -0.12285 0.65721 0.70900
 H199 H -0.12469 0.70986 0.66949
 H200 H -0.03725 0.77866 0.59826
 H201 H 0.02786 0.78218 0.59976
 H202 H 0.10853 0.67757 0.72653
 H203 H -0.02894 0.66181 0.65651
 H204 H 0.10778 0.73169 0.68731
 C205 C 0.98290 0.69564 0.42532
 C206 C 1.01765 0.69620 0.42579
 C207 C 1.02818 0.70033 0.39292
 N208 N 1.00107 0.70007 0.37214
 C209 C 0.97316 0.69743 0.39183
 C210 C 1.06166 0.70804 0.38229
 C211 C 1.07443 0.69175 0.35266
 C212 C 1.10695 0.69503 0.33949
 C213 C 1.10900 0.67369 0.31211
 C214 C 1.07828 0.65682 0.30969
 N215 N 1.05732 0.66810 0.33427
 C216 C 1.07002 0.63201 0.28500
 C217 C 1.03620 0.62888 0.27244
 C218 C 1.02723 0.61146 0.24328
 C219 C 0.99285 0.61204 0.24115
 C220 C 0.98136 0.63038 0.26862
 N221 N 1.00793 0.64165 0.28725
 C222 C 0.94673 0.63624 0.27611
 C223 C 0.93765 0.66185 0.29898
 C224 C 0.91320 0.68645 0.29345
 C225 C 0.91193 0.70610 0.32216
 C226 C 0.93464 0.69178 0.34483
 N227 N 0.95131 0.66571 0.32975
 C228 C 0.93971 0.70095 0.37890
 H229 H 0.96760 0.69399 0.44760
 H230 H 1.03339 0.69488 0.44803
 H231 H 0.96886 0.64929 0.34095
 H232 H 1.12783 0.71028 0.34860
 H233 H 1.13060 0.67160 0.29551
 H234 H 1.04338 0.59946 0.22479
 H235 H 0.97834 0.60045 0.22112
 H236 H 0.89690 0.72900 0.32506
 H237 H 1.03371 0.65780 0.34004
 H238 H 0.89870 0.69039 0.27069
 C239 C 0.97943 0.23260 0.62051
 C240 C 1.01402 0.23361 0.61890
 C241 C 1.02404 0.26466 0.63274
 N242 N 0.99627 0.28226 0.64308
 C243 C 0.96893 0.26310 0.63489
 C244 C 1.05710 0.27937 0.63074
 C245 C 1.06211 0.31153 0.64622
 C246 C 1.07944 0.33924 0.63301
 C247 C 1.07979 0.36413 0.65753
 C248 C 1.06238 0.35093 0.68475
 N249 N 1.05037 0.31955 0.67713
 C250 C 1.05778 0.36695 0.71612
 C251 C 1.02502 0.36618 0.73101
 C252 C 1.01596 0.38139 0.76125
 C253 C 0.98141 0.38024 0.76309
 C254 C 0.97002 0.36489 0.73377
 N255 N 0.99680 0.35557 0.71461
 C256 C 0.93540 0.36223 0.72403
 C257 C 0.92450 0.33575 0.70217
 C258 C 0.89305 0.31998 0.70353
 C259 C 0.89277 0.29525 0.67894
 C260 C 0.92411 0.29638 0.66328
 N261 N 0.94353 0.32070 0.67798
 C262 C 0.93460 0.27404 0.63725
 H263 H 0.96389 0.21194 0.61106
 H264 H 1.02926 0.21417 0.60695
 H265 H 0.96715 0.32882 0.66966
 H266 H 1.08999 0.34168 0.60804
 H267 H 1.09071 0.38938 0.65518
 H268 H 1.03181 0.39386 0.77966
 H269 H 0.96653 0.39053 0.78355
 H270 H 0.87240 0.27731 0.67437
 H271 H 1.03737 0.30323 0.69340
 H272 H 0.87293 0.32454 0.72145
 C273 C 0.38234 -0.01856 0.23965
 C274 C 0.38237 0.01627 0.23969
 C275 C 0.36647 0.02672 0.26903
 N276 N 0.35655 -0.00106 0.28679
 C277 C 0.36644 -0.02897 0.26902
 C278 C 0.36636 0.06061 0.28210
 C279 C 0.35028 0.06672 0.31311
 C280 C 0.36254 0.08679 0.33911
 C281 C 0.33796 0.08694 0.36366
 C282 C 0.31149 0.06702 0.35175
 N283 N 0.31984 0.05357 0.32160
 C284 C 0.28024 0.06116 0.36786
 C285 C 0.26668 0.02744 0.36733
 C286 C 0.23660 0.01727 0.38228
 C287 C 0.23657 -0.01757 0.38256
 C288 C 0.26666 -0.02827 0.36770
 N289 N 0.28482 -0.00052 0.35812
 C290 C 0.28026 -0.06212 0.36857
 C291 C 0.31166 -0.06800 0.35241
 C292 C 0.33861 -0.08698 0.36471
 C293 C 0.36308 -0.08725 0.34004
 C294 C 0.35036 -0.06834 0.31350
 N295 N 0.31971 -0.05541 0.32185
 C296 C 0.36634 -0.06287 0.28221
 H297 H 0.39532 -0.03371 0.22098
 H298 H 0.39532 0.03138 0.22108
 H299 H 0.30385 -0.04106 0.30626
 H300 H 0.38706 0.09907 0.34080
 H301 H 0.34005 0.09920 0.38796
 H302 H 0.21744 0.03257 0.39445
 H303 H 0.21736 -0.03245 0.39505
 H304 H 0.38779 -0.09916 0.34189
 H305 H 0.30426 0.03854 0.30629
 H306 H 0.34095 -0.09851 0.38926
 C307 C 0.69684 0.01748 0.57583
 C308 C 0.69649 -0.01751 0.57634
 C309 C 0.70030 -0.02713 0.60949
 N310 N 0.70083 0.00080 0.62951
 C311 C 0.69891 0.02834 0.60903
 C312 C 0.70719 -0.06066 0.62088
 C313 C 0.69169 -0.07246 0.65101
 C314 C 0.69458 -0.10503 0.66457
 C315 C 0.67403 -0.10608 0.69242
 C316 C 0.65805 -0.07466 0.69468
 N317 N 0.66913 -0.05429 0.66956
 C318 C 0.63412 -0.06515 0.71962
 C319 C 0.63346 -0.03085 0.73222
 C320 C 0.61796 -0.02066 0.76198
 C321 C 0.61961 0.01401 0.76333
 C322 C 0.63659 0.02442 0.73473
 N323 N 0.64615 -0.00309 0.71625
 C324 C 0.64157 0.05897 0.72542
 C325 C 0.66615 0.06748 0.70156
 C326 C 0.69048 0.09244 0.70574
 C327 C 0.70938 0.09259 0.67667
 C328 C 0.69478 0.06883 0.65502
 N329 N 0.66927 0.05259 0.67118
 C330 C 0.70328 0.06236 0.62097
 H331 H 0.69563 0.03214 0.55307
 H332 H 0.69472 -0.03403 0.55456
 H333 H 0.65276 0.03445 0.66097
 H334 H 0.70886 -0.12660 0.65533
 H335 H 0.67151 -0.12759 0.70924
 H336 H 0.60610 -0.03624 0.78101
 H337 H 0.60916 0.02950 0.78330
 H338 H 0.73208 0.10756 0.67297
 H339 H 0.65924 -0.03043 0.66350
 H340 H 0.69483 0.10790 0.72791
 C341 C 0.23241 0.98970 0.62648
 C342 C 0.23277 1.02459 0.62627
 C343 C 0.26431 1.03477 0.63839
 N344 N 0.28281 1.00676 0.64635
 C345 C 0.26375 0.97922 0.63823
 C346 C 0.27869 1.06816 0.63596
 C347 C 0.31084 1.07354 0.65096
 C348 C 0.33825 1.09060 0.63709
 C349 C 0.36366 1.09043 0.66089
 C350 C 0.35102 1.07325 0.68858
 N351 N 0.31945 1.06169 0.68168
 C352 C 0.36776 1.06773 0.71956
 C353 C 0.36563 1.03439 0.73393
 C354 C 0.37855 1.02435 0.76489
 C355 C 0.37739 0.98947 0.76566
 C356 C 0.36457 0.97879 0.73502
 N357 N 0.35653 1.00630 0.71609
 C358 C 0.36347 0.94424 0.72386
 C359 C 0.33795 0.93320 0.70126
 C360 C 0.32383 0.90075 0.70066
 C361 C 0.29905 0.90092 0.67638
 C362 C 0.29858 0.93348 0.66280
 N363 N 0.32204 0.95308 0.67841
 C364 C 0.27544 0.94490 0.63809
 H365 H 0.21164 0.97394 0.61779
 H366 H 0.21244 1.03989 0.61620
 H367 H 0.32897 0.97768 0.67157
 H368 H 0.34038 1.10082 0.61195
 H369 H 0.38897 1.10051 0.65751
 H370 H 0.38948 1.03972 0.78463
 H371 H 0.38611 0.97382 0.78628
 H372 H 0.28208 0.87994 0.67079
 H373 H 0.30356 1.04852 0.69819
 H374 H 0.32936 0.87961 0.71722
 C375 C 0.57528 1.01593 0.30997
 C376 C 0.57512 0.98079 0.30995
 C377 C 0.60751 0.97068 0.30085
 N378 N 0.62768 0.99807 0.29606
 C379 C 0.60776 1.02567 0.30088
 C380 C 0.61829 0.93697 0.29466
 C381 C 0.64940 0.92607 0.30905
 C382 C 0.66432 0.89414 0.30546
 C383 C 0.69271 0.89401 0.32561
 C384 C 0.69399 0.92547 0.34165
 N385 N 0.66777 0.94488 0.33117
 C386 C 0.71868 0.93559 0.36553
 C387 C 0.72992 0.97021 0.36758
 C388 C 0.76055 0.98045 0.38142
 C389 C 0.76061 1.01531 0.38168
 C390 C 0.72995 1.02585 0.36804
 N391 N 0.71181 0.99809 0.35820
 C392 C 0.71865 1.06058 0.36646
 C393 C 0.69442 1.07052 0.34200
 C394 C 0.69374 1.10164 0.32542
 C395 C 0.66548 1.10153 0.30512
 C396 C 0.65007 1.06991 0.30908
 N397 N 0.66801 1.05128 0.33158
 C398 C 0.61886 1.05922 0.29470
 H399 H 0.55401 1.03246 0.31564
 H400 H 0.55370 0.96450 0.31559
 H401 H 0.66052 1.02813 0.34200
 H402 H 0.65562 0.87264 0.29072
 H403 H 0.71051 0.87310 0.32793
 H404 H 0.78104 0.96466 0.39057
 H405 H 0.78115 1.03093 0.39108
 H406 H 0.65718 1.12288 0.29010
 H407 H 0.66075 0.96839 0.34125
 H408 H 0.71174 1.12239 0.32766
 O409 O 0.86039 0.80931 0.46771
 O410 O 0.81327 0.85873 0.53008
 O411 O 0.85768 0.81015 0.53187
 O412 O 0.81364 0.85632 0.46537
 O413 O 0.77377 0.81669 0.46407
 O414 O 0.81727 0.77105 0.53313
 O415 O 0.77195 0.82068 0.52912
 O416 O 0.82131 0.76895 0.46824
 Cu417 Cu 0.84019 0.83753 0.49870
 Cu418 Cu 0.79193 0.79037 0.49859
 C419 C 0.84976 0.78028 0.45813
 C420 C 0.78417 0.84890 0.53951
 C421 C 0.84556 0.78255 0.54344
 C422 C 0.78589 0.84487 0.45374
 O423 O 0.18415 0.14010 0.53334
 O424 O 0.13755 0.18464 0.46666
 O425 O 0.18450 0.13826 0.46833
 O426 O 0.13542 0.18474 0.53170
 O427 O 0.17385 0.22577 0.53252
 O428 O 0.22329 0.17895 0.46763
 O429 O 0.17602 0.22564 0.46645
 O430 O 0.22304 0.18069 0.53371
 Cu431 Cu 0.15663 0.15790 0.50000
 Cu432 Cu 0.20294 0.20691 0.50015
 C433 C 0.21155 0.15259 0.54486
 C434 C 0.14879 0.21264 0.45505
 C435 C 0.21200 0.15044 0.45698
 C436 C 0.14607 0.21310 0.54302
 O437 O 0.13834 0.81968 0.53439
 O438 O 0.18558 0.86402 0.46865
 O439 O 0.13764 0.81835 0.46968
 O440 O 0.18367 0.86729 0.53348
 O441 O 0.22439 0.82852 0.53433
 O442 O 0.17535 0.77681 0.47324
 O443 O 0.22421 0.82316 0.46843
 O444 O 0.17861 0.78060 0.53815
 Cu445 Cu 0.15749 0.84636 0.50126
 Cu446 Cu 0.20482 0.79833 0.50345
 C447 C 0.15025 0.79269 0.54758
 C448 C 0.21288 0.85133 0.45723
 C449 C 0.14762 0.78860 0.46168
 C450 C 0.21186 0.85661 0.54466
 O451 O 0.81340 0.13927 0.46375
 O452 O 0.85807 0.18378 0.53122
 O453 O 0.81050 0.13800 0.52799
 O454 O 0.85962 0.18648 0.46621
 O455 O 0.82088 0.22723 0.46635
 O456 O 0.77078 0.17777 0.52790
 O457 O 0.81899 0.22422 0.53213
 O458 O 0.77376 0.17919 0.46313
 Cu459 Cu 0.83939 0.15804 0.49728
 Cu460 Cu 0.79225 0.20634 0.49732
 C461 C 0.78557 0.15086 0.45257
 C462 C 0.84654 0.21153 0.54316
 C463 C 0.78194 0.14909 0.53795
 C464 C 0.84897 0.21525 0.45598
 O465 O 0.46654 0.86546 0.81579
 O466 O 0.53117 0.81833 0.86210
 O467 O 0.53207 0.86163 0.81286
 O468 O 0.46583 0.81702 0.86013
 O469 O 0.46337 0.77720 0.82074
 O470 O 0.53229 0.82052 0.77476
 O471 O 0.52869 0.77620 0.82518
 O472 O 0.46580 0.82605 0.77596
 Cu473 Cu 0.49906 0.84468 0.84139
 Cu474 Cu 0.49765 0.79605 0.79510
 C475 C 0.45533 0.85437 0.78799
 C476 C 0.53986 0.78865 0.85266
 C477 C 0.54341 0.84887 0.78570
 C478 C 0.45356 0.78926 0.84873
 O479 O 0.53128 0.18643 0.14154
 O480 O 0.46559 0.13964 0.18703
 O481 O 0.46622 0.18576 0.14030
 O482 O 0.53083 0.13931 0.18754
 O483 O 0.52839 0.17801 0.22793
 O484 O 0.46594 0.22720 0.17805
 O485 O 0.46266 0.18063 0.22521
 O486 O 0.53150 0.22638 0.18084
 Cu487 Cu 0.49862 0.15880 0.16028
 Cu488 Cu 0.49727 0.20714 0.20704
 C489 C 0.54202 0.21477 0.15285
 C490 C 0.45297 0.15187 0.21382
 C491 C 0.45569 0.21469 0.15035
 C492 C 0.53952 0.14975 0.21647
 O493 O 0.53772 0.13977 0.81362
 O494 O 0.47201 0.18792 0.85757
 O495 O 0.47186 0.14054 0.81174
 O496 O 0.53677 0.18573 0.86038
 O497 O 0.53969 0.22560 0.82131
 O498 O 0.47274 0.18064 0.77286
 O499 O 0.47410 0.22873 0.81950
 O500 O 0.54011 0.17913 0.77407
 Cu501 Cu 0.50427 0.15936 0.83946
 Cu502 Cu 0.50677 0.20738 0.79271
 C503 C 0.55045 0.15116 0.78662
 C504 C 0.46259 0.21698 0.84697
 C505 C 0.46091 0.15275 0.78432
 C506 C 0.54905 0.21352 0.84947
 O507 O 0.46335 0.81274 0.13997
 O508 O 0.52907 0.85791 0.18722
 O509 O 0.52830 0.81072 0.14080
 O510 O 0.46372 0.85842 0.18742
 O511 O 0.46076 0.81754 0.22545
 O512 O 0.52800 0.77050 0.17952
 O513 O 0.52655 0.81904 0.22720
 O514 O 0.46238 0.77150 0.17774
 Cu515 Cu 0.49633 0.83895 0.16009
 Cu516 Cu 0.49464 0.79053 0.20645
 C517 C 0.45227 0.78415 0.15012
 C518 C 0.53788 0.84724 0.21597
 C519 C 0.53856 0.78203 0.15158
 C520 C 0.45123 0.84638 0.21430
 O521 O 0.81505 0.47332 0.86311
 O522 O 0.86280 0.53526 0.81409
 O523 O 0.81403 0.53823 0.85792
 O524 O 0.85993 0.46935 0.81548
 O525 O 0.81972 0.46625 0.77695
 O526 O 0.77493 0.53806 0.81817
 O527 O 0.82483 0.53232 0.77344
 O528 O 0.77410 0.47218 0.82531
 Cu529 Cu 0.84190 0.50425 0.84142
 Cu530 Cu 0.79443 0.50213 0.79442
 C531 C 0.78602 0.46321 0.85370
 C532 C 0.85294 0.54342 0.78492
 C533 C 0.78627 0.54927 0.84594
 C534 C 0.84793 0.45622 0.78878
 O535 O 0.14753 0.53476 0.18766
 O536 O 0.18827 0.46604 0.14036
 O537 O 0.14055 0.46995 0.18521
 O538 O 0.19061 0.53139 0.13838
 O539 O 0.23201 0.52774 0.17559
 O540 O 0.17944 0.46688 0.22495
 O541 O 0.22811 0.46203 0.17914
 O542 O 0.18789 0.53293 0.22610
 Cu543 Cu 0.16279 0.50084 0.15919
 Cu544 Cu 0.21090 0.49716 0.20543
 C545 C 0.16013 0.54505 0.21525
 C546 C 0.21561 0.45285 0.15114
 C547 C 0.15038 0.45876 0.21339
 C548 C 0.22030 0.53901 0.14790
 O549 O 0.86523 0.47033 0.18223
 O550 O 0.81932 0.53679 0.13631
 O551 O 0.86644 0.53641 0.18180
 O552 O 0.81888 0.47071 0.13648
 O553 O 0.77885 0.47231 0.17523
 O554 O 0.82715 0.53873 0.22129
 O555 O 0.77996 0.53908 0.17571
 O556 O 0.82652 0.47192 0.22226
 Cu557 Cu 0.84636 0.50348 0.15531
 Cu558 Cu 0.79911 0.50539 0.20267
 C559 C 0.85410 0.46012 0.21036
 C560 C 0.79196 0.54927 0.14788
 C561 C 0.85520 0.54879 0.20911
 C562 C 0.79049 0.46066 0.14767
 O563 O 0.13960 0.46573 0.80956
 O564 O 0.18680 0.53138 0.85518
 O565 O 0.14107 0.53118 0.80753
 O566 O 0.18685 0.46592 0.85496
 O567 O 0.22703 0.46418 0.81635
 O568 O 0.18044 0.52983 0.76819
 O569 O 0.22745 0.52963 0.81708
 O570 O 0.17931 0.46325 0.77049
 Cu571 Cu 0.15961 0.49881 0.83557
 Cu572 Cu 0.20746 0.49692 0.78886
 C573 C 0.15093 0.45352 0.78225
 C574 C 0.21594 0.54038 0.84506
 C575 C 0.15224 0.54090 0.77925
 C576 C 0.21511 0.45458 0.84441
 C577 C 0.27061 0.39369 0.08515
 C578 C 0.23230 0.39476 0.07794
 C579 C 0.21407 0.41368 0.10004
 C580 C 0.23540 0.42979 0.12816
 C581 C 0.25421 0.39959 0.14432
 C582 C 0.27306 0.38086 0.12194
 C583 C 0.28202 0.43118 0.08853
 C584 C 0.26332 0.45004 0.11030
 H585 H 0.22037 0.38092 0.05743
 H586 H 0.18667 0.41574 0.09832
 H587 H 0.25477 0.39491 0.17117
 H588 H 0.29056 0.36152 0.13073
 H589 H 0.30388 0.44174 0.07562
 H590 H 0.26915 0.47661 0.11571
 C591 C 0.74151 0.61551 0.08523
 C592 C 0.72704 0.61589 0.12142
 C593 C 0.74367 0.59447 0.14308
 C594 C 0.77296 0.57447 0.12656
 C595 C 0.75646 0.55623 0.09675
 C596 C 0.73965 0.57731 0.07568
 C597 C 0.77937 0.62358 0.08989
 C598 C 0.79578 0.60212 0.11121
 H599 H 0.70493 0.63032 0.12924
 H600 H 0.73606 0.59144 0.16909
 H601 H 0.75612 0.52869 0.09360
 H602 H 0.72494 0.56745 0.05471
 H603 H 0.79201 0.64497 0.07794
 H604 H 0.82242 0.60522 0.11741
 C605 C 0.73219 0.40333 0.92023
 C606 C 0.75971 0.42635 0.93625
 C607 C 0.77743 0.44544 0.91406
 C608 C 0.76565 0.44138 0.87745
 C609 C 0.76780 0.40309 0.87003
 C610 C 0.75045 0.38335 0.89221
 C611 C 0.71015 0.43010 0.90189
 C612 C 0.72749 0.44952 0.87910
 H613 H 0.76165 0.43181 0.96290
 H614 H 0.79497 0.46505 0.92254
 H615 H 0.78175 0.39235 0.84899
 H616 H 0.74966 0.35570 0.89001
 H617 H 0.68451 0.43669 0.90937
 H618 H 0.71591 0.47105 0.86633
 C619 C 0.27327 0.59651 0.91215
 C620 C 0.29336 0.58450 0.88110
 C621 C 0.27476 0.56645 0.85828
 C622 C 0.23750 0.56157 0.86846
 C623 C 0.23915 0.54525 0.90346
 C624 C 0.25710 0.56356 0.92633
 C625 C 0.24231 0.61582 0.89789
 C626 C 0.22392 0.59775 0.87487
 H627 H 0.32016 0.58969 0.87749
 H628 H 0.28574 0.55639 0.83530
 H629 H 0.22514 0.52244 0.91044
 H630 H 0.25609 0.55665 0.95261
 H631 H 0.23494 0.64130 0.90592
 H632 H 0.20130 0.60796 0.86303
 C633 C 0.08791 0.26379 0.38750
 C634 C 0.07850 0.26764 0.42474
 C635 C 0.09907 0.25089 0.44620
 C636 C 0.12792 0.23140 0.42934
 C637 C 0.11093 0.20801 0.40318
 C638 C 0.09084 0.22501 0.38091
 C639 C 0.12579 0.27455 0.38554
 C640 C 0.14647 0.25818 0.40798
 H641 H 0.05774 0.28350 0.43365
 H642 H 0.09608 0.25298 0.47307
 H643 H 0.11658 0.18098 0.40052
 H644 H 0.08009 0.21240 0.35903
 H645 H 0.13684 0.28861 0.36485
 H646 H 0.17388 0.26062 0.40716
 C647 C 0.08642 0.74298 0.61286
 C648 C 0.09115 0.78122 0.62049
 C649 C 0.11290 0.79742 0.59937
 C650 C 0.12852 0.77403 0.57247
 C651 C 0.14498 0.74470 0.59241
 C652 C 0.12292 0.72829 0.61349
 C653 C 0.07699 0.74072 0.57530
 C654 C 0.09846 0.75734 0.55453
 H655 H 0.07891 0.79426 0.64132
 H656 H 0.11921 0.82429 0.60219
 H657 H 0.17124 0.73690 0.58961
 H658 H 0.13066 0.70616 0.62791
 H659 H 0.05573 0.72603 0.56565
 H660 H 0.09529 0.75699 0.52743
 C661 C 0.91276 0.72056 0.39957
 C662 C 0.90622 0.70661 0.43515
 C663 C 0.88571 0.72672 0.45444
 C664 C 0.87224 0.75850 0.43619
 C665 C 0.90389 0.77720 0.42348
 C666 C 0.92468 0.75760 0.40454
 C667 C 0.87605 0.72359 0.38581
 C668 C 0.85523 0.74408 0.40453
 H669 H 0.91316 0.68101 0.44301
 H670 H 0.87686 0.71870 0.47900
 H671 H 0.90940 0.80396 0.42827
 H672 H 0.94771 0.76782 0.39347
 H673 H 0.86524 0.70678 0.36697
 H674 H 0.82822 0.74609 0.39962
 C675 C 0.90849 0.25874 0.61253
 C676 C 0.89704 0.22259 0.62237
 C677 C 0.87587 0.20746 0.59981
 C678 C 0.86761 0.22970 0.56920
 C679 C 0.85351 0.26318 0.58401
 C680 C 0.87503 0.27863 0.60638
 C681 C 0.92295 0.25546 0.57666
 C682 C 0.90202 0.23983 0.55452
 H683 H 0.90461 0.21016 0.64552
 H684 H 0.86539 0.18213 0.60375
 H685 H 0.82972 0.27471 0.57632
 H686 H 0.86957 0.30372 0.61669
 H687 H 0.94709 0.26612 0.56879
 H688 H 0.90874 0.23669 0.52835
 C689 C 0.38803 0.08829 0.26494
 C690 C 0.37923 0.09315 0.22751
 C691 C 0.40052 0.11446 0.21075
 C692 C 0.42829 0.13017 0.23298
 C693 C 0.40866 0.14733 0.26185
 C694 C 0.38716 0.12559 0.27829
 C695 C 0.42572 0.07837 0.26596
 C696 C 0.44647 0.09990 0.24923
 H697 H 0.35718 0.08180 0.21553
 H698 H 0.39675 0.12102 0.18454
 H699 H 0.40909 0.17461 0.26684
 H700 H 0.36867 0.13541 0.29598
 H701 H 0.43542 0.05643 0.27958
 H702 H 0.47374 0.09638 0.24877
 C703 C 0.61878 0.08674 0.74076
 C704 C 0.58129 0.07567 0.73938
 C705 C 0.55960 0.09740 0.75464
 C706 C 0.57641 0.12935 0.76911
 C707 C 0.60430 0.11615 0.79273
 C708 C 0.62643 0.09410 0.77793
 C709 C 0.61799 0.12258 0.72429
 C710 C 0.59581 0.14492 0.73926
 H711 H 0.57231 0.05297 0.72637
 H712 H 0.53256 0.09289 0.75497
 H713 H 0.60701 0.12429 0.81869
 H714 H 0.64800 0.08346 0.79124
 H715 H 0.63249 0.12967 0.70225
 H716 H 0.59204 0.17080 0.73027
 C717 C 0.38818 0.91821 0.73963
 C718 C 0.39675 0.88570 0.71897
 C719 C 0.41843 0.86366 0.73474
 C720 C 0.43038 0.87641 0.76936
 C721 C 0.44523 0.91188 0.76242
 C722 C 0.42373 0.93330 0.74635
 C723 C 0.37574 0.90480 0.77371
 C724 C 0.39767 0.88312 0.78918
 H725 H 0.38853 0.88133 0.69331
 H726 H 0.42764 0.84048 0.72280
 H727 H 0.47093 0.91929 0.76866
 H728 H 0.43194 0.95832 0.73790
 H729 H 0.35138 0.91155 0.78456
 H730 H 0.39201 0.87136 0.81320
 C731 C 0.59649 0.91277 0.27294
 C732 C 0.61579 0.89553 0.24368
 C733 C 0.59680 0.87301 0.22537
 C734 C 0.55990 0.87013 0.23731
 C735 C 0.56224 0.86085 0.27471
 C736 C 0.58121 0.88310 0.29322
 C737 C 0.56593 0.92930 0.25483
 C738 C 0.54673 0.90704 0.23695
 H739 H 0.64185 0.90146 0.23715
 H740 H 0.60681 0.85942 0.20372
 H741 H 0.54996 0.83881 0.28584
 H742 H 0.58501 0.87994 0.32003
 H743 H 0.56179 0.95653 0.25218
 H744 H 0.52605 0.91574 0.22111
 C745 C 0.40424 0.27648 0.91027
 C746 C 0.44002 0.29020 0.90307
 C747 C 0.45855 0.27052 0.88184
 C748 C 0.44004 0.23859 0.86907
 C749 C 0.42807 0.21973 0.90074
 C750 C 0.40888 0.23904 0.92158
 C751 C 0.38804 0.27168 0.87496
 C752 C 0.40710 0.25220 0.85333
 H753 H 0.44958 0.31420 0.91305
 H754 H 0.48363 0.27805 0.87344
 H755 H 0.43184 0.19265 0.90528
 H756 H 0.39638 0.22799 0.94329
 H757 H 0.36291 0.28057 0.86813
 H758 H 0.39854 0.24546 0.82826
 C759 C 0.59860 0.73294 0.91868
 C760 C 0.56933 0.75361 0.93477
 C761 C 0.54977 0.77083 0.91248
 C762 C 0.56181 0.76784 0.87591
 C763 C 0.59912 0.77905 0.87718
 C764 C 0.61818 0.76128 0.89989
 C765 C 0.58176 0.71126 0.89099
 C766 C 0.56275 0.72932 0.86874
 H767 H 0.56697 0.75908 0.96136
 H768 H 0.53012 0.78838 0.92076
 H769 H 0.60923 0.80028 0.86284
 H770 H 0.64429 0.76811 0.90533
 H771 H 0.58458 0.68372 0.88915
 H772 H 0.54945 0.71711 0.84807
 C773 C 0.38884 0.73348 0.08473
 C774 C 0.39557 0.71330 0.11762
 C775 C 0.41588 0.72998 0.14014
 C776 C 0.42858 0.76480 0.12753
 C777 C 0.44564 0.75658 0.09388
 C778 C 0.42536 0.73970 0.07193
 C779 C 0.37570 0.76853 0.09655
 C780 C 0.39641 0.78484 0.11866
 H781 H 0.38781 0.68707 0.12185
 H782 H 0.42401 0.71831 0.16348
 H783 H 0.47221 0.76155 0.08858
 H784 H 0.43511 0.72995 0.04826
 H785 H 0.35172 0.77942 0.08847
 H786 H 0.39012 0.80957 0.12941
 C787 C 0.60567 0.26808 0.08990
 C788 C 0.56998 0.26038 0.07575
 C789 C 0.54963 0.24261 0.09687
 C790 C 0.56575 0.23508 0.13113
 C791 C 0.59895 0.21638 0.12326
 C792 C 0.61970 0.23353 0.10192
 C793 C 0.59696 0.28796 0.12251
 C794 C 0.57660 0.27045 0.14429
 H795 H 0.56068 0.26985 0.05186
 H796 H 0.52361 0.23628 0.09043
 H797 H 0.60581 0.19184 0.13398
 H798 H 0.64427 0.22357 0.09441
 H799 H 0.60368 0.31446 0.12699
 H800 H 0.56722 0.28179 0.16739
 C801 C 0.26284 0.09321 0.61367
 C802 C 0.22595 0.10195 0.62361
 C803 C 0.20914 0.12178 0.60099
 C804 C 0.23081 0.13237 0.57075
 C805 C 0.26213 0.14949 0.58665
 C806 C 0.27857 0.12934 0.60955
 C807 C 0.26101 0.07901 0.57762
 C808 C 0.24401 0.09897 0.55575
 H809 H 0.21448 0.09435 0.64723
 H810 H 0.18341 0.13071 0.60522
 H811 H 0.26865 0.17618 0.58307
 H812 H 0.29755 0.14032 0.62603
 H813 H 0.27208 0.05479 0.56991
 H814 H 0.24000 0.09132 0.52997
 C815 C 0.73442 0.08607 0.38848
 C816 C 0.73978 0.07287 0.42467
 C817 C 0.75675 0.09470 0.44508
 C818 C 0.76602 0.12874 0.42849
 C819 C 0.78611 0.11919 0.39687
 C820 C 0.76967 0.09718 0.37603
 C821 C 0.71514 0.12011 0.39501
 C822 C 0.73197 0.14256 0.41548
 H823 H 0.72936 0.04907 0.43411
 H824 H 0.76114 0.08911 0.47144
 H825 H 0.81097 0.12950 0.39100
 H826 H 0.78058 0.08872 0.35238
 H827 H 0.68932 0.12515 0.38702
 H828 H 0.72089 0.16662 0.42350
 C829 C 0.72924 0.91512 0.59920
 C830 C 0.75062 0.93214 0.57127
 C831 C 0.76764 0.90988 0.55132
 C832 C 0.76373 0.87234 0.56170
 C833 C 0.77417 0.87190 0.59887
 C834 C 0.75659 0.89461 0.61835
 C835 C 0.70750 0.88815 0.58104
 C836 C 0.72535 0.86590 0.56162
 H837 H 0.75614 0.95924 0.56988
 H838 H 0.78528 0.91865 0.53226
 H839 H 0.79480 0.85647 0.60865
 H840 H 0.76296 0.89896 0.64454
 H841 H 0.68009 0.88681 0.58327
 H842 H 0.71310 0.84572 0.54732
 C843 C 0.26430 0.91221 0.39007
 C844 C 0.22664 0.90601 0.38137
 C845 C 0.20991 0.88563 0.40345
 C846 C 0.23236 0.87184 0.43185
 C847 C 0.26187 0.85417 0.41341
 C848 C 0.27827 0.87503 0.39107
 C849 C 0.26501 0.92394 0.42699
 C850 C 0.24823 0.90327 0.44842
 H851 H 0.21450 0.91570 0.35883
 H852 H 0.18361 0.87827 0.39979
 H853 H 0.26713 0.82700 0.41506
 H854 H 0.29600 0.86434 0.37311
 H855 H 0.27850 0.94648 0.43574
 H856 H 0.24755 0.90818 0.47522
 C857 C 0.08582 0.38894 0.73224
 C858 C 0.07511 0.42670 0.73354
 C859 C 0.09712 0.44740 0.74988
 C860 C 0.12865 0.42910 0.76327
 C861 C 0.11520 0.39988 0.78515
 C862 C 0.09333 0.37870 0.76886
 C863 C 0.12182 0.38954 0.71650
 C864 C 0.14403 0.41099 0.73250
 H865 H 0.05207 0.43645 0.72208
 H866 H 0.09272 0.47467 0.75252
 H867 H 0.12347 0.39523 0.81074
 H868 H 0.08319 0.35586 0.78060
 H869 H 0.13068 0.37205 0.69728
 H870 H 0.17065 0.41239 0.72572
 C871 C 0.09772 0.60932 0.26884
 C872 C 0.10611 0.62135 0.23305
 C873 C 0.12748 0.60054 0.21590
 C874 C 0.13934 0.56939 0.23588
 C875 C 0.15480 0.58426 0.26833
 C876 C 0.13285 0.60488 0.28590
 C877 C 0.08588 0.57185 0.26560
 C878 C 0.10699 0.55149 0.24778
 H879 H 0.09641 0.64490 0.22235
 H880 H 0.13603 0.60633 0.19063
 H881 H 0.17961 0.57727 0.27793
 H882 H 0.13901 0.61383 0.31095
 H883 H 0.06342 0.56174 0.27783
 H884 H 0.10221 0.52432 0.24460
 C885 C 0.91445 0.39174 0.26164
 C886 C 0.88546 0.40691 0.28331
 C887 C 0.86473 0.42897 0.26653
 C888 C 0.87517 0.43484 0.22979
 C889 C 0.91230 0.44626 0.23198
 C890 C 0.93264 0.42423 0.24875
 C891 C 0.89670 0.37654 0.23059
 C892 C 0.87634 0.39902 0.21397
 H893 H 0.88240 0.40218 0.30998
 H894 H 0.84398 0.44225 0.27884
 H895 H 0.92167 0.47034 0.22221
 H896 H 0.95903 0.43040 0.25369
 H897 H 0.89973 0.35020 0.22251
 H898 H 0.86201 0.39183 0.19176
 C899 C 0.91958 0.60071 0.72819
 C900 C 0.89148 0.58311 0.70749
 C901 C 0.86903 0.56459 0.72589
 C902 C 0.87641 0.56475 0.76369
 C903 C 0.91331 0.55256 0.76670
 C904 C 0.93583 0.57171 0.74921
 C905 C 0.90077 0.62124 0.75578
 C906 C 0.87783 0.60262 0.77378
 H907 H 0.88954 0.58500 0.68036
 H908 H 0.84813 0.55083 0.71438
 H909 H 0.92166 0.53316 0.78432
 H910 H 0.96268 0.56932 0.75455
 H911 H 0.90626 0.64774 0.76183
 H912 H 0.86343 0.61346 0.79447
 C913 C 0.73326 0.61270 0.90963
 C914 C 0.76943 0.62474 0.90118
 C915 C 0.78641 0.60420 0.87946
 C916 C 0.76594 0.57332 0.86732
 C917 C 0.75412 0.55491 0.89913
 C918 C 0.73639 0.57495 0.92058
 C919 C 0.71566 0.60871 0.87487
 C920 C 0.73312 0.58849 0.85260
 H921 H 0.78055 0.64806 0.91110
 H922 H 0.81190 0.61001 0.87088
 H923 H 0.75715 0.52764 0.90326
 H924 H 0.72408 0.56439 0.94263
 H925 H 0.69029 0.61768 0.86913
 H926 H 0.72312 0.58188 0.82803
 C927 C 0.27434 0.39864 0.90932
 C928 C 0.28600 0.43555 0.90306
 C929 C 0.26614 0.45326 0.88152
 C930 C 0.23628 0.43279 0.86729
 C931 C 0.25232 0.40064 0.85167
 C932 C 0.27185 0.38240 0.87374
 C933 C 0.23649 0.40094 0.91938
 C934 C 0.21698 0.41935 0.89802
 H935 H 0.30841 0.44675 0.91453
 H936 H 0.27162 0.47954 0.87470
 H937 H 0.24694 0.39177 0.82638
 H938 H 0.28212 0.35757 0.86705
 H939 H 0.22551 0.38751 0.94059
 H940 H 0.18976 0.42163 0.90147
 C941 C 0.27645 0.59491 0.08019
 C942 C 0.29719 0.58274 0.11081
 C943 C 0.27906 0.56467 0.13384
 C944 C 0.24168 0.55981 0.12430
 C945 C 0.22788 0.59595 0.11842
 C946 C 0.24558 0.61402 0.09509
 C947 C 0.26000 0.56191 0.06604
 C948 C 0.24259 0.54352 0.08916
 H949 H 0.32409 0.58775 0.11394
 H950 H 0.29051 0.55445 0.15648
 H951 H 0.20539 0.60604 0.13067
 H952 H 0.23768 0.63935 0.08720
 H953 H 0.25797 0.55517 0.03974
 H954 H 0.22822 0.52087 0.08227
 C955 C 0.73758 0.39371 0.08718
 C956 C 0.75027 0.42668 0.06982
 C957 C 0.76760 0.44819 0.09024
 C958 C 0.77044 0.43586 0.12664
 C959 C 0.73353 0.42964 0.13749
 C960 C 0.71621 0.40805 0.11667
 C961 C 0.76923 0.37814 0.10377
 C962 C 0.78638 0.40012 0.12424
 H963 H 0.74485 0.43349 0.04395
 H964 H 0.77746 0.47244 0.08140
 H965 H 0.72150 0.44232 0.15863
 H966 H 0.68935 0.40310 0.12008
 H967 H 0.77731 0.35188 0.09994
 H968 H 0.80904 0.39263 0.13786
 C969 C 0.90963 0.73194 0.60779
 C970 C 0.89962 0.76823 0.61903
 C971 C 0.87778 0.78436 0.59811
 C972 C 0.86712 0.76296 0.56766
 C973 C 0.90015 0.75191 0.55056
 C974 C 0.92174 0.73498 0.57099
 C975 C 0.87525 0.71303 0.60313
 C976 C 0.85284 0.72963 0.58248
 H977 H 0.90861 0.78005 0.64209
 H978 H 0.86814 0.80984 0.60332
 H979 H 0.90523 0.75514 0.52395
 H980 H 0.94478 0.72331 0.56135
 H981 H 0.86996 0.68748 0.61220
 H982 H 0.82854 0.71872 0.57546
 C983 C 0.91242 0.26726 0.39155
 C984 C 0.92769 0.25841 0.42629
 C985 C 0.90650 0.24098 0.44683
 C986 C 0.87103 0.23517 0.43219
 C987 C 0.85884 0.27125 0.42264
 C988 C 0.88073 0.28828 0.40196
 C989 C 0.89820 0.23346 0.37754
 C990 C 0.87684 0.21680 0.39867
 H991 H 0.95252 0.26671 0.43485
 H992 H 0.91394 0.23350 0.47192
 H993 H 0.83640 0.28333 0.43308
 H994 H 0.87701 0.31507 0.39601
 H995 H 0.90426 0.22360 0.35273
 H996 H 0.86471 0.19285 0.39188
 C997 C 0.08286 0.26354 0.60928
 C998 C 0.09115 0.22629 0.61917
 C999 C 0.11226 0.20975 0.59742
 C1000 C 0.12421 0.23197 0.56797
 C1001 C 0.09168 0.24501 0.55154
 C1002 C 0.07061 0.26187 0.57262
 C1003 C 0.11885 0.27958 0.60709
 C1004 C 0.14008 0.26345 0.58500
 H1005 H 0.08218 0.21436 0.64210
 H1006 H 0.12097 0.18380 0.60173
 H1007 H 0.08500 0.24028 0.52562
 H1008 H 0.04662 0.27238 0.56404
 H1009 H 0.12889 0.29840 0.62444
 H1010 H 0.16671 0.27015 0.58292
 C1011 C 0.08355 0.73014 0.40284
 C1012 C 0.11104 0.70943 0.42124
 C1013 C 0.13257 0.72845 0.44031
 C1014 C 0.12496 0.76690 0.43980
 C1015 C 0.12498 0.77685 0.40252
 C1016 C 0.10297 0.75816 0.38335
 C1017 C 0.06602 0.75169 0.43063
 C1018 C 0.08763 0.76983 0.45031
 H1019 H 0.11328 0.68182 0.41950
 H1020 H 0.15297 0.71697 0.45470
 H1021 H 0.13960 0.79796 0.39243
 H1022 H 0.09846 0.76409 0.35710
 H1023 H 0.03902 0.75672 0.43203
 H1024 H 0.07845 0.78770 0.46915
 C1025 C 0.61117 0.90968 0.73459
 C1026 C 0.60444 0.87513 0.71639
 C1027 C 0.58265 0.85389 0.73320
 C1028 C 0.56879 0.86937 0.76607
 C1029 C 0.60035 0.87869 0.78655
 C1030 C 0.62246 0.89934 0.77017
 C1031 C 0.57475 0.92387 0.73815
 C1032 C 0.55323 0.90338 0.75518
 H1033 H 0.61283 0.86904 0.69115
 H1034 H 0.57414 0.82974 0.72271
 H1035 H 0.60540 0.86899 0.81159
 H1036 H 0.64636 0.90721 0.78133
 H1037 H 0.56606 0.94742 0.72661
 H1038 H 0.52673 0.90979 0.75835
 C1039 C 0.38683 0.91066 0.26596
 C1040 C 0.38600 0.87339 0.27939
 C1041 C 0.40736 0.85147 0.26282
 C1042 C 0.42678 0.86831 0.23372
 C1043 C 0.39883 0.88386 0.21172
 C1044 C 0.37766 0.90531 0.22859
 C1045 C 0.42464 0.92037 0.26667
 C1046 C 0.44516 0.89865 0.24975
 H1047 H 0.36763 0.86368 0.29720
 H1048 H 0.40778 0.82423 0.26785
 H1049 H 0.39477 0.87699 0.18558
 H1050 H 0.35547 0.91644 0.21672
 H1051 H 0.43462 0.94229 0.28025
 H1052 H 0.47245 0.90206 0.24904
 C1053 C 0.59730 0.08355 0.27307
 C1054 C 0.58258 0.11357 0.29344
 C1055 C 0.56387 0.13602 0.27506
 C1056 C 0.56121 0.12659 0.23767
 C1057 C 0.59799 0.12306 0.22554
 C1058 C 0.61671 0.10030 0.24371
 C1059 C 0.56640 0.06742 0.25509
 C1060 C 0.54748 0.08989 0.23730
 H1061 H 0.58655 0.11681 0.32025
 H1062 H 0.55198 0.15833 0.28627
 H1063 H 0.60809 0.13633 0.20383
 H1064 H 0.64262 0.09385 0.23700
 H1065 H 0.56189 0.04024 0.25239
 H1066 H 0.52669 0.08144 0.22143
 C1067 C 0.39067 0.09296 0.73458
 C1068 C 0.38143 0.10174 0.77128
 C1069 C 0.40454 0.12173 0.78740
 C1070 C 0.43461 0.13247 0.76534
 C1071 C 0.44960 0.09916 0.75184
 C1072 C 0.42715 0.07897 0.73557
 C1073 C 0.39443 0.12912 0.71891
 C1074 C 0.41787 0.14946 0.73471
 H1075 H 0.35784 0.09407 0.78315
 H1076 H 0.40072 0.13073 0.81294
 H1077 H 0.47597 0.09209 0.75447
 H1078 H 0.43482 0.05497 0.72407
 H1079 H 0.37738 0.13999 0.70049
 H1080 H 0.42131 0.17615 0.72822
 C1081 C 0.59975 0.72320 0.09009
 C1082 C 0.56371 0.70901 0.09558
 C1083 C 0.54363 0.72889 0.11553
 C1084 C 0.56158 0.76067 0.12970
 C1085 C 0.59318 0.74629 0.14717
 C1086 C 0.61271 0.72607 0.12682
 C1087 C 0.59489 0.76034 0.07857
 C1088 C 0.57517 0.77968 0.09888
 H1089 H 0.55594 0.68352 0.08804
 H1090 H 0.51844 0.72089 0.12324
 H1091 H 0.59743 0.74808 0.17406
 H1092 H 0.63139 0.70922 0.13789
 H1093 H 0.60663 0.77082 0.05618
 H1094 H 0.57039 0.80646 0.09363
 C1095 C 0.39767 0.27180 0.08524
 C1096 C 0.40038 0.23371 0.07612
 C1097 C 0.41908 0.21492 0.09774
 C1098 C 0.43341 0.23542 0.12747
 C1099 C 0.45306 0.26515 0.11173
 C1100 C 0.43434 0.28443 0.09033
 C1101 C 0.38381 0.27200 0.12175
 C1102 C 0.40230 0.25248 0.14364
 H1103 H 0.38779 0.22227 0.05459
 H1104 H 0.42215 0.18754 0.09450
 H1105 H 0.47891 0.27181 0.11849
 H1106 H 0.44433 0.30755 0.07901
 H1107 H 0.36424 0.28899 0.13101
 H1108 H 0.39704 0.25184 0.17039
 C1109 C 0.61081 0.26804 0.91367
 C1110 C 0.62032 0.22985 0.91040
 C1111 C 0.60005 0.21164 0.88910
 C1112 C 0.57268 0.23335 0.87182
 C1113 C 0.55311 0.25048 0.90037
 C1114 C 0.57269 0.26873 0.92172
 C1115 C 0.61335 0.27976 0.87656
 C1116 C 0.59277 0.26222 0.85495
 H1117 H 0.64226 0.21851 0.92253
 H1118 H 0.60449 0.18485 0.88348
 H1119 H 0.52597 0.24793 0.90396
 H1120 H 0.56195 0.28224 0.94308
 H1121 H 0.63362 0.29541 0.86659
 H1122 H 0.59454 0.26532 0.82792
 C1123 C 0.38790 0.73762 0.91090
 C1124 C 0.39380 0.71917 0.87690
 C1125 C 0.41486 0.73628 0.85550
 C1126 C 0.42890 0.76985 0.87019
 C1127 C 0.39746 0.79056 0.88021
 C1128 C 0.37606 0.77374 0.90123
 C1129 C 0.42450 0.74186 0.92414
 C1130 C 0.44549 0.75912 0.90330
 H1131 H 0.38494 0.69361 0.87104
 H1132 H 0.42249 0.72567 0.83144
 H1133 H 0.39211 0.81608 0.87096
 H1134 H 0.35243 0.78493 0.90991
 H1135 H 0.43371 0.73058 0.94730
 H1136 H 0.47216 0.76281 0.90899
 C1137 C 0.73528 0.90887 0.38884
 C1138 C 0.71615 0.87486 0.39518
 C1139 C 0.73284 0.85274 0.41596
 C1140 C 0.76668 0.86684 0.42935
 C1141 C 0.78708 0.87617 0.39791
 C1142 C 0.77070 0.89789 0.37680
 C1143 C 0.74025 0.92256 0.42493
 C1144 C 0.75706 0.90101 0.44567
 H1145 H 0.69051 0.86961 0.38680
 H1146 H 0.72179 0.82867 0.42386
 H1147 H 0.81209 0.86600 0.39239
 H1148 H 0.78178 0.90624 0.35326
 H1149 H 0.72975 0.94651 0.43402
 H1150 H 0.76117 0.90694 0.47202
 C1151 C 0.25971 0.91947 0.61288
 C1152 C 0.28091 0.88748 0.60358
 C1153 C 0.26530 0.86588 0.58143
 C1154 C 0.23026 0.87852 0.56981
 C1155 C 0.21006 0.88409 0.60230
 C1156 C 0.22541 0.90532 0.62471
 C1157 C 0.25284 0.93548 0.57810
 C1158 C 0.23698 0.91441 0.55606
 H1159 H 0.30681 0.88319 0.61174
 H1160 H 0.27764 0.84312 0.57171
 H1161 H 0.18587 0.87192 0.60745
 H1162 H 0.21431 0.91128 0.64899
 H1163 H 0.26114 0.96084 0.57079
 H1164 H 0.23101 0.92225 0.53064
 C1165 C 0.26334 0.08856 0.39024
 C1166 C 0.26379 0.07702 0.42707
 C1167 C 0.24700 0.09793 0.44839
 C1168 C 0.23144 0.12939 0.43181
 C1169 C 0.26112 0.14671 0.41344
 C1170 C 0.27751 0.12557 0.39124
 C1171 C 0.22575 0.09469 0.38142
 C1172 C 0.20903 0.11546 0.40332
 H1173 H 0.27679 0.05423 0.43578
 H1174 H 0.24566 0.09281 0.47498
 H1175 H 0.26654 0.17385 0.41506
 H1176 H 0.29542 0.13593 0.37334
 H1177 H 0.21367 0.08461 0.35897
 H1178 H 0.18274 0.12281 0.39962
 C1179 C 0.72284 0.08843 0.59913
 C1180 C 0.70849 0.09401 0.56353
 C1181 C 0.72848 0.11355 0.54328
 C1182 C 0.76051 0.12726 0.56070
 C1183 C 0.74699 0.14572 0.59200
 C1184 C 0.72663 0.12581 0.61163
 C1185 C 0.75936 0.07563 0.59403
 C1186 C 0.77882 0.09556 0.57414
 H1187 H 0.68289 0.08709 0.55618
 H1188 H 0.72045 0.12143 0.51839
 H1189 H 0.74940 0.17307 0.59600
 H1190 H 0.71029 0.13772 0.63014
 H1191 H 0.76931 0.05264 0.60565
 H1192 H 0.80517 0.08941 0.56906
 C1193 C 0.91942 0.61426 0.25903
 C1194 C 0.92853 0.57597 0.26092
 C1195 C 0.90696 0.55510 0.24425
 C1196 C 0.87717 0.57369 0.22785
 C1197 C 0.86071 0.59399 0.25676
 C1198 C 0.88284 0.61517 0.27324
 C1199 C 0.91502 0.62224 0.22151
 C1200 C 0.89317 0.60104 0.20524
 H1201 H 0.94958 0.56591 0.27545
 H1202 H 0.90978 0.52751 0.24448
 H1203 H 0.83438 0.59133 0.26423
 H1204 H 0.87509 0.62975 0.29512
 H1205 H 0.92754 0.64338 0.20900
 H1206 H 0.88705 0.60410 0.17883
 C1207 C 0.90958 0.38708 0.74006
 C1208 C 0.87532 0.39282 0.72184
 C1209 C 0.85400 0.41503 0.73796
 C1210 C 0.86910 0.43029 0.77036
 C1211 C 0.87883 0.39933 0.79180
 C1212 C 0.89975 0.37681 0.77601
 C1213 C 0.92349 0.42390 0.74281
 C1214 C 0.90276 0.44605 0.75905
 H1215 H 0.86923 0.38274 0.69717
 H1216 H 0.82976 0.42259 0.72742
 H1217 H 0.86949 0.39512 0.81710
 H1218 H 0.90826 0.35338 0.78787
 H1219 H 0.94694 0.43238 0.73123
 H1220 H 0.90887 0.47298 0.76163
 C1221 C 0.09102 0.60163 0.72008
 C1222 C 0.09714 0.56528 0.70637
 C1223 C 0.11703 0.54536 0.72633
 C1224 C 0.13047 0.56378 0.75777
 C1225 C 0.14819 0.59563 0.74387
 C1226 C 0.12793 0.61500 0.72353
 C1227 C 0.07861 0.59693 0.75636
 C1228 C 0.09884 0.57735 0.77582
 H1229 H 0.09029 0.55727 0.68115
 H1230 H 0.12543 0.52011 0.71856
 H1231 H 0.17527 0.60008 0.74608
 H1232 H 0.13935 0.63372 0.70705
 H1233 H 0.05570 0.60869 0.76619
 H1234 H 0.09299 0.57270 0.80205
 C1235 C 0.08290 0.39811 0.26545
 C1236 C 0.10074 0.42518 0.28761
 C1237 C 0.12384 0.44488 0.27085
 C1238 C 0.12630 0.43663 0.23312
 C1239 C 0.13427 0.39843 0.23117
 C1240 C 0.11175 0.37844 0.24793
 C1241 C 0.06699 0.42077 0.23789
 C1242 C 0.08950 0.44010 0.22075
 H1243 H 0.09297 0.43136 0.31305
 H1244 H 0.13651 0.46646 0.28260
 H1245 H 0.15591 0.38795 0.21779
 H1246 H 0.11426 0.35083 0.24879
 H1247 H 0.04011 0.42615 0.23563
 H1248 H 0.08097 0.45960 0.20334
   
