data_POSCAR
  _audit_creation_date              2014-09-24
  _audit_creation_method            'ToBaCCo'
  _symmetry_space_group_name_H-M    'P1'
  _symmetry_Int_Tables_number       1
  _symmetry_cell_setting            triclinic
  loop_
  _symmetry_equiv_pos_as_xyz
 x,y,z
_cell_length_a 40.9981
_cell_length_b 28.2125
_cell_length_c 28.9135
_cell_angle_alpha 89.928000
_cell_angle_beta 90.010400
_cell_angle_gamma 89.904200
loop_
  _atom_site_label
  _atom_site_type_symbol
  _atom_site_fract_x
  _atom_site_fract_y
  _atom_site_fract_z
C1 C 0.00203 0.00129 0.15077
 C2 C -0.00674 0.00061 -0.15134
 C3 C -0.07457 -0.08016 0.07577
 C4 C -0.07643 0.07640 0.07387
 C5 C -0.07801 -0.07939 -0.06945
 C6 C 0.07249 -0.07531 -0.07555
 C7 C 0.06844 0.07617 -0.08158
 C8 C 0.07548 -0.07149 0.07049
 C9 C -0.08175 0.07320 -0.06745
 C10 C 0.07385 0.07548 0.06941
 O11 O -0.04823 -0.08746 -0.08190
 O12 O -0.08685 -0.05004 -0.03729
 O13 O -0.05222 0.08501 -0.07853
 O14 O -0.08917 0.04213 -0.03633
 O15 O 0.04403 0.08473 0.08086
 O16 O 0.08266 0.04523 0.03835
 O17 O -0.00922 0.04027 -0.12990
 O18 O -0.00169 -0.03939 -0.13066
 O19 O 0.00014 0.04144 0.12986
 O20 O 0.00203 -0.03936 0.13050
 O21 O 0.04229 -0.08713 -0.08238
 O22 O 0.08135 -0.04019 -0.04970
 O23 O -0.04415 -0.09062 0.08205
 O24 O -0.08503 -0.04814 0.04741
 O25 O 0.04608 -0.08218 0.08250
 O26 O 0.08345 -0.04150 0.03851
 O27 O 0.03791 0.08324 -0.08957
 O28 O 0.07882 0.04831 -0.04885
 O29 O -0.00052 0.13217 0.07069
 O30 O -0.00504 0.13240 -0.06898
 O31 O -0.00477 -0.13288 -0.07094
 O32 O 0.00309 -0.13247 0.07117
 O33 O -0.02979 -0.06370 0.00154
 O34 O -0.03216 0.06080 0.00136
 O35 O 0.02622 -0.06106 -0.00144
 O36 O -0.03066 -0.00099 0.06327
 O37 O -0.08629 0.04152 0.04833
 O38 O -0.04644 0.08941 0.07683
 O39 O 0.02921 0.00080 0.05948
 O40 O 0.02561 0.00070 -0.06416
 O41 O 0.02437 0.06265 -0.00232
 O42 O -0.03409 -0.00164 -0.05924
 Zr43 Zr -0.00162 0.05842 0.05897
 Zr44 Zr -0.00306 -0.05906 -0.06007
 Zr45 Zr -0.05898 -0.00253 0.00344
 Zr46 Zr -0.00009 -0.05868 0.06000
 Zr47 Zr -0.00568 0.05816 -0.05992
 Zr48 Zr 0.05365 0.00170 -0.00390
 H49 H 0.03961 -0.09021 -0.00131
 H50 H -0.04433 -0.00111 0.09147
 H51 H 0.03688 0.09261 -0.00336
 H52 H -0.04926 -0.00185 -0.08571
 H53 H -0.00238 0.14694 0.03975
 H54 H -0.01287 0.14590 -0.03943
 H55 H 0.00323 -0.14689 0.04000
 H56 H -0.00793 -0.14697 -0.03990
 C57 C 0.25081 0.25152 0.10046
 C58 C 0.25026 0.24649 0.40246
 C59 C 0.17141 0.32617 0.18074
 C60 C 0.17127 0.17423 0.17757
 C61 C 0.17103 0.32309 0.32594
 C62 C 0.32180 0.32326 0.32555
 C63 C 0.32289 0.17295 0.32278
 C64 C 0.32170 0.32759 0.18185
 C65 C 0.17328 0.16974 0.32431
 C66 C 0.32161 0.17505 0.17614
 O67 O 0.20096 0.33375 0.33571
 O68 O 0.16210 0.29199 0.29567
 O69 O 0.20331 0.15770 0.33031
 O70 O 0.16344 0.20219 0.29569
 O71 O 0.29170 0.16476 0.16619
 O72 O 0.33062 0.20698 0.20561
 O73 O 0.25004 0.20653 0.38107
 O74 O 0.24852 0.28731 0.38300
 O75 O 0.24796 0.21073 0.12024
 O76 O 0.24981 0.29090 0.12287
 O77 O 0.29185 0.33230 0.33670
 O78 O 0.33093 0.29258 0.29506
 O79 O 0.20133 0.33658 0.17120
 O80 O 0.16227 0.29522 0.21128
 O81 O 0.29157 0.33658 0.17169
 O82 O 0.33108 0.29527 0.21051
 O83 O 0.29314 0.16205 0.33290
 O84 O 0.33139 0.20551 0.29381
 O85 O 0.24659 0.11715 0.18041
 O86 O 0.24898 0.11486 0.32072
 O87 O 0.24576 0.38018 0.32420
 O88 O 0.24408 0.38228 0.18288
 O89 O 0.21798 0.31070 0.25329
 O90 O 0.21871 0.18609 0.25079
 O91 O 0.27409 0.31107 0.25303
 O92 O 0.21677 0.24974 0.19066
 O93 O 0.16224 0.20393 0.20920
 O94 O 0.20125 0.16419 0.16739
 O95 O 0.27656 0.25016 0.18954
 O96 O 0.27709 0.24800 0.31334
 O97 O 0.27501 0.18717 0.25007
 O98 O 0.21736 0.24708 0.31362
 Zr99 Zr 0.24662 0.19118 0.19053
 Zr100 Zr 0.24646 0.30635 0.31297
 Zr101 Zr 0.19036 0.24818 0.25237
 Zr102 Zr 0.24633 0.30841 0.19330
 Zr103 Zr 0.24770 0.18890 0.31032
 Zr104 Zr 0.30286 0.24942 0.25123
 H105 H 0.28659 0.34101 0.25373
 H106 H 0.20273 0.25042 0.16287
 H107 H 0.28816 0.15777 0.24952
 H108 H 0.20346 0.24631 0.34157
 H109 H 0.24031 0.10335 0.21058
 H110 H 0.25185 0.10089 0.28962
 H111 H 0.24314 0.39625 0.21420
 H112 H 0.24064 0.39450 0.29381
 C113 C 0.49987 -0.00418 0.15296
 C114 C 0.49567 0.00034 -0.14826
 C115 C 0.57261 0.07541 0.07277
 C116 C 0.57423 -0.08145 0.06894
 C117 C 0.57117 0.08180 -0.06623
 C118 C 0.42013 0.07045 -0.07024
 C119 C 0.42234 -0.07705 -0.07203
 C120 C 0.42216 0.06955 0.07941
 C121 C 0.57331 -0.07951 -0.06796
 C122 C 0.42363 -0.07832 0.07877
 O123 O 0.54065 0.09099 -0.07421
 O124 O 0.58083 0.04658 -0.04076
 O125 O 0.54315 -0.09105 -0.07531
 O126 O 0.58207 -0.04376 -0.04289
 O127 O 0.45394 -0.08680 0.08723
 O128 O 0.41404 -0.04994 0.04618
 O129 O 0.49779 -0.04034 -0.12832
 O130 O 0.49598 0.04040 -0.12712
 O131 O 0.50081 -0.04424 0.13182
 O132 O 0.49833 0.03657 0.13320
 O133 O 0.44990 0.08258 -0.07939
 O134 O 0.41181 0.03934 -0.03954
 O135 O 0.54262 0.08444 0.08383
 O136 O 0.58186 0.04408 0.04303
 O137 O 0.45207 0.08056 0.08867
 O138 O 0.41314 0.03890 0.04865
 O139 O 0.45244 -0.08649 -0.08189
 O140 O 0.41306 -0.04823 -0.03981
 O141 O 0.49623 -0.13547 0.07171
 O142 O 0.49561 -0.13314 -0.07238
 O143 O 0.49148 0.13109 -0.06814
 O144 O 0.49514 0.12956 0.07350
 O145 O 0.52501 0.06106 0.00274
 O146 O 0.52661 -0.06377 0.00090
 O147 O 0.46859 0.05878 0.00383
 O148 O 0.52784 -0.00243 0.06282
 O149 O 0.58268 -0.04559 0.04342
 O150 O 0.54419 -0.09302 0.07695
 O151 O 0.46794 -0.00381 0.06480
 O152 O 0.46682 -0.00199 -0.05884
 O153 O 0.47023 -0.06480 0.00198
 O154 O 0.52676 -0.00031 -0.05998
 Zr155 Zr 0.49871 -0.06161 0.06111
 Zr156 Zr 0.49602 0.05760 -0.05650
 Zr157 Zr 0.55379 -0.00070 0.00103
 Zr158 Zr 0.49729 0.05565 0.06304
 Zr159 Zr 0.49770 -0.05991 -0.05819
 Zr160 Zr 0.44103 -0.00382 0.00345
 H161 H 0.45505 0.08784 0.00444
 H162 H 0.54281 -0.00304 0.08960
 H163 H 0.45754 -0.09461 0.00206
 H164 H 0.54127 0.00060 -0.08733
 H165 H 0.49576 -0.14952 0.04037
 H166 H 0.49404 -0.14882 -0.04182
 H167 H 0.49697 0.14375 0.04232
 H168 H 0.48976 0.14557 -0.03710
 C169 C 0.74945 0.24951 0.10282
 C170 C 0.74882 0.24733 0.40381
 C171 C 0.67075 0.32438 0.18144
 C172 C 0.67189 0.17295 0.17835
 C173 C 0.67039 0.32167 0.32761
 C174 C 0.82091 0.32370 0.32705
 C175 C 0.82214 0.17376 0.32738
 C176 C 0.82112 0.32465 0.18011
 C177 C 0.67333 0.16873 0.32636
 C178 C 0.82275 0.18041 0.17499
 O179 O 0.70024 0.33275 0.33713
 O180 O 0.66151 0.29074 0.29706
 O181 O 0.70342 0.15718 0.33249
 O182 O 0.66333 0.20066 0.29720
 O183 O 0.79290 0.16961 0.16445
 O184 O 0.83053 0.20738 0.20907
 O185 O 0.74837 0.20719 0.38283
 O186 O 0.74765 0.28801 0.38402
 O187 O 0.74811 0.20863 0.12236
 O188 O 0.74805 0.28937 0.12437
 O189 O 0.79084 0.33225 0.33786
 O190 O 0.83042 0.29297 0.29684
 O191 O 0.70068 0.33607 0.17334
 O192 O 0.66165 0.29299 0.21162
 O193 O 0.79101 0.33493 0.17096
 O194 O 0.83045 0.29340 0.21001
 O195 O 0.79237 0.16681 0.34020
 O196 O 0.83057 0.20272 0.29465
 O197 O 0.74984 0.11581 0.18587
 O198 O 0.75043 0.11493 0.32145
 O199 O 0.74419 0.38027 0.32416
 O200 O 0.74528 0.38173 0.18378
 O201 O 0.71719 0.31010 0.25424
 O202 O 0.71876 0.18537 0.25255
 O203 O 0.77370 0.31095 0.25429
 O204 O 0.71685 0.24855 0.19234
 O205 O 0.66255 0.20242 0.21004
 O206 O 0.70198 0.16308 0.16842
 O207 O 0.77627 0.24978 0.19195
 O208 O 0.77653 0.24836 0.31514
 O209 O 0.77525 0.18672 0.25233
 O210 O 0.71684 0.24677 0.31482
 Zr211 Zr 0.74713 0.19020 0.19259
 Zr212 Zr 0.74567 0.30632 0.31388
 Zr213 Zr 0.68999 0.24707 0.25362
 Zr214 Zr 0.74589 0.30780 0.19463
 Zr215 Zr 0.74745 0.18903 0.31229
 Zr216 Zr 0.80249 0.24931 0.25345
 H217 H 0.78635 0.34079 0.25445
 H218 H 0.70281 0.24913 0.16455
 H219 H 0.78875 0.15761 0.25169
 H220 H 0.70283 0.24592 0.34265
 H221 H 0.73762 0.10282 0.21252
 H222 H 0.75311 0.10153 0.29010
 H223 H 0.74478 0.39598 0.21499
 H224 H 0.73827 0.39401 0.29381
 C225 C -0.00093 0.49503 0.15119
 C226 C -0.00082 0.50486 -0.15097
 C227 C -0.07857 0.42162 0.07361
 C228 C -0.07880 0.57357 0.07318
 C229 C -0.07694 0.42055 -0.07244
 C230 C 0.07258 0.42751 -0.07428
 C231 C 0.07134 0.57373 -0.07457
 C232 C 0.07230 0.42483 0.07439
 C233 C -0.07971 0.57405 -0.07104
 C234 C 0.07126 0.57548 0.07407
 O235 O -0.04695 0.41253 -0.08351
 O236 O -0.08659 0.45020 -0.04110
 O237 O -0.04987 0.58569 -0.08060
 O238 O -0.08821 0.54271 -0.04072
 O239 O 0.04118 0.58367 0.08481
 O240 O 0.08079 0.54479 0.04379
 O241 O -0.00293 0.54360 -0.12836
 O242 O -0.00171 0.46371 -0.13103
 O243 O -0.00100 0.53585 0.13129
 O244 O -0.00244 0.45500 0.13021
 O245 O 0.04281 0.41739 -0.08502
 O246 O 0.08139 0.45809 -0.04355
 O247 O -0.04847 0.41034 0.08227
 O248 O -0.08765 0.45282 0.04341
 O249 O 0.04246 0.41391 0.08426
 O250 O 0.08105 0.45629 0.04426
 O251 O 0.04125 0.58387 -0.08415
 O252 O 0.08072 0.54447 -0.04280
 O253 O -0.00519 0.62956 0.07500
 O254 O -0.00331 0.63378 -0.06370
 O255 O -0.00113 0.36840 -0.07321
 O256 O -0.00221 0.36423 0.06668
 O257 O -0.03110 0.43582 -0.00080
 O258 O -0.03236 0.56052 0.00185
 O259 O 0.02507 0.43781 -0.00056
 O260 O -0.03300 0.49717 0.06208
 O261 O -0.08799 0.54256 0.04295
 O262 O -0.04887 0.58456 0.08193
 O263 O 0.02666 0.49793 0.06246
 O264 O 0.02662 0.50125 -0.06100
 O265 O 0.02409 0.56175 0.00156
 O266 O -0.03313 0.49983 -0.06069
 Zr267 Zr -0.00365 0.55622 0.06131
 Zr268 Zr -0.00264 0.44203 -0.06075
 Zr269 Zr -0.05964 0.49757 0.00073
 Zr270 Zr -0.00306 0.43866 0.05945
 Zr271 Zr -0.00405 0.55922 -0.05796
 Zr272 Zr 0.05290 0.50026 0.00073
 H273 H 0.03848 0.40864 -0.00100
 H274 H -0.04712 0.49698 0.08980
 H275 H 0.03674 0.59160 0.00147
 H276 H -0.04737 0.49980 -0.08825
 H277 H -0.00618 0.64506 0.04432
 H278 H -0.01411 0.64576 -0.03543
 H279 H 0.00288 0.35165 0.03561
 H280 H -0.00592 0.35333 -0.04307
 C281 C 0.24566 0.75419 0.09950
 C282 C 0.25107 0.74858 0.40031
 C283 C 0.17154 0.82877 0.17920
 C284 C 0.16857 0.67717 0.18087
 C285 C 0.17358 0.82833 0.32593
 C286 C 0.32384 0.82107 0.32262
 C287 C 0.32245 0.67369 0.31971
 C288 C 0.32177 0.82716 0.17714
 C289 C 0.17220 0.67445 0.32406
 C290 C 0.31881 0.67492 0.17176
 O291 O 0.20386 0.83872 0.33310
 O292 O 0.16345 0.79732 0.29637
 O293 O 0.20215 0.66131 0.32957
 O294 O 0.16278 0.70788 0.29635
 O295 O 0.28868 0.66573 0.16237
 O296 O 0.32872 0.70538 0.20203
 O297 O 0.24972 0.70844 0.37942
 O298 O 0.25081 0.78926 0.38048
 O299 O 0.24367 0.71327 0.11911
 O300 O 0.24861 0.79359 0.12116
 O301 O 0.29428 0.83232 0.33365
 O302 O 0.33192 0.78974 0.29216
 O303 O 0.20143 0.83902 0.16924
 O304 O 0.16238 0.79815 0.20999
 O305 O 0.29183 0.83854 0.16793
 O306 O 0.33029 0.79322 0.20464
 O307 O 0.29268 0.66294 0.33020
 O308 O 0.33074 0.70614 0.29067
 O309 O 0.24422 0.61897 0.17921
 O310 O 0.24759 0.61681 0.31950
 O311 O 0.24992 0.88211 0.32294
 O312 O 0.24697 0.88521 0.18311
 O313 O 0.21889 0.81421 0.25205
 O314 O 0.21742 0.68916 0.25014
 O315 O 0.27529 0.81219 0.25024
 O316 O 0.21612 0.75284 0.19048
 O317 O 0.16101 0.70690 0.21298
 O318 O 0.19819 0.66718 0.16842
 O319 O 0.27542 0.75106 0.18691
 O320 O 0.27748 0.74886 0.31049
 O321 O 0.27361 0.68803 0.24782
 O322 O 0.21806 0.75039 0.31284
 Zr323 Zr 0.24456 0.69305 0.18915
 Zr324 Zr 0.24828 0.80849 0.31066
 Zr325 Zr 0.19037 0.75238 0.25249
 Zr326 Zr 0.24660 0.81091 0.19139
 Zr327 Zr 0.24710 0.69081 0.30883
 Zr328 Zr 0.30238 0.74928 0.24779
 H329 H 0.28863 0.84134 0.25065
 H330 H 0.20154 0.75310 0.16346
 H331 H 0.28633 0.65828 0.24689
 H332 H 0.20432 0.75033 0.34097
 H333 H 0.23735 0.60535 0.20920
 H334 H 0.24849 0.60264 0.28825
 H335 H 0.24014 0.89821 0.21334
 H336 H 0.24851 0.89709 0.29207
 C337 C 0.49640 0.49614 0.15241
 C338 C 0.49399 0.50234 -0.14867
 C339 C 0.56991 0.57917 0.07527
 C340 C 0.57206 0.42357 0.07292
 C341 C 0.57065 0.57824 -0.07140
 C342 C 0.42044 0.57275 -0.07367
 C343 C 0.42277 0.42397 -0.07381
 C344 C 0.42001 0.57341 0.07459
 C345 C 0.57257 0.42676 -0.07042
 C346 C 0.42043 0.42670 0.07508
 O347 O 0.54058 0.58831 -0.08087
 O348 O 0.58011 0.54834 -0.04012
 O349 O 0.54289 0.41511 -0.08008
 O350 O 0.58120 0.45913 -0.04125
 O351 O 0.45045 0.41746 0.08658
 O352 O 0.41218 0.45413 0.04160
 O353 O 0.49611 0.46167 -0.12870
 O354 O 0.49466 0.54238 -0.12751
 O355 O 0.49774 0.45619 0.13146
 O356 O 0.49438 0.53696 0.13248
 O357 O 0.45024 0.58540 -0.08179
 O358 O 0.41181 0.54166 -0.04325
 O359 O 0.53967 0.59013 0.08210
 O360 O 0.57984 0.54750 0.04604
 O361 O 0.44961 0.58387 0.08574
 O362 O 0.41160 0.54303 0.04339
 O363 O 0.45290 0.41455 -0.08320
 O364 O 0.41314 0.45363 -0.04253
 O365 O 0.49448 0.36628 0.06782
 O366 O 0.49823 0.36848 -0.06995
 O367 O 0.49451 0.63459 -0.06457
 O368 O 0.49305 0.63168 0.07636
 O369 O 0.52387 0.56395 0.00283
 O370 O 0.52561 0.43893 0.00151
 O371 O 0.46760 0.56180 0.00206
 O372 O 0.52555 0.50042 0.06316
 O373 O 0.58072 0.45715 0.04494
 O374 O 0.54210 0.41245 0.08220
 O375 O 0.46585 0.49890 0.06317
 O376 O 0.46674 0.50050 -0.06060
 O377 O 0.46914 0.43769 0.00081
 O378 O 0.52609 0.50200 -0.05905
 Zr379 Zr 0.49653 0.44070 0.06091
 Zr380 Zr 0.49579 0.56018 -0.05730
 Zr381 Zr 0.55261 0.50232 0.00233
 Zr382 Zr 0.49513 0.55836 0.06233
 Zr383 Zr 0.49740 0.44232 -0.05854
 Zr384 Zr 0.44032 0.49911 0.00069
 H385 H 0.45421 0.59102 0.00191
 H386 H 0.54004 0.50069 0.09044
 H387 H 0.45644 0.40789 0.00083
 H388 H 0.54025 0.50225 -0.08671
 H389 H 0.50505 0.35342 0.03975
 H390 H 0.49815 0.35386 -0.03886
 H391 H 0.49149 0.64730 0.04578
 H392 H 0.50224 0.64725 -0.03461
 C393 C 0.74651 0.74779 0.10103
 C394 C 0.75232 0.75157 0.40223
 C395 C 0.67084 0.82400 0.17839
 C396 C 0.67206 0.67070 0.18301
 C397 C 0.67340 0.82613 0.32681
 C398 C 0.82342 0.82422 0.32362
 C399 C 0.82251 0.67621 0.32604
 C400 C 0.82186 0.82469 0.17673
 C401 C 0.67343 0.67738 0.33059
 C402 C 0.82259 0.67527 0.17762
 O403 O 0.70347 0.83778 0.33378
 O404 O 0.66367 0.79515 0.29684
 O405 O 0.70325 0.66351 0.33486
 O406 O 0.66381 0.70872 0.30068
 O407 O 0.79261 0.66420 0.16832
 O408 O 0.83119 0.70769 0.20641
 O409 O 0.75055 0.71105 0.38216
 O410 O 0.75211 0.79185 0.38133
 O411 O 0.74713 0.70758 0.12193
 O412 O 0.74648 0.78849 0.12098
 O413 O 0.79369 0.83555 0.33351
 O414 O 0.83202 0.79218 0.29423
 O415 O 0.70077 0.83443 0.16806
 O416 O 0.66248 0.79494 0.21104
 O417 O 0.79185 0.83431 0.16599
 O418 O 0.83074 0.79335 0.20681
 O419 O 0.79286 0.66565 0.33640
 O420 O 0.83135 0.70675 0.29514
 O421 O 0.74740 0.61602 0.18347
 O422 O 0.74914 0.61781 0.32292
 O423 O 0.74868 0.88368 0.31996
 O424 O 0.74608 0.88199 0.17988
 O425 O 0.71889 0.81259 0.25163
 O426 O 0.71895 0.68741 0.25308
 O427 O 0.77519 0.81206 0.25026
 O428 O 0.71709 0.74896 0.19157
 O429 O 0.66339 0.70192 0.21357
 O430 O 0.70186 0.66159 0.17126
 O431 O 0.77667 0.74925 0.18917
 O432 O 0.77787 0.75053 0.31279
 O433 O 0.77543 0.68774 0.25189
 O434 O 0.71877 0.75087 0.31396
 Zr435 Zr 0.74704 0.69023 0.19256
 Zr436 Zr 0.74825 0.80953 0.31077
 Zr437 Zr 0.69110 0.75005 0.25352
 Zr438 Zr 0.74655 0.80807 0.19097
 Zr439 Zr 0.74803 0.69177 0.31206
 Zr440 Zr 0.80322 0.74989 0.25072
 H441 H 0.78827 0.84148 0.24986
 H442 H 0.70235 0.74810 0.16453
 H443 H 0.78863 0.65842 0.25205
 H444 H 0.70544 0.75152 0.34244
 H445 H 0.75235 0.60243 0.21422
 H446 H 0.74343 0.60353 0.29277
 H447 H 0.74934 0.89637 0.21068
 H448 H 0.74249 0.89719 0.28962
 C449 C 0.00058 -0.00004 0.35035
 C450 C -0.00509 0.00200 0.65231
 C451 C -0.07855 0.07807 0.42860
 C452 C -0.07723 -0.07600 0.42605
 C453 C -0.08114 0.07515 0.57214
 C454 C 0.06947 0.07704 0.57710
 C455 C 0.07105 -0.07245 0.57682
 C456 C 0.07119 0.07777 0.42977
 C457 C -0.07862 -0.07719 0.57211
 C458 C 0.07348 -0.07100 0.42938
 O459 O -0.05142 0.08708 0.58189
 O460 O -0.08939 0.04376 0.54175
 O461 O -0.04858 -0.08819 0.58028
 O462 O -0.08804 -0.04603 0.54195
 O463 O 0.04382 -0.08248 0.41857
 O464 O 0.08114 -0.03891 0.45915
 O465 O -0.00376 -0.03843 0.63168
 O466 O -0.00476 0.04226 0.63149
 O467 O -0.00072 -0.04048 0.37073
 O468 O -0.00027 0.04042 0.37098
 O469 O 0.03935 0.08696 0.58639
 O470 O 0.07910 0.04576 0.54755
 O471 O -0.04856 0.08984 0.42131
 O472 O -0.08791 0.04555 0.45731
 O473 O 0.04141 0.08796 0.41912
 O474 O 0.07983 0.04601 0.45955
 O475 O 0.04125 -0.08357 0.58619
 O476 O 0.07999 -0.04082 0.54713
 O477 O -0.00061 -0.13218 0.43394
 O478 O -0.00241 -0.13136 0.57304
 O479 O -0.00611 0.13432 0.56987
 O480 O -0.00350 0.13353 0.42864
 O481 O -0.03289 0.06287 0.50045
 O482 O -0.03152 -0.06194 0.50059
 O483 O 0.02332 0.06395 0.50207
 O484 O -0.03271 0.00065 0.43898
 O485 O -0.08697 -0.04527 0.45623
 O486 O -0.04709 -0.08630 0.41727
 O487 O 0.02685 0.00165 0.44034
 O488 O 0.02525 0.00196 0.56412
 O489 O 0.02468 -0.06020 0.50195
 O490 O -0.03424 0.00048 0.56185
 Zr491 Zr -0.00244 -0.05783 0.44132
 Zr492 Zr -0.00538 0.06012 0.56109
 Zr493 Zr -0.06011 -0.00009 0.49981
 Zr494 Zr -0.00357 0.05988 0.44139
 Zr495 Zr -0.00377 -0.05756 0.56118
 Zr496 Zr 0.05194 0.00239 0.50293
 H497 H 0.03606 0.09370 0.50248
 H498 H -0.04654 0.00104 0.41094
 H499 H 0.03812 -0.08928 0.50214
 H500 H -0.04883 -0.00001 0.58907
 H501 H -0.00961 -0.14510 0.46309
 H502 H 0.00158 -0.14592 0.54245
 H503 H -0.00179 0.14863 0.45941
 H504 H -0.01179 0.14745 0.53916
 C505 C 0.24724 0.25463 0.90291
 C506 C 0.25012 0.24596 0.60098
 C507 C 0.16944 0.17268 0.81901
 C508 C 0.17204 0.32913 0.82225
 C509 C 0.17009 0.17718 0.67747
 C510 C 0.32007 0.16997 0.67943
 C511 C 0.32312 0.32191 0.67846
 C512 C 0.32031 0.17270 0.82682
 C513 C 0.17346 0.32890 0.67711
 C514 C 0.32249 0.32201 0.82538
 O515 O 0.19980 0.16432 0.66915
 O516 O 0.16160 0.20958 0.70671
 O517 O 0.20370 0.33805 0.66841
 O518 O 0.16345 0.29871 0.70770
 O519 O 0.29265 0.33279 0.83573
 O520 O 0.33111 0.29061 0.79518
 O521 O 0.25076 0.28675 0.62080
 O522 O 0.24735 0.20604 0.62199
 O523 O 0.24483 0.29357 0.88058
 O524 O 0.24707 0.21349 0.88324
 O525 O 0.28992 0.16266 0.66865
 O526 O 0.32989 0.20044 0.70984
 O527 O 0.19917 0.16319 0.83128
 O528 O 0.16135 0.20612 0.79054
 O529 O 0.29009 0.16420 0.83692
 O530 O 0.33003 0.20313 0.79639
 O531 O 0.29338 0.33220 0.66782
 O532 O 0.33177 0.28976 0.70806
 O533 O 0.24998 0.38369 0.81733
 O534 O 0.24863 0.38070 0.67749
 O535 O 0.24239 0.11574 0.68676
 O536 O 0.24416 0.11899 0.82783
 O537 O 0.21701 0.18887 0.75250
 O538 O 0.21911 0.31341 0.74993
 O539 O 0.27299 0.18649 0.75303
 O540 O 0.21614 0.25169 0.81260
 O541 O 0.16268 0.29786 0.79249
 O542 O 0.20206 0.33977 0.83127
 O543 O 0.27613 0.24968 0.81370
 O544 O 0.27674 0.24719 0.69000
 O545 O 0.27540 0.31019 0.75087
 O546 O 0.21706 0.25013 0.68951
 Zr547 Zr 0.24691 0.30940 0.81019
 Zr548 Zr 0.24532 0.19004 0.69278
 Zr549 Zr 0.19023 0.25217 0.75049
 Zr550 Zr 0.24512 0.19219 0.81294
 Zr551 Zr 0.24793 0.30722 0.69071
 Zr552 Zr 0.30269 0.24712 0.75201
 H553 H 0.28532 0.15631 0.75346
 H554 H 0.20150 0.25175 0.83979
 H555 H 0.28883 0.33928 0.75093
 H556 H 0.20325 0.25081 0.66147
 H557 H 0.24216 0.39688 0.78762
 H558 H 0.24654 0.39604 0.70809
 H559 H 0.24371 0.10300 0.79741
 H560 H 0.23604 0.10415 0.71777
 C561 C 0.50007 -0.00504 0.35128
 C562 C 0.49188 -0.00065 0.65255
 C563 C 0.57410 -0.07790 0.43484
 C564 C 0.57186 0.07667 0.43357
 C565 C 0.57049 -0.07698 0.57742
 C566 C 0.42125 -0.07655 0.57565
 C567 C 0.41784 0.07097 0.57016
 C568 C 0.42376 -0.07810 0.42362
 C569 C 0.56902 0.07707 0.57578
 C570 C 0.42272 0.07031 0.42324
 O571 O 0.54060 -0.08766 0.58683
 O572 O 0.57978 -0.04508 0.54826
 O573 O 0.53872 0.08722 0.58391
 O574 O 0.57900 0.04415 0.54816
 O575 O 0.45273 0.08128 0.41525
 O576 O 0.41311 0.03996 0.45394
 O577 O 0.49269 0.03950 0.63151
 O578 O 0.49328 -0.04135 0.63257
 O579 O 0.49985 0.03576 0.37120
 O580 O 0.49946 -0.04519 0.37222
 O581 O 0.45095 -0.08693 0.58615
 O582 O 0.41232 -0.04675 0.54388
 O583 O 0.54450 -0.08992 0.42451
 O584 O 0.58181 -0.04437 0.46312
 O585 O 0.45397 -0.08883 0.41599
 O586 O 0.41377 -0.04784 0.45408
 O587 O 0.44742 0.08124 0.58259
 O588 O 0.41072 0.04149 0.53788
 O589 O 0.49545 0.12942 0.42957
 O590 O 0.49150 0.13119 0.57083
 O591 O 0.49510 -0.13471 0.57152
 O592 O 0.49869 -0.13636 0.43396
 O593 O 0.52548 -0.06424 0.50399
 O594 O 0.52396 0.06101 0.50257
 O595 O 0.46907 -0.06506 0.50135
 O596 O 0.52738 -0.00258 0.44210
 O597 O 0.58046 0.04441 0.46296
 O598 O 0.54212 0.08616 0.42214
 O599 O 0.46795 -0.00380 0.43835
 O600 O 0.46497 -0.00233 0.56209
 O601 O 0.46800 0.05887 0.49971
 O602 O 0.52448 -0.00088 0.56466
 Zr603 Zr 0.49728 0.05563 0.44131
 Zr604 Zr 0.49575 -0.06047 0.56241
 Zr605 Zr 0.55224 -0.00093 0.50459
 Zr606 Zr 0.49835 -0.06214 0.44285
 Zr607 Zr 0.49415 0.05720 0.56107
 Zr608 Zr 0.44040 -0.00362 0.49894
 H609 H 0.45609 -0.09460 0.50120
 H610 H 0.54256 -0.00238 0.41556
 H611 H 0.45478 0.08824 0.49873
 H612 H 0.53830 -0.00034 0.59271
 H613 H 0.49932 0.14418 0.46010
 H614 H 0.49221 0.14508 0.53943
 H615 H 0.49443 -0.14985 0.46495
 H616 H 0.50530 -0.14806 0.54338
 C617 C 0.74773 0.25562 0.90306
 C618 C 0.74834 0.24626 0.60180
 C619 C 0.66845 0.17965 0.82727
 C620 C 0.67252 0.33065 0.82478
 C621 C 0.66852 0.17689 0.68011
 C622 C 0.81905 0.17220 0.67812
 C623 C 0.82188 0.32260 0.67774
 C624 C 0.81957 0.17347 0.82634
 C625 C 0.67195 0.32883 0.67895
 C626 C 0.82323 0.32191 0.82417
 O627 O 0.69826 0.16421 0.67130
 O628 O 0.66023 0.20902 0.70984
 O629 O 0.70211 0.33847 0.67011
 O630 O 0.66220 0.29864 0.70961
 O631 O 0.79354 0.33332 0.83491
 O632 O 0.83137 0.29091 0.79350
 O633 O 0.74923 0.28706 0.62149
 O634 O 0.74545 0.20638 0.62282
 O635 O 0.74596 0.29510 0.88121
 O636 O 0.74736 0.21453 0.88349
 O637 O 0.78887 0.16258 0.66900
 O638 O 0.82882 0.20323 0.70783
 O639 O 0.69835 0.16974 0.83876
 O640 O 0.66072 0.20793 0.79388
 O641 O 0.78946 0.16586 0.83759
 O642 O 0.82919 0.20329 0.79525
 O643 O 0.79207 0.33288 0.66730
 O644 O 0.83060 0.29079 0.70761
 O645 O 0.75040 0.38519 0.81660
 O646 O 0.74713 0.38113 0.67711
 O647 O 0.74284 0.11589 0.68619
 O648 O 0.74245 0.11952 0.82528
 O649 O 0.71588 0.18915 0.75379
 O650 O 0.71844 0.31411 0.75092
 O651 O 0.77214 0.18734 0.75344
 O652 O 0.71640 0.25331 0.81301
 O653 O 0.66269 0.29910 0.79544
 O654 O 0.70265 0.34116 0.83313
 O655 O 0.77585 0.25063 0.81373
 O656 O 0.77534 0.24766 0.69016
 O657 O 0.77487 0.31132 0.75068
 O658 O 0.71580 0.25049 0.69068
 Zr659 Zr 0.74715 0.31081 0.81054
 Zr660 Zr 0.74412 0.19024 0.69359
 Zr661 Zr 0.68941 0.25280 0.75220
 Zr662 Zr 0.74448 0.19328 0.81364
 Zr663 Zr 0.74669 0.30781 0.69120
 Zr664 Zr 0.80182 0.24801 0.75161
 H665 H 0.78458 0.15727 0.75378
 H666 H 0.70238 0.25424 0.84060
 H667 H 0.78833 0.34037 0.75043
 H668 H 0.70169 0.25092 0.66293
 H669 H 0.74150 0.39804 0.78736
 H670 H 0.74536 0.39680 0.70759
 H671 H 0.73341 0.10581 0.79655
 H672 H 0.74291 0.10312 0.71804
 C673 C -0.00234 0.49557 0.34989
 C674 C 0.00182 0.50251 0.65170
 C675 C -0.07860 0.57642 0.42824
 C676 C -0.08103 0.42428 0.43225
 C677 C -0.07815 0.57810 0.57384
 C678 C 0.07180 0.57513 0.57146
 C679 C 0.07203 0.42596 0.57379
 C680 C 0.07063 0.57547 0.42573
 C681 C -0.07858 0.42550 0.57628
 C682 C 0.06994 0.42400 0.42566
 O683 O -0.04809 0.58832 0.58270
 O684 O -0.08762 0.54720 0.54376
 O685 O -0.04854 0.41495 0.58586
 O686 O -0.08765 0.45624 0.54560
 O687 O 0.03989 0.41316 0.41693
 O688 O 0.07932 0.45602 0.45468
 O689 O 0.00077 0.46164 0.63195
 O690 O -0.00118 0.54209 0.62999
 O691 O -0.00453 0.45570 0.37115
 O692 O -0.00204 0.53653 0.36953
 O693 O 0.04195 0.58523 0.58175
 O694 O 0.08069 0.54302 0.54222
 O695 O -0.04887 0.58567 0.41695
 O696 O -0.08766 0.54629 0.45947
 O697 O 0.04069 0.58510 0.41536
 O698 O 0.07958 0.54342 0.45516
 O699 O 0.04229 0.41582 0.58499
 O700 O 0.08043 0.45691 0.54308
 O701 O -0.00520 0.36529 0.43573
 O702 O -0.00364 0.36799 0.57286
 O703 O -0.00407 0.63352 0.56895
 O704 O -0.00421 0.63122 0.42710
 O705 O -0.03198 0.56276 0.49995
 O706 O -0.03250 0.43794 0.50278
 O707 O 0.02393 0.56179 0.49907
 O708 O -0.03413 0.49916 0.44024
 O709 O -0.08886 0.45453 0.46362
 O710 O -0.05129 0.41372 0.42069
 O711 O 0.02536 0.49824 0.43806
 O712 O 0.02655 0.50074 0.56167
 O713 O 0.02372 0.43774 0.50122
 O714 O -0.03299 0.50099 0.56328
 Zr715 Zr -0.00504 0.43980 0.44203
 Zr716 Zr -0.00345 0.55944 0.55948
 Zr717 Zr -0.05993 0.50081 0.50230
 Zr718 Zr -0.00407 0.55749 0.43947
 Zr719 Zr -0.00333 0.44197 0.56193
 Zr720 Zr 0.05199 0.49964 0.49931
 H721 H 0.03685 0.59137 0.49863
 H722 H -0.04854 0.49879 0.41295
 H723 H 0.03687 0.40831 0.50124
 H724 H -0.04678 0.50153 0.59133
 H725 H -0.01462 0.35328 0.46498
 H726 H 0.00121 0.35367 0.54241
 H727 H -0.00426 0.64612 0.45804
 H728 H -0.00861 0.64709 0.53805
 C729 C 0.24471 0.74990 0.90036
 C730 C 0.25035 0.75003 0.59867
 C731 C 0.16990 0.67304 0.81958
 C732 C 0.17076 0.82711 0.82142
 C733 C 0.16974 0.67562 0.67720
 C734 C 0.32046 0.67238 0.67630
 C735 C 0.32227 0.82248 0.67696
 C736 C 0.31991 0.67252 0.82404
 C737 C 0.17259 0.82773 0.67523
 C738 C 0.32210 0.82201 0.82417
 O739 O 0.19959 0.66510 0.66626
 O740 O 0.16163 0.70572 0.70855
 O741 O 0.20263 0.83707 0.66523
 O742 O 0.16303 0.79709 0.70565
 O743 O 0.29220 0.83312 0.83413
 O744 O 0.33050 0.78999 0.79447
 O745 O 0.25033 0.79043 0.61920
 O746 O 0.24779 0.70956 0.61893
 O747 O 0.24664 0.79002 0.87948
 O748 O 0.24434 0.70931 0.88015
 O749 O 0.29053 0.66376 0.66508
 O750 O 0.32972 0.70198 0.70776
 O751 O 0.19956 0.66329 0.83124
 O752 O 0.16141 0.70448 0.78919
 O753 O 0.28981 0.66433 0.83479
 O754 O 0.32950 0.70271 0.79337
 O755 O 0.29267 0.83434 0.66695
 O756 O 0.33069 0.78996 0.70616
 O757 O 0.24737 0.88266 0.81924
 O758 O 0.24844 0.88278 0.68157
 O759 O 0.24549 0.61655 0.68012
 O760 O 0.24369 0.61695 0.81984
 O761 O 0.21706 0.68807 0.74920
 O762 O 0.21845 0.81296 0.74911
 O763 O 0.27284 0.68657 0.74989
 O764 O 0.21591 0.75051 0.81055
 O765 O 0.16202 0.79723 0.78995
 O766 O 0.20086 0.83731 0.83128
 O767 O 0.27563 0.74876 0.81198
 O768 O 0.27634 0.74860 0.68810
 O769 O 0.27469 0.81038 0.74991
 O770 O 0.21683 0.75048 0.68765
 Zr771 Zr 0.24638 0.80856 0.80942
 Zr772 Zr 0.24553 0.69073 0.68934
 Zr773 Zr 0.19006 0.75117 0.74881
 Zr774 Zr 0.24490 0.69093 0.80970
 Zr775 Zr 0.24721 0.80845 0.68958
 Zr776 Zr 0.30204 0.74750 0.75025
 H777 H 0.28533 0.65654 0.75009
 H778 H 0.20107 0.75050 0.83752
 H779 H 0.28821 0.83933 0.75023
 H780 H 0.20290 0.75076 0.65981
 H781 H 0.25368 0.89631 0.78903
 H782 H 0.23998 0.89583 0.71097
 H783 H 0.24131 0.60313 0.78861
 H784 H 0.23668 0.60326 0.70920
 C785 C 0.49890 0.49643 0.35045
 C786 C 0.49405 0.50541 0.65163
 C787 C 0.57183 0.42202 0.43196
 C788 C 0.57300 0.58030 0.43610
 C789 C 0.56998 0.42317 0.57495
 C790 C 0.41931 0.42772 0.57343
 C791 C 0.41969 0.57409 0.57205
 C792 C 0.42206 0.42650 0.42385
 C793 C 0.57027 0.57896 0.57202
 C794 C 0.42325 0.57522 0.42283
 O795 O 0.53991 0.41415 0.58554
 O796 O 0.57930 0.45486 0.54554
 O797 O 0.54014 0.58936 0.58073
 O798 O 0.57962 0.54488 0.54528
 O799 O 0.45330 0.58676 0.41635
 O800 O 0.41336 0.54443 0.45290
 O801 O 0.49689 0.54452 0.62964
 O802 O 0.49295 0.46426 0.63215
 O803 O 0.49969 0.53735 0.37011
 O804 O 0.49792 0.45651 0.37157
 O805 O 0.44906 0.41820 0.58533
 O806 O 0.41116 0.45665 0.54065
 O807 O 0.54204 0.41110 0.42226
 O808 O 0.58068 0.45527 0.46005
 O809 O 0.45209 0.41511 0.41577
 O810 O 0.41268 0.45720 0.45419
 O811 O 0.44941 0.58338 0.58391
 O812 O 0.41113 0.54550 0.53947
 O813 O 0.49699 0.63119 0.42346
 O814 O 0.49198 0.63422 0.56662
 O815 O 0.49318 0.36904 0.57400
 O816 O 0.49555 0.36627 0.43433
 O817 O 0.52426 0.43764 0.50302
 O818 O 0.52476 0.56267 0.50075
 O819 O 0.46814 0.43867 0.50106
 O820 O 0.52701 0.49927 0.44023
 O821 O 0.58135 0.54508 0.46207
 O822 O 0.54313 0.59056 0.42549
 O823 O 0.46740 0.49979 0.43758
 O824 O 0.46506 0.50171 0.56142
 O825 O 0.46851 0.56254 0.49869
 O826 O 0.52488 0.50117 0.56291
 Zr827 Zr 0.49768 0.55833 0.44008
 Zr828 Zr 0.49496 0.44281 0.56212
 Zr829 Zr 0.55220 0.49989 0.50243
 Zr830 Zr 0.49693 0.44057 0.44211
 Zr831 Zr 0.49531 0.56004 0.55928
 Zr832 Zr 0.44012 0.50079 0.49844
 H833 H 0.45498 0.40929 0.50091
 H834 H 0.54221 0.49958 0.41369
 H835 H 0.45551 0.59214 0.49846
 H836 H 0.53915 0.50150 0.59050
 H837 H 0.49534 0.64794 0.45344
 H838 H 0.49522 0.64718 0.53515
 H839 H 0.49567 0.35332 0.46611
 H840 H 0.50155 0.35421 0.54537
 C841 C 0.74602 0.74896 0.90265
 C842 C 0.75021 0.74962 0.60103
 C843 C 0.67077 0.67274 0.82186
 C844 C 0.67053 0.82544 0.82564
 C845 C 0.66982 0.67734 0.67808
 C846 C 0.82108 0.67425 0.67866
 C847 C 0.82253 0.82233 0.67816
 C848 C 0.82071 0.67463 0.82620
 C849 C 0.67262 0.82738 0.67734
 C850 C 0.82086 0.82264 0.82844
 O851 O 0.69972 0.66638 0.66753
 O852 O 0.66179 0.70693 0.70993
 O853 O 0.70259 0.83687 0.66711
 O854 O 0.66320 0.79736 0.70840
 O855 O 0.79100 0.83276 0.83881
 O856 O 0.82986 0.79287 0.79684
 O857 O 0.75026 0.79012 0.62157
 O858 O 0.74777 0.70920 0.62126
 O859 O 0.74594 0.78962 0.88245
 O860 O 0.74629 0.70868 0.88199
 O861 O 0.79118 0.66528 0.66723
 O862 O 0.82997 0.70428 0.70996
 O863 O 0.70047 0.66319 0.83352
 O864 O 0.66215 0.70415 0.79153
 O865 O 0.79069 0.66509 0.83627
 O866 O 0.83004 0.70564 0.79624
 O867 O 0.79286 0.83472 0.66876
 O868 O 0.83035 0.78963 0.70725
 O869 O 0.74649 0.88296 0.82110
 O870 O 0.74839 0.88339 0.68349
 O871 O 0.74596 0.61678 0.68387
 O872 O 0.74510 0.61689 0.82095
 O873 O 0.71736 0.68822 0.75137
 O874 O 0.71831 0.81336 0.75163
 O875 O 0.77347 0.68739 0.75191
 O876 O 0.71614 0.75016 0.81293
 O877 O 0.66190 0.79624 0.79346
 O878 O 0.70054 0.83581 0.83557
 O879 O 0.77563 0.74939 0.81421
 O880 O 0.77635 0.74944 0.69059
 O881 O 0.77444 0.81149 0.75257
 O882 O 0.71714 0.75090 0.69029
 Zr883 Zr 0.74596 0.80871 0.81222
 Zr884 Zr 0.74582 0.69116 0.69164
 Zr885 Zr 0.69027 0.75132 0.75129
 Zr886 Zr 0.74555 0.69101 0.81156
 Zr887 Zr 0.74724 0.80910 0.69196
 Zr888 Zr 0.80200 0.74897 0.75269
 H889 H 0.78633 0.65767 0.75203
 H890 H 0.70151 0.74961 0.84010
 H891 H 0.78794 0.84048 0.75278
 H892 H 0.70328 0.75122 0.66243
 H893 H 0.75306 0.89630 0.79087
 H894 H 0.73910 0.89661 0.71231
 H895 H 0.74399 0.60335 0.78947
 H896 H 0.73403 0.60420 0.71096
 C897 C 0.03271 0.00963 0.22649
 C898 C 0.00337 0.00180 0.20175
 C899 C -0.02555 -0.00644 0.22606
 C900 C -0.02578 -0.00809 0.27424
 C901 C 0.00276 -0.00004 0.29950
 C902 C 0.03245 0.00831 0.27583
 C903 C 0.06235 0.01849 0.20331
 C904 C 0.09119 0.02498 0.22814
 C905 C 0.09105 0.02277 0.27627
 C906 C 0.06200 0.01459 0.30008
 H907 H 0.06344 0.02030 0.16595
 H908 H 0.11382 0.03145 0.20997
 H909 H 0.11358 0.02749 0.29525
 H910 H 0.06292 0.01295 0.33748
 H911 H -0.04827 -0.01120 0.20755
 H912 H -0.04864 -0.01455 0.29199
 C913 C 0.26581 0.29395 1.02906
 C914 C 0.25402 0.25319 1.05349
 C915 C 0.24414 0.21378 1.02726
 C916 C 0.24221 0.21577 0.97933
 C917 C 0.25001 0.25705 0.95461
 C918 C 0.26190 0.29736 0.97987
 C919 C 0.28410 0.32972 1.05176
 C920 C 0.29354 0.37088 1.02921
 C921 C 0.28642 0.37682 0.98289
 C922 C 0.27154 0.34047 0.95821
 H923 H 0.29300 0.32548 1.08648
 H924 H 0.30694 0.39795 1.04763
 H925 H 0.29389 0.40895 0.96533
 H926 H 0.26913 0.34784 0.92212
 H927 H 0.23602 0.18137 1.04379
 H928 H 0.23353 0.18449 0.96148
 C929 C 0.09838 0.15258 0.09664
 C930 C 0.09950 0.10250 0.09370
 C931 C 0.12431 0.07770 0.11662
 C932 C 0.14714 0.10160 0.14372
 C933 C 0.14564 0.15096 0.14929
 C934 C 0.12123 0.17702 0.12510
 C935 C 0.07560 0.17907 0.07049
 C936 C 0.07405 0.22816 0.07414
 C937 C 0.09564 0.25193 0.10282
 C938 C 0.11952 0.22696 0.12714
 H939 H 0.05921 0.16231 0.04630
 H940 H 0.05621 0.24790 0.05428
 H941 H 0.09410 0.29001 0.10565
 H942 H 0.13667 0.24730 0.14690
 H943 H 0.12551 0.03939 0.11451
 H944 H 0.16587 0.08122 0.16124
 C945 C 0.34127 0.40369 0.14390
 C946 C 0.34714 0.35642 0.15846
 C947 C 0.37687 0.33491 0.14716
 C948 C 0.40003 0.35864 0.12065
 C949 C 0.39371 0.40375 0.10209
 C950 C 0.36303 0.42599 0.11214
 C951 C 0.31454 0.42983 0.16130
 C952 C 0.30613 0.47358 0.14267
 C953 C 0.32482 0.49290 0.10751
 C954 C 0.35322 0.47012 0.09301
 H955 H 0.30055 0.41743 0.19046
 H956 H 0.28521 0.49273 0.15588
 H957 H 0.31817 0.52690 0.09284
 H958 H 0.36682 0.48877 0.06730
 H959 H 0.38212 0.29903 0.15833
 H960 H 0.42284 0.34072 0.11331
 C961 C 0.34855 0.09630 0.15725
 C962 C 0.34735 0.14650 0.15325
 C963 C 0.37140 0.16985 0.12750
 C964 C 0.39548 0.14431 0.10409
 C965 C 0.39640 0.09463 0.10588
 C966 C 0.37336 0.07028 0.13365
 C967 C 0.32647 0.07142 0.18588
 C968 C 0.32853 0.02237 0.19073
 C969 C 0.35301 -0.00278 0.16831
 C970 C 0.37534 0.02078 0.14019
 H971 H 0.30788 0.08949 0.20556
 H972 H 0.31126 0.00382 0.21242
 H973 H 0.35487 -0.04066 0.17317
 H974 H 0.39451 0.00007 0.12451
 H975 H 0.37115 0.20816 0.12478
 H976 H 0.41332 0.16350 0.08377
 C977 C 0.14781 0.34961 0.10288
 C978 C 0.14615 0.34980 0.15208
 C979 C 0.12014 0.37289 0.17390
 C980 C 0.09656 0.39695 0.14807
 C981 C 0.09830 0.39890 0.09962
 C982 C 0.12391 0.37465 0.07652
 C983 C 0.17161 0.32268 0.07911
 C984 C 0.17281 0.32203 0.03101
 C985 C 0.14994 0.34713 0.00542
 C986 C 0.12539 0.37252 0.02773
 H987 H 0.18891 0.30067 0.09717
 H988 H 0.19125 0.30127 0.01348
 H989 H 0.15092 0.34615 -0.03192
 H990 H 0.10730 0.38941 0.00626
 H991 H 0.11835 0.37293 0.21128
 H992 H 0.07695 0.41486 0.16615
 C993 C 0.37638 0.12707 0.32189
 C994 C 0.34902 0.14561 0.34603
 C995 C 0.34595 0.13705 0.39359
 C996 C 0.36980 0.11203 0.41772
 C997 C 0.39764 0.09489 0.39519
 C998 C 0.40097 0.10179 0.34663
 C999 C 0.37907 0.13077 0.27330
 C1000 C 0.40600 0.11275 0.24990
 C1001 C 0.43006 0.08857 0.27396
 C1002 C 0.42716 0.08177 0.32147
 H1003 H 0.36018 0.14640 0.25262
 H1004 H 0.40795 0.11680 0.21280
 H1005 H 0.45074 0.07421 0.25550
 H1006 H 0.44520 0.05964 0.33762
 H1007 H 0.32507 0.15053 0.41247
 H1008 H 0.36679 0.10686 0.45462
 C1009 C 0.12317 0.32184 0.38161
 C1010 C 0.14504 0.34722 0.35270
 C1011 C 0.14255 0.39669 0.35002
 C1012 C 0.11823 0.42104 0.37411
 C1013 C 0.09558 0.39661 0.40147
 C1014 C 0.09821 0.34668 0.40604
 C1015 C 0.12631 0.27245 0.38825
 C1016 C 0.10511 0.24807 0.41745
 C1017 C 0.08074 0.27221 0.44110
 C1018 C 0.07741 0.32106 0.43594
 H1019 H 0.14544 0.25237 0.37170
 H1020 H 0.10773 0.21032 0.42217
 H1021 H 0.06451 0.25301 0.46389
 H1022 H 0.05880 0.33844 0.45624
 H1023 H 0.15937 0.41659 0.32861
 H1024 H 0.11673 0.45925 0.37081
 C1025 C 0.15328 0.13535 0.40160
 C1026 C 0.14841 0.14582 0.35358
 C1027 C 0.11795 0.13651 0.33359
 C1028 C 0.09303 0.11569 0.35906
 C1029 C 0.09735 0.10425 0.40581
 C1030 C 0.12696 0.11647 0.42805
 C1031 C 0.18294 0.14474 0.42497
 C1032 C 0.18645 0.13620 0.47220
 C1033 C 0.15998 0.12152 0.49820
 C1034 C 0.13036 0.11272 0.47661
 H1035 H 0.20383 0.15940 0.40823
 H1036 H 0.20959 0.14268 0.48903
 H1037 H 0.16228 0.11748 0.53531
 H1038 H 0.11002 0.10445 0.49865
 H1039 H 0.11356 0.14461 0.29747
 H1040 H 0.07028 0.10768 0.34172
 C1041 C 0.34655 0.40170 0.34923
 C1042 C 0.34745 0.35143 0.34853
 C1043 C 0.37340 0.32760 0.36987
 C1044 C 0.39752 0.35257 0.39353
 C1045 C 0.39654 0.40216 0.39640
 C1046 C 0.37134 0.42723 0.37308
 C1047 C 0.32215 0.42732 0.32529
 C1048 C 0.32124 0.47658 0.32664
 C1049 C 0.34574 0.50148 0.34908
 C1050 C 0.37090 0.47722 0.37129
 H1051 H 0.30396 0.40989 0.30447
 H1052 H 0.30200 0.49556 0.30883
 H1053 H 0.34560 0.53977 0.34830
 H1054 H 0.39028 0.49793 0.38594
 H1055 H 0.37459 0.28924 0.36910
 H1056 H 0.41680 0.33289 0.41059
 C1057 C 0.53083 0.00563 0.22750
 C1058 C 0.50163 -0.00494 0.20352
 C1059 C 0.47338 -0.01647 0.22810
 C1060 C 0.47358 -0.01759 0.27618
 C1061 C 0.50182 -0.00588 0.30071
 C1062 C 0.53093 0.00508 0.27668
 C1063 C 0.56003 0.01621 0.20374
 C1064 C 0.58869 0.02561 0.22803
 C1065 C 0.58884 0.02468 0.27616
 C1066 C 0.56029 0.01454 0.30042
 H1067 H 0.56103 0.01694 0.16639
 H1068 H 0.61097 0.03334 0.20947
 H1069 H 0.61121 0.03171 0.29481
 H1070 H 0.56152 0.01376 0.33776
 H1071 H 0.45083 -0.02373 0.20993
 H1072 H 0.45127 -0.02631 0.29440
 C1073 C 0.77054 0.28619 1.02859
 C1074 C 0.75196 0.25115 1.05191
 C1075 C 0.73362 0.21878 1.02624
 C1076 C 0.73283 0.22117 0.97831
 C1077 C 0.74939 0.25702 0.95427
 C1078 C 0.76780 0.29117 0.97970
 C1079 C 0.79254 0.31565 1.05280
 C1080 C 0.80848 0.35281 1.03082
 C1081 C 0.80362 0.36051 0.98400
 C1082 C 0.78429 0.32952 0.95840
 H1083 H 0.79837 0.30947 1.08855
 H1084 H 0.82478 0.37554 1.05013
 H1085 H 0.81583 0.38974 0.96701
 H1086 H 0.78320 0.33655 0.92203
 H1087 H 0.71929 0.19177 1.04347
 H1088 H 0.71834 0.19528 0.95981
 C1089 C 0.59744 0.15246 0.10006
 C1090 C 0.59828 0.10243 0.09692
 C1091 C 0.62371 0.07735 0.11818
 C1092 C 0.64733 0.10079 0.14420
 C1093 C 0.64630 0.15010 0.14974
 C1094 C 0.62165 0.17654 0.12644
 C1095 C 0.57368 0.17927 0.07606
 C1096 C 0.57292 0.22840 0.07938
 C1097 C 0.59673 0.25196 0.10449
 C1098 C 0.62120 0.22653 0.12710
 H1099 H 0.55593 0.16284 0.05368
 H1100 H 0.55427 0.24839 0.06133
 H1101 H 0.59645 0.29016 0.10562
 H1102 H 0.64004 0.24637 0.14406
 H1103 H 0.62475 0.03906 0.11574
 H1104 H 0.66626 0.08009 0.16089
 C1105 C -0.15279 0.40138 0.15311
 C1106 C -0.15333 0.35120 0.15449
 C1107 C -0.12969 0.32582 0.12965
 C1108 C -0.10552 0.34908 0.10424
 C1109 C -0.10453 0.39866 0.10192
 C1110 C -0.12826 0.42527 0.12690
 C1111 C -0.17581 0.42851 0.17808
 C1112 C -0.17586 0.47768 0.17547
 C1113 C -0.15171 0.50100 0.15075
 C1114 C -0.12767 0.47526 0.12768
 H1115 H -0.19377 0.41234 0.20029
 H1116 H -0.19419 0.49786 0.19390
 H1117 H -0.15135 0.53925 0.15033
 H1118 H -0.10851 0.49486 0.11114
 H1119 H -0.13055 0.28758 0.12859
 H1120 H -0.08785 0.32813 0.08530
 C1121 C 0.90810 0.13890 0.13524
 C1122 C 0.89915 0.10423 0.10138
 C1123 C 0.86591 0.09768 0.09185
 C1124 C 0.84196 0.12335 0.11507
 C1125 C 0.84997 0.15903 0.14698
 C1126 C 0.88376 0.16985 0.15389
 C1127 C 0.94027 0.14257 0.15327
 C1128 C 0.94947 0.18034 0.18118
 C1129 C 0.92692 0.21485 0.19274
 C1130 C 0.89446 0.20963 0.17977
 H1131 H 0.95840 0.11533 0.14906
 H1132 H 0.97425 0.18282 0.19389
 H1133 H 0.93436 0.24512 0.21314
 H1134 H 0.87866 0.23812 0.18977
 H1135 H 0.85813 0.07164 0.06668
 H1136 H 0.81673 0.11467 0.10796
 C1137 C 0.65054 0.35429 0.10333
 C1138 C 0.64555 0.34721 0.15163
 C1139 C 0.61604 0.36185 0.17128
 C1140 C 0.59247 0.38499 0.14465
 C1141 C 0.59810 0.39678 0.09804
 C1142 C 0.62763 0.38130 0.07695
 C1143 C 0.67697 0.33278 0.07997
 C1144 C 0.68291 0.34168 0.03340
 C1145 C 0.66212 0.37097 0.00864
 C1146 C 0.63440 0.38966 0.02970
 H1147 H 0.69251 0.30744 0.09683
 H1148 H 0.70346 0.32526 0.01627
 H1149 H 0.66680 0.37781 -0.02759
 H1150 H 0.61822 0.40930 0.00776
 H1151 H 0.61121 0.35551 0.20760
 H1152 H 0.56972 0.39464 0.16110
 C1153 C -0.12605 0.13140 0.32616
 C1154 C -0.15428 0.14865 0.34943
 C1155 C -0.15814 0.13739 0.39663
 C1156 C -0.13329 0.11526 0.42160
 C1157 C -0.10384 0.10253 0.40041
 C1158 C -0.10029 0.10960 0.35187
 C1159 C -0.12534 0.12789 0.27734
 C1160 C -0.09897 0.10778 0.25464
 C1161 C -0.07224 0.09208 0.27931
 C1162 C -0.07320 0.09128 0.32730
 H1163 H -0.14612 0.13703 0.25626
 H1164 H -0.09975 0.10268 0.21786
 H1165 H -0.05140 0.07811 0.26104
 H1166 H -0.05328 0.07352 0.34393
 H1167 H -0.17987 0.14813 0.41529
 H1168 H -0.13691 0.10871 0.45818
 C1169 C 0.62257 0.31956 0.38352
 C1170 C 0.64472 0.34529 0.35529
 C1171 C 0.64386 0.39495 0.35579
 C1172 C 0.62066 0.41925 0.38189
 C1173 C 0.59752 0.39463 0.40814
 C1174 C 0.59869 0.34444 0.40994
 C1175 C 0.62450 0.26979 0.38777
 C1176 C 0.60309 0.24515 0.41648
 C1177 C 0.57974 0.26936 0.44205
 C1178 C 0.57763 0.31854 0.43926
 H1179 H 0.64289 0.24957 0.36985
 H1180 H 0.60479 0.20711 0.41939
 H1181 H 0.56347 0.24996 0.46462
 H1182 H 0.55996 0.33597 0.46120
 H1183 H 0.66112 0.41509 0.33534
 H1184 H 0.62027 0.45765 0.38073
 C1185 C 0.65391 0.13412 0.40418
 C1186 C 0.64866 0.14484 0.35620
 C1187 C 0.61800 0.13568 0.33682
 C1188 C 0.59328 0.11486 0.36272
 C1189 C 0.59793 0.10336 0.40944
 C1190 C 0.62776 0.11535 0.43111
 C1191 C 0.68383 0.14300 0.42709
 C1192 C 0.68766 0.13456 0.47429
 C1193 C 0.66135 0.12007 0.50071
 C1194 C 0.63157 0.11132 0.47955
 H1195 H 0.70475 0.15703 0.41006
 H1196 H 0.71095 0.14094 0.49074
 H1197 H 0.66392 0.11604 0.53778
 H1198 H 0.61142 0.10286 0.50181
 H1199 H 0.61326 0.14386 0.30080
 H1200 H 0.57041 0.10690 0.34568
 C1201 C -0.15862 0.40066 0.36097
 C1202 C -0.15395 0.35191 0.35111
 C1203 C -0.12588 0.32898 0.36712
 C1204 C -0.10293 0.35317 0.39348
 C1205 C -0.10787 0.40055 0.40657
 C1206 C -0.13685 0.42441 0.39156
 C1207 C -0.18406 0.42673 0.33979
 C1208 C -0.19083 0.47307 0.35295
 C1209 C -0.17180 0.49486 0.38632
 C1210 C -0.14471 0.47150 0.40458
 H1211 H -0.19840 0.41203 0.31200
 H1212 H -0.21072 0.49228 0.33689
 H1213 H -0.17717 0.53092 0.39664
 H1214 H -0.13038 0.49188 0.42816
 H1215 H -0.12188 0.29178 0.35969
 H1216 H -0.08129 0.33423 0.40462
 C1217 C 0.02931 0.50640 0.22622
 C1218 C 0.00060 0.49410 0.20184
 C1219 C -0.02729 0.48009 0.22612
 C1220 C -0.02760 0.48022 0.27424
 C1221 C -0.00005 0.49422 0.29920
 C1222 C 0.02906 0.50602 0.27545
 C1223 C 0.05852 0.51770 0.20278
 C1224 C 0.08695 0.52757 0.22743
 C1225 C 0.08684 0.52635 0.27558
 C1226 C 0.05820 0.51588 0.29953
 H1227 H 0.05978 0.51815 0.16539
 H1228 H 0.10927 0.53572 0.20912
 H1229 H 0.10910 0.53341 0.29449
 H1230 H 0.05920 0.51484 0.33691
 H1231 H -0.04921 0.46994 0.20764
 H1232 H -0.04959 0.46985 0.29225
 C1233 C 0.22601 0.79015 1.02341
 C1234 C 0.24437 0.75572 1.04853
 C1235 C 0.26081 0.71975 1.02453
 C1236 C 0.26022 0.71788 0.97658
 C1237 C 0.24222 0.75097 0.95113
 C1238 C 0.22351 0.78588 0.97453
 C1239 C 0.20910 0.82783 1.04523
 C1240 C 0.18954 0.85892 1.02007
 C1241 C 0.18499 0.85203 0.97312
 C1242 C 0.20140 0.81560 0.95056
 H1243 H 0.20964 0.83375 1.08180
 H1244 H 0.17674 0.88732 1.03753
 H1245 H 0.16842 0.87477 0.95431
 H1246 H 0.19584 0.81026 0.91457
 H1247 H 0.27493 0.69336 1.04308
 H1248 H 0.27437 0.69075 0.95920
 C1249 C 0.09113 0.65253 0.10928
 C1250 C 0.09628 0.60403 0.09849
 C1251 C 0.12453 0.58153 0.11447
 C1252 C 0.14714 0.60585 0.14146
 C1253 C 0.14167 0.65291 0.15543
 C1254 C 0.11244 0.67617 0.14070
 C1255 C 0.06574 0.67860 0.08806
 C1256 C 0.05870 0.72477 0.10157
 C1257 C 0.07717 0.74622 0.13579
 C1258 C 0.10401 0.72273 0.15465
 H1259 H 0.05174 0.66410 0.05984
 H1260 H 0.03898 0.74408 0.08518
 H1261 H 0.07157 0.78210 0.14642
 H1262 H 0.11790 0.74268 0.17918
 H1263 H 0.12895 0.54455 0.10653
 H1264 H 0.16900 0.58727 0.15229
 C1265 C 0.40594 0.88167 0.15150
 C1266 C 0.40046 0.89970 0.10524
 C1267 C 0.36846 0.89644 0.08708
 C1268 C 0.34353 0.87327 0.11061
 C1269 C 0.34840 0.85519 0.15502
 C1270 C 0.37887 0.86308 0.17705
 C1271 C 0.43629 0.88498 0.17547
 C1272 C 0.43927 0.87304 0.22202
 C1273 C 0.41214 0.85972 0.24712
 C1274 C 0.38225 0.85552 0.22511
 H1275 H 0.45847 0.89781 0.16082
 H1276 H 0.46262 0.87632 0.23923
 H1277 H 0.41418 0.85321 0.28391
 H1278 H 0.36149 0.84860 0.24659
 H1279 H 0.36274 0.90957 0.05277
 H1280 H 0.32021 0.86897 0.09350
 C1281 C 0.35441 0.60227 0.16374
 C1282 C 0.34386 0.64705 0.14722
 C1283 C 0.35805 0.66613 0.10730
 C1284 C 0.38247 0.64149 0.08370
 C1285 C 0.39384 0.59778 0.10013
 C1286 C 0.38042 0.57832 0.14097
 C1287 C 0.33990 0.58089 0.20272
 C1288 C 0.35170 0.53806 0.21997
 C1289 C 0.37797 0.51560 0.19889
 C1290 C 0.39229 0.53542 0.15968
 H1291 H 0.31957 0.59718 0.22038
 H1292 H 0.34035 0.52221 0.24975
 H1293 H 0.38686 0.48220 0.21242
 H1294 H 0.41215 0.51632 0.14351
 H1295 H 0.35008 0.70028 0.09430
 H1296 H 0.39281 0.65685 0.05264
 C1297 C 0.11267 0.85808 0.08050
 C1298 C 0.10160 0.90311 0.09519
 C1299 C 0.11295 0.92196 0.13695
 C1300 C 0.13510 0.89694 0.16433
 C1301 C 0.14630 0.85220 0.15080
 C1302 C 0.13528 0.83244 0.10838
 C1303 C 0.10178 0.83803 0.03852
 C1304 C 0.11302 0.79378 0.02416
 C1305 C 0.13521 0.76875 0.05120
 C1306 C 0.14628 0.78778 0.09282
 H1307 H 0.08476 0.85653 0.01634
 H1308 H 0.10457 0.77890 -0.00813
 H1309 H 0.14389 0.73439 0.03994
 H1310 H 0.16331 0.76700 0.11264
 H1311 H 0.10429 0.95611 0.14869
 H1312 H 0.14361 0.91261 0.19633
 C1313 C 0.37866 0.63446 0.32075
 C1314 C 0.34898 0.64719 0.34317
 C1315 C 0.34450 0.63513 0.38979
 C1316 C 0.36871 0.61172 0.41461
 C1317 C 0.39843 0.59957 0.39388
 C1318 C 0.40355 0.61061 0.34623
 C1319 C 0.38391 0.64332 0.27312
 C1320 C 0.41310 0.63149 0.25160
 C1321 C 0.43735 0.60875 0.27636
 C1322 C 0.43236 0.59723 0.32260
 H1323 H 0.36556 0.65816 0.25113
 H1324 H 0.41660 0.63909 0.21522
 H1325 H 0.45989 0.59895 0.25938
 H1326 H 0.45122 0.57678 0.33854
 H1327 H 0.32218 0.64471 0.40756
 H1328 H 0.36434 0.60368 0.45074
 C1329 C 0.15365 -0.13760 0.40261
 C1330 C 0.14881 -0.14691 0.35470
 C1331 C 0.11973 -0.13222 0.33367
 C1332 C 0.09594 -0.10796 0.35863
 C1333 C 0.10050 -0.09648 0.40542
 C1334 C 0.13001 -0.11075 0.42775
 C1335 C 0.18095 -0.15594 0.42672
 C1336 C 0.18671 -0.14451 0.47277
 C1337 C 0.16472 -0.11643 0.49656
 C1338 C 0.13641 -0.10068 0.47486
 H1339 H 0.19774 -0.18027 0.41097
 H1340 H 0.20813 -0.15798 0.49029
 H1341 H 0.16907 -0.10803 0.53257
 H1342 H 0.11974 -0.08173 0.49645
 H1343 H 0.11547 -0.13917 0.29732
 H1344 H 0.07386 -0.09724 0.34082
 C1345 C 0.15133 0.63939 0.40033
 C1346 C 0.14696 0.65007 0.35242
 C1347 C 0.11702 0.63933 0.33148
 C1348 C 0.09238 0.61631 0.35595
 C1349 C 0.09651 0.60378 0.40252
 C1350 C 0.12536 0.61808 0.42572
 C1351 C 0.18028 0.65087 0.42449
 C1352 C 0.18354 0.64185 0.47164
 C1353 C 0.15734 0.62465 0.49668
 C1354 C 0.12835 0.61381 0.47420
 H1355 H 0.20060 0.66777 0.40822
 H1356 H 0.20617 0.64984 0.48919
 H1357 H 0.15939 0.62034 0.53373
 H1358 H 0.10806 0.60373 0.49540
 H1359 H 0.11292 0.64782 0.29537
 H1360 H 0.07004 0.60751 0.33797
 C1361 C 0.35104 -0.10178 0.34346
 C1362 C 0.35019 -0.15194 0.34526
 C1363 C 0.37457 -0.17646 0.36936
 C1364 C 0.39851 -0.15197 0.39396
 C1365 C 0.39878 -0.10226 0.39505
 C1366 C 0.37545 -0.07675 0.36851
 C1367 C 0.32867 -0.07591 0.31603
 C1368 C 0.32938 -0.02666 0.31490
 C1369 C 0.35312 -0.00228 0.33930
 C1370 C 0.37640 -0.02691 0.36506
 H1371 H 0.31072 -0.09327 0.29471
 H1372 H 0.31159 -0.00731 0.29466
 H1373 H 0.35352 0.03586 0.33777
 H1374 H 0.39535 -0.00672 0.38151
 H1375 H 0.37455 -0.21486 0.37010
 H1376 H 0.41652 -0.17201 0.41324
 C1377 C 0.52857 0.48780 0.22626
 C1378 C 0.49853 0.49490 0.20294
 C1379 C 0.46974 0.49980 0.22820
 C1380 C 0.47027 0.49900 0.27620
 C1381 C 0.49979 0.49492 0.30000
 C1382 C 0.52925 0.48840 0.27542
 C1383 C 0.55809 0.48163 0.20189
 C1384 C 0.58759 0.47646 0.22546
 C1385 C 0.58822 0.47718 0.27358
 C1386 C 0.55939 0.48303 0.29854
 H1387 H 0.55873 0.48160 0.16456
 H1388 H 0.61008 0.47220 0.20627
 H1389 H 0.61120 0.47339 0.29161
 H1390 H 0.56093 0.48347 0.33589
 H1391 H 0.44669 0.50399 0.21063
 H1392 H 0.44747 0.50200 0.29492
 C1393 C 0.71772 0.76747 1.02660
 C1394 C 0.74459 0.74735 1.05044
 C1395 C 0.77016 0.72655 1.02567
 C1396 C 0.77011 0.72705 0.97757
 C1397 C 0.74452 0.74847 0.95324
 C1398 C 0.71772 0.76812 0.97747
 C1399 C 0.69038 0.78563 1.05048
 C1400 C 0.66402 0.80471 1.02640
 C1401 C 0.66405 0.80551 0.97843
 C1402 C 0.69043 0.78711 0.95397
 H1403 H 0.68884 0.78457 1.08773
 H1404 H 0.64329 0.81859 1.04488
 H1405 H 0.64335 0.82008 0.96023
 H1406 H 0.68895 0.78730 0.91671
 H1407 H 0.79060 0.71065 1.04371
 H1408 H 0.79046 0.71136 0.95917
 C1409 C 0.59149 0.60822 0.15341
 C1410 C 0.59485 0.60342 0.10449
 C1411 C 0.62376 0.61906 0.08356
 C1412 C 0.64848 0.64033 0.10952
 C1413 C 0.64589 0.64489 0.15774
 C1414 C 0.61791 0.62661 0.18015
 C1415 C 0.56301 0.59381 0.17705
 C1416 C 0.56121 0.59487 0.22497
 C1417 C 0.58828 0.60726 0.25066
 C1418 C 0.61626 0.62390 0.22883
 H1419 H 0.54197 0.58031 0.15980
 H1420 H 0.53914 0.58375 0.24235
 H1421 H 0.58747 0.60311 0.28758
 H1422 H 0.63687 0.63299 0.25032
 H1423 H 0.62699 0.61563 0.04654
 H1424 H 0.66977 0.65381 0.09163
 C1425 C 0.90374 0.88567 0.15203
 C1426 C 0.90046 0.89428 0.10362
 C1427 C 0.87113 0.88195 0.08159
 C1428 C 0.84574 0.86039 0.10579
 C1429 C 0.84830 0.85162 0.15331
 C1430 C 0.87687 0.86637 0.17714
 C1431 C 0.93246 0.89706 0.17685
 C1432 C 0.93457 0.88994 0.22446
 C1433 C 0.90759 0.87471 0.24908
 C1434 C 0.87884 0.86407 0.22586
 H1435 H 0.95367 0.91188 0.16073
 H1436 H 0.95701 0.89771 0.24261
 H1437 H 0.90887 0.87157 0.28634
 H1438 H 0.85797 0.85537 0.24659
 H1439 H 0.86798 0.88846 0.04491
 H1440 H 0.82406 0.84987 0.08702
 C1441 C 0.90092 0.60526 0.14995
 C1442 C 0.89603 0.59716 0.10191
 C1443 C 0.86711 0.61264 0.08110
 C1444 C 0.84372 0.63729 0.10651
 C1445 C 0.84887 0.64884 0.15319
 C1446 C 0.87824 0.63349 0.17520
 C1447 C 0.92723 0.58406 0.17406
 C1448 C 0.93358 0.59498 0.22005
 C1449 C 0.91315 0.62565 0.24364
 C1450 C 0.88538 0.64365 0.22207
 H1451 H 0.94260 0.55775 0.15823
 H1452 H 0.95423 0.57924 0.23763
 H1453 H 0.91804 0.63398 0.27951
 H1454 H 0.86971 0.66440 0.24359
 H1455 H 0.86270 0.60600 0.04472
 H1456 H 0.82161 0.64849 0.08912
 C1457 C 0.59346 0.84380 0.10326
 C1458 C 0.59796 0.89235 0.09018
 C1459 C 0.62766 0.91412 0.10217
 C1460 C 0.65007 0.89175 0.13139
 C1461 C 0.64464 0.84595 0.14891
 C1462 C 0.61648 0.82084 0.13329
 C1463 C 0.56892 0.81565 0.08229
 C1464 C 0.56481 0.76821 0.09393
 C1465 C 0.58594 0.74676 0.12490
 C1466 C 0.61189 0.77219 0.14341
 H1467 H 0.55389 0.82893 0.05450
 H1468 H 0.54573 0.74759 0.07769
 H1469 H 0.58300 0.70961 0.13320
 H1470 H 0.62868 0.75218 0.16395
 H1471 H 0.63281 0.95025 0.09172
 H1472 H 0.67185 0.91104 0.14107
 C1473 C -0.14105 0.60510 0.33485
 C1474 C -0.15197 0.64980 0.35062
 C1475 C -0.13920 0.66889 0.39142
 C1476 C -0.11584 0.64416 0.41687
 C1477 C -0.10399 0.60051 0.40121
 C1478 C -0.11570 0.58130 0.35911
 C1479 C -0.15461 0.58363 0.29523
 C1480 C -0.14219 0.54102 0.27852
 C1481 C -0.11624 0.51894 0.30071
 C1482 C -0.10296 0.53881 0.34060
 H1483 H -0.17444 0.59989 0.27638
 H1484 H -0.15256 0.52530 0.24800
 H1485 H -0.10682 0.48582 0.28739
 H1486 H -0.08321 0.52009 0.35713
 H1487 H -0.14765 0.70291 0.40386
 H1488 H -0.10667 0.65941 0.44869
 C1489 C 0.65426 -0.14213 0.40478
 C1490 C 0.64859 -0.15115 0.35694
 C1491 C 0.61879 -0.13782 0.33735
 C1492 C 0.59520 -0.11471 0.36355
 C1493 C 0.60074 -0.10299 0.41011
 C1494 C 0.63091 -0.11597 0.43101
 C1495 C 0.68211 -0.16004 0.42778
 C1496 C 0.68879 -0.14837 0.47355
 C1497 C 0.66714 -0.12047 0.49821
 C1498 C 0.63825 -0.10528 0.47769
 H1499 H 0.69851 -0.18436 0.41133
 H1500 H 0.71067 -0.16147 0.49016
 H1501 H 0.67220 -0.11186 0.53398
 H1502 H 0.62186 -0.08627 0.49976
 H1503 H 0.61384 -0.14475 0.30117
 H1504 H 0.57255 -0.10478 0.34675
 C1505 C 0.65632 0.63724 0.40749
 C1506 C 0.64870 0.65669 0.36294
 C1507 C 0.61592 0.65848 0.34953
 C1508 C 0.59185 0.63519 0.37461
 C1509 C 0.59921 0.61045 0.41536
 C1510 C 0.63120 0.61489 0.43408
 C1511 C 0.68762 0.64164 0.42786
 C1512 C 0.69419 0.62467 0.47209
 C1513 C 0.66960 0.60435 0.49809
 C1514 C 0.63843 0.60017 0.47968
 H1515 H 0.70728 0.66018 0.41184
 H1516 H 0.71827 0.62894 0.48690
 H1517 H 0.67448 0.59285 0.53315
 H1518 H 0.62001 0.58761 0.50269
 H1519 H 0.60881 0.67641 0.31797
 H1520 H 0.56731 0.63513 0.36071
 C1521 C -0.14965 -0.09865 0.34540
 C1522 C -0.15058 -0.14881 0.34693
 C1523 C -0.12647 -0.17362 0.37128
 C1524 C -0.10272 -0.14945 0.39643
 C1525 C -0.10242 -0.09981 0.39785
 C1526 C -0.12543 -0.07390 0.37109
 C1527 C -0.17146 -0.07258 0.31725
 C1528 C -0.17013 -0.02334 0.31553
 C1529 C -0.14670 0.00081 0.34085
 C1530 C -0.12421 -0.02400 0.36777
 H1531 H -0.18923 -0.08982 0.29547
 H1532 H -0.18707 -0.00383 0.29396
 H1533 H -0.14578 0.03893 0.33902
 H1534 H -0.10559 -0.00377 0.38504
 H1535 H -0.12655 -0.21203 0.37178
 H1536 H -0.08484 -0.16970 0.41576
 C1537 C -0.02884 0.03494 0.77691
 C1538 C -0.00942 0.00098 0.80188
 C1539 C 0.00767 -0.03367 0.77653
 C1540 C 0.00920 -0.03203 0.72853
 C1541 C -0.00810 0.00213 0.70346
 C1542 C -0.02879 0.03427 0.72746
 C1543 C -0.05139 0.06570 0.79932
 C1544 C -0.07188 0.09568 0.77439
 C1545 C -0.07190 0.09442 0.72656
 C1546 C -0.05122 0.06346 0.70335
 H1547 H -0.05568 0.06499 0.83592
 H1548 H -0.08894 0.11848 0.79237
 H1549 H -0.08883 0.11640 0.70735
 H1550 H -0.05436 0.06126 0.66651
 H1551 H 0.02208 -0.06061 0.79389
 H1552 H 0.02427 -0.05783 0.71078
 C1553 C 0.28194 0.25092 0.47717
 C1554 C 0.25210 0.24549 0.45309
 C1555 C 0.22302 0.23999 0.47766
 C1556 C 0.22308 0.23869 0.52573
 C1557 C 0.25206 0.24498 0.55039
 C1558 C 0.28189 0.25099 0.52643
 C1559 C 0.31180 0.25626 0.45344
 C1560 C 0.34093 0.26174 0.47782
 C1561 C 0.34087 0.26195 0.52602
 C1562 C 0.31169 0.25657 0.55029
 H1563 H 0.31285 0.25613 0.41601
 H1564 H 0.36368 0.26574 0.45925
 H1565 H 0.36358 0.26614 0.54470
 H1566 H 0.31268 0.25652 0.58771
 H1567 H 0.20001 0.23701 0.45946
 H1568 H 0.20017 0.23406 0.54387
 C1569 C 0.09591 0.15469 0.59949
 C1570 C 0.09488 0.10451 0.60133
 C1571 C 0.11895 0.07985 0.62591
 C1572 C 0.14312 0.10406 0.65012
 C1573 C 0.14399 0.15370 0.65052
 C1574 C 0.12060 0.17952 0.62431
 C1575 C 0.07368 0.18072 0.57199
 C1576 C 0.07498 0.22998 0.57020
 C1577 C 0.09893 0.25417 0.59448
 C1578 C 0.12188 0.22938 0.62064
 H1579 H 0.05546 0.16346 0.55101
 H1580 H 0.05755 0.24948 0.54945
 H1581 H 0.09987 0.29232 0.59252
 H1582 H 0.14085 0.24963 0.63710
 H1583 H 0.11874 0.04146 0.62691
 H1584 H 0.16107 0.08385 0.66935
 C1585 C 0.34410 0.40032 0.64832
 C1586 C 0.34855 0.35090 0.65538
 C1587 C 0.37600 0.32870 0.63657
 C1588 C 0.39830 0.35431 0.61001
 C1589 C 0.39314 0.40245 0.59937
 C1590 C 0.36492 0.42544 0.61740
 C1591 C 0.31983 0.42573 0.67266
 C1592 C 0.31317 0.47290 0.66232
 C1593 C 0.33102 0.49596 0.62837
 C1594 C 0.35708 0.47305 0.60691
 H1595 H 0.30632 0.40971 0.70062
 H1596 H 0.29411 0.49161 0.68073
 H1597 H 0.32549 0.53247 0.61990
 H1598 H 0.37090 0.49377 0.58284
 H1599 H 0.37997 0.29111 0.64184
 H1600 H 0.41956 0.33596 0.59670
 C1601 C 0.33795 0.09558 0.63639
 C1602 C 0.34487 0.14153 0.65398
 C1603 C 0.37472 0.16264 0.64304
 C1604 C 0.39741 0.13935 0.61537
 C1605 C 0.39054 0.09514 0.59514
 C1606 C 0.35924 0.07419 0.60333
 C1607 C 0.31068 0.06963 0.65216
 C1608 C 0.30125 0.02771 0.63083
 C1609 C 0.31956 0.00973 0.59458
 C1610 C 0.34843 0.03197 0.58136
 H1611 H 0.29717 0.08049 0.68230
 H1612 H 0.27994 0.00876 0.64291
 H1613 H 0.31210 -0.02281 0.57786
 H1614 H 0.36136 0.01453 0.55407
 H1615 H 0.38061 0.19762 0.65595
 H1616 H 0.42061 0.15660 0.60926
 C1617 C 0.15122 0.35809 0.59959
 C1618 C 0.14851 0.35355 0.64860
 C1619 C 0.12061 0.37106 0.67078
 C1620 C 0.09611 0.39404 0.64593
 C1621 C 0.09845 0.39989 0.59790
 C1622 C 0.12582 0.38093 0.57414
 C1623 C 0.17772 0.33848 0.57472
 C1624 C 0.17994 0.34313 0.52687
 C1625 C 0.15487 0.36425 0.50218
 C1626 C 0.12773 0.38187 0.52532
 H1627 H 0.19674 0.31851 0.59125
 H1628 H 0.20093 0.32945 0.50864
 H1629 H 0.15624 0.36629 0.46485
 H1630 H 0.10811 0.39505 0.50429
 H1631 H 0.11796 0.36755 0.70792
 H1632 H 0.07529 0.40804 0.66457
 C1633 C 0.36904 0.06910 0.87879
 C1634 C 0.39383 0.09441 0.90275
 C1635 C 0.39466 0.14397 0.89896
 C1636 C 0.37099 0.16862 0.87379
 C1637 C 0.34557 0.14461 0.85149
 C1638 C 0.34482 0.09435 0.85308
 C1639 C 0.36861 0.01914 0.87781
 C1640 C 0.34437 -0.00540 0.85403
 C1641 C 0.32073 0.01916 0.82934
 C1642 C 0.32130 0.06845 0.82788
 H1643 H 0.38727 -0.00138 0.89454
 H1644 H 0.34408 -0.04367 0.85417
 H1645 H 0.30217 -0.00011 0.81052
 H1646 H 0.30357 0.08573 0.80604
 H1647 H 0.41370 0.16390 0.91614
 H1648 H 0.37224 0.20695 0.87230
 C1649 C 0.09936 0.35055 0.90250
 C1650 C 0.09836 0.40078 0.90167
 C1651 C 0.12215 0.42596 0.87715
 C1652 C 0.14589 0.40218 0.85162
 C1653 C 0.14654 0.35259 0.85006
 C1654 C 0.12370 0.32623 0.87662
 C1655 C 0.07772 0.32401 0.93041
 C1656 C 0.07962 0.27473 0.93216
 C1657 C 0.10337 0.25095 0.90692
 C1658 C 0.12541 0.27628 0.87983
 H1659 H 0.05978 0.34095 0.95219
 H1660 H 0.06296 0.25496 0.95386
 H1661 H 0.10510 0.21272 0.90900
 H1662 H 0.14420 0.25635 0.86258
 H1663 H 0.12192 0.46436 0.87698
 H1664 H 0.16359 0.42262 0.83224
 C1665 C 0.08472 0.11951 0.84618
 C1666 C 0.09099 0.09920 0.89149
 C1667 C 0.12337 0.10152 0.90832
 C1668 C 0.14798 0.12499 0.88455
 C1669 C 0.14269 0.14413 0.84067
 C1670 C 0.11169 0.13740 0.81970
 C1671 C 0.05349 0.12028 0.82417
 C1672 C 0.04992 0.13275 0.77773
 C1673 C 0.07701 0.14377 0.75132
 C1674 C 0.10750 0.14595 0.77197
 H1675 H 0.03091 0.11182 0.84080
 H1676 H 0.02601 0.13244 0.76168
 H1677 H 0.07445 0.15047 0.71461
 H1678 H 0.12801 0.15197 0.74967
 H1679 H 0.12978 0.08725 0.94193
 H1680 H 0.17155 0.12844 0.90116
 C1681 C 0.39820 0.39796 0.84946
 C1682 C 0.39755 0.39894 0.89863
 C1683 C 0.37240 0.37540 0.92200
 C1684 C 0.34870 0.35014 0.89771
 C1685 C 0.34878 0.34855 0.84927
 C1686 C 0.37355 0.37297 0.82468
 C1687 C 0.42203 0.42300 0.82414
 C1688 C 0.42275 0.42143 0.77606
 C1689 C 0.39853 0.39768 0.75195
 C1690 C 0.37372 0.37466 0.77587
 H1691 H 0.43989 0.44476 0.84097
 H1692 H 0.44166 0.43987 0.75729
 H1693 H 0.39867 0.39797 0.71454
 H1694 H 0.35456 0.35893 0.75572
 H1695 H 0.37151 0.37575 0.95946
 H1696 H 0.33045 0.33084 0.91695
 C1697 C 0.46918 0.02902 0.77749
 C1698 C 0.49277 0.00092 0.80093
 C1699 C 0.51364 -0.02841 0.77551
 C1700 C 0.51242 -0.02901 0.72751
 C1701 C 0.49047 -0.00001 0.70341
 C1702 C 0.46833 0.02911 0.72828
 C1703 C 0.44546 0.05548 0.80179
 C1704 C 0.42300 0.08381 0.77848
 C1705 C 0.42276 0.08494 0.73054
 C1706 C 0.44453 0.05702 0.70555
 H1707 H 0.44345 0.05380 0.83878
 H1708 H 0.40534 0.10442 0.79762
 H1709 H 0.40481 0.10627 0.71268
 H1710 H 0.44183 0.05687 0.66852
 H1711 H 0.53142 -0.05059 0.79297
 H1712 H 0.52938 -0.05153 0.70893
 C1713 C 0.78021 0.25274 0.47836
 C1714 C 0.75046 0.24665 0.45428
 C1715 C 0.72141 0.24015 0.47865
 C1716 C 0.72142 0.23857 0.52666
 C1717 C 0.75033 0.24533 0.55134
 C1718 C 0.78012 0.25233 0.52755
 C1719 C 0.81001 0.25919 0.45469
 C1720 C 0.83905 0.26517 0.47916
 C1721 C 0.83897 0.26473 0.52735
 C1722 C 0.80984 0.25836 0.55151
 H1723 H 0.81109 0.25958 0.41728
 H1724 H 0.86175 0.27009 0.46064
 H1725 H 0.86161 0.26921 0.54610
 H1726 H 0.81081 0.25788 0.58892
 H1727 H 0.69848 0.23657 0.46034
 H1728 H 0.69854 0.23336 0.54475
 C1729 C 0.59485 0.15486 0.60019
 C1730 C 0.59423 0.10467 0.60066
 C1731 C 0.61825 0.07992 0.62537
 C1732 C 0.64191 0.10395 0.65086
 C1733 C 0.64231 0.15359 0.65278
 C1734 C 0.61891 0.17956 0.62653
 C1735 C 0.57280 0.18109 0.57259
 C1736 C 0.57351 0.23038 0.57225
 C1737 C 0.59667 0.25443 0.59813
 C1738 C 0.61956 0.22951 0.62430
 H1739 H 0.55520 0.16395 0.55042
 H1740 H 0.55621 0.25005 0.55140
 H1741 H 0.59703 0.29261 0.59746
 H1742 H 0.63791 0.24977 0.64201
 H1743 H 0.61836 0.04150 0.62555
 H1744 H 0.65987 0.08351 0.66984
 C1745 C -0.15436 0.40105 0.65097
 C1746 C -0.15239 0.35087 0.65448
 C1747 C -0.12572 0.32735 0.63479
 C1748 C -0.10218 0.35210 0.60970
 C1749 C -0.10440 0.40132 0.60356
 C1750 C -0.13034 0.42643 0.62523
 C1751 C -0.17844 0.42700 0.67525
 C1752 C -0.18000 0.47619 0.67239
 C1753 C -0.15703 0.50079 0.64666
 C1754 C -0.13202 0.47647 0.62426
 H1755 H -0.19537 0.40998 0.69838
 H1756 H -0.19870 0.49539 0.69105
 H1757 H -0.15821 0.53901 0.64499
 H1758 H -0.11368 0.49754 0.60749
 H1759 H -0.12343 0.28933 0.63803
 H1760 H -0.08221 0.33244 0.59433
 C1761 C 0.86933 0.07124 0.62529
 C1762 C 0.89252 0.09790 0.59953
 C1763 C 0.89173 0.14747 0.60200
 C1764 C 0.86797 0.17077 0.62798
 C1765 C 0.84430 0.14538 0.65256
 C1766 C 0.84507 0.09518 0.65191
 C1767 C 0.87043 0.02128 0.62682
 C1768 C 0.84750 -0.00444 0.65199
 C1769 C 0.82390 0.01889 0.67785
 C1770 C 0.82297 0.06819 0.67861
 H1771 H 0.88926 0.00164 0.60945
 H1772 H 0.84848 -0.04269 0.65248
 H1773 H 0.80668 -0.00132 0.69826
 H1774 H 0.80517 0.08468 0.70094
 H1775 H 0.90949 0.16837 0.58319
 H1776 H 0.86767 0.20907 0.62822
 C1777 C 0.64962 0.35710 0.60141
 C1778 C 0.64674 0.35256 0.65035
 C1779 C 0.61819 0.36828 0.67220
 C1780 C 0.59328 0.38993 0.64708
 C1781 C 0.59591 0.39621 0.59917
 C1782 C 0.62384 0.37854 0.57577
 C1783 C 0.67668 0.33876 0.57676
 C1784 C 0.67904 0.34353 0.52896
 C1785 C 0.65357 0.36330 0.50409
 C1786 C 0.62590 0.37937 0.52705
 H1787 H 0.69603 0.31962 0.59331
 H1788 H 0.70041 0.33078 0.51095
 H1789 H 0.65507 0.36532 0.46679
 H1790 H 0.60585 0.39106 0.50620
 H1791 H 0.61536 0.36442 0.70927
 H1792 H 0.57203 0.40287 0.66546
 C1793 C 0.86397 0.07159 0.88783
 C1794 C 0.89135 0.09655 0.90625
 C1795 C 0.89491 0.14488 0.89576
 C1796 C 0.87187 0.16898 0.86918
 C1797 C 0.84476 0.14538 0.85100
 C1798 C 0.84136 0.09595 0.85861
 C1799 C 0.85873 0.02280 0.89629
 C1800 C 0.83241 -0.00111 0.87667
 C1801 C 0.81183 0.02201 0.84595
 C1802 C 0.81648 0.06983 0.83638
 H1803 H 0.87473 0.00193 0.91739
 H1804 H 0.82850 -0.03823 0.88430
 H1805 H 0.79230 0.00272 0.82924
 H1806 H 0.80078 0.08573 0.81068
 H1807 H 0.91566 0.16447 0.90886
 H1808 H 0.87501 0.20665 0.86334
 C1809 C 0.60767 0.35448 0.91692
 C1810 C 0.59847 0.40117 0.90468
 C1811 C 0.61394 0.42385 0.86758
 C1812 C 0.63785 0.40048 0.84183
 C1813 C 0.64751 0.35434 0.85335
 C1814 C 0.63331 0.33162 0.89229
 C1815 C 0.59254 0.33048 0.95403
 C1816 C 0.60363 0.28603 0.96810
 C1817 C 0.62982 0.26473 0.94570
 C1818 C 0.64447 0.28708 0.90805
 H1819 H 0.57260 0.34630 0.97312
 H1820 H 0.59205 0.26820 0.99673
 H1821 H 0.63854 0.23041 0.95710
 H1822 H 0.66442 0.26900 0.89153
 H1823 H 0.60701 0.45963 0.85799
 H1824 H 0.64889 0.41848 0.81266
 C1825 C 0.58754 0.15588 0.89446
 C1826 C 0.59429 0.10967 0.91280
 C1827 C 0.62603 0.09164 0.90646
 C1828 C 0.64882 0.11481 0.87865
 C1829 C 0.64147 0.15728 0.85536
 C1830 C 0.61003 0.17828 0.86320
 C1831 C 0.56043 0.18258 0.91017
 C1832 C 0.55242 0.22607 0.89063
 C1833 C 0.57194 0.24516 0.85633
 C1834 C 0.60062 0.22231 0.84335
 H1835 H 0.54620 0.17159 0.93963
 H1836 H 0.53135 0.24552 0.90290
 H1837 H 0.56576 0.27922 0.84139
 H1838 H 0.61512 0.24151 0.81898
 H1839 H 0.63311 0.05772 0.92099
 H1840 H 0.67248 0.09823 0.87436
 C1841 C 0.89477 0.40451 0.85162
 C1842 C 0.89814 0.39580 0.89974
 C1843 C 0.87818 0.36208 0.92102
 C1844 C 0.85481 0.33742 0.89551
 C1845 C 0.84993 0.34685 0.84847
 C1846 C 0.87037 0.38008 0.82585
 C1847 C 0.91432 0.43849 0.82882
 C1848 C 0.91018 0.44787 0.78197
 C1849 C 0.88654 0.42395 0.75688
 C1850 C 0.86659 0.39055 0.77841
 H1851 H 0.93255 0.45877 0.84693
 H1852 H 0.92527 0.47404 0.76504
 H1853 H 0.88371 0.43181 0.72063
 H1854 H 0.84816 0.37331 0.75776
 H1855 H 0.88104 0.35427 0.95750
 H1856 H 0.84055 0.31034 0.91255
 C1857 C 0.01248 0.54862 0.77611
 C1858 C 0.00217 0.50708 0.80191
 C1859 C -0.00410 0.46528 0.77664
 C1860 C -0.00377 0.46447 0.72867
 C1861 C 0.00558 0.50412 0.70304
 C1862 C 0.01684 0.54486 0.72701
 C1863 C 0.02135 0.59270 0.79681
 C1864 C 0.03596 0.62889 0.77152
 C1865 C 0.04307 0.62261 0.72525
 C1866 C 0.03400 0.58100 0.70333
 H1867 H 0.01893 0.60108 0.83265
 H1868 H 0.04307 0.66137 0.78864
 H1869 H 0.05608 0.64981 0.70636
 H1870 H 0.04222 0.57669 0.66827
 H1871 H -0.01162 0.43292 0.79379
 H1872 H -0.01149 0.43230 0.71149
 C1873 C 0.28240 0.75386 0.47466
 C1874 C 0.25264 0.74827 0.45078
 C1875 C 0.22347 0.74416 0.47533
 C1876 C 0.22348 0.74410 0.52335
 C1877 C 0.25244 0.75012 0.54800
 C1878 C 0.28229 0.75560 0.52385
 C1879 C 0.31227 0.75754 0.45066
 C1880 C 0.34146 0.76270 0.47472
 C1881 C 0.34137 0.76485 0.52275
 C1882 C 0.31207 0.76192 0.54731
 H1883 H 0.31335 0.75596 0.41329
 H1884 H 0.36429 0.76489 0.45608
 H1885 H 0.36430 0.76820 0.54079
 H1886 H 0.31292 0.76370 0.58466
 H1887 H 0.20045 0.74127 0.45720
 H1888 H 0.20068 0.73965 0.54152
 C1889 C 0.09252 0.65197 0.60529
 C1890 C 0.09727 0.60330 0.59507
 C1891 C 0.12535 0.58038 0.61108
 C1892 C 0.14826 0.60462 0.63756
 C1893 C 0.14310 0.65184 0.65112
 C1894 C 0.11396 0.67547 0.63648
 C1895 C 0.06717 0.67820 0.58411
 C1896 C 0.05975 0.72395 0.59841
 C1897 C 0.07826 0.74521 0.63266
 C1898 C 0.10553 0.72204 0.65056
 H1899 H 0.05336 0.66404 0.55554
 H1900 H 0.03978 0.74314 0.58254
 H1901 H 0.07243 0.78083 0.64386
 H1902 H 0.11944 0.74224 0.67479
 H1903 H 0.12948 0.54328 0.60336
 H1904 H 0.16998 0.58579 0.64855
 C1905 C 0.37861 0.92269 0.63869
 C1906 C 0.39589 0.89933 0.60296
 C1907 C 0.39135 0.85065 0.59634
 C1908 C 0.36843 0.82578 0.62241
 C1909 C 0.34831 0.84939 0.65385
 C1910 C 0.35359 0.89808 0.66297
 C1911 C 0.38674 0.96911 0.65245
 C1912 C 0.36976 0.99129 0.68818
 C1913 C 0.34425 0.96815 0.71030
 C1914 C 0.33603 0.92205 0.69784
 H1915 H 0.40625 0.98850 0.63583
 H1916 H 0.37576 1.02709 0.69802
 H1917 H 0.33084 0.98603 0.73731
 H1918 H 0.31667 0.90495 0.71690
 H1919 H 0.40588 0.83173 0.57108
 H1920 H 0.36593 0.78794 0.61763
 C1921 C 0.36284 0.60727 0.67139
 C1922 C 0.34596 0.64589 0.65119
 C1923 C 0.35212 0.65789 0.60498
 C1924 C 0.37586 0.63404 0.57939
 C1925 C 0.39365 0.59690 0.59919
 C1926 C 0.38649 0.58214 0.64484
 C1927 C 0.35594 0.59189 0.71679
 C1928 C 0.37126 0.55178 0.73488
 C1929 C 0.39349 0.52647 0.70834
 C1930 C 0.40141 0.54157 0.66397
 H1931 H 0.33853 0.61038 0.73833
 H1932 H 0.36615 0.54027 0.76970
 H1933 H 0.40521 0.49555 0.72246
 H1934 H 0.41899 0.52086 0.64465
 H1935 H 0.33841 0.68588 0.58859
 H1936 H 0.38042 0.64455 0.54392
 C1937 C 0.10826 0.85659 0.58375
 C1938 C 0.09686 0.90067 0.60075
 C1939 C 0.11053 0.91976 0.64098
 C1940 C 0.13512 0.89565 0.66475
 C1941 C 0.14719 0.85242 0.64823
 C1942 C 0.13441 0.83309 0.60675
 C1943 C 0.09442 0.83550 0.54407
 C1944 C 0.10694 0.79333 0.52630
 C1945 C 0.13323 0.77123 0.54778
 C1946 C 0.14694 0.79082 0.58758
 H1947 H 0.07416 0.85168 0.52611
 H1948 H 0.09622 0.77777 0.49567
 H1949 H 0.14261 0.73829 0.53394
 H1950 H 0.16695 0.77213 0.60359
 H1951 H 0.10187 0.95340 0.65430
 H1952 H 0.14486 0.91087 0.69624
 C1953 C 0.36853 0.57004 0.87750
 C1954 C 0.39433 0.59587 0.89863
 C1955 C 0.39573 0.64513 0.89258
 C1956 C 0.37168 0.66913 0.86778
 C1957 C 0.34528 0.64476 0.84840
 C1958 C 0.34372 0.59469 0.85257
 C1959 C 0.36743 0.52005 0.87886
 C1960 C 0.34178 0.49511 0.85878
 C1961 C 0.31752 0.51912 0.83482
 C1962 C 0.31880 0.56826 0.83077
 H1963 H 0.38666 0.49967 0.89427
 H1964 H 0.34103 0.45689 0.86093
 H1965 H 0.29820 0.49948 0.81805
 H1966 H 0.30085 0.58477 0.80883
 H1967 H 0.41540 0.66540 0.90782
 H1968 H 0.37333 0.70733 0.86449
 C1969 C 0.09242 0.84924 0.89313
 C1970 C 0.09616 0.89856 0.90334
 C1971 C 0.12564 0.92063 0.89058
 C1972 C 0.14890 0.89715 0.86371
 C1973 C 0.14449 0.85004 0.84968
 C1974 C 0.11637 0.82517 0.86578
 C1975 C 0.06746 0.82176 0.91404
 C1976 C 0.06358 0.77397 0.90399
 C1977 C 0.08567 0.75135 0.87538
 C1978 C 0.11236 0.77600 0.85802
 H1979 H 0.05186 0.83576 0.94067
 H1980 H 0.04403 0.75400 0.91988
 H1981 H 0.08289 0.71394 0.86826
 H1982 H 0.13015 0.75515 0.84032
 H1983 H 0.13005 0.95755 0.89883
 H1984 H 0.17052 0.91641 0.85322
 C1985 C 0.10322 0.58339 0.85074
 C1986 C 0.09689 0.59695 0.89715
 C1987 C 0.11505 0.63369 0.91687
 C1988 C 0.13850 0.65792 0.89103
 C1989 C 0.14396 0.64691 0.84437
 C1990 C 0.12642 0.60918 0.82385
 C1991 C 0.08770 0.54377 0.83087
 C1992 C 0.09411 0.53065 0.78526
 C1993 C 0.11592 0.55674 0.75855
 C1994 C 0.13214 0.59552 0.77759
 H1995 H 0.07065 0.52253 0.85050
 H1996 H 0.08185 0.50031 0.77043
 H1997 H 0.12052 0.54658 0.72304
 H1998 H 0.14938 0.61431 0.75602
 H1999 H 0.11086 0.64387 0.95250
 H2000 H 0.15216 0.68614 0.90742
 C2001 C 0.39960 0.89473 0.85069
 C2002 C 0.39682 0.89908 0.89955
 C2003 C 0.36931 0.88007 0.92153
 C2004 C 0.34551 0.85561 0.89648
 C2005 C 0.34858 0.84834 0.84862
 C2006 C 0.37607 0.86794 0.82534
 C2007 C 0.42442 0.91853 0.82598
 C2008 C 0.42815 0.91238 0.77855
 C2009 C 0.40650 0.88414 0.75435
 C2010 C 0.38019 0.86341 0.77704
 H2011 H 0.44057 0.94312 0.84266
 H2012 H 0.44769 0.92996 0.76028
 H2013 H 0.40961 0.87935 0.71752
 H2014 H 0.36307 0.84477 0.75584
 H2015 H 0.36637 0.88369 0.95860
 H2016 H 0.32468 0.84140 0.91489
 C2017 C 0.47378 0.53963 0.77684
 C2018 C 0.49118 0.50339 0.80041
 C2019 C 0.50768 0.46876 0.77491
 C2020 C 0.50787 0.47018 0.72695
 C2021 C 0.49308 0.50762 0.70277
 C2022 C 0.47701 0.54439 0.72807
 C2023 C 0.45221 0.57026 0.80052
 C2024 C 0.43796 0.60889 0.77847
 C2025 C 0.44419 0.61707 0.73208
 C2026 C 0.46291 0.58496 0.70685
 H2027 H 0.44520 0.56362 0.83572
 H2028 H 0.42170 0.63224 0.79720
 H2029 H 0.43304 0.64714 0.71491
 H2030 H 0.46466 0.59255 0.67065
 H2031 H 0.52081 0.44045 0.79218
 H2032 H 0.52057 0.44227 0.70854
 C2033 C 0.78274 0.76046 0.47781
 C2034 C 0.75361 0.75162 0.45300
 C2035 C 0.72493 0.74084 0.47699
 C2036 C 0.72454 0.73956 0.52504
 C2037 C 0.75268 0.74950 0.55039
 C2038 C 0.78233 0.75886 0.52705
 C2039 C 0.81239 0.76976 0.45483
 C2040 C 0.84116 0.77612 0.47987
 C2041 C 0.84088 0.77360 0.52796
 C2042 C 0.81176 0.76525 0.55151
 H2043 H 0.81363 0.77153 0.41748
 H2044 H 0.86387 0.78255 0.46194
 H2045 H 0.86334 0.77813 0.54711
 H2046 H 0.81256 0.76321 0.58888
 H2047 H 0.70248 0.73422 0.45838
 H2048 H 0.70206 0.73111 0.54270
 C2049 C 0.59116 0.65563 0.60750
 C2050 C 0.59583 0.60731 0.59573
 C2051 C 0.62461 0.58454 0.60955
 C2052 C 0.64803 0.60816 0.63563
 C2053 C 0.64295 0.65472 0.65112
 C2054 C 0.61335 0.67851 0.63826
 C2055 C 0.56529 0.68226 0.58813
 C2056 C 0.55831 0.72778 0.60351
 C2057 C 0.57760 0.74834 0.63727
 C2058 C 0.60518 0.72474 0.65363
 H2059 H 0.55078 0.66882 0.55996
 H2060 H 0.53805 0.74733 0.58885
 H2061 H 0.57207 0.78376 0.64937
 H2062 H 0.61959 0.74445 0.67760
 H2063 H 0.62894 0.54782 0.60050
 H2064 H 0.67006 0.58918 0.64498
 C2065 C 0.90241 0.88745 0.64860
 C2066 C 0.89637 0.89902 0.60138
 C2067 C 0.86619 0.88736 0.58208
 C2068 C 0.84274 0.86344 0.60800
 C2069 C 0.84924 0.84747 0.65322
 C2070 C 0.88006 0.85838 0.67356
 C2071 C 0.92950 0.90622 0.67248
 C2072 C 0.93745 0.89123 0.71686
 C2073 C 0.91783 0.85874 0.73933
 C2074 C 0.88906 0.84343 0.71871
 H2075 H 0.94396 0.93408 0.65790
 H2076 H 0.95859 0.90536 0.73427
 H2077 H 0.92396 0.84731 0.77403
 H2078 H 0.87430 0.82115 0.74007
 H2079 H 0.86063 0.89686 0.54662
 H2080 H 0.81940 0.85636 0.59194
 C2081 C 0.89741 0.60036 0.65147
 C2082 C 0.89656 0.60170 0.60230
 C2083 C 0.87052 0.62436 0.58002
 C2084 C 0.84622 0.64721 0.60540
 C2085 C 0.84708 0.64798 0.65389
 C2086 C 0.87246 0.62354 0.67741
 C2087 C 0.92158 0.57441 0.67556
 C2088 C 0.92188 0.57253 0.72366
 C2089 C 0.89748 0.59481 0.74887
 C2090 C 0.87274 0.61951 0.72614
 H2091 H 0.94002 0.55432 0.65775
 H2092 H 0.94084 0.55298 0.74142
 H2093 H 0.89748 0.59231 0.78620
 H2094 H 0.85355 0.63429 0.74709
 H2095 H 0.86926 0.62502 0.54258
 H2096 H 0.82678 0.66520 0.58696
 C2097 C 0.60844 0.85339 0.58498
 C2098 C 0.59608 0.89678 0.60201
 C2099 C 0.60898 0.91642 0.64247
 C2100 C 0.63390 0.89344 0.66647
 C2101 C 0.64710 0.85101 0.64984
 C2102 C 0.63498 0.83111 0.60815
 C2103 C 0.59504 0.83177 0.54525
 C2104 C 0.60828 0.78994 0.52778
 C2105 C 0.63494 0.76895 0.54945
 C2106 C 0.64837 0.78935 0.58908
 H2107 H 0.57453 0.84729 0.52711
 H2108 H 0.59788 0.77382 0.49721
 H2109 H 0.64486 0.73628 0.53581
 H2110 H 0.66885 0.77172 0.60499
 H2111 H 0.59952 0.94964 0.65571
 H2112 H 0.64304 0.90894 0.69820
 C2113 C 0.86833 0.57200 0.88020
 C2114 C 0.89406 0.59758 0.90198
 C2115 C 0.89582 0.64686 0.89604
 C2116 C 0.87211 0.67121 0.87092
 C2117 C 0.84619 0.64698 0.85020
 C2118 C 0.84478 0.59690 0.85321
 C2119 C 0.86597 0.52211 0.88297
 C2120 C 0.84104 0.49769 0.86053
 C2121 C 0.81915 0.52181 0.83250
 C2122 C 0.82124 0.57080 0.82818
 H2123 H 0.88338 0.50113 0.90167
 H2124 H 0.83902 0.45969 0.86412
 H2125 H 0.80064 0.50244 0.81368
 H2126 H 0.80472 0.58769 0.80422
 H2127 H 0.91542 0.66686 0.91184
 H2128 H 0.87372 0.70946 0.86825
 C2129 C 0.59291 0.84534 0.89948
 C2130 C 0.59700 0.89424 0.91116
 C2131 C 0.62669 0.91619 0.89928
 C2132 C 0.64950 0.89354 0.87116
 C2133 C 0.64448 0.84733 0.85495
 C2134 C 0.61654 0.82199 0.87096
 C2135 C 0.56826 0.81739 0.92051
 C2136 C 0.56486 0.76947 0.91044
 C2137 C 0.58687 0.74741 0.88120
 C2138 C 0.61283 0.77288 0.86275
 H2139 H 0.55260 0.83116 0.94729
 H2140 H 0.54573 0.74898 0.92673
 H2141 H 0.58463 0.70986 0.87433
 H2142 H 0.63052 0.75271 0.84410
 H2143 H 0.63154 0.95263 0.90890
 H2144 H 0.67120 0.91293 0.86122
 C2145 C 0.59543 0.59801 0.85031
 C2146 C 0.59597 0.60087 0.89949
 C2147 C 0.62145 0.62507 0.92126
 C2148 C 0.64552 0.64768 0.89537
 C2149 C 0.64485 0.64693 0.84687
 C2150 C 0.61994 0.62146 0.82387
 C2151 C 0.57185 0.57073 0.82672
 C2152 C 0.57163 0.56802 0.77858
 C2153 C 0.59540 0.59119 0.75289
 C2154 C 0.61961 0.61711 0.77520
 H2155 H 0.55388 0.55033 0.84508
 H2156 H 0.55326 0.54724 0.76111
 H2157 H 0.59543 0.58834 0.71555
 H2158 H 0.63836 0.63270 0.75400
 H2159 H 0.62242 0.62715 0.95864
 H2160 H 0.66458 0.66677 0.91342
 C2161 C 0.88799 0.91151 0.85796
 C2162 C 0.89616 0.89660 0.90347
 C2163 C 0.87932 0.85843 0.92326
 C2164 C 0.85522 0.83436 0.89836
 C2165 C 0.84659 0.84878 0.85356
 C2166 C 0.86209 0.88869 0.83379
 C2167 C 0.90421 0.94971 0.83631
 C2168 C 0.89397 0.96650 0.79332
 C2169 C 0.86755 0.94589 0.77117
 C2170 C 0.85175 0.90725 0.79090
 H2171 H 0.92441 0.96748 0.85259
 H2172 H 0.90629 0.99585 0.77707
 H2173 H 0.85966 0.95930 0.73811
 H2174 H 0.83158 0.89198 0.77207
 H2175 H 0.88527 0.84670 0.95796
 H2176 H 0.84310 0.80435 0.91421
   
