data_POSCAR
  _audit_creation_date              2014-09-24
  _audit_creation_method            'ToBaCCo'
  _symmetry_space_group_name_H-M    'P1'
  _symmetry_Int_Tables_number       1
  _symmetry_cell_setting            triclinic
  loop_
  _symmetry_equiv_pos_as_xyz
 x,y,z
_cell_length_a 48.6461
_cell_length_b 48.8106
_cell_length_c 48.6857
_cell_angle_alpha 90.003000
_cell_angle_beta 90.049100
_cell_angle_gamma 89.963400
loop_
  _atom_site_label
  _atom_site_type_symbol
  _atom_site_fract_x
  _atom_site_fract_y
  _atom_site_fract_z
C1 C 0.25914 0.93867 0.02236
 C2 C 0.25959 0.92464 -0.00263
 C3 C 0.26009 0.93835 -0.02806
 C4 C 0.26111 0.96757 -0.02810
 C5 C 0.26034 0.98214 -0.00278
 C6 C 0.25962 0.96759 0.02247
 C7 C 0.26077 0.98227 0.04726
 C8 C 0.26208 1.01064 0.04741
 C9 C 0.26224 1.02560 0.02279
 C10 C 0.26160 1.01133 -0.00262
 C11 C 0.26565 0.98258 -0.05236
 C12 C 0.26671 1.01106 -0.05220
 C13 C 0.26344 1.02607 -0.02776
 C14 C 0.26471 1.05528 -0.02741
 C15 C 0.26566 1.06866 -0.00185
 C16 C 0.26435 1.05444 0.02296
 H17 H 0.26136 0.97198 0.06692
 H18 H 0.26360 1.02065 0.06717
 H19 H 0.26961 0.97253 -0.07172
 H20 H 0.27134 1.02105 -0.07146
 H21 H 0.25830 0.90246 -0.00208
 H22 H 0.26608 1.09087 -0.00101
 C23 C 0.75520 0.44166 0.52319
 C24 C 0.75510 0.42780 0.49804
 C25 C 0.75501 0.44189 0.47298
 C26 C 0.75505 0.47092 0.47296
 C27 C 0.75511 0.48531 0.49832
 C28 C 0.75549 0.47064 0.52350
 C29 C 0.75725 0.48531 0.54828
 C30 C 0.75783 0.51377 0.54846
 C31 C 0.75661 0.52878 0.52387
 C32 C 0.75558 0.51444 0.49850
 C33 C 0.75614 0.48593 0.44834
 C34 C 0.75646 0.51444 0.44852
 C35 C 0.75581 0.52915 0.47334
 C36 C 0.75645 0.55816 0.47374
 C37 C 0.75735 0.57190 0.49895
 C38 C 0.75745 0.55775 0.52391
 H39 H 0.75872 0.47497 0.56787
 H40 H 0.75969 0.52383 0.56816
 H41 H 0.75719 0.47582 0.42861
 H42 H 0.75776 0.52479 0.42893
 H43 H 0.75496 0.40557 0.49796
 H44 H 0.75779 0.59413 0.49916
 C45 C 0.73616 1.02612 0.93942
 C46 C 0.73678 1.00086 0.92551
 C47 C 0.73797 0.97585 0.93943
 C48 C 0.73818 0.97557 0.96846
 C49 C 0.73729 1.00068 0.98316
 C50 C 0.73560 1.02595 0.96870
 C51 C 0.73063 1.04997 0.98389
 C52 C 0.73036 1.04974 1.01241
 C53 C 0.73493 1.02546 1.02728
 C54 C 0.73689 1.00044 1.01244
 C55 C 0.73795 0.95080 0.98314
 C56 C 0.73749 0.95056 1.01166
 C57 C 0.73727 0.97509 1.02674
 C58 C 0.73611 0.97490 1.05573
 C59 C 0.73486 0.99967 1.07002
 C60 C 0.73486 1.02514 1.05656
 H61 H 0.72579 1.06917 0.97395
 H62 H 0.72537 1.06878 1.02259
 H63 H 0.73746 0.93121 0.97277
 H64 H 0.73673 0.93082 1.02172
 H65 H 0.73771 1.00050 0.90325
 H66 H 0.73528 0.99890 1.09229
 C67 C 0.24217 0.47184 0.55527
 C68 C 0.24183 0.49681 0.56937
 C69 C 0.24210 0.52188 0.55551
 C70 C 0.24257 0.52220 0.52647
 C71 C 0.24330 0.49708 0.51177
 C72 C 0.24289 0.47179 0.52619
 C73 C 0.24217 0.44724 0.51115
 C74 C 0.24264 0.44741 0.48257
 C75 C 0.24382 0.47215 0.46783
 C76 C 0.24369 0.49726 0.48256
 C77 C 0.24127 0.54692 0.51173
 C78 C 0.24154 0.54709 0.48320
 C79 C 0.24319 0.52256 0.46817
 C80 C 0.24330 0.52261 0.43911
 C81 C 0.24369 0.49770 0.42491
 C82 C 0.24407 0.47254 0.43873
 H83 H 0.24080 0.42757 0.52129
 H84 H 0.24156 0.42786 0.47218
 H85 H 0.23954 0.56645 0.52208
 H86 H 0.24000 0.56676 0.47308
 H87 H 0.24153 0.49672 0.59166
 H88 H 0.24390 0.49790 0.40263
 C89 C 0.94051 0.23287 -0.02318
 C90 C 0.92718 0.23283 0.00243
 C91 C 0.94168 0.23200 0.02720
 C92 C 0.97071 0.23117 0.02685
 C93 C 0.98485 0.23100 0.00139
 C94 C 0.96974 0.23087 -0.02365
 C95 C 0.98412 0.22592 -0.04819
 C96 C 1.01258 0.22434 -0.04862
 C97 C 1.02820 0.22769 -0.02454
 C98 C 1.01415 0.22967 0.00096
 C99 C 0.98588 0.22888 0.05127
 C100 C 1.01439 0.22756 0.05087
 C101 C 1.02917 0.22906 0.02606
 C102 C 1.05838 0.22743 0.02553
 C103 C 1.07163 0.22532 -0.00000
 C104 C 1.05736 0.22630 -0.02505
 H105 H 0.97353 0.22204 -0.06732
 H106 H 1.02211 0.21941 -0.06805
 H107 H 0.97584 0.22733 0.07103
 H108 H 1.02459 0.22431 0.07032
 H109 H 0.90498 0.23474 0.00337
 H110 H 1.09392 0.22568 -0.00045
 C111 C 0.43936 0.74051 0.52825
 C112 C 0.42481 0.74106 0.50345
 C113 C 0.43829 0.74203 0.47810
 C114 C 0.46737 0.74205 0.47734
 C115 C 0.48248 0.74195 0.50230
 C116 C 0.46846 0.74101 0.52785
 C117 C 0.48392 0.73958 0.55222
 C118 C 0.51251 0.73991 0.55161
 C119 C 0.52684 0.74158 0.52660
 C120 C 0.51170 0.74210 0.50167
 C121 C 0.48173 0.74115 0.45231
 C122 C 0.51029 0.74116 0.45169
 C123 C 0.52570 0.74210 0.47608
 C124 C 0.55477 0.74205 0.47562
 C125 C 0.56935 0.74189 0.50036
 C126 C 0.55594 0.74178 0.52576
 H127 H 0.47409 0.73783 0.57206
 H128 H 0.52325 0.73833 0.57101
 H129 H 0.47107 0.73993 0.43285
 H130 H 0.52012 0.74002 0.43181
 H131 H 0.40251 0.74098 0.50390
 H132 H 0.59165 0.74217 0.49983
 C133 C 0.02364 0.76236 0.05941
 C134 C -0.00098 0.76325 0.07409
 C135 C -0.02663 0.76579 0.06096
 C136 C -0.02718 0.76832 0.03176
 C137 C -0.00231 0.76641 0.01651
 C138 C 0.02314 0.76372 0.03046
 C139 C 0.04755 0.76296 0.01518
 C140 C 0.04713 0.76507 -0.01320
 C141 C 0.02221 0.76647 -0.02785
 C142 C -0.00278 0.76801 -0.01275
 C143 C -0.05139 0.77522 0.01754
 C144 C -0.05183 0.77714 -0.01092
 C145 C -0.02812 0.77219 -0.02668
 C146 C -0.02861 0.77394 -0.05583
 C147 C -0.00355 0.77314 -0.07013
 C148 C 0.02174 0.76859 -0.05699
 H149 H 0.06742 0.76120 0.02501
 H150 H 0.06683 0.76635 -0.02333
 H151 H -0.07015 0.78029 0.02826
 H152 H -0.07092 0.78351 -0.02036
 H153 H 0.00002 0.76094 0.09623
 H154 H -0.00401 0.77322 -0.09241
 C155 C 0.52416 0.25708 0.44384
 C156 C 0.49899 0.25782 0.42998
 C157 C 0.47399 0.25833 0.44413
 C158 C 0.47399 0.25804 0.47320
 C159 C 0.49938 0.25723 0.48760
 C160 C 0.52455 0.25711 0.47287
 C161 C 0.54941 0.25806 0.48755
 C162 C 0.54965 0.25821 0.51608
 C163 C 0.52504 0.25735 0.53114
 C164 C 0.49962 0.25723 0.51679
 C165 C 0.44941 0.25956 0.48826
 C166 C 0.44964 0.25942 0.51683
 C167 C 0.47448 0.25783 0.53155
 C168 C 0.47493 0.25787 0.56063
 C169 C 0.50019 0.25794 0.57443
 C170 C 0.52515 0.25764 0.56019
 H171 H 0.56902 0.25919 0.47716
 H172 H 0.56943 0.25942 0.52614
 H173 H 0.42969 0.26129 0.47814
 H174 H 0.43008 0.26108 0.52723
 H175 H 0.49886 0.25775 0.40769
 H176 H 0.50044 0.25803 0.59672
 C177 C 0.94431 -0.02248 0.24496
 C178 C 0.93055 0.00265 0.24534
 C179 C 0.94477 0.02745 0.24726
 C180 C 0.97381 0.02730 0.24912
 C181 C 0.98818 0.00203 0.24781
 C182 C 0.97338 -0.02293 0.24543
 C183 C 0.98800 -0.04760 0.24289
 C184 C 1.01652 -0.04797 0.24384
 C185 C 1.03160 -0.02366 0.24736
 C186 C 1.01742 0.00170 0.24870
 C187 C 0.98886 0.05164 0.25211
 C188 C 1.01739 0.05124 0.25390
 C189 C 1.03235 0.02667 0.25102
 C190 C 1.06166 0.02607 0.25199
 C191 C 1.07500 0.00049 0.25165
 C192 C 1.06054 -0.02408 0.24907
 H193 H 0.97756 -0.06692 0.23981
 H194 H 1.02659 -0.06760 0.24164
 H195 H 0.97876 0.07133 0.25343
 H196 H 1.02742 0.07054 0.25801
 H197 H 0.90825 0.00291 0.24467
 H198 H 1.09728 -0.00045 0.25202
 C199 C 0.44408 0.47673 0.74529
 C200 C 0.42992 0.50166 0.74557
 C201 C 0.44374 0.52675 0.74654
 C202 C 0.47284 0.52708 0.74754
 C203 C 0.48757 0.50195 0.74677
 C204 C 0.47315 0.47671 0.74528
 C205 C 0.48815 0.45221 0.74297
 C206 C 0.51672 0.45232 0.74313
 C207 C 0.53149 0.47692 0.74574
 C208 C 0.51681 0.50204 0.74704
 C209 C 0.48763 0.55177 0.74872
 C210 C 0.51623 0.55184 0.74963
 C211 C 0.53127 0.52726 0.74840
 C212 C 0.56039 0.52714 0.74871
 C213 C 0.57450 0.50215 0.74779
 C214 C 0.56057 0.47713 0.74633
 H215 H 0.47797 0.43267 0.74056
 H216 H 0.52707 0.43283 0.74090
 H217 H 0.47728 0.57138 0.74895
 H218 H 0.52638 0.57147 0.75123
 H219 H 0.40761 0.50153 0.74540
 H220 H 0.59680 0.50219 0.74812
 C221 C 1.02512 0.94310 0.75945
 C222 C 0.99943 0.93048 0.76316
 C223 C 0.97497 0.94541 0.76384
 C224 C 0.97586 0.97425 0.76222
 C225 C 1.00137 0.98776 0.75840
 C226 C 1.02613 0.97224 0.75704
 C227 C 1.05115 0.98650 0.75502
 C228 C 1.05185 1.01483 0.75248
 C229 C 1.02775 1.03069 0.75413
 C230 C 1.00211 1.01694 0.75654
 C231 C 0.95194 0.98992 0.76558
 C232 C 0.95264 1.01824 0.76359
 C233 C 0.97719 1.03221 0.75746
 C234 C 0.97778 1.06118 0.75426
 C235 C 1.00341 1.07420 0.75188
 C236 C 1.02842 1.05979 0.75234
 H237 H 1.07074 0.97616 0.75576
 H238 H 1.07175 1.02398 0.74906
 H239 H 0.93242 0.98047 0.77041
 H240 H 0.93367 1.02900 0.76769
 H241 H 0.99814 0.90829 0.76384
 H242 H 1.00393 1.09632 0.74984
 C243 C 0.47720 0.56036 0.25247
 C244 C 0.50235 0.57417 0.25119
 C245 C 0.52738 0.56002 0.25075
 C246 C 0.52737 0.53101 0.25120
 C247 C 0.50200 0.51670 0.25251
 C248 C 0.47686 0.53142 0.25352
 C249 C 0.45211 0.51684 0.25628
 C250 C 0.45189 0.48839 0.25690
 C251 C 0.47640 0.47332 0.25478
 C252 C 0.50177 0.48759 0.25305
 C253 C 0.55197 0.51594 0.25016
 C254 C 0.55176 0.48745 0.25110
 C255 C 0.52691 0.47282 0.25227
 C256 C 0.52646 0.44384 0.25328
 C257 C 0.50125 0.43014 0.25475
 C258 C 0.47631 0.44436 0.25522
 H259 H 0.43259 0.52726 0.25835
 H260 H 0.43223 0.47836 0.25943
 H261 H 0.57172 0.52597 0.24864
 H262 H 0.57141 0.47708 0.25101
 H263 H 0.50245 0.59640 0.25064
 H264 H 0.50105 0.40791 0.25514
 O265 O 0.25808 0.17776 0.20735
 O266 O 0.28805 0.17125 0.24646
 O267 O 0.18483 0.20925 0.24542
 O268 O 0.17379 0.24502 0.27215
 O269 O 0.21863 0.24749 0.17314
 O270 O 0.25593 0.27914 0.16603
 O271 O 0.25376 0.28818 0.31557
 O272 O 0.22208 0.25061 0.32230
 O273 O 0.32531 0.25201 0.28426
 O274 O 0.33513 0.22012 0.24615
 O275 O 0.29207 0.32048 0.24647
 O276 O 0.25301 0.32722 0.21305
 O277 O 0.25332 0.32028 0.28179
 O278 O 0.22387 0.32806 0.24225
 O279 O 0.32532 0.28783 0.24766
 O280 O 0.33510 0.24874 0.21628
 O281 O 0.29198 0.25262 0.31689
 O282 O 0.25920 0.22096 0.32555
 O283 O 0.25894 0.21071 0.17434
 O284 O 0.28710 0.24963 0.16635
 O285 O 0.18487 0.24676 0.20537
 O286 O 0.17685 0.27895 0.24319
 O287 O 0.21881 0.17731 0.24518
 O288 O 0.25782 0.16953 0.27544
 Zr289 Zr 0.25551 0.19993 0.24452
 O290 O 0.27987 0.22425 0.27065
 Zr291 Zr 0.20611 0.24681 0.24316
 O292 O 0.22865 0.27339 0.26893
 Zr293 Zr 0.25535 0.24771 0.19591
 O294 O 0.28017 0.27395 0.21956
 Zr295 Zr 0.25521 0.25064 0.29415
 O296 O 0.23027 0.22353 0.27073
 Zr297 Zr 0.30412 0.25056 0.24675
 O298 O 0.28196 0.22412 0.22049
 Zr299 Zr 0.25503 0.29791 0.24505
 O300 O 0.22989 0.27371 0.21906
 O301 O 0.22999 0.22177 0.21828
 O302 O 0.28073 0.27637 0.27160
 C303 C 0.25968 0.18559 0.18215
 C304 C 0.19336 0.18429 0.24597
 C305 C 0.19320 0.24713 0.18029
 C306 C 0.25301 0.31317 0.30717
 C307 C 0.31730 0.25300 0.30935
 C308 C 0.31738 0.31289 0.24774
 H309 H 0.29101 0.21227 0.28268
 H310 H 0.29162 0.28531 0.20728
 H311 H 0.21882 0.20956 0.20649
 H312 H 0.21579 0.28449 0.28003
 H313 H 0.21035 0.23471 0.31757
 H314 H 0.17983 0.25534 0.28854
 H315 H 0.33200 0.26402 0.20329
 H316 H 0.30237 0.23828 0.17353
 H317 H 0.24916 0.20458 0.31919
 H318 H 0.24214 0.17246 0.28804
 H319 H 0.26921 0.32456 0.20108
 H320 H 0.24245 0.29309 0.17206
 H321 H 0.30231 0.17769 0.23348
 H322 H 0.33112 0.20691 0.26101
 H323 H 0.18241 0.29198 0.22863
 H324 H 0.20923 0.32306 0.25541
 O325 O 0.74648 0.82585 0.21489
 O326 O 0.71706 0.83353 0.25375
 O327 O 0.81978 0.79473 0.25464
 O328 O 0.82955 0.75971 0.28319
 O329 O 0.78830 0.75525 0.18245
 O330 O 0.75045 0.72420 0.17477
 O331 O 0.75012 0.71794 0.32448
 O332 O 0.78055 0.75644 0.33135
 O333 O 0.67805 0.75308 0.29119
 O334 O 0.66994 0.78538 0.25192
 O335 O 0.71169 0.68424 0.25425
 O336 O 0.75164 0.67630 0.22325
 O337 O 0.74858 0.68475 0.29182
 O338 O 0.78021 0.67631 0.25308
 O339 O 0.67866 0.71712 0.25314
 O340 O 0.66949 0.75590 0.22313
 O341 O 0.71117 0.75197 0.32405
 O342 O 0.74272 0.78436 0.33359
 O343 O 0.74867 0.79308 0.18178
 O344 O 0.71954 0.75437 0.17381
 O345 O 0.82055 0.75592 0.21623
 O346 O 0.82756 0.72518 0.25477
 O347 O 0.78607 0.82689 0.25220
 O348 O 0.74747 0.83527 0.28275
 Zr349 Zr 0.74925 0.80444 0.25223
 O350 O 0.72404 0.78078 0.27803
 Zr351 Zr 0.79828 0.75726 0.25307
 O352 O 0.77500 0.73115 0.27849
 Zr353 Zr 0.75064 0.75612 0.20411
 O354 O 0.72495 0.73048 0.22766
 Zr355 Zr 0.74815 0.75474 0.30237
 O356 O 0.77376 0.78133 0.27942
 Zr357 Zr 0.70020 0.75423 0.25392
 O358 O 0.72335 0.78004 0.22776
 Zr359 Zr 0.74896 0.70647 0.25437
 O360 O 0.77497 0.73016 0.22866
 O361 O 0.77539 0.78209 0.22702
 O362 O 0.72281 0.72870 0.27981
 C363 C 0.74656 0.81816 0.18965
 C364 C 0.81145 0.81974 0.25360
 C365 C 0.81342 0.75511 0.19084
 C366 C 0.74959 0.69272 0.31698
 C367 C 0.68594 0.75174 0.31638
 C368 C 0.68641 0.69199 0.25344
 H369 H 0.71268 0.79295 0.28965
 H370 H 0.71380 0.71909 0.21511
 H371 H 0.78691 0.79389 0.21516
 H372 H 0.78755 0.72020 0.29010
 H373 H 0.79180 0.77273 0.32677
 H374 H 0.82296 0.74970 0.29956
 H375 H 0.67442 0.74242 0.20879
 H376 H 0.70468 0.76675 0.18004
 H377 H 0.74991 0.80174 0.32618
 H378 H 0.76325 0.83235 0.29527
 H379 H 0.73675 0.67981 0.20985
 H380 H 0.76360 0.71020 0.18142
 H381 H 0.70258 0.82690 0.24110
 H382 H 0.67255 0.79764 0.26789
 H383 H 0.82178 0.71130 0.24112
 H384 H 0.79367 0.68063 0.26768
 O385 O 0.75124 0.18018 0.78651
 O386 O 0.72339 0.17156 0.74843
 O387 O 0.82351 0.21472 0.74871
 O388 O 0.83551 0.25135 0.72546
 O389 O 0.78800 0.25120 0.82212
 O390 O 0.75050 0.27994 0.83033
 O391 O 0.75261 0.28853 0.67838
 O392 O 0.78229 0.25308 0.67006
 O393 O 0.68137 0.25388 0.71190
 O394 O 0.67084 0.22401 0.74894
 O395 O 0.71532 0.32286 0.74758
 O396 O 0.75192 0.33285 0.77756
 O397 O 0.75233 0.32196 0.71083
 O398 O 0.78491 0.32857 0.75226
 O399 O 0.68166 0.29069 0.74846
 O400 O 0.67418 0.25002 0.78110
 O401 O 0.71406 0.25355 0.67862
 O402 O 0.75288 0.21943 0.67195
 O403 O 0.74989 0.21221 0.82036
 O404 O 0.71862 0.25148 0.82702
 O405 O 0.82216 0.25130 0.79037
 O406 O 0.82824 0.28521 0.75127
 O407 O 0.79131 0.18103 0.74905
 O408 O 0.75261 0.17429 0.71719
 Zr409 Zr 0.75355 0.20266 0.75001
 O410 O 0.72729 0.22622 0.72498
 Zr411 Zr 0.80126 0.25119 0.75213
 O412 O 0.77821 0.27587 0.72505
 Zr413 Zr 0.75180 0.24999 0.79900
 O414 O 0.72744 0.27670 0.77520
 Zr415 Zr 0.75155 0.25207 0.70072
 O416 O 0.77817 0.22707 0.72436
 Zr417 Zr 0.70317 0.25299 0.74883
 O418 O 0.72605 0.22601 0.77409
 Zr419 Zr 0.75196 0.30048 0.74867
 O420 O 0.77654 0.27714 0.77606
 O421 O 0.77820 0.22508 0.77661
 O422 O 0.72607 0.27821 0.72299
 C423 C 0.74965 0.18720 0.81187
 C424 C 0.81642 0.18941 0.74812
 C425 C 0.81347 0.25156 0.81537
 C426 C 0.75278 0.31376 0.68568
 C427 C 0.68886 0.25435 0.68668
 C428 C 0.68996 0.31571 0.74756
 H429 H 0.71571 0.21393 0.71375
 H430 H 0.71617 0.28828 0.78748
 H431 H 0.78977 0.21312 0.78829
 H432 H 0.79086 0.28676 0.71351
 H433 H 0.79766 0.24162 0.67684
 H434 H 0.82854 0.25668 0.70715
 H435 H 0.67559 0.26683 0.79237
 H436 H 0.70568 0.23678 0.82163
 H437 H 0.73571 0.20872 0.67352
 H438 H 0.76719 0.17986 0.70417
 H439 H 0.74150 0.32646 0.79376
 H440 H 0.76175 0.29551 0.82376
 H441 H 0.70745 0.17847 0.75900
 H442 H 0.67680 0.20828 0.73761
 H443 H 0.82445 0.29623 0.76792
 H444 H 0.79594 0.32748 0.73524
 O445 O 0.24380 0.81550 0.78830
 O446 O 0.27414 0.82312 0.74994
 O447 O 0.17224 0.78221 0.74730
 O448 O 0.16297 0.74683 0.71969
 O449 O 0.20382 0.74460 0.82047
 O450 O 0.24198 0.71361 0.82854
 O451 O 0.24465 0.70585 0.67911
 O452 O 0.21268 0.74341 0.67165
 O453 O 0.31495 0.74324 0.71262
 O454 O 0.32271 0.77491 0.75152
 O455 O 0.28145 0.67388 0.74920
 O456 O 0.24206 0.66571 0.78098
 O457 O 0.24429 0.67351 0.71265
 O458 O 0.21337 0.66503 0.75137
 O459 O 0.31455 0.70666 0.75028
 O460 O 0.32235 0.74632 0.78127
 O461 O 0.28212 0.74134 0.67949
 O462 O 0.24973 0.77288 0.66964
 O463 O 0.24324 0.78227 0.82098
 O464 O 0.27227 0.74419 0.82976
 O465 O 0.17178 0.74483 0.78649
 O466 O 0.16576 0.71271 0.74838
 O467 O 0.20482 0.81549 0.74945
 O468 O 0.24455 0.82412 0.71994
 Zr469 Zr 0.24233 0.79364 0.75078
 O470 O 0.26820 0.76990 0.72538
 Zr471 Zr 0.19432 0.74541 0.74980
 O472 O 0.21811 0.71953 0.72476
 Zr473 Zr 0.24158 0.74538 0.79903
 O474 O 0.26789 0.71994 0.77603
 Zr475 Zr 0.24489 0.74319 0.70088
 O476 O 0.21865 0.76966 0.72346
 Zr477 Zr 0.29247 0.74379 0.74973
 O478 O 0.26858 0.76959 0.77541
 Zr479 Zr 0.24414 0.69562 0.74955
 O480 O 0.21762 0.71896 0.77481
 O481 O 0.21652 0.77089 0.77582
 O482 O 0.27030 0.71776 0.72402
 C483 C 0.24429 0.80748 0.81350
 C484 C 0.17967 0.80745 0.74783
 C485 C 0.17876 0.74460 0.81193
 C486 C 0.24442 0.68080 0.68733
 C487 C 0.30730 0.74178 0.68736
 C488 C 0.30671 0.68153 0.74962
 H489 H 0.27945 0.78216 0.71376
 H490 H 0.27913 0.70874 0.78868
 H491 H 0.20471 0.78274 0.78735
 H492 H 0.20585 0.70827 0.71315
 H493 H 0.20087 0.75939 0.67594
 H494 H 0.16985 0.73694 0.70336
 H495 H 0.31865 0.73145 0.79456
 H496 H 0.28747 0.75596 0.82319
 H497 H 0.24061 0.78967 0.67633
 H498 H 0.22903 0.82100 0.70716
 H499 H 0.25725 0.66919 0.79403
 H500 H 0.22879 0.69958 0.82207
 H501 H 0.28845 0.81664 0.76287
 H502 H 0.31885 0.78812 0.73660
 H503 H 0.17099 0.69971 0.76309
 H504 H 0.19955 0.66927 0.73708
 O505 O 0.24782 0.32364 0.71575
 O506 O 0.21821 0.33112 0.75466
 O507 O 0.32115 0.29277 0.75554
 O508 O 0.33111 0.25760 0.78388
 O509 O 0.28953 0.25299 0.68330
 O510 O 0.25159 0.22192 0.67574
 O511 O 0.25157 0.21553 0.82527
 O512 O 0.28252 0.25383 0.83205
 O513 O 0.17979 0.25032 0.79246
 O514 O 0.17144 0.28306 0.75340
 O515 O 0.21326 0.18193 0.75545
 O516 O 0.25324 0.17436 0.72377
 O517 O 0.25073 0.18239 0.79255
 O518 O 0.28167 0.17392 0.75379
 O519 O 0.18028 0.21485 0.75468
 O520 O 0.17087 0.25353 0.72448
 O521 O 0.21307 0.24994 0.82516
 O522 O 0.24485 0.28208 0.83456
 O523 O 0.24994 0.29080 0.68269
 O524 O 0.22076 0.25216 0.67483
 O525 O 0.32194 0.25457 0.71691
 O526 O 0.32917 0.22321 0.75499
 O527 O 0.28731 0.32480 0.75313
 O528 O 0.24866 0.33313 0.78359
 Zr529 Zr 0.25058 0.30224 0.75314
 O530 O 0.22562 0.27850 0.77912
 Zr531 Zr 0.29979 0.25521 0.75381
 O532 O 0.27669 0.22895 0.77923
 Zr533 Zr 0.25193 0.25388 0.70505
 O534 O 0.22635 0.22820 0.72868
 Zr535 Zr 0.24992 0.25246 0.80328
 O536 O 0.27529 0.27919 0.78025
 Zr537 Zr 0.20174 0.25193 0.75510
 O538 O 0.22468 0.27776 0.72878
 Zr539 Zr 0.25056 0.20423 0.75520
 O540 O 0.27648 0.22802 0.72947
 O541 O 0.27667 0.27995 0.72787
 O542 O 0.22455 0.22641 0.78080
 C543 C 0.24794 0.31590 0.69050
 C544 C 0.31272 0.31775 0.75452
 C545 C 0.31468 0.25355 0.69157
 C546 C 0.25141 0.19031 0.81774
 C547 C 0.18781 0.24924 0.81763
 C548 C 0.18796 0.18972 0.75504
 H549 H 0.21430 0.29062 0.79082
 H550 H 0.21512 0.21680 0.71620
 H551 H 0.28811 0.29183 0.71603
 H552 H 0.28928 0.21799 0.79078
 H553 H 0.29386 0.27004 0.82743
 H554 H 0.32484 0.24704 0.80003
 H555 H 0.17569 0.23997 0.71017
 H556 H 0.20584 0.26440 0.68120
 H557 H 0.25251 0.29932 0.82729
 H558 H 0.26440 0.33027 0.79617
 H559 H 0.23776 0.17738 0.71093
 H560 H 0.26486 0.20798 0.68228
 H561 H 0.20381 0.32447 0.74193
 H562 H 0.17396 0.29510 0.76955
 H563 H 0.32346 0.20953 0.74111
 H564 H 0.29572 0.17880 0.76764
 O565 O 0.75565 0.68026 0.70927
 O566 O 0.78591 0.67382 0.74843
 O567 O 0.68270 0.71216 0.74697
 O568 O 0.67187 0.74783 0.77396
 O569 O 0.71684 0.75013 0.67492
 O570 O 0.75426 0.78157 0.66783
 O571 O 0.75136 0.79102 0.81732
 O572 O 0.72010 0.75310 0.82417
 O573 O 0.82333 0.75435 0.78611
 O574 O 0.83308 0.72246 0.74812
 O575 O 0.79034 0.82293 0.74886
 O576 O 0.75175 0.82983 0.71473
 O577 O 0.75122 0.82301 0.78343
 O578 O 0.72213 0.83070 0.74353
 O579 O 0.82348 0.79016 0.74983
 O580 O 0.83306 0.75103 0.71811
 O581 O 0.79002 0.75637 0.81867
 O582 O 0.75762 0.72390 0.82751
 O583 O 0.75680 0.71319 0.67626
 O584 O 0.78535 0.75190 0.66834
 O585 O 0.68303 0.74992 0.70712
 O586 O 0.67494 0.78178 0.74511
 O587 O 0.71655 0.68006 0.74756
 O588 O 0.75567 0.67202 0.77732
 Zr589 Zr 0.75337 0.70250 0.74648
 O590 O 0.77778 0.72683 0.77262
 Zr591 Zr 0.70418 0.74961 0.74497
 O592 O 0.72675 0.77618 0.77070
 Zr593 Zr 0.75349 0.75022 0.69778
 O594 O 0.77835 0.77644 0.72139
 Zr595 Zr 0.75322 0.75342 0.79602
 O596 O 0.72823 0.72631 0.77262
 Zr597 Zr 0.80213 0.75297 0.74864
 O598 O 0.77994 0.72654 0.72242
 Zr599 Zr 0.75323 0.80054 0.74679
 O600 O 0.72807 0.77636 0.72082
 O601 O 0.72797 0.72442 0.72017
 O602 O 0.77880 0.77893 0.77336
 C603 C 0.75729 0.68806 0.68405
 C604 C 0.69114 0.68718 0.74801
 C605 C 0.69141 0.75015 0.68207
 C606 C 0.75065 0.81597 0.80883
 C607 C 0.81536 0.75635 0.81115
 C608 C 0.81561 0.81524 0.75029
 H609 H 0.78890 0.71489 0.78472
 H610 H 0.78990 0.78775 0.70916
 H611 H 0.71671 0.71226 0.70841
 H612 H 0.71384 0.78732 0.78171
 H613 H 0.70856 0.73704 0.81952
 H614 H 0.67806 0.75791 0.79046
 H615 H 0.83029 0.76657 0.70538
 H616 H 0.80051 0.74043 0.67557
 H617 H 0.74780 0.70737 0.82120
 H618 H 0.74029 0.67526 0.79021
 H619 H 0.76825 0.82732 0.70314
 H620 H 0.74103 0.79572 0.67395
 H621 H 0.80002 0.68005 0.73519
 H622 H 0.82888 0.70915 0.76285
 H623 H 0.68054 0.79486 0.73062
 H624 H 0.70753 0.82596 0.75683
 O625 O 0.24789 0.67807 0.28676
 O626 O 0.22121 0.66884 0.24796
 O627 O 0.32102 0.71276 0.25063
 O628 O 0.33274 0.74860 0.22582
 O629 O 0.28424 0.74910 0.32229
 O630 O 0.24662 0.77838 0.32953
 O631 O 0.25056 0.78556 0.17770
 O632 O 0.28068 0.75023 0.17017
 O633 O 0.17909 0.74919 0.21049
 O634 O 0.16822 0.72102 0.24821
 O635 O 0.21216 0.82009 0.24619
 O636 O 0.24809 0.83064 0.27642
 O637 O 0.24971 0.81922 0.20989
 O638 O 0.28157 0.82634 0.25176
 O639 O 0.17866 0.78773 0.24641
 O640 O 0.17095 0.74759 0.27965
 O641 O 0.21226 0.75032 0.17771
 O642 O 0.25133 0.71649 0.17174
 O643 O 0.24641 0.71045 0.32031
 O644 O 0.21480 0.74958 0.32619
 O645 O 0.31875 0.75001 0.29090
 O646 O 0.32536 0.78316 0.25152
 O647 O 0.28897 0.67889 0.25016
 O648 O 0.25106 0.67159 0.21749
 Zr649 Zr 0.25105 0.70023 0.25009
 O650 O 0.22506 0.72340 0.22450
 Zr651 Zr 0.29842 0.74910 0.25241
 O652 O 0.27562 0.77341 0.22481
 Zr653 Zr 0.24835 0.74801 0.29864
 O654 O 0.22414 0.77428 0.27423
 Zr655 Zr 0.24944 0.74927 0.20032
 O656 O 0.27587 0.72458 0.22456
 Zr657 Zr 0.20038 0.75017 0.24774
 O658 O 0.22309 0.72361 0.27359
 Zr659 Zr 0.24887 0.79800 0.24786
 O660 O 0.27325 0.77510 0.27580
 O661 O 0.27514 0.72308 0.27680
 O662 O 0.22342 0.77539 0.22198
 C663 C 0.24607 0.68538 0.31202
 C664 C 0.31404 0.68742 0.25022
 C665 C 0.30978 0.74981 0.31579
 C666 C 0.25055 0.81085 0.18481
 C667 C 0.18695 0.74966 0.18538
 C668 C 0.18687 0.81278 0.24570
 H669 H 0.21376 0.71084 0.21328
 H670 H 0.21264 0.78590 0.28624
 H671 H 0.28652 0.71129 0.28883
 H672 H 0.28834 0.78432 0.21337
 H673 H 0.29594 0.73878 0.17721
 H674 H 0.32615 0.75490 0.20769
 H675 H 0.17205 0.76461 0.29063
 H676 H 0.20197 0.73483 0.32070
 H677 H 0.23437 0.70546 0.17343
 H678 H 0.26581 0.67724 0.20469
 H679 H 0.23812 0.82404 0.29281
 H680 H 0.25848 0.79360 0.32323
 H681 H 0.20512 0.67547 0.25848
 H682 H 0.17453 0.70497 0.23754
 H683 H 0.32114 0.79452 0.26783
 H684 H 0.29289 0.82519 0.23493
 O685 O 0.74835 0.31839 0.28806
 O686 O 0.77854 0.32560 0.24936
 O687 O 0.67638 0.28506 0.24876
 O688 O 0.66665 0.24979 0.22108
 O689 O 0.70906 0.24764 0.32126
 O690 O 0.74725 0.21673 0.32894
 O691 O 0.74711 0.20820 0.17939
 O692 O 0.71546 0.24602 0.17228
 O693 O 0.81837 0.24512 0.21169
 O694 O 0.82694 0.27723 0.25003
 O695 O 0.78513 0.17643 0.24919
 O696 O 0.74626 0.16843 0.28141
 O697 O 0.74789 0.17607 0.21310
 O698 O 0.71701 0.16795 0.25230
 O699 O 0.81841 0.20907 0.24969
 O700 O 0.82681 0.24904 0.28021
 O701 O 0.78502 0.24328 0.17909
 O702 O 0.75273 0.27514 0.16956
 O703 O 0.74884 0.28533 0.32096
 O704 O 0.77767 0.24705 0.32947
 O705 O 0.67648 0.24787 0.28776
 O706 O 0.66972 0.21564 0.24991
 O707 O 0.70912 0.31825 0.24969
 O708 O 0.74854 0.32667 0.21972
 Zr709 Zr 0.74658 0.29631 0.25069
 O710 O 0.77195 0.27235 0.22500
 Zr711 Zr 0.69841 0.24825 0.25075
 O712 O 0.72166 0.22217 0.22542
 Zr713 Zr 0.74648 0.24831 0.29923
 O714 O 0.77226 0.22264 0.27592
 Zr715 Zr 0.74812 0.24563 0.20101
 O716 O 0.72237 0.27230 0.22389
 Zr717 Zr 0.79648 0.24628 0.24912
 O718 O 0.77315 0.27231 0.27504
 Zr719 Zr 0.74798 0.19831 0.24993
 O720 O 0.72201 0.22187 0.27553
 O721 O 0.72113 0.27376 0.27629
 O722 O 0.77379 0.22023 0.22389
 C723 C 0.74953 0.31049 0.31328
 C724 C 0.68393 0.31026 0.24883
 C725 C 0.68387 0.24767 0.31308
 C726 C 0.74737 0.18319 0.18772
 C727 C 0.81032 0.24346 0.18657
 C728 C 0.81041 0.18398 0.24926
 H729 H 0.78306 0.28448 0.21313
 H730 H 0.78365 0.21146 0.28845
 H731 H 0.70955 0.28569 0.28797
 H732 H 0.70917 0.21090 0.21407
 H733 H 0.70382 0.26208 0.17672
 H734 H 0.67318 0.23970 0.20473
 H735 H 0.82338 0.23418 0.29359
 H736 H 0.79279 0.25877 0.32264
 H737 H 0.74383 0.29202 0.17630
 H738 H 0.73287 0.32355 0.20713
 H739 H 0.76148 0.17209 0.29439
 H740 H 0.73399 0.20266 0.32272
 H741 H 0.79294 0.31912 0.26219
 H742 H 0.82281 0.29039 0.23514
 H743 H 0.67523 0.20261 0.26450
 H744 H 0.70331 0.17188 0.23780
 C745 C 0.26545 0.10550 0.09485
 C746 C 0.24283 0.08836 0.08964
 C747 C 0.24260 0.07131 0.06654
 C748 C 0.26517 0.07081 0.04860
 C749 C 0.28799 0.08748 0.05411
 C750 C 0.28814 0.10466 0.07702
 C751 C 0.26475 0.12548 0.11774
 C752 C 0.27268 0.15271 0.11306
 C753 C 0.27123 0.17204 0.13409
 C754 C 0.26203 0.16455 0.16040
 C755 C 0.25449 0.13717 0.16526
 C756 C 0.25564 0.11784 0.14403
 H757 H 0.22464 0.05890 0.06234
 H758 H 0.30552 0.08745 0.04041
 H759 H 0.27727 0.19293 0.12967
 H760 H 0.24722 0.13082 0.18530
 H761 H 0.30590 0.11753 0.08069
 H762 H 0.27945 0.15923 0.09291
 H763 H 0.22495 0.08890 0.10286
 H764 H 0.24953 0.09691 0.14816
 C765 C 0.76072 0.60848 0.59602
 C766 C 0.73821 0.59096 0.59166
 C767 C 0.73725 0.57408 0.56844
 C768 C 0.75897 0.57417 0.54947
 C769 C 0.78168 0.59124 0.55409
 C770 C 0.78258 0.60820 0.57715
 C771 C 0.76074 0.62827 0.61913
 C772 C 0.76849 0.65555 0.61445
 C773 C 0.76768 0.67471 0.63566
 C774 C 0.75925 0.66705 0.66219
 C775 C 0.75190 0.63962 0.66707
 C776 C 0.75247 0.62043 0.64566
 H777 H 0.71939 0.56130 0.56498
 H778 H 0.79859 0.59162 0.53962
 H779 H 0.77354 0.69564 0.63117
 H780 H 0.74522 0.63313 0.68726
 H781 H 0.80028 0.62131 0.58013
 H782 H 0.77460 0.66227 0.59415
 H783 H 0.72093 0.59105 0.60567
 H784 H 0.74652 0.59946 0.64983
 C785 C 0.73841 0.90409 0.10813
 C786 C 0.76012 0.90920 0.08979
 C787 C 0.75915 0.93183 0.07215
 C788 C 0.73627 0.94937 0.07226
 C789 C 0.71430 0.94386 0.09006
 C790 C 0.71535 0.92144 0.10781
 C791 C 0.74036 0.88175 0.12865
 C792 C 0.73338 0.88688 0.15615
 C793 C 0.73546 0.86623 0.17582
 C794 C 0.74435 0.83982 0.16845
 C795 C 0.75123 0.83460 0.14088
 C796 C 0.74943 0.85545 0.12119
 H797 H 0.77651 0.93606 0.05889
 H798 H 0.69655 0.95726 0.09054
 H799 H 0.72996 0.87096 0.19684
 H800 H 0.75825 0.81450 0.13458
 H801 H 0.69824 0.91781 0.12156
 H802 H 0.72668 0.90707 0.16253
 H803 H 0.77825 0.89632 0.08985
 H804 H 0.75485 0.85097 0.10009
 C805 C 0.24207 0.40152 0.60838
 C806 C 0.26373 0.40551 0.58971
 C807 C 0.26351 0.42796 0.57181
 C808 C 0.24141 0.44647 0.57201
 C809 C 0.21946 0.44208 0.59014
 C810 C 0.21977 0.41983 0.60814
 C811 C 0.24329 0.37928 0.62909
 C812 C 0.23661 0.38481 0.65659
 C813 C 0.23810 0.36422 0.67641
 C814 C 0.24611 0.33750 0.66918
 C815 C 0.25264 0.33188 0.64160
 C816 C 0.25141 0.35263 0.62178
 H817 H 0.28086 0.43130 0.55829
 H818 H 0.20230 0.45623 0.59069
 H819 H 0.23292 0.36928 0.69744
 H820 H 0.25899 0.31154 0.63538
 H821 H 0.20268 0.41708 0.62212
 H822 H 0.23065 0.40525 0.66288
 H823 H 0.28131 0.39188 0.58969
 H824 H 0.25656 0.34781 0.60068
 C825 C 0.74023 0.09721 0.88904
 C826 C 0.72247 0.07550 0.88250
 C827 C 0.72090 0.05242 0.89928
 C828 C 0.73675 0.05045 0.92345
 C829 C 0.75440 0.07243 0.93008
 C830 C 0.75595 0.09561 0.91319
 C831 C 0.74322 0.12064 0.86981
 C832 C 0.74470 0.14783 0.87930
 C833 C 0.74686 0.16965 0.86065
 C834 C 0.74776 0.16460 0.83220
 C835 C 0.74673 0.13730 0.82295
 C836 C 0.74450 0.11569 0.84146
 H837 H 0.70679 0.03623 0.89355
 H838 H 0.76791 0.07125 0.94774
 H839 H 0.74768 0.19039 0.86847
 H840 H 0.74755 0.13248 0.80125
 H841 H 0.77021 0.11180 0.91846
 H842 H 0.74368 0.15222 0.90107
 H843 H 0.70976 0.07634 0.86424
 H844 H 0.74399 0.09496 0.83353
 C845 C 0.24153 0.59543 0.38935
 C846 C 0.21973 0.57653 0.38856
 C847 C 0.22022 0.55313 0.40504
 C848 C 0.24246 0.54819 0.42270
 C849 C 0.26417 0.56710 0.42376
 C850 C 0.26362 0.59066 0.40737
 C851 C 0.24190 0.61904 0.37017
 C852 C 0.24989 0.64534 0.37892
 C853 C 0.25070 0.66723 0.36028
 C854 C 0.24392 0.66306 0.33252
 C855 C 0.23579 0.63677 0.32396
 C856 C 0.23472 0.61510 0.34254
 H857 H 0.20331 0.53874 0.40392
 H858 H 0.28166 0.56342 0.43704
 H859 H 0.25715 0.68723 0.36745
 H860 H 0.23034 0.63283 0.30275
 H861 H 0.28085 0.60467 0.40810
 H862 H 0.25539 0.64894 0.40017
 H863 H 0.20234 0.57981 0.37504
 H864 H 0.22884 0.59502 0.33511
 C865 C 0.25447 0.88671 0.90173
 C866 C 0.27257 0.88055 0.92333
 C867 C 0.27475 0.89785 0.94601
 C868 C 0.25916 0.92214 0.94772
 C869 C 0.24127 0.92848 0.92577
 C870 C 0.23912 0.91106 0.90297
 C871 C 0.25088 0.86694 0.87881
 C872 C 0.24932 0.87569 0.85132
 C873 C 0.24699 0.85653 0.82995
 C874 C 0.24597 0.82829 0.83572
 C875 C 0.24693 0.81976 0.86331
 C876 C 0.24934 0.83879 0.88450
 H877 H 0.28908 0.89233 0.96215
 H878 H 0.22797 0.94625 0.92676
 H879 H 0.24622 0.86381 0.80896
 H880 H 0.24599 0.79825 0.86868
 H881 H 0.22465 0.91609 0.88682
 H882 H 0.25053 0.89727 0.84634
 H883 H 0.28505 0.86218 0.92275
 H884 H 0.24992 0.83143 0.90548
 C885 C 0.75512 0.39039 0.40120
 C886 C 0.77719 0.38987 0.41986
 C887 C 0.77736 0.40712 0.44274
 C888 C 0.75552 0.42529 0.44743
 C889 C 0.73360 0.42618 0.42865
 C890 C 0.73351 0.40902 0.40559
 C891 C 0.75404 0.37039 0.37823
 C892 C 0.74610 0.37838 0.35162
 C893 C 0.74500 0.35911 0.33027
 C894 C 0.75143 0.33145 0.33527
 C895 C 0.75932 0.32361 0.36194
 C896 C 0.76069 0.34283 0.38308
 H897 H 0.79440 0.40607 0.45703
 H898 H 0.71636 0.43979 0.43215
 H899 H 0.73876 0.36578 0.30999
 H900 H 0.76448 0.30252 0.36655
 H901 H 0.71609 0.40961 0.39173
 H902 H 0.74099 0.39954 0.34731
 H903 H 0.79424 0.37591 0.41686
 H904 H 0.76651 0.33599 0.40344
 C905 C 0.11244 0.23594 0.09361
 C906 C 0.11685 0.21560 0.07374
 C907 C 0.09862 0.21235 0.05188
 C908 C 0.07521 0.22923 0.04930
 C909 C 0.07072 0.24947 0.06951
 C910 C 0.08900 0.25260 0.09152
 C911 C 0.13286 0.24016 0.11584
 C912 C 0.12449 0.24414 0.14316
 C913 C 0.14403 0.24686 0.16413
 C914 C 0.17231 0.24587 0.15812
 C915 C 0.18055 0.24258 0.13064
 C916 C 0.16108 0.23970 0.10980
 H917 H 0.10274 0.19634 0.03703
 H918 H 0.05381 0.26379 0.06764
 H919 H 0.13696 0.24938 0.18506
 H920 H 0.20212 0.24177 0.12519
 H921 H 0.08536 0.26876 0.10633
 H922 H 0.10286 0.24446 0.14839
 H923 H 0.13453 0.20215 0.07509
 H924 H 0.16811 0.23711 0.08886
 C925 C 0.61031 0.74431 0.59530
 C926 C 0.61121 0.72230 0.57672
 C927 C 0.59290 0.72111 0.55467
 C928 C 0.57336 0.74190 0.55076
 C929 C 0.57216 0.76376 0.56946
 C930 C 0.59034 0.76483 0.59172
 C931 C 0.63091 0.74629 0.61762
 C932 C 0.62302 0.75309 0.64452
 C933 C 0.64263 0.75445 0.66552
 C934 C 0.67055 0.74941 0.65991
 C935 C 0.67838 0.74300 0.63287
 C936 C 0.65878 0.74135 0.61201
 H937 H 0.59423 0.70417 0.54036
 H938 H 0.55755 0.78024 0.56647
 H939 H 0.63594 0.75947 0.68613
 H940 H 0.69967 0.73890 0.62782
 H941 H 0.58943 0.78215 0.60559
 H942 H 0.60163 0.75687 0.64937
 H943 H 0.62622 0.70609 0.57917
 H944 H 0.66545 0.73642 0.59138
 C945 C 0.09026 0.75683 0.89020
 C946 C 0.08619 0.73932 0.91268
 C947 C 0.06379 0.74321 0.93028
 C948 C 0.04532 0.76516 0.92620
 C949 C 0.04964 0.78259 0.90354
 C950 C 0.07184 0.77855 0.88590
 C951 C 0.11296 0.75206 0.87053
 C952 C 0.10774 0.75336 0.84223
 C953 C 0.12903 0.75020 0.82339
 C954 C 0.15619 0.74581 0.83234
 C955 C 0.16138 0.74394 0.86071
 C956 C 0.13989 0.74688 0.87965
 H957 H 0.06040 0.72842 0.94650
 H958 H 0.03606 0.79977 0.89968
 H959 H 0.12417 0.75177 0.80173
 H960 H 0.18204 0.74058 0.86829
 H961 H 0.07467 0.79252 0.86885
 H962 H 0.08711 0.75691 0.83465
 H963 H 0.09980 0.72209 0.91609
 H964 H 0.14441 0.74588 0.90141
 C965 C 0.59571 0.25425 0.39232
 C966 C 0.59068 0.23310 0.41121
 C967 C 0.56760 0.23411 0.42830
 C968 C 0.54952 0.25653 0.42705
 C969 C 0.55485 0.27790 0.40858
 C970 C 0.57773 0.27679 0.39138
 C971 C 0.61859 0.25222 0.37243
 C972 C 0.61373 0.25801 0.34464
 C973 C 0.63493 0.25621 0.32554
 C974 C 0.66162 0.24873 0.33375
 C975 C 0.66657 0.24290 0.36161
 C976 C 0.64514 0.24443 0.38077
 H977 H 0.56356 0.21726 0.44218
 H978 H 0.54108 0.29530 0.40731
 H979 H 0.63037 0.26100 0.30430
 H980 H 0.68691 0.23709 0.36854
 H981 H 0.58129 0.29346 0.37715
 H982 H 0.59338 0.26370 0.33761
 H983 H 0.60405 0.21537 0.41208
 H984 H 0.64937 0.23995 0.40215
 C985 C 0.90320 0.76092 0.11290
 C986 C 0.90350 0.74709 0.08761
 C987 C 0.92637 0.74891 0.07024
 C988 C 0.94936 0.76500 0.07753
 C989 C 0.94872 0.77893 0.10289
 C990 C 0.92595 0.77706 0.12017
 C991 C 0.87983 0.75795 0.13228
 C992 C 0.88502 0.75469 0.16045
 C993 C 0.86343 0.75321 0.17917
 C994 C 0.83595 0.75494 0.17028
 C995 C 0.83065 0.75746 0.14198
 C996 C 0.85241 0.75890 0.12314
 H997 H 0.92649 0.73679 0.05161
 H998 H 0.96569 0.79185 0.10920
 H999 H 0.86839 0.75099 0.20074
 H1000 H 0.80975 0.75886 0.13443
 H1001 H 0.92613 0.78837 0.13931
 H1002 H 0.90589 0.75331 0.16808
 H1003 H 0.88646 0.73409 0.08171
 H1004 H 0.84781 0.76149 0.10153
 C1005 C 0.40335 0.25735 0.61240
 C1006 C 0.40769 0.23606 0.59345
 C1007 C 0.43076 0.23634 0.57630
 C1008 C 0.44956 0.25813 0.57751
 C1009 C 0.44497 0.27962 0.59605
 C1010 C 0.42208 0.27926 0.61331
 C1011 C 0.38033 0.25612 0.63229
 C1012 C 0.38519 0.26213 0.66004
 C1013 C 0.36388 0.26104 0.67910
 C1014 C 0.33704 0.25406 0.67091
 C1015 C 0.33209 0.24804 0.64309
 C1016 C 0.35361 0.24887 0.62397
 H1017 H 0.43421 0.21937 0.56238
 H1018 H 0.45929 0.29656 0.59732
 H1019 H 0.36850 0.26592 0.70031
 H1020 H 0.31166 0.24260 0.63614
 H1021 H 0.41910 0.29604 0.62755
 H1022 H 0.40564 0.26740 0.66709
 H1023 H 0.39375 0.21879 0.59258
 H1024 H 0.34933 0.24425 0.60264
 C1025 C 0.88965 0.24226 0.90629
 C1026 C 0.91465 0.25646 0.90815
 C1027 C 0.93155 0.25333 0.93124
 C1028 C 0.92412 0.23546 0.95280
 C1029 C 0.89896 0.22130 0.95065
 C1030 C 0.88210 0.22455 0.92771
 C1031 C 0.87081 0.24642 0.88269
 C1032 C 0.84256 0.24961 0.88743
 C1033 C 0.82427 0.25198 0.86555
 C1034 C 0.83368 0.25116 0.83823
 C1035 C 0.86210 0.24878 0.83342
 C1036 C 0.88052 0.24652 0.85549
 H1037 H 0.94999 0.26568 0.93261
 H1038 H 0.89253 0.20708 0.96647
 H1039 H 0.80259 0.25404 0.87017
 H1040 H 0.87003 0.24808 0.81265
 H1041 H 0.86310 0.21304 0.92664
 H1042 H 0.83455 0.25015 0.90817
 H1043 H 0.92070 0.27064 0.89216
 H1044 H 0.90224 0.24403 0.85130
 C1045 C 0.38665 0.74492 0.40643
 C1046 C 0.40561 0.76602 0.41152
 C1047 C 0.42254 0.76508 0.43474
 C1048 C 0.42114 0.74278 0.45292
 C1049 C 0.40243 0.72157 0.44768
 C1050 C 0.38535 0.72262 0.42465
 C1051 C 0.36730 0.74662 0.38298
 C1052 C 0.33938 0.74081 0.38706
 C1053 C 0.32087 0.74218 0.36527
 C1054 C 0.32981 0.74923 0.33872
 C1055 C 0.35780 0.75508 0.33456
 C1056 C 0.37637 0.75399 0.35657
 H1057 H 0.43658 0.78184 0.43871
 H1058 H 0.40100 0.70425 0.46151
 H1059 H 0.29950 0.73740 0.36925
 H1060 H 0.36532 0.76055 0.31436
 H1061 H 0.37105 0.70599 0.42109
 H1062 H 0.33179 0.73542 0.40726
 H1063 H 0.40675 0.78358 0.39798
 H1064 H 0.39786 0.75845 0.35291
 C1065 C 0.11447 0.09544 0.25104
 C1066 C 0.09154 0.09437 0.23354
 C1067 C 0.07382 0.07179 0.23405
 C1068 C 0.07833 0.04990 0.25244
 C1069 C 0.10138 0.05122 0.26994
 C1070 C 0.11903 0.07372 0.26939
 C1071 C 0.13436 0.11846 0.24949
 C1072 C 0.16269 0.11313 0.25061
 C1073 C 0.18166 0.13450 0.24944
 C1074 C 0.17282 0.16185 0.24714
 C1075 C 0.14443 0.16724 0.24585
 C1076 C 0.12539 0.14574 0.24693
 H1077 H 0.05723 0.07096 0.21922
 H1078 H 0.10555 0.03496 0.28452
 H1079 H 0.20332 0.12947 0.25037
 H1080 H 0.13692 0.18805 0.24400
 H1081 H 0.13633 0.07413 0.28340
 H1082 H 0.17027 0.09231 0.25210
 H1083 H 0.08786 0.11054 0.21875
 H1084 H 0.10364 0.15045 0.24616
 C1085 C 0.61208 0.59856 0.75101
 C1086 C 0.59365 0.59464 0.72911
 C1087 C 0.57644 0.57168 0.72851
 C1088 C 0.57706 0.55254 0.75004
 C1089 C 0.59510 0.55669 0.77213
 C1090 C 0.61242 0.57948 0.77264
 C1091 C 0.63191 0.62163 0.75072
 C1092 C 0.65957 0.61694 0.75749
 C1093 C 0.67862 0.63827 0.75670
 C1094 C 0.67047 0.66492 0.74932
 C1095 C 0.64271 0.66973 0.74281
 C1096 C 0.62364 0.64823 0.74333
 H1097 H 0.56299 0.56854 0.71105
 H1098 H 0.59596 0.54206 0.78884
 H1099 H 0.69981 0.63382 0.76189
 H1100 H 0.63580 0.69000 0.73695
 H1101 H 0.62625 0.58212 0.78988
 H1102 H 0.66661 0.59659 0.76292
 H1103 H 0.59322 0.60883 0.71201
 H1104 H 0.60239 0.65242 0.73815
 C1105 C 0.90715 0.11252 0.75030
 C1106 C 0.90784 0.08782 0.73554
 C1107 C 0.93098 0.07077 0.73682
 C1108 C 0.95379 0.07775 0.75335
 C1109 C 0.95285 0.10262 0.76803
 C1110 C 0.92984 0.11961 0.76665
 C1111 C 0.88345 0.13156 0.74809
 C1112 C 0.88824 0.15975 0.74534
 C1113 C 0.86642 0.17821 0.74480
 C1114 C 0.83908 0.16904 0.74701
 C1115 C 0.83415 0.14071 0.74898
 C1116 C 0.85617 0.12211 0.74944
 H1117 H 0.93137 0.05251 0.72418
 H1118 H 0.96971 0.10869 0.78125
 H1119 H 0.87114 0.19981 0.74296
 H1120 H 0.81337 0.13296 0.75069
 H1121 H 0.92975 0.13834 0.77857
 H1122 H 0.90899 0.16760 0.74369
 H1123 H 0.89084 0.08212 0.72236
 H1124 H 0.85192 0.10045 0.75163
 C1125 C 0.40458 0.61052 0.25308
 C1126 C 0.40891 0.59165 0.23173
 C1127 C 0.43244 0.57517 0.23155
 C1128 C 0.45174 0.57702 0.25294
 C1129 C 0.44724 0.59555 0.27445
 C1130 C 0.42386 0.61212 0.27456
 C1131 C 0.38099 0.62972 0.25229
 C1132 C 0.38528 0.65752 0.25808
 C1133 C 0.36351 0.67600 0.25726
 C1134 C 0.33676 0.66720 0.25073
 C1135 C 0.33234 0.63931 0.24499
 C1136 C 0.35434 0.62074 0.24558
 H1137 H 0.43580 0.56117 0.21461
 H1138 H 0.46193 0.59725 0.29110
 H1139 H 0.36773 0.69728 0.26193
 H1140 H 0.31198 0.63191 0.23990
 H1141 H 0.42090 0.62633 0.29138
 H1142 H 0.40565 0.66508 0.26292
 H1143 H 0.39455 0.59028 0.21477
 H1144 H 0.35051 0.59934 0.24113
 C1145 C 0.09270 0.88825 0.75304
 C1146 C 0.08996 0.90995 0.73430
 C1147 C 0.06791 0.92830 0.73642
 C1148 C 0.04849 0.92578 0.75777
 C1149 C 0.05150 0.90391 0.77644
 C1150 C 0.07333 0.88554 0.77418
 C1151 C 0.11506 0.86780 0.75024
 C1152 C 0.10912 0.83979 0.75286
 C1153 C 0.13005 0.82033 0.75150
 C1154 C 0.15754 0.82837 0.74765
 C1155 C 0.16348 0.85641 0.74457
 C1156 C 0.14238 0.87595 0.74569
 H1157 H 0.06550 0.94381 0.72069
 H1158 H 0.03711 0.90122 0.79321
 H1159 H 0.12466 0.79895 0.75399
 H1160 H 0.18442 0.86328 0.74153
 H1161 H 0.07511 0.86916 0.78909
 H1162 H 0.08819 0.83292 0.75601
 H1163 H 0.10433 0.91213 0.71747
 H1164 H 0.14749 0.89745 0.74371
 C1165 C 0.59704 0.39100 0.25211
 C1166 C 0.59207 0.40888 0.23003
 C1167 C 0.56937 0.42650 0.23051
 C1168 C 0.55171 0.42687 0.25330
 C1169 C 0.55704 0.40945 0.27557
 C1170 C 0.57948 0.39166 0.27499
 C1171 C 0.61952 0.37061 0.25082
 C1172 C 0.61420 0.34322 0.25773
 C1173 C 0.63509 0.32372 0.25672
 C1174 C 0.66191 0.33118 0.24902
 C1175 C 0.66730 0.35863 0.24210
 C1176 C 0.64619 0.37815 0.24276
 H1177 H 0.56528 0.43949 0.21293
 H1178 H 0.54353 0.40936 0.29325
 H1179 H 0.63026 0.30280 0.26235
 H1180 H 0.68776 0.36496 0.23607
 H1181 H 0.58301 0.37822 0.29233
 H1182 H 0.59374 0.33684 0.26370
 H1183 H 0.60515 0.40850 0.21205
 H1184 H 0.65077 0.39920 0.23744
 C1185 C 0.89162 0.90696 0.24697
 C1186 C 0.89020 0.92564 0.22503
 C1187 C 0.90790 0.94810 0.22398
 C1188 C 0.92738 0.95228 0.24481
 C1189 C 0.92913 0.93345 0.26655
 C1190 C 0.91155 0.91082 0.26750
 C1191 C 0.87138 0.88442 0.24907
 C1192 C 0.87959 0.85771 0.25605
 C1193 C 0.86019 0.83658 0.25772
 C1194 C 0.83220 0.84192 0.25277
 C1195 C 0.82409 0.86879 0.24617
 C1196 C 0.84344 0.88973 0.24426
 H1197 H 0.90617 0.96248 0.20712
 H1198 H 0.94372 0.93663 0.28307
 H1199 H 0.86711 0.81612 0.26283
 H1200 H 0.80274 0.87368 0.24213
 H1201 H 0.91284 0.89691 0.28478
 H1202 H 0.90105 0.85310 0.25977
 H1203 H 0.87519 0.92298 0.20881
 H1204 H 0.83650 0.91022 0.23924
 C1205 C 0.39232 0.40550 0.74776
 C1206 C 0.39068 0.42403 0.72572
 C1207 C 0.40811 0.44669 0.72455
 C1208 C 0.42751 0.45125 0.74536
 C1209 C 0.42952 0.43255 0.76719
 C1210 C 0.41221 0.40970 0.76827
 C1211 C 0.37224 0.38282 0.75001
 C1212 C 0.38065 0.35615 0.75696
 C1213 C 0.36139 0.33489 0.75863
 C1214 C 0.33336 0.34005 0.75372
 C1215 C 0.32506 0.36688 0.74719
 C1216 C 0.34427 0.38795 0.74527
 H1217 H 0.40619 0.46095 0.70760
 H1218 H 0.44408 0.43600 0.78368
 H1219 H 0.36845 0.31446 0.76368
 H1220 H 0.30368 0.37165 0.74320
 H1221 H 0.41366 0.39589 0.78562
 H1222 H 0.40215 0.35169 0.76063
 H1223 H 0.37570 0.42110 0.70952
 H1224 H 0.33718 0.40840 0.74029
 C1225 C 0.10824 0.23362 0.90452
 C1226 C 0.11386 0.21390 0.92473
 C1227 C 0.09666 0.21098 0.94742
 C1228 C 0.07309 0.22751 0.95044
 C1229 C 0.06720 0.24688 0.92973
 C1230 C 0.08448 0.24975 0.90695
 C1231 C 0.12815 0.23833 0.88199
 C1232 C 0.11939 0.24212 0.85473
 C1233 C 0.13864 0.24597 0.83368
 C1234 C 0.16696 0.24633 0.83961
 C1235 C 0.17551 0.24301 0.86702
 C1236 C 0.15637 0.23905 0.88788
 H1237 H 0.10177 0.19557 0.96261
 H1238 H 0.05002 0.26085 0.93180
 H1239 H 0.13137 0.24842 0.81279
 H1240 H 0.19710 0.24320 0.87246
 H1241 H 0.07993 0.26542 0.89187
 H1242 H 0.09772 0.24158 0.84965
 H1243 H 0.13181 0.20086 0.92313
 H1244 H 0.16370 0.23670 0.90877
 C1245 C 0.60559 0.74338 0.40353
 C1246 C 0.60619 0.72090 0.42156
 C1247 C 0.58905 0.72020 0.44451
 C1248 C 0.57093 0.74190 0.44984
 C1249 C 0.56986 0.76416 0.43161
 C1250 C 0.58692 0.76480 0.40849
 C1251 C 0.62570 0.74518 0.38076
 C1252 C 0.61772 0.75372 0.35435
 C1253 C 0.63713 0.75562 0.33319
 C1254 C 0.66492 0.74941 0.33823
 C1255 C 0.67276 0.74091 0.36470
 C1256 C 0.65339 0.73875 0.38564
 H1257 H 0.59020 0.70291 0.45841
 H1258 H 0.55628 0.78128 0.43565
 H1259 H 0.63047 0.76223 0.31302
 H1260 H 0.69394 0.73581 0.36929
 H1261 H 0.58630 0.78250 0.39509
 H1262 H 0.59644 0.75868 0.35005
 H1263 H 0.62020 0.70400 0.41807
 H1264 H 0.66019 0.73247 0.40588
 C1265 C 0.90108 0.77076 0.89254
 C1266 C 0.92237 0.78944 0.88730
 C1267 C 0.94495 0.79119 0.90487
 C1268 C 0.94681 0.77452 0.92844
 C1269 C 0.92491 0.75645 0.93411
 C1270 C 0.90227 0.75470 0.91644
 C1271 C 0.87879 0.76687 0.87209
 C1272 C 0.85125 0.76372 0.88022
 C1273 C 0.83052 0.76013 0.86055
 C1274 C 0.83701 0.75937 0.83239
 C1275 C 0.86464 0.76226 0.82443
 C1276 C 0.88521 0.76596 0.84400
 H1277 H 0.96107 0.80569 0.89995
 H1278 H 0.92598 0.74241 0.95130
 H1279 H 0.80944 0.75805 0.86738
 H1280 H 0.87048 0.76183 0.80298
 H1281 H 0.88635 0.73982 0.92075
 H1282 H 0.84572 0.76445 0.90175
 H1283 H 0.92175 0.80247 0.86931
 H1284 H 0.90629 0.76782 0.83711
 C1285 C 0.40307 0.25925 0.39152
 C1286 C 0.42188 0.28108 0.39130
 C1287 C 0.44437 0.28113 0.40909
 C1288 C 0.44849 0.25938 0.42747
 C1289 C 0.42947 0.23778 0.42815
 C1290 C 0.40679 0.23782 0.41045
 C1291 C 0.38070 0.25811 0.37087
 C1292 C 0.35382 0.25067 0.37833
 C1293 C 0.33302 0.24928 0.35847
 C1294 C 0.33887 0.25491 0.33075
 C1295 C 0.36580 0.26234 0.32342
 C1296 C 0.38641 0.26402 0.34325
 H1297 H 0.45891 0.29791 0.40821
 H1298 H 0.43259 0.22060 0.44189
 H1299 H 0.31248 0.24350 0.36475
 H1300 H 0.37100 0.26694 0.30229
 H1301 H 0.39277 0.22060 0.41080
 H1302 H 0.34888 0.24615 0.39953
 H1303 H 0.41935 0.29797 0.37708
 H1304 H 0.40702 0.26948 0.33688
 C1305 C 0.09733 0.75359 0.10738
 C1306 C 0.09245 0.77782 0.09255
 C1307 C 0.06861 0.78065 0.07670
 C1308 C 0.04950 0.75917 0.07518
 C1309 C 0.05456 0.73481 0.08954
 C1310 C 0.07828 0.73201 0.10545
 C1311 C 0.12104 0.75147 0.12643
 C1312 C 0.11701 0.74090 0.15291
 C1313 C 0.13862 0.73993 0.17164
 C1314 C 0.16493 0.74939 0.16439
 C1315 C 0.16925 0.75944 0.13769
 C1316 C 0.14739 0.76067 0.11891
 H1317 H 0.06484 0.79968 0.06590
 H1318 H 0.03999 0.71805 0.08857
 H1319 H 0.13460 0.73194 0.19200
 H1320 H 0.18928 0.76695 0.13158
 H1321 H 0.08162 0.71303 0.11648
 H1322 H 0.09689 0.73401 0.15942
 H1323 H 0.10658 0.79489 0.09397
 H1324 H 0.15105 0.76880 0.09854
 C1325 C 0.59864 0.25899 0.60928
 C1326 C 0.59311 0.23653 0.59208
 C1327 C 0.56929 0.23608 0.57594
 C1328 C 0.55088 0.25824 0.57648
 C1329 C 0.55659 0.28083 0.59330
 C1330 C 0.58027 0.28124 0.60950
 C1331 C 0.62241 0.25853 0.62838
 C1332 C 0.61871 0.26667 0.65576
 C1333 C 0.64044 0.26552 0.67434
 C1334 C 0.66655 0.25628 0.66606
 C1335 C 0.67051 0.24858 0.63853
 C1336 C 0.64853 0.24949 0.61987
 H1337 H 0.56502 0.21835 0.56326
 H1338 H 0.54260 0.29810 0.59395
 H1339 H 0.63668 0.27183 0.69534
 H1340 H 0.69039 0.24139 0.63158
 H1341 H 0.58414 0.29891 0.62238
 H1342 H 0.59877 0.27339 0.66300
 H1343 H 0.60671 0.21896 0.59181
 H1344 H 0.65193 0.24325 0.59881
 C1345 C 0.89047 0.23436 0.09911
 C1346 C 0.88911 0.21220 0.08072
 C1347 C 0.90636 0.21113 0.05785
 C1348 C 0.92539 0.23213 0.05295
 C1349 C 0.92723 0.25405 0.07155
 C1350 C 0.91004 0.25506 0.09457
 C1351 C 0.87036 0.23658 0.12189
 C1352 C 0.87853 0.24459 0.14841
 C1353 C 0.85917 0.24670 0.16962
 C1354 C 0.83124 0.24119 0.16456
 C1355 C 0.82320 0.23328 0.13796
 C1356 C 0.84250 0.23095 0.11695
 H1357 H 0.90458 0.19412 0.04368
 H1358 H 0.94153 0.27064 0.06786
 H1359 H 0.86602 0.25283 0.18988
 H1360 H 0.80191 0.22874 0.13330
 H1361 H 0.91131 0.27252 0.10824
 H1362 H 0.89992 0.24892 0.15278
 H1363 H 0.87443 0.19583 0.08387
 H1364 H 0.83553 0.22512 0.09665
 C1365 C 0.38828 0.73793 0.60026
 C1366 C 0.38837 0.71612 0.58139
 C1367 C 0.40559 0.71670 0.55847
 C1368 C 0.42314 0.73903 0.55399
 C1369 C 0.42356 0.76062 0.57305
 C1370 C 0.40640 0.75998 0.59612
 C1371 C 0.36806 0.73837 0.62307
 C1372 C 0.37562 0.74662 0.64970
 C1373 C 0.35607 0.74740 0.67084
 C1374 C 0.32855 0.74030 0.66560
 C1375 C 0.32114 0.73198 0.63894
 C1376 C 0.34064 0.73096 0.61800
 H1377 H 0.40493 0.69991 0.54394
 H1378 H 0.43670 0.77821 0.56970
 H1379 H 0.36241 0.75390 0.69114
 H1380 H 0.30018 0.72622 0.63417
 H1381 H 0.40651 0.77721 0.61014
 H1382 H 0.39667 0.75229 0.65418
 H1383 H 0.37485 0.69873 0.58420
 H1384 H 0.33411 0.72487 0.59763
 C1385 C 0.25989 0.10883 0.90391
 C1386 C 0.24340 0.08524 0.90494
 C1387 C 0.24544 0.06704 0.92712
 C1388 C 0.26429 0.07185 0.94863
 C1389 C 0.28116 0.09528 0.94699
 C1390 C 0.27906 0.11338 0.92495
 C1391 C 0.25657 0.12937 0.88166
 C1392 C 0.25658 0.15743 0.88804
 C1393 C 0.25451 0.17706 0.86733
 C1394 C 0.25244 0.16917 0.83963
 C1395 C 0.25187 0.14104 0.83324
 C1396 C 0.25383 0.12133 0.85408
 H1397 H 0.23122 0.05000 0.92808
 H1398 H 0.29629 0.09957 0.96276
 H1399 H 0.25480 0.19849 0.87310
 H1400 H 0.25020 0.13423 0.81214
 H1401 H 0.29244 0.13110 0.92443
 H1402 H 0.25813 0.16424 0.90916
 H1403 H 0.22816 0.08144 0.88917
 H1404 H 0.25384 0.09984 0.84859
 C1405 C 0.75480 0.61145 0.40346
 C1406 C 0.73351 0.59245 0.40762
 C1407 C 0.73426 0.57459 0.43011
 C1408 C 0.75654 0.57514 0.44847
 C1409 C 0.77810 0.59366 0.44391
 C1410 C 0.77724 0.61163 0.42164
 C1411 C 0.75311 0.63201 0.38110
 C1412 C 0.75921 0.65957 0.38662
 C1413 C 0.75782 0.67918 0.36584
 C1414 C 0.75053 0.67168 0.33891
 C1415 C 0.74432 0.64408 0.33336
 C1416 C 0.74543 0.62445 0.35433
 H1417 H 0.71720 0.56076 0.43358
 H1418 H 0.79540 0.59447 0.45791
 H1419 H 0.76272 0.70023 0.37087
 H1420 H 0.73851 0.63767 0.31287
 H1421 H 0.79405 0.62589 0.41874
 H1422 H 0.76480 0.66602 0.40716
 H1423 H 0.71584 0.59210 0.39408
 H1424 H 0.74070 0.60330 0.34955
 C1425 C 0.73979 0.09480 0.10875
 C1426 C 0.72158 0.07329 0.11458
 C1427 C 0.71958 0.05077 0.09709
 C1428 C 0.73555 0.04915 0.07300
 C1429 C 0.75361 0.07098 0.06706
 C1430 C 0.75554 0.09362 0.08462
 C1431 C 0.74295 0.11770 0.12852
 C1432 C 0.74431 0.14506 0.11961
 C1433 C 0.74606 0.16647 0.13871
 C1434 C 0.74665 0.16086 0.16706
 C1435 C 0.74603 0.13339 0.17578
 C1436 C 0.74418 0.11214 0.15678
 H1437 H 0.70511 0.03473 0.10229
 H1438 H 0.76720 0.07004 0.04948
 H1439 H 0.74663 0.18738 0.13129
 H1440 H 0.74670 0.12820 0.19739
 H1441 H 0.77009 0.10971 0.07988
 H1442 H 0.74335 0.14990 0.09792
 H1443 H 0.70882 0.07387 0.13279
 H1444 H 0.74374 0.09124 0.16423
 C1445 C 0.24171 0.59295 0.60760
 C1446 C 0.21965 0.57437 0.60791
 C1447 C 0.21956 0.55170 0.59047
 C1448 C 0.24148 0.54717 0.57236
 C1449 C 0.26341 0.56586 0.57171
 C1450 C 0.26341 0.58873 0.58904
 C1451 C 0.24260 0.61575 0.62767
 C1452 C 0.24993 0.64242 0.61962
 C1453 C 0.25042 0.66375 0.63888
 C1454 C 0.24394 0.65864 0.66656
 C1455 C 0.23693 0.63185 0.67451
 C1456 C 0.23618 0.61072 0.65529
 H1457 H 0.20251 0.53745 0.59131
 H1458 H 0.28071 0.56244 0.55813
 H1459 H 0.25602 0.68414 0.63216
 H1460 H 0.23181 0.62716 0.69564
 H1461 H 0.28079 0.60258 0.58864
 H1462 H 0.25491 0.64681 0.59840
 H1463 H 0.20255 0.57730 0.62185
 H1464 H 0.23085 0.59028 0.66212
 C1465 C 0.74220 0.90459 0.88751
 C1466 C 0.76327 0.90993 0.90654
 C1467 C 0.76181 0.93287 0.92375
 C1468 C 0.73900 0.95050 0.92257
 C1469 C 0.71776 0.94490 0.90391
 C1470 C 0.71933 0.92218 0.88656
 C1471 C 0.74454 0.88161 0.86771
 C1472 C 0.73848 0.88602 0.83988
 C1473 C 0.74063 0.86472 0.82092
 C1474 C 0.74867 0.83834 0.82934
 C1475 C 0.75473 0.83384 0.85724
 C1476 C 0.75288 0.85536 0.87622
 H1477 H 0.77863 0.93713 0.93770
 H1478 H 0.70007 0.95833 0.90260
 H1479 H 0.73575 0.86893 0.79963
 H1480 H 0.76110 0.81379 0.86433
 H1481 H 0.70270 0.91841 0.87224
 H1482 H 0.73237 0.90612 0.83268
 H1483 H 0.78127 0.89689 0.90745
 H1484 H 0.75759 0.85143 0.89761
 C1485 C 0.24640 0.40149 0.38643
 C1486 C 0.26736 0.40593 0.40581
 C1487 C 0.26647 0.42877 0.42319
 C1488 C 0.24436 0.44725 0.42178
 C1489 C 0.22320 0.44253 0.40279
 C1490 C 0.22419 0.41989 0.38530
 C1491 C 0.24821 0.37858 0.36647
 C1492 C 0.24246 0.38333 0.33862
 C1493 C 0.24415 0.36210 0.31953
 C1494 C 0.25144 0.33546 0.32781
 C1495 C 0.25718 0.33063 0.35572
 C1496 C 0.25576 0.35206 0.37485
 H1497 H 0.28323 0.43233 0.43741
 H1498 H 0.20603 0.45661 0.40132
 H1499 H 0.23956 0.36659 0.29823
 H1500 H 0.26295 0.31037 0.36274
 H1501 H 0.20763 0.41682 0.37074
 H1502 H 0.23697 0.40364 0.33151
 H1503 H 0.28487 0.39226 0.40688
 H1504 H 0.26020 0.34784 0.39624
 C1505 C 0.25665 0.88834 0.09490
 C1506 C 0.27918 0.88719 0.07686
 C1507 C 0.28009 0.90389 0.05361
 C1508 C 0.25853 0.92211 0.04793
 C1509 C 0.23608 0.92352 0.06601
 C1510 C 0.23525 0.90693 0.08946
 C1511 C 0.25493 0.86898 0.11832
 C1512 C 0.24684 0.87771 0.14465
 C1513 C 0.24557 0.85902 0.16652
 C1514 C 0.25199 0.83123 0.16227
 C1515 C 0.25980 0.82265 0.13582
 C1516 C 0.26133 0.84127 0.11420
 H1517 H 0.29754 0.90248 0.03987
 H1518 H 0.21908 0.93723 0.06175
 H1519 H 0.23937 0.86623 0.18662
 H1520 H 0.26493 0.80145 0.13174
 H1521 H 0.21751 0.90797 0.10284
 H1522 H 0.24185 0.89901 0.14836
 H1523 H 0.29605 0.87322 0.08068
 H1524 H 0.26722 0.83388 0.09407
 C1525 C 0.75597 0.39139 0.59578
 C1526 C 0.77788 0.39055 0.57697
 C1527 C 0.77770 0.40716 0.55364
 C1528 C 0.75566 0.42500 0.54867
 C1529 C 0.73383 0.42612 0.56750
 C1530 C 0.73408 0.40959 0.59100
 C1531 C 0.75532 0.37206 0.61929
 C1532 C 0.74755 0.38063 0.64576
 C1533 C 0.74701 0.36191 0.66764
 C1534 C 0.75386 0.33426 0.66325
 C1535 C 0.76151 0.32586 0.63669
 C1536 C 0.76229 0.34450 0.61507
 H1537 H 0.79470 0.40602 0.53933
 H1538 H 0.71650 0.43957 0.56381
 H1539 H 0.74092 0.36897 0.68783
 H1540 H 0.76698 0.30476 0.63252
 H1541 H 0.71677 0.41038 0.60496
 H1542 H 0.74216 0.40182 0.64957
 H1543 H 0.79513 0.37690 0.58027
 H1544 H 0.76796 0.33721 0.59483
 C1545 C 0.09967 0.11009 0.75172
 C1546 C 0.07861 0.11388 0.73235
 C1547 C 0.05558 0.09691 0.73225
 C1548 C 0.05304 0.07531 0.75126
 C1549 C 0.07442 0.07130 0.77044
 C1550 C 0.09758 0.08836 0.77051
 C1551 C 0.12268 0.12998 0.75320
 C1552 C 0.15008 0.12139 0.75662
 C1553 C 0.17151 0.14063 0.75726
 C1554 C 0.16582 0.16880 0.75475
 C1555 C 0.13829 0.17720 0.75183
 C1556 C 0.11709 0.15809 0.75105
 H1557 H 0.03976 0.10056 0.71699
 H1558 H 0.07270 0.05577 0.78624
 H1559 H 0.19245 0.13348 0.75965
 H1560 H 0.13298 0.19867 0.74998
 H1561 H 0.11329 0.08530 0.78598
 H1562 H 0.15495 0.09980 0.75830
 H1563 H 0.07984 0.13022 0.71736
 H1564 H 0.09616 0.16538 0.74895
 C1565 C 0.59906 0.61151 0.24968
 C1566 C 0.58037 0.61167 0.22763
 C1567 C 0.55754 0.59437 0.22771
 C1568 C 0.55296 0.57651 0.24979
 C1569 C 0.57180 0.57594 0.27166
 C1570 C 0.59481 0.59315 0.27150
 C1571 C 0.62184 0.63168 0.25056
 C1572 C 0.64857 0.62397 0.25841
 C1573 C 0.66978 0.64341 0.25918
 C1574 C 0.66449 0.67094 0.25247
 C1575 C 0.63765 0.67852 0.24481
 C1576 C 0.61666 0.65914 0.24379
 H1577 H 0.54317 0.59516 0.21072
 H1578 H 0.56834 0.56258 0.28908
 H1579 H 0.69021 0.63695 0.26524
 H1580 H 0.63281 0.69951 0.23945
 H1581 H 0.60870 0.59285 0.28889
 H1582 H 0.65310 0.60289 0.26366
 H1583 H 0.58329 0.62544 0.21043
 H1584 H 0.59618 0.66575 0.23806
 C1585 C 0.10944 0.90276 0.24407
 C1586 C 0.11010 0.92239 0.22294
 C1587 C 0.09391 0.94594 0.22450
 C1588 C 0.07666 0.95026 0.24712
 C1589 C 0.07556 0.93055 0.26809
 C1590 C 0.09173 0.90689 0.26651
 C1591 C 0.12856 0.87909 0.24348
 C1592 C 0.11995 0.85267 0.25116
 C1593 C 0.13863 0.83078 0.25134
 C1594 C 0.16628 0.83508 0.24419
 C1595 C 0.17466 0.86147 0.23621
 C1596 C 0.15605 0.88315 0.23584
 H1597 H 0.09494 0.96095 0.20814
 H1598 H 0.06247 0.93373 0.28579
 H1599 H 0.13158 0.81068 0.25758
 H1600 H 0.19576 0.86551 0.23039
 H1601 H 0.09109 0.89229 0.28324
 H1602 H 0.09879 0.84897 0.25697
 H1603 H 0.12332 0.91961 0.20528
 H1604 H 0.16339 0.90332 0.23017
 C1605 C 0.61159 0.40509 0.74415
 C1606 C 0.61264 0.42454 0.72287
 C1607 C 0.59571 0.44765 0.72342
 C1608 C 0.57731 0.45173 0.74520
 C1609 C 0.57597 0.43224 0.76637
 C1610 C 0.59282 0.40899 0.76575
 C1611 C 0.63114 0.38173 0.74450
 C1612 C 0.62258 0.35516 0.75168
 C1613 C 0.64149 0.33346 0.75235
 C1614 C 0.66935 0.33806 0.74623
 C1615 C 0.67774 0.36467 0.73896
 C1616 C 0.65889 0.38617 0.73806
 H1617 H 0.59707 0.46250 0.70695
 H1618 H 0.56214 0.43526 0.78353
 H1619 H 0.63438 0.31321 0.75799
 H1620 H 0.69899 0.36899 0.73394
 H1621 H 0.59184 0.39454 0.78259
 H1622 H 0.60125 0.35115 0.75658
 H1623 H 0.62672 0.42194 0.70584
 H1624 H 0.66618 0.40646 0.73280
 C1625 C 0.89203 0.09794 0.24666
 C1626 C 0.89414 0.08098 0.22346
 C1627 C 0.91207 0.05868 0.22345
 C1628 C 0.92819 0.05289 0.24663
 C1629 C 0.92642 0.06998 0.26975
 C1630 C 0.90866 0.09255 0.26966
 C1631 C 0.87142 0.12024 0.24727
 C1632 C 0.87843 0.14658 0.25652
 C1633 C 0.85872 0.16747 0.25695
 C1634 C 0.83155 0.16222 0.24859
 C1635 C 0.82460 0.13578 0.23951
 C1636 C 0.84435 0.11508 0.23872
 H1637 H 0.91302 0.04555 0.20553
 H1638 H 0.93832 0.06548 0.28801
 H1639 H 0.86465 0.18763 0.26410
 H1640 H 0.80389 0.13111 0.23279
 H1641 H 0.90714 0.10516 0.28789
 H1642 H 0.89923 0.15105 0.26311
 H1643 H 0.88167 0.08484 0.20543
 H1644 H 0.83837 0.09486 0.23177
 C1645 C 0.38947 0.59627 0.74650
 C1646 C 0.39068 0.57853 0.72382
 C1647 C 0.40909 0.55660 0.72354
 C1648 C 0.42665 0.55192 0.74593
 C1649 C 0.42582 0.56983 0.76849
 C1650 C 0.40754 0.59201 0.76866
 C1651 C 0.36849 0.61829 0.74746
 C1652 C 0.37541 0.64496 0.75583
 C1653 C 0.35543 0.66561 0.75642
 C1654 C 0.32806 0.65987 0.74906
 C1655 C 0.32118 0.63309 0.74094
 C1656 C 0.34118 0.61260 0.74003
 H1657 H 0.40930 0.54288 0.70605
 H1658 H 0.43884 0.56623 0.78618
 H1659 H 0.36137 0.68602 0.76282
 H1660 H 0.30034 0.62798 0.73503
 H1661 H 0.40680 0.60522 0.78651
 H1662 H 0.39636 0.64988 0.76154
 H1663 H 0.37716 0.58150 0.70638
 H1664 H 0.33522 0.59215 0.73379
 C1665 C 0.90220 0.89558 0.76249
 C1666 C 0.90669 0.91522 0.74189
 C1667 C 0.92992 0.93205 0.74279
 C1668 C 0.94883 0.92978 0.76449
 C1669 C 0.94392 0.91078 0.78552
 C1670 C 0.92079 0.89387 0.78457
 C1671 C 0.87950 0.87550 0.75992
 C1672 C 0.88461 0.84767 0.76501
 C1673 C 0.86386 0.82831 0.76173
 C1674 C 0.83734 0.83626 0.75337
 C1675 C 0.83205 0.86416 0.74851
 C1676 C 0.85303 0.88360 0.75158
 H1677 H 0.93362 0.94628 0.72613
 H1678 H 0.95832 0.90867 0.80237
 H1679 H 0.86864 0.80703 0.76588
 H1680 H 0.81182 0.87093 0.74214
 H1681 H 0.91767 0.87910 0.80087
 H1682 H 0.90490 0.84075 0.77106
 H1683 H 0.89291 0.91672 0.72448
 H1684 H 0.84853 0.90497 0.74763
 C1685 C 0.40432 0.39340 0.25534
 C1686 C 0.40866 0.41222 0.23394
 C1687 C 0.43177 0.42925 0.23414
 C1688 C 0.45066 0.42800 0.25593
 C1689 C 0.44599 0.40971 0.27762
 C1690 C 0.42301 0.39260 0.27737
 C1691 C 0.38154 0.37330 0.25386
 C1692 C 0.38668 0.34569 0.26000
 C1693 C 0.36579 0.32630 0.25796
 C1694 C 0.33912 0.33400 0.24986
 C1695 C 0.33382 0.36171 0.24397
 C1696 C 0.35493 0.38117 0.24576
 H1697 H 0.43528 0.44299 0.21702
 H1698 H 0.46039 0.40842 0.29456
 H1699 H 0.37062 0.30518 0.26282
 H1700 H 0.31349 0.36827 0.23771
 H1701 H 0.42002 0.37847 0.29424
 H1702 H 0.40706 0.33895 0.26591
 H1703 H 0.39477 0.41300 0.21656
 H1704 H 0.35043 0.40238 0.24103
   
