data_POSCAR
  _audit_creation_date              2014-09-24
  _audit_creation_method            'ToBaCCo'
  _symmetry_space_group_name_H-M    'P1'
  _symmetry_Int_Tables_number       1
  _symmetry_cell_setting            triclinic
  loop_
  _symmetry_equiv_pos_as_xyz
 x,y,z
_cell_length_a 57.1547
_cell_length_b 56.9643
_cell_length_c 56.2836
_cell_angle_alpha 89.822400
_cell_angle_beta 90.004300
_cell_angle_gamma 92.014900
loop_
  _atom_site_label
  _atom_site_type_symbol
  _atom_site_fract_x
  _atom_site_fract_y
  _atom_site_fract_z
C1 C 0.39047 0.01980 0.27210
 C2 C 0.37376 0.03985 0.26751
 C3 C 0.35944 0.03638 0.24857
 C4 C 0.36274 0.01296 0.23573
 C5 C 0.37399 -0.00197 0.27435
 C6 C 0.35976 -0.00605 0.25523
 C7 C 0.40332 0.01657 0.24854
 C8 C 0.38902 0.01299 0.22940
 H9 H 0.37157 0.05461 0.27921
 H10 H 0.35095 0.01070 0.22022
 H11 H 0.37352 -0.01293 0.29009
 H12 H 0.42222 0.01610 0.24752
 C13 C 0.11463 -0.01165 0.77161
 C14 C 0.13311 -0.02982 0.76631
 C15 C 0.14621 -0.02495 0.74687
 C16 C 0.13937 -0.00265 0.73370
 C17 C 0.12817 0.01212 0.77211
 C18 C 0.14141 0.01719 0.75243
 C19 C 0.10064 -0.01121 0.74993
 C20 C 0.11417 -0.00603 0.72880
 H21 H 0.13510 -0.04581 0.77649
 H22 H 0.15068 -0.00036 0.71792
 H23 H 0.12602 0.02416 0.78666
 H24 H 0.08190 -0.01447 0.74972
 C25 C 0.60948 0.48977 0.27554
 C26 C 0.62826 0.47124 0.27351
 C27 C 0.64264 0.47411 0.25454
 C28 C 0.63774 0.49578 0.23942
 C29 C 0.62394 0.51309 0.27593
 C30 C 0.63887 0.51661 0.25712
 C31 C 0.59706 0.48962 0.25138
 C32 C 0.61170 0.49292 0.23245
 H33 H 0.63101 0.45759 0.28652
 H34 H 0.64975 0.49714 0.22404
 H35 H 0.62205 0.52565 0.29002
 H36 H 0.57819 0.48835 0.24962
 C37 C 0.88936 0.50494 0.77522
 C38 C 0.87267 0.52495 0.77027
 C39 C 0.85932 0.52196 0.75057
 C40 C 0.86331 0.49875 0.73747
 C41 C 0.87294 0.48299 0.77628
 C42 C 0.85950 0.47921 0.75644
 C43 C 0.90327 0.50228 0.75216
 C44 C 0.88986 0.49898 0.73234
 H45 H 0.86978 0.53933 0.78229
 H46 H 0.85233 0.49691 0.72134
 H47 H 0.87190 0.47179 0.79181
 H48 H 0.92218 0.50176 0.75197
 C49 C 0.27534 0.39133 0.99718
 C50 C 0.27224 0.37555 1.01918
 C51 C 0.25127 0.36357 1.02033
 C52 C 0.23483 0.36864 0.99944
 C53 C 0.27020 0.37500 0.97612
 C54 C 0.24916 0.36303 0.97720
 C55 C 0.25422 0.40732 0.99841
 C56 C 0.23309 0.39549 0.99938
 H57 H 0.28405 0.37588 1.03418
 H58 H 0.21766 0.35897 1.00058
 H59 H 0.28221 0.37344 0.96136
 H60 H 0.25590 0.42629 0.99946
 C61 C 0.77704 0.10638 0.99824
 C62 C 0.77467 0.12139 0.97561
 C63 C 0.75463 0.13377 0.97474
 C64 C 0.73878 0.13022 0.99687
 C65 C 0.77501 0.12432 1.01830
 C66 C 0.75524 0.13694 1.01768
 C67 C 0.75564 0.09204 0.99924
 C68 C 0.73450 0.10476 0.99847
 H69 H 0.78728 0.12229 0.96133
 H70 H 0.72277 0.14069 0.99616
 H71 H 0.78923 0.12840 1.03053
 H72 H 0.75580 0.07309 1.00092
 C73 C 0.27740 0.60682 0.49429
 C74 C 0.27488 0.62198 0.47175
 C75 C 0.25674 0.63693 0.47242
 C76 C 0.24226 0.63502 0.49558
 C77 C 0.27851 0.62450 0.51460
 C78 C 0.26049 0.63939 0.51535
 C79 C 0.25327 0.59413 0.49689
 C80 C 0.23491 0.60875 0.49769
 H81 H 0.28557 0.62018 0.45605
 H82 H 0.22740 0.64704 0.49635
 H83 H 0.29302 0.62562 0.52699
 H84 H 0.25075 0.57523 0.49584
 C85 C 0.76732 0.88831 0.50321
 C86 C 0.76334 0.87184 0.52455
 C87 C 0.74218 0.86016 0.52468
 C88 C 0.72634 0.86634 0.50360
 C89 C 0.76244 0.87279 0.48148
 C90 C 0.74118 0.86123 0.48160
 C91 C 0.74647 0.90469 0.50442
 C92 C 0.72510 0.89325 0.50437
 H93 H 0.77507 0.87093 0.53956
 H94 H 0.70897 0.85696 0.50390
 H95 H 0.77487 0.87128 0.46708
 H96 H 0.74847 0.92359 0.50604
 C97 C 0.00025 0.25993 0.39418
 C98 C 0.01842 0.26035 0.37416
 C99 C 0.01599 0.24225 0.35834
 C100 C -0.00446 0.22501 0.36461
 C101 C -0.02226 0.25847 0.38223
 C102 C -0.02499 0.23941 0.36591
 C103 C 0.00252 0.23564 0.40588
 C104 C 0.00035 0.21747 0.39030
 H105 H 0.03274 0.27328 0.37370
 H106 H -0.00647 0.21008 0.35219
 H107 H -0.03650 0.26966 0.38684
 H108 H 0.00529 0.23264 0.42460
 C109 C 0.00038 0.76389 0.11159
 C110 C -0.02169 0.76526 0.12670
 C111 C -0.02476 0.74743 0.14266
 C112 C -0.00520 0.72976 0.14232
 C113 C 0.02036 0.76232 0.12955
 C114 C 0.01731 0.74466 0.14565
 C115 C -0.00113 0.73935 0.10038
 C116 C -0.00417 0.72159 0.11648
 H117 H -0.03370 0.77945 0.12493
 H118 H -0.00727 0.71522 0.15540
 H119 H 0.03622 0.77330 0.12875
 H120 H 0.00089 0.73604 0.08161
 C121 C 0.49863 0.27069 0.60845
 C122 C 0.47741 0.27233 0.62473
 C123 C 0.47524 0.25493 0.64124
 C124 C 0.49499 0.23750 0.64050
 C125 C 0.51959 0.26973 0.62527
 C126 C 0.51767 0.25257 0.64207
 C127 C 0.49654 0.24584 0.59802
 C128 C 0.49463 0.22853 0.61480
 H129 H 0.46475 0.28590 0.62268
 H130 H 0.49368 0.22330 0.65404
 H131 H 0.53510 0.28108 0.62335
 H132 H 0.49693 0.24193 0.57928
 C133 C 0.49639 0.77484 0.89850
 C134 C 0.51640 0.77898 0.88082
 C135 C 0.51830 0.76192 0.86423
 C136 C 0.49996 0.74164 0.86715
 C137 C 0.47451 0.77091 0.88312
 C138 C 0.47638 0.75368 0.86672
 C139 C 0.50049 0.75186 0.90882
 C140 C 0.50236 0.73326 0.89165
 H141 H 0.52870 0.79383 0.88218
 H142 H 0.50073 0.72832 0.85295
 H143 H 0.45858 0.78040 0.88561
 H144 H 0.50281 0.74906 0.92756
 C145 C -0.23238 0.64155 0.98179
 C146 C -0.21253 0.62505 0.98765
 C147 C -0.21680 0.61095 1.00671
 C148 C -0.24070 0.61440 1.01852
 C149 C -0.25387 0.62484 0.97908
 C150 C -0.25882 0.61105 0.99837
 C151 C -0.23666 0.65490 1.00488
 C152 C -0.24103 0.64090 1.02422
 H153 H -0.19727 0.62274 0.97670
 H154 H -0.24359 0.60280 1.03415
 H155 H -0.26419 0.62412 0.96296
 H156 H -0.23726 0.67387 1.00541
 C157 C -0.25687 0.35792 0.47258
 C158 C -0.27465 0.37752 0.47289
 C159 C -0.27301 0.39179 0.49205
 C160 C -0.25299 0.38584 0.50902
 C161 C -0.23313 0.37148 0.47404
 C162 C -0.23084 0.38607 0.49315
 C163 C -0.25951 0.34605 0.49538
 C164 C -0.25726 0.36110 0.51590
 H165 H -0.28733 0.38025 0.45894
 H166 H -0.25177 0.39904 0.52326
 H167 H -0.21923 0.36954 0.46128
 H168 H -0.26139 0.32714 0.49623
 C169 C 0.24410 -0.14037 -0.02668
 C170 C 0.22590 -0.12126 -0.02906
 C171 C 0.22646 -0.10520 -0.01135
 C172 C 0.24590 -0.10899 0.00694
 C173 C 0.26750 -0.12612 -0.02547
 C174 C 0.26861 -0.10968 -0.00793
 C175 C 0.24066 -0.15006 -0.00287
 C176 C 0.24176 -0.13299 0.01608
 H177 H 0.21323 -0.12071 -0.04335
 H178 H 0.24620 -0.09451 0.01991
 H179 H 0.28197 -0.12850 -0.03743
 H180 H 0.23923 -0.16882 0.00003
 C181 C 0.25672 1.14155 0.47720
 C182 C 0.27699 1.12502 0.48142
 C183 C 0.27425 1.11079 0.50061
 C184 C 0.25106 1.11390 0.51402
 C185 C 0.23516 1.12475 0.47564
 C186 C 0.23166 1.11049 0.49497
 C187 C 0.25384 1.15454 0.50072
 C188 C 0.25086 1.14034 0.52012
 H189 H 0.29138 1.12292 0.46922
 H190 H 0.24934 1.10219 0.52969
 H191 H 0.22409 1.12393 0.46006
 H192 H 0.25297 1.17348 0.50151
 C193 C 0.13914 0.52880 0.25127
 C194 C 0.11944 0.52566 0.23294
 C195 C 0.10745 0.50461 0.23425
 C196 C 0.11618 0.48840 0.25406
 C197 C 0.12739 0.52402 0.27528
 C198 C 0.11556 0.50301 0.27681
 C199 C 0.15433 0.50741 0.24707
 C200 C 0.14240 0.48631 0.24883
 H201 H 0.11777 0.53690 0.21758
 H202 H 0.10634 0.47128 0.25540
 H203 H 0.12967 0.53562 0.29040
 H204 H 0.17291 0.50888 0.24327
 C205 C -0.13678 1.02675 0.24754
 C206 C -0.11995 1.02416 0.26867
 C207 C -0.11031 1.00258 0.27023
 C208 C -0.11824 0.98558 0.25006
 C209 C -0.12190 1.02054 0.22586
 C210 C -0.11236 0.99908 0.22704
 C211 C -0.15369 1.00723 0.25033
 C212 C -0.14379 0.98448 0.25136
 H213 H -0.11727 1.03713 0.28242
 H214 H -0.10985 0.96833 0.25108
 H215 H -0.12020 1.03164 0.21024
 H216 H -0.17239 1.00972 0.25020
 C217 C 0.35809 0.52591 -0.24649
 C218 C 0.37361 0.52362 -0.22432
 C219 C 0.38971 0.50661 -0.22579
 C220 C 0.38834 0.49264 -0.24920
 C221 C 0.37530 0.52868 -0.26709
 C222 C 0.39134 0.51169 -0.26854
 C223 C 0.34683 0.50118 -0.24954
 C224 C 0.36253 0.48377 -0.25097
 H225 H 0.37137 0.53378 -0.20831
 H226 H 0.40120 0.47854 -0.25050
 H227 H 0.37511 0.54350 -0.27921
 H228 H 0.32819 0.49745 -0.24791
 C229 C 0.63944 0.01024 -0.25021
 C230 C 0.62526 0.00865 -0.27331
 C231 C 0.60877 -0.00885 -0.27377
 C232 C 0.60818 -0.02430 -0.25148
 C233 C 0.62112 0.01089 -0.23035
 C234 C 0.60495 -0.00727 -0.23074
 C235 C 0.64986 -0.01447 -0.24797
 C236 C 0.63339 -0.03258 -0.24882
 H237 H 0.62924 0.01916 -0.28897
 H238 H 0.59460 -0.03870 -0.25226
 H239 H 0.62215 0.02360 -0.21607
 H240 H 0.66845 -0.01747 -0.24792
 C241 C 0.01567 0.24958 0.86249
 C242 C 0.01595 0.26790 0.88240
 C243 C -0.00199 0.26501 0.89829
 C244 C -0.01841 0.24377 0.89281
 C245 C 0.01525 0.22578 0.87531
 C246 C -0.00232 0.22300 0.89133
 C247 C -0.00750 0.25124 0.85207
 C248 C -0.02659 0.24746 0.86850
 H249 H 0.02793 0.28305 0.88236
 H250 H -0.03195 0.24054 0.90651
 H251 H 0.02814 0.21258 0.87241
 H252 H -0.01020 0.25975 0.83525
 C253 C 0.51717 0.25841 0.14959
 C254 C 0.51715 0.23713 0.13303
 C255 C 0.49910 0.23594 0.11732
 C256 C 0.48245 0.25623 0.11949
 C257 C 0.51615 0.27966 0.13292
 C258 C 0.49804 0.27849 0.11730
 C259 C 0.49287 0.25683 0.16141
 C260 C 0.47482 0.25555 0.14555
 H261 H 0.53038 0.22400 0.13396
 H262 H 0.46770 0.25555 0.10665
 H263 H 0.52809 0.29481 0.13419
 H264 H 0.48984 0.25569 0.18031
 C265 C 0.01557 0.74445 0.65109
 C266 C 0.01700 0.72262 0.63545
 C267 C -0.00057 0.71985 0.61932
 C268 C -0.01825 0.73942 0.62017
 C269 C 0.01399 0.76491 0.63353
 C270 C -0.00361 0.76230 0.61743
 C271 C -0.00897 0.74232 0.66234
 C272 C -0.02651 0.73952 0.64604
 H273 H 0.03114 0.71054 0.63705
 H274 H -0.03274 0.73755 0.60711
 H275 H 0.02500 0.78075 0.63469
 H276 H -0.01253 0.74284 0.68116
 C277 C 0.51359 0.75737 0.35822
 C278 C 0.51376 0.77417 0.37938
 C279 C 0.49520 0.77125 0.39457
 C280 C 0.47783 0.75153 0.38669
 C281 C 0.51107 0.73280 0.36918
 C282 C 0.49260 0.72983 0.38412
 C283 C 0.48987 0.76088 0.34616
 C284 C 0.47128 0.75795 0.36112
 H285 H 0.52666 0.78846 0.38062
 H286 H 0.46257 0.74824 0.39851
 H287 H 0.52285 0.71883 0.36526
 H288 H 0.48752 0.76487 0.32757
 Zr289 Zr 0.02113 -0.01607 1.03568
 O290 O 0.04224 0.00303 1.06035
 O291 O 0.02032 -0.04980 1.05052
 O292 O 0.00469 -0.01436 1.06927
 O293 O 0.06604 -0.02360 0.99555
 O294 O -0.03267 -0.00436 1.06045
 O295 O 0.05638 -0.02650 1.03478
 O296 O -0.00328 -0.07084 1.02508
 O297 O -0.01341 -0.02796 1.02922
 O298 O 0.02189 -0.03677 1.00510
 O299 O 0.00164 0.01439 1.03189
 O300 O 0.03608 0.00588 1.00904
 Zr301 Zr -0.01838 0.00354 0.96609
 Zr302 Zr -0.03242 0.00226 1.02362
 Zr303 Zr 0.03496 -0.01484 0.97826
 Zr304 Zr -0.01253 -0.04740 0.99796
 O305 O 0.06305 0.00730 0.96620
 O306 O -0.04413 -0.06185 1.01245
 O307 O 0.00100 -0.02712 0.96957
 O308 O -0.03320 -0.01820 0.99278
 O309 O -0.01952 0.02445 0.99658
 O310 O 0.01606 0.01523 0.97288
 C311 C 0.00960 -0.06884 1.04378
 C312 C 0.07100 -0.02801 1.01738
 C313 C -0.01653 -0.01003 1.07515
 O314 O -0.06253 -0.01889 1.03186
 O315 O -0.06167 0.01626 1.00665
 O316 O -0.05225 0.01716 0.96729
 C317 C -0.06617 0.02105 0.98477
 O318 O 0.03818 0.04732 1.03089
 Zr319 Zr 0.01498 0.03498 1.00380
 O320 O -0.01718 0.03698 0.95080
 O321 O -0.04138 0.03322 1.04167
 O322 O -0.00224 0.06183 1.02220
 O323 O 0.04521 0.05148 0.98843
 O324 O 0.00331 0.05898 0.97808
 C325 C -0.00829 0.05649 0.95855
 O326 O -0.04110 -0.01527 0.94268
 O327 O 0.04602 -0.04692 0.96393
 O328 O -0.00300 -0.00023 0.93220
 O329 O 0.03307 -0.01370 0.94103
 O330 O 0.00413 -0.07583 0.98157
 O331 O -0.03288 -0.06033 0.96890
 C332 C 0.01731 -0.00743 0.92617
 H333 H 0.03176 -0.05062 1.00682
 H334 H -0.04940 -0.02335 0.98857
 H335 H 0.02312 0.02462 0.95973
 H336 H 0.00197 0.02373 1.04670
 H337 H -0.04307 -0.07918 1.01220
 H338 H -0.07267 -0.00926 1.04192
 H339 H -0.05698 0.03005 1.04892
 H340 H 0.00486 0.07708 1.01689
 H341 H -0.00400 -0.09052 0.98704
 H342 H 0.06125 -0.04351 0.95601
 H343 H 0.07322 -0.00254 0.95638
 H344 H 0.04334 0.06868 0.98943
 H345 H -0.03833 -0.07670 0.97222
 H346 H -0.04586 -0.00409 0.93017
 H347 H 0.04708 -0.00824 1.07274
 H348 H 0.03994 0.06465 1.02993
 Zr349 Zr 0.52624 0.49057 0.54215
 O350 O 0.54801 0.50344 0.56996
 O351 O 0.52074 0.45574 0.55208
 O352 O 0.50816 0.48800 0.57489
 O353 O 0.57095 0.48226 0.50191
 O354 O 0.47483 0.50808 0.56826
 O355 O 0.55980 0.47592 0.54039
 O356 O 0.49443 0.44129 0.52487
 O357 O 0.49079 0.48482 0.53382
 O358 O 0.52520 0.47383 0.50914
 O359 O 0.51144 0.52381 0.54266
 O360 O 0.54506 0.51323 0.51887
 Zr361 Zr 0.49253 0.52512 0.47587
 Zr362 Zr 0.47645 0.51810 0.53226
 Zr363 Zr 0.54187 0.49706 0.48546
 Zr364 Zr 0.49003 0.46927 0.50043
 O365 O 0.57279 0.51634 0.47587
 O366 O 0.45624 0.45782 0.51210
 O367 O 0.50687 0.49138 0.47517
 O368 O 0.47415 0.50192 0.49897
 O369 O 0.49336 0.54183 0.50892
 O370 O 0.52791 0.53028 0.48445
 C371 C 0.50701 0.43949 0.54380
 C372 C 0.57466 0.47477 0.52315
 C373 C 0.48838 0.49604 0.58146
 O374 O 0.44420 0.49976 0.53865
 O375 O 0.44863 0.53609 0.51656
 O376 O 0.46030 0.54200 0.47820
 C377 C 0.44558 0.54404 0.49536
 O378 O 0.55200 0.55017 0.54716
 Zr379 Zr 0.52875 0.54565 0.51793
 O380 O 0.49848 0.56062 0.46656
 O381 O 0.47109 0.54848 0.55279
 O382 O 0.51499 0.57256 0.53918
 O383 O 0.56187 0.55893 0.50604
 O384 O 0.52335 0.57437 0.49545
 C385 C 0.51136 0.57685 0.47637
 O386 O 0.46896 0.51332 0.44906
 O387 O 0.54873 0.46540 0.46757
 O388 O 0.50872 0.52450 0.44220
 O389 O 0.54074 0.50239 0.44841
 O390 O 0.50340 0.44106 0.48070
 O391 O 0.46925 0.46304 0.46962
 C392 C 0.52699 0.51399 0.43496
 H393 H 0.53297 0.45857 0.50925
 H394 H 0.45767 0.49952 0.49384
 H395 H 0.53666 0.54022 0.47278
 H396 H 0.51256 0.53091 0.55867
 H397 H 0.45486 0.44061 0.50959
 H398 H 0.43517 0.50949 0.54969
 H399 H 0.45528 0.54651 0.55988
 H400 H 0.52479 0.58701 0.53641
 H401 H 0.49350 0.42688 0.48438
 H402 H 0.56444 0.46750 0.46026
 H403 H 0.58169 0.50618 0.46512
 H404 H 0.56306 0.57584 0.51012
 H405 H 0.46205 0.44699 0.47038
 H406 H 0.46637 0.52684 0.43832
 H407 H 0.55089 0.48997 0.58065
 H408 H 0.55605 0.56708 0.54920
 Zr409 Zr 0.48301 1.02058 0.53178
 O410 O 0.46074 1.01103 0.56056
 O411 O 0.49090 1.05626 0.53900
 O412 O 0.50051 1.02197 0.56492
 O413 O 0.43632 1.02595 0.49287
 O414 O 0.53406 1.00280 0.55753
 O415 O 0.45020 1.03644 0.52950
 O416 O 0.51532 1.06736 0.50871
 O417 O 0.51816 1.02533 0.52175
 O418 O 0.48290 1.03452 0.49739
 O419 O 0.49716 0.98697 0.53377
 O420 O 0.46319 0.99605 0.51115
 Zr421 Zr 0.51427 0.98111 0.46695
 Zr422 Zr 0.53183 0.99180 0.52220
 Zr423 Zr 0.46490 1.00967 0.47653
 Zr424 Zr 0.51771 1.03790 0.48687
 O425 O 0.43395 0.98930 0.46981
 O426 O 0.55219 1.04997 0.49554
 O427 O 0.49951 1.01448 0.46434
 O428 O 0.53355 1.00547 0.48770
 O429 O 0.51425 0.96683 0.50118
 O430 O 0.47907 0.97628 0.47684
 C431 C 0.50430 1.07141 0.52806
 C432 C 0.43430 1.03608 0.51321
 C433 C 0.52013 1.01346 0.57141
 O434 O 0.56407 1.01069 0.52661
 O435 O 0.55876 0.97232 0.50751
 O436 O 0.54725 0.96516 0.46939
 C437 C 0.56191 0.96356 0.48677
 O438 O 0.45519 0.96120 0.54019
 Zr439 Zr 0.47919 0.96329 0.51135
 O440 O 0.51012 0.94497 0.46187
 O441 O 0.53793 0.96258 0.54439
 O442 O 0.49163 0.93875 0.53638
 O443 O 0.44698 0.94835 0.49890
 O444 O 0.48774 0.93223 0.49326
 C445 C 0.50045 0.92876 0.47479
 O446 O 0.53637 0.99092 0.43812
 O447 O 0.45664 1.03986 0.45660
 O448 O 0.49678 0.97971 0.43387
 O449 O 0.46512 1.00239 0.43998
 O450 O 0.50383 1.06504 0.46580
 O451 O 0.53652 1.04097 0.45436
 C452 C 0.47849 0.99031 0.42668
 H453 H 0.47544 1.04992 0.49649
 H454 H 0.54989 1.00746 0.48200
 H455 H 0.47044 0.96528 0.46612
 H456 H 0.49627 0.98064 0.55015
 H457 H 0.55372 1.06676 0.49091
 H458 H 0.57349 1.00156 0.53791
 H459 H 0.55397 0.96485 0.55088
 H460 H 0.48173 0.92418 0.53497
 H461 H 0.51452 1.07903 0.46735
 H462 H 0.44077 1.03691 0.44990
 H463 H 0.42456 0.99845 0.45851
 H464 H 0.44644 0.93157 0.50365
 H465 H 0.54418 1.05680 0.45322
 H466 H 0.53888 0.97654 0.42866
 H467 H 0.45861 1.02535 0.57021
 H468 H 0.44930 0.94475 0.54217
 Zr469 Zr -0.01183 0.51490 1.03438
 O470 O -0.03351 0.50578 1.06374
 O471 O -0.00395 0.55061 1.04058
 O472 O 0.00652 0.51809 1.06670
 O473 O -0.05886 0.52046 0.99628
 O474 O 0.03915 0.49691 1.06079
 O475 O -0.04420 0.53126 1.03251
 O476 O 0.02051 0.56109 1.01011
 O477 O 0.02318 0.51921 1.02396
 O478 O -0.01233 0.52819 0.99978
 O479 O 0.00202 0.48131 1.03730
 O480 O -0.03230 0.49023 1.01471
 Zr481 Zr 0.01795 0.47398 0.97024
 Zr482 Zr 0.03657 0.48558 1.02527
 Zr483 Zr -0.03097 0.50311 0.97981
 Zr484 Zr 0.02235 0.53109 0.98884
 O485 O -0.06231 0.48299 0.97435
 O486 O 0.05703 0.54306 0.99676
 O487 O 0.00351 0.50742 0.96702
 O488 O 0.03779 0.49851 0.99034
 O489 O 0.01840 0.46046 1.00484
 O490 O -0.01708 0.46960 0.98079
 C491 C 0.00948 0.56549 1.02938
 C492 C -0.06024 0.53105 1.01645
 C493 C 0.02579 0.50934 1.07375
 O494 O 0.06886 0.50446 1.02918
 O495 O 0.06315 0.46586 1.01020
 O496 O 0.05091 0.45815 0.97236
 C497 C 0.06592 0.45692 0.98946
 O498 O -0.04023 0.45634 1.04468
 Zr499 Zr -0.01650 0.45739 1.01559
 O500 O 0.01387 0.43771 0.96628
 O501 O 0.04282 0.45650 1.04759
 O502 O -0.00395 0.43334 1.04105
 O503 O -0.04891 0.44216 1.00400
 O504 O -0.00839 0.42594 0.99813
 C505 C 0.00415 0.42194 0.97969
 O506 O 0.03943 0.48308 0.94073
 O507 O -0.03913 0.53281 0.95909
 O508 O -0.00039 0.47163 0.93750
 O509 O -0.03179 0.49466 0.94354
 O510 O 0.00855 0.55799 0.96740
 O511 O 0.04078 0.53307 0.95605
 C512 C -0.01888 0.48199 0.93035
 H513 H -0.01962 0.54366 0.99863
 H514 H 0.05404 0.50031 0.98436
 H515 H -0.02597 0.45839 0.97051
 H516 H 0.00122 0.47551 1.05389
 H517 H 0.05862 0.55973 0.99171
 H518 H 0.07841 0.49533 1.04036
 H519 H 0.05888 0.45887 1.05400
 H520 H -0.01399 0.41883 1.04010
 H521 H 0.01949 0.57183 0.96846
 H522 H -0.05522 0.52997 0.95290
 H523 H -0.07192 0.49205 0.96318
 H524 H -0.04947 0.42556 1.00936
 H525 H 0.04853 0.54881 0.95437
 H526 H 0.04165 0.46849 0.93152
 H527 H -0.03540 0.52023 1.07325
 H528 H -0.04602 0.43996 1.04739
 Zr529 Zr -0.01498 0.47938 0.46971
 O530 O -0.03612 0.49575 0.44406
 O531 O -0.01335 0.44528 0.45622
 O532 O 0.00135 0.48070 0.43611
 O533 O -0.05988 0.46850 0.51015
 O534 O 0.03818 0.49512 0.44435
 O535 O -0.05009 0.46650 0.47097
 O536 O 0.01117 0.42722 0.48187
 O537 O 0.01974 0.47093 0.47658
 O538 O -0.01544 0.45949 0.50097
 O539 O 0.00378 0.51173 0.47209
 O540 O -0.03042 0.50078 0.49542
 Zr541 Zr 0.02417 0.50502 0.53819
 Zr542 Zr 0.03803 0.50307 0.48081
 Zr543 Zr -0.02895 0.48112 0.52696
 Zr544 Zr 0.01921 0.45234 0.50849
 O545 O -0.05779 0.50082 0.53775
 O546 O 0.05131 0.44034 0.49507
 O547 O 0.00536 0.47245 0.53609
 O548 O 0.03924 0.48363 0.51240
 O549 O 0.02478 0.52504 0.50693
 O550 O -0.01057 0.51310 0.53090
 C551 C -0.00171 0.42758 0.46308
 C552 C -0.06476 0.46380 0.48829
 C553 C 0.02240 0.48685 0.43001
 O554 O 0.06855 0.48444 0.47329
 O555 O 0.06713 0.52030 0.49670
 O556 O 0.05851 0.52077 0.53625
 C557 C 0.07216 0.52555 0.51837
 O558 O -0.03316 0.54125 0.47158
 Zr559 Zr -0.00998 0.53201 0.49934
 O560 O 0.02273 0.53911 0.55143
 O561 O 0.04624 0.53414 0.46138
 O562 O 0.00702 0.55981 0.48019
 O563 O -0.04085 0.54603 0.51362
 O564 O 0.00023 0.55794 0.52445
 C565 C 0.01251 0.55732 0.54364
 O566 O 0.04658 0.48919 0.56300
 O567 O -0.03859 0.44854 0.54298
 O568 O 0.00797 0.50208 0.57205
 O569 O -0.02768 0.48455 0.56410
 O570 O 0.00289 0.42288 0.52564
 O571 O 0.03945 0.44233 0.53829
 C572 C -0.01238 0.49364 0.57846
 H573 H -0.02499 0.44471 0.49965
 H574 H 0.05553 0.48009 0.51675
 H575 H -0.01791 0.52241 0.54352
 H576 H 0.00325 0.52045 0.45686
 H577 H 0.05070 0.42296 0.49617
 H578 H 0.07831 0.49450 0.46253
 H579 H 0.06175 0.53207 0.45396
 H580 H -0.00045 0.57455 0.48482
 H581 H 0.01136 0.40880 0.52071
 H582 H -0.05404 0.45053 0.55055
 H583 H -0.06780 0.49036 0.54790
 H584 H -0.03958 0.56333 0.51169
 H585 H 0.04500 0.42624 0.53588
 H586 H 0.05102 0.50139 0.57487
 H587 H -0.04087 0.48361 0.43222
 H588 H -0.03494 0.55848 0.47153
 Zr589 Zr 0.47804 -0.00313 -0.03692
 O590 O 0.45568 0.01240 -0.06203
 O591 O 0.48093 -0.03705 -0.05079
 O592 O 0.49407 0.00021 -0.07075
 O593 O 0.43421 -0.01705 0.00392
 O594 O 0.52910 0.01911 -0.06281
 O595 O 0.44359 -0.01791 -0.03544
 O596 O 0.50588 -0.05443 -0.02505
 O597 O 0.51331 -0.00986 -0.03074
 O598 O 0.47894 -0.02342 -0.00592
 O599 O 0.49496 0.03014 -0.03372
 O600 O 0.46179 0.01690 -0.01045
 Zr601 Zr 0.51658 0.02302 0.03172
 Zr602 Zr 0.52984 0.02316 -0.02579
 Zr603 Zr 0.46458 -0.00319 0.02072
 Zr604 Zr 0.51403 -0.02895 0.00096
 O605 O 0.43478 0.01473 0.03212
 O606 O 0.54615 -0.03916 -0.01400
 O607 O 0.49943 -0.01031 0.02920
 O608 O 0.53248 0.00313 0.00527
 O609 O 0.51580 0.04380 0.00103
 O610 O 0.48133 0.02951 0.02521
 C611 C 0.49264 -0.05458 -0.04355
 C612 C 0.42933 -0.02172 -0.01794
 C613 C 0.51383 0.00991 -0.07707
 O614 O 0.56015 0.00540 -0.03590
 O615 O 0.55918 0.03942 -0.00944
 O616 O 0.54965 0.04115 0.02988
 C617 C 0.56358 0.04534 0.01217
 O618 O 0.45660 0.05794 -0.03308
 Zr619 Zr 0.48053 0.04909 -0.00585
 O620 O 0.51343 0.05636 0.04603
 O621 O 0.53711 0.05590 -0.04259
 O622 O 0.49582 0.07820 -0.02444
 O623 O 0.44898 0.06081 0.00913
 O624 O 0.48970 0.07485 0.01993
 C625 C 0.50221 0.07420 0.03899
 O626 O 0.54035 0.00779 0.05557
 O627 O 0.45673 -0.03642 0.03622
 O628 O 0.50120 0.01845 0.06565
 O629 O 0.46611 -0.00034 0.05798
 O630 O 0.49983 -0.05917 0.01859
 O631 O 0.53586 -0.03825 0.02983
 C632 C 0.48132 0.00911 0.07225
 H633 H 0.47008 -0.03860 -0.00722
 H634 H 0.54899 0.00024 0.00929
 H635 H 0.47366 0.03809 0.03815
 H636 H 0.49368 0.03935 -0.04858
 H637 H 0.54640 -0.05653 -0.01320
 H638 H 0.56968 0.01648 -0.04584
 H639 H 0.55258 0.05485 -0.05040
 H640 H 0.48771 0.09238 -0.01921
 H641 H 0.50898 -0.07276 0.01353
 H642 H 0.44125 -0.03535 0.04399
 H643 H 0.42547 0.00362 0.04224
 H644 H 0.44935 0.07819 0.00796
 H645 H 0.54246 -0.05380 0.02677
 H646 H 0.54430 0.01981 0.06778
 H647 H 0.45151 0.00023 -0.07403
 H648 H 0.45378 0.07498 -0.03244
 Zr649 Zr 0.52347 0.52519 -0.03299
 O650 O 0.54488 0.52050 -0.06319
 O651 O 0.51586 0.56090 -0.03619
 O652 O 0.50466 0.52928 -0.06517
 O653 O 0.56982 0.53077 0.00663
 O654 O 0.47299 0.50408 -0.06088
 O655 O 0.55665 0.54256 -0.02963
 O656 O 0.49121 0.56704 -0.00517
 O657 O 0.48827 0.52538 -0.02278
 O658 O 0.52329 0.53581 0.00255
 O659 O 0.51045 0.49056 -0.03824
 O660 O 0.54388 0.50090 -0.01440
 Zr661 Zr 0.49370 0.47651 0.02791
 Zr662 Zr 0.47576 0.49057 -0.02636
 Zr663 Zr 0.54174 0.51090 0.02136
 Zr664 Zr 0.48841 0.53477 0.01305
 O665 O 0.57358 0.49369 0.02653
 O666 O 0.45402 0.54449 0.00411
 O667 O 0.50710 0.51105 0.03369
 O668 O 0.47380 0.50084 0.00924
 O669 O 0.49405 0.46536 -0.00749
 O670 O 0.52888 0.47646 0.01768
 C671 C 0.50272 0.57398 -0.02368
 C672 C 0.57236 0.54194 -0.01316
 C673 C 0.48567 0.51896 -0.07284
 O674 O 0.44308 0.50666 -0.02944
 O675 O 0.44926 0.46763 -0.01327
 O676 O 0.46159 0.45728 0.02370
 C677 C 0.44662 0.45653 0.00653
 O678 O 0.55163 0.46894 -0.04795
 Zr679 Zr 0.52913 0.46677 -0.01789
 O680 O 0.50084 0.44082 0.03080
 O681 O 0.47047 0.46274 -0.05081
 O682 O 0.51570 0.44234 -0.04323
 O683 O 0.56307 0.45597 -0.00856
 O684 O 0.52503 0.43404 -0.00051
 C685 C 0.51343 0.42744 0.01807
 O686 O 0.47078 0.48084 0.05702
 O687 O 0.54839 0.53994 0.04404
 O688 O 0.51086 0.47448 0.06117
 O689 O 0.54263 0.49947 0.05688
 O690 O 0.50136 0.56033 0.03750
 O691 O 0.46836 0.53302 0.04486
 C692 C 0.52944 0.48528 0.06922
 H693 H 0.53059 0.55164 0.00493
 H694 H 0.45742 0.50067 0.01499
 H695 H 0.53826 0.46575 0.02740
 H696 H 0.51143 0.48601 -0.05516
 H697 H 0.45201 0.56068 0.01001
 H698 H 0.43387 0.49760 -0.04143
 H699 H 0.45436 0.46391 -0.05713
 H700 H 0.52589 0.42862 -0.04301
 H701 H 0.49059 0.57359 0.03719
 H702 H 0.56447 0.53844 0.05031
 H703 H 0.58261 0.50281 0.03861
 H704 H 0.56470 0.43977 -0.01457
 H705 H 0.46037 0.54800 0.04710
 H706 H 0.46920 0.46548 0.06536
 H707 H 0.54664 0.53597 -0.07127
 H708 H 0.55676 0.45303 -0.05206
 Zr709 Zr 0.01844 1.01019 0.46782
 O710 O 0.03997 1.00538 0.43773
 O711 O 0.00957 1.04548 0.46382
 O712 O -0.00049 1.01307 0.43563
 O713 O 0.06508 1.01794 0.50688
 O714 O -0.03203 0.98790 0.44065
 O715 O 0.05106 1.02881 0.47068
 O716 O -0.01533 1.05160 0.49461
 O717 O -0.01667 1.01000 0.47834
 O718 O 0.01832 1.02163 0.50306
 O719 O 0.00595 0.97527 0.46342
 O720 O 0.03947 0.98666 0.48664
 Zr721 Zr -0.01009 0.96238 0.53014
 Zr722 Zr -0.02866 0.97501 0.47550
 Zr723 Zr 0.03749 0.99750 0.52211
 Zr724 Zr -0.01643 1.02010 0.51399
 O725 O 0.06964 0.98083 0.52716
 O726 O -0.05135 1.02880 0.50595
 O727 O 0.00294 0.99724 0.53485
 O728 O -0.03048 0.98596 0.51096
 O729 O -0.00990 0.95049 0.49493
 O730 O 0.02505 0.96274 0.51955
 C731 C -0.00425 1.05834 0.47581
 C732 C 0.06697 1.02909 0.48700
 C733 C -0.01955 1.00264 0.42825
 O734 O -0.06155 0.99066 0.47214
 O735 O -0.05500 0.95248 0.48945
 O736 O -0.04253 0.94327 0.52673
 C737 C -0.05772 0.94229 0.50971
 O738 O 0.04736 0.95394 0.45394
 Zr739 Zr 0.02512 0.95223 0.48422
 O740 O -0.00244 0.92681 0.53373
 O741 O -0.03366 0.94644 0.45190
 O742 O 0.01186 0.92705 0.45953
 O743 O 0.05929 0.94214 0.49359
 O744 O 0.02161 0.91986 0.50235
 C745 C 0.01025 0.91340 0.52113
 O746 O -0.03272 0.96664 0.55951
 O747 O 0.04396 1.02707 0.54415
 O748 O 0.00728 0.96212 0.56355
 O749 O 0.03880 0.98713 0.55780
 O750 O -0.00355 1.04684 0.53718
 O751 O -0.03547 1.01851 0.54643
 C752 C 0.02583 0.97352 0.57095
 H753 H 0.02522 1.03770 0.50498
 H754 H -0.04680 0.98583 0.51687
 H755 H 0.03466 0.95243 0.52949
 H756 H 0.00687 0.97037 0.44660
 H757 H -0.05365 1.04495 0.51178
 H758 H -0.07073 0.98122 0.46041
 H759 H -0.04980 0.94728 0.44558
 H760 H 0.02223 0.91348 0.46002
 H761 H -0.01476 1.05972 0.53674
 H762 H 0.06012 1.02592 0.55033
 H763 H 0.07867 0.99028 0.53898
 H764 H 0.06111 0.92583 0.48797
 H765 H -0.04362 1.03338 0.54873
 H766 H -0.03388 0.95138 0.56808
 H767 H 0.04129 1.02068 0.42926
 H768 H 0.05276 0.93802 0.45026
 Zr769 Zr 0.73890 0.27215 0.20529
 O770 O 0.75131 0.29339 0.17673
 O771 O 0.70398 0.26609 0.19612
 O772 O 0.73567 0.25331 0.17305
 O773 O 0.73142 0.31790 0.24447
 O774 O 0.75427 0.21924 0.18074
 O775 O 0.72426 0.30578 0.20646
 O776 O 0.68996 0.24090 0.22481
 O777 O 0.73335 0.23684 0.21475
 O778 O 0.72281 0.27184 0.23868
 O779 O 0.77209 0.25742 0.20451
 O780 O 0.76190 0.29152 0.22769
 Zr781 Zr 0.77438 0.23984 0.27176
 Zr782 Zr 0.76656 0.22259 0.21587
 Zr783 Zr 0.74632 0.28912 0.26148
 Zr784 Zr 0.71845 0.23676 0.24845
 O785 O 0.76561 0.32039 0.26991
 O786 O 0.70684 0.20272 0.23753
 O787 O 0.74082 0.25426 0.27283
 O788 O 0.75102 0.22085 0.24954
 O789 O 0.79055 0.24001 0.23841
 O790 O 0.77943 0.27514 0.26223
 C791 C 0.68784 0.25286 0.20548
 C792 C 0.72355 0.32110 0.22331
 C793 C 0.74233 0.23269 0.16733
 O794 O 0.74911 0.18945 0.21175
 O795 O 0.78618 0.19599 0.23154
 O796 O 0.79152 0.20767 0.26991
 C797 C 0.79421 0.19312 0.25271
 O798 O 0.79878 0.29765 0.19844
 Zr799 Zr 0.79433 0.27528 0.22852
 O800 O 0.80976 0.24590 0.28039
 O801 O 0.79571 0.21730 0.19360
 O802 O 0.82094 0.26059 0.20761
 O803 O 0.80741 0.30898 0.23897
 O804 O 0.82319 0.27081 0.25116
 C805 C 0.82576 0.25892 0.27040
 O806 O 0.76289 0.21667 0.29919
 O807 O 0.71504 0.29640 0.27975
 O808 O 0.77443 0.25686 0.30500
 O809 O 0.75234 0.28890 0.29846
 O810 O 0.69080 0.25049 0.26866
 O811 O 0.71293 0.21636 0.27976
 C812 C 0.76420 0.27542 0.31198
 H813 H 0.70760 0.27963 0.23869
 H814 H 0.74888 0.20440 0.25507
 H815 H 0.78944 0.28422 0.27351
 H816 H 0.77879 0.25814 0.18829
 H817 H 0.68976 0.20132 0.24053
 H818 H 0.75854 0.18031 0.20052
 H819 H 0.79384 0.20111 0.18734
 H820 H 0.83542 0.27037 0.20998
 H821 H 0.67662 0.24042 0.26565
 H822 H 0.71723 0.31234 0.28658
 H823 H 0.75564 0.32956 0.28059
 H824 H 0.82431 0.31005 0.23495
 H825 H 0.69696 0.20903 0.27944
 H826 H 0.77646 0.21432 0.30983
 H827 H 0.73773 0.29604 0.16620
 H828 H 0.81566 0.30145 0.19610
 Zr829 Zr 0.76226 0.72797 0.71724
 O830 O 0.75438 0.70548 0.68822
 O831 O 0.79719 0.73853 0.70989
 O832 O 0.76242 0.74651 0.68464
 O833 O 0.77231 0.68203 0.75615
 O834 O 0.73795 0.77664 0.69113
 O835 O 0.78076 0.69642 0.71910
 O836 O 0.80598 0.76481 0.73925
 O837 O 0.76313 0.76346 0.72687
 O838 O 0.77677 0.72948 0.75129
 O839 O 0.72726 0.73838 0.71569
 O840 O 0.74043 0.70582 0.73856
 Zr841 Zr 0.72061 0.75509 0.78262
 Zr842 Zr 0.72815 0.77342 0.72697
 Zr843 Zr 0.75436 0.70921 0.77290
 Zr844 Zr 0.77651 0.76453 0.76137
 O845 O 0.73774 0.67637 0.78102
 O846 O 0.78485 0.79986 0.75170
 O847 O 0.75552 0.74420 0.78464
 O848 O 0.74251 0.77657 0.76109
 O849 O 0.70543 0.75339 0.74880
 O850 O 0.71971 0.71959 0.77300
 C851 C 0.81110 0.75345 0.72041
 C852 C 0.78186 0.68057 0.73548
 C853 C 0.75144 0.76476 0.67782
 O854 O 0.74342 0.80736 0.72135
 O855 O 0.70701 0.79891 0.74240
 O856 O 0.70346 0.78742 0.78114
 C857 C 0.70032 0.80203 0.76397
 O858 O 0.70521 0.69523 0.70895
 Zr859 Zr 0.70615 0.71805 0.73877
 O860 O 0.68517 0.74621 0.78867
 O861 O 0.69766 0.77597 0.70594
 O862 O 0.67899 0.72903 0.71605
 O863 O 0.69685 0.68334 0.74984
 O864 O 0.67560 0.71978 0.75953
 C865 C 0.67077 0.73200 0.77792
 O866 O 0.72781 0.77766 0.81180
 O867 O 0.78593 0.70453 0.79174
 O868 O 0.72193 0.73781 0.81579
 O869 O 0.74799 0.70895 0.80968
 O870 O 0.80506 0.75380 0.78238
 O871 O 0.77797 0.78424 0.79338
 C872 C 0.73464 0.72099 0.82304
 H873 H 0.79283 0.72352 0.75190
 H874 H 0.74330 0.79306 0.76658
 H875 H 0.71017 0.70961 0.78401
 H876 H 0.72088 0.73676 0.69940
 H877 H 0.80141 0.80326 0.75610
 H878 H 0.73297 0.81564 0.71031
 H879 H 0.69798 0.79207 0.69918
 H880 H 0.66556 0.71770 0.71795
 H881 H 0.81789 0.76582 0.78048
 H882 H 0.78500 0.68847 0.79856
 H883 H 0.74828 0.66818 0.79202
 H884 H 0.68019 0.68025 0.74562
 H885 H 0.79298 0.79344 0.79412
 H886 H 0.71332 0.77835 0.82149
 H887 H 0.76876 0.70483 0.67839
 H888 H 0.68913 0.68852 0.70687
 Zr889 Zr 0.23253 0.23453 0.78414
 O890 O 0.24803 0.21157 0.80877
 O891 O 0.19954 0.23875 0.79943
 O892 O 0.23737 0.25021 0.81785
 O893 O 0.21797 0.19072 0.74373
 O894 O 0.25531 0.28574 0.80934
 O895 O 0.21732 0.20008 0.78307
 O896 O 0.18197 0.26401 0.77407
 O897 O 0.22620 0.27003 0.77792
 O898 O 0.21168 0.23564 0.75365
 O899 O 0.26575 0.25125 0.78028
 O900 O 0.25175 0.21801 0.75730
 Zr901 Zr 0.25783 0.27287 0.71470
 Zr902 Zr 0.25914 0.28633 0.77223
 Zr903 Zr 0.23130 0.22111 0.72653
 Zr904 Zr 0.20651 0.27093 0.74671
 O905 O 0.24847 0.19095 0.71469
 O906 O 0.19703 0.30368 0.76095
 O907 O 0.22442 0.25611 0.71804
 O908 O 0.23863 0.28905 0.74157
 O909 O 0.27897 0.27190 0.74506
 O910 O 0.26404 0.23748 0.72141
 C911 C 0.18235 0.25127 0.79300
 C912 C 0.21364 0.18572 0.76564
 C913 C 0.24690 0.27014 0.82385
 O914 O 0.24211 0.31721 0.78206
 O915 O 0.27633 0.31516 0.75545
 O916 O 0.27483 0.30661 0.71590
 C917 C 0.28067 0.32012 0.73351
 O918 O 0.29229 0.21186 0.77907
 Zr919 Zr 0.28387 0.23646 0.75220
 O920 O 0.29128 0.26988 0.70035
 O921 O 0.29192 0.29310 0.78879
 O922 O 0.31322 0.25099 0.77074
 O923 O 0.29536 0.20502 0.73664
 O924 O 0.30941 0.24603 0.72665
 C925 C 0.30905 0.25876 0.70773
 O926 O 0.24232 0.29616 0.69044
 O927 O 0.19775 0.21376 0.71189
 O928 O 0.25318 0.25695 0.68096
 O929 O 0.23380 0.22219 0.68922
 O930 O 0.17571 0.25657 0.73055
 O931 O 0.19678 0.29238 0.71763
 C932 C 0.24359 0.23702 0.67469
 H933 H 0.19647 0.22696 0.75554
 H934 H 0.23583 0.30564 0.73755
 H935 H 0.27249 0.22972 0.70844
 H936 H 0.27520 0.24985 0.79492
 H937 H 0.17972 0.30415 0.76053
 H938 H 0.25338 0.32660 0.79184
 H939 H 0.29118 0.30866 0.79653
 H940 H 0.32716 0.24255 0.76545
 H941 H 0.16242 0.26588 0.73603
 H942 H 0.19840 0.19815 0.70425
 H943 H 0.23702 0.18162 0.70504
 H944 H 0.31267 0.20524 0.73781
 H945 H 0.18118 0.29877 0.72069
 H946 H 0.25421 0.30003 0.67807
 H947 H 0.23613 0.20764 0.82114
 H948 H 0.30920 0.20870 0.77829
 Zr949 Zr 0.26763 0.77719 0.28147
 O950 O 0.26355 0.79799 0.31221
 O951 O 0.30285 0.76873 0.28406
 O952 O 0.27179 0.75726 0.31316
 O953 O 0.27389 0.82467 0.24291
 O954 O 0.24630 0.72590 0.30841
 O955 O 0.28565 0.81017 0.27868
 O956 O 0.30853 0.74420 0.25286
 O957 O 0.26736 0.74219 0.27039
 O958 O 0.27803 0.77783 0.24582
 O959 O 0.23308 0.76448 0.28688
 O960 O 0.24378 0.79861 0.26357
 Zr961 Zr 0.21853 0.74958 0.22042
 Zr962 Zr 0.23261 0.73001 0.27414
 Zr963 Zr 0.25342 0.79725 0.22762
 Zr964 Zr 0.27652 0.74313 0.23447
 O965 O 0.23653 0.82949 0.22348
 O966 O 0.28556 0.70804 0.24178
 O967 O 0.25305 0.76276 0.21457
 O968 O 0.24260 0.72882 0.23838
 O969 O 0.20773 0.74923 0.25597
 O970 O 0.21892 0.78465 0.23139
 C971 C 0.31551 0.75516 0.27162
 C972 C 0.28530 0.82638 0.26260
 C973 C 0.26148 0.73799 0.32048
 O974 O 0.24822 0.69693 0.27636
 O975 O 0.20953 0.70407 0.26052
 O976 O 0.19930 0.71728 0.22381
 C977 C 0.19866 0.70184 0.24063
 O978 O 0.21300 0.80647 0.29727
 Zr979 Zr 0.20969 0.78417 0.26716
 O980 O 0.18290 0.75692 0.21863
 O981 O 0.20483 0.72453 0.29861
 O982 O 0.18563 0.77101 0.29306
 O983 O 0.19875 0.81828 0.25820
 O984 O 0.17674 0.78013 0.25087
 C985 C 0.16977 0.76880 0.23234
 O986 O 0.22195 0.72728 0.19064
 O987 O 0.28232 0.80419 0.20484
 O988 O 0.21718 0.76732 0.18735
 O989 O 0.24196 0.79923 0.19211
 O990 O 0.30246 0.75657 0.21063
 O991 O 0.27413 0.72448 0.20186
 C992 C 0.22808 0.78601 0.17950
 H993 H 0.29395 0.78490 0.24352
 H994 H 0.24225 0.71255 0.23221
 H995 H 0.20821 0.79428 0.22195
 H996 H 0.22873 0.76508 0.30389
 H997 H 0.30154 0.70593 0.23547
 H998 H 0.23904 0.68744 0.28810
 H999 H 0.20579 0.70820 0.30457
 H1000 H 0.17229 0.78166 0.29343
 H1001 H 0.31535 0.74538 0.21048
 H1002 H 0.28099 0.82052 0.19901
 H1003 H 0.24575 0.83885 0.21167
 H1004 H 0.18282 0.81995 0.26479
 H1005 H 0.28895 0.71645 0.19898
 H1006 H 0.20654 0.72623 0.18248
 H1007 H 0.27903 0.79919 0.32020
 H1008 H 0.19740 0.81207 0.30173
 Zr1009 Zr 0.23727 0.77005 0.70629
 O1010 O 0.24876 0.79059 0.67684
 O1011 O 0.20225 0.76337 0.69809
 O1012 O 0.23404 0.75038 0.67462
 O1013 O 0.23056 0.81744 0.74355
 O1014 O 0.25415 0.71730 0.68258
 O1015 O 0.22217 0.80332 0.70647
 O1016 O 0.18895 0.73921 0.72793
 O1017 O 0.23205 0.73509 0.71706
 O1018 O 0.22195 0.77103 0.74000
 O1019 O 0.27052 0.75557 0.70531
 O1020 O 0.26060 0.79050 0.72737
 Zr1021 Zr 0.27466 0.74065 0.77307
 Zr1022 Zr 0.26541 0.72117 0.71804
 Zr1023 Zr 0.24587 0.78936 0.76159
 Zr1024 Zr 0.21802 0.73635 0.75116
 O1025 O 0.26523 0.82095 0.76854
 O1026 O 0.20636 0.70177 0.74215
 O1027 O 0.24095 0.75487 0.77430
 O1028 O 0.25074 0.72078 0.75214
 O1029 O 0.28991 0.73958 0.73931
 O1030 O 0.27914 0.77560 0.76209
 C1031 C 0.18638 0.75037 0.70816
 C1032 C 0.22193 0.81943 0.72250
 C1033 C 0.24189 0.73024 0.66894
 O1034 O 0.24710 0.68843 0.71451
 O1035 O 0.28410 0.69448 0.73461
 O1036 O 0.29157 0.70827 0.77196
 C1037 C 0.29288 0.69261 0.75556
 O1038 O 0.29634 0.79600 0.69716
 Zr1039 Zr 0.29311 0.77450 0.72801
 O1040 O 0.31039 0.74738 0.78051
 O1041 O 0.29489 0.71467 0.69664
 O1042 O 0.31923 0.75952 0.70666
 O1043 O 0.30639 0.80852 0.73713
 O1044 O 0.32268 0.77074 0.74962
 C1045 C 0.32604 0.75991 0.76931
 O1046 O 0.26426 0.71858 0.80181
 O1047 O 0.21491 0.79728 0.78010
 O1048 O 0.27516 0.75897 0.80565
 O1049 O 0.25249 0.79048 0.79852
 O1050 O 0.19076 0.75083 0.77136
 O1051 O 0.21335 0.71728 0.78343
 C1052 C 0.26480 0.77760 0.81225
 H1053 H 0.20666 0.77869 0.74002
 H1054 H 0.24868 0.70457 0.75838
 H1055 H 0.28941 0.78513 0.77277
 H1056 H 0.27697 0.75580 0.68898
 H1057 H 0.18935 0.70044 0.74554
 H1058 H 0.25640 0.67875 0.70364
 H1059 H 0.29277 0.69838 0.69069
 H1060 H 0.33364 0.76959 0.70816
 H1061 H 0.17654 0.74063 0.76904
 H1062 H 0.21714 0.81352 0.78615
 H1063 H 0.25537 0.83052 0.77894
 H1064 H 0.32310 0.80959 0.73236
 H1065 H 0.19735 0.71002 0.78389
 H1066 H 0.27820 0.71677 0.81208
 H1067 H 0.23496 0.79268 0.66645
 H1068 H 0.31308 0.79998 0.69418
 Zr1069 Zr 0.26511 0.24311 0.22060
 O1070 O 0.25734 0.22160 0.19080
 O1071 O 0.30094 0.25149 0.21557
 O1072 O 0.26857 0.26194 0.18838
 O1073 O 0.26998 0.19557 0.25854
 O1074 O 0.24668 0.29414 0.19423
 O1075 O 0.28163 0.21072 0.22268
 O1076 O 0.31007 0.27569 0.24660
 O1077 O 0.26850 0.27819 0.23132
 O1078 O 0.27739 0.24250 0.25553
 O1079 O 0.23135 0.25632 0.21714
 O1080 O 0.24025 0.22207 0.23964
 Zr1081 Zr 0.22207 0.27175 0.28408
 Zr1082 Zr 0.23470 0.29091 0.22940
 Zr1083 Zr 0.25217 0.22326 0.27483
 Zr1084 Zr 0.27939 0.27723 0.26673
 O1085 O 0.23237 0.19157 0.27992
 O1086 O 0.29103 0.31216 0.25886
 O1087 O 0.25556 0.25777 0.28788
 O1088 O 0.24668 0.29218 0.26459
 O1089 O 0.20938 0.27221 0.24921
 O1090 O 0.21856 0.23663 0.27331
 C1091 C 0.31531 0.26481 0.22750
 C1092 C 0.28103 0.19442 0.23861
 C1093 C 0.25951 0.28114 0.18133
 O1094 O 0.25298 0.32369 0.22613
 O1095 O 0.21407 0.31694 0.24399
 O1096 O 0.20559 0.30449 0.28164
 C1097 C 0.20454 0.31952 0.26447
 O1098 O 0.20695 0.21381 0.20896
 Zr1099 Zr 0.20718 0.23726 0.23826
 O1100 O 0.18597 0.26657 0.28754
 O1101 O 0.20623 0.29684 0.20636
 O1102 O 0.18359 0.24991 0.21250
 O1103 O 0.19256 0.20428 0.24932
 O1104 O 0.17522 0.24448 0.25531
 C1105 C 0.17064 0.25665 0.27388
 O1106 O 0.22994 0.29343 0.31372
 O1107 O 0.28150 0.21518 0.29594
 O1108 O 0.21971 0.25328 0.31682
 O1109 O 0.24326 0.22220 0.31096
 O1110 O 0.30561 0.26368 0.28909
 O1111 O 0.28020 0.29575 0.29947
 C1112 C 0.23035 0.23494 0.32405
 H1113 H 0.29286 0.23535 0.25705
 H1114 H 0.24802 0.30847 0.27062
 H1115 H 0.20735 0.22743 0.28338
 H1116 H 0.22596 0.25558 0.20044
 H1117 H 0.30747 0.31404 0.26434
 H1118 H 0.24399 0.33321 0.21480
 H1119 H 0.20836 0.31310 0.20020
 H1120 H 0.16920 0.23970 0.21313
 H1121 H 0.31930 0.27484 0.28851
 H1122 H 0.27872 0.19897 0.30202
 H1123 H 0.24127 0.18200 0.29128
 H1124 H 0.17608 0.20344 0.24383
 H1125 H 0.29568 0.30388 0.30144
 H1126 H 0.21515 0.29524 0.32266
 H1127 H 0.27209 0.22008 0.18171
 H1128 H 0.19073 0.20788 0.20594
 Zr1129 Zr 0.73253 0.73268 0.28801
 O1130 O 0.74741 0.70990 0.31323
 O1131 O 0.69883 0.73633 0.30184
 O1132 O 0.73581 0.74835 0.32187
 O1133 O 0.71969 0.68862 0.24723
 O1134 O 0.75355 0.78413 0.31412
 O1135 O 0.71761 0.69821 0.28645
 O1136 O 0.68228 0.76195 0.27617
 O1137 O 0.72602 0.76810 0.28156
 O1138 O 0.71277 0.73363 0.25678
 O1139 O 0.76571 0.74972 0.28541
 O1140 O 0.75289 0.71631 0.26197
 Zr1141 Zr 0.75996 0.77121 0.21974
 Zr1142 Zr 0.75895 0.78473 0.27718
 Zr1143 Zr 0.73346 0.71917 0.23049
 Zr1144 Zr 0.70757 0.76888 0.24960
 O1145 O 0.75133 0.68923 0.21925
 O1146 O 0.69728 0.80163 0.26318
 O1147 O 0.72662 0.75414 0.22173
 O1148 O 0.73967 0.78733 0.24572
 O1149 O 0.77996 0.77045 0.25085
 O1150 O 0.76621 0.73586 0.22657
 C1151 C 0.68188 0.74894 0.29491
 C1152 C 0.71455 0.68375 0.26901
 C1153 C 0.74472 0.76842 0.32825
 O1154 O 0.74114 0.81534 0.28641
 O1155 O 0.77600 0.81395 0.26099
 O1156 O 0.77837 0.80412 0.22179
 C1157 C 0.78256 0.81806 0.23946
 O1158 O 0.79294 0.71084 0.28540
 Zr1159 Zr 0.78504 0.73508 0.25800
 O1160 O 0.79352 0.76808 0.20606
 O1161 O 0.79105 0.79191 0.29492
 O1162 O 0.81367 0.75013 0.27727
 O1163 O 0.79727 0.70360 0.24317
 O1164 O 0.81129 0.74460 0.23295
 C1165 C 0.81119 0.75710 0.21382
 O1166 O 0.74529 0.79510 0.19556
 O1167 O 0.70051 0.71145 0.21468
 O1168 O 0.75625 0.75570 0.18581
 O1169 O 0.73714 0.72061 0.19327
 O1170 O 0.67734 0.75428 0.23255
 O1171 O 0.69876 0.79001 0.21995
 C1172 C 0.74706 0.73576 0.17913
 H1173 H 0.69757 0.72484 0.25810
 H1174 H 0.73697 0.80390 0.24149
 H1175 H 0.77508 0.72816 0.21385
 H1176 H 0.77461 0.74842 0.30042
 H1177 H 0.67999 0.80193 0.26212
 H1178 H 0.75192 0.82488 0.29660
 H1179 H 0.78980 0.80744 0.30262
 H1180 H 0.82787 0.74187 0.27241
 H1181 H 0.66386 0.76359 0.23751
 H1182 H 0.70164 0.69593 0.20694
 H1183 H 0.74034 0.67989 0.20910
 H1184 H 0.81454 0.70400 0.24487
 H1185 H 0.68304 0.79639 0.22239
 H1186 H 0.75754 0.79906 0.18358
 H1187 H 0.73511 0.70579 0.32513
 H1188 H 0.80991 0.70792 0.28520
 Zr1189 Zr 0.76971 0.26024 0.77623
 O1190 O 0.75808 0.28070 0.80497
 O1191 O 0.80546 0.25702 0.78422
 O1192 O 0.77198 0.24186 0.80883
 O1193 O 0.77654 0.30746 0.73732
 O1194 O 0.75194 0.20721 0.80190
 O1195 O 0.78433 0.29481 0.77490
 O1196 O 0.81863 0.23439 0.75398
 O1197 O 0.77574 0.22552 0.76657
 O1198 O 0.78489 0.26181 0.74246
 O1199 O 0.73651 0.24295 0.77694
 O1200 O 0.74556 0.27778 0.75457
 Zr1201 Zr 0.73404 0.22556 0.70975
 Zr1202 Zr 0.74260 0.20871 0.76578
 Zr1203 Zr 0.76074 0.27770 0.72063
 Zr1204 Zr 0.78957 0.22727 0.73221
 O1205 O 0.74065 0.30760 0.71433
 O1206 O 0.80241 0.19447 0.74314
 O1207 O 0.76692 0.24355 0.70851
 O1208 O 0.75763 0.20838 0.73181
 O1209 O 0.71806 0.22385 0.74322
 O1210 O 0.72812 0.26029 0.71963
 C1211 C 0.82165 0.24638 0.77307
 C1212 C 0.78511 0.31054 0.75833
 C1213 C 0.76347 0.22161 0.81546
 O1214 O 0.76213 0.17827 0.77110
 O1215 O 0.72471 0.17988 0.75029
 O1216 O 0.71704 0.19182 0.71242
 C1217 C 0.71569 0.17668 0.72960
 O1218 O 0.70760 0.28003 0.78336
 Zr1219 Zr 0.71329 0.25855 0.75324
 O1220 O 0.69923 0.22919 0.70049
 O1221 O 0.71283 0.19970 0.78670
 O1222 O 0.68747 0.24092 0.77441
 O1223 O 0.69955 0.29109 0.74275
 O1224 O 0.68422 0.25092 0.73049
 C1225 C 0.68256 0.23994 0.71048
 O1226 O 0.74543 0.20331 0.68235
 O1227 O 0.79105 0.28779 0.70099
 O1228 O 0.73445 0.24295 0.67632
 O1229 O 0.75284 0.27829 0.68420
 O1230 O 0.81654 0.24299 0.71101
 O1231 O 0.79410 0.20762 0.70060
 C1232 C 0.74250 0.26354 0.67005
 H1233 H 0.79995 0.27091 0.74192
 H1234 H 0.76011 0.19217 0.72629
 H1235 H 0.71781 0.26862 0.70856
 H1236 H 0.72969 0.24312 0.79310
 H1237 H 0.81933 0.19457 0.73931
 H1238 H 0.75286 0.16787 0.78199
 H1239 H 0.71521 0.18381 0.79328
 H1240 H 0.67252 0.24883 0.77178
 H1241 H 0.83059 0.23343 0.71281
 H1242 H 0.78842 0.30370 0.69455
 H1243 H 0.74985 0.31791 0.70330
 H1244 H 0.68250 0.29027 0.74601
 H1245 H 0.80969 0.20058 0.70078
 H1246 H 0.73171 0.19993 0.67196
 H1247 H 0.77187 0.28427 0.81521
 H1248 H 0.69062 0.28248 0.78512
 C1249 C 0.41874 1.00324 0.30212
 C1250 C 0.43195 1.00493 0.32311
 C1251 C 0.43426 1.02676 0.33489
 C1252 C 0.42464 1.04669 0.32480
 C1253 C 0.41146 1.04484 0.30401
 C1254 C 0.40719 1.02287 0.29310
 C1255 C 0.44564 1.02826 0.35686
 C1256 C 0.45453 1.00814 0.36738
 C1257 C 0.45338 0.98648 0.35518
 C1258 C 0.44215 0.98502 0.33300
 C1259 C 0.46279 0.96654 0.36583
 C1260 C 0.47219 0.96787 0.38881
 C1261 C 0.47203 0.98907 0.40142
 C1262 C 0.46376 1.00924 0.39035
 H1263 H 0.41663 0.98641 0.29329
 H1264 H 0.42691 1.06370 0.33324
 H1265 H 0.40466 1.06080 0.29682
 H1266 H 0.44686 1.04493 0.36614
 H1267 H 0.44066 0.96830 0.32386
 H1268 H 0.46228 0.94983 0.35668
 H1269 H 0.47856 0.95216 0.39713
 H1270 H 0.46393 1.02573 0.39997
 C1271 C -0.08362 0.48874 0.80709
 C1272 C -0.07011 0.49129 0.82793
 C1273 C -0.06740 0.51365 0.83857
 C1274 C -0.07694 0.53318 0.82761
 C1275 C -0.09009 0.53055 0.80688
 C1276 C -0.09472 0.50817 0.79694
 C1277 C -0.05538 0.51621 0.86014
 C1278 C -0.04594 0.49669 0.87129
 C1279 C -0.04751 0.47445 0.86024
 C1280 C -0.05965 0.47186 0.83857
 C1281 C -0.03741 0.45515 0.87143
 C1282 C -0.02680 0.45770 0.89381
 C1283 C -0.02642 0.47951 0.90537
 C1284 C -0.03553 0.49901 0.89373
 H1285 H -0.08588 0.47156 0.79903
 H1286 H -0.07435 0.55056 0.83516
 H1287 H -0.09646 0.54631 0.79881
 H1288 H -0.05381 0.53333 0.86850
 H1289 H -0.06138 0.45471 0.83031
 H1290 H -0.03823 0.43799 0.86317
 H1291 H -0.01990 0.44246 0.90255
 H1292 H -0.03505 0.51596 0.90249
 C1293 C 0.07911 -0.01051 0.80026
 C1294 C 0.06996 -0.01264 0.82354
 C1295 C 0.08436 -0.02088 0.84201
 C1296 C 0.10747 -0.02634 0.83735
 C1297 C 0.11656 -0.02346 0.81468
 C1298 C 0.10255 -0.01626 0.79551
 C1299 C 0.07591 -0.02271 0.86521
 C1300 C 0.05342 -0.01564 0.87067
 C1301 C 0.03877 -0.00718 0.85261
 C1302 C 0.04702 -0.00600 0.82898
 C1303 C 0.01639 0.00036 0.85875
 C1304 C 0.00899 -0.00001 0.88258
 C1305 C 0.02376 -0.00815 0.90061
 C1306 C 0.04580 -0.01631 0.89424
 H1307 H 0.06832 -0.00359 0.78627
 H1308 H 0.11884 -0.03210 0.85148
 H1309 H 0.13501 -0.02643 0.81235
 H1310 H 0.08716 -0.02898 0.87923
 H1311 H 0.03588 0.00056 0.81504
 H1312 H 0.00481 0.00693 0.84523
 H1313 H -0.00811 0.00640 0.88691
 H1314 H 0.05750 -0.02273 0.90777
 C1315 C 0.58151 0.50537 0.30692
 C1316 C 0.56945 0.50277 0.32862
 C1317 C 0.56789 0.48053 0.33979
 C1318 C 0.57672 0.46100 0.32826
 C1319 C 0.58866 0.46374 0.30676
 C1320 C 0.59276 0.48619 0.29664
 C1321 C 0.55800 0.47819 0.36250
 C1322 C 0.54957 0.49785 0.37423
 C1323 C 0.54974 0.51986 0.36252
 C1324 C 0.55970 0.52220 0.33976
 C1325 C 0.54051 0.53928 0.37410
 C1326 C 0.53208 0.53711 0.39739
 C1327 C 0.53313 0.51563 0.40955
 C1328 C 0.54153 0.49596 0.39774
 H1329 H 0.58290 0.52253 0.29859
 H1330 H 0.57487 0.44365 0.33613
 H1331 H 0.59509 0.44815 0.29845
 H1332 H 0.55743 0.46120 0.37130
 H1333 H 0.56049 0.53923 0.33108
 H1334 H 0.54027 0.55623 0.36535
 H1335 H 0.52565 0.55246 0.40625
 H1336 H 0.54210 0.47926 0.40700
 C1337 C 0.58416 0.48212 0.19871
 C1338 C 0.57670 0.48502 0.17503
 C1339 C 0.58852 0.50175 0.16030
 C1340 C 0.60733 0.51532 0.16936
 C1341 C 0.61456 0.51233 0.19276
 C1342 C 0.60330 0.49569 0.20766
 C1343 C 0.58139 0.50480 0.13674
 C1344 C 0.56252 0.49138 0.12754
 C1345 C 0.55053 0.47466 0.14206
 C1346 C 0.55771 0.47154 0.16577
 C1347 C 0.53156 0.46143 0.13255
 C1348 C 0.52458 0.46478 0.10891
 C1349 C 0.53650 0.48136 0.09433
 C1350 C 0.55550 0.49456 0.10393
 H1351 H 0.57534 0.46917 0.21002
 H1352 H 0.61641 0.52835 0.15835
 H1353 H 0.62875 0.52349 0.19931
 H1354 H 0.59054 0.51766 0.12554
 H1355 H 0.54856 0.45869 0.17696
 H1356 H 0.52211 0.44852 0.14338
 H1357 H 0.50990 0.45434 0.10206
 H1358 H 0.56490 0.50751 0.09308
 C1359 C 0.08344 0.98306 0.69917
 C1360 C 0.07533 0.98329 0.67543
 C1361 C 0.08806 0.99652 0.65819
 C1362 C 0.10828 1.00933 0.66467
 C1363 C 0.11639 1.00868 0.68791
 C1364 C 0.10455 0.99528 0.70558
 C1365 C 0.08059 0.99678 0.63456
 C1366 C 0.06056 0.98380 0.62762
 C1367 C 0.04757 0.97044 0.64451
 C1368 C 0.05500 0.97028 0.66844
 C1369 C 0.02744 0.95755 0.63700
 C1370 C 0.02029 0.95813 0.61309
 C1371 C 0.03319 0.97155 0.59626
 C1372 C 0.05341 0.98419 0.60388
 H1373 H 0.07392 0.97241 0.71215
 H1374 H 0.11797 1.01987 0.65169
 H1375 H 0.13168 1.01953 0.69190
 H1376 H 0.09051 1.00703 0.62148
 H1377 H 0.04512 0.96001 0.68149
 H1378 H 0.01718 0.94715 0.64963
 H1379 H 0.00462 0.94825 0.60783
 H1380 H 0.06371 0.99468 0.59132
 C1381 C -0.07784 0.50375 0.70181
 C1382 C -0.06822 0.49874 0.67944
 C1383 C -0.08100 0.48409 0.66349
 C1384 C -0.10295 0.47453 0.67020
 C1385 C -0.11229 0.47946 0.69249
 C1386 C -0.09999 0.49417 0.70853
 C1387 C -0.07174 0.47931 0.64101
 C1388 C -0.04989 0.48908 0.63414
 C1389 C -0.03688 0.50349 0.65011
 C1390 C -0.04611 0.50820 0.67271
 C1391 C -0.01505 0.51322 0.64298
 C1392 C -0.00654 0.50932 0.62002
 C1393 C -0.01964 0.49552 0.60377
 C1394 C -0.04114 0.48508 0.61128
 H1395 H -0.06818 0.51532 0.71382
 H1396 H -0.11288 0.46313 0.65824
 H1397 H -0.12902 0.47129 0.69726
 H1398 H -0.08169 0.46822 0.62874
 H1399 H -0.03622 0.51940 0.68492
 H1400 H -0.00479 0.52427 0.65499
 H1401 H 0.00998 0.51769 0.61477
 H1402 H -0.05151 0.47431 0.59909
 C1403 C 0.41997 0.01781 0.19767
 C1404 C 0.42870 0.01296 0.17494
 C1405 C 0.41527 -0.00143 0.15929
 C1406 C 0.39355 -0.01097 0.16675
 C1407 C 0.38510 -0.00626 0.18947
 C1408 C 0.39810 0.00824 0.20517
 C1409 C 0.42368 -0.00594 0.13640
 C1410 C 0.44535 0.00380 0.12890
 C1411 C 0.45899 0.01788 0.14465
 C1412 C 0.45059 0.02236 0.16759
 C1413 C 0.48063 0.02755 0.13702
 C1414 C 0.48838 0.02395 0.11378
 C1415 C 0.47466 0.01052 0.09771
 C1416 C 0.45332 0.00012 0.10567
 H1417 H 0.43013 0.02928 0.20937
 H1418 H 0.38311 -0.02219 0.15504
 H1419 H 0.36853 -0.01439 0.19484
 H1420 H 0.41324 -0.01680 0.12433
 H1421 H 0.46097 0.03333 0.17961
 H1422 H 0.49136 0.03833 0.14888
 H1423 H 0.50481 0.03226 0.10821
 H1424 H 0.44250 -0.01032 0.09359
 C1425 C 0.31897 0.39821 0.00767
 C1426 C 0.34050 0.41052 0.00472
 C1427 C 0.34248 0.42889 -0.01214
 C1428 C 0.32293 0.43467 -0.02569
 C1429 C 0.30150 0.42255 -0.02241
 C1430 C 0.29899 0.40447 -0.00540
 C1431 C 0.36399 0.44112 -0.01527
 C1432 C 0.38348 0.43541 -0.00151
 C1433 C 0.38151 0.41721 0.01555
 C1434 C 0.36007 0.40473 0.01842
 C1435 C 0.40100 0.41197 0.02957
 C1436 C 0.42223 0.42471 0.02677
 C1437 C 0.42441 0.44266 0.00966
 C1438 C 0.40490 0.44781 -0.00446
 H1439 H 0.31826 0.38356 0.01988
 H1440 H 0.32420 0.44857 -0.03886
 H1441 H 0.28676 0.42727 -0.03331
 H1442 H 0.36552 0.45516 -0.02830
 H1443 H 0.35855 0.39069 0.03145
 H1444 H 0.39978 0.39811 0.04279
 H1445 H 0.43698 0.42040 0.03785
 H1446 H 0.40621 0.46182 -0.01753
 C1447 C -0.18886 0.89296 0.51406
 C1448 C -0.16669 0.90407 0.51111
 C1449 C -0.16392 0.92293 0.49489
 C1450 C -0.18332 0.93052 0.48215
 C1451 C -0.20533 0.91955 0.48536
 C1452 C -0.20861 0.90084 0.50155
 C1453 C -0.14176 0.93372 0.49143
 C1454 C -0.12233 0.92607 0.50416
 C1455 C -0.12503 0.90751 0.52072
 C1456 C -0.14720 0.89648 0.52397
 C1457 C -0.10548 0.90043 0.53377
 C1458 C -0.08348 0.91165 0.53041
 C1459 C -0.08061 0.92983 0.51364
 C1460 C -0.10021 0.93687 0.50061
 H1461 H -0.19025 0.87784 0.52564
 H1462 H -0.18144 0.94484 0.46950
 H1463 H -0.21986 0.92551 0.47486
 H1464 H -0.13964 0.94807 0.47881
 H1465 H -0.14930 0.88209 0.53654
 H1466 H -0.10724 0.88630 0.54664
 H1467 H -0.06869 0.90598 0.54072
 H1468 H -0.09838 0.95117 0.48791
 C1469 C -0.18559 0.08744 0.98206
 C1470 C -0.16572 0.07396 0.98569
 C1471 C -0.16148 0.06424 1.00835
 C1472 C -0.17733 0.06771 1.02684
 C1473 C -0.19698 0.08105 1.02311
 C1474 C -0.20123 0.09161 1.00091
 C1475 C -0.14146 0.05123 1.01225
 C1476 C -0.12548 0.04783 0.99378
 C1477 C -0.12981 0.05718 0.97098
 C1478 C -0.14994 0.07014 0.96704
 C1479 C -0.11374 0.05365 0.95260
 C1480 C -0.09334 0.04142 0.95688
 C1481 C -0.08862 0.03245 0.97964
 C1482 C -0.10504 0.03552 0.99792
 H1483 H -0.18867 0.09431 0.96449
 H1484 H -0.17449 0.06016 1.04425
 H1485 H -0.20895 0.08331 1.03778
 H1486 H -0.13818 0.04396 1.02973
 H1487 H -0.15316 0.07746 0.94959
 H1488 H -0.11678 0.06063 0.93498
 H1489 H -0.08105 0.03941 0.94246
 H1490 H -0.10177 0.02868 1.01556
 C1491 C 0.31965 0.59727 0.48328
 C1492 C 0.34020 0.58491 0.48732
 C1493 C 0.34004 0.56637 0.50405
 C1494 C 0.31920 0.56013 0.51598
 C1495 C 0.29885 0.57246 0.51183
 C1496 C 0.29861 0.59113 0.49536
 C1497 C 0.36081 0.55476 0.50903
 C1498 C 0.38177 0.56131 0.49732
 C1499 C 0.38177 0.57941 0.48007
 C1500 C 0.36107 0.59119 0.47530
 C1501 C 0.40254 0.58549 0.46789
 C1502 C 0.42315 0.57384 0.47277
 C1503 C 0.42356 0.55620 0.49027
 C1504 C 0.40273 0.55005 0.50253
 H1505 H 0.32052 0.61228 0.47146
 H1506 H 0.31876 0.54608 0.52900
 H1507 H 0.28342 0.56786 0.52223
 H1508 H 0.36069 0.54075 0.52213
 H1509 H 0.36122 0.60530 0.46232
 H1510 H 0.40285 0.59923 0.45452
 H1511 H 0.43890 0.57887 0.46306
 H1512 H 0.40276 0.53625 0.51584
 C1513 C 0.19817 0.59004 0.51552
 C1514 C 0.17527 0.58011 0.51287
 C1515 C 0.16471 0.57972 0.49013
 C1516 C 0.17688 0.58954 0.47064
 C1517 C 0.19945 0.59937 0.47346
 C1518 C 0.21032 0.59969 0.49578
 C1519 C 0.14227 0.56926 0.48708
 C1520 C 0.13005 0.55918 0.50645
 C1521 C 0.14024 0.55994 0.52931
 C1522 C 0.16283 0.57035 0.53239
 C1523 C 0.12767 0.55011 0.54862
 C1524 C 0.10542 0.53933 0.54527
 C1525 C 0.09532 0.53795 0.52251
 C1526 C 0.10783 0.54818 0.50322
 H1527 H 0.20661 0.59009 0.53277
 H1528 H 0.16906 0.58932 0.45310
 H1529 H 0.20873 0.60620 0.45802
 H1530 H 0.13438 0.56879 0.46955
 H1531 H 0.17075 0.57072 0.54989
 H1532 H 0.13511 0.55060 0.56632
 H1533 H 0.09630 0.53170 0.56046
 H1534 H 0.10030 0.54757 0.48554
 C1535 C 0.69196 0.10250 0.00739
 C1536 C 0.67039 0.08950 0.00717
 C1537 C 0.66881 0.06772 -0.00484
 C1538 C 0.68867 0.05882 -0.01552
 C1539 C 0.71010 0.07107 -0.01413
 C1540 C 0.71223 0.09311 -0.00280
 C1541 C 0.64746 0.05490 -0.00587
 C1542 C 0.62768 0.06297 0.00576
 C1543 C 0.62924 0.08410 0.01885
 C1544 C 0.65051 0.09748 0.01914
 C1545 C 0.60942 0.09138 0.03130
 C1546 C 0.58821 0.07817 0.03024
 C1547 C 0.58639 0.05776 0.01633
 C1548 C 0.60629 0.05019 0.00435
 H1549 H 0.69319 0.11913 0.01667
 H1550 H 0.68771 0.04215 -0.02477
 H1551 H 0.72489 0.06350 -0.02290
 H1552 H 0.64632 0.03844 -0.01553
 H1553 H 0.65165 0.11390 0.02884
 H1554 H 0.61025 0.10741 0.04162
 H1555 H 0.57301 0.08439 0.03946
 H1556 H 0.60504 0.03434 -0.00628
 C1557 C 0.68547 0.90392 0.48940
 C1558 C 0.66444 0.91586 0.49200
 C1559 C 0.66078 0.92924 0.51272
 C1560 C 0.67826 0.93080 0.53020
 C1561 C 0.69921 0.91922 0.52726
 C1562 C 0.70293 0.90561 0.50699
 C1563 C 0.63980 0.94098 0.51561
 C1564 C 0.62249 0.93987 0.49790
 C1565 C 0.62622 0.92692 0.47697
 C1566 C 0.64712 0.91483 0.47421
 C1567 C 0.60899 0.92641 0.45915
 C1568 C 0.58825 0.93852 0.46207
 C1569 C 0.58411 0.95107 0.48305
 C1570 C 0.60152 0.95166 0.50084
 H1571 H 0.68847 0.89379 0.47353
 H1572 H 0.67577 0.94104 0.54613
 H1573 H 0.71248 0.92065 0.54097
 H1574 H 0.63699 0.95110 0.53159
 H1575 H 0.64994 0.90475 0.45821
 H1576 H 0.61160 0.91670 0.44289
 H1577 H 0.57539 0.93791 0.44794
 H1578 H 0.59886 0.96143 0.51706
 C1579 C 0.19210 0.40348 0.98679
 C1580 C 0.17076 0.41457 0.99020
 C1581 C 0.16806 0.42944 1.01002
 C1582 C 0.18680 0.43330 1.02579
 C1583 C 0.20804 0.42248 1.02204
 C1584 C 0.21079 0.40739 1.00267
 C1585 C 0.14673 0.44030 1.01374
 C1586 C 0.12814 0.43684 0.99770
 C1587 C 0.13090 0.42238 0.97762
 C1588 C 0.15215 0.41118 0.97408
 C1589 C 0.11237 0.41953 0.96137
 C1590 C 0.09131 0.43087 0.96500
 C1591 C 0.08821 0.44493 0.98517
 C1592 C 0.10685 0.44779 1.00142
 H1593 H 0.19433 0.39222 0.97159
 H1594 H 0.18505 0.44470 1.04101
 H1595 H 0.22226 0.42557 1.03449
 H1596 H 0.14466 0.45157 1.02904
 H1597 H 0.15425 0.39995 0.95875
 H1598 H 0.11421 0.40864 0.94579
 H1599 H 0.07740 0.42850 0.95207
 H1600 H 0.10495 0.45881 1.01692
 C1601 C -0.00279 0.30358 0.40083
 C1602 C -0.00082 0.32387 0.41474
 C1603 C 0.00806 0.32250 0.43809
 C1604 C 0.01493 0.30083 0.44703
 C1605 C 0.01261 0.28059 0.43316
 C1606 C 0.00318 0.28154 0.41003
 C1607 C 0.00996 0.34279 0.45210
 C1608 C 0.00276 0.36436 0.44310
 C1609 C -0.00626 0.36566 0.41975
 C1610 C -0.00783 0.34545 0.40566
 C1611 C -0.01371 0.38715 0.41091
 C1612 C -0.01232 0.40720 0.42507
 C1613 C -0.00329 0.40618 0.44828
 C1614 C 0.00431 0.38464 0.45715
 H1615 H -0.00929 0.30484 0.38278
 H1616 H 0.02211 0.29953 0.46479
 H1617 H 0.01865 0.26448 0.44072
 H1618 H 0.01684 0.34175 0.47002
 H1619 H -0.01473 0.34647 0.38774
 H1620 H -0.02067 0.38845 0.39306
 H1621 H -0.01816 0.42359 0.41772
 H1622 H 0.01122 0.38358 0.47504
 C1623 C 0.48892 -0.18246 -0.09614
 C1624 C 0.48937 -0.16154 -0.08330
 C1625 C 0.49545 -0.16176 -0.05900
 C1626 C 0.50041 -0.18308 -0.04791
 C1627 C 0.50007 -0.20395 -0.06093
 C1628 C 0.49451 -0.20389 -0.08535
 C1629 C 0.49696 -0.14061 -0.04637
 C1630 C 0.49258 -0.11931 -0.05786
 C1631 C 0.48602 -0.11919 -0.08207
 C1632 C 0.48443 -0.14034 -0.09464
 C1633 C 0.48137 -0.09789 -0.09338
 C1634 C 0.48340 -0.07680 -0.08084
 C1635 C 0.49034 -0.07672 -0.05691
 C1636 C 0.49481 -0.09808 -0.04551
 H1637 H 0.48495 -0.18198 -0.11499
 H1638 H 0.50510 -0.18353 -0.02926
 H1639 H 0.50484 -0.21969 -0.05172
 H1640 H 0.50188 -0.14068 -0.02776
 H1641 H 0.47968 -0.14026 -0.11330
 H1642 H 0.47626 -0.09752 -0.11191
 H1643 H 0.47985 -0.06053 -0.08995
 H1644 H 0.49985 -0.09823 -0.02694
 C1645 C 0.00973 -0.19326 1.10431
 C1646 C 0.01003 -0.17309 1.09015
 C1647 C 0.00295 -0.17472 1.06615
 C1648 C -0.00405 -0.19654 1.05669
 C1649 C -0.00440 -0.21659 1.07098
 C1650 C 0.00280 -0.21526 1.09489
 C1651 C 0.00228 -0.15443 1.05220
 C1652 C 0.00837 -0.13253 1.06207
 C1653 C 0.01586 -0.13090 1.08596
 C1654 C 0.01671 -0.15124 1.09986
 C1655 C 0.02202 -0.10889 1.09562
 C1656 C 0.02032 -0.08861 1.08183
 C1657 C 0.01235 -0.09010 1.05825
 C1658 C 0.00668 -0.11218 1.04843
 H1659 H 0.01429 -0.19169 1.12295
 H1660 H -0.00984 -0.19801 1.03840
 H1661 H -0.01113 -0.23279 1.06328
 H1662 H -0.00343 -0.15562 1.03384
 H1663 H 0.02219 -0.15004 1.11829
 H1664 H 0.02787 -0.10734 1.11388
 H1665 H 0.02483 -0.07175 1.08975
 H1666 H 0.00080 -0.11357 1.03015
 C1667 C 0.50407 0.31379 0.60167
 C1668 C 0.50360 0.33405 0.58781
 C1669 C 0.49912 0.33239 0.56319
 C1670 C 0.49542 0.31019 0.55290
 C1671 C 0.49581 0.28990 0.56697
 C1672 C 0.50015 0.29151 0.59159
 C1673 C 0.49818 0.35295 0.54946
 C1674 C 0.50183 0.37501 0.56018
 C1675 C 0.50653 0.37637 0.58486
 C1676 C 0.50727 0.35594 0.59847
 C1677 C 0.51066 0.39816 0.59563
 C1678 C 0.51054 0.41852 0.58207
 C1679 C 0.50587 0.41755 0.55756
 C1680 C 0.50120 0.39575 0.54668
 H1681 H 0.50694 0.31535 0.62066
 H1682 H 0.49186 0.30854 0.53406
 H1683 H 0.49209 0.27328 0.55841
 H1684 H 0.49466 0.35179 0.53055
 H1685 H 0.51077 0.35708 0.61740
 H1686 H 0.51429 0.39944 0.61449
 H1687 H 0.51417 0.43516 0.59084
 H1688 H 0.49781 0.39491 0.52774
 C1689 C 0.50659 1.19524 0.58988
 C1690 C 0.50427 1.17190 0.58262
 C1691 C 0.48839 1.15624 0.59442
 C1692 C 0.47541 1.16431 0.61372
 C1693 C 0.47775 1.18781 0.62078
 C1694 C 0.49306 1.20345 0.60860
 C1695 C 0.48558 1.13298 0.58646
 C1696 C 0.49831 1.12541 0.56674
 C1697 C 0.51437 1.14120 0.55529
 C1698 C 0.51734 1.16422 0.56339
 C1699 C 0.52705 1.13388 0.53563
 C1700 C 0.52371 1.11120 0.52705
 C1701 C 0.50764 1.09526 0.53798
 C1702 C 0.49510 1.10244 0.55803
 H1703 H 0.51885 1.20713 0.58078
 H1704 H 0.46319 1.15260 0.62306
 H1705 H 0.46712 1.19391 0.63529
 H1706 H 0.47329 1.12095 0.59532
 H1707 H 0.52954 1.17631 0.55443
 H1708 H 0.53944 1.14578 0.52674
 H1709 H 0.53378 1.10622 0.51169
 H1710 H 0.48271 1.09035 0.56665
 C1711 C 0.00893 0.68888 1.09137
 C1712 C 0.00710 0.66562 1.08381
 C1713 C -0.00904 0.64972 1.09491
 C1714 C -0.02287 0.65743 1.11372
 C1715 C -0.02106 0.68083 1.12104
 C1716 C -0.00540 0.69671 1.10965
 C1717 C -0.01130 0.62654 1.08678
 C1718 C 0.00219 0.61928 1.06752
 C1719 C 0.01845 0.63524 1.05664
 C1720 C 0.02093 0.65823 1.06498
 C1721 C 0.03179 0.62808 1.03734
 C1722 C 0.02886 0.60537 1.02859
 C1723 C 0.01260 0.58936 1.03909
 C1724 C -0.00055 0.59640 1.05873
 H1725 H 0.02147 0.70095 1.08292
 H1726 H -0.03531 0.64551 1.12248
 H1727 H -0.03232 0.68665 1.13517
 H1728 H -0.02376 0.61432 1.09515
 H1729 H 0.03330 0.67050 1.05652
 H1730 H 0.04434 0.64011 1.02886
 H1731 H 0.03936 0.60040 1.01353
 H1732 H -0.01312 0.58423 1.06698
 C1733 C 0.49945 0.70135 -0.07883
 C1734 C 0.50156 0.67773 -0.07246
 C1735 C 0.50964 0.66154 -0.08924
 C1736 C 0.51524 0.66925 -0.11220
 C1737 C 0.51282 0.69274 -0.11856
 C1738 C 0.50502 0.70936 -0.10199
 C1739 C 0.51178 0.63790 -0.08286
 C1740 C 0.50562 0.63023 -0.05993
 C1741 C 0.49724 0.64643 -0.04324
 C1742 C 0.49539 0.67007 -0.04956
 C1743 C 0.49072 0.63872 -0.02048
 C1744 C 0.49243 0.61515 -0.01427
 C1745 C 0.50089 0.59886 -0.03063
 C1746 C 0.50754 0.60657 -0.05347
 H1747 H 0.49241 0.71303 -0.06575
 H1748 H 0.52149 0.65707 -0.12533
 H1749 H 0.51783 0.69754 -0.13641
 H1750 H 0.51806 0.62548 -0.09575
 H1751 H 0.48902 0.68248 -0.03669
 H1752 H 0.48424 0.65091 -0.00749
 H1753 H 0.48730 0.60972 0.00350
 H1754 H 0.51392 0.59415 -0.06629
 C1755 C -0.00872 1.18417 0.41786
 C1756 C -0.00604 1.16088 0.42501
 C1757 C 0.00826 1.14608 0.41157
 C1758 C 0.01959 1.15486 0.39119
 C1759 C 0.01688 1.17811 0.38428
 C1760 C 0.00273 1.19286 0.39749
 C1761 C 0.01119 1.12287 0.41884
 C1762 C 0.00010 1.11430 0.43944
 C1763 C -0.01427 1.12909 0.45281
 C1764 C -0.01730 1.15226 0.44547
 C1765 C -0.02528 1.12049 0.47340
 C1766 C -0.02201 1.09748 0.48080
 C1767 C -0.00767 1.08263 0.46771
 C1768 C 0.00328 1.09119 0.44695
 H1769 H -0.01973 1.19554 0.42805
 H1770 H 0.03076 1.14384 0.38079
 H1771 H 0.02642 1.18473 0.36902
 H1772 H 0.02221 1.11154 0.40858
 H1773 H -0.02827 1.16361 0.45577
 H1774 H -0.03636 1.13156 0.48384
 H1775 H -0.03072 1.09138 0.49687
 H1776 H 0.01432 1.07995 0.43665
 C1777 C 0.75148 0.66938 0.95128
 C1778 C 0.75263 0.68085 0.92921
 C1779 C 0.77388 0.68158 0.91638
 C1780 C 0.79388 0.67215 0.92643
 C1781 C 0.79250 0.66044 0.94821
 C1782 C 0.77096 0.65769 0.96029
 C1783 C 0.77465 0.69104 0.89340
 C1784 C 0.75432 0.69945 0.88296
 C1785 C 0.73328 0.69978 0.89613
 C1786 C 0.73260 0.69059 0.91929
 C1787 C 0.71313 0.70867 0.88560
 C1788 C 0.71365 0.71633 0.86195
 C1789 C 0.73422 0.71491 0.84848
 C1790 C 0.75460 0.70689 0.85925
 H1791 H 0.73500 0.66828 0.96083
 H1792 H 0.81048 0.67320 0.91711
 H1793 H 0.80839 0.65337 0.95510
 H1794 H 0.79085 0.69109 0.88335
 H1795 H 0.71632 0.69025 0.92922
 H1796 H 0.69690 0.70924 0.89548
 H1797 H 0.69779 0.72260 0.85394
 H1798 H 0.77065 0.70617 0.84904
 C1799 C 0.23977 0.16927 0.44646
 C1800 C 0.24181 0.18341 0.42596
 C1801 C 0.26399 0.18712 0.41524
 C1802 C 0.28381 0.17786 0.42581
 C1803 C 0.28165 0.16395 0.44615
 C1804 C 0.25949 0.15837 0.45608
 C1805 C 0.26605 0.19970 0.39391
 C1806 C 0.24619 0.20856 0.38300
 C1807 C 0.22409 0.20596 0.39413
 C1808 C 0.22203 0.19341 0.41565
 C1809 C 0.20440 0.21537 0.38309
 C1810 C 0.20645 0.22618 0.36071
 C1811 C 0.22817 0.22749 0.34908
 C1812 C 0.24803 0.21924 0.36063
 H1813 H 0.22273 0.16627 0.45458
 H1814 H 0.30103 0.18119 0.41820
 H1815 H 0.29755 0.15770 0.45392
 H1816 H 0.28304 0.20203 0.38546
 H1817 H 0.20501 0.19087 0.42397
 H1818 H 0.18733 0.21375 0.39143
 H1819 H 0.19095 0.23243 0.35201
 H1820 H 0.26490 0.22047 0.35178
 C1821 C 0.75917 0.33140 0.43973
 C1822 C 0.75611 0.31920 0.41817
 C1823 C 0.73347 0.31642 0.40825
 C1824 C 0.71415 0.32414 0.42090
 C1825 C 0.71731 0.33605 0.44235
 C1826 C 0.73995 0.34137 0.45125
 C1827 C 0.73052 0.30628 0.38572
 C1828 C 0.74993 0.29866 0.37301
 C1829 C 0.77241 0.29999 0.38354
 C1830 C 0.77538 0.31034 0.40603
 C1831 C 0.79161 0.29145 0.37110
 C1832 C 0.78870 0.28244 0.34814
 C1833 C 0.76668 0.28229 0.33711
 C1834 C 0.74728 0.29013 0.34975
 H1835 H 0.77659 0.33344 0.44711
 H1836 H 0.69657 0.32139 0.41398
 H1837 H 0.70193 0.34179 0.45157
 H1838 H 0.71320 0.30478 0.37787
 H1839 H 0.79273 0.31202 0.41379
 H1840 H 0.80892 0.29210 0.37896
 H1841 H 0.80385 0.27648 0.33862
 H1842 H 0.73020 0.28979 0.34134
 C1843 C 0.26120 0.83336 0.94048
 C1844 C 0.25809 0.82077 0.91913
 C1845 C 0.23524 0.81553 0.91067
 C1846 C 0.21597 0.82113 0.92466
 C1847 C 0.21921 0.83352 0.94587
 C1848 C 0.24173 0.84138 0.95325
 C1849 C 0.23201 0.80522 0.88819
 C1850 C 0.25139 0.79980 0.87415
 C1851 C 0.27426 0.80353 0.88331
 C1852 C 0.27747 0.81408 0.90569
 C1853 C 0.29357 0.79712 0.86968
 C1854 C 0.29032 0.78780 0.84689
 C1855 C 0.26778 0.78525 0.83714
 C1856 C 0.24832 0.79106 0.85094
 H1857 H 0.27883 0.83725 0.94657
 H1858 H 0.19832 0.81656 0.91886
 H1859 H 0.20388 0.83811 0.95590
 H1860 H 0.21443 0.80186 0.88145
 H1861 H 0.29505 0.81763 0.91234
 H1862 H 0.31121 0.79962 0.87650
 H1863 H 0.30550 0.78338 0.83650
 H1864 H 0.23087 0.78884 0.84354
 C1865 C 0.23226 0.83840 0.04863
 C1866 C 0.23128 0.83260 0.07305
 C1867 C 0.23823 0.84958 0.09008
 C1868 C 0.24532 0.87209 0.08265
 C1869 C 0.24601 0.87783 0.05858
 C1870 C 0.23995 0.86113 0.04080
 C1871 C 0.23817 0.84387 0.11434
 C1872 C 0.23105 0.82131 0.12200
 C1873 C 0.22335 0.80437 0.10518
 C1874 C 0.22356 0.81008 0.08079
 C1875 C 0.21588 0.78194 0.11311
 C1876 C 0.21662 0.77619 0.13733
 C1877 C 0.22501 0.79269 0.15412
 C1878 C 0.23187 0.81538 0.14623
 H1879 H 0.22659 0.82511 0.03602
 H1880 H 0.25056 0.88537 0.09553
 H1881 H 0.25207 0.89546 0.05459
 H1882 H 0.24386 0.85695 0.12727
 H1883 H 0.21795 0.79697 0.06786
 H1884 H 0.20978 0.76872 0.10054
 H1885 H 0.21126 0.75858 0.14283
 H1886 H 0.23819 0.82841 0.15892
 C1887 C 0.73712 0.32859 0.54541
 C1888 C 0.73804 0.32010 0.56895
 C1889 C 0.74402 0.33573 0.58753
 C1890 C 0.74846 0.35946 0.58250
 C1891 C 0.74758 0.36777 0.55924
 C1892 C 0.74233 0.35261 0.53991
 C1893 C 0.74563 0.32748 0.61091
 C1894 C 0.74135 0.30366 0.61610
 C1895 C 0.73494 0.28786 0.59776
 C1896 C 0.73330 0.29618 0.57423
 C1897 C 0.73045 0.26404 0.60336
 C1898 C 0.73261 0.25598 0.62684
 C1899 C 0.73946 0.27157 0.64509
 C1900 C 0.74358 0.29546 0.63944
 H1901 H 0.73223 0.31614 0.53173
 H1902 H 0.75291 0.37169 0.59665
 H1903 H 0.75158 0.38623 0.55714
 H1904 H 0.75042 0.33961 0.62508
 H1905 H 0.72856 0.28405 0.56007
 H1906 H 0.72540 0.25164 0.58958
 H1907 H 0.72921 0.23753 0.63064
 H1908 H 0.74857 0.30787 0.65327
 C1909 C 0.25499 0.17218 0.55118
 C1910 C 0.24987 0.18136 0.57369
 C1911 C 0.23608 0.16779 0.58981
 C1912 C 0.22745 0.14544 0.58307
 C1913 C 0.23238 0.13656 0.56056
 C1914 C 0.24622 0.14972 0.54433
 C1915 C 0.23118 0.17672 0.61243
 C1916 C 0.23992 0.19907 0.61919
 C1917 C 0.25345 0.21280 0.60298
 C1918 C 0.25834 0.20387 0.58032
 C1919 C 0.26216 0.23510 0.60987
 C1920 C 0.25817 0.24344 0.63284
 C1921 C 0.24526 0.22969 0.64938
 C1922 C 0.23580 0.20764 0.64214
 H1923 H 0.26598 0.18251 0.53912
 H1924 H 0.21671 0.13487 0.59516
 H1925 H 0.22486 0.11954 0.55576
 H1926 H 0.22075 0.16618 0.62486
 H1927 H 0.26886 0.21436 0.56794
 H1928 H 0.27251 0.24591 0.59765
 H1929 H 0.26577 0.26039 0.63784
 H1930 H 0.22582 0.19673 0.65458
 C1931 C 0.76177 0.67264 0.05537
 C1932 C 0.75572 0.68172 0.07765
 C1933 C 0.74085 0.66831 0.09294
 C1934 C 0.73199 0.64627 0.08554
 C1935 C 0.73788 0.63747 0.06327
 C1936 C 0.75293 0.65042 0.04797
 C1937 C 0.73520 0.67704 0.11543
 C1938 C 0.74428 0.69902 0.12289
 C1939 C 0.75881 0.71265 0.10747
 C1940 C 0.76443 0.70394 0.08493
 C1941 C 0.76783 0.73460 0.11506
 C1942 C 0.76319 0.74261 0.13800
 C1943 C 0.74935 0.72889 0.15380
 C1944 C 0.73954 0.70727 0.14581
 H1945 H 0.77360 0.68279 0.04398
 H1946 H 0.72041 0.63584 0.09697
 H1947 H 0.73025 0.62066 0.05794
 H1948 H 0.72398 0.66660 0.12723
 H1949 H 0.77576 0.71431 0.07318
 H1950 H 0.77893 0.74533 0.10345
 H1951 H 0.77107 0.75926 0.14360
 H1952 H 0.72881 0.69642 0.15768
 C1953 C 0.14492 0.57231 0.23919
 C1954 C 0.15721 0.59401 0.24097
 C1955 C 0.17738 0.59594 0.25544
 C1956 C 0.18515 0.57618 0.26754
 C1957 C 0.17295 0.55466 0.26554
 C1958 C 0.15277 0.55228 0.25129
 C1959 C 0.18927 0.61767 0.25795
 C1960 C 0.18136 0.63752 0.24604
 C1961 C 0.16154 0.63565 0.23110
 C1962 C 0.14947 0.61388 0.22875
 C1963 C 0.15418 0.65565 0.21886
 C1964 C 0.16628 0.67731 0.22159
 C1965 C 0.18562 0.67931 0.23693
 C1966 C 0.19307 0.65925 0.24896
 H1967 H 0.12896 0.57156 0.22894
 H1968 H 0.20052 0.57742 0.27880
 H1969 H 0.17907 0.53980 0.27555
 H1970 H 0.20460 0.61917 0.26929
 H1971 H 0.13408 0.61242 0.21750
 H1972 H 0.13910 0.65454 0.20721
 H1973 H 0.16034 0.69252 0.21204
 H1974 H 0.20828 0.66047 0.26048
 C1975 C 0.64962 0.05291 0.73898
 C1976 C 0.66475 0.07281 0.73828
 C1977 C 0.68626 0.07262 0.75053
 C1978 C 0.69248 0.05214 0.76268
 C1979 C 0.67767 0.03194 0.76238
 C1980 C 0.65619 0.03186 0.75016
 C1981 C 0.70099 0.09295 0.75061
 C1982 C 0.69466 0.11319 0.73803
 C1983 C 0.67361 0.11289 0.72485
 C1984 C 0.65864 0.09283 0.72535
 C1985 C 0.66772 0.13279 0.71163
 C1986 C 0.68212 0.15317 0.71208
 C1987 C 0.70244 0.15413 0.72607
 C1988 C 0.70881 0.13388 0.73870
 H1989 H 0.63263 0.05393 0.73060
 H1990 H 0.70886 0.05171 0.77233
 H1991 H 0.68295 0.01653 0.77200
 H1992 H 0.71730 0.09304 0.76046
 H1993 H 0.64226 0.09278 0.71561
 H1994 H 0.65174 0.13273 0.70127
 H1995 H 0.67680 0.16854 0.70236
 H1996 H 0.72460 0.13439 0.74940
 C1997 C 0.85332 0.06931 0.25980
 C1998 C 0.84158 0.09024 0.25536
 C1999 C 0.82765 0.09219 0.23475
 C2000 C 0.82548 0.07327 0.21905
 C2001 C 0.83697 0.05257 0.22364
 C2002 C 0.85119 0.05016 0.24392
 C2003 C 0.81596 0.11296 0.23014
 C2004 C 0.81778 0.13187 0.24600
 C2005 C 0.83153 0.12999 0.26675
 C2006 C 0.84344 0.10924 0.27125
 C2007 C 0.83301 0.14890 0.28267
 C2008 C 0.82090 0.16939 0.27816
 C2009 C 0.80723 0.17148 0.25752
 C2010 C 0.80588 0.15257 0.24147
 H2011 H 0.86379 0.06825 0.27568
 H2012 H 0.81478 0.07442 0.20322
 H2013 H 0.83477 0.03820 0.21118
 H2014 H 0.80532 0.11436 0.21427
 H2015 H 0.85403 0.10783 0.28716
 H2016 H 0.84345 0.14781 0.29868
 H2017 H 0.82235 0.18367 0.29079
 H2018 H 0.79531 0.15379 0.22555
 C2019 C 0.34812 0.56765 0.76524
 C2020 C 0.33492 0.58780 0.76249
 C2021 C 0.31507 0.58709 0.74754
 C2022 C 0.30838 0.56602 0.73621
 C2023 C 0.32155 0.54598 0.73914
 C2024 C 0.34155 0.54639 0.75378
 C2025 C 0.30269 0.60760 0.74358
 C2026 C 0.30985 0.62880 0.75451
 C2027 C 0.32922 0.62931 0.77015
 C2028 C 0.34171 0.60885 0.77394
 C2029 C 0.33593 0.65039 0.78153
 C2030 C 0.32381 0.67088 0.77718
 C2031 C 0.30506 0.67075 0.76105
 C2032 C 0.29808 0.64956 0.74989
 H2033 H 0.36411 0.56899 0.77551
 H2034 H 0.29330 0.56520 0.72453
 H2035 H 0.31653 0.53040 0.72917
 H2036 H 0.28770 0.60715 0.73174
 H2037 H 0.35683 0.60936 0.78559
 H2038 H 0.35064 0.65106 0.79369
 H2039 H 0.32946 0.68698 0.78600
 H2040 H 0.28340 0.64921 0.73768
 C2041 C 0.34385 0.44668 0.73228
 C2042 C 0.33488 0.42345 0.73542
 C2043 C 0.33688 0.41243 0.75787
 C2044 C 0.34821 0.42450 0.77653
 C2045 C 0.35709 0.44743 0.77322
 C2046 C 0.35495 0.45873 0.75122
 C2047 C 0.32715 0.38972 0.76151
 C2048 C 0.31544 0.37771 0.74302
 C2049 C 0.31394 0.38833 0.72038
 C2050 C 0.32363 0.41116 0.71672
 C2051 C 0.30252 0.37598 0.70190
 C2052 C 0.29224 0.35359 0.70592
 C2053 C 0.29298 0.34314 0.72857
 C2054 C 0.30492 0.35533 0.74696
 H2055 H 0.34195 0.45548 0.71533
 H2056 H 0.34980 0.41635 0.79385
 H2057 H 0.36489 0.45670 0.78815
 H2058 H 0.32844 0.38150 0.77885
 H2059 H 0.32219 0.41944 0.69943
 H2060 H 0.30129 0.38376 0.68437
 H2061 H 0.28321 0.34469 0.69143
 H2062 H 0.30592 0.34747 0.76448
 C2063 C 0.84930 0.94229 0.24251
 C2064 C 0.83452 0.92192 0.24316
 C2065 C 0.81311 0.92226 0.25570
 C2066 C 0.80632 0.94308 0.26640
 C2067 C 0.82043 0.96349 0.26464
 C2068 C 0.84226 0.96347 0.25296
 C2069 C 0.79866 0.90187 0.25721
 C2070 C 0.80482 0.88127 0.24554
 C2071 C 0.82556 0.88115 0.23187
 C2072 C 0.84050 0.90135 0.23109
 C2073 C 0.83100 0.86075 0.21932
 C2074 C 0.81635 0.84053 0.22080
 C2075 C 0.79632 0.84019 0.23526
 C2076 C 0.79056 0.86073 0.24742
 H2077 H 0.86557 0.94188 0.23269
 H2078 H 0.78991 0.94366 0.27600
 H2079 H 0.81451 0.97910 0.27339
 H2080 H 0.78249 0.90210 0.26730
 H2081 H 0.85664 0.90112 0.22098
 H2082 H 0.84670 0.86036 0.20857
 H2083 H 0.82118 0.82484 0.21143
 H2084 H 0.77502 0.86064 0.25848
 C2085 C 0.65525 0.93176 0.76474
 C2086 C 0.65962 0.90754 0.76291
 C2087 C 0.64846 0.89400 0.74486
 C2088 C 0.63202 0.90433 0.73012
 C2089 C 0.62688 0.92788 0.73290
 C2090 C 0.63890 0.94212 0.74956
 C2091 C 0.65370 0.87030 0.74190
 C2092 C 0.66925 0.85950 0.75737
 C2093 C 0.67915 0.87246 0.77652
 C2094 C 0.67465 0.89651 0.77891
 C2095 C 0.69363 0.86116 0.79276
 C2096 C 0.69902 0.83760 0.78951
 C2097 C 0.69050 0.82504 0.76968
 C2098 C 0.67533 0.83602 0.75382
 H2099 H 0.66406 0.94235 0.77822
 H2100 H 0.62285 0.89408 0.71660
 H2101 H 0.61349 0.93494 0.72173
 H2102 H 0.64559 0.86023 0.72757
 H2103 H 0.68278 0.90657 0.79320
 H2104 H 0.70118 0.87067 0.80771
 H2105 H 0.71097 0.82957 0.80180
 H2106 H 0.66866 0.82643 0.73850
 C2107 C 0.14930 0.44517 0.26220
 C2108 C 0.16053 0.42373 0.25970
 C2109 C 0.17579 0.42060 0.24025
 C2110 C 0.17985 0.43894 0.22394
 C2111 C 0.16904 0.46030 0.22687
 C2112 C 0.15368 0.46358 0.24591
 C2113 C 0.18693 0.39929 0.23747
 C2114 C 0.18346 0.38115 0.25411
 C2115 C 0.16864 0.38426 0.27384
 C2116 C 0.15705 0.40550 0.27641
 C2117 C 0.16588 0.36610 0.29069
 C2118 C 0.17766 0.34509 0.28796
 C2119 C 0.19207 0.34169 0.26811
 C2120 C 0.19484 0.35997 0.25132
 H2121 H 0.13761 0.44775 0.27707
 H2122 H 0.19152 0.43680 0.20899
 H2123 H 0.17246 0.47425 0.21407
 H2124 H 0.19850 0.39690 0.22245
 H2125 H 0.14556 0.40791 0.29147
 H2126 H 0.15471 0.36821 0.30604
 H2127 H 0.17539 0.33148 0.30132
 H2128 H 0.20613 0.35789 0.23604
 C2129 C 0.05927 0.25125 0.85607
 C2130 C 0.07936 0.25228 0.84181
 C2131 C 0.07714 0.25504 0.81698
 C2132 C 0.05488 0.25624 0.80682
 C2133 C 0.03490 0.25451 0.82105
 C2134 C 0.03677 0.25224 0.84597
 C2135 C 0.09716 0.25609 0.80263
 C2136 C 0.11935 0.25375 0.81276
 C2137 C 0.12158 0.25048 0.83757
 C2138 C 0.10158 0.25010 0.85199
 C2139 C 0.14376 0.24737 0.84749
 C2140 C 0.16355 0.24738 0.83293
 C2141 C 0.16149 0.25094 0.80833
 C2142 C 0.13934 0.25427 0.79837
 H2143 H 0.06105 0.24912 0.87513
 H2144 H 0.05288 0.25804 0.78776
 H2145 H 0.01825 0.25458 0.81207
 H2146 H 0.09545 0.25832 0.78357
 H2147 H 0.10327 0.24771 0.87104
 H2148 H 0.14579 0.24478 0.86645
 H2149 H 0.18053 0.24495 0.84095
 H2150 H 0.13761 0.25678 0.77935
 C2151 C 0.55700 0.75377 0.35344
 C2152 C 0.57775 0.75506 0.34033
 C2153 C 0.57759 0.76406 0.31693
 C2154 C 0.55666 0.77175 0.30716
 C2155 C 0.53589 0.76999 0.32022
 C2156 C 0.53569 0.76045 0.34335
 C2157 C 0.59830 0.76506 0.30363
 C2158 C 0.61904 0.75677 0.31335
 C2159 C 0.61917 0.74767 0.33675
 C2160 C 0.59855 0.74708 0.35019
 C2161 C 0.63987 0.73908 0.34623
 C2162 C 0.66028 0.73937 0.33260
 C2163 C 0.66033 0.74845 0.30935
 C2164 C 0.63962 0.75722 0.29990
 H2165 H 0.55727 0.74704 0.37148
 H2166 H 0.55630 0.77898 0.28934
 H2167 H 0.52029 0.77635 0.31199
 H2168 H 0.59821 0.77198 0.28565
 H2169 H 0.59861 0.74009 0.36814
 H2170 H 0.64026 0.73204 0.36413
 H2171 H 0.67606 0.73265 0.34034
 H2172 H 0.63938 0.76415 0.28194
 C2173 C 0.56069 0.25939 0.15370
 C2174 C 0.58140 0.25756 0.16656
 C2175 C 0.58068 0.25622 0.19161
 C2176 C 0.55905 0.25696 0.20328
 C2177 C 0.53830 0.25836 0.19023
 C2178 C 0.53887 0.25919 0.16520
 C2179 C 0.60156 0.25403 0.20444
 C2180 C 0.62303 0.25314 0.19240
 C2181 C 0.62352 0.25448 0.16727
 C2182 C 0.60274 0.25665 0.15456
 C2183 C 0.64484 0.25390 0.15516
 C2184 C 0.66565 0.25271 0.16780
 C2185 C 0.66547 0.25172 0.19273
 C2186 C 0.64410 0.25144 0.20501
 H2187 H 0.56142 0.26018 0.13445
 H2188 H 0.55815 0.25610 0.22250
 H2189 H 0.52209 0.25848 0.20000
 H2190 H 0.60110 0.25306 0.22368
 H2191 H 0.60318 0.25766 0.13531
 H2192 H 0.64547 0.25482 0.13593
 H2193 H 0.68202 0.25279 0.15808
 H2194 H 0.64397 0.25089 0.22427
 C2195 C 0.05886 0.74884 0.65587
 C2196 C 0.07954 0.74846 0.66894
 C2197 C 0.07870 0.74658 0.69394
 C2198 C 0.05687 0.74526 0.70536
 C2199 C 0.03613 0.74523 0.69207
 C2200 C 0.03693 0.74679 0.66708
 C2201 C 0.09967 0.74579 0.70692
 C2202 C 0.12132 0.74681 0.69504
 C2203 C 0.12184 0.74868 0.66994
 C2204 C 0.10101 0.74949 0.65712
 C2205 C 0.14322 0.74991 0.65791
 C2206 C 0.16404 0.74990 0.67059
 C2207 C 0.16391 0.74835 0.69552
 C2208 C 0.14250 0.74637 0.70772
 H2209 H 0.05976 0.74992 0.63664
 H2210 H 0.05583 0.74383 0.72454
 H2211 H 0.01976 0.74352 0.70155
 H2212 H 0.09914 0.74437 0.72613
 H2213 H 0.10152 0.75090 0.63788
 H2214 H 0.14386 0.75126 0.63871
 H2215 H 0.18038 0.75129 0.66084
 H2216 H 0.14234 0.74535 0.72696
 C2217 C 0.93907 0.75220 0.66892
 C2218 C 0.91526 0.75022 0.67460
 C2219 C 0.90091 0.73243 0.66399
 C2220 C 0.91060 0.71721 0.64743
 C2221 C 0.93431 0.71958 0.64158
 C2222 C 0.94864 0.73691 0.65246
 C2223 C 0.87718 0.73010 0.67017
 C2224 C 0.86768 0.74541 0.68676
 C2225 C 0.88201 0.76352 0.69688
 C2226 C 0.90568 0.76580 0.69074
 C2227 C 0.87256 0.77889 0.71332
 C2228 C 0.84931 0.77594 0.72030
 C2229 C 0.83499 0.75758 0.71097
 C2230 C 0.84419 0.74263 0.69379
 H2231 H 0.95008 0.76588 0.67698
 H2232 H 0.89988 0.70354 0.63904
 H2233 H 0.94154 0.70766 0.62878
 H2234 H 0.86621 0.71629 0.66228
 H2235 H 0.91668 0.77955 0.69872
 H2236 H 0.88327 0.79294 0.72109
 H2237 H 0.84266 0.78790 0.73340
 H2238 H 0.83336 0.72842 0.68645
 C2239 C 0.44183 0.26539 0.17202
 C2240 C 0.41833 0.26302 0.17873
 C2241 C 0.40288 0.24771 0.16601
 C2242 C 0.41128 0.23513 0.14663
 C2243 C 0.43475 0.23770 0.13997
 C2244 C 0.45014 0.25277 0.15267
 C2245 C 0.37937 0.24523 0.17291
 C2246 C 0.37118 0.25789 0.19234
 C2247 C 0.38669 0.27331 0.20487
 C2248 C 0.41013 0.27578 0.19799
 C2249 C 0.37857 0.28598 0.22422
 C2250 C 0.35533 0.28328 0.23132
 C2251 C 0.33971 0.26785 0.21919
 C2252 C 0.34776 0.25529 0.19956
 H2253 H 0.45359 0.27731 0.18163
 H2254 H 0.39973 0.22330 0.13668
 H2255 H 0.44095 0.22762 0.12510
 H2256 H 0.36752 0.23343 0.16324
 H2257 H 0.42200 0.28755 0.20768
 H2258 H 0.39022 0.29790 0.23396
 H2259 H 0.34966 0.29329 0.24646
 H2260 H 0.33593 0.24335 0.19005
 C2261 C 0.43949 0.75040 0.33174
 C2262 C 0.41646 0.75293 0.32407
 C2263 C 0.40077 0.76556 0.33819
 C2264 C 0.40837 0.77541 0.35972
 C2265 C 0.43137 0.77284 0.36716
 C2266 C 0.44701 0.76037 0.35327
 C2267 C 0.37780 0.76830 0.33052
 C2268 C 0.37034 0.75863 0.30888
 C2269 C 0.38596 0.74593 0.29476
 C2270 C 0.40895 0.74312 0.30248
 C2271 C 0.37830 0.73632 0.27314
 C2272 C 0.35536 0.73931 0.26554
 C2273 C 0.33977 0.75199 0.27946
 C2274 C 0.34744 0.76156 0.30115
 H2275 H 0.45151 0.74057 0.32108
 H2276 H 0.39662 0.78525 0.37067
 H2277 H 0.43706 0.78112 0.38346
 H2278 H 0.36577 0.77802 0.34131
 H2279 H 0.42099 0.73343 0.29168
 H2280 H 0.39003 0.72653 0.26210
 H2281 H 0.34988 0.73174 0.24872
 H2282 H 0.33558 0.77126 0.31214
 C2283 C 0.94367 0.24761 0.83714
 C2284 C 0.92049 0.24863 0.82960
 C2285 C 0.90225 0.24952 0.84641
 C2286 C 0.90767 0.24920 0.87061
 C2287 C 0.93094 0.24823 0.87809
 C2288 C 0.94954 0.24790 0.86148
 C2289 C 0.87895 0.25033 0.83869
 C2290 C 0.87382 0.24996 0.81432
 C2291 C 0.89228 0.24904 0.79759
 C2292 C 0.91542 0.24852 0.80533
 C2293 C 0.88734 0.24826 0.77330
 C2294 C 0.86427 0.24778 0.76556
 C2295 C 0.84575 0.24837 0.78194
 C2296 C 0.85057 0.24994 0.80632
 H2297 H 0.95688 0.24583 0.82360
 H2298 H 0.89390 0.24965 0.88383
 H2299 H 0.93372 0.24804 0.89699
 H2300 H 0.86487 0.25090 0.85158
 H2301 H 0.92949 0.24777 0.79243
 H2302 H 0.90130 0.24764 0.76030
 H2303 H 0.86089 0.24687 0.74664
 H2304 H 0.83630 0.25032 0.81899
 C2305 C 0.57685 1.00058 0.69825
 C2306 C 0.56721 0.99931 0.67533
 C2307 C 0.57601 0.98306 0.65890
 C2308 C 0.59404 0.96838 0.66554
 C2309 C 0.60402 0.97039 0.68802
 C2310 C 0.59541 0.98627 0.70450
 C2311 C 0.56751 0.98246 0.63568
 C2312 C 0.55080 0.99830 0.62837
 C2313 C 0.54164 1.01443 0.64460
 C2314 C 0.54977 1.01468 0.66818
 C2315 C 0.52485 1.03019 0.63674
 C2316 C 0.51756 1.03012 0.61291
 C2317 C 0.52712 1.01440 0.59668
 C2318 C 0.54352 0.99841 0.60476
 H2319 H 0.57086 1.01347 0.71080
 H2320 H 0.60123 0.95620 0.65296
 H2321 H 0.61937 0.96053 0.69198
 H2322 H 0.57448 0.97015 0.62305
 H2323 H 0.54304 1.02721 0.68071
 H2324 H 0.51753 1.04264 0.64893
 H2325 H 0.50473 1.04246 0.60714
 H2326 H 0.55074 0.98581 0.59263
 C2327 C 0.07754 0.51285 1.20339
 C2328 C 0.06749 0.50783 1.18120
 C2329 C 0.07152 0.48606 1.17021
 C2330 C 0.08451 0.46925 1.18220
 C2331 C 0.09482 0.47459 1.20415
 C2332 C 0.09213 0.49674 1.21444
 C2333 C 0.06338 0.48188 1.14705
 C2334 C 0.05151 0.49930 1.13471
 C2335 C 0.04664 0.52068 1.14610
 C2336 C 0.05457 0.52476 1.16934
 C2337 C 0.03434 0.53784 1.13386
 C2338 C 0.02732 0.53407 1.11036
 C2339 C 0.03281 0.51325 1.09865
 C2340 C 0.04475 0.49584 1.11100
 H2341 H 0.07521 0.52990 1.21141
 H2342 H 0.08763 0.45241 1.17411
 H2343 H 0.10613 0.46198 1.21226
 H2344 H 0.06690 0.46539 1.13838
 H2345 H 0.05134 0.54138 1.17788
 H2346 H 0.03034 0.55426 1.14238
 H2347 H 0.01801 0.54762 1.10116
 H2348 H 0.04866 0.47954 1.10217
 C2349 C -0.07791 -0.00476 1.20024
 C2350 C -0.06884 -0.01042 1.17780
 C2351 C -0.08341 -0.02234 1.16109
 C2352 C -0.10622 -0.02967 1.16758
 C2353 C -0.11501 -0.02407 1.18993
 C2354 C -0.10117 -0.01109 1.20609
 C2355 C -0.07531 -0.02591 1.13788
 C2356 C -0.05281 -0.01777 1.13114
 C2357 C -0.03770 -0.00717 1.14821
 C2358 C -0.04583 -0.00351 1.17144
 C2359 C -0.01494 0.00022 1.14152
 C2360 C -0.00759 -0.00187 1.11791
 C2361 C -0.02300 -0.01101 1.10057
 C2362 C -0.04544 -0.01939 1.10741
 H2363 H -0.06732 0.00548 1.21270
 H2364 H -0.11754 -0.03897 1.15506
 H2365 H -0.13306 -0.02879 1.19418
 H2366 H -0.08677 -0.03438 1.12488
 H2367 H -0.03451 0.00531 1.18432
 H2368 H -0.00303 0.00814 1.15440
 H2369 H 0.00977 0.00467 1.11299
 H2370 H -0.05732 -0.02672 1.09413
 C2371 C 0.41834 0.49419 0.70133
 C2372 C 0.43452 0.49735 0.68254
 C2373 C 0.44355 0.52021 0.67711
 C2374 C 0.43743 0.53921 0.69118
 C2375 C 0.42137 0.53597 0.70957
 C2376 C 0.41099 0.51368 0.71428
 C2377 C 0.45785 0.52398 0.65716
 C2378 C 0.46315 0.50526 0.64231
 C2379 C 0.45530 0.48216 0.64829
 C2380 C 0.44107 0.47832 0.66845
 C2381 C 0.46105 0.46347 0.63339
 C2382 C 0.47331 0.46784 0.61220
 C2383 C 0.47997 0.49090 0.60565
 C2384 C 0.47529 0.50947 0.62097
 H2385 H 0.41054 0.47693 0.70495
 H2386 H 0.44451 0.55675 0.68750
 H2387 H 0.41658 0.55114 0.71980
 H2388 H 0.46413 0.54164 0.65271
 H2389 H 0.43444 0.46072 0.67264
 H2390 H 0.45531 0.44563 0.63767
 H2391 H 0.47641 0.45340 0.60028
 H2392 H 0.48030 0.52730 0.61578
 C2393 C 0.41680 0.52145 -0.19362
 C2394 C 0.43146 0.51754 -0.17405
 C2395 C 0.43592 0.49426 -0.16711
 C2396 C 0.42684 0.47541 -0.18063
 C2397 C 0.41263 0.47949 -0.20032
 C2398 C 0.40679 0.50243 -0.20650
 C2399 C 0.44897 0.49017 -0.14649
 C2400 C 0.45775 0.50907 -0.13282
 C2401 C 0.45450 0.53239 -0.14046
 C2402 C 0.44128 0.53649 -0.16103
 C2403 C 0.46396 0.55116 -0.12694
 C2404 C 0.47551 0.54688 -0.10547
 C2405 C 0.47747 0.52381 -0.09714
 C2406 C 0.46907 0.50498 -0.11119
 H2407 H 0.41298 0.53929 -0.19868
 H2408 H 0.43042 0.45747 -0.17576
 H2409 H 0.40560 0.46459 -0.21020
 H2410 H 0.45183 0.47229 -0.14080
 H2411 H 0.43819 0.55437 -0.16657
 H2412 H 0.46184 0.56915 -0.13264
 H2413 H 0.48184 0.56158 -0.09480
 H2414 H 0.47075 0.48711 -0.10486
 C2415 C -0.08103 1.01193 0.30259
 C2416 C -0.07022 1.00634 0.32425
 C2417 C -0.07480 0.98407 0.33474
 C2418 C -0.08938 0.96752 0.32297
 C2419 C -0.10006 0.97324 0.30145
 C2420 C -0.09643 0.99561 0.29130
 C2421 C -0.06516 0.97888 0.35702
 C2422 C -0.05094 0.99565 0.36897
 C2423 C -0.04568 1.01762 0.35815
 C2424 C -0.05537 1.02285 0.33586
 C2425 C -0.03105 1.03411 0.36999
 C2426 C -0.02209 1.02909 0.39254
 C2427 C -0.02783 1.00760 0.40380
 C2428 C -0.04213 0.99087 0.39173
 H2429 H -0.07783 1.02915 0.29476
 H2430 H -0.09300 0.95034 0.33072
 H2431 H -0.11199 0.96045 0.29331
 H2432 H -0.06901 0.96192 0.36522
 H2433 H -0.05167 1.03987 0.32774
 H2434 H -0.02672 1.05100 0.36191
 H2435 H -0.01114 1.04225 0.40142
 H2436 H -0.04645 0.97410 0.40007
 C2437 C 0.08295 0.49159 0.30445
 C2438 C 0.07508 0.48715 0.32776
 C2439 C 0.09163 0.48444 0.34622
 C2440 C 0.11560 0.48532 0.34100
 C2441 C 0.12322 0.49024 0.31797
 C2442 C 0.10702 0.49393 0.29977
 C2443 C 0.08408 0.48200 0.36976
 C2444 C 0.06025 0.48280 0.37526
 C2445 C 0.04354 0.48460 0.35689
 C2446 C 0.05106 0.48655 0.33317
 C2447 C 0.01968 0.48522 0.36271
 C2448 C 0.01258 0.48510 0.38652
 C2449 C 0.02925 0.48449 0.40485
 C2450 C 0.05300 0.48272 0.39900
 H2451 H 0.07051 0.49462 0.29032
 H2452 H 0.12847 0.48315 0.35491
 H2453 H 0.14185 0.49196 0.31444
 H2454 H 0.09685 0.48047 0.38390
 H2455 H 0.03832 0.48849 0.31908
 H2456 H 0.00658 0.48641 0.34888
 H2457 H -0.00585 0.48633 0.39061
 H2458 H 0.06599 0.48182 0.41300
 C2459 C 0.57700 0.00712 -0.20018
 C2460 C 0.56270 0.00320 -0.18017
 C2461 C 0.55911 -0.01984 -0.17114
 C2462 C 0.56919 -0.03867 -0.18288
 C2463 C 0.58345 -0.03461 -0.20276
 C2464 C 0.58788 -0.01167 -0.21127
 C2465 C 0.54622 -0.02356 -0.15010
 C2466 C 0.53731 -0.00444 -0.13775
 C2467 C 0.54029 0.01851 -0.14731
 C2468 C 0.55268 0.02212 -0.16858
 C2469 C 0.53185 0.03769 -0.13485
 C2470 C 0.52185 0.03442 -0.11245
 C2471 C 0.51956 0.01190 -0.10241
 C2472 C 0.52662 -0.00764 -0.11537
 H2473 H 0.58006 0.02484 -0.20682
 H2474 H 0.56659 -0.05647 -0.17629
 H2475 H 0.59177 -0.04937 -0.21089
 H2476 H 0.54393 -0.04117 -0.14289
 H2477 H 0.55536 0.03978 -0.17557
 H2478 H 0.53396 0.05535 -0.14192
 H2479 H 0.51670 0.04963 -0.10246
 H2480 H 0.52523 -0.02498 -0.10737
 C2481 C 0.69908 0.60226 -0.01258
 C2482 C 0.67820 0.58871 -0.01079
 C2483 C 0.67708 0.56899 0.00448
 C2484 C 0.69708 0.56291 0.01726
 C2485 C 0.71798 0.57632 0.01506
 C2486 C 0.71924 0.59620 0.00021
 C2487 C 0.65598 0.55578 0.00677
 C2488 C 0.63610 0.56194 -0.00623
 C2489 C 0.63743 0.58133 -0.02196
 C2490 C 0.65842 0.59468 -0.02401
 C2491 C 0.61768 0.58710 -0.03529
 C2492 C 0.59665 0.57400 -0.03285
 C2493 C 0.59492 0.55508 -0.01682
 C2494 C 0.61484 0.54907 -0.00367
 H2495 H 0.69933 0.61784 -0.02366
 H2496 H 0.69659 0.54774 0.02894
 H2497 H 0.73317 0.57091 0.02486
 H2498 H 0.65502 0.54078 0.01869
 H2499 H 0.65937 0.60972 -0.03589
 H2500 H 0.61845 0.60184 -0.04752
 H2501 H 0.58159 0.57901 -0.04313
 H2502 H 0.61383 0.53433 0.00857
 C2503 C 0.18966 1.09869 0.48509
 C2504 C 0.16974 1.08366 0.48745
 C2505 C 0.17030 1.06417 0.50296
 C2506 C 0.19100 1.05975 0.51537
 C2507 C 0.21093 1.07454 0.51255
 C2508 C 0.21057 1.09430 0.49751
 C2509 C 0.15018 1.04946 0.50581
 C2510 C 0.12960 1.05384 0.49306
 C2511 C 0.12930 1.07301 0.47706
 C2512 C 0.14927 1.08789 0.47452
 C2513 C 0.10896 1.07703 0.46390
 C2514 C 0.08896 1.06242 0.46674
 C2515 C 0.08875 1.04366 0.48302
 C2516 C 0.10927 1.03943 0.49607
 H2517 H 0.18858 1.11402 0.47380
 H2518 H 0.19183 1.04475 0.52718
 H2519 H 0.22666 1.07021 0.52203
 H2520 H 0.15054 1.03464 0.51793
 H2521 H 0.14890 1.10274 0.46243
 H2522 H 0.10848 1.09157 0.45148
 H2523 H 0.07345 1.06616 0.45655
 H2524 H 0.10946 1.02491 0.50855
 C2525 C 0.19452 -0.08520 1.01042
 C2526 C 0.17487 -0.07092 1.00998
 C2527 C 0.17019 -0.05760 0.98935
 C2528 C 0.18542 -0.05826 0.96986
 C2529 C 0.20440 -0.07298 0.97020
 C2530 C 0.20885 -0.08687 0.99021
 C2531 C 0.14981 -0.04469 0.98800
 C2532 C 0.13357 -0.04546 1.00667
 C2533 C 0.13835 -0.05822 1.02757
 C2534 C 0.15917 -0.07064 1.02924
 C2535 C 0.12177 -0.05901 1.04602
 C2536 C 0.10021 -0.04827 1.04329
 C2537 C 0.09491 -0.03643 1.02211
 C2538 C 0.11210 -0.03452 1.00420
 H2539 H 0.19778 -0.09614 1.02578
 H2540 H 0.18210 -0.04811 0.95398
 H2541 H 0.21530 -0.07405 0.95452
 H2542 H 0.14610 -0.03487 0.97198
 H2543 H 0.16266 -0.08082 1.04509
 H2544 H 0.12514 -0.06860 1.06225
 H2545 H 0.08736 -0.05003 1.05738
 H2546 H 0.10844 -0.02526 0.98783
 C2547 C 0.69475 0.41044 0.51466
 C2548 C 0.67589 0.42576 0.51503
 C2549 C 0.67343 0.44216 0.49633
 C2550 C 0.69009 0.44349 0.47806
 C2551 C 0.70830 0.42783 0.47750
 C2552 C 0.71053 0.41094 0.49546
 C2553 C 0.65383 0.45628 0.49553
 C2554 C 0.63626 0.45388 0.51283
 C2555 C 0.63886 0.43802 0.53192
 C2556 C 0.65881 0.42421 0.53305
 C2557 C 0.62107 0.43577 0.54911
 C2558 C 0.60053 0.44837 0.54686
 C2559 C 0.59738 0.46346 0.52738
 C2560 C 0.61569 0.46650 0.51077
 H2561 H 0.69628 0.39716 0.52837
 H2562 H 0.68848 0.45599 0.46364
 H2563 H 0.72027 0.42833 0.46257
 H2564 H 0.65183 0.46851 0.48092
 H2565 H 0.66061 0.41170 0.54744
 H2566 H 0.62278 0.42380 0.56396
 H2567 H 0.58678 0.44567 0.55993
 H2568 H 0.61370 0.47824 0.49577
 C2569 C -0.19338 0.40721 0.48010
 C2570 C -0.17152 0.41814 0.48525
 C2571 C -0.16491 0.42206 0.50914
 C2572 C -0.18038 0.41516 0.52742
 C2573 C -0.20194 0.40399 0.52215
 C2574 C -0.20864 0.39962 0.49850
 C2575 C -0.14284 0.43244 0.51438
 C2576 C -0.12713 0.43869 0.49602
 C2577 C -0.13379 0.43485 0.47212
 C2578 C -0.15598 0.42478 0.46688
 C2579 C -0.11802 0.44088 0.45384
 C2580 C -0.09574 0.45038 0.45911
 C2581 C -0.08874 0.45421 0.48279
 C2582 C -0.10473 0.44843 0.50118
 H2583 H -0.19835 0.40448 0.46172
 H2584 H -0.17560 0.41798 0.54585
 H2585 H -0.21299 0.39811 0.53672
 H2586 H -0.13776 0.43533 0.53274
 H2587 H -0.16101 0.42175 0.44853
 H2588 H -0.12284 0.43807 0.43542
 H2589 H -0.08394 0.45467 0.44455
 H2590 H -0.09968 0.45118 0.51955
 C2591 C 0.30469 -0.08721 -0.02255
 C2592 C 0.32572 -0.07436 -0.01823
 C2593 C 0.33195 -0.06829 0.00531
 C2594 C 0.31695 -0.07492 0.02405
 C2595 C 0.29622 -0.08792 0.01962
 C2596 C 0.28992 -0.09445 -0.00361
 C2597 C 0.35323 -0.05603 0.00980
 C2598 C 0.36853 -0.04997 -0.00894
 C2599 C 0.36223 -0.05585 -0.03252
 C2600 C 0.34081 -0.06788 -0.03704
 C2601 C 0.37765 -0.04989 -0.05115
 C2602 C 0.39927 -0.03855 -0.04647
 C2603 C 0.40591 -0.03283 -0.02307
 C2604 C 0.39021 -0.03845 -0.00440
 H2605 H 0.29995 -0.09167 -0.04065
 H2606 H 0.32147 -0.07045 0.04222
 H2607 H 0.28554 -0.09347 0.03455
 H2608 H 0.35804 -0.05152 0.02791
 H2609 H 0.33606 -0.07252 -0.05513
 H2610 H 0.37310 -0.05424 -0.06934
 H2611 H 0.41089 -0.03447 -0.06123
 H2612 H 0.39496 -0.03421 0.01377
 C2613 C 0.31294 1.09933 0.51672
 C2614 C 0.33189 1.08416 0.51634
 C2615 C 0.32948 1.06226 0.50465
 C2616 C 0.30773 1.05537 0.49478
 C2617 C 0.28898 1.07055 0.49530
 C2618 C 0.29160 1.09280 0.50574
 C2619 C 0.34900 1.04803 0.50228
 C2620 C 0.37090 1.05532 0.51163
 C2621 C 0.37293 1.07664 0.52441
 C2622 C 0.35349 1.09095 0.52658
 C2623 C 0.39453 1.08354 0.53447
 C2624 C 0.41413 1.06985 0.53140
 C2625 C 0.41272 1.04917 0.51784
 C2626 C 0.39091 1.04188 0.50812
 H2627 H 0.31512 1.11669 0.52443
 H2628 H 0.30549 1.03861 0.48587
 H2629 H 0.27279 1.06547 0.48638
 H2630 H 0.34726 1.03153 0.49277
 H2631 H 0.35530 1.10759 0.53583
 H2632 H 0.39636 1.09972 0.54448
 H2633 H 0.43067 1.07589 0.53902
 H2634 H 0.38956 1.02584 0.49783
 C2635 C -0.17820 0.59903 1.02192
 C2636 C -0.16010 0.58298 1.02196
 C2637 C -0.16421 0.56014 1.01271
 C2638 C -0.18684 0.55332 1.00507
 C2639 C -0.20480 0.56943 1.00518
 C2640 C -0.20037 0.59253 1.01291
 C2641 C -0.14548 0.54492 1.01039
 C2642 C -0.12275 0.55222 1.01738
 C2643 C -0.11906 0.57457 1.02794
 C2644 C -0.13770 0.58980 1.03006
 C2645 C -0.09663 0.58158 1.03577
 C2646 C -0.07784 0.56694 1.03261
 C2647 C -0.08096 0.54518 1.02113
 C2648 C -0.10354 0.53779 1.01368
 H2649 H -0.17473 0.61700 1.02760
 H2650 H -0.19040 0.53585 0.99809
 H2651 H -0.22173 0.56433 0.99782
 H2652 H -0.14848 0.52767 1.00265
 H2653 H -0.13463 0.60720 1.03748
 H2654 H -0.09355 0.59855 1.04408
 H2655 H -0.06060 0.57299 1.03846
 H2656 H -0.10610 0.52091 1.00504
 C2657 C 0.00575 0.67765 0.61113
 C2658 C 0.00546 0.65833 0.59598
 C2659 C -0.00405 0.66019 0.57292
 C2660 C -0.01303 0.68161 0.56543
 C2661 C -0.01217 0.70107 0.58056
 C2662 C -0.00256 0.69928 0.60344
 C2663 C -0.00429 0.64066 0.55779
 C2664 C 0.00517 0.61951 0.56546
 C2665 C 0.01496 0.61795 0.58848
 C2666 C 0.01487 0.63729 0.60362
 C2667 C 0.02465 0.59702 0.59608
 C2668 C 0.02435 0.57758 0.58119
 C2669 C 0.01426 0.57865 0.55843
 C2670 C 0.00486 0.59981 0.55058
 H2671 H 0.01254 0.67576 0.62898
 H2672 H -0.02035 0.68340 0.54779
 H2673 H -0.01853 0.71760 0.57413
 H2674 H -0.01170 0.64194 0.54012
 H2675 H 0.02229 0.63601 0.62131
 H2676 H 0.03228 0.59562 0.61364
 H2677 H 0.03165 0.56152 0.58778
 H2678 H -0.00292 0.60091 0.53307
 C2679 C 0.50092 0.19341 0.10888
 C2680 C 0.49894 0.17432 0.09354
 C2681 C 0.49048 0.17740 0.07018
 C2682 C 0.48395 0.19978 0.06273
 C2683 C 0.48637 0.21895 0.07815
 C2684 C 0.49523 0.21589 0.10118
 C2685 C 0.48903 0.15813 0.05472
 C2686 C 0.49631 0.13605 0.06234
 C2687 C 0.50479 0.13325 0.08578
 C2688 C 0.50582 0.15230 0.10125
 C2689 C 0.51237 0.11145 0.09342
 C2690 C 0.51168 0.09247 0.07800
 C2691 C 0.50325 0.09487 0.05465
 C2692 C 0.49546 0.11674 0.04693
 H2693 H 0.50708 0.19073 0.12687
 H2694 H 0.47739 0.20253 0.04492
 H2695 H 0.48190 0.23621 0.07187
 H2696 H 0.48257 0.16038 0.03676
 H2697 H 0.51237 0.15008 0.11919
 H2698 H 0.51888 0.10907 0.11132
 H2699 H 0.51755 0.07578 0.08455
 H2700 H 0.48894 0.11877 0.02898
 C2701 C -0.00634 0.17983 0.89605
 C2702 C -0.00856 0.15981 0.91039
 C2703 C -0.00917 0.16220 0.93541
 C2704 C -0.00850 0.18464 0.94559
 C2705 C -0.00675 0.20452 0.93110
 C2706 C -0.00524 0.20214 0.90638
 C2707 C -0.01013 0.14214 0.94982
 C2708 C -0.01068 0.11979 0.93951
 C2709 C -0.01110 0.11743 0.91449
 C2710 C -0.00994 0.13748 0.90008
 C2711 C -0.01223 0.09502 0.90430
 C2712 C -0.01218 0.07511 0.91876
 C2713 C -0.01073 0.07736 0.94356
 C2714 C -0.01036 0.09974 0.95386
 H2715 H -0.00553 0.17815 0.87688
 H2716 H -0.00913 0.18679 0.96469
 H2717 H -0.00597 0.22177 0.93918
 H2718 H -0.01012 0.14393 0.96901
 H2719 H -0.00980 0.13570 0.88089
 H2720 H -0.01274 0.09290 0.88518
 H2721 H -0.01243 0.05795 0.91049
 H2722 H -0.00954 0.10153 0.97303
 C2723 C 0.50686 0.69737 0.40867
 C2724 C 0.50354 0.67583 0.42020
 C2725 C 0.48119 0.66436 0.42025
 C2726 C 0.46231 0.67523 0.40928
 C2727 C 0.46577 0.69699 0.39797
 C2728 C 0.48816 0.70786 0.39727
 C2729 C 0.47821 0.64226 0.43113
 C2730 C 0.49727 0.63180 0.44218
 C2731 C 0.51940 0.64379 0.44262
 C2732 C 0.52241 0.66560 0.43150
 C2733 C 0.53829 0.63381 0.45418
 C2734 C 0.53538 0.61208 0.46526
 C2735 C 0.51366 0.59980 0.46462
 C2736 C 0.49463 0.60961 0.45293
 H2737 H 0.52407 0.70604 0.40848
 H2738 H 0.44501 0.66682 0.40926
 H2739 H 0.45117 0.70500 0.38920
 H2740 H 0.46117 0.63326 0.43101
 H2741 H 0.53946 0.67461 0.43161
 H2742 H 0.55530 0.64283 0.45470
 H2743 H 0.55028 0.60467 0.47408
 H2744 H 0.47782 0.60021 0.45260
 C2745 C 0.50932 0.80256 0.42295
 C2746 C 0.50462 0.82203 0.43696
 C2747 C 0.48148 0.82591 0.44437
 C2748 C 0.46370 0.80933 0.43879
 C2749 C 0.46840 0.79041 0.42399
 C2750 C 0.49100 0.78768 0.41460
 C2751 C 0.47634 0.84683 0.45607
 C2752 C 0.49392 0.86436 0.45922
 C2753 C 0.51723 0.86000 0.45234
 C2754 C 0.52253 0.83860 0.44198
 C2755 C 0.53470 0.87763 0.45463
 C2756 C 0.52894 0.89983 0.46234
 C2757 C 0.50580 0.90462 0.46847
 C2758 C 0.48844 0.88664 0.46781
 H2759 H 0.52719 0.79996 0.41747
 H2760 H 0.44591 0.81164 0.44479
 H2761 H 0.45392 0.77872 0.41933
 H2762 H 0.45848 0.85006 0.46131
 H2763 H 0.54030 0.83557 0.43625
 H2764 H 0.55263 0.87454 0.44957
 H2765 H 0.54258 0.91344 0.46335
 H2766 H 0.47058 0.89037 0.47263
 C2767 C 0.01122 0.29644 0.92652
 C2768 C 0.00634 0.31609 0.94022
 C2769 C -0.01715 0.32142 0.94514
 C2770 C -0.03531 0.30648 0.93691
 C2771 C -0.03031 0.28746 0.92247
 C2772 C -0.00706 0.28270 0.91656
 C2773 C -0.02215 0.34229 0.95686
 C2774 C -0.00400 0.35847 0.96246
 C2775 C 0.01955 0.35284 0.95795
 C2776 C 0.02458 0.33136 0.94755
 C2777 C 0.03764 0.36935 0.96258
 C2778 C 0.03236 0.39173 0.97022
 C2779 C 0.00905 0.39767 0.97396
 C2780 C -0.00906 0.38080 0.97103
 H2781 H 0.02926 0.29263 0.92256
 H2782 H -0.05342 0.31025 0.94050
 H2783 H -0.04480 0.27740 0.91498
 H2784 H -0.04019 0.34662 0.96020
 H2785 H 0.04259 0.32729 0.94369
 H2786 H 0.05575 0.36531 0.95934
 H2787 H 0.04647 0.40461 0.97297
 H2788 H -0.02705 0.38554 0.97394
 C2789 C 0.51084 0.30769 0.08678
 C2790 C 0.50675 0.32757 0.07295
 C2791 C 0.48458 0.33785 0.07372
 C2792 C 0.46650 0.32726 0.08727
 C2793 C 0.47067 0.30724 0.10076
 C2794 C 0.49299 0.29782 0.10106
 C2795 C 0.48107 0.35890 0.06154
 C2796 C 0.49946 0.36975 0.04867
 C2797 C 0.52121 0.35877 0.04682
 C2798 C 0.52471 0.33772 0.05898
 C2799 C 0.53936 0.36946 0.03347
 C2800 C 0.53640 0.39141 0.02304
 C2801 C 0.51534 0.40301 0.02602
 C2802 C 0.49672 0.39184 0.03833
 H2803 H 0.52799 0.30012 0.08683
 H2804 H 0.44936 0.33477 0.08789
 H2805 H 0.45675 0.29967 0.11174
 H2806 H 0.46429 0.36717 0.06265
 H2807 H 0.54159 0.32962 0.05813
 H2808 H 0.55605 0.36118 0.03169
 H2809 H 0.55095 0.39979 0.01357
 H2810 H 0.48032 0.40064 0.04037
 C2811 C 0.00868 0.79176 0.58696
 C2812 C 0.00443 0.81196 0.57367
 C2813 C -0.01798 0.82173 0.57429
 C2814 C -0.03612 0.81025 0.58706
 C2815 C -0.03175 0.78995 0.60011
 C2816 C -0.00918 0.78111 0.60070
 C2817 C -0.02162 0.84319 0.56285
 C2818 C -0.00313 0.85490 0.55082
 C2819 C 0.01887 0.84439 0.54908
 C2820 C 0.02251 0.82298 0.56052
 C2821 C 0.03712 0.85583 0.53649
 C2822 C 0.03393 0.87794 0.52654
 C2823 C 0.01257 0.88906 0.52931
 C2824 C -0.00606 0.87728 0.54108
 H2825 H 0.02606 0.78471 0.58728
 H2826 H -0.05345 0.81735 0.58755
 H2827 H -0.04567 0.78186 0.61071
 H2828 H -0.03860 0.85106 0.56387
 H2829 H 0.03958 0.81527 0.55978
 H2830 H 0.05400 0.84791 0.53480
 H2831 H 0.04848 0.88677 0.51748
 H2832 H -0.02269 0.88570 0.54296
 C2833 C 0.26133 0.33554 0.05249
 C2834 C 0.25688 0.32537 0.07478
 C2835 C 0.23524 0.32893 0.08615
 C2836 C 0.21807 0.34173 0.07449
 C2837 C 0.22275 0.35195 0.05229
 C2838 C 0.24464 0.34951 0.04151
 C2839 C 0.23143 0.32030 0.10922
 C2840 C 0.24902 0.30825 0.12106
 C2841 C 0.27030 0.30389 0.10933
 C2842 C 0.27408 0.31246 0.08623
 C2843 C 0.28760 0.29137 0.12110
 C2844 C 0.28403 0.28361 0.14446
 C2845 C 0.26329 0.28860 0.15649
 C2846 C 0.24577 0.30075 0.14458
 H2847 H 0.27817 0.33336 0.04405
 H2848 H 0.20133 0.34449 0.08289
 H2849 H 0.20973 0.36277 0.04416
 H2850 H 0.21501 0.32341 0.11816
 H2851 H 0.29059 0.30957 0.07739
 H2852 H 0.30394 0.28774 0.11231
 H2853 H 0.29767 0.27415 0.15331
 H2854 H 0.22952 0.30428 0.15363
 C2855 C 0.75190 0.82892 0.55375
 C2856 C 0.74734 0.81651 0.57485
 C2857 C 0.72578 0.81913 0.58667
 C2858 C 0.70874 0.83326 0.57651
 C2859 C 0.71352 0.84569 0.55547
 C2860 C 0.73538 0.84416 0.54440
 C2861 C 0.72195 0.80827 0.60880
 C2862 C 0.73951 0.79504 0.61929
 C2863 C 0.76067 0.79163 0.60698
 C2864 C 0.76441 0.80231 0.58477
 C2865 C 0.77801 0.77810 0.61742
 C2866 C 0.77476 0.76869 0.64021
 C2867 C 0.75423 0.77285 0.65298
 C2868 C 0.73649 0.78569 0.64219
 H2869 H 0.76870 0.82744 0.54502
 H2870 H 0.69205 0.83532 0.58525
 H2871 H 0.70063 0.85740 0.54854
 H2872 H 0.70563 0.81069 0.61817
 H2873 H 0.78086 0.80017 0.57555
 H2874 H 0.79426 0.77519 0.60814
 H2875 H 0.78862 0.75881 0.64814
 H2876 H 0.72041 0.78869 0.65178
 C2877 C 0.24133 0.66323 0.54706
 C2878 C 0.24358 0.67910 0.56621
 C2879 C 0.26530 0.69120 0.57022
 C2880 C 0.28391 0.68826 0.55449
 C2881 C 0.28163 0.67235 0.53585
 C2882 C 0.26069 0.65913 0.53242
 C2883 C 0.26849 0.70528 0.59041
 C2884 C 0.25038 0.70729 0.60694
 C2885 C 0.22827 0.69622 0.60250
 C2886 C 0.22496 0.68226 0.58209
 C2887 C 0.21014 0.69862 0.61908
 C2888 C 0.21424 0.71089 0.64029
 C2889 C 0.23648 0.72089 0.64520
 C2890 C 0.25437 0.71943 0.62831
 H2891 H 0.22514 0.65307 0.54448
 H2892 H 0.30054 0.69761 0.55714
 H2893 H 0.29661 0.66974 0.52448
 H2894 H 0.28537 0.71398 0.59370
 H2895 H 0.20822 0.67323 0.57903
 H2896 H 0.19303 0.69040 0.61599
 H2897 H 0.20036 0.71170 0.65334
 H2898 H 0.27158 0.72707 0.63222
 C2899 C 0.73583 0.16027 0.04944
 C2900 C 0.73764 0.17801 0.06686
 C2901 C 0.75714 0.19407 0.06667
 C2902 C 0.77370 0.19305 0.04841
 C2903 C 0.77196 0.17526 0.03150
 C2904 C 0.75355 0.15828 0.03235
 C2905 C 0.76051 0.21009 0.08535
 C2906 C 0.74491 0.21003 0.10455
 C2907 C 0.72472 0.19489 0.10420
 C2908 C 0.72111 0.17913 0.08525
 C2909 C 0.70911 0.19496 0.12343
 C2910 C 0.71422 0.20873 0.14342
 C2911 C 0.73484 0.22278 0.14439
 C2912 C 0.74985 0.22390 0.12470
 H2913 H 0.72165 0.14714 0.05016
 H2914 H 0.78859 0.20535 0.04784
 H2915 H 0.78566 0.17405 0.01829
 H2916 H 0.77587 0.22183 0.08549
 H2917 H 0.70603 0.16701 0.08539
 H2918 H 0.69349 0.18362 0.12346
 H2919 H 0.70262 0.20757 0.15864
 H2920 H 0.76593 0.23454 0.12562
 C2921 C 0.76590 0.16246 0.94253
 C2922 C 0.76131 0.17341 0.92070
 C2923 C 0.73920 0.16972 0.90979
 C2924 C 0.72171 0.15618 0.92153
 C2925 C 0.72638 0.14552 0.94337
 C2926 C 0.74866 0.14802 0.95369
 C2927 C 0.73514 0.17914 0.88713
 C2928 C 0.75283 0.19237 0.87533
 C2929 C 0.77453 0.19705 0.88675
 C2930 C 0.77867 0.18744 0.90932
 C2931 C 0.79186 0.21094 0.87518
 C2932 C 0.78799 0.21961 0.85227
 C2933 C 0.76692 0.21416 0.84037
 C2934 C 0.74930 0.20073 0.85214
 H2935 H 0.78305 0.16469 0.95060
 H2936 H 0.70461 0.15335 0.91352
 H2937 H 0.71293 0.13440 0.95165
 H2938 H 0.71837 0.17585 0.87853
 H2939 H 0.79552 0.19055 0.91783
 H2940 H 0.80851 0.21487 0.88375
 H2941 H 0.80176 0.22995 0.84354
 H2942 H 0.73285 0.19673 0.84318
 C2943 C 0.26965 0.66472 0.43953
 C2944 C 0.26461 0.67908 0.41987
 C2945 C 0.24109 0.68141 0.41273
 C2946 C 0.22304 0.67036 0.42599
 C2947 C 0.22818 0.65659 0.44579
 C2948 C 0.25147 0.65308 0.45242
 C2949 C 0.23596 0.69449 0.39231
 C2950 C 0.25400 0.70561 0.37906
 C2951 C 0.27745 0.70437 0.38679
 C2952 C 0.28264 0.69097 0.40708
 C2953 C 0.29529 0.71621 0.37376
 C2954 C 0.29006 0.72836 0.35279
 C2955 C 0.26696 0.72857 0.34434
 C2956 C 0.24898 0.71751 0.35787
 H2957 H 0.28769 0.66260 0.44482
 H2958 H 0.20490 0.67222 0.42092
 H2959 H 0.21388 0.64815 0.45550
 H2960 H 0.21793 0.69577 0.38656
 H2961 H 0.30067 0.68955 0.41273
 H2962 H 0.31335 0.71564 0.37952
 H2963 H 0.30417 0.73666 0.34262
 H2964 H 0.23106 0.71778 0.35157
 C2965 C 0.74981 0.83036 0.45177
 C2966 C 0.74380 0.81722 0.43153
 C2967 C 0.72124 0.81887 0.42148
 C2968 C 0.70466 0.83261 0.43279
 C2969 C 0.71079 0.84554 0.45310
 C2970 C 0.73363 0.84519 0.46220
 C2971 C 0.71594 0.80743 0.39996
 C2972 C 0.73304 0.79458 0.38832
 C2973 C 0.75520 0.79201 0.39911
 C2974 C 0.76035 0.80319 0.42070
 C2975 C 0.77232 0.77922 0.38758
 C2976 C 0.76808 0.77024 0.36492
 C2977 C 0.74662 0.77361 0.35363
 C2978 C 0.72886 0.78523 0.36554
 H2979 H 0.76731 0.82949 0.45909
 H2980 H 0.68717 0.83385 0.42556
 H2981 H 0.69792 0.85652 0.46107
 H2982 H 0.69887 0.80923 0.39188
 H2983 H 0.77756 0.80174 0.42858
 H2984 H 0.78932 0.77703 0.39564
 H2985 H 0.78196 0.76152 0.35571
 H2986 H 0.71239 0.78806 0.35658
 C2987 C 0.25733 0.33243 0.94682
 C2988 C 0.25058 0.31883 0.92711
 C2989 C 0.22725 0.31913 0.91878
 C2990 C 0.21079 0.33201 0.93125
 C2991 C 0.21767 0.34544 0.95098
 C2992 C 0.24115 0.34647 0.95838
 C2993 C 0.22102 0.30724 0.89776
 C2994 C 0.23795 0.29535 0.88484
 C2995 C 0.26100 0.29417 0.89391
 C2996 C 0.26708 0.30571 0.91507
 C2997 C 0.27800 0.28246 0.88105
 C2998 C 0.27266 0.27328 0.85870
 C2999 C 0.25021 0.27528 0.84909
 C3000 C 0.23264 0.28569 0.86241
 H3001 H 0.27535 0.33251 0.95283
 H3002 H 0.19275 0.33221 0.92537
 H3003 H 0.20477 0.35570 0.95982
 H3004 H 0.20329 0.30800 0.89099
 H3005 H 0.28492 0.30531 0.92162
 H3006 H 0.29569 0.28133 0.88778
 H3007 H 0.28638 0.26548 0.84840
 H3008 H 0.21539 0.28750 0.85474
 C3009 C 0.84805 0.43679 0.76603
 C3010 C 0.83407 0.41627 0.76249
 C3011 C 0.81608 0.41608 0.74530
 C3012 C 0.81193 0.43671 0.73252
 C3013 C 0.82561 0.45723 0.73650
 C3014 C 0.84406 0.45758 0.75309
 C3015 C 0.80262 0.39529 0.74116
 C3016 C 0.80672 0.37476 0.75429
 C3017 C 0.82425 0.37528 0.77203
 C3018 C 0.83792 0.39591 0.77585
 C3019 C 0.82796 0.35510 0.78563
 C3020 C 0.81473 0.33441 0.78152
 C3021 C 0.79769 0.33329 0.76350
 C3022 C 0.79370 0.35368 0.74997
 H3023 H 0.86234 0.43620 0.77860
 H3024 H 0.79803 0.43702 0.71944
 H3025 H 0.82148 0.47282 0.72658
 H3026 H 0.78902 0.39508 0.72771
 H3027 H 0.85157 0.39610 0.78926
 H3028 H 0.84124 0.35524 0.79937
 H3029 H 0.81833 0.31904 0.79211
 H3030 H 0.78053 0.35315 0.73611
 C3031 C 0.34977 0.95157 0.26506
 C3032 C 0.33551 0.93113 0.26285
 C3033 C 0.31558 0.93124 0.24803
 C3034 C 0.30998 0.95200 0.23615
 C3035 C 0.32407 0.97242 0.23876
 C3036 C 0.34422 0.97246 0.25310
 C3037 C 0.30166 0.91061 0.24527
 C3038 C 0.30730 0.88995 0.25738
 C3039 C 0.32690 0.89004 0.27270
 C3040 C 0.34098 0.91057 0.27520
 C3041 C 0.33217 0.86953 0.28519
 C3042 C 0.31835 0.84899 0.28232
 C3043 C 0.29918 0.84848 0.26667
 C3044 C 0.29370 0.86915 0.25435
 H3045 H 0.36546 0.95092 0.27578
 H3046 H 0.29463 0.95246 0.22487
 H3047 H 0.31897 0.98819 0.22969
 H3048 H 0.28650 0.91062 0.23367
 H3049 H 0.35617 0.91055 0.28675
 H3050 H 0.34706 0.86934 0.29709
 H3051 H 0.32298 0.83333 0.29196
 H3052 H 0.27881 0.86908 0.24241
 C3053 C 0.16003 0.94043 0.72479
 C3054 C 0.17561 0.92194 0.72335
 C3055 C 0.19650 0.92293 0.73690
 C3056 C 0.20207 0.94292 0.75053
 C3057 C 0.18630 0.96100 0.75215
 C3058 C 0.16499 0.95955 0.73985
 C3059 C 0.21080 0.90345 0.73770
 C3060 C 0.20431 0.88282 0.72548
 C3061 C 0.18413 0.88221 0.71092
 C3062 C 0.16998 0.90186 0.70981
 C3063 C 0.17797 0.86161 0.69846
 C3064 C 0.19097 0.84144 0.70134
 C3065 C 0.21022 0.84150 0.71687
 C3066 C 0.21714 0.86246 0.72842
 H3067 H 0.14333 0.93920 0.71565
 H3068 H 0.21803 0.94401 0.76092
 H3069 H 0.19010 0.97554 0.76407
 H3070 H 0.22641 0.90398 0.74868
 H3071 H 0.15410 0.90113 0.69925
 H3072 H 0.16269 0.86087 0.68705
 H3073 H 0.18534 0.82549 0.69224
 H3074 H 0.23216 0.86273 0.74021
 C3075 C 0.65992 0.44141 0.23170
 C3076 C 0.67541 0.42273 0.23074
 C3077 C 0.69317 0.42113 0.24815
 C3078 C 0.69567 0.43851 0.26563
 C3079 C 0.67987 0.45659 0.26679
 C3080 C 0.66169 0.45791 0.25018
 C3081 C 0.70745 0.40164 0.24855
 C3082 C 0.70386 0.38334 0.23222
 C3083 C 0.68667 0.38514 0.21432
 C3084 C 0.67269 0.40498 0.21353
 C3085 C 0.68324 0.36664 0.19810
 C3086 C 0.69594 0.34613 0.20028
 C3087 C 0.71228 0.34377 0.21872
 C3088 C 0.71657 0.36281 0.23420
 H3089 H 0.64563 0.44227 0.21909
 H3090 H 0.70921 0.43755 0.27905
 H3091 H 0.68127 0.46912 0.28121
 H3092 H 0.72072 0.40024 0.26223
 H3093 H 0.65914 0.40616 0.20013
 H3094 H 0.67024 0.36774 0.18416
 H3095 H 0.69230 0.33177 0.18810
 H3096 H 0.72932 0.36139 0.24835
 C3097 C 0.65696 0.55517 0.27253
 C3098 C 0.66911 0.57677 0.26881
 C3099 C 0.67894 0.58196 0.24632
 C3100 C 0.67698 0.56527 0.22819
 C3101 C 0.66471 0.54393 0.23194
 C3102 C 0.65386 0.53867 0.25391
 C3103 C 0.69038 0.60381 0.24224
 C3104 C 0.69197 0.62068 0.26036
 C3105 C 0.68249 0.61539 0.28301
 C3106 C 0.67122 0.59343 0.28714
 C3107 C 0.68420 0.63229 0.30107
 C3108 C 0.69487 0.65437 0.29665
 C3109 C 0.70403 0.66001 0.27407
 C3110 C 0.70265 0.64286 0.25606
 H3111 H 0.64995 0.55158 0.29003
 H3112 H 0.68469 0.56884 0.21090
 H3113 H 0.66364 0.53196 0.21720
 H3114 H 0.69775 0.60781 0.22487
 H3115 H 0.66375 0.58948 0.30447
 H3116 H 0.67707 0.62853 0.31857
 H3117 H 0.69565 0.66713 0.31088
 H3118 H 0.70973 0.64680 0.23857
 C3119 C 0.15867 0.05601 0.76818
 C3120 C 0.16993 0.07810 0.76457
 C3121 C 0.17835 0.08430 0.74175
 C3122 C 0.17578 0.06824 0.72312
 C3123 C 0.16439 0.04646 0.72676
 C3124 C 0.15512 0.04003 0.74915
 C3125 C 0.18904 0.10650 0.73782
 C3126 C 0.19129 0.12275 0.75642
 C3127 C 0.18315 0.11659 0.77937
 C3128 C 0.17260 0.09424 0.78335
 C3129 C 0.18552 0.13302 0.79785
 C3130 C 0.19560 0.15542 0.79357
 C3131 C 0.20349 0.16182 0.77070
 C3132 C 0.20137 0.14519 0.75227
 H3133 H 0.15274 0.05160 0.78591
 H3134 H 0.18236 0.07264 0.70554
 H3135 H 0.16283 0.03504 0.71164
 H3136 H 0.19537 0.11122 0.72021
 H3137 H 0.16621 0.08955 0.80094
 H3138 H 0.17942 0.12861 0.81559
 H3139 H 0.19699 0.16778 0.80811
 H3140 H 0.20745 0.14968 0.73454
 C3141 C 0.34795 0.07547 0.23382
 C3142 C 0.33217 0.09383 0.23387
 C3143 C 0.30946 0.08998 0.24342
 C3144 C 0.30251 0.06739 0.25138
 C3145 C 0.31835 0.04918 0.25117
 C3146 C 0.34130 0.05331 0.24302
 C3147 C 0.29447 0.10892 0.24566
 C3148 C 0.30185 0.13161 0.23829
 C3149 C 0.32408 0.13505 0.22750
 C3150 C 0.33911 0.11620 0.22546
 C3151 C 0.33118 0.15745 0.21934
 C3152 C 0.31671 0.17644 0.22238
 C3153 C 0.29506 0.17356 0.23404
 C3154 C 0.28760 0.15100 0.24183
 H3155 H 0.36581 0.07869 0.22779
 H3156 H 0.28514 0.06405 0.25861
 H3157 H 0.31314 0.03225 0.25866
 H3158 H 0.27730 0.10612 0.25360
 H3159 H 0.35640 0.11907 0.21782
 H3160 H 0.34806 0.16035 0.21087
 H3161 H 0.32283 0.19365 0.21628
 H3162 H 0.27080 0.14859 0.25061
 C3163 C 0.84798 0.56069 0.73396
 C3164 C 0.83238 0.57932 0.73348
 C3165 C 0.80998 0.57626 0.74397
 C3166 C 0.80308 0.55424 0.75342
 C3167 C 0.81866 0.53581 0.75371
 C3168 C 0.84135 0.53906 0.74456
 C3169 C 0.79521 0.59545 0.74562
 C3170 C 0.80244 0.61764 0.73675
 C3171 C 0.82426 0.62035 0.72503
 C3172 C 0.83914 0.60123 0.72359
 C3173 C 0.83105 0.64231 0.71539
 C3174 C 0.81676 0.66161 0.71797
 C3175 C 0.79563 0.65947 0.73066
 C3176 C 0.78844 0.63730 0.73978
 H3177 H 0.86564 0.56334 0.72721
 H3178 H 0.78594 0.55152 0.76139
 H3179 H 0.81347 0.51939 0.76229
 H3180 H 0.77833 0.59323 0.75428
 H3181 H 0.85616 0.60354 0.71522
 H3182 H 0.84761 0.64467 0.70616
 H3183 H 0.82267 0.67848 0.71083
 H3184 H 0.77202 0.63542 0.74937
 C3185 C 0.93289 0.75252 0.14948
 C3186 C 0.91316 0.75161 0.16399
 C3187 C 0.91465 0.74252 0.18731
 C3188 C 0.93608 0.73450 0.19565
 C3189 C 0.95590 0.73586 0.18109
 C3190 C 0.95444 0.74510 0.15800
 C3191 C 0.89474 0.74178 0.20186
 C3192 C 0.87358 0.75031 0.19335
 C3193 C 0.87233 0.75957 0.17004
 C3194 C 0.89206 0.75999 0.15548
 C3195 C 0.85135 0.76834 0.16162
 C3196 C 0.83163 0.76783 0.17607
 C3197 C 0.83251 0.75842 0.19918
 C3198 C 0.85361 0.74973 0.20775
 H3199 H 0.93140 0.75906 0.13145
 H3200 H 0.93759 0.72750 0.21349
 H3201 H 0.97242 0.73019 0.18809
 H3202 H 0.89576 0.73475 0.21975
 H3203 H 0.89106 0.76705 0.13759
 H3204 H 0.85017 0.77552 0.14382
 H3205 H 0.81556 0.77452 0.16894
 H3206 H 0.85451 0.74251 0.22556
 C3207 C 0.43241 0.25763 0.64657
 C3208 C 0.41228 0.25602 0.66044
 C3209 C 0.41356 0.24772 0.68407
 C3210 C 0.43517 0.24106 0.69331
 C3211 C 0.45538 0.24313 0.67935
 C3212 C 0.45414 0.25178 0.65603
 C3213 C 0.39328 0.24643 0.69802
 C3214 C 0.37195 0.25368 0.68863
 C3215 C 0.37086 0.26208 0.66499
 C3216 C 0.39099 0.26300 0.65100
 C3217 C 0.34965 0.26959 0.65574
 C3218 C 0.32959 0.26877 0.66978
 C3219 C 0.33042 0.26028 0.69322
 C3220 C 0.35170 0.25275 0.70254
 H3221 H 0.43110 0.26351 0.62830
 H3222 H 0.43648 0.23462 0.71137
 H3223 H 0.47199 0.23846 0.68694
 H3224 H 0.39412 0.24005 0.71617
 H3225 H 0.39016 0.26944 0.63286
 H3226 H 0.34858 0.27609 0.63767
 H3227 H 0.31335 0.27451 0.66214
 H3228 H 0.35255 0.24627 0.72064
 C3229 C 0.44583 0.76463 0.83811
 C3230 C 0.42530 0.75940 0.82545
 C3231 C 0.41549 0.73625 0.82563
 C3232 C 0.42724 0.71846 0.83758
 C3233 C 0.44793 0.72384 0.85004
 C3234 C 0.45687 0.74706 0.85086
 C3235 C 0.39394 0.73149 0.81433
 C3236 C 0.38232 0.74959 0.80273
 C3237 C 0.39286 0.77245 0.80175
 C3238 C 0.41418 0.77721 0.81319
 C3239 C 0.38179 0.79039 0.78959
 C3240 C 0.36025 0.78590 0.77875
 C3241 C 0.34921 0.76354 0.78021
 C3242 C 0.36027 0.74535 0.79221
 H3243 H 0.45296 0.78252 0.83860
 H3244 H 0.42014 0.70057 0.83776
 H3245 H 0.45636 0.71013 0.85990
 H3246 H 0.38610 0.71388 0.81484
 H3247 H 0.42194 0.79487 0.81284
 H3248 H 0.38971 0.80793 0.78859
 H3249 H 0.35189 0.80015 0.76965
 H3250 H 0.35186 0.72802 0.79315
 C3251 C 0.94151 0.25484 0.34520
 C3252 C 0.92145 0.25160 0.33125
 C3253 C 0.91344 0.22866 0.32514
 C3254 C 0.92638 0.20940 0.33222
 C3255 C 0.94701 0.21285 0.34528
 C3256 C 0.95462 0.23559 0.35229
 C3257 C 0.89275 0.22543 0.31197
 C3258 C 0.88057 0.24495 0.30411
 C3259 C 0.88942 0.26792 0.30917
 C3260 C 0.90954 0.27108 0.32305
 C3261 C 0.87797 0.28743 0.30030
 C3262 C 0.85767 0.28427 0.28685
 C3263 C 0.84824 0.26161 0.28262
 C3264 C 0.85969 0.24196 0.29122
 H3265 H 0.94747 0.27260 0.34952
 H3266 H 0.92058 0.19168 0.32761
 H3267 H 0.95624 0.19750 0.35083
 H3268 H 0.88627 0.20783 0.30768
 H3269 H 0.91603 0.28869 0.32733
 H3270 H 0.88465 0.30512 0.30385
 H3271 H 0.84884 0.29956 0.28039
 H3272 H 0.85241 0.22446 0.28774
 C3273 C 0.04632 0.25821 0.32986
 C3274 C 0.06538 0.25473 0.31488
 C3275 C 0.07024 0.23186 0.30709
 C3276 C 0.05492 0.21311 0.31319
 C3277 C 0.03624 0.21665 0.32862
 C3278 C 0.03261 0.23900 0.33832
 C3279 C 0.09088 0.22799 0.29444
 C3280 C 0.10714 0.24662 0.29049
 C3281 C 0.10165 0.26967 0.29749
 C3282 C 0.08054 0.27364 0.30904
 C3283 C 0.11799 0.28822 0.29420
 C3284 C 0.14019 0.28375 0.28565
 C3285 C 0.14621 0.26084 0.27972
 C3286 C 0.12937 0.24242 0.28111
 H3287 H 0.04299 0.27584 0.33579
 H3288 H 0.05799 0.19551 0.30692
 H3289 H 0.02544 0.20153 0.33347
 H3290 H 0.09495 0.21034 0.28902
 H3291 H 0.07671 0.29121 0.31495
 H3292 H 0.11401 0.30597 0.29928
 H3293 H 0.15294 0.29817 0.28411
 H3294 H 0.13408 0.22473 0.27649
 C3295 C 0.54851 0.74241 0.83971
 C3296 C 0.56896 0.74388 0.82593
 C3297 C 0.57810 0.76613 0.81855
 C3298 C 0.56591 0.78634 0.82378
 C3299 C 0.54563 0.78472 0.83748
 C3300 C 0.53725 0.76288 0.84633
 C3301 C 0.59964 0.76794 0.80678
 C3302 C 0.61219 0.74778 0.80229
 C3303 C 0.60251 0.72537 0.80843
 C3304 C 0.58094 0.72356 0.82028
 C3305 C 0.61487 0.70521 0.80308
 C3306 C 0.63692 0.70731 0.79240
 C3307 C 0.64700 0.72959 0.78745
 C3308 C 0.63451 0.74974 0.79215
 H3309 H 0.54229 0.72553 0.84641
 H3310 H 0.57244 0.80348 0.81789
 H3311 H 0.53685 0.80071 0.84173
 H3312 H 0.60692 0.78508 0.80171
 H3313 H 0.57381 0.70645 0.82562
 H3314 H 0.60765 0.68788 0.80743
 H3315 H 0.64644 0.69162 0.78871
 H3316 H 0.64226 0.76692 0.78795
 C3317 C 0.55967 0.24634 0.64837
 C3318 C 0.57905 0.24404 0.66311
 C3319 C 0.57612 0.24267 0.68802
 C3320 C 0.55341 0.24281 0.69760
 C3321 C 0.53401 0.24513 0.68262
 C3322 C 0.53721 0.24749 0.65801
 C3323 C 0.59594 0.24154 0.70274
 C3324 C 0.61848 0.24173 0.69270
 C3325 C 0.62099 0.24252 0.66765
 C3326 C 0.60133 0.24367 0.65311
 C3327 C 0.64317 0.24235 0.65734
 C3328 C 0.66287 0.24145 0.67161
 C3329 C 0.66087 0.24087 0.69651
 C3330 C 0.63862 0.24119 0.70709
 H3331 H 0.56207 0.24769 0.62929
 H3332 H 0.55071 0.24160 0.71663
 H3333 H 0.51668 0.24594 0.69027
 H3334 H 0.59385 0.24075 0.72188
 H3335 H 0.60342 0.24457 0.63395
 H3336 H 0.64531 0.24297 0.63821
 H3337 H 0.67987 0.24154 0.66306
 H3338 H 0.63701 0.24067 0.72628
 C3339 C 0.04488 0.75800 0.17684
 C3340 C 0.06556 0.75505 0.18948
 C3341 C 0.07662 0.73323 0.18870
 C3342 C 0.06583 0.71425 0.17662
 C3343 C 0.04523 0.71744 0.16385
 C3344 C 0.03535 0.73960 0.16315
 C3345 C 0.09883 0.73120 0.19877
 C3346 C 0.11017 0.75084 0.20912
 C3347 C 0.09844 0.77221 0.21117
 C3348 C 0.07607 0.77410 0.20153
 C3349 C 0.10970 0.79167 0.22191
 C3350 C 0.13282 0.79033 0.22953
 C3351 C 0.14495 0.76961 0.22624
 C3352 C 0.13342 0.74974 0.21658
 H3353 H 0.03697 0.77503 0.17637
 H3354 H 0.07393 0.69734 0.17604
 H3355 H 0.03789 0.70312 0.15329
 H3356 H 0.10774 0.71474 0.19752
 H3357 H 0.06738 0.79071 0.20234
 H3358 H 0.10087 0.80809 0.22382
 H3359 H 0.14151 0.80574 0.23717
 H3360 H 0.14271 0.73360 0.21449
   
