data_POSCAR
  _audit_creation_date              2014-09-24
  _audit_creation_method            'ToBaCCo'
  _symmetry_space_group_name_H-M    'P1'
  _symmetry_Int_Tables_number       1
  _symmetry_cell_setting            triclinic
  loop_
  _symmetry_equiv_pos_as_xyz
 x,y,z
_cell_length_a 96.4069
_cell_length_b 96.4780
_cell_length_c 97.0891
_cell_angle_alpha 90.026300
_cell_angle_beta 90.380900
_cell_angle_gamma 89.918600
loop_
  _atom_site_label
  _atom_site_type_symbol
  _atom_site_fract_x
  _atom_site_fract_y
  _atom_site_fract_z
C1 C 0.31090 0.43605 0.92344
 C2 C 0.31099 0.42609 0.93400
 C3 C 0.32072 0.42695 0.94450
 C4 C 0.33049 0.43770 0.94461
 C5 C 0.33037 0.44746 0.93429
 C6 C 0.32055 0.44664 0.92364
 C7 C 0.30325 0.43752 0.91148
 N8 N 0.30809 0.44871 0.90445
 C9 C 0.31865 0.45433 0.91189
 C10 C 0.34151 0.45604 0.93646
 N11 N 0.34863 0.45175 0.94791
 C12 C 0.34173 0.44048 0.95293
 C13 C 0.31896 0.41560 0.95284
 N14 N 0.30839 0.40780 0.94771
 C15 C 0.30343 0.41418 0.93618
 H16 H 0.29508 0.43067 0.90795
 H17 H 0.32462 0.46334 0.90897
 H18 H 0.34437 0.46440 0.92965
 H19 H 0.34462 0.43439 0.96183
 H20 H 0.32503 0.41319 0.96194
 H21 H 0.29527 0.41022 0.92957
 C22 C 0.44199 0.82257 0.44692
 C23 C 0.43144 0.81267 0.44794
 C24 C 0.42996 0.80262 0.43790
 C25 C 0.43905 0.80234 0.42670
 C26 C 0.44952 0.81209 0.42573
 C27 C 0.45096 0.82232 0.43593
 C28 C 0.44516 0.83402 0.45469
 N29 N 0.45590 0.84097 0.44876
 C30 C 0.45950 0.83368 0.43724
 C31 C 0.45630 0.80970 0.41352
 N32 N 0.45018 0.79877 0.40705
 C33 C 0.43961 0.79423 0.41507
 C34 C 0.41833 0.79503 0.44109
 N35 N 0.41271 0.80027 0.45281
 C36 C 0.42072 0.81105 0.45706
 H37 H 0.43971 0.83693 0.46394
 H38 H 0.46733 0.83653 0.42987
 H39 H 0.46478 0.81575 0.40945
 H40 H 0.43277 0.78568 0.41262
 H41 H 0.41399 0.78670 0.43498
 H42 H 0.41883 0.81742 0.46603
 C43 C 0.93791 0.92786 0.80355
 C44 C 0.92741 0.93792 0.80458
 C45 C 0.92750 0.94714 0.81550
 C46 C 0.93805 0.94648 0.82549
 C47 C 0.94833 0.93663 0.82444
 C48 C 0.94828 0.92729 0.81338
 C49 C 0.94018 0.91710 0.79452
 N50 N 0.95174 0.90991 0.79858
 C51 C 0.95668 0.91627 0.81018
 C52 C 0.95676 0.93795 0.83582
 N53 N 0.95191 0.94842 0.84396
 C54 C 0.94040 0.95367 0.83751
 C55 C 0.91585 0.95528 0.81426
 N56 N 0.90864 0.95127 0.80286
 C57 C 0.91568 0.94065 0.79687
 H58 H 0.93368 0.91483 0.78570
 H59 H 0.96544 0.91299 0.81637
 H60 H 0.96573 0.93153 0.83782
 H61 H 0.93377 0.96184 0.84129
 H62 H 0.91285 0.96352 0.82121
 H63 H 0.91232 0.93503 0.78779
 C64 C 0.42915 -0.08244 0.31200
 C65 C 0.41845 -0.07255 0.31153
 C66 C 0.41794 -0.06211 0.32129
 C67 C 0.42809 -0.06147 0.33171
 C68 C 0.43861 -0.07121 0.33213
 C69 C 0.43911 -0.08177 0.32222
 C70 C 0.43211 -0.09389 0.30407
 N71 N 0.44368 -0.10034 0.30921
 C72 C 0.44794 -0.09280 0.32037
 C73 C 0.44679 -0.06827 0.34342
 N74 N 0.44149 -0.05698 0.34993
 C75 C 0.43003 -0.05276 0.34281
 C76 C 0.40638 -0.05419 0.31842
 N77 N 0.39983 -0.05957 0.30717
 C78 C 0.40718 -0.07082 0.30292
 H79 H 0.42591 -0.09724 0.29538
 H80 H 0.45684 -0.09492 0.32685
 H81 H 0.45574 -0.07415 0.34683
 H82 H 0.42357 -0.04399 0.34547
 H83 H 0.40286 -0.04533 0.32427
 H84 H 0.40459 -0.07725 0.29413
 C85 C 0.80855 0.31541 0.32654
 C86 C 0.80913 0.32524 0.31589
 C87 C 0.81940 0.32433 0.30605
 C88 C 0.82922 0.31362 0.30667
 C89 C 0.82868 0.30399 0.31717
 C90 C 0.81830 0.30489 0.32715
 C91 C 0.80018 0.31401 0.33791
 N92 N 0.80468 0.30294 0.34538
 C93 C 0.81575 0.29732 0.33883
 C94 C 0.83992 0.29533 0.31571
 N95 N 0.84728 0.29947 0.30456
 C96 C 0.84077 0.31065 0.29895
 C97 C 0.81793 0.33553 0.29743
 N98 N 0.80703 0.34330 0.30177
 C99 C 0.80157 0.33703 0.31306
 H100 H 0.79172 0.32080 0.34074
 H101 H 0.82160 0.28839 0.34231
 H102 H 0.84259 0.28674 0.32239
 H103 H 0.84444 0.31654 0.29022
 H104 H 0.82442 0.33786 0.28868
 H105 H 0.79303 0.34099 0.31909
 C106 C -0.18306 0.82686 0.80732
 C107 C -0.17330 0.81610 0.80793
 C108 C -0.17357 0.80668 0.81867
 C109 C -0.18374 0.80788 0.82891
 C110 C -0.19333 0.81848 0.82824
 C111 C -0.19299 0.82803 0.81737
 C112 C -0.18483 0.83785 0.79847
 N113 N -0.19564 0.84585 0.80287
 C114 C -0.20065 0.83970 0.81450
 C115 C -0.20160 0.81747 0.83964
 N116 N -0.19739 0.80644 0.84743
 C117 C -0.18640 0.80054 0.84077
 C118 C -0.16250 0.79781 0.81686
 N119 N -0.15560 0.80162 0.80528
 C120 C -0.16218 0.81281 0.79978
 H121 H -0.17840 0.83975 0.78960
 H122 H -0.20904 0.84342 0.82083
 H123 H -0.21013 0.82438 0.84183
 H124 H -0.18036 0.79177 0.84429
 H125 H -0.15966 0.78926 0.82352
 H126 H -0.15888 0.81843 0.79074
 C127 C 0.94060 0.33128 0.43092
 C128 C 0.94148 0.32096 0.42081
 C129 C 0.93163 0.31059 0.42016
 C130 C 0.92069 0.31048 0.42963
 C131 C 0.91983 0.32070 0.43960
 C132 C 0.92990 0.33120 0.44023
 C133 C 0.94853 0.34277 0.43356
 N134 N 0.94299 0.34993 0.44437
 C135 C 0.93151 0.34274 0.44846
 C136 C 0.90795 0.31825 0.44699
 N137 N 0.90156 0.30681 0.44177
 C138 C 0.90934 0.30201 0.43114
 C139 C 0.93484 0.30238 0.40900
 N140 N 0.94635 0.30760 0.40287
 C141 C 0.95047 0.31895 0.41008
 H142 H 0.95762 0.34553 0.42776
 H143 H 0.92453 0.34560 0.45664
 H144 H 0.90406 0.32461 0.45531
 H145 H 0.90696 0.29300 0.42492
 H146 H 0.92896 0.29354 0.40537
 H147 H 0.95934 0.32536 0.40767
 C148 C 0.43847 0.42780 0.83403
 C149 C 0.43934 0.41756 0.82379
 C150 C 0.42976 0.41733 0.81314
 C151 C 0.41913 0.42724 0.81262
 C152 C 0.41830 0.43735 0.82268
 C153 C 0.42807 0.43761 0.83349
 C154 C 0.44623 0.43041 0.84567
 N155 N 0.44087 0.44164 0.85240
 C156 C 0.42968 0.44603 0.84483
 C157 C 0.40686 0.44540 0.81963
 N158 N 0.40071 0.44035 0.80802
 C159 C 0.40820 0.42925 0.80367
 C160 C 0.43299 0.40625 0.80483
 N161 N 0.44429 0.39970 0.81018
 C162 C 0.44823 0.40655 0.82181
 H163 H 0.45515 0.42437 0.84878
 H164 H 0.42292 0.45461 0.84725
 H165 H 0.40311 0.45408 0.82562
 H166 H 0.40590 0.42308 0.79463
 H167 H 0.42733 0.40304 0.79571
 H168 H 0.45696 0.40380 0.82832
 C169 C 0.80890 0.92476 0.93804
 C170 C 0.80854 0.93463 0.92742
 C171 C 0.81796 0.94544 0.92740
 C172 C 0.82792 0.94649 0.93797
 C173 C 0.82819 0.93680 0.94838
 C174 C 0.81866 0.92585 0.94839
 C175 C 0.80144 0.91286 0.94048
 N176 N 0.80647 0.90655 0.95210
 C177 C 0.81705 0.91464 0.95693
 C178 C 0.83914 0.93999 0.95690
 N179 N 0.84576 0.95145 0.95198
 C180 C 0.83880 0.95543 0.94032
 C181 C 0.81547 0.95313 0.91569
 N182 N 0.80478 0.94725 0.90859
 C183 C 0.80050 0.93592 0.91573
 H184 H 0.79326 0.90903 0.93384
 H185 H 0.82330 0.91275 0.96601
 H186 H 0.84222 0.93386 0.96572
 H187 H 0.84130 0.96417 0.93383
 H188 H 0.82127 0.96213 0.91242
 H189 H 0.79213 0.92910 0.91267
 C190 C 0.30481 0.82565 0.31746
 C191 C 0.30577 0.81537 0.32760
 C192 C 0.31623 0.80554 0.32709
 C193 C 0.32592 0.80594 0.31636
 C194 C 0.32495 0.81616 0.30640
 C195 C 0.31433 0.82605 0.30698
 C196 C 0.29622 0.83692 0.31587
 N197 N 0.30028 0.84435 0.30462
 C198 C 0.31142 0.83757 0.29916
 C199 C 0.33608 0.81464 0.29777
 N200 N 0.34384 0.80374 0.30219
 C201 C 0.33767 0.79832 0.31355
 C202 C 0.31498 0.79739 0.33869
 N203 N 0.30409 0.80212 0.34620
 C204 C 0.29840 0.81308 0.33943
 H205 H 0.28800 0.83962 0.32289
 H206 H 0.31724 0.84063 0.29020
 H207 H 0.33840 0.82111 0.28898
 H208 H 0.34170 0.78978 0.31961
 H209 H 0.32181 0.78899 0.34167
 H210 H 0.28959 0.81908 0.34290
 C211 C 0.80078 0.42939 0.43696
 C212 C 0.80122 0.43891 0.42604
 C213 C 0.81078 0.44960 0.42632
 C214 C 0.81997 0.45096 0.43749
 C215 C 0.81945 0.44168 0.44822
 C216 C 0.80985 0.43081 0.44796
 C217 C 0.79347 0.41730 0.43903
 N218 N 0.79796 0.41138 0.45098
 C219 C 0.80794 0.41965 0.45650
 C220 C 0.83018 0.44478 0.45706
 N221 N 0.83744 0.45577 0.45197
 C222 C 0.83107 0.45959 0.43994
 C223 C 0.80956 0.45665 0.41408
 N224 N 0.79948 0.45056 0.40634
 C225 C 0.79430 0.43970 0.41360
 H226 H 0.78592 0.41285 0.43202
 H227 H 0.81363 0.41761 0.46593
 H228 H 0.83277 0.43878 0.46611
 H229 H 0.83423 0.46786 0.43316
 H230 H 0.81567 0.46552 0.41100
 H231 H 0.78642 0.43260 0.40992
 C232 C 0.93049 0.83110 -0.06588
 C233 C 0.92015 0.82084 -0.06536
 C234 C 0.91971 0.81066 -0.07538
 C235 C 0.92945 0.81054 -0.08599
 C236 C 0.93957 0.82056 -0.08654
 C237 C 0.94009 0.83095 -0.07643
 C238 C 0.93330 0.84258 -0.05788
 N239 N 0.94432 0.84939 -0.06334
 C240 C 0.94851 0.84231 -0.07469
 C241 C 0.94715 0.81813 -0.09827
 N242 N 0.94184 0.80683 -0.10498
 C243 C 0.93097 0.80220 -0.09732
 C244 C 0.90840 0.80248 -0.07283
 N245 N 0.90182 0.80739 -0.06150
 C246 C 0.90899 0.81861 -0.05681
 H247 H 0.92753 0.84589 -0.04894
 H248 H 0.95710 0.84518 -0.08123
 H249 H 0.95562 0.82455 -0.10169
 H250 H 0.92443 0.79341 -0.09960
 H251 H 0.90518 0.79361 -0.07887
 H252 H 0.90606 0.82497 -0.04811
 C253 C 0.30404 0.32695 0.81242
 C254 C 0.30337 0.31759 0.82342
 C255 C 0.31300 0.30702 0.82454
 C256 C 0.32346 0.30567 0.81465
 C257 C 0.32410 0.31489 0.80378
 C258 C 0.31436 0.32566 0.80269
 C259 C 0.29651 0.33862 0.80920
 N260 N 0.30204 0.34452 0.79778
 C261 C 0.31297 0.33663 0.79372
 C262 C 0.33551 0.31141 0.79609
 N263 N 0.34184 0.30029 0.80203
 C264 C 0.33453 0.29674 0.81342
 C265 C 0.31020 0.29997 0.83652
 N266 N 0.29910 0.30602 0.84270
 C267 C 0.29487 0.31681 0.83470
 H268 H 0.28798 0.34282 0.81509
 H269 H 0.31955 0.33879 0.78500
 H270 H 0.33915 0.31681 0.78704
 H271 H 0.33706 0.28829 0.82032
 H272 H 0.31612 0.29136 0.84063
 H273 H 0.28628 0.32366 0.83692
 C274 C 0.16811 0.56996 0.56077
 C275 C 0.17883 0.57966 0.55969
 C276 C 0.18958 0.57962 0.56915
 C277 C 0.18971 0.56991 0.57988
 C278 C 0.17913 0.56030 0.58098
 C279 C 0.16821 0.56030 0.57130
 C280 C 0.15614 0.56805 0.55328
 N281 N 0.14889 0.55744 0.55893
 C282 C 0.15622 0.55260 0.56996
 C283 C 0.18171 0.55268 0.59274
 N284 N 0.19356 0.55747 0.59878
 C285 C 0.19849 0.56799 0.59091
 C286 C 0.19812 0.59056 0.56597
 N287 N 0.19277 0.59727 0.55482
 C288 C 0.18096 0.59062 0.55092
 H289 H 0.15297 0.57397 0.54433
 H290 H 0.15292 0.54433 0.57672
 H291 H 0.17518 0.54456 0.59682
 H292 H 0.20778 0.57392 0.59304
 H293 H 0.20728 0.59370 0.57167
 H294 H 0.17432 0.59358 0.54238
 C295 C 0.57996 0.68000 0.05922
 C296 C 0.56919 0.67027 0.05965
 C297 C 0.55922 0.67114 0.06976
 C298 C 0.55982 0.68182 0.07955
 C299 C 0.57045 0.69144 0.07915
 C300 C 0.58059 0.69054 0.06886
 C301 C 0.59129 0.68135 0.05080
 N302 N 0.59882 0.69248 0.05504
 C303 C 0.59232 0.69818 0.06609
 C304 C 0.56863 0.70026 0.09016
 N305 N 0.55716 0.69626 0.09720
 C306 C 0.55172 0.68498 0.09074
 C307 C 0.55040 0.66006 0.06798
 N308 N 0.55477 0.65252 0.05699
 C309 C 0.56626 0.65873 0.05184
 H310 H 0.59382 0.67472 0.04218
 H311 H 0.59601 0.70703 0.07190
 H312 H 0.57520 0.70896 0.09282
 H313 H 0.54273 0.67923 0.09413
 H314 H 0.54147 0.65768 0.07424
 H315 H 0.57231 0.65491 0.04328
 C316 C 0.67905 0.19162 0.66911
 C317 C 0.66915 0.19076 0.67959
 C318 C 0.67027 0.18060 0.68956
 C319 C 0.68134 0.17115 0.68920
 C320 C 0.69115 0.17203 0.67890
 C321 C 0.69000 0.18236 0.66878
 C322 C 0.68030 0.20019 0.65788
 N323 N 0.69176 0.19640 0.65071
 C324 C 0.69776 0.18549 0.65734
 C325 C 0.70039 0.16131 0.68089
 N326 N 0.69641 0.15391 0.69211
 C327 C 0.68476 0.15991 0.69725
 C328 C 0.65903 0.18198 0.69812
 N329 N 0.65109 0.19275 0.69359
 C330 C 0.65725 0.19816 0.68224
 H331 H 0.67338 0.20862 0.65517
 H332 H 0.70692 0.18000 0.65393
 H333 H 0.70913 0.15885 0.67438
 H334 H 0.67913 0.15638 0.70619
 H335 H 0.65684 0.17560 0.70700
 H336 H 0.65322 0.20662 0.67609
 C337 C 1.06958 0.06096 0.19745
 C338 C 1.05894 0.07088 0.19731
 C339 C 1.04859 0.07018 0.18745
 C340 C 1.04873 0.05959 0.17759
 C341 C 1.05920 0.04985 0.17764
 C342 C 1.06971 0.05048 0.18770
 C343 C 1.08144 0.05965 0.20527
 N344 N 1.08881 0.04862 0.20055
 C345 C 1.08169 0.04295 0.18981
 C346 C 1.05726 0.04163 0.16618
 N347 N 1.04583 0.04615 0.15907
 C348 C 1.04060 0.05716 0.16620
 C349 C 1.04031 0.08166 0.18905
 N350 N 1.04539 0.08940 0.19963
 C351 C 1.05679 0.08282 0.20477
 H352 H 1.08451 0.06634 0.21370
 H353 H 1.08520 0.03429 0.18364
 H354 H 1.06399 0.03317 0.16330
 H355 H 1.03195 0.06362 0.16315
 H356 H 1.03139 0.08429 0.18275
 H357 H 1.06346 0.08674 0.21290
 C358 C 0.07198 0.17041 1.06162
 C359 C 0.08244 0.18041 1.06043
 C360 C 0.08355 0.19088 1.07009
 C361 C 0.07426 0.19144 1.08115
 C362 C 0.06399 0.18159 1.08234
 C363 C 0.06284 0.17095 1.07251
 C364 C 0.06863 0.15895 1.05387
 N365 N 0.05768 0.15247 1.05978
 C366 C 0.05408 0.15975 1.07122
 C367 C 0.05674 0.18455 1.09413
 N368 N 0.06233 0.19601 1.10031
 C369 C 0.07312 0.20020 1.09226
 C370 C 0.09478 0.19887 1.06650
 N371 N 0.10054 0.19345 1.05493
 C372 C 0.09302 0.18215 1.05116
 H373 H 0.07400 0.15543 1.04476
 H374 H 0.04568 0.15714 1.07809
 H375 H 0.04822 0.17841 1.09791
 H376 H 0.07975 0.20904 1.09407
 H377 H 0.09869 0.20776 1.07212
 H378 H 0.09507 0.17565 1.04231
 C379 C 0.17330 0.69589 0.68096
 C380 C 0.18458 0.69507 0.67196
 C381 C 0.19433 0.68466 0.67354
 C382 C 0.19298 0.67497 0.68421
 C383 C 0.18183 0.67575 0.69307
 C384 C 0.17192 0.68631 0.69143
 C385 C 0.16201 0.70461 0.68155
 N386 N 0.15378 0.70056 0.69214
 C387 C 0.15982 0.68935 0.69823
 C388 C 0.18291 0.66476 0.70206
 N389 N 0.19447 0.65736 0.69890
 C390 C 0.20068 0.66356 0.68799
 C391 C 0.20371 0.68601 0.66301
 N392 N 0.19991 0.69700 0.65507
 C393 C 0.18822 0.70261 0.66052
 H394 H 0.15999 0.71327 0.67475
 H395 H 0.15555 0.68356 0.70675
 H396 H 0.17580 0.66237 0.71029
 H397 H 0.20994 0.65984 0.68292
 H398 H 0.21261 0.67940 0.66123
 H399 H 0.18249 0.71126 0.65621
 C400 C 1.18483 0.17276 0.18929
 C401 C 1.17458 0.18308 0.19001
 C402 C 1.17407 0.19336 0.18012
 C403 C 1.18373 0.19352 0.16942
 C404 C 1.19380 0.18341 0.16867
 C405 C 1.19435 0.17290 0.17867
 C406 C 1.18755 0.16118 0.19714
 N407 N 1.19845 0.15426 0.19154
 C408 C 1.20266 0.16139 0.18024
 C409 C 1.20134 0.18593 0.15694
 N410 N 1.19609 0.19738 0.15042
 C411 C 1.18527 0.20200 0.15818
 C412 C 1.16279 0.20158 0.18293
 N413 N 1.15637 0.19656 0.19430
 C414 C 1.16356 0.18525 0.19874
 H415 H 1.18174 0.15784 0.20604
 H416 H 1.21113 0.15844 0.17359
 H417 H 1.20979 0.17951 0.15343
 H418 H 1.17876 0.21087 0.15606
 H419 H 1.15948 0.21052 0.17704
 H420 H 1.16074 0.17880 0.20739
 C421 C 0.67007 1.06472 0.57316
 C422 C 0.67970 1.06481 0.58410
 C423 C 0.69004 1.07473 0.58445
 C424 C 0.69099 1.08461 0.57393
 C425 C 0.68160 1.08450 0.56319
 C426 C 0.67104 1.07451 0.56280
 C427 C 0.65860 1.05670 0.57026
 N428 N 0.65257 1.06141 0.55843
 C429 C 0.66018 1.07230 0.55382
 C430 C 0.68475 1.09552 0.55480
 N431 N 0.69590 1.10247 0.56014
 C432 C 0.69971 1.09566 0.57191
 C433 C 0.69759 1.07271 0.59633
 N434 N 0.69214 1.06180 0.60327
 C435 C 0.68119 1.05686 0.59583
 H436 H 0.65472 1.04831 0.57655
 H437 H 0.65803 1.07822 0.54459
 H438 H 0.67895 1.09823 0.54563
 H439 H 0.70812 1.09839 0.57879
 H440 H 0.70646 1.07875 0.59964
 H441 H 0.67460 1.04833 0.59886
 C442 C 0.56133 0.55117 0.18007
 C443 C 0.57126 0.55046 0.19070
 C444 C 0.57090 0.56000 0.20130
 C445 C 0.56075 0.57036 0.20146
 C446 C 0.55102 0.57116 0.19099
 C447 C 0.55131 0.56147 0.18021
 C448 C 0.55968 0.54391 0.16796
 N449 N 0.54894 0.54955 0.16075
 C450 C 0.54379 0.56032 0.16818
 C451 C 0.54340 0.58305 0.19316
 N452 N 0.54836 0.58947 0.20466
 C453 C 0.55893 0.58169 0.20980
 C454 C 0.58241 0.55785 0.20940
 N455 N 0.58987 0.54725 0.20398
 C456 C 0.58307 0.54259 0.19256
 H457 H 0.56617 0.53547 0.16445
 H458 H 0.53526 0.56693 0.16503
 H459 H 0.53537 0.58710 0.18643
 H460 H 0.56515 0.58423 0.21878
 H461 H 0.58533 0.56387 0.21836
 H462 H 0.58684 0.53462 0.18568
 C463 C 0.66983 0.67848 0.18894
 C464 C 0.68073 0.66876 0.18893
 C465 C 0.69123 0.66986 0.17932
 C466 C 0.69103 0.68064 0.16961
 C467 C 0.68030 0.69012 0.16965
 C468 C 0.66969 0.68905 0.17933
 C469 C 0.65789 0.67986 0.19662
 N470 N 0.65058 0.69095 0.19179
 C471 C 0.65780 0.69660 0.18123
 C472 C 0.68225 0.69896 0.15876
 N473 N 0.69393 0.69511 0.15203
 C474 C 0.69943 0.68392 0.15864
 C475 C 0.70004 0.65880 0.18131
 N476 N 0.69519 0.65095 0.19187
 C477 C 0.68338 0.65702 0.19660
 H478 H 0.65461 0.67308 0.20486
 H479 H 0.65466 0.70560 0.17532
 H480 H 0.67555 0.70751 0.15590
 H481 H 0.70857 0.67829 0.15543
 H482 H 0.70930 0.65665 0.17544
 H483 H 0.67692 0.65299 0.20473
 C484 C 0.17715 0.06852 1.05431
 C485 C 0.18724 0.07900 1.05481
 C486 C 0.19721 0.07883 1.06508
 C487 C 0.19725 0.06832 1.07498
 C488 C 0.18733 0.05800 1.07456
 C489 C 0.17721 0.05808 1.06409
 C490 C 0.16582 0.06637 1.04589
 N491 N 0.15900 0.05487 1.05027
 C492 C 0.16592 0.04974 1.06141
 C493 C 0.18943 0.04980 1.08602
 N494 N 0.20033 0.05498 1.09336
 C495 C 0.20518 0.06627 1.08659
 C496 C 0.20512 0.09055 1.06364
 N497 N 0.20021 0.09794 1.05274
 C498 C 0.18927 0.09090 1.04724
 H499 H 0.16277 0.07275 1.03722
 H500 H 0.16277 0.04084 1.06740
 H501 H 0.18310 0.04108 1.08907
 H502 H 0.21375 0.07271 1.08993
 H503 H 0.21375 0.09350 1.07018
 H504 H 0.18291 0.09441 1.03869
 C505 C 0.57301 0.19590 0.55962
 C506 C 0.56303 0.19716 0.56999
 C507 C 0.55254 0.18747 0.57102
 C508 C 0.55190 0.17635 0.56172
 C509 C 0.56176 0.17510 0.55153
 C510 C 0.57241 0.18491 0.55049
 C511 C 0.58474 0.20337 0.55660
 N512 N 0.59129 0.19718 0.54587
 C513 C 0.58379 0.18587 0.54208
 C514 C 0.55898 0.16306 0.54446
 N515 N 0.54766 0.15694 0.55010
 C516 C 0.54328 0.16505 0.56069
 C517 C 0.54485 0.19084 0.58242
 N518 N 0.55041 0.20235 0.58837
 C519 C 0.56153 0.20628 0.58078
 H520 H 0.58847 0.21239 0.56213
 H521 H 0.58645 0.17877 0.53386
 H522 H 0.56507 0.15885 0.53612
 H523 H 0.53450 0.16289 0.56723
 H524 H 0.53619 0.18498 0.58638
 H525 H 0.56819 0.21504 0.58299
 C526 C 0.07341 0.56530 0.69622
 C527 C 0.06354 0.57599 0.69629
 C528 C 0.05310 0.57630 0.68642
 C529 C 0.05246 0.56593 0.67628
 C530 C 0.06222 0.55541 0.67627
 C531 C 0.07271 0.55509 0.68628
 C532 C 0.08524 0.56291 0.70389
 N533 N 0.09174 0.55150 0.69879
 C534 C 0.08407 0.54665 0.68803
 C535 C 0.05983 0.54742 0.66482
 N536 N 0.04888 0.55280 0.65776
 C537 C 0.04423 0.56410 0.66475
 C538 C 0.04555 0.58822 0.68859
 N539 N 0.05117 0.59515 0.69947
 C540 C 0.06219 0.58772 0.70422
 H541 H 0.08912 0.56938 0.71216
 H542 H 0.08664 0.53776 0.68175
 H543 H 0.06584 0.53847 0.66173
 H544 H 0.03591 0.57086 0.66138
 H545 H 0.03689 0.59182 0.68239
 H546 H 0.06883 0.59065 0.71276
 C547 C 0.68129 0.55281 0.06004
 C548 C 0.69077 0.55182 0.07100
 C549 C 0.70095 0.56177 0.07267
 C550 C 0.70174 0.57290 0.06342
 C551 C 0.69237 0.57389 0.05261
 C552 C 0.68204 0.56379 0.05093
 C553 C 0.66997 0.54498 0.05634
 N554 N 0.66375 0.55094 0.04522
 C555 C 0.67108 0.56247 0.04185
 C556 C 0.69527 0.58597 0.04567
 N557 N 0.70613 0.59236 0.05203
 C558 C 0.71013 0.58441 0.06292
 C559 C 0.70822 0.55852 0.08448
 N560 N 0.70266 0.54688 0.09005
 C561 C 0.69198 0.54272 0.08184
 H562 H 0.66625 0.53588 0.06168
 H563 H 0.66856 0.56947 0.03348
 H564 H 0.68961 0.59001 0.03688
 H565 H 0.71851 0.58682 0.06999
 H566 H 0.71662 0.56449 0.08895
 H567 H 0.68545 0.53379 0.08366
 C568 C 0.06867 0.69552 0.57353
 C569 C 0.07983 0.69609 0.56433
 C570 C 0.08077 0.68653 0.55375
 C571 C 0.07063 0.67622 0.55226
 C572 C 0.05961 0.67572 0.56129
 C573 C 0.05865 0.68540 0.57200
 C574 C 0.06533 0.70310 0.58506
 N575 N 0.05354 0.69780 0.59059
 C576 C 0.04940 0.68697 0.58260
 C577 C 0.05167 0.66443 0.55775
 N578 N 0.05762 0.65800 0.54682
 C579 C 0.06923 0.66515 0.54339
 C580 C 0.09275 0.68935 0.54667
 N581 N 0.09912 0.70038 0.55269
 C582 C 0.09129 0.70454 0.56354
 H583 H 0.07132 0.71157 0.58933
 H584 H 0.04033 0.68063 0.58435
 H585 H 0.04250 0.66089 0.56306
 H586 H 0.07622 0.66246 0.53513
 H587 H 0.09667 0.68359 0.53796
 H588 H 0.09369 0.71312 0.57032
 C589 C 0.56593 1.05306 0.67622
 C590 C 0.57594 1.05328 0.68672
 C591 C 0.57577 1.06365 0.69651
 C592 C 0.56552 1.07398 0.69589
 C593 C 0.55567 1.07378 0.68552
 C594 C 0.55588 1.06320 0.67557
 C595 C 0.56424 1.04468 0.66493
 N596 N 0.55334 1.04938 0.65718
 C597 C 0.54818 1.06078 0.66381
 C598 C 0.54760 1.08544 0.68710
 N599 N 0.55225 1.09285 0.69821
 C600 C 0.56328 1.08570 0.70358
 C601 C 0.58722 1.06174 0.70487
 N602 N 0.59434 1.05048 0.70030
 C603 C 0.58745 1.04524 0.68922
 H604 H 0.57084 1.03593 0.66265
 H605 H 0.53973 1.06727 0.66033
 H606 H 0.53906 1.08818 0.68037
 H607 H 0.56968 1.08878 0.71222
 H608 H 0.59042 1.06839 0.71328
 H609 H 0.59064 1.03633 0.68325
 C610 C 0.44475 0.32810 0.92754
 C611 C 0.44493 0.31798 0.91720
 C612 C 0.43481 0.30787 0.91680
 C613 C 0.42432 0.30782 0.92673
 C614 C 0.42413 0.31783 0.93694
 C615 C 0.43449 0.32807 0.93734
 C616 C 0.45305 0.33937 0.93001
 N617 N 0.44819 0.34643 0.94118
 C618 C 0.43677 0.33942 0.94570
 C619 C 0.41246 0.31550 0.94473
 N620 N 0.40558 0.30436 0.93947
 C621 C 0.41283 0.29961 0.92847
 C622 C 0.43723 0.29986 0.90532
 N623 N 0.44854 0.30493 0.89873
 C624 C 0.45332 0.31601 0.90598
 H625 H 0.46202 0.34197 0.92395
 H626 H 0.43020 0.34238 0.95418
 H627 H 0.40904 0.32175 0.95332
 H628 H 0.40998 0.29083 0.92212
 H629 H 0.43092 0.29129 0.90176
 H630 H 0.46218 0.32228 0.90325
 C631 C 0.94246 0.42861 0.33117
 C632 C 0.94170 0.41891 0.32039
 C633 C 0.93100 0.41966 0.31084
 C634 C 0.92096 0.43015 0.31189
 C635 C 0.92174 0.43967 0.32251
 C636 C 0.93259 0.43890 0.33217
 C637 C 0.95144 0.43022 0.34213
 N638 N 0.94733 0.44132 0.34987
 C639 C 0.93572 0.44662 0.34365
 C640 C 0.91051 0.44840 0.32122
 N641 N 0.90294 0.44446 0.31003
 C642 C 0.90929 0.43330 0.30425
 C643 C 0.93263 0.40875 0.30186
 N644 N 0.94407 0.40139 0.30569
 C645 C 0.94968 0.40758 0.31701
 H646 H 0.96037 0.42371 0.34407
 H647 H 0.92956 0.45523 0.34725
 H648 H 0.90808 0.45704 0.32791
 H649 H 0.90554 0.42768 0.29533
 H650 H 0.92597 0.40636 0.29316
 H651 H 0.95871 0.40392 0.32262
 C652 C 0.30962 0.93195 0.41902
 C653 C 0.30982 0.92132 0.42889
 C654 C 0.31978 0.92135 0.43922
 C655 C 0.32968 0.93200 0.43981
 C656 C 0.32940 0.94242 0.43011
 C657 C 0.31934 0.94237 0.41964
 C658 C 0.30155 0.93434 0.40751
 N659 N 0.30614 0.94601 0.40099
 C660 C 0.31707 0.95092 0.40856
 C661 C 0.34038 0.95105 0.43283
 N662 N 0.34754 0.94623 0.44403
 C663 C 0.34090 0.93449 0.44830
 C664 C 0.31775 0.90961 0.44701
 N665 N 0.30682 0.90245 0.44166
 C666 C 0.30193 0.90959 0.43056
 H667 H 0.29322 0.92766 0.40412
 H668 H 0.32318 0.96001 0.40637
 H669 H 0.34297 0.95996 0.42664
 H670 H 0.34384 0.92800 0.45691
 H671 H 0.32403 0.90636 0.45571
 H672 H 0.29323 0.90653 0.42415
 O673 O 0.21249 0.52082 0.75130
 O674 O 0.21714 0.51983 0.77461
 O675 O 0.24920 0.53886 0.73407
 O676 O 0.27195 0.53421 0.73354
 O677 O 0.23110 0.50256 0.71550
 O678 O 0.23147 0.47868 0.72085
 O679 O 0.28520 0.50117 0.77071
 O680 O 0.28186 0.52475 0.76756
 O681 O 0.24976 0.48495 0.78845
 O682 O 0.22497 0.48612 0.78364
 O683 O 0.26616 0.46565 0.75369
 O684 O 0.26608 0.47001 0.72937
 O685 O 0.28501 0.48407 0.75458
 O686 O 0.28001 0.48562 0.72864
 O687 O 0.24965 0.46622 0.77026
 O688 O 0.22408 0.47199 0.76838
 O689 O 0.26710 0.50086 0.78826
 O690 O 0.26288 0.52611 0.78348
 O691 O 0.21192 0.50368 0.73516
 O692 O 0.21685 0.47889 0.73665
 O693 O 0.24800 0.51895 0.71506
 O694 O 0.27325 0.51613 0.72085
 O695 O 0.23221 0.53954 0.75018
 O696 O 0.23561 0.53455 0.77522
 Zr697 Zr 0.23271 0.51970 0.75932
 O698 O 0.24445 0.50719 0.77282
 Zr699 Zr 0.25682 0.51847 0.73503
 O700 O 0.26993 0.50652 0.74782
 Zr701 Zr 0.23193 0.49474 0.73566
 O702 O 0.24417 0.48142 0.74788
 Zr703 Zr 0.26553 0.51015 0.76867
 O704 O 0.25388 0.52371 0.75591
 Zr705 Zr 0.24086 0.48614 0.76870
 O706 O 0.22763 0.49863 0.75648
 Zr707 Zr 0.26537 0.48548 0.74481
 O708 O 0.25308 0.49737 0.73098
 O709 O 0.23582 0.51568 0.73854
 O710 O 0.26197 0.48908 0.76561
 C711 C 0.20624 0.51360 0.74202
 C712 C 0.23949 0.54514 0.74062
 C713 C 0.23814 0.51197 0.70935
 C714 C 0.29084 0.49089 0.76446
 C715 C 0.26003 0.49126 0.79412
 C716 C 0.25935 0.46009 0.76358
 H717 H 0.24229 0.50965 0.78246
 H718 H 0.24179 0.47170 0.74568
 H719 H 0.22994 0.52159 0.73255
 H720 H 0.27974 0.50867 0.74582
 H721 H 0.27765 0.53357 0.76441
 H722 H 0.27871 0.53256 0.74106
 H723 H 0.22578 0.46520 0.76095
 H724 H 0.21196 0.48010 0.74551
 H725 H 0.27072 0.52554 0.79012
 H726 H 0.22854 0.54196 0.77415
 H727 H 0.25693 0.46539 0.72919
 H728 H 0.24079 0.47844 0.71664
 H729 H 0.21329 0.51033 0.77495
 H730 H 0.22579 0.49479 0.78903
 H731 H 0.27121 0.50773 0.71534
 H732 H 0.28708 0.49273 0.73081
 O733 O 0.20991 0.01424 0.24626
 O734 O 0.21340 0.01253 0.26988
 O735 O 0.24604 0.03550 0.23182
 O736 O 0.26903 0.03254 0.23236
 O737 O 0.23179 -0.00154 0.21112
 O738 O 0.23355 -0.02552 0.21594
 O739 O 0.28288 -0.00107 0.26903
 O740 O 0.27809 0.02243 0.26627
 O741 O 0.24802 -0.02023 0.28438
 O742 O 0.22335 -0.02049 0.27848
 O743 O 0.26732 -0.03699 0.25007
 O744 O 0.26780 -0.03168 0.22558
 O745 O 0.28465 -0.01743 0.25225
 O746 O 0.28101 -0.01552 0.22639
 O747 O 0.24988 -0.03827 0.26560
 O748 O 0.22414 -0.03417 0.26280
 O749 O 0.26392 -0.00292 0.28559
 O750 O 0.25826 0.02204 0.28125
 O751 O 0.21152 -0.00228 0.22959
 O752 O 0.21795 -0.02666 0.23079
 O753 O 0.24738 0.01608 0.21211
 O754 O 0.27234 0.01509 0.21913
 O755 O 0.22824 0.03429 0.24701
 O756 O 0.23057 0.02866 0.27196
 Zr757 Zr 0.22971 0.01422 0.25547
 O758 O 0.24173 0.00218 0.26917
 Zr759 Zr 0.25509 0.01565 0.23250
 O760 O 0.26839 0.00417 0.24551
 Zr761 Zr 0.23201 -0.00986 0.23108
 O762 O 0.24451 -0.02271 0.24354
 Zr763 Zr 0.26275 0.00675 0.26619
 O764 O 0.25069 0.01987 0.25333
 Zr765 Zr 0.23986 -0.01893 0.26430
 O766 O 0.22636 -0.00705 0.25175
 Zr767 Zr 0.26547 -0.01703 0.24163
 O768 O 0.25310 -0.00550 0.22760
 O769 O 0.23420 0.01120 0.23478
 O770 O 0.26083 -0.01439 0.26234
 C771 C 0.20476 0.00701 0.23634
 C772 C 0.23557 0.04080 0.23808
 C773 C 0.23847 0.00854 0.20564
 C774 C 0.28951 -0.01070 0.26267
 C775 C 0.25743 -0.01329 0.29077
 C776 C 0.26039 -0.04341 0.25933
 H777 H 0.23894 0.00416 0.27876
 H778 H 0.24293 -0.03249 0.24094
 H779 H 0.22826 0.01689 0.22864
 H780 H 0.27812 0.00705 0.24408
 H781 H 0.27342 0.03107 0.26322
 H782 H 0.27569 0.03095 0.23997
 H783 H 0.22653 -0.04044 0.25510
 H784 H 0.21259 -0.02611 0.23943
 H785 H 0.26583 0.02187 0.28822
 H786 H 0.22296 0.03550 0.27076
 H787 H 0.25937 -0.03751 0.22540
 H788 H 0.24308 -0.02497 0.21224
 H789 H 0.21016 0.00280 0.26955
 H790 H 0.22334 -0.01197 0.28415
 H791 H 0.27137 0.00661 0.21345
 H792 H 0.28715 -0.00769 0.22886
 O793 O 0.53528 0.72970 0.24916
 O794 O 0.53176 0.73221 0.27247
 O795 O 0.49768 0.71068 0.23437
 O796 O 0.47515 0.71551 0.23310
 O797 O 0.51537 0.74613 0.21309
 O798 O 0.51498 0.77032 0.21731
 O799 O 0.46323 0.74972 0.26941
 O800 O 0.46674 0.72619 0.26745
 O801 O 0.49905 0.76736 0.28555
 O802 O 0.52376 0.76623 0.28010
 O803 O 0.48087 0.78454 0.25057
 O804 O 0.48024 0.77962 0.22672
 O805 O 0.46243 0.76576 0.25226
 O806 O 0.46713 0.76315 0.22618
 O807 O 0.49806 0.78511 0.26665
 O808 O 0.52369 0.77974 0.26418
 O809 O 0.48212 0.75106 0.28663
 O810 O 0.48639 0.72574 0.28282
 O811 O 0.53515 0.74593 0.23213
 O812 O 0.53020 0.77093 0.23293
 O813 O 0.49872 0.72952 0.21398
 O814 O 0.47349 0.73283 0.22010
 O815 O 0.51550 0.71099 0.24981
 O816 O 0.51347 0.71747 0.27460
 Zr817 Zr 0.51546 0.73134 0.25777
 O818 O 0.50411 0.74443 0.27089
 Zr819 Zr 0.49042 0.73117 0.23400
 O820 O 0.47768 0.74354 0.24653
 Zr821 Zr 0.51516 0.75500 0.23287
 O822 O 0.50316 0.76885 0.24469
 Zr823 Zr 0.48294 0.74098 0.26741
 O824 O 0.49422 0.72697 0.25502
 Zr825 Zr 0.50725 0.76530 0.26565
 O826 O 0.52020 0.75229 0.25377
 Zr827 Zr 0.48189 0.76444 0.24236
 O828 O 0.49386 0.75204 0.22882
 O829 O 0.51152 0.73421 0.23689
 O830 O 0.48608 0.76191 0.26324
 C831 C 0.54108 0.73628 0.23924
 C832 C 0.50764 0.70479 0.24100
 C833 C 0.50829 0.73623 0.20766
 C834 C 0.45708 0.75936 0.26259
 C835 C 0.48921 0.76108 0.29184
 C836 C 0.48783 0.79066 0.26011
 H837 H 0.50668 0.74249 0.28058
 H838 H 0.50528 0.77849 0.24199
 H839 H 0.51714 0.72792 0.23111
 H840 H 0.46784 0.74116 0.24484
 H841 H 0.47091 0.71726 0.26460
 H842 H 0.46928 0.71677 0.24131
 H843 H 0.52155 0.78612 0.25649
 H844 H 0.53543 0.77006 0.24169
 H845 H 0.47882 0.72651 0.28964
 H846 H 0.52053 0.71003 0.27369
 H847 H 0.48959 0.78360 0.22545
 H848 H 0.50553 0.77025 0.21327
 H849 H 0.53550 0.74176 0.27218
 H850 H 0.52326 0.75784 0.28592
 H851 H 0.47559 0.74057 0.21376
 H852 H 0.46001 0.75632 0.22888
 O853 O -0.00195 0.71704 0.72479
 O854 O -0.02552 0.72141 0.72647
 O855 O 0.01434 0.75345 0.70548
 O856 O 0.01540 0.77614 0.70951
 O857 O 0.03440 0.73655 0.74189
 O858 O 0.02951 0.73730 0.76566
 O859 O -0.02123 0.79014 0.74259
 O860 O -0.01884 0.78600 0.71923
 O861 O -0.03864 0.75516 0.76035
 O862 O -0.03388 0.73045 0.75991
 O863 O -0.00316 0.77243 0.77802
 O864 O 0.02122 0.77219 0.77329
 O865 O -0.00440 0.79054 0.75912
 O866 O 0.02163 0.78551 0.75727
 O867 O -0.01975 0.75577 0.77852
 O868 O -0.01796 0.72996 0.77350
 O869 O -0.03892 0.77194 0.74396
 O870 O -0.03488 0.76691 0.71894
 O871 O 0.01468 0.71705 0.74155
 O872 O 0.01366 0.72259 0.76607
 O873 O 0.03428 0.75280 0.72495
 O874 O 0.02840 0.77807 0.72709
 O875 O -0.00164 0.73614 0.70575
 O876 O -0.02672 0.73941 0.71122
 Zr877 Zr -0.01024 0.73714 0.72566
 O878 O -0.02350 0.74918 0.73803
 Zr879 Zr 0.01416 0.76145 0.72558
 O880 O 0.00161 0.77482 0.73729
 Zr881 Zr 0.01425 0.73727 0.74992
 O882 O 0.00233 0.74986 0.76305
 Zr883 Zr -0.01948 0.77018 0.73431
 O884 O -0.00700 0.75819 0.72094
 Zr885 Zr -0.01878 0.74631 0.75898
 O886 O -0.00682 0.73275 0.74669
 Zr887 Zr 0.00530 0.77091 0.75824
 O888 O 0.01887 0.75833 0.74653
 O889 O 0.01079 0.74053 0.72907
 O890 O -0.01576 0.76731 0.75527
 C891 C 0.00766 0.71108 0.73189
 C892 C 0.00766 0.74347 0.69971
 C893 C 0.04031 0.74336 0.73220
 C894 C -0.01453 0.79613 0.75240
 C895 C -0.04454 0.76519 0.75388
 C896 C -0.01292 0.76579 0.78404
 H897 H -0.03328 0.74689 0.73588
 H898 H 0.00482 0.74781 0.77273
 H899 H 0.01671 0.73458 0.72322
 H900 H 0.00355 0.78456 0.73478
 H901 H -0.01597 0.78151 0.71052
 H902 H 0.00754 0.78260 0.71077
 H903 H -0.01034 0.73197 0.78008
 H904 H 0.00473 0.71761 0.76516
 H905 H -0.04155 0.77472 0.71938
 H906 H -0.02584 0.73210 0.70409
 H907 H 0.02143 0.76325 0.77828
 H908 H 0.03365 0.74668 0.76567
 H909 H -0.02543 0.71778 0.73600
 H910 H -0.03932 0.73076 0.75124
 H911 H 0.03430 0.77627 0.73527
 H912 H 0.01928 0.79235 0.75002
 O913 O 0.04197 0.01432 0.00119
 O914 O 0.03760 0.01374 -0.02238
 O915 O 0.00712 0.03540 0.01824
 O916 O -0.01588 0.03310 0.01858
 O917 O 0.02134 -0.00312 0.03619
 O918 O 0.01878 -0.02677 0.02999
 O919 O -0.03220 0.00225 -0.01925
 O920 O -0.02658 0.02532 -0.01545
 O921 O 0.00142 -0.01702 -0.03736
 O922 O 0.02628 -0.01845 -0.03250
 O923 O -0.01702 -0.03519 -0.00329
 O924 O -0.01617 -0.03159 0.02139
 O925 O -0.03371 -0.01497 -0.00334
 O926 O -0.02866 -0.01486 0.02246
 O927 O -0.00028 -0.03617 -0.01961
 O928 O 0.02570 -0.03303 -0.01762
 O929 O -0.01405 0.00075 -0.03678
 O930 O -0.00743 0.02518 -0.03130
 O931 O 0.04073 -0.00305 0.01701
 O932 O 0.03381 -0.02727 0.01434
 O933 O 0.00593 0.01472 0.03688
 O934 O -0.01920 0.01507 0.03079
 O935 O 0.02411 0.03468 0.00213
 O936 O 0.02076 0.03039 -0.02298
 Zr937 Zr 0.02188 0.01510 -0.00730
 O938 O 0.00898 0.00419 -0.02111
 Zr939 Zr -0.00245 0.01587 0.01681
 O940 O -0.01658 0.00554 0.00378
 Zr941 Zr 0.02006 -0.01024 0.01577
 O942 O 0.00665 -0.02203 0.00317
 Zr943 Zr -0.01174 0.00920 -0.01694
 O944 O 0.00119 0.02121 -0.00390
 Zr945 Zr 0.01043 -0.01723 -0.01756
 O946 O 0.02481 -0.00643 -0.00497
 Zr947 Zr -0.01405 -0.01591 0.00631
 O948 O -0.00076 -0.00557 0.02041
 O949 O 0.01819 0.01104 0.01338
 O950 O -0.01027 -0.01219 -0.01441
 C951 C 0.04734 0.00657 0.01060
 C952 C 0.01736 0.04083 0.01175
 C953 C 0.01495 0.00666 0.04254
 C954 C -0.03884 -0.00745 -0.01309
 C955 C -0.00805 -0.00941 -0.04289
 C956 C -0.01077 -0.04127 -0.01326
 H957 H 0.01141 0.00664 -0.03068
 H958 H 0.00804 -0.03199 0.00511
 H959 H 0.02445 0.01626 0.01961
 H960 H -0.02614 0.00861 0.00582
 H961 H -0.02153 0.03363 -0.01218
 H962 H -0.02280 0.03226 0.01108
 H963 H 0.02347 -0.03963 -0.01016
 H964 H 0.03879 -0.02625 0.00552
 H965 H -0.01531 0.02568 -0.03791
 H966 H 0.02858 0.03696 -0.02172
 H967 H -0.00780 -0.03751 0.02098
 H968 H 0.00942 -0.02622 0.03409
 H969 H 0.04066 0.00394 -0.02261
 H970 H 0.02644 -0.00954 -0.03752
 H971 H -0.01826 0.00628 0.03597
 H972 H -0.03482 -0.00684 0.02068
 O973 O -0.02654 0.46855 0.50165
 O974 O -0.02612 0.47403 0.52496
 O975 O -0.04045 0.50552 0.48164
 O976 O -0.03401 0.52767 0.48009
 O977 O -0.00446 0.48361 0.46678
 O978 O 0.01924 0.48291 0.47404
 O979 O -0.00275 0.54059 0.51865
 O980 O -0.02627 0.53871 0.51383
 O981 O 0.00934 0.50524 0.53994
 O982 O 0.00664 0.48013 0.53626
 O983 O 0.03232 0.51824 0.50622
 O984 O 0.02996 0.51658 0.48146
 O985 O 0.01522 0.53826 0.50375
 O986 O 0.01568 0.53157 0.47844
 O987 O 0.02938 0.50270 0.52351
 O988 O 0.02216 0.47770 0.52269
 O989 O -0.00523 0.52359 0.53732
 O990 O -0.03017 0.52090 0.53072
 O991 O -0.00816 0.46583 0.48728
 O992 O 0.01668 0.46888 0.49037
 O993 O -0.01931 0.50175 0.46423
 O994 O -0.01514 0.52684 0.46868
 O995 O -0.04344 0.48980 0.49881
 O996 O -0.03970 0.49338 0.52380
 Zr997 Zr -0.02416 0.48890 0.50905
 O998 O -0.01189 0.50057 0.52279
 Zr999 Zr -0.01957 0.51153 0.48362
 O1000 O -0.00753 0.52440 0.49647
 Zr1001 Zr 0.00218 0.48509 0.48743
 O1002 O 0.01550 0.49692 0.50010
 Zr1003 Zr -0.01300 0.52152 0.51716
 O1004 O -0.02642 0.51007 0.50414
 Zr1005 Zr 0.00908 0.49524 0.52066
 O1006 O -0.00335 0.48224 0.50814
 Zr1007 Zr 0.01330 0.51810 0.49547
 O1008 O 0.00143 0.50605 0.48143
 O1009 O -0.01859 0.49063 0.48848
 O1010 O 0.00794 0.51627 0.51609
 C1011 C -0.01913 0.46132 0.49331
 C1012 C -0.04790 0.49695 0.48852
 C1013 C -0.01286 0.49107 0.45958
 C1014 C 0.00817 0.54516 0.51265
 C1015 C 0.00331 0.51623 0.54442
 C1016 C 0.03661 0.51169 0.51697
 H1017 H -0.01520 0.49917 0.53231
 H1018 H 0.02516 0.49373 0.49890
 H1019 H -0.02459 0.48496 0.48238
 H1020 H -0.00879 0.53418 0.49370
 H1021 H -0.03515 0.53494 0.51028
 H1022 H -0.03214 0.53486 0.48711
 H1023 H 0.02933 0.47826 0.51546
 H1024 H 0.01479 0.46488 0.49956
 H1025 H -0.02960 0.52912 0.53683
 H1026 H -0.04742 0.48668 0.52263
 H1027 H 0.03403 0.50722 0.48247
 H1028 H 0.02023 0.49190 0.46922
 H1029 H -0.01704 0.46929 0.52582
 H1030 H -0.00223 0.48203 0.54097
 H1031 H -0.00646 0.52399 0.46407
 H1032 H 0.00857 0.53893 0.47915
 O1033 O 0.50125 0.03542 0.51740
 O1034 O 0.47775 0.03010 0.51506
 O1035 O 0.51861 0.00055 0.53850
 O1036 O 0.52003 -0.02243 0.53546
 O1037 O 0.53838 0.01682 0.50235
 O1038 O 0.53392 0.01412 0.47815
 O1039 O 0.48520 -0.03913 0.50204
 O1040 O 0.48724 -0.03395 0.52532
 O1041 O 0.46617 -0.00560 0.48280
 O1042 O 0.47011 0.01978 0.48284
 O1043 O 0.50200 -0.02201 0.46624
 O1044 O 0.52687 -0.02002 0.47138
 O1045 O 0.50208 -0.03937 0.48577
 O1046 O 0.52749 -0.03343 0.48729
 O1047 O 0.48506 -0.00568 0.46494
 O1048 O 0.48546 0.01992 0.46889
 O1049 O 0.46666 -0.02174 0.49982
 O1050 O 0.47026 -0.01565 0.52457
 O1051 O 0.51784 0.03528 0.50082
 O1052 O 0.51789 0.02882 0.47681
 O1053 O 0.53865 0.00074 0.51946
 O1054 O 0.53397 -0.02442 0.51841
 O1055 O 0.50172 0.01697 0.53716
 O1056 O 0.47705 0.01291 0.53124
 Zr1057 Zr 0.49361 0.01501 0.51709
 O1058 O 0.48094 0.00190 0.50509
 Zr1059 Zr 0.51889 -0.00844 0.51874
 O1060 O 0.50715 -0.02266 0.50708
 Zr1061 Zr 0.51845 0.01473 0.49347
 O1062 O 0.50690 0.00144 0.48053
 Zr1063 Zr 0.48591 -0.01879 0.50961
 O1064 O 0.49762 -0.00572 0.52274
 Zr1065 Zr 0.48562 0.00427 0.48417
 O1066 O 0.49716 0.01866 0.49601
 Zr1067 Zr 0.51071 -0.01930 0.48602
 O1068 O 0.52371 -0.00601 0.49776
 O1069 O 0.51480 0.01219 0.51435
 O1070 O 0.48952 -0.01646 0.48861
 C1071 C 0.51060 0.04140 0.51012
 C1072 C 0.51127 0.01036 0.54373
 C1073 C 0.54439 0.01037 0.51235
 C1074 C 0.49226 -0.04518 0.49258
 C1075 C 0.46075 -0.01566 0.48959
 C1076 C 0.49203 -0.01580 0.45988
 H1077 H 0.47107 0.00384 0.50701
 H1078 H 0.50929 0.00328 0.47082
 H1079 H 0.52037 0.01858 0.52012
 H1080 H 0.50952 -0.03222 0.50993
 H1081 H 0.48979 -0.02898 0.53390
 H1082 H 0.51334 -0.02994 0.53350
 H1083 H 0.49361 0.01846 0.46293
 H1084 H 0.50852 0.03304 0.47679
 H1085 H 0.46403 -0.02382 0.52438
 H1086 H 0.47747 0.02069 0.53792
 H1087 H 0.52607 -0.01165 0.46555
 H1088 H 0.53858 0.00501 0.47907
 H1089 H 0.47808 0.03354 0.50547
 H1090 H 0.46408 0.01886 0.49099
 H1091 H 0.53943 -0.02315 0.50990
 H1092 H 0.52597 -0.03945 0.49539
 O1093 O 0.54300 0.51308 0.00147
 O1094 O 0.53764 0.51084 -0.02181
 O1095 O 0.50768 0.53357 0.01858
 O1096 O 0.48484 0.53013 0.01996
 O1097 O 0.52462 0.49722 0.03842
 O1098 O 0.52296 0.47306 0.03395
 O1099 O 0.46867 0.49624 -0.01468
 O1100 O 0.47346 0.51970 -0.01306
 O1101 O 0.50276 0.47733 -0.03322
 O1102 O 0.52785 0.47756 -0.02923
 O1103 O 0.48646 0.46061 0.00252
 O1104 O 0.48836 0.46576 0.02701
 O1105 O 0.46881 0.47998 0.00228
 O1106 O 0.47495 0.48181 0.02762
 O1107 O 0.50262 0.45949 -0.01434
 O1108 O 0.52851 0.46393 -0.01349
 O1109 O 0.48612 0.49401 -0.03309
 O1110 O 0.49178 0.51912 -0.02975
 O1111 O 0.54322 0.49665 0.01831
 O1112 O 0.53741 0.47214 0.01790
 O1113 O 0.50833 0.51427 0.03857
 O1114 O 0.48304 0.51289 0.03354
 O1115 O 0.52419 0.53262 0.00199
 O1116 O 0.51994 0.52662 -0.02264
 Zr1117 Zr 0.52254 0.51240 -0.00614
 O1118 O 0.50971 0.49996 -0.01870
 Zr1119 Zr 0.49914 0.51354 0.01883
 O1120 O 0.48513 0.50163 0.00710
 Zr1121 Zr 0.52290 0.48858 0.01860
 O1122 O 0.50974 0.47529 0.00729
 Zr1123 Zr 0.48892 0.50412 -0.01403
 O1124 O 0.50168 0.51763 -0.00233
 Zr1125 Zr 0.51247 0.47894 -0.01383
 O1126 O 0.52668 0.49125 -0.00252
 Zr1127 Zr 0.48891 0.48054 0.01092
 O1128 O 0.50208 0.49251 0.02377
 O1129 O 0.51986 0.50954 0.01490
 O1130 O 0.49165 0.48307 -0.01015
 C1131 C 0.54913 0.50608 0.01102
 C1132 C 0.51744 0.53904 0.01144
 C1133 C 0.51798 0.50709 0.04437
 C1134 C 0.46281 0.48671 -0.00753
 C1135 C 0.49252 0.48384 -0.03879
 C1136 C 0.49260 0.45430 -0.00737
 H1137 H 0.51163 0.50187 -0.02851
 H1138 H 0.51174 0.46556 0.00977
 H1139 H 0.52611 0.51544 0.02050
 H1140 H 0.47552 0.50437 0.00937
 H1141 H 0.47827 0.52843 -0.01058
 H1142 H 0.47772 0.52841 0.01280
 H1143 H 0.52678 0.45759 -0.00569
 H1144 H 0.54181 0.47256 0.00873
 H1145 H 0.48363 0.51870 -0.03603
 H1146 H 0.52748 0.53360 -0.02216
 H1147 H 0.49689 0.46010 0.02642
 H1148 H 0.51374 0.47345 0.03837
 H1149 H 0.54121 0.50121 -0.02156
 H1150 H 0.52721 0.48602 -0.03495
 H1151 H 0.48464 0.50453 0.03925
 H1152 H 0.46852 0.48961 0.02581
 O1153 O 0.76425 0.29113 0.49895
 O1154 O 0.76342 0.28582 0.52239
 O1155 O 0.78351 0.25596 0.48043
 O1156 O 0.78001 0.23301 0.47943
 O1157 O 0.74612 0.27298 0.46307
 O1158 O 0.72211 0.27088 0.46881
 O1159 O 0.74808 0.21695 0.51592
 O1160 O 0.77157 0.22145 0.51242
 O1161 O 0.73085 0.25078 0.53557
 O1162 O 0.73114 0.27601 0.53186
 O1163 O 0.71142 0.23518 0.50055
 O1164 O 0.71538 0.23676 0.47578
 O1165 O 0.73067 0.21717 0.50000
 O1166 O 0.73094 0.22289 0.47465
 O1167 O 0.71172 0.25117 0.51771
 O1168 O 0.71633 0.27679 0.51713
 O1169 O 0.74766 0.23431 0.53426
 O1170 O 0.77247 0.23978 0.52929
 O1171 O 0.74645 0.29137 0.48342
 O1172 O 0.72218 0.28549 0.48483
 O1173 O 0.76298 0.25656 0.46177
 O1174 O 0.76181 0.23135 0.46651
 O1175 O 0.78374 0.27215 0.49746
 O1176 O 0.77930 0.26823 0.52226
 Zr1177 Zr 0.76404 0.27070 0.50658
 O1178 O 0.75252 0.25783 0.51977
 Zr1179 Zr 0.76350 0.24730 0.48141
 O1180 O 0.75229 0.23329 0.49368
 Zr1181 Zr 0.73860 0.27103 0.48328
 O1182 O 0.72610 0.25799 0.49535
 Zr1183 Zr 0.75627 0.23705 0.51463
 O1184 O 0.76898 0.24984 0.50230
 Zr1185 Zr 0.73123 0.26068 0.51625
 O1186 O 0.74269 0.27485 0.50423
 Zr1187 Zr 0.73097 0.23715 0.49123
 O1188 O 0.74215 0.25024 0.47775
 O1189 O 0.75977 0.26801 0.48574
 O1190 O 0.73498 0.23988 0.51212
 C1191 C 0.75643 0.29727 0.49004
 C1192 C 0.78951 0.26554 0.48751
 C1193 C 0.75561 0.26637 0.45653
 C1194 C 0.73790 0.21121 0.50949
 C1195 C 0.73782 0.24058 0.54062
 C1196 C 0.70582 0.24146 0.51079
 H1197 H 0.75514 0.25969 0.52946
 H1198 H 0.71623 0.26007 0.49345
 H1199 H 0.76532 0.27428 0.47990
 H1200 H 0.75477 0.22367 0.49121
 H1201 H 0.78014 0.22618 0.50944
 H1202 H 0.77829 0.22548 0.48610
 H1203 H 0.70964 0.27537 0.50949
 H1204 H 0.72300 0.28979 0.49406
 H1205 H 0.77251 0.23160 0.53548
 H1206 H 0.78618 0.27582 0.52146
 H1207 H 0.70981 0.24532 0.47673
 H1208 H 0.72260 0.26186 0.46398
 H1209 H 0.75380 0.28943 0.52263
 H1210 H 0.73987 0.27511 0.53718
 H1211 H 0.75291 0.23281 0.46157
 H1212 H 0.73895 0.21659 0.47589
 O1213 O 0.75197 0.76916 -0.03526
 O1214 O 0.72824 0.76694 -0.03033
 O1215 O 0.76948 0.78782 0.00063
 O1216 O 0.77016 0.78352 0.02339
 O1217 O 0.78856 0.75201 -0.01721
 O1218 O 0.78359 0.72754 -0.01603
 O1219 O 0.73509 0.74943 0.03769
 O1220 O 0.73772 0.77320 0.03406
 O1221 O 0.71586 0.73284 0.00312
 O1222 O 0.71989 0.73439 -0.02202
 O1223 O 0.75164 0.71415 0.01833
 O1224 O 0.77669 0.71928 0.01692
 O1225 O 0.75167 0.73265 0.03689
 O1226 O 0.77697 0.73391 0.03168
 O1227 O 0.73447 0.71446 0.00221
 O1228 O 0.73498 0.71996 -0.02294
 O1229 O 0.71662 0.74899 0.02014
 O1230 O 0.72073 0.77409 0.01578
 O1231 O 0.76825 0.75206 -0.03584
 O1232 O 0.76782 0.72767 -0.03104
 O1233 O 0.78903 0.76826 -0.00025
 O1234 O 0.78424 0.76591 0.02447
 O1235 O 0.75251 0.78786 -0.01575
 O1236 O 0.72775 0.78233 -0.01239
 Zr1237 Zr 0.74405 0.76779 -0.01510
 O1238 O 0.73112 0.75533 -0.00285
 Zr1239 Zr 0.76919 0.76748 0.00856
 O1240 O 0.75726 0.75513 0.02183
 Zr1241 Zr 0.76848 0.74345 -0.01594
 O1242 O 0.75660 0.72994 -0.00374
 Zr1243 Zr 0.73608 0.75843 0.01801
 O1244 O 0.74801 0.77214 0.00587
 Zr1245 Zr 0.73539 0.73434 -0.00647
 O1246 O 0.74726 0.74675 -0.01993
 Zr1247 Zr 0.76047 0.73409 0.01718
 O1248 O 0.77371 0.74644 0.00491
 O1249 O 0.76516 0.76435 -0.01221
 O1250 O 0.73933 0.73740 0.01439
 C1251 C 0.76132 0.76198 -0.04147
 C1252 C 0.76225 0.79381 -0.00885
 C1253 C 0.79468 0.76155 -0.01018
 C1254 C 0.74193 0.73930 0.04305
 C1255 C 0.71052 0.73923 0.01346
 C1256 C 0.74152 0.70845 0.01177
 H1257 H 0.72129 0.75764 -0.00472
 H1258 H 0.75884 0.72025 -0.00617
 H1259 H 0.77089 0.77036 -0.01814
 H1260 H 0.75962 0.75730 0.03152
 H1261 H 0.74044 0.78206 0.02970
 H1262 H 0.76398 0.78082 0.03102
 H1263 H 0.74305 0.71370 -0.02183
 H1264 H 0.75842 0.72800 -0.03519
 H1265 H 0.71452 0.77359 0.02386
 H1266 H 0.72830 0.78942 -0.01977
 H1267 H 0.77559 0.71366 0.00846
 H1268 H 0.78846 0.72804 -0.00704
 H1269 H 0.72862 0.75756 -0.03445
 H1270 H 0.71407 0.74273 -0.02069
 H1271 H 0.78935 0.75715 0.02293
 H1272 H 0.77573 0.74193 0.03790
 O1273 O 1.00322 0.21191 0.23395
 O1274 O 0.97970 0.21753 0.23432
 O1275 O 1.02277 0.24763 0.21677
 O1276 O 1.02367 0.27047 0.22130
 O1277 O 1.03921 0.22887 0.25341
 O1278 O 1.03300 0.23002 0.27718
 O1279 O 0.98636 0.28546 0.25301
 O1280 O 0.99045 0.28208 0.22964
 O1281 O 0.96597 0.25078 0.26777
 O1282 O 0.96982 0.22560 0.26661
 O1283 O 1.00076 0.26553 0.28876
 O1284 O 1.02594 0.26375 0.28536
 O1285 O 1.00200 0.28428 0.27062
 O1286 O 1.02747 0.27841 0.27069
 O1287 O 0.98337 0.24976 0.28725
 O1288 O 0.98411 0.22434 0.28175
 O1289 O 0.96774 0.26810 0.25205
 O1290 O 0.97345 0.26391 0.22733
 O1291 O 1.01847 0.21069 0.25192
 O1292 O 1.01678 0.21561 0.27620
 O1293 O 1.04102 0.24603 0.23750
 O1294 O 1.03643 0.27118 0.23973
 O1295 O 1.00552 0.23163 0.21551
 O1296 O 0.98049 0.23577 0.21940
 Zr1297 Zr 0.99582 0.23241 0.23484
 O1298 O 0.98239 0.24486 0.24655
 Zr1299 Zr 1.02133 0.25549 0.23699
 O1300 O 1.00880 0.26909 0.24852
 Zr1301 Zr 1.01873 0.23071 0.26057
 O1302 O 1.00637 0.24327 0.27331
 Zr1303 Zr 0.98777 0.26575 0.24393
 O1304 O 1.00039 0.25342 0.23099
 Zr1305 Zr 0.98545 0.24097 0.26759
 O1306 O 0.99771 0.22725 0.25585
 Zr1307 Zr 1.01072 0.26427 0.26955
 O1308 O 1.02447 0.25160 0.25812
 O1309 O 1.01673 0.23468 0.23966
 O1310 O 0.98978 0.26190 0.26496
 C1311 C 1.01187 0.20529 0.24167
 C1312 C 1.01573 0.23833 0.21029
 C1313 C 1.04605 0.23582 0.24444
 C1314 C 0.99263 0.29067 0.26354
 C1315 C 0.96104 0.26127 0.26120
 C1316 C 0.99017 0.25920 0.29369
 H1317 H 0.97269 0.24316 0.24363
 H1318 H 1.00801 0.24075 0.28305
 H1319 H 1.02268 0.22855 0.23403
 H1320 H 1.01140 0.27880 0.24658
 H1321 H 0.99369 0.27776 0.22098
 H1322 H 1.01715 0.27810 0.22337
 H1323 H 0.99160 0.22550 0.28867
 H1324 H 1.00742 0.21153 0.27512
 H1325 H 0.96725 0.27212 0.22753
 H1326 H 0.98139 0.22849 0.21224
 H1327 H 1.02463 0.25506 0.29060
 H1328 H 1.03783 0.23907 0.27727
 H1329 H 0.97925 0.21338 0.24363
 H1330 H 0.96458 0.22695 0.25792
 H1331 H 1.04111 0.26933 0.24865
 H1332 H 1.02651 0.28499 0.26293
 O1333 O 0.76709 0.96457 0.75435
 O1334 O 0.76317 0.96840 0.73099
 O1335 O 0.78915 1.00065 0.76785
 O1336 O 0.78594 1.02365 0.76789
 O1337 O 0.75439 0.98566 0.79110
 O1338 O 0.72993 0.98745 0.78833
 O1339 O 0.74900 1.03761 0.73448
 O1340 O 0.77276 1.03311 0.73531
 O1341 O 0.72892 1.00287 0.71992
 O1342 O 0.72961 0.97801 0.72526
 O1343 O 0.71508 1.02149 0.75568
 O1344 O 0.72241 1.02137 0.77985
 O1345 O 0.73427 1.03892 0.75264
 O1346 O 0.73826 1.03490 0.77811
 O1347 O 0.71264 1.00407 0.74012
 O1348 O 0.71723 0.97842 0.74189
 O1349 O 0.74600 1.01888 0.71768
 O1350 O 0.77131 1.01352 0.71994
 O1351 O 0.75189 0.96572 0.77217
 O1352 O 0.72758 0.97195 0.77343
 O1353 O 0.77162 1.00156 0.78904
 O1354 O 0.76972 1.02652 0.78272
 O1355 O 0.78678 0.98308 0.75241
 O1356 O 0.77902 0.98574 0.72808
 Zr1357 Zr 0.76603 0.98447 0.74560
 O1358 O 0.75273 0.99655 0.73316
 Zr1359 Zr 0.76924 1.00953 0.76893
 O1360 O 0.75647 1.02285 0.75720
 Zr1361 Zr 0.74416 0.98617 0.77191
 O1362 O 0.73011 0.99862 0.76073
 Zr1363 Zr 0.75732 1.01757 0.73624
 O1364 O 0.77165 1.00548 0.74774
 Zr1365 Zr 0.73214 0.99434 0.73963
 O1366 O 0.74519 0.98085 0.75095
 Zr1367 Zr 0.73569 1.01959 0.76267
 O1368 O 0.74860 1.00723 0.77547
 O1369 O 0.76480 0.98864 0.76657
 O1370 O 0.73660 1.01531 0.74171
 C1371 C 0.76066 0.95918 0.76461
 C1372 C 0.79397 0.99032 0.76099
 C1373 C 0.76486 0.99240 0.79589
 C1374 C 0.73995 1.04401 0.74180
 C1375 C 0.73523 1.01242 0.71319
 C1376 C 0.70798 1.01455 0.74682
 H1377 H 0.75390 0.99394 0.72338
 H1378 H 0.72060 0.99687 0.76403
 H1379 H 0.77106 0.98266 0.77209
 H1380 H 0.75935 1.03258 0.75862
 H1381 H 0.78169 1.02851 0.73755
 H1382 H 0.78345 1.03057 0.76079
 H1383 H 0.71165 0.98056 0.75015
 H1384 H 0.72717 0.96689 0.76457
 H1385 H 0.77047 1.02119 0.71319
 H1386 H 0.78594 0.97813 0.72852
 H1387 H 0.71658 1.01295 0.78013
 H1388 H 0.73084 0.99691 0.79219
 H1389 H 0.75355 0.96504 0.73208
 H1390 H 0.73748 0.97837 0.71879
 H1391 H 0.76174 1.02541 0.78899
 H1392 H 0.74596 1.04103 0.77532
 O1393 O 0.71254 0.51363 0.24587
 O1394 O 0.71598 0.51124 0.26948
 O1395 O 0.74922 0.53427 0.23194
 O1396 O 0.77230 0.53071 0.23360
 O1397 O 0.73432 0.49866 0.21021
 O1398 O 0.73542 0.47430 0.21431
 O1399 O 0.78501 0.49521 0.26829
 O1400 O 0.78106 0.51893 0.26629
 O1401 O 0.74920 0.47700 0.28310
 O1402 O 0.72435 0.47812 0.27686
 O1403 O 0.76814 0.46051 0.24872
 O1404 O 0.76838 0.46662 0.22385
 O1405 O 0.78606 0.47937 0.25097
 O1406 O 0.78280 0.48159 0.22556
 O1407 O 0.75031 0.45946 0.26383
 O1408 O 0.72498 0.46451 0.26119
 O1409 O 0.76566 0.49374 0.28490
 O1410 O 0.76120 0.51891 0.28121
 O1411 O 0.71380 0.49767 0.22863
 O1412 O 0.71934 0.47334 0.22863
 O1413 O 0.75064 0.51555 0.21199
 O1414 O 0.77515 0.51371 0.21901
 O1415 O 0.73150 0.53319 0.24725
 O1416 O 0.73357 0.52684 0.27197
 Zr1417 Zr 0.73233 0.51286 0.25511
 O1418 O 0.74388 0.50005 0.26849
 Zr1419 Zr 0.75793 0.51421 0.23242
 O1420 O 0.77069 0.50167 0.24499
 Zr1421 Zr 0.73404 0.48954 0.22990
 O1422 O 0.74578 0.47581 0.24216
 Zr1423 Zr 0.76511 0.50387 0.26574
 O1424 O 0.75353 0.51785 0.25333
 Zr1425 Zr 0.74118 0.47920 0.26300
 O1426 O 0.72830 0.49187 0.25062
 Zr1427 Zr 0.76694 0.48070 0.24051
 O1428 O 0.75528 0.49329 0.22679
 O1429 O 0.73687 0.51036 0.23435
 O1430 O 0.76233 0.48293 0.26128
 C1431 C 0.70723 0.50679 0.23574
 C1432 C 0.73891 0.53969 0.23838
 C1433 C 0.74151 0.50864 0.20516
 C1434 C 0.79125 0.48559 0.26152
 C1435 C 0.75872 0.48351 0.28978
 C1436 C 0.76080 0.45413 0.25771
 H1437 H 0.74112 0.50187 0.27811
 H1438 H 0.74383 0.46617 0.23930
 H1439 H 0.73113 0.51639 0.22835
 H1440 H 0.78053 0.50419 0.24366
 H1441 H 0.77675 0.52781 0.26346
 H1442 H 0.77960 0.52791 0.24024
 H1443 H 0.72696 0.45859 0.25311
 H1444 H 0.71426 0.47336 0.23746
 H1445 H 0.76876 0.51830 0.28816
 H1446 H 0.72612 0.53389 0.27098
 H1447 H 0.76021 0.46043 0.22419
 H1448 H 0.74497 0.47481 0.21067
 H1449 H 0.71234 0.50168 0.26876
 H1450 H 0.72505 0.48612 0.28320
 H1451 H 0.77429 0.50515 0.21345
 H1452 H 0.78865 0.48974 0.22765
 O1453 O 0.49605 0.21320 0.72434
 O1454 O 0.47246 0.21782 0.72620
 O1455 O 0.51333 0.25005 0.70723
 O1456 O 0.51408 0.27266 0.71227
 O1457 O 0.53232 0.23096 0.74268
 O1458 O 0.52716 0.23118 0.76669
 O1459 O 0.47770 0.28562 0.74588
 O1460 O 0.48068 0.28283 0.72227
 O1461 O 0.45923 0.25024 0.76115
 O1462 O 0.46370 0.22520 0.75918
 O1463 O 0.49463 0.26556 0.78052
 O1464 O 0.51942 0.26487 0.77597
 O1465 O 0.49422 0.28477 0.76269
 O1466 O 0.51997 0.27959 0.76126
 O1467 O 0.47767 0.24927 0.77964
 O1468 O 0.47893 0.22397 0.77348
 O1469 O 0.45969 0.26778 0.74555
 O1470 O 0.46421 0.26415 0.72049
 O1471 O 0.51223 0.21210 0.74150
 O1472 O 0.51130 0.21634 0.76607
 O1473 O 0.53278 0.24846 0.72703
 O1474 O 0.52741 0.27344 0.73009
 O1475 O 0.49654 0.23354 0.70635
 O1476 O 0.47163 0.23646 0.71175
 Zr1477 Zr 0.48795 0.23336 0.72622
 O1478 O 0.47472 0.24510 0.73887
 Zr1479 Zr 0.51278 0.25726 0.72768
 O1480 O 0.50039 0.27021 0.74002
 Zr1481 Zr 0.51213 0.23188 0.75075
 O1482 O 0.50006 0.24383 0.76435
 Zr1483 Zr 0.47930 0.26618 0.73638
 O1484 O 0.49167 0.25458 0.72261
 Zr1485 Zr 0.47895 0.24095 0.75968
 O1486 O 0.49102 0.22786 0.74702
 Zr1487 Zr 0.50354 0.26504 0.76082
 O1488 O 0.51710 0.25300 0.74853
 O1489 O 0.50899 0.23625 0.73005
 O1490 O 0.48249 0.26205 0.75721
 C1491 C 0.50538 0.20673 0.73140
 C1492 C 0.50621 0.24077 0.70082
 C1493 C 0.53850 0.23835 0.73357
 C1494 C 0.48430 0.29090 0.75616
 C1495 C 0.45370 0.26070 0.75500
 C1496 C 0.48455 0.25879 0.78590
 H1497 H 0.46494 0.24315 0.73641
 H1498 H 0.50230 0.24117 0.77394
 H1499 H 0.51486 0.23051 0.72396
 H1500 H 0.50256 0.28003 0.73814
 H1501 H 0.48361 0.27878 0.71337
 H1502 H 0.50711 0.27982 0.71455
 H1503 H 0.48674 0.22521 0.78001
 H1504 H 0.50211 0.21187 0.76516
 H1505 H 0.45775 0.27212 0.72117
 H1506 H 0.47242 0.22940 0.70436
 H1507 H 0.51896 0.25587 0.78081
 H1508 H 0.53170 0.24038 0.76683
 H1509 H 0.47255 0.21360 0.73549
 H1510 H 0.45806 0.22650 0.75072
 H1511 H 0.53274 0.27145 0.73862
 H1512 H 0.51820 0.28651 0.75394
 O1513 O 0.29430 0.74739 0.48631
 O1514 O 0.28950 0.72405 0.48885
 O1515 O 0.25899 0.76328 0.46421
 O1516 O 0.23605 0.76466 0.46701
 O1517 O 0.27452 0.78481 0.50023
 O1518 O 0.27240 0.78106 0.52426
 O1519 O 0.22023 0.72996 0.50134
 O1520 O 0.22523 0.73140 0.47808
 O1521 O 0.25411 0.71298 0.52151
 O1522 O 0.27917 0.71746 0.52181
 O1523 O 0.23656 0.74907 0.53657
 O1524 O 0.23758 0.77348 0.53068
 O1525 O 0.21928 0.74756 0.51690
 O1526 O 0.22464 0.77326 0.51425
 O1527 O 0.25327 0.73259 0.53871
 O1528 O 0.27905 0.73364 0.53493
 O1529 O 0.23829 0.71207 0.50408
 O1530 O 0.24420 0.71518 0.47926
 O1531 O 0.29369 0.76493 0.50199
 O1532 O 0.28715 0.76518 0.52619
 O1533 O 0.25889 0.78407 0.48263
 O1534 O 0.23357 0.77870 0.48374
 O1535 O 0.27605 0.74710 0.46620
 O1536 O 0.27224 0.72244 0.47272
 Zr1537 Zr 0.27404 0.73949 0.48644
 O1538 O 0.26129 0.72698 0.49878
 Zr1539 Zr 0.25002 0.76414 0.48386
 O1540 O 0.23601 0.75236 0.49559
 Zr1541 Zr 0.27312 0.76511 0.50936
 O1542 O 0.25992 0.75387 0.52246
 Zr1543 Zr 0.24051 0.73114 0.49384
 O1544 O 0.25324 0.74279 0.48048
 Zr1545 Zr 0.26338 0.73258 0.51958
 O1546 O 0.27756 0.74387 0.50745
 Zr1547 Zr 0.23910 0.75687 0.51654
 O1548 O 0.25225 0.76974 0.50470
 O1549 O 0.27074 0.76069 0.48857
 O1550 O 0.24257 0.73568 0.51473
 C1551 C 0.30003 0.75730 0.49313
 C1552 C 0.26913 0.75619 0.45931
 C1553 C 0.26817 0.79031 0.48992
 C1554 C 0.21388 0.73720 0.51046
 C1555 C 0.24445 0.70685 0.51465
 C1556 C 0.24297 0.73958 0.54338
 H1557 H 0.26355 0.71711 0.49721
 H1558 H 0.26160 0.75673 0.53210
 H1559 H 0.27702 0.76623 0.48273
 H1560 H 0.22640 0.75432 0.49254
 H1561 H 0.23006 0.73386 0.46945
 H1562 H 0.22911 0.75732 0.46865
 H1563 H 0.27715 0.74183 0.54075
 H1564 H 0.29195 0.75611 0.52610
 H1565 H 0.23627 0.70865 0.47957
 H1566 H 0.27992 0.72287 0.46598
 H1567 H 0.24612 0.77348 0.53637
 H1568 H 0.26307 0.78530 0.52348
 H1569 H 0.29268 0.72449 0.49855
 H1570 H 0.27870 0.71126 0.51370
 H1571 H 0.23494 0.78476 0.49187
 H1572 H 0.21835 0.77091 0.50651
 O1573 O 0.27012 0.28978 0.99816
 O1574 O 0.26892 0.28476 1.02175
 O1575 O 0.28802 0.25398 0.97996
 O1576 O 0.28391 0.23106 0.97963
 O1577 O 0.25113 0.27169 0.96243
 O1578 O 0.22709 0.27076 0.96844
 O1579 O 0.25130 0.21632 1.01574
 O1580 O 0.27492 0.22002 1.01233
 O1581 O 0.23536 0.25102 1.03531
 O1582 O 0.23661 0.27629 1.03123
 O1583 O 0.21541 0.23553 1.00077
 O1584 O 0.21918 0.23730 0.97566
 O1585 O 0.23410 0.21699 0.99958
 O1586 O 0.23399 0.22271 0.97454
 O1587 O 0.21625 0.25183 1.01762
 O1588 O 0.22158 0.27724 1.01671
 O1589 O 0.25155 0.23394 1.03410
 O1590 O 0.27645 0.23840 1.02908
 O1591 O 0.25237 0.29049 0.98258
 O1592 O 0.22794 0.28565 0.98417
 O1593 O 0.26738 0.25463 0.96139
 O1594 O 0.26574 0.22978 0.96644
 O1595 O 0.28884 0.27017 0.99697
 O1596 O 0.28431 0.26669 1.02176
 Zr1597 Zr 0.26911 0.26948 1.00608
 O1598 O 0.25719 0.25711 1.01938
 Zr1599 Zr 0.26778 0.24585 0.98118
 O1600 O 0.25602 0.23239 0.99351
 Zr1601 Zr 0.24370 0.27046 0.98276
 O1602 O 0.23073 0.25804 0.99502
 Zr1603 Zr 0.26017 0.23615 1.01442
 O1604 O 0.27334 0.24841 1.00203
 Zr1605 Zr 0.23602 0.26071 1.01588
 O1606 O 0.24792 0.27434 1.00368
 Zr1607 Zr 0.23483 0.23702 0.99106
 O1608 O 0.24654 0.24950 0.97749
 O1609 O 0.26476 0.26672 0.98525
 O1610 O 0.23900 0.23974 1.01192
 C1611 C 0.26258 0.29609 0.98913
 C1612 C 0.29434 0.26339 0.98700
 C1613 C 0.26025 0.26450 0.95596
 C1614 C 0.24114 0.21080 1.00906
 C1615 C 0.24200 0.24063 1.04044
 C1616 C 0.21009 0.24206 1.01101
 H1617 H 0.25990 0.25897 1.02905
 H1618 H 0.22093 0.26044 0.99316
 H1619 H 0.27048 0.27270 0.97927
 H1620 H 0.25816 0.22268 0.99107
 H1621 H 0.28367 0.22443 1.00934
 H1622 H 0.28165 0.22344 0.98603
 H1623 H 0.21491 0.27604 1.00902
 H1624 H 0.22883 0.28985 0.99343
 H1625 H 0.27624 0.23025 1.03529
 H1626 H 0.29138 0.27410 1.02094
 H1627 H 0.21344 0.24567 0.97712
 H1628 H 0.22707 0.26158 0.96388
 H1629 H 0.25950 0.28886 1.02176
 H1630 H 0.24523 0.27502 1.03666
 H1631 H 0.25678 0.23127 0.96163
 H1632 H 0.24208 0.21644 0.97542
 C1633 C 0.30717 0.36625 0.78536
 C1634 C 0.30294 0.37907 0.78012
 C1635 C 0.28906 0.38334 0.78112
 C1636 C 0.27935 0.37425 0.78701
 C1637 C 0.28361 0.36146 0.79230
 C1638 C 0.29758 0.35739 0.79168
 C1639 C 0.28516 0.39725 0.77584
 C1640 C 0.27393 0.40424 0.78011
 C1641 C 0.27033 0.41845 0.77545
 C1642 C 0.26113 0.42631 0.78345
 C1643 C 0.25750 0.43978 0.77957
 C1644 C 0.26297 0.44570 0.76755
 C1645 C 0.27201 0.43777 0.75942
 C1646 C 0.27559 0.42426 0.76326
 H1647 H 0.31803 0.36344 0.78480
 H1648 H 0.31061 0.38580 0.77552
 H1649 H 0.26846 0.37686 0.78748
 H1650 H 0.27593 0.35469 0.79682
 H1651 H 0.29237 0.40216 0.76891
 H1652 H 0.26743 0.39978 0.78799
 H1653 H 0.25684 0.42206 0.79282
 H1654 H 0.25051 0.44560 0.78608
 H1655 H 0.27628 0.44195 0.75001
 H1656 H 0.28231 0.41844 0.75652
 C1657 C 0.28231 -0.13798 0.30582
 C1658 C 0.27676 -0.12536 0.30135
 C1659 C 0.28313 -0.11782 0.29084
 C1660 C 0.29530 -0.12309 0.28493
 C1661 C 0.30088 -0.13569 0.28936
 C1662 C 0.29457 -0.14342 0.29998
 C1663 C 0.27715 -0.10424 0.28682
 C1664 C 0.27934 -0.09828 0.27454
 C1665 C 0.27401 -0.08438 0.27076
 C1666 C 0.28083 -0.07698 0.26039
 C1667 C 0.27639 -0.06372 0.25663
 C1668 C 0.26490 -0.05760 0.26310
 C1669 C 0.25787 -0.06513 0.27329
 C1670 C 0.26233 -0.07839 0.27705
 H1671 H 0.27676 -0.14336 0.31381
 H1672 H 0.26740 -0.12150 0.30613
 H1673 H 0.30085 -0.11737 0.27714
 H1674 H 0.31038 -0.13901 0.28456
 H1675 H 0.27079 -0.09905 0.29438
 H1676 H 0.28566 -0.10352 0.26698
 H1677 H 0.28978 -0.08139 0.25530
 H1678 H 0.28203 -0.05826 0.24870
 H1679 H 0.24890 -0.06079 0.27839
 H1680 H 0.25647 -0.08392 0.28475
 C1681 C 0.80637 0.86388 0.78546
 C1682 C 0.80193 0.87648 0.77986
 C1683 C 0.79062 0.88360 0.78544
 C1684 C 0.78383 0.87787 0.79685
 C1685 C 0.78824 0.86528 0.80248
 C1686 C 0.79971 0.85802 0.79701
 C1687 C 0.78676 0.89728 0.77958
 C1688 C 0.77421 0.90310 0.78110
 C1689 C 0.77072 0.91724 0.77622
 C1690 C 0.75997 0.92443 0.78279
 C1691 C 0.75662 0.93796 0.77894
 C1692 C 0.76385 0.94460 0.76828
 C1693 C 0.77434 0.93724 0.76140
 C1694 C 0.77772 0.92370 0.76530
 H1695 H 0.81520 0.85902 0.78068
 H1696 H 0.80742 0.88073 0.77113
 H1697 H 0.77533 0.88319 0.80178
 H1698 H 0.78255 0.86150 0.81123
 H1699 H 0.79473 0.90275 0.77400
 H1700 H 0.76623 0.89761 0.78666
 H1701 H 0.75433 0.91964 0.79115
 H1702 H 0.74841 0.94326 0.78441
 H1703 H 0.78004 0.94199 0.75307
 H1704 H 0.78574 0.91835 0.75964
 C1705 C 0.46089 0.88128 0.31133
 C1706 C 0.46688 0.86906 0.30641
 C1707 C 0.46213 0.86289 0.29422
 C1708 C 0.45107 0.86916 0.28706
 C1709 C 0.44502 0.88138 0.29195
 C1710 C 0.44976 0.88774 0.30424
 C1711 C 0.46855 0.84963 0.28975
 C1712 C 0.46801 0.84483 0.27677
 C1713 C 0.47379 0.83122 0.27252
 C1714 C 0.46830 0.82481 0.26072
 C1715 C 0.47302 0.81178 0.25656
 C1716 C 0.48350 0.80488 0.26403
 C1717 C 0.48933 0.81150 0.27561
 C1718 C 0.48456 0.82453 0.27980
 H1719 H 0.46501 0.88536 0.32085
 H1720 H 0.47530 0.86437 0.31223
 H1721 H 0.44677 0.86455 0.27782
 H1722 H 0.43663 0.88569 0.28592
 H1723 H 0.47385 0.84365 0.29760
 H1724 H 0.46271 0.85080 0.26891
 H1725 H 0.46010 0.82978 0.25484
 H1726 H 0.46832 0.80705 0.24756
 H1727 H 0.49747 0.80653 0.28157
 H1728 H 0.48943 0.82931 0.28867
 C1729 C -0.03004 0.89254 0.79695
 C1730 C -0.02482 0.88036 0.79119
 C1731 C -0.03216 0.87333 0.78086
 C1732 C -0.04467 0.87908 0.77598
 C1733 C -0.04993 0.89130 0.78170
 C1734 C -0.04285 0.89820 0.79250
 C1735 C -0.02633 0.86016 0.77551
 C1736 C -0.03398 0.85032 0.76931
 C1737 C -0.02828 0.83679 0.76476
 C1738 C -0.03542 0.82940 0.75450
 C1739 C -0.03080 0.81634 0.75030
 C1740 C -0.01898 0.81029 0.75639
 C1741 C -0.01183 0.81768 0.76669
 C1742 C -0.01643 0.83077 0.77086
 H1743 H -0.02380 0.89742 0.80483
 H1744 H -0.01503 0.87630 0.79500
 H1745 H -0.05043 0.87428 0.76767
 H1746 H -0.05970 0.89503 0.77769
 H1747 H -0.01537 0.85839 0.77723
 H1748 H -0.04492 0.85205 0.76751
 H1749 H -0.04465 0.83373 0.74974
 H1750 H -0.03665 0.81092 0.74242
 H1751 H -0.00277 0.81328 0.77171
 H1752 H -0.01089 0.83589 0.77914
 C1753 C -0.04333 -0.12853 -0.06728
 C1754 C -0.03735 -0.11630 -0.06233
 C1755 C -0.03752 -0.11313 -0.04822
 C1756 C -0.04369 -0.12263 -0.03910
 C1757 C -0.04974 -0.13484 -0.04407
 C1758 C -0.04961 -0.13794 -0.05821
 C1759 C -0.03089 -0.10002 -0.04354
 C1760 C -0.03338 -0.09400 -0.03133
 C1761 C -0.02714 -0.08062 -0.02690
 C1762 C -0.03360 -0.07314 -0.01634
 C1763 C -0.02824 -0.06047 -0.01186
 C1764 C -0.01617 -0.05495 -0.01779
 C1765 C -0.00953 -0.06254 -0.02822
 C1766 C -0.01489 -0.07526 -0.03268
 H1767 H -0.04319 -0.13052 -0.07824
 H1768 H -0.03264 -0.10924 -0.06959
 H1769 H -0.04367 -0.12088 -0.02810
 H1770 H -0.05425 -0.14202 -0.03681
 H1771 H -0.02426 -0.09484 -0.05085
 H1772 H -0.04090 -0.09855 -0.02448
 H1773 H -0.04297 -0.07705 -0.01161
 H1774 H -0.03365 -0.05494 -0.00380
 H1775 H -0.00015 -0.05867 -0.03293
 H1776 H -0.00929 -0.08087 -0.04052
 C1777 C -0.04039 0.36887 0.44413
 C1778 C -0.03551 0.38138 0.44947
 C1779 C -0.04195 0.38767 0.46074
 C1780 C -0.05354 0.38115 0.46658
 C1781 C -0.05849 0.36859 0.46123
 C1782 C -0.05205 0.36217 0.44983
 C1783 C -0.03643 0.40118 0.46561
 C1784 C -0.03922 0.40690 0.47788
 C1785 C -0.03354 0.42054 0.48216
 C1786 C -0.04101 0.42866 0.49154
 C1787 C -0.03624 0.44180 0.49537
 C1788 C -0.02380 0.44706 0.48998
 C1789 C -0.01607 0.43869 0.48098
 C1790 C -0.02084 0.42557 0.47716
 H1791 H -0.03488 0.36474 0.43542
 H1792 H -0.02659 0.38619 0.44472
 H1793 H -0.05905 0.38576 0.47508
 H1794 H -0.06743 0.36413 0.46616
 H1795 H -0.02969 0.40663 0.45858
 H1796 H -0.04616 0.40179 0.48494
 H1797 H -0.05073 0.42495 0.49568
 H1798 H -0.04243 0.44792 0.50239
 H1799 H -0.00636 0.44231 0.47676
 H1800 H -0.01447 0.41941 0.47036
 C1801 C 0.47329 -0.14087 0.44677
 C1802 C 0.47871 -0.12814 0.45110
 C1803 C 0.47275 -0.12089 0.46207
 C1804 C 0.46113 -0.12658 0.46860
 C1805 C 0.45569 -0.13928 0.46433
 C1806 C 0.46157 -0.14671 0.45324
 C1807 C 0.47842 -0.10712 0.46591
 C1808 C 0.47663 -0.10133 0.47834
 C1809 C 0.48123 -0.08712 0.48194
 C1810 C 0.47458 -0.08025 0.49279
 C1811 C 0.47823 -0.06670 0.49634
 C1812 C 0.48875 -0.05974 0.48917
 C1813 C 0.49567 -0.06674 0.47851
 C1814 C 0.49199 -0.08029 0.47495
 H1815 H 0.47847 -0.14600 0.43837
 H1816 H 0.48764 -0.12394 0.44583
 H1817 H 0.45585 -0.12111 0.47675
 H1818 H 0.44660 -0.14288 0.46965
 H1819 H 0.48408 -0.10161 0.45804
 H1820 H 0.47106 -0.10694 0.48620
 H1821 H 0.46633 -0.08530 0.49841
 H1822 H 0.47270 -0.06166 0.50462
 H1823 H 0.50389 -0.06174 0.47284
 H1824 H 0.49770 -0.08536 0.46683
 C1825 C 0.46445 0.36561 -0.06017
 C1826 C 0.46996 0.37783 -0.05477
 C1827 C 0.46510 0.38332 -0.04236
 C1828 C 0.45437 0.37637 -0.03549
 C1829 C 0.44877 0.36412 -0.04090
 C1830 C 0.45369 0.35844 -0.05339
 C1831 C 0.47125 0.39652 -0.03738
 C1832 C 0.47048 0.40114 -0.02437
 C1833 C 0.47672 0.41445 -0.01987
 C1834 C 0.47092 0.42150 -0.00865
 C1835 C 0.47622 0.43431 -0.00441
 C1836 C 0.48756 0.44030 -0.01123
 C1837 C 0.49367 0.43300 -0.02217
 C1838 C 0.48836 0.42021 -0.02641
 H1839 H 0.46861 0.36213 -0.06986
 H1840 H 0.47813 0.38303 -0.06037
 H1841 H 0.45005 0.38041 -0.02606
 H1842 H 0.44064 0.35918 -0.03510
 H1843 H 0.47676 0.40262 -0.04492
 H1844 H 0.46481 0.39529 -0.01676
 H1845 H 0.46206 0.41721 -0.00333
 H1846 H 0.47127 0.43960 0.00408
 H1847 H 0.50249 0.43723 -0.02758
 H1848 H 0.49350 0.41486 -0.03474
 C1849 C 0.80290 0.39010 0.46431
 C1850 C 0.79885 0.37726 0.46948
 C1851 C 0.78545 0.37216 0.46700
 C1852 C 0.77619 0.38016 0.45900
 C1853 C 0.78027 0.39304 0.45380
 C1854 C 0.79366 0.39817 0.45642
 C1855 C 0.78190 0.35825 0.47245
 C1856 C 0.76889 0.35360 0.47396
 C1857 C 0.76571 0.33941 0.47883
 C1858 C 0.75338 0.33312 0.47436
 C1859 C 0.75027 0.31954 0.47818
 C1860 C 0.75936 0.31197 0.48674
 C1861 C 0.77146 0.31846 0.49166
 C1862 C 0.77461 0.33204 0.48776
 H1863 H 0.81339 0.39358 0.46628
 H1864 H 0.80625 0.37125 0.47545
 H1865 H 0.76590 0.37649 0.45647
 H1866 H 0.77291 0.39902 0.44777
 H1867 H 0.79050 0.35159 0.47528
 H1868 H 0.76019 0.36006 0.47103
 H1869 H 0.74628 0.33863 0.46760
 H1870 H 0.74079 0.31492 0.47429
 H1871 H 0.77863 0.31298 0.49835
 H1872 H 0.78397 0.33672 0.49183
 C1873 C 0.80934 0.88781 -0.03135
 C1874 C 0.80500 0.87516 -0.02590
 C1875 C 0.79316 0.86851 -0.03103
 C1876 C 0.78575 0.87474 -0.04191
 C1877 C 0.79008 0.88739 -0.04743
 C1878 C 0.80202 0.89422 -0.04231
 C1879 C 0.78934 0.85482 -0.02522
 C1880 C 0.77650 0.84951 -0.02589
 C1881 C 0.77288 0.83548 -0.02080
 C1882 C 0.76120 0.82888 -0.02644
 C1883 C 0.75764 0.81547 -0.02240
 C1884 C 0.76561 0.80836 -0.01248
 C1885 C 0.77706 0.81513 -0.00647
 C1886 C 0.78065 0.82856 -0.01056
 H1887 H 0.81865 0.89224 -0.02701
 H1888 H 0.81099 0.87051 -0.01763
 H1889 H 0.77678 0.86977 -0.04646
 H1890 H 0.78389 0.89168 -0.05569
 H1891 H 0.79756 0.84897 -0.02028
 H1892 H 0.76829 0.85538 -0.03081
 H1893 H 0.75496 0.83402 -0.03423
 H1894 H 0.74870 0.81063 -0.02719
 H1895 H 0.78336 0.81001 0.00128
 H1896 H 0.78943 0.83345 -0.00558
 C1897 C 0.80776 0.29185 0.36810
 C1898 C 0.80238 0.28697 0.38047
 C1899 C 0.78821 0.28832 0.38341
 C1900 C 0.77947 0.29468 0.37357
 C1901 C 0.78489 0.29963 0.36117
 C1902 C 0.79909 0.29820 0.35827
 C1903 C 0.78312 0.28260 0.39663
 C1904 C 0.77075 0.28554 0.40220
 C1905 C 0.76640 0.27999 0.41575
 C1906 C 0.75679 0.28749 0.42359
 C1907 C 0.75300 0.28292 0.43671
 C1908 C 0.75871 0.27069 0.44223
 C1909 C 0.76790 0.26289 0.43413
 C1910 C 0.77164 0.26742 0.42102
 H1911 H 0.81877 0.29076 0.36627
 H1912 H 0.80936 0.28212 0.38782
 H1913 H 0.76843 0.29564 0.37520
 H1914 H 0.77794 0.30429 0.35370
 H1915 H 0.79032 0.27613 0.40234
 H1916 H 0.76392 0.29294 0.39725
 H1917 H 0.75247 0.29710 0.41970
 H1918 H 0.74586 0.28917 0.44264
 H1919 H 0.77232 0.25330 0.43796
 H1920 H 0.77860 0.26102 0.41507
 C1921 C 0.78685 0.81038 -0.13348
 C1922 C 0.78120 0.80620 -0.12094
 C1923 C 0.78524 0.79371 -0.11479
 C1924 C 0.79531 0.78553 -0.12135
 C1925 C 0.80104 0.78970 -0.13388
 C1926 C 0.79693 0.80224 -0.14027
 C1927 C 0.77922 0.78996 -0.10126
 C1928 C 0.77855 0.77691 -0.09654
 C1929 C 0.77333 0.77321 -0.08267
 C1930 C 0.77787 0.76074 -0.07674
 C1931 C 0.77375 0.75701 -0.06350
 C1932 C 0.76483 0.76559 -0.05588
 C1933 C 0.75986 0.77786 -0.06200
 C1934 C 0.76405 0.78164 -0.07526
 H1935 H 0.78337 0.82021 -0.13753
 H1936 H 0.77360 0.81280 -0.11601
 H1937 H 0.79905 0.77602 -0.11675
 H1938 H 0.80860 0.78290 -0.13847
 H1939 H 0.77526 0.79838 -0.09505
 H1940 H 0.78247 0.76852 -0.10280
 H1941 H 0.78489 0.75399 -0.08227
 H1942 H 0.77771 0.74743 -0.05919
 H1943 H 0.75291 0.78467 -0.05645
 H1944 H 0.75992 0.79110 -0.07963
 C1945 C 0.31236 0.46053 0.88232
 C1946 C 0.30769 0.46556 0.86964
 C1947 C 0.29382 0.46388 0.86555
 C1948 C 0.28474 0.45669 0.87433
 C1949 C 0.28943 0.45163 0.88704
 C1950 C 0.30327 0.45360 0.89123
 C1951 C 0.28949 0.46950 0.85195
 C1952 C 0.27628 0.47185 0.84824
 C1953 C 0.27229 0.47732 0.83452
 C1954 C 0.25933 0.47368 0.82900
 C1955 C 0.25530 0.47833 0.81595
 C1956 C 0.26407 0.48693 0.80822
 C1957 C 0.27689 0.49094 0.81393
 C1958 C 0.28096 0.48619 0.82695
 H1959 H 0.32316 0.46195 0.88508
 H1960 H 0.31496 0.47088 0.86303
 H1961 H 0.27408 0.45475 0.87145
 H1962 H 0.28218 0.44634 0.89367
 H1963 H 0.29768 0.47189 0.84476
 H1964 H 0.26794 0.46936 0.85521
 H1965 H 0.25240 0.46700 0.83469
 H1966 H 0.24531 0.47511 0.81191
 H1967 H 0.28386 0.49759 0.80827
 H1968 H 0.29084 0.48960 0.83108
 C1969 C 0.30762 -0.03707 0.38248
 C1970 C 0.30263 -0.03165 0.37008
 C1971 C 0.29083 -0.03720 0.36368
 C1972 C 0.28414 -0.04847 0.36993
 C1973 C 0.28911 -0.05396 0.38235
 C1974 C 0.30102 -0.04843 0.38891
 C1975 C 0.28634 -0.03132 0.35026
 C1976 C 0.27351 -0.03272 0.34500
 C1977 C 0.26937 -0.02717 0.33133
 C1978 C 0.25834 -0.03351 0.32426
 C1979 C 0.25434 -0.02891 0.31118
 C1980 C 0.26122 -0.01773 0.30492
 C1981 C 0.27201 -0.01112 0.31218
 C1982 C 0.27601 -0.01575 0.32525
 H1983 H 0.31682 -0.03233 0.38672
 H1984 H 0.30807 -0.02303 0.36543
 H1985 H 0.27523 -0.05335 0.36518
 H1986 H 0.28346 -0.06256 0.38664
 H1987 H 0.29405 -0.02562 0.34455
 H1988 H 0.26577 -0.03848 0.35060
 H1989 H 0.25296 -0.04223 0.32877
 H1990 H 0.24595 -0.03422 0.30593
 H1991 H 0.27746 -0.00242 0.30772
 H1992 H 0.28421 -0.01024 0.33056
 C1993 C -0.03155 -0.05465 -0.13725
 C1994 C -0.02627 -0.05059 -0.12444
 C1995 C -0.03172 -0.03909 -0.11753
 C1996 C -0.04274 -0.03176 -0.12366
 C1997 C -0.04808 -0.03580 -0.13647
 C1998 C -0.04265 -0.04739 -0.14356
 C1999 C -0.02601 -0.03553 -0.10375
 C2000 C -0.02714 -0.02295 -0.09797
 C2001 C -0.02179 -0.01961 -0.08400
 C2002 C -0.02773 -0.00847 -0.07685
 C2003 C -0.02321 -0.00509 -0.06357
 C2004 C -0.01252 -0.01271 -0.05717
 C2005 C -0.00634 -0.02367 -0.06446
 C2006 C -0.01087 -0.02705 -0.07774
 H2007 H -0.02692 -0.06368 -0.14190
 H2008 H -0.01785 -0.05651 -0.11989
 H2009 H -0.04755 -0.02307 -0.11853
 H2010 H -0.05647 -0.02967 -0.14064
 H2011 H -0.02067 -0.04373 -0.09826
 H2012 H -0.03251 -0.01475 -0.10342
 H2013 H -0.03606 -0.00249 -0.08147
 H2014 H -0.02820 0.00344 -0.05828
 H2015 H 0.00200 -0.02968 -0.05990
 H2016 H -0.00565 -0.03538 -0.08307
 C2017 C -0.03574 0.43865 0.36841
 C2018 C -0.02980 0.44340 0.38072
 C2019 C -0.03420 0.45585 0.38672
 C2020 C -0.04484 0.46341 0.38021
 C2021 C -0.05083 0.45868 0.36795
 C2022 C -0.04650 0.44614 0.36178
 C2023 C -0.02809 0.46020 0.40011
 C2024 C -0.02791 0.47342 0.40444
 C2025 C -0.02316 0.47785 0.41833
 C2026 C -0.02788 0.49062 0.42340
 C2027 C -0.02432 0.49502 0.43665
 C2028 C -0.01580 0.48680 0.44517
 C2029 C -0.01065 0.47422 0.43993
 C2030 C -0.01426 0.46978 0.42665
 H2031 H -0.03201 0.42890 0.36444
 H2032 H -0.02173 0.43728 0.38562
 H2033 H -0.04887 0.47283 0.38470
 H2034 H -0.05885 0.46507 0.36344
 H2035 H -0.02385 0.45210 0.40659
 H2036 H -0.03201 0.48144 0.39777
 H2037 H -0.03464 0.49710 0.41718
 H2038 H -0.02842 0.50481 0.44029
 H2039 H -0.00398 0.46766 0.44617
 H2040 H -0.01001 0.46009 0.42301
 C2041 C 0.43803 -0.04423 0.37175
 C2042 C 0.44324 -0.03863 0.38401
 C2043 C 0.45743 -0.03955 0.38727
 C2044 C 0.46638 -0.04596 0.37778
 C2045 C 0.46114 -0.05160 0.36554
 C2046 C 0.44690 -0.05087 0.36241
 C2047 C 0.46241 -0.03345 0.40046
 C2048 C 0.47452 -0.03676 0.40655
 C2049 C 0.47914 -0.03091 0.41998
 C2050 C 0.48905 -0.03819 0.42780
 C2051 C 0.49345 -0.03320 0.44064
 C2052 C 0.48806 -0.02075 0.44593
 C2053 C 0.47842 -0.01327 0.43792
 C2054 C 0.47407 -0.01823 0.42507
 H2055 H 0.42700 -0.04359 0.36972
 H2056 H 0.43612 -0.03367 0.39106
 H2057 H 0.47744 -0.04647 0.37960
 H2058 H 0.46829 -0.05638 0.35841
 H2059 H 0.45535 -0.02649 0.40565
 H2060 H 0.48105 -0.04465 0.40203
 H2061 H 0.49325 -0.04790 0.42407
 H2062 H 0.50089 -0.03924 0.44653
 H2063 H 0.47418 -0.00355 0.44158
 H2064 H 0.46685 -0.01199 0.41918
 C2065 C 0.43959 0.45933 -0.12971
 C2066 C 0.44450 0.46500 -0.11735
 C2067 C 0.45577 0.45906 -0.11034
 C2068 C 0.46190 0.44707 -0.11585
 C2069 C 0.45702 0.44135 -0.12819
 C2070 C 0.44574 0.44733 -0.13546
 C2071 C 0.46042 0.46528 -0.09709
 C2072 C 0.47325 0.46360 -0.09186
 C2073 C 0.47792 0.46928 -0.07837
 C2074 C 0.48966 0.46336 -0.07207
 C2075 C 0.49445 0.46815 -0.05932
 C2076 C 0.48767 0.47910 -0.05256
 C2077 C 0.47606 0.48523 -0.05897
 C2078 C 0.47125 0.48041 -0.07174
 H2079 H 0.43098 0.46454 -0.13462
 H2080 H 0.43949 0.47418 -0.11328
 H2081 H 0.47027 0.44182 -0.11054
 H2082 H 0.46214 0.43209 -0.13174
 H2083 H 0.45291 0.47147 -0.09160
 H2084 H 0.48073 0.45751 -0.09750
 H2085 H 0.49508 0.45485 -0.07696
 H2086 H 0.50344 0.46318 -0.05473
 H2087 H 0.47062 0.49373 -0.05411
 H2088 H 0.46243 0.48557 -0.07638
 C2089 C 0.44385 0.78728 0.38514
 C2090 C 0.44747 0.78206 0.37223
 C2091 C 0.46123 0.78271 0.36764
 C2092 C 0.47139 0.78846 0.37642
 C2093 C 0.46775 0.79375 0.38931
 C2094 C 0.45394 0.79325 0.39380
 C2095 C 0.46451 0.77702 0.35382
 C2096 C 0.47588 0.78047 0.34669
 C2097 C 0.47899 0.77514 0.33270
 C2098 C 0.48859 0.78239 0.32464
 C2099 C 0.49193 0.77781 0.31143
 C2100 C 0.48578 0.76579 0.30594
 C2101 C 0.47627 0.75843 0.31405
 C2102 C 0.47297 0.76299 0.32730
 H2103 H 0.43310 0.78686 0.38824
 H2104 H 0.43945 0.77761 0.36574
 H2105 H 0.48220 0.78872 0.37355
 H2106 H 0.47579 0.79802 0.39588
 H2107 H 0.45682 0.77033 0.34915
 H2108 H 0.48295 0.78810 0.35088
 H2109 H 0.49347 0.79172 0.32855
 H2110 H 0.49929 0.78377 0.30548
 H2111 H 0.47143 0.74906 0.31019
 H2112 H 0.46588 0.75680 0.33329
 C2113 C -0.06112 0.79061 0.87604
 C2114 C -0.05672 0.78522 0.86346
 C2115 C -0.04469 0.79016 0.85716
 C2116 C -0.03719 0.80083 0.86365
 C2117 C -0.04157 0.80630 0.87623
 C2118 C -0.05367 0.80133 0.88273
 C2119 C -0.04076 0.78432 0.84360
 C2120 C -0.02787 0.78483 0.83852
 C2121 C -0.02416 0.77942 0.82474
 C2122 C -0.01261 0.78505 0.81808
 C2123 C -0.00890 0.78055 0.80495
 C2124 C -0.01659 0.77015 0.79820
 C2125 C -0.02796 0.76423 0.80502
 C2126 C -0.03169 0.76878 0.81816
 H2127 H -0.07055 0.78639 0.88019
 H2128 H -0.06278 0.77710 0.85861
 H2129 H -0.02807 0.80526 0.85895
 H2130 H -0.03530 0.81439 0.88073
 H2131 H -0.04892 0.77941 0.83767
 H2132 H -0.01969 0.78977 0.84440
 H2133 H -0.00656 0.79315 0.82297
 H2134 H -0.00004 0.78530 0.80005
 H2135 H -0.03404 0.75614 0.80017
 H2136 H -0.04037 0.76382 0.82313
 C2137 C 0.36551 0.80873 0.28972
 C2138 C 0.37800 0.80438 0.28394
 C2139 C 0.38203 0.79041 0.28454
 C2140 C 0.37308 0.78079 0.29082
 C2141 C 0.36060 0.78518 0.29667
 C2142 C 0.35670 0.79919 0.29620
 C2143 C 0.39550 0.78639 0.27838
 C2144 C 0.40239 0.77477 0.28176
 C2145 C 0.41627 0.77108 0.27634
 C2146 C 0.42416 0.76125 0.28360
 C2147 C 0.43733 0.75744 0.27909
 C2148 C 0.44296 0.76333 0.26711
 C2149 C 0.43500 0.77305 0.25970
 C2150 C 0.42177 0.77684 0.26421
 H2151 H 0.36286 0.81963 0.28931
 H2152 H 0.38463 0.81200 0.27912
 H2153 H 0.37549 0.76985 0.29109
 H2154 H 0.35388 0.77757 0.30136
 H2155 H 0.40024 0.79378 0.27149
 H2156 H 0.39817 0.76798 0.28954
 H2157 H 0.42017 0.75657 0.29291
 H2158 H 0.44313 0.74993 0.28508
 H2159 H 0.43898 0.77769 0.25037
 H2160 H 0.41589 0.78413 0.25805
 C2161 C -0.13334 0.78927 0.80884
 C2162 C -0.12093 0.78391 0.80367
 C2163 C -0.11801 0.78457 0.78953
 C2164 C -0.12804 0.79026 0.78057
 C2165 C -0.14041 0.79566 0.78575
 C2166 C -0.14314 0.79538 0.79995
 C2167 C -0.10453 0.77908 0.78457
 C2168 C -0.09871 0.78294 0.77264
 C2169 C -0.08497 0.77794 0.76787
 C2170 C -0.07792 0.78567 0.75787
 C2171 C -0.06489 0.78147 0.75319
 C2172 C -0.05862 0.76937 0.75836
 C2173 C -0.06581 0.76147 0.76817
 C2174 C -0.07885 0.76564 0.77282
 H2175 H -0.13510 0.78896 0.81983
 H2176 H -0.11346 0.77946 0.81080
 H2177 H -0.12650 0.79046 0.76956
 H2178 H -0.14792 0.79999 0.77860
 H2179 H -0.09891 0.77227 0.79148
 H2180 H -0.10377 0.79072 0.76635
 H2181 H -0.08243 0.79512 0.75379
 H2182 H -0.05966 0.78783 0.74564
 H2183 H -0.06136 0.75201 0.77228
 H2184 H -0.08410 0.75909 0.78015
 C2185 C 0.88002 0.29351 0.43735
 C2186 C 0.86737 0.28813 0.44179
 C2187 C 0.86295 0.29004 0.45541
 C2188 C 0.87152 0.29762 0.46450
 C2189 C 0.88419 0.30299 0.46006
 C2190 C 0.88859 0.30104 0.44642
 C2191 C 0.84919 0.28441 0.45940
 C2192 C 0.84476 0.28331 0.47244
 C2193 C 0.83072 0.27828 0.47610
 C2194 C 0.82478 0.28291 0.48842
 C2195 C 0.81147 0.27870 0.49216
 C2196 C 0.80384 0.26956 0.48375
 C2197 C 0.80994 0.26461 0.47158
 C2198 C 0.82324 0.26891 0.46778
 H2199 H 0.88295 0.29200 0.42671
 H2200 H 0.86097 0.28247 0.43451
 H2201 H 0.86850 0.29969 0.47499
 H2202 H 0.89056 0.30863 0.46735
 H2203 H 0.84238 0.28120 0.45109
 H2204 H 0.85130 0.28666 0.48088
 H2205 H 0.83037 0.29001 0.49508
 H2206 H 0.80715 0.28265 0.50166
 H2207 H 0.80440 0.25751 0.46489
 H2208 H 0.82764 0.26475 0.45844
 C2209 C 0.87956 0.79515 -0.06461
 C2210 C 0.86744 0.78945 -0.05929
 C2211 C 0.86457 0.79024 -0.04517
 C2212 C 0.87405 0.79718 -0.03647
 C2213 C 0.88622 0.80292 -0.04183
 C2214 C 0.88915 0.80186 -0.05594
 C2215 C 0.85145 0.78398 -0.04023
 C2216 C 0.84855 0.78138 -0.02699
 C2217 C 0.83511 0.77545 -0.02261
 C2218 C 0.82980 0.77916 -0.00972
 C2219 C 0.81682 0.77439 -0.00555
 C2220 C 0.80894 0.76560 -0.01411
 C2221 C 0.81454 0.76137 -0.02677
 C2222 C 0.82749 0.76624 -0.03098
 H2223 H 0.88133 0.79441 -0.07558
 H2224 H 0.86027 0.78434 -0.06627
 H2225 H 0.87215 0.79839 -0.02558
 H2226 H 0.89342 0.80802 -0.03489
 H2227 H 0.84379 0.78140 -0.04803
 H2228 H 0.85585 0.78415 -0.01896
 H2229 H 0.83555 0.78609 -0.00301
 H2230 H 0.81287 0.77775 0.00433
 H2231 H 0.80879 0.75455 -0.03357
 H2232 H 0.83150 0.76276 -0.04078
 C2233 C -0.13725 -0.04674 -0.02951
 C2234 C -0.12499 -0.04117 -0.02419
 C2235 C -0.11745 -0.03134 -0.03162
 C2236 C -0.12278 -0.02669 -0.04431
 C2237 C -0.13511 -0.03221 -0.04967
 C2238 C -0.14249 -0.04257 -0.04250
 C2239 C -0.10413 -0.02634 -0.02570
 C2240 C -0.09394 -0.02069 -0.03317
 C2241 C -0.08020 -0.01695 -0.02731
 C2242 C -0.07219 -0.00693 -0.03405
 C2243 C -0.05890 -0.00362 -0.02927
 C2244 C -0.05323 -0.01038 -0.01770
 C2245 C -0.06126 -0.02043 -0.01094
 C2246 C -0.07457 -0.02370 -0.01570
 H2247 H -0.14255 -0.05423 -0.02320
 H2248 H -0.12124 -0.04478 -0.01427
 H2249 H -0.11756 -0.01876 -0.05018
 H2250 H -0.13850 -0.02845 -0.05960
 H2251 H -0.10253 -0.02798 -0.01478
 H2252 H -0.09547 -0.01885 -0.04406
 H2253 H -0.07622 -0.00169 -0.04310
 H2254 H -0.05298 0.00409 -0.03481
 H2255 H -0.05718 -0.02595 -0.00209
 H2256 H -0.08017 -0.03184 -0.01049
 C2257 C -0.14576 0.45719 0.47067
 C2258 C -0.13318 0.46207 0.47591
 C2259 C -0.12506 0.47133 0.46836
 C2260 C -0.12992 0.47581 0.45542
 C2261 C -0.14252 0.47095 0.45013
 C2262 C -0.15062 0.46130 0.45752
 C2263 C -0.11131 0.47527 0.47402
 C2264 C -0.10405 0.48638 0.46996
 C2265 C -0.08995 0.48953 0.47527
 C2266 C -0.08096 0.49743 0.46711
 C2267 C -0.06736 0.50005 0.47147
 C2268 C -0.06249 0.49486 0.48414
 C2269 C -0.07164 0.48736 0.49252
 C2270 C -0.08523 0.48481 0.48820
 H2271 H -0.15156 0.45020 0.47711
 H2272 H -0.12972 0.45848 0.48594
 H2273 H -0.12384 0.48268 0.44908
 H2274 H -0.14549 0.47447 0.43998
 H2275 H -0.10699 0.46844 0.48177
 H2276 H -0.10822 0.49318 0.46210
 H2277 H -0.08438 0.50132 0.45719
 H2278 H -0.06060 0.50591 0.46479
 H2279 H -0.06831 0.48342 0.50245
 H2280 H -0.09197 0.47922 0.49509
 C2281 C 0.36469 -0.03529 0.44478
 C2282 C 0.37693 -0.02971 0.45015
 C2283 C 0.38439 -0.03661 0.46048
 C2284 C 0.37906 -0.04909 0.46571
 C2285 C 0.36679 -0.05472 0.46037
 C2286 C 0.35939 -0.04805 0.44963
 C2287 C 0.39751 -0.03032 0.46554
 C2288 C 0.40760 -0.03751 0.47192
 C2289 C 0.42091 -0.03128 0.47650
 C2290 C 0.42837 -0.03780 0.48712
 C2291 C 0.44116 -0.03260 0.49150
 C2292 C 0.44690 -0.02080 0.48524
 C2293 C 0.43948 -0.01430 0.47453
 C2294 C 0.42663 -0.01948 0.47018
 H2295 H 0.35949 -0.02937 0.43686
 H2296 H 0.38068 -0.01997 0.44606
 H2297 H 0.38420 -0.05453 0.47404
 H2298 H 0.36337 -0.06441 0.46471
 H2299 H 0.39897 -0.01939 0.46355
 H2300 H 0.40619 -0.04842 0.47400
 H2301 H 0.42427 -0.04698 0.49207
 H2302 H 0.44663 -0.03796 0.49970
 H2303 H 0.44365 -0.00528 0.46938
 H2304 H 0.42145 -0.01442 0.46165
 C2305 C 0.36664 0.46936 -0.05290
 C2306 C 0.37936 0.47452 -0.04829
 C2307 C 0.38664 0.46798 -0.03760
 C2308 C 0.38089 0.45610 -0.03154
 C2309 C 0.36817 0.45088 -0.03613
 C2310 C 0.36081 0.45728 -0.04707
 C2311 C 0.40049 0.47337 -0.03367
 C2312 C 0.40651 0.47103 -0.02140
 C2313 C 0.42075 0.47564 -0.01785
 C2314 C 0.42796 0.46859 -0.00739
 C2315 C 0.44156 0.47225 -0.00395
 C2316 C 0.44824 0.48314 -0.01087
 C2317 C 0.44090 0.49043 -0.02113
 C2318 C 0.42729 0.48677 -0.02454
 H2319 H 0.36154 0.47500 -0.06108
 H2320 H 0.38358 0.48369 -0.05315
 H2321 H 0.38636 0.45047 -0.02355
 H2322 H 0.36449 0.44158 -0.03121
 H2323 H 0.40588 0.47936 -0.04137
 H2324 H 0.40108 0.46506 -0.01371
 H2325 H 0.42313 0.46006 -0.00199
 H2326 H 0.44686 0.46643 0.00403
 H2327 H 0.44567 0.49897 -0.02656
 H2328 H 0.42196 0.49282 -0.03232
 C2329 C 0.37917 0.43666 0.79457
 C2330 C 0.36704 0.44174 0.78842
 C2331 C 0.36368 0.45588 0.78911
 C2332 C 0.37294 0.46492 0.79591
 C2333 C 0.38503 0.45981 0.80215
 C2334 C 0.38827 0.44563 0.80158
 C2335 C 0.35056 0.46067 0.78249
 C2336 C 0.34440 0.47282 0.78535
 C2337 C 0.33089 0.47733 0.77938
 C2338 C 0.32366 0.48803 0.78601
 C2339 C 0.31080 0.49253 0.78104
 C2340 C 0.30482 0.48648 0.76924
 C2341 C 0.31216 0.47594 0.76241
 C2342 C 0.32508 0.47145 0.76737
 H2343 H 0.38131 0.42566 0.79404
 H2344 H 0.36018 0.43453 0.78320
 H2345 H 0.37110 0.47596 0.79631
 H2346 H 0.39199 0.46700 0.80723
 H2347 H 0.34547 0.45346 0.77560
 H2348 H 0.34894 0.47955 0.79306
 H2349 H 0.32789 0.49282 0.79521
 H2350 H 0.30547 0.50066 0.78661
 H2351 H 0.30791 0.47112 0.75323
 H2352 H 0.33045 0.46349 0.76165
 C2353 C 0.37803 -0.06344 0.29416
 C2354 C 0.36577 -0.05844 0.28819
 C2355 C 0.36232 -0.04432 0.28890
 C2356 C 0.37160 -0.03521 0.29557
 C2357 C 0.38385 -0.04023 0.30159
 C2358 C 0.38720 -0.05440 0.30097
 C2359 C 0.34917 -0.03959 0.28229
 C2360 C 0.34291 -0.02747 0.28508
 C2361 C 0.32948 -0.02312 0.27881
 C2362 C 0.32152 -0.01303 0.28557
 C2363 C 0.30868 -0.00882 0.28023
 C2364 C 0.30351 -0.01455 0.26791
 C2365 C 0.31163 -0.02440 0.26094
 C2366 C 0.32449 -0.02858 0.26627
 H2367 H 0.38022 -0.07442 0.29360
 H2368 H 0.35888 -0.06570 0.28307
 H2369 H 0.36965 -0.02419 0.29599
 H2370 H 0.39084 -0.03296 0.30652
 H2371 H 0.34415 -0.04684 0.27538
 H2372 H 0.34727 -0.02070 0.29286
 H2373 H 0.32515 -0.00854 0.29517
 H2374 H 0.30273 -0.00122 0.28590
 H2375 H 0.30804 -0.02894 0.25136
 H2376 H 0.33048 -0.03600 0.26043
 C2377 C 0.11355 0.53887 0.69421
 C2378 C 0.12640 0.53377 0.69857
 C2379 C 0.13093 0.53562 0.71221
 C2380 C 0.12225 0.54278 0.72144
 C2381 C 0.10937 0.54786 0.71706
 C2382 C 0.10488 0.54600 0.70339
 C2383 C 0.14490 0.53032 0.71605
 C2384 C 0.14986 0.52969 0.72897
 C2385 C 0.16414 0.52502 0.73224
 C2386 C 0.17080 0.53049 0.74391
 C2387 C 0.18443 0.52672 0.74712
 C2388 C 0.19164 0.51722 0.73882
 C2389 C 0.18481 0.51141 0.72736
 C2390 C 0.17120 0.51526 0.72410
 H2391 H 0.11056 0.53747 0.68354
 H2392 H 0.13288 0.52842 0.69119
 H2393 H 0.12530 0.54473 0.73198
 H2394 H 0.10289 0.55322 0.72441
 H2395 H 0.15148 0.52701 0.70767
 H2396 H 0.14368 0.53325 0.73751
 H2397 H 0.16553 0.53792 0.75042
 H2398 H 0.18931 0.53131 0.75610
 H2399 H 0.19002 0.50398 0.72081
 H2400 H 0.16622 0.51046 0.71529
 C2401 C 0.11142 0.05377 0.21150
 C2402 C 0.12435 0.04948 0.21648
 C2403 C 0.12837 0.03552 0.21574
 C2404 C 0.11902 0.02584 0.21004
 C2405 C 0.10608 0.03015 0.20501
 C2406 C 0.10215 0.04416 0.20568
 C2407 C 0.14221 0.03159 0.22129
 C2408 C 0.14882 0.01976 0.21816
 C2409 C 0.16294 0.01636 0.22334
 C2410 C 0.17107 0.00692 0.21590
 C2411 C 0.18456 0.00373 0.22020
 C2412 C 0.19023 0.00987 0.23211
 C2413 C 0.18195 0.01902 0.23978
 C2414 C 0.16844 0.02217 0.23551
 H2415 H 0.10878 0.06466 0.21203
 H2416 H 0.13129 0.05716 0.22085
 H2417 H 0.12147 0.01491 0.20966
 H2418 H 0.09905 0.02248 0.20081
 H2419 H 0.14742 0.03922 0.22763
 H2420 H 0.14423 0.01263 0.21085
 H2421 H 0.16704 0.00218 0.20659
 H2422 H 0.19062 -0.00340 0.21406
 H2423 H 0.18590 0.02379 0.24911
 H2424 H 0.16236 0.02907 0.24185
 C2425 C 0.62810 0.70252 0.18754
 C2426 C 0.61555 0.70787 0.19225
 C2427 C 0.61191 0.70681 0.20617
 C2428 C 0.62101 0.69984 0.21526
 C2429 C 0.63360 0.69444 0.21052
 C2430 C 0.63736 0.69587 0.19664
 C2431 C 0.59847 0.71288 0.21052
 C2432 C 0.59518 0.71582 0.22361
 C2433 C 0.58159 0.72177 0.22754
 C2434 C 0.57619 0.71858 0.24052
 C2435 C 0.56316 0.72351 0.24441
 C2436 C 0.55532 0.73197 0.23547
 C2437 C 0.56097 0.73563 0.22268
 C2438 C 0.57397 0.73058 0.21873
 H2439 H 0.63053 0.70353 0.17673
 H2440 H 0.60869 0.71299 0.18497
 H2441 H 0.61847 0.69840 0.22599
 H2442 H 0.64051 0.68936 0.21777
 H2443 H 0.59101 0.71515 0.20244
 H2444 H 0.60238 0.71344 0.23186
 H2445 H 0.58192 0.71196 0.24755
 H2446 H 0.55917 0.72058 0.25440
 H2447 H 0.55524 0.74217 0.21558
 H2448 H 0.57802 0.73366 0.20883
 C2449 C 0.13261 0.71392 0.68624
 C2450 C 0.11986 0.71971 0.68993
 C2451 C 0.11496 0.71861 0.70347
 C2452 C 0.12312 0.71146 0.71325
 C2453 C 0.13587 0.70570 0.70956
 C2454 C 0.14076 0.70681 0.69600
 C2455 C 0.10109 0.72448 0.70669
 C2456 C 0.09649 0.72673 0.71951
 C2457 C 0.08225 0.73159 0.72255
 C2458 C 0.07627 0.72771 0.73509
 C2459 C 0.06272 0.73164 0.73825
 C2460 C 0.05489 0.73975 0.72902
 C2461 C 0.06102 0.74403 0.71663
 C2462 C 0.07457 0.73998 0.71341
 H2463 H 0.13592 0.71478 0.67565
 H2464 H 0.11376 0.72500 0.68214
 H2465 H 0.11967 0.70996 0.72371
 H2466 H 0.14192 0.70039 0.71736
 H2467 H 0.09434 0.72678 0.69803
 H2468 H 0.10304 0.72438 0.72828
 H2469 H 0.08201 0.72137 0.74237
 H2470 H 0.05836 0.72826 0.74794
 H2471 H 0.05530 0.75035 0.70933
 H2472 H 0.07900 0.74354 0.70384
 C2473 C 0.61347 0.19174 0.53440
 C2474 C 0.62626 0.19592 0.52914
 C2475 C 0.63017 0.20992 0.52942
 C2476 C 0.62078 0.21977 0.53466
 C2477 C 0.60802 0.21558 0.53996
 C2478 C 0.60427 0.20151 0.54000
 C2479 C 0.64399 0.21383 0.52406
 C2480 C 0.65071 0.22537 0.52794
 C2481 C 0.66480 0.22915 0.52319
 C2482 C 0.67238 0.23886 0.53091
 C2483 C 0.68566 0.24284 0.52689
 C2484 C 0.69169 0.23723 0.51497
 C2485 C 0.68406 0.22759 0.50714
 C2486 C 0.67073 0.22364 0.51115
 H2487 H 0.61093 0.18082 0.53437
 H2488 H 0.63323 0.18814 0.52507
 H2489 H 0.62312 0.23072 0.53456
 H2490 H 0.60100 0.22337 0.54391
 H2491 H 0.64907 0.20644 0.51739
 H2492 H 0.64608 0.23208 0.53558
 H2493 H 0.66804 0.24334 0.54017
 H2494 H 0.69122 0.25028 0.53318
 H2495 H 0.68834 0.22317 0.49783
 H2496 H 0.66511 0.21646 0.50465
 C2497 C 0.62069 0.68773 0.04272
 C2498 C 0.63309 0.69227 0.03688
 C2499 C 0.63678 0.70633 0.03723
 C2500 C 0.62758 0.71585 0.04335
 C2501 C 0.61519 0.71129 0.04926
 C2502 C 0.61162 0.69718 0.04903
 C2503 C 0.65013 0.71057 0.03091
 C2504 C 0.65662 0.72253 0.03382
 C2505 C 0.67030 0.72655 0.02809
 C2506 C 0.67784 0.73699 0.03485
 C2507 C 0.69079 0.74114 0.03003
 C2508 C 0.69655 0.73500 0.01823
 C2509 C 0.68893 0.72468 0.01130
 C2510 C 0.67592 0.72054 0.01613
 H2511 H 0.61830 0.67678 0.04248
 H2512 H 0.63991 0.68471 0.03219
 H2513 H 0.62970 0.72684 0.04343
 H2514 H 0.60828 0.71885 0.05378
 H2515 H 0.65507 0.70311 0.02422
 H2516 H 0.65222 0.72945 0.04138
 H2517 H 0.67375 0.74188 0.04402
 H2518 H 0.69632 0.74912 0.03566
 H2519 H 0.69301 0.71980 0.00213
 H2520 H 0.67031 0.71276 0.01033
 C2521 C 0.13674 0.05816 0.03791
 C2522 C 0.12446 0.05287 0.03233
 C2523 C 0.12143 0.03866 0.03314
 C2524 C 0.13116 0.02978 0.03949
 C2525 C 0.14345 0.03511 0.04513
 C2526 C 0.14637 0.04936 0.04442
 C2527 C 0.10819 0.03367 0.02701
 C2528 C 0.10236 0.02137 0.02984
 C2529 C 0.08867 0.01706 0.02417
 C2530 C 0.08081 0.00727 0.03141
 C2531 C 0.06755 0.00352 0.02681
 C2532 C 0.06189 0.00945 0.01480
 C2533 C 0.07000 0.01881 0.00723
 C2534 C 0.08326 0.02251 0.01180
 H2535 H 0.13859 0.06921 0.03732
 H2536 H 0.11721 0.05995 0.02746
 H2537 H 0.12951 0.01872 0.03999
 H2538 H 0.15079 0.02803 0.04984
 H2539 H 0.10265 0.04091 0.02046
 H2540 H 0.10718 0.01454 0.03729
 H2541 H 0.08479 0.00278 0.04087
 H2542 H 0.06161 -0.00374 0.03289
 H2543 H 0.06606 0.02342 -0.00218
 H2544 H 0.08920 0.02963 0.00558
 C2545 C 0.12626 0.56166 0.54768
 C2546 C 0.11364 0.55688 0.54243
 C2547 C 0.10999 0.54285 0.54349
 C2548 C 0.11931 0.53366 0.55002
 C2549 C 0.13196 0.53848 0.55534
 C2550 C 0.13562 0.55251 0.55410
 C2551 C 0.09664 0.53837 0.53718
 C2552 C 0.09042 0.52620 0.53966
 C2553 C 0.07690 0.52230 0.53335
 C2554 C 0.06844 0.51274 0.54019
 C2555 C 0.05545 0.50913 0.53479
 C2556 C 0.05068 0.51493 0.52233
 C2557 C 0.05935 0.52420 0.51528
 C2558 C 0.07233 0.52779 0.52067
 H2559 H 0.12868 0.57257 0.54674
 H2560 H 0.10670 0.56421 0.53747
 H2561 H 0.11712 0.52270 0.55079
 H2562 H 0.13905 0.53117 0.56007
 H2563 H 0.09146 0.54583 0.53060
 H2564 H 0.09484 0.51912 0.54713
 H2565 H 0.07176 0.50824 0.54989
 H2566 H 0.04908 0.50193 0.54050
 H2567 H 0.05609 0.52875 0.50558
 H2568 H 0.07876 0.53476 0.51479
 C2569 C 0.63158 0.06479 0.54399
 C2570 C 0.61943 0.05972 0.53790
 C2571 C 0.61546 0.04584 0.53964
 C2572 C 0.62391 0.03715 0.54782
 C2573 C 0.63608 0.04223 0.55392
 C2574 C 0.64007 0.05611 0.55207
 C2575 C 0.60221 0.04117 0.53324
 C2576 C 0.59862 0.02783 0.53154
 C2577 C 0.58498 0.02344 0.52589
 C2578 C 0.57954 0.01066 0.53006
 C2579 C 0.56649 0.00633 0.52548
 C2580 C 0.55862 0.01461 0.51641
 C2581 C 0.56428 0.02719 0.51180
 C2582 C 0.57732 0.03158 0.51649
 H2583 H 0.63417 0.07559 0.54255
 H2584 H 0.61308 0.06670 0.53180
 H2585 H 0.62114 0.02650 0.54982
 H2586 H 0.64240 0.03526 0.56002
 H2587 H 0.59507 0.04919 0.52993
 H2588 H 0.60555 0.01969 0.53492
 H2589 H 0.58529 0.00412 0.53717
 H2590 H 0.56251 -0.00348 0.52915
 H2591 H 0.55853 0.03378 0.50476
 H2592 H 0.58137 0.04129 0.51268
 C2593 C 0.64173 0.55567 0.03289
 C2594 C 0.62912 0.55110 0.02734
 C2595 C 0.62563 0.53697 0.02752
 C2596 C 0.63531 0.52742 0.03288
 C2597 C 0.64787 0.53201 0.03850
 C2598 C 0.65114 0.54619 0.03873
 C2599 C 0.61185 0.53269 0.02210
 C2600 C 0.60555 0.52085 0.02575
 C2601 C 0.59131 0.51698 0.02130
 C2602 C 0.58413 0.50706 0.02905
 C2603 C 0.57055 0.50335 0.02558
 C2604 C 0.56381 0.50945 0.01421
 C2605 C 0.57112 0.51911 0.00622
 C2606 C 0.58473 0.52279 0.00967
 H2607 H 0.64391 0.56667 0.03298
 H2608 H 0.62193 0.55867 0.02316
 H2609 H 0.63333 0.51640 0.03272
 H2610 H 0.65509 0.52444 0.04261
 H2611 H 0.60637 0.54010 0.01571
 H2612 H 0.61056 0.51405 0.03311
 H2613 H 0.58897 0.50231 0.03798
 H2614 H 0.56527 0.49585 0.03197
 H2615 H 0.56631 0.52391 -0.00270
 H2616 H 0.59002 0.53011 0.00312
 C2617 C 0.02835 0.04616 0.14093
 C2618 C 0.02381 0.04185 0.12795
 C2619 C 0.03150 0.03229 0.12029
 C2620 C 0.04384 0.02696 0.12597
 C2621 C 0.04845 0.03128 0.13898
 C2622 C 0.04093 0.04119 0.14666
 C2623 C 0.02665 0.02888 0.10618
 C2624 C 0.03026 0.01737 0.09932
 C2625 C 0.02576 0.01447 0.08496
 C2626 C 0.03362 0.00522 0.07702
 C2627 C 0.03004 0.00255 0.06330
 C2628 C 0.01846 0.00904 0.05722
 C2629 C 0.01037 0.01801 0.06527
 C2630 C 0.01390 0.02062 0.07900
 H2631 H 0.02180 0.05341 0.14631
 H2632 H 0.01423 0.04608 0.12383
 H2633 H 0.05027 0.01982 0.12026
 H2634 H 0.05818 0.02709 0.14262
 H2635 H 0.01986 0.03638 0.10132
 H2636 H 0.03711 0.00990 0.10415
 H2637 H 0.04272 0.00024 0.08137
 H2638 H 0.03650 -0.00445 0.05740
 H2639 H 0.00125 0.02300 0.06098
 H2640 H 0.00719 0.02735 0.08487
 C2641 C 0.05280 0.54127 0.63543
 C2642 C 0.04792 0.53626 0.62283
 C2643 C 0.03393 0.53774 0.61909
 C2644 C 0.02482 0.54429 0.62835
 C2645 C 0.02974 0.54934 0.64099
 C2646 C 0.04377 0.54783 0.64468
 C2647 C 0.02936 0.53199 0.60565
 C2648 C 0.01763 0.53568 0.59910
 C2649 C 0.01375 0.53021 0.58534
 C2650 C 0.00509 0.53819 0.57680
 C2651 C 0.00157 0.53360 0.56358
 C2652 C 0.00657 0.52085 0.55864
 C2653 C 0.01494 0.51267 0.56734
 C2654 C 0.01842 0.51725 0.58056
 H2655 H 0.06371 0.54013 0.63785
 H2656 H 0.05516 0.53126 0.61593
 H2657 H 0.01388 0.54530 0.62607
 H2658 H 0.02251 0.55417 0.64800
 H2659 H 0.03646 0.52495 0.60062
 H2660 H 0.01107 0.54366 0.60343
 H2661 H 0.00124 0.54815 0.58027
 H2662 H -0.00493 0.54016 0.55718
 H2663 H 0.01883 0.50271 0.56393
 H2664 H 0.02467 0.51053 0.58701
 C2665 C 0.55576 0.03265 0.63858
 C2666 C 0.55149 0.02744 0.62585
 C2667 C 0.54008 0.03313 0.61889
 C2668 C 0.53299 0.04429 0.62495
 C2669 C 0.53726 0.04958 0.63771
 C2670 C 0.54883 0.04395 0.64481
 C2671 C 0.53643 0.02751 0.60512
 C2672 C 0.52395 0.02897 0.59911
 C2673 C 0.52069 0.02365 0.58513
 C2674 C 0.51004 0.03003 0.57754
 C2675 C 0.50688 0.02563 0.56417
 C2676 C 0.51425 0.01463 0.55812
 C2677 C 0.52467 0.00797 0.56587
 C2678 C 0.52782 0.01238 0.57924
 H2679 H 0.56467 0.02775 0.64326
 H2680 H 0.55719 0.01888 0.62138
 H2681 H 0.52435 0.04925 0.61978
 H2682 H 0.53139 0.05816 0.64180
 H2683 H 0.54452 0.02193 0.59978
 H2684 H 0.51584 0.03463 0.60434
 H2685 H 0.50429 0.03863 0.58187
 H2686 H 0.49874 0.03097 0.55854
 H2687 H 0.53044 -0.00064 0.56160
 H2688 H 0.53574 0.00682 0.58493
 C2689 C 0.53844 0.55488 0.13806
 C2690 C 0.53402 0.55073 0.12497
 C2691 C 0.53531 0.53687 0.12075
 C2692 C 0.54090 0.52715 0.13009
 C2693 C 0.54538 0.53133 0.14317
 C2694 C 0.54423 0.54524 0.14729
 C2695 C 0.53042 0.53304 0.10673
 C2696 C 0.53442 0.52152 0.10008
 C2697 C 0.52982 0.51796 0.08589
 C2698 C 0.53776 0.50852 0.07825
 C2699 C 0.53389 0.50492 0.06482
 C2700 C 0.52193 0.51065 0.05872
 C2701 C 0.51383 0.51992 0.06645
 C2702 C 0.51766 0.52347 0.07990
 H2703 H 0.53754 0.56570 0.14086
 H2704 H 0.52968 0.55843 0.11804
 H2705 H 0.54164 0.51628 0.12749
 H2706 H 0.54953 0.52361 0.15017
 H2707 H 0.52383 0.54046 0.10150
 H2708 H 0.54199 0.51470 0.10482
 H2709 H 0.54710 0.50402 0.08264
 H2710 H 0.54038 0.49774 0.05918
 H2711 H 0.50445 0.52438 0.06213
 H2712 H 0.51094 0.53036 0.08556
 C2713 C 0.20747 0.56176 0.61984
 C2714 C 0.21330 0.55722 0.63225
 C2715 C 0.21146 0.54352 0.63674
 C2716 C 0.20345 0.53446 0.62854
 C2717 C 0.19761 0.53902 0.61610
 C2718 C 0.19957 0.55271 0.61159
 C2719 C 0.21765 0.53944 0.65020
 C2720 C 0.21929 0.52630 0.65444
 C2721 C 0.22487 0.52263 0.66823
 C2722 C 0.22054 0.51023 0.67436
 C2723 C 0.22504 0.50666 0.68759
 C2724 C 0.23419 0.51533 0.69494
 C2725 C 0.23897 0.52749 0.68859
 C2726 C 0.23437 0.53112 0.67537
 H2727 H 0.20897 0.57244 0.61685
 H2728 H 0.21926 0.56448 0.63840
 H2729 H 0.20141 0.52393 0.63170
 H2730 H 0.19162 0.53179 0.60997
 H2731 H 0.22088 0.54779 0.65695
 H2732 H 0.21593 0.51782 0.64795
 H2733 H 0.21336 0.50344 0.66902
 H2734 H 0.22123 0.49715 0.69212
 H2735 H 0.24608 0.53437 0.69393
 H2736 H 0.23833 0.54052 0.67079
 C2737 C 0.21162 0.05917 0.11588
 C2738 C 0.21656 0.05443 0.12856
 C2739 C 0.21545 0.04040 0.13218
 C2740 C 0.20908 0.03119 0.12282
 C2741 C 0.20413 0.03596 0.11009
 C2742 C 0.20539 0.04999 0.10646
 C2743 C 0.22070 0.03612 0.14595
 C2744 C 0.22274 0.02295 0.14988
 C2745 C 0.22751 0.01923 0.16393
 C2746 C 0.22316 0.00664 0.16963
 C2747 C 0.22690 0.00306 0.18309
 C2748 C 0.23526 0.01194 0.19109
 C2749 C 0.24007 0.02432 0.18518
 C2750 C 0.23625 0.02793 0.17174
 H2751 H 0.21250 0.07009 0.11357
 H2752 H 0.22127 0.06179 0.13560
 H2753 H 0.20766 0.02036 0.12524
 H2754 H 0.19940 0.02864 0.10304
 H2755 H 0.22289 0.04436 0.15322
 H2756 H 0.22033 0.01450 0.14296
 H2757 H 0.21656 -0.00031 0.16377
 H2758 H 0.22310 -0.00661 0.18727
 H2759 H 0.24661 0.03134 0.19101
 H2760 H 0.24022 0.03749 0.16750
 C2761 C 0.68704 0.20873 0.62886
 C2762 C 0.69163 0.21476 0.61663
 C2763 C 0.70578 0.21483 0.61331
 C2764 C 0.71532 0.20893 0.62269
 C2765 C 0.71071 0.20285 0.63490
 C2766 C 0.69652 0.20266 0.63812
 C2767 C 0.71006 0.22138 0.60016
 C2768 C 0.72223 0.21887 0.59398
 C2769 C 0.72617 0.22495 0.58051
 C2770 C 0.73646 0.21830 0.57276
 C2771 C 0.74036 0.22346 0.55992
 C2772 C 0.73411 0.23549 0.55453
 C2773 C 0.72402 0.24235 0.56242
 C2774 C 0.72014 0.23719 0.57529
 H2775 H 0.67604 0.20864 0.63097
 H2776 H 0.68405 0.21928 0.60967
 H2777 H 0.72635 0.20917 0.62082
 H2778 H 0.71828 0.19851 0.64196
 H2779 H 0.70247 0.22790 0.59507
 H2780 H 0.72933 0.21141 0.59844
 H2781 H 0.74136 0.20893 0.57657
 H2782 H 0.74816 0.21789 0.55415
 H2783 H 0.71908 0.25170 0.55864
 H2784 H 0.71254 0.24293 0.58112
 C2785 C 0.68993 0.70755 0.13015
 C2786 C 0.69489 0.71378 0.11820
 C2787 C 0.70915 0.71407 0.11541
 C2788 C 0.71841 0.70811 0.12503
 C2789 C 0.71341 0.70179 0.13698
 C2790 C 0.69913 0.70146 0.13967
 C2791 C 0.71375 0.72079 0.10247
 C2792 C 0.72626 0.71881 0.09681
 C2793 C 0.73033 0.72476 0.08333
 C2794 C 0.74106 0.71832 0.07603
 C2795 C 0.74495 0.72317 0.06308
 C2796 C 0.73825 0.73469 0.05713
 C2797 C 0.72776 0.74141 0.06460
 C2798 C 0.72388 0.73655 0.07759
 H2799 H 0.67885 0.70732 0.13184
 H2800 H 0.68751 0.71830 0.11102
 H2801 H 0.72950 0.70845 0.12357
 H2802 H 0.72074 0.69739 0.14426
 H2803 H 0.70610 0.72693 0.09700
 H2804 H 0.73355 0.71177 0.10162
 H2805 H 0.74629 0.70931 0.08024
 H2806 H 0.75310 0.71774 0.05766
 H2807 H 0.72247 0.75038 0.06039
 H2808 H 0.71591 0.74214 0.08308
 C2809 C 0.56087 0.70905 0.11901
 C2810 C 0.55578 0.71476 0.13122
 C2811 C 0.54159 0.71408 0.13435
 C2812 C 0.53252 0.70786 0.12475
 C2813 C 0.53763 0.70209 0.11257
 C2814 C 0.55187 0.70254 0.10959
 C2815 C 0.53678 0.72015 0.14756
 C2816 C 0.52462 0.71703 0.15350
 C2817 C 0.52024 0.72258 0.16709
 C2818 C 0.51011 0.71537 0.17454
 C2819 C 0.50600 0.71994 0.18756
 C2820 C 0.51187 0.73191 0.19344
 C2821 C 0.52169 0.73939 0.18579
 C2822 C 0.52577 0.73484 0.17275
 H2823 H 0.57191 0.70947 0.11709
 H2824 H 0.56301 0.71956 0.13834
 H2825 H 0.52145 0.70754 0.12645
 H2826 H 0.53039 0.69743 0.10538
 H2827 H 0.54401 0.72684 0.15293
 H2828 H 0.51789 0.70943 0.14875
 H2829 H 0.50556 0.70599 0.17038
 H2830 H 0.49840 0.71392 0.19313
 H2831 H 0.52632 0.74875 0.18991
 H2832 H 0.53319 0.74103 0.16718
 C2833 C 0.03909 0.69325 0.61106
 C2834 C 0.03286 0.69770 0.62323
 C2835 C 0.03417 0.71149 0.62765
 C2836 C 0.04199 0.72075 0.61962
 C2837 C 0.04822 0.71629 0.60743
 C2838 C 0.04688 0.70248 0.60302
 C2839 C 0.02780 0.71550 0.64097
 C2840 C 0.02553 0.72864 0.64489
 C2841 C 0.02014 0.73239 0.65865
 C2842 C 0.02401 0.74517 0.66438
 C2843 C 0.01976 0.74886 0.67760
 C2844 C 0.01134 0.73992 0.68534
 C2845 C 0.00699 0.72735 0.67939
 C2846 C 0.01135 0.72361 0.66618
 H2847 H 0.03805 0.68248 0.60812
 H2848 H 0.02705 0.69030 0.62927
 H2849 H 0.04365 0.73137 0.62277
 H2850 H 0.05407 0.72368 0.60145
 H2851 H 0.02509 0.70714 0.64788
 H2852 H 0.02830 0.73711 0.63816
 H2853 H 0.03065 0.75218 0.65873
 H2854 H 0.02321 0.75867 0.68181
 H2855 H 0.00044 0.72027 0.68504
 H2856 H 0.00776 0.71389 0.66192
 C2857 C 0.55351 0.61132 0.21692
 C2858 C 0.54946 0.62430 0.22178
 C2859 C 0.53585 0.62908 0.21978
 C2860 C 0.52635 0.62058 0.21263
 C2861 C 0.53042 0.60756 0.20775
 C2862 C 0.54404 0.60278 0.20985
 C2863 C 0.53234 0.64316 0.22482
 C2864 C 0.51938 0.64790 0.22640
 C2865 C 0.51636 0.66226 0.23085
 C2866 C 0.50414 0.66862 0.22616
 C2867 C 0.50123 0.68237 0.22960
 C2868 C 0.51041 0.69000 0.23798
 C2869 C 0.52241 0.68345 0.24310
 C2870 C 0.52536 0.66972 0.23959
 H2871 H 0.56416 0.60812 0.21847
 H2872 H 0.55703 0.63067 0.22710
 H2873 H 0.51587 0.62395 0.21049
 H2874 H 0.52290 0.60121 0.20237
 H2875 H 0.54097 0.64993 0.22722
 H2876 H 0.51060 0.64142 0.22384
 H2877 H 0.49698 0.66304 0.21955
 H2878 H 0.49182 0.68704 0.22557
 H2879 H 0.52964 0.68898 0.24967
 H2880 H 0.53463 0.66498 0.24381
 C2881 C 0.05621 0.61768 0.71052
 C2882 C 0.05185 0.63056 0.71544
 C2883 C 0.03784 0.63448 0.71465
 C2884 C 0.02819 0.62502 0.70908
 C2885 C 0.03257 0.61216 0.70408
 C2886 C 0.04663 0.60836 0.70471
 C2887 C 0.03383 0.64838 0.71988
 C2888 C 0.02201 0.65487 0.71635
 C2889 C 0.01840 0.66911 0.72090
 C2890 C 0.00843 0.67652 0.71329
 C2891 C 0.00485 0.69005 0.71695
 C2892 C 0.01112 0.69652 0.72837
 C2893 C 0.02089 0.68901 0.73620
 C2894 C 0.02444 0.67544 0.73256
 H2895 H 0.06713 0.61511 0.71104
 H2896 H 0.05951 0.63757 0.71974
 H2897 H 0.01723 0.62736 0.70870
 H2898 H 0.02493 0.60507 0.69991
 H2899 H 0.04140 0.65372 0.72621
 H2900 H 0.01498 0.65002 0.70909
 H2901 H 0.00352 0.67188 0.70435
 H2902 H -0.00273 0.69549 0.71068
 H2903 H 0.02581 0.69362 0.74515
 H2904 H 0.03180 0.66997 0.73901
 C2905 C 0.04529 0.13047 0.06416
 C2906 C 0.03951 0.11806 0.05942
 C2907 C 0.03961 0.11472 0.04534
 C2908 C 0.04525 0.12433 0.03602
 C2909 C 0.05108 0.13671 0.04077
 C2910 C 0.05127 0.13988 0.05489
 C2911 C 0.03359 0.10128 0.04084
 C2912 C 0.03680 0.09505 0.02890
 C2913 C 0.03134 0.08131 0.02461
 C2914 C 0.03852 0.07386 0.01447
 C2915 C 0.03391 0.06082 0.01019
 C2916 C 0.02194 0.05491 0.01592
 C2917 C 0.01457 0.06248 0.02586
 C2918 C 0.01916 0.07556 0.03012
 H2919 H 0.04535 0.13257 0.07511
 H2920 H 0.03514 0.11092 0.06682
 H2921 H 0.04506 0.12247 0.02504
 H2922 H 0.05530 0.14390 0.03335
 H2923 H 0.02694 0.09603 0.04808
 H2924 H 0.04442 0.09974 0.02224
 H2925 H 0.04785 0.07808 0.00995
 H2926 H 0.03985 0.05531 0.00249
 H2927 H 0.00522 0.05832 0.03039
 H2928 H 0.01303 0.08112 0.03759
 C2929 C 0.06216 0.63570 0.53511
 C2930 C 0.05744 0.62309 0.52976
 C2931 C 0.04324 0.61986 0.52974
 C2932 C 0.03378 0.62980 0.53466
 C2933 C 0.03851 0.64236 0.54008
 C2934 C 0.05275 0.64537 0.54053
 C2935 C 0.03875 0.60610 0.52453
 C2936 C 0.02680 0.60009 0.52826
 C2937 C 0.02235 0.58604 0.52383
 C2938 C 0.01161 0.57960 0.53112
 C2939 C 0.00698 0.56640 0.52746
 C2940 C 0.01297 0.55928 0.51635
 C2941 C 0.02364 0.56574 0.50893
 C2942 C 0.02823 0.57901 0.51257
 H2943 H 0.07320 0.63771 0.53537
 H2944 H 0.06494 0.61569 0.52591
 H2945 H 0.02272 0.62802 0.53429
 H2946 H 0.03101 0.64977 0.54387
 H2947 H 0.04601 0.60049 0.51818
 H2948 H 0.02017 0.60532 0.53557
 H2949 H 0.00682 0.58477 0.53979
 H2950 H -0.00123 0.56173 0.53343
 H2951 H 0.02840 0.56060 0.50024
 H2952 H 0.03624 0.58369 0.50638
 C2953 C 0.53468 0.13551 0.55544
 C2954 C 0.52939 0.12262 0.55150
 C2955 C 0.53098 0.11774 0.53797
 C2956 C 0.53798 0.12616 0.52841
 C2957 C 0.54323 0.13906 0.53236
 C2958 C 0.54174 0.14386 0.54594
 C2959 C 0.52572 0.10366 0.53458
 C2960 C 0.52477 0.09849 0.52177
 C2961 C 0.52050 0.08404 0.51885
 C2962 C 0.52568 0.07752 0.50703
 C2963 C 0.52236 0.06374 0.50413
 C2964 C 0.51359 0.05621 0.51289
 C2965 C 0.50803 0.06288 0.52450
 C2966 C 0.51144 0.07665 0.52745
 H2967 H 0.53352 0.13877 0.56603
 H2968 H 0.52416 0.11635 0.55912
 H2969 H 0.53974 0.12285 0.51795
 H2970 H 0.54849 0.14529 0.52475
 H2971 H 0.52285 0.09716 0.54319
 H2972 H 0.52782 0.10466 0.51303
 H2973 H 0.53256 0.08302 0.50017
 H2974 H 0.52674 0.05897 0.49504
 H2975 H 0.50118 0.05742 0.53142
 H2976 H 0.50687 0.08148 0.53640
 C2977 C 0.54196 0.63073 0.06105
 C2978 C 0.53645 0.61822 0.05626
 C2979 C 0.53751 0.61449 0.04233
 C2980 C 0.54390 0.62379 0.03317
 C2981 C 0.54948 0.63627 0.03798
 C2982 C 0.54866 0.63983 0.05199
 C2983 C 0.53171 0.60095 0.03786
 C2984 C 0.53529 0.59446 0.02616
 C2985 C 0.53009 0.58052 0.02219
 C2986 C 0.53772 0.57269 0.01269
 C2987 C 0.53350 0.55934 0.00898
 C2988 C 0.52148 0.55351 0.01469
 C2989 C 0.51360 0.56151 0.02389
 C2990 C 0.51779 0.57488 0.02754
 H2991 H 0.54125 0.63312 0.07191
 H2992 H 0.53150 0.61133 0.06354
 H2993 H 0.54451 0.62162 0.02227
 H2994 H 0.55430 0.64322 0.03071
 H2995 H 0.52487 0.59581 0.04501
 H2996 H 0.54304 0.59902 0.01957
 H2997 H 0.54715 0.57682 0.00829
 H2998 H 0.53981 0.55350 0.00184
 H2999 H 0.50418 0.55742 0.02834
 H3000 H 0.51129 0.58073 0.03447
 C3001 C 0.71292 0.12103 0.56188
 C3002 C 0.71877 0.13319 0.55670
 C3003 C 0.71404 0.13896 0.54431
 C3004 C 0.70318 0.13234 0.53719
 C3005 C 0.69727 0.12019 0.54234
 C3006 C 0.70194 0.11426 0.55487
 C3007 C 0.72022 0.15222 0.53961
 C3008 C 0.71962 0.15675 0.52655
 C3009 C 0.72504 0.17042 0.52213
 C3010 C 0.71926 0.17664 0.51036
 C3011 C 0.72360 0.18975 0.50612
 C3012 C 0.73397 0.19691 0.51347
 C3013 C 0.74010 0.19048 0.52500
 C3014 C 0.73572 0.17736 0.52928
 H3015 H 0.71705 0.11724 0.57151
 H3016 H 0.72706 0.13813 0.56247
 H3017 H 0.69889 0.13664 0.52780
 H3018 H 0.68899 0.11565 0.53635
 H3019 H 0.72533 0.15847 0.54737
 H3020 H 0.71449 0.15054 0.51876
 H3021 H 0.71112 0.17146 0.50459
 H3022 H 0.71869 0.19435 0.49715
 H3023 H 0.74817 0.19565 0.53086
 H3024 H 0.74079 0.17273 0.53811
 C3025 C 0.71777 0.61435 0.05819
 C3026 C 0.72315 0.62726 0.05447
 C3027 C 0.72288 0.63163 0.04069
 C3028 C 0.71750 0.62259 0.03060
 C3029 C 0.71205 0.60972 0.03433
 C3030 C 0.71203 0.60550 0.04817
 C3031 C 0.72840 0.64558 0.03728
 C3032 C 0.72465 0.65262 0.02593
 C3033 C 0.72943 0.66685 0.02264
 C3034 C 0.72190 0.67446 0.01280
 C3035 C 0.72587 0.68789 0.00927
 C3036 C 0.73754 0.69408 0.01546
 C3037 C 0.74521 0.68644 0.02522
 C3038 C 0.74125 0.67294 0.02873
 H3039 H 0.71782 0.61144 0.06895
 H3040 H 0.72733 0.63395 0.06244
 H3041 H 0.71759 0.62527 0.01979
 H3042 H 0.70801 0.60298 0.02636
 H3043 H 0.73504 0.65045 0.04488
 H3044 H 0.71706 0.64814 0.01898
 H3045 H 0.71282 0.67003 0.00787
 H3046 H 0.71969 0.69345 0.00172
 H3047 H 0.75431 0.69085 0.03011
 H3048 H 0.74760 0.66734 0.03606
 C3049 C 0.18959 0.63565 0.71149
 C3050 C 0.19412 0.62334 0.71764
 C3051 C 0.20829 0.61994 0.71809
 C3052 C 0.21790 0.62939 0.71259
 C3053 C 0.21335 0.64167 0.70637
 C3054 C 0.19915 0.64488 0.70565
 C3055 C 0.21252 0.60656 0.72442
 C3056 C 0.22467 0.60026 0.72187
 C3057 C 0.22853 0.58641 0.72736
 C3058 C 0.23896 0.57889 0.72062
 C3059 C 0.24269 0.56563 0.72508
 C3060 C 0.23611 0.55956 0.73646
 C3061 C 0.22594 0.56723 0.74347
 C3062 C 0.22224 0.58053 0.73902
 H3063 H 0.17858 0.63778 0.71102
 H3064 H 0.18649 0.61632 0.72188
 H3065 H 0.22894 0.62750 0.71318
 H3066 H 0.22098 0.64874 0.70225
 H3067 H 0.20487 0.60134 0.73065
 H3068 H 0.23181 0.60492 0.71469
 H3069 H 0.24409 0.58320 0.71170
 H3070 H 0.25058 0.56006 0.71943
 H3071 H 0.22077 0.56294 0.75236
 H3072 H 0.21451 0.58613 0.74483
 C3073 C 0.21027 0.13191 0.18729
 C3074 C 0.21563 0.11930 0.19204
 C3075 C 0.21503 0.11581 0.20606
 C3076 C 0.20922 0.12541 0.21532
 C3077 C 0.20381 0.13800 0.21055
 C3078 C 0.20422 0.14137 0.19648
 C3079 C 0.22078 0.10222 0.21052
 C3080 C 0.21740 0.09594 0.22238
 C3081 C 0.22261 0.08202 0.22645
 C3082 C 0.21508 0.07438 0.23616
 C3083 C 0.21938 0.06110 0.24008
 C3084 C 0.23139 0.05516 0.23443
 C3085 C 0.23914 0.06295 0.22497
 C3086 C 0.23485 0.07624 0.22107
 H3087 H 0.21064 0.13412 0.17638
 H3088 H 0.22012 0.11217 0.18468
 H3089 H 0.20899 0.12340 0.22627
 H3090 H 0.19949 0.14520 0.21792
 H3091 H 0.22739 0.09689 0.20328
 H3092 H 0.20984 0.10069 0.22907
 H3093 H 0.20570 0.07861 0.24058
 H3094 H 0.21316 0.05544 0.24742
 H3095 H 0.24853 0.05877 0.22051
 H3096 H 0.24125 0.08195 0.21394
 C3097 C 0.71735 1.13938 0.69553
 C3098 C 0.72374 1.12736 0.70055
 C3099 C 0.71604 1.11731 0.70761
 C3100 C 0.70170 1.11942 0.70929
 C3101 C 0.69532 1.13143 0.70429
 C3102 C 0.70306 1.14158 0.69737
 C3103 C 0.72314 1.10456 0.71254
 C3104 C 0.71837 1.09682 0.72297
 C3105 C 0.72494 1.08375 0.72781
 C3106 C 0.72110 1.07851 0.74072
 C3107 C 0.72625 1.06582 0.74540
 C3108 C 0.73538 1.05799 0.73726
 C3109 C 0.73940 1.06330 0.72441
 C3110 C 0.73420 1.07600 0.71969
 H3111 H 0.72363 1.14703 0.69033
 H3112 H 0.73477 1.12595 0.69900
 H3113 H 0.69526 1.11169 0.71417
 H3114 H 0.68424 1.13262 0.70557
 H3115 H 0.73284 1.10187 0.70769
 H3116 H 0.70935 1.10034 0.72857
 H3117 H 0.71392 1.08419 0.74715
 H3118 H 0.72289 1.06205 0.75534
 H3119 H 0.74627 1.05746 0.71779
 H3120 H 0.73715 1.07942 0.70953
 C3121 C 0.70930 0.62984 0.18806
 C3122 C 0.71510 0.61743 0.19278
 C3123 C 0.71310 0.61298 0.20640
 C3124 C 0.70502 0.62131 0.21520
 C3125 C 0.69922 0.63376 0.21046
 C3126 C 0.70128 0.63818 0.19683
 C3127 C 0.71926 0.59946 0.21065
 C3128 C 0.71992 0.59481 0.22368
 C3129 C 0.72547 0.58094 0.22743
 C3130 C 0.72044 0.57444 0.23931
 C3131 C 0.72498 0.56117 0.24299
 C3132 C 0.73485 0.55415 0.23496
 C3133 C 0.74028 0.56086 0.22333
 C3134 C 0.73565 0.57411 0.21960
 H3135 H 0.71091 0.63276 0.17744
 H3136 H 0.72114 0.61122 0.18571
 H3137 H 0.70291 0.61830 0.22568
 H3138 H 0.69319 0.63996 0.21752
 H3139 H 0.72325 0.59296 0.20249
 H3140 H 0.71573 0.60096 0.23197
 H3141 H 0.71273 0.57952 0.24562
 H3142 H 0.72064 0.55637 0.25207
 H3143 H 0.74793 0.55578 0.21695
 H3144 H 0.74014 0.57896 0.21063
 C3145 C 0.55259 0.11170 0.71487
 C3146 C 0.54767 0.12452 0.71938
 C3147 C 0.53703 0.13140 0.71228
 C3148 C 0.53140 0.12518 0.70042
 C3149 C 0.53631 0.11234 0.69583
 C3150 C 0.54711 0.10532 0.70290
 C3151 C 0.53265 0.14525 0.71729
 C3152 C 0.52045 0.15124 0.71415
 C3153 C 0.51646 0.16525 0.71907
 C3154 C 0.50661 0.17286 0.71150
 C3155 C 0.50285 0.18625 0.71557
 C3156 C 0.50881 0.19230 0.72739
 C3157 C 0.51838 0.18451 0.73519
 C3158 C 0.52211 0.17113 0.73113
 H3159 H 0.56071 0.10697 0.72096
 H3160 H 0.55223 0.12909 0.72855
 H3161 H 0.52345 0.13029 0.69437
 H3162 H 0.53167 0.10822 0.68656
 H3163 H 0.53993 0.15066 0.72389
 H3164 H 0.51317 0.14596 0.70745
 H3165 H 0.50198 0.16852 0.70226
 H3166 H 0.49541 0.19192 0.70934
 H3167 H 0.52304 0.18875 0.74445
 H3168 H 0.52929 0.16544 0.73759
 C3169 C 1.03319 0.11140 0.19463
 C3170 C 1.02857 0.12449 0.19870
 C3171 C 1.03081 0.12923 0.21220
 C3172 C 1.03786 0.12053 0.22158
 C3173 C 1.04246 0.10742 0.21750
 C3174 C 1.04023 0.10272 0.20397
 C3175 C 1.02617 0.14346 0.21574
 C3176 C 1.02501 0.14826 0.22866
 C3177 C 1.02112 0.16276 0.23183
 C3178 C 1.02601 0.16869 0.24411
 C3179 C 1.02295 0.18246 0.24734
 C3180 C 1.01474 0.19056 0.23842
 C3181 C 1.00949 0.18449 0.22629
 C3182 C 1.01263 0.17073 0.22303
 H3183 H 1.03152 0.10825 0.18406
 H3184 H 1.02331 0.13100 0.19122
 H3185 H 1.04016 0.12381 0.23198
 H3186 H 1.04778 0.10096 0.22496
 H3187 H 1.02381 0.15030 0.20721
 H3188 H 1.02750 0.14166 0.23731
 H3189 H 1.03246 0.16273 0.25112
 H3190 H 1.02708 0.18675 0.25682
 H3191 H 1.00304 0.19039 0.21925
 H3192 H 1.00826 0.16636 0.21371
 C3193 C 0.18939 0.61934 0.54234
 C3194 C 0.19469 0.63149 0.53662
 C3195 C 0.20896 0.63429 0.53712
 C3196 C 0.21791 0.62446 0.54318
 C3197 C 0.21260 0.61231 0.54895
 C3198 C 0.19828 0.60965 0.54865
 C3199 C 0.21401 0.64745 0.53105
 C3200 C 0.22617 0.65332 0.53444
 C3201 C 0.23083 0.66685 0.52890
 C3202 C 0.24081 0.67440 0.53634
 C3203 C 0.24532 0.68730 0.53167
 C3204 C 0.24001 0.69295 0.51937
 C3205 C 0.23023 0.68527 0.51175
 C3206 C 0.22575 0.67233 0.51641
 H3207 H 0.17830 0.61767 0.54206
 H3208 H 0.18757 0.63883 0.53195
 H3209 H 0.22903 0.62594 0.54334
 H3210 H 0.21972 0.60490 0.55348
 H3211 H 0.20696 0.65284 0.52419
 H3212 H 0.23267 0.64857 0.54225
 H3213 H 0.24499 0.67037 0.54592
 H3214 H 0.25288 0.69291 0.53780
 H3215 H 0.22603 0.68923 0.50216
 H3216 H 0.21843 0.66666 0.51009
 C3217 C 0.21194 0.12017 1.05771
 C3218 C 0.21704 0.13299 1.05345
 C3219 C 0.21576 0.13721 1.03968
 C3220 C 0.20902 0.12833 1.03025
 C3221 C 0.20392 0.11548 1.03453
 C3222 C 0.20537 0.11122 1.04830
 C3223 C 0.22129 0.15105 1.03587
 C3224 C 0.22309 0.15541 1.02289
 C3225 C 0.22821 0.16946 1.01952
 C3226 C 0.22384 0.17563 1.00716
 C3227 C 0.22811 0.18900 1.00374
 C3228 C 0.23707 0.19643 1.01252
 C3229 C 0.24180 0.19010 1.02472
 C3230 C 0.23741 0.17675 1.02820
 H3231 H 0.21298 0.11738 1.06846
 H3232 H 0.22203 0.13964 1.06098
 H3233 H 0.20744 0.13122 1.01961
 H3234 H 0.19895 0.10881 1.02701
 H3235 H 0.22391 0.15797 1.04427
 H3236 H 0.22028 0.14883 1.01431
 H3237 H 0.21687 0.17017 1.00025
 H3238 H 0.22437 0.19351 0.99421
 H3239 H 0.24875 0.19553 1.03167
 H3240 H 0.24136 0.17214 1.03760
 C3241 C 0.21357 0.69197 0.63419
 C3242 C 0.21969 0.69628 0.62192
 C3243 C 0.21901 0.71020 0.61778
 C3244 C 0.21240 0.71985 0.62644
 C3245 C 0.20622 0.71551 0.63869
 C3246 C 0.20665 0.70151 0.64265
 C3247 C 0.22544 0.71417 0.60450
 C3248 C 0.22210 0.72571 0.59749
 C3249 C 0.22796 0.72928 0.58384
 C3250 C 0.22072 0.73871 0.57545
 C3251 C 0.22566 0.74219 0.56241
 C3252 C 0.23803 0.73634 0.55745
 C3253 C 0.24545 0.72713 0.56596
 C3254 C 0.24054 0.72369 0.57904
 H3255 H 0.21398 0.68109 0.63690
 H3256 H 0.22480 0.68864 0.61552
 H3257 H 0.21208 0.73076 0.62395
 H3258 H 0.20122 0.72315 0.64515
 H3259 H 0.23255 0.70678 0.60001
 H3260 H 0.21409 0.73249 0.60139
 H3261 H 0.21108 0.74327 0.57892
 H3262 H 0.21967 0.74933 0.55614
 H3263 H 0.25510 0.72255 0.56254
 H3264 H 0.24673 0.71678 0.58533
 C3265 C 0.19343 0.21414 1.13185
 C3266 C 0.19791 0.21975 1.11940
 C3267 C 0.20978 0.21466 1.11290
 C3268 C 0.21705 0.20362 1.11906
 C3269 C 0.21258 0.19794 1.13152
 C3270 C 0.20063 0.20305 1.13822
 C3271 C 0.21382 0.22079 1.09949
 C3272 C 0.22664 0.21995 1.09423
 C3273 C 0.23045 0.22576 1.08063
 C3274 C 0.24180 0.22003 1.07369
 C3275 C 0.24563 0.22494 1.06074
 C3276 C 0.23826 0.23585 1.05445
 C3277 C 0.22708 0.24185 1.06154
 C3278 C 0.22323 0.23689 1.07450
 H3279 H 0.18414 0.21853 1.13618
 H3280 H 0.19203 0.22816 1.11481
 H3281 H 0.22603 0.19907 1.11421
 H3282 H 0.21866 0.18955 1.13575
 H3283 H 0.20580 0.22623 1.09382
 H3284 H 0.23468 0.21448 1.09984
 H3285 H 0.24762 0.21154 1.07823
 H3286 H 0.25432 0.22009 1.05562
 H3287 H 0.22123 0.25032 1.05705
 H3288 H 0.21472 0.24194 1.07970
 C3289 C 0.69713 0.53374 0.11114
 C3290 C 0.70112 0.52796 0.12375
 C3291 C 0.71492 0.52884 0.12837
 C3292 C 0.72477 0.53529 0.11986
 C3293 C 0.72075 0.54114 0.10728
 C3294 C 0.70687 0.54051 0.10283
 C3295 C 0.71852 0.52287 0.14202
 C3296 C 0.72977 0.52656 0.14935
 C3297 C 0.73284 0.52137 0.16343
 C3298 C 0.74192 0.52905 0.17182
 C3299 C 0.74486 0.52483 0.18528
 C3300 C 0.73882 0.51276 0.19068
 C3301 C 0.72999 0.50486 0.18219
 C3302 C 0.72709 0.50906 0.16869
 H3303 H 0.68634 0.53318 0.10806
 H3304 H 0.69334 0.52298 0.13003
 H3305 H 0.73561 0.53575 0.12273
 H3306 H 0.72853 0.54602 0.10094
 H3307 H 0.71103 0.51589 0.14650
 H3308 H 0.73663 0.53444 0.14537
 H3309 H 0.74660 0.53849 0.16801
 H3310 H 0.75173 0.53117 0.19150
 H3311 H 0.72530 0.49542 0.18597
 H3312 H 0.72045 0.50254 0.16245
 C3313 C 0.70340 1.06558 0.62587
 C3314 C 0.70869 1.06055 0.63832
 C3315 C 0.70779 1.04642 0.64161
 C3316 C 0.70140 1.03738 0.63209
 C3317 C 0.69605 1.04245 0.61962
 C3318 C 0.69710 1.05659 0.61633
 C3319 C 0.71412 1.04166 0.65480
 C3320 C 0.71177 1.02927 0.66063
 C3321 C 0.71818 1.02496 0.67391
 C3322 C 0.71159 1.01476 0.68181
 C3323 C 0.71718 1.01057 0.69448
 C3324 C 0.72958 1.01642 0.69950
 C3325 C 0.73635 1.02641 0.69143
 C3326 C 0.73077 1.03058 0.67876
 H3327 H 0.70420 1.07656 0.62374
 H3328 H 0.71354 1.06776 0.64541
 H3329 H 0.70077 1.02637 0.63398
 H3330 H 0.69143 1.03525 0.61238
 H3331 H 0.72063 1.04905 0.66016
 H3332 H 0.70436 1.02224 0.65600
 H3333 H 0.70197 1.01015 0.67827
 H3334 H 0.71168 1.00283 0.70039
 H3335 H 0.74598 1.03105 0.69489
 H3336 H 0.73648 1.03807 0.67277
 C3337 C 0.55513 0.21589 0.60955
 C3338 C 0.55075 0.22150 0.62206
 C3339 C 0.53693 0.22013 0.62633
 C3340 C 0.52752 0.21305 0.61767
 C3341 C 0.53190 0.20747 0.60515
 C3342 C 0.54577 0.20871 0.60098
 C3343 C 0.53309 0.22558 0.64011
 C3344 C 0.52001 0.22689 0.64458
 C3345 C 0.51656 0.23114 0.65881
 C3346 C 0.50424 0.22620 0.66462
 C3347 C 0.50082 0.22944 0.67819
 C3348 C 0.50957 0.23789 0.68623
 C3349 C 0.52169 0.24324 0.68026
 C3350 C 0.52516 0.23990 0.66669
 H3351 H 0.56593 0.21687 0.60678
 H3352 H 0.55826 0.22678 0.62853
 H3353 H 0.51685 0.21142 0.62054
 H3354 H 0.52440 0.20213 0.59874
 H3355 H 0.54156 0.22825 0.64699
 H3356 H 0.51140 0.22409 0.63798
 H3357 H 0.49737 0.21955 0.65872
 H3358 H 0.49134 0.22524 0.68241
 H3359 H 0.52861 0.24986 0.68613
 H3360 H 0.53452 0.24427 0.66241
 C3361 C 1.06572 0.21283 0.11874
 C3362 C 1.06144 0.21878 0.13115
 C3363 C 1.04927 0.21436 0.13760
 C3364 C 1.04156 0.20363 0.13147
 C3365 C 1.04582 0.19762 0.11910
 C3366 C 1.05803 0.20206 0.11242
 C3367 C 1.04536 0.22065 0.15099
 C3368 C 1.03229 0.22087 0.15567
 C3369 C 1.02826 0.22610 0.16947
 C3370 C 1.01567 0.22151 0.17500
 C3371 C 1.01155 0.22566 0.18812
 C3372 C 1.01985 0.23465 0.19604
 C3373 C 1.03227 0.23962 0.19035
 C3374 C 1.03644 0.23541 0.17720
 H3375 H 1.07526 0.21665 0.11441
 H3376 H 1.06768 0.22691 0.13574
 H3377 H 1.03236 0.19956 0.13632
 H3378 H 1.03934 0.18954 0.11490
 H3379 H 1.05363 0.22510 0.15712
 H3380 H 1.02408 0.21655 0.14936
 H3381 H 1.00910 0.21445 0.16924
 H3382 H 1.00187 0.22168 0.19210
 H3383 H 1.03888 0.24662 0.19613
 H3384 H 1.04600 0.23954 0.17317
 C3385 C 0.62975 0.18822 0.70691
 C3386 C 0.61710 0.19267 0.71232
 C3387 C 0.61258 0.20640 0.71055
 C3388 C 0.62107 0.21562 0.70316
 C3389 C 0.63373 0.21117 0.69778
 C3390 C 0.63821 0.19741 0.69952
 C3391 C 0.59877 0.21038 0.71605
 C3392 C 0.59428 0.22350 0.71730
 C3393 C 0.58014 0.22716 0.72202
 C3394 C 0.57422 0.23964 0.71747
 C3395 C 0.56077 0.24334 0.72132
 C3396 C 0.55299 0.23471 0.73000
 C3397 C 0.55909 0.22239 0.73491
 C3398 C 0.57252 0.21865 0.73098
 H3399 H 0.63275 0.17750 0.70828
 H3400 H 0.61075 0.18529 0.71784
 H3401 H 0.61797 0.22620 0.70119
 H3402 H 0.64003 0.21856 0.69225
 H3403 H 0.59196 0.20199 0.71898
 H3404 H 0.60084 0.23202 0.71425
 H3405 H 0.57992 0.24645 0.71068
 H3406 H 0.55646 0.25295 0.71741
 H3407 H 0.55343 0.21554 0.74168
 H3408 H 0.57690 0.20918 0.73508
 C3409 C 1.13395 0.20870 0.19176
 C3410 C 1.12181 0.21413 0.19737
 C3411 C 1.11914 0.21294 0.21151
 C3412 C 1.12901 0.20627 0.21999
 C3413 C 1.14117 0.20080 0.21433
 C3414 C 1.14379 0.20199 0.20016
 C3415 C 1.10611 0.21910 0.21684
 C3416 C 1.10051 0.21605 0.22909
 C3417 C 1.08700 0.22182 0.23360
 C3418 C 1.07896 0.21425 0.24294
 C3419 C 1.06581 0.21895 0.24677
 C3420 C 1.06045 0.23140 0.24139
 C3421 C 1.06877 0.23928 0.23250
 C3422 C 1.08192 0.23460 0.22871
 H3423 H 1.13553 0.20963 0.18078
 H3424 H 1.11443 0.21921 0.19059
 H3425 H 1.12758 0.20545 0.23099
 H3426 H 1.14867 0.19588 0.22109
 H3427 H 1.10051 0.22589 0.20989
 H3428 H 1.10533 0.20834 0.23564
 H3429 H 1.08270 0.20446 0.24699
 H3430 H 1.05972 0.21264 0.25368
 H3431 H 1.06507 0.24902 0.22832
 H3432 H 1.08803 0.24104 0.22196
 C3433 C 0.12109 0.71249 0.55814
 C3434 C 0.13381 0.71799 0.55403
 C3435 C 0.13785 0.71751 0.54017
 C3436 C 0.12865 0.71176 0.53040
 C3437 C 0.11596 0.70620 0.53453
 C3438 C 0.11208 0.70640 0.54844
 C3439 C 0.15160 0.72322 0.53637
 C3440 C 0.15838 0.71958 0.52488
 C3441 C 0.17245 0.72462 0.52130
 C3442 C 0.18017 0.71705 0.51167
 C3443 C 0.19352 0.72121 0.50805
 C3444 C 0.19948 0.73314 0.51393
 C3445 C 0.19166 0.74090 0.52339
 C3446 C 0.17827 0.73674 0.52699
 H3447 H 0.11843 0.71273 0.56895
 H3448 H 0.14063 0.72245 0.56176
 H3449 H 0.13106 0.71167 0.51955
 H3450 H 0.10909 0.70189 0.52678
 H3451 H 0.15659 0.72997 0.54378
 H3452 H 0.15388 0.71189 0.51809
 H3453 H 0.17592 0.70775 0.50704
 H3454 H 0.19921 0.71496 0.50074
 H3455 H 0.19589 0.75020 0.52803
 H3456 H 0.17254 0.74315 0.53410
 C3457 C 0.12170 0.18938 1.04127
 C3458 C 0.13369 0.19428 1.03491
 C3459 C 0.13704 0.20844 1.03525
 C3460 C 0.12787 0.21768 1.04180
 C3461 C 0.11591 0.21275 1.04823
 C3462 C 0.11274 0.19855 1.04811
 C3463 C 0.15008 0.21305 1.02859
 C3464 C 0.15645 0.22505 1.03160
 C3465 C 0.16996 0.22934 1.02572
 C3466 C 0.17759 0.23961 1.03262
 C3467 C 0.19049 0.24385 1.02774
 C3468 C 0.19610 0.23794 1.01576
 C3469 C 0.18834 0.22785 1.00865
 C3470 C 0.17539 0.22363 1.01352
 H3471 H 0.11960 0.17837 1.04108
 H3472 H 0.14050 0.18694 1.02987
 H3473 H 0.12971 0.22872 1.04187
 H3474 H 0.10903 0.22009 1.05315
 H3475 H 0.15497 0.20580 1.02165
 H3476 H 0.15213 0.23175 1.03942
 H3477 H 0.17365 0.24427 1.04197
 H3478 H 0.19615 0.25164 1.03351
 H3479 H 0.19229 0.22317 0.99932
 H3480 H 0.16968 0.21602 1.00761
 C3481 C 0.61231 0.55215 0.21530
 C3482 C 0.62534 0.54789 0.21996
 C3483 C 0.62973 0.53414 0.21819
 C3484 C 0.62065 0.52463 0.21181
 C3485 C 0.60759 0.52893 0.20709
 C3486 C 0.60329 0.54274 0.20880
 C3487 C 0.64371 0.53028 0.22337
 C3488 C 0.65071 0.51901 0.21926
 C3489 C 0.66504 0.51584 0.22396
 C3490 C 0.67335 0.50731 0.21572
 C3491 C 0.68701 0.50432 0.21956
 C3492 C 0.69267 0.50978 0.23180
 C3493 C 0.68426 0.51809 0.24021
 C3494 C 0.67057 0.52102 0.23640
 H3495 H 0.60941 0.56291 0.21658
 H3496 H 0.63208 0.55542 0.22485
 H3497 H 0.62342 0.51384 0.21062
 H3498 H 0.60075 0.52142 0.20232
 H3499 H 0.64872 0.53760 0.23022
 H3500 H 0.64628 0.51229 0.21149
 H3501 H 0.66932 0.50309 0.20615
 H3502 H 0.69318 0.49784 0.21284
 H3503 H 0.68821 0.52228 0.24981
 H3504 H 0.66436 0.52719 0.24333
 C3505 C 0.61687 1.03880 0.69696
 C3506 C 0.62947 1.03386 0.70210
 C3507 C 0.63296 1.03548 0.71606
 C3508 C 0.62343 1.04205 0.72486
 C3509 C 0.61079 1.04703 0.71968
 C3510 C 0.60737 1.04543 0.70568
 C3511 C 0.64644 1.02984 0.72092
 C3512 C 0.65280 1.03365 0.73265
 C3513 C 0.66661 1.02822 0.73676
 C3514 C 0.67521 1.03634 0.74523
 C3515 C 0.68856 1.03181 0.74875
 C3516 C 0.69355 1.01901 0.74392
 C3517 C 0.68473 1.01067 0.73585
 C3518 C 0.67140 1.01516 0.73239
 H3519 H 0.61465 1.03758 0.68609
 H3520 H 0.63659 1.02881 0.69510
 H3521 H 0.62552 1.04316 0.73576
 H3522 H 0.60358 1.05190 0.72668
 H3523 H 0.65168 1.02276 0.71402
 H3524 H 0.64832 1.04167 0.73902
 H3525 H 0.67171 1.04636 0.74887
 H3526 H 0.69507 1.03849 0.75501
 H3527 H 0.68816 1.00065 0.73214
 H3528 H 0.66488 1.00833 0.72634
 C3529 C 0.88108 0.45703 0.31464
 C3530 C 0.86868 0.46302 0.31004
 C3531 C 0.86514 0.46297 0.29599
 C3532 C 0.87452 0.45709 0.28656
 C3533 C 0.88688 0.45101 0.29119
 C3534 C 0.89026 0.45085 0.30527
 C3535 C 0.85170 0.46923 0.29164
 C3536 C 0.84533 0.46617 0.27968
 C3537 C 0.83157 0.47169 0.27537
 C3538 C 0.82469 0.46509 0.26441
 C3539 C 0.81172 0.46969 0.25990
 C3540 C 0.80524 0.48110 0.26620
 C3541 C 0.81216 0.48786 0.27708
 C3542 C 0.82522 0.48326 0.28159
 H3543 H 0.88336 0.45699 0.32557
 H3544 H 0.86173 0.46756 0.31752
 H3545 H 0.87254 0.45729 0.27559
 H3546 H 0.89390 0.44662 0.28371
 H3547 H 0.84661 0.47590 0.29899
 H3548 H 0.84999 0.45863 0.27289
 H3549 H 0.82933 0.45622 0.25936
 H3550 H 0.80672 0.46418 0.25151
 H3551 H 0.80750 0.49672 0.28212
 H3552 H 0.83026 0.48892 0.28981
 C3553 C 0.88627 0.96273 0.80776
 C3554 C 0.87362 0.96828 0.80334
 C3555 C 0.86990 0.96818 0.78934
 C3556 C 0.87929 0.96257 0.77977
 C3557 C 0.89196 0.95698 0.78421
 C3558 C 0.89559 0.95699 0.79825
 C3559 C 0.85631 0.97424 0.78528
 C3560 C 0.84979 0.97153 0.77332
 C3561 C 0.83580 0.97701 0.76987
 C3562 C 0.82754 0.96973 0.76037
 C3563 C 0.81407 0.97419 0.75727
 C3564 C 0.80858 0.98613 0.76354
 C3565 C 0.81704 0.99370 0.77268
 C3566 C 0.83051 0.98924 0.77577
 H3567 H 0.88866 0.96276 0.81866
 H3568 H 0.86664 0.97257 0.81094
 H3569 H 0.87708 0.96267 0.76884
 H3570 H 0.89903 0.95287 0.77662
 H3571 H 0.85115 0.98054 0.79291
 H3572 H 0.85431 0.96425 0.76615
 H3573 H 0.83140 0.96037 0.75556
 H3574 H 0.80789 0.96812 0.75013
 H3575 H 0.81322 1.00303 0.77758
 H3576 H 0.83671 0.99546 0.78273
 C3577 C 0.36372 0.28767 0.80666
 C3578 C 0.37611 0.28177 0.80206
 C3579 C 0.37946 0.28186 0.78801
 C3580 C 0.36988 0.28756 0.77857
 C3581 C 0.35754 0.29352 0.78318
 C3582 C 0.35438 0.29376 0.79728
 C3583 C 0.39291 0.27585 0.78366
 C3584 C 0.39925 0.27936 0.77190
 C3585 C 0.41307 0.27409 0.76774
 C3586 C 0.42048 0.28154 0.75782
 C3587 C 0.43359 0.27714 0.75361
 C3588 C 0.43959 0.26508 0.75919
 C3589 C 0.43209 0.25745 0.76897
 C3590 C 0.41894 0.26186 0.77316
 H3591 H 0.36162 0.28776 0.81759
 H3592 H 0.38323 0.27735 0.80955
 H3593 H 0.37176 0.28734 0.76761
 H3594 H 0.35038 0.29782 0.77569
 H3595 H 0.39811 0.26903 0.79088
 H3596 H 0.39458 0.28714 0.76531
 H3597 H 0.41619 0.29093 0.75339
 H3598 H 0.43905 0.28329 0.74607
 H3599 H 0.43635 0.24806 0.77340
 H3600 H 0.41342 0.25555 0.78050
 C3601 C 0.86934 0.28727 0.30935
 C3602 C 0.88197 0.28182 0.30492
 C3603 C 0.88577 0.28258 0.29102
 C3604 C 0.87645 0.28860 0.28152
 C3605 C 0.86382 0.29409 0.28596
 C3606 C 0.86016 0.29355 0.29993
 C3607 C 0.89937 0.27678 0.28690
 C3608 C 0.90605 0.28047 0.27539
 C3609 C 0.91996 0.27511 0.27171
 C3610 C 0.92821 0.28289 0.26273
 C3611 C 0.94150 0.27836 0.25921
 C3612 C 0.94679 0.26587 0.26454
 C3613 C 0.93840 0.25791 0.27329
 C3614 C 0.92511 0.26242 0.27677
 H3615 H 0.86689 0.28681 0.32020
 H3616 H 0.88890 0.27717 0.31244
 H3617 H 0.87872 0.28895 0.27064
 H3618 H 0.85682 0.29859 0.27843
 H3619 H 0.90438 0.26984 0.29414
 H3620 H 0.90165 0.28838 0.26878
 H3621 H 0.92445 0.29263 0.25859
 H3622 H 0.94767 0.28475 0.25243
 H3623 H 0.94209 0.24815 0.27745
 H3624 H 0.91890 0.25584 0.28329
 C3625 C 0.39181 0.80510 0.46665
 C3626 C 0.37928 0.80085 0.47239
 C3627 C 0.37463 0.78717 0.47082
 C3628 C 0.38284 0.77777 0.46331
 C3629 C 0.39539 0.78203 0.45758
 C3630 C 0.40000 0.79575 0.45913
 C3631 C 0.36088 0.78345 0.47653
 C3632 C 0.35650 0.77040 0.47839
 C3633 C 0.34229 0.76703 0.48299
 C3634 C 0.33629 0.75456 0.47858
 C3635 C 0.32265 0.75130 0.48205
 C3636 C 0.31475 0.76039 0.49020
 C3637 C 0.32096 0.77263 0.49509
 C3638 C 0.33459 0.77593 0.49153
 H3639 H 0.39490 0.81581 0.46784
 H3640 H 0.37311 0.80835 0.47799
 H3641 H 0.37956 0.76723 0.46148
 H3642 H 0.40149 0.77456 0.45191
 H3643 H 0.35402 0.79196 0.47903
 H3644 H 0.36314 0.76177 0.47580
 H3645 H 0.34206 0.74747 0.47212
 H3646 H 0.31825 0.74172 0.47821
 H3647 H 0.31521 0.77980 0.50147
 H3648 H 0.33904 0.78541 0.49553
 C3649 C 0.38358 0.29179 0.93534
 C3650 C 0.37101 0.28645 0.94003
 C3651 C 0.36714 0.28789 0.95386
 C3652 C 0.37614 0.29499 0.96292
 C3653 C 0.38874 0.30034 0.95822
 C3654 C 0.39262 0.29879 0.94437
 C3655 C 0.35347 0.28226 0.95813
 C3656 C 0.34956 0.28053 0.97126
 C3657 C 0.33559 0.27552 0.97516
 C3658 C 0.33005 0.27982 0.98778
 C3659 C 0.31675 0.27574 0.99169
 C3660 C 0.30874 0.26706 0.98314
 C3661 C 0.31447 0.26236 0.97070
 C3662 C 0.32776 0.26655 0.96674
 H3663 H 0.38608 0.29064 0.92455
 H3664 H 0.36425 0.28118 0.93277
 H3665 H 0.37352 0.29671 0.97358
 H3666 H 0.39548 0.30560 0.96546
 H3667 H 0.34628 0.27955 0.94996
 H3668 H 0.35647 0.28338 0.97959
 H3669 H 0.33592 0.28661 0.99453
 H3670 H 0.31272 0.27947 1.00139
 H3671 H 0.30862 0.25561 0.96391
 H3672 H 0.33187 0.26264 0.95715
 C3673 C 0.80504 0.46075 0.38372
 C3674 C 0.80107 0.46495 0.37052
 C3675 C 0.78737 0.46314 0.36586
 C3676 C 0.77766 0.45707 0.37480
 C3677 C 0.78168 0.45280 0.38801
 C3678 C 0.79539 0.45465 0.39263
 C3679 C 0.78371 0.46820 0.35185
 C3680 C 0.77216 0.46461 0.34493
 C3681 C 0.76883 0.46978 0.33089
 C3682 C 0.75964 0.46214 0.32259
 C3683 C 0.75628 0.46661 0.30928
 C3684 C 0.76201 0.47888 0.30399
 C3685 C 0.77102 0.48666 0.31239
 C3686 C 0.77432 0.48223 0.32571
 H3687 H 0.81572 0.46215 0.38691
 H3688 H 0.80876 0.46962 0.36390
 H3689 H 0.76691 0.45584 0.37184
 H3690 H 0.77397 0.44834 0.39474
 H3691 H 0.79125 0.47478 0.34688
 H3692 H 0.76514 0.45709 0.34930
 H3693 H 0.75515 0.45259 0.32636
 H3694 H 0.74929 0.46036 0.30310
 H3695 H 0.77548 0.49626 0.30873
 H3696 H 0.78101 0.48873 0.33193
 C3697 C 0.79322 0.94259 0.88625
 C3698 C 0.78785 0.94718 0.87365
 C3699 C 0.78836 0.96126 0.87003
 C3700 C 0.79418 0.97073 0.87946
 C3701 C 0.79959 0.96613 0.89207
 C3702 C 0.79919 0.95201 0.89560
 C3703 C 0.78237 0.96555 0.85655
 C3704 C 0.78539 0.97753 0.85020
 C3705 C 0.77966 0.98142 0.83649
 C3706 C 0.78689 0.99106 0.82845
 C3707 C 0.78202 0.99479 0.81536
 C3708 C 0.76972 0.98901 0.81004
 C3709 C 0.76227 0.97964 0.81826
 C3710 C 0.76713 0.97594 0.83135
 H3711 H 0.79287 0.93164 0.88857
 H3712 H 0.78336 0.93965 0.86664
 H3713 H 0.79438 0.98172 0.87733
 H3714 H 0.80387 0.97367 0.89917
 H3715 H 0.77576 0.95811 0.85138
 H3716 H 0.79297 0.98445 0.85472
 H3717 H 0.79649 0.99556 0.83221
 H3718 H 0.78801 1.00206 0.80934
 H3719 H 0.75267 0.97511 0.81458
 H3720 H 0.76094 0.96890 0.83740
 C3721 C 0.29355 0.80590 0.36898
 C3722 C 0.28891 0.80091 0.38161
 C3723 C 0.29024 0.78683 0.38500
 C3724 C 0.29636 0.77779 0.37537
 C3725 C 0.30106 0.78283 0.36271
 C3726 C 0.29963 0.79692 0.35936
 C3727 C 0.28473 0.78216 0.39845
 C3728 C 0.28783 0.77000 0.40446
 C3729 C 0.28245 0.76606 0.41819
 C3730 C 0.29011 0.75677 0.42636
 C3731 C 0.28567 0.75333 0.43961
 C3732 C 0.27340 0.75905 0.44495
 C3733 C 0.26546 0.76794 0.43655
 C3734 C 0.26987 0.77134 0.42331
 H3735 H 0.29249 0.81685 0.36681
 H3736 H 0.28425 0.80812 0.38879
 H3737 H 0.29728 0.76681 0.37737
 H3738 H 0.30553 0.77564 0.35541
 H3739 H 0.27830 0.78949 0.40394
 H3740 H 0.29521 0.76307 0.39972
 H3741 H 0.29973 0.75242 0.42261
 H3742 H 0.29202 0.74640 0.44577
 H3743 H 0.25585 0.77237 0.44023
 H3744 H 0.26335 0.77806 0.41713
 C3745 C 0.28643 0.31184 0.86403
 C3746 C 0.28098 0.30803 0.87677
 C3747 C 0.28208 0.29433 0.88150
 C3748 C 0.28889 0.28450 0.87320
 C3749 C 0.29432 0.28831 0.86045
 C3750 C 0.29320 0.30203 0.85572
 C3751 C 0.27664 0.29098 0.89538
 C3752 C 0.27407 0.27804 0.89972
 C3753 C 0.26984 0.27477 0.91397
 C3754 C 0.27369 0.26191 0.91952
 C3755 C 0.27045 0.25856 0.93309
 C3756 C 0.26307 0.26792 0.94139
 C3757 C 0.25877 0.28063 0.93570
 C3758 C 0.26214 0.28405 0.92212
 H3759 H 0.28560 0.32255 0.86084
 H3760 H 0.27596 0.31586 0.88301
 H3761 H 0.29039 0.27393 0.87655
 H3762 H 0.29939 0.28049 0.85428
 H3763 H 0.27496 0.29959 0.90232
 H3764 H 0.27577 0.26934 0.89292
 H3765 H 0.27950 0.25454 0.91341
 H3766 H 0.27380 0.24862 0.93711
 H3767 H 0.25300 0.28803 0.94180
 H3768 H 0.25862 0.29388 0.91804
 C3769 C 0.46055 0.30906 0.87672
 C3770 C 0.46579 0.30426 0.86423
 C3771 C 0.46470 0.29022 0.86059
 C3772 C 0.45846 0.28099 0.86992
 C3773 C 0.45315 0.28582 0.88241
 C3774 C 0.45411 0.29991 0.88592
 C3775 C 0.47037 0.28575 0.84713
 C3776 C 0.46675 0.27394 0.84074
 C3777 C 0.47187 0.26998 0.82690
 C3778 C 0.46411 0.26049 0.81908
 C3779 C 0.46831 0.25672 0.80586
 C3780 C 0.48044 0.26233 0.80015
 C3781 C 0.48841 0.27157 0.80811
 C3782 C 0.48423 0.27530 0.82137
 H3783 H 0.46131 0.32000 0.87905
 H3784 H 0.47059 0.31160 0.85729
 H3785 H 0.45781 0.27001 0.86779
 H3786 H 0.44848 0.27850 0.88942
 H3787 H 0.47714 0.29297 0.84197
 H3788 H 0.45904 0.26727 0.84530
 H3789 H 0.45462 0.25614 0.82313
 H3790 H 0.46191 0.24956 0.80003
 H3791 H 0.49790 0.27595 0.80411
 H3792 H 0.49081 0.28223 0.82722
 C3793 C 0.95950 0.31151 0.38147
 C3794 C 0.96569 0.30654 0.36949
 C3795 C 0.96529 0.29237 0.36622
 C3796 C 0.95874 0.28320 0.37541
 C3797 C 0.95248 0.28821 0.38738
 C3798 C 0.95278 0.30241 0.39053
 C3799 C 0.97195 0.28771 0.35327
 C3800 C 0.96912 0.27562 0.34704
 C3801 C 0.97510 0.27142 0.33362
 C3802 C 0.96814 0.26133 0.32582
 C3803 C 0.97312 0.25726 0.31297
 C3804 C 0.98528 0.26315 0.30761
 C3805 C 0.99247 0.27303 0.31554
 C3806 C 0.98749 0.27708 0.32844
 H3807 H 0.95978 0.32253 0.38353
 H3808 H 0.97070 0.31383 0.36266
 H3809 H 0.95858 0.27216 0.37358
 H3810 H 0.94761 0.28093 0.39431
 H3811 H 0.97879 0.29502 0.34830
 H3812 H 0.96139 0.26881 0.35137
 H3813 H 0.95866 0.25671 0.32959
 H3814 H 0.96732 0.24960 0.30718
 H3815 H 1.00193 0.27768 0.31179
 H3816 H 0.99346 0.28453 0.33430
 C3817 C 0.45717 0.37771 0.81328
 C3818 C 0.46303 0.36563 0.80785
 C3819 C 0.46258 0.36300 0.79363
 C3820 C 0.45651 0.37298 0.78488
 C3821 C 0.45059 0.38501 0.79032
 C3822 C 0.45075 0.38746 0.80459
 C3823 C 0.46867 0.34987 0.78839
 C3824 C 0.46532 0.34427 0.77614
 C3825 C 0.47075 0.33078 0.77110
 C3826 C 0.46354 0.32404 0.76043
 C3827 C 0.46805 0.31123 0.75545
 C3828 C 0.47995 0.30484 0.76099
 C3829 C 0.48736 0.31171 0.77148
 C3830 C 0.48287 0.32456 0.77644
 H3831 H 0.45740 0.37927 0.82432
 H3832 H 0.46773 0.35820 0.81483
 H3833 H 0.45642 0.37170 0.77382
 H3834 H 0.44602 0.39250 0.78334
 H3835 H 0.47548 0.34428 0.79533
 H3836 H 0.45759 0.34929 0.76974
 H3837 H 0.45425 0.32862 0.75604
 H3838 H 0.46206 0.30625 0.74738
 H3839 H 0.49664 0.30714 0.77591
 H3840 H 0.48902 0.32957 0.78434
 C3841 C 0.93996 0.37981 0.29253
 C3842 C 0.94485 0.36762 0.28645
 C3843 C 0.95903 0.36427 0.28685
 C3844 C 0.96829 0.37363 0.29319
 C3845 C 0.96338 0.38578 0.29933
 C3846 C 0.94915 0.38898 0.29914
 C3847 C 0.96364 0.35105 0.28044
 C3848 C 0.97574 0.34478 0.28346
 C3849 C 0.98003 0.33115 0.27775
 C3850 C 0.99041 0.32366 0.28470
 C3851 C 0.99463 0.31065 0.27998
 C3852 C 0.98863 0.30482 0.26808
 C3853 C 0.97847 0.31245 0.26089
 C3854 C 0.97425 0.32549 0.26562
 H3855 H 0.92893 0.38191 0.29229
 H3856 H 0.93749 0.36068 0.28157
 H3857 H 0.97935 0.37177 0.29331
 H3858 H 0.97074 0.39280 0.30407
 H3859 H 0.95633 0.34596 0.27364
 H3860 H 0.98252 0.34931 0.29115
 H3861 H 0.99514 0.32778 0.29399
 H3862 H 1.00250 0.30511 0.28579
 H3863 H 0.97369 0.30832 0.25164
 H3864 H 0.96656 0.33108 0.25967
 C3865 C 0.29485 0.88011 0.43768
 C3866 C 0.28987 0.86742 0.44249
 C3867 C 0.29141 0.86366 0.45639
 C3868 C 0.29815 0.87297 0.46540
 C3869 C 0.30312 0.88568 0.46058
 C3870 C 0.30155 0.88940 0.44666
 C3871 C 0.28611 0.84986 0.46077
 C3872 C 0.28554 0.84546 0.47387
 C3873 C 0.28064 0.83143 0.47779
 C3874 C 0.28563 0.82554 0.49007
 C3875 C 0.28150 0.81227 0.49406
 C3876 C 0.27213 0.80461 0.48592
 C3877 C 0.26684 0.81066 0.47380
 C3878 C 0.27102 0.82393 0.46978
 H3879 H 0.29365 0.88251 0.42686
 H3880 H 0.28484 0.86047 0.43526
 H3881 H 0.29980 0.87059 0.47615
 H3882 H 0.30811 0.89264 0.46780
 H3883 H 0.28272 0.84295 0.45264
 H3884 H 0.28924 0.85198 0.48215
 H3885 H 0.29293 0.83116 0.49651
 H3886 H 0.28574 0.80799 0.50351
 H3887 H 0.25953 0.80511 0.46733
 H3888 H 0.26656 0.82829 0.46049
 C3889 C 0.31288 0.38621 0.96071
 C3890 C 0.30840 0.37358 0.96609
 C3891 C 0.29464 0.36919 0.96425
 C3892 C 0.28546 0.37769 0.95667
 C3893 C 0.28996 0.39034 0.95127
 C3894 C 0.30371 0.39477 0.95326
 C3895 C 0.29059 0.35551 0.96995
 C3896 C 0.27743 0.35150 0.97191
 C3897 C 0.27369 0.33754 0.97704
 C3898 C 0.26091 0.33185 0.97304
 C3899 C 0.25721 0.31850 0.97716
 C3900 C 0.26614 0.31058 0.98555
 C3901 C 0.27873 0.31648 0.99000
 C3902 C 0.28247 0.32982 0.98580
 H3903 H 0.32361 0.38914 0.96221
 H3904 H 0.31574 0.36719 0.97172
 H3905 H 0.27489 0.37458 0.95462
 H3906 H 0.28264 0.39671 0.94562
 H3907 H 0.29893 0.34845 0.97256
 H3908 H 0.26896 0.35836 0.96921
 H3909 H 0.25390 0.33764 0.96644
 H3910 H 0.24738 0.31433 0.97363
 H3911 H 0.28581 0.31072 0.99654
 H3912 H 0.29219 0.33405 0.98949
 C3913 C 0.81184 0.36476 0.28873
 C3914 C 0.80746 0.37732 0.28302
 C3915 C 0.79361 0.38162 0.28411
 C3916 C 0.78422 0.37312 0.29126
 C3917 C 0.78860 0.36054 0.29697
 C3918 C 0.80246 0.35620 0.29577
 C3919 C 0.78964 0.39526 0.27818
 C3920 C 0.77651 0.39904 0.27541
 C3921 C 0.77269 0.41298 0.27025
 C3922 C 0.75955 0.41826 0.27347
 C3923 C 0.75565 0.43154 0.26926
 C3924 C 0.76474 0.43979 0.26151
 C3925 C 0.77774 0.43433 0.25788
 C3926 C 0.78169 0.42106 0.26220
 H3927 H 0.82264 0.36188 0.28783
 H3928 H 0.81496 0.38372 0.27774
 H3929 H 0.77355 0.37618 0.29275
 H3930 H 0.78111 0.35418 0.30228
 H3931 H 0.79797 0.40246 0.27614
 H3932 H 0.76809 0.39198 0.27750
 H3933 H 0.75238 0.41219 0.27953
 H3934 H 0.74551 0.43537 0.27215
 H3935 H 0.78496 0.44039 0.25188
 H3936 H 0.79173 0.41716 0.25913
   
