data_POSCAR
  _audit_creation_date              2014-09-24
  _audit_creation_method            'ToBaCCo'
  _symmetry_space_group_name_H-M    'P1'
  _symmetry_Int_Tables_number       1
  _symmetry_cell_setting            triclinic
  loop_
  _symmetry_equiv_pos_as_xyz
 x,y,z
_cell_length_a 64.1654
_cell_length_b 64.4477
_cell_length_c 64.8646
_cell_angle_alpha 89.462500
_cell_angle_beta 88.462300
_cell_angle_gamma 90.705600
loop_
  _atom_site_label
  _atom_site_type_symbol
  _atom_site_fract_x
  _atom_site_fract_y
  _atom_site_fract_z
N1 N 0.17756 0.23148 0.22724
 N2 N 0.18093 0.21478 0.23835
 C3 C 0.16535 0.21250 0.25260
 C4 C 0.15156 0.22876 0.25031
 C5 C 0.15991 0.24043 0.23400
 H6 H 0.16427 0.20007 0.26390
 H7 H 0.15360 0.25436 0.22733
 Cu8 Cu 0.20566 0.19801 0.23343
 Cu9 Cu 0.19632 0.24091 0.20512
 Cu10 Cu 0.23445 0.20659 0.18992
 N11 N 0.22694 0.17864 0.22399
 N12 N 0.23778 0.18181 0.20674
 C13 C 0.25157 0.16643 0.20423
 C14 C 0.24934 0.15277 0.22081
 C15 C 0.23348 0.16106 0.23302
 H16 H 0.26278 0.16564 0.19154
 H17 H 0.22723 0.15491 0.24749
 N18 N 0.22711 0.23092 0.17312
 N19 N 0.21294 0.24428 0.17939
 C20 C 0.21147 0.25943 0.16515
 C21 C 0.22539 0.25553 0.14905
 C22 C 0.23502 0.23724 0.15461
 H23 H 0.20067 0.27214 0.16624
 H24 H 0.24703 0.22926 0.14592
 H25 H 0.20333 0.21067 0.19822
 H26 H 0.22324 0.22556 0.21270
 N27 N 0.67445 0.72255 0.72849
 N28 N 0.67763 0.70478 0.73791
 C29 C 0.66260 0.70168 0.75254
 C30 C 0.64924 0.71845 0.75233
 C31 C 0.65737 0.73140 0.73683
 H32 H 0.66146 0.68817 0.76250
 H33 H 0.65129 0.74609 0.73175
 Cu34 Cu 0.70106 0.68754 0.72980
 Cu35 Cu 0.69264 0.73297 0.70611
 Cu36 Cu 0.73023 0.69915 0.68743
 N37 N 0.72486 0.67080 0.72178
 N38 N 0.73594 0.67523 0.70494
 C39 C 0.75110 0.66114 0.70262
 C40 C 0.74949 0.64704 0.71888
 C41 C 0.73261 0.65372 0.73074
 H42 H 0.76252 0.66132 0.69007
 H43 H 0.72627 0.64659 0.74472
 N44 N 0.72224 0.72451 0.67254
 N45 N 0.70840 0.73766 0.67997
 C46 C 0.70653 0.75347 0.66647
 C47 C 0.71984 0.75018 0.64970
 C48 C 0.72955 0.73164 0.65412
 H49 H 0.69586 0.76617 0.66850
 H50 H 0.74120 0.72397 0.64469
 H51 H 0.69902 0.70348 0.69593
 H52 H 0.71951 0.71597 0.71178
 N53 N 0.32868 0.77179 0.72230
 N54 N 0.32291 0.78581 0.73580
 C55 C 0.33700 0.78677 0.75077
 C56 C 0.35241 0.77244 0.74653
 C57 C 0.34657 0.76322 0.72831
 H58 H 0.33594 0.79695 0.76390
 H59 H 0.35474 0.75121 0.71998
 Cu60 Cu 0.29747 0.80135 0.73273
 Cu61 Cu 0.31227 0.76530 0.69828
 Cu62 Cu 0.26634 0.79258 0.69303
 N63 N 0.27650 0.82118 0.72487
 N64 N 0.26421 0.81762 0.70941
 C65 C 0.25064 0.83326 0.70785
 C66 C 0.25464 0.84760 0.72318
 C67 C 0.27131 0.83930 0.73363
 H68 H 0.23873 0.83390 0.69641
 H69 H 0.27903 0.84567 0.74679
 N70 N 0.27558 0.77108 0.67359
 N71 N 0.29323 0.76100 0.67526
 C72 C 0.29522 0.74778 0.65937
 C73 C 0.27798 0.74964 0.64708
 C74 C 0.26590 0.76461 0.65662
 H75 H 0.30817 0.73743 0.65705
 H76 H 0.25129 0.77066 0.65146
 H77 H 0.29806 0.79402 0.69606
 H78 H 0.28424 0.77309 0.71123
 N79 N 0.82947 0.27494 0.22403
 N80 N 0.82710 0.29255 0.23376
 C81 C 0.84077 0.29352 0.24914
 C82 C 0.85243 0.27545 0.24908
 C83 C 0.84461 0.26403 0.23289
 H84 H 0.84219 0.30655 0.25938
 H85 H 0.84991 0.24919 0.22738
 Cu86 Cu 0.80693 0.31291 0.22501
 Cu87 Cu 0.81404 0.26815 0.19959
 Cu88 Cu 0.77451 0.30127 0.18639
 N89 N 0.78243 0.32933 0.21948
 N90 N 0.76995 0.32490 0.20436
 C91 C 0.75473 0.33907 0.20383
 C92 C 0.75775 0.35314 0.21954
 C93 C 0.77551 0.34640 0.22916
 H94 H 0.74234 0.33905 0.19286
 H95 H 0.78306 0.35355 0.24203
 N96 N 0.78172 0.27647 0.17024
 N97 N 0.79684 0.26390 0.17533
 C98 C 0.79848 0.24884 0.16118
 C99 C 0.78364 0.25200 0.14642
 C100 C 0.77324 0.26966 0.15272
 H101 H 0.80968 0.23648 0.16157
 H102 H 0.76074 0.27725 0.14488
 H103 H 0.80605 0.29796 0.19059
 H104 H 0.78795 0.28440 0.20959
 N105 N 0.82730 0.72690 0.27570
 N106 N 0.82359 0.71050 0.26441
 C107 C 0.83818 0.70961 0.24911
 C108 C 0.85176 0.72637 0.25089
 C109 C 0.84429 0.73698 0.26798
 H110 H 0.83887 0.69763 0.23757
 H111 H 0.85091 0.75081 0.27460
 Cu112 Cu 0.80026 0.69176 0.27110
 Cu113 Cu 0.81021 0.73387 0.29984
 Cu114 Cu 0.76799 0.70149 0.31142
 N115 N 0.77617 0.67394 0.27765
 N116 N 0.76370 0.67796 0.29347
 C117 C 0.74863 0.66333 0.29494
 C118 C 0.75171 0.64924 0.27921
 C119 C 0.76935 0.65654 0.26847
 H120 H 0.73633 0.66303 0.30665
 H121 H 0.77685 0.64951 0.25520
 N122 N 0.77483 0.72601 0.32783
 N123 N 0.79102 0.73828 0.32361
 C124 C 0.79176 0.75324 0.33796
 C125 C 0.77519 0.75027 0.35184
 C126 C 0.76482 0.73286 0.34489
 H127 H 0.80349 0.76541 0.33827
 H128 H 0.75123 0.72543 0.35200
 H129 H 0.79996 0.70406 0.30657
 H130 H 0.78337 0.72004 0.28948
 N131 N 0.32360 0.22316 -0.22714
 N132 N 0.31866 0.20688 -0.23809
 C133 C 0.33388 0.20351 -0.25225
 C134 C 0.34929 0.21866 -0.25030
 C135 C 0.34209 0.23088 -0.23410
 H136 H 0.33343 0.19107 -0.26328
 H137 H 0.34959 0.24440 -0.22773
 Cu138 Cu 0.29247 0.19196 -0.23350
 Cu139 Cu 0.30526 0.23327 -0.20509
 Cu140 Cu 0.26644 0.19853 -0.18853
 N141 N 0.27109 0.17238 -0.22388
 N142 N 0.26118 0.17488 -0.20612
 C143 C 0.24741 0.15919 -0.20309
 C144 C 0.24871 0.14604 -0.21985
 C145 C 0.26399 0.15497 -0.23276
 H146 H 0.23712 0.15765 -0.18969
 H147 H 0.26966 0.14927 -0.24746
 N148 N 0.27399 0.22353 -0.17308
 N149 N 0.28866 0.23685 -0.17935
 C150 C 0.28988 0.25228 -0.16551
 C151 C 0.27510 0.24854 -0.14990
 C152 C 0.26538 0.23017 -0.15525
 H153 H 0.30057 0.26534 -0.16683
 H154 H 0.25302 0.22213 -0.14668
 H155 H 0.29732 0.20315 -0.19830
 H156 H 0.27700 0.21865 -0.21121
 N157 N 0.66785 0.27363 -0.22300
 N158 N 0.67057 0.29125 -0.23307
 C159 C 0.65702 0.29207 -0.24857
 C160 C 0.64510 0.27387 -0.24824
 C161 C 0.65263 0.26255 -0.23175
 H162 H 0.65589 0.30506 -0.25911
 H163 H 0.64706 0.24767 -0.22598
 Cu164 Cu 0.69110 0.31175 -0.22463
 Cu165 Cu 0.68296 0.26703 -0.19827
 Cu166 Cu 0.72302 0.30043 -0.18552
 N167 N 0.71596 0.32826 -0.21939
 N168 N 0.72824 0.32397 -0.20408
 C169 C 0.74382 0.33815 -0.20386
 C170 C 0.74125 0.35208 -0.21997
 C171 C 0.72338 0.34525 -0.22950
 H172 H 0.75615 0.33822 -0.19283
 H173 H 0.71609 0.35227 -0.24263
 N174 N 0.71515 0.27568 -0.16880
 N175 N 0.69986 0.26297 -0.17376
 C176 C 0.69782 0.24795 -0.15929
 C177 C 0.71254 0.25127 -0.14443
 C178 C 0.72331 0.26900 -0.15103
 H179 H 0.68639 0.23550 -0.15953
 H180 H 0.73587 0.27670 -0.14324
 H181 H 0.69146 0.29692 -0.18986
 H182 H 0.70944 0.28343 -0.20844
 N183 N 0.17307 0.77352 0.27217
 N184 N 0.17774 0.78964 0.26032
 C185 C 0.16445 0.79016 0.24458
 C186 C 0.15077 0.77339 0.24665
 C187 C 0.15679 0.76319 0.26437
 H188 H 0.16458 0.80197 0.23263
 H189 H 0.14955 0.74956 0.27142
 Cu190 Cu 0.20003 0.80889 0.26743
 Cu191 Cu 0.18790 0.76732 0.29721
 Cu192 Cu 0.23052 0.79869 0.30756
 N193 N 0.22243 0.82777 0.27502
 N194 N 0.23403 0.82391 0.29096
 C195 C 0.24795 0.83951 0.29300
 C196 C 0.24502 0.85408 0.27743
 C197 C 0.22861 0.84596 0.26633
 H198 H 0.25937 0.84000 0.30493
 H199 H 0.22145 0.85280 0.25306
 N200 N 0.22142 0.77522 0.32552
 N201 N 0.20501 0.76349 0.32165
 C202 C 0.20257 0.74907 0.33668
 C203 C 0.21816 0.75177 0.35078
 C204 C 0.22984 0.76854 0.34317
 H205 H 0.19044 0.73729 0.33717
 H206 H 0.24333 0.77553 0.35007
 H207 H 0.19893 0.79714 0.30315
 H208 H 0.21539 0.78016 0.28632
 N209 N 0.47049 0.42078 0.47448
 N210 N 0.45769 0.42842 0.48852
 C211 C 0.45543 0.41476 0.50428
 C212 C 0.46762 0.39765 0.49993
 C213 C 0.47693 0.40207 0.48085
 H214 H 0.44586 0.41725 0.51798
 H215 H 0.48760 0.39241 0.47219
 Cu216 Cu 0.44534 0.45549 0.48492
 Cu217 Cu 0.47843 0.43595 0.44937
 Cu218 Cu 0.45531 0.48371 0.44190
 N219 N 0.42747 0.47807 0.47686
 N220 N 0.43123 0.48905 0.45997
 C221 C 0.41660 0.50376 0.45841
 C222 C 0.40288 0.50186 0.47526
 C223 C 0.41032 0.48531 0.48658
 H224 H 0.41616 0.51508 0.44603
 H225 H 0.40372 0.47883 0.50077
 N226 N 0.47601 0.47206 0.42229
 N227 N 0.48455 0.45377 0.42507
 C228 C 0.49816 0.45023 0.40942
 C229 C 0.49828 0.46708 0.39600
 C230 C 0.48396 0.48063 0.40470
 H231 H 0.50759 0.43653 0.40815
 H232 H 0.47969 0.49567 0.39879
 H233 H 0.47372 0.46526 0.46040
 H234 H 0.45103 0.45275 0.44788
 N235 N -0.03256 -0.08074 0.97041
 N236 N -0.04787 -0.07493 0.98283
 C237 C -0.05022 -0.08893 0.99830
 C238 C -0.03559 -0.10436 0.99543
 C239 C -0.02468 -0.09860 0.97752
 H240 H -0.06182 -0.08804 1.01064
 H241 H -0.01177 -0.10663 0.97029
 Cu242 Cu -0.06338 -0.04972 0.97759
 Cu243 Cu -0.02373 -0.06468 0.94607
 Cu244 Cu -0.05143 -0.02023 0.93576
 N245 N -0.07938 -0.02518 0.97083
 N246 N -0.07451 -0.01375 0.95449
 C247 C -0.08810 0.00186 0.95309
 C248 C -0.10241 0.00022 0.96940
 C249 C -0.09633 -0.01717 0.98038
 H250 H -0.08761 0.01346 0.94095
 H251 H -0.10391 -0.02375 0.99406
 N252 N -0.02764 -0.02926 0.91852
 N253 N -0.01717 -0.04631 0.92224
 C254 C -0.00219 -0.04838 0.90744
 C255 C -0.00327 -0.03178 0.89380
 C256 C -0.01961 -0.02002 0.90136
 H257 H 0.00874 -0.06100 0.90670
 H258 H -0.02550 -0.00593 0.89464
 H259 H -0.03385 -0.03644 0.95672
 H260 H -0.05259 -0.05197 0.94137
 N261 N 1.03399 0.58355 0.96780
 N262 N 1.05032 0.57817 0.97832
 C263 C 1.05295 0.59176 0.99372
 C264 C 1.03746 0.60652 0.99278
 C265 C 1.02572 0.60075 0.97609
 H266 H 1.06538 0.59115 1.00461
 H267 H 1.01208 0.60840 0.97043
 Cu268 Cu 1.06673 0.55416 0.97047
 Cu269 Cu 1.02465 0.56794 0.94409
 Cu270 Cu 1.05346 0.52478 0.93032
 N271 N 1.08275 0.52987 0.96270
 N272 N 1.07751 0.51854 0.94687
 C273 C 1.09126 0.50311 0.94447
 C274 C 1.10598 0.50478 0.95962
 C275 C 1.10002 0.52196 0.97094
 H276 H 1.09055 0.49152 0.93256
 H277 H 1.10790 0.52846 0.98395
 N278 N 1.02863 0.53362 0.91549
 N279 N 1.01772 0.55010 0.92062
 C280 C 1.00200 0.55215 0.90743
 C281 C 1.00301 0.53617 0.89330
 C282 C 1.02012 0.52475 0.89895
 H283 H 0.99058 0.56432 0.90811
 H284 H 1.02613 0.51112 0.89138
 H285 H 1.03661 0.53982 0.95320
 H286 H 1.05346 0.55636 0.93565
 N287 N 0.53159 0.08180 0.46949
 N288 N 0.54780 0.07714 0.48051
 C289 C 0.55021 0.09156 0.49512
 C290 C 0.53470 0.10613 0.49327
 C291 C 0.52308 0.09938 0.47683
 H292 H 0.56228 0.09138 0.50640
 H293 H 0.50961 0.10679 0.47051
 Cu294 Cu 0.56437 0.05280 0.47472
 Cu295 Cu 0.52315 0.06474 0.44633
 Cu296 Cu 0.55300 0.02121 0.43576
 N297 N 0.58089 0.02842 0.46884
 N298 N 0.57659 0.01618 0.45340
 C299 C 0.59069 0.00085 0.45253
 C300 C 0.60452 0.00363 0.46837
 C301 C 0.59776 0.02130 0.47836
 H302 H 0.59079 -0.01143 0.44130
 H303 H 0.60488 0.02865 0.49135
 N304 N 0.52854 0.02892 0.41970
 N305 N 0.51723 0.04549 0.42358
 C306 C 0.50192 0.04653 0.40978
 C307 C 0.50361 0.02977 0.39663
 C308 C 0.52068 0.01899 0.40343
 H309 H 0.49033 0.05853 0.40940
 H310 H 0.52713 0.00507 0.39681
 H311 H 0.53507 0.03723 0.45717
 H312 H 0.55232 0.05309 0.43945
 N313 N -0.02904 0.08160 0.52858
 N314 N -0.04517 0.07616 0.51770
 C315 C -0.04756 0.09019 0.50247
 C316 C -0.03214 0.10530 0.50388
 C317 C -0.02068 0.09932 0.52070
 H318 H -0.05977 0.08962 0.49133
 H319 H -0.00713 0.10713 0.52663
 Cu320 Cu -0.06163 0.05145 0.52468
 Cu321 Cu -0.01995 0.06511 0.55196
 Cu322 Cu -0.04888 0.02060 0.56423
 N323 N -0.07771 0.02648 0.53160
 N324 N -0.07272 0.01454 0.54719
 C325 C -0.08650 -0.00133 0.54891
 C326 C -0.10094 0.00072 0.53353
 C327 C -0.09481 0.01858 0.52284
 H328 H -0.08600 -0.01346 0.56049
 H329 H -0.10246 0.02552 0.50989
 N330 N -0.02425 0.02937 0.57958
 N331 N -0.01328 0.04632 0.57499
 C332 C 0.00240 0.04804 0.58829
 C333 C 0.00129 0.03136 0.60193
 C334 C -0.01583 0.01987 0.59588
 H335 H 0.01386 0.06047 0.58798
 H336 H -0.02188 0.00572 0.60295
 H337 H -0.03171 0.03711 0.54196
 H338 H -0.04881 0.05242 0.55971
 N339 N 0.47420 0.58024 0.03050
 N340 N 0.45733 0.57671 0.01999
 C341 C 0.45593 0.59136 0.00515
 C342 C 0.47286 0.60482 0.00642
 C343 C 0.48412 0.59721 0.02273
 H344 H 0.44353 0.59213 -0.00575
 H345 H 0.49832 0.60366 0.02874
 Cu346 Cu 0.43868 0.55349 0.02688
 Cu347 Cu 0.48200 0.56279 0.05367
 Cu348 Cu 0.44950 0.52083 0.06569
 N349 N 0.42083 0.52961 0.03359
 N350 N 0.42512 0.51704 0.04892
 C351 C 0.41037 0.50207 0.05051
 C352 C 0.39601 0.50533 0.03531
 C353 C 0.40318 0.52296 0.02482
 H354 H 0.41028 0.48960 0.06176
 H355 H 0.39597 0.53050 0.01192
 N356 N 0.47485 0.52720 0.08089
 N357 N 0.48717 0.54328 0.07652
 C358 C 0.50284 0.54359 0.08995
 C359 C 0.50030 0.52683 0.10336
 C360 C 0.48238 0.51683 0.09711
 H361 H 0.51523 0.55510 0.08994
 H362 H 0.47511 0.50321 0.10415
 H363 H 0.46755 0.53625 0.04330
 H364 H 0.45223 0.55267 0.06165
 N365 N 0.52243 -0.07779 0.02629
 N366 N 0.54131 -0.07640 0.01800
 C367 C 0.54321 -0.09027 0.00272
 C368 C 0.52444 -0.10088 0.00123
 C369 C 0.51157 -0.09250 0.01640
 H370 H 0.55722 -0.09251 -0.00659
 H371 H 0.49578 -0.09732 0.02047
 Cu372 Cu 0.56188 -0.05690 0.02801
 Cu373 Cu 0.51417 -0.06181 0.05049
 Cu374 Cu 0.54831 -0.02296 0.06503
 N375 N 0.57844 -0.03216 0.03302
 N376 N 0.57329 -0.01903 0.04761
 C377 C 0.58750 -0.00349 0.04767
 C378 C 0.60232 -0.00701 0.03218
 C379 C 0.59600 -0.02539 0.02322
 H380 H 0.58689 0.00955 0.05802
 H381 H 0.60364 -0.03338 0.01059
 N382 N 0.52213 -0.02953 0.08041
 N383 N 0.50891 -0.04407 0.07465
 C384 C 0.49281 -0.04511 0.08840
 C385 C 0.49606 -0.03056 0.10361
 C386 C 0.51482 -0.02097 0.09798
 H387 H 0.48001 -0.05611 0.08774
 H388 H 0.52268 -0.00875 0.10615
 H389 H 0.53278 -0.03682 0.04114
 H390 H 0.54344 -0.05458 0.06121
 N391 N 1.03049 0.41935 0.52734
 N392 N 1.04914 0.42147 0.51867
 C393 C 1.05125 0.40762 0.50336
 C394 C 1.03281 0.39636 0.50227
 C395 C 1.01997 0.40426 0.51769
 H396 H 1.06508 0.40596 0.49365
 H397 H 1.00440 0.39893 0.52201
 Cu398 Cu 1.06885 0.44224 0.52799
 Cu399 Cu 1.02204 0.43496 0.55162
 Cu400 Cu 1.05402 0.47597 0.56495
 N401 N 1.08394 0.46805 0.53235
 N402 N 1.07834 0.48110 0.54685
 C403 C 1.09168 0.49741 0.54641
 C404 C 1.10637 0.49448 0.53066
 C405 C 1.10090 0.47564 0.52210
 H406 H 1.09061 0.51053 0.55664
 H407 H 1.10877 0.46786 0.50947
 N408 N 1.02858 0.46800 0.58103
 N409 N 1.01634 0.45243 0.57579
 C410 C 1.00076 0.45028 0.58996
 C411 C 1.00322 0.46523 0.60491
 C412 C 1.02102 0.47625 0.59868
 H413 H 0.98863 0.43854 0.58953
 H414 H 1.02825 0.48896 0.60668
 H415 H 1.03904 0.46095 0.54157
 H416 H 1.05122 0.44419 0.56162
 C417 C 0.34863 -0.01452 0.25939
 C418 C 0.36076 0.00358 0.25678
 C419 C 0.35110 0.02269 0.25378
 C420 C 0.32926 0.02390 0.25332
 C421 C 0.31724 0.00566 0.25621
 C422 C 0.32675 -0.01368 0.25908
 C423 C 0.38364 0.00231 0.25567
 C424 C 0.39367 -0.00193 0.23676
 C425 C 0.41548 -0.00315 0.23526
 C426 C 0.42715 -0.00017 0.25305
 C427 C 0.41728 0.00390 0.27220
 C428 C 0.39541 0.00526 0.27332
 H429 H 0.35631 -0.02930 0.26101
 H430 H 0.36066 0.03656 0.25158
 H431 H 0.38443 -0.00398 0.22317
 H432 H 0.38748 0.00821 0.28794
 H433 H 0.30041 0.00647 0.25579
 H434 H 0.44398 -0.00115 0.25199
 C435 C 0.15083 -0.02451 0.74457
 C436 C 0.13896 -0.00654 0.74685
 C437 C 0.14881 0.01249 0.75065
 C438 C 0.17055 0.01376 0.75226
 C439 C 0.18234 -0.00433 0.74992
 C440 C 0.17263 -0.02356 0.74615
 C441 C 0.11613 -0.00754 0.74573
 C442 C 0.10397 -0.01109 0.76370
 C443 C 0.08213 -0.01055 0.76313
 C444 C 0.07263 -0.00672 0.74421
 C445 C 0.08467 -0.00309 0.72608
 C446 C 0.10651 -0.00353 0.72701
 H447 H 0.14303 -0.03923 0.74197
 H448 H 0.13946 0.02630 0.75225
 H449 H 0.11159 -0.01352 0.77822
 H450 H 0.11608 -0.00069 0.71323
 H451 H 0.19912 -0.00348 0.75119
 H452 H 0.05579 -0.00615 0.74368
 C453 C 0.65142 0.48020 0.24333
 C454 C 0.63958 0.49814 0.24595
 C455 C 0.64953 0.51727 0.24893
 C456 C 0.67138 0.51867 0.24946
 C457 C 0.68312 0.50058 0.24673
 C458 C 0.67329 0.48124 0.24375
 C459 C 0.61668 0.49683 0.24647
 C460 C 0.60592 0.49326 0.26527
 C461 C 0.58403 0.49232 0.26611
 C462 C 0.57309 0.49495 0.24781
 C463 C 0.58373 0.49844 0.22884
 C464 C 0.60562 0.49945 0.22833
 H465 H 0.64353 0.46539 0.24148
 H466 H 0.64018 0.53104 0.25089
 H467 H 0.61463 0.49153 0.27925
 H468 H 0.61410 0.50200 0.21384
 H469 H 0.69996 0.50151 0.24721
 H470 H 0.55621 0.49421 0.24834
 C471 C 0.85026 0.48003 0.75424
 C472 C 0.86215 0.49834 0.75204
 C473 C 0.85227 0.51731 0.74891
 C474 C 0.83048 0.51816 0.74778
 C475 C 0.81868 0.49974 0.75019
 C476 C 0.82841 0.48057 0.75339
 C477 C 0.88505 0.49767 0.75224
 C478 C 0.89630 0.49225 0.73435
 C479 C 0.91820 0.49235 0.73401
 C480 C 0.92867 0.49773 0.75200
 C481 C 0.91753 0.50314 0.77010
 C482 C 0.89563 0.50316 0.77002
 H483 H 0.85809 0.46538 0.75629
 H484 H 0.86164 0.53136 0.74726
 H485 H 0.88792 0.48853 0.72055
 H486 H 0.88674 0.50719 0.78382
 H487 H 0.80186 0.50029 0.74936
 H488 H 0.94555 0.49782 0.75189
 C489 C 0.25287 0.35415 -0.02279
 C490 C 0.25091 0.36588 -0.00480
 C491 C 0.24860 0.35588 0.01439
 C492 C 0.24813 0.33413 0.01579
 C493 C 0.25043 0.32249 -0.00232
 C494 C 0.25275 0.33236 -0.02171
 C495 C 0.25120 0.38867 -0.00591
 C496 C 0.23347 0.39936 -0.01194
 C497 C 0.23329 0.42117 -0.01199
 C498 C 0.25133 0.43210 -0.00630
 C499 C 0.26925 0.42152 -0.00031
 C500 C 0.26898 0.39972 -0.00009
 H501 H 0.25433 0.36204 -0.03760
 H502 H 0.24714 0.36510 0.02823
 H503 H 0.21962 0.39064 -0.01589
 H504 H 0.28264 0.39125 0.00439
 H505 H 0.25021 0.30571 -0.00133
 H506 H 0.25134 0.44890 -0.00632
 C507 C 0.74160 0.14768 -0.01556
 C508 C 0.74725 0.13685 0.00219
 C509 C 0.75258 0.14775 0.01988
 C510 C 0.75222 0.16955 0.02004
 C511 C 0.74658 0.18028 0.00208
 C512 C 0.74132 0.16949 -0.01584
 C513 C 0.74819 0.11406 0.00207
 C514 C 0.76747 0.10433 -0.00046
 C515 C 0.76861 0.08259 -0.00113
 C516 C 0.75015 0.07074 0.00117
 C517 C 0.73070 0.08032 0.00384
 C518 C 0.72987 0.10209 0.00417
 H519 H 0.73797 0.13906 -0.02930
 H520 H 0.75672 0.13916 0.03358
 H521 H 0.78154 0.11375 -0.00196
 H522 H 0.71501 0.10979 0.00585
 H523 H 0.74638 0.19708 0.00202
 H524 H 0.75090 0.05397 0.00072
 C525 C 0.24801 0.64855 0.48023
 C526 C 0.25231 0.63819 0.49868
 C527 C 0.25571 0.64955 0.51661
 C528 C 0.25462 0.67132 0.51629
 C529 C 0.25047 0.68155 0.49763
 C530 C 0.24714 0.67032 0.47951
 C531 C 0.25270 0.61537 0.49932
 C532 C 0.27176 0.60499 0.49804
 C533 C 0.27220 0.58321 0.49857
 C534 C 0.25332 0.57200 0.50038
 C535 C 0.23411 0.58221 0.50163
 C536 C 0.23396 0.60400 0.50109
 H537 H 0.24558 0.63959 0.46643
 H538 H 0.25859 0.64136 0.53090
 H539 H 0.28618 0.61390 0.49679
 H540 H 0.21929 0.61216 0.50185
 H541 H 0.24962 0.69832 0.49725
 H542 H 0.25357 0.55520 0.50082
 C543 C 0.75018 0.85304 0.48071
 C544 C 0.74783 0.86435 0.49892
 C545 C 0.74424 0.85398 0.51775
 C546 C 0.74300 0.83222 0.51857
 C547 C 0.74548 0.82098 0.50022
 C548 C 0.74904 0.83125 0.48119
 C549 C 0.74930 0.88711 0.49839
 C550 C 0.73161 0.89889 0.49451
 C551 C 0.73270 0.92067 0.49488
 C552 C 0.75186 0.93045 0.49893
 C553 C 0.76970 0.91876 0.50287
 C554 C 0.76823 0.89701 0.50258
 H555 H 0.75271 0.86126 0.46619
 H556 H 0.74266 0.86289 0.53178
 H557 H 0.71692 0.89104 0.49182
 H558 H 0.78181 0.88770 0.50548
 H559 H 0.74460 0.80419 0.50076
 H560 H 0.75282 0.94723 0.49928
 C561 C -0.02056 0.25337 0.35247
 C562 C -0.00180 0.25233 0.36297
 C563 C 0.01713 0.25065 0.35190
 C564 C 0.01749 0.25000 0.33028
 C565 C -0.00140 0.25114 0.31988
 C566 C -0.02051 0.25281 0.33082
 C567 C -0.00192 0.25259 0.38562
 C568 C -0.00620 0.23430 0.39683
 C569 C -0.00550 0.23410 0.41845
 C570 C -0.00047 0.25254 0.42872
 C571 C 0.00346 0.27104 0.41759
 C572 C 0.00275 0.27095 0.39599
 H573 H -0.03515 0.25439 0.36119
 H574 H 0.03157 0.24998 0.36018
 H575 H -0.00965 0.22014 0.38863
 H576 H 0.00601 0.28509 0.38725
 H577 H -0.00122 0.25070 0.30319
 H578 H -0.00030 0.25268 0.44542
 C579 C -0.01617 0.74934 0.14497
 C580 C 0.00278 0.75005 0.13370
 C581 C 0.02166 0.75060 0.14408
 C582 C 0.02173 0.75058 0.16573
 C583 C 0.00262 0.74975 0.17685
 C584 C -0.01640 0.74905 0.16662
 C585 C 0.00280 0.75025 0.11101
 C586 C -0.00362 0.76797 0.10037
 C587 C -0.00365 0.76834 0.07872
 C588 C 0.00229 0.75048 0.06788
 C589 C 0.00848 0.73250 0.07839
 C590 C 0.00899 0.73264 0.10003
 H591 H -0.03070 0.74905 0.13683
 H592 H 0.03625 0.75102 0.13526
 H593 H -0.00807 0.78161 0.10900
 H594 H 0.01355 0.71888 0.10841
 H595 H 0.00256 0.74964 0.19355
 H596 H 0.00206 0.75056 0.05118
 C597 C 0.48229 0.24501 0.64622
 C598 C 0.50139 0.24795 0.63560
 C599 C 0.51985 0.24959 0.64656
 C600 C 0.51932 0.24834 0.66821
 C601 C 0.50003 0.24523 0.67869
 C602 C 0.48143 0.24341 0.66784
 C603 C 0.50192 0.24892 0.61294
 C604 C 0.49652 0.26725 0.60276
 C605 C 0.49623 0.26813 0.58111
 C606 C 0.50122 0.25025 0.56983
 C607 C 0.50655 0.23171 0.57988
 C608 C 0.50697 0.23126 0.60153
 H609 H 0.46812 0.24394 0.63755
 H610 H 0.53458 0.25161 0.63818
 H611 H 0.49283 0.28087 0.61175
 H612 H 0.51066 0.21703 0.60961
 H613 H 0.49950 0.24409 0.69536
 H614 H 0.50090 0.25074 0.55315
 C615 C 0.47808 0.75272 0.85293
 C616 C 0.49606 0.75063 0.86453
 C617 C 0.51526 0.74681 0.85461
 C618 C 0.51673 0.74515 0.83307
 C619 C 0.49863 0.74729 0.82158
 C620 C 0.47918 0.75090 0.83134
 C621 C 0.49493 0.75176 0.88716
 C622 C 0.49345 0.73342 0.89893
 C623 C 0.49423 0.73407 0.92054
 C624 C 0.49665 0.75335 0.93017
 C625 C 0.49810 0.77180 0.91852
 C626 C 0.49702 0.77093 0.89696
 H627 H 0.46323 0.75524 0.86080
 H628 H 0.52908 0.74532 0.86374
 H629 H 0.49225 0.71864 0.89119
 H630 H 0.49858 0.78504 0.88779
 H631 H 0.49966 0.74594 0.80495
 H632 H 0.49708 0.75409 0.94684
 C633 C 0.09490 0.24055 0.28444
 C634 C 0.10375 0.25607 0.27151
 C635 C 0.12224 0.25223 0.26055
 C636 C 0.13216 0.23303 0.26243
 C637 C 0.12310 0.21811 0.27595
 N638 N 0.10497 0.22219 0.28643
 C639 C 0.07501 0.24370 0.29603
 N640 N 0.07093 0.23239 0.31356
 C641 C 0.05289 0.23432 0.32484
 C642 C 0.03750 0.24811 0.31848
 C643 C 0.04132 0.25980 0.30040
 C644 C 0.05995 0.25762 0.28913
 H645 H 0.12877 0.26445 0.25075
 H646 H 0.13018 0.20312 0.27800
 H647 H 0.05043 0.22479 0.33854
 H648 H 0.02991 0.27069 0.29500
 H649 H 0.09673 0.27116 0.27003
 H650 H 0.06222 0.26646 0.27499
 C651 C 0.59414 0.72806 0.78976
 C652 C 0.60541 0.70967 0.79208
 C653 C 0.62342 0.70659 0.78001
 C654 C 0.63027 0.72167 0.76550
 C655 C 0.61847 0.73978 0.76362
 N656 N 0.60099 0.74241 0.77554
 C657 C 0.57461 0.73211 0.80168
 N658 N 0.56119 0.74635 0.79417
 C659 C 0.54284 0.75087 0.80396
 C660 C 0.53703 0.74082 0.82256
 C661 C 0.55079 0.72637 0.83081
 C662 C 0.56957 0.72201 0.82049
 H663 H 0.63177 0.69227 0.78198
 H664 H 0.62298 0.75188 0.75270
 H665 H 0.53289 0.76241 0.79724
 H666 H 0.54689 0.71821 0.84509
 H667 H 0.60026 0.69751 0.80269
 H668 H 0.57997 0.71102 0.82738
 C669 C 0.40605 0.75954 0.78220
 C670 C 0.39905 0.74487 0.76795
 C671 C 0.38163 0.74912 0.75628
 C672 C 0.37090 0.76778 0.75889
 C673 C 0.37811 0.78184 0.77357
 N674 N 0.39524 0.77745 0.78461
 C675 C 0.42476 0.75626 0.79479
 N676 N 0.42781 0.76872 0.81133
 C677 C 0.44477 0.76713 0.82336
 C678 C 0.46014 0.75240 0.81889
 C679 C 0.45728 0.73935 0.80197
 C680 C 0.43978 0.74128 0.78986
 H681 H 0.37641 0.73762 0.74546
 H682 H 0.37038 0.79645 0.77610
 H683 H 0.44644 0.77768 0.83611
 H684 H 0.46860 0.72760 0.79807
 H685 H 0.40657 0.73011 0.76587
 H686 H 0.43848 0.73134 0.77663
 C687 C -0.09592 0.26122 0.28532
 C688 C -0.10363 0.24640 0.27167
 C689 C -0.12087 0.25099 0.25991
 C690 C -0.13081 0.27027 0.26174
 C691 C -0.12311 0.28428 0.27633
 N692 N -0.10609 0.27951 0.28742
 C693 C -0.07686 0.25775 0.29726
 N694 N -0.07348 0.26955 0.31419
 C695 C -0.05594 0.26792 0.32540
 C696 C -0.04029 0.25396 0.31952
 C697 C -0.04349 0.24159 0.30219
 C698 C -0.06162 0.24346 0.29101
 H699 H -0.12625 0.23926 0.24944
 H700 H -0.13015 0.29924 0.27871
 H701 H -0.05400 0.27794 0.33852
 H702 H -0.03190 0.23050 0.29721
 H703 H -0.09662 0.23132 0.27003
 H704 H -0.06324 0.23418 0.27734
 C705 C -0.09308 0.74025 0.21435
 C706 C -0.10102 0.75515 0.22803
 C707 C -0.11907 0.75070 0.23978
 C708 C -0.12943 0.73151 0.23791
 C709 C -0.12131 0.71728 0.22362
 N710 N -0.10361 0.72193 0.21243
 C711 C -0.07356 0.74375 0.20200
 N712 N -0.07024 0.73240 0.18464
 C713 C -0.05242 0.73417 0.17290
 C714 C -0.03640 0.74779 0.17863
 C715 C -0.03947 0.75965 0.19646
 C716 C -0.05795 0.75768 0.20817
 H717 H -0.12490 0.76238 0.25023
 H718 H -0.12871 0.70233 0.22153
 H719 H -0.05057 0.72453 0.15942
 H720 H -0.02755 0.77042 0.20138
 H721 H -0.09360 0.77019 0.22958
 H722 H -0.05959 0.76658 0.22215
 C723 C 0.40433 0.22700 0.71325
 C724 C 0.39134 0.20970 0.71007
 C725 C 0.37318 0.20695 0.72212
 C726 C 0.36781 0.22120 0.73763
 C727 C 0.38154 0.23808 0.74057
 N728 N 0.39907 0.24048 0.72850
 C729 C 0.42381 0.23090 0.70089
 N730 N 0.43824 0.24443 0.70821
 C731 C 0.45654 0.24880 0.69795
 C732 C 0.46126 0.23930 0.67902
 C733 C 0.44648 0.22554 0.67102
 C734 C 0.42777 0.22139 0.68179
 H735 H 0.36359 0.19345 0.71921
 H736 H 0.37842 0.24954 0.75226
 H737 H 0.46729 0.25981 0.70452
 H738 H 0.44949 0.21773 0.65656
 H739 H 0.39513 0.19811 0.69869
 H740 H 0.41662 0.21102 0.67495
 C741 C 0.59375 0.25876 0.71518
 C742 C 0.60126 0.24404 0.72913
 C743 C 0.61837 0.24895 0.74102
 C744 C 0.62841 0.26844 0.73904
 C745 C 0.62090 0.28238 0.72419
 N746 N 0.60399 0.27730 0.71297
 C747 C 0.57488 0.25489 0.70296
 N748 N 0.57159 0.26697 0.68603
 C749 C 0.55429 0.26490 0.67450
 C750 C 0.53880 0.25013 0.67998
 C751 C 0.54191 0.23746 0.69730
 C752 C 0.55978 0.23983 0.70885
 H753 H 0.62360 0.23727 0.75169
 H754 H 0.62801 0.29751 0.72171
 H755 H 0.55242 0.27517 0.66140
 H756 H 0.53047 0.22573 0.70199
 H757 H 0.59423 0.22878 0.73089
 H758 H 0.56128 0.23026 0.72248
 C759 C 0.09757 0.75910 0.21062
 C760 C 0.10531 0.74406 0.22411
 C761 C 0.12281 0.74862 0.23561
 C762 C 0.13283 0.76805 0.23364
 C763 C 0.12507 0.78238 0.21940
 N764 N 0.10786 0.77764 0.20850
 C765 C 0.07838 0.75558 0.19885
 N766 N 0.07528 0.76718 0.18156
 C767 C 0.05766 0.76546 0.17047
 C768 C 0.04162 0.75166 0.17686
 C769 C 0.04450 0.73950 0.19458
 C770 C 0.06276 0.74141 0.20561
 H771 H 0.12846 0.73686 0.24599
 H772 H 0.13228 0.79752 0.21725
 H773 H 0.05595 0.77532 0.15704
 H774 H 0.03256 0.72858 0.19998
 H775 H 0.09812 0.72885 0.22577
 H776 H 0.06421 0.73231 0.21957
 C777 C 0.28594 0.09904 0.23336
 C778 C 0.28815 0.10920 0.21415
 C779 C 0.27619 0.12661 0.21006
 C780 C 0.26187 0.13400 0.22493
 C781 C 0.25991 0.12319 0.24382
 N782 N 0.27176 0.10626 0.24746
 C783 C 0.29801 0.08029 0.23850
 N784 N 0.29042 0.06717 0.25356
 C785 C 0.30028 0.04941 0.25884
 C786 C 0.31899 0.04390 0.24871
 C787 C 0.32737 0.05747 0.23350
 C788 C 0.31702 0.07565 0.22842
 H789 H 0.27810 0.13410 0.19513
 H790 H 0.24911 0.12817 0.25579
 H791 H 0.29345 0.03961 0.27092
 H792 H 0.34170 0.05381 0.22520
 H793 H 0.29864 0.10364 0.20217
 H794 H 0.32401 0.08589 0.21681
 C795 C 0.78718 0.59378 0.72987
 C796 C 0.78964 0.60487 0.71120
 C797 C 0.77747 0.62228 0.70768
 C798 C 0.76273 0.62870 0.72260
 C799 C 0.76070 0.61712 0.74102
 N800 N 0.77272 0.60021 0.74408
 C801 C 0.79918 0.57484 0.73433
 N802 N 0.79142 0.56116 0.74880
 C803 C 0.80121 0.54322 0.75354
 C804 C 0.82006 0.53812 0.74345
 C805 C 0.82859 0.55220 0.72880
 C806 C 0.81828 0.57055 0.72424
 H807 H 0.77948 0.63044 0.69311
 H808 H 0.74963 0.62140 0.75304
 H809 H 0.79427 0.53301 0.76522
 H810 H 0.84306 0.54886 0.72058
 H811 H 0.80040 0.60000 0.69914
 H812 H 0.82538 0.58120 0.71308
 C813 C 0.77848 0.40605 0.76480
 C814 C 0.76459 0.39813 0.75035
 C815 C 0.75254 0.38052 0.75528
 C816 C 0.75436 0.37053 0.77446
 C817 C 0.76881 0.37862 0.78825
 N818 N 0.78026 0.39590 0.78317
 C819 C 0.79129 0.42508 0.76080
 N820 N 0.80823 0.42862 0.77254
 C821 C 0.82043 0.44595 0.77026
 C822 C 0.81570 0.46120 0.75558
 C823 C 0.79831 0.45788 0.74330
 C824 C 0.78606 0.43996 0.74588
 H825 H 0.74195 0.37466 0.74395
 H826 H 0.77081 0.37149 0.80321
 H827 H 0.83353 0.44799 0.78025
 H828 H 0.79417 0.46913 0.73166
 H829 H 0.76310 0.40516 0.73528
 H830 H 0.77246 0.43821 0.73656
 C831 C 0.27793 -0.08943 0.26696
 C832 C 0.26276 -0.09583 0.25307
 C833 C 0.25187 -0.11446 0.25656
 C834 C 0.25606 -0.12710 0.27374
 C835 C 0.27167 -0.12025 0.28704
 N836 N 0.28194 -0.10194 0.28337
 C837 C 0.28999 -0.06969 0.26432
 N838 N 0.30724 -0.06673 0.27579
 C839 C 0.31914 -0.04913 0.27443
 C840 C 0.31387 -0.03300 0.26089
 C841 C 0.29610 -0.03566 0.24900
 C842 C 0.28409 -0.05381 0.25073
 H843 H 0.24035 -0.11887 0.24552
 H844 H 0.27573 -0.12919 0.30048
 H845 H 0.33254 -0.04767 0.28411
 H846 H 0.29155 -0.02379 0.23815
 H847 H 0.25936 -0.08692 0.23942
 H848 H 0.27030 -0.05502 0.24162
 C849 C 0.22206 -0.09720 0.73598
 C850 C 0.23912 -0.10269 0.74795
 C851 C 0.24992 -0.12087 0.74367
 C852 C 0.24396 -0.13384 0.72747
 C853 C 0.22685 -0.12769 0.71581
 N854 N 0.21658 -0.10991 0.72033
 C855 C 0.20968 -0.07813 0.73954
 N856 N 0.19337 -0.07437 0.72706
 C857 C 0.18124 -0.05731 0.72898
 C858 C 0.18532 -0.04257 0.74416
 C859 C 0.20192 -0.04612 0.75732
 C860 C 0.21410 -0.06377 0.75511
 H861 H 0.26294 -0.12457 0.75321
 H862 H 0.22143 -0.13688 0.70314
 H863 H 0.16869 -0.05511 0.71838
 H864 H 0.20540 -0.03530 0.76947
 H865 H 0.24433 -0.09333 0.76056
 H866 H 0.22670 -0.06581 0.76558
 C867 C 0.72205 0.40726 0.23338
 C868 C 0.73581 0.39948 0.24798
 C869 C 0.74736 0.38180 0.24350
 C870 C 0.74516 0.37165 0.22463
 C871 C 0.73087 0.37961 0.21067
 N872 N 0.71990 0.39695 0.21532
 C873 C 0.70970 0.42627 0.23694
 N874 N 0.69270 0.42962 0.22528
 C875 C 0.68080 0.44684 0.22727
 C876 C 0.68590 0.46216 0.24160
 C877 C 0.70338 0.45907 0.25374
 C878 C 0.71534 0.44128 0.25143
 H879 H 0.75784 0.37603 0.25495
 H880 H 0.72860 0.37235 0.19593
 H881 H 0.66761 0.44870 0.21740
 H882 H 0.70779 0.47038 0.26513
 H883 H 0.73755 0.40664 0.26285
 H884 H 0.72901 0.43968 0.26066
 C885 C 0.71502 0.59482 0.26749
 C886 C 0.71256 0.60512 0.28637
 C887 C 0.72448 0.62283 0.29011
 C888 C 0.73903 0.63036 0.27523
 C889 C 0.74126 0.61945 0.25667
 N890 N 0.72940 0.60221 0.25335
 C891 C 0.70295 0.57576 0.26282
 N892 N 0.71063 0.56256 0.24829
 C893 C 0.70074 0.54452 0.24353
 C894 C 0.68189 0.53879 0.25369
 C895 C 0.67347 0.55239 0.26838
 C896 C 0.68382 0.57087 0.27290
 H897 H 0.72244 0.63036 0.30484
 H898 H 0.75226 0.62461 0.24474
 H899 H 0.70760 0.53470 0.23180
 H900 H 0.65904 0.54858 0.27669
 H901 H 0.70195 0.59942 0.29841
 H902 H 0.67675 0.58114 0.28407
 C903 C 0.21306 0.09053 0.77005
 C904 C 0.21055 0.10115 0.78873
 C905 C 0.22214 0.11921 0.79200
 C906 C 0.23636 0.12677 0.77680
 C907 C 0.23857 0.11553 0.75844
 N908 N 0.22709 0.09796 0.75561
 C909 C 0.20142 0.07112 0.76578
 N910 N 0.20942 0.05788 0.75147
 C911 C 0.19983 0.03966 0.74681
 C912 C 0.18093 0.03385 0.75678
 C913 C 0.17220 0.04743 0.77131
 C914 C 0.18232 0.06606 0.77581
 H915 H 0.22000 0.12705 0.80654
 H916 H 0.24933 0.12059 0.74626
 H917 H 0.20692 0.02982 0.73523
 H918 H 0.15768 0.04353 0.77942
 H919 H 0.20012 0.09548 0.80094
 H920 H 0.17504 0.07636 0.78684
 C921 C 0.23465 0.29165 0.09372
 C922 C 0.22495 0.30054 0.11113
 C923 C 0.22202 0.28876 0.12913
 C924 C 0.22889 0.26820 0.13004
 C925 C 0.23898 0.26004 0.11250
 N926 N 0.24152 0.27177 0.09505
 C927 C 0.23784 0.30325 0.07400
 N928 N 0.25225 0.29632 0.05996
 C929 C 0.25590 0.30590 0.04142
 C930 C 0.24466 0.32362 0.03606
 C931 C 0.22964 0.33095 0.05020
 C932 C 0.22610 0.32081 0.06907
 H933 H 0.21458 0.29592 0.14238
 H934 H 0.24457 0.24427 0.11247
 H935 H 0.26769 0.29978 0.03099
 H936 H 0.22028 0.34427 0.04647
 H937 H 0.21990 0.31647 0.11116
 H938 H 0.21395 0.32650 0.07931
 C939 C 0.72823 0.78796 0.59533
 C940 C 0.71836 0.79622 0.61298
 C941 C 0.71560 0.78390 0.63067
 C942 C 0.72278 0.76343 0.63101
 C943 C 0.73284 0.75586 0.61317
 N944 N 0.73525 0.76812 0.59609
 C945 C 0.73165 0.80011 0.57597
 N946 N 0.74591 0.79321 0.56177
 C947 C 0.74983 0.80317 0.54349
 C948 C 0.73903 0.82127 0.53854
 C949 C 0.72420 0.82864 0.55286
 C950 C 0.72038 0.81810 0.57150
 H951 H 0.70809 0.79058 0.64414
 H952 H 0.73859 0.74018 0.61261
 H953 H 0.76154 0.79705 0.53296
 H954 H 0.71523 0.84232 0.54947
 H955 H 0.71310 0.81208 0.61344
 H956 H 0.70842 0.82387 0.58192
 C957 C 0.76071 0.78468 0.40642
 C958 C 0.74554 0.77152 0.39813
 C959 C 0.75023 0.76044 0.38028
 C960 C 0.76991 0.76252 0.37046
 C961 C 0.78444 0.77627 0.37890
 N962 N 0.77956 0.78680 0.39642
 C963 C 0.75685 0.79645 0.42564
 N964 N 0.76899 0.81341 0.42938
 C965 C 0.76668 0.82481 0.44681
 C966 C 0.75151 0.81921 0.46191
 C967 C 0.73891 0.80171 0.45844
 C968 C 0.74155 0.79028 0.44044
 H969 H 0.73832 0.75041 0.37413
 H970 H 0.79980 0.77843 0.37188
 H971 H 0.77696 0.83800 0.44900
 H972 H 0.72692 0.79690 0.46962
 H973 H 0.73009 0.76989 0.40507
 H974 H 0.73194 0.77658 0.43849
 C975 C 0.26247 0.28413 -0.09570
 C976 C 0.24740 0.27004 -0.10266
 C977 C 0.25152 0.25858 -0.12038
 C978 C 0.27048 0.26120 -0.13142
 C979 C 0.28488 0.27590 -0.12435
 N980 N 0.28060 0.28677 -0.10689
 C981 C 0.25921 0.29629 -0.07661
 N982 N 0.27077 0.31388 -0.07398
 C983 C 0.26888 0.32568 -0.05678
 C984 C 0.25477 0.31986 -0.04076
 C985 C 0.24279 0.30173 -0.04310
 C986 C 0.24501 0.28988 -0.06087
 H987 H 0.23969 0.24784 -0.12549
 H988 H 0.29967 0.27849 -0.13239
 H989 H 0.27865 0.33939 -0.05549
 H990 H 0.23162 0.29673 -0.03121
 H991 H 0.23245 0.26797 -0.09480
 H992 H 0.23594 0.27571 -0.06190
 C993 C 0.72193 0.21497 -0.08983
 C994 C 0.70322 0.21288 -0.10043
 C995 C 0.70022 0.22467 -0.11821
 C996 C 0.71564 0.23876 -0.12547
 C997 C 0.73396 0.24067 -0.11425
 N998 N 0.73659 0.22890 -0.09702
 C999 C 0.72618 0.20282 -0.07088
 N1000 N 0.74168 0.20945 -0.05851
 C1001 C 0.74669 0.19920 -0.04095
 C1002 C 0.73588 0.18097 -0.03490
 C1003 C 0.71997 0.17373 -0.04750
 C1004 C 0.71513 0.18449 -0.06548
 H1005 H 0.68564 0.22292 -0.12605
 H1006 H 0.74630 0.25129 -0.11923
 H1007 H 0.75935 0.20515 -0.03194
 H1008 H 0.71115 0.15979 -0.04341
 H1009 H 0.69077 0.20260 -0.09502
 H1010 H 0.70311 0.17820 -0.07503
 C1011 C 0.22846 0.71524 0.40506
 C1012 C 0.20947 0.71339 0.39493
 C1013 C 0.20613 0.72532 0.37732
 C1014 C 0.22154 0.73926 0.36972
 C1015 C 0.24016 0.74093 0.38051
 N1016 N 0.24309 0.72908 0.39762
 C1017 C 0.23291 0.70302 0.42389
 N1018 N 0.24785 0.71009 0.43668
 C1019 C 0.25274 0.69991 0.45432
 C1020 C 0.24236 0.68133 0.46001
 C1021 C 0.22716 0.67355 0.44687
 C1022 C 0.22245 0.68426 0.42882
 H1023 H 0.19133 0.72373 0.36986
 H1024 H 0.25251 0.75144 0.37531
 H1025 H 0.26484 0.70628 0.46378
 H1026 H 0.21870 0.65933 0.45068
 H1027 H 0.19707 0.70319 0.40064
 H1028 H 0.21091 0.67767 0.41887
 C1029 C 0.26542 0.71712 0.59130
 C1030 C 0.24966 0.72885 0.60087
 C1031 C 0.25376 0.73940 0.61903
 C1032 C 0.27345 0.73826 0.62786
 C1033 C 0.28866 0.72606 0.61800
 N1034 N 0.28431 0.71597 0.60028
 C1035 C 0.26204 0.70569 0.57192
 N1036 N 0.27454 0.68938 0.56721
 C1037 C 0.27247 0.67820 0.54968
 C1038 C 0.25716 0.68335 0.53550
 C1039 C 0.24425 0.70024 0.53995
 C1040 C 0.24665 0.71146 0.55802
 H1041 H 0.24136 0.74824 0.62618
 H1042 H 0.30406 0.72464 0.62417
 H1043 H 0.28296 0.66548 0.54673
 H1044 H 0.23213 0.70467 0.52953
 H1045 H 0.23419 0.72966 0.59474
 H1046 H 0.23675 0.72465 0.56077
 C1047 C 0.77303 0.21546 0.09279
 C1048 C 0.79203 0.21391 0.10295
 C1049 C 0.79543 0.22579 0.12043
 C1050 C 0.78013 0.23943 0.12778
 C1051 C 0.76152 0.24084 0.11699
 N1052 N 0.75850 0.22899 0.10006
 C1053 C 0.76835 0.20318 0.07420
 N1054 N 0.75240 0.20926 0.06218
 C1055 C 0.74701 0.19887 0.04494
 C1056 C 0.75790 0.18108 0.03886
 C1057 C 0.77427 0.17441 0.05110
 C1058 C 0.77947 0.18528 0.06877
 H1059 H 0.81021 0.22447 0.12794
 H1060 H 0.74927 0.25112 0.12207
 H1061 H 0.73403 0.20437 0.03619
 H1062 H 0.78321 0.16085 0.04694
 H1063 H 0.80440 0.20401 0.09743
 H1064 H 0.79186 0.17940 0.07805
 C1065 C 0.47650 0.34338 0.53722
 C1066 C 0.45941 0.35629 0.54146
 C1067 C 0.45653 0.37401 0.52936
 C1068 C 0.47046 0.37891 0.51293
 C1069 C 0.48720 0.36556 0.50912
 N1070 N 0.48974 0.34848 0.52116
 C1071 C 0.48075 0.32423 0.54924
 N1072 N 0.49627 0.31168 0.54223
 C1073 C 0.50146 0.29387 0.55208
 C1074 C 0.49075 0.28763 0.57028
 C1075 C 0.47477 0.30034 0.57793
 C1076 C 0.46975 0.31862 0.56755
 H1077 H 0.44324 0.38369 0.53273
 H1078 H 0.49846 0.36872 0.49675
 H1079 H 0.51413 0.28476 0.54579
 H1080 H 0.46597 0.29605 0.59183
 H1081 H 0.44814 0.35288 0.55371
 H1082 H 0.45750 0.32805 0.57406
 C1083 C -0.02510 0.84212 0.03336
 C1084 C -0.03770 0.85817 0.04098
 C1085 C -0.04125 0.87554 0.02858
 C1086 C -0.03220 0.87714 0.00867
 C1087 C -0.01964 0.86081 0.00171
 N1088 N -0.01645 0.84405 0.01403
 C1089 C -0.02031 0.82335 0.04570
 N1090 N -0.00397 0.81147 0.03940
 C1091 C 0.00155 0.79397 0.04961
 C1092 C -0.00966 0.78739 0.06740
 C1093 C -0.02665 0.79928 0.07417
 C1094 C -0.03209 0.81717 0.06336
 H1095 H -0.05079 0.88784 0.03479
 H1096 H -0.01239 0.86121 -0.01353
 H1097 H 0.01489 0.78539 0.04395
 H1098 H -0.03595 0.79454 0.08761
 H1099 H -0.04445 0.85772 0.05642
 H1100 H -0.04557 0.82567 0.06868
 C1101 C 0.02797 0.65912 0.03177
 C1102 C 0.04129 0.64321 0.03800
 C1103 C 0.04444 0.62610 0.02527
 C1104 C 0.03428 0.62462 0.00643
 C1105 C 0.02096 0.64074 0.00089
 N1106 N 0.01822 0.65726 0.01348
 C1107 C 0.02368 0.67773 0.04446
 N1108 N 0.00720 0.68975 0.03951
 C1109 C 0.00212 0.70716 0.05004
 C1110 C 0.01398 0.71352 0.06677
 C1111 C 0.03108 0.70145 0.07218
 C1112 C 0.03606 0.68365 0.06104
 H1113 H 0.05460 0.61393 0.03040
 H1114 H 0.01285 0.64041 -0.01349
 H1115 H -0.01134 0.71587 0.04549
 H1116 H 0.04083 0.70600 0.08478
 H1117 H 0.04898 0.64358 0.05260
 H1118 H 0.04965 0.67503 0.06529
 C1119 C 0.52503 0.15934 0.53133
 C1120 C 0.54435 0.14931 0.53121
 C1121 C 0.54746 0.13207 0.51876
 C1122 C 0.53152 0.12475 0.50620
 C1123 C 0.51262 0.13548 0.50639
 N1124 N 0.50989 0.15221 0.51877
 C1125 C 0.52077 0.17769 0.54435
 N1126 N 0.50495 0.19049 0.53924
 C1127 C 0.50011 0.20767 0.55031
 C1128 C 0.51150 0.21286 0.56777
 C1129 C 0.52766 0.19972 0.57351
 C1130 C 0.53228 0.18214 0.56195
 H1131 H 0.56251 0.12468 0.51882
 H1132 H 0.49989 0.13046 0.49696
 H1133 H 0.48724 0.21712 0.54556
 H1134 H 0.53690 0.20314 0.58682
 H1135 H 0.55714 0.15482 0.54027
 H1136 H 0.54455 0.17213 0.56704
 C1137 C -0.02270 0.15906 0.46527
 C1138 C -0.03488 0.14236 0.45839
 C1139 C -0.03796 0.12488 0.47099
 C1140 C -0.02879 0.12376 0.49035
 C1141 C -0.01640 0.14058 0.49651
 N1142 N -0.01375 0.15753 0.48402
 C1143 C -0.01887 0.17816 0.45271
 N1144 N -0.00288 0.19108 0.45776
 C1145 C 0.00165 0.20894 0.44716
 C1146 C -0.01027 0.21473 0.43027
 C1147 C -0.02695 0.20179 0.42488
 C1148 C -0.03139 0.18362 0.43608
 H1149 H -0.04729 0.11214 0.46537
 H1150 H -0.00903 0.14046 0.51131
 H1151 H 0.01471 0.21843 0.45177
 H1152 H -0.03681 0.20593 0.41223
 H1153 H -0.04175 0.14243 0.44336
 H1154 H -0.04471 0.17434 0.43185
 C1155 C 0.48582 0.65935 0.96972
 C1156 C 0.50118 0.65159 0.98266
 C1157 C 0.49699 0.63379 0.99454
 C1158 C 0.47763 0.62352 0.99352
 C1159 C 0.46289 0.63152 0.98004
 N1160 N 0.46729 0.64895 0.96870
 C1161 C 0.48907 0.67845 0.95709
 N1162 N 0.47690 0.68152 0.94047
 C1163 C 0.47848 0.69889 0.92845
 C1164 C 0.49282 0.71468 0.93307
 C1165 C 0.50550 0.71188 0.95014
 C1166 C 0.50367 0.69388 0.96218
 H1167 H 0.50904 0.62806 1.00438
 H1168 H 0.44776 0.62420 0.97864
 H1169 H 0.46822 0.70053 0.91558
 H1170 H 0.51687 0.72361 0.95418
 H1171 H 0.51638 0.65890 0.98349
 H1172 H 0.51326 0.69244 0.97555
 C1173 C 0.51126 0.84757 0.96253
 C1174 C 0.49487 0.86028 0.96929
 C1175 C 0.49914 0.87720 0.98188
 C1176 C 0.51968 0.88164 0.98746
 C1177 C 0.53562 0.86873 0.98010
 N1178 N 0.53104 0.85212 0.96823
 C1179 C 0.50753 0.82864 0.95046
 N1180 N 0.51994 0.81198 0.95351
 C1181 C 0.51726 0.79384 0.94338
 C1182 C 0.50145 0.79179 0.92900
 C1183 C 0.48879 0.80890 0.92516
 C1184 C 0.49167 0.82733 0.93598
 H1185 H 0.48640 0.88679 0.98723
 H1186 H 0.55164 0.87145 0.98423
 H1187 H 0.52751 0.78104 0.94652
 H1188 H 0.47648 0.80785 0.91411
 H1189 H 0.47890 0.85684 0.96544
 H1190 H 0.48178 0.84042 0.93289
 C1191 C 0.01938 0.34520 0.46327
 C1192 C 0.00313 0.35807 0.47000
 C1193 C 0.00752 0.37485 0.48269
 C1194 C 0.02807 0.37900 0.48838
 C1195 C 0.04391 0.36593 0.48108
 N1196 N 0.03919 0.34942 0.46910
 C1197 C 0.01529 0.32663 0.45080
 N1198 N 0.02641 0.30914 0.45424
 C1199 C 0.02300 0.29131 0.44376
 C1200 C 0.00782 0.29052 0.42861
 C1201 C -0.00346 0.30850 0.42444
 C1202 C 0.00012 0.32655 0.43560
 H1203 H -0.00512 0.38459 0.48799
 H1204 H 0.05992 0.36849 0.48533
 H1205 H 0.03216 0.27777 0.44719
 H1206 H -0.01530 0.30844 0.41285
 H1207 H -0.01286 0.35490 0.46599
 H1208 H -0.00874 0.34031 0.43226
 C1209 C 0.34850 0.53767 0.48902
 C1210 C 0.35676 0.52483 0.50431
 C1211 C 0.37452 0.51330 0.49984
 C1212 C 0.38431 0.51457 0.48024
 C1213 C 0.37592 0.52805 0.46557
 N1214 N 0.35848 0.53904 0.47025
 C1215 C 0.32917 0.54961 0.49265
 N1216 N 0.32565 0.56666 0.48071
 C1217 C 0.30792 0.57793 0.48268
 C1218 C 0.29224 0.57199 0.49714
 C1219 C 0.29559 0.55454 0.50964
 C1220 C 0.31392 0.54331 0.50744
 H1221 H 0.38060 0.50354 0.51186
 H1222 H 0.38293 0.52963 0.45028
 H1223 H 0.30585 0.59115 0.47257
 H1224 H 0.28394 0.54949 0.52106
 H1225 H 0.34981 0.52379 0.51966
 H1226 H 0.31572 0.52955 0.51685
 C1227 C 0.84480 0.03882 -0.01842
 C1228 C 0.85608 0.04094 -0.03719
 C1229 C 0.87332 0.02847 -0.04106
 C1230 C 0.87942 0.01374 -0.02639
 C1231 C 0.86766 0.01203 -0.00786
 N1232 N 0.85089 0.02436 -0.00444
 C1233 C 0.82591 0.05113 -0.01377
 N1234 N 0.81178 0.04371 0.00060
 C1235 C 0.79370 0.05365 0.00521
 C1236 C 0.78889 0.07225 -0.00497
 C1237 C 0.80349 0.08047 -0.01943
 C1238 C 0.82200 0.07006 -0.02379
 H1239 H 0.88156 0.03021 -0.05574
 H1240 H 0.87171 0.00096 0.00395
 H1241 H 0.78310 0.04697 0.01678
 H1242 H 0.80041 0.09472 -0.02772
 H1243 H 0.85145 0.05164 -0.04911
 H1244 H 0.83302 0.07692 -0.03484
 C1245 C 0.65641 0.02998 0.01626
 C1246 C 0.64908 0.01526 0.00225
 C1247 C 0.63145 0.00325 0.00743
 C1248 C 0.62086 0.00595 0.02641
 C1249 C 0.62837 0.02117 0.03976
 N1250 N 0.64570 0.03257 0.03445
 C1251 C 0.67539 0.04285 0.01197
 N1252 N 0.67840 0.06032 0.02323
 C1253 C 0.69565 0.07265 0.02068
 C1254 C 0.71137 0.06752 0.00621
 C1255 C 0.70859 0.04960 -0.00558
 C1256 C 0.69076 0.03722 -0.00272
 H1257 H 0.62602 -0.00796 -0.00357
 H1258 H 0.62075 0.02384 0.05455
 H1259 H 0.69727 0.08617 0.03030
 H1260 H 0.72023 0.04513 -0.01704
 H1261 H 0.65656 0.01310 -0.01269
 H1262 H 0.68945 0.02321 -0.01164
 C1263 C 0.15911 0.53295 0.51372
 C1264 C 0.15182 0.51812 0.49981
 C1265 C 0.13454 0.50573 0.50528
 C1266 C 0.12425 0.50816 0.52445
 C1267 C 0.13156 0.52366 0.53761
 N1268 N 0.14859 0.53540 0.53204
 C1269 C 0.17806 0.54582 0.50925
 N1270 N 0.18097 0.56361 0.52005
 C1271 C 0.19837 0.57574 0.51750
 C1272 C 0.21438 0.56998 0.50361
 C1273 C 0.21165 0.55180 0.49222
 C1274 C 0.19363 0.53968 0.49501
 H1275 H 0.12920 0.49436 0.49439
 H1276 H 0.12411 0.52617 0.55252
 H1277 H 0.19994 0.58952 0.52676
 H1278 H 0.22354 0.54685 0.48122
 H1279 H 0.15915 0.51608 0.48478
 H1280 H 0.19238 0.52541 0.48649
 C1281 C 0.15928 0.46668 -0.03108
 C1282 C 0.14861 0.46541 -0.04968
 C1283 C 0.13116 0.47770 -0.05265
 C1284 C 0.12432 0.49142 -0.03727
 C1285 C 0.13549 0.49231 -0.01898
 N1286 N 0.15239 0.48015 -0.01643
 C1287 C 0.17814 0.45439 -0.02694
 N1288 N 0.19046 0.46040 -0.01125
 C1289 C 0.20802 0.45013 -0.00628
 C1290 C 0.21416 0.43254 -0.01738
 C1291 C 0.20159 0.42587 -0.03347
 C1292 C 0.18359 0.43667 -0.03827
 H1293 H 0.12330 0.47666 -0.06715
 H1294 H 0.13082 0.50254 -0.00663
 H1295 H 0.21697 0.45558 0.00654
 H1296 H 0.20576 0.41240 -0.04247
 H1297 H 0.15376 0.45546 -0.06207
 H1298 H 0.17407 0.43089 -0.05050
 C1299 C 0.65852 0.96831 0.48232
 C1300 C 0.64961 0.98128 0.49735
 C1301 C 0.63194 0.99261 0.49283
 C1302 C 0.62285 0.99097 0.47346
 C1303 C 0.63178 0.97731 0.45911
 N1304 N 0.64917 0.96654 0.46380
 C1305 C 0.67770 0.95640 0.48608
 N1306 N 0.68186 0.93942 0.47440
 C1307 C 0.69919 0.92781 0.47689
 C1308 C 0.71373 0.93319 0.49180
 C1309 C 0.70985 0.95075 0.50386
 C1310 C 0.69201 0.96241 0.50101
 H1311 H 0.62532 1.00251 0.50462
 H1312 H 0.62527 0.97547 0.44401
 H1313 H 0.70172 0.91455 0.46705
 H1314 H 0.72053 0.95538 0.51568
 H1315 H 0.65595 0.98258 0.51257
 H1316 H 0.68977 0.97613 0.51023
 C1317 C 0.84560 0.96239 0.52221
 C1318 C 0.85607 0.96018 0.54085
 C1319 C 0.87362 0.97250 0.54445
 C1320 C 0.88075 0.98716 0.52968
 C1321 C 0.86983 0.98890 0.51128
 N1322 N 0.85280 0.97672 0.50812
 C1323 C 0.82650 0.95030 0.51758
 N1324 N 0.81410 0.95736 0.50239
 C1325 C 0.79614 0.94751 0.49730
 C1326 C 0.78965 0.92930 0.50778
 C1327 C 0.80237 0.92150 0.52325
 C1328 C 0.82079 0.93186 0.52814
 H1329 H 0.88130 0.97077 0.55900
 H1330 H 0.87474 0.99986 0.49935
 H1331 H 0.78704 0.95386 0.48500
 H1332 H 0.79792 0.90757 0.53182
 H1333 H 0.85064 0.94951 0.55284
 H1334 H 0.83036 0.92527 0.53993
 C1335 C 0.34201 0.46823 0.02301
 C1336 C 0.35151 0.46651 0.04222
 C1337 C 0.36909 0.47862 0.04619
 C1338 C 0.37718 0.49262 0.03125
 C1339 C 0.36701 0.49419 0.01243
 N1340 N 0.34998 0.48212 0.00885
 C1341 C 0.32339 0.45572 0.01770
 N1342 N 0.31187 0.46197 0.00150
 C1343 C 0.29465 0.45139 -0.00450
 C1344 C 0.28809 0.43321 0.00599
 C1345 C 0.29983 0.42635 0.02262
 C1346 C 0.31748 0.43744 0.02845
 H1347 H 0.37611 0.47715 0.06110
 H1348 H 0.37267 0.50474 0.00043
 H1349 H 0.28629 0.45706 -0.01764
 H1350 H 0.29528 0.41249 0.03126
 H1351 H 0.34541 0.45629 0.05428
 H1352 H 0.32639 0.43145 0.04104
 C1353 C 0.53683 0.47624 0.34154
 C1354 C 0.53728 0.45725 0.35227
 C1355 C 0.52466 0.45426 0.36990
 C1356 C 0.51146 0.47006 0.37697
 C1357 C 0.51123 0.48871 0.36558
 N1358 N 0.52368 0.49125 0.34841
 C1359 C 0.54972 0.48020 0.32258
 N1360 N 0.54343 0.49480 0.30886
 C1361 C 0.55419 0.49907 0.29096
 C1362 C 0.57255 0.48836 0.28596
 C1363 C 0.57958 0.47357 0.30008
 C1364 C 0.56829 0.46948 0.31838
 H1365 H 0.52527 0.43947 0.37782
 H1366 H 0.50129 0.50134 0.37025
 H1367 H 0.54842 0.51089 0.28069
 H1368 H 0.59363 0.46492 0.29683
 H1369 H 0.54690 0.44460 0.34700
 H1370 H 0.57423 0.45820 0.32910
 C1371 C 0.03313 -0.02028 0.83846
 C1372 C 0.02123 -0.00428 0.84716
 C1373 C 0.00955 -0.00801 0.86526
 C1374 C 0.00973 -0.02758 0.87492
 C1375 C 0.02231 -0.04299 0.86607
 N1376 N 0.03348 -0.03902 0.84832
 C1377 C 0.04540 -0.01728 0.81896
 N1378 N 0.06204 -0.02970 0.81501
 C1379 C 0.07396 -0.02787 0.79740
 C1380 C 0.06924 -0.01295 0.78238
 C1381 C 0.05203 -0.00016 0.78605
 C1382 C 0.04007 -0.00231 0.80420
 H1383 H 0.00054 0.00456 0.87170
 H1384 H 0.02302 -0.05829 0.87297
 H1385 H 0.08694 -0.03822 0.79506
 H1386 H 0.04793 0.01168 0.77497
 H1387 H 0.02108 0.01109 0.84033
 H1388 H 0.02663 0.00748 0.80636
 C1389 C 0.04072 0.01807 0.65262
 C1390 C 0.04248 0.03740 0.64247
 C1391 C 0.02976 0.04168 0.62586
 C1392 C 0.01520 0.02686 0.61932
 C1393 C 0.01395 0.00775 0.62990
 N1394 N 0.02647 0.00396 0.64604
 C1395 C 0.05308 0.01276 0.67087
 N1396 N 0.04601 -0.00285 0.68362
 C1397 C 0.05600 -0.00842 0.70098
 C1398 C 0.07434 0.00199 0.70649
 C1399 C 0.08223 0.01780 0.69333
 C1400 C 0.07173 0.02318 0.67552
 H1401 H 0.03115 0.05675 0.61845
 H1402 H 0.00309 -0.00424 0.62546
 H1403 H 0.04957 -0.02096 0.71047
 H1404 H 0.09628 0.02630 0.69703
 H1405 H 0.05307 0.04937 0.64750
 H1406 H 0.07830 0.03529 0.66560
 C1407 C 0.53677 0.51096 0.15537
 C1408 C 0.52346 0.49601 0.14691
 C1409 C 0.51176 0.50114 0.12985
 C1410 C 0.51337 0.52105 0.12096
 C1411 C 0.52737 0.53533 0.12942
 N1412 N 0.53848 0.53002 0.14620
 C1413 C 0.54890 0.50670 0.17403
 N1414 N 0.56595 0.51874 0.17779
 C1415 C 0.57748 0.51619 0.19489
 C1416 C 0.57187 0.50092 0.20966
 C1417 C 0.55436 0.48834 0.20611
 C1418 C 0.54283 0.49120 0.18843
 H1419 H 0.50158 0.48943 0.12358
 H1420 H 0.52919 0.55084 0.12307
 H1421 H 0.59071 0.52641 0.19716
 H1422 H 0.54956 0.47627 0.21702
 H1423 H 0.52214 0.48042 0.15315
 H1424 H 0.52906 0.48165 0.18648
 C1425 C 0.45852 -0.02006 0.15811
 C1426 C 0.45001 -0.03094 0.14156
 C1427 C 0.46222 -0.03433 0.12380
 C1428 C 0.48282 -0.02676 0.12227
 C1429 C 0.49058 -0.01562 0.13897
 N1430 N 0.47845 -0.01265 0.15616
 C1431 C 0.44661 -0.01608 0.17759
 N1432 N 0.45406 -0.00147 0.19062
 C1433 C 0.44442 0.00295 0.20894
 C1434 C 0.42607 -0.00766 0.21520
 C1435 C 0.41811 -0.02284 0.20209
 C1436 C 0.42833 -0.02718 0.18338
 H1437 H 0.45540 -0.04267 0.11120
 H1438 H 0.50635 -0.00951 0.13860
 H1439 H 0.45102 0.01490 0.21850
 H1440 H 0.40421 -0.03169 0.20651
 H1441 H 0.43409 -0.03659 0.14200
 H1442 H 0.42209 -0.03939 0.17396
 C1443 C 0.96532 0.47401 0.65949
 C1444 C 0.96378 0.45535 0.64857
 C1445 C 0.97606 0.45256 0.63077
 C1446 C 0.99007 0.46816 0.62380
 C1447 C 0.99139 0.48644 0.63531
 N1448 N 0.97917 0.48886 0.65256
 C1449 C 0.95274 0.47799 0.67854
 N1450 N 0.95894 0.49350 0.69120
 C1451 C 0.94830 0.49827 0.70889
 C1452 C 0.93011 0.48716 0.71480
 C1453 C 0.92331 0.47122 0.70192
 C1454 C 0.93447 0.46665 0.68380
 H1455 H 0.97476 0.43801 0.62271
 H1456 H 1.00192 0.49892 0.63057
 H1457 H 0.95391 0.51096 0.71813
 H1458 H 0.90942 0.46219 0.70590
 H1459 H 0.95359 0.44278 0.65375
 H1460 H 0.92851 0.45458 0.67403
 C1461 C 0.96360 0.52457 0.84221
 C1462 C 0.96255 0.54373 0.85234
 C1463 C 0.97525 0.54746 0.86910
 C1464 C 0.98912 0.53228 0.87578
 C1465 C 0.98970 0.51338 0.86520
 N1466 N 0.97719 0.51011 0.84895
 C1467 C 0.95101 0.51965 0.82399
 N1468 N 0.95704 0.50357 0.81183
 C1469 C 0.94660 0.49800 0.79476
 C1470 C 0.92882 0.50885 0.78897
 C1471 C 0.92208 0.52528 0.80144
 C1472 C 0.93306 0.53070 0.81895
 H1473 H 0.97441 0.56239 0.87654
 H1474 H 1.00000 0.50112 0.86977
 H1475 H 0.95212 0.48497 0.78584
 H1476 H 0.90849 0.53413 0.79752
 H1477 H 0.95251 0.55598 0.84724
 H1478 H 0.92728 0.54322 0.82838
 C1479 C 0.46646 0.01550 0.34451
 C1480 C 0.47922 0.00021 0.35294
 C1481 C 0.49119 0.00484 0.36997
 C1482 C 0.49042 0.02459 0.37887
 C1483 C 0.47701 0.03926 0.37037
 N1484 N 0.46560 0.03443 0.35364
 C1485 C 0.45389 0.01168 0.32601
 N1486 N 0.43724 0.02399 0.32240
 C1487 C 0.42523 0.02168 0.30557
 C1488 C 0.42987 0.00636 0.29095
 C1489 C 0.44700 -0.00644 0.29433
 C1490 C 0.45905 -0.00381 0.31170
 H1491 H 0.50089 -0.00717 0.37621
 H1492 H 0.47582 0.05467 0.37670
 H1493 H 0.41233 0.03208 0.30344
 H1494 H 0.45107 -0.01856 0.28355
 H1495 H 0.47986 -0.01529 0.34674
 H1496 H 0.47247 -0.01357 0.31352
   
