data_POSCAR
  _audit_creation_date              2014-09-24
  _audit_creation_method            'ToBaCCo'
  _symmetry_space_group_name_H-M    'P1'
  _symmetry_Int_Tables_number       1
  _symmetry_cell_setting            triclinic
  loop_
  _symmetry_equiv_pos_as_xyz
 x,y,z
_cell_length_a 47.1385
_cell_length_b 47.1090
_cell_length_c 32.8496
_cell_angle_alpha 90.108400
_cell_angle_beta 90.362100
_cell_angle_gamma 89.913100
loop_
  _atom_site_label
  _atom_site_type_symbol
  _atom_site_fract_x
  _atom_site_fract_y
  _atom_site_fract_z
Zr1 Zr -0.05096 0.00236 0.00100
 O2 O -0.08442 -0.01891 -0.02966
 O3 O -0.07327 0.02772 0.04246
 O4 O -0.07298 -0.02550 0.03991
 O5 O -0.04268 0.05411 -0.07244
 O6 O -0.03790 -0.05163 0.06984
 O7 O -0.07553 0.03028 -0.03503
 O8 O -0.03820 0.05020 0.07801
 O9 O -0.02530 0.00003 0.05319
 O10 O -0.02636 0.03925 0.00159
 O11 O -0.02717 -0.03514 -0.00569
 O12 O -0.02923 0.00264 -0.05508
 Zr13 Zr 0.04781 0.00015 -0.00814
 Zr14 Zr 0.00001 -0.03608 0.04500
 Zr15 Zr -0.00313 0.03864 -0.05210
 Zr16 Zr 0.00019 0.03618 0.05201
 O17 O -0.00461 0.03712 -0.11645
 O18 O 0.00248 0.02668 0.11502
 O19 O 0.02436 0.03807 -0.00156
 O20 O 0.02579 0.00003 0.04739
 O21 O 0.02355 -0.03700 -0.00875
 O22 O 0.02181 0.00249 -0.05982
 C23 C -0.06451 0.04514 0.06998
 C24 C -0.06842 0.04887 -0.06185
 C25 C -0.06419 -0.04537 0.06383
 O26 O 0.00385 -0.03465 0.10917
 O27 O 0.03932 -0.05372 0.06237
 O28 O 0.07206 -0.03002 0.02450
 C29 C 0.06492 -0.04894 0.05080
 O30 O -0.04232 -0.04731 -0.08545
 Zr31 Zr -0.00335 -0.03364 -0.05913
 O32 O 0.07012 -0.02559 -0.04894
 O33 O -0.00191 -0.08059 0.03668
 O34 O -0.00521 -0.07841 -0.05291
 O35 O -0.00270 -0.02626 -0.12279
 O36 O 0.03512 -0.05072 -0.08069
 C37 C 0.06140 -0.04504 -0.07348
 O38 O 0.08123 0.02011 0.02433
 O39 O -0.00351 0.08325 -0.04426
 O40 O 0.07008 0.02931 -0.04485
 O41 O 0.03500 0.05640 -0.07303
 O42 O -0.00078 0.08110 0.04785
 O43 O 0.03887 0.05376 0.07403
 C44 C 0.06131 0.05001 -0.06733
 H45 H -0.03773 0.05689 0.00312
 H46 H 0.03908 -0.00063 0.07083
 H47 H 0.03271 0.00351 -0.08545
 H48 H -0.03963 -0.05202 -0.00674
 H49 H -0.00218 0.04431 0.13008
 H50 H 0.00331 -0.05456 0.11882
 H51 H -0.00031 -0.08926 0.06407
 H52 H -0.00122 -0.08682 -0.07996
 H53 H -0.00447 0.08867 0.07550
 H54 H -0.00515 0.09171 -0.07178
 H55 H -0.00407 0.05704 -0.12604
 H56 H 0.00150 -0.04465 -0.13620
 H57 H 0.03511 0.06524 0.09871
 H58 H 0.09928 0.01324 0.01245
 H59 H -0.10249 -0.01198 -0.01787
 H60 H -0.03856 -0.06230 -0.10590
 Zr61 Zr 0.54782 0.50023 0.49212
 O62 O 0.58120 0.52031 0.52452
 O63 O 0.57020 0.47434 0.45156
 O64 O 0.57204 0.47022 0.52512
 O65 O 0.53508 0.55630 0.42685
 O66 O 0.53926 0.44666 0.56310
 O67 O 0.57012 0.52930 0.45532
 O68 O 0.53524 0.44910 0.41991
 O69 O 0.52358 0.46306 0.49176
 O70 O 0.52189 0.50235 0.44035
 O71 O 0.52572 0.50032 0.54759
 O72 O 0.52434 0.53816 0.49832
 Zr73 Zr 0.44904 0.50241 0.50097
 Zr74 Zr 0.49996 0.46419 0.54544
 Zr75 Zr 0.49692 0.53853 0.44770
 Zr76 Zr 0.49675 0.46621 0.44129
 O77 O 0.49642 0.58317 0.45517
 O78 O 0.49493 0.42147 0.44787
 O79 O 0.47085 0.50250 0.44496
 O80 O 0.47285 0.46490 0.49468
 O81 O 0.47464 0.50033 0.55325
 O82 O 0.47361 0.53933 0.50132
 C83 C 0.56151 0.45482 0.42712
 C84 C 0.56138 0.54995 0.43274
 C85 C 0.56488 0.45142 0.55158
 O86 O 0.49806 0.41965 0.53748
 O87 O 0.46203 0.44878 0.57040
 O88 O 0.42697 0.47477 0.54016
 C89 C 0.43574 0.45504 0.56434
 O90 O 0.53875 0.55420 0.57375
 Zr91 Zr 0.50011 0.53648 0.55183
 O92 O 0.42666 0.52792 0.54217
 O93 O 0.50374 0.46587 0.60961
 O94 O 0.50238 0.52727 0.61492
 O95 O 0.49905 0.58138 0.54729
 O96 O 0.46167 0.55051 0.57768
 C97 C 0.43538 0.54540 0.56963
 O98 O 0.41564 0.48096 0.47044
 O99 O 0.49560 0.53676 0.38336
 O100 O 0.42450 0.53013 0.46458
 O101 O 0.45738 0.55384 0.42707
 O102 O 0.49744 0.47334 0.37757
 O103 O 0.45781 0.45241 0.41499
 C104 C 0.43162 0.54859 0.43760
 H105 H 0.53282 0.50330 0.41476
 H106 H 0.46039 0.44801 0.49375
 H107 H 0.46221 0.55696 0.50267
 H108 H 0.53898 0.49977 0.57107
 H109 H 0.49895 0.41296 0.42090
 H110 H 0.49962 0.41110 0.56494
 H111 H 0.50319 0.44600 0.61943
 H112 H 0.49770 0.54496 0.62983
 H113 H 0.50165 0.45490 0.36431
 H114 H 0.49612 0.55664 0.37362
 H115 H 0.49484 0.59152 0.42758
 H116 H 0.49532 0.58905 0.57486
 H117 H 0.46160 0.43733 0.39470
 H118 H 0.39754 0.48793 0.48211
 H119 H 0.59928 0.51340 0.51273
 H120 H 0.53495 0.56581 0.59828
 Zr121 Zr 0.55098 -0.00135 0.49582
 O122 O 0.58308 0.02041 0.46364
 O123 O 0.57496 -0.02772 0.53436
 O124 O 0.57470 0.02588 0.53400
 O125 O 0.54002 -0.05059 0.41900
 O126 O 0.54108 0.05013 0.56970
 O127 O 0.57401 -0.02883 0.45774
 O128 O 0.54131 -0.05176 0.56986
 O129 O 0.52761 -0.00068 0.54980
 O130 O 0.52639 -0.03822 0.49547
 O131 O 0.52703 0.03629 0.49319
 O132 O 0.52709 0.00013 0.44121
 Zr133 Zr 0.45196 0.00100 0.49349
 Zr134 Zr 0.50213 0.03566 0.54569
 Zr135 Zr 0.50119 -0.03600 0.44334
 Zr136 Zr 0.50197 -0.03674 0.54774
 O137 O 0.49969 -0.03229 0.37919
 O138 O 0.50247 -0.02919 0.61139
 O139 O 0.47577 -0.03698 0.49568
 O140 O 0.47635 -0.00048 0.54736
 O141 O 0.47624 0.03817 0.49378
 O142 O 0.47580 0.00025 0.43997
 C143 C 0.56727 -0.04630 0.56072
 C144 C 0.56605 -0.04619 0.42959
 C145 C 0.56702 0.04450 0.56054
 O146 O 0.50038 0.03233 0.60984
 O147 O 0.46367 0.05312 0.56597
 O148 O 0.42909 0.02960 0.53077
 C149 C 0.43749 0.04829 0.55698
 O150 O 0.53870 0.05109 0.41344
 Zr151 Zr 0.50095 0.03639 0.44143
 O152 O 0.42794 0.02795 0.45598
 O153 O 0.50433 0.08036 0.54040
 O154 O 0.50301 0.08092 0.45067
 O155 O 0.49768 0.03091 0.37748
 O156 O 0.46163 0.05399 0.42360
 C157 C 0.43566 0.04804 0.43206
 O158 O 0.41984 -0.02009 0.52650
 O159 O 0.50221 -0.08082 0.44773
 O160 O 0.42833 -0.02739 0.45659
 O161 O 0.46228 -0.05349 0.42438
 O162 O 0.50249 -0.08150 0.54059
 O163 O 0.46413 -0.05487 0.57099
 C164 C 0.43624 -0.04754 0.43250
 H165 H 0.53771 -0.05593 0.49511
 H166 H 0.46410 -0.00054 0.57174
 H167 H 0.46382 -0.00005 0.41512
 H168 H 0.53944 0.05321 0.49241
 H169 H 0.50766 -0.04729 0.62486
 H170 H 0.50144 0.05193 0.62078
 H171 H 0.50363 0.08818 0.56840
 H172 H 0.49788 0.09017 0.42456
 H173 H 0.50714 -0.08989 0.56747
 H174 H 0.50266 -0.08832 0.41954
 H175 H 0.49885 -0.05187 0.36819
 H176 H 0.49287 0.04965 0.36560
 H177 H 0.46878 -0.06687 0.59484
 H178 H 0.40133 -0.01289 0.51628
 H179 H 0.60164 0.01328 0.47379
 H180 H 0.53403 0.06665 0.39429
 Zr181 Zr -0.04814 0.50070 -0.00764
 O182 O -0.07935 0.47926 0.02667
 O183 O -0.07311 0.52786 -0.04372
 O184 O -0.07039 0.52905 0.03070
 O185 O -0.03909 0.44643 -0.07712
 O186 O -0.03528 0.55302 0.06413
 O187 O -0.07246 0.47239 -0.04385
 O188 O -0.04029 0.55398 -0.07743
 O189 O -0.02411 0.53803 -0.00847
 O190 O -0.02555 0.50014 -0.06220
 O191 O -0.02250 0.49937 0.04510
 O192 O -0.02403 0.46289 -0.00626
 Zr193 Zr 0.05091 0.49909 -0.01025
 Zr194 Zr 0.00289 0.53571 0.04221
 Zr195 Zr 0.00007 0.46403 -0.05980
 Zr196 Zr -0.00058 0.53641 -0.06192
 O197 O 0.00115 0.41922 -0.05522
 O198 O 0.00167 0.58096 -0.05300
 O199 O 0.02567 0.50029 -0.06354
 O200 O 0.02664 0.53655 -0.01144
 O201 O 0.02886 0.49964 0.04493
 O202 O 0.02663 0.46203 -0.00909
 C203 C -0.06612 0.54822 -0.06780
 C204 C -0.06509 0.45222 -0.06838
 C205 C -0.06161 0.54791 0.05636
 O206 O 0.00488 0.58041 0.03675
 O207 O 0.04226 0.55011 0.06473
 O208 O 0.07527 0.52614 0.02745
 C209 C 0.06803 0.54452 0.05460
 O210 O -0.03342 0.44468 0.06953
 Zr211 Zr 0.00355 0.46337 0.04443
 O212 O 0.07601 0.47223 0.02588
 O213 O 0.00238 0.53248 0.10643
 O214 O 0.00510 0.47115 0.10801
 O215 O 0.00471 0.41863 0.03733
 O216 O 0.04368 0.44927 0.06534
 C217 C 0.06923 0.45439 0.05374
 O218 O 0.08209 0.52149 -0.04337
 O219 O -0.00268 0.46757 -0.12389
 O220 O 0.07314 0.47241 -0.05060
 O221 O 0.03828 0.44928 -0.08545
 O222 O -0.00560 0.53106 -0.12569
 O223 O 0.03647 0.55105 -0.09182
 C224 C 0.06468 0.45423 -0.07746
 H225 H -0.03809 0.49980 -0.08649
 H226 H 0.03893 0.55354 -0.01271
 H227 H 0.03809 0.44442 -0.01006
 H228 H -0.03420 0.49923 0.07002
 H229 H -0.00405 0.59015 -0.07891
 H230 H 0.00473 0.58824 0.06478
 H231 H 0.00361 0.55209 0.11728
 H232 H 0.01087 0.45320 0.12141
 H233 H -0.01066 0.54983 -0.13722
 H234 H -0.00371 0.44796 -0.13476
 H235 H 0.00107 0.41163 -0.08339
 H236 H 0.01032 0.41038 0.06393
 H237 H 0.03135 0.56655 -0.11083
 H238 H 0.10092 0.51438 -0.03428
 H239 H -0.09812 0.48634 0.01733
 H240 H -0.02799 0.43255 0.09292
 Zr241 Zr 0.05011 0.50241 0.50079
 O242 O 0.08356 0.48115 0.53153
 O243 O 0.07238 0.52860 0.46053
 O244 O 0.07276 0.47519 0.46178
 O245 O 0.04148 0.55224 0.57712
 O246 O 0.03830 0.45021 0.42840
 O247 O 0.07424 0.53033 0.53691
 O248 O 0.03727 0.55197 0.42629
 O249 O 0.02487 0.50103 0.44818
 O250 O 0.02519 0.53911 0.50182
 O251 O 0.02680 0.46459 0.50549
 O252 O 0.02830 0.50125 0.55674
 Zr253 Zr -0.04853 0.49942 0.50878
 Zr254 Zr 0.00003 0.46452 0.45443
 Zr255 Zr 0.00197 0.53717 0.55540
 Zr256 Zr -0.00107 0.53693 0.45099
 O257 O 0.00307 0.53410 0.61964
 O258 O -0.00285 0.52876 0.38753
 O259 O -0.02532 0.53756 0.50453
 O260 O -0.02620 0.50045 0.45350
 O261 O -0.02389 0.46240 0.50782
 O262 O -0.02281 0.50075 0.56087
 C263 C 0.06358 0.54681 0.43416
 C264 C 0.06713 0.54785 0.56517
 C265 C 0.06445 0.45623 0.43607
 O266 O -0.00440 0.46719 0.39043
 O267 O -0.03894 0.44622 0.43747
 O268 O -0.07243 0.47027 0.47365
 C269 C -0.06479 0.45102 0.44794
 O270 O 0.04152 0.45063 0.58478
 Zr271 Zr 0.00263 0.46478 0.55868
 O272 O -0.07088 0.47262 0.54797
 O273 O 0.00323 0.41989 0.46028
 O274 O 0.00479 0.42019 0.55006
 O275 O 0.00164 0.47076 0.62266
 O276 O -0.03585 0.44710 0.57905
 C277 C -0.06215 0.45281 0.57184
 O278 O -0.08197 0.52003 0.47717
 O279 O 0.00214 0.58194 0.55003
 O280 O -0.07116 0.52779 0.54667
 O281 O -0.03637 0.55421 0.57682
 O282 O -0.00070 0.58176 0.45701
 O283 O -0.03996 0.55452 0.42973
 C284 C -0.06261 0.54795 0.57040
 H285 H 0.03631 0.55689 0.50119
 H286 H -0.03936 0.50013 0.42989
 H287 H -0.03386 0.50115 0.58640
 H288 H 0.03945 0.44780 0.50587
 H289 H 0.00161 0.54677 0.37343
 H290 H -0.00348 0.44750 0.37985
 H291 H 0.00151 0.41182 0.43249
 H292 H 0.00069 0.41114 0.57659
 H293 H 0.00277 0.58985 0.42966
 H294 H 0.00359 0.58972 0.57802
 H295 H 0.00246 0.55378 0.63031
 H296 H -0.00252 0.45209 0.63510
 H297 H -0.03638 0.56626 0.40533
 H298 H -0.10004 0.51283 0.48853
 H299 H 0.10167 0.48829 0.52024
 H300 H 0.03773 0.43512 0.60430
 Zr301 Zr 0.45146 -0.00051 0.00823
 O302 O 0.41806 0.02002 -0.02359
 O303 O 0.42903 -0.02732 0.04734
 O304 O 0.42765 -0.02968 -0.02696
 O305 O 0.46340 0.05451 0.07600
 O306 O 0.46122 -0.05377 -0.06294
 O307 O 0.42872 0.02797 0.04581
 O308 O 0.46401 -0.05282 0.07855
 O309 O 0.47611 -0.03751 0.00744
 O310 O 0.47703 0.00088 0.06046
 O311 O 0.47391 0.00049 -0.04695
 O312 O 0.47466 0.03763 0.00402
 Zr313 Zr 0.55010 0.00248 0.00069
 Zr314 Zr 0.50015 -0.03544 -0.04585
 Zr315 Zr 0.50182 0.03731 0.05504
 Zr316 Zr 0.50251 -0.03508 0.05842
 O317 O 0.50210 0.08207 0.04966
 O318 O 0.50478 -0.07967 0.04997
 O319 O 0.52817 0.00140 0.05655
 O320 O 0.52680 -0.03534 0.00534
 O321 O 0.52499 0.00107 -0.05204
 O322 O 0.52516 0.03918 0.00157
 C323 C 0.43773 -0.04716 0.07119
 C324 C 0.43718 0.04827 0.06936
 C325 C 0.43534 -0.04894 -0.05259
 O326 O 0.50338 -0.08006 -0.03988
 O327 O 0.53847 -0.04971 -0.07178
 O328 O 0.57285 -0.02467 -0.03834
 C329 C 0.56461 -0.04363 -0.06411
 O330 O 0.46019 0.05449 -0.07097
 Zr331 Zr 0.49904 0.03696 -0.04940
 O332 O 0.57245 0.02873 -0.03936
 O333 O 0.49581 -0.03284 -0.10987
 O334 O 0.49750 0.02872 -0.11285
 O335 O 0.49930 0.08180 -0.04344
 O336 O 0.53744 0.05209 -0.07380
 C337 C 0.56372 0.04697 -0.06570
 O338 O 0.58347 -0.01881 0.03156
 O339 O 0.50265 0.03427 0.11928
 O340 O 0.57414 0.03041 0.03692
 O341 O 0.54130 0.05236 0.07695
 O342 O 0.50131 -0.02905 0.12239
 O343 O 0.54137 -0.04912 0.08475
 C344 C 0.56698 0.04796 0.06512
 H345 H 0.46590 0.00132 0.08591
 H346 H 0.53947 -0.05211 0.00578
 H347 H 0.53628 0.05697 0.00100
 H348 H 0.46081 0.00014 -0.07062
 H349 H 0.50065 -0.08870 0.07651
 H350 H 0.50171 -0.08816 -0.06766
 H351 H 0.49676 -0.05254 -0.12041
 H352 H 0.50200 0.04672 -0.12696
 H353 H 0.49715 -0.04773 0.13483
 H354 H 0.50203 0.05395 0.12992
 H355 H 0.50346 0.08986 0.07765
 H356 H 0.50284 0.08988 -0.07078
 H357 H 0.53756 -0.06458 0.10433
 H358 H 0.60161 -0.01166 0.02036
 H359 H 0.39997 0.01283 -0.01230
 H360 H 0.46384 0.06617 -0.09540
 Zr361 Zr 0.45130 0.49660 0.00214
 O362 O 0.41991 0.51854 0.03574
 O363 O 0.42640 0.47097 -0.03635
 O364 O 0.42707 0.52410 -0.03506
 O365 O 0.46359 0.44543 0.07553
 O366 O 0.46038 0.54970 -0.06896
 O367 O 0.42886 0.46939 0.04120
 O368 O 0.45921 0.44784 -0.07486
 O369 O 0.47375 0.49827 -0.05258
 O370 O 0.47563 0.45950 -0.00023
 O371 O 0.47556 0.53395 0.00582
 O372 O 0.47633 0.49669 0.05579
 Zr373 Zr 0.55034 0.49802 0.00055
 Zr374 Zr 0.49955 0.53427 -0.04757
 Zr375 Zr 0.50199 0.46042 0.05090
 Zr376 Zr 0.49907 0.46191 -0.05339
 O377 O 0.50392 0.46263 0.11519
 O378 O 0.49746 0.47079 -0.11661
 O379 O 0.52633 0.46027 -0.00249
 O380 O 0.52496 0.49795 -0.05234
 O381 O 0.52634 0.53537 0.00335
 O382 O 0.52759 0.49640 0.05499
 C383 C 0.43347 0.45317 -0.06430
 C384 C 0.43733 0.45100 0.06759
 C385 C 0.43451 0.54364 -0.06022
 O386 O 0.50021 0.53236 -0.11190
 O387 O 0.53768 0.55232 -0.06779
 O388 O 0.57271 0.52739 -0.03571
 C389 C 0.56397 0.54713 -0.05991
 O390 O 0.46559 0.54742 0.08654
 Zr391 Zr 0.50265 0.53272 0.05653
 O392 O 0.57519 0.52443 0.03767
 O393 O 0.49754 0.57886 -0.04006
 O394 O 0.50117 0.57743 0.04932
 O395 O 0.50657 0.52559 0.12005
 O396 O 0.54249 0.54911 0.07455
 C397 C 0.56813 0.54354 0.06372
 O398 O 0.58160 0.47743 -0.03494
 O399 O 0.50138 0.41578 0.04377
 O400 O 0.57447 0.46868 0.03501
 O401 O 0.54118 0.44310 0.06933
 O402 O 0.49824 0.41703 -0.04847
 O403 O 0.53634 0.44395 -0.07894
 C404 C 0.56701 0.44895 0.05995
 H405 H 0.46414 0.44194 -0.00020
 H406 H 0.53675 0.49842 -0.07717
 H407 H 0.54001 0.49556 0.07937
 H408 H 0.46324 0.55093 0.00785
 H409 H 0.49197 0.45302 -0.13077
 H410 H 0.49909 0.55220 -0.12176
 H411 H 0.49782 0.58730 -0.06768
 H412 H 0.50691 0.58607 0.07563
 H413 H 0.49308 0.40929 -0.07560
 H414 H 0.50105 0.40756 0.07151
 H415 H 0.50484 0.44282 0.12519
 H416 H 0.51177 0.54393 0.13288
 H417 H 0.53116 0.43244 -0.10312
 H418 H 0.60036 0.48420 -0.02510
 H419 H 0.40114 0.51168 0.02607
 H420 H 0.47077 0.56269 0.10596
 Zr421 Zr 0.05042 -0.00178 0.50017
 O422 O 0.08180 -0.02229 0.46480
 O423 O 0.07514 0.02487 0.53713
 O424 O 0.07264 0.02757 0.46362
 O425 O 0.04149 -0.05671 0.56904
 O426 O 0.03745 0.05230 0.43159
 O427 O 0.07467 -0.03100 0.53471
 O428 O 0.04233 0.04938 0.57404
 O429 O 0.02624 0.03546 0.50297
 O430 O 0.02768 -0.00350 0.55462
 O431 O 0.02500 -0.00200 0.44731
 O432 O 0.02657 -0.03964 0.49719
 Zr433 Zr -0.04865 -0.00367 0.50186
 Zr434 Zr -0.00057 0.03419 0.45209
 Zr435 Zr 0.00222 -0.03960 0.55058
 Zr436 Zr 0.00257 0.03270 0.55618
 O437 O 0.00189 -0.08425 0.54348
 O438 O 0.00079 0.07740 0.54899
 O439 O -0.02359 -0.00345 0.55549
 O440 O -0.02454 0.03379 0.50550
 O441 O -0.02621 -0.00191 0.44713
 O442 O -0.02414 -0.04066 0.49946
 C443 C 0.06799 0.04398 0.56313
 C444 C 0.06729 -0.05075 0.55966
 C445 C 0.06377 0.04719 0.43930
 O446 O -0.00267 0.07878 0.45961
 O447 O -0.03982 0.04948 0.43079
 O448 O -0.07301 0.02379 0.46478
 C449 C -0.06565 0.04336 0.43960
 O450 O 0.03664 -0.05602 0.42087
 Zr451 Zr -0.00071 -0.03815 0.44631
 O452 O -0.07343 -0.02930 0.46322
 O453 O -0.00006 0.03227 0.38775
 O454 O -0.00225 -0.02932 0.38306
 O455 O -0.00145 -0.08303 0.45126
 O456 O -0.04051 -0.05228 0.42470
 C457 C -0.06627 -0.04700 0.43520
 O458 O -0.08011 0.01806 0.53558
 O459 O 0.00409 -0.03733 0.61487
 O460 O -0.07096 -0.03109 0.54080
 O461 O -0.03611 -0.05488 0.57514
 O462 O 0.00665 0.02561 0.61969
 O463 O -0.03454 0.04718 0.58626
 C464 C -0.06240 -0.04949 0.56714
 H465 H 0.04012 -0.00426 0.57899
 H466 H -0.03693 0.05071 0.50754
 H467 H -0.03555 -0.05827 0.49945
 H468 H 0.03677 -0.00151 0.42246
 H469 H 0.00649 0.08607 0.57529
 H470 H -0.00249 0.08722 0.43199
 H471 H -0.00125 0.05210 0.37788
 H472 H -0.00765 -0.04713 0.36892
 H473 H 0.01176 0.04398 0.63249
 H474 H 0.00512 -0.05714 0.62490
 H475 H 0.00160 -0.09247 0.57122
 H476 H -0.00658 -0.09079 0.42413
 H477 H -0.02942 0.06244 0.60573
 H478 H -0.09886 0.01113 0.52589
 H479 H 0.10052 -0.01541 0.47461
 H480 H 0.03153 -0.06760 0.39674
 Zr481 Zr 0.75181 0.19909 0.25469
 O482 O 0.72919 0.16656 0.28484
 O483 O 0.77900 0.17546 0.21721
 O484 O 0.72552 0.17586 0.21478
 O485 O 0.79964 0.20942 0.33343
 O486 O 0.70167 0.20976 0.17866
 O487 O 0.77783 0.17558 0.29470
 O488 O 0.80339 0.20948 0.18284
 O489 O 0.75217 0.22304 0.20101
 O490 O 0.78867 0.22361 0.25702
 O491 O 0.71415 0.22306 0.25570
 O492 O 0.74929 0.22244 0.30948
 Zr493 Zr 0.74948 0.29800 0.25845
 Zr494 Zr 0.71581 0.24858 0.20359
 Zr495 Zr 0.78542 0.24837 0.30931
 Zr496 Zr 0.78819 0.24862 0.20507
 O497 O 0.78057 0.24906 0.37328
 O498 O 0.78191 0.24896 0.14111
 O499 O 0.78748 0.27431 0.25749
 O500 O 0.75198 0.27433 0.20417
 O501 O 0.71234 0.27376 0.25590
 O502 O 0.74911 0.27363 0.31154
 C503 C 0.79783 0.18342 0.19146
 C504 C 0.79496 0.18339 0.32329
 C505 C 0.70725 0.18374 0.18776
 O506 O 0.72054 0.25073 0.13967
 O507 O 0.69900 0.28744 0.18267
 O508 O 0.72104 0.32120 0.22145
 C509 C 0.70326 0.31337 0.19367
 O510 O 0.69800 0.21031 0.33451
 Zr511 Zr 0.71303 0.24849 0.30789
 O512 O 0.72193 0.32163 0.29511
 O513 O 0.67103 0.24664 0.20673
 O514 O 0.66872 0.24640 0.29671
 O515 O 0.71712 0.25121 0.37211
 O516 O 0.69500 0.28761 0.32523
 C517 C 0.70119 0.31366 0.31757
 O518 O 0.77095 0.33044 0.22653
 O519 O 0.83028 0.24751 0.30687
 O520 O 0.77711 0.32135 0.29682
 O521 O 0.80244 0.28704 0.32984
 O522 O 0.83276 0.24780 0.21427
 O523 O 0.80688 0.28669 0.18337
 C524 C 0.79671 0.31318 0.32180
 H525 H 0.80630 0.21219 0.25808
 H526 H 0.75253 0.28693 0.18010
 H527 H 0.74893 0.28536 0.33659
 H528 H 0.69723 0.21065 0.25551
 H529 H 0.80024 0.24388 0.12839
 H530 H 0.70120 0.24983 0.12776
 H531 H 0.66381 0.24749 0.17836
 H532 H 0.65901 0.25118 0.32251
 H533 H 0.84164 0.24340 0.18771
 H534 H 0.83728 0.24676 0.33537
 H535 H 0.79993 0.24982 0.38515
 H536 H 0.69811 0.25580 0.38308
 H537 H 0.81940 0.28227 0.16012
 H538 H 0.76359 0.34886 0.23672
 H539 H 0.73659 0.14810 0.27485
 H540 H 0.68211 0.21469 0.35308
 Zr541 Zr 0.74792 0.80060 0.74982
 O542 O 0.76836 0.83367 0.78237
 O543 O 0.72332 0.82338 0.70766
 O544 O 0.77644 0.82325 0.71259
 O545 O 0.69557 0.79151 0.82201
 O546 O 0.80305 0.78851 0.68313
 O547 O 0.71884 0.82461 0.78410
 O548 O 0.70119 0.78870 0.67098
 O549 O 0.75122 0.77560 0.69731
 O550 O 0.71113 0.77589 0.74737
 O551 O 0.78531 0.77683 0.75788
 O552 O 0.74676 0.77819 0.80550
 Zr553 Zr 0.75020 0.70161 0.75713
 Zr554 Zr 0.78722 0.75032 0.70680
 Zr555 Zr 0.71088 0.75206 0.80069
 Zr556 Zr 0.71513 0.75000 0.69656
 O557 O 0.71133 0.75224 0.86510
 O558 O 0.72571 0.74874 0.63395
 O559 O 0.71240 0.72518 0.74959
 O560 O 0.75127 0.72446 0.70217
 O561 O 0.78725 0.72597 0.75995
 O562 O 0.74690 0.72695 0.80926
 C563 C 0.70613 0.81493 0.67961
 C564 C 0.70050 0.81729 0.81102
 C565 C 0.79670 0.81474 0.68932
 O566 O 0.78706 0.74679 0.64259
 O567 O 0.80580 0.71140 0.69059
 O568 O 0.78038 0.67770 0.72408
 C569 C 0.80047 0.68545 0.70005
 O570 O 0.79614 0.79079 0.83856
 Zr571 Zr 0.78294 0.75221 0.81069
 O572 O 0.77545 0.67876 0.79840
 O573 O 0.83154 0.75275 0.71696
 O574 O 0.82777 0.75426 0.80632
 O575 O 0.77432 0.75072 0.87394
 O576 O 0.79974 0.71345 0.83215
 C577 C 0.79435 0.68722 0.82408
 O578 O 0.73063 0.66853 0.72350
 O579 O 0.66644 0.75294 0.79115
 O580 O 0.72047 0.67891 0.79218
 O581 O 0.69265 0.71356 0.81967
 O582 O 0.67017 0.75059 0.69886
 O583 O 0.69822 0.71148 0.67299
 C584 C 0.69926 0.68733 0.81373
 H585 H 0.69348 0.78721 0.74536
 H586 H 0.75244 0.71153 0.67844
 H587 H 0.74546 0.71568 0.83457
 H588 H 0.80211 0.78935 0.75990
 H589 H 0.70831 0.75349 0.61828
 H590 H 0.80714 0.74755 0.63388
 H591 H 0.84073 0.75128 0.68998
 H592 H 0.83574 0.74987 0.83358
 H593 H 0.66305 0.75453 0.67098
 H594 H 0.65759 0.75417 0.81838
 H595 H 0.69126 0.75171 0.87386
 H596 H 0.79240 0.74624 0.88810
 H597 H 0.68724 0.71549 0.64785
 H598 H 0.73733 0.65031 0.73527
 H599 H 0.76167 0.85189 0.77059
 H600 H 0.81073 0.78671 0.85959
 Zr601 Zr 0.25128 0.29989 0.74697
 O602 O 0.23064 0.33180 0.71237
 O603 O 0.27567 0.32424 0.78788
 O604 O 0.22238 0.32358 0.78239
 O605 O 0.30506 0.28844 0.67775
 O606 O 0.19529 0.28978 0.81282
 O607 O 0.27993 0.32283 0.71065
 O608 O 0.29696 0.29085 0.82785
 O609 O 0.24745 0.27667 0.80094
 O610 O 0.28819 0.27548 0.75211
 O611 O 0.21419 0.27559 0.73943
 O612 O 0.25329 0.27548 0.69293
 Zr613 Zr 0.24995 0.20065 0.74621
 Zr614 Zr 0.21177 0.25088 0.79216
 Zr615 Zr 0.28930 0.24979 0.70054
 Zr616 Zr 0.28371 0.25130 0.80442
 O617 O 0.28970 0.24817 0.63618
 O618 O 0.27225 0.25216 0.86672
 O619 O 0.28742 0.22468 0.75323
 O620 O 0.24786 0.22539 0.79952
 O621 O 0.21273 0.22467 0.74075
 O622 O 0.25365 0.22417 0.69256
 C623 C 0.29234 0.31675 0.81716
 C624 C 0.29926 0.31462 0.68567
 C625 C 0.20178 0.31580 0.80545
 O626 O 0.21107 0.24958 0.85652
 O627 O 0.19328 0.21240 0.81033
 O628 O 0.21961 0.17775 0.78007
 C629 C 0.19903 0.18619 0.80283
 O630 O 0.20407 0.28653 0.65771
 Zr631 Zr 0.21740 0.24909 0.68840
 O632 O 0.22473 0.17632 0.70685
 O633 O 0.16758 0.25271 0.78064
 O634 O 0.17251 0.25076 0.69167
 O635 O 0.22701 0.24573 0.62559
 O636 O 0.20145 0.20943 0.66857
 C637 C 0.20649 0.18365 0.67959
 O638 O 0.26966 0.16898 0.78230
 O639 O 0.33362 0.25086 0.71129
 O640 O 0.28003 0.17687 0.71264
 O641 O 0.30795 0.21091 0.68423
 O642 O 0.32868 0.25207 0.80329
 O643 O 0.30059 0.21376 0.83106
 C644 C 0.30142 0.18483 0.69113
 H645 H 0.30573 0.28696 0.75376
 H646 H 0.24648 0.21331 0.82405
 H647 H 0.25547 0.21206 0.66804
 H648 H 0.19732 0.28794 0.73618
 H649 H 0.28939 0.25750 0.88257
 H650 H 0.19087 0.25048 0.86459
 H651 H 0.15804 0.25206 0.80742
 H652 H 0.16491 0.24534 0.66456
 H653 H 0.33541 0.25702 0.83106
 H654 H 0.34287 0.25132 0.68429
 H655 H 0.30988 0.24732 0.62799
 H656 H 0.20921 0.24062 0.61114
 H657 H 0.31125 0.21873 0.85614
 H658 H 0.26321 0.15032 0.77167
 H659 H 0.23716 0.35042 0.72303
 H660 H 0.18967 0.28159 0.63680
 Zr661 Zr 0.24596 0.70062 0.25036
 O662 O 0.26819 0.66747 0.22077
 O663 O 0.21884 0.67797 0.28874
 O664 O 0.27183 0.67758 0.29141
 O665 O 0.19798 0.71006 0.17126
 O666 O 0.29660 0.71197 0.32504
 O667 O 0.21912 0.67687 0.21198
 O668 O 0.19473 0.71275 0.32227
 O669 O 0.24612 0.72547 0.30324
 O670 O 0.20930 0.72561 0.24752
 O671 O 0.28382 0.72401 0.24793
 O672 O 0.24832 0.72303 0.19479
 Zr673 Zr 0.24922 0.79943 0.24395
 Zr674 Zr 0.28272 0.75039 0.29922
 Zr675 Zr 0.21244 0.74946 0.19438
 Zr676 Zr 0.21029 0.75137 0.29883
 O677 O 0.21704 0.74890 0.13036
 O678 O 0.21689 0.75260 0.36271
 O679 O 0.21099 0.77620 0.24569
 O680 O 0.24681 0.77657 0.29875
 O681 O 0.28612 0.77474 0.24634
 O682 O 0.24899 0.77428 0.19136
 C683 C 0.20015 0.68650 0.31437
 C684 C 0.20227 0.68423 0.18284
 C685 C 0.29054 0.68581 0.31767
 O686 O 0.27858 0.75407 0.36309
 O687 O 0.30077 0.78912 0.31777
 O688 O 0.27782 0.82298 0.28057
 C689 C 0.29644 0.81508 0.30719
 O690 O 0.29936 0.70998 0.16911
 Zr691 Zr 0.28481 0.74867 0.19507
 O692 O 0.27679 0.82213 0.20624
 O693 O 0.32744 0.74732 0.29569
 O694 O 0.32916 0.74619 0.20580
 O695 O 0.28021 0.75043 0.13085
 O696 O 0.30309 0.78730 0.17641
 C697 C 0.29725 0.81356 0.18356
 O698 O 0.22838 0.83274 0.27524
 O699 O 0.16761 0.74938 0.19752
 O700 O 0.22114 0.82237 0.20601
 O701 O 0.19608 0.78816 0.17211
 O702 O 0.16565 0.75100 0.29034
 O703 O 0.19219 0.79012 0.31948
 C704 C 0.20188 0.81426 0.18049
 H705 H 0.19155 0.71443 0.24701
 H706 H 0.24663 0.78951 0.32254
 H707 H 0.24917 0.78566 0.16606
 H708 H 0.30058 0.71132 0.24831
 H709 H 0.19855 0.74805 0.37572
 H710 H 0.29801 0.75305 0.37470
 H711 H 0.33490 0.74869 0.32391
 H712 H 0.33877 0.75052 0.17980
 H713 H 0.15693 0.74729 0.31719
 H714 H 0.16046 0.74807 0.16914
 H715 H 0.19763 0.74956 0.11862
 H716 H 0.29914 0.75470 0.11945
 H717 H 0.17988 0.78633 0.34316
 H718 H 0.23579 0.85089 0.26435
 H719 H 0.26073 0.64925 0.23139
 H720 H 0.31518 0.71393 0.15027
 Zr721 Zr 0.24946 0.79810 0.75825
 O722 O 0.27092 0.83054 0.72631
 O723 O 0.22192 0.82175 0.79489
 O724 O 0.22103 0.82130 0.72123
 O725 O 0.30246 0.78717 0.82957
 O726 O 0.19894 0.78754 0.68252
 O727 O 0.27711 0.82146 0.79657
 O728 O 0.19499 0.78773 0.82504
 O729 O 0.21232 0.77386 0.75576
 O730 O 0.24912 0.77376 0.81136
 O731 O 0.25193 0.77443 0.70397
 O732 O 0.28746 0.77442 0.75725
 Zr733 Zr 0.25180 0.69920 0.75455
 Zr734 Zr 0.21575 0.74867 0.70346
 Zr735 Zr 0.28543 0.74850 0.80909
 Zr736 Zr 0.21305 0.74861 0.80777
 O737 O 0.33029 0.74765 0.80661
 O738 O 0.16872 0.74648 0.79666
 O739 O 0.24931 0.72256 0.80934
 O740 O 0.21414 0.72316 0.75559
 O741 O 0.25212 0.72315 0.70087
 O742 O 0.28866 0.72373 0.75680
 C743 C 0.20117 0.81378 0.81734
 C744 C 0.29673 0.81329 0.82152
 C745 C 0.20323 0.81347 0.69349
 O746 O 0.17098 0.74673 0.70668
 O747 O 0.20163 0.70984 0.67857
 O748 O 0.22552 0.67596 0.71468
 C749 C 0.20723 0.68382 0.68767
 O750 O 0.30682 0.78681 0.68317
 Zr751 Zr 0.28813 0.74873 0.70485
 O752 O 0.27894 0.67557 0.71702
 O753 O 0.22043 0.75080 0.63953
 O754 O 0.28182 0.74910 0.64089
 O755 O 0.33271 0.74786 0.71394
 O756 O 0.30327 0.70959 0.68255
 C757 C 0.29771 0.68353 0.69119
 O758 O 0.22921 0.66670 0.78478
 O759 O 0.28062 0.74919 0.87307
 O760 O 0.27789 0.67570 0.79450
 O761 O 0.29971 0.70956 0.83319
 O762 O 0.21716 0.75139 0.87198
 O763 O 0.19806 0.71044 0.83445
 C764 C 0.29505 0.68352 0.82305
 H765 H 0.24896 0.78549 0.83639
 H766 H 0.19721 0.71075 0.75543
 H767 H 0.30629 0.71231 0.75783
 H768 H 0.25246 0.78702 0.67989
 H769 H 0.15903 0.75126 0.82247
 H770 H 0.16374 0.74756 0.67831
 H771 H 0.20107 0.74990 0.62765
 H772 H 0.30014 0.74403 0.62815
 H773 H 0.19816 0.75597 0.88295
 H774 H 0.29998 0.74996 0.88491
 H775 H 0.33731 0.74691 0.83509
 H776 H 0.34155 0.74347 0.68736
 H777 H 0.18219 0.71482 0.85306
 H778 H 0.23660 0.64822 0.77479
 H779 H 0.26357 0.84896 0.73649
 H780 H 0.31932 0.78239 0.65989
 Zr781 Zr 0.24884 0.20192 0.25351
 O782 O 0.22894 0.16945 0.21906
 O783 O 0.27431 0.17841 0.29387
 O784 O 0.27888 0.17824 0.21991
 O785 O 0.19141 0.21339 0.31638
 O786 O 0.30460 0.21217 0.18740
 O787 O 0.21914 0.17891 0.28826
 O788 O 0.29851 0.21259 0.32876
 O789 O 0.28602 0.22603 0.25703
 O790 O 0.24568 0.22660 0.30630
 O791 O 0.25004 0.22551 0.19916
 O792 O 0.21121 0.22589 0.24645
 Zr793 Zr 0.24726 0.30097 0.24905
 Zr794 Zr 0.28619 0.25101 0.20453
 Zr795 Zr 0.20981 0.25201 0.29834
 Zr796 Zr 0.28186 0.25164 0.30847
 O797 O 0.16539 0.25321 0.28861
 O798 O 0.32671 0.25357 0.30435
 O799 O 0.24584 0.27785 0.30405
 O800 O 0.28448 0.27687 0.25633
 O801 O 0.25041 0.27675 0.19578
 O802 O 0.21028 0.27663 0.24574
 C803 C 0.29323 0.18650 0.31979
 C804 C 0.19797 0.18720 0.31000
 C805 C 0.29911 0.18615 0.19621
 O806 O 0.33052 0.25309 0.21475
 O807 O 0.30216 0.28940 0.18182
 O808 O 0.27583 0.32393 0.21228
 C809 C 0.29597 0.31558 0.18869
 O810 O 0.19675 0.21350 0.16951
 Zr811 Zr 0.21411 0.25150 0.19412
 O812 O 0.22263 0.32455 0.20803
 O813 O 0.28606 0.24821 0.14024
 O814 O 0.22483 0.25076 0.13154
 O815 O 0.16916 0.25267 0.19633
 O816 O 0.20081 0.29078 0.16918
 C817 C 0.20578 0.31680 0.17919
 O818 O 0.26805 0.33344 0.28242
 O819 O 0.21013 0.25138 0.36274
 O820 O 0.21846 0.32470 0.28419
 O821 O 0.19466 0.29123 0.32072
 O822 O 0.27325 0.24924 0.37166
 O823 O 0.29512 0.28983 0.33736
 C824 C 0.19992 0.31714 0.31067
 H825 H 0.24421 0.21500 0.33130
 H826 H 0.30136 0.28925 0.25867
 H827 H 0.19272 0.28812 0.24402
 H828 H 0.25114 0.21287 0.17511
 H829 H 0.33461 0.24888 0.33155
 H830 H 0.33970 0.25193 0.18773
 H831 H 0.30614 0.24901 0.13157
 H832 H 0.20755 0.25593 0.11590
 H833 H 0.29133 0.24459 0.38569
 H834 H 0.19005 0.25085 0.37142
 H835 H 0.15649 0.25414 0.31583
 H836 H 0.16216 0.25717 0.16857
 H837 H 0.30963 0.28545 0.35835
 H838 H 0.26146 0.35187 0.27121
 H839 H 0.23556 0.15103 0.23026
 H840 H 0.18576 0.21799 0.14455
 Zr841 Zr 0.75060 0.69998 0.24661
 O842 O 0.77039 0.66850 0.28294
 O843 O 0.72526 0.67541 0.20772
 O844 O 0.72033 0.67733 0.28093
 O845 O 0.80831 0.70992 0.18387
 O846 O 0.69416 0.71216 0.31109
 O847 O 0.78068 0.67602 0.21317
 O848 O 0.70169 0.70834 0.16946
 O849 O 0.71336 0.72403 0.24154
 O850 O 0.75393 0.72319 0.19263
 O851 O 0.74890 0.72502 0.29970
 O852 O 0.78812 0.72405 0.25276
 Zr853 Zr 0.75192 0.79917 0.24602
 Zr854 Zr 0.71278 0.75054 0.29273
 Zr855 Zr 0.78964 0.74886 0.19975
 Zr856 Zr 0.71763 0.74809 0.18878
 O857 O 0.83403 0.75009 0.20980
 O858 O 0.67276 0.74961 0.19277
 O859 O 0.75356 0.77447 0.19229
 O860 O 0.71475 0.77488 0.23957
 O861 O 0.74855 0.77633 0.30041
 O862 O 0.78888 0.77483 0.25103
 C863 C 0.70688 0.68262 0.18056
 C864 C 0.80198 0.68389 0.19136
 C865 C 0.69981 0.68590 0.30370
 O866 O 0.66854 0.75303 0.28196
 O867 O 0.69729 0.78966 0.31457
 O868 O 0.72293 0.82309 0.28075
 C869 C 0.70336 0.81556 0.30568
 O870 O 0.80197 0.71354 0.33033
 Zr871 Zr 0.78478 0.75094 0.30369
 O872 O 0.77638 0.82379 0.28654
 O873 O 0.71255 0.74889 0.35708
 O874 O 0.77379 0.75201 0.36616
 O875 O 0.82974 0.75187 0.30197
 O876 O 0.79799 0.79063 0.32657
 C877 C 0.79320 0.81646 0.31575
 O878 O 0.73125 0.83086 0.21102
 O879 O 0.78955 0.74676 0.13541
 O880 O 0.78037 0.82191 0.20922
 O881 O 0.80528 0.78738 0.17627
 O882 O 0.72669 0.74448 0.12583
 O883 O 0.70398 0.78540 0.15804
 C884 C 0.79955 0.81360 0.18407
 H885 H 0.75562 0.71094 0.16825
 H886 H 0.69785 0.78721 0.23651
 H887 H 0.80641 0.78634 0.25234
 H888 H 0.74769 0.71303 0.32435
 H889 H 0.66497 0.74410 0.16580
 H890 H 0.65924 0.75242 0.30892
 H891 H 0.69243 0.75003 0.36552
 H892 H 0.79104 0.75746 0.38170
 H893 H 0.70876 0.73939 0.11171
 H894 H 0.80967 0.74591 0.12692
 H895 H 0.84309 0.75035 0.18266
 H896 H 0.83661 0.75696 0.32962
 H897 H 0.68937 0.78037 0.13747
 H898 H 0.73778 0.84957 0.22133
 H899 H 0.76389 0.64979 0.27257
 H900 H 0.81277 0.71862 0.35524
 Zr901 Zr 0.74907 0.30052 0.74636
 O902 O 0.72828 0.33389 0.77759
 O903 O 0.77663 0.32315 0.70849
 O904 O 0.77766 0.32414 0.78294
 O905 O 0.69572 0.28917 0.67486
 O906 O 0.80095 0.29028 0.81973
 O907 O 0.72092 0.32343 0.70845
 O908 O 0.80266 0.28823 0.67839
 O909 O 0.78596 0.27582 0.74847
 O910 O 0.74859 0.27529 0.69385
 O911 O 0.74690 0.27773 0.80124
 O912 O 0.71083 0.27731 0.74852
 Zr913 Zr 0.74579 0.20175 0.75302
 Zr914 Zr 0.78281 0.25153 0.80144
 Zr915 Zr 0.71203 0.25050 0.69726
 Zr916 Zr 0.78440 0.24966 0.69728
 O917 O 0.66723 0.25063 0.70081
 O918 O 0.82880 0.24713 0.70758
 O919 O 0.74790 0.22405 0.69735
 O920 O 0.78366 0.22508 0.75021
 O921 O 0.74621 0.22664 0.80586
 O922 O 0.70914 0.22676 0.75051
 C923 C 0.79695 0.31450 0.68561
 C924 C 0.70160 0.31529 0.68305
 C925 C 0.79646 0.31624 0.80930
 O926 O 0.82751 0.24845 0.79748
 O927 O 0.79678 0.21310 0.82719
 O928 O 0.77180 0.17872 0.79385
 C929 C 0.79064 0.18695 0.81992
 O930 O 0.69240 0.29133 0.82250
 Zr931 Zr 0.71037 0.25255 0.80174
 O932 O 0.71893 0.17915 0.79174
 O933 O 0.77898 0.25526 0.86536
 O934 O 0.71730 0.25380 0.86555
 O935 O 0.66569 0.25223 0.79374
 O936 O 0.69487 0.21393 0.82535
 C937 C 0.70031 0.18768 0.81745
 O938 O 0.76784 0.16859 0.72315
 O939 O 0.71638 0.24970 0.63321
 O940 O 0.71860 0.17794 0.71523
 O941 O 0.69726 0.21107 0.67460
 O942 O 0.77955 0.25140 0.63310
 O943 O 0.79877 0.21092 0.67127
 C944 C 0.70152 0.18527 0.68635
 H945 H 0.74870 0.28663 0.66850
 H946 H 0.80041 0.21238 0.75046
 H947 H 0.69136 0.21561 0.75024
 H948 H 0.74683 0.29068 0.82501
 H949 H 0.83830 0.25140 0.68147
 H950 H 0.83510 0.24980 0.82562
 H951 H 0.79847 0.25424 0.87676
 H952 H 0.69902 0.24926 0.87876
 H953 H 0.79844 0.25559 0.62152
 H954 H 0.69693 0.25037 0.62162
 H955 H 0.65994 0.24925 0.67251
 H956 H 0.65711 0.24856 0.82069
 H957 H 0.81451 0.21481 0.65226
 H958 H 0.76045 0.15039 0.73389
 H959 H 0.73566 0.35203 0.76661
 H960 H 0.68026 0.28759 0.84638
 C961 C 0.12526 0.40137 0.86825
 C962 C 0.13388 0.42352 0.89407
 C963 C 0.11381 0.44186 0.91123
 C964 C 0.08451 0.43857 0.90279
 C965 C 0.07636 0.41720 0.87482
 C966 C 0.09642 0.39884 0.85809
 C967 C 0.14581 0.37983 0.85363
 C968 C 0.17195 0.38771 0.83674
 C969 C 0.19053 0.36699 0.82161
 C970 C 0.18343 0.33801 0.82368
 C971 C 0.15760 0.33028 0.84177
 C972 C 0.13902 0.35091 0.85636
 H973 H 0.12136 0.45804 0.93213
 H974 H 0.05431 0.41386 0.86664
 H975 H 0.21026 0.37366 0.80793
 H976 H 0.15135 0.30823 0.84394
 H977 H 0.08930 0.38223 0.83761
 H978 H 0.17767 0.40990 0.83433
 H979 H 0.15602 0.42591 0.90234
 H980 H 0.11921 0.34423 0.86986
 C981 C 0.36649 0.60269 0.38757
 C982 C 0.39527 0.60815 0.38031
 C983 C 0.41621 0.59002 0.39540
 C984 C 0.40894 0.56606 0.41854
 C985 C 0.38002 0.56016 0.42495
 C986 C 0.35896 0.57822 0.40930
 C987 C 0.34483 0.62330 0.37342
 C988 C 0.32117 0.61458 0.35043
 C989 C 0.30270 0.63478 0.33343
 C990 C 0.30746 0.66399 0.33959
 C991 C 0.33032 0.67240 0.36455
 C992 C 0.34881 0.65232 0.38105
 H993 H 0.43819 0.59530 0.38978
 H994 H 0.37368 0.54186 0.44258
 H995 H 0.28525 0.62755 0.31449
 H996 H 0.33464 0.69463 0.37025
 H997 H 0.33687 0.57361 0.41526
 H998 H 0.31768 0.59227 0.34418
 H999 H 0.40159 0.62668 0.36315
 H1000 H 0.36667 0.65953 0.39922
 C1001 C 0.87454 0.89714 0.62249
 C1002 C 0.90358 0.89228 0.62941
 C1003 C 0.92395 0.91022 0.61269
 C1004 C 0.91579 0.93340 0.58836
 C1005 C 0.88665 0.93882 0.58257
 C1006 C 0.86622 0.92094 0.59966
 C1007 C 0.85332 0.87651 0.63755
 C1008 C 0.82860 0.88549 0.65756
 C1009 C 0.80965 0.86555 0.67360
 C1010 C 0.81496 0.83627 0.66945
 C1011 C 0.83920 0.82749 0.64802
 C1012 C 0.85814 0.84733 0.63243
 H1013 H 0.94614 0.90539 0.61795
 H1014 H 0.87959 0.95651 0.56408
 H1015 H 0.79118 0.87305 0.68987
 H1016 H 0.84403 0.80519 0.64401
 H1017 H 0.84397 0.92511 0.59379
 H1018 H 0.82439 0.90790 0.66187
 H1019 H 0.91056 0.87432 0.64743
 H1020 H 0.87674 0.83982 0.61647
 C1021 C 0.63182 0.10113 0.11655
 C1022 C 0.60819 0.09346 0.13989
 C1023 C 0.58713 0.07591 0.12342
 C1024 C 0.58976 0.06521 0.08370
 C1025 C 0.61383 0.07232 0.06080
 C1026 C 0.63452 0.09039 0.07693
 C1027 C 0.65303 0.12116 0.13307
 C1028 C 0.65933 0.14627 0.11205
 C1029 C 0.67761 0.16639 0.12926
 C1030 C 0.69038 0.16141 0.16735
 C1031 C 0.68494 0.13570 0.18751
 C1032 C 0.66617 0.11590 0.17073
 H1033 H 0.56878 0.07077 0.14165
 H1034 H 0.61624 0.06460 0.02992
 H1035 H 0.68142 0.18602 0.11309
 H1036 H 0.69429 0.13139 0.21707
 H1037 H 0.65260 0.09607 0.05849
 H1038 H 0.64930 0.15073 0.08300
 H1039 H 0.60566 0.10171 0.17046
 H1040 H 0.66164 0.09659 0.18731
 C1041 C 0.86990 0.09867 0.39093
 C1042 C 0.89875 0.10454 0.38524
 C1043 C 0.91948 0.08597 0.39971
 C1044 C 0.91189 0.06113 0.42067
 C1045 C 0.88292 0.05479 0.42536
 C1046 C 0.86207 0.07334 0.41030
 C1047 C 0.84846 0.11963 0.37737
 C1048 C 0.82549 0.11153 0.35259
 C1049 C 0.80733 0.13213 0.33609
 C1050 C 0.81168 0.16114 0.34451
 C1051 C 0.83383 0.16891 0.37113
 C1052 C 0.85205 0.14840 0.38718
 H1053 H 0.94152 0.09161 0.39542
 H1054 H 0.87637 0.03580 0.44126
 H1055 H 0.79043 0.12540 0.31580
 H1056 H 0.83780 0.19097 0.37846
 H1057 H 0.83990 0.06838 0.41492
 H1058 H 0.82235 0.08944 0.34459
 H1059 H 0.90530 0.12373 0.36980
 H1060 H 0.86943 0.15510 0.40668
 C1061 C 0.37428 0.39946 0.61872
 C1062 C 0.40344 0.39501 0.62471
 C1063 C 0.42322 0.41371 0.60841
 C1064 C 0.41437 0.43732 0.58540
 C1065 C 0.38509 0.44238 0.58064
 C1066 C 0.36522 0.42367 0.59734
 C1067 C 0.35373 0.37812 0.63362
 C1068 C 0.32940 0.38630 0.65515
 C1069 C 0.31124 0.36575 0.67136
 C1070 C 0.31694 0.33663 0.66591
 C1071 C 0.34079 0.32863 0.64306
 C1072 C 0.35898 0.34911 0.62726
 H1073 H 0.44554 0.40914 0.61297
 H1074 H 0.37752 0.46037 0.56318
 H1075 H 0.29305 0.37267 0.68875
 H1076 H 0.34587 0.30647 0.63811
 H1077 H 0.34282 0.42756 0.59231
 H1078 H 0.32492 0.40855 0.66052
 H1079 H 0.41099 0.37679 0.64171
 H1080 H 0.37735 0.34224 0.61021
 C1081 C 0.62690 0.90268 0.87965
 C1082 C 0.63272 0.91599 0.91701
 C1083 C 0.61295 0.93450 0.93432
 C1084 C 0.58669 0.93948 0.91506
 C1085 C 0.58109 0.92647 0.87731
 C1086 C 0.60118 0.90849 0.85953
 C1087 C 0.64694 0.88164 0.86272
 C1088 C 0.65741 0.88464 0.82307
 C1089 C 0.67563 0.86415 0.80677
 C1090 C 0.68309 0.83996 0.82949
 C1091 C 0.67261 0.83704 0.86919
 C1092 C 0.65498 0.85789 0.88584
 H1093 H 0.61776 0.94403 0.96358
 H1094 H 0.56104 0.92994 0.86181
 H1095 H 0.68320 0.86678 0.77593
 H1096 H 0.67803 0.81860 0.88732
 H1097 H 0.59626 0.89832 0.83075
 H1098 H 0.65144 0.90282 0.80478
 H1099 H 0.65247 0.91180 0.93295
 H1100 H 0.64697 0.85512 0.91641
 C1101 C 0.13101 0.59838 0.10950
 C1102 C 0.10668 0.59064 0.13124
 C1103 C 0.08653 0.57254 0.11377
 C1104 C 0.09064 0.56131 0.07459
 C1105 C 0.11555 0.56819 0.05348
 C1106 C 0.13541 0.58685 0.07060
 C1107 C 0.15103 0.61936 0.12693
 C1108 C 0.15809 0.64393 0.10508
 C1109 C 0.17506 0.66496 0.12294
 C1110 C 0.18577 0.66146 0.16264
 C1111 C 0.17940 0.63641 0.18393
 C1112 C 0.16196 0.61571 0.16640
 H1113 H 0.06753 0.56759 0.13071
 H1114 H 0.11913 0.56003 0.02309
 H1115 H 0.17965 0.68403 0.10584
 H1116 H 0.18715 0.63320 0.21470
 H1117 H 0.15409 0.59249 0.05340
 H1118 H 0.14969 0.64726 0.07469
 H1119 H 0.10280 0.59941 0.16120
 H1120 H 0.15678 0.59692 0.18377
 C1121 C 0.37533 0.89697 0.12171
 C1122 C 0.40434 0.89211 0.12854
 C1123 C 0.42453 0.91081 0.11333
 C1124 C 0.41614 0.93473 0.09071
 C1125 C 0.38700 0.94005 0.08496
 C1126 C 0.36677 0.92138 0.10048
 C1127 C 0.35428 0.87596 0.13560
 C1128 C 0.32967 0.88457 0.15610
 C1129 C 0.31068 0.86435 0.17092
 C1130 C 0.31588 0.83520 0.16515
 C1131 C 0.34009 0.82678 0.14344
 C1132 C 0.35909 0.84693 0.12895
 H1133 H 0.44675 0.90608 0.11849
 H1134 H 0.37981 0.95829 0.06771
 H1135 H 0.29225 0.87156 0.18753
 H1136 H 0.34476 0.80455 0.13831
 H1137 H 0.34449 0.92550 0.09475
 H1138 H 0.32557 0.90686 0.16165
 H1139 H 0.41143 0.87365 0.14541
 H1140 H 0.37769 0.83981 0.11262
 C1141 C 0.62373 0.39904 0.37584
 C1142 C 0.63237 0.42287 0.39834
 C1143 C 0.61221 0.44168 0.41390
 C1144 C 0.58310 0.43703 0.40690
 C1145 C 0.57468 0.41384 0.38273
 C1146 C 0.59480 0.39501 0.36748
 C1147 C 0.64452 0.37754 0.36266
 C1148 C 0.66968 0.38551 0.34320
 C1149 C 0.68855 0.36479 0.32927
 C1150 C 0.68265 0.33580 0.33501
 C1151 C 0.65783 0.32803 0.35567
 C1152 C 0.63896 0.34868 0.36922
 H1153 H 0.61941 0.45935 0.43236
 H1154 H 0.55248 0.40968 0.37655
 H1155 H 0.70747 0.37148 0.31344
 H1156 H 0.65261 0.30594 0.36069
 H1157 H 0.58771 0.37698 0.34962
 H1158 H 0.67435 0.40768 0.33781
 H1159 H 0.65460 0.42631 0.40521
 H1160 H 0.61988 0.34209 0.38479
 C1161 C 0.87075 0.60309 0.88905
 C1162 C 0.89916 0.60715 0.87838
 C1163 C 0.92003 0.58835 0.89166
 C1164 C 0.91314 0.56499 0.91664
 C1165 C 0.88425 0.56053 0.92613
 C1166 C 0.86331 0.57933 0.91226
 C1167 C 0.84932 0.62421 0.87633
 C1168 C 0.82447 0.61586 0.85592
 C1169 C 0.80594 0.63632 0.84003
 C1170 C 0.81186 0.66543 0.84477
 C1171 C 0.83606 0.67359 0.86709
 C1172 C 0.85464 0.65319 0.88251
 H1173 H 0.94172 0.59274 0.88293
 H1174 H 0.87771 0.54286 0.94492
 H1175 H 0.78742 0.62934 0.82312
 H1176 H 0.84127 0.69577 0.87145
 H1177 H 0.84142 0.57581 0.92067
 H1178 H 0.82002 0.59359 0.85080
 H1179 H 0.90528 0.62510 0.85983
 H1180 H 0.87354 0.66007 0.89863
 C1181 C 0.13228 0.09853 0.61238
 C1182 C 0.10847 0.09148 0.63571
 C1183 C 0.08770 0.07336 0.61996
 C1184 C 0.09075 0.06151 0.58099
 C1185 C 0.11502 0.06791 0.55815
 C1186 C 0.13548 0.08655 0.57356
 C1187 C 0.15308 0.11923 0.62809
 C1188 C 0.15972 0.14351 0.60536
 C1189 C 0.17754 0.16436 0.62171
 C1190 C 0.18947 0.16089 0.66068
 C1191 C 0.18356 0.13608 0.68276
 C1192 C 0.16528 0.11557 0.66676
 H1193 H 0.06917 0.06875 0.63812
 H1194 H 0.11771 0.05925 0.52784
 H1195 H 0.18177 0.18328 0.60411
 H1196 H 0.19226 0.13301 0.71304
 H1197 H 0.15373 0.09173 0.55516
 H1198 H 0.15034 0.14677 0.57554
 H1199 H 0.10556 0.10068 0.66565
 H1200 H 0.16042 0.09696 0.68471
 C1201 C 0.12652 0.40220 0.38028
 C1202 C 0.13220 0.41520 0.41787
 C1203 C 0.11251 0.43384 0.43506
 C1204 C 0.08647 0.43922 0.41541
 C1205 C 0.08100 0.42648 0.37745
 C1206 C 0.10103 0.40838 0.35979
 C1207 C 0.14652 0.38120 0.36330
 C1208 C 0.15789 0.38496 0.32434
 C1209 C 0.17609 0.36455 0.30786
 C1210 C 0.18261 0.33969 0.32964
 C1211 C 0.17125 0.33602 0.36871
 C1212 C 0.15364 0.35679 0.38560
 H1213 H 0.11719 0.44316 0.46451
 H1214 H 0.06110 0.43026 0.36168
 H1215 H 0.18437 0.36780 0.27758
 H1216 H 0.17595 0.31707 0.38613
 H1217 H 0.09625 0.39844 0.33080
 H1218 H 0.15263 0.40367 0.30671
 H1219 H 0.15178 0.41069 0.43407
 H1220 H 0.14494 0.35348 0.41566
 C1221 C 0.37016 0.59894 0.89077
 C1222 C 0.39903 0.60486 0.88532
 C1223 C 0.41973 0.58631 0.89991
 C1224 C 0.41211 0.56143 0.92075
 C1225 C 0.38312 0.55504 0.92520
 C1226 C 0.36230 0.57357 0.91003
 C1227 C 0.34871 0.61986 0.87708
 C1228 C 0.32578 0.61172 0.85227
 C1229 C 0.30757 0.63228 0.83576
 C1230 C 0.31184 0.66130 0.84423
 C1231 C 0.33397 0.66911 0.87085
 C1232 C 0.35224 0.64865 0.88691
 H1233 H 0.44178 0.59198 0.89581
 H1234 H 0.37655 0.53602 0.94100
 H1235 H 0.29069 0.62552 0.81546
 H1236 H 0.33789 0.69118 0.87822
 H1237 H 0.34012 0.56857 0.91447
 H1238 H 0.32269 0.58962 0.84426
 H1239 H 0.40560 0.62407 0.86997
 H1240 H 0.36958 0.65538 0.90644
 C1241 C 0.62941 0.09923 0.61515
 C1242 C 0.60469 0.09211 0.63644
 C1243 C 0.58469 0.07374 0.61914
 C1244 C 0.58936 0.06161 0.58064
 C1245 C 0.61465 0.06790 0.56006
 C1246 C 0.63434 0.08682 0.57696
 C1247 C 0.64939 0.12038 0.63225
 C1248 C 0.65682 0.14452 0.60969
 C1249 C 0.67403 0.16559 0.62699
 C1250 C 0.68465 0.16250 0.66680
 C1251 C 0.67783 0.13789 0.68886
 C1252 C 0.66012 0.11719 0.67190
 H1253 H 0.56539 0.06928 0.63565
 H1254 H 0.61868 0.05906 0.53019
 H1255 H 0.67894 0.18432 0.60934
 H1256 H 0.68548 0.13505 0.71976
 H1257 H 0.65333 0.09196 0.56013
 H1258 H 0.64859 0.14747 0.57913
 H1259 H 0.60043 0.10155 0.66587
 H1260 H 0.65465 0.09873 0.68980
 C1261 C 0.87440 0.89851 0.11712
 C1262 C 0.90356 0.89407 0.12314
 C1263 C 0.92333 0.91295 0.10722
 C1264 C 0.91445 0.93671 0.08457
 C1265 C 0.88517 0.94174 0.07976
 C1266 C 0.86532 0.92286 0.09608
 C1267 C 0.85385 0.87711 0.13183
 C1268 C 0.82951 0.88526 0.15334
 C1269 C 0.81139 0.86468 0.16952
 C1270 C 0.81713 0.83558 0.16408
 C1271 C 0.84096 0.82760 0.14120
 C1272 C 0.85912 0.84811 0.12541
 H1273 H 0.94564 0.90839 0.11179
 H1274 H 0.87760 0.95984 0.06256
 H1275 H 0.79320 0.87159 0.18693
 H1276 H 0.84606 0.80544 0.13627
 H1277 H 0.84292 0.92674 0.09105
 H1278 H 0.82502 0.90749 0.15877
 H1279 H 0.91112 0.87575 0.13990
 H1280 H 0.87751 0.84127 0.10836
 C1281 C 0.86654 0.10348 0.88907
 C1282 C 0.89530 0.10874 0.88145
 C1283 C 0.91621 0.09044 0.89622
 C1284 C 0.90890 0.06650 0.91940
 C1285 C 0.87999 0.06080 0.92617
 C1286 C 0.85897 0.07904 0.91084
 C1287 C 0.84493 0.12422 0.87516
 C1288 C 0.82103 0.11561 0.85261
 C1289 C 0.80257 0.13589 0.83580
 C1290 C 0.80759 0.16508 0.84170
 C1291 C 0.83071 0.17340 0.86623
 C1292 C 0.84918 0.15324 0.88256
 H1293 H 0.93819 0.09557 0.89032
 H1294 H 0.87363 0.04253 0.94384
 H1295 H 0.78493 0.12874 0.81719
 H1296 H 0.83524 0.19562 0.87171
 H1297 H 0.83689 0.07458 0.91707
 H1298 H 0.81733 0.09332 0.84654
 H1299 H 0.90165 0.12724 0.86423
 H1300 H 0.86724 0.16037 0.90039
 C1301 C 0.13198 0.60106 0.61647
 C1302 C 0.10841 0.59332 0.63988
 C1303 C 0.08736 0.57575 0.62345
 C1304 C 0.08994 0.56510 0.58370
 C1305 C 0.11396 0.57226 0.56073
 C1306 C 0.13464 0.59036 0.57682
 C1307 C 0.15317 0.62113 0.63296
 C1308 C 0.15936 0.64628 0.61197
 C1309 C 0.17758 0.66645 0.62919
 C1310 C 0.19040 0.66147 0.66725
 C1311 C 0.18507 0.63572 0.68736
 C1312 C 0.16636 0.61587 0.67057
 H1313 H 0.06905 0.57056 0.64174
 H1314 H 0.11632 0.56458 0.52982
 H1315 H 0.18131 0.68611 0.61305
 H1316 H 0.19446 0.63141 0.71689
 H1317 H 0.15268 0.59609 0.55833
 H1318 H 0.14928 0.65074 0.58296
 H1319 H 0.10592 0.60155 0.67047
 H1320 H 0.16191 0.59653 0.68712
 C1321 C 0.62905 0.90008 0.37500
 C1322 C 0.63321 0.91117 0.41423
 C1323 C 0.61320 0.92954 0.43123
 C1324 C 0.58831 0.93664 0.40967
 C1325 C 0.58431 0.92573 0.37020
 C1326 C 0.60470 0.90787 0.35282
 C1327 C 0.64936 0.87927 0.35810
 C1328 C 0.66188 0.88375 0.32000
 C1329 C 0.68035 0.86349 0.30362
 C1330 C 0.68598 0.83810 0.32461
 C1331 C 0.67354 0.83376 0.36284
 C1332 C 0.65566 0.85432 0.37964
 H1333 H 0.61672 0.93739 0.46187
 H1334 H 0.56533 0.93083 0.35296
 H1335 H 0.68948 0.86727 0.27395
 H1336 H 0.67754 0.81440 0.37967
 H1337 H 0.60104 0.89937 0.32259
 H1338 H 0.65732 0.90290 0.30297
 H1339 H 0.65186 0.90542 0.43182
 H1340 H 0.64611 0.85042 0.40900
 C1341 C 0.37404 0.39812 0.12311
 C1342 C 0.40304 0.39309 0.13003
 C1343 C 0.42350 0.41089 0.11329
 C1344 C 0.41546 0.43409 0.08894
 C1345 C 0.38635 0.43973 0.08322
 C1346 C 0.36583 0.42198 0.10034
 C1347 C 0.35275 0.37751 0.13791
 C1348 C 0.32817 0.38646 0.15827
 C1349 C 0.30916 0.36647 0.17403
 C1350 C 0.31428 0.33721 0.16922
 C1351 C 0.33840 0.32850 0.14743
 C1352 C 0.35739 0.34837 0.13214
 H1353 H 0.44566 0.40592 0.11851
 H1354 H 0.37938 0.45745 0.06473
 H1355 H 0.29079 0.37391 0.19060
 H1356 H 0.34308 0.30621 0.14291
 H1357 H 0.34360 0.42626 0.09449
 H1358 H 0.32412 0.40885 0.16305
 H1359 H 0.40992 0.37506 0.14800
 H1360 H 0.37590 0.34092 0.11589
 C1361 C 0.63275 0.59742 0.11351
 C1362 C 0.60881 0.59058 0.13668
 C1363 C 0.58792 0.57267 0.12076
 C1364 C 0.59099 0.56082 0.08179
 C1365 C 0.61542 0.56697 0.05915
 C1366 C 0.63599 0.58541 0.07472
 C1367 C 0.65358 0.61808 0.12924
 C1368 C 0.66035 0.64226 0.10637
 C1369 C 0.67814 0.66312 0.12270
 C1370 C 0.68991 0.65979 0.16178
 C1371 C 0.68390 0.63507 0.18401
 C1372 C 0.66563 0.61454 0.16803
 H1373 H 0.56929 0.56822 0.13878
 H1374 H 0.61813 0.55831 0.02885
 H1375 H 0.68247 0.68197 0.10498
 H1376 H 0.69249 0.63211 0.21437
 H1377 H 0.65435 0.59044 0.05644
 H1378 H 0.65108 0.64543 0.07647
 H1379 H 0.60586 0.59982 0.16658
 H1380 H 0.66066 0.59600 0.18608
 C1381 C 0.12360 0.89919 0.87518
 C1382 C 0.13224 0.92305 0.89762
 C1383 C 0.11209 0.94187 0.91316
 C1384 C 0.08297 0.93720 0.90621
 C1385 C 0.07455 0.91399 0.88208
 C1386 C 0.09466 0.89515 0.86684
 C1387 C 0.14440 0.87769 0.86208
 C1388 C 0.16958 0.88564 0.84266
 C1389 C 0.18848 0.86491 0.82886
 C1390 C 0.18259 0.83593 0.83468
 C1391 C 0.15775 0.82818 0.85529
 C1392 C 0.13884 0.84883 0.86872
 H1393 H 0.11929 0.95956 0.93160
 H1394 H 0.05235 0.90982 0.87595
 H1395 H 0.20742 0.87159 0.81306
 H1396 H 0.15254 0.80609 0.86037
 H1397 H 0.08758 0.87710 0.84903
 H1398 H 0.17424 0.90781 0.83721
 H1399 H 0.15448 0.92651 0.90448
 H1400 H 0.11975 0.84225 0.88426
 C1401 C 0.37105 0.10327 0.38416
 C1402 C 0.39987 0.10966 0.37906
 C1403 C 0.42076 0.09126 0.39349
 C1404 C 0.41331 0.06610 0.41368
 C1405 C 0.38440 0.05932 0.41786
 C1406 C 0.36343 0.07770 0.40297
 C1407 C 0.34929 0.12387 0.37075
 C1408 C 0.32614 0.11533 0.34663
 C1409 C 0.30720 0.13554 0.33106
 C1410 C 0.31099 0.16457 0.33976
 C1411 C 0.33346 0.17276 0.36555
 C1412 C 0.35243 0.15266 0.38072
 H1413 H 0.44278 0.09716 0.38966
 H1414 H 0.37795 0.04007 0.43318
 H1415 H 0.29010 0.12851 0.31133
 H1416 H 0.33699 0.19486 0.37312
 H1417 H 0.34131 0.07238 0.40723
 H1418 H 0.32336 0.09320 0.33856
 H1419 H 0.40623 0.12909 0.36410
 H1420 H 0.36989 0.15966 0.39983
 C1421 C 0.87534 0.39739 0.62310
 C1422 C 0.90436 0.39225 0.62944
 C1423 C 0.92460 0.41078 0.61397
 C1424 C 0.91626 0.43481 0.59158
 C1425 C 0.88713 0.44042 0.58631
 C1426 C 0.86685 0.42191 0.60210
 C1427 C 0.85420 0.37654 0.63721
 C1428 C 0.82981 0.38531 0.65809
 C1429 C 0.81073 0.36523 0.67306
 C1430 C 0.81562 0.33605 0.66705
 C1431 C 0.83961 0.32748 0.64496
 C1432 C 0.85870 0.34749 0.63032
 H1433 H 0.94682 0.40584 0.61874
 H1434 H 0.87997 0.45876 0.56927
 H1435 H 0.79247 0.37255 0.68997
 H1436 H 0.84405 0.30522 0.63962
 H1437 H 0.84457 0.42626 0.59674
 H1438 H 0.82594 0.40763 0.66382
 H1439 H 0.91140 0.37368 0.64611
 H1440 H 0.87712 0.34025 0.61368
 C1441 C 0.87743 0.60083 0.11849
 C1442 C 0.86814 0.58029 0.09031
 C1443 C 0.88777 0.56271 0.07041
 C1444 C 0.91704 0.56523 0.07855
 C1445 C 0.92604 0.58518 0.10780
 C1446 C 0.90654 0.60270 0.12743
 C1447 C 0.85743 0.62156 0.13692
 C1448 C 0.86490 0.65036 0.13857
 C1449 C 0.84686 0.67025 0.15627
 C1450 C 0.82076 0.66199 0.17305
 C1451 C 0.81312 0.63313 0.17138
 C1452 C 0.83122 0.61311 0.15319
 H1453 H 0.88007 0.54756 0.04813
 H1454 H 0.94831 0.58763 0.11528
 H1455 H 0.85356 0.69223 0.15688
 H1456 H 0.79312 0.62607 0.18385
 H1457 H 0.91430 0.61800 0.14947
 H1458 H 0.88472 0.65761 0.12577
 H1459 H 0.84584 0.57850 0.08268
 H1460 H 0.82498 0.59100 0.15242
 C1461 C 0.62884 0.39816 0.60569
 C1462 C 0.60528 0.40704 0.62830
 C1463 C 0.58462 0.42448 0.61066
 C1464 C 0.58746 0.43393 0.57035
 C1465 C 0.61146 0.42571 0.54802
 C1466 C 0.63180 0.40762 0.56540
 C1467 C 0.64945 0.37804 0.62386
 C1468 C 0.65521 0.35208 0.60455
 C1469 C 0.67245 0.33181 0.62357
 C1470 C 0.68477 0.33739 0.66186
 C1471 C 0.67985 0.36383 0.68042
 C1472 C 0.66206 0.38383 0.66181
 H1473 H 0.56638 0.43060 0.62856
 H1474 H 0.61402 0.43258 0.51681
 H1475 H 0.67599 0.31167 0.60847
 H1476 H 0.68897 0.36866 0.70997
 H1477 H 0.64983 0.40098 0.54744
 H1478 H 0.64553 0.34711 0.57541
 H1479 H 0.60246 0.39981 0.65929
 H1480 H 0.65789 0.40375 0.67720
 C1481 C 0.12405 0.10333 0.38272
 C1482 C 0.09486 0.10588 0.37485
 C1483 C 0.07559 0.08732 0.39262
 C1484 C 0.08491 0.06564 0.41893
 C1485 C 0.11424 0.06260 0.42611
 C1486 C 0.13364 0.08122 0.40802
 C1487 C 0.14393 0.12449 0.36545
 C1488 C 0.16941 0.11615 0.34688
 C1489 C 0.18712 0.13640 0.32882
 C1490 C 0.17979 0.16539 0.32942
 C1491 C 0.15457 0.17361 0.34886
 C1492 C 0.13689 0.15345 0.36652
 H1493 H 0.05325 0.09030 0.38603
 H1494 H 0.12217 0.04613 0.44616
 H1495 H 0.20646 0.12935 0.31430
 H1496 H 0.14822 0.19569 0.35014
 H1497 H 0.15605 0.07885 0.41471
 H1498 H 0.17528 0.09394 0.34551
 H1499 H 0.08689 0.12241 0.35495
 H1500 H 0.11761 0.16055 0.38115
 C1501 C 0.37206 0.89603 0.89456
 C1502 C 0.36368 0.91999 0.91702
 C1503 C 0.38413 0.93813 0.93416
 C1504 C 0.41325 0.93276 0.92860
 C1505 C 0.42137 0.90913 0.90516
 C1506 C 0.40107 0.89100 0.88850
 C1507 C 0.35106 0.87546 0.87841
 C1508 C 0.35560 0.84634 0.88433
 C1509 C 0.33752 0.82641 0.86669
 C1510 C 0.31440 0.83504 0.84236
 C1511 C 0.30929 0.86429 0.83739
 C1512 C 0.32741 0.88435 0.85548
 H1513 H 0.37715 0.95618 0.95195
 H1514 H 0.44354 0.90429 0.90007
 H1515 H 0.34212 0.80414 0.87152
 H1516 H 0.29161 0.87167 0.81901
 H1517 H 0.40807 0.87287 0.87087
 H1518 H 0.37346 0.83895 0.90236
 H1519 H 0.34141 0.92424 0.92218
 H1520 H 0.32352 0.90674 0.85045
 C1521 C 0.13080 0.89688 0.61668
 C1522 C 0.10573 0.90383 0.63721
 C1523 C 0.08529 0.92108 0.61870
 C1524 C 0.08978 0.93224 0.57962
 C1525 C 0.11531 0.92607 0.55957
 C1526 C 0.13550 0.90820 0.57775
 C1527 C 0.15118 0.87669 0.63528
 C1528 C 0.15938 0.85218 0.61403
 C1529 C 0.17650 0.83172 0.63285
 C1530 C 0.18626 0.83572 0.67297
 C1531 C 0.17880 0.86072 0.69377
 C1532 C 0.16113 0.88087 0.67524
 H1533 H 0.06587 0.92563 0.63494
 H1534 H 0.11923 0.93433 0.52938
 H1535 H 0.18202 0.81270 0.61609
 H1536 H 0.18589 0.86426 0.72480
 H1537 H 0.15475 0.90311 0.56142
 H1538 H 0.15174 0.84842 0.58332
 H1539 H 0.10157 0.89518 0.66711
 H1540 H 0.15503 0.89963 0.69218
 C1541 C 0.62284 0.60408 0.37474
 C1542 C 0.59366 0.60960 0.37127
 C1543 C 0.57390 0.59177 0.38952
 C1544 C 0.58276 0.56789 0.41192
 C1545 C 0.61199 0.56190 0.41460
 C1546 C 0.63184 0.57978 0.39601
 C1547 C 0.64352 0.62450 0.35756
 C1548 C 0.66707 0.61531 0.33497
 C1549 C 0.68558 0.63511 0.31752
 C1550 C 0.68102 0.66444 0.32273
 C1551 C 0.65773 0.67340 0.34609
 C1552 C 0.63927 0.65373 0.36318
 H1553 H 0.55162 0.59703 0.38647
 H1554 H 0.61956 0.54363 0.43143
 H1555 H 0.70329 0.62746 0.29974
 H1556 H 0.65351 0.69574 0.35102
 H1557 H 0.65424 0.57509 0.39927
 H1558 H 0.67076 0.59288 0.33004
 H1559 H 0.58608 0.62791 0.35452
 H1560 H 0.62159 0.66144 0.38098
 C1561 C 0.37542 0.10249 0.12716
 C1562 C 0.36642 0.07875 0.10453
 C1563 C 0.38635 0.06074 0.08612
 C1564 C 0.41562 0.06603 0.09035
 C1565 C 0.42441 0.08924 0.11429
 C1566 C 0.40460 0.10720 0.13234
 C1567 C 0.35485 0.12334 0.14377
 C1568 C 0.35984 0.15246 0.13856
 C1569 C 0.34156 0.17257 0.15521
 C1570 C 0.31773 0.16419 0.17777
 C1571 C 0.31243 0.13497 0.18259
 C1572 C 0.33075 0.11472 0.16550
 H1573 H 0.37883 0.04299 0.06807
 H1574 H 0.44670 0.09396 0.11862
 H1575 H 0.34638 0.19481 0.15064
 H1576 H 0.29427 0.12777 0.19971
 H1577 H 0.41215 0.12507 0.15016
 H1578 H 0.37799 0.15973 0.12144
 H1579 H 0.34402 0.07470 0.10000
 H1580 H 0.32649 0.09237 0.17005
 C1581 C 0.87276 0.39964 0.87919
 C1582 C 0.86466 0.42277 0.90353
 C1583 C 0.88527 0.44066 0.92091
 C1584 C 0.91449 0.43597 0.91386
 C1585 C 0.92209 0.41321 0.88793
 C1586 C 0.90158 0.39534 0.87119
 C1587 C 0.85174 0.37890 0.86343
 C1588 C 0.85668 0.34980 0.86900
 C1589 C 0.83839 0.32971 0.85211
 C1590 C 0.81471 0.33815 0.82880
 C1591 C 0.80940 0.36738 0.82381
 C1592 C 0.82767 0.38760 0.84128
 H1593 H 0.87819 0.45791 0.94023
 H1594 H 0.94405 0.40859 0.88090
 H1595 H 0.84322 0.30746 0.85674
 H1596 H 0.79132 0.37460 0.80615
 H1597 H 0.90833 0.37787 0.85204
 H1598 H 0.87495 0.34256 0.88628
 H1599 H 0.84248 0.42646 0.91010
 H1600 H 0.82351 0.40996 0.83647
 C1601 C 0.62544 0.10283 0.88248
 C1602 C 0.59650 0.10638 0.87373
 C1603 C 0.57660 0.08740 0.88896
 C1604 C 0.58521 0.06454 0.91358
 C1605 C 0.61436 0.06037 0.92101
 C1606 C 0.63432 0.07930 0.90539
 C1607 C 0.64601 0.12431 0.86870
 C1608 C 0.67103 0.11622 0.84889
 C1609 C 0.68927 0.13682 0.83334
 C1610 C 0.68292 0.16587 0.83777
 C1611 C 0.65846 0.17383 0.85920
 C1612 C 0.64014 0.15326 0.87434
 H1613 H 0.55437 0.09125 0.88249
 H1614 H 0.62171 0.04298 0.93985
 H1615 H 0.70799 0.12998 0.81705
 H1616 H 0.65292 0.19598 0.86321
 H1617 H 0.65658 0.07618 0.91248
 H1618 H 0.67594 0.09399 0.84422
 H1619 H 0.58923 0.12414 0.85551
 H1620 H 0.62116 0.15997 0.89012
 C1621 C 0.37320 0.59871 0.62624
 C1622 C 0.36450 0.57519 0.60309
 C1623 C 0.38467 0.55704 0.58591
 C1624 C 0.41384 0.56200 0.59200
 C1625 C 0.42231 0.58468 0.61713
 C1626 C 0.40221 0.60289 0.63390
 C1627 C 0.35247 0.61995 0.64052
 C1628 C 0.35762 0.64885 0.63374
 C1629 C 0.33918 0.66937 0.64885
 C1630 C 0.31524 0.66144 0.67144
 C1631 C 0.30959 0.63239 0.67716
 C1632 C 0.32799 0.61178 0.66156
 H1633 H 0.37743 0.53969 0.56686
 H1634 H 0.44454 0.58909 0.62266
 H1635 H 0.34420 0.69149 0.64375
 H1636 H 0.29130 0.62559 0.69436
 H1637 H 0.40935 0.62067 0.65221
 H1638 H 0.37614 0.65559 0.61699
 H1639 H 0.34220 0.57160 0.59685
 H1640 H 0.32363 0.58956 0.66704
 C1641 C 0.13380 0.40113 0.10514
 C1642 C 0.11074 0.40990 0.12891
 C1643 C 0.08991 0.42769 0.11247
 C1644 C 0.09222 0.43753 0.07233
 C1645 C 0.11582 0.42949 0.04901
 C1646 C 0.13628 0.41112 0.06514
 C1647 C 0.15449 0.38066 0.12177
 C1648 C 0.15905 0.35457 0.10215
 C1649 C 0.17639 0.33394 0.12017
 C1650 C 0.18988 0.33937 0.15766
 C1651 C 0.18629 0.36608 0.17615
 C1652 C 0.16847 0.38640 0.15862
 H1653 H 0.07190 0.43359 0.13098
 H1654 H 0.11790 0.43655 0.01780
 H1655 H 0.17882 0.31361 0.10515
 H1656 H 0.19640 0.37095 0.20500
 H1657 H 0.15395 0.40455 0.04640
 H1658 H 0.14831 0.34977 0.07372
 H1659 H 0.10842 0.40225 0.15979
 H1660 H 0.16526 0.40647 0.17408
 C1661 C 0.86836 0.90065 0.38318
 C1662 C 0.86098 0.92550 0.40422
 C1663 C 0.88219 0.94315 0.42029
 C1664 C 0.91104 0.93638 0.41491
 C1665 C 0.91816 0.91216 0.39208
 C1666 C 0.89707 0.89443 0.37664
 C1667 C 0.84662 0.88014 0.36966
 C1668 C 0.84936 0.85158 0.38086
 C1669 C 0.83099 0.83122 0.36496
 C1670 C 0.80960 0.83891 0.33701
 C1671 C 0.80603 0.86780 0.32723
 C1672 C 0.82432 0.88831 0.34368
 H1673 H 0.87602 0.96172 0.43760
 H1674 H 0.94011 0.90627 0.38729
 H1675 H 0.83435 0.80926 0.37342
 H1676 H 0.78973 0.87444 0.30589
 H1677 H 0.90317 0.87549 0.36008
 H1678 H 0.86624 0.84493 0.40127
 H1679 H 0.83891 0.93063 0.40952
 H1680 H 0.82189 0.91030 0.33473
 C1681 C 0.87612 0.60160 0.63017
 C1682 C 0.86688 0.57854 0.60634
 C1683 C 0.88665 0.56067 0.58727
 C1684 C 0.91597 0.56547 0.59202
 C1685 C 0.92497 0.58796 0.61721
 C1686 C 0.90533 0.60575 0.63593
 C1687 C 0.85581 0.62250 0.64726
 C1688 C 0.86135 0.65160 0.64306
 C1689 C 0.84326 0.67175 0.65998
 C1690 C 0.81909 0.66343 0.68181
 C1691 C 0.81329 0.63424 0.68574
 C1692 C 0.83142 0.61395 0.66836
 H1693 H 0.87898 0.54347 0.56828
 H1694 H 0.94730 0.59224 0.62202
 H1695 H 0.84847 0.69396 0.65615
 H1696 H 0.79482 0.62711 0.70225
 H1697 H 0.91304 0.62308 0.65467
 H1698 H 0.87975 0.65882 0.62646
 H1699 H 0.84445 0.57495 0.60134
 H1700 H 0.82675 0.59161 0.67211
 C1701 C 0.63053 0.39655 0.11696
 C1702 C 0.60537 0.40334 0.13739
 C1703 C 0.58491 0.42056 0.11887
 C1704 C 0.58945 0.43186 0.07988
 C1705 C 0.61505 0.42583 0.05992
 C1706 C 0.63527 0.40799 0.07811
 C1707 C 0.65097 0.37644 0.13556
 C1708 C 0.65935 0.35202 0.11423
 C1709 C 0.67656 0.33163 0.13302
 C1710 C 0.68624 0.33560 0.17318
 C1711 C 0.67861 0.36051 0.19406
 C1712 C 0.66084 0.38059 0.17556
 H1713 H 0.56544 0.42500 0.13504
 H1714 H 0.61903 0.43420 0.02981
 H1715 H 0.68221 0.31266 0.11620
 H1716 H 0.68563 0.36402 0.22513
 H1717 H 0.65458 0.40302 0.06185
 H1718 H 0.65178 0.34828 0.08348
 H1719 H 0.60118 0.39460 0.16722
 H1720 H 0.65461 0.39928 0.19257
 C1721 C 0.37312 0.89799 0.37765
 C1722 C 0.36477 0.92310 0.39745
 C1723 C 0.38515 0.94111 0.41509
 C1724 C 0.41423 0.93446 0.41273
 C1725 C 0.42240 0.90972 0.39175
 C1726 C 0.40213 0.89173 0.37461
 C1727 C 0.35200 0.87748 0.36146
 C1728 C 0.35526 0.84848 0.36998
 C1729 C 0.33685 0.82852 0.35302
 C1730 C 0.31469 0.83696 0.32680
 C1731 C 0.31098 0.86612 0.31893
 C1732 C 0.32939 0.88622 0.33634
 H1733 H 0.37814 0.96005 0.43085
 H1734 H 0.44453 0.90386 0.38911
 H1735 H 0.34039 0.80634 0.36003
 H1736 H 0.29412 0.87337 0.29894
 H1737 H 0.40917 0.87272 0.35905
 H1738 H 0.37227 0.84119 0.38968
 H1739 H 0.34249 0.92835 0.40026
 H1740 H 0.32651 0.90848 0.32922
 C1741 C 0.12253 0.10408 0.87412
 C1742 C 0.09332 0.10945 0.87059
 C1743 C 0.07365 0.09164 0.88904
 C1744 C 0.08262 0.06792 0.91170
 C1745 C 0.11187 0.06206 0.91442
 C1746 C 0.13164 0.07993 0.89563
 C1747 C 0.14309 0.12456 0.85682
 C1748 C 0.16666 0.11546 0.83423
 C1749 C 0.18506 0.13533 0.81669
 C1750 C 0.18033 0.16464 0.82180
 C1751 C 0.15700 0.17351 0.84514
 C1752 C 0.13867 0.15377 0.86233
 H1753 H 0.05135 0.09680 0.88593
 H1754 H 0.11951 0.04391 0.93145
 H1755 H 0.20281 0.12775 0.79893
 H1756 H 0.15265 0.19583 0.85001
 H1757 H 0.15406 0.07536 0.89894
 H1758 H 0.17048 0.09303 0.82940
 H1759 H 0.08566 0.12765 0.85364
 H1760 H 0.12095 0.16141 0.88013
 C1761 C 0.12890 0.89737 0.10404
 C1762 C 0.10541 0.90620 0.12685
 C1763 C 0.08476 0.92378 0.10950
 C1764 C 0.08752 0.93343 0.06928
 C1765 C 0.11142 0.92524 0.04673
 C1766 C 0.13177 0.90702 0.06382
 C1767 C 0.14955 0.87718 0.12194
 C1768 C 0.15526 0.85128 0.10244
 C1769 C 0.17256 0.83095 0.12124
 C1770 C 0.18499 0.83642 0.15949
 C1771 C 0.18012 0.86280 0.17824
 C1772 C 0.16228 0.88286 0.15985
 H1773 H 0.06658 0.92986 0.12756
 H1774 H 0.11393 0.93225 0.01557
 H1775 H 0.17606 0.81085 0.10600
 H1776 H 0.18932 0.86756 0.20776
 H1777 H 0.14974 0.90042 0.04570
 H1778 H 0.14550 0.84640 0.07332
 H1779 H 0.10267 0.89884 0.15780
 H1780 H 0.15815 0.90273 0.17539
 C1781 C 0.87192 0.39594 0.39514
 C1782 C 0.86354 0.41990 0.41761
 C1783 C 0.88397 0.43805 0.43475
 C1784 C 0.91310 0.43270 0.42918
 C1785 C 0.92123 0.40907 0.40574
 C1786 C 0.90093 0.39093 0.38909
 C1787 C 0.85094 0.37536 0.37894
 C1788 C 0.85551 0.34623 0.38480
 C1789 C 0.83746 0.32630 0.36707
 C1790 C 0.81435 0.33493 0.34271
 C1791 C 0.80921 0.36418 0.33781
 C1792 C 0.82729 0.38425 0.35599
 H1793 H 0.87699 0.45610 0.45254
 H1794 H 0.94339 0.40424 0.40064
 H1795 H 0.84208 0.30403 0.37186
 H1796 H 0.79154 0.37155 0.31942
 H1797 H 0.90794 0.37281 0.37145
 H1798 H 0.87335 0.33884 0.40284
 H1799 H 0.84126 0.42414 0.42276
 H1800 H 0.82338 0.40664 0.35099
 C1801 C 0.37621 0.10163 0.61754
 C1802 C 0.36706 0.08123 0.58906
 C1803 C 0.38677 0.06350 0.56958
 C1804 C 0.41594 0.06576 0.57850
 C1805 C 0.42476 0.08558 0.60806
 C1806 C 0.40520 0.10323 0.62723
 C1807 C 0.35624 0.12245 0.63572
 C1808 C 0.36389 0.15121 0.63745
 C1809 C 0.34605 0.17115 0.65542
 C1810 C 0.31999 0.16296 0.67238
 C1811 C 0.31213 0.13416 0.67049
 C1812 C 0.33004 0.11409 0.65204
 H1813 H 0.37922 0.04843 0.54707
 H1814 H 0.44695 0.08783 0.61617
 H1815 H 0.35288 0.19308 0.65616
 H1816 H 0.29215 0.12717 0.68305
 H1817 H 0.41282 0.11842 0.64953
 H1818 H 0.38374 0.15835 0.62462
 H1819 H 0.34482 0.07965 0.58092
 H1820 H 0.32369 0.09202 0.65119
 C1821 C 0.62472 0.60357 0.88526
 C1822 C 0.59558 0.60639 0.87725
 C1823 C 0.57613 0.58772 0.89440
 C1824 C 0.58525 0.56567 0.92021
 C1825 C 0.61454 0.56238 0.92755
 C1826 C 0.63410 0.58111 0.91008
 C1827 C 0.64482 0.62474 0.86854
 C1828 C 0.67028 0.61634 0.84999
 C1829 C 0.68817 0.63657 0.83230
 C1830 C 0.68103 0.66561 0.83322
 C1831 C 0.65586 0.67389 0.85274
 C1832 C 0.63800 0.65374 0.87005
 H1833 H 0.55382 0.59089 0.88775
 H1834 H 0.62231 0.54565 0.94724
 H1835 H 0.70745 0.62946 0.81770
 H1836 H 0.64967 0.69602 0.85427
 H1837 H 0.65647 0.57853 0.91686
 H1838 H 0.67598 0.59410 0.84828
 H1839 H 0.58776 0.62320 0.85769
 H1840 H 0.61874 0.66088 0.88470
 C1841 C 0.36790 0.40064 0.88453
 C1842 C 0.36061 0.42558 0.90542
 C1843 C 0.38188 0.44329 0.92119
 C1844 C 0.41071 0.43649 0.91567
 C1845 C 0.41774 0.41216 0.89301
 C1846 C 0.39659 0.39438 0.87787
 C1847 C 0.34606 0.38016 0.87112
 C1848 C 0.34889 0.35153 0.88197
 C1849 C 0.33040 0.33124 0.86612
 C1850 C 0.30882 0.33907 0.83858
 C1851 C 0.30516 0.36801 0.82920
 C1852 C 0.32357 0.38844 0.84559
 H1853 H 0.37577 0.46194 0.93838
 H1854 H 0.43967 0.40624 0.88813
 H1855 H 0.33385 0.30923 0.87425
 H1856 H 0.28870 0.37477 0.80818
 H1857 H 0.40263 0.37538 0.86140
 H1858 H 0.36591 0.34477 0.90205
 H1859 H 0.33856 0.43076 0.91080
 H1860 H 0.32106 0.41048 0.83691
 C1861 C 0.87339 0.09852 0.12670
 C1862 C 0.86465 0.07505 0.10349
 C1863 C 0.88479 0.05686 0.08629
 C1864 C 0.91397 0.06175 0.09242
 C1865 C 0.92248 0.08438 0.11761
 C1866 C 0.90240 0.10262 0.13439
 C1867 C 0.85268 0.11979 0.14100
 C1868 C 0.85792 0.14871 0.13438
 C1869 C 0.83946 0.16924 0.14943
 C1870 C 0.81541 0.16132 0.17180
 C1871 C 0.80969 0.13227 0.17738
 C1872 C 0.82811 0.11165 0.16184
 H1873 H 0.87753 0.03955 0.06719
 H1874 H 0.94472 0.08874 0.12316
 H1875 H 0.84454 0.19136 0.14445
 H1876 H 0.79133 0.12548 0.19441
 H1877 H 0.90957 0.12037 0.15275
 H1878 H 0.87651 0.15544 0.11778
 H1879 H 0.84235 0.07151 0.09720
 H1880 H 0.82368 0.08943 0.16720
 C1881 C 0.63133 0.89870 0.61039
 C1882 C 0.60252 0.89366 0.61786
 C1883 C 0.58187 0.91224 0.60321
 C1884 C 0.58955 0.93620 0.58035
 C1885 C 0.61853 0.94174 0.57396
 C1886 C 0.63927 0.92322 0.58914
 C1887 C 0.65267 0.87780 0.62410
 C1888 C 0.64845 0.84886 0.61597
 C1889 C 0.66677 0.82855 0.63225
 C1890 C 0.68958 0.83673 0.65740
 C1891 C 0.69456 0.86586 0.66396
 C1892 C 0.67632 0.88624 0.64723
 H1893 H 0.55982 0.90727 0.60879
 H1894 H 0.62515 0.96002 0.55650
 H1895 H 0.66231 0.80636 0.62641
 H1896 H 0.71199 0.87288 0.68309
 H1897 H 0.66142 0.92750 0.58313
 H1898 H 0.63053 0.84194 0.59770
 H1899 H 0.59596 0.87508 0.63475
 H1900 H 0.67993 0.90848 0.65383
 C1901 C 0.12522 0.60206 0.38068
 C1902 C 0.09622 0.60574 0.37244
 C1903 C 0.07634 0.58699 0.38827
 C1904 C 0.08502 0.56422 0.41302
 C1905 C 0.11421 0.55991 0.41998
 C1906 C 0.13415 0.57862 0.40374
 C1907 C 0.14577 0.62339 0.36635
 C1908 C 0.17060 0.61515 0.34616
 C1909 C 0.18884 0.63564 0.33024
 C1910 C 0.18269 0.66473 0.33471
 C1911 C 0.15840 0.67283 0.35645
 C1912 C 0.14009 0.65238 0.37193
 H1913 H 0.05408 0.59093 0.38215
 H1914 H 0.12161 0.54258 0.43889
 H1915 H 0.20742 0.62869 0.31372
 H1916 H 0.15300 0.69501 0.36052
 H1917 H 0.15645 0.57540 0.41047
 H1918 H 0.17537 0.59288 0.34152
 H1919 H 0.08889 0.62344 0.35414
 H1920 H 0.12127 0.65922 0.38799
   
