data_POSCAR
  _audit_creation_date              2014-09-24
  _audit_creation_method            'ToBaCCo'
  _symmetry_space_group_name_H-M    'P1'
  _symmetry_Int_Tables_number       1
  _symmetry_cell_setting            triclinic
  loop_
  _symmetry_equiv_pos_as_xyz
 x,y,z
_cell_length_a 45.3968
_cell_length_b 45.4064
_cell_length_c 45.5250
_cell_angle_alpha 90.010600
_cell_angle_beta 90.054700
_cell_angle_gamma 90.005700
loop_
  _atom_site_label
  _atom_site_type_symbol
  _atom_site_fract_x
  _atom_site_fract_y
  _atom_site_fract_z
C1 C 0.22114 0.96055 0.01741
 C2 C 0.22838 0.96181 -0.01287
 C3 C 0.23240 0.98984 -0.02589
 C4 C 0.23161 1.01624 -0.00949
 C5 C 0.22455 1.01431 0.02069
 C6 C 0.21901 0.98689 0.03344
 H7 H 0.21488 0.98610 0.05688
 H8 H 0.23385 0.99126 -0.04945
 C9 C 0.74324 0.53560 0.50437
 C10 C 0.73850 0.53599 0.47371
 C11 C 0.73752 0.50924 0.45818
 C12 C 0.74053 0.48202 0.47259
 C13 C 0.74499 0.48160 0.50332
 C14 C 0.74601 0.50839 0.51883
 H15 H 0.74783 0.50807 0.54254
 H16 H 0.73584 0.50971 0.43447
 C17 C 0.75779 1.02329 1.01629
 C18 C 0.75058 0.99264 1.01549
 C19 C 0.74765 0.97884 0.98776
 C20 C 0.75029 0.99443 0.96134
 C21 C 0.75617 1.02476 0.96214
 C22 C 0.75974 1.03875 0.98937
 H23 H 0.76184 1.06245 0.98934
 H24 H 0.74551 0.95518 0.98631
 C25 C 0.26414 0.50261 0.52935
 C26 C 0.26581 0.47157 0.52961
 C27 C 0.26490 0.45627 0.50277
 C28 C 0.26323 0.47105 0.47562
 C29 C 0.26130 0.50215 0.47539
 C30 C 0.26252 0.51742 0.50226
 H31 H 0.26329 0.54124 0.50204
 H32 H 0.26413 0.43246 0.50311
 C33 C 0.97923 0.25873 -0.00928
 C34 C 0.97832 0.25690 0.02180
 C35 C 1.00489 0.25491 0.03784
 C36 C 1.03272 0.25388 0.02385
 C37 C 1.03337 0.25632 -0.00716
 C38 C 1.00707 0.25995 -0.02279
 H39 H 1.00906 0.26467 -0.04593
 H40 H 1.00332 0.25502 0.06149
 C41 C 0.46187 0.76322 0.51864
 C42 C 0.46254 0.76238 0.48764
 C43 C 0.48981 0.76381 0.47319
 C44 C 0.51655 0.76378 0.48861
 C45 C 0.51604 0.76369 0.51958
 C46 C 0.48871 0.76377 0.53417
 H47 H 0.48843 0.76368 0.55793
 H48 H 0.49021 0.76541 0.44945
 C49 C -0.02204 0.74460 -0.02513
 C50 C 0.00822 0.73683 -0.02139
 C51 C 0.01946 0.73467 0.00750
 C52 C 0.00184 0.73900 0.03250
 C53 C -0.02808 0.74636 0.02881
 C54 C -0.03957 0.74849 0.00024
 H55 H -0.06311 0.75111 -0.00200
 H56 H 0.04284 0.73191 0.01092
 C57 C 0.52247 0.26534 0.48154
 C58 C 0.49157 0.26532 0.47876
 C59 C 0.47413 0.26642 0.50424
 C60 C 0.48680 0.26790 0.53250
 C61 C 0.51786 0.26766 0.53516
 C62 C 0.53516 0.26715 0.50957
 H63 H 0.55888 0.26888 0.51146
 H64 H 0.45049 0.26439 0.50206
 C65 C 1.02185 0.01906 0.25921
 C66 C 1.02449 -0.01170 0.25390
 C67 C 0.99868 -0.02874 0.25163
 C68 C 0.97019 -0.01647 0.25331
 C69 C 0.96766 0.01413 0.25878
 C70 C 0.99336 0.03110 0.26185
 H71 H 0.99109 0.05468 0.26484
 H72 H 1.00127 -0.05236 0.25065
 C73 C 0.48134 0.48636 0.74918
 C74 C 0.48049 0.51707 0.74438
 C75 C 0.50690 0.53221 0.73843
 C76 C 0.53387 0.51712 0.73612
 C77 C 0.53425 0.48635 0.73986
 C78 C 0.50817 0.47136 0.74640
 H79 H 0.50869 0.44757 0.74819
 H80 H 0.50664 0.55600 0.73707
 C81 C 1.02341 0.97510 0.75884
 C82 C 0.99249 0.97609 0.75906
 C83 C 0.97836 1.00357 0.75729
 C84 C 0.99441 1.03034 0.75619
 C85 C 1.02570 1.02885 0.75530
 C86 C 1.03958 1.00123 0.75681
 H87 H 1.06340 0.99999 0.75787
 H88 H 0.95471 1.00359 0.75495
 C89 C 0.51125 0.47484 0.24274
 C90 C 0.48038 0.47441 0.24686
 C91 C 0.46552 0.50117 0.25157
 C92 C 0.48013 0.52846 0.25131
 C93 C 0.51072 0.52908 0.24563
 C94 C 0.52590 0.50218 0.24256
 H95 H 0.54968 0.50249 0.24100
 H96 H 0.44197 0.50074 0.25521
 O97 O 0.26901 0.16400 0.20085
 O98 O 0.30508 0.15365 0.23939
 O99 O 0.19247 0.18562 0.25236
 O100 O 0.18095 0.21905 0.28716
 O101 O 0.21862 0.24010 0.17894
 O102 O 0.25685 0.27796 0.17408
 O103 O 0.26658 0.26459 0.33244
 O104 O 0.23459 0.22122 0.33571
 O105 O 0.34218 0.23712 0.29027
 O106 O 0.35071 0.20652 0.24386
 O107 O 0.30051 0.31163 0.25971
 O108 O 0.25404 0.32026 0.22966
 O109 O 0.26345 0.30393 0.30172
 O110 O 0.22773 0.31660 0.26501
 O111 O 0.33801 0.27879 0.25478
 O112 O 0.34876 0.24250 0.21730
 O113 O 0.30842 0.22864 0.32616
 O114 O 0.27628 0.19240 0.33317
 O115 O 0.26429 0.20388 0.17095
 O116 O 0.29091 0.24792 0.16609
 O117 O 0.18619 0.23195 0.21618
 O118 O 0.17864 0.25928 0.26067
 O119 O 0.23053 0.15435 0.24310
 O120 O 0.27440 0.14423 0.27110
 Zr121 Zr 0.26796 0.18143 0.24384
 O122 O 0.29436 0.20493 0.27383
 Zr123 Zr 0.21230 0.22773 0.25388
 O124 O 0.23683 0.25422 0.28304
 Zr125 Zr 0.26030 0.23946 0.20000
 O126 O 0.28782 0.26505 0.22721
 Zr127 Zr 0.26814 0.22784 0.30415
 O128 O 0.24173 0.20047 0.27716
 Zr129 Zr 0.31705 0.23799 0.25104
 O130 O 0.29252 0.21282 0.22037
 Zr131 Zr 0.26191 0.28539 0.25952
 O132 O 0.23387 0.26170 0.23068
 O133 O 0.23695 0.20670 0.22168
 O134 O 0.29242 0.26021 0.28261
 C135 C 0.26750 0.17619 0.17537
 C136 C 0.20320 0.15977 0.24763
 C137 C 0.19233 0.23696 0.18916
 C138 C 0.26520 0.29241 0.32741
 C139 C 0.33475 0.23328 0.31728
 C140 C 0.32803 0.30498 0.25774
 H141 H 0.30779 0.19119 0.28408
 H142 H 0.29839 0.27955 0.21492
 H143 H 0.22470 0.19477 0.20819
 H144 H 0.22352 0.26366 0.29741
 H145 H 0.22315 0.20378 0.32931
 H146 H 0.18727 0.22973 0.30502
 H147 H 0.34185 0.25822 0.20393
 H148 H 0.30885 0.23654 0.17102
 H149 H 0.26791 0.17471 0.32374
 H150 H 0.25901 0.14481 0.28647
 H151 H 0.27053 0.32065 0.21547
 H152 H 0.24066 0.28986 0.18253
 H153 H 0.31838 0.16321 0.22505
 H154 H 0.35061 0.19252 0.26051
 H155 H 0.18359 0.27657 0.24838
 H156 H 0.21283 0.30775 0.27815
 O157 O 0.73711 0.84587 0.21244
 O158 O 0.70212 0.85181 0.25173
 O159 O 0.80980 0.80422 0.25574
 O160 O 0.81582 0.76408 0.28463
 O161 O 0.77923 0.77017 0.17406
 O162 O 0.73729 0.74036 0.16017
 O163 O 0.72461 0.71927 0.31845
 O164 O 0.76027 0.75666 0.33160
 O165 O 0.65367 0.76528 0.28199
 O166 O 0.64942 0.80333 0.24243
 O167 O 0.68840 0.69265 0.23847
 O168 O 0.73293 0.68507 0.20652
 O169 O 0.72535 0.68734 0.27997
 O170 O 0.76096 0.67997 0.24029
 O171 O 0.65456 0.72953 0.23935
 O172 O 0.64944 0.77409 0.20908
 O173 O 0.68650 0.75978 0.31933
 O174 O 0.72216 0.79056 0.33420
 O175 O 0.73862 0.81335 0.17445
 O176 O 0.70665 0.77471 0.15980
 O177 O 0.81146 0.76569 0.21213
 O178 O 0.81444 0.72942 0.25053
 O179 O 0.77564 0.84089 0.25601
 O180 O 0.73163 0.84918 0.28553
 Zr181 Zr 0.73520 0.81907 0.25021
 O182 O 0.70516 0.79270 0.27360
 Zr183 Zr 0.78492 0.76553 0.24983
 O184 O 0.75676 0.73658 0.27264
 Zr185 Zr 0.73743 0.77169 0.19453
 O186 O 0.70678 0.74364 0.21518
 Zr187 Zr 0.72764 0.76106 0.29866
 O188 O 0.75809 0.79022 0.27856
 Zr189 Zr 0.67984 0.76802 0.24384
 O190 O 0.70793 0.79670 0.22016
 Zr191 Zr 0.72939 0.71419 0.24268
 O192 O 0.76035 0.74030 0.21961
 O193 O 0.76369 0.79587 0.22300
 O194 O 0.70085 0.73700 0.27028
 C195 C 0.73793 0.83963 0.18492
 C196 C 0.80224 0.83146 0.25753
 C197 C 0.80541 0.76739 0.18466
 C198 C 0.72386 0.69318 0.30749
 C199 C 0.66019 0.76190 0.30926
 C200 C 0.66175 0.70225 0.23783
 H201 H 0.69293 0.80540 0.28635
 H202 H 0.69510 0.73323 0.20008
 H203 H 0.77756 0.80883 0.21232
 H204 H 0.76860 0.72291 0.28474
 H205 H 0.77402 0.77343 0.32923
 H206 H 0.80790 0.75067 0.29980
 H207 H 0.65433 0.75978 0.19344
 H208 H 0.69030 0.78714 0.16708
 H209 H 0.73426 0.80803 0.32967
 H210 H 0.74720 0.84419 0.29991
 H211 H 0.71721 0.69010 0.19233
 H212 H 0.75008 0.72394 0.16666
 H213 H 0.68768 0.84685 0.23619
 H214 H 0.65228 0.81533 0.26034
 H215 H 0.80827 0.71593 0.23458
 H216 H 0.77483 0.68256 0.25686
 O217 O 0.76106 0.18940 0.78602
 O218 O 0.72625 0.18381 0.74615
 O219 O 0.83969 0.21520 0.74196
 O220 O 0.85357 0.25077 0.71100
 O221 O 0.81024 0.26256 0.81860
 O222 O 0.77295 0.29908 0.82662
 O223 O 0.76908 0.30349 0.66619
 O224 O 0.79978 0.26124 0.65857
 O225 O 0.69137 0.27147 0.70388
 O226 O 0.67946 0.24208 0.74662
 O227 O 0.73651 0.34440 0.74249
 O228 O 0.78094 0.34870 0.77377
 O229 O 0.77454 0.33902 0.70099
 O230 O 0.80979 0.34548 0.74100
 O231 O 0.69743 0.31310 0.74121
 O232 O 0.68461 0.27319 0.77741
 O233 O 0.72587 0.26744 0.66793
 O234 O 0.76232 0.23054 0.65834
 O235 O 0.76465 0.22583 0.82021
 O236 O 0.73721 0.27004 0.82805
 O237 O 0.84459 0.25727 0.78258
 O238 O 0.85453 0.28926 0.74054
 O239 O 0.80044 0.18406 0.74372
 O240 O 0.75793 0.17918 0.71281
 Zr241 Zr 0.76345 0.21182 0.74547
 O242 O 0.73830 0.23923 0.71788
 Zr243 Zr 0.82051 0.25742 0.74307
 O244 O 0.79784 0.28685 0.71528
 Zr245 Zr 0.77005 0.26451 0.79562
 O246 O 0.74524 0.29421 0.77028
 Zr247 Zr 0.76613 0.26409 0.69055
 O248 O 0.79137 0.23384 0.71566
 Zr249 Zr 0.71600 0.27081 0.74311
 O250 O 0.73837 0.24106 0.77119
 Zr251 Zr 0.77332 0.31640 0.74110
 O252 O 0.79873 0.28911 0.76892
 O253 O 0.79385 0.23377 0.77159
 O254 O 0.74240 0.29513 0.71456
 C255 C 0.76178 0.19875 0.81271
 C256 C 0.82819 0.18931 0.74249
 C257 C 0.83693 0.25992 0.80961
 C258 C 0.77244 0.33043 0.67425
 C259 C 0.69913 0.26977 0.67681
 C260 C 0.70881 0.33897 0.74188
 H261 H 0.72446 0.22688 0.70653
 H262 H 0.73486 0.30793 0.78356
 H263 H 0.80533 0.22023 0.78421
 H264 H 0.81197 0.29710 0.70231
 H265 H 0.81306 0.24508 0.66476
 H266 H 0.84855 0.26317 0.69385
 H267 H 0.68968 0.29023 0.78997
 H268 H 0.71990 0.25858 0.82139
 H269 H 0.74724 0.21636 0.66503
 H270 H 0.77193 0.18402 0.69686
 H271 H 0.76504 0.34704 0.78853
 H272 H 0.78856 0.31255 0.81958
 H273 H 0.71235 0.19229 0.76061
 H274 H 0.68294 0.22531 0.73319
 H275 H 0.85027 0.30438 0.75562
 H276 H 0.82361 0.33881 0.72560
 O277 O 0.23122 0.80656 0.80423
 O278 O 0.26357 0.82321 0.76643
 O279 O 0.16129 0.76863 0.74913
 O280 O 0.15540 0.73071 0.71958
 O281 O 0.19455 0.72354 0.82804
 O282 O 0.23770 0.69364 0.83592
 O283 O 0.25147 0.70431 0.67633
 O284 O 0.21366 0.74017 0.66979
 O285 O 0.31906 0.74784 0.72178
 O286 O 0.32066 0.77709 0.76848
 O287 O 0.28993 0.66524 0.74941
 O288 O 0.24794 0.64757 0.77841
 O289 O 0.25237 0.66531 0.70764
 O290 O 0.21747 0.64865 0.74640
 O291 O 0.32078 0.70406 0.75646
 O292 O 0.32325 0.74185 0.79470
 O293 O 0.28672 0.74725 0.68363
 O294 O 0.24407 0.77743 0.67448
 O295 O 0.23212 0.76776 0.83582
 O296 O 0.26709 0.72892 0.84240
 O297 O 0.16202 0.72469 0.79001
 O298 O 0.16297 0.69259 0.74575
 O299 O 0.19185 0.80678 0.76028
 O300 O 0.23318 0.82325 0.73228
 Zr301 Zr 0.23387 0.78760 0.76214
 O302 O 0.26590 0.76879 0.73462
 Zr303 Zr 0.18835 0.73117 0.75247
 O304 O 0.21842 0.70988 0.72434
 Zr305 Zr 0.23577 0.73084 0.80807
 O306 O 0.26800 0.70939 0.78250
 Zr307 Zr 0.24554 0.74106 0.70371
 O308 O 0.21302 0.76271 0.72901
 Zr309 Zr 0.29292 0.74072 0.75935
 O310 O 0.26304 0.76233 0.78771
 Zr311 Zr 0.24753 0.68416 0.74959
 O312 O 0.21513 0.70284 0.77753
 O313 O 0.20736 0.75783 0.78443
 O314 O 0.27419 0.71395 0.72711
 C315 C 0.23130 0.79547 0.83022
 C316 C 0.16651 0.79604 0.75372
 C317 C 0.16833 0.72202 0.81739
 C318 C 0.25333 0.67665 0.68180
 C319 C 0.31281 0.74952 0.69431
 C320 C 0.31571 0.67663 0.75224
 H321 H 0.27740 0.78466 0.72521
 H322 H 0.28054 0.69714 0.79536
 H323 H 0.19273 0.76803 0.79693
 H324 H 0.20745 0.69804 0.70976
 H325 H 0.19698 0.75256 0.67641
 H326 H 0.16493 0.72440 0.70110
 H327 H 0.31940 0.72455 0.80731
 H328 H 0.28202 0.74418 0.83802
 H329 H 0.25599 0.79354 0.68297
 H330 H 0.22178 0.81656 0.71498
 H331 H 0.26100 0.65243 0.79512
 H332 H 0.22628 0.67789 0.82610
 H333 H 0.27930 0.81658 0.77997
 H334 H 0.31733 0.79211 0.75310
 H335 H 0.16835 0.67855 0.76150
 H336 H 0.20403 0.65279 0.72979
 O337 O 0.27010 0.32910 0.73302
 O338 O 0.23905 0.33602 0.77564
 O339 O 0.34416 0.28267 0.77014
 O340 O 0.35172 0.24083 0.79484
 O341 O 0.30341 0.25330 0.68970
 O342 O 0.25920 0.22463 0.68005
 O343 O 0.26164 0.20139 0.83851
 O344 O 0.30069 0.23622 0.84799
 O345 O 0.19012 0.25124 0.81046
 O346 O 0.18368 0.29052 0.77194
 O347 O 0.21614 0.17808 0.76132
 O348 O 0.25676 0.16858 0.72592
 O349 O 0.25717 0.17012 0.79973
 O350 O 0.28776 0.16172 0.75630
 O351 O 0.18451 0.21655 0.76650
 O352 O 0.17802 0.26163 0.73886
 O353 O 0.22651 0.24407 0.84406
 O354 O 0.26531 0.27258 0.85500
 O355 O 0.26615 0.29714 0.69474
 O356 O 0.22996 0.26066 0.68348
 O357 O 0.33932 0.24643 0.72393
 O358 O 0.34396 0.20786 0.76074
 O359 O 0.31211 0.32107 0.77324
 O360 O 0.27133 0.33172 0.80621
 Zr361 Zr 0.27016 0.30174 0.77062
 O362 O 0.24159 0.27642 0.79682
 Zr363 Zr 0.31688 0.24567 0.76431
 O364 O 0.28986 0.21782 0.78964
 Zr365 Zr 0.26423 0.25544 0.71452
 O366 O 0.23462 0.22855 0.73793
 Zr367 Zr 0.26497 0.24324 0.81891
 O368 O 0.29445 0.27118 0.79598
 Zr369 Zr 0.21204 0.25357 0.76964
 O370 O 0.23878 0.28133 0.74336
 Zr371 Zr 0.25839 0.19740 0.76245
 O372 O 0.28801 0.22236 0.73646
 O373 O 0.29457 0.27768 0.74047
 O374 O 0.23406 0.22099 0.79328
 C375 C 0.26842 0.32323 0.70541
 C376 C 0.33822 0.31016 0.77318
 C377 C 0.33047 0.24966 0.69734
 C378 C 0.25874 0.17555 0.82736
 C379 C 0.19944 0.24742 0.83689
 C380 C 0.19008 0.18906 0.76318
 H381 H 0.23147 0.28949 0.81096
 H382 H 0.22094 0.21911 0.72390
 H383 H 0.30806 0.29033 0.72898
 H384 H 0.30218 0.20335 0.80024
 H385 H 0.31523 0.25202 0.84414
 H386 H 0.34445 0.22833 0.81107
 H387 H 0.18172 0.24896 0.72158
 H388 H 0.21577 0.27471 0.69219
 H389 H 0.27876 0.28881 0.84972
 H390 H 0.28755 0.32556 0.81937
 H391 H 0.24097 0.17557 0.71265
 H392 H 0.27250 0.20795 0.68457
 H393 H 0.22305 0.33210 0.76137
 H394 H 0.18880 0.30178 0.78984
 H395 H 0.33590 0.19579 0.74450
 H396 H 0.30369 0.16362 0.77101
 O397 O 0.75753 0.68031 0.70230
 O398 O 0.78436 0.67149 0.74572
 O399 O 0.67611 0.71575 0.73814
 O400 O 0.66136 0.75440 0.76306
 O401 O 0.71820 0.75657 0.66239
 O402 O 0.75926 0.78889 0.65761
 O403 O 0.74521 0.79612 0.81858
 O404 O 0.71184 0.75720 0.82375
 O405 O 0.82433 0.75829 0.78940
 O406 O 0.83795 0.72636 0.74834
 O407 O 0.79037 0.83349 0.74764
 O408 O 0.75325 0.84362 0.71256
 O409 O 0.74725 0.83205 0.78382
 O410 O 0.71658 0.83937 0.73721
 O411 O 0.82660 0.79909 0.75103
 O412 O 0.83887 0.75720 0.71674
 O413 O 0.78594 0.75863 0.82145
 O414 O 0.74540 0.72259 0.82632
 O415 O 0.75973 0.71531 0.66656
 O416 O 0.79282 0.75722 0.66181
 O417 O 0.68002 0.75552 0.69466
 O418 O 0.66968 0.79117 0.73528
 O419 O 0.71136 0.68009 0.73835
 O420 O 0.74937 0.67258 0.77566
 Zr421 Zr 0.75127 0.70394 0.74139
 O422 O 0.77650 0.72936 0.77079
 Zr423 Zr 0.69956 0.75535 0.73653
 O424 O 0.72167 0.78241 0.76684
 Zr425 Zr 0.75569 0.75548 0.68974
 O426 O 0.78001 0.78374 0.71748
 Zr427 Zr 0.74821 0.75686 0.79474
 O428 O 0.72256 0.72935 0.76733
 Zr429 Zr 0.80413 0.75845 0.74774
 O430 O 0.78193 0.72993 0.71815
 Zr431 Zr 0.75143 0.80907 0.74368
 O432 O 0.72716 0.78388 0.71282
 O433 O 0.72641 0.72804 0.71159
 O434 O 0.77712 0.78529 0.77330
 C435 C 0.76031 0.68838 0.67545
 C436 C 0.68435 0.68875 0.73796
 C437 C 0.69057 0.75634 0.66850
 C438 C 0.74509 0.82317 0.81057
 C439 C 0.81356 0.75879 0.81549
 C440 C 0.81739 0.82588 0.75057
 H441 H 0.78799 0.71611 0.78365
 H442 H 0.79298 0.79635 0.70542
 H443 H 0.71517 0.71517 0.69806
 H444 H 0.70711 0.79400 0.77810
 H445 H 0.69724 0.74309 0.81577
 H446 H 0.66691 0.76263 0.78240
 H447 H 0.83665 0.77433 0.70351
 H448 H 0.80738 0.74313 0.66987
 H449 H 0.76244 0.70929 0.82372
 H450 H 0.73340 0.67897 0.78902
 H451 H 0.76667 0.83730 0.69668
 H452 H 0.74531 0.80460 0.66342
 H453 H 0.80190 0.67919 0.73535
 H454 H 0.83227 0.71099 0.76265
 H455 H 0.67546 0.80380 0.71852
 H456 H 0.70269 0.83724 0.75381
 O457 O 0.24194 0.67020 0.30205
 O458 O 0.21399 0.65493 0.26129
 O459 O 0.31732 0.71079 0.25989
 O460 O 0.32748 0.74883 0.23246
 O461 O 0.27225 0.75339 0.33377
 O462 O 0.22876 0.78140 0.33749
 O463 O 0.23736 0.77561 0.17540
 O464 O 0.27448 0.74050 0.17242
 O465 O 0.16365 0.73431 0.21099
 O466 O 0.15308 0.70561 0.25269
 O467 O 0.19150 0.81572 0.24642
 O468 O 0.22953 0.83207 0.27723
 O469 O 0.23067 0.81396 0.20684
 O470 O 0.26492 0.82860 0.25017
 O471 O 0.15876 0.77788 0.24686
 O472 O 0.15271 0.73628 0.28502
 O473 O 0.20093 0.73357 0.17768
 O474 O 0.24556 0.70192 0.17503
 O475 O 0.23516 0.70799 0.33416
 O476 O 0.19815 0.74716 0.33633
 O477 O 0.30999 0.75321 0.30094
 O478 O 0.31508 0.78671 0.25661
 O479 O 0.28600 0.67177 0.26307
 O480 O 0.24670 0.65710 0.22902
 Zr481 Zr 0.24349 0.69094 0.26077
 O482 O 0.21479 0.71110 0.23039
 Zr483 Zr 0.28970 0.74768 0.25954
 O484 O 0.26412 0.76932 0.22750
 Zr485 Zr 0.23479 0.74621 0.30769
 O486 O 0.20730 0.76965 0.27863
 Zr487 Zr 0.23946 0.73882 0.20298
 O488 O 0.26868 0.71683 0.23180
 Zr489 Zr 0.18500 0.73953 0.25165
 O490 O 0.21070 0.71569 0.28255
 Zr491 Zr 0.23254 0.79503 0.24923
 O492 O 0.25978 0.77522 0.28150
 O493 O 0.26642 0.72003 0.28751
 O494 O 0.20847 0.76627 0.22283
 C495 C 0.23814 0.68048 0.32807
 C496 C 0.31199 0.68313 0.26167
 C497 C 0.29964 0.75518 0.32718
 C498 C 0.23315 0.80296 0.18089
 C499 C 0.17354 0.73247 0.18463
 C500 C 0.16522 0.80547 0.24563
 H501 H 0.20427 0.69571 0.21919
 H502 H 0.19363 0.78196 0.29023
 H503 H 0.27935 0.70953 0.30155
 H504 H 0.27695 0.78120 0.21457
 H505 H 0.29108 0.72945 0.18124
 H506 H 0.32059 0.75339 0.21237
 H507 H 0.15209 0.75534 0.29554
 H508 H 0.18554 0.73017 0.33104
 H509 H 0.22959 0.68761 0.17881
 H510 H 0.26192 0.66338 0.21477
 H511 H 0.21764 0.82609 0.29442
 H512 H 0.24061 0.79805 0.32993
 H513 H 0.19631 0.66163 0.27210
 H514 H 0.16234 0.68780 0.24430
 H515 H 0.30895 0.79965 0.27301
 H516 H 0.27640 0.82746 0.23175
 O517 O 0.73426 0.32881 0.27654
 O518 O 0.76754 0.33583 0.23699
 O519 O 0.66346 0.28137 0.23502
 O520 O 0.65832 0.23978 0.20970
 O521 O 0.69720 0.25253 0.31849
 O522 O 0.73949 0.22664 0.33384
 O523 O 0.75438 0.20013 0.17527
 O524 O 0.71773 0.23365 0.15990
 O525 O 0.82215 0.24938 0.21156
 O526 O 0.82636 0.28700 0.24859
 O527 O 0.78936 0.17634 0.25606
 O528 O 0.74619 0.16714 0.28707
 O529 O 0.75297 0.16870 0.21412
 O530 O 0.71660 0.16211 0.25468
 O531 O 0.82172 0.21453 0.25545
 O532 O 0.82338 0.26203 0.28483
 O533 O 0.79030 0.24253 0.17358
 O534 O 0.74750 0.27185 0.15797
 O535 O 0.73443 0.29803 0.31600
 O536 O 0.76991 0.26100 0.33105
 O537 O 0.66432 0.24536 0.28144
 O538 O 0.66387 0.20624 0.24379
 O539 O 0.69543 0.31995 0.23354
 O540 O 0.73816 0.32782 0.20236
 Zr541 Zr 0.73726 0.30060 0.24004
 O542 O 0.76936 0.27515 0.21834
 Zr543 Zr 0.69042 0.24460 0.24307
 O544 O 0.72002 0.21697 0.22032
 Zr545 Zr 0.73813 0.25557 0.29750
 O546 O 0.76929 0.22747 0.27788
 Zr547 Zr 0.74848 0.24201 0.19382
 O548 O 0.71597 0.26937 0.21322
 Zr549 Zr 0.79534 0.25219 0.24895
 O550 O 0.76599 0.28103 0.27079
 Zr551 Zr 0.74796 0.19641 0.25092
 O552 O 0.71650 0.22197 0.27393
 O553 O 0.71024 0.27711 0.26839
 O554 O 0.77592 0.21970 0.22304
 C555 C 0.73364 0.32382 0.30430
 C556 C 0.66934 0.30889 0.23215
 C557 C 0.67101 0.24823 0.30874
 C558 C 0.75539 0.17423 0.18656
 C559 C 0.81637 0.24552 0.18426
 C560 C 0.81552 0.18699 0.25741
 H561 H 0.78153 0.28813 0.20586
 H562 H 0.78118 0.21796 0.29339
 H563 H 0.69574 0.28980 0.27855
 H564 H 0.70890 0.20256 0.20839
 H565 H 0.70070 0.24680 0.16345
 H566 H 0.66719 0.22767 0.19397
 H567 H 0.82125 0.24612 0.29951
 H568 H 0.78388 0.27623 0.32412
 H569 H 0.76172 0.28786 0.16192
 H570 H 0.72556 0.31815 0.18744
 H571 H 0.75987 0.17457 0.30228
 H572 H 0.72936 0.20838 0.32757
 H573 H 0.78341 0.33155 0.25130
 H574 H 0.82056 0.30083 0.23285
 H575 H 0.66928 0.19507 0.26167
 H576 H 0.70410 0.16245 0.23687
 C577 C 0.22429 0.03975 0.04084
 C578 C 0.24972 0.05606 0.04618
 C579 C 0.25320 0.07442 0.07275
 C580 C 0.27181 0.09903 0.07196
 C581 C 0.27587 0.11634 0.09705
 C582 C 0.26161 0.10901 0.12350
 C583 C 0.24388 0.08378 0.12453
 C584 C 0.23959 0.06669 0.09941
 C585 C 0.26469 0.12714 0.15027
 C586 C 0.26865 0.15753 0.14907
 H587 H 0.26812 0.05434 0.03113
 H588 H 0.28307 0.10497 0.05183
 H589 H 0.29045 0.13515 0.09578
 H590 H 0.23304 0.07747 0.14477
 H591 H 0.22610 0.04712 0.10115
 H592 H 0.26065 0.11681 0.17135
 H593 H 0.20575 0.04170 0.05566
 H594 H 0.27003 0.16843 0.12797
 C595 C 0.74355 0.56339 0.52160
 C596 C 0.76227 0.56750 0.54564
 C597 C 0.76283 0.59430 0.56437
 C598 C 0.77861 0.59316 0.59087
 C599 C 0.77907 0.61725 0.60993
 C600 C 0.76361 0.64317 0.60297
 C601 C 0.74887 0.64488 0.57593
 C602 C 0.74836 0.62070 0.55681
 C603 C 0.76226 0.66842 0.62362
 C604 C 0.76386 0.66445 0.65397
 H605 H 0.77708 0.54973 0.55152
 H606 H 0.79041 0.57336 0.59706
 H607 H 0.79168 0.61547 0.63002
 H608 H 0.73719 0.66477 0.56984
 H609 H 0.73664 0.62304 0.53629
 H610 H 0.75748 0.69012 0.61496
 H611 H 0.72902 0.58086 0.51462
 H612 H 0.76597 0.64240 0.66276
 C613 C 0.74861 0.97532 0.04135
 C614 C 0.73360 0.94829 0.04240
 C615 C 0.73459 0.92699 0.06707
 C616 C 0.74574 0.93383 0.09514
 C617 C 0.74644 0.91233 0.11724
 C618 C 0.73600 0.88367 0.11166
 C619 C 0.72495 0.87700 0.08370
 C620 C 0.72405 0.89841 0.06179
 C621 C 0.73694 0.85983 0.13380
 C622 C 0.73843 0.86445 0.16408
 H623 H 0.72025 0.94178 0.02380
 H624 H 0.75383 0.95558 0.10035
 H625 H 0.75565 0.91815 0.13837
 H626 H 0.71687 0.85509 0.07876
 H627 H 0.71538 0.89245 0.04041
 H628 H 0.73484 0.83744 0.12580
 H629 H 0.75914 0.98303 0.06112
 H630 H 0.73881 0.88657 0.17290
 C631 C 0.26656 0.45474 0.55765
 C632 C 0.28207 0.42824 0.56022
 C633 C 0.28070 0.40800 0.58580
 C634 C 0.29217 0.37952 0.58234
 C635 C 0.29035 0.35894 0.60501
 C636 C 0.27737 0.36636 0.63195
 C637 C 0.26635 0.39506 0.63584
 C638 C 0.26801 0.41572 0.61298
 C639 C 0.27467 0.34304 0.65455
 C640 C 0.27004 0.34804 0.68451
 H641 H 0.29513 0.42111 0.54162
 H642 H 0.30213 0.37291 0.56174
 H643 H 0.29901 0.33700 0.60138
 H644 H 0.25580 0.40148 0.65615
 H645 H 0.25923 0.43749 0.61681
 H646 H 0.27771 0.32053 0.64721
 H647 H 0.25437 0.46336 0.57611
 H648 H 0.26910 0.37025 0.69305
 C649 C 0.75609 0.04233 0.93467
 C650 C 0.77389 0.06706 0.93078
 C651 C 0.77184 0.08668 0.90491
 C652 C 0.78193 0.11571 0.90770
 C653 C 0.77941 0.13544 0.88435
 C654 C 0.76672 0.12650 0.85759
 C655 C 0.75779 0.09712 0.85432
 C656 C 0.76022 0.07735 0.87776
 C657 C 0.76347 0.14713 0.83266
 C658 C 0.76060 0.17740 0.83685
 H659 H 0.78888 0.07336 0.94821
 H660 H 0.79147 0.12330 0.92817
 H661 H 0.78780 0.15755 0.88730
 H662 H 0.74860 0.08955 0.83368
 H663 H 0.75324 0.05485 0.87433
 H664 H 0.76313 0.13826 0.81056
 H665 H 0.74113 0.03564 0.91743
 H666 H 0.75905 0.18617 0.85891
 C667 C 0.25951 0.51918 0.44745
 C668 C 0.24410 0.54588 0.44576
 C669 C 0.24385 0.56623 0.42018
 C670 C 0.22710 0.59217 0.42233
 C671 C 0.22687 0.61285 0.39959
 C672 C 0.24355 0.60813 0.37403
 C673 C 0.25983 0.58194 0.37152
 C674 C 0.26018 0.56126 0.39437
 C675 C 0.24390 0.62961 0.34944
 C676 C 0.23756 0.65958 0.35287
 H677 H 0.23147 0.55263 0.46478
 H678 H 0.21416 0.59658 0.44182
 H679 H 0.21328 0.63225 0.40204
 H680 H 0.27268 0.57764 0.35194
 H681 H 0.27347 0.54173 0.39163
 H682 H 0.25068 0.62170 0.32803
 H683 H 0.27032 0.51033 0.42827
 H684 H 0.23295 0.66838 0.37447
 C685 C 0.22988 0.93590 0.96980
 C686 C 0.24374 0.93495 0.94226
 C687 C 0.24170 0.91054 0.92066
 C688 C 0.22620 0.88415 0.92579
 C689 C 0.22415 0.86266 0.90374
 C690 C 0.23738 0.86728 0.87618
 C691 C 0.25274 0.89355 0.87119
 C692 C 0.25505 0.91477 0.89318
 C693 C 0.23503 0.84597 0.85171
 C694 C 0.23050 0.81580 0.85543
 H695 H 0.25723 0.95342 0.93562
 H696 H 0.21535 0.87996 0.94647
 H697 H 0.21159 0.84290 0.90811
 H698 H 0.26304 0.89771 0.85013
 H699 H 0.26699 0.93488 0.88845
 H700 H 0.23918 0.85422 0.82976
 H701 H 0.22035 0.91589 0.97834
 H702 H 0.22839 0.80659 0.87725
 C703 C 0.74123 0.45431 0.45521
 C704 C 0.72423 0.45018 0.42993
 C705 C 0.72562 0.42345 0.41123
 C706 C 0.71482 0.42515 0.38239
 C707 C 0.71612 0.40079 0.36369
 C708 C 0.72832 0.37404 0.37346
 C709 C 0.73819 0.37200 0.40261
 C710 C 0.73694 0.39641 0.42133
 C711 C 0.73054 0.34784 0.35412
 C712 C 0.73131 0.34978 0.32351
 H713 H 0.70976 0.46778 0.42288
 H714 H 0.70550 0.44553 0.37419
 H715 H 0.70718 0.40300 0.34178
 H716 H 0.74716 0.35149 0.41086
 H717 H 0.74452 0.39374 0.44368
 H718 H 0.73300 0.32644 0.36437
 H719 H 0.75576 0.43700 0.46263
 H720 H 0.73083 0.37112 0.31297
 C721 C 0.05932 0.25084 0.03994
 C722 C 0.06124 0.24447 0.07000
 C723 C 0.08960 0.24273 0.08613
 C724 C 0.09081 0.22585 0.11188
 C725 C 0.11654 0.22471 0.12865
 C726 C 0.14160 0.24096 0.12036
 C727 C 0.14072 0.25726 0.09420
 C728 C 0.11491 0.25836 0.07731
 C729 C 0.16851 0.24141 0.13889
 C730 C 0.16681 0.23815 0.16930
 H731 H 0.04176 0.23857 0.08224
 H732 H 0.07174 0.21346 0.11907
 H733 H 0.11667 0.21097 0.14806
 H734 H 0.15975 0.26985 0.08727
 H735 H 0.11466 0.27214 0.05794
 H736 H 0.18963 0.24570 0.12871
 H737 H 0.07996 0.25235 0.02830
 H738 H 0.14538 0.23623 0.17952
 C739 C 0.54363 0.76330 0.53705
 C740 C 0.54603 0.74636 0.56254
 C741 C 0.57121 0.74746 0.58321
 C742 C 0.59870 0.75985 0.57594
 C743 C 0.62135 0.76106 0.59682
 C744 C 0.61694 0.74980 0.62527
 C745 C 0.58965 0.73718 0.63226
 C746 C 0.56715 0.73585 0.61145
 C747 C 0.63952 0.75155 0.64865
 C748 C 0.66957 0.75609 0.64382
 H749 H 0.52762 0.73241 0.56853
 H750 H 0.60298 0.76857 0.55428
 H751 H 0.64192 0.77134 0.59070
 H752 H 0.58564 0.72835 0.65401
 H753 H 0.54627 0.72611 0.61764
 H754 H 0.63208 0.74782 0.67096
 H755 H 0.56179 0.77683 0.52987
 H756 H 0.67813 0.75811 0.62175
 C757 C 0.02760 0.73367 0.95435
 C758 C 0.05462 0.71860 0.95578
 C759 C 0.07710 0.71806 0.93211
 C760 C 0.07132 0.72694 0.90304
 C761 C 0.09372 0.72654 0.88192
 C762 C 0.12231 0.71707 0.88933
 C763 C 0.12794 0.70807 0.91824
 C764 C 0.10559 0.70836 0.93929
 C765 C 0.14709 0.71762 0.86814
 C766 C 0.14338 0.71830 0.83770
 H767 H 0.06010 0.70636 0.97541
 H768 H 0.04969 0.73415 0.89627
 H769 H 0.08858 0.73432 0.86006
 H770 H 0.14977 0.70084 0.92462
 H771 H 0.11074 0.70136 0.96146
 H772 H 0.16926 0.71737 0.87697
 H773 H 0.02154 0.74356 0.93372
 H774 H 0.12156 0.71686 0.82826
 C775 C 0.54170 0.26455 0.45528
 C776 C 0.56816 0.24891 0.45506
 C777 C 0.58870 0.24841 0.42990
 C778 C 0.57980 0.25494 0.40100
 C779 C 0.60025 0.25462 0.37804
 C780 C 0.62990 0.24753 0.38355
 C781 C 0.63859 0.24072 0.41232
 C782 C 0.61818 0.24094 0.43519
 C783 C 0.65271 0.24807 0.36041
 C784 C 0.64691 0.24706 0.33029
 H785 H 0.57473 0.23720 0.47473
 H786 H 0.55712 0.26009 0.39586
 H787 H 0.59276 0.26045 0.35626
 H788 H 0.66131 0.23525 0.41717
 H789 H 0.62557 0.23567 0.45721
 H790 H 0.67546 0.24857 0.36765
 H791 H 0.53452 0.27626 0.43589
 H792 H 0.62461 0.24476 0.32222
 C793 C 0.95177 0.74963 0.05441
 C794 C 0.92712 0.76820 0.05348
 C795 C 0.90292 0.76865 0.07542
 C796 C 0.90411 0.75319 0.10218
 C797 C 0.88013 0.75366 0.12149
 C798 C 0.85450 0.76971 0.11458
 C799 C 0.85330 0.78497 0.08786
 C800 C 0.87728 0.78462 0.06863
 C801 C 0.82854 0.77050 0.13435
 C802 C 0.83081 0.76633 0.16461
 H803 H 0.92461 0.78252 0.03461
 H804 H 0.92329 0.74060 0.10845
 H805 H 0.88162 0.74092 0.14151
 H806 H 0.83380 0.79736 0.08190
 H807 H 0.87562 0.79664 0.04814
 H808 H 0.80729 0.77604 0.12501
 H809 H 0.95619 0.73645 0.07366
 H810 H 0.85227 0.76309 0.17445
 C811 C 0.46745 0.26706 0.55883
 C812 C 0.43880 0.27846 0.55847
 C813 C 0.41683 0.27406 0.58215
 C814 C 0.39090 0.29092 0.58161
 C815 C 0.36884 0.28653 0.60256
 C816 C 0.37225 0.26525 0.62461
 C817 C 0.39803 0.24803 0.62500
 C818 C 0.42008 0.25238 0.60399
 C819 C 0.34843 0.26138 0.64651
 C820 C 0.35344 0.25018 0.67461
 H821 H 0.43194 0.29140 0.53969
 H822 H 0.38760 0.30750 0.56481
 H823 H 0.34912 0.29993 0.60162
 H824 H 0.40100 0.23068 0.64100
 H825 H 0.43915 0.23815 0.60461
 H826 H 0.32676 0.26985 0.64118
 H827 H 0.47599 0.25721 0.57869
 H828 H 0.37551 0.24409 0.68121
 C829 C 0.95318 0.25935 0.97342
 C830 C 0.95306 0.25476 0.94294
 C831 C 0.92734 0.25896 0.92362
 C832 C 0.93274 0.26701 0.89442
 C833 C 0.90972 0.26936 0.87437
 C834 C 0.88068 0.26289 0.88290
 C835 C 0.87505 0.25577 0.91242
 C836 C 0.89822 0.25376 0.93271
 C837 C 0.85616 0.26326 0.86143
 C838 C 0.86078 0.25932 0.83135
 H839 H 0.97288 0.24813 0.93167
 H840 H 0.95498 0.27148 0.88703
 H841 H 0.91493 0.27630 0.85227
 H842 H 0.85282 0.25098 0.91958
 H843 H 0.89340 0.24714 0.95502
 H844 H 0.83386 0.26543 0.86962
 H845 H 0.93215 0.26291 0.98386
 H846 H 0.88271 0.25513 0.82308
 C847 C 0.43530 0.76126 0.46965
 C848 C 0.43475 0.74535 0.44334
 C849 C 0.41176 0.74751 0.42035
 C850 C 0.38601 0.76448 0.42349
 C851 C 0.36585 0.76665 0.40031
 C852 C 0.37104 0.75191 0.37362
 C853 C 0.39677 0.73518 0.37052
 C854 C 0.41677 0.73285 0.39366
 C855 C 0.35041 0.75346 0.34852
 C856 C 0.32031 0.75844 0.35182
 H857 H 0.45353 0.73146 0.43843
 H858 H 0.38132 0.77631 0.44353
 H859 H 0.34658 0.78035 0.40323
 H860 H 0.40132 0.72368 0.35017
 H861 H 0.43649 0.71978 0.39051
 H862 H 0.35877 0.74768 0.32698
 H863 H 0.41627 0.77349 0.47698
 H864 H 0.31113 0.76198 0.37346
 C865 C 0.04536 0.03927 0.26211
 C866 C 0.07424 0.03601 0.25189
 C867 C 0.09587 0.06044 0.25436
 C868 C 0.11801 0.06331 0.23307
 C869 C 0.13736 0.08731 0.23370
 C870 C 0.13503 0.10883 0.25585
 C871 C 0.11335 0.10562 0.27748
 C872 C 0.09426 0.08149 0.27705
 C873 C 0.15441 0.13504 0.25659
 C874 C 0.18331 0.13424 0.24642
 H875 H 0.08012 0.01749 0.23823
 H876 H 0.11982 0.04740 0.21543
 H877 H 0.15352 0.08938 0.21636
 H878 H 0.11133 0.12174 0.29491
 H879 H 0.07828 0.07947 0.29455
 H880 H 0.14636 0.15486 0.26713
 H881 H 0.03975 0.06087 0.27051
 H882 H 0.19237 0.11365 0.23852
 C883 C 0.56197 0.53348 0.73311
 C884 C 0.56434 0.56013 0.71808
 C885 C 0.59108 0.57885 0.71888
 C886 C 0.58817 0.60874 0.71183
 C887 C 0.61211 0.62783 0.71442
 C888 C 0.63959 0.61740 0.72427
 C889 C 0.64304 0.58722 0.72966
 C890 C 0.61903 0.56805 0.72705
 C891 C 0.66479 0.63757 0.72888
 C892 C 0.66053 0.66701 0.73636
 H893 H 0.54512 0.56870 0.70687
 H894 H 0.56710 0.61754 0.70488
 H895 H 0.60894 0.65072 0.70863
 H896 H 0.66418 0.57855 0.73654
 H897 H 0.62265 0.54496 0.73148
 H898 H 0.68698 0.62897 0.72708
 H899 H 0.58101 0.52437 0.74406
 H900 H 0.63839 0.67515 0.73987
 C901 C 0.97959 0.05775 0.75451
 C902 C 0.94977 0.06154 0.76161
 C903 C 0.93291 0.08922 0.75759
 C904 C 0.90490 0.09106 0.77048
 C905 C 0.88722 0.11579 0.76624
 C906 C 0.89706 0.13931 0.74877
 C907 C 0.92534 0.13796 0.73644
 C908 C 0.94305 0.11302 0.74052
 C909 C 0.87834 0.16550 0.74376
 C910 C 0.84767 0.16350 0.74311
 H911 H 0.93797 0.04374 0.77209
 H912 H 0.89653 0.07319 0.78384
 H913 H 0.86596 0.11652 0.77695
 H914 H 0.93345 0.15595 0.72308
 H915 H 0.96424 0.11239 0.72974
 H916 H 0.88888 0.18660 0.74017
 H917 H 0.99199 0.07707 0.74837
 H918 H 0.83728 0.14206 0.74425
 C919 C 0.46238 0.55574 0.25512
 C920 C 0.43788 0.55611 0.27385
 C921 C 0.41340 0.57778 0.27287
 C922 C 0.41365 0.60290 0.25479
 C923 C 0.38897 0.62138 0.25338
 C924 C 0.36357 0.61517 0.27003
 C925 C 0.36340 0.59016 0.28802
 C926 C 0.38807 0.57184 0.28960
 C927 C 0.33681 0.63387 0.26865
 C928 C 0.33804 0.66383 0.26222
 H929 H 0.43517 0.53768 0.28873
 H930 H 0.43252 0.60829 0.24140
 H931 H 0.38966 0.64007 0.23866
 H932 H 0.34411 0.58479 0.30096
 H933 H 0.38711 0.55256 0.30358
 H934 H 0.31584 0.62419 0.27465
 H935 H 0.46780 0.57468 0.24182
 H936 H 0.35924 0.67418 0.25875
 C937 C 0.03940 0.94714 0.76274
 C938 C 0.06240 0.93928 0.74420
 C939 C 0.08097 0.91342 0.75005
 C940 C 0.09099 0.89621 0.72656
 C941 C 0.10994 0.87251 0.73165
 C942 C 0.11976 0.86634 0.76027
 C943 C 0.10997 0.88375 0.78371
 C944 C 0.09036 0.90688 0.77873
 C945 C 0.14200 0.84345 0.76570
 C946 C 0.14184 0.81664 0.75092
 H947 H 0.06657 0.95220 0.72463
 H948 H 0.08423 0.90119 0.70428
 H949 H 0.11778 0.85976 0.71314
 H950 H 0.11766 0.87952 0.80585
 H951 H 0.08340 0.92032 0.79711
 H952 H 0.15872 0.84767 0.78218
 H953 H 0.03260 0.93233 0.78012
 H954 H 0.12329 0.81067 0.73716
 C955 C 0.52881 0.44732 0.23938
 C956 C 0.55398 0.44641 0.22160
 C957 C 0.57645 0.42263 0.22185
 C958 C 0.57156 0.39470 0.23436
 C959 C 0.59417 0.37366 0.23504
 C960 C 0.62210 0.38010 0.22318
 C961 C 0.62677 0.40784 0.21051
 C962 C 0.60419 0.42871 0.20963
 C963 C 0.64724 0.35925 0.22492
 C964 C 0.64400 0.32885 0.22813
 H965 H 0.55870 0.46543 0.20802
 H966 H 0.55047 0.38893 0.24372
 H967 H 0.58986 0.35275 0.24556
 H968 H 0.64806 0.41346 0.20135
 H969 H 0.60865 0.45000 0.19985
 H970 H 0.66926 0.36827 0.22307
 H971 H 0.52267 0.42833 0.25224
 H972 H 0.62222 0.31917 0.22805
 C973 C 0.94496 0.96524 0.25180
 C974 C 0.94546 0.93626 0.24108
 C975 C 0.92102 0.91489 0.24419
 C976 C 0.89751 0.91907 0.26389
 C977 C 0.87577 0.89746 0.26702
 C978 C 0.87722 0.87122 0.25066
 C979 C 0.90094 0.86686 0.23149
 C980 C 0.92252 0.88849 0.22820
 C981 C 0.85461 0.84793 0.25310
 C982 C 0.82537 0.85391 0.26022
 H983 H 0.96444 0.92864 0.22893
 H984 H 0.89606 0.93855 0.27746
 H985 H 0.85830 0.90112 0.28274
 H986 H 0.90264 0.84674 0.21879
 H987 H 0.94058 0.88446 0.21319
 H988 H 0.86048 0.82588 0.24609
 H989 H 0.92406 0.97400 0.25896
 H990 H 0.81857 0.87630 0.26471
 C991 C 0.45417 0.46929 0.75500
 C992 C 0.45422 0.44479 0.77352
 C993 C 0.42915 0.42424 0.77629
 C994 C 0.43475 0.39546 0.78600
 C995 C 0.41212 0.37470 0.78726
 C996 C 0.38334 0.38243 0.77887
 C997 C 0.37746 0.41158 0.77050
 C998 C 0.40012 0.43234 0.76916
 C999 C 0.35895 0.36090 0.77857
 C1000 C 0.36318 0.33054 0.77604
 H1001 H 0.47440 0.43912 0.78494
 H1002 H 0.45686 0.38884 0.79209
 H1003 H 0.41731 0.35277 0.79492
 H1004 H 0.35534 0.41821 0.76448
 H1005 H 0.39468 0.45457 0.76263
 H1006 H 0.33669 0.36952 0.77825
 H1007 H 0.43428 0.47576 0.74365
 H1008 H 0.38515 0.32142 0.77477
 C1009 C 0.06094 0.25515 0.97536
 C1010 C 0.06198 0.23821 0.94972
 C1011 C 0.08495 0.24060 0.92686
 C1012 C 0.11270 0.25326 0.93216
 C1013 C 0.13329 0.25556 0.90946
 C1014 C 0.12658 0.24508 0.88112
 C1015 C 0.09885 0.23264 0.87588
 C1016 C 0.07835 0.23018 0.89857
 C1017 C 0.14781 0.24701 0.85660
 C1018 C 0.17814 0.24677 0.86110
 H1019 H 0.04326 0.22419 0.94485
 H1020 H 0.11875 0.26126 0.95370
 H1021 H 0.15422 0.26595 0.91412
 H1022 H 0.09312 0.22453 0.85423
 H1023 H 0.05709 0.22041 0.89389
 H1024 H 0.13935 0.24662 0.83433
 H1025 H 0.07907 0.26929 0.98147
 H1026 H 0.18683 0.24472 0.88316
 C1027 C 0.54451 0.76350 0.47176
 C1028 C 0.54697 0.74726 0.44578
 C1029 C 0.57164 0.74976 0.42474
 C1030 C 0.56701 0.74009 0.39582
 C1031 C 0.58913 0.74274 0.37473
 C1032 C 0.61651 0.75507 0.38221
 C1033 C 0.62152 0.76391 0.41135
 C1034 C 0.59928 0.76142 0.43245
 C1035 C 0.64052 0.75804 0.36051
 C1036 C 0.63568 0.76004 0.33025
 H1037 H 0.52869 0.73328 0.43941
 H1038 H 0.54603 0.73067 0.38940
 H1039 H 0.58480 0.73468 0.35279
 H1040 H 0.64264 0.77298 0.41774
 H1041 H 0.60403 0.76836 0.45466
 H1042 H 0.66284 0.75970 0.36882
 H1043 H 0.56257 0.77699 0.47930
 H1044 H 0.61347 0.76064 0.32162
 C1045 C 0.96458 0.74632 0.94672
 C1046 C 0.93832 0.76179 0.94140
 C1047 C 0.92112 0.76110 0.91365
 C1048 C 0.89584 0.77884 0.91190
 C1049 C 0.87754 0.77785 0.88729
 C1050 C 0.88406 0.75899 0.86374
 C1051 C 0.90984 0.74198 0.86485
 C1052 C 0.92810 0.74274 0.88968
 C1053 C 0.86428 0.75684 0.83799
 C1054 C 0.83382 0.76012 0.84065
 H1055 H 0.92979 0.77604 0.95844
 H1056 H 0.88995 0.79335 0.92986
 H1057 H 0.85835 0.79199 0.88674
 H1058 H 0.91542 0.72746 0.84681
 H1059 H 0.94717 0.72853 0.88997
 H1060 H 0.87365 0.75095 0.81691
 H1061 H 0.97511 0.73573 0.92836
 H1062 H 0.82420 0.76321 0.86219
 C1063 C 0.47751 0.26170 0.44953
 C1064 C 0.45076 0.27498 0.44234
 C1065 C 0.43484 0.26934 0.41452
 C1066 C 0.40426 0.27339 0.41413
 C1067 C 0.38796 0.26693 0.38898
 C1068 C 0.40195 0.25640 0.36351
 C1069 C 0.43272 0.25383 0.36325
 C1070 C 0.44910 0.26006 0.38862
 C1071 C 0.38444 0.24831 0.33731
 C1072 C 0.35694 0.23516 0.34062
 H1073 H 0.44002 0.28872 0.45857
 H1074 H 0.39282 0.28103 0.43357
 H1075 H 0.36435 0.27026 0.38950
 H1076 H 0.44399 0.24637 0.34365
 H1077 H 0.47279 0.25774 0.38776
 H1078 H 0.39294 0.25312 0.31560
 H1079 H 0.48850 0.24793 0.43355
 H1080 H 0.34989 0.22878 0.36245
 C1081 C 0.01581 0.73809 0.06207
 C1082 C 0.03929 0.71907 0.06821
 C1083 C 0.05915 0.72152 0.09399
 C1084 C 0.08631 0.70676 0.09289
 C1085 C 0.10672 0.70952 0.11568
 C1086 C 0.10039 0.72710 0.14027
 C1087 C 0.07280 0.74098 0.14199
 C1088 C 0.05238 0.73840 0.11903
 C1089 C 0.12184 0.73084 0.16455
 C1090 C 0.15229 0.72872 0.16045
 H1091 H 0.04500 0.70272 0.05184
 H1092 H 0.09199 0.69334 0.07404
 H1093 H 0.12729 0.69761 0.11403
 H1094 H 0.06722 0.75425 0.16096
 H1095 H 0.03149 0.74958 0.12114
 H1096 H 0.11346 0.73693 0.18598
 H1097 H 0.00832 0.75366 0.07839
 H1098 H 0.16107 0.72517 0.13864
 C1099 C 0.53301 0.26897 0.56411
 C1100 C 0.55914 0.25329 0.56876
 C1101 C 0.57995 0.25755 0.59354
 C1102 C 0.60713 0.24289 0.59212
 C1103 C 0.62856 0.24724 0.61363
 C1104 C 0.62337 0.26644 0.63726
 C1105 C 0.59583 0.28038 0.63940
 C1106 C 0.57433 0.27620 0.61762
 C1107 C 0.64607 0.27133 0.66017
 C1108 C 0.67616 0.26944 0.65399
 H1109 H 0.56585 0.23789 0.55183
 H1110 H 0.61202 0.22820 0.57401
 H1111 H 0.64907 0.23523 0.61183
 H1112 H 0.59116 0.29492 0.65767
 H1113 H 0.55362 0.28772 0.61977
 H1114 H 0.63894 0.27675 0.68222
 H1115 H 0.52389 0.28285 0.58110
 H1116 H 0.68331 0.26662 0.63148
 C1117 C 0.95001 0.25754 0.03811
 C1118 C 0.94448 0.23853 0.06158
 C1119 C 0.91710 0.23904 0.07927
 C1120 C 0.91771 0.22672 0.10751
 C1121 C 0.89269 0.22720 0.12531
 C1122 C 0.86634 0.23998 0.11519
 C1123 C 0.86530 0.25120 0.08650
 C1124 C 0.89045 0.25089 0.06869
 C1125 C 0.83982 0.24163 0.13407
 C1126 C 0.84197 0.24415 0.16454
 H1127 H 0.96157 0.22316 0.06802
 H1128 H 0.93776 0.21694 0.11598
 H1129 H 0.89401 0.21728 0.14688
 H1130 H 0.84510 0.26065 0.07801
 H1131 H 0.88874 0.25963 0.04667
 H1132 H 0.81834 0.24254 0.12372
 H1133 H 0.93361 0.27354 0.03170
 H1134 H 0.86351 0.24575 0.17464
 C1135 C 0.43363 0.76143 0.53503
 C1136 C 0.42986 0.77518 0.56227
 C1137 C 0.40437 0.77060 0.58213
 C1138 C 0.40661 0.78090 0.61113
 C1139 C 0.38387 0.77627 0.63123
 C1140 C 0.35822 0.76114 0.62275
 C1141 C 0.35550 0.75162 0.59354
 C1142 C 0.37834 0.75616 0.57340
 C1143 C 0.33372 0.75563 0.64353
 C1144 C 0.33749 0.75458 0.67399
 H1145 H 0.44738 0.78927 0.57027
 H1146 H 0.42622 0.79240 0.61840
 H1147 H 0.38640 0.78493 0.65321
 H1148 H 0.33575 0.74033 0.58634
 H1149 H 0.37528 0.74840 0.55119
 H1150 H 0.31213 0.75109 0.63441
 H1151 H 0.41608 0.74847 0.52557
 H1152 H 0.35924 0.75697 0.68343
 C1153 C 0.23611 0.04390 0.97681
 C1154 C 0.24952 0.04724 0.94924
 C1155 C 0.25178 0.07530 0.93266
 C1156 C 0.26893 0.07548 0.90701
 C1157 C 0.27041 0.10049 0.88929
 C1158 C 0.25462 0.12601 0.89674
 C1159 C 0.23822 0.12633 0.92285
 C1160 C 0.23652 0.10113 0.94056
 C1161 C 0.25504 0.15233 0.87756
 C1162 C 0.25753 0.14995 0.84708
 H1163 H 0.26007 0.02843 0.93919
 H1164 H 0.28106 0.05603 0.90041
 H1165 H 0.28405 0.09978 0.86981
 H1166 H 0.22602 0.14584 0.92912
 H1167 H 0.22274 0.10197 0.95987
 H1168 H 0.25173 0.17379 0.88742
 H1169 H 0.22990 0.06357 0.98860
 H1170 H 0.25792 0.12834 0.83701
 C1171 C 0.73677 0.56425 0.45750
 C1172 C 0.71841 0.56803 0.43316
 C1173 C 0.71776 0.59506 0.41495
 C1174 C 0.70569 0.59327 0.38664
 C1175 C 0.70572 0.61772 0.36806
 C1176 C 0.71794 0.64460 0.37744
 C1177 C 0.72875 0.64683 0.40622
 C1178 C 0.72875 0.62233 0.42484
 C1179 C 0.71968 0.67052 0.35779
 C1180 C 0.72113 0.66781 0.32730
 H1181 H 0.70471 0.54975 0.42628
 H1182 H 0.69655 0.57272 0.37867
 H1183 H 0.69602 0.61544 0.34647
 H1184 H 0.73772 0.66747 0.41415
 H1185 H 0.73723 0.62504 0.44685
 H1186 H 0.72176 0.69215 0.36765
 H1187 H 0.75045 0.58219 0.46505
 H1188 H 0.72112 0.64619 0.31731
 C1189 C 0.76058 0.03906 0.04307
 C1190 C 0.77537 0.06614 0.04521
 C1191 C 0.77460 0.08622 0.07093
 C1192 C 0.75611 0.08179 0.09537
 C1193 C 0.75464 0.10291 0.11777
 C1194 C 0.77142 0.12890 0.11604
 C1195 C 0.79004 0.13307 0.09188
 C1196 C 0.79175 0.11193 0.06972
 C1197 C 0.76855 0.15302 0.13766
 C1198 C 0.75934 0.14902 0.16661
 H1199 H 0.78878 0.07330 0.02692
 H1200 H 0.74206 0.06267 0.09704
 H1201 H 0.73948 0.09934 0.13574
 H1202 H 0.80307 0.15298 0.08995
 H1203 H 0.80607 0.11609 0.05114
 H1204 H 0.77474 0.17496 0.13057
 H1205 H 0.75133 0.02989 0.06285
 H1206 H 0.75571 0.12706 0.17511
 C1207 C 0.26554 0.51991 0.55701
 C1208 C 0.25018 0.54639 0.56027
 C1209 C 0.25245 0.56618 0.58605
 C1210 C 0.24145 0.59493 0.58331
 C1211 C 0.24297 0.61467 0.60675
 C1212 C 0.25561 0.60608 0.63362
 C1213 C 0.26611 0.57717 0.63664
 C1214 C 0.26467 0.55738 0.61309
 C1215 C 0.25675 0.62625 0.65916
 C1216 C 0.25598 0.65687 0.65637
 H1217 H 0.23616 0.55361 0.54240
 H1218 H 0.23158 0.60220 0.56288
 H1219 H 0.23359 0.63636 0.60383
 H1220 H 0.27548 0.56987 0.65729
 H1221 H 0.27275 0.53526 0.61647
 H1222 H 0.25833 0.61662 0.68088
 H1223 H 0.27896 0.51152 0.57473
 H1224 H 0.25660 0.66689 0.63482
 C1225 C 0.74940 0.97842 0.93295
 C1226 C 0.73061 0.95459 0.92810
 C1227 C 0.73179 0.93563 0.90164
 C1228 C 0.71878 0.90767 0.90312
 C1229 C 0.72089 0.88814 0.87957
 C1230 C 0.73618 0.89616 0.85393
 C1231 C 0.74783 0.92467 0.85175
 C1232 C 0.74575 0.94427 0.87539
 C1233 C 0.74025 0.87518 0.82940
 C1234 C 0.74182 0.84490 0.83420
 H1235 H 0.71543 0.94837 0.94538
 H1236 H 0.70740 0.90065 0.92283
 H1237 H 0.71048 0.86680 0.88156
 H1238 H 0.75914 0.93156 0.83197
 H1239 H 0.75512 0.96599 0.87283
 H1240 H 0.74361 0.88378 0.80746
 H1241 H 0.76438 0.98553 0.91595
 H1242 H 0.74073 0.83646 0.85641
 C1243 C 0.26172 0.45352 0.44805
 C1244 C 0.27662 0.42667 0.44515
 C1245 C 0.27321 0.40589 0.42023
 C1246 C 0.28418 0.37715 0.42355
 C1247 C 0.28131 0.35643 0.40103
 C1248 C 0.26734 0.36402 0.37453
 C1249 C 0.25685 0.39291 0.37094
 C1250 C 0.25963 0.41364 0.39353
 C1251 C 0.26451 0.34297 0.34980
 C1252 C 0.26616 0.31235 0.35294
 H1253 H 0.29097 0.41979 0.46288
 H1254 H 0.29502 0.37063 0.44374
 H1255 H 0.29059 0.33476 0.40438
 H1256 H 0.24641 0.39945 0.35056
 H1257 H 0.25142 0.43563 0.38969
 H1258 H 0.26045 0.35206 0.32816
 H1259 H 0.24819 0.46176 0.43034
 H1260 H 0.26830 0.30257 0.37449
 C1261 C 0.21935 0.93229 0.03385
 C1262 C 0.20111 0.92923 0.05844
 C1263 C 0.20516 0.90708 0.08207
 C1264 C 0.18748 0.90939 0.10728
 C1265 C 0.19206 0.89093 0.13140
 C1266 C 0.21419 0.86945 0.13076
 C1267 C 0.23178 0.86682 0.10545
 C1268 C 0.22731 0.88539 0.08135
 C1269 C 0.21876 0.85068 0.15697
 C1270 C 0.23081 0.82250 0.15528
 H1271 H 0.18441 0.94591 0.06200
 H1272 H 0.17041 0.92601 0.10861
 H1273 H 0.17828 0.89348 0.15065
 H1274 H 0.24958 0.85102 0.10444
 H1275 H 0.24170 0.88288 0.06266
 H1276 H 0.21047 0.85843 0.17790
 H1277 H 0.23446 0.91496 0.02781
 H1278 H 0.23658 0.81336 0.13409
 C1279 C 0.74676 0.45328 0.51957
 C1280 C 0.76445 0.44983 0.54444
 C1281 C 0.76589 0.42272 0.56260
 C1282 C 0.78681 0.42158 0.58529
 C1283 C 0.78803 0.39749 0.60428
 C1284 C 0.76816 0.37397 0.60113
 C1285 C 0.74796 0.37444 0.57782
 C1286 C 0.74660 0.39867 0.55885
 C1287 C 0.76766 0.34926 0.62231
 C1288 C 0.77426 0.35367 0.65190
 H1289 H 0.77840 0.46808 0.55094
 H1290 H 0.80211 0.43960 0.58859
 H1291 H 0.80454 0.39740 0.62144
 H1292 H 0.73255 0.35646 0.57488
 H1293 H 0.72995 0.39852 0.54191
 H1294 H 0.75956 0.32800 0.61511
 H1295 H 0.73454 0.43478 0.51101
 H1296 H 0.77956 0.37563 0.65954
 C1297 C 0.04470 0.05558 0.75543
 C1298 C 0.07142 0.05625 0.74011
 C1299 C 0.09468 0.07898 0.74359
 C1300 C 0.09088 0.10485 0.76021
 C1301 C 0.11418 0.12478 0.76371
 C1302 C 0.14171 0.11934 0.75056
 C1303 C 0.14540 0.09359 0.73400
 C1304 C 0.12215 0.07377 0.73041
 C1305 C 0.16722 0.13945 0.75411
 C1306 C 0.16449 0.16921 0.76123
 H1307 H 0.07636 0.03789 0.72572
 H1308 H 0.07019 0.10988 0.77076
 H1309 H 0.11062 0.14402 0.77725
 H1310 H 0.16638 0.08878 0.72373
 H1311 H 0.12583 0.05402 0.71757
 H1312 H 0.18894 0.13079 0.74934
 H1313 H 0.03807 0.07396 0.76893
 H1314 H 0.14290 0.17885 0.76409
 C1315 C 0.52761 0.55716 0.24465
 C1316 C 0.55247 0.56014 0.22668
 C1317 C 0.57414 0.58455 0.22819
 C1318 C 0.56835 0.61163 0.24207
 C1319 C 0.59012 0.63352 0.24334
 C1320 C 0.61806 0.62872 0.23076
 C1321 C 0.62369 0.60172 0.21696
 C1322 C 0.60194 0.58005 0.21545
 C1323 C 0.64216 0.65070 0.23246
 C1324 C 0.63739 0.68089 0.23562
 H1325 H 0.55755 0.54235 0.21165
 H1326 H 0.54716 0.61612 0.25190
 H1327 H 0.58516 0.65382 0.25473
 H1328 H 0.64503 0.59739 0.20723
 H1329 H 0.60706 0.55941 0.20465
 H1330 H 0.66456 0.64285 0.22992
 H1331 H 0.52083 0.57499 0.25884
 H1332 H 0.61512 0.68938 0.23615
 C1333 C 0.05289 0.97199 0.25414
 C1334 C 0.05745 0.94831 0.23491
 C1335 C 0.08068 0.92562 0.23817
 C1336 C 0.07641 0.89822 0.22445
 C1337 C 0.09718 0.87568 0.22734
 C1338 C 0.12290 0.88016 0.24390
 C1339 C 0.12752 0.90778 0.25710
 C1340 C 0.10658 0.93027 0.25445
 C1341 C 0.14594 0.85720 0.24669
 C1342 C 0.14091 0.82693 0.24324
 H1343 H 0.04111 0.94454 0.21793
 H1344 H 0.05674 0.89412 0.21157
 H1345 H 0.09323 0.85506 0.21610
 H1346 H 0.14741 0.91193 0.26961
 H1347 H 0.11098 0.95124 0.26482
 H1348 H 0.16784 0.86454 0.25271
 H1349 H 0.06884 0.97718 0.27102
 H1350 H 0.11884 0.81869 0.23959
 C1351 C 0.56129 0.46909 0.73516
 C1352 C 0.57006 0.44769 0.75513
 C1353 C 0.59426 0.42729 0.74864
 C1354 C 0.61395 0.41941 0.77098
 C1355 C 0.63619 0.39892 0.76548
 C1356 C 0.63837 0.38544 0.73780
 C1357 C 0.61839 0.39298 0.71560
 C1358 C 0.59672 0.41414 0.72082
 C1359 C 0.66008 0.36209 0.73250
 C1360 C 0.68876 0.36416 0.74299
 H1361 H 0.55908 0.44610 0.77620
 H1362 H 0.61208 0.42909 0.79265
 H1363 H 0.65103 0.39288 0.78312
 H1364 H 0.61956 0.38247 0.69426
 H1365 H 0.58127 0.41948 0.70348
 H1366 H 0.65344 0.34303 0.71977
 H1367 H 0.57451 0.47343 0.71583
 H1368 H 0.69654 0.38461 0.75250
 C1369 C 0.93868 0.02950 0.25867
 C1370 C 0.93313 0.05387 0.27666
 C1371 C 0.90762 0.07397 0.27318
 C1372 C 0.90963 0.10238 0.28519
 C1373 C 0.88679 0.12268 0.28156
 C1374 C 0.86126 0.11493 0.26586
 C1375 C 0.85876 0.08621 0.25471
 C1376 C 0.88173 0.06591 0.25818
 C1377 C 0.83665 0.13593 0.26148
 C1378 C 0.84032 0.16651 0.26166
 H1379 H 0.94958 0.05991 0.29283
 H1380 H 0.92915 0.10906 0.29717
 H1381 H 0.88912 0.14423 0.29142
 H1382 H 0.83909 0.07953 0.24298
 H1383 H 0.87889 0.04401 0.24931
 H1384 H 0.81508 0.12693 0.25663
 H1385 H 0.92244 0.02252 0.24276
 H1386 H 0.86209 0.17589 0.26418
 C1387 C 0.45248 0.53353 0.74746
 C1388 C 0.44584 0.55810 0.73030
 C1389 C 0.41825 0.57510 0.73340
 C1390 C 0.41808 0.60466 0.72457
 C1391 C 0.39277 0.62178 0.72778
 C1392 C 0.36699 0.60958 0.73982
 C1393 C 0.36670 0.57968 0.74746
 C1394 C 0.39213 0.56255 0.74441
 C1395 C 0.34016 0.62753 0.74412
 C1396 C 0.34173 0.65760 0.74999
 H1397 H 0.46195 0.56593 0.71460
 H1398 H 0.43773 0.61466 0.71547
 H1399 H 0.39342 0.64446 0.72051
 H1400 H 0.34690 0.56967 0.75619
 H1401 H 0.39106 0.53953 0.75037
 H1402 H 0.31891 0.61668 0.74371
 H1403 H 0.43666 0.52574 0.76340
 H1404 H 0.36304 0.66798 0.75267
 C1405 C 0.97507 0.94836 0.75854
 C1406 C 0.94726 0.94592 0.77145
 C1407 C 0.92811 0.91947 0.76921
 C1408 C 0.89844 0.92223 0.77734
 C1409 C 0.87908 0.89850 0.77458
 C1410 C 0.88893 0.87132 0.76344
 C1411 C 0.91884 0.86810 0.75646
 C1412 C 0.93828 0.89190 0.75922
 C1413 C 0.86858 0.84612 0.75918
 C1414 C 0.83858 0.85016 0.75387
 H1415 H 0.93851 0.96481 0.78306
 H1416 H 0.89007 0.94298 0.78561
 H1417 H 0.85648 0.90154 0.78143
 H1418 H 0.92710 0.84723 0.74840
 H1419 H 0.96110 0.88834 0.75356
 H1420 H 0.87760 0.82403 0.75896
 H1421 H 0.98470 0.92964 0.74753
 H1422 H 0.82985 0.87226 0.75204
 C1423 C 0.46292 0.44669 0.24677
 C1424 C 0.43428 0.44614 0.23528
 C1425 C 0.41233 0.42241 0.23998
 C1426 C 0.41719 0.39851 0.25903
 C1427 C 0.39505 0.37759 0.26373
 C1428 C 0.36761 0.38012 0.24950
 C1429 C 0.36261 0.40424 0.23099
 C1430 C 0.38475 0.42505 0.22618
 C1431 C 0.34401 0.35789 0.25322
 C1432 C 0.35036 0.32838 0.25853
 H1433 H 0.42694 0.46511 0.22281
 H1434 H 0.43773 0.39599 0.27077
 H1435 H 0.39935 0.35977 0.27891
 H1436 H 0.34163 0.40679 0.21991
 H1437 H 0.38020 0.44344 0.21170
 H1438 H 0.32147 0.36423 0.24856
 H1439 H 0.47234 0.42714 0.25644
 H1440 H 0.37311 0.32146 0.26041
   
