data_POSCAR
  _audit_creation_date              2014-09-24
  _audit_creation_method            'ToBaCCo'
  _symmetry_space_group_name_H-M    'P1'
  _symmetry_Int_Tables_number       1
  _symmetry_cell_setting            triclinic
  loop_
  _symmetry_equiv_pos_as_xyz
 x,y,z
_cell_length_a 62.2835
_cell_length_b 62.3411
_cell_length_c 62.1228
_cell_angle_alpha 89.941000
_cell_angle_beta 89.974000
_cell_angle_gamma 89.974400
loop_
  _atom_site_label
  _atom_site_type_symbol
  _atom_site_fract_x
  _atom_site_fract_y
  _atom_site_fract_z
O1 O 0.34371 0.37240 0.02167
 O2 O 0.37298 0.34428 -0.02145
 O3 O 0.34313 0.37354 -0.02030
 O4 O 0.37347 0.34293 0.02041
 O5 O 0.34852 0.31771 0.01999
 O6 O 0.31823 0.34827 -0.02065
 O7 O 0.34804 0.31904 -0.02182
 O8 O 0.31879 0.34714 0.02128
 Cu9 Cu 0.36082 0.36085 0.00015
 Cu10 Cu 0.33086 0.33052 -0.00032
 C11 C 0.32630 0.36452 0.02874
 C12 C 0.36546 0.32689 -0.02888
 C13 C 0.32558 0.36602 -0.02738
 C14 C 0.36616 0.32510 0.02698
 O15 O 0.62833 0.65645 -0.02354
 O16 O 0.65688 0.62843 0.02009
 O17 O 0.62714 0.65781 0.01833
 O18 O 0.65840 0.62738 -0.02177
 O19 O 0.68319 0.65276 -0.02169
 O20 O 0.65201 0.68312 0.01833
 O21 O 0.68172 0.65377 0.02013
 O22 O 0.65315 0.68181 -0.02351
 Cu23 Cu 0.64018 0.63996 -0.00173
 Cu24 Cu 0.67002 0.67042 -0.00169
 C25 C 0.63589 0.67389 -0.03086
 C26 C 0.67413 0.63634 0.02745
 C27 C 0.63431 0.67563 0.02507
 C28 C 0.67611 0.63493 -0.02845
 O29 O 0.62948 0.34403 1.02111
 O30 O 0.65786 0.37262 0.97768
 O31 O 0.62854 0.34279 0.97925
 O32 O 0.65899 0.37365 1.01956
 O33 O 0.68422 0.34868 1.01960
 O34 O 0.65382 0.31787 0.97935
 O35 O 0.68311 0.34767 0.97775
 O36 O 0.65473 0.31908 1.02118
 Cu37 Cu 0.64117 0.36080 0.99939
 Cu38 Cu 0.67152 0.33081 0.99947
 C39 C 0.63728 0.32670 1.02843
 C40 C 0.67531 0.36500 0.97042
 C41 C 0.63602 0.32508 0.97255
 C42 C 0.67678 0.36638 1.02635
 O43 O 0.33952 0.62973 0.98090
 O44 O 0.36930 0.65799 1.02352
 O45 O 0.33955 0.62861 1.02269
 O46 O 0.36928 0.65921 0.98160
 O47 O 0.34427 0.68440 0.98232
 O48 O 0.31456 0.65382 1.02338
 O49 O 0.34429 0.68318 1.02421
 O50 O 0.31453 0.65493 0.98161
 Cu51 Cu 0.35696 0.64136 1.00209
 Cu52 Cu 0.32691 0.67164 1.00294
 C53 C 0.32191 0.63747 0.97419
 C54 C 0.36181 0.67536 1.03106
 C55 C 0.32198 0.63600 1.02989
 C56 C 0.36181 0.67700 0.97507
 O57 O -0.02395 0.37113 0.34241
 O58 O 0.01763 0.34042 0.37122
 O59 O 0.01780 0.37025 0.34168
 O60 O -0.02417 0.34137 0.37180
 O61 O -0.02504 0.31650 0.34645
 O62 O 0.01689 0.34536 0.31636
 O63 O 0.01673 0.31555 0.34588
 O64 O -0.02484 0.34624 0.31707
 Cu65 Cu -0.00304 0.35830 0.35934
 Cu66 Cu -0.00412 0.32839 0.32889
 C67 C -0.03141 0.36386 0.32487
 C68 C 0.02414 0.32275 0.36346
 C69 C 0.02433 0.36274 0.32387
 C70 C -0.03172 0.32407 0.36418
 O71 O -0.01935 0.62570 0.65469
 O72 O 0.02242 0.65487 0.62445
 O73 O 0.02251 0.62545 0.65433
 O74 O -0.01943 0.65513 0.62487
 O75 O -0.01905 0.68031 0.64990
 O76 O 0.02283 0.65068 0.67933
 O77 O 0.02274 0.68005 0.64949
 O78 O -0.01897 0.65092 0.67969
 Cu79 Cu 0.00151 0.63774 0.63706
 Cu80 Cu 0.00193 0.66803 0.66712
 C81 C -0.02622 0.63340 0.67229
 C82 C 0.02961 0.67240 0.63187
 C83 C 0.02973 0.63306 0.67182
 C84 C -0.02632 0.67274 0.63242
 O85 O 1.02176 0.63031 0.34085
 O86 O 0.97978 0.66076 0.36933
 O87 O 0.97994 0.63067 0.34011
 O88 O 1.02148 0.66055 0.36979
 O89 O 1.02198 0.68512 0.34409
 O90 O 0.98049 0.65530 0.31448
 O91 O 0.98031 0.68537 0.34367
 O92 O 1.02228 0.65491 0.31517
 Cu93 Cu 1.00067 0.64307 0.35759
 Cu94 Cu 1.00130 0.67263 0.32674
 C95 C 1.02911 0.63747 0.32320
 C96 C 0.97308 0.67828 0.36140
 C97 C 0.97325 0.63793 0.32225
 C98 C 1.02867 0.67794 0.36198
 O99 O 0.98018 0.34005 0.62889
 O100 O 1.02137 0.36978 0.65924
 O101 O 1.02198 0.34046 0.62933
 O102 O 0.97965 0.36954 0.65871
 O103 O 0.97956 0.34430 0.68376
 O104 O 1.02187 0.31523 0.65438
 O105 O 1.02126 0.34452 0.68427
 O106 O 0.98010 0.31484 0.65396
 Cu107 Cu 1.00079 0.35750 0.64151
 Cu108 Cu 1.00068 0.32716 0.67160
 C109 C 0.97325 0.32238 0.63628
 C110 C 1.02819 0.36221 0.67693
 C111 C 1.02903 0.32291 0.63687
 C112 C 0.97257 0.36190 0.67626
 O113 O 0.37403 0.02281 0.34342
 O114 O 0.34457 -0.01943 0.37263
 O115 O 0.37413 -0.01892 0.34283
 O116 O 0.34445 0.02241 0.37307
 O117 O 0.31935 0.02264 0.34791
 O118 O 0.34898 -0.01863 0.31772
 O119 O 0.31945 -0.01915 0.34749
 O120 O 0.34889 0.02306 0.31829
 Cu121 Cu 0.36182 0.00166 0.36054
 Cu122 Cu 0.33161 0.00199 0.33034
 C123 C 0.36644 0.03003 0.32590
 C124 C 0.32702 -0.02639 0.36500
 C125 C 0.36661 -0.02566 0.32511
 C126 C 0.32691 0.02953 0.36555
 O127 O 0.62854 0.02057 0.65882
 O128 O 0.65916 -0.02123 0.63024
 O129 O 0.62891 -0.02118 0.65944
 O130 O 0.65860 0.02051 0.62973
 O131 O 0.68323 0.02105 0.65537
 O132 O 0.65356 -0.02060 0.68504
 O133 O 0.68378 -0.02066 0.65587
 O134 O 0.65319 0.02112 0.68442
 Cu135 Cu 0.64131 -0.00044 0.64197
 Cu136 Cu 0.67092 0.00024 0.67276
 C137 C 0.63573 0.02792 0.67643
 C138 C 0.67671 -0.02790 0.63816
 C139 C 0.63616 -0.02783 0.67732
 C140 C 0.67591 0.02783 0.63756
 O141 O 0.36878 0.97905 0.65988
 O142 O 0.33939 1.02117 0.63048
 O143 O 0.36909 1.02081 0.66015
 O144 O 0.33912 0.97949 0.63032
 O145 O 0.31407 0.97954 0.65557
 O146 O 0.34402 1.02084 0.68538
 O147 O 0.31434 1.02120 0.65573
 O148 O 0.34371 0.97910 0.68510
 Cu149 Cu 0.35664 1.00015 0.64267
 Cu150 Cu 0.32652 1.00020 0.67300
 C151 C 0.36120 0.97197 0.67746
 C152 C 0.32183 1.02818 0.63807
 C153 C 0.36165 1.02773 0.67785
 C154 C 0.32151 0.97260 0.63789
 O155 O 0.65902 1.01946 0.37178
 O156 O 0.62943 0.97781 0.34193
 O157 O 0.65837 0.97771 0.37217
 O158 O 0.62986 1.01957 0.34153
 O159 O 0.65543 1.01903 0.31683
 O160 O 0.68394 0.97719 0.34745
 O161 O 0.65502 0.97732 0.31725
 O162 O 0.68456 1.01890 0.34705
 Cu163 Cu 0.64159 0.99873 0.35934
 Cu164 Cu 0.67231 0.99809 0.32966
 C165 C 0.67686 1.02611 0.36451
 C166 C 0.63725 0.97054 0.32455
 C167 C 0.67597 0.97039 0.36497
 C168 C 0.63777 1.02628 0.32395
 C169 C 0.81395 0.81233 0.51284
 C170 C 0.81393 0.81239 0.49089
 C171 C 0.82932 0.79923 0.47826
 C172 C 0.79893 0.82613 0.47836
 C173 C 0.80075 0.82771 0.52544
 C174 C 0.82768 0.79729 0.52534
 C175 C 0.85157 0.80109 0.48157
 C176 C 0.86590 0.78870 0.46952
 C177 C 0.85816 0.77448 0.45391
 C178 C 0.83604 0.77278 0.45032
 C179 C 0.82169 0.78515 0.46238
 C180 C 0.80709 0.84024 0.46274
 C181 C 0.79327 0.85363 0.45120
 C182 C 0.77114 0.85297 0.45502
 C183 C 0.76282 0.83864 0.47027
 C184 C 0.77664 0.82520 0.48182
 C185 C 0.78650 0.82010 0.54122
 C186 C 0.77383 0.83443 0.55298
 C187 C 0.77542 0.85653 0.54920
 C188 C 0.78988 0.86425 0.53377
 C189 C 0.80257 0.84993 0.52202
 C190 C 0.82677 0.77504 0.52176
 C191 C 0.84045 0.76120 0.53300
 C192 C 0.85499 0.76944 0.54806
 C193 C 0.85556 0.79152 0.55209
 C194 C 0.84192 0.80537 0.54085
 H195 H 0.85781 0.81219 0.49342
 H196 H 0.88299 0.79023 0.47234
 H197 H 0.82989 0.76189 0.43823
 H198 H 0.80461 0.78363 0.45947
 H199 H 0.82420 0.84113 0.45976
 H200 H 0.79987 0.86463 0.43941
 H201 H 0.76999 0.81415 0.49352
 H202 H 0.78500 0.80304 0.54420
 H203 H 0.76275 0.82829 0.56493
 H204 H 0.79132 0.88131 0.53081
 H205 H 0.81378 0.85616 0.51025
 H206 H 0.81563 0.76845 0.51014
 H207 H 0.83982 0.74413 0.52982
 H208 H 0.86672 0.79806 0.56373
 H209 H 0.84281 0.82245 0.54391
 H210 H 0.74571 0.83794 0.47330
 C211 C 0.18697 0.18781 0.51001
 C212 C 0.18681 0.18812 0.48806
 C213 C 0.17107 0.20124 0.47580
 C214 C 0.20187 0.17477 0.47522
 C215 C 0.20052 0.17243 0.52225
 C216 C 0.17309 0.20232 0.52291
 C217 C 0.14889 0.19898 0.47936
 C218 C 0.13424 0.21146 0.46778
 C219 C 0.14159 0.22615 0.45239
 C220 C 0.16364 0.22821 0.44852
 C221 C 0.17831 0.21576 0.46010
 C222 C 0.19377 0.16061 0.45965
 C223 C 0.20764 0.14726 0.44814
 C224 C 0.22978 0.14801 0.45195
 C225 C 0.23804 0.16247 0.46706
 C226 C 0.22417 0.17588 0.47857
 C227 C 0.21472 0.18002 0.53805
 C228 C 0.22742 0.16568 0.54977
 C229 C 0.22592 0.14361 0.54592
 C230 C 0.21159 0.13591 0.53038
 C231 C 0.19887 0.15024 0.51867
 C232 C 0.17354 0.22466 0.51981
 C233 C 0.15995 0.23800 0.53175
 C234 C 0.14597 0.22914 0.54702
 C235 C 0.14578 0.20696 0.55047
 C236 C 0.15931 0.19362 0.53855
 H237 H 0.14296 0.18755 0.49107
 H238 H 0.11721 0.20964 0.47082
 H239 H 0.16948 0.23947 0.43659
 H240 H 0.19532 0.21760 0.45701
 H241 H 0.17665 0.15957 0.45676
 H242 H 0.20109 0.13616 0.43646
 H243 H 0.23077 0.18695 0.49024
 H244 H 0.21608 0.19706 0.54115
 H245 H 0.23839 0.17179 0.56182
 H246 H 0.21020 0.11885 0.52738
 H247 H 0.18768 0.14403 0.50688
 H248 H 0.18432 0.23172 0.50810
 H249 H 0.16027 0.25516 0.52901
 H250 H 0.13504 0.19995 0.56226
 H251 H 0.15878 0.17646 0.54125
 H252 H 0.25515 0.16324 0.47008
 C253 C 0.18782 0.81337 0.48707
 C254 C 0.18783 0.81310 0.50903
 C255 C 0.17419 0.79792 0.52146
 C256 C 0.20094 0.82843 0.52172
 C257 C 0.20274 0.82727 0.47462
 C258 C 0.17244 0.80025 0.47444
 C259 C 0.16002 0.80584 0.53715
 C260 C 0.14658 0.79187 0.54846
 C261 C 0.14725 0.76981 0.54433
 C262 C 0.16167 0.76173 0.52904
 C263 C 0.17517 0.77570 0.51774
 C264 C 0.19888 0.85067 0.51859
 C265 C 0.21135 0.86495 0.53058
 C266 C 0.22582 0.85716 0.54596
 C267 C 0.22769 0.83504 0.54940
 C268 C 0.21524 0.82074 0.53740
 C269 C 0.22503 0.82647 0.47809
 C270 C 0.23876 0.84018 0.46675
 C271 C 0.23037 0.85466 0.45169
 C272 C 0.20824 0.85518 0.44782
 C273 C 0.19451 0.84151 0.45915
 C274 C 0.18006 0.78608 0.45863
 C275 C 0.16572 0.77342 0.44690
 C276 C 0.14362 0.77494 0.45076
 C277 C 0.13589 0.78934 0.46621
 C278 C 0.15021 0.80202 0.47792
 H279 H 0.15908 0.82290 0.54033
 H280 H 0.13552 0.79829 0.56027
 H281 H 0.16239 0.74468 0.52578
 H282 H 0.18625 0.76922 0.50598
 H283 H 0.18762 0.85693 0.50689
 H284 H 0.20969 0.88204 0.52789
 H285 H 0.21692 0.80366 0.54015
 H286 H 0.23175 0.81534 0.48967
 H287 H 0.25588 0.83958 0.46982
 H288 H 0.20158 0.86629 0.43618
 H289 H 0.17739 0.84232 0.45617
 H290 H 0.19713 0.78462 0.45561
 H291 H 0.17185 0.76238 0.43492
 H292 H 0.11881 0.79073 0.46923
 H293 H 0.14399 0.81317 0.48974
 H294 H 0.23878 0.82885 0.56132
 C295 C 0.81115 0.18684 0.48917
 C296 C 0.81184 0.18712 0.51111
 C297 C 0.82753 0.20059 0.52300
 C298 C 0.79741 0.17344 0.52431
 C299 C 0.79772 0.17116 0.47722
 C300 C 0.82435 0.20176 0.47601
 C301 C 0.84967 0.19885 0.51896
 C302 C 0.86427 0.21159 0.53028
 C303 C 0.85692 0.22602 0.54589
 C304 C 0.83492 0.22759 0.55022
 C305 C 0.82030 0.21488 0.53890
 C306 C 0.80620 0.15956 0.53978
 C307 C 0.79291 0.14607 0.55181
 C308 C 0.77067 0.14642 0.54861
 C309 C 0.76172 0.16056 0.53356
 C310 C 0.77501 0.17411 0.52153
 C311 C 0.78303 0.17842 0.46169
 C312 C 0.77037 0.16380 0.45031
 C313 C 0.77240 0.14176 0.45422
 C314 C 0.78722 0.13440 0.46947
 C315 C 0.79991 0.14900 0.48084
 C316 C 0.82334 0.22406 0.47923
 C317 C 0.83656 0.23780 0.46735
 C318 C 0.85072 0.22939 0.45200
 C319 C 0.85138 0.20726 0.44834
 C320 C 0.83821 0.19351 0.46022
 H321 H 0.85562 0.18760 0.50710
 H322 H 0.88128 0.21014 0.52690
 H323 H 0.82907 0.23864 0.56233
 H324 H 0.80331 0.21632 0.54236
 H325 H 0.82341 0.15888 0.54223
 H326 H 0.79999 0.13520 0.56344
 H327 H 0.76789 0.18497 0.50995
 H328 H 0.78124 0.19542 0.45855
 H329 H 0.75902 0.16966 0.43849
 H330 H 0.78902 0.11738 0.47252
 H331 H 0.81146 0.14305 0.49242
 H332 H 0.81249 0.23076 0.49108
 H333 H 0.83588 0.25492 0.47025
 H334 H 0.86226 0.20060 0.43649
 H335 H 0.83916 0.17639 0.45744
 H336 H 0.74452 0.16101 0.53103
 C337 C 0.50906 0.81135 0.81174
 C338 C 0.48719 0.81131 0.81255
 C339 C 0.47410 0.82524 0.79823
 C340 C 0.47524 0.79794 0.82834
 C341 C 0.52214 0.79632 0.82491
 C342 C 0.52107 0.82694 0.79823
 C343 C 0.45893 0.83928 0.80724
 C344 C 0.44701 0.85299 0.79406
 C345 C 0.45000 0.85272 0.77174
 C346 C 0.46476 0.83843 0.76258
 C347 C 0.47669 0.82467 0.77575
 C348 C 0.47940 0.79960 0.85051
 C349 C 0.46796 0.78705 0.86522
 C350 C 0.45211 0.77289 0.85794
 C351 C 0.44769 0.77138 0.83590
 C352 C 0.45914 0.78391 0.82117
 C353 C 0.51870 0.77405 0.82404
 C354 C 0.53070 0.76021 0.83707
 C355 C 0.54639 0.76850 0.85089
 C356 C 0.55022 0.79061 0.85145
 C357 C 0.53822 0.80444 0.83849
 C358 C 0.53636 0.81955 0.78336
 C359 C 0.54790 0.83409 0.77071
 C360 C 0.54439 0.85616 0.77294
 C361 C 0.52936 0.86365 0.78792
 C362 C 0.51782 0.84913 0.80058
 H363 H 0.45663 0.83991 0.82451
 H364 H 0.43562 0.86397 0.80131
 H365 H 0.46715 0.83805 0.74531
 H366 H 0.48805 0.81370 0.76847
 H367 H 0.49143 0.81067 0.85641
 H368 H 0.47140 0.78844 0.88225
 H369 H 0.45558 0.78255 0.80416
 H370 H 0.50664 0.76743 0.81340
 H371 H 0.52767 0.74312 0.83646
 H372 H 0.56233 0.79718 0.86208
 H373 H 0.54118 0.82154 0.83933
 H374 H 0.53921 0.80252 0.78144
 H375 H 0.55956 0.82813 0.75924
 H376 H 0.52663 0.88071 0.78987
 H377 H 0.50644 0.85517 0.81229
 H378 H 0.43539 0.76054 0.83010
 C379 C 0.51358 0.18793 0.18761
 C380 C 0.49168 0.18818 0.18727
 C381 C 0.47877 0.17461 0.20210
 C382 C 0.47955 0.20158 0.17165
 C383 C 0.52648 0.20286 0.17414
 C384 C 0.52573 0.17229 0.20095
 C385 C 0.46315 0.16070 0.19370
 C386 C 0.45137 0.14735 0.20738
 C387 C 0.45495 0.14786 0.22962
 C388 C 0.47017 0.16202 0.23817
 C389 C 0.48195 0.17542 0.22450
 C390 C 0.48330 0.19979 0.14940
 C391 C 0.47187 0.21255 0.13487
 C392 C 0.45642 0.22705 0.14238
 C393 C 0.45236 0.22865 0.16449
 C394 C 0.46380 0.21591 0.17905
 C395 C 0.52319 0.22516 0.17512
 C396 C 0.53490 0.23892 0.16174
 C397 C 0.55014 0.23055 0.14746
 C398 C 0.55386 0.20842 0.14681
 C399 C 0.54216 0.19465 0.16014
 C400 C 0.54144 0.17959 0.21540
 C401 C 0.55296 0.16501 0.22802
 C402 C 0.54901 0.14297 0.22619
 C403 C 0.53361 0.13557 0.21157
 C404 C 0.52210 0.15013 0.19893
 H405 H 0.46039 0.15990 0.17651
 H406 H 0.43962 0.13648 0.20059
 H407 H 0.47301 0.16260 0.25536
 H408 H 0.49364 0.18631 0.23133
 H409 H 0.49506 0.18851 0.14333
 H410 H 0.47504 0.21108 0.11778
 H411 H 0.46056 0.21740 0.19612
 H412 H 0.51145 0.23185 0.18608
 H413 H 0.53195 0.25603 0.16242
 H414 H 0.56563 0.20177 0.13584
 H415 H 0.54500 0.17753 0.15921
 H416 H 0.54459 0.19660 0.21706
 H417 H 0.56489 0.17091 0.23923
 H418 H 0.53053 0.11854 0.20993
 H419 H 0.51039 0.14414 0.18754
 H420 H 0.44038 0.23975 0.17047
 C421 C 0.48888 0.18826 0.81206
 C422 C 0.51077 0.18823 0.81247
 C423 C 0.52357 0.17444 0.79777
 C424 C 0.52299 0.20152 0.82807
 C425 C 0.47611 0.20337 0.82542
 C426 C 0.47659 0.17273 0.79878
 C427 C 0.53897 0.16035 0.80632
 C428 C 0.55058 0.14675 0.79278
 C429 C 0.54706 0.14719 0.77053
 C430 C 0.53208 0.16154 0.76182
 C431 C 0.52046 0.17519 0.77536
 C432 C 0.51917 0.19979 0.85031
 C433 C 0.53064 0.21249 0.86483
 C434 C 0.54618 0.22688 0.85730
 C435 C 0.55033 0.22840 0.83519
 C436 C 0.53885 0.21572 0.82066
 C437 C 0.47963 0.22562 0.82436
 C438 C 0.46805 0.23954 0.83766
 C439 C 0.45270 0.23137 0.85195
 C440 C 0.44875 0.20928 0.85268
 C441 C 0.46033 0.19536 0.83944
 C442 C 0.46101 0.18018 0.78424
 C443 C 0.44934 0.16569 0.77169
 C444 C 0.45300 0.14362 0.77368
 C445 C 0.46828 0.13607 0.78838
 C446 C 0.47994 0.15053 0.80095
 H447 H 0.54166 0.15959 0.82353
 H448 H 0.56215 0.13573 0.79967
 H449 H 0.52929 0.16207 0.74462
 H450 H 0.50894 0.18621 0.76842
 H451 H 0.50731 0.18861 0.85639
 H452 H 0.52740 0.21109 0.88191
 H453 H 0.54214 0.21715 0.80359
 H454 H 0.49146 0.23215 0.81338
 H455 H 0.47117 0.25662 0.83691
 H456 H 0.43690 0.20279 0.86367
 H457 H 0.45731 0.17827 0.84043
 H458 H 0.45808 0.19721 0.78247
 H459 H 0.43749 0.17170 0.76043
 H460 H 0.47114 0.11901 0.79015
 H461 H 0.49155 0.14444 0.81241
 H462 H 0.56238 0.23942 0.82920
 C463 C 0.48932 0.81246 0.18808
 C464 C 0.51120 0.81213 0.18728
 C465 C 0.52446 0.82570 0.20175
 C466 C 0.52295 0.79869 0.17142
 C467 C 0.47608 0.79761 0.17491
 C468 C 0.47752 0.82817 0.20162
 C469 C 0.53987 0.83959 0.19294
 C470 C 0.55188 0.85305 0.20627
 C471 C 0.54873 0.85264 0.22858
 C472 C 0.53374 0.83847 0.23755
 C473 C 0.52174 0.82497 0.22422
 C474 C 0.51875 0.80052 0.14926
 C475 C 0.52982 0.78772 0.13450
 C476 C 0.54534 0.77314 0.14170
 C477 C 0.54985 0.77150 0.16372
 C478 C 0.53877 0.78427 0.17850
 C479 C 0.47928 0.77530 0.17583
 C480 C 0.46722 0.76161 0.16274
 C481 C 0.45172 0.77008 0.14879
 C482 C 0.44810 0.79223 0.14821
 C483 C 0.46016 0.80592 0.16125
 C484 C 0.46216 0.82095 0.21650
 C485 C 0.45100 0.83560 0.22934
 C486 C 0.45496 0.85761 0.22730
 C487 C 0.47002 0.86494 0.21226
 C488 C 0.48118 0.85031 0.19940
 H489 H 0.54228 0.84034 0.17568
 H490 H 0.56345 0.86393 0.19917
 H491 H 0.53123 0.83797 0.25480
 H492 H 0.51020 0.81410 0.23137
 H493 H 0.50693 0.81187 0.14343
 H494 H 0.52631 0.78922 0.11748
 H495 H 0.54235 0.78276 0.19550
 H496 H 0.49122 0.76854 0.18654
 H497 H 0.47010 0.74448 0.16337
 H498 H 0.43613 0.79894 0.13749
 H499 H 0.45738 0.82305 0.16037
 H500 H 0.45900 0.80396 0.21832
 H501 H 0.43931 0.82977 0.24087
 H502 H 0.47311 0.88195 0.21045
 H503 H 0.49263 0.85623 0.18770
 H504 H 0.56189 0.76032 0.16946
 C505 C 0.81356 0.51176 0.81201
 C506 C 0.81343 0.48988 0.81161
 C507 C 0.79845 0.47716 0.82519
 C508 C 0.82870 0.47753 0.79805
 C509 C 0.82731 0.52448 0.79718
 C510 C 0.80038 0.52401 0.82770
 C511 C 0.80663 0.46129 0.83900
 C512 C 0.79285 0.44956 0.85228
 C513 C 0.77072 0.45345 0.85180
 C514 C 0.76238 0.46894 0.83776
 C515 C 0.77616 0.48068 0.82443
 C516 C 0.85097 0.48066 0.79992
 C517 C 0.86518 0.46887 0.78715
 C518 C 0.85729 0.45369 0.77256
 C519 C 0.83514 0.45028 0.77085
 C520 C 0.82092 0.46208 0.78360
 C521 C 0.82637 0.52143 0.77478
 C522 C 0.84004 0.53292 0.76112
 C523 C 0.85460 0.54773 0.76969
 C524 C 0.85523 0.55123 0.79194
 C525 C 0.84161 0.53974 0.80561
 C526 C 0.78608 0.53982 0.82036
 C527 C 0.77335 0.55120 0.83495
 C528 C 0.77493 0.54701 0.85704
 C529 C 0.78945 0.53155 0.86451
 C530 C 0.80220 0.52018 0.84993
 H531 H 0.82374 0.45827 0.83977
 H532 H 0.79947 0.43760 0.86306
 H533 H 0.74527 0.47202 0.83721
 H534 H 0.76949 0.49257 0.81361
 H535 H 0.85731 0.49218 0.81130
 H536 H 0.88230 0.47153 0.78869
 H537 H 0.80382 0.45932 0.78206
 H538 H 0.81519 0.51002 0.76793
 H539 H 0.83936 0.53015 0.74392
 H540 H 0.86641 0.56267 0.79874
 H541 H 0.84252 0.54240 0.82281
 H542 H 0.78456 0.54311 0.80330
 H543 H 0.76222 0.56318 0.82902
 H544 H 0.79089 0.52827 0.88158
 H545 H 0.81344 0.50835 0.85595
 H546 H 0.82888 0.43852 0.75967
 C547 C 0.18724 0.50841 0.18823
 C548 C 0.18698 0.48654 0.18855
 C549 C 0.20196 0.47365 0.17514
 C550 C 0.17123 0.47441 0.20177
 C551 C 0.17344 0.52134 0.20282
 C552 C 0.20082 0.52054 0.17278
 C553 C 0.19375 0.45808 0.16104
 C554 C 0.20755 0.44641 0.14773
 C555 C 0.22971 0.45006 0.14847
 C556 C 0.23807 0.46518 0.16285
 C557 C 0.22428 0.47685 0.17622
 C558 C 0.14907 0.47804 0.19953
 C559 C 0.13440 0.46661 0.21212
 C560 C 0.14172 0.45130 0.22690
 C561 C 0.16376 0.44735 0.22894
 C562 C 0.17844 0.45879 0.21637
 C563 C 0.17396 0.51825 0.22524
 C564 C 0.16049 0.53022 0.23868
 C565 C 0.14657 0.54552 0.22985
 C566 C 0.14631 0.54896 0.20758
 C567 C 0.15972 0.53700 0.19415
 C568 C 0.21508 0.53623 0.18039
 C569 C 0.22782 0.54785 0.16599
 C570 C 0.22630 0.54401 0.14384
 C571 C 0.21191 0.52859 0.13613
 C572 C 0.19914 0.51697 0.15051
 H573 H 0.17662 0.45530 0.16003
 H574 H 0.20091 0.43473 0.13668
 H575 H 0.25520 0.46807 0.16361
 H576 H 0.23096 0.48851 0.18725
 H577 H 0.14316 0.48970 0.18803
 H578 H 0.11738 0.46969 0.21033
 H579 H 0.19545 0.45565 0.21819
 H580 H 0.18470 0.50653 0.23229
 H581 H 0.16088 0.52750 0.25590
 H582 H 0.13562 0.56078 0.20059
 H583 H 0.15915 0.53969 0.17693
 H584 H 0.21646 0.53932 0.19749
 H585 H 0.23885 0.55981 0.17212
 H586 H 0.21051 0.52560 0.11901
 H587 H 0.18791 0.50526 0.14429
 H588 H 0.16958 0.43547 0.24027
 C589 C 0.81108 0.49084 0.18730
 C590 C 0.81134 0.51270 0.18778
 C591 C 0.79651 0.52570 0.17432
 C592 C 0.82694 0.52472 0.20124
 C593 C 0.82456 0.47782 0.20211
 C594 C 0.79780 0.47885 0.17151
 C595 C 0.80484 0.54146 0.16047
 C596 C 0.79118 0.55324 0.14713
 C597 C 0.76902 0.54954 0.14760
 C598 C 0.76053 0.53422 0.16173
 C599 C 0.77419 0.52243 0.17513
 C600 C 0.84913 0.52108 0.19923
 C601 C 0.86367 0.53254 0.21192
 C602 C 0.85620 0.54787 0.22658
 C603 C 0.83414 0.55178 0.22844
 C604 C 0.81958 0.54032 0.21577
 C605 C 0.82360 0.48085 0.22452
 C606 C 0.83696 0.46901 0.23817
 C607 C 0.85122 0.45390 0.22958
 C608 C 0.85186 0.45045 0.20733
 C609 C 0.83855 0.46229 0.19367
 C610 C 0.78341 0.46306 0.17871
 C611 C 0.77082 0.45172 0.16398
 C612 C 0.77262 0.45593 0.14192
 C613 C 0.78717 0.47143 0.13460
 C614 C 0.79979 0.48276 0.14931
 H615 H 0.82198 0.54429 0.15968
 H616 H 0.79791 0.56507 0.13626
 H617 H 0.74339 0.53127 0.16226
 H618 H 0.76741 0.51063 0.18597
 H619 H 0.85516 0.50944 0.18780
 H620 H 0.88071 0.52949 0.21025
 H621 H 0.80256 0.54346 0.21742
 H622 H 0.81265 0.49248 0.23138
 H623 H 0.83628 0.47174 0.25538
 H624 H 0.86282 0.43878 0.20052
 H625 H 0.83946 0.45965 0.17646
 H626 H 0.78178 0.45970 0.19574
 H627 H 0.75967 0.43970 0.16980
 H628 H 0.78879 0.47472 0.11755
 H629 H 0.81112 0.49455 0.14340
 H630 H 0.82820 0.56367 0.23966
 C631 C 0.18721 0.48875 0.81371
 C632 C 0.18737 0.51062 0.81346
 C633 C 0.20051 0.52318 0.82892
 C634 C 0.17390 0.52311 0.79819
 C635 C 0.17183 0.47625 0.80043
 C636 C 0.20196 0.47624 0.82774
 C637 C 0.19836 0.52003 0.85123
 C638 C 0.21085 0.53189 0.86562
 C639 C 0.22543 0.54715 0.85789
 C640 C 0.22738 0.55061 0.83571
 C641 C 0.21492 0.53875 0.82129
 C642 C 0.15978 0.53881 0.80608
 C643 C 0.14650 0.55020 0.79201
 C644 C 0.14729 0.54614 0.76987
 C645 C 0.16166 0.53084 0.76180
 C646 C 0.17499 0.51945 0.77588
 C647 C 0.17946 0.46037 0.78635
 C648 C 0.16514 0.44865 0.77365
 C649 C 0.14304 0.45257 0.77504
 C650 C 0.13530 0.46812 0.78933
 C651 C 0.14961 0.47983 0.80205
 C652 C 0.22429 0.47953 0.82704
 C653 C 0.23786 0.46811 0.84086
 C654 C 0.22929 0.45316 0.85533
 C655 C 0.20712 0.44947 0.85575
 C656 C 0.19354 0.46088 0.84199
 H657 H 0.18701 0.50843 0.85746
 H658 H 0.20911 0.52918 0.88277
 H659 H 0.23856 0.56244 0.82956
 H660 H 0.21666 0.54152 0.80416
 H661 H 0.15875 0.54195 0.82320
 H662 H 0.13546 0.56203 0.79841
 H663 H 0.18604 0.50768 0.76942
 H664 H 0.19652 0.45727 0.78501
 H665 H 0.17129 0.43660 0.76270
 H666 H 0.11823 0.47118 0.79063
 H667 H 0.14337 0.49169 0.81314
 H668 H 0.23114 0.49102 0.81591
 H669 H 0.25500 0.47102 0.84033
 H670 H 0.20032 0.43790 0.86685
 H671 H 0.17640 0.45804 0.84272
 H672 H 0.16247 0.52764 0.74469
 C673 C 0.31477 0.37555 0.04538
 C674 C 0.30489 0.38481 0.05924
 C675 C 0.29283 0.39587 0.07559
 C676 C 0.29613 0.41782 0.07911
 C677 C 0.28390 0.42870 0.09452
 C678 C 0.26833 0.41768 0.10648
 C679 C 0.26518 0.39568 0.10310
 C680 C 0.27740 0.38480 0.08769
 C681 C 0.25511 0.42904 0.12167
 C682 C 0.24371 0.43860 0.13408
 H683 H 0.30798 0.42654 0.06981
 H684 H 0.28642 0.44572 0.09694
 H685 H 0.25313 0.38702 0.11220
 H686 H 0.27469 0.36784 0.08507
 C687 C 0.68542 0.62523 0.04420
 C688 C 0.69505 0.61575 0.05809
 C689 C 0.70676 0.60429 0.07441
 C690 C 0.70898 0.58197 0.07301
 C691 C 0.72097 0.57087 0.08844
 C692 C 0.73079 0.58203 0.10534
 C693 C 0.72841 0.60433 0.10686
 C694 C 0.71641 0.61544 0.09142
 C695 C 0.74388 0.57068 0.12065
 C696 C 0.75517 0.56108 0.13314
 H697 H 0.70163 0.57320 0.05990
 H698 H 0.72278 0.55364 0.08708
 H699 H 0.73600 0.61313 0.11982
 H700 H 0.71483 0.63271 0.09262
 C701 C 0.68657 0.37632 0.95377
 C702 C 0.69624 0.38589 0.93997
 C703 C 0.70807 0.39737 0.92373
 C704 C 0.72358 0.38671 0.91138
 C705 C 0.73565 0.39803 0.89615
 C706 C 0.73227 0.42006 0.89321
 C707 C 0.71662 0.43069 0.90540
 C708 C 0.70454 0.41936 0.92063
 C709 C 0.74539 0.43187 0.87825
 C710 C 0.75673 0.44173 0.86601
 H711 H 0.72649 0.36973 0.91367
 H712 H 0.74777 0.38967 0.88687
 H713 H 0.71392 0.44773 0.90331
 H714 H 0.69263 0.42778 0.93013
 C715 C 0.30987 0.62605 0.95822
 C716 C 0.29948 0.61626 0.94514
 C717 C 0.28681 0.60439 0.92989
 C718 C 0.27064 0.59058 0.93722
 C719 C 0.25824 0.57903 0.92249
 C720 C 0.26195 0.58123 0.90036
 C721 C 0.27812 0.59504 0.89301
 C722 C 0.29054 0.60661 0.90775
 C723 C 0.24915 0.56931 0.88526
 C724 C 0.23836 0.55925 0.87273
 H725 H 0.26762 0.58875 0.95430
 H726 H 0.24578 0.56839 0.92835
 H727 H 0.28113 0.59686 0.87592
 H728 H 0.30300 0.61725 0.90191
 C729 C 0.04003 0.31058 0.37488
 C730 C 0.05322 0.30021 0.38455
 C731 C 0.06881 0.28769 0.39618
 C732 C 0.07122 0.29045 0.41843
 C733 C 0.08612 0.27804 0.42979
 C734 C 0.09866 0.26282 0.41896
 C735 C 0.09630 0.26012 0.39670
 C736 C 0.08140 0.27252 0.38533
 C737 C 0.11384 0.24991 0.43070
 C738 C 0.12650 0.23908 0.44057
 H739 H 0.06155 0.30211 0.42698
 H740 H 0.08781 0.28026 0.44700
 H741 H 0.10590 0.24839 0.38816
 H742 H 0.07963 0.27024 0.36813
 C743 C 0.04575 0.68390 0.62008
 C744 C 0.05921 0.69378 0.61026
 C745 C 0.07515 0.70587 0.59863
 C746 C 0.09280 0.71456 0.60954
 C747 C 0.10790 0.72692 0.59839
 C748 C 0.10543 0.73063 0.57628
 C749 C 0.08788 0.72178 0.56534
 C750 C 0.07277 0.70943 0.57649
 C751 C 0.12049 0.74406 0.56498
 C752 C 0.13285 0.75562 0.55555
 H753 H 0.09477 0.71196 0.62667
 H754 H 0.12137 0.73375 0.60703
 H755 H 0.08576 0.72461 0.54826
 H756 H 0.05916 0.70283 0.56790
 C757 C 0.95735 0.69053 0.37294
 C758 C 0.94445 0.70100 0.38289
 C759 C 0.92940 0.71368 0.39502
 C760 C 0.93691 0.72925 0.40942
 C761 C 0.92238 0.74156 0.42131
 C762 C 0.90025 0.73838 0.41886
 C763 C 0.89272 0.72282 0.40446
 C764 C 0.90727 0.71049 0.39255
 C765 C 0.88533 0.75106 0.43116
 C766 C 0.87292 0.76172 0.44151
 H767 H 0.95399 0.73184 0.41147
 H768 H 0.92838 0.75354 0.43241
 H769 H 0.87564 0.72023 0.40244
 H770 H 0.90128 0.69850 0.38147
 C771 C 0.95756 0.31053 0.62429
 C772 C 0.94456 0.30033 0.61420
 C773 C 0.92925 0.28790 0.60215
 C774 C 0.90786 0.28659 0.60903
 C775 C 0.89310 0.27419 0.59750
 C776 C 0.89968 0.26304 0.57906
 C777 C 0.92105 0.26442 0.57214
 C778 C 0.93580 0.27682 0.58366
 C779 C 0.88457 0.25006 0.56734
 C780 C 0.87196 0.23913 0.55755
 H781 H 0.90263 0.29506 0.62332
 H782 H 0.87662 0.27322 0.60300
 H783 H 0.92631 0.25586 0.55791
 H784 H 0.95231 0.27769 0.57822
 C785 C 0.37800 0.04630 0.31438
 C786 C 0.38772 0.05984 0.30451
 C787 C 0.39933 0.07582 0.29250
 C788 C 0.42182 0.07557 0.29223
 C789 C 0.43311 0.09070 0.28003
 C790 C 0.42195 0.10615 0.26805
 C791 C 0.39946 0.10651 0.26845
 C792 C 0.38817 0.09138 0.28065
 C793 C 0.43355 0.12119 0.25485
 C794 C 0.44329 0.13351 0.24351
 H795 H 0.43062 0.06359 0.30129
 H796 H 0.45050 0.09023 0.27978
 H797 H 0.39066 0.11834 0.25918
 H798 H 0.37078 0.09169 0.28070
 C799 C 0.62387 0.04420 0.68760
 C800 C 0.61398 0.05782 0.69716
 C801 C 0.60224 0.07396 0.70881
 C802 C 0.61301 0.09175 0.71733
 C803 C 0.60172 0.10710 0.72923
 C804 C 0.57961 0.10472 0.73264
 C805 C 0.56881 0.08702 0.72395
 C806 C 0.58010 0.07167 0.71206
 C807 C 0.56814 0.12003 0.74560
 C808 C 0.55854 0.13258 0.75679
 H809 H 0.63014 0.09366 0.71495
 H810 H 0.61024 0.12069 0.73593
 H811 H 0.55173 0.08498 0.72656
 H812 H 0.57162 0.05795 0.70558
 C813 C 0.37270 0.95572 0.68905
 C814 C 0.38237 0.94224 0.69902
 C815 C 0.39391 0.92637 0.71124
 C816 C 0.40190 0.90791 0.70116
 C817 C 0.41322 0.89260 0.71313
 C818 C 0.41657 0.89572 0.73521
 C819 C 0.40855 0.91416 0.74527
 C820 C 0.39725 0.92944 0.73332
 C821 C 0.42834 0.88017 0.74761
 C822 C 0.43821 0.86746 0.75839
 H823 H 0.39941 0.90538 0.68409
 H824 H 0.41937 0.87841 0.70519
 H825 H 0.41107 0.91673 0.76233
 H826 H 0.39115 0.94365 0.74127
 C827 C 0.62574 0.95443 0.31279
 C828 C 0.61616 0.94102 0.30266
 C829 C 0.60480 0.92520 0.29025
 C830 C 0.59058 0.91097 0.30036
 C831 C 0.57935 0.89581 0.28816
 C832 C 0.58232 0.89483 0.26582
 C833 C 0.59661 0.90900 0.25574
 C834 C 0.60782 0.92414 0.26793
 C835 C 0.57049 0.87960 0.25310
 C836 C 0.56058 0.86713 0.24211
 H837 H 0.58811 0.91165 0.31761
 H838 H 0.56831 0.88495 0.29610
 H839 H 0.59899 0.90841 0.23848
 H840 H 0.61876 0.93507 0.25995
 C841 C 0.37697 0.31576 0.95455
 C842 C 0.38666 0.30617 0.94078
 C843 C 0.39822 0.29444 0.92457
 C844 C 0.38724 0.28551 0.90706
 C845 C 0.39838 0.27341 0.89173
 C846 C 0.42054 0.27020 0.89386
 C847 C 0.43156 0.27931 0.91126
 C848 C 0.42042 0.29140 0.92658
 C849 C 0.43185 0.25694 0.87868
 C850 C 0.44134 0.24547 0.86630
 H851 H 0.37006 0.28771 0.90538
 H852 H 0.38969 0.26637 0.87839
 H853 H 0.44868 0.27685 0.91311
 H854 H 0.42906 0.29818 0.94009
 C855 C 0.62456 0.68499 0.95242
 C856 C 0.61491 0.69450 0.93857
 C857 C 0.60326 0.70612 0.92231
 C858 C 0.58106 0.70321 0.92012
 C859 C 0.56958 0.71516 0.90492
 C860 C 0.58026 0.73005 0.89185
 C861 C 0.60250 0.73279 0.89387
 C862 C 0.61398 0.72084 0.90907
 C863 C 0.56832 0.74314 0.87699
 C864 C 0.55831 0.75448 0.86489
 H865 H 0.57261 0.69191 0.93032
 H866 H 0.55238 0.71299 0.90356
 H867 H 0.61090 0.74433 0.88390
 H868 H 0.63113 0.72326 0.91067
 C869 C 0.37347 0.68650 0.04750
 C870 C 0.38329 0.69608 0.06117
 C871 C 0.39502 0.70779 0.07727
 C872 C 0.38409 0.72116 0.09172
 C873 C 0.39556 0.73315 0.10685
 C874 C 0.41800 0.73183 0.10761
 C875 C 0.42892 0.71830 0.09331
 C876 C 0.41745 0.70631 0.07817
 C877 C 0.42986 0.74490 0.12252
 C878 C 0.43981 0.75619 0.13469
 H879 H 0.36676 0.72247 0.09112
 H880 H 0.38697 0.74362 0.11778
 H881 H 0.44628 0.71723 0.09370
 H882 H 0.42607 0.69607 0.06703
 C883 C 0.62601 0.31534 0.04504
 C884 C 0.61643 0.30558 0.05878
 C885 C 0.60486 0.29366 0.07489
 C886 C 0.58289 0.28963 0.07221
 C887 C 0.57175 0.27743 0.08745
 C888 C 0.58252 0.26920 0.10545
 C889 C 0.60445 0.27338 0.10824
 C890 C 0.61560 0.28560 0.09299
 C891 C 0.57120 0.25593 0.12065
 C892 C 0.56164 0.24453 0.13306
 H893 H 0.57444 0.29574 0.05824
 H894 H 0.55482 0.27423 0.08509
 H895 H 0.61295 0.26704 0.12207
 H896 H 0.63259 0.28857 0.09520
 C897 C 0.30997 0.04399 0.62624
 C898 C 0.29973 0.05696 0.61614
 C899 C 0.28723 0.07210 0.60393
 C900 C 0.29062 0.09418 0.60635
 C901 C 0.27830 0.10881 0.59453
 C902 C 0.26256 0.10140 0.58025
 C903 C 0.25920 0.07932 0.57781
 C904 C 0.27151 0.06470 0.58962
 C905 C 0.24976 0.11639 0.56817
 C906 C 0.23894 0.12884 0.55803
 H907 H 0.30273 0.10007 0.61738
 H908 H 0.28102 0.12585 0.59655
 H909 H 0.24707 0.07342 0.56682
 H910 H 0.26875 0.04766 0.58763
 C911 C 0.68810 0.04101 0.37576
 C912 C 0.69835 0.05401 0.38578
 C913 C 0.71087 0.06927 0.39779
 C914 C 0.70637 0.09125 0.39633
 C915 C 0.71874 0.10603 0.40786
 C916 C 0.73566 0.09889 0.42089
 C917 C 0.74013 0.07691 0.42238
 C918 C 0.72777 0.06214 0.41086
 C919 C 0.74852 0.11407 0.43265
 C920 C 0.75938 0.12671 0.44248
 H921 H 0.69336 0.09694 0.38626
 H922 H 0.71515 0.12299 0.40658
 H923 H 0.75318 0.07121 0.43240
 H924 H 0.73141 0.04519 0.41209
 C925 C 0.68899 0.95632 0.62673
 C926 C 0.69952 0.94331 0.61700
 C927 C 0.71232 0.92804 0.60526
 C928 C 0.71947 0.93295 0.58445
 C929 C 0.73219 0.91831 0.57313
 C930 C 0.73782 0.89868 0.58257
 C931 C 0.73063 0.89373 0.60336
 C932 C 0.71790 0.90838 0.61469
 C933 C 0.75106 0.88371 0.57094
 C934 C 0.76217 0.87128 0.56109
 H935 H 0.71528 0.94811 0.57701
 H936 H 0.73767 0.92230 0.55706
 H937 H 0.73490 0.87860 0.61082
 H938 H 0.71249 0.90443 0.63079
 C939 C 0.31541 0.95732 0.37646
 C940 C 0.30548 0.94374 0.38608
 C941 C 0.29341 0.92770 0.39757
 C942 C 0.29012 0.92973 0.41979
 C943 C 0.27790 0.91446 0.43085
 C944 C 0.26891 0.89709 0.41975
 C945 C 0.27233 0.89498 0.39756
 C946 C 0.28456 0.91025 0.38649
 C947 C 0.25569 0.88182 0.43102
 C948 C 0.24432 0.86928 0.44045
 H949 H 0.29685 0.94318 0.42850
 H950 H 0.27530 0.91630 0.44800
 H951 H 0.26539 0.88166 0.38880
 H952 H 0.28696 0.90854 0.36930
 C953 C 0.04381 0.37400 0.68906
 C954 C 0.05670 0.38398 0.69949
 C955 C 0.07184 0.39595 0.71220
 C956 C 0.06540 0.41496 0.72234
 C957 C 0.07996 0.42646 0.73498
 C958 C 0.10102 0.41899 0.73756
 C959 C 0.10749 0.40001 0.72736
 C960 C 0.09292 0.38851 0.71471
 C961 C 0.11592 0.43075 0.75073
 C962 C 0.12831 0.44066 0.76181
 H963 H 0.04913 0.42084 0.72053
 H964 H 0.07479 0.44111 0.74280
 H965 H 0.12374 0.39409 0.72925
 H966 H 0.09806 0.37381 0.70697
 C967 C 0.04533 0.62553 0.31202
 C968 C 0.05885 0.61546 0.30250
 C969 C 0.07481 0.60340 0.29092
 C970 C 0.07546 0.58099 0.29268
 C971 C 0.09055 0.56922 0.28091
 C972 C 0.10507 0.57981 0.26733
 C973 C 0.10454 0.60222 0.26570
 C974 C 0.08945 0.61399 0.27748
 C975 C 0.12001 0.56767 0.25454
 C976 C 0.13228 0.55754 0.24348
 H977 H 0.06419 0.57263 0.30299
 H978 H 0.09077 0.55189 0.28223
 H979 H 0.11564 0.61057 0.25519
 H980 H 0.08907 0.63130 0.27596
 C981 C 0.95250 0.37583 0.31355
 C982 C 0.93908 0.38588 0.30386
 C983 C 0.92322 0.39784 0.29204
 C984 C 0.90460 0.38765 0.28461
 C985 C 0.88950 0.39913 0.27254
 C986 C 0.89298 0.42084 0.26787
 C987 C 0.91151 0.43108 0.27546
 C988 C 0.92659 0.41960 0.28752
 C989 C 0.87790 0.43246 0.25475
 C990 C 0.86556 0.44222 0.24345
 H991 H 0.90185 0.37081 0.28798
 H992 H 0.87526 0.39104 0.26669
 H993 H 0.91438 0.44785 0.27188
 H994 H 0.94096 0.42762 0.29315
 C995 C 0.95754 0.62210 0.68412
 C996 C 0.94394 0.61270 0.69423
 C997 C 0.92780 0.60160 0.70654
 C998 C 0.92401 0.57972 0.70304
 C999 C 0.90866 0.56886 0.71538
 C1000 C 0.89704 0.57983 0.73125
 C1001 C 0.90073 0.60174 0.73463
 C1002 C 0.91607 0.61260 0.72230
 C1003 C 0.88177 0.56853 0.74446
 C1004 C 0.86923 0.55906 0.75580
 H1005 H 0.93301 0.57105 0.69092
 H1006 H 0.90599 0.55190 0.71267
 H1007 H 0.89189 0.61037 0.74690
 H1008 H 0.91889 0.62950 0.72517
 C1009 C 0.68782 0.62367 0.95700
 C1010 C 0.69843 0.61375 0.94418
 C1011 C 0.71133 0.60201 0.92900
 C1012 C 0.71233 0.60859 0.90745
 C1013 C 0.72517 0.59738 0.89279
 C1014 C 0.73707 0.57955 0.89963
 C1015 C 0.73602 0.57294 0.92117
 C1016 C 0.72319 0.58414 0.93582
 C1017 C 0.75042 0.56812 0.88460
 C1018 C 0.76161 0.55852 0.87204
 H1019 H 0.70326 0.62240 0.90201
 H1020 H 0.72587 0.60263 0.87618
 H1021 H 0.74516 0.55918 0.92663
 H1022 H 0.72256 0.57894 0.95245
 C1023 C 0.31439 0.37715 0.95754
 C1024 C 0.30428 0.38687 0.94415
 C1025 C 0.29195 0.39826 0.92822
 C1026 C 0.29693 0.41960 0.92313
 C1027 C 0.28466 0.43073 0.90792
 C1028 C 0.26737 0.42057 0.89773
 C1029 C 0.26247 0.39920 0.90273
 C1030 C 0.27474 0.38808 0.91794
 C1031 C 0.25432 0.43214 0.88252
 C1032 C 0.24309 0.44175 0.86999
 H1033 H 0.31020 0.42763 0.93100
 H1034 H 0.28855 0.44726 0.90421
 H1035 H 0.24910 0.39121 0.89500
 H1036 H 0.27073 0.37160 0.92176
 C1037 C 0.31073 0.62451 0.04462
 C1038 C 0.30052 0.61422 0.05748
 C1039 C 0.28809 0.60188 0.07258
 C1040 C 0.27690 0.58369 0.06559
 C1041 C 0.26452 0.57185 0.08013
 C1042 C 0.26326 0.57816 0.10173
 C1043 C 0.27450 0.59631 0.10875
 C1044 C 0.28689 0.60816 0.09420
 C1045 C 0.25031 0.56610 0.11662
 C1046 C 0.23939 0.55602 0.12904
 H1047 H 0.27769 0.57871 0.04890
 H1048 H 0.25588 0.55784 0.07454
 H1049 H 0.27363 0.60134 0.12542
 H1050 H 0.29546 0.62223 0.09976
 C1051 C 0.68816 0.37779 0.04101
 C1052 C 0.69845 0.38788 0.05394
 C1053 C 0.71094 0.39987 0.06924
 C1054 C 0.71127 0.39372 0.09094
 C1055 C 0.72367 0.40520 0.10574
 C1056 C 0.73580 0.42286 0.09890
 C1057 C 0.73541 0.42905 0.07722
 C1058 C 0.72301 0.41758 0.06242
 C1059 C 0.74873 0.43454 0.11408
 C1060 C 0.75960 0.44430 0.12678
 H1061 H 0.70202 0.38003 0.09638
 H1062 H 0.72386 0.40027 0.12247
 H1063 H 0.74474 0.44268 0.07176
 H1064 H 0.72290 0.42245 0.04567
 C1065 C 0.95829 0.68376 0.62159
 C1066 C 0.94470 0.69373 0.61204
 C1067 C 0.92860 0.70587 0.60072
 C1068 C 0.93250 0.71291 0.57965
 C1069 C 0.91713 0.72525 0.56886
 C1070 C 0.89780 0.73060 0.57908
 C1071 C 0.89383 0.72343 0.60009
 C1072 C 0.90920 0.71108 0.61089
 C1073 C 0.88235 0.74393 0.56820
 C1074 C 0.86970 0.75540 0.55905
 H1075 H 0.94746 0.70902 0.57165
 H1076 H 0.92039 0.73077 0.55264
 H1077 H 0.87897 0.72753 0.60817
 H1078 H 0.90604 0.70576 0.62719
 C1079 C 0.95282 0.31339 0.37521
 C1080 C 0.93915 0.30372 0.38494
 C1081 C 0.92297 0.29191 0.39646
 C1082 C 0.90882 0.27849 0.38526
 C1083 C 0.89355 0.26644 0.39650
 C1084 C 0.89236 0.26777 0.41897
 C1085 C 0.90637 0.28134 0.43016
 C1086 C 0.92165 0.29340 0.41892
 C1087 C 0.87730 0.25465 0.43059
 C1088 C 0.86499 0.24333 0.44034
 H1089 H 0.90974 0.27718 0.36789
 H1090 H 0.88284 0.25592 0.38770
 H1091 H 0.90564 0.28243 0.44755
 H1092 H 0.93254 0.30369 0.42774
 C1093 C 0.04436 0.31198 0.62589
 C1094 C 0.05777 0.30204 0.61608
 C1095 C 0.07349 0.28984 0.60433
 C1096 C 0.09090 0.30015 0.59444
 C1097 C 0.10599 0.28819 0.58283
 C1098 C 0.10371 0.26590 0.58108
 C1099 C 0.08634 0.25562 0.59102
 C1100 C 0.07127 0.26755 0.60262
 C1101 C 0.11900 0.25348 0.56900
 C1102 C 0.13149 0.24263 0.55894
 H1103 H 0.09275 0.31738 0.59565
 H1104 H 0.11935 0.29631 0.57518
 H1105 H 0.08441 0.23839 0.58976
 H1106 H 0.05787 0.25943 0.61018
 C1107 C 0.04358 0.68926 0.37310
 C1108 C 0.05661 0.69957 0.38300
 C1109 C 0.07190 0.71218 0.39485
 C1110 C 0.06545 0.72304 0.41350
 C1111 C 0.08015 0.73565 0.42483
 C1112 C 0.10137 0.73746 0.41756
 C1113 C 0.10785 0.72653 0.39896
 C1114 C 0.09314 0.71392 0.38762
 C1115 C 0.11639 0.75062 0.42914
 C1116 C 0.12886 0.76170 0.43894
 H1117 H 0.04905 0.72184 0.41921
 H1118 H 0.07497 0.74404 0.43919
 H1119 H 0.12422 0.72783 0.39320
 H1120 H 0.09828 0.70561 0.37320
 C1121 C 0.62429 0.95643 0.68924
 C1122 C 0.61421 0.94347 0.69950
 C1123 C 0.60209 0.92827 0.71202
 C1124 C 0.59221 0.93481 0.73119
 C1125 C 0.58044 0.92011 0.74344
 C1126 C 0.57849 0.89881 0.73658
 C1127 C 0.58836 0.89225 0.71740
 C1128 C 0.60014 0.90696 0.70514
 C1129 C 0.56645 0.88370 0.74928
 C1130 C 0.55637 0.87113 0.76002
 H1131 H 0.59362 0.95125 0.73666
 H1132 H 0.57288 0.92535 0.75825
 H1133 H 0.58696 0.87581 0.71196
 H1134 H 0.60771 0.90174 0.69034
 C1135 C 0.37835 0.95863 0.31303
 C1136 C 0.38822 0.94563 0.30263
 C1137 C 0.39998 0.93031 0.28994
 C1138 C 0.41512 0.93742 0.27485
 C1139 C 0.42636 0.92259 0.26228
 C1140 C 0.42251 0.90058 0.26473
 C1141 C 0.40742 0.89346 0.27987
 C1142 C 0.39617 0.90829 0.29245
 C1143 C 0.43394 0.88537 0.25162
 C1144 C 0.44352 0.87269 0.24056
 H1145 H 0.41817 0.95440 0.27276
 H1146 H 0.43799 0.92827 0.25061
 H1147 H 0.40431 0.87648 0.28189
 H1148 H 0.38448 0.90262 0.30405
 C1149 C 0.62636 0.04212 0.31170
 C1150 C 0.61664 0.05520 0.30121
 C1151 C 0.60491 0.07055 0.28850
 C1152 C 0.58558 0.06458 0.27866
 C1153 C 0.57425 0.07937 0.26609
 C1154 C 0.58221 0.10020 0.26329
 C1155 C 0.60152 0.10620 0.27316
 C1156 C 0.61285 0.09140 0.28574
 C1157 C 0.57058 0.11535 0.25024
 C1158 C 0.56078 0.12797 0.23928
 H1159 H 0.57930 0.04849 0.28066
 H1160 H 0.55934 0.07455 0.25853
 H1161 H 0.60782 0.12227 0.27110
 H1162 H 0.62779 0.09619 0.29325
 C1163 C 0.37355 0.04344 0.68974
 C1164 C 0.38363 0.05642 0.69994
 C1165 C 0.39575 0.07170 0.71232
 C1166 C 0.41535 0.06565 0.72158
 C1167 C 0.42701 0.08035 0.73390
 C1168 C 0.41912 0.10116 0.73702
 C1169 C 0.39955 0.10724 0.72770
 C1170 C 0.38788 0.09254 0.71538
 C1171 C 0.43103 0.11619 0.74988
 C1172 C 0.44103 0.12872 0.76072
 H1173 H 0.42156 0.04957 0.71934
 H1174 H 0.44211 0.07547 0.74104
 H1175 H 0.39330 0.12329 0.73002
 H1176 H 0.37273 0.09737 0.70831
 C1177 C 0.62217 0.68764 0.04054
 C1178 C 0.61209 0.69797 0.05346
 C1179 C 0.60021 0.71054 0.06881
 C1180 C 0.60567 0.70988 0.09068
 C1181 C 0.59440 0.72245 0.10552
 C1182 C 0.57763 0.73573 0.09854
 C1183 C 0.57211 0.73633 0.07669
 C1184 C 0.58338 0.72376 0.06185
 C1185 C 0.56621 0.74886 0.11377
 C1186 C 0.55669 0.75992 0.12650
 H1187 H 0.61868 0.69975 0.09622
 H1188 H 0.59881 0.72187 0.12238
 H1189 H 0.55918 0.74655 0.07112
 H1190 H 0.57905 0.72443 0.04497
 C1191 C 0.37814 0.31289 0.04244
 C1192 C 0.38820 0.30237 0.05525
 C1193 C 0.40017 0.28957 0.07036
 C1194 C 0.41126 0.27134 0.06325
 C1195 C 0.42274 0.25874 0.07791
 C1196 C 0.42318 0.26431 0.09975
 C1197 C 0.41212 0.28256 0.10686
 C1198 C 0.40064 0.29517 0.09220
 C1199 C 0.43489 0.25124 0.11483
 C1200 C 0.44470 0.24023 0.12741
 H1201 H 0.41098 0.26685 0.04641
 H1202 H 0.43122 0.24466 0.07224
 H1203 H 0.41235 0.28701 0.12371
 H1204 H 0.39210 0.30921 0.09787
 C1205 C 0.62406 0.31283 0.95714
 C1206 C 0.61406 0.30231 0.94434
 C1207 C 0.60215 0.28953 0.92921
 C1208 C 0.58662 0.27502 0.93660
 C1209 C 0.57522 0.26239 0.92195
 C1210 C 0.57930 0.26419 0.89984
 C1211 C 0.59479 0.27873 0.89244
 C1212 C 0.60620 0.29138 0.90709
 C1213 C 0.56766 0.25108 0.88480
 C1214 C 0.55788 0.24005 0.87225
 H1215 H 0.58339 0.27345 0.95367
 H1216 H 0.56329 0.25119 0.92785
 H1217 H 0.59808 0.28025 0.87538
 H1218 H 0.61819 0.30252 0.90121
 C1219 C 0.37353 0.68911 0.95933
 C1220 C 0.38340 0.69945 0.94624
 C1221 C 0.39519 0.71195 0.93075
 C1222 C 0.38698 0.73162 0.92356
 C1223 C 0.39853 0.74391 0.90870
 C1224 C 0.41836 0.73658 0.90097
 C1225 C 0.42655 0.71689 0.90812
 C1226 C 0.41499 0.70460 0.92299
 C1227 C 0.43029 0.74931 0.88578
 C1228 C 0.44026 0.76004 0.87309
 H1229 H 0.37170 0.73747 0.92949
 H1230 H 0.39205 0.75911 0.90329
 H1231 H 0.44187 0.71108 0.90225
 H1232 H 0.42151 0.68943 0.92846
 C1233 C 0.68717 0.95419 0.37693
 C1234 C 0.69678 0.94069 0.38696
 C1235 C 0.70851 0.92474 0.39889
 C1236 C 0.71037 0.92644 0.42130
 C1237 C 0.72238 0.91135 0.43282
 C1238 C 0.73259 0.89449 0.42198
 C1239 C 0.73056 0.89267 0.39959
 C1240 C 0.71854 0.90776 0.38808
 C1241 C 0.74574 0.87952 0.43371
 C1242 C 0.75711 0.86725 0.44346
 H1243 H 0.70271 0.93954 0.42982
 H1244 H 0.72391 0.91295 0.45012
 H1245 H 0.73846 0.87974 0.39104
 H1246 H 0.71726 0.90632 0.37074
 C1247 C 0.30961 0.95682 0.62610
 C1248 C 0.29942 0.94374 0.61614
 C1249 C 0.28705 0.92834 0.60419
 C1250 C 0.26930 0.91836 0.61377
 C1251 C 0.25698 0.90373 0.60202
 C1252 C 0.26237 0.89903 0.58064
 C1253 C 0.28018 0.90894 0.57109
 C1254 C 0.29249 0.92357 0.58284
 C1255 C 0.24953 0.88422 0.56845
 C1256 C 0.23872 0.87186 0.55822
 H1257 H 0.26493 0.92196 0.63026
 H1258 H 0.24323 0.89617 0.60955
 H1259 H 0.28447 0.90544 0.55456
 H1260 H 0.30617 0.93123 0.57527
 C1261 C 0.31534 0.04569 0.37717
 C1262 C 0.30541 0.05925 0.38678
 C1263 C 0.29329 0.07536 0.39808
 C1264 C 0.29323 0.07578 0.42063
 C1265 C 0.28093 0.09106 0.43157
 C1266 C 0.26865 0.10598 0.42001
 C1267 C 0.26885 0.10566 0.39746
 C1268 C 0.28115 0.09039 0.38652
 C1269 C 0.25533 0.12114 0.43126
 C1270 C 0.24385 0.13357 0.44067
 H1271 H 0.30252 0.06421 0.42972
 H1272 H 0.28082 0.09112 0.44901
 H1273 H 0.25936 0.11707 0.38837
 H1274 H 0.28105 0.09017 0.36908
 C1275 C 0.68753 0.04403 0.62604
 C1276 C 0.69747 0.05757 0.61642
 C1277 C 0.70959 0.07359 0.60501
 C1278 C 0.70066 0.08404 0.58715
 C1279 C 0.71266 0.09932 0.57585
 C1280 C 0.73363 0.10419 0.58239
 C1281 C 0.74250 0.09382 0.60032
 C1282 C 0.73051 0.07856 0.61161
 C1283 C 0.74626 0.11943 0.57048
 C1284 C 0.75719 0.13191 0.56051
 H1285 H 0.68451 0.08029 0.58190
 H1286 H 0.70568 0.10720 0.56197
 H1287 H 0.75872 0.09743 0.60547
 H1288 H 0.73758 0.07055 0.62538
 C1289 C 0.95736 0.62618 0.31045
 C1290 C 0.94417 0.61635 0.30027
 C1291 C 0.92860 0.60465 0.28784
 C1292 C 0.92064 0.58500 0.29535
 C1293 C 0.90579 0.57350 0.28305
 C1294 C 0.89884 0.58160 0.26319
 C1295 C 0.90673 0.60129 0.25572
 C1296 C 0.92158 0.61279 0.26802
 C1297 C 0.88376 0.56967 0.25039
 C1298 C 0.87118 0.55972 0.23957
 H1299 H 0.92599 0.57855 0.31064
 H1300 H 0.89979 0.55828 0.28897
 H1301 H 0.90148 0.60769 0.24039
 H1302 H 0.92766 0.62795 0.26204
 C1303 C 0.95661 0.37358 0.68807
 C1304 C 0.94349 0.38357 0.69821
 C1305 C 0.92811 0.39564 0.71054
 C1306 C 0.92868 0.41811 0.71024
 C1307 C 0.91412 0.42988 0.72264
 C1308 C 0.89893 0.41924 0.73541
 C1309 C 0.89829 0.39677 0.73563
 C1310 C 0.91286 0.38499 0.72322
 C1311 C 0.88420 0.43136 0.74845
 C1312 C 0.87192 0.44154 0.75943
 H1313 H 0.94044 0.42650 0.70052
 H1314 H 0.91476 0.44725 0.72237
 H1315 H 0.88662 0.38838 0.74547
 H1316 H 0.91232 0.36763 0.72362
 C1317 C 0.04596 0.62151 0.68343
 C1318 C 0.05950 0.61191 0.69341
 C1319 C 0.07552 0.60054 0.70562
 C1320 C 0.08954 0.61185 0.71910
 C1321 C 0.10466 0.60079 0.73151
 C1322 C 0.10584 0.57837 0.73050
 C1323 C 0.09194 0.56707 0.71689
 C1324 C 0.07681 0.57813 0.70447
 C1325 C 0.12079 0.56696 0.74396
 C1326 C 0.13304 0.55745 0.75558
 H1327 H 0.08865 0.62918 0.72015
 H1328 H 0.11527 0.60969 0.74205
 H1329 H 0.09266 0.54972 0.71604
 H1330 H 0.06602 0.56922 0.69414
 C1331 C 0.04023 0.37426 0.31181
 C1332 C 0.05336 0.38402 0.30144
 C1333 C 0.06879 0.39575 0.28884
 C1334 C 0.09040 0.38949 0.28870
 C1335 C 0.10530 0.40078 0.27622
 C1336 C 0.09864 0.41836 0.26382
 C1337 C 0.07704 0.42463 0.26400
 C1338 C 0.06215 0.41335 0.27647
 C1339 C 0.11391 0.42990 0.25086
 C1340 C 0.12662 0.43963 0.23994
 H1341 H 0.09570 0.37589 0.29818
 H1342 H 0.12197 0.39579 0.27619
 H1343 H 0.07173 0.43819 0.25447
 H1344 H 0.04547 0.41830 0.27644
   
