data_POSCAR
  _audit_creation_date              2014-09-24
  _audit_creation_method            'ToBaCCo'
  _symmetry_space_group_name_H-M    'P1'
  _symmetry_Int_Tables_number       1
  _symmetry_cell_setting            triclinic
  loop_
  _symmetry_equiv_pos_as_xyz
 x,y,z
_cell_length_a 59.7266
_cell_length_b 59.7032
_cell_length_c 60.3989
_cell_angle_alpha 89.856700
_cell_angle_beta 90.458600
_cell_angle_gamma 90.138100
loop_
  _atom_site_label
  _atom_site_type_symbol
  _atom_site_fract_x
  _atom_site_fract_y
  _atom_site_fract_z
C1 C 0.18912 0.20728 0.22007
 C2 C 0.19297 0.22159 0.20196
 C3 C 0.21078 0.21779 0.18736
 C4 C 0.22483 0.19927 0.19109
 C5 C 0.22138 0.18475 0.20911
 C6 C 0.20347 0.18894 0.22348
 H7 H 0.18205 0.23578 0.19923
 H8 H 0.23856 0.19616 0.17995
 H9 H 0.20072 0.17786 0.23740
 C10 C 0.69213 0.71589 0.71889
 C11 C 0.70796 0.69901 0.72334
 C12 C 0.72698 0.69644 0.71000
 C13 C 0.73025 0.71134 0.69226
 C14 C 0.71441 0.72792 0.68733
 C15 C 0.69533 0.72999 0.70050
 H16 H 0.70546 0.68785 0.73724
 H17 H 0.74504 0.71000 0.68208
 H18 H 0.68309 0.74276 0.69646
 C19 C 0.31014 0.78803 0.72700
 C20 C 0.30567 0.77344 0.70930
 C21 C 0.28641 0.77606 0.69617
 C22 C 0.27134 0.79334 0.70087
 C23 C 0.27544 0.80842 0.71839
 C24 C 0.29505 0.80552 0.73127
 H25 H 0.31745 0.76032 0.70529
 H26 H 0.25682 0.79537 0.69022
 H27 H 0.29799 0.81607 0.74555
 C28 C 0.80850 0.28616 0.22722
 C29 C 0.80606 0.27322 0.20774
 C30 C 0.78922 0.27788 0.19203
 C31 C 0.77468 0.29586 0.19557
 C32 C 0.77636 0.30863 0.21488
 C33 C 0.79301 0.30368 0.23063
 H34 H 0.81788 0.26015 0.20385
 H35 H 0.76152 0.29948 0.18363
 H36 H 0.79332 0.31341 0.24570
 C37 C 0.80476 0.71300 0.27261
 C38 C 0.78955 0.69522 0.26961
 C39 C 0.77253 0.69102 0.28504
 C40 C 0.77059 0.70516 0.30348
 C41 C 0.78520 0.72335 0.30642
 C42 C 0.80229 0.72708 0.29104
 H43 H 0.79071 0.68486 0.25499
 H44 H 0.75765 0.70210 0.31559
 H45 H 0.81404 0.74065 0.29385
 C46 C 0.31183 0.21084 -0.22360
 C47 C 0.29707 0.19245 -0.22613
 C48 C 0.28061 0.18752 -0.21034
 C49 C 0.27873 0.20139 -0.19175
 C50 C 0.29224 0.22046 -0.18923
 C51 C 0.30877 0.22497 -0.20509
 H52 H 0.29749 0.18244 -0.24101
 H53 H 0.26681 0.19719 -0.17898
 H54 H 0.31954 0.23927 -0.20247
 C55 C 0.68967 0.29231 -0.22540
 C56 C 0.70469 0.31048 -0.22796
 C57 C 0.72110 0.31523 -0.21189
 C58 C 0.72293 0.30170 -0.19303
 C59 C 0.70891 0.28307 -0.19041
 C60 C 0.69236 0.27856 -0.20645
 H61 H 0.70426 0.32084 -0.24267
 H62 H 0.73587 0.30518 -0.18082
 H63 H 0.68096 0.26486 -0.20323
 C64 C 0.18453 0.78722 0.28113
 C65 C 0.20078 0.80370 0.27661
 C66 C 0.21992 0.80650 0.29031
 C67 C 0.22255 0.79171 0.30846
 C68 C 0.20640 0.77537 0.31323
 C69 C 0.18735 0.77340 0.29976
 H70 H 0.19798 0.81462 0.26260
 H71 H 0.23741 0.79225 0.31879
 H72 H 0.17487 0.76084 0.30372
 C73 C 0.46077 0.44354 0.47472
 C74 C 0.44344 0.45894 0.47853
 C75 C 0.44055 0.47783 0.46483
 C76 C 0.45546 0.48128 0.44725
 C77 C 0.47270 0.46598 0.44301
 C78 C 0.47517 0.44716 0.45676
 H79 H 0.43214 0.45619 0.49217
 H80 H 0.45395 0.49615 0.43705
 H81 H 0.48802 0.43499 0.45309
 C82 C -0.04604 -0.05836 0.97274
 C83 C -0.03136 -0.05434 0.95512
 C84 C -0.03474 -0.03630 0.94053
 C85 C -0.05307 -0.02204 0.94388
 C86 C -0.06814 -0.02557 0.96143
 C87 C -0.06441 -0.04401 0.97565
 H88 H -0.01721 -0.06534 0.95275
 H89 H -0.05626 -0.00889 0.93192
 H90 H -0.07501 -0.04655 0.98989
 C91 C 1.04004 0.56047 0.97422
 C92 C 1.02698 0.55809 0.95489
 C93 C 1.03153 0.54113 0.93947
 C94 C 1.04978 0.52680 0.94339
 C95 C 1.06268 0.52838 0.96289
 C96 C 1.05751 0.54521 0.97827
 H97 H 1.01321 0.56945 0.95185
 H98 H 1.05414 0.51455 0.93099
 H99 H 1.06681 0.54620 0.99369
 C100 C 0.54072 0.06324 0.46906
 C101 C 0.55917 0.04893 0.47219
 C102 C 0.56352 0.03101 0.45755
 C103 C 0.54852 0.02782 0.43959
 C104 C 0.52999 0.04187 0.43631
 C105 C 0.52623 0.05951 0.45104
 H106 H 0.57037 0.05234 0.48588
 H107 H 0.55027 0.01367 0.42862
 H108 H 0.51223 0.07066 0.44809
 C109 C -0.03006 0.05540 0.52545
 C110 C -0.01634 0.05262 0.54414
 C111 C -0.01878 0.03381 0.55778
 C112 C -0.03543 0.01790 0.55294
 C113 C -0.05014 0.02063 0.53466
 C114 C -0.04688 0.03956 0.52090
 H115 H -0.00324 0.06472 0.54770
 H116 H -0.03638 0.00323 0.56342
 H117 H -0.05809 0.04301 0.50718
 C118 C 0.46518 0.55754 0.02180
 C119 C 0.47858 0.55490 0.04087
 C120 C 0.47381 0.53818 0.05658
 C121 C 0.45503 0.52434 0.05319
 C122 C 0.44182 0.52614 0.03391
 C123 C 0.44717 0.54273 0.01826
 H124 H 0.49276 0.56591 0.04348
 H125 H 0.45051 0.51230 0.06581
 H126 H 0.43758 0.54391 0.00302
 C127 C 0.53999 -0.06137 0.02918
 C128 C 0.55756 -0.04568 0.02645
 C129 C 0.56043 -0.02750 0.04099
 C130 C 0.54567 -0.02509 0.05876
 C131 C 0.52818 -0.04036 0.06198
 C132 C 0.52538 -0.05828 0.04722
 H133 H 0.56881 -0.04700 0.01261
 H134 H 0.54735 -0.01091 0.06981
 H135 H 0.51237 -0.07036 0.05078
 C136 C 1.03838 0.43623 0.52973
 C137 C 1.02248 0.44113 0.54586
 C138 C 1.02619 0.45849 0.56109
 C139 C 1.04582 0.47148 0.55936
 C140 C 1.06185 0.46738 0.54272
 C141 C 1.05793 0.44914 0.52832
 H142 H 1.00729 0.43122 0.54660
 H143 H 1.04806 0.48520 0.57076
 H144 H 1.07016 0.44438 0.51610
 C145 C 0.40616 0.00623 0.21779
 H146 H 0.40473 0.02255 0.22538
 C147 C 0.42069 0.00314 0.20008
 H148 H 0.43002 0.01738 0.19391
 C149 C 0.39530 -0.03193 0.21657
 H150 H 0.38572 -0.04566 0.22336
 C151 C 0.40986 -0.03584 0.19901
 H152 H 0.41128 -0.05266 0.19253
 N153 N 0.39357 -0.01109 0.22543
 C154 C 0.34258 0.02671 0.26045
 H155 H 0.34401 0.01916 0.27671
 C156 C 0.32795 0.04460 0.25698
 H157 H 0.31810 0.05080 0.27063
 C158 C 0.35338 0.02751 0.22278
 H159 H 0.36307 0.02058 0.20943
 C160 C 0.33865 0.04517 0.21848
 H161 H 0.33742 0.05201 0.20190
 Zn162 Zn 0.37476 -0.00538 0.24983
 N163 N 0.35530 0.01888 0.24359
 C164 C 0.39489 0.02249 0.28260
 N165 N 0.39377 0.00139 0.27421
 C166 C 0.40720 -0.01518 0.28215
 C167 C 0.42189 -0.01107 0.29979
 C168 C 0.40954 0.02741 0.30007
 C169 C 0.34292 -0.03781 0.23909
 C170 C 0.32849 -0.05593 0.24227
 C171 C 0.34148 -0.05840 0.28018
 C172 C 0.35575 -0.04027 0.27622
 N173 N 0.35638 -0.03053 0.25585
 H174 H 0.38481 0.03569 0.27548
 H175 H 0.40636 -0.03169 0.27485
 H176 H 0.43193 -0.02472 0.30621
 H177 H 0.41043 0.04442 0.30618
 H178 H 0.34350 -0.02953 0.22314
 H179 H 0.31828 -0.06171 0.22854
 H180 H 0.34098 -0.06570 0.29659
 H181 H 0.36598 -0.03377 0.28957
 C182 C 0.32591 0.05405 0.23578
 C183 C 0.42276 -0.01815 0.19043
 C184 C 0.32760 -0.06650 0.26306
 C185 C 0.42324 0.01049 0.30902
 C186 C 0.08842 -0.00890 0.72660
 H187 H 0.08419 -0.02181 0.73845
 C188 C 0.07504 -0.00572 0.70783
 H189 H 0.06030 -0.01609 0.70569
 C190 C 0.11236 0.02080 0.71578
 H191 H 0.12689 0.03113 0.71899
 C192 C 0.09967 0.02428 0.69654
 H193 H 0.10492 0.03710 0.68498
 N194 N 0.10663 0.00430 0.73024
 C195 C 0.15341 -0.03505 0.76964
 H196 H 0.15245 -0.02682 0.78554
 C197 C 0.16725 -0.05365 0.76705
 H198 H 0.17634 -0.05988 0.78134
 C199 C 0.14215 -0.03691 0.73201
 H200 H 0.13260 -0.03009 0.71831
 C201 C 0.15627 -0.05514 0.72851
 H202 H 0.15747 -0.06187 0.71196
 Zn203 Zn 0.12336 -0.00137 0.75631
 N204 N 0.14096 -0.02730 0.75233
 C205 C 0.10101 -0.02587 0.78993
 N206 N 0.10261 -0.00562 0.77965
 C207 C 0.08861 0.01148 0.78491
 C208 C 0.07314 0.00899 0.80196
 C209 C 0.08547 -0.02922 0.80676
 C210 C 0.16164 0.02425 0.74894
 C211 C 0.17722 0.04145 0.75202
 C212 C 0.15495 0.05523 0.78227
 C213 C 0.14006 0.03746 0.77895
 N214 N 0.14337 0.02266 0.76219
 H215 H 0.11152 -0.03961 0.78494
 H216 H 0.08951 0.02710 0.77585
 H217 H 0.06230 0.02283 0.80619
 H218 H 0.08453 -0.04537 0.81493
 H219 H 0.16405 0.01213 0.73590
 H220 H 0.19158 0.04264 0.74124
 H221 H 0.15198 0.06709 0.79546
 H222 H 0.12589 0.03567 0.78976
 C223 C 0.16905 -0.06391 0.74618
 C224 C 0.08063 0.01096 0.69234
 C225 C 0.17374 0.05733 0.76867
 C226 C 0.07152 -0.01157 0.81311
 C227 C 0.58747 0.48788 0.21889
 H228 H 0.58576 0.47252 0.22828
 C229 C 0.57379 0.49162 0.20042
 H230 H 0.56166 0.47902 0.19552
 C231 C 0.60491 0.52326 0.21416
 H232 H 0.61709 0.53555 0.21954
 C233 C 0.59123 0.52788 0.19585
 H234 H 0.59303 0.54366 0.18715
 N235 N 0.60284 0.50350 0.22525
 C236 C 0.65669 0.46881 0.26070
 H237 H 0.65975 0.48059 0.27393
 C238 C 0.67128 0.45083 0.25786
 H239 H 0.68539 0.44911 0.26908
 C240 C 0.63581 0.45809 0.22899
 H241 H 0.62235 0.46109 0.21740
 C242 C 0.64970 0.43962 0.22581
 H243 H 0.64612 0.42843 0.21217
 Zn244 Zn 0.62110 0.49801 0.25059
 N245 N 0.63934 0.47219 0.24635
 C246 C 0.61185 0.48786 0.29549
 N247 N 0.60258 0.49405 0.27576
 C248 C 0.58021 0.49797 0.27384
 C249 C 0.56618 0.49507 0.29199
 C250 C 0.59842 0.48476 0.31409
 C251 C 0.66099 0.52296 0.24698
 C252 C 0.67527 0.54114 0.25054
 C253 C 0.64567 0.55954 0.27056
 C254 C 0.63203 0.54086 0.26685
 N255 N 0.63993 0.52302 0.25538
 H256 H 0.62967 0.48526 0.29687
 H257 H 0.57316 0.50363 0.25831
 H258 H 0.54847 0.49847 0.29010
 H259 H 0.60607 0.47941 0.32952
 H260 H 0.66671 0.50881 0.23745
 H261 H 0.69200 0.54084 0.24376
 H262 H 0.63926 0.57356 0.27990
 H263 H 0.61512 0.54055 0.27314
 C264 C 0.66791 0.43584 0.24023
 C265 C 0.57557 0.51186 0.18875
 C266 C 0.66766 0.55970 0.26250
 C267 C 0.57521 0.48823 0.31243
 C268 C 0.90872 0.51356 0.71698
 H269 H 0.90949 0.52963 0.72519
 C270 C 0.92203 0.50953 0.69853
 H271 H 0.93311 0.52256 0.69258
 C272 C 0.89363 0.47684 0.71508
 H273 H 0.88267 0.46410 0.72172
 C274 C 0.90696 0.47196 0.69681
 H275 H 0.90599 0.45553 0.68930
 N276 N 0.89467 0.49741 0.72467
 C277 C 0.84663 0.53724 0.76162
 H278 H 0.84767 0.52924 0.77768
 C279 C 0.83261 0.55568 0.75848
 H280 H 0.82283 0.56184 0.77219
 C281 C 0.85768 0.53857 0.72403
 H282 H 0.86717 0.53164 0.71055
 C283 C 0.84362 0.55681 0.72008
 H284 H 0.84274 0.56406 0.70364
 Zn285 Zn 0.87754 0.50407 0.75000
 N286 N 0.85913 0.52935 0.74462
 C287 C 0.89932 0.53047 0.78295
 N288 N 0.89800 0.50982 0.77352
 C289 C 0.91195 0.49301 0.77999
 C290 C 0.92707 0.49624 0.79745
 C291 C 0.91448 0.53454 0.80022
 C292 C 0.84119 0.47605 0.74202
 C293 C 0.82594 0.45866 0.74549
 C294 C 0.84599 0.44900 0.77902
 C295 C 0.86058 0.46690 0.77514
 N296 N 0.85818 0.47977 0.75667
 H297 H 0.88877 0.54390 0.77705
 H298 H 0.91114 0.47698 0.77170
 H299 H 0.93782 0.48258 0.80265
 H300 H 0.91510 0.55096 0.80779
 H301 H 0.83943 0.48675 0.72763
 H302 H 0.81231 0.45648 0.73379
 H303 H 0.84879 0.43858 0.79346
 H304 H 0.87384 0.47033 0.78689
 C305 C 0.83099 0.56565 0.73748
 C306 C 0.92128 0.48848 0.68828
 C307 C 0.82832 0.44461 0.76409
 C308 C 0.92834 0.51719 0.80785
 C309 C 0.22283 0.40746 0.00926
 H310 H 0.23440 0.40940 0.02299
 C311 C 0.20525 0.42259 0.00647
 H312 H 0.20321 0.43617 0.01814
 C313 C 0.21158 0.38765 -0.02296
 H314 H 0.21433 0.37435 -0.03467
 C315 C 0.19344 0.40208 -0.02605
 H316 H 0.18225 0.39971 -0.04006
 N317 N 0.22571 0.39044 -0.00538
 C318 C 0.26171 0.33754 0.02973
 H319 H 0.27714 0.33689 0.02049
 C320 C 0.25840 0.32292 0.04748
 H321 H 0.27172 0.31154 0.05209
 C322 C 0.22588 0.35350 0.03488
 H323 H 0.21312 0.36524 0.02971
 C324 C 0.22168 0.33889 0.05247
 H325 H 0.20554 0.33954 0.06045
 Zn326 Zn 0.25088 0.37173 -0.00050
 N327 N 0.24572 0.35270 0.02403
 C328 C 0.28996 0.38786 0.02215
 N329 N 0.27580 0.39079 0.00462
 C330 C 0.27862 0.40801 -0.00990
 C331 C 0.29629 0.42310 -0.00714
 C332 C 0.30818 0.40226 0.02521
 C333 C 0.24077 0.33784 -0.03123
 C334 C 0.24456 0.32346 -0.04900
 C335 C 0.28100 0.34038 -0.05358
 C336 C 0.27635 0.35469 -0.03596
 N337 N 0.25644 0.35328 -0.02528
 H338 H 0.28724 0.37443 0.03379
 H339 H 0.26702 0.41004 -0.02360
 H340 H 0.29837 0.43677 -0.01878
 H341 H 0.31947 0.39971 0.03911
 H342 H 0.22528 0.33671 -0.02213
 H343 H 0.23153 0.31177 -0.05376
 H344 H 0.29719 0.34148 -0.06143
 H345 H 0.28886 0.36664 -0.03060
 C346 C 0.23811 0.32338 0.05915
 C347 C 0.19028 0.41986 -0.01130
 C348 C 0.26496 0.32451 -0.06043
 C349 C 0.31138 0.42014 0.01049
 C350 C 0.71096 0.10156 -0.01070
 H351 H 0.71760 0.10324 -0.02723
 C352 C 0.69293 0.08721 -0.00683
 H353 H 0.68571 0.07786 -0.02048
 C354 C 0.71291 0.11106 0.02735
 H355 H 0.72109 0.12000 0.04069
 C356 C 0.69511 0.09662 0.03202
 H357 H 0.68937 0.09492 0.04890
 N358 N 0.72033 0.11339 0.00622
 C359 C 0.75728 0.16093 -0.03441
 H360 H 0.77398 0.15821 -0.02788
 C361 C 0.75403 0.17532 -0.05238
 H362 H 0.76830 0.18366 -0.05969
 C363 C 0.71829 0.15379 -0.03242
 H364 H 0.70439 0.14566 -0.02432
 C365 C 0.71424 0.16835 -0.05015
 H366 H 0.69722 0.17098 -0.05590
 Zn367 Zn 0.74552 0.13140 -0.00046
 N368 N 0.73959 0.15018 -0.02510
 C369 C 0.77581 0.10747 -0.02770
 N370 N 0.76923 0.11141 -0.00657
 C371 C 0.77847 0.10006 0.01075
 C372 C 0.79583 0.08491 0.00732
 C373 C 0.79279 0.09205 -0.03196
 C374 C 0.73628 0.16296 0.03231
 C375 C 0.74065 0.17735 0.05001
 C376 C 0.77960 0.16670 0.04858
 C377 C 0.77443 0.15235 0.03103
 N378 N 0.75297 0.15043 0.02355
 H379 H 0.76758 0.11593 -0.04134
 H380 H 0.77250 0.10304 0.02735
 H381 H 0.80346 0.07687 0.02156
 H382 H 0.79733 0.08887 -0.04896
 H383 H 0.71945 0.16151 0.02571
 H384 H 0.72693 0.18658 0.05718
 H385 H 0.79682 0.16813 0.05412
 H386 H 0.78766 0.14305 0.02320
 C387 C 0.73228 0.17916 -0.06044
 C388 C 0.68486 0.08455 0.01477
 C389 C 0.76255 0.17931 0.05848
 C390 C 0.80328 0.08064 -0.01430
 C391 C 0.21842 0.59001 0.49554
 H392 H 0.22704 0.59029 0.47985
 C393 C 0.20154 0.57426 0.49925
 H394 H 0.19696 0.56281 0.48610
 C395 C 0.21403 0.60471 0.53162
 H396 H 0.21930 0.61617 0.54443
 C397 C 0.19717 0.58915 0.53610
 H398 H 0.18962 0.58897 0.55234
 N399 N 0.22400 0.60516 0.51144
 C400 C 0.25441 0.66143 0.47642
 H401 H 0.26879 0.66398 0.48713
 C402 C 0.25057 0.67593 0.45864
 H403 H 0.26197 0.68980 0.45615
 C404 C 0.22169 0.64074 0.46758
 H405 H 0.21029 0.62721 0.47124
 C406 C 0.21746 0.65456 0.44931
 H407 H 0.20309 0.65097 0.43888
 Zn408 Zn 0.24731 0.62581 0.50518
 N409 N 0.24014 0.64418 0.48049
 C410 C 0.28283 0.60924 0.47891
 N411 N 0.27318 0.60877 0.49923
 C412 C 0.28112 0.59525 0.51564
 C413 C 0.29989 0.58190 0.51213
 C414 C 0.30141 0.59582 0.47455
 C415 C 0.23529 0.65762 0.53714
 C416 C 0.23835 0.67190 0.55520
 C417 C 0.27731 0.66123 0.55650
 C418 C 0.27342 0.64690 0.53865
 N419 N 0.25258 0.64507 0.52959
 H420 H 0.27597 0.61977 0.46597
 H421 H 0.27285 0.59492 0.53151
 H422 H 0.30604 0.57122 0.52535
 H423 H 0.30895 0.59631 0.45831
 H424 H 0.21899 0.65623 0.52932
 H425 H 0.22411 0.68107 0.56139
 H426 H 0.29413 0.66263 0.56317
 H427 H 0.28718 0.63751 0.53188
 C428 C 0.23200 0.67249 0.44456
 C429 C 0.19056 0.57374 0.51974
 C430 C 0.25959 0.67381 0.56523
 C431 C 0.31019 0.58204 0.49134
 C432 C 0.72388 0.91252 0.50505
 H433 H 0.73309 0.91263 0.52054
 C434 C 0.70637 0.92763 0.50165
 H435 H 0.70195 0.93895 0.51489
 C436 C 0.71843 0.89736 0.46922
 H437 H 0.72345 0.88589 0.45641
 C438 C 0.70098 0.91235 0.46502
 H439 H 0.69282 0.91213 0.44895
 N440 N 0.72918 0.89738 0.48916
 C441 C 0.76056 0.84131 0.52380
 H442 H 0.77457 0.83867 0.51289
 C443 C 0.75708 0.82681 0.54161
 H444 H 0.76837 0.81285 0.54393
 C445 C 0.72836 0.86221 0.53312
 H446 H 0.71698 0.87579 0.52963
 C447 C 0.72451 0.84841 0.55141
 H448 H 0.71050 0.85210 0.56203
 Zn449 Zn 0.75282 0.87703 0.49517
 N450 N 0.74637 0.85867 0.51995
 C451 C 0.78988 0.89286 0.52050
 N452 N 0.77888 0.89418 0.50074
 C453 C 0.78582 0.90835 0.48453
 C454 C 0.80486 0.92158 0.48766
 C455 C 0.80890 0.90596 0.52442
 C456 C 0.74016 0.84450 0.46397
 C457 C 0.74287 0.82978 0.44626
 C458 C 0.78145 0.84162 0.44367
 C459 C 0.77792 0.85631 0.46123
 N460 N 0.75745 0.85770 0.47081
 H461 H 0.78380 0.88183 0.53333
 H462 H 0.77662 0.90918 0.46905
 H463 H 0.81037 0.93233 0.47431
 H464 H 0.81719 0.90493 0.54039
 H465 H 0.72417 0.84560 0.47217
 H466 H 0.72865 0.81996 0.44070
 H467 H 0.79801 0.84054 0.43660
 H468 H 0.79170 0.86630 0.46741
 C469 C 0.73896 0.83036 0.55591
 C470 C 0.69450 0.92759 0.48146
 C471 C 0.76375 0.82820 0.43580
 C472 C 0.81670 0.92054 0.50785
 C473 C 0.01525 0.21612 0.40629
 H474 H 0.03115 0.22478 0.40542
 C475 C 0.01265 0.19803 0.42075
 H476 H 0.02686 0.19263 0.43062
 C477 C -0.02240 0.21264 0.39414
 H478 H -0.03617 0.21869 0.38411
 C479 C -0.02582 0.19466 0.40855
 H480 H -0.04229 0.18711 0.40938
 N481 N -0.00204 0.22282 0.39311
 C482 C 0.03266 0.25935 0.34069
 H483 H 0.02400 0.27523 0.34109
 C484 C 0.05017 0.25615 0.32584
 H485 H 0.05508 0.26967 0.31492
 C486 C 0.03638 0.22213 0.35394
 H487 H 0.03073 0.20878 0.36462
 C488 C 0.05364 0.21807 0.33903
 H489 H 0.06145 0.20172 0.33865
 Zn490 Zn 0.00250 0.24791 0.37445
 N491 N 0.02650 0.24263 0.35475
 C492 C 0.02653 0.28614 0.39092
 N493 N 0.00827 0.27270 0.39319
 C494 C -0.00664 0.27604 0.40973
 C495 C -0.00363 0.29358 0.42470
 C496 C 0.02995 0.30418 0.40525
 C497 C -0.02965 0.23683 0.34258
 C498 C -0.04837 0.23972 0.32892
 C499 C -0.05346 0.27650 0.34468
 C500 C -0.03469 0.27284 0.35816
 N501 N -0.02333 0.25318 0.35696
 H502 H 0.03852 0.28300 0.37804
 H503 H -0.02082 0.26488 0.41138
 H504 H -0.01549 0.29545 0.43801
 H505 H 0.04424 0.31500 0.40264
 H506 H -0.02016 0.22143 0.34186
 H507 H -0.05336 0.22628 0.31793
 H508 H -0.06205 0.29241 0.34561
 H509 H -0.02910 0.28580 0.36937
 C510 C 0.06084 0.23529 0.32494
 C511 C -0.00812 0.18701 0.42204
 C512 C -0.06055 0.25980 0.32981
 C513 C 0.01478 0.30812 0.42252
 C514 C -0.01373 0.71819 0.09256
 H515 H -0.03010 0.72587 0.09321
 C516 C -0.01011 0.69999 0.07858
 H517 H -0.02376 0.69373 0.06842
 C518 C 0.02411 0.71737 0.10466
 H519 H 0.03749 0.72442 0.11458
 C520 C 0.02854 0.69934 0.09067
 H521 H 0.04525 0.69236 0.09027
 N522 N 0.00315 0.72621 0.10557
 C523 C -0.03640 0.76191 0.15444
 H524 H -0.02860 0.77825 0.15342
 C525 C -0.05482 0.75864 0.16814
 H526 H -0.06114 0.77253 0.17773
 C527 C -0.03730 0.72381 0.14351
 H528 H -0.03020 0.71020 0.13417
 C529 C -0.05556 0.71972 0.15728
 H530 H -0.06266 0.70303 0.15810
 Zn531 Zn -0.00331 0.75093 0.12405
 N532 N -0.02833 0.74473 0.14213
 C533 C -0.03057 0.78367 0.10291
 N534 N -0.00937 0.77567 0.10523
 C535 C 0.00779 0.78437 0.09329
 C536 C 0.00415 0.80244 0.07899
 C537 C -0.03502 0.80153 0.08858
 C538 C 0.02840 0.73985 0.15636
 C539 C 0.04603 0.74307 0.17133
 C540 C 0.04740 0.78202 0.16044
 C541 C 0.02992 0.77797 0.14544
 N542 N 0.02100 0.75706 0.14348
 H543 H -0.04417 0.77595 0.11183
 H544 H 0.02440 0.77737 0.09507
 H545 H 0.01823 0.80950 0.07021
 H546 H -0.05209 0.80732 0.08673
 H547 H 0.02062 0.72353 0.15490
 H548 H 0.05177 0.72915 0.18138
 H549 H 0.05446 0.79869 0.16171
 H550 H 0.02331 0.79162 0.13563
 C551 C -0.06464 0.73733 0.16963
 C552 C 0.01125 0.69033 0.07755
 C553 C 0.05577 0.76437 0.17347
 C554 C -0.01751 0.81132 0.07647
 C555 C 0.48801 0.21757 0.59211
 H556 H 0.47162 0.22513 0.59322
 C557 C 0.49148 0.19974 0.57763
 H558 H 0.47768 0.19356 0.56762
 C559 C 0.52612 0.21686 0.60334
 H560 H 0.53967 0.22385 0.61308
 C561 C 0.53042 0.19928 0.58877
 H562 H 0.54720 0.19255 0.58772
 N563 N 0.50512 0.22548 0.60489
 C564 C 0.46774 0.26117 0.65563
 H565 H 0.47601 0.27729 0.65481
 C566 C 0.44984 0.25797 0.67002
 H567 H 0.44446 0.27170 0.68036
 C568 C 0.46517 0.22353 0.64350
 H569 H 0.47142 0.21003 0.63343
 C570 C 0.44732 0.21953 0.65780
 H571 H 0.43968 0.20308 0.65822
 Zn572 Zn 0.49920 0.25022 0.62349
 N573 N 0.47478 0.24419 0.64245
 C574 C 0.47190 0.28397 0.60369
 N575 N 0.49270 0.27478 0.60464
 C576 C 0.50938 0.28220 0.59130
 C577 C 0.50575 0.30016 0.57690
 C578 C 0.46744 0.30178 0.58928
 C579 C 0.53192 0.23983 0.65520
 C580 C 0.55029 0.24336 0.66920
 C581 C 0.55215 0.28160 0.65616
 C582 C 0.53382 0.27729 0.64230
 N583 N 0.52430 0.25657 0.64184
 H584 H 0.45862 0.27731 0.61381
 H585 H 0.52564 0.27430 0.59208
 H586 H 0.51955 0.30622 0.56703
 H587 H 0.45067 0.30858 0.58855
 H588 H 0.52373 0.22364 0.65485
 H589 H 0.55609 0.22983 0.67973
 H590 H 0.55970 0.29811 0.65610
 H591 H 0.52713 0.29059 0.63209
 C592 C 0.43935 0.23694 0.67118
 C593 C 0.51293 0.19045 0.57582
 C594 C 0.56069 0.26447 0.66976
 C595 C 0.48453 0.31027 0.57573
 C596 C 0.51731 0.71768 0.90468
 H597 H 0.53356 0.72566 0.90373
 C598 C 0.51432 0.69902 0.91832
 H599 H 0.52854 0.69255 0.92750
 C600 C 0.47924 0.71639 0.89345
 H601 H 0.46549 0.72352 0.88412
 C602 C 0.47544 0.69787 0.90708
 H603 H 0.45869 0.69100 0.90803
 N604 N 0.50001 0.72569 0.89225
 C605 C 0.53729 0.76323 0.84260
 H606 H 0.52946 0.77946 0.84416
 C607 C 0.55481 0.76029 0.82775
 H608 H 0.56048 0.77436 0.81790
 C609 C 0.53889 0.72496 0.85302
 H610 H 0.53232 0.71113 0.86253
 C611 C 0.55625 0.72120 0.83814
 H612 H 0.56327 0.70457 0.83670
 Zn613 Zn 0.50552 0.75104 0.87419
 N614 N 0.52997 0.74579 0.85515
 C615 C 0.53182 0.78541 0.89456
 N616 N 0.51136 0.77539 0.89342
 C617 C 0.49437 0.78189 0.90680
 C618 C 0.49735 0.79963 0.92153
 C619 C 0.53559 0.80313 0.90921
 C620 C 0.47301 0.74028 0.84254
 C621 C 0.45484 0.74365 0.82828
 C622 C 0.45312 0.78208 0.84056
 C623 C 0.47115 0.77786 0.85484
 N624 N 0.48052 0.75714 0.85574
 H625 H 0.54532 0.77958 0.88430
 H626 H 0.47842 0.77329 0.90589
 H627 H 0.48361 0.80457 0.93203
 H628 H 0.55188 0.81112 0.90973
 H629 H 0.48105 0.72407 0.84330
 H630 H 0.44875 0.72971 0.81850
 H631 H 0.44621 0.79880 0.83982
 H632 H 0.47787 0.79128 0.86487
 C633 C 0.56448 0.73904 0.82538
 C634 C 0.49315 0.68879 0.91964
 C635 C 0.44460 0.76480 0.82710
 C636 C 0.51816 0.81055 0.92282
 C637 C 0.13405 0.21952 0.26454
 C638 C 0.14592 0.23744 0.25500
 C639 C 0.16384 0.23349 0.24081
 C640 C 0.17016 0.21150 0.23540
 C641 C 0.15816 0.19358 0.24477
 C642 C 0.14051 0.19752 0.25928
 C643 C 0.11510 0.22372 0.27990
 C644 C 0.09658 0.20909 0.28053
 C645 C 0.07902 0.21280 0.29523
 C646 C 0.07936 0.23144 0.30931
 C647 C 0.09759 0.24626 0.30856
 C648 C 0.11537 0.24234 0.29418
 H649 H 0.17287 0.24774 0.23424
 H650 H 0.16226 0.17642 0.24077
 H651 H 0.06499 0.20127 0.29539
 H652 H 0.09829 0.26063 0.31946
 H653 H 0.13208 0.18325 0.26654
 H654 H 0.09546 0.19487 0.26950
 H655 H 0.14129 0.25461 0.25832
 H656 H 0.12949 0.25373 0.29456
 C657 C 0.63656 0.72551 0.76318
 C658 C 0.64396 0.70382 0.75796
 C659 C 0.66167 0.70065 0.74332
 C660 C 0.67260 0.71911 0.73369
 C661 C 0.66508 0.74078 0.73877
 C662 C 0.64722 0.74393 0.75321
 C663 C 0.61801 0.72894 0.77913
 C664 C 0.61839 0.74723 0.79378
 C665 C 0.60097 0.75055 0.80870
 C666 C 0.58291 0.73550 0.80953
 C667 C 0.58253 0.71712 0.79507
 C668 C 0.59981 0.71395 0.77994
 H669 H 0.66677 0.68371 0.73954
 H670 H 0.67326 0.75540 0.73191
 H671 H 0.60178 0.76469 0.81988
 H672 H 0.56863 0.70544 0.79521
 H673 H 0.64175 0.76086 0.75652
 H674 H 0.63234 0.75885 0.79398
 H675 H 0.63633 0.68923 0.76549
 H676 H 0.59874 0.69992 0.76866
 C677 C 0.36837 0.77885 0.76878
 C678 C 0.35704 0.76028 0.75988
 C679 C 0.33817 0.76324 0.74638
 C680 C 0.33040 0.78488 0.74121
 C681 C 0.34201 0.80346 0.74993
 C682 C 0.36067 0.80046 0.76371
 C683 C 0.38805 0.77563 0.78346
 C684 C 0.38958 0.78693 0.80376
 C685 C 0.40788 0.78343 0.81791
 C686 C 0.42522 0.76878 0.81192
 C687 C 0.42376 0.75777 0.79136
 C688 C 0.40530 0.76103 0.77739
 H689 H 0.32944 0.74854 0.74035
 H690 H 0.33681 0.82037 0.74596
 H691 H 0.40818 0.79188 0.83374
 H692 H 0.43699 0.74677 0.78592
 H693 H 0.36931 0.81504 0.77019
 H694 H 0.37635 0.79810 0.80890
 H695 H 0.36253 0.74343 0.76377
 H696 H 0.40461 0.75234 0.76168
 C697 C -0.13740 0.27407 0.27229
 C698 C -0.14552 0.25689 0.25863
 C699 C -0.16346 0.26069 0.24412
 C700 C -0.17381 0.28195 0.24265
 C701 C -0.16560 0.29902 0.25679
 C702 C -0.14775 0.29510 0.27137
 C703 C -0.11789 0.27021 0.28715
 C704 C -0.11778 0.27837 0.30894
 C705 C -0.09925 0.27493 0.32282
 C706 C -0.08035 0.26337 0.31515
 C707 C -0.08050 0.25526 0.29330
 C708 C -0.09908 0.25858 0.27950
 H709 H -0.16950 0.24653 0.23467
 H710 H -0.17200 0.31592 0.25602
 H711 H -0.09986 0.28107 0.33965
 H712 H -0.06608 0.24667 0.28670
 H713 H -0.14156 0.30878 0.28146
 H714 H -0.13217 0.28718 0.31535
 H715 H -0.13815 0.24034 0.25937
 H716 H -0.09856 0.25242 0.26266
 C717 C -0.14038 0.72319 0.22745
 C718 C -0.15142 0.74157 0.23693
 C719 C -0.16937 0.73830 0.25129
 C720 C -0.17660 0.71656 0.25676
 C721 C -0.16559 0.69819 0.24725
 C722 C -0.14782 0.70146 0.23269
 C723 C -0.12106 0.72665 0.21237
 C724 C -0.10283 0.71174 0.21265
 C725 C -0.08465 0.71506 0.19859
 C726 C -0.08413 0.73351 0.18417
 C727 C -0.10224 0.74844 0.18386
 C728 C -0.12058 0.74498 0.19769
 H729 H -0.17763 0.75285 0.25804
 H730 H -0.17047 0.68120 0.25130
 H731 H -0.07074 0.70346 0.19933
 H732 H -0.10234 0.76265 0.17267
 H733 H -0.13998 0.68691 0.22546
 H734 H -0.10239 0.69771 0.22402
 H735 H -0.14599 0.75853 0.23353
 H736 H -0.13448 0.75654 0.19668
 C737 C 0.36505 0.22228 0.73079
 C738 C 0.35573 0.20086 0.73338
 C739 C 0.33822 0.19716 0.74815
 C740 C 0.32928 0.21484 0.76088
 C741 C 0.33863 0.23641 0.75788
 C742 C 0.35622 0.24002 0.74314
 C743 C 0.38405 0.22603 0.71543
 C744 C 0.38535 0.24570 0.70264
 C745 C 0.40330 0.24925 0.68833
 C746 C 0.42030 0.23316 0.68638
 C747 C 0.41899 0.21347 0.69908
 C748 C 0.40113 0.20998 0.71349
 H749 H 0.33254 0.18007 0.75011
 H750 H 0.33210 0.25093 0.76628
 H751 H 0.40372 0.26445 0.67851
 H752 H 0.43202 0.20093 0.69815
 H753 H 0.36307 0.25675 0.74161
 H754 H 0.37231 0.25823 0.70344
 H755 H 0.36199 0.18682 0.72397
 H756 H 0.40089 0.19484 0.72339
 C757 C 0.63635 0.28034 0.72849
 C758 C 0.64596 0.30171 0.73051
 C759 C 0.66357 0.30560 0.74539
 C760 C 0.67225 0.28818 0.75884
 C761 C 0.66267 0.26663 0.75634
 C762 C 0.64502 0.26283 0.74148
 C763 C 0.61713 0.27640 0.71316
 C764 C 0.61551 0.25644 0.70093
 C765 C 0.59722 0.25258 0.68686
 C766 C 0.58019 0.26864 0.68459
 C767 C 0.58186 0.28865 0.69668
 C768 C 0.60009 0.29247 0.71084
 H769 H 0.66949 0.32265 0.74686
 H770 H 0.66904 0.25228 0.76531
 H771 H 0.59654 0.23714 0.67750
 H772 H 0.56883 0.30119 0.69553
 H773 H 0.63797 0.24614 0.74039
 H774 H 0.62852 0.24388 0.70205
 H775 H 0.63981 0.31555 0.72059
 H776 H 0.60061 0.30784 0.72031
 C777 C 0.12859 0.77800 0.23617
 C778 C 0.13902 0.75951 0.24636
 C779 C 0.15699 0.76254 0.26101
 C780 C 0.16487 0.78415 0.26609
 C781 C 0.15416 0.80267 0.25626
 C782 C 0.13633 0.79963 0.24141
 C783 C 0.10992 0.77467 0.21998
 C784 C 0.09194 0.78983 0.21882
 C785 C 0.07448 0.78665 0.20356
 C786 C 0.07448 0.76810 0.18932
 C787 C 0.09238 0.75294 0.19044
 C788 C 0.10996 0.75625 0.20548
 H789 H 0.16497 0.74787 0.26805
 H790 H 0.15952 0.81958 0.26005
 H791 H 0.06074 0.79844 0.20320
 H792 H 0.09292 0.73866 0.17943
 H793 H 0.12889 0.81426 0.23374
 H794 H 0.09113 0.80399 0.22994
 H795 H 0.13329 0.74263 0.24306
 H796 H 0.12373 0.74450 0.20552
 C797 C 0.26572 0.12863 0.22038
 C798 C 0.25970 0.13513 0.19874
 C799 C 0.24519 0.15313 0.19510
 C800 C 0.23655 0.16533 0.21299
 C801 C 0.24263 0.15888 0.23462
 C802 C 0.25687 0.14068 0.23827
 C803 C 0.28120 0.10945 0.22428
 C804 C 0.29651 0.10973 0.24213
 C805 C 0.31088 0.09168 0.24592
 C806 C 0.31057 0.07308 0.23177
 C807 C 0.29551 0.07278 0.21382
 C808 C 0.28086 0.09068 0.21021
 H809 H 0.24063 0.15736 0.17822
 H810 H 0.23660 0.16805 0.24880
 H811 H 0.32255 0.09239 0.25973
 H812 H 0.29480 0.05849 0.20282
 H813 H 0.26080 0.13599 0.25517
 H814 H 0.29764 0.12405 0.25304
 H815 H 0.26639 0.12650 0.18452
 H816 H 0.26904 0.08961 0.19657
 C817 C 0.77255 0.64157 0.72208
 C818 C 0.76766 0.64870 0.70037
 C819 C 0.75303 0.66652 0.69651
 C820 C 0.74311 0.67791 0.71425
 C821 C 0.74833 0.67107 0.73598
 C822 C 0.76276 0.65305 0.73984
 C823 C 0.78757 0.62208 0.72611
 C824 C 0.80217 0.62162 0.74451
 C825 C 0.81613 0.60322 0.74831
 C826 C 0.81602 0.58502 0.73364
 C827 C 0.80155 0.58544 0.71523
 C828 C 0.78738 0.60368 0.71158
 H829 H 0.74919 0.67110 0.67955
 H830 H 0.74130 0.67965 0.75007
 H831 H 0.82733 0.60338 0.76250
 H832 H 0.80095 0.57146 0.70384
 H833 H 0.76592 0.64789 0.75677
 H834 H 0.80308 0.63563 0.75583
 H835 H 0.77517 0.64055 0.68628
 H836 H 0.77603 0.60318 0.69753
 C837 C 0.76682 0.37012 0.77832
 C838 C 0.75278 0.36945 0.79696
 C839 C 0.73813 0.35147 0.80029
 C840 C 0.73682 0.33405 0.78482
 C841 C 0.75060 0.33464 0.76616
 C842 C 0.76562 0.35233 0.76306
 C843 C 0.78255 0.38925 0.77474
 C844 C 0.78784 0.39645 0.75320
 C845 C 0.80278 0.41414 0.74979
 C846 C 0.81253 0.42555 0.76781
 C847 C 0.80705 0.41853 0.78936
 C848 C 0.79247 0.40052 0.79277
 H849 H 0.72749 0.35134 0.81473
 H850 H 0.74997 0.32119 0.75417
 H851 H 0.80681 0.41867 0.73293
 H852 H 0.81385 0.42705 0.80372
 H853 H 0.77647 0.35185 0.74881
 H854 H 0.78031 0.38856 0.73884
 H855 H 0.75281 0.38297 0.80886
 H856 H 0.78917 0.39533 0.80961
 C857 C 0.26686 -0.14084 0.27820
 C858 C 0.25381 -0.14962 0.26087
 C859 C 0.23865 -0.16704 0.26471
 C860 C 0.23590 -0.17624 0.28613
 C861 C 0.24939 -0.16736 0.30340
 C862 C 0.26459 -0.15001 0.29945
 C863 C 0.28253 -0.12194 0.27420
 C864 C 0.30396 -0.12174 0.28396
 C865 C 0.31860 -0.10382 0.28031
 C866 C 0.31210 -0.08563 0.26690
 C867 C 0.29062 -0.08585 0.25719
 C868 C 0.27603 -0.10382 0.26075
 H869 H 0.22977 -0.17366 0.25049
 H870 H 0.24761 -0.17286 0.32035
 H871 H 0.33514 -0.10435 0.28776
 H872 H 0.28490 -0.07194 0.24711
 H873 H 0.27415 -0.14329 0.31324
 H874 H 0.30953 -0.13561 0.29417
 H875 H 0.25557 -0.14321 0.24418
 H876 H 0.25949 -0.10333 0.25330
 C877 C 0.22999 -0.13836 0.73139
 C878 C 0.25310 -0.13573 0.73525
 C879 C 0.26795 -0.15332 0.73142
 C880 C 0.26029 -0.17396 0.72289
 C881 C 0.23712 -0.17646 0.71886
 C882 C 0.22222 -0.15909 0.72337
 C883 C 0.21414 -0.11954 0.73551
 C884 C 0.19445 -0.11719 0.72276
 C885 C 0.17968 -0.09954 0.72653
 C886 C 0.18441 -0.08327 0.74274
 C887 C 0.20416 -0.08556 0.75542
 C888 C 0.21861 -0.10357 0.75207
 H889 H 0.28562 -0.15018 0.73409
 H890 H 0.23019 -0.19220 0.71315
 H891 H 0.16449 -0.09876 0.71669
 H892 H 0.20875 -0.07328 0.76780
 H893 H 0.20453 -0.16214 0.72084
 H894 H 0.19048 -0.12881 0.70958
 H895 H 0.25995 -0.11990 0.74077
 H896 H 0.23329 -0.10493 0.76260
 C897 C 0.72997 0.36239 0.22588
 C898 C 0.74338 0.36202 0.20681
 C899 C 0.75829 0.34443 0.20316
 C900 C 0.76048 0.32711 0.21872
 C901 C 0.74740 0.32747 0.23788
 C902 C 0.73213 0.34479 0.24133
 C903 C 0.71385 0.38102 0.22961
 C904 C 0.70924 0.38858 0.25114
 C905 C 0.69415 0.40605 0.25460
 C906 C 0.68354 0.41677 0.23661
 C907 C 0.68822 0.40926 0.21508
 C908 C 0.70297 0.39151 0.21165
 H909 H 0.76841 0.34452 0.18836
 H910 H 0.74873 0.31410 0.24998
 H911 H 0.69075 0.41105 0.27145
 H912 H 0.68075 0.41727 0.20074
 H913 H 0.72182 0.34418 0.25597
 H914 H 0.71750 0.38121 0.26541
 H915 H 0.74264 0.37545 0.19477
 H916 H 0.70570 0.38596 0.19485
 C917 C 0.72725 0.63520 0.27611
 C918 C 0.71953 0.65563 0.28467
 C919 C 0.73414 0.67375 0.28744
 C920 C 0.75688 0.67184 0.28191
 C921 C 0.76460 0.65139 0.27342
 C922 C 0.74997 0.63336 0.27044
 C923 C 0.71175 0.61589 0.27307
 C924 C 0.71919 0.59387 0.27688
 C925 C 0.70485 0.57567 0.27350
 C926 C 0.68265 0.57908 0.26649
 C927 C 0.67502 0.60103 0.26302
 C928 C 0.68945 0.61925 0.26615
 H929 H 0.72754 0.68934 0.29374
 H930 H 0.78206 0.64921 0.26925
 H931 H 0.71104 0.55891 0.27659
 H932 H 0.65803 0.60407 0.25738
 H933 H 0.75645 0.61801 0.26349
 H934 H 0.73608 0.59066 0.28269
 H935 H 0.70222 0.65758 0.28946
 H936 H 0.68324 0.63593 0.26271
 C937 C 0.23527 0.13156 0.78060
 C938 C 0.22816 0.15132 0.79102
 C939 C 0.24274 0.16943 0.79373
 C940 C 0.26506 0.16817 0.78657
 C941 C 0.27228 0.14832 0.77639
 C942 C 0.25754 0.13036 0.77325
 C943 C 0.21951 0.11240 0.77739
 C944 C 0.22724 0.09012 0.77799
 C945 C 0.21241 0.07222 0.77491
 C946 C 0.18949 0.07618 0.77168
 C947 C 0.18163 0.09827 0.77123
 C948 C 0.19649 0.11619 0.77379
 H949 H 0.23637 0.18452 0.80128
 H950 H 0.28940 0.14654 0.77093
 H951 H 0.21875 0.05525 0.77546
 H952 H 0.16401 0.10165 0.76849
 H953 H 0.26361 0.11562 0.76484
 H954 H 0.24471 0.08643 0.78116
 H955 H 0.21132 0.15283 0.79731
 H956 H 0.18990 0.13303 0.77265
 C957 C 0.22236 0.26263 0.13243
 C958 C 0.20047 0.25788 0.13928
 C959 C 0.19670 0.24315 0.15688
 C960 C 0.21477 0.23320 0.16832
 C961 C 0.23670 0.23821 0.16145
 C962 C 0.24043 0.25259 0.14356
 C963 C 0.22634 0.27810 0.11372
 C964 C 0.23977 0.27154 0.09595
 C965 C 0.24340 0.28609 0.07817
 C966 C 0.23405 0.30774 0.07800
 C967 C 0.22076 0.31427 0.09602
 C968 C 0.21677 0.29952 0.11357
 H969 H 0.17958 0.23936 0.16132
 H970 H 0.25106 0.23131 0.17010
 H971 H 0.25328 0.28020 0.06444
 H972 H 0.21366 0.33090 0.09679
 H973 H 0.25746 0.25622 0.13865
 H974 H 0.24712 0.25498 0.09566
 H975 H 0.18629 0.26530 0.13075
 H976 H 0.20654 0.30499 0.12725
 C977 C 0.72453 0.77184 0.63175
 C978 C 0.70520 0.75834 0.63308
 C979 C 0.70178 0.74431 0.65130
 C980 C 0.71780 0.74310 0.66833
 C981 C 0.73716 0.75634 0.66708
 C982 C 0.74038 0.77075 0.64912
 C983 C 0.72820 0.78688 0.61234
 C984 C 0.74994 0.79123 0.60462
 C985 C 0.75342 0.80545 0.58656
 C986 C 0.73522 0.81537 0.57535
 C987 C 0.71345 0.81084 0.58293
 C988 C 0.71001 0.79699 0.60128
 H989 H 0.68681 0.73405 0.65192
 H990 H 0.74962 0.75575 0.68021
 H991 H 0.77046 0.80878 0.58157
 H992 H 0.69895 0.81781 0.57459
 H993 H 0.75520 0.78121 0.64904
 H994 H 0.76439 0.78350 0.61237
 H995 H 0.69284 0.75829 0.61989
 H996 H 0.69303 0.79441 0.60688
 C997 C 0.77672 0.76776 0.36178
 C998 C 0.77942 0.77629 0.34022
 C999 C 0.78245 0.76186 0.32233
 C1000 C 0.78254 0.73858 0.32553
 C1001 C 0.77978 0.72996 0.34698
 C1002 C 0.77705 0.74439 0.36493
 C1003 C 0.77349 0.78316 0.38083
 C1004 C 0.75916 0.77731 0.39830
 C1005 C 0.75611 0.79180 0.41614
 C1006 C 0.76710 0.81265 0.41689
 C1007 C 0.78135 0.81853 0.39937
 C1008 C 0.78461 0.80393 0.38166
 H1009 H 0.78426 0.76888 0.30588
 H1010 H 0.78004 0.71205 0.34987
 H1011 H 0.74526 0.78654 0.42946
 H1012 H 0.78986 0.83456 0.39919
 H1013 H 0.77546 0.73722 0.38132
 H1014 H 0.75007 0.76160 0.39809
 H1015 H 0.77882 0.79414 0.33707
 H1016 H 0.79601 0.80889 0.36869
 C1017 C 0.28175 0.26472 -0.13388
 C1018 C 0.26359 0.25401 -0.14425
 C1019 C 0.26703 0.23986 -0.16226
 C1020 C 0.28878 0.23575 -0.17008
 C1021 C 0.30698 0.24644 -0.15952
 C1022 C 0.30347 0.26093 -0.14173
 C1023 C 0.27793 0.27983 -0.11493
 C1024 C 0.28697 0.30153 -0.11480
 C1025 C 0.28268 0.31606 -0.09723
 C1026 C 0.26957 0.30905 -0.07919
 C1027 C 0.26087 0.28710 -0.07928
 C1028 C 0.26483 0.27275 -0.09704
 H1029 H 0.25257 0.23238 -0.17026
 H1030 H 0.32399 0.24338 -0.16477
 H1031 H 0.28932 0.33292 -0.09801
 H1032 H 0.25117 0.28087 -0.06551
 H1033 H 0.31774 0.26890 -0.13382
 H1034 H 0.29693 0.30741 -0.12856
 H1035 H 0.24667 0.25691 -0.13863
 H1036 H 0.25789 0.25598 -0.09671
 C1037 C 0.71795 0.23895 -0.13465
 C1038 C 0.71613 0.23032 -0.15620
 C1039 C 0.71291 0.24467 -0.17424
 C1040 C 0.71177 0.26795 -0.17112
 C1041 C 0.71366 0.27660 -0.14958
 C1042 C 0.71653 0.26220 -0.13147
 C1043 C 0.72157 0.22369 -0.11560
 C1044 C 0.70855 0.22563 -0.09644
 C1045 C 0.71185 0.21101 -0.07859
 C1046 C 0.72849 0.19445 -0.07944
 C1047 C 0.74162 0.19264 -0.09854
 C1048 C 0.73808 0.20701 -0.11651
 H1049 H 0.71165 0.23762 -0.19071
 H1050 H 0.71273 0.29448 -0.14676
 H1051 H 0.70162 0.21283 -0.06398
 H1052 H 0.75446 0.17992 -0.09963
 H1053 H 0.71802 0.26925 -0.11502
 H1054 H 0.69564 0.23829 -0.09541
 H1055 H 0.71703 0.21245 -0.15905
 H1056 H 0.74842 0.20528 -0.13105
 C1057 C 0.21658 0.73099 0.36864
 C1058 C 0.19748 0.74476 0.36739
 C1059 C 0.19399 0.75893 0.34922
 C1060 C 0.20974 0.76000 0.33217
 C1061 C 0.22881 0.74642 0.33330
 C1062 C 0.23209 0.73189 0.35120
 C1063 C 0.22045 0.71594 0.38807
 C1064 C 0.24231 0.71136 0.39563
 C1065 C 0.24602 0.69714 0.41368
 C1066 C 0.22796 0.68743 0.42508
 C1067 C 0.20608 0.69217 0.41766
 C1068 C 0.20239 0.70605 0.39931
 H1069 H 0.17922 0.76943 0.34867
 H1070 H 0.24103 0.74686 0.32015
 H1071 H 0.26314 0.69365 0.41853
 H1072 H 0.19169 0.68535 0.42614
 H1073 H 0.24669 0.72121 0.35119
 H1074 H 0.25669 0.71893 0.38775
 H1075 H 0.18537 0.74494 0.38061
 H1076 H 0.18532 0.70882 0.39386
 C1077 C 0.27451 0.73239 0.64069
 C1078 C 0.27369 0.75581 0.63808
 C1079 C 0.27737 0.76995 0.65615
 C1080 C 0.28227 0.76103 0.67713
 C1081 C 0.28328 0.73771 0.67981
 C1082 C 0.27927 0.72353 0.66183
 C1083 C 0.27055 0.71731 0.62143
 C1084 C 0.28233 0.69705 0.61950
 C1085 C 0.27864 0.68292 0.60143
 C1086 C 0.26330 0.68879 0.58461
 C1087 C 0.25159 0.70910 0.58649
 C1088 C 0.25505 0.72308 0.60472
 H1089 H 0.27678 0.78792 0.65365
 H1090 H 0.28684 0.73047 0.69592
 H1091 H 0.28771 0.66727 0.60078
 H1092 H 0.23988 0.71437 0.57375
 H1093 H 0.27961 0.70561 0.66460
 H1094 H 0.29464 0.69217 0.63183
 H1095 H 0.27057 0.76327 0.62201
 H1096 H 0.24541 0.73836 0.60577
 C1097 C 0.78024 0.23657 0.13423
 C1098 C 0.78006 0.26007 0.13241
 C1099 C 0.78312 0.27349 0.15112
 C1100 C 0.78664 0.26373 0.17203
 C1101 C 0.78716 0.24029 0.17385
 C1102 C 0.78390 0.22686 0.15519
 C1103 C 0.77622 0.22222 0.11447
 C1104 C 0.78767 0.20185 0.11198
 C1105 C 0.78333 0.18802 0.09380
 C1106 C 0.76754 0.19429 0.07755
 C1107 C 0.75634 0.21483 0.07987
 C1108 C 0.76056 0.22857 0.09814
 H1109 H 0.78292 0.29154 0.14923
 H1110 H 0.78954 0.23234 0.18984
 H1111 H 0.79210 0.17222 0.09270
 H1112 H 0.74432 0.22036 0.06753
 H1113 H 0.78373 0.20885 0.15730
 H1114 H 0.80007 0.19657 0.12407
 H1115 H 0.77771 0.26811 0.11648
 H1116 H 0.75122 0.24401 0.09964
 C1117 C 0.46992 0.38612 0.51735
 C1118 C 0.48847 0.39728 0.50839
 C1119 C 0.48549 0.41596 0.49471
 C1120 C 0.46386 0.42370 0.48941
 C1121 C 0.44529 0.41235 0.49832
 C1122 C 0.44831 0.39387 0.51228
 C1123 C 0.47319 0.36649 0.53203
 C1124 C 0.46203 0.36507 0.55234
 C1125 C 0.46568 0.34685 0.56650
 C1126 C 0.48032 0.32950 0.56050
 C1127 C 0.49115 0.33083 0.53991
 C1128 C 0.48775 0.34920 0.52593
 H1129 H 0.50018 0.42452 0.48856
 H1130 H 0.42839 0.41753 0.49428
 H1131 H 0.45735 0.34664 0.58235
 H1132 H 0.50213 0.31758 0.53447
 H1133 H 0.43375 0.38537 0.51883
 H1134 H 0.45089 0.37833 0.55749
 H1135 H 0.50531 0.39178 0.51230
 H1136 H 0.49632 0.34981 0.51020
 C1137 C -0.03419 0.88622 0.01732
 C1138 C -0.01620 0.89858 0.00879
 C1139 C -0.02004 0.91668 -0.00544
 C1140 C -0.04199 0.92262 -0.01173
 C1141 C -0.05999 0.91017 -0.00314
 C1142 C -0.05613 0.89226 0.01134
 C1143 C -0.03004 0.86702 0.03238
 C1144 C -0.04217 0.86473 0.05206
 C1145 C -0.03803 0.84677 0.06641
 C1146 C -0.02186 0.83052 0.06123
 C1147 C -0.00989 0.83280 0.04137
 C1148 C -0.01383 0.85092 0.02720
 H1149 H -0.00580 0.92617 -0.01130
 H1150 H -0.07707 0.91403 -0.00789
 H1151 H -0.04728 0.84584 0.08172
 H1152 H 0.00234 0.82041 0.03658
 H1153 H -0.07028 0.88282 0.01754
 H1154 H -0.05458 0.87708 0.05655
 H1155 H 0.00086 0.89444 0.01340
 H1156 H -0.00445 0.85218 0.01197
 C1157 C 0.02760 0.61509 0.01932
 C1158 C 0.00971 0.60396 0.00875
 C1159 C 0.01367 0.58607 -0.00559
 C1160 C 0.03564 0.57899 -0.00992
 C1161 C 0.05351 0.59007 0.00072
 C1162 C 0.04954 0.60778 0.01523
 C1163 C 0.02344 0.63436 0.03437
 C1164 C 0.03833 0.65266 0.03509
 C1165 C 0.03447 0.67072 0.04922
 C1166 C 0.01548 0.67105 0.06276
 C1167 C 0.00051 0.65290 0.06202
 C1168 C 0.00451 0.63469 0.04809
 H1169 H -0.00054 0.57774 -0.01321
 H1170 H 0.07067 0.58529 -0.00242
 H1171 H 0.04612 0.68465 0.04927
 H1172 H -0.01412 0.65263 0.07250
 H1173 H 0.06373 0.61568 0.02333
 H1174 H 0.05283 0.65323 0.02446
 H1175 H -0.00740 0.60926 0.01127
 H1176 H -0.00711 0.62075 0.04831
 C1177 C 0.52886 0.11779 0.51444
 C1178 C 0.55078 0.11189 0.50848
 C1179 C 0.55461 0.09444 0.49362
 C1180 C 0.53664 0.08213 0.48458
 C1181 C 0.51472 0.08798 0.49058
 C1182 C 0.51087 0.10567 0.50517
 C1183 C 0.52478 0.13646 0.53024
 C1184 C 0.50683 0.13548 0.54519
 C1185 C 0.50292 0.15306 0.55988
 C1186 C 0.51707 0.17185 0.56024
 C1187 C 0.53511 0.17284 0.54553
 C1188 C 0.53882 0.15544 0.53057
 H1189 H 0.57170 0.09072 0.48911
 H1190 H 0.50047 0.07874 0.48417
 H1191 H 0.48903 0.15183 0.57125
 H1192 H 0.54608 0.18731 0.54532
 H1193 H 0.49374 0.10992 0.50904
 H1194 H 0.49594 0.12098 0.54579
 H1195 H 0.56509 0.12059 0.51546
 H1196 H 0.55251 0.15707 0.51904
 C1197 C -0.02068 0.11168 0.48174
 C1198 C -0.02284 0.08983 0.47329
 C1199 C -0.02602 0.07164 0.48750
 C1200 C -0.02682 0.07481 0.51050
 C1201 C -0.02446 0.09653 0.51904
 C1202 C -0.02156 0.11480 0.50481
 C1203 C -0.01754 0.13107 0.46653
 C1204 C -0.00358 0.14909 0.47253
 C1205 C -0.00062 0.16725 0.45820
 C1206 C -0.01137 0.16776 0.43740
 C1207 C -0.02527 0.14970 0.43139
 C1208 C -0.02842 0.13167 0.44581
 H1209 H -0.02749 0.05499 0.48054
 H1210 H -0.02525 0.09941 0.53672
 H1211 H 0.00995 0.18100 0.46355
 H1212 H -0.03359 0.14935 0.41540
 H1213 H -0.02034 0.13140 0.51189
 H1214 H 0.00529 0.14909 0.48823
 H1215 H -0.02178 0.08671 0.45569
 H1216 H -0.03955 0.11826 0.44074
 C1217 C 0.47798 0.61206 0.97660
 C1218 C 0.45597 0.60525 0.98106
 C1219 C 0.45187 0.58750 0.99558
 C1220 C 0.46971 0.57596 1.00578
 C1221 C 0.49177 0.58258 1.00096
 C1222 C 0.49585 0.60053 0.98664
 C1223 C 0.48223 0.63140 0.96181
 C1224 C 0.49738 0.64826 0.96815
 C1225 C 0.50088 0.66688 0.95453
 C1226 C 0.48951 0.66892 0.93413
 C1227 C 0.47456 0.65183 0.92772
 C1228 C 0.47086 0.63336 0.94148
 H1229 H 0.43467 0.58316 0.99922
 H1230 H 0.50592 0.57381 1.00815
 H1231 H 0.51219 0.67988 0.96022
 H1232 H 0.46585 0.65258 0.91195
 H1233 H 0.51299 0.60531 0.98324
 H1234 H 0.50613 0.64728 0.98390
 H1235 H 0.44190 0.61405 0.97373
 H1236 H 0.45928 0.62044 0.93612
 C1237 C 0.53107 0.88415 0.98412
 C1238 C 0.51301 0.89232 0.99640
 C1239 C 0.51590 0.91011 1.01114
 C1240 C 0.53707 0.92037 1.01424
 C1241 C 0.55516 0.91186 1.00186
 C1242 C 0.55217 0.89412 0.98706
 C1243 C 0.52788 0.86534 0.96828
 C1244 C 0.54437 0.84874 0.96599
 C1245 C 0.54130 0.83105 0.95114
 C1246 C 0.52162 0.82948 0.93835
 C1247 C 0.50515 0.84605 0.94059
 C1248 C 0.50827 0.86381 0.95532
 H1249 H 0.50111 0.91619 1.01935
 H1250 H 0.57201 0.91817 1.00398
 H1251 H 0.55415 0.81835 0.94996
 H1252 H 0.48995 0.84545 0.93070
 H1253 H 0.56646 0.88832 0.97778
 H1254 H 0.55950 0.84919 0.97597
 H1255 H 0.49653 0.88490 0.99468
 H1256 H 0.49542 0.87653 0.95634
 C1257 C 0.02805 0.38173 0.48432
 C1258 C 0.01263 0.39951 0.48539
 C1259 C 0.01580 0.41704 0.50040
 C1260 C 0.03469 0.41742 0.51431
 C1261 C 0.05020 0.39988 0.51327
 C1262 C 0.04680 0.38210 0.49862
 C1263 C 0.02465 0.36295 0.46839
 C1264 C 0.04306 0.35211 0.45877
 C1265 C 0.03988 0.33431 0.44409
 C1266 C 0.01820 0.32709 0.43823
 C1267 C -0.00021 0.33813 0.44762
 C1268 C 0.00297 0.35564 0.46264
 H1269 H 0.00376 0.43056 0.50086
 H1270 H 0.06479 0.39982 0.52404
 H1271 H 0.05452 0.32607 0.43756
 H1272 H -0.01719 0.33341 0.44327
 H1273 H 0.05879 0.36853 0.49872
 H1274 H 0.06001 0.35745 0.46241
 H1275 H -0.00175 0.40014 0.47439
 H1276 H -0.01165 0.36325 0.46990
 C1277 C 0.38581 0.52363 0.47590
 C1278 C 0.39298 0.51879 0.45431
 C1279 C 0.41064 0.50396 0.45076
 C1280 C 0.42188 0.49382 0.46871
 C1281 C 0.41493 0.49890 0.49031
 C1282 C 0.39703 0.51347 0.49385
 C1283 C 0.36658 0.53898 0.47965
 C1284 C 0.36615 0.55309 0.49828
 C1285 C 0.34784 0.56706 0.50207
 C1286 C 0.32974 0.56754 0.48713
 C1287 C 0.33022 0.55377 0.46835
 C1288 C 0.34834 0.53952 0.46474
 H1289 H 0.41528 0.50023 0.43388
 H1290 H 0.42337 0.49172 0.50456
 H1291 H 0.34792 0.57772 0.51655
 H1292 H 0.31630 0.55366 0.45674
 H1293 H 0.39183 0.51651 0.51070
 H1294 H 0.38004 0.55352 0.50988
 H1295 H 0.38503 0.52654 0.44008
 H1296 H 0.34781 0.52860 0.45046
 C1297 C 0.87685 0.01869 -0.02889
 C1298 C 0.89707 0.02650 -0.03783
 C1299 C 0.91499 0.01196 -0.04124
 C1300 C 0.91354 -0.01087 -0.03530
 C1301 C 0.89331 -0.01857 -0.02601
 C1302 C 0.87520 -0.00410 -0.02315
 C1303 C 0.85768 0.03427 -0.02544
 C1304 C 0.84288 0.03113 -0.00770
 C1305 C 0.82507 0.04584 -0.00435
 C1306 C 0.82181 0.06446 -0.01834
 C1307 C 0.83662 0.06760 -0.03608
 C1308 C 0.85413 0.05260 -0.03972
 H1309 H 0.93035 0.01905 -0.04759
 H1310 H 0.89092 -0.03605 -0.02186
 H1311 H 0.81382 0.04249 0.00922
 H1312 H 0.83497 0.08186 -0.04707
 H1313 H 0.85975 -0.01096 -0.01677
 H1314 H 0.84515 0.01746 0.00389
 H1315 H 0.89934 0.04404 -0.04183
 H1316 H 0.86482 0.05542 -0.05384
 C1317 C 0.61304 0.02114 0.03056
 C1318 C 0.60131 0.01181 0.01251
 C1319 C 0.58424 -0.00383 0.01589
 C1320 C 0.57861 -0.01080 0.03739
 C1321 C 0.59039 -0.00156 0.05545
 C1322 C 0.60731 0.01429 0.05208
 C1323 C 0.63123 0.03783 0.02690
 C1324 C 0.65045 0.03805 0.04054
 C1325 C 0.66767 0.05347 0.03685
 C1326 C 0.66620 0.06884 0.01927
 C1327 C 0.64702 0.06877 0.00570
 C1328 C 0.62966 0.05355 0.00955
 H1329 H 0.57529 -0.01028 0.00160
 H1330 H 0.58667 -0.00670 0.07222
 H1331 H 0.68242 0.05301 0.04738
 H1332 H 0.64538 0.08064 -0.00780
 H1333 H 0.61574 0.02131 0.06640
 H1334 H 0.65244 0.02597 0.05380
 H1335 H 0.60545 0.01641 -0.00432
 H1336 H 0.61494 0.05423 -0.00099
 C1337 C 0.11830 0.51060 0.53462
 C1338 C 0.10799 0.50850 0.55528
 C1339 C 0.08976 0.49408 0.55811
 C1340 C 0.08107 0.48137 0.54024
 C1341 C 0.09188 0.48349 0.51956
 C1342 C 0.11019 0.49780 0.51686
 C1343 C 0.13713 0.52649 0.53139
 C1344 C 0.15593 0.52025 0.51904
 C1345 C 0.17336 0.53547 0.51545
 C1346 C 0.17231 0.55733 0.52401
 C1347 C 0.15352 0.56348 0.53649
 C1348 C 0.13618 0.54821 0.54020
 H1349 H 0.08313 0.49255 0.57464
 H1350 H 0.08569 0.47509 0.50491
 H1351 H 0.18776 0.53002 0.50613
 H1352 H 0.15196 0.58027 0.54300
 H1353 H 0.11758 0.49940 0.50061
 H1354 H 0.15723 0.50352 0.51229
 H1355 H 0.11422 0.51786 0.56939
 H1356 H 0.12173 0.55356 0.54951
 C1357 C 0.11705 0.48195 -0.02507
 C1358 C 0.11826 0.50413 -0.01728
 C1359 C 0.10079 0.51918 -0.02130
 C1360 C 0.08138 0.51238 -0.03281
 C1361 C 0.08002 0.49011 -0.04027
 C1362 C 0.09768 0.47521 -0.03669
 C1363 C 0.13589 0.46599 -0.02125
 C1364 C 0.13178 0.44289 -0.01855
 C1365 C 0.14948 0.42788 -0.01554
 C1366 C 0.17161 0.43569 -0.01460
 C1367 C 0.17585 0.45867 -0.01691
 C1368 C 0.15822 0.47364 -0.02046
 H1369 H 0.10268 0.53624 -0.01555
 H1370 H 0.06521 0.48403 -0.04881
 H1371 H 0.14589 0.41020 -0.01358
 H1372 H 0.19288 0.46496 -0.01642
 H1373 H 0.09616 0.45845 -0.04332
 H1374 H 0.11488 0.43634 -0.01851
 H1375 H 0.13266 0.50992 -0.00792
 H1376 H 0.16220 0.49115 -0.02294
 C1377 C 0.61961 0.98771 0.46729
 C1378 C 0.60984 0.99018 0.44627
 C1379 C 0.59159 1.00445 0.44302
 C1380 C 0.58229 1.01658 0.46082
 C1381 C 0.59234 1.01382 0.48196
 C1382 C 0.61075 0.99972 0.48507
 C1383 C 0.63888 0.97247 0.47072
 C1384 C 0.65759 0.97938 0.48318
 C1385 C 0.67572 0.96495 0.48648
 C1386 C 0.67543 0.94317 0.47760
 C1387 C 0.65661 0.93631 0.46517
 C1388 C 0.63861 0.95084 0.46166
 H1389 H 0.58555 1.00644 0.42623
 H1390 H 0.58562 1.02166 0.49657
 H1391 H 0.69008 0.97097 0.49578
 H1392 H 0.65557 0.91955 0.45846
 H1393 H 0.61775 0.99777 0.50156
 H1394 H 0.65832 0.99608 0.49011
 H1395 H 0.61664 0.98138 0.43219
 H1396 H 0.62425 0.94501 0.45223
 C1397 C 0.89513 0.97607 0.52264
 C1398 C 0.90483 0.97761 0.54377
 C1399 C 0.92295 0.99195 0.54769
 C1400 C 0.93208 1.00519 0.53049
 C1401 C 0.92248 1.00292 0.50911
 C1402 C 0.90425 0.98870 0.50533
 C1403 C 0.87520 0.96172 0.51875
 C1404 C 0.85693 0.96988 0.50640
 C1405 C 0.83796 0.95658 0.50297
 C1406 C 0.83689 0.93471 0.51163
 C1407 C 0.85526 0.92654 0.52392
 C1408 C 0.87416 0.93995 0.52752
 H1409 H 0.92881 0.99334 0.56461
 H1410 H 0.92926 1.01154 0.49490
 H1411 H 0.82397 0.96360 0.49382
 H1412 H 0.85517 0.90967 0.53051
 H1413 H 0.89739 0.98741 0.48872
 H1414 H 0.85715 0.98674 0.49975
 H1415 H 0.89790 0.96825 0.55751
 H1416 H 0.88812 0.93318 0.53691
 C1417 C 0.38605 0.48093 0.02317
 C1418 C 0.40543 0.47379 0.03452
 C1419 C 0.42352 0.48830 0.03770
 C1420 C 0.42260 0.51058 0.03012
 C1421 C 0.40316 0.51781 0.01893
 C1422 C 0.38524 0.50312 0.01531
 C1423 C 0.36681 0.46532 0.01966
 C1424 C 0.34464 0.47335 0.01923
 C1425 C 0.32665 0.45869 0.01595
 C1426 C 0.33039 0.43566 0.01355
 C1427 C 0.35235 0.42750 0.01411
 C1428 C 0.37040 0.44219 0.01686
 H1429 H 0.43831 0.48192 0.04601
 H1430 H 0.40162 0.53490 0.01312
 H1431 H 0.30975 0.46525 0.01572
 H1432 H 0.35554 0.40977 0.01206
 H1433 H 0.37083 0.50921 0.00617
 H1434 H 0.34109 0.49091 0.02179
 H1435 H 0.40663 0.45700 0.04120
 H1436 H 0.38716 0.43537 0.01653
 C1437 C 0.51689 0.47572 0.38771
 C1438 C 0.49382 0.47986 0.38552
 C1439 C 0.47953 0.47682 0.40347
 C1440 C 0.48798 0.46952 0.42403
 C1441 C 0.51106 0.46546 0.42627
 C1442 C 0.52536 0.46856 0.40831
 C1443 C 0.53199 0.47872 0.36852
 C1444 C 0.55321 0.48862 0.37124
 C1445 C 0.56729 0.49163 0.35309
 C1446 C 0.56046 0.48478 0.33182
 C1447 C 0.53931 0.47473 0.32916
 C1448 C 0.52524 0.47175 0.34729
 H1449 H 0.46180 0.47988 0.40118
 H1450 H 0.51807 0.46003 0.44197
 H1451 H 0.58336 0.49970 0.35562
 H1452 H 0.53373 0.46891 0.31307
 H1453 H 0.54302 0.46503 0.41046
 H1454 H 0.55876 0.49443 0.38735
 H1455 H 0.48683 0.48564 0.36993
 H1456 H 0.50916 0.46370 0.34473
 C1457 C 0.00996 -0.02516 0.88558
 C1458 C 0.00039 -0.00700 0.89686
 C1459 C -0.01388 -0.01060 0.91475
 C1460 C -0.01929 -0.03247 0.92162
 C1461 C -0.00989 -0.05062 0.91023
 C1462 C 0.00469 -0.04702 0.89259
 C1463 C 0.02543 -0.02135 0.86668
 C1464 C 0.02590 -0.03637 0.84875
 C1465 C 0.04086 -0.03317 0.83136
 C1466 C 0.05536 -0.01467 0.83127
 C1467 C 0.05469 0.00061 0.84885
 C1468 C 0.04003 -0.00279 0.86647
 H1469 H -0.02052 0.00381 0.92330
 H1470 H -0.01392 -0.06770 0.91476
 H1471 H 0.04095 -0.04503 0.81782
 H1472 H 0.06591 0.01488 0.84921
 H1473 H 0.01198 -0.06144 0.88461
 H1474 H 0.01459 -0.05054 0.84802
 H1475 H 0.00375 0.01007 0.89178
 H1476 H 0.04050 0.00890 0.88013
 C1477 C 0.02469 0.02446 0.61417
 C1478 C 0.02281 0.00785 0.59773
 C1479 C 0.00857 0.01083 0.57950
 C1480 C -0.00374 0.03066 0.57706
 C1481 C -0.00169 0.04744 0.59315
 C1482 C 0.01220 0.04430 0.61162
 C1483 C 0.03937 0.02100 0.63396
 C1484 C 0.05054 0.03914 0.64401
 C1485 C 0.06384 0.03593 0.66290
 C1486 C 0.06666 0.01442 0.67206
 C1487 C 0.05580 -0.00376 0.66177
 C1488 C 0.04218 -0.00049 0.64314
 H1489 H 0.00739 -0.00221 0.56711
 H1490 H -0.01121 0.06280 0.59163
 H1491 H 0.07164 0.05042 0.67046
 H1492 H 0.05785 -0.02064 0.66802
 H1493 H 0.01280 0.05728 0.62408
 H1494 H 0.04914 0.05589 0.63725
 H1495 H 0.03250 -0.00741 0.59878
 H1496 H 0.03362 -0.01485 0.63616
 C1497 C 0.51740 0.52781 0.11318
 C1498 C 0.50658 0.50966 0.10280
 C1499 C 0.49259 0.51307 0.08450
 C1500 C 0.48859 0.53478 0.07629
 C1501 C 0.49913 0.55299 0.08686
 C1502 C 0.51348 0.54953 0.10495
 C1503 C 0.53270 0.52400 0.13244
 C1504 C 0.53426 0.53973 0.14972
 C1505 C 0.54846 0.53596 0.16786
 C1506 C 0.56107 0.51621 0.16929
 C1507 C 0.55960 0.50049 0.15215
 C1508 C 0.54577 0.50443 0.13381
 H1509 H 0.48511 0.49858 0.07662
 H1510 H 0.49623 0.56997 0.08126
 H1511 H 0.54923 0.54822 0.18103
 H1512 H 0.56941 0.48526 0.15283
 H1513 H 0.52170 0.56391 0.11228
 H1514 H 0.52420 0.55478 0.14950
 H1515 H 0.50879 0.49273 0.10887
 H1516 H 0.54550 0.49219 0.12063
 C1517 C 0.48340 -0.03191 0.11690
 C1518 C 0.47497 -0.03585 0.09542
 C1519 C 0.48951 -0.03881 0.07765
 C1520 C 0.51278 -0.03762 0.08088
 C1521 C 0.52126 -0.03368 0.10225
 C1522 C 0.50676 -0.03101 0.12009
 C1523 C 0.46793 -0.02858 0.13583
 C1524 C 0.47330 -0.01337 0.15282
 C1525 C 0.45881 -0.01017 0.17056
 C1526 C 0.43837 -0.02187 0.17168
 C1527 C 0.43297 -0.03705 0.15468
 C1528 C 0.44760 -0.04045 0.13706
 H1529 H 0.48257 -0.04161 0.06126
 H1530 H 0.53917 -0.03296 0.10520
 H1531 H 0.46374 0.00139 0.18349
 H1532 H 0.41728 -0.04615 0.15480
 H1533 H 0.51389 -0.02849 0.13642
 H1534 H 0.48863 -0.00367 0.15231
 H1535 H 0.45712 -0.03624 0.09222
 H1536 H 0.44303 -0.05254 0.12448
 C1537 C 0.97944 0.47099 0.61393
 C1538 C 0.98369 0.44904 0.60671
 C1539 C 0.99873 0.44503 0.58958
 C1540 C 1.00971 0.46288 0.57895
 C1541 C 1.00512 0.48487 0.58584
 C1542 C 0.99033 0.48886 0.60320
 C1543 C 0.96405 0.47522 0.63277
 C1544 C 0.95061 0.49456 0.63322
 C1545 C 0.93673 0.49885 0.65123
 C1546 C 0.93566 0.48373 0.66902
 C1547 C 0.94872 0.46424 0.66849
 C1548 C 0.96289 0.46011 0.65066
 H1549 H 1.00202 0.42786 0.58492
 H1550 H 1.01292 0.49908 0.57781
 H1551 H 0.92661 0.51388 0.65117
 H1552 H 0.94837 0.45246 0.68216
 H1553 H 0.98775 0.50598 0.60844
 H1554 H 0.95066 0.50635 0.61958
 H1555 H 0.97535 0.43487 0.61427
 H1556 H 0.97328 0.44529 0.65117
 C1557 C 0.98848 0.53140 0.88236
 C1558 C 0.99325 0.55311 0.89013
 C1559 C 1.00744 0.55634 0.90839
 C1560 C 1.01701 0.53794 0.91953
 C1561 C 1.01225 0.51626 0.91170
 C1562 C 0.99836 0.51305 0.89328
 C1563 C 0.97309 0.52782 0.86313
 C1564 C 0.95885 0.50900 0.86240
 C1565 C 0.94455 0.50546 0.84433
 C1566 C 0.94385 0.52083 0.82674
 C1567 C 0.95784 0.53975 0.82745
 C1568 C 0.97243 0.54312 0.84536
 H1569 H 1.01096 0.57330 0.91371
 H1570 H 1.01899 0.50165 0.92001
 H1571 H 0.93367 0.49092 0.84430
 H1572 H 0.95772 0.55173 0.81395
 H1573 H 0.99545 0.49612 0.88758
 H1574 H 0.95845 0.49713 0.87596
 H1575 H 0.98576 0.56765 0.88235
 H1576 H 0.98340 0.55758 0.84512
 C1577 C 0.48453 0.02936 0.38193
 C1578 C 0.50781 0.02991 0.37856
 C1579 C 0.52254 0.03397 0.39620
 C1580 C 0.51433 0.03784 0.41756
 C1581 C 0.49111 0.03757 0.42096
 C1582 C 0.47638 0.03325 0.40338
 C1583 C 0.46884 0.02459 0.36321
 C1584 C 0.44790 0.03525 0.36184
 C1585 C 0.43311 0.03060 0.34438
 C1586 C 0.43896 0.01535 0.32769
 C1587 C 0.45996 0.00480 0.32900
 C1588 C 0.47464 0.00927 0.34658
 H1589 H 0.54038 0.03435 0.39311
 H1590 H 0.48439 0.04025 0.43734
 H1591 H 0.41698 0.03883 0.34411
 H1592 H 0.46520 -0.00678 0.31631
 H1593 H 0.45861 0.03255 0.40671
 H1594 H 0.44296 0.04737 0.37415
 H1595 H 0.51469 0.02745 0.36222
 H1596 H 0.49047 0.00049 0.34723
   
