data_POSCAR
  _audit_creation_date              2014-09-24
  _audit_creation_method            'ToBaCCo'
  _symmetry_space_group_name_H-M    'P1'
  _symmetry_Int_Tables_number       1
  _symmetry_cell_setting            triclinic
  loop_
  _symmetry_equiv_pos_as_xyz
 x,y,z
_cell_length_a 59.7177
_cell_length_b 59.7126
_cell_length_c 59.7818
_cell_angle_alpha 90.017100
_cell_angle_beta 90.001300
_cell_angle_gamma 89.997200
loop_
  _atom_site_label
  _atom_site_type_symbol
  _atom_site_fract_x
  _atom_site_fract_y
  _atom_site_fract_z
C1 C 0.19174 0.21256 0.22319
 N2 N 0.19535 0.22649 0.20559
 C3 C 0.21285 0.22309 0.19146
 N4 N 0.22682 0.20551 0.19510
 C5 C 0.22346 0.19140 0.21261
 N6 N 0.20587 0.19505 0.22657
 C7 C 0.69126 0.71274 0.72294
 N8 N 0.69494 0.72673 0.70539
 C9 C 0.71247 0.72335 0.69130
 N10 N 0.72641 0.70573 0.69492
 C11 C 0.72298 0.69158 0.71238
 N12 N 0.70537 0.69521 0.72630
 C13 C 0.30767 0.78800 0.72365
 N14 N 0.29353 0.80551 0.72697
 C15 C 0.27597 0.80921 0.71296
 N16 N 0.27270 0.79503 0.69544
 C17 C 0.28666 0.77742 0.69188
 N18 N 0.30411 0.77403 0.70606
 C19 C 0.80897 0.28727 0.22377
 N20 N 0.79479 0.30481 0.22700
 C21 C 0.77718 0.30835 0.21305
 N22 N 0.77380 0.29413 0.19564
 C23 C 0.78777 0.27652 0.19211
 N24 N 0.80528 0.27322 0.20624
 C25 C 0.80892 0.71270 0.27666
 N26 N 0.80535 0.72672 0.29421
 C27 C 0.78785 0.72340 0.30836
 N28 N 0.77385 0.70582 0.30480
 C29 C 0.77717 0.69164 0.28733
 N30 N 0.79475 0.69521 0.27334
 C31 C 0.30839 0.21243 -0.22409
 N32 N 0.30476 0.22637 -0.20646
 C33 C 0.28731 0.22297 -0.19229
 N34 N 0.27335 0.20537 -0.19588
 C35 C 0.27662 0.19122 -0.21341
 N36 N 0.29420 0.19492 -0.22739
 C37 C 0.69166 0.28731 -0.22291
 N38 N 0.70581 0.30479 -0.22632
 C39 C 0.72338 0.30855 -0.21233
 N40 N 0.72664 0.29447 -0.19475
 C41 C 0.71267 0.27688 -0.19110
 N42 N 0.69522 0.27343 -0.20527
 C43 C 0.19209 0.78741 0.27641
 N44 N 0.20629 0.80487 0.27306
 C45 C 0.22378 0.80863 0.28714
 N46 N 0.22692 0.79457 0.30476
 C47 C 0.21291 0.77701 0.30836
 N48 N 0.19553 0.77356 0.29410
 C49 C 0.46245 0.44156 0.47373
 N50 N 0.44498 0.45574 0.47709
 C51 C 0.44139 0.47333 0.46312
 N52 N 0.45552 0.47664 0.44563
 C53 C 0.47308 0.46263 0.44201
 N54 N 0.47642 0.44513 0.45615
 C55 C -0.03720 -0.05808 0.97322
 N56 N -0.02330 -0.05449 0.95559
 C57 C -0.02674 -0.03702 0.94145
 N58 N -0.04434 -0.02306 0.94510
 C59 C -0.05845 -0.02635 0.96266
 N60 N -0.05470 -0.04393 0.97662
 C61 C 1.03718 0.55865 0.97330
 N62 N 1.02313 0.55493 0.95577
 C63 C 1.02646 0.53742 0.94164
 N64 N 1.04409 0.52348 0.94517
 C65 C 1.05830 0.52689 0.96258
 N66 N 1.05473 0.54450 0.97653
 C67 C 0.53775 0.05801 0.47343
 N68 N 0.55525 0.04387 0.47681
 C69 C 0.55901 0.02631 0.46281
 N70 N 0.54490 0.02305 0.44524
 C71 C 0.52730 0.03701 0.44162
 N72 N 0.52385 0.05445 0.45580
 C73 C -0.03762 0.05851 0.52640
 N74 N -0.05512 0.04435 0.52304
 C75 C -0.05887 0.02682 0.53707
 N76 N -0.04478 0.02361 0.55465
 C77 C -0.02719 0.03758 0.55826
 N78 N -0.02374 0.05499 0.54406
 C79 C 0.46268 0.55860 0.02680
 N80 N 0.47663 0.55501 0.04440
 C81 C 0.47328 0.53748 0.05851
 N82 N 0.45574 0.52346 0.05484
 C83 C 0.44163 0.52680 0.03732
 N84 N 0.44523 0.54440 0.02339
 C85 C 0.53750 -0.05890 0.02645
 N86 N 0.55508 -0.04478 0.02325
 C87 C 0.55872 -0.02723 0.03726
 N88 N 0.54453 -0.02386 0.05471
 C89 C 0.52687 -0.03776 0.05821
 N90 N 0.52349 -0.05521 0.04401
 C91 C 1.03686 0.44119 0.52642
 N92 N 1.02284 0.44484 0.54397
 C93 C 1.02617 0.46231 0.55816
 N94 N 1.04378 0.47627 0.55466
 C95 C 1.05798 0.47293 0.53722
 N96 N 1.05440 0.45536 0.52322
 C97 C 0.41005 0.00969 0.22052
 H98 H 0.41159 0.02441 0.23097
 C99 C 0.42462 0.00661 0.20251
 H100 H 0.43747 0.01900 0.19932
 C101 C 0.39186 -0.02466 0.21258
 H102 H 0.37924 -0.03694 0.21668
 C103 C 0.40605 -0.02840 0.19439
 H104 H 0.40385 -0.04338 0.18442
 N105 N 0.39395 -0.00574 0.22507
 C106 C 0.34043 0.02910 0.26042
 H107 H 0.33896 0.01869 0.27516
 C108 C 0.32582 0.04709 0.25733
 H109 H 0.31302 0.05033 0.26974
 C110 C 0.35845 0.03691 0.22599
 H111 H 0.37102 0.03276 0.21368
 C112 C 0.34423 0.05508 0.22224
 H113 H 0.34635 0.06499 0.20723
 Zn114 Zn 0.37523 -0.00056 0.25010
 N115 N 0.35647 0.02449 0.24495
 C116 C 0.39200 0.02352 0.28760
 N117 N 0.39403 0.00460 0.27508
 C118 C 0.41016 -0.01085 0.27957
 C119 C 0.42480 -0.00777 0.29752
 C120 C 0.40623 0.02722 0.30576
 C121 C 0.34021 -0.02995 0.23993
 C122 C 0.32557 -0.04792 0.24298
 C123 C 0.34446 -0.05649 0.27768
 C124 C 0.35865 -0.03827 0.27402
 N125 N 0.35646 -0.02559 0.25526
 H126 H 0.37947 0.03587 0.28346
 H127 H 0.41159 -0.02561 0.26917
 H128 H 0.43731 -0.02041 0.30102
 H129 H 0.40447 0.04246 0.31543
 H130 H 0.33866 -0.01942 0.22528
 H131 H 0.31292 -0.05131 0.23045
 H132 H 0.34635 -0.06632 0.29277
 H133 H 0.37131 -0.03426 0.28628
 C134 C 0.32764 0.06040 0.23804
 C135 C 0.42269 -0.01263 0.18912
 C136 C 0.32765 -0.06151 0.26203
 C137 C 0.42288 0.01144 0.31093
 C138 C 0.09001 -0.00981 0.72035
 H139 H 0.08848 -0.02447 0.73086
 C140 C 0.07533 -0.00673 0.70243
 H141 H 0.06242 -0.01909 0.69935
 C142 C 0.10825 0.02447 0.71220
 H143 H 0.12094 0.03671 0.71619
 C144 C 0.09396 0.02819 0.69410
 H145 H 0.09614 0.04314 0.68408
 N146 N 0.10619 0.00559 0.72476
 C147 C 0.15998 -0.02898 0.75992
 H148 H 0.16161 -0.01839 0.77451
 C149 C 0.17458 -0.04698 0.75686
 H150 H 0.18755 -0.05002 0.76914
 C151 C 0.14153 -0.03725 0.72582
 H152 H 0.12880 -0.03329 0.71363
 C153 C 0.15572 -0.05547 0.72213
 H154 H 0.15340 -0.06558 0.70728
 Zn155 Zn 0.12501 0.00049 0.74973
 N156 N 0.14374 -0.02458 0.74460
 C157 C 0.10845 -0.02344 0.78738
 N158 N 0.10631 -0.00459 0.77479
 C159 C 0.09015 0.01082 0.77925
 C160 C 0.07556 0.00777 0.79725
 C161 C 0.09427 -0.02712 0.80558
 C162 C 0.16004 0.02982 0.73939
 C163 C 0.17471 0.04779 0.74238
 C164 C 0.15583 0.05651 0.77706
 C165 C 0.14162 0.03830 0.77347
 N166 N 0.14380 0.02553 0.75475
 H167 H 0.12102 -0.03576 0.78327
 H168 H 0.08864 0.02553 0.76879
 H169 H 0.06300 0.02038 0.80072
 H170 H 0.09610 -0.04230 0.81530
 H171 H 0.16157 0.01923 0.72479
 H172 H 0.18736 0.05111 0.72984
 H173 H 0.15395 0.06641 0.79212
 H174 H 0.12897 0.03434 0.78574
 C175 C 0.17253 -0.06056 0.73777
 C176 C 0.07722 0.01247 0.68898
 C177 C 0.17264 0.06145 0.76139
 C178 C 0.07756 -0.01138 0.81072
 C179 C 0.59014 0.48970 0.22069
 H180 H 0.58869 0.47492 0.23105
 C181 C 0.57554 0.49281 0.20272
 H182 H 0.56276 0.48038 0.19946
 C183 C 0.60812 0.52421 0.21298
 H184 H 0.62067 0.53654 0.21715
 C185 C 0.59390 0.52798 0.19482
 H186 H 0.59601 0.54304 0.18496
 N187 N 0.60617 0.50520 0.22534
 C188 C 0.65975 0.47037 0.26059
 H189 H 0.66119 0.48078 0.27533
 C190 C 0.67439 0.45241 0.25749
 H191 H 0.68719 0.44920 0.26991
 C192 C 0.64176 0.46254 0.22614
 H193 H 0.62920 0.46667 0.21382
 C194 C 0.65603 0.44439 0.22239
 H195 H 0.65394 0.43448 0.20736
 Zn196 Zn 0.62494 0.49998 0.25032
 N197 N 0.64371 0.47496 0.24511
 C198 C 0.60813 0.47577 0.28770
 N199 N 0.60619 0.49478 0.27533
 C200 C 0.59017 0.51029 0.27997
 C201 C 0.57557 0.50719 0.29794
 C202 C 0.59391 0.47201 0.30585
 C203 C 0.65978 0.52951 0.24002
 C204 C 0.67442 0.54748 0.24306
 C205 C 0.65598 0.55568 0.27809
 C206 C 0.64175 0.53749 0.27442
 N207 N 0.64372 0.52499 0.25550
 H208 H 0.62067 0.46342 0.28352
 H209 H 0.58873 0.52507 0.26960
 H210 H 0.56280 0.51964 0.30120
 H211 H 0.59600 0.45696 0.31572
 H212 H 0.66116 0.51911 0.22525
 H213 H 0.68689 0.55101 0.23038
 H214 H 0.65428 0.56534 0.29332
 H215 H 0.62926 0.53333 0.28679
 C216 C 0.67261 0.43910 0.23819
 C217 C 0.57734 0.51215 0.18946
 C218 C 0.67257 0.56088 0.26227
 C219 C 0.57736 0.48786 0.31121
 C220 C 0.90936 0.50971 0.72048
 H221 H 0.91090 0.52444 0.73092
 C222 C 0.92391 0.50661 0.70247
 H223 H 0.93675 0.51900 0.69926
 C224 C 0.89119 0.47533 0.71260
 H225 H 0.87857 0.46306 0.71672
 C226 C 0.90536 0.47158 0.69440
 H227 H 0.90316 0.45659 0.68445
 N228 N 0.89326 0.49427 0.72507
 C229 C 0.83965 0.52908 0.76029
 H230 H 0.83820 0.51871 0.77505
 C231 C 0.82506 0.54709 0.75719
 H232 H 0.81256 0.55067 0.76981
 C233 C 0.85782 0.53698 0.72594
 H234 H 0.87034 0.53279 0.71362
 C235 C 0.84364 0.55520 0.72222
 H236 H 0.84543 0.56485 0.70699
 Zn237 Zn 0.87453 0.49949 0.75008
 N238 N 0.85576 0.52451 0.74487
 C239 C 0.89126 0.52373 0.78747
 N240 N 0.89331 0.50475 0.77506
 C241 C 0.90942 0.48934 0.77965
 C242 C 0.92402 0.49249 0.79763
 C243 C 0.90547 0.52754 0.80563
 C244 C 0.83952 0.47005 0.73998
 C245 C 0.82491 0.45207 0.74308
 C246 C 0.84384 0.44358 0.77777
 C247 C 0.85802 0.46180 0.77408
 N248 N 0.85579 0.47446 0.75529
 H249 H 0.87864 0.53600 0.78334
 H250 H 0.91095 0.47458 0.76925
 H251 H 0.93687 0.48012 0.80085
 H252 H 0.90329 0.54257 0.81553
 H253 H 0.83796 0.48055 0.72532
 H254 H 0.81225 0.44865 0.73057
 H255 H 0.84577 0.43376 0.79288
 H256 H 0.87068 0.46585 0.78631
 C257 C 0.82702 0.56047 0.73797
 C258 C 0.92199 0.48735 0.68910
 C259 C 0.82703 0.43851 0.76215
 C260 C 0.92212 0.51179 0.81094
 C261 C 0.22048 0.40955 0.00994
 H262 H 0.23088 0.41093 0.02470
 C263 C 0.20250 0.42420 0.00692
 H264 H 0.19898 0.43667 0.01959
 C265 C 0.21247 0.39151 -0.02445
 H266 H 0.21662 0.37901 -0.03683
 C267 C 0.19428 0.40574 -0.02810
 H268 H 0.18461 0.40403 -0.04332
 N269 N 0.22499 0.39348 -0.00554
 C270 C 0.26034 0.33984 0.02909
 H271 H 0.27511 0.33843 0.01870
 C272 C 0.25731 0.32525 0.04708
 H273 H 0.26999 0.31278 0.05062
 C274 C 0.22593 0.35794 0.03706
 H275 H 0.21356 0.37044 0.03289
 C276 C 0.22227 0.34376 0.05526
 H277 H 0.20704 0.34551 0.06493
 Zn278 Zn 0.25001 0.37470 -0.00043
 N279 N 0.24486 0.35592 0.02456
 C280 C 0.28753 0.39143 0.02367
 N281 N 0.27504 0.39346 0.00475
 C282 C 0.27958 0.40955 -0.01069
 C283 C 0.29757 0.42416 -0.00762
 C284 C 0.30573 0.40564 0.02737
 C285 C 0.23967 0.33993 -0.03007
 C286 C 0.24276 0.32533 -0.04806
 C287 C 0.27791 0.34370 -0.05602
 C288 C 0.27416 0.35792 -0.03785
 N289 N 0.25517 0.35595 -0.02545
 H290 H 0.28335 0.37893 0.03602
 H291 H 0.26920 0.41096 -0.02546
 H292 H 0.30112 0.43665 -0.02026
 H293 H 0.31538 0.40389 0.04261
 H294 H 0.22491 0.33847 -0.01968
 H295 H 0.23032 0.31254 -0.05130
 H296 H 0.29294 0.34581 -0.06591
 H297 H 0.28650 0.37047 -0.03369
 C298 C 0.23810 0.32717 0.06049
 C299 C 0.18909 0.42234 -0.01228
 C300 C 0.26208 0.32713 -0.06135
 C301 C 0.31096 0.42226 0.01160
 C302 C 0.72101 0.08989 -0.01009
 H303 H 0.73143 0.08847 -0.02484
 C304 C 0.70305 0.07524 -0.00703
 H305 H 0.69985 0.06244 -0.01946
 C306 C 0.71315 0.10786 0.02436
 H307 H 0.71726 0.12042 0.03669
 C308 C 0.69501 0.09358 0.02809
 H309 H 0.68509 0.09566 0.04310
 N310 N 0.72558 0.10593 0.00540
 C311 C 0.76074 0.15974 -0.02918
 H312 H 0.77548 0.16123 -0.01877
 C313 C 0.75759 0.17441 -0.04709
 H314 H 0.76996 0.18728 -0.05025
 C315 C 0.72636 0.14159 -0.03709
 H316 H 0.71409 0.12896 -0.03302
 C317 C 0.72255 0.15589 -0.05518
 H318 H 0.70753 0.15374 -0.06510
 Zn319 Zn 0.75056 0.12476 0.00027
 N320 N 0.74533 0.14360 -0.02467
 C321 C 0.78832 0.10832 -0.02371
 N322 N 0.77563 0.10606 -0.00494
 C323 C 0.78002 0.08978 0.01035
 C324 C 0.79801 0.07517 0.00725
 C325 C 0.80655 0.09415 -0.02740
 C326 C 0.74025 0.15954 0.02988
 C327 C 0.74330 0.17410 0.04790
 C328 C 0.77828 0.15550 0.05609
 C329 C 0.77460 0.14135 0.03786
 N330 N 0.75570 0.14344 0.02533
 H331 H 0.78428 0.12099 -0.03593
 H332 H 0.76949 0.08819 0.02499
 H333 H 0.80142 0.06249 0.01974
 H334 H 0.81639 0.09610 -0.04249
 H335 H 0.72550 0.16101 0.01947
 H336 H 0.73065 0.18660 0.05145
 H337 H 0.79350 0.15370 0.06577
 H338 H 0.78695 0.12882 0.03369
 C339 C 0.73829 0.17257 -0.06041
 C340 C 0.68973 0.07700 0.01226
 C341 C 0.76250 0.17214 0.06132
 C342 C 0.81159 0.07732 -0.01180
 C343 C 0.21998 0.59047 0.48991
 H344 H 0.23040 0.58905 0.47518
 C345 C 0.20203 0.57580 0.49296
 H346 H 0.19885 0.56301 0.48053
 C347 C 0.21208 0.60842 0.52437
 H348 H 0.21619 0.62098 0.53670
 C349 C 0.19395 0.59414 0.52808
 H350 H 0.18402 0.59621 0.54309
 N351 N 0.22453 0.60650 0.50541
 C352 C 0.25989 0.66013 0.47076
 H353 H 0.27462 0.66158 0.48119
 C354 C 0.25685 0.67475 0.45279
 H355 H 0.26929 0.68755 0.44962
 C356 C 0.22543 0.64212 0.46284
 H357 H 0.21310 0.62956 0.46693
 C358 C 0.22174 0.65637 0.44469
 H359 H 0.20673 0.65426 0.43474
 Zn360 Zn 0.24953 0.62531 0.50029
 N361 N 0.24439 0.64408 0.47530
 C362 C 0.28711 0.60857 0.47626
 N363 N 0.27459 0.60657 0.49517
 C364 C 0.27913 0.59051 0.51064
 C365 C 0.29714 0.57591 0.50761
 C366 C 0.30533 0.59438 0.47261
 C367 C 0.23913 0.66013 0.52984
 C368 C 0.24216 0.67476 0.54781
 C369 C 0.27722 0.65632 0.55599
 C370 C 0.27357 0.64210 0.53780
 N371 N 0.25464 0.64408 0.52531
 H372 H 0.28293 0.62106 0.46389
 H373 H 0.26873 0.58911 0.52539
 H374 H 0.30069 0.56344 0.52028
 H375 H 0.31500 0.59611 0.45738
 H376 H 0.22436 0.66151 0.51945
 H377 H 0.22947 0.68722 0.55135
 H378 H 0.29247 0.65461 0.56565
 H379 H 0.28597 0.62962 0.53364
 C380 C 0.23758 0.67295 0.43943
 C381 C 0.18869 0.57755 0.51225
 C382 C 0.26138 0.67290 0.56120
 C383 C 0.31055 0.57779 0.48841
 C384 C 0.72083 0.91044 0.51013
 H385 H 0.73139 0.91204 0.52474
 C386 C 0.70281 0.92502 0.50709
 H387 H 0.69942 0.93769 0.51960
 C388 C 0.71246 0.89189 0.47609
 H389 H 0.71647 0.87921 0.46385
 C390 C 0.69420 0.90603 0.47245
 H391 H 0.68433 0.90407 0.45738
 N392 N 0.72519 0.89416 0.49482
 C393 C 0.76057 0.84051 0.52937
 H394 H 0.77528 0.83901 0.51892
 C395 C 0.75751 0.82589 0.54734
 H396 H 0.77011 0.81333 0.55080
 C397 C 0.72632 0.85882 0.53752
 H398 H 0.71401 0.87141 0.53343
 C399 C 0.72263 0.84461 0.55570
 H400 H 0.70744 0.84644 0.56542
 Zn401 Zn 0.75027 0.87545 0.49992
 N402 N 0.74518 0.85669 0.52493
 C403 C 0.78803 0.89202 0.52376
 N404 N 0.77530 0.89424 0.50502
 C405 C 0.77961 0.91052 0.48972
 C406 C 0.79759 0.92516 0.49276
 C407 C 0.80624 0.90622 0.52741
 C408 C 0.74008 0.84047 0.47046
 C409 C 0.74318 0.82587 0.45248
 C410 C 0.77801 0.84468 0.44413
 C411 C 0.77428 0.85888 0.46231
 N412 N 0.75543 0.85670 0.47490
 H413 H 0.78404 0.87934 0.53600
 H414 H 0.76905 0.91208 0.47510
 H415 H 0.80094 0.93783 0.48025
 H416 H 0.81611 0.90430 0.54248
 H417 H 0.72538 0.83894 0.48091
 H418 H 0.73062 0.81327 0.44902
 H419 H 0.79319 0.84655 0.43440
 H420 H 0.78655 0.87151 0.46640
 C421 C 0.73835 0.82789 0.56082
 C422 C 0.68917 0.92285 0.48807
 C423 C 0.76233 0.82791 0.43900
 C424 C 0.81122 0.92305 0.51178
 C425 C 0.01017 0.22090 0.40973
 H426 H 0.02490 0.23134 0.41123
 C427 C 0.00710 0.20288 0.42428
 H428 H 0.01971 0.19936 0.43680
 C429 C -0.02410 0.21284 0.39145
 H430 H -0.03641 0.21698 0.37888
 C431 C -0.02780 0.19460 0.40558
 H432 H -0.04300 0.18488 0.40374
 N433 N -0.00523 0.22541 0.39359
 C434 C 0.02956 0.26072 0.34007
 H435 H 0.01913 0.27546 0.33856
 C436 C 0.04754 0.25758 0.32547
 H437 H 0.05074 0.26996 0.31264
 C438 C 0.03742 0.22632 0.35819
 H439 H 0.03330 0.21404 0.37078
 C440 C 0.05558 0.22253 0.34397
 H441 H 0.06551 0.20751 0.34613
 Zn442 Zn -0.00006 0.25047 0.37489
 N443 N 0.02498 0.24529 0.35615
 C444 C 0.02392 0.28812 0.39154
 N445 N 0.00509 0.27548 0.39367
 C446 C -0.01026 0.27987 0.40989
 C447 C -0.00719 0.29782 0.42454
 C448 C 0.02763 0.30629 0.40578
 C449 C -0.02948 0.24029 0.33993
 C450 C -0.04745 0.24336 0.32532
 C451 C -0.05593 0.27815 0.34415
 C452 C -0.03774 0.27444 0.35835
 N453 N -0.02509 0.25563 0.35616
 H454 H 0.03614 0.28416 0.37883
 H455 H -0.02489 0.26930 0.41147
 H456 H -0.01949 0.30084 0.43749
 H457 H 0.04251 0.31638 0.40352
 H458 H -0.01890 0.22567 0.33832
 H459 H -0.05048 0.23107 0.31236
 H460 H -0.06604 0.29302 0.34645
 H461 H -0.03378 0.28664 0.37108
 C462 C 0.06087 0.23829 0.32734
 C463 C -0.01207 0.18941 0.42225
 C464 C -0.06102 0.26249 0.32735
 C465 C 0.01195 0.31136 0.42257
 C466 C -0.00984 0.72025 0.08954
 H467 H -0.02450 0.73078 0.08801
 C468 C -0.00679 0.70227 0.07491
 H469 H -0.01915 0.69920 0.06202
 C470 C 0.02444 0.71209 0.10776
 H471 H 0.03670 0.71610 0.12040
 C472 C 0.02812 0.69391 0.09354
 H473 H 0.04304 0.68385 0.09576
 N474 N 0.00558 0.72469 0.10568
 C475 C -0.02903 0.76003 0.15932
 H476 H -0.01857 0.77475 0.16079
 C477 C -0.04699 0.75696 0.17395
 H478 H -0.05013 0.76937 0.18679
 C479 C -0.03703 0.72564 0.14123
 H480 H -0.03297 0.71334 0.12862
 C481 C -0.05517 0.72191 0.15549
 H482 H -0.06515 0.70692 0.15337
 Zn483 Zn 0.00046 0.74973 0.12444
 N484 N -0.02453 0.74457 0.14323
 C485 C -0.02366 0.78730 0.10783
 N486 N -0.00475 0.77477 0.10572
 C487 C 0.01067 0.77932 0.08961
 C488 C 0.00759 0.79735 0.07507
 C489 C -0.02737 0.80554 0.09370
 C490 C 0.03010 0.73947 0.15922
 C491 C 0.04811 0.74258 0.17379
 C492 C 0.05616 0.77763 0.15530
 C493 C 0.03798 0.77387 0.14111
 N494 N 0.02552 0.75491 0.14314
 H495 H -0.03599 0.78312 0.12035
 H496 H 0.02543 0.76891 0.08813
 H497 H 0.02022 0.80091 0.06258
 H498 H -0.04259 0.81522 0.09552
 H499 H 0.01967 0.72474 0.16073
 H500 H 0.05131 0.73019 0.18662
 H501 H 0.06610 0.79264 0.15314
 H502 H 0.03385 0.78616 0.12853
 C503 C -0.06038 0.73771 0.17213
 C504 C 0.01238 0.68877 0.07683
 C505 C 0.06146 0.76186 0.17192
 C506 C -0.01161 0.81079 0.07707
 C507 C 0.48965 0.22011 0.59049
 H508 H 0.47491 0.23054 0.58897
 C509 C 0.49280 0.20214 0.57587
 H510 H 0.48043 0.19895 0.56302
 C511 C 0.52402 0.21222 0.60865
 H512 H 0.53628 0.21632 0.62127
 C513 C 0.52782 0.19407 0.59442
 H514 H 0.54283 0.18414 0.59659
 N515 N 0.50505 0.22467 0.60661
 C516 C 0.47021 0.25976 0.66027
 H517 H 0.48074 0.27441 0.66190
 C518 C 0.45218 0.25665 0.67481
 H519 H 0.44907 0.26895 0.68774
 C520 C 0.46213 0.22556 0.64186
 H521 H 0.46618 0.21335 0.62917
 C522 C 0.44389 0.22182 0.65599
 H523 H 0.43384 0.20691 0.65365
 Zn524 Zn 0.49978 0.24965 0.62540
 N525 N 0.47472 0.24441 0.64407
 C526 C 0.47562 0.28715 0.60871
 N527 N 0.49458 0.27470 0.60669
 C528 C 0.51005 0.27929 0.59064
 C529 C 0.50695 0.29729 0.57606
 C530 C 0.47187 0.30534 0.59452
 C531 C 0.52937 0.23940 0.66023
 C532 C 0.54735 0.24251 0.67484
 C533 C 0.55535 0.27763 0.65645
 C534 C 0.53718 0.27386 0.64222
 N535 N 0.52477 0.25487 0.64419
 H536 H 0.46333 0.28302 0.62129
 H537 H 0.52479 0.26886 0.58914
 H538 H 0.51936 0.30051 0.56326
 H539 H 0.45686 0.31527 0.59667
 H540 H 0.51897 0.22464 0.66169
 H541 H 0.55057 0.23009 0.68763
 H542 H 0.56526 0.29266 0.65433
 H543 H 0.53305 0.28617 0.62966
 C544 C 0.43868 0.23749 0.67274
 C545 C 0.51208 0.18880 0.57776
 C546 C 0.56066 0.26182 0.67302
 C547 C 0.48766 0.31064 0.57792
 C548 C 0.51015 0.72086 0.90980
 H549 H 0.52492 0.73126 0.91121
 C550 C 0.50710 0.70288 0.92441
 H551 H 0.51956 0.69967 0.93716
 C552 C 0.47562 0.71304 0.89191
 H553 H 0.46326 0.71717 0.87940
 C554 C 0.47191 0.69488 0.90615
 H555 H 0.45687 0.68497 0.90409
 N556 N 0.49462 0.72546 0.89382
 C557 C 0.52921 0.76069 0.84011
 H558 H 0.51880 0.77545 0.83867
 C559 C 0.54713 0.75757 0.82543
 H560 H 0.55030 0.76997 0.81262
 C561 C 0.53710 0.72625 0.85812
 H562 H 0.53302 0.71395 0.87071
 C563 C 0.55520 0.72247 0.84382
 H564 H 0.56512 0.70744 0.84591
 Zn565 Zn 0.49975 0.75047 0.87505
 N566 N 0.52468 0.74524 0.85618
 C567 C 0.52392 0.78805 0.89160
 N568 N 0.50505 0.77549 0.89378
 C569 C 0.48973 0.77996 0.91000
 C570 C 0.49288 0.79792 0.92462
 C571 C 0.52771 0.80622 0.90582
 C572 C 0.46999 0.74024 0.84038
 C573 C 0.45194 0.74335 0.82587
 C574 C 0.44399 0.77843 0.84437
 C575 C 0.46222 0.77466 0.85851
 N576 N 0.47465 0.75569 0.85643
 H577 H 0.53611 0.78403 0.87889
 H578 H 0.47505 0.76945 0.91160
 H579 H 0.48060 0.80100 0.93758
 H580 H 0.54264 0.81625 0.90353
 H581 H 0.48041 0.72549 0.83884
 H582 H 0.44868 0.73095 0.81306
 H583 H 0.43407 0.79345 0.84656
 H584 H 0.46640 0.78695 0.87108
 C585 C 0.56045 0.73826 0.82721
 C586 C 0.48778 0.68957 0.92267
 C587 C 0.43862 0.76264 0.82778
 C588 C 0.51207 0.81138 0.92261
 C589 C 0.13595 0.22364 0.26761
 C590 C 0.14060 0.23882 0.25027
 C591 C 0.15867 0.23522 0.23585
 C592 C 0.17256 0.21639 0.23849
 C593 C 0.16793 0.20124 0.25590
 C594 C 0.14981 0.20481 0.27026
 C595 C 0.11671 0.22741 0.28287
 C596 C 0.10291 0.20949 0.28934
 C597 C 0.08479 0.21302 0.30370
 C598 C 0.08008 0.23455 0.31198
 C599 C 0.09390 0.25248 0.30550
 C600 C 0.11198 0.24895 0.29108
 H601 H 0.16171 0.24723 0.22262
 H602 H 0.17829 0.18658 0.25846
 H603 H 0.07425 0.19893 0.30805
 H604 H 0.09095 0.26920 0.31186
 H605 H 0.14680 0.19296 0.28364
 H606 H 0.10593 0.19277 0.28300
 H607 H 0.13006 0.25335 0.24766
 H608 H 0.12251 0.26303 0.28664
 C609 C 0.63542 0.72373 0.76732
 C610 C 0.64009 0.73896 0.75002
 C611 C 0.65817 0.73539 0.73561
 C612 C 0.67206 0.71654 0.73822
 C613 C 0.66740 0.70135 0.75558
 C614 C 0.64927 0.70489 0.76993
 C615 C 0.61618 0.72748 0.78259
 C616 C 0.60238 0.70954 0.78903
 C617 C 0.58429 0.71305 0.80344
 C618 C 0.57962 0.73456 0.81179
 C619 C 0.59343 0.75250 0.80532
 C620 C 0.61148 0.74900 0.79086
 H621 H 0.66123 0.74742 0.72242
 H622 H 0.67774 0.68668 0.75812
 H623 H 0.57376 0.69894 0.80777
 H624 H 0.59050 0.76920 0.81174
 H625 H 0.64624 0.69301 0.78327
 H626 H 0.60538 0.69284 0.78265
 H627 H 0.62957 0.75349 0.74745
 H628 H 0.62201 0.76308 0.78645
 C629 C 0.36339 0.77707 0.76819
 C630 C 0.35877 0.76183 0.75088
 C631 C 0.34072 0.76537 0.73643
 C632 C 0.32681 0.78421 0.73901
 C633 C 0.33141 0.79941 0.75639
 C634 C 0.34952 0.79590 0.77077
 C635 C 0.38264 0.77337 0.78346
 C636 C 0.39643 0.79133 0.78987
 C637 C 0.41458 0.78785 0.80421
 C638 C 0.41933 0.76634 0.81251
 C639 C 0.40551 0.74839 0.80610
 C640 C 0.38739 0.75186 0.79171
 H641 H 0.33771 0.75333 0.72323
 H642 H 0.32104 0.81407 0.75890
 H643 H 0.42512 0.80196 0.80850
 H644 H 0.40849 0.73168 0.81248
 H645 H 0.35250 0.80779 0.78412
 H646 H 0.39338 0.80803 0.78351
 H647 H 0.36933 0.74731 0.74832
 H648 H 0.37687 0.73776 0.78732
 C649 C -0.13612 0.27671 0.26755
 C650 C -0.14024 0.26188 0.24979
 C651 C -0.15829 0.26536 0.23533
 C652 C -0.17281 0.28375 0.23832
 C653 C -0.16862 0.29853 0.25624
 C654 C -0.15048 0.29507 0.27060
 C655 C -0.11688 0.27306 0.28283
 C656 C -0.10347 0.29113 0.28968
 C657 C -0.08534 0.28770 0.30405
 C658 C -0.08026 0.26613 0.31199
 C659 C -0.09371 0.24805 0.30514
 C660 C -0.11179 0.25148 0.29069
 H661 H -0.16078 0.25356 0.22179
 H662 H -0.17931 0.31287 0.25927
 H663 H -0.07508 0.30192 0.30867
 H664 H -0.09050 0.23129 0.31123
 H665 H -0.14786 0.30663 0.28431
 H666 H -0.10679 0.30790 0.28363
 H667 H -0.12929 0.24772 0.24689
 H668 H -0.12202 0.23728 0.28594
 C669 C -0.13535 0.72346 0.23209
 C670 C -0.14927 0.70467 0.22953
 C671 C -0.16737 0.70121 0.24393
 C672 C -0.17192 0.71642 0.26131
 C673 C -0.15795 0.73521 0.26388
 C674 C -0.13990 0.73871 0.24941
 C675 C -0.11613 0.72712 0.21677
 C676 C -0.11136 0.74863 0.20851
 C677 C -0.09331 0.75206 0.19403
 C678 C -0.07958 0.73407 0.18753
 C679 C -0.08433 0.71257 0.19585
 C680 C -0.10242 0.70913 0.21028
 H681 H -0.17778 0.68657 0.24142
 H682 H -0.16092 0.74727 0.27709
 H683 H -0.09032 0.76875 0.18763
 H684 H -0.07386 0.69843 0.19149
 H685 H -0.12931 0.75320 0.25196
 H686 H -0.12182 0.76275 0.21295
 H687 H -0.14634 0.69277 0.21617
 H688 H -0.10548 0.69244 0.21665
 C689 C 0.36332 0.22316 0.73220
 C690 C 0.34895 0.20482 0.72905
 C691 C 0.33079 0.20132 0.74337
 C692 C 0.32660 0.21603 0.76135
 C693 C 0.34112 0.23440 0.76443
 C694 C 0.35918 0.23793 0.75000
 C695 C 0.38261 0.22684 0.71698
 C696 C 0.38772 0.24843 0.70918
 C697 C 0.40586 0.25188 0.69481
 C698 C 0.41937 0.23382 0.68801
 C699 C 0.41426 0.21223 0.69590
 C700 C 0.39606 0.20878 0.71018
 H701 H 0.32010 0.18700 0.74028
 H702 H 0.33863 0.24615 0.77801
 H703 H 0.40909 0.26865 0.68875
 H704 H 0.42455 0.19802 0.69132
 H705 H 0.37014 0.25207 0.75297
 H706 H 0.37746 0.26261 0.71390
 H707 H 0.35159 0.19331 0.71531
 H708 H 0.39272 0.19200 0.71620
 C709 C 0.63586 0.27627 0.73266
 C710 C 0.64973 0.29510 0.73002
 C711 C 0.66786 0.29864 0.74437
 C712 C 0.67250 0.28347 0.76176
 C713 C 0.65860 0.26463 0.76438
 C714 C 0.64053 0.26106 0.74997
 C715 C 0.61658 0.27255 0.71743
 C716 C 0.61183 0.25103 0.70918
 C717 C 0.59372 0.24755 0.69478
 C718 C 0.57990 0.26550 0.68836
 C719 C 0.58464 0.28701 0.69669
 C720 C 0.60278 0.29050 0.71103
 H721 H 0.67821 0.31330 0.74182
 H722 H 0.66165 0.25262 0.77760
 H723 H 0.59076 0.23085 0.68838
 H724 H 0.57410 0.30112 0.69240
 H725 H 0.62998 0.24654 0.75257
 H726 H 0.62236 0.23694 0.71356
 H727 H 0.64671 0.30697 0.71667
 H728 H 0.60582 0.30720 0.71740
 C729 C 0.13652 0.77635 0.23171
 C730 C 0.15043 0.79515 0.22911
 C731 C 0.16849 0.79870 0.24354
 C732 C 0.17302 0.78356 0.26099
 C733 C 0.15908 0.76475 0.26357
 C734 C 0.14108 0.76117 0.24907
 C735 C 0.11731 0.77263 0.21641
 C736 C 0.11255 0.75110 0.20819
 C737 C 0.09447 0.74761 0.19375
 C738 C 0.08069 0.76556 0.18726
 C739 C 0.08544 0.78709 0.19554
 C740 C 0.10355 0.79058 0.20992
 H741 H 0.17887 0.81335 0.24102
 H742 H 0.16205 0.75275 0.27683
 H743 H 0.09150 0.73089 0.18739
 H744 H 0.07493 0.80120 0.19119
 H745 H 0.13050 0.74667 0.25165
 H746 H 0.12305 0.73700 0.21264
 H747 H 0.14749 0.80700 0.21571
 H748 H 0.10660 0.80730 0.21626
 C749 C 0.26789 0.13556 0.22359
 C750 C 0.27051 0.14940 0.20476
 C751 C 0.25615 0.16754 0.20124
 C752 C 0.23877 0.17221 0.21642
 C753 C 0.23616 0.15834 0.23525
 C754 C 0.25059 0.14026 0.23881
 C755 C 0.28315 0.11629 0.22731
 C756 C 0.29143 0.11157 0.24880
 C757 C 0.30585 0.09347 0.25228
 C758 C 0.31227 0.07963 0.23436
 C759 C 0.30392 0.08434 0.21288
 C760 C 0.28955 0.10247 0.20939
 H761 H 0.25868 0.17787 0.18657
 H762 H 0.22296 0.16141 0.24728
 H763 H 0.31227 0.09053 0.26896
 H764 H 0.30821 0.07378 0.19879
 H765 H 0.24801 0.12973 0.25333
 H766 H 0.28705 0.12212 0.26288
 H767 H 0.28386 0.14636 0.19289
 H768 H 0.28316 0.10549 0.19271
 C769 C 0.76739 0.63571 0.72342
 C770 C 0.76990 0.64944 0.70450
 C771 C 0.75554 0.66757 0.70093
 C772 C 0.73827 0.67237 0.71619
 C773 C 0.73575 0.65862 0.73511
 C774 C 0.75015 0.64052 0.73869
 C775 C 0.78268 0.61643 0.72721
 C776 C 0.77444 0.59608 0.73570
 C777 C 0.78882 0.57796 0.73925
 C778 C 0.81176 0.57975 0.73432
 C779 C 0.82001 0.60007 0.72583
 C780 C 0.80565 0.61822 0.72235
 H781 H 0.75792 0.67774 0.68613
 H782 H 0.72270 0.66187 0.74727
 H783 H 0.78191 0.56240 0.74550
 H784 H 0.83766 0.60206 0.72219
 H785 H 0.74797 0.63048 0.75361
 H786 H 0.75678 0.59403 0.73927
 H787 H 0.78280 0.64599 0.69224
 H788 H 0.81260 0.63377 0.71615
 C789 C 0.76724 0.36342 0.77672
 C790 C 0.74946 0.35913 0.76193
 C791 C 0.73499 0.34110 0.76554
 C792 C 0.73795 0.32675 0.78403
 C793 C 0.75585 0.33109 0.79879
 C794 C 0.77023 0.34919 0.79519
 C795 C 0.78258 0.38266 0.77291
 C796 C 0.80565 0.38064 0.77720
 C797 C 0.82004 0.39876 0.77374
 C798 C 0.81173 0.41928 0.76580
 C799 C 0.78871 0.42130 0.76142
 C800 C 0.77429 0.40322 0.76499
 H801 H 0.72155 0.33842 0.75367
 H802 H 0.75877 0.32060 0.81328
 H803 H 0.83776 0.39661 0.77695
 H804 H 0.78179 0.43702 0.75560
 H805 H 0.78355 0.35222 0.80711
 H806 H 0.81265 0.36493 0.78294
 H807 H 0.74689 0.36956 0.74735
 H808 H 0.75657 0.40547 0.76189
 C809 C 0.26775 -0.13656 0.27637
 C810 C 0.25004 -0.14083 0.26150
 C811 C 0.23553 -0.15885 0.26504
 C812 C 0.23839 -0.17319 0.28355
 C813 C 0.25622 -0.16887 0.29839
 C814 C 0.27064 -0.15078 0.29486
 C815 C 0.28312 -0.11733 0.27263
 C816 C 0.30617 -0.11937 0.27699
 C817 C 0.32059 -0.10126 0.27359
 C818 C 0.31233 -0.08073 0.26563
 C819 C 0.28932 -0.07868 0.26118
 C820 C 0.27487 -0.09675 0.26469
 H821 H 0.22214 -0.16152 0.25311
 H822 H 0.25907 -0.17934 0.31291
 H823 H 0.33830 -0.10343 0.27685
 H824 H 0.28242 -0.06296 0.25535
 H825 H 0.28391 -0.14776 0.30683
 H826 H 0.31313 -0.13509 0.28274
 H827 H 0.24754 -0.13040 0.24690
 H828 H 0.25716 -0.09448 0.26153
 C829 C 0.23223 -0.13581 0.72356
 C830 C 0.22913 -0.15018 0.70523
 C831 C 0.24347 -0.16834 0.70176
 C832 C 0.26142 -0.17255 0.71650
 C833 C 0.26446 -0.15803 0.73486
 C834 C 0.25001 -0.13995 0.73835
 C835 C 0.21698 -0.11653 0.72721
 C836 C 0.20914 -0.11140 0.74877
 C837 C 0.19471 -0.09329 0.75219
 C838 C 0.18787 -0.07983 0.73414
 C839 C 0.19580 -0.08494 0.71258
 C840 C 0.21015 -0.10311 0.70916
 H841 H 0.24041 -0.17903 0.68744
 H842 H 0.27801 -0.16053 0.74664
 H843 H 0.18862 -0.09004 0.76894
 H844 H 0.19119 -0.07469 0.69838
 H845 H 0.25295 -0.12900 0.75249
 H846 H 0.21387 -0.12164 0.76295
 H847 H 0.21540 -0.14753 0.69369
 H848 H 0.21619 -0.10646 0.69241
 C849 C 0.73262 0.36413 0.22383
 C850 C 0.73006 0.35024 0.20503
 C851 C 0.74448 0.33213 0.20156
 C852 C 0.76185 0.32754 0.21677
 C853 C 0.76441 0.34148 0.23556
 C854 C 0.74993 0.35953 0.23907
 C855 C 0.71729 0.38334 0.22752
 C856 C 0.70896 0.38805 0.24900
 C857 C 0.69447 0.40610 0.25245
 C858 C 0.68802 0.41990 0.23452
 C859 C 0.69641 0.41520 0.21305
 C860 C 0.71085 0.39711 0.20959
 H861 H 0.74198 0.32174 0.18692
 H862 H 0.77761 0.33847 0.24761
 H863 H 0.68802 0.40903 0.26913
 H864 H 0.69209 0.42573 0.19895
 H865 H 0.75247 0.37010 0.25357
 H866 H 0.71337 0.37753 0.26308
 H867 H 0.71671 0.35320 0.19314
 H868 H 0.71726 0.39410 0.19291
 C869 C 0.73252 0.63592 0.27651
 C870 C 0.73014 0.64969 0.29544
 C871 C 0.74458 0.66777 0.29892
 C872 C 0.76180 0.67249 0.28360
 C873 C 0.76420 0.65870 0.26467
 C874 C 0.74971 0.64065 0.26116
 C875 C 0.71715 0.61670 0.27281
 C876 C 0.72528 0.59630 0.26431
 C877 C 0.71083 0.57823 0.26085
 C878 C 0.68792 0.58010 0.26587
 C879 C 0.67977 0.60047 0.27437
 C880 C 0.69421 0.61857 0.27777
 H881 H 0.74229 0.67796 0.31373
 H882 H 0.77721 0.66188 0.25246
 H883 H 0.71765 0.56263 0.25459
 H884 H 0.66214 0.60252 0.27808
 H885 H 0.75180 0.63057 0.24625
 H886 H 0.74292 0.59418 0.26067
 H887 H 0.71728 0.64631 0.30775
 H888 H 0.68733 0.63416 0.28397
 C889 C 0.23266 0.13642 0.77572
 C890 C 0.22969 0.15070 0.79417
 C891 C 0.24411 0.16877 0.79773
 C892 C 0.26203 0.17302 0.78298
 C893 C 0.26499 0.15861 0.76453
 C894 C 0.25047 0.14061 0.76095
 C895 C 0.21726 0.11722 0.77194
 C896 C 0.22549 0.09660 0.76407
 C897 C 0.21101 0.07855 0.76056
 C898 C 0.18799 0.08066 0.76494
 C899 C 0.17974 0.10124 0.77280
 C900 C 0.19420 0.11933 0.77621
 H901 H 0.24120 0.17930 0.81220
 H902 H 0.27844 0.16123 0.75267
 H903 H 0.21788 0.06279 0.75479
 H904 H 0.16203 0.10345 0.77601
 H905 H 0.25303 0.13013 0.74639
 H906 H 0.24320 0.09428 0.76098
 H907 H 0.21635 0.14774 0.80607
 H908 H 0.18725 0.13508 0.78189
 C909 C 0.22380 0.26752 0.13565
 C910 C 0.20485 0.26999 0.14938
 C911 C 0.20132 0.25562 0.16749
 C912 C 0.21663 0.23838 0.17228
 C913 C 0.23557 0.23589 0.15852
 C914 C 0.23912 0.25031 0.14045
 C915 C 0.22754 0.28281 0.11640
 C916 C 0.23603 0.27459 0.09606
 C917 C 0.23951 0.28897 0.07795
 C918 C 0.23452 0.31190 0.07975
 C919 C 0.22603 0.32014 0.10007
 C920 C 0.22262 0.30577 0.11820
 H921 H 0.18649 0.25798 0.17765
 H922 H 0.24776 0.22287 0.16176
 H923 H 0.24576 0.28208 0.06240
 H924 H 0.22235 0.33778 0.10206
 H925 H 0.25405 0.24815 0.13040
 H926 H 0.23964 0.25694 0.09400
 H927 H 0.19255 0.28286 0.14595
 H928 H 0.21642 0.31271 0.13375
 C929 C 0.72370 0.76799 0.63572
 C930 C 0.70476 0.77050 0.64945
 C931 C 0.70114 0.75606 0.66748
 C932 C 0.71634 0.73871 0.67219
 C933 C 0.73528 0.73618 0.65843
 C934 C 0.73892 0.75066 0.64043
 C935 C 0.72755 0.78335 0.61654
 C936 C 0.73598 0.77517 0.59616
 C937 C 0.73955 0.78961 0.57812
 C938 C 0.73471 0.81256 0.58002
 C939 C 0.72629 0.82076 0.60039
 C940 C 0.72278 0.80633 0.61845
 H941 H 0.68632 0.75846 0.67765
 H942 H 0.74740 0.72307 0.66161
 H943 H 0.74573 0.78275 0.56253
 H944 H 0.72272 0.83842 0.60246
 H945 H 0.75384 0.74847 0.63038
 H946 H 0.73947 0.75750 0.59402
 H947 H 0.69255 0.78347 0.64607
 H948 H 0.71664 0.81324 0.63403
 C949 C 0.77689 0.76804 0.36403
 C950 C 0.79578 0.77054 0.35022
 C951 C 0.79932 0.75610 0.33216
 C952 C 0.78408 0.73877 0.32750
 C953 C 0.76519 0.73627 0.34132
 C954 C 0.76163 0.75075 0.35934
 C955 C 0.77313 0.78340 0.38324
 C956 C 0.76476 0.77520 0.40363
 C957 C 0.76121 0.78963 0.42169
 C958 C 0.76601 0.81259 0.41980
 C959 C 0.77440 0.82080 0.39942
 C960 C 0.77789 0.80638 0.38134
 H961 H 0.81410 0.75848 0.32194
 H962 H 0.75304 0.72318 0.33818
 H963 H 0.75506 0.78276 0.43728
 H964 H 0.77794 0.83846 0.39736
 H965 H 0.74675 0.74857 0.36945
 H966 H 0.76128 0.75753 0.40577
 H967 H 0.80803 0.78349 0.35356
 H968 H 0.78399 0.81329 0.36575
 C969 C 0.27646 0.26739 -0.13647
 C970 C 0.29529 0.26999 -0.15032
 C971 C 0.29878 0.25563 -0.16845
 C972 C 0.28356 0.23827 -0.17310
 C973 C 0.26473 0.23567 -0.15921
 C974 C 0.26120 0.25010 -0.14113
 C975 C 0.27276 0.28265 -0.11721
 C976 C 0.25126 0.29096 -0.11248
 C977 C 0.24779 0.30538 -0.09439
 C978 C 0.26575 0.31178 -0.08058
 C979 C 0.28724 0.30340 -0.08529
 C980 C 0.29071 0.28904 -0.10342
 H981 H 0.31344 0.25816 -0.17880
 H982 H 0.25267 0.22248 -0.16226
 H983 H 0.23110 0.31182 -0.09144
 H984 H 0.30135 0.30768 -0.07476
 H985 H 0.24667 0.24753 -0.13060
 H986 H 0.23716 0.28659 -0.12301
 H987 H 0.30719 0.28333 -0.14729
 H988 H 0.30740 0.28263 -0.10645
 C989 C 0.72364 0.23251 -0.13528
 C990 C 0.70482 0.22985 -0.14913
 C991 C 0.70128 0.24421 -0.16725
 C992 C 0.71644 0.26162 -0.17189
 C993 C 0.73525 0.26429 -0.15798
 C994 C 0.73883 0.24987 -0.13991
 C995 C 0.72741 0.21722 -0.11607
 C996 C 0.74896 0.20901 -0.11136
 C997 C 0.75248 0.19454 -0.09333
 C998 C 0.73456 0.18799 -0.07956
 C999 C 0.71302 0.19628 -0.08424
 C1000 C 0.70949 0.21070 -0.10231
 H1001 H 0.68664 0.24162 -0.17761
 H1002 H 0.74726 0.27753 -0.16102
 H1003 H 0.76921 0.18817 -0.09040
 H1004 H 0.69893 0.19189 -0.07373
 H1005 H 0.75334 0.25250 -0.12937
 H1006 H 0.76303 0.21348 -0.12186
 H1007 H 0.69297 0.21646 -0.14613
 H1008 H 0.69277 0.21704 -0.10531
 C1009 C 0.22346 0.73274 0.36434
 C1010 C 0.23874 0.75002 0.35972
 C1011 C 0.23530 0.76441 0.34161
 C1012 C 0.21654 0.76178 0.32763
 C1013 C 0.20129 0.74444 0.33224
 C1014 C 0.20469 0.73012 0.35041
 C1015 C 0.22709 0.71748 0.38360
 C1016 C 0.20909 0.71108 0.39731
 C1017 C 0.21249 0.69670 0.41543
 C1018 C 0.23397 0.68832 0.42022
 C1019 C 0.25197 0.69474 0.40648
 C1020 C 0.24858 0.70917 0.38840
 H1021 H 0.24738 0.77759 0.33859
 H1022 H 0.18668 0.74189 0.32182
 H1023 H 0.19834 0.69241 0.42591
 H1024 H 0.26865 0.68830 0.40949
 H1025 H 0.19278 0.71678 0.35339
 H1026 H 0.19241 0.71749 0.39423
 H1027 H 0.25322 0.75261 0.37032
 H1028 H 0.26271 0.71355 0.37793
 C1029 C 0.27574 0.73282 0.63618
 C1030 C 0.26041 0.75005 0.64093
 C1031 C 0.26396 0.76452 0.65896
 C1032 C 0.28291 0.76208 0.67272
 C1033 C 0.29822 0.74483 0.66798
 C1034 C 0.29469 0.73041 0.64991
 C1035 C 0.27199 0.71745 0.61697
 C1036 C 0.27693 0.69451 0.61883
 C1037 C 0.27350 0.68007 0.60075
 C1038 C 0.26498 0.68823 0.58042
 C1039 C 0.25997 0.71115 0.57856
 C1040 C 0.26347 0.72560 0.59662
 H1041 H 0.25176 0.77755 0.66216
 H1042 H 0.31305 0.74252 0.67815
 H1043 H 0.27719 0.66244 0.60279
 H1044 H 0.25370 0.71798 0.56299
 H1045 H 0.30699 0.71752 0.64651
 H1046 H 0.28315 0.68763 0.63439
 H1047 H 0.24548 0.75216 0.63087
 H1048 H 0.25985 0.74324 0.59451
 C1049 C 0.77683 0.23186 0.13646
 C1050 C 0.79576 0.22941 0.15022
 C1051 C 0.79928 0.24385 0.16829
 C1052 C 0.78398 0.26112 0.17300
 C1053 C 0.76504 0.26355 0.15923
 C1054 C 0.76150 0.24908 0.14120
 C1055 C 0.77311 0.21654 0.11721
 C1056 C 0.76466 0.22475 0.09685
 C1057 C 0.76117 0.21035 0.07875
 C1058 C 0.76612 0.18742 0.08057
 C1059 C 0.77459 0.17919 0.10090
 C1060 C 0.77801 0.19358 0.11902
 H1061 H 0.81409 0.24153 0.17847
 H1062 H 0.75285 0.27659 0.16241
 H1063 H 0.75495 0.21724 0.06319
 H1064 H 0.77824 0.16154 0.10290
 H1065 H 0.74659 0.25121 0.13113
 H1066 H 0.76108 0.24240 0.09478
 H1067 H 0.80805 0.21652 0.14683
 H1068 H 0.78419 0.18665 0.13458
 C1069 C 0.47330 0.38577 0.51820
 C1070 C 0.48854 0.39038 0.50089
 C1071 C 0.48501 0.40844 0.48646
 C1072 C 0.46621 0.42239 0.48905
 C1073 C 0.45101 0.41779 0.50643
 C1074 C 0.45450 0.39967 0.52080
 C1075 C 0.47699 0.36652 0.53347
 C1076 C 0.45902 0.35277 0.53991
 C1077 C 0.46249 0.33464 0.55427
 C1078 C 0.48399 0.32988 0.56259
 C1079 C 0.50196 0.34367 0.55615
 C1080 C 0.49850 0.36176 0.54173
 H1081 H 0.49706 0.41145 0.47325
 H1082 H 0.43636 0.42818 0.50895
 H1083 H 0.44836 0.32412 0.55859
 H1084 H 0.51866 0.34069 0.56255
 H1085 H 0.44261 0.39670 0.53415
 H1086 H 0.44233 0.35581 0.53354
 H1087 H 0.50304 0.37980 0.49832
 H1088 H 0.51261 0.37226 0.53733
 C1089 C -0.02609 0.88611 0.01762
 C1090 C -0.01082 0.89091 0.00038
 C1091 C -0.01442 0.90899 -0.01401
 C1092 C -0.03335 0.92276 -0.01148
 C1093 C -0.04860 0.91799 0.00580
 C1094 C -0.04502 0.89987 0.02015
 C1095 C -0.02231 0.86682 0.03287
 C1096 C -0.02716 0.86859 0.05582
 C1097 C -0.02370 0.85042 0.07014
 C1098 C -0.01524 0.83009 0.06186
 C1099 C -0.01033 0.82831 0.03894
 C1100 C -0.01386 0.84645 0.02460
 H1101 H -0.00226 0.91222 -0.02706
 H1102 H -0.06342 0.92816 0.00819
 H1103 H -0.02732 0.85240 0.08778
 H1104 H -0.00411 0.81275 0.03202
 H1105 H -0.05728 0.89644 0.03305
 H1106 H -0.03333 0.88415 0.06279
 H1107 H 0.00410 0.88084 -0.00182
 H1108 H -0.01031 0.84441 0.00696
 C1109 C 0.02657 0.61361 0.01704
 C1110 C 0.01172 0.60944 -0.00069
 C1111 C 0.01521 0.59137 -0.01514
 C1112 C 0.03363 0.57688 -0.01215
 C1113 C 0.04842 0.58112 0.00574
 C1114 C 0.04495 0.59928 0.02008
 C1115 C 0.02292 0.63288 0.03230
 C1116 C 0.04098 0.64634 0.03907
 C1117 C 0.03756 0.66448 0.05343
 C1118 C 0.01600 0.66953 0.06145
 C1119 C -0.00206 0.65602 0.05467
 C1120 C 0.00135 0.63794 0.04022
 H1121 H 0.00340 0.58884 -0.02865
 H1122 H 0.06278 0.57046 0.00877
 H1123 H 0.05177 0.67477 0.05799
 H1124 H -0.01881 0.65921 0.06082
 H1125 H 0.05653 0.60194 0.03377
 H1126 H 0.05773 0.64304 0.03296
 H1127 H -0.00246 0.62036 -0.00358
 H1128 H -0.01284 0.62766 0.03553
 C1129 C 0.52667 0.11373 0.51797
 C1130 C 0.51149 0.10912 0.50061
 C1131 C 0.51508 0.09107 0.48616
 C1132 C 0.53390 0.07715 0.48879
 C1133 C 0.54904 0.08174 0.50622
 C1134 C 0.54548 0.09984 0.52061
 C1135 C 0.52291 0.13297 0.53325
 C1136 C 0.54085 0.14673 0.53976
 C1137 C 0.53734 0.16485 0.55413
 C1138 C 0.51580 0.16958 0.56240
 C1139 C 0.49787 0.15579 0.55588
 C1140 C 0.50138 0.13771 0.54145
 H1141 H 0.50309 0.08806 0.47291
 H1142 H 0.56369 0.07137 0.50878
 H1143 H 0.55144 0.17537 0.55851
 H1144 H 0.48115 0.15876 0.56223
 H1145 H 0.55732 0.10282 0.53400
 H1146 H 0.55757 0.14370 0.53343
 H1147 H 0.49698 0.11968 0.49801
 H1148 H 0.48729 0.12720 0.53699
 C1149 C -0.02652 0.11420 0.48184
 C1150 C -0.01127 0.10947 0.49911
 C1151 C -0.01486 0.09142 0.51355
 C1152 C -0.03377 0.07762 0.51103
 C1153 C -0.04900 0.08232 0.49372
 C1154 C -0.04543 0.10040 0.47932
 C1155 C -0.02276 0.13346 0.46655
 C1156 C -0.02756 0.13162 0.44360
 C1157 C -0.02411 0.14977 0.42925
 C1158 C -0.01570 0.17014 0.43750
 C1159 C -0.01084 0.17197 0.46042
 C1160 C -0.01436 0.15385 0.47479
 H1161 H -0.00272 0.08825 0.52663
 H1162 H -0.06380 0.07212 0.49134
 H1163 H -0.02769 0.14775 0.41161
 H1164 H -0.00467 0.18756 0.46733
 H1165 H -0.05767 0.10378 0.46639
 H1166 H -0.03369 0.11604 0.43666
 H1167 H 0.00364 0.11956 0.50130
 H1168 H -0.01085 0.15594 0.49244
 C1169 C 0.47352 0.61446 0.98243
 C1170 C 0.45469 0.60059 0.97984
 C1171 C 0.45121 0.58244 0.99418
 C1172 C 0.46644 0.57780 1.01152
 C1173 C 0.48526 0.59171 1.01411
 C1174 C 0.48878 0.60980 0.99970
 C1175 C 0.47719 0.63373 0.96718
 C1176 C 0.49868 0.63846 0.95885
 C1177 C 0.50211 0.65654 0.94442
 C1178 C 0.48414 0.67036 0.93805
 C1179 C 0.46267 0.66565 0.94646
 C1180 C 0.45923 0.64752 0.96083
 H1181 H 0.43655 0.57208 0.99166
 H1182 H 0.49733 0.58866 1.02728
 H1183 H 0.51879 0.65949 0.93796
 H1184 H 0.44854 0.67619 0.94219
 H1185 H 0.50331 0.62035 1.00226
 H1186 H 0.51279 0.62793 0.96320
 H1187 H 0.44278 0.60360 0.96652
 H1188 H 0.44255 0.64450 0.96726
 C1189 C 0.52666 0.88635 0.98252
 C1190 C 0.51186 0.89049 1.00029
 C1191 C 0.51543 0.90849 1.01481
 C1192 C 0.53388 0.92294 1.01184
 C1193 C 0.54862 0.91873 0.99390
 C1194 C 0.54507 0.90065 0.97949
 C1195 C 0.52291 0.86716 0.96719
 C1196 C 0.54092 0.85367 0.96032
 C1197 C 0.53741 0.83557 0.94593
 C1198 C 0.51581 0.83060 0.93798
 C1199 C 0.49780 0.84414 0.94484
 C1200 C 0.50131 0.86218 0.95932
 H1201 H 0.50365 0.91099 1.02835
 H1202 H 0.56300 0.92937 0.99089
 H1203 H 0.55158 0.82525 0.94130
 H1204 H 0.48102 0.84101 0.93874
 H1205 H 0.55661 0.89801 0.96576
 H1206 H 0.55770 0.85691 0.96638
 H1207 H 0.49766 0.87959 1.00317
 H1208 H 0.48717 0.87248 0.96408
 C1209 C 0.02622 0.38637 0.48252
 C1210 C 0.01141 0.39047 0.50029
 C1211 C 0.01491 0.40849 0.51479
 C1212 C 0.03331 0.42300 0.51182
 C1213 C 0.04807 0.41883 0.49388
 C1214 C 0.04459 0.40072 0.47949
 C1215 C 0.02256 0.36715 0.46720
 C1216 C 0.04062 0.35373 0.46034
 C1217 C 0.03718 0.33562 0.44593
 C1218 C 0.01560 0.33057 0.43797
 C1219 C -0.00246 0.34404 0.44484
 C1220 C 0.00097 0.36209 0.45933
 H1221 H 0.00312 0.41096 0.52833
 H1222 H 0.06241 0.42952 0.49087
 H1223 H 0.05139 0.32536 0.44130
 H1224 H -0.01923 0.34085 0.43873
 H1225 H 0.05614 0.39812 0.46577
 H1226 H 0.05738 0.35703 0.46640
 H1227 H -0.00276 0.37952 0.50317
 H1228 H -0.01321 0.37233 0.46408
 C1229 C 0.38567 0.51795 0.47408
 C1230 C 0.39044 0.50075 0.48940
 C1231 C 0.40848 0.48627 0.48585
 C1232 C 0.42224 0.48869 0.46691
 C1233 C 0.41749 0.50594 0.45161
 C1234 C 0.39941 0.52037 0.45514
 C1235 C 0.36643 0.53330 0.47783
 C1236 C 0.36827 0.55625 0.47289
 C1237 C 0.35015 0.57066 0.47631
 C1238 C 0.32980 0.56248 0.48482
 C1239 C 0.32796 0.53956 0.48982
 C1240 C 0.34606 0.52513 0.48633
 H1241 H 0.41169 0.47325 0.49803
 H1242 H 0.42765 0.50824 0.43679
 H1243 H 0.35217 0.58830 0.47262
 H1244 H 0.31239 0.53271 0.49607
 H1245 H 0.39599 0.53324 0.44285
 H1246 H 0.38384 0.56315 0.46668
 H1247 H 0.38038 0.49864 0.50432
 H1248 H 0.34397 0.50749 0.48995
 C1249 C 0.88668 0.01751 -0.02638
 C1250 C 0.89094 -0.00029 -0.01161
 C1251 C 0.90897 -0.01477 -0.01522
 C1252 C 0.92335 -0.01178 -0.03369
 C1253 C 0.91904 0.00614 -0.04843
 C1254 C 0.90093 0.02052 -0.04484
 C1255 C 0.86744 0.03286 -0.02257
 C1256 C 0.86948 0.05593 -0.02682
 C1257 C 0.85136 0.07033 -0.02336
 C1258 C 0.83083 0.06202 -0.01545
 C1259 C 0.82879 0.03899 -0.01111
 C1260 C 0.84687 0.02456 -0.01469
 H1261 H 0.91163 -0.02822 -0.00338
 H1262 H 0.92954 0.00907 -0.06291
 H1263 H 0.85351 0.08805 -0.02654
 H1264 H 0.81306 0.03206 -0.00532
 H1265 H 0.89793 0.03386 -0.05673
 H1266 H 0.88520 0.06293 -0.03252
 H1267 H 0.88049 -0.00288 0.00295
 H1268 H 0.84461 0.00684 -0.01161
 C1269 C 0.61464 0.01714 0.02654
 C1270 C 0.60998 -0.00014 0.01128
 C1271 C 0.59188 -0.01455 0.01477
 C1272 C 0.57795 -0.01196 0.03357
 C1273 C 0.58261 0.00537 0.04881
 C1274 C 0.60077 0.01973 0.04535
 C1275 C 0.63390 0.03242 0.02286
 C1276 C 0.64769 0.03881 0.04081
 C1277 C 0.66581 0.05320 0.03736
 C1278 C 0.67052 0.06160 0.01590
 C1279 C 0.65671 0.05519 -0.00204
 C1280 C 0.63863 0.04074 0.00139
 H1281 H 0.58882 -0.02773 0.00270
 H1282 H 0.57224 0.00789 0.06345
 H1283 H 0.67634 0.05749 0.05147
 H1284 H 0.65966 0.06165 -0.01871
 H1285 H 0.60379 0.03306 0.05726
 H1286 H 0.64467 0.03239 0.05747
 H1287 H 0.62053 -0.00270 -0.00323
 H1288 H 0.62810 0.03637 -0.01270
 C1289 C 0.11375 0.51749 0.52650
 C1290 C 0.10915 0.50020 0.51124
 C1291 C 0.09110 0.48572 0.51472
 C1292 C 0.07716 0.48826 0.53352
 C1293 C 0.08176 0.50562 0.54876
 C1294 C 0.09987 0.52003 0.54530
 C1295 C 0.13297 0.53283 0.52283
 C1296 C 0.14673 0.53926 0.54078
 C1297 C 0.16481 0.55371 0.53735
 C1298 C 0.16951 0.56212 0.51588
 C1299 C 0.15572 0.55567 0.49793
 C1300 C 0.13768 0.54117 0.50137
 H1301 H 0.08809 0.47253 0.50266
 H1302 H 0.07138 0.50810 0.56340
 H1303 H 0.17533 0.55803 0.55146
 H1304 H 0.15866 0.56213 0.48127
 H1305 H 0.10284 0.53337 0.55721
 H1306 H 0.14372 0.53283 0.55745
 H1307 H 0.11971 0.49767 0.49673
 H1308 H 0.12717 0.53677 0.48727
 C1309 C 0.11408 0.48231 -0.02657
 C1310 C 0.10934 0.49954 -0.01125
 C1311 C 0.09129 0.51401 -0.01478
 C1312 C 0.07749 0.51157 -0.03369
 C1313 C 0.08222 0.49432 -0.04900
 C1314 C 0.10031 0.47989 -0.04549
 C1315 C 0.13329 0.46693 -0.02284
 C1316 C 0.13141 0.44398 -0.02777
 C1317 C 0.14950 0.42954 -0.02436
 C1318 C 0.16987 0.43769 -0.01587
 C1319 C 0.17175 0.46061 -0.01086
 C1320 C 0.15369 0.47507 -0.01435
 H1321 H 0.08810 0.52704 -0.00259
 H1322 H 0.07203 0.49200 -0.06379
 H1323 H 0.14744 0.41190 -0.02805
 H1324 H 0.18734 0.46743 -0.00461
 H1325 H 0.10370 0.46701 -0.05778
 H1326 H 0.11582 0.43711 -0.03397
 H1327 H 0.11942 0.50166 0.00365
 H1328 H 0.15581 0.49271 -0.01072
 C1329 C 0.61394 0.98252 0.47367
 C1330 C 0.60966 1.00029 0.48847
 C1331 C 0.59160 1.01474 0.48489
 C1332 C 0.57723 1.01176 0.46642
 C1333 C 0.58155 0.99386 0.45166
 C1334 C 0.59968 0.97950 0.45522
 C1335 C 0.63321 0.96721 0.47744
 C1336 C 0.63122 0.94413 0.47317
 C1337 C 0.64937 0.92977 0.47660
 C1338 C 0.66990 0.93812 0.48448
 C1339 C 0.67190 0.96115 0.48884
 C1340 C 0.65379 0.97554 0.48531
 H1341 H 0.58893 1.02819 0.49677
 H1342 H 0.57105 0.99092 0.43718
 H1343 H 0.64724 0.91204 0.47341
 H1344 H 0.68762 0.96811 0.49462
 H1345 H 0.60270 0.96618 0.44331
 H1346 H 0.61550 0.93711 0.46748
 H1347 H 0.62012 1.00289 0.50304
 H1348 H 0.65602 0.99327 0.48840
 C1349 C 0.88628 0.98293 0.52621
 C1350 C 0.90052 0.97996 0.54468
 C1351 C 0.91862 0.99437 0.54824
 C1352 C 0.92293 1.01225 0.53346
 C1353 C 0.90856 1.01517 0.51497
 C1354 C 0.89053 1.00068 0.51140
 C1355 C 0.86705 0.96756 0.52243
 C1356 C 0.84646 0.97583 0.51454
 C1357 C 0.82839 0.96139 0.51100
 C1358 C 0.83045 0.93836 0.51538
 C1359 C 0.85100 0.93008 0.52328
 C1360 C 0.86911 0.94450 0.52671
 H1361 H 0.92911 0.99147 0.56273
 H1362 H 0.91122 1.02860 0.50309
 H1363 H 0.81266 0.96830 0.50521
 H1364 H 0.85317 0.91236 0.52648
 H1365 H 0.88008 1.00323 0.49682
 H1366 H 0.84419 0.99355 0.51144
 H1367 H 0.89751 0.96666 0.55660
 H1368 H 0.88483 0.93752 0.53242
 C1369 C 0.38598 0.48214 0.02618
 C1370 C 0.39968 0.47970 0.04514
 C1371 C 0.41774 0.49414 0.04873
 C1372 C 0.42250 0.51142 0.03348
 C1373 C 0.40878 0.51386 0.01452
 C1374 C 0.39076 0.49938 0.01090
 C1375 C 0.36677 0.46678 0.02237
 C1376 C 0.34640 0.47495 0.01385
 C1377 C 0.32833 0.46050 0.01030
 C1378 C 0.33019 0.43758 0.01525
 C1379 C 0.35053 0.42940 0.02377
 C1380 C 0.36863 0.44382 0.02726
 H1381 H 0.42789 0.49182 0.06357
 H1382 H 0.41200 0.52691 0.00236
 H1383 H 0.31276 0.46735 0.00403
 H1384 H 0.35257 0.41175 0.02743
 H1385 H 0.38073 0.50151 -0.00403
 H1386 H 0.34429 0.49259 0.01027
 H1387 H 0.39626 0.46680 0.05740
 H1388 H 0.38420 0.43693 0.03348
 C1389 C 0.51757 0.47347 0.38625
 C1390 C 0.50030 0.48875 0.39092
 C1391 C 0.48585 0.48523 0.40897
 C1392 C 0.48841 0.46638 0.42284
 C1393 C 0.50575 0.45113 0.41819
 C1394 C 0.52013 0.45462 0.40008
 C1395 C 0.53285 0.47717 0.36702
 C1396 C 0.53922 0.45922 0.35322
 C1397 C 0.55360 0.46269 0.33510
 C1398 C 0.56200 0.48418 0.33042
 C1399 C 0.55562 0.50213 0.34426
 C1400 C 0.54119 0.49866 0.36233
 H1401 H 0.47268 0.49731 0.41203
 H1402 H 0.50824 0.43645 0.42852
 H1403 H 0.55786 0.44858 0.32455
 H1404 H 0.56208 0.51881 0.34133
 H1405 H 0.53345 0.44270 0.39706
 H1406 H 0.53279 0.44253 0.35621
 H1407 H 0.49775 0.50329 0.38040
 H1408 H 0.53684 0.51276 0.37287
 C1409 C 0.01774 -0.02594 0.88570
 C1410 C 0.00043 -0.01070 0.89044
 C1411 C -0.01401 -0.01430 0.90848
 C1412 C -0.01146 -0.03321 0.92226
 C1413 C 0.00587 -0.04845 0.91753
 C1414 C 0.02026 -0.04486 0.89945
 C1415 C 0.03308 -0.02213 0.86650
 C1416 C 0.05606 -0.02690 0.86839
 C1417 C 0.07047 -0.02342 0.85030
 C1418 C 0.06225 -0.01501 0.82994
 C1419 C 0.03930 -0.01016 0.82806
 C1420 C 0.02488 -0.01371 0.84612
 H1421 H -0.02710 -0.00217 0.91168
 H1422 H 0.00827 -0.06324 0.92772
 H1423 H 0.08813 -0.02699 0.85236
 H1424 H 0.03243 -0.00399 0.81248
 H1425 H 0.03321 -0.05710 0.89607
 H1426 H 0.06298 -0.03304 0.88396
 H1427 H -0.00177 0.00420 0.88037
 H1428 H 0.00721 -0.01021 0.84400
 C1429 C 0.01721 0.02681 0.61410
 C1430 C 0.01990 0.04555 0.60015
 C1431 C 0.00553 0.04902 0.58203
 C1432 C -0.01192 0.03387 0.57748
 C1433 C -0.01461 0.01514 0.59149
 C1434 C -0.00018 0.01163 0.60956
 C1435 C 0.03251 0.02311 0.63332
 C1436 C 0.04069 0.00158 0.63814
 C1437 C 0.05518 -0.00187 0.65617
 C1438 C 0.06178 0.01612 0.66983
 C1439 C 0.05354 0.03765 0.66504
 C1440 C 0.03910 0.04110 0.64697
 H1441 H 0.00813 0.06361 0.57159
 H1442 H -0.02788 0.00314 0.58851
 H1443 H 0.06151 -0.01859 0.65919
 H1444 H 0.05798 0.05180 0.67546
 H1445 H -0.00282 -0.00282 0.62017
 H1446 H 0.03617 -0.01255 0.62772
 H1447 H 0.03332 0.05739 0.60308
 H1448 H 0.03279 0.05783 0.64388
 C1449 C 0.51766 0.52660 0.11434
 C1450 C 0.50040 0.51133 0.10963
 C1451 C 0.48599 0.51486 0.09155
 C1452 C 0.48857 0.53372 0.07770
 C1453 C 0.50590 0.54896 0.08239
 C1454 C 0.52025 0.54546 0.10053
 C1455 C 0.53291 0.52288 0.13359
 C1456 C 0.53926 0.54082 0.14742
 C1457 C 0.55361 0.53734 0.16555
 C1458 C 0.56200 0.51584 0.17023
 C1459 C 0.55564 0.49790 0.15638
 C1460 C 0.54123 0.50138 0.13829
 H1461 H 0.47282 0.50279 0.08846
 H1462 H 0.50842 0.56365 0.07208
 H1463 H 0.55787 0.55144 0.17612
 H1464 H 0.56209 0.48121 0.15931
 H1465 H 0.53357 0.55738 0.10358
 H1466 H 0.53284 0.55751 0.14442
 H1467 H 0.49783 0.49678 0.12013
 H1468 H 0.53689 0.48729 0.12773
 C1469 C 0.48235 -0.02692 0.11394
 C1470 C 0.47970 -0.04568 0.10000
 C1471 C 0.49408 -0.04916 0.08189
 C1472 C 0.51152 -0.03400 0.07735
 C1473 C 0.51416 -0.01522 0.09132
 C1474 C 0.49971 -0.01171 0.10937
 C1475 C 0.46709 -0.02325 0.13319
 C1476 C 0.45887 -0.00173 0.13803
 C1477 C 0.44447 0.00171 0.15614
 C1478 C 0.43801 -0.01628 0.16986
 C1479 C 0.44628 -0.03780 0.16503
 C1480 C 0.46062 -0.04124 0.14689
 H1481 H 0.49152 -0.06378 0.07148
 H1482 H 0.52741 -0.00321 0.08835
 H1483 H 0.43811 0.01841 0.15918
 H1484 H 0.44194 -0.05194 0.17550
 H1485 H 0.50232 0.00277 0.11997
 H1486 H 0.46330 0.01240 0.12758
 H1487 H 0.46631 -0.05755 0.10295
 H1488 H 0.46696 -0.05795 0.14378
 C1489 C 0.98161 0.47308 0.61389
 C1490 C 0.97900 0.45431 0.59996
 C1491 C 0.99340 0.45084 0.58185
 C1492 C 1.01080 0.46604 0.57730
 C1493 C 1.01339 0.48483 0.59126
 C1494 C 0.99894 0.48832 0.60931
 C1495 C 0.96634 0.47674 0.63314
 C1496 C 0.95810 0.49825 0.63796
 C1497 C 0.94371 0.50169 0.65608
 C1498 C 0.93728 0.48370 0.66983
 C1499 C 0.94557 0.46219 0.66500
 C1500 C 0.95990 0.45875 0.64685
 H1501 H 0.99087 0.43621 0.57145
 H1502 H 1.02662 0.49687 0.58829
 H1503 H 0.93734 0.51839 0.65911
 H1504 H 0.94126 0.44805 0.67548
 H1505 H 1.00152 0.50281 0.61991
 H1506 H 0.96250 0.51238 0.62750
 H1507 H 0.96564 0.44241 0.60291
 H1508 H 0.96626 0.44205 0.64375
 C1509 C 0.98185 0.52639 0.88601
 C1510 C 0.99920 0.51118 0.89062
 C1511 C 1.01367 0.51476 0.90864
 C1512 C 1.01107 0.53360 0.92253
 C1513 C 0.99365 0.54876 0.91795
 C1514 C 0.97924 0.54521 0.89987
 C1515 C 0.96656 0.52264 0.86679
 C1516 C 0.96009 0.54057 0.85302
 C1517 C 0.94573 0.53705 0.83490
 C1518 C 0.93745 0.51552 0.83017
 C1519 C 0.94393 0.49759 0.84397
 C1520 C 0.95834 0.50111 0.86205
 H1521 H 1.02691 0.50274 0.91164
 H1522 H 0.99111 0.56343 0.92830
 H1523 H 0.94139 0.55115 0.82437
 H1524 H 0.93756 0.48087 0.84100
 H1525 H 0.96585 0.55708 0.89689
 H1526 H 0.96643 0.55729 0.85605
 H1527 H 1.00179 0.49666 0.88008
 H1528 H 0.96277 0.48702 0.87256
 C1529 C 0.48280 0.02600 0.38586
 C1530 C 0.50007 0.01072 0.39061
 C1531 C 0.51452 0.01430 0.40865
 C1532 C 0.51201 0.03323 0.42242
 C1533 C 0.49473 0.04851 0.41768
 C1534 C 0.48033 0.04494 0.39960
 C1535 C 0.46744 0.02219 0.36667
 C1536 C 0.44448 0.02706 0.36855
 C1537 C 0.43005 0.02358 0.35048
 C1538 C 0.43822 0.01508 0.33013
 C1539 C 0.46115 0.01015 0.32825
 C1540 C 0.47560 0.01370 0.34630
 H1541 H 0.52757 0.00213 0.41186
 H1542 H 0.49237 0.06332 0.42785
 H1543 H 0.41240 0.02722 0.35253
 H1544 H 0.46799 0.00390 0.31268
 H1545 H 0.46742 0.05721 0.39620
 H1546 H 0.43759 0.03325 0.38412
 H1547 H 0.50223 -0.00421 0.38055
 H1548 H 0.49325 0.01013 0.34418
   
