data_POSCAR
  _audit_creation_date              2014-09-24
  _audit_creation_method            'ToBaCCo'
  _symmetry_space_group_name_H-M    'P1'
  _symmetry_Int_Tables_number       1
  _symmetry_cell_setting            triclinic
  loop_
  _symmetry_equiv_pos_as_xyz
 x,y,z
_cell_length_a 72.1180
_cell_length_b 72.1096
_cell_length_c 72.1964
_cell_angle_alpha 90.012000
_cell_angle_beta 90.010700
_cell_angle_gamma 90.013200
loop_
  _atom_site_label
  _atom_site_type_symbol
  _atom_site_fract_x
  _atom_site_fract_y
  _atom_site_fract_z
C1 C 0.35948 0.33643 0.33669
 N2 N 0.35167 0.35179 0.32908
 C3 C 0.33630 0.35959 0.33669
 N4 N 0.32871 0.35181 0.35206
 C5 C 0.33634 0.33645 0.35986
 N6 N 0.35170 0.32884 0.35207
 C7 C 0.35975 0.83635 -0.16390
 N8 N 0.35199 0.82881 -0.14847
 C9 C 0.33663 0.83641 -0.14066
 N10 N 0.32896 0.85174 -0.14847
 C11 C 0.33647 0.85952 -0.16390
 N12 N 0.35186 0.85171 -0.17148
 C13 C 0.85943 0.33684 -0.16373
 N14 N 0.85161 0.35218 -0.17137
 C15 C 0.83620 0.36001 -0.16383
 N16 N 0.82865 0.35221 -0.14843
 C17 C 0.83628 0.33687 -0.14060
 N18 N 0.85166 0.32926 -0.14836
 C19 C 0.85987 0.83604 0.33633
 N20 N 0.85209 0.82851 0.35175
 C21 C 0.83678 0.83618 0.35960
 N22 N 0.82919 0.85157 0.35183
 C23 C 0.83676 0.85932 0.33644
 N24 N 0.85207 0.85146 0.32878
 C25 C 0.64039 0.66346 0.33661
 N26 N 0.64816 0.67105 0.35199
 C27 C 0.66353 0.66344 0.35978
 N28 N 0.67116 0.64809 0.35196
 C29 C 0.66358 0.64032 0.33658
 N30 N 0.64820 0.64811 0.32898
 C31 C 0.64024 0.16364 -0.16394
 N32 N 0.64811 0.14827 -0.17152
 C33 C 0.66351 0.14045 -0.16395
 N34 N 0.67104 0.14826 -0.14854
 C35 C 0.66339 0.16360 -0.14073
 N36 N 0.64802 0.17119 -0.14853
 C37 C 0.14080 0.66332 -0.16383
 N38 N 0.14861 0.64797 -0.17146
 C39 C 0.16400 0.64013 -0.16389
 N40 N 0.17155 0.64792 -0.14847
 C41 C 0.16393 0.66328 -0.14066
 N42 N 0.14857 0.67090 -0.14845
 C43 C 0.14043 0.16373 0.33600
 N44 N 0.14827 0.14836 0.32841
 C45 C 0.16362 0.14047 0.33601
 N46 N 0.17112 0.14821 0.35146
 C47 C 0.16350 0.16356 0.35929
 N48 N 0.14818 0.17122 0.35146
 C49 C 0.64027 0.33637 0.66336
 N50 N 0.64808 0.35174 0.67097
 C51 C 0.66343 0.35956 0.66336
 N52 N 0.67101 0.35180 0.64797
 C53 C 0.66339 0.33642 0.64017
 N54 N 0.64804 0.32879 0.64798
 C55 C 0.64004 0.83604 1.16379
 N56 N 0.64784 0.82846 1.14840
 C57 C 0.66319 0.83609 1.14057
 N58 N 0.67080 0.85147 1.14834
 C59 C 0.66321 0.85927 1.16370
 N60 N 0.64787 0.85145 1.17133
 C61 C 0.14054 0.33634 1.16396
 N62 N 0.14835 0.32881 1.14855
 C63 C 0.16369 0.33646 1.14076
 N64 N 0.17128 0.35184 1.14855
 C65 C 0.16372 0.35962 1.16396
 N66 N 0.14835 0.35175 1.17153
 C67 C 0.14035 0.83640 0.66386
 N68 N 0.14809 0.82889 0.64841
 C69 C 0.16345 0.83651 0.64060
 N70 N 0.17112 0.85183 0.64845
 C71 C 0.16363 0.85958 0.66390
 N72 N 0.14824 0.85174 0.67147
 C73 C 0.35954 0.66370 0.66326
 N74 N 0.35176 0.64832 0.67086
 C75 C 0.33640 0.64050 0.66325
 N76 N 0.32879 0.64827 0.64789
 C77 C 0.33639 0.66366 0.64010
 N78 N 0.35175 0.67130 0.64790
 C79 C 0.35962 0.16356 1.16419
 N80 N 0.35186 0.17108 1.14875
 C81 C 0.33649 0.16346 1.14095
 N82 N 0.32884 0.14814 1.14878
 C83 C 0.33635 0.14037 1.16421
 N84 N 0.35174 0.14820 1.17178
 C85 C 0.85965 0.66350 1.16394
 N86 N 0.85186 0.67102 1.14852
 C87 C 0.83652 0.66336 1.14071
 N88 N 0.82891 0.64800 1.14851
 C89 C 0.83646 0.64023 1.16393
 N90 N 0.85182 0.64810 1.17151
 C91 C 0.85925 0.16333 0.66357
 N92 N 0.85138 0.14802 0.67122
 C93 C 0.83595 0.14023 0.66368
 N94 N 0.82843 0.14801 0.64825
 C95 C 0.83612 0.16332 0.64040
 N96 N 0.85151 0.17090 0.64817
 C97 C 0.33644 0.35941 0.66377
 N98 N 0.35180 0.35160 0.67139
 C99 C 0.35958 0.33621 0.66380
 N100 N 0.35179 0.32861 0.64843
 C101 C 0.33643 0.33623 0.64063
 N102 N 0.32883 0.35162 0.64841
 C103 C 0.33649 0.86015 0.16344
 N104 N 0.35187 0.85236 0.17103
 C105 C 0.35967 0.83700 0.16341
 N106 N 0.35187 0.82940 0.14805
 C107 C 0.33649 0.83700 0.14027
 N108 N 0.32887 0.85236 0.14808
 C109 C 0.83709 0.35971 0.16316
 N110 N 0.82946 0.35189 0.14782
 C111 C 0.83704 0.33650 0.14005
 N112 N 0.85241 0.32888 0.14783
 C113 C 0.86023 0.33651 0.16318
 N114 N 0.85247 0.35191 0.17076
 C115 C 0.83661 0.86019 0.66362
 N116 N 0.85200 0.85243 0.67120
 C117 C 0.85982 0.83707 0.66359
 N118 N 0.85203 0.82945 0.64824
 C119 C 0.83664 0.83702 0.64046
 N120 N 0.82900 0.85238 0.64826
 C121 C 0.66347 0.64050 0.66380
 N122 N 0.64811 0.64830 0.67141
 C123 C 0.64031 0.66368 0.66382
 N124 N 0.64809 0.67127 0.64845
 C125 C 0.66345 0.66366 0.64064
 N126 N 0.67106 0.64828 0.64843
 C127 C 0.66338 0.14010 0.16321
 N128 N 0.64799 0.14788 0.17078
 C129 C 0.64017 0.16323 0.16317
 N130 N 0.64797 0.17085 0.14782
 C131 C 0.66337 0.16326 0.14005
 N132 N 0.67099 0.14790 0.14786
 C133 C 0.16307 0.64026 0.16313
 N134 N 0.14769 0.64805 0.17072
 C135 C 0.13992 0.66345 0.16313
 N136 N 0.14775 0.67108 0.14780
 C137 C 0.16313 0.66346 0.14003
 N138 N 0.17071 0.64807 0.14780
 C139 C 0.16335 0.13969 0.66360
 N140 N 0.17094 0.14747 0.64823
 C141 C 0.16334 0.16284 0.64044
 N142 N 0.14797 0.17046 0.64824
 C143 C 0.14019 0.16287 0.66361
 N144 N 0.14799 0.14750 0.67121
 C145 C 0.33621 0.64047 0.33625
 N146 N 0.35159 0.64826 0.32866
 C147 C 0.35939 0.66363 0.33627
 N148 N 0.35160 0.67124 0.35163
 C149 C 0.33622 0.66363 0.35940
 N150 N 0.32860 0.64826 0.35161
 C151 C 0.33657 0.13970 0.83691
 N152 N 0.35195 0.14748 0.82932
 C153 C 0.35975 0.16286 0.83692
 N154 N 0.35196 0.17048 0.85227
 C155 C 0.33657 0.16288 0.86005
 N156 N 0.32896 0.14750 0.85226
 C157 C 0.83695 0.64040 0.83661
 N158 N 0.85229 0.64822 0.82898
 C159 C 0.86008 0.66361 0.83657
 N160 N 0.85231 0.67121 0.85194
 C161 C 0.83696 0.66358 0.85976
 N162 N 0.82936 0.64819 0.85199
 C163 C 0.83700 0.14029 0.33638
 N164 N 0.82939 0.14809 0.35173
 C165 C 0.83699 0.16346 0.35953
 N166 N 0.85237 0.17107 0.35175
 C167 C 0.86018 0.16346 0.33640
 N168 N 0.85238 0.14808 0.32879
 C169 C 0.66361 0.35964 0.33608
 N170 N 0.64823 0.35184 0.32848
 C171 C 0.64041 0.33648 0.33610
 N172 N 0.64819 0.32889 0.35147
 C173 C 0.66357 0.33650 0.35926
 N174 N 0.67120 0.35186 0.35145
 C175 C 0.66348 0.86008 0.83692
 N176 N 0.67112 0.85225 0.85225
 C177 C 0.66351 0.83686 0.86002
 N178 N 0.64811 0.82928 0.85225
 C179 C 0.64029 0.83692 0.83693
 N180 N 0.64808 0.85230 0.82934
 C181 C 0.16346 0.35966 0.83688
 N182 N 0.14809 0.35186 0.82926
 C183 C 0.14031 0.33647 0.83683
 N184 N 0.14810 0.32885 0.85219
 C185 C 0.16346 0.33647 0.85999
 N186 N 0.17107 0.35186 0.85223
 C187 C 0.16302 0.86006 0.33634
 N188 N 0.17062 0.85228 0.35171
 C189 C 0.16302 0.83690 0.35949
 N190 N 0.14766 0.82927 0.35169
 C191 C 0.13987 0.83686 0.33632
 N192 N 0.14766 0.85224 0.32872
 O193 O 0.27339 0.98250 0.24817
 O194 O 0.24785 1.01867 0.27361
 O195 O 0.24781 0.98251 0.27358
 O196 O 0.27345 1.01867 0.24823
 O197 O 0.25183 1.01872 0.22650
 O198 O 0.22620 0.98255 0.25185
 O199 O 0.22623 1.01872 0.25188
 O200 O 0.25177 0.98255 0.22644
 Cu201 Cu 0.26281 1.00058 0.26309
 Cu202 Cu 0.23683 1.00064 0.23697
 C203 C 0.26686 0.97638 0.23305
 C204 C 0.23277 1.02485 0.26701
 C205 C 0.23271 0.97638 0.26696
 C206 C 0.26693 1.02484 0.23311
 O207 O 0.22637 0.48202 0.75215
 O208 O 0.25181 0.51813 0.72652
 O209 O 0.25182 0.48196 0.72662
 O210 O 0.22637 0.51819 0.75206
 O211 O 0.24810 0.51826 0.77367
 O212 O 0.27356 0.48203 0.74823
 O213 O 0.27354 0.51820 0.74813
 O214 O 0.24811 0.48210 0.77377
 Cu215 Cu 0.23690 0.50007 0.73716
 Cu216 Cu 0.26302 0.50016 0.76313
 C217 C 0.23298 0.47592 0.76725
 C218 C 0.26693 0.52430 0.73303
 C219 C 0.26695 0.47584 0.73317
 C220 C 0.23297 0.52439 0.76713
 O221 O 0.75208 -0.01822 0.27353
 O222 O 0.72657 0.01792 0.24805
 O223 O 0.72651 -0.01824 0.24811
 O224 O 0.75213 0.01794 0.27348
 O225 O 0.77376 0.01788 0.25177
 O226 O 0.74814 -0.01831 0.22641
 O227 O 0.74820 0.01786 0.22634
 O228 O 0.77372 -0.01829 0.25182
 Cu229 Cu 0.73714 -0.00014 0.26298
 Cu230 Cu 0.76314 -0.00022 0.23690
 C231 C 0.76717 -0.02440 0.26695
 C232 C 0.73311 0.02403 0.23292
 C233 C 0.73304 -0.02442 0.23301
 C234 C 0.76724 0.02406 0.26687
 O235 O 0.77378 0.51798 0.75204
 O236 O 0.74823 0.48186 0.72652
 O237 O 0.74824 0.51803 0.72659
 O238 O 0.77374 0.48181 0.75200
 O239 O 0.75207 0.48180 0.77367
 O240 O 0.72657 0.51801 0.74826
 O241 O 0.72656 0.48184 0.74819
 O242 O 0.75211 0.51797 0.77371
 Cu243 Cu 0.76319 0.49992 0.73710
 Cu244 Cu 0.73714 0.49990 0.76315
 C245 C 0.76722 0.52412 0.76715
 C246 C 0.73312 0.47571 0.73308
 C247 C 0.73314 0.52417 0.73317
 C248 C 0.76718 0.47565 0.76710
 O249 O 0.24770 0.48167 0.22630
 O250 O 0.27318 0.51792 0.25171
 O251 O 0.27318 0.48175 0.25180
 O252 O 0.24768 0.51784 0.22622
 O253 O 0.22598 0.51788 0.24786
 O254 O 0.25149 0.48180 0.27344
 O255 O 0.25148 0.51796 0.27335
 O256 O 0.22600 0.48171 0.24794
 Cu257 Cu 0.26262 0.49979 0.23682
 Cu258 Cu 0.23655 0.49984 0.26283
 C259 C 0.23258 0.47552 0.23286
 C260 C 0.26660 0.52410 0.26679
 C261 C 0.26661 0.47564 0.26691
 C262 C 0.23256 0.52400 0.23275
 O263 O 0.74790 1.01876 0.77366
 O264 O 0.77344 0.98259 0.74822
 O265 O 0.77336 1.01875 0.74814
 O266 O 0.74799 0.98259 0.77375
 O267 O 0.72626 0.98248 0.75214
 O268 O 0.75163 1.01864 0.72651
 O269 O 0.75171 0.98247 0.72660
 O270 O 0.72617 1.01865 0.75204
 Cu271 Cu 0.76286 1.00068 0.76312
 Cu272 Cu 0.73675 1.00055 0.73714
 C273 C 0.73276 1.02486 0.76711
 C274 C 0.76685 0.97638 0.73315
 C275 C 0.76675 1.02484 0.73303
 C276 C 0.73287 0.97639 0.76724
 O277 O 0.77404 0.48209 0.24782
 O278 O 0.74849 0.51818 0.27334
 O279 O 0.74849 0.48202 0.27325
 O280 O 0.77402 0.51825 0.24789
 O281 O 0.75237 0.51829 0.22620
 O282 O 0.72683 0.48206 0.25156
 O283 O 0.72683 0.51822 0.25165
 O284 O 0.75238 0.48212 0.22613
 Cu285 Cu 0.76344 0.50013 0.26276
 Cu286 Cu 0.73742 0.50017 0.23669
 C287 C 0.76749 0.47596 0.23270
 C288 C 0.73338 0.52434 0.26677
 C289 C 0.73338 0.47588 0.26665
 C290 C 0.76747 0.52443 0.23280
 O291 O 0.22640 0.01729 0.74826
 O292 O 0.25194 -0.01888 0.77370
 O293 O 0.25190 0.01728 0.77375
 O294 O 0.22641 -0.01888 0.74823
 O295 O 0.24809 -0.01883 0.72657
 O296 O 0.27358 0.01733 0.75210
 O297 O 0.27362 -0.01883 0.75203
 O298 O 0.24808 0.01733 0.72660
 Cu299 Cu 0.23697 -0.00080 0.76317
 Cu300 Cu 0.26303 -0.00075 0.73714
 C301 C 0.23296 0.02346 0.73317
 C302 C 0.26706 -0.02501 0.76712
 C303 C 0.26700 0.02346 0.76720
 C304 C 0.23298 -0.02500 0.73312
 O305 O 0.24822 0.27338 0.98221
 O306 O 0.27372 0.24790 1.01835
 O307 O 0.27367 0.24782 0.98223
 O308 O 0.24826 0.27344 1.01834
 O309 O 0.22654 0.25179 1.01839
 O310 O 0.25195 0.22617 0.98229
 O311 O 0.25200 0.22624 1.01841
 O312 O 0.22649 0.25172 0.98227
 Cu313 Cu 0.26316 0.26282 1.00028
 Cu314 Cu 0.23705 0.23680 1.00034
 C315 C 0.23308 0.26682 0.97610
 C316 C 0.26713 0.23280 1.02453
 C317 C 0.26707 0.23271 0.97612
 C318 C 0.23314 0.26690 1.02450
 O319 O 0.24774 0.77387 0.48177
 O320 O 0.27327 0.74833 0.51785
 O321 O 0.27324 0.74835 0.48173
 O322 O 0.24777 0.77383 0.51789
 O323 O 0.22608 0.75215 0.51788
 O324 O 0.25155 0.72667 0.48172
 O325 O 0.25159 0.72664 0.51784
 O326 O 0.22606 0.75218 0.48176
 Cu327 Cu 0.26269 0.76329 0.49981
 Cu328 Cu 0.23663 0.73722 0.49980
 C329 C 0.23262 0.76730 0.47562
 C330 C 0.26671 0.73321 0.52398
 C331 C 0.26666 0.73324 0.47558
 C332 C 0.23266 0.76726 0.52404
 O333 O 0.22661 0.74805 -0.01824
 O334 O 0.25195 0.77371 0.01790
 O335 O 0.25208 0.77360 -0.01822
 O336 O 0.22648 0.74816 0.01788
 O337 O 0.24819 0.72651 0.01802
 O338 O 0.27379 0.75195 -0.01809
 O339 O 0.27367 0.75206 0.01804
 O340 O 0.24832 0.72640 -0.01810
 Cu341 Cu 0.23709 0.76306 -0.00019
 Cu342 Cu 0.26318 0.73704 -0.00002
 C343 C 0.23322 0.73293 -0.02432
 C344 C 0.26706 0.76718 0.02411
 C345 C 0.26722 0.76703 -0.02430
 C346 C 0.23305 0.73307 0.02408
 O347 O 0.22623 0.24778 0.48210
 O348 O 0.25173 0.27323 0.51828
 O349 O 0.25172 0.27331 0.48216
 O350 O 0.22625 0.24769 0.51822
 O351 O 0.24795 0.22603 0.51817
 O352 O 0.27342 0.25165 0.48210
 O353 O 0.27343 0.25157 0.51822
 O354 O 0.24793 0.22611 0.48204
 Cu355 Cu 0.23679 0.26269 0.50020
 Cu356 Cu 0.26287 0.23665 0.50013
 C357 C 0.23281 0.23268 0.47592
 C358 C 0.26685 0.26667 0.52440
 C359 C 0.26683 0.26677 0.47599
 C360 C 0.23284 0.23257 0.52433
 O361 O 0.74820 0.77352 0.98219
 O362 O 0.77364 0.74794 1.01830
 O363 O 0.77376 0.74806 0.98218
 O364 O 0.74807 0.77338 1.01831
 O365 O 0.72644 0.75164 1.01815
 O366 O 0.75212 0.72633 0.98202
 O367 O 0.75201 0.72620 1.01815
 O368 O 0.72657 0.75178 0.98203
 Cu369 Cu 0.76310 0.76292 1.00026
 Cu370 Cu 0.73710 0.73679 1.00007
 C371 C 0.73312 0.76694 0.97597
 C372 C 0.76709 0.73279 1.02437
 C373 C 0.76724 0.73295 0.97596
 C374 C 0.73295 0.76675 1.02438
 O375 O 0.75199 0.22638 0.48166
 O376 O 0.72638 0.25183 0.51775
 O377 O 0.72646 0.25186 0.48162
 O378 O 0.75187 0.22631 0.51778
 O379 O 0.77355 0.24800 0.51788
 O380 O 0.74815 0.27356 0.48172
 O381 O 0.74806 0.27352 0.51784
 O382 O 0.77367 0.24807 0.48176
 Cu383 Cu 0.73699 0.23691 0.49969
 Cu384 Cu 0.76305 0.26298 0.49981
 C385 C 0.76712 0.23296 0.47557
 C386 C 0.73293 0.26694 0.52393
 C387 C 0.73305 0.26699 0.47552
 C388 C 0.76696 0.23288 0.52398
 O389 O 0.77348 0.25204 -0.01831
 O390 O 0.74807 0.22643 0.01780
 O391 O 0.74799 0.22652 -0.01832
 O392 O 0.77360 0.25192 0.01781
 O393 O 0.75193 0.27361 0.01793
 O394 O 0.72631 0.24821 -0.01821
 O395 O 0.72639 0.24812 0.01791
 O396 O 0.75181 0.27373 -0.01819
 Cu397 Cu 0.76297 0.23704 -0.00027
 Cu398 Cu 0.73692 0.26310 -0.00013
 C399 C 0.76690 0.26717 -0.02439
 C400 C 0.73297 0.23299 0.02400
 C401 C 0.73286 0.23311 -0.02441
 C402 C 0.76706 0.26702 0.02401
 O403 O 0.77374 0.75190 0.48217
 O404 O 0.74815 0.72652 0.51832
 O405 O 0.74818 0.72643 0.48219
 O406 O 0.77368 0.75201 0.51830
 O407 O 0.75202 0.77372 0.51821
 O408 O 0.72653 0.74814 0.48211
 O409 O 0.72649 0.74822 0.51823
 O410 O 0.75208 0.77361 0.48208
 Cu411 Cu 0.76312 0.73702 0.50025
 Cu412 Cu 0.73710 0.76311 0.50015
 C413 C 0.76719 0.76700 0.47598
 C414 C 0.73303 0.73312 0.52442
 C415 C 0.73309 0.73300 0.47601
 C416 C 0.76712 0.76715 0.52439
 O417 O 1.01881 0.22643 0.25180
 O418 O 0.98266 0.25190 0.22628
 O419 O 1.01882 0.25194 0.22632
 O420 O 0.98265 0.22642 0.25179
 O421 O 0.98263 0.24813 0.27344
 O422 O 1.01879 0.27364 0.24797
 O423 O 0.98263 0.27360 0.24793
 O424 O 1.01879 0.24813 0.27345
 Cu425 Cu 1.00073 0.23698 0.23686
 Cu426 Cu 1.00071 0.26306 0.26288
 C427 C 1.02495 0.23301 0.26690
 C428 C 0.97650 0.26701 0.23283
 C429 C 1.02496 0.26706 0.23288
 C430 C 0.97649 0.23300 0.26688
 O431 O 0.48210 0.24761 0.77384
 O432 O 0.51818 0.27313 0.74827
 O433 O 0.48202 0.27311 0.74836
 O434 O 0.51826 0.24763 0.77375
 O435 O 0.51821 0.22594 0.75209
 O436 O 0.48197 0.25142 0.72670
 O437 O 0.51813 0.25144 0.72661
 O438 O 0.48205 0.22592 0.75218
 Cu439 Cu 0.50015 0.26256 0.76324
 Cu440 Cu 0.50008 0.23649 0.73721
 C441 C 0.47594 0.23249 0.76729
 C442 C 0.52429 0.26656 0.73316
 C443 C 0.47584 0.26654 0.73328
 C444 C 0.52440 0.23252 0.76717
 O445 O 0.01800 0.24786 0.72652
 O446 O -0.01814 0.27351 0.75188
 O447 O 0.01802 0.27341 0.75196
 O448 O -0.01816 0.24793 0.72647
 O449 O -0.01825 0.22629 0.74817
 O450 O 0.01793 0.25177 0.77366
 O451 O -0.01823 0.25187 0.77359
 O452 O 0.01791 0.22622 0.74823
 Cu453 Cu -0.00006 0.26286 0.73702
 Cu454 Cu -0.00017 0.23685 0.76310
 C455 C 0.02410 0.23274 0.73312
 C456 C -0.02433 0.26698 0.76698
 C457 C 0.02413 0.26686 0.76709
 C458 C -0.02436 0.23284 0.73305
 O459 O 0.48166 0.22611 0.24804
 O460 O 0.51790 0.25168 0.27337
 O461 O 0.48174 0.25165 0.27350
 O462 O 0.51782 0.22616 0.24790
 O463 O 0.51772 0.24783 0.22623
 O464 O 0.48164 0.27332 0.25182
 O465 O 0.51780 0.27335 0.25169
 O466 O 0.48156 0.24778 0.22636
 Cu467 Cu 0.49979 0.23671 0.26289
 Cu468 Cu 0.49967 0.26276 0.23684
 C469 C 0.47545 0.23267 0.23296
 C470 C 0.52401 0.26680 0.26677
 C471 C 0.47556 0.26675 0.26695
 C472 C 0.52391 0.23272 0.23278
 O473 O 0.98230 0.75234 0.72631
 O474 O 1.01845 0.72670 0.75165
 O475 O 0.98229 0.72677 0.75172
 O476 O 1.01846 0.75227 0.72625
 O477 O 1.01855 0.77390 0.74796
 O478 O 0.98238 0.74841 0.77344
 O479 O 1.01854 0.74833 0.77337
 O480 O 0.98239 0.77398 0.74802
 Cu481 Cu 1.00036 0.73734 0.73679
 Cu482 Cu 1.00047 0.76334 0.76289
 C483 C 0.97619 0.76745 0.73292
 C484 C 1.02464 0.73322 0.76676
 C485 C 0.97619 0.73332 0.76685
 C486 C 1.02466 0.76736 0.73284
 O487 O 0.51819 0.77373 0.24799
 O488 O 0.48196 0.74830 0.27345
 O489 O 0.51812 0.74825 0.27349
 O490 O 0.48202 0.77381 0.24798
 O491 O 0.48199 0.75211 0.22633
 O492 O 0.51809 0.72655 0.25184
 O493 O 0.48193 0.72660 0.25180
 O494 O 0.51815 0.75203 0.22634
 Cu495 Cu 0.50008 0.76321 0.26291
 Cu496 Cu 0.50004 0.73713 0.23689
 C497 C 0.52433 0.76714 0.23290
 C498 C 0.47578 0.73319 0.26689
 C499 C 0.52424 0.73312 0.26694
 C500 C 0.47587 0.76724 0.23288
 O501 O -0.01867 0.77345 0.25184
 O502 O 0.01748 0.74806 0.22624
 O503 O -0.01868 0.74796 0.22634
 O504 O 0.01749 0.77355 0.25174
 O505 O 0.01760 0.75186 0.27338
 O506 O -0.01857 0.72626 0.24799
 O507 O 0.01759 0.72636 0.24789
 O508 O -0.01856 0.75176 0.27349
 Cu509 Cu -0.00061 0.76294 0.23686
 Cu510 Cu -0.00047 0.73687 0.26287
 C511 C -0.02476 0.76686 0.26695
 C512 C 0.02368 0.73295 0.23278
 C513 C -0.02478 0.73283 0.23291
 C514 C 0.02369 0.76699 0.26682
 O515 O 0.51781 0.75230 0.77383
 O516 O 0.48170 0.72683 0.74822
 O517 O 0.51786 0.72680 0.74834
 O518 O 0.48164 0.75231 0.77373
 O519 O 0.48172 0.77401 0.75209
 O520 O 0.51794 0.74850 0.72670
 O521 O 0.48178 0.74853 0.72658
 O522 O 0.51788 0.77400 0.75219
 Cu523 Cu 0.49974 0.73737 0.76321
 Cu524 Cu 0.49984 0.76345 0.73721
 C525 C 0.52399 0.76742 0.76730
 C526 C 0.47560 0.73341 0.73311
 C527 C 0.52405 0.73338 0.73326
 C528 C 0.47552 0.76743 0.76716
 C529 C 0.39907 0.30309 0.32709
 C530 C 0.40663 0.31064 0.31092
 C531 C 0.39904 0.32681 0.30337
 C532 C 0.38384 0.33533 0.31185
 C533 C 0.37598 0.32775 0.32802
 C534 C 0.38386 0.31158 0.33561
 C535 C 0.42187 0.30153 0.30181
 C536 C 0.43446 0.29376 0.29404
 C537 C 0.44899 0.28451 0.28477
 C538 C 0.46122 0.27648 0.27671
 H539 H 0.40482 0.29056 0.33304
 H540 H 0.40477 0.33275 0.29083
 H541 H 0.37815 0.34775 0.30562
 H542 H 0.37821 0.30536 0.34803
 C543 C 0.39877 0.80362 0.82701
 C544 C 0.40631 0.81116 0.81084
 C545 C 0.39864 0.82726 0.80325
 C546 C 0.38337 0.83572 0.81167
 C547 C 0.37546 0.82816 0.82789
 C548 C 0.38351 0.81202 0.83550
 C549 C 0.42161 0.80212 0.80178
 C550 C 0.43425 0.79439 0.79405
 C551 C 0.44885 0.78517 0.78484
 C552 C 0.46113 0.77715 0.77684
 H553 H 0.40460 0.79114 0.83300
 H554 H 0.40436 0.83321 0.79070
 H555 H 0.37773 0.84810 0.80532
 H556 H 0.37797 0.80572 0.84794
 C557 C -0.10091 0.30356 0.82680
 C558 C -0.09335 0.31106 0.81061
 C559 C -0.10096 0.32719 0.80300
 C560 C -0.11619 0.33571 0.81144
 C561 C -0.12404 0.32817 0.82763
 C562 C -0.11613 0.31204 0.83528
 C563 C -0.07809 0.30194 0.80155
 C564 C -0.06548 0.29415 0.79383
 C565 C -0.05093 0.28485 0.78464
 C566 C -0.03868 0.27677 0.77665
 H567 H -0.09514 0.29105 0.83280
 H568 H -0.09523 0.33310 0.79045
 H569 H -0.12189 0.34810 0.80517
 H570 H -0.12179 0.30585 0.84772
 C571 C -0.10131 0.80309 0.32710
 C572 C -0.09375 0.81063 0.31094
 C573 C -0.10134 0.82680 0.30339
 C574 C -0.11654 0.83532 0.31186
 C575 C -0.12448 0.82777 0.32807
 C576 C -0.11651 0.81156 0.33563
 C577 C -0.07851 0.80153 0.30183
 C578 C -0.06591 0.79378 0.29406
 C579 C -0.05136 0.78456 0.28478
 C580 C -0.03912 0.77655 0.27672
 H581 H -0.09554 0.79056 0.33305
 H582 H -0.09559 0.83274 0.29086
 H583 H -0.12212 0.84775 0.30555
 H584 H -0.12207 0.80526 0.34805
 C585 C 0.60077 0.69677 0.32703
 C586 C 0.59321 0.68923 0.31085
 C587 C 0.60081 0.67306 0.30328
 C588 C 0.61602 0.66455 0.31176
 C589 C 0.62387 0.67213 0.32794
 C590 C 0.61598 0.68830 0.33554
 C591 C 0.57796 0.69832 0.30174
 C592 C 0.56537 0.70608 0.29397
 C593 C 0.55083 0.71534 0.28471
 C594 C 0.53859 0.72338 0.27667
 H595 H 0.59501 0.70930 0.33298
 H596 H 0.59508 0.66712 0.29074
 H597 H 0.62171 0.65214 0.30553
 H598 H 0.62164 0.69451 0.34797
 C599 C 0.60121 0.19637 0.82697
 C600 C 0.59365 0.18881 0.81081
 C601 C 0.60131 0.17270 0.80323
 C602 C 0.61658 0.16424 0.81165
 C603 C 0.62452 0.17182 0.82784
 C604 C 0.61649 0.18797 0.83545
 C605 C 0.57834 0.19785 0.80176
 C606 C 0.56570 0.20558 0.79404
 C607 C 0.55109 0.21479 0.78484
 C608 C 0.53880 0.22280 0.77685
 H609 H 0.59540 0.20886 0.83295
 H610 H 0.59556 0.16674 0.79070
 H611 H 0.62221 0.15185 0.80530
 H612 H 0.62204 0.19430 0.84788
 C613 C 1.10119 0.69665 0.82664
 C614 C 1.09364 0.68914 0.81044
 C615 C 1.10124 0.67300 0.80284
 C616 C 1.11645 0.66447 0.81130
 C617 C 1.12429 0.67201 0.82750
 C618 C 1.11640 0.68815 0.83513
 C619 C 1.07839 0.69826 0.80136
 C620 C 1.06579 0.70606 0.79363
 C621 C 1.05124 0.71535 0.78442
 C622 C 1.03900 0.72343 0.77643
 H623 H 1.09542 0.70916 0.83262
 H624 H 1.09552 0.66708 0.79028
 H625 H 1.12215 0.65207 0.80504
 H626 H 1.12205 0.69434 0.84758
 C627 C 1.10153 0.19662 0.32689
 C628 C 1.09400 0.18913 0.31069
 C629 C 1.10162 0.17301 0.30308
 C630 C 1.11684 0.16448 0.31152
 C631 C 1.12476 0.17199 0.32777
 C632 C 1.11675 0.18815 0.33539
 C633 C 1.07873 0.19824 0.30162
 C634 C 1.06613 0.20601 0.29388
 C635 C 1.05157 0.21526 0.28465
 C636 C 1.03931 0.22330 0.27663
 H637 H 1.09574 0.20911 0.33289
 H638 H 1.09589 0.16710 0.29052
 H639 H 1.12245 0.15209 0.30516
 H640 H 1.12230 0.19442 0.34785
 C641 C 0.60075 0.32670 0.69672
 C642 C 0.59317 0.31052 0.68917
 C643 C 0.60072 0.30299 0.67299
 C644 C 0.61591 0.31149 0.66446
 C645 C 0.62378 0.32767 0.67205
 C646 C 0.61594 0.33524 0.68823
 C647 C 0.57794 0.30140 0.69829
 C648 C 0.56537 0.29362 0.70607
 C649 C 0.55084 0.28435 0.71534
 C650 C 0.53862 0.27630 0.72340
 H651 H 0.59503 0.33264 0.70927
 H652 H 0.59497 0.29044 0.66704
 H653 H 0.62156 0.30528 0.65203
 H654 H 0.62162 0.34767 0.69446
 C655 C 0.60110 0.80320 0.17297
 C656 C 0.59353 0.81079 0.18910
 C657 C 0.60114 0.82695 0.19664
 C658 C 0.61639 0.83542 0.18820
 C659 C 0.62434 0.82782 0.17202
 C660 C 0.61635 0.81162 0.16447
 C661 C 0.57823 0.80174 0.19818
 C662 C 0.56560 0.79402 0.20592
 C663 C 0.55101 0.78483 0.21516
 C664 C 0.53872 0.77683 0.22319
 H665 H 0.59532 0.79067 0.16702
 H666 H 0.59538 0.83293 0.20915
 H667 H 0.62199 0.84785 0.19451
 H668 H 0.62193 0.80528 0.15206
 C669 C 1.10164 0.32712 0.19678
 C670 C 1.09406 0.31097 0.18919
 C671 C 1.10164 0.30344 0.17304
 C672 C 1.11688 0.31190 0.16457
 C673 C 1.12485 0.32809 0.17217
 C674 C 1.11688 0.33564 0.18836
 C675 C 1.07878 0.30187 0.19824
 C676 C 1.06616 0.29410 0.20597
 C677 C 1.05159 0.28484 0.21517
 C678 C 1.03933 0.27679 0.22318
 H679 H 1.09588 0.33306 0.20930
 H680 H 1.09588 0.29092 0.16706
 H681 H 1.12246 0.30560 0.15214
 H682 H 1.12247 0.34806 0.19470
 C683 C 1.10133 0.80363 0.67291
 C684 C 1.09381 0.81114 0.68910
 C685 C 1.10148 0.82723 0.69673
 C686 C 1.11674 0.83571 0.68831
 C687 C 1.12464 0.82819 0.67207
 C688 C 1.11659 0.81206 0.66443
 C689 C 1.07852 0.80207 0.69816
 C690 C 1.06589 0.79433 0.70589
 C691 C 1.05131 0.78509 0.71511
 C692 C 1.03904 0.77707 0.72313
 H693 H 1.09550 0.79115 0.66690
 H694 H 1.09577 0.83315 0.70928
 H695 H 1.12239 0.84809 0.69468
 H696 H 1.12211 0.80577 0.65197
 C697 C 0.39911 0.67334 0.69659
 C698 C 0.40668 0.68954 0.68907
 C699 C 0.39909 0.69710 0.67291
 C700 C 0.38389 0.68860 0.66439
 C701 C 0.37604 0.67240 0.67195
 C702 C 0.38392 0.66481 0.68810
 C703 C 0.42191 0.69865 0.69818
 C704 C 0.43450 0.70642 0.70597
 C705 C 0.44903 0.71567 0.71526
 C706 C 0.46126 0.72370 0.72333
 H707 H 0.40487 0.66738 0.70911
 H708 H 0.40482 0.70966 0.66699
 H709 H 0.37821 0.69483 0.65198
 H710 H 0.37826 0.65236 0.69430
 C711 C 0.39864 0.19633 0.17323
 C712 C 0.40619 0.18881 0.18941
 C713 C 0.39854 0.17272 0.19702
 C714 C 0.38327 0.16423 0.18861
 C715 C 0.37534 0.17177 0.17239
 C716 C 0.38338 0.18791 0.16476
 C717 C 0.42150 0.19788 0.19845
 C718 C 0.43415 0.20563 0.20615
 C719 C 0.44875 0.21488 0.21533
 C720 C 0.46104 0.22292 0.22330
 H721 H 0.40446 0.20881 0.16723
 H722 H 0.40427 0.16679 0.20956
 H723 H 0.37763 0.15185 0.19497
 H724 H 0.37783 0.19420 0.15232
 C725 C -0.10148 0.67273 0.19680
 C726 C -0.09387 0.68887 0.18921
 C727 C -0.10145 0.69639 0.17305
 C728 C -0.11668 0.68793 0.16456
 C729 C -0.12466 0.67175 0.17216
 C730 C -0.11671 0.66421 0.18837
 C731 C -0.07860 0.69797 0.19828
 C732 C -0.06598 0.70574 0.20601
 C733 C -0.05141 0.71501 0.21522
 C734 C -0.03915 0.72307 0.22322
 H735 H -0.09572 0.66680 0.20933
 H736 H -0.09567 0.70890 0.16707
 H737 H -0.12225 0.69422 0.15213
 H738 H -0.12231 0.65180 0.19471
 C739 C -0.10114 0.17291 0.69687
 C740 C -0.09347 0.18902 0.68926
 C741 C -0.10100 0.19653 0.67305
 C742 C -0.11624 0.18808 0.66457
 C743 C -0.12420 0.17197 0.67221
 C744 C -0.11638 0.16442 0.68842
 C745 C -0.07819 0.19810 0.69833
 C746 C -0.06557 0.20586 0.70608
 C747 C -0.05100 0.21510 0.71531
 C748 C -0.03874 0.22313 0.72333
 H749 H -0.09544 0.16699 0.70943
 H750 H -0.09519 0.20902 0.66706
 H751 H -0.12187 0.19427 0.65212
 H752 H -0.12212 0.15205 0.69469
 C753 C 0.32668 0.39914 0.30335
 C754 C 0.31050 0.40673 0.31090
 C755 C 0.30295 0.39916 0.32707
 C756 C 0.31144 0.38396 0.33559
 C757 C 0.32762 0.37609 0.32801
 C758 C 0.33520 0.38394 0.31184
 C759 C 0.30139 0.42196 0.30178
 C760 C 0.29362 0.43454 0.29401
 C761 C 0.28437 0.44907 0.28473
 C762 C 0.27633 0.46130 0.27667
 H763 H 0.33262 0.40488 0.29082
 H764 H 0.29041 0.40491 0.33301
 H765 H 0.30522 0.37830 0.34801
 H766 H 0.34763 0.37827 0.30562
 C767 C 0.32718 -0.10164 0.80323
 C768 C 0.31104 -0.09404 0.81082
 C769 C 0.30354 -0.10161 0.82700
 C770 C 0.31202 -0.11683 0.83549
 C771 C 0.32820 -0.12480 0.82788
 C772 C 0.33572 -0.11686 0.81166
 C773 C 0.30192 -0.07878 0.80176
 C774 C 0.29414 -0.06618 0.79404
 C775 C 0.28486 -0.05162 0.78483
 C776 C 0.27680 -0.03937 0.77682
 H777 H 0.33309 -0.09588 0.79069
 H778 H 0.29103 -0.09584 0.83299
 H779 H 0.30574 -0.12240 0.84793
 H780 H 0.34812 -0.12244 0.80531
 C781 C 0.82708 0.39889 0.80331
 C782 C 0.81092 0.40649 0.81085
 C783 C 0.80336 0.39892 0.82699
 C784 C 0.81179 0.38367 0.83549
 C785 C 0.82798 0.37569 0.82793
 C786 C 0.83556 0.38364 0.81175
 C787 C 0.80186 0.42178 0.80177
 C788 C 0.79413 0.43440 0.79403
 C789 C 0.78491 0.44899 0.78480
 C790 C 0.77689 0.46126 0.77679
 H791 H 0.83304 0.40464 0.79079
 H792 H 0.79083 0.40470 0.83294
 H793 H 0.80546 0.37810 0.84791
 H794 H 0.84799 0.37805 0.80544
 C795 C 0.82716 -0.10109 0.30313
 C796 C 0.81105 -0.09344 0.31074
 C797 C 0.80354 -0.10097 0.32695
 C798 C 0.81200 -0.11620 0.33543
 C799 C 0.82811 -0.12415 0.32779
 C800 C 0.83566 -0.11633 0.31159
 C801 C 0.80196 -0.07818 0.30166
 C802 C 0.79420 -0.06557 0.29392
 C803 C 0.78494 -0.05101 0.28469
 C804 C 0.77690 -0.03876 0.27666
 H805 H 0.83308 -0.09539 0.29057
 H806 H 0.79105 -0.09517 0.33294
 H807 H 0.80581 -0.12184 0.34788
 H808 H 0.84804 -0.12206 0.30532
 C809 C 0.32687 0.60089 0.69655
 C810 C 0.31069 0.59329 0.68901
 C811 C 0.30311 0.60086 0.67285
 C812 C 0.31157 0.61608 0.66434
 C813 C 0.32775 0.62397 0.67192
 C814 C 0.33536 0.61611 0.68807
 C815 C 0.30161 0.57803 0.69812
 C816 C 0.29386 0.56543 0.70590
 C817 C 0.28464 0.55089 0.71519
 C818 C 0.27663 0.53865 0.72326
 H819 H 0.33283 0.59516 0.70907
 H820 H 0.29057 0.59509 0.66692
 H821 H 0.30533 0.62174 0.65193
 H822 H 0.34779 0.62180 0.69429
 C823 C 0.32710 1.10153 0.19709
 C824 C 0.31096 1.09391 0.18950
 C825 C 0.30346 1.10147 0.17332
 C826 C 0.31192 1.11670 0.16483
 C827 C 0.32810 1.12469 0.17244
 C828 C 0.33562 1.11675 0.18866
 C829 C 0.30185 1.07865 0.19856
 C830 C 0.29407 1.06603 0.20627
 C831 C 0.28478 1.05147 0.21547
 C832 C 0.27671 1.03921 0.22345
 H833 H 0.33302 1.09578 0.20963
 H834 H 0.29095 1.09569 0.16733
 H835 H 0.30564 1.12225 0.15239
 H836 H 0.34803 1.12236 0.19501
 C837 C 0.80369 0.60121 0.17300
 C838 C 0.81124 0.59366 0.18917
 C839 C 0.82735 0.60132 0.19676
 C840 C 0.83582 0.61658 0.18834
 C841 C 0.82826 0.62451 0.17214
 C842 C 0.81211 0.61648 0.16453
 C843 C 0.80219 0.57836 0.19822
 C844 C 0.79445 0.56571 0.20595
 C845 C 0.78522 0.55112 0.21514
 C846 C 0.77720 0.53883 0.22313
 H847 H 0.79120 0.59539 0.16702
 H848 H 0.83330 0.59558 0.20930
 H849 H 0.84821 0.62222 0.19469
 H850 H 0.80579 0.62203 0.15209
 C851 C 0.82669 1.10143 0.69660
 C852 C 0.81052 1.09385 0.68905
 C853 C 0.80298 1.10141 0.67289
 C854 C 0.81146 1.11662 0.66437
 C855 C 0.82767 1.12458 0.67193
 C856 C 0.83523 1.11664 0.68814
 C857 C 0.80141 1.07860 0.69815
 C858 C 0.79366 1.06600 0.70592
 C859 C 0.78443 1.05145 0.71520
 C860 C 0.77643 1.03920 0.72326
 H861 H 0.83263 1.09568 0.70913
 H862 H 0.79045 1.09565 0.66694
 H863 H 0.80516 1.12218 0.65194
 H864 H 0.84766 1.12221 0.69445
 C865 C 0.67323 0.60080 0.30320
 C866 C 0.68941 0.59322 0.31074
 C867 C 0.69695 0.60077 0.32693
 C868 C 0.68845 0.61596 0.33546
 C869 C 0.67227 0.62383 0.32788
 C870 C 0.66470 0.61598 0.31170
 C871 C 0.69853 0.57799 0.30162
 C872 C 0.70631 0.56542 0.29384
 C873 C 0.71558 0.55090 0.28457
 C874 C 0.72363 0.53867 0.27651
 H875 H 0.66729 0.59507 0.29066
 H876 H 0.70949 0.59503 0.33287
 H877 H 0.69467 0.62162 0.34789
 H878 H 0.65227 0.62166 0.30548
 C879 C 0.67272 1.10156 0.80322
 C880 C 0.68887 1.09397 0.81080
 C881 C 0.69640 1.10156 0.82696
 C882 C 0.68794 1.11680 0.83544
 C883 C 0.67176 1.12476 0.82784
 C884 C 0.66421 1.11680 0.81164
 C885 C 0.69796 1.07869 0.80175
 C886 C 0.70573 1.06607 0.79402
 C887 C 0.71498 1.05150 0.78481
 C888 C 0.72302 1.03923 0.77680
 H889 H 0.66679 1.09579 0.79069
 H890 H 0.70891 1.09579 0.83294
 H891 H 0.69424 1.12238 0.84787
 H892 H 0.65180 1.12238 0.80530
 C893 C 0.19681 0.60117 0.82700
 C894 C 0.18926 0.59360 0.81084
 C895 C 0.17313 0.60123 0.80326
 C896 C 0.16465 0.61648 0.81169
 C897 C 0.17222 0.62443 0.82789
 C898 C 0.18839 0.61643 0.83548
 C899 C 0.19832 0.57830 0.80178
 C900 C 0.20605 0.56566 0.79405
 C901 C 0.21526 0.55107 0.78483
 C902 C 0.22327 0.53879 0.77682
 H903 H 0.20932 0.59538 0.83297
 H904 H 0.16718 0.59547 0.79074
 H905 H 0.15224 0.62209 0.80535
 H906 H 0.19471 0.62200 0.84791
 C907 C 0.19641 1.10149 0.32692
 C908 C 0.18891 1.09397 0.31071
 C909 C 0.17281 1.10163 0.30310
 C910 C 0.16432 1.11688 0.31153
 C911 C 0.17184 1.12478 0.32778
 C912 C 0.18797 1.11673 0.33541
 C913 C 0.19798 1.07869 0.30165
 C914 C 0.20574 1.06606 0.29392
 C915 C 0.21499 1.05149 0.28470
 C916 C 0.22303 1.03922 0.27670
 H917 H 0.20888 1.09567 0.33292
 H918 H 0.16690 1.09592 0.29053
 H919 H 0.15195 1.12252 0.30516
 H920 H 0.19425 1.12226 0.34787
 C921 C 0.67305 0.39913 0.69670
 C922 C 0.68921 0.40673 0.68915
 C923 C 0.69675 0.39918 0.67296
 C924 C 0.68827 0.38397 0.66444
 C925 C 0.67211 0.37607 0.67203
 C926 C 0.66453 0.38392 0.68822
 C927 C 0.69832 0.42198 0.69825
 C928 C 0.70608 0.43458 0.70603
 C929 C 0.71534 0.44912 0.71530
 C930 C 0.72338 0.46136 0.72334
 H931 H 0.66711 0.40485 0.70924
 H932 H 0.70928 0.40494 0.66701
 H933 H 0.69448 0.37831 0.65201
 H934 H 0.65212 0.37822 0.69444
 C935 C 0.67285 -0.10110 0.19696
 C936 C 0.68900 -0.09350 0.18936
 C937 C 0.69651 -0.10107 0.17318
 C938 C 0.68803 -0.11630 0.16470
 C939 C 0.67189 -0.12420 0.17234
 C940 C 0.66434 -0.11634 0.18852
 C941 C 0.69812 -0.07823 0.19842
 C942 C 0.70590 -0.06562 0.20615
 C943 C 0.71519 -0.05105 0.21535
 C944 C 0.72326 -0.03879 0.22334
 H945 H 0.66694 -0.09536 0.20951
 H946 H 0.70903 -0.09531 0.16720
 H947 H 0.69422 -0.12197 0.15227
 H948 H 0.65194 -0.12203 0.19478
 C949 C 0.19646 0.39867 0.17304
 C950 C 0.18890 0.40623 0.18920
 C951 C 0.17278 0.39858 0.19678
 C952 C 0.16433 0.38330 0.18836
 C953 C 0.17191 0.37535 0.17217
 C954 C 0.18806 0.38339 0.16457
 C955 C 0.19794 0.42155 0.19825
 C956 C 0.20566 0.43421 0.20598
 C957 C 0.21487 0.44882 0.21518
 C958 C 0.22288 0.46111 0.22318
 H959 H 0.20895 0.40449 0.16707
 H960 H 0.16682 0.40432 0.20930
 H961 H 0.15194 0.37766 0.19470
 H962 H 0.19439 0.37783 0.15215
 C963 C 0.19655 -0.10155 0.67306
 C964 C 0.18906 -0.09401 0.68926
 C965 C 0.17292 -0.10163 0.69684
 C966 C 0.16439 -0.11684 0.68839
 C967 C 0.17190 -0.12475 0.67215
 C968 C 0.18807 -0.11676 0.66455
 C969 C 0.19817 -0.07876 0.69835
 C970 C 0.20595 -0.06616 0.70610
 C971 C 0.21522 -0.05161 0.71535
 C972 C 0.22326 -0.03936 0.72339
 H973 H 0.20906 -0.09576 0.66708
 H974 H 0.16702 -0.09590 0.70940
 H975 H 0.15198 -0.12245 0.69473
 H976 H 0.19434 -0.12230 0.65209
 C977 C 0.32680 0.30316 0.39946
 C978 C 0.31063 0.31072 0.40704
 C979 C 0.30305 0.32688 0.39945
 C980 C 0.31151 0.33538 0.38424
 C981 C 0.32768 0.32779 0.37637
 C982 C 0.33529 0.31163 0.38425
 C983 C 0.30154 0.30162 0.42229
 C984 C 0.29379 0.29385 0.43488
 C985 C 0.28456 0.28459 0.44942
 C986 C 0.27654 0.27653 0.46166
 H987 H 0.33277 0.29063 0.40521
 H988 H 0.29051 0.33283 0.40520
 H989 H 0.30527 0.34780 0.37856
 H990 H 0.34772 0.30540 0.37858
 C991 C 0.30345 0.82690 -0.10096
 C992 C 0.31105 0.81076 -0.09336
 C993 C 0.32722 0.80320 -0.10097
 C994 C 0.33567 0.81164 -0.11622
 C995 C 0.32803 0.82778 -0.12411
 C996 C 0.31187 0.83538 -0.11621
 C997 C 0.30200 0.80168 -0.07809
 C998 C 0.29426 0.79395 -0.06547
 C999 C 0.28501 0.78473 -0.05090
 C1000 C 0.27697 0.77673 -0.03865
 H1001 H 0.29092 0.83286 -0.09520
 H1002 H 0.33320 0.79068 -0.09521
 H1003 H 0.34808 0.80541 -0.12191
 H1004 H 0.30561 0.84778 -0.12190
 C1005 C 0.80297 0.32729 -0.10102
 C1006 C 0.81058 0.31116 -0.09339
 C1007 C 0.82679 0.30364 -0.10094
 C1008 C 0.83527 0.31210 -0.11616
 C1009 C 0.82763 0.32822 -0.12408
 C1010 C 0.81142 0.33578 -0.11624
 C1011 C 0.80151 0.30206 -0.07814
 C1012 C 0.79378 0.29429 -0.06554
 C1013 C 0.78458 0.28501 -0.05099
 C1014 C 0.77658 0.27694 -0.03874
 H1015 H 0.79041 0.33321 -0.09530
 H1016 H 0.83278 0.29114 -0.09516
 H1017 H 0.84772 0.30590 -0.12180
 H1018 H 0.80515 0.34817 -0.12195
 C1019 C 0.82722 0.80294 0.39923
 C1020 C 0.81111 0.81059 0.40688
 C1021 C 0.80360 0.82680 0.39933
 C1022 C 0.81205 0.83525 0.38408
 C1023 C 0.82815 0.82757 0.37615
 C1024 C 0.83570 0.81136 0.38399
 C1025 C 0.80203 0.80155 0.42216
 C1026 C 0.79427 0.79384 0.43478
 C1027 C 0.78500 0.78465 0.44935
 C1028 C 0.77695 0.77667 0.46161
 H1029 H 0.83313 0.79037 0.40496
 H1030 H 0.79112 0.83282 0.40512
 H1031 H 0.80586 0.84770 0.37843
 H1032 H 0.84806 0.80507 0.37826
 C1033 C 0.69663 0.32690 0.60053
 C1034 C 0.68907 0.31073 0.59294
 C1035 C 0.67291 0.30315 0.60054
 C1036 C 0.66443 0.31161 0.61577
 C1037 C 0.67203 0.32778 0.62364
 C1038 C 0.68819 0.33539 0.61576
 C1039 C 0.69814 0.30165 0.57768
 C1040 C 0.70589 0.29390 0.56507
 C1041 C 0.71514 0.28467 0.55052
 C1042 C 0.72318 0.27665 0.53828
 H1043 H 0.70916 0.33287 0.59477
 H1044 H 0.66695 0.29062 0.59479
 H1045 H 0.65201 0.30537 0.62145
 H1046 H 0.69442 0.34782 0.62143
 C1047 C 0.69643 0.82658 1.10093
 C1048 C 0.68890 0.81036 1.09338
 C1049 C 0.67277 0.80275 1.10101
 C1050 C 0.66428 0.81121 1.11623
 C1051 C 0.67184 0.82743 1.12406
 C1052 C 0.68796 0.83507 1.11615
 C1053 C 0.69800 0.80129 1.07813
 C1054 C 0.70578 0.79357 1.06553
 C1055 C 0.71508 0.78438 1.05098
 C1056 C 0.72316 0.77640 1.03873
 H1057 H 0.70893 0.83257 1.09515
 H1058 H 0.66685 0.79018 1.09529
 H1059 H 0.65189 0.80494 1.12194
 H1060 H 0.69416 0.84753 1.12179
 C1061 C 0.19695 0.32698 1.10112
 C1062 C 0.18939 0.31081 1.09352
 C1063 C 0.17324 0.30322 1.10111
 C1064 C 0.16474 0.31166 1.11634
 C1065 C 0.17234 0.32783 1.12422
 C1066 C 0.18849 0.33546 1.11635
 C1067 C 0.19848 0.30173 1.07826
 C1068 C 0.20622 0.29398 1.06565
 C1069 C 0.21544 0.28472 1.05110
 C1070 C 0.22345 0.27667 1.03885
 H1071 H 0.20948 0.33296 1.09537
 H1072 H 0.16728 0.29068 1.09535
 H1073 H 0.15233 0.30541 1.12201
 H1074 H 0.19472 0.34788 1.12203
 C1075 C 0.17282 0.80338 0.60082
 C1076 C 0.18898 0.81095 0.59323
 C1077 C 0.19659 0.82708 0.60086
 C1078 C 0.18819 0.83553 0.61614
 C1079 C 0.17203 0.82792 0.62402
 C1080 C 0.16438 0.81179 0.61610
 C1081 C 0.19802 0.80190 0.57792
 C1082 C 0.20574 0.79418 0.56528
 C1083 C 0.21495 0.78497 0.55069
 C1084 C 0.22296 0.77696 0.53842
 H1085 H 0.16682 0.79087 0.59504
 H1086 H 0.20912 0.83304 0.59511
 H1087 H 0.19446 0.84791 0.62185
 H1088 H 0.15196 0.80555 0.62178
 C1089 C 0.30307 0.67318 0.60051
 C1090 C 0.31061 0.68937 0.59294
 C1091 C 0.32678 0.69696 0.60053
 C1092 C 0.33529 0.68850 0.61574
 C1093 C 0.32771 0.67231 0.62360
 C1094 C 0.31155 0.66469 0.61572
 C1095 C 0.30151 0.69845 0.57769
 C1096 C 0.29374 0.70621 0.56510
 C1097 C 0.28448 0.71545 0.55056
 C1098 C 0.27644 0.72348 0.53832
 H1099 H 0.29054 0.66721 0.59476
 H1100 H 0.33272 0.70951 0.59479
 H1101 H 0.34770 0.69475 0.62141
 H1102 H 0.30534 0.65226 0.62139
 C1103 C 0.30329 0.17293 1.10126
 C1104 C 0.31089 0.18907 1.09364
 C1105 C 0.32706 0.19664 1.10124
 C1106 C 0.33552 0.18822 1.11649
 C1107 C 0.32788 0.17208 1.12439
 C1108 C 0.31172 0.16447 1.11651
 C1109 C 0.30184 0.19813 1.07836
 C1110 C 0.29410 0.20586 1.06573
 C1111 C 0.28487 0.21508 1.05116
 C1112 C 0.27685 0.22310 1.03890
 H1113 H 0.29076 0.16697 1.09550
 H1114 H 0.33305 0.20916 1.09546
 H1115 H 0.34794 0.19445 1.12217
 H1116 H 0.30546 0.15207 1.12221
 C1117 C 0.82700 0.69657 1.10103
 C1118 C 0.81084 0.68897 1.09343
 C1119 C 0.80329 0.67280 1.10103
 C1120 C 0.81173 0.66434 1.11627
 C1121 C 0.82788 0.67198 1.12416
 C1122 C 0.83548 0.68814 1.11628
 C1123 C 0.80177 0.69803 1.07816
 C1124 C 0.79402 0.70577 1.06554
 C1125 C 0.78480 0.71501 1.05098
 C1126 C 0.77679 0.72305 1.03873
 H1127 H 0.83295 0.70911 1.09528
 H1128 H 0.79077 0.66682 1.09527
 H1129 H 0.80551 0.65192 1.12195
 H1130 H 0.84788 0.69440 1.12196
 C1131 C 0.82676 0.19650 0.60067
 C1132 C 0.81054 0.18899 0.59311
 C1133 C 0.80288 0.17289 0.60075
 C1134 C 0.81130 0.16441 0.61601
 C1135 C 0.82751 0.17195 0.62385
 C1136 C 0.83520 0.18805 0.61592
 C1137 C 0.80151 0.19807 0.57782
 C1138 C 0.79380 0.20583 0.56520
 C1139 C 0.78462 0.21509 0.55062
 C1140 C 0.77664 0.22314 0.53835
 H1141 H 0.83279 0.20897 0.59487
 H1142 H 0.79031 0.16698 0.59503
 H1143 H 0.80499 0.15204 0.62173
 H1144 H 0.84766 0.19424 0.62157
 C1145 C 0.67307 0.69670 0.39942
 C1146 C 0.68925 0.68914 0.40700
 C1147 C 0.69682 0.67298 0.39940
 C1148 C 0.68836 0.66449 0.38417
 C1149 C 0.67218 0.67209 0.37630
 C1150 C 0.66458 0.68824 0.38420
 C1151 C 0.69834 0.69822 0.42226
 C1152 C 0.70609 0.70597 0.43486
 C1153 C 0.71534 0.71522 0.44942
 C1154 C 0.72337 0.72326 0.46166
 H1155 H 0.66711 0.70923 0.40518
 H1156 H 0.70936 0.66702 0.40514
 H1157 H 0.69460 0.65208 0.37848
 H1158 H 0.65215 0.69447 0.37853
 C1159 C 0.69661 0.17318 -0.10107
 C1160 C 0.68901 0.18933 -0.09348
 C1161 C 0.67284 0.19687 -0.10107
 C1162 C 0.66437 0.18841 -0.11631
 C1163 C 0.67201 0.17226 -0.12419
 C1164 C 0.68818 0.16468 -0.11631
 C1165 C 0.69807 0.19842 -0.07820
 C1166 C 0.70581 0.20617 -0.06559
 C1167 C 0.71506 0.21540 -0.05103
 C1168 C 0.72310 0.22342 -0.03877
 H1169 H 0.70915 0.16724 -0.09531
 H1170 H 0.66685 0.20939 -0.09532
 H1171 H 0.65194 0.19462 -0.12199
 H1172 H 0.69444 0.15227 -0.12199
 C1173 C 0.17341 0.69650 -0.10098
 C1174 C 0.18960 0.68895 -0.09340
 C1175 C 0.19719 0.67281 -0.10101
 C1176 C 0.18874 0.66433 -0.11625
 C1177 C 0.17257 0.67191 -0.12412
 C1178 C 0.16494 0.68805 -0.11621
 C1179 C 0.19866 0.69804 -0.07813
 C1180 C 0.20638 0.70580 -0.06551
 C1181 C 0.21558 0.71508 -0.05094
 C1182 C 0.22356 0.72315 -0.03869
 H1183 H 0.16743 0.70902 -0.09520
 H1184 H 0.20973 0.66686 -0.09527
 H1185 H 0.19500 0.65193 -0.12195
 H1186 H 0.15251 0.69428 -0.12188
 C1187 C 0.19664 0.17291 0.39907
 C1188 C 0.18908 0.18906 0.40668
 C1189 C 0.17295 0.19668 0.39906
 C1190 C 0.16450 0.18829 0.38378
 C1191 C 0.17210 0.17213 0.37588
 C1192 C 0.18822 0.16448 0.38379
 C1193 C 0.19813 0.19809 0.42200
 C1194 C 0.20586 0.20580 0.43465
 C1195 C 0.21508 0.21499 0.44924
 C1196 C 0.22310 0.22299 0.46153
 H1197 H 0.20914 0.16691 0.40485
 H1198 H 0.16699 0.20921 0.40483
 H1199 H 0.15211 0.19456 0.37808
 H1200 H 0.19446 0.15207 0.37809
 C1201 C 0.30317 0.39908 0.67329
 C1202 C 0.31073 0.40667 0.68945
 C1203 C 0.32688 0.39906 0.69703
 C1204 C 0.33537 0.38382 0.68858
 C1205 C 0.32778 0.37594 0.67242
 C1206 C 0.31163 0.38384 0.66481
 C1207 C 0.30165 0.42195 0.69852
 C1208 C 0.29391 0.43458 0.70625
 C1209 C 0.28468 0.44917 0.71546
 C1210 C 0.27666 0.46144 0.72347
 H1211 H 0.29065 0.40484 0.66732
 H1212 H 0.33284 0.40481 0.70956
 H1213 H 0.34779 0.37813 0.69482
 H1214 H 0.30540 0.37816 0.65239
 C1215 C 0.30316 0.89975 0.17306
 C1216 C 0.31073 0.90733 0.18922
 C1217 C 0.32691 0.89974 0.19676
 C1218 C 0.33541 0.88453 0.18828
 C1219 C 0.32781 0.87666 0.17212
 C1220 C 0.31163 0.88453 0.16455
 C1221 C 0.30164 0.92259 0.19832
 C1222 C 0.29388 0.93520 0.20608
 C1223 C 0.28463 0.94975 0.21532
 C1224 C 0.27660 0.96201 0.22334
 H1225 H 0.29062 0.90550 0.16712
 H1226 H 0.33287 0.90549 0.20929
 H1227 H 0.34784 0.87885 0.19450
 H1228 H 0.30540 0.87886 0.15213
 C1229 C 0.82756 0.39936 0.19642
 C1230 C 0.81138 0.40695 0.18887
 C1231 C 0.80381 0.39935 0.17272
 C1232 C 0.81227 0.38412 0.16422
 C1233 C 0.82845 0.37624 0.17181
 C1234 C 0.83605 0.38413 0.18796
 C1235 C 0.80229 0.42221 0.19795
 C1236 C 0.79453 0.43482 0.20570
 C1237 C 0.78528 0.44937 0.21494
 C1238 C 0.77723 0.46161 0.22297
 H1239 H 0.83352 0.40512 0.20894
 H1240 H 0.79128 0.40510 0.16677
 H1241 H 0.80604 0.37844 0.15182
 H1242 H 0.84848 0.37845 0.19419
 C1243 C 0.80322 0.89974 0.67321
 C1244 C 0.81078 0.90735 0.68937
 C1245 C 0.82697 0.89979 0.69691
 C1246 C 0.83550 0.88459 0.68844
 C1247 C 0.82791 0.87669 0.67229
 C1248 C 0.81171 0.88453 0.66471
 C1249 C 0.80167 0.92260 0.69845
 C1250 C 0.79390 0.93520 0.70620
 C1251 C 0.78464 0.94976 0.71543
 C1252 C 0.77659 0.96201 0.72345
 H1253 H 0.79067 0.90547 0.66727
 H1254 H 0.83293 0.90556 0.70943
 H1255 H 0.84794 0.87894 0.69465
 H1256 H 0.80549 0.87884 0.65230
 C1257 C 0.67310 0.60089 0.69707
 C1258 C 0.68925 0.59329 0.68949
 C1259 C 0.69677 0.60086 0.67331
 C1260 C 0.68829 0.61609 0.66483
 C1261 C 0.67214 0.62398 0.67245
 C1262 C 0.66458 0.61612 0.68863
 C1263 C 0.69835 0.57802 0.69855
 C1264 C 0.70611 0.56540 0.70627
 C1265 C 0.71537 0.55083 0.71548
 C1266 C 0.72341 0.53856 0.72348
 H1267 H 0.66716 0.59515 0.70961
 H1268 H 0.70929 0.59510 0.66734
 H1269 H 0.69450 0.62176 0.65240
 H1270 H 0.65218 0.62181 0.69487
 C1271 C 0.67299 0.10054 0.19653
 C1272 C 0.68919 0.09298 0.18901
 C1273 C 0.69676 0.10057 0.17286
 C1274 C 0.68827 0.11576 0.16434
 C1275 C 0.67207 0.12361 0.17189
 C1276 C 0.66447 0.11574 0.18804
 C1277 C 0.69830 0.07774 0.19812
 C1278 C 0.70607 0.06516 0.20589
 C1279 C 0.71533 0.05062 0.21515
 C1280 C 0.72337 0.03838 0.22319
 H1281 H 0.66703 0.09479 0.20905
 H1282 H 0.70932 0.09484 0.16693
 H1283 H 0.69450 0.12144 0.15193
 H1284 H 0.65202 0.12139 0.19424
 C1285 C 0.17257 0.60060 0.19638
 C1286 C 0.18875 0.59301 0.18885
 C1287 C 0.19634 0.60061 0.17271
 C1288 C 0.18789 0.61585 0.16421
 C1289 C 0.17171 0.62372 0.17178
 C1290 C 0.16409 0.61583 0.18792
 C1291 C 0.19783 0.57775 0.19794
 C1292 C 0.20558 0.56514 0.20570
 C1293 C 0.21482 0.55059 0.21495
 C1294 C 0.22284 0.53834 0.22300
 H1295 H 0.16659 0.59484 0.20888
 H1296 H 0.20889 0.59486 0.16678
 H1297 H 0.19414 0.62153 0.15182
 H1298 H 0.15165 0.62151 0.19412
 C1299 C 0.17293 0.10010 0.69691
 C1300 C 0.18910 0.09250 0.68935
 C1301 C 0.19665 0.10007 0.67319
 C1302 C 0.18818 0.11529 0.66468
 C1303 C 0.17202 0.12317 0.67227
 C1304 C 0.16443 0.11531 0.68843
 C1305 C 0.19819 0.07724 0.69844
 C1306 C 0.20594 0.06464 0.70620
 C1307 C 0.21519 0.05008 0.71544
 C1308 C 0.22323 0.03782 0.72347
 H1309 H 0.16698 0.09436 0.70943
 H1310 H 0.20919 0.09431 0.66724
 H1311 H 0.19441 0.12095 0.65227
 H1312 H 0.15201 0.12100 0.69466
 C1313 C 0.32662 0.60084 0.30297
 C1314 C 0.31044 0.59325 0.31052
 C1315 C 0.30289 0.60084 0.32668
 C1316 C 0.31136 0.61607 0.33517
 C1317 C 0.32753 0.62395 0.32759
 C1318 C 0.33512 0.61607 0.31143
 C1319 C 0.30135 0.57797 0.30145
 C1320 C 0.29359 0.56535 0.29371
 C1321 C 0.28435 0.55077 0.28449
 C1322 C 0.27632 0.53849 0.27648
 H1323 H 0.33257 0.59509 0.29044
 H1324 H 0.29035 0.59509 0.33263
 H1325 H 0.30513 0.62175 0.34758
 H1326 H 0.34755 0.62175 0.30521
 C1327 C 0.32700 0.10008 0.80361
 C1328 C 0.31081 0.09250 0.81113
 C1329 C 0.30323 0.10010 0.82728
 C1330 C 0.31170 0.11532 0.83579
 C1331 C 0.32790 0.12318 0.82823
 C1332 C 0.33551 0.11530 0.81209
 C1333 C 0.30172 0.07724 0.80203
 C1334 C 0.29397 0.06464 0.79426
 C1335 C 0.28474 0.05008 0.78499
 C1336 C 0.27672 0.03782 0.77694
 H1337 H 0.33298 0.09432 0.79110
 H1338 H 0.29067 0.09436 0.83320
 H1339 H 0.30546 0.12101 0.84819
 H1340 H 0.34795 0.12096 0.80589
 C1341 C 0.82732 0.60077 0.80334
 C1342 C 0.81117 0.59316 0.81094
 C1343 C 0.80365 0.60074 0.82712
 C1344 C 0.81213 0.61597 0.83560
 C1345 C 0.82827 0.62387 0.82797
 C1346 C 0.83583 0.61601 0.81179
 C1347 C 0.80206 0.57790 0.80187
 C1348 C 0.79429 0.56529 0.79413
 C1349 C 0.78502 0.55073 0.78490
 C1350 C 0.77697 0.53848 0.77687
 H1351 H 0.83324 0.59503 0.79080
 H1352 H 0.79113 0.59497 0.83309
 H1353 H 0.80593 0.62164 0.84803
 H1354 H 0.84823 0.62170 0.80554
 C1355 C 0.82741 0.10068 0.30308
 C1356 C 0.81123 0.09309 0.31062
 C1357 C 0.80368 0.10068 0.32678
 C1358 C 0.81215 0.11589 0.33529
 C1359 C 0.82833 0.12377 0.32771
 C1360 C 0.83592 0.11590 0.31155
 C1361 C 0.80213 0.07784 0.30153
 C1362 C 0.79435 0.06523 0.29378
 C1363 C 0.78507 0.05068 0.28456
 C1364 C 0.77701 0.03843 0.27655
 H1365 H 0.83336 0.09493 0.29055
 H1366 H 0.79114 0.09492 0.33273
 H1367 H 0.80593 0.12157 0.34771
 H1368 H 0.84835 0.12158 0.30533
 C1369 C 0.67326 0.39920 0.30276
 C1370 C 0.68942 0.40680 0.31033
 C1371 C 0.69696 0.39923 0.32651
 C1372 C 0.68846 0.38402 0.33501
 C1373 C 0.67230 0.37614 0.32740
 C1374 C 0.66473 0.38399 0.31122
 C1375 C 0.69854 0.42206 0.30126
 C1376 C 0.70631 0.43467 0.29353
 C1377 C 0.71559 0.44923 0.28432
 C1378 C 0.72364 0.46150 0.27633
 H1379 H 0.66733 0.40494 0.29022
 H1380 H 0.70949 0.40499 0.33248
 H1381 H 0.69467 0.37836 0.34744
 H1382 H 0.65232 0.37831 0.30499
 C1383 C 0.67299 0.89975 0.80369
 C1384 C 0.68920 0.90730 0.81120
 C1385 C 0.69682 0.89968 0.82732
 C1386 C 0.68836 0.88445 0.83581
 C1387 C 0.67214 0.87660 0.82827
 C1388 C 0.66450 0.88452 0.81215
 C1389 C 0.69828 0.92258 0.80211
 C1390 C 0.70601 0.93519 0.79434
 C1391 C 0.71521 0.94976 0.78507
 C1392 C 0.72320 0.96202 0.77700
 H1393 H 0.66699 0.90553 0.79120
 H1394 H 0.70938 0.90541 0.83323
 H1395 H 0.69462 0.87874 0.84819
 H1396 H 0.65204 0.87886 0.80597
 C1397 C 0.17302 0.39931 0.80364
 C1398 C 0.18920 0.40690 0.81119
 C1399 C 0.19677 0.39930 0.82734
 C1400 C 0.18830 0.38407 0.83583
 C1401 C 0.17212 0.37620 0.82824
 C1402 C 0.16452 0.38408 0.81209
 C1403 C 0.19829 0.42216 0.80211
 C1404 C 0.20604 0.43477 0.79435
 C1405 C 0.21527 0.44932 0.78508
 C1406 C 0.22328 0.46157 0.77702
 H1407 H 0.16706 0.40507 0.79112
 H1408 H 0.20931 0.40505 0.83329
 H1409 H 0.19453 0.37838 0.84823
 H1410 H 0.15209 0.37841 0.80587
 C1411 C 0.17260 0.89967 0.30306
 C1412 C 0.18876 0.90729 0.31063
 C1413 C 0.19630 0.89972 0.32680
 C1414 C 0.18784 0.88449 0.33529
 C1415 C 0.17168 0.87659 0.32768
 C1416 C 0.16410 0.88444 0.31151
 C1417 C 0.19785 0.92256 0.30156
 C1418 C 0.20562 0.93518 0.29383
 C1419 C 0.21489 0.94974 0.28462
 C1420 C 0.22294 0.96201 0.27663
 H1421 H 0.16666 0.90541 0.29052
 H1422 H 0.20883 0.90549 0.33277
 H1423 H 0.19405 0.87883 0.34772
 H1424 H 0.15169 0.87875 0.30527
 C1425 C 0.39916 0.30287 0.67338
 C1426 C 0.40675 0.31042 0.68955
 C1427 C 0.39917 0.32660 0.69710
 C1428 C 0.38396 0.33512 0.68863
 C1429 C 0.37608 0.32753 0.67247
 C1430 C 0.38395 0.31135 0.66488
 C1431 C 0.42201 0.30132 0.69863
 C1432 C 0.43462 0.29356 0.70637
 C1433 C 0.44918 0.28430 0.71559
 C1434 C 0.46145 0.27627 0.72359
 H1435 H 0.40490 0.29033 0.66743
 H1436 H 0.40492 0.33255 0.70963
 H1437 H 0.37829 0.34755 0.69486
 H1438 H 0.37827 0.30512 0.65246
 C1439 C 0.39929 0.80368 0.17293
 C1440 C 0.40687 0.81121 0.18910
 C1441 C 0.39928 0.82737 0.19669
 C1442 C 0.38406 0.83589 0.18824
 C1443 C 0.37619 0.82832 0.17206
 C1444 C 0.38407 0.81216 0.16445
 C1445 C 0.42213 0.80210 0.19818
 C1446 C 0.43473 0.79432 0.20592
 C1447 C 0.44928 0.78505 0.21514
 C1448 C 0.46152 0.77699 0.22316
 H1449 H 0.40504 0.79115 0.16696
 H1450 H 0.40503 0.83331 0.20923
 H1451 H 0.37838 0.84830 0.19448
 H1452 H 0.37839 0.80595 0.15202
 C1453 C 0.89982 0.30317 0.17279
 C1454 C 0.90744 0.31077 0.18892
 C1455 C 0.89988 0.32698 0.19644
 C1456 C 0.88466 0.33547 0.18797
 C1457 C 0.87675 0.32784 0.17184
 C1458 C 0.88459 0.31163 0.16429
 C1459 C 0.92270 0.30169 0.19802
 C1460 C 0.93531 0.29395 0.20578
 C1461 C 0.94987 0.28473 0.21505
 C1462 C 0.96213 0.27672 0.22309
 H1463 H 0.90555 0.29061 0.16687
 H1464 H 0.90565 0.33296 0.20894
 H1465 H 0.87901 0.34793 0.19416
 H1466 H 0.87889 0.30537 0.15190
 C1467 C 0.89951 0.80384 0.67311
 C1468 C 0.90709 0.81139 0.68928
 C1469 C 0.89947 0.82754 0.69686
 C1470 C 0.88423 0.83603 0.68841
 C1471 C 0.87637 0.82844 0.67224
 C1472 C 0.88427 0.81229 0.66463
 C1473 C 0.92237 0.80231 0.69834
 C1474 C 0.93499 0.79455 0.70607
 C1475 C 0.94956 0.78529 0.71527
 C1476 C 0.96182 0.77722 0.72326
 H1477 H 0.90529 0.79132 0.66714
 H1478 H 0.90521 0.83350 0.70939
 H1479 H 0.87853 0.84843 0.69465
 H1480 H 0.87861 0.80606 0.65221
 C1481 C 0.60075 0.30319 0.32658
 C1482 C 0.59318 0.31072 0.31040
 C1483 C 0.60079 0.32687 0.30282
 C1484 C 0.61603 0.33538 0.31127
 C1485 C 0.62389 0.32781 0.32744
 C1486 C 0.61599 0.31166 0.33506
 C1487 C 0.57790 0.30163 0.30134
 C1488 C 0.56527 0.29386 0.29362
 C1489 C 0.55069 0.28460 0.28442
 C1490 C 0.53841 0.27655 0.27644
 H1491 H 0.59498 0.29067 0.33255
 H1492 H 0.59505 0.33280 0.29028
 H1493 H 0.62172 0.34778 0.30502
 H1494 H 0.62165 0.30545 0.34749
 C1495 C 0.60064 0.80362 0.82735
 C1496 C 0.59303 0.81122 0.81122
 C1497 C 0.60061 0.82741 0.80369
 C1498 C 0.61585 0.83590 0.81215
 C1499 C 0.62375 0.82827 0.82828
 C1500 C 0.61588 0.81208 0.83584
 C1501 C 0.57776 0.80213 0.80213
 C1502 C 0.56515 0.79438 0.79437
 C1503 C 0.55059 0.78515 0.78511
 C1504 C 0.53834 0.77713 0.77706
 H1505 H 0.59490 0.79107 0.83328
 H1506 H 0.59484 0.83339 0.79119
 H1507 H 0.62152 0.84834 0.80595
 H1508 H 0.62158 0.80583 0.84823
 C1509 C 0.10073 0.30312 0.82717
 C1510 C 0.09314 0.31070 0.81102
 C1511 C 0.10072 0.32689 0.80350
 C1512 C 0.11593 0.33540 0.81200
 C1513 C 0.12380 0.32779 0.82815
 C1514 C 0.11594 0.31159 0.83570
 C1515 C 0.07790 0.30160 0.80191
 C1516 C 0.06530 0.29385 0.79413
 C1517 C 0.05075 0.28461 0.78486
 C1518 C 0.03849 0.27658 0.77682
 H1519 H 0.09499 0.29056 0.83309
 H1520 H 0.09497 0.33287 0.79099
 H1521 H 0.12160 0.34785 0.80580
 H1522 H 0.12161 0.30535 0.84810
 C1523 C 0.10030 0.82719 0.30300
 C1524 C 0.09271 0.81102 0.31056
 C1525 C 0.10029 0.80349 0.32674
 C1526 C 0.11550 0.81199 0.33524
 C1527 C 0.12337 0.82816 0.32765
 C1528 C 0.11550 0.83573 0.31147
 C1529 C 0.07746 0.80190 0.30148
 C1530 C 0.06486 0.79411 0.29373
 C1531 C 0.05031 0.78483 0.28451
 C1532 C 0.03806 0.77676 0.27651
 H1533 H 0.09455 0.83313 0.29046
 H1534 H 0.09454 0.79095 0.33269
 H1535 H 0.12117 0.80578 0.34767
 H1536 H 0.12118 0.84815 0.30524
 C1537 C 0.60071 0.69700 0.67338
 C1538 C 0.59314 0.68947 0.68956
 C1539 C 0.60073 0.67331 0.69713
 C1540 C 0.61595 0.66479 0.68866
 C1541 C 0.62380 0.67236 0.67249
 C1542 C 0.61592 0.68852 0.66489
 C1543 C 0.57787 0.69857 0.69863
 C1544 C 0.56526 0.70634 0.70637
 C1545 C 0.55070 0.71560 0.71558
 C1546 C 0.53843 0.72364 0.72358
 H1547 H 0.59495 0.70953 0.66742
 H1548 H 0.59500 0.66737 0.70966
 H1549 H 0.62163 0.65237 0.69490
 H1550 H 0.62158 0.69473 0.65246
 C1551 C 0.60052 0.19650 0.17271
 C1552 C 0.59293 0.18893 0.18886
 C1553 C 0.60053 0.17276 0.19641
 C1554 C 0.61576 0.16427 0.18796
 C1555 C 0.62364 0.17188 0.17181
 C1556 C 0.61575 0.18805 0.16422
 C1557 C 0.57766 0.19801 0.19795
 C1558 C 0.56506 0.20576 0.20571
 C1559 C 0.55050 0.21499 0.21497
 C1560 C 0.53826 0.22301 0.22302
 H1561 H 0.59476 0.20904 0.16677
 H1562 H 0.59477 0.16680 0.20893
 H1563 H 0.62144 0.15185 0.19418
 H1564 H 0.62143 0.19429 0.15182
 C1565 C 0.10028 0.67300 0.19637
 C1566 C 0.09272 0.68921 0.18885
 C1567 C 0.10034 0.69680 0.17273
 C1568 C 0.11557 0.68833 0.16423
 C1569 C 0.12341 0.67212 0.17179
 C1570 C 0.11550 0.66450 0.18791
 C1571 C 0.07746 0.69829 0.19794
 C1572 C 0.06486 0.70604 0.20570
 C1573 C 0.05030 0.71526 0.21497
 C1574 C 0.03804 0.72327 0.22302
 H1575 H 0.09450 0.66702 0.20887
 H1576 H 0.09462 0.70936 0.16680
 H1577 H 0.12127 0.69458 0.15185
 H1578 H 0.12115 0.65205 0.19411
 C1579 C 0.10063 0.17251 0.69693
 C1580 C 0.09305 0.18869 0.68937
 C1581 C 0.10062 0.19622 0.67319
 C1582 C 0.11582 0.18773 0.66469
 C1583 C 0.12369 0.17156 0.67228
 C1584 C 0.11584 0.16399 0.68846
 C1585 C 0.07781 0.19780 0.69846
 C1586 C 0.06522 0.20559 0.70621
 C1587 C 0.05068 0.21488 0.71544
 C1588 C 0.03844 0.22296 0.72344
 H1589 H 0.09490 0.16658 0.70947
 H1590 H 0.09487 0.20876 0.66724
 H1591 H 0.12148 0.19394 0.65226
 H1592 H 0.12151 0.15157 0.69468
 C1593 C 0.39904 0.69693 0.32676
 C1594 C 0.40663 0.68938 0.31060
 C1595 C 0.39904 0.67321 0.30303
 C1596 C 0.38380 0.66471 0.31147
 C1597 C 0.37592 0.67230 0.32763
 C1598 C 0.38381 0.68846 0.33524
 C1599 C 0.42191 0.69847 0.30154
 C1600 C 0.43454 0.70622 0.29382
 C1601 C 0.44912 0.71546 0.28460
 C1602 C 0.46139 0.72348 0.27659
 H1603 H 0.40480 0.70946 0.33273
 H1604 H 0.40479 0.66726 0.29050
 H1605 H 0.37811 0.65229 0.30523
 H1606 H 0.37813 0.69469 0.34765
 C1607 C 0.39937 0.17242 0.80365
 C1608 C 0.40696 0.18861 0.81120
 C1609 C 0.39938 0.19618 0.82735
 C1610 C 0.38415 0.18771 0.83585
 C1611 C 0.37628 0.17152 0.82827
 C1612 C 0.38415 0.16392 0.81212
 C1613 C 0.42221 0.19771 0.80211
 C1614 C 0.43481 0.20547 0.79434
 C1615 C 0.44936 0.21472 0.78509
 C1616 C 0.46160 0.22276 0.77704
 H1617 H 0.40512 0.16646 0.79113
 H1618 H 0.40513 0.20872 0.83330
 H1619 H 0.37848 0.19394 0.84826
 H1620 H 0.37848 0.15149 0.80590
 C1621 C 0.89962 0.67324 0.80321
 C1622 C 0.90720 0.68943 0.81074
 C1623 C 0.89964 0.69699 0.82691
 C1624 C 0.88444 0.68850 0.83544
 C1625 C 0.87657 0.67230 0.82787
 C1626 C 0.88442 0.66471 0.81170
 C1627 C 0.92244 0.69854 0.80164
 C1628 C 0.93503 0.70630 0.79387
 C1629 C 0.94958 0.71555 0.78461
 C1630 C 0.96183 0.72359 0.77657
 H1631 H 0.90535 0.66728 0.79068
 H1632 H 0.90539 0.70954 0.83285
 H1633 H 0.87878 0.69472 0.84786
 H1634 H 0.87875 0.65228 0.80549
 C1635 C 0.89980 0.19678 0.32684
 C1636 C 0.90740 0.18920 0.31069
 C1637 C 0.89982 0.17301 0.30315
 C1638 C 0.88459 0.16451 0.31161
 C1639 C 0.87670 0.17213 0.32775
 C1640 C 0.88457 0.18832 0.33533
 C1641 C 0.92267 0.19828 0.30161
 C1642 C 0.93529 0.20603 0.29386
 C1643 C 0.94985 0.21526 0.28462
 C1644 C 0.96212 0.22328 0.27659
 H1645 H 0.90555 0.20933 0.33278
 H1646 H 0.90558 0.16704 0.29064
 H1647 H 0.87892 0.15208 0.30539
 H1648 H 0.87888 0.19456 0.34773
 C1649 C 0.32684 0.30291 0.60105
 C1650 C 0.31068 0.31048 0.59345
 C1651 C 0.30313 0.32667 0.60102
 C1652 C 0.31160 0.33517 0.61624
 C1653 C 0.32776 0.32756 0.62412
 C1654 C 0.33534 0.31138 0.61626
 C1655 C 0.30160 0.30139 0.57819
 C1656 C 0.29384 0.29364 0.56559
 C1657 C 0.28460 0.28440 0.55103
 C1658 C 0.27657 0.27638 0.53877
 H1659 H 0.33279 0.29036 0.59531
 H1660 H 0.29061 0.33263 0.59526
 H1661 H 0.30538 0.34760 0.62190
 H1662 H 0.34776 0.30514 0.62195
 C1663 C 0.32694 0.80370 0.10067
 C1664 C 0.31074 0.81123 0.09311
 C1665 C 0.30315 0.82738 0.10071
 C1666 C 0.31162 0.83590 0.11592
 C1667 C 0.32782 0.82833 0.12377
 C1668 C 0.33544 0.81218 0.11588
 C1669 C 0.30166 0.80212 0.07786
 C1670 C 0.29392 0.79434 0.06526
 C1671 C 0.28471 0.78505 0.05072
 C1672 C 0.27672 0.77697 0.03847
 H1673 H 0.33291 0.79118 0.09491
 H1674 H 0.29060 0.83332 0.09498
 H1675 H 0.30537 0.84830 0.12161
 H1676 H 0.34788 0.80597 0.12153
 C1677 C 0.82732 0.30313 0.10053
 C1678 C 0.81117 0.31073 0.09295
 C1679 C 0.80367 0.32694 0.10051
 C1680 C 0.81218 0.33545 0.11570
 C1681 C 0.82834 0.32782 0.12357
 C1682 C 0.83587 0.31161 0.11572
 C1683 C 0.80203 0.30165 0.07772
 C1684 C 0.79423 0.29391 0.06513
 C1685 C 0.78492 0.28470 0.05060
 C1686 C 0.77684 0.27671 0.03836
 H1687 H 0.83323 0.29057 0.09480
 H1688 H 0.79115 0.33293 0.09476
 H1689 H 0.80600 0.34791 0.12135
 H1690 H 0.84828 0.30535 0.12140
 C1691 C 0.80330 0.82733 0.60092
 C1692 C 0.81091 0.81118 0.59333
 C1693 C 0.82711 0.80367 0.60089
 C1694 C 0.83561 0.81218 0.61609
 C1695 C 0.82797 0.82833 0.62397
 C1696 C 0.81177 0.83587 0.61612
 C1697 C 0.80183 0.80205 0.57809
 C1698 C 0.79408 0.79426 0.56550
 C1699 C 0.78485 0.78497 0.55097
 C1700 C 0.77683 0.77691 0.53873
 H1701 H 0.79074 0.83325 0.59519
 H1702 H 0.83310 0.79115 0.59514
 H1703 H 0.84806 0.80599 0.62175
 H1704 H 0.80551 0.84827 0.62180
 C1705 C 0.30290 0.67322 0.39897
 C1706 C 0.31047 0.68939 0.40656
 C1707 C 0.32666 0.69695 0.39899
 C1708 C 0.33516 0.68848 0.38378
 C1709 C 0.32755 0.67231 0.37590
 C1710 C 0.31137 0.66472 0.38376
 C1711 C 0.30139 0.69849 0.42181
 C1712 C 0.29364 0.70624 0.43441
 C1713 C 0.28440 0.71549 0.44896
 C1714 C 0.27638 0.72352 0.46121
 H1715 H 0.29036 0.66727 0.40471
 H1716 H 0.33262 0.70948 0.40475
 H1717 H 0.34759 0.69470 0.37812
 H1718 H 0.30513 0.65230 0.37808
 C1719 C 0.32702 0.19622 0.89961
 C1720 C 0.31082 0.18868 0.90718
 C1721 C 0.30324 0.17252 0.89959
 C1722 C 0.31171 0.16399 0.88439
 C1723 C 0.32790 0.17156 0.87654
 C1724 C 0.33552 0.18773 0.88441
 C1725 C 0.30174 0.19780 0.92241
 C1726 C 0.29399 0.20558 0.93500
 C1727 C 0.28477 0.21487 0.94954
 C1728 C 0.27676 0.22293 0.96177
 H1729 H 0.33299 0.20875 0.90536
 H1730 H 0.29069 0.16658 0.90532
 H1731 H 0.30546 0.15157 0.87871
 H1732 H 0.34796 0.19394 0.87876
 C1733 C 0.80371 0.67310 0.89939
 C1734 C 0.81125 0.68930 0.90695
 C1735 C 0.82739 0.69690 0.89933
 C1736 C 0.83588 0.68844 0.88411
 C1737 C 0.82831 0.67224 0.87627
 C1738 C 0.81218 0.66460 0.88417
 C1739 C 0.80215 0.69838 0.92220
 C1740 C 0.79438 0.70611 0.93480
 C1741 C 0.78510 0.71531 0.94935
 C1742 C 0.77703 0.72330 0.96160
 H1743 H 0.79120 0.66711 0.90516
 H1744 H 0.83332 0.70947 0.90506
 H1745 H 0.84828 0.69470 0.87842
 H1746 H 0.80597 0.65215 0.87852
 C1747 C 0.80364 0.17301 0.39907
 C1748 C 0.81117 0.18920 0.40665
 C1749 C 0.82734 0.19679 0.39908
 C1750 C 0.83587 0.18833 0.38388
 C1751 C 0.82830 0.17213 0.37602
 C1752 C 0.81214 0.16451 0.38387
 C1753 C 0.80205 0.19829 0.42188
 C1754 C 0.79426 0.20603 0.43447
 C1755 C 0.78496 0.21525 0.44900
 C1756 C 0.77689 0.22326 0.46123
 H1757 H 0.79111 0.16703 0.40481
 H1758 H 0.83327 0.20935 0.40483
 H1759 H 0.84829 0.19457 0.37822
 H1760 H 0.80593 0.15207 0.37820
 C1761 C 0.67311 0.30325 0.39888
 C1762 C 0.68929 0.31081 0.40646
 C1763 C 0.69686 0.32697 0.39886
 C1764 C 0.68840 0.33546 0.38364
 C1765 C 0.67223 0.32786 0.37577
 C1766 C 0.66462 0.31170 0.38366
 C1767 C 0.69837 0.30174 0.42173
 C1768 C 0.70612 0.29400 0.43434
 C1769 C 0.71534 0.28476 0.44890
 C1770 C 0.72336 0.27673 0.46115
 H1771 H 0.66715 0.29072 0.40464
 H1772 H 0.70940 0.33293 0.40461
 H1773 H 0.69464 0.34787 0.37796
 H1774 H 0.65219 0.30546 0.37799
 C1775 C 0.67311 0.80347 0.89952
 C1776 C 0.68932 0.81099 0.90708
 C1777 C 0.69690 0.82716 0.89951
 C1778 C 0.68841 0.83571 0.88434
 C1779 C 0.67220 0.82816 0.87649
 C1780 C 0.66459 0.81198 0.88435
 C1781 C 0.69842 0.80186 0.92230
 C1782 C 0.70617 0.79407 0.93488
 C1783 C 0.71540 0.78477 0.94940
 C1784 C 0.72342 0.77670 0.96163
 H1785 H 0.66714 0.79094 0.90526
 H1786 H 0.70946 0.83309 0.90524
 H1787 H 0.69466 0.84813 0.87867
 H1788 H 0.65214 0.80579 0.87869
 C1789 C 0.17305 0.30311 0.89953
 C1790 C 0.18922 0.31068 0.90713
 C1791 C 0.19677 0.32687 0.89957
 C1792 C 0.18830 0.33539 0.88437
 C1793 C 0.17213 0.32779 0.87649
 C1794 C 0.16455 0.31159 0.88433
 C1795 C 0.19831 0.30158 0.92237
 C1796 C 0.20607 0.29382 0.93496
 C1797 C 0.21532 0.28457 0.94950
 C1798 C 0.22335 0.27654 0.96175
 H1799 H 0.16710 0.29056 0.90525
 H1800 H 0.20930 0.33284 0.90533
 H1801 H 0.19452 0.34783 0.87872
 H1802 H 0.15213 0.30536 0.87864
 C1803 C 0.17259 0.80360 0.39907
 C1804 C 0.18876 0.81117 0.40666
 C1805 C 0.19632 0.82735 0.39909
 C1806 C 0.18785 0.83585 0.38387
 C1807 C 0.17168 0.82824 0.37600
 C1808 C 0.16409 0.81206 0.38386
 C1809 C 0.19785 0.80208 0.42191
 C1810 C 0.20561 0.79432 0.43450
 C1811 C 0.21486 0.78507 0.44905
 C1812 C 0.22289 0.77703 0.46128
 H1813 H 0.16664 0.79106 0.40481
 H1814 H 0.20885 0.83332 0.40484
 H1815 H 0.19408 0.84828 0.37821
 H1816 H 0.15167 0.80582 0.37818
 C1817 C 0.67299 0.69695 0.60105
 C1818 C 0.68915 0.68938 0.59345
 C1819 C 0.69671 0.67320 0.60103
 C1820 C 0.68825 0.66471 0.61625
 C1821 C 0.67210 0.67231 0.62413
 C1822 C 0.66450 0.68849 0.61627
 C1823 C 0.69823 0.69846 0.57819
 C1824 C 0.70598 0.70621 0.56559
 C1825 C 0.71524 0.71543 0.55103
 C1826 C 0.72328 0.72343 0.53878
 H1827 H 0.66704 0.70949 0.59531
 H1828 H 0.70923 0.66724 0.59527
 H1829 H 0.69448 0.65228 0.62191
 H1830 H 0.65209 0.69473 0.62195
 C1831 C 0.69672 0.17287 0.10052
 C1832 C 0.68915 0.18903 0.09293
 C1833 C 0.67295 0.19657 0.10048
 C1834 C 0.66444 0.18809 0.11568
 C1835 C 0.67204 0.17193 0.12356
 C1836 C 0.68824 0.16436 0.11572
 C1837 C 0.69825 0.19814 0.07769
 C1838 C 0.70601 0.20590 0.06511
 C1839 C 0.71525 0.21517 0.05057
 C1840 C 0.72327 0.22322 0.03834
 H1841 H 0.70927 0.16693 0.09480
 H1842 H 0.66699 0.20910 0.09472
 H1843 H 0.65200 0.19431 0.12133
 H1844 H 0.69448 0.15195 0.12140
 C1845 C 0.19651 0.67306 0.10052
 C1846 C 0.18899 0.68926 0.09296
 C1847 C 0.17282 0.69683 0.10053
 C1848 C 0.16428 0.68835 0.11571
 C1849 C 0.17183 0.67215 0.12356
 C1850 C 0.18801 0.66454 0.11570
 C1851 C 0.19812 0.69836 0.07774
 C1852 C 0.20592 0.70611 0.06517
 C1853 C 0.21521 0.71535 0.05065
 C1854 C 0.22328 0.72337 0.03842
 H1855 H 0.20905 0.66709 0.09479
 H1856 H 0.16690 0.70939 0.09480
 H1857 H 0.15186 0.69459 0.12137
 H1858 H 0.19420 0.65209 0.12136
 C1859 C 0.17288 0.19614 0.60085
 C1860 C 0.18906 0.18859 0.59327
 C1861 C 0.19663 0.17242 0.60085
 C1862 C 0.18817 0.16391 0.61607
 C1863 C 0.17199 0.17150 0.62393
 C1864 C 0.16439 0.18767 0.61606
 C1865 C 0.19814 0.19769 0.57803
 C1866 C 0.20588 0.20546 0.56544
 C1867 C 0.21511 0.21474 0.55090
 C1868 C 0.22313 0.22280 0.53866
 H1869 H 0.16692 0.20867 0.59511
 H1870 H 0.20917 0.16647 0.59511
 H1871 H 0.19440 0.15150 0.62174
 H1872 H 0.15196 0.19389 0.62173
   
