data_POSCAR
  _audit_creation_date              2014-09-24
  _audit_creation_method            'ToBaCCo'
  _symmetry_space_group_name_H-M    'P1'
  _symmetry_Int_Tables_number       1
  _symmetry_cell_setting            triclinic
  loop_
  _symmetry_equiv_pos_as_xyz
 x,y,z
_cell_length_a 63.8292
_cell_length_b 64.2562
_cell_length_c 64.4295
_cell_angle_alpha 88.497700
_cell_angle_beta 89.910400
_cell_angle_gamma 89.369600
loop_
  _atom_site_label
  _atom_site_type_symbol
  _atom_site_fract_x
  _atom_site_fract_y
  _atom_site_fract_z
C1 C 0.73352 0.66172 0.98961
 H2 H 0.74809 0.66892 0.99374
 C3 C 0.71698 0.67408 0.98195
 H4 H 0.71901 0.69075 0.98014
 C5 C 0.71304 0.63138 0.98696
 H6 H 0.71171 0.61467 0.98891
 C7 C 0.69612 0.64313 0.97925
 H8 H 0.68206 0.63510 0.97492
 N9 N 0.73135 0.64074 0.99173
 C10 C 0.77930 0.63966 1.03300
 H11 H 0.76980 0.63040 1.04348
 C12 C 0.79550 0.65139 1.04098
 H13 H 0.79820 0.65111 1.05758
 C14 C 0.78758 0.65116 0.99874
 H15 H 0.78431 0.65096 0.98228
 C16 C 0.80415 0.66300 1.00607
 H17 H 0.81332 0.67214 0.99512
 Zn18 Zn 0.75353 0.62350 1.00185
 N19 N 0.77550 0.63987 1.01223
 C20 C 0.78324 0.59742 0.98300
 N21 N 0.76444 0.60720 0.98016
 C22 C 0.75426 0.60661 0.96167
 C23 C 0.76289 0.59582 0.94514
 C24 C 0.79266 0.58674 0.96677
 C25 C 0.73045 0.61609 1.03781
 C26 C 0.72233 0.60495 1.05479
 C27 C 0.73932 0.57396 1.04216
 C28 C 0.74706 0.58576 1.02534
 N29 N 0.74268 0.60647 1.02362
 H30 H 0.79118 0.59838 0.99777
 H31 H 0.73959 0.61486 0.95947
 H32 H 0.75448 0.59635 0.93060
 H33 H 0.80784 0.57940 0.96928
 H34 H 0.72730 0.63263 1.03609
 H35 H 0.71324 0.61355 1.06587
 H36 H 0.74320 0.55751 1.04334
 H37 H 0.75677 0.57840 1.01383
 C38 C 0.80826 0.66311 1.02750
 C39 C 0.69796 0.66484 0.97673
 C40 C 0.72673 0.58346 1.05726
 C41 C 0.78252 0.58577 0.94746
 C42 C 0.72349 0.36555 0.52853
 H43 H 0.73124 0.37515 0.53960
 C44 C 0.70542 0.35489 0.53448
 H45 H 0.69961 0.35663 0.55011
 C46 C 0.72079 0.35322 0.49432
 H47 H 0.72667 0.35304 0.47857
 C48 C 0.70265 0.34229 0.49961
 H49 H 0.69472 0.33355 0.48788
 N50 N 0.73086 0.36447 0.50876
 C51 C 0.79489 0.37337 0.48640
 H52 H 0.79602 0.39006 0.48781
 C53 C 0.81211 0.36190 0.47946
 H54 H 0.82641 0.37010 0.47594
 C55 C 0.77481 0.34273 0.49024
 H56 H 0.76033 0.33528 0.49466
 C57 C 0.79164 0.33065 0.48334
 H58 H 0.78986 0.31396 0.48235
 Zn59 Zn 0.75402 0.38075 0.50005
 N60 N 0.77660 0.36374 0.49127
 C61 C 0.77250 0.38636 0.53872
 N62 N 0.76368 0.39676 0.52225
 C63 C 0.76232 0.41789 0.52157
 C64 C 0.76955 0.42936 0.53818
 C65 C 0.77993 0.39717 0.55567
 C66 C 0.75425 0.39833 0.45901
 C67 C 0.74587 0.40988 0.44227
 C68 C 0.71754 0.42087 0.46451
 C69 C 0.72658 0.40926 0.48083
 N70 N 0.74453 0.39819 0.47781
 H71 H 0.77370 0.36955 0.53866
 H72 H 0.75564 0.42591 0.50817
 H73 H 0.76818 0.44619 0.53730
 H74 H 0.78693 0.38814 0.56824
 H75 H 0.76822 0.38904 0.45675
 H76 H 0.75379 0.40903 0.42749
 H77 H 0.70298 0.42921 0.46723
 H78 H 0.71899 0.40862 0.49586
 C79 C 0.81051 0.34021 0.47752
 C80 C 0.69478 0.34297 0.51992
 C81 C 0.72702 0.42121 0.44480
 C82 C 0.77836 0.41910 0.55570
 C83 C 0.22055 -0.13368 0.03073
 H84 H 0.22830 -0.12392 0.04166
 C85 C 0.20221 -0.14387 0.03668
 H86 H 0.19622 -0.14161 0.05217
 C87 C 0.21808 -0.14682 -0.00318
 H88 H 0.22417 -0.14748 -0.01883
 C89 C 0.19970 -0.15731 0.00213
 H90 H 0.19180 -0.16623 -0.00949
 N91 N 0.22817 -0.13540 0.01112
 C92 C 0.29198 -0.12807 -0.01232
 H93 H 0.29330 -0.11134 -0.01154
 C94 C 0.30869 -0.13988 -0.01984
 H95 H 0.32257 -0.13185 -0.02514
 C96 C 0.27164 -0.15838 -0.00713
 H97 H 0.25721 -0.16554 -0.00208
 C98 C 0.28799 -0.17081 -0.01449
 H99 H 0.28592 -0.18749 -0.01518
 Zn100 Zn 0.25171 -0.11979 0.00231
 N101 N 0.27378 -0.13737 -0.00654
 C102 C 0.26993 -0.11461 0.04113
 N103 N 0.26193 -0.10399 0.02439
 C104 C 0.26179 -0.08284 0.02335
 C105 C 0.26943 -0.07153 0.03988
 C106 C 0.27764 -0.10397 0.05806
 C107 C 0.25180 -0.10272 -0.03890
 C108 C 0.24364 -0.09093 -0.05558
 C109 C 0.21636 -0.07838 -0.03291
 C110 C 0.22519 -0.09025 -0.01665
 N111 N 0.24252 -0.10219 -0.01992
 H112 H 0.27022 -0.13146 0.04133
 H113 H 0.25579 -0.07469 0.00971
 H114 H 0.26906 -0.05468 0.03873
 H115 H 0.28402 -0.11314 0.07087
 H116 H 0.26520 -0.11274 -0.04138
 H117 H 0.25117 -0.09235 -0.07050
 H118 H 0.20229 -0.06932 -0.03000
 H119 H 0.21791 -0.09039 -0.00147
 C120 C 0.30679 -0.16160 -0.02103
 C121 C 0.19157 -0.15598 0.02229
 C122 C 0.22545 -0.07866 -0.05279
 C123 C 0.27730 -0.08200 0.05772
 C124 C 0.24086 0.15609 0.47497
 H125 H 0.25697 0.15634 0.46971
 C126 C 0.22564 0.16812 0.46446
 H127 H 0.23016 0.17779 0.45121
 C128 C 0.21516 0.14237 0.49789
 H129 H 0.21086 0.13171 0.51035
 C130 C 0.19950 0.15409 0.48788
 H131 H 0.18349 0.15203 0.49294
 N132 N 0.23542 0.14362 0.49144
 C133 C 0.29107 0.12841 0.52813
 H134 H 0.28822 0.11192 0.53018
 C135 C 0.30805 0.13732 0.53794
 H136 H 0.31823 0.12758 0.54760
 C137 C 0.28100 0.16111 0.51320
 H138 H 0.27020 0.17033 0.50379
 C139 C 0.29800 0.17069 0.52265
 H140 H 0.29996 0.18730 0.52052
 Zn141 Zn 0.25573 0.12556 0.50401
 N142 N 0.27804 0.14027 0.51592
 C143 C 0.28722 0.10808 0.47896
 N144 N 0.26635 0.10812 0.48315
 C145 C 0.25273 0.09754 0.47124
 C146 C 0.25992 0.08682 0.45393
 C147 C 0.29509 0.09750 0.46199
 C148 C 0.23641 0.12167 0.54215
 C149 C 0.22653 0.11219 0.55911
 C150 C 0.23157 0.07887 0.54315
 C151 C 0.24116 0.08913 0.52625
 N152 N 0.24315 0.11018 0.52601
 H153 H 0.29780 0.11686 0.48830
 H154 H 0.23616 0.09809 0.47474
 H155 H 0.24849 0.07919 0.44452
 H156 H 0.31175 0.09816 0.45877
 H157 H 0.23845 0.13837 0.54162
 H158 H 0.22099 0.12183 0.57159
 H159 H 0.22985 0.06218 0.54263
 H160 H 0.24689 0.08029 0.51332
 C161 C 0.31183 0.15864 0.53513
 C162 C 0.20465 0.16728 0.47094
 C163 C 0.22393 0.09051 0.55989
 C164 C 0.28143 0.08704 0.44885
 C165 C 0.15501 0.46821 0.23397
 H166 H 0.15530 0.46107 0.24937
 C167 C 0.16655 0.45938 0.21796
 H168 H 0.17579 0.44542 0.22116
 C169 C 0.14223 0.49483 0.21106
 H170 H 0.13263 0.50860 0.20842
 C171 C 0.15351 0.48650 0.19457
 H172 H 0.15268 0.49440 0.17959
 N173 N 0.14317 0.48562 0.23028
 C174 C 0.13496 0.51755 0.28854
 H175 H 0.11808 0.51928 0.28871
 C176 C 0.14688 0.52576 0.30444
 H177 H 0.13888 0.53344 0.31697
 C178 C 0.16557 0.50462 0.27225
 H179 H 0.17282 0.49646 0.25963
 C180 C 0.17810 0.51254 0.28789
 H181 H 0.19494 0.51030 0.28722
 Zn182 Zn 0.12688 0.49592 0.25236
 N183 N 0.14438 0.50701 0.27299
 C184 C 0.11260 0.46858 0.28436
 N185 N 0.11140 0.47331 0.26372
 C186 C 0.10056 0.46110 0.25067
 C187 C 0.09051 0.44320 0.25824
 C188 C 0.10273 0.45098 0.29261
 C189 C 0.11766 0.53639 0.23842
 C190 C 0.10543 0.55318 0.23117
 C191 C 0.07526 0.53079 0.23198
 C192 C 0.08804 0.51452 0.23956
 N193 N 0.10887 0.51755 0.24244
 H194 H 0.12161 0.47816 0.29447
 H195 H 0.10019 0.46498 0.23423
 H196 H 0.08250 0.43373 0.24724
 H197 H 0.10419 0.44747 0.30910
 H198 H 0.13429 0.53832 0.24078
 H199 H 0.11324 0.56770 0.22779
 H200 H 0.05875 0.52794 0.22956
 H201 H 0.08131 0.49946 0.24296
 C202 C 0.16880 0.52333 0.30421
 C203 C 0.16569 0.46834 0.19789
 C204 C 0.08379 0.55055 0.22781
 C205 C 0.09168 0.43778 0.27957
 C206 C -0.14613 0.02096 0.21945
 H207 H -0.14905 0.02895 0.23376
 C208 C -0.15653 0.02741 0.20124
 H209 H -0.16726 0.04044 0.20222
 C210 C -0.12772 -0.00516 0.20145
 H211 H -0.11615 -0.01754 0.20140
 C212 C -0.13768 0.00071 0.18294
 H213 H -0.13368 -0.00758 0.16901
 N214 N -0.13214 0.00486 0.21927
 C215 C -0.12640 -0.01931 0.28295
 H216 H -0.10948 -0.01949 0.28406
 C217 C -0.13843 -0.02670 0.29958
 H218 H -0.13050 -0.03287 0.31327
 C219 C -0.15693 -0.01196 0.26308
 H220 H -0.16403 -0.00647 0.24872
 C221 C -0.16960 -0.01929 0.27937
 H222 H -0.18646 -0.01925 0.27747
 Zn223 Zn -0.11737 -0.00265 0.24393
 N224 N -0.13574 -0.01187 0.26527
 C225 C -0.10774 0.02944 0.27125
 N226 N -0.10269 0.02109 0.25271
 C227 C -0.08827 0.03019 0.23998
 C228 C -0.07800 0.04820 0.24596
 C229 C -0.09797 0.04742 0.27781
 C230 C -0.10877 -0.04349 0.23466
 C231 C -0.09714 -0.06128 0.23018
 C232 C -0.06551 -0.04161 0.23472
 C233 C -0.07785 -0.02414 0.23917
 N234 N -0.09910 -0.02534 0.23874
 H235 H -0.11967 0.02240 0.28093
 H236 H -0.08484 0.02352 0.22509
 H237 H -0.06654 0.05511 0.23552
 H238 H -0.10269 0.05321 0.29267
 H239 H -0.12571 -0.04400 0.23457
 H240 H -0.10579 -0.07500 0.22647
 H241 H -0.04861 -0.04023 0.23489
 H242 H -0.07043 -0.00966 0.24282
 C243 C -0.16038 -0.02651 0.29801
 C244 C -0.15235 0.01724 0.18245
 C245 C -0.07504 -0.06059 0.23005
 C246 C -0.08278 0.05723 0.26510
 C247 C 0.35218 0.52798 0.73237
 H248 H 0.35321 0.53550 0.74716
 C249 C 0.34034 0.53714 0.71629
 H250 H 0.33221 0.55173 0.71889
 C251 C 0.36188 0.50005 0.71098
 H252 H 0.37052 0.48573 0.70884
 C253 C 0.35012 0.50858 0.69453
 H254 H 0.34981 0.50023 0.68023
 N255 N 0.36262 0.50973 0.72948
 C256 C 0.37201 0.47932 0.78996
 H257 H 0.38879 0.47681 0.78938
 C258 C 0.36053 0.47163 0.80687
 H259 H 0.36872 0.46295 0.81902
 C260 C 0.34110 0.49268 0.77396
 H261 H 0.33357 0.50059 0.76094
 C262 C 0.32899 0.48523 0.79059
 H263 H 0.31217 0.48762 0.79030
 Zn264 Zn 0.37929 0.49862 0.75150
 N265 N 0.36224 0.48976 0.77404
 C266 C 0.39564 0.52692 0.77971
 N267 N 0.39741 0.51995 0.76005
 C268 C 0.41030 0.52944 0.74599
 C269 C 0.42171 0.54696 0.75144
 C270 C 0.40664 0.54435 0.78579
 C271 C 0.38178 0.45786 0.73967
 C272 C 0.39051 0.43936 0.73275
 C273 C 0.42449 0.45559 0.73223
 C274 C 0.41502 0.47387 0.73933
 N275 N 0.39397 0.47472 0.74256
 H276 H 0.38517 0.51939 0.79063
 H277 H 0.41121 0.52381 0.73034
 H278 H 0.43152 0.55453 0.73984
 H279 H 0.40478 0.54903 0.80166
 H280 H 0.36510 0.45892 0.74254
 H281 H 0.38029 0.42628 0.73034
 H282 H 0.44117 0.45563 0.72943
 H283 H 0.42447 0.48739 0.74201
 C284 C 0.33870 0.47472 0.80741
 C285 C 0.33926 0.52755 0.69699
 C286 C 0.41210 0.43796 0.72867
 C287 C 0.41952 0.55511 0.77140
 C288 C 0.65863 0.96935 0.73372
 H289 H 0.65973 0.96273 0.74930
 C290 C 0.67030 0.96068 0.71768
 H291 H 0.68051 0.94746 0.72108
 C292 C 0.64328 0.99402 0.71024
 H293 H 0.63217 1.00652 0.70722
 C294 C 0.65452 0.98575 0.69372
 H295 H 0.65171 0.99224 0.67834
 N296 N 0.64557 0.98584 0.72980
 C297 C 0.63346 1.01029 0.79121
 H298 H 0.61653 1.01086 0.79034
 C299 C 0.64352 1.01643 0.80919
 H300 H 0.63359 1.02151 0.82166
 C301 C 0.66593 1.00267 0.77521
 H302 H 0.67457 0.99753 0.76183
 C303 C 0.67674 1.00880 0.79288
 H304 H 0.69371 1.00810 0.79276
 Zn305 Zn 0.62853 0.99564 0.75166
 N306 N 0.64465 1.00336 0.77480
 C307 C 0.61378 0.96334 0.77803
 N308 N 0.61050 0.97356 0.75956
 C309 C 0.59586 0.96698 0.74598
 C310 C 0.58362 0.94961 0.75093
 C311 C 0.60217 0.94576 0.78347
 C312 C 0.62576 1.03604 0.73626
 C313 C 0.61666 1.05447 0.72860
 C314 C 0.58250 1.03987 0.73526
 C315 C 0.59235 1.02153 0.74261
 N316 N 0.61361 1.01986 0.74262
 H317 H 0.62583 0.96845 0.78841
 H318 H 0.59389 0.97505 0.73116
 H319 H 0.57209 0.94463 0.73983
 H320 H 0.60515 0.93842 0.79846
 H321 H 0.64264 1.03440 0.73676
 H322 H 0.62678 1.06693 0.72319
 H323 H 0.56559 1.04042 0.73500
 H324 H 0.58297 1.00865 0.74819
 C325 C 0.66565 1.01585 0.81035
 C326 C 0.66834 0.96884 0.69734
 C327 C 0.59475 1.05665 0.72785
 C328 C 0.58697 0.93840 0.76969
 C329 C 0.02854 0.23123 -0.15139
 H330 H 0.03559 0.24643 -0.15057
 C331 C 0.03825 0.21566 -0.16283
 H332 H 0.05280 0.21902 -0.17086
 C333 C 0.00122 0.20835 -0.14159
 H334 H -0.01307 0.20542 -0.13309
 C335 C 0.01034 0.19237 -0.15287
 H336 H 0.00238 0.17765 -0.15313
 N337 N 0.01028 0.22739 -0.14118
 C338 C -0.02134 0.28703 -0.13338
 H339 H -0.02443 0.28594 -0.11687
 C340 C -0.02867 0.30419 -0.14501
 H341 H -0.03770 0.31602 -0.13725
 C342 C -0.00679 0.27208 -0.16346
 H343 H 0.00144 0.25937 -0.17064
 C344 C -0.01387 0.28899 -0.17572
 H345 H -0.01086 0.28924 -0.19227
 Zn346 Zn -0.00177 0.24884 -0.12530
 N347 N -0.01039 0.27156 -0.14264
 C348 C 0.02531 0.27763 -0.10726
 N349 N 0.01887 0.25755 -0.10641
 C350 C 0.02843 0.24316 -0.09370
 C351 C 0.04550 0.24872 -0.08152
 C352 C 0.04218 0.28390 -0.09531
 C353 C -0.04235 0.23478 -0.12442
 C354 C -0.06115 0.22743 -0.11629
 C355 C -0.04660 0.22958 -0.08181
 C356 C -0.02792 0.23686 -0.09070
 N357 N -0.02612 0.23906 -0.11168
 H358 H 0.01782 0.28879 -0.11771
 H359 H 0.02321 0.22720 -0.09354
 H360 H 0.05315 0.23685 -0.07187
 H361 H 0.04657 0.30002 -0.09682
 H362 H -0.04054 0.23693 -0.14104
 H363 H -0.07371 0.22391 -0.12690
 H364 H -0.04733 0.22766 -0.06512
 H365 H -0.01488 0.24065 -0.08086
 C366 C -0.02473 0.30544 -0.16648
 C367 C 0.02926 0.19586 -0.16360
 C368 C -0.06358 0.22464 -0.09473
 C369 C 0.05298 0.26926 -0.08246
 C370 C 0.47040 0.23675 0.15239
 H371 H 0.46456 0.25262 0.15186
 C372 C 0.46007 0.22160 0.16439
 H373 H 0.44634 0.22597 0.17324
 C374 C 0.49482 0.21160 0.14074
 H375 H 0.50796 0.20759 0.13100
 C376 C 0.48497 0.19597 0.15248
 H377 H 0.49080 0.18019 0.15134
 N378 N 0.48747 0.23154 0.14092
 C379 C 0.52283 0.28755 0.12683
 H380 H 0.52485 0.28527 0.11036
 C381 C 0.53259 0.30411 0.13621
 H382 H 0.54213 0.31459 0.12685
 C383 C 0.50823 0.27632 0.15901
 H384 H 0.49905 0.26519 0.16787
 C385 C 0.51763 0.29287 0.16906
 H386 H 0.51565 0.29419 0.18565
 Zn387 Zn 0.49948 0.25208 0.12314
 N388 N 0.51084 0.27413 0.13821
 C389 C 0.47351 0.28329 0.10505
 N390 N 0.47806 0.26257 0.10533
 C391 C 0.46607 0.24904 0.09480
 C392 C 0.44825 0.25613 0.08398
 C393 C 0.45606 0.29106 0.09433
 C394 C 0.53911 0.23510 0.11991
 C395 C 0.55750 0.22830 0.11052
 C396 C 0.54071 0.23279 0.07707
 C397 C 0.52254 0.23958 0.08721
 N398 N 0.52214 0.24061 0.10825
 H399 H 0.48292 0.29381 0.11378
 H400 H 0.46987 0.23259 0.09552
 H401 H 0.43876 0.24478 0.07641
 H402 H 0.45256 0.30759 0.09483
 H403 H 0.53843 0.23641 0.13661
 H404 H 0.57085 0.22422 0.12024
 H405 H 0.54054 0.23258 0.06032
 H406 H 0.50897 0.24447 0.07825
 C407 C 0.52995 0.30705 0.15751
 C408 C 0.46731 0.20090 0.16455
 C409 C 0.55867 0.22716 0.08880
 C410 C 0.44278 0.27747 0.08401
 C411 C 0.96950 0.74023 0.65349
 H412 H 0.96327 0.75595 0.65349
 C413 C 0.96045 0.72474 0.66610
 H414 H 0.94729 0.72870 0.67594
 C415 C 0.99361 0.71578 0.63996
 H416 H 1.00612 0.71217 0.62930
 C417 C 0.98503 0.69984 0.65226
 H418 H 0.99117 0.68425 0.65057
 N419 N 0.98576 0.73550 0.64073
 C420 C 1.01837 0.79255 0.62371
 H421 H 1.01861 0.79073 0.60707
 C422 C 1.02848 0.80930 0.63241
 H423 H 1.03649 0.82039 0.62232
 C424 C 1.00791 0.77998 0.65701
 H425 H 1.00019 0.76827 0.66652
 C426 C 1.01785 0.79659 0.66641
 H427 H 1.01773 0.79731 0.68315
 Zn428 Zn 0.99591 0.75617 0.62197
 N429 N 1.00821 0.77841 0.63600
 C430 C 0.96776 0.78679 0.60648
 N431 N 0.97297 0.76625 0.60591
 C432 C 0.96092 0.75264 0.59554
 C433 C 0.94268 0.75954 0.58532
 C434 C 0.94980 0.79435 0.59650
 C435 C 1.03567 0.74073 0.61533
 C436 C 1.05278 0.73257 0.60472
 C437 C 1.03166 0.73238 0.57363
 C438 C 1.01498 0.74085 0.58485
 N439 N 1.01727 0.74468 0.60536
 H440 H 0.97715 0.79733 0.61520
 H441 H 0.96517 0.73629 0.59571
 H442 H 0.93329 0.74815 0.57770
 H443 H 0.94588 0.81075 0.59754
 H444 H 1.03699 0.74388 0.63169
 H445 H 1.06684 0.72919 0.61353
 H446 H 1.02949 0.72927 0.55733
 H447 H 1.00026 0.74428 0.57718
 C448 C 1.02821 0.81159 0.65397
 C449 C 0.96814 0.70421 0.66557
 C450 C 1.05102 0.72831 0.58345
 C451 C 0.93675 0.78073 0.58594
 C452 C 0.52499 0.73206 0.34474
 H453 H 0.53189 0.74737 0.34407
 C454 C 0.53351 0.71608 0.33298
 H455 H 0.54696 0.71924 0.32316
 C456 C 0.49946 0.70924 0.35883
 H457 H 0.48641 0.70649 0.36918
 C458 C 0.50744 0.69284 0.34732
 H459 H 0.49980 0.67795 0.34870
 N460 N 0.50826 0.72840 0.35734
 C461 C 0.47866 0.78840 0.36873
 H462 H 0.47787 0.78722 0.38550
 C463 C 0.47043 0.80593 0.35832
 H464 H 0.46319 0.81764 0.36773
 C465 C 0.48864 0.77347 0.33697
 H466 H 0.49558 0.76069 0.32873
 C467 C 0.48054 0.79071 0.32584
 H468 H 0.48154 0.79090 0.30904
 Zn469 Zn 0.49857 0.75015 0.37423
 N470 N 0.48784 0.77281 0.35805
 C471 C 0.52802 0.77901 0.38831
 N472 N 0.52159 0.75897 0.39015
 C473 C 0.53226 0.74476 0.40216
 C474 C 0.55016 0.75058 0.41296
 C475 C 0.54573 0.78554 0.39885
 C476 C 0.45840 0.73581 0.38152
 C477 C 0.44100 0.72900 0.39278
 C478 C 0.46076 0.73295 0.42436
 C479 C 0.47783 0.73964 0.41241
 N480 N 0.47639 0.74073 0.39138
 H481 H 0.51968 0.79000 0.37833
 H482 H 0.52701 0.72881 0.40310
 H483 H 0.55848 0.73892 0.42230
 H484 H 0.54994 0.80166 0.39678
 H485 H 0.45764 0.73712 0.36476
 H486 H 0.42727 0.72511 0.38403
 H487 H 0.46232 0.73212 0.44111
 H488 H 0.49215 0.74403 0.41998
 C489 C 0.47147 0.80751 0.33642
 C490 C 0.52492 0.69608 0.33437
 C491 C 0.44194 0.72743 0.41466
 C492 C 0.55736 0.77119 0.41130
 C493 C 0.39547 -0.01506 0.28163
 H494 H 0.39401 -0.00035 0.28933
 C495 C 0.40743 -0.03122 0.29060
 H496 H 0.41522 -0.02884 0.30526
 C497 C 0.38671 -0.03613 0.25334
 H498 H 0.37857 -0.03795 0.23882
 C499 C 0.39849 -0.05272 0.26177
 H500 H 0.39951 -0.06696 0.25326
 N501 N 0.38535 -0.01780 0.26338
 C502 C 0.37520 0.04278 0.23281
 H503 H 0.35845 0.04245 0.23034
 C504 C 0.38678 0.05972 0.22537
 H505 H 0.37871 0.07217 0.21695
 C506 C 0.40597 0.02623 0.24592
 H507 H 0.41344 0.01305 0.25371
 C508 C 0.41815 0.04283 0.23869
 H509 H 0.43494 0.04231 0.24111
 Zn510 Zn 0.36816 0.00406 0.25273
 N511 N 0.38485 0.02661 0.24312
 C512 C 0.34875 0.03310 0.27928
 N513 N 0.35031 0.01266 0.27456
 C514 C 0.34056 -0.00219 0.28635
 C515 C 0.32874 0.00331 0.30368
 C516 C 0.33707 0.03933 0.29641
 C517 C 0.36146 -0.00422 0.21092
 C518 C 0.35142 -0.01226 0.19371
 C519 C 0.32314 -0.02337 0.21621
 C520 C 0.33369 -0.01497 0.23297
 N521 N 0.35254 -0.00570 0.23006
 H522 H 0.35685 0.04470 0.27002
 H523 H 0.34244 -0.01842 0.28263
 H524 H 0.32141 -0.00888 0.31298
 H525 H 0.33633 0.05578 0.29929
 H526 H 0.37667 0.00286 0.20907
 H527 H 0.35943 -0.01113 0.17896
 H528 H 0.30826 -0.03092 0.21898
 H529 H 0.32693 -0.01618 0.24831
 C530 C 0.40857 0.05997 0.22851
 C531 C 0.40880 -0.05046 0.28085
 C532 C 0.33193 -0.02217 0.19619
 C533 C 0.32709 0.02429 0.30923
 C534 C 0.09608 1.01829 0.77597
 H535 H 0.09579 1.00291 0.78321
 C536 C 0.08434 1.03446 0.78439
 H537 H 0.07491 1.03140 0.79810
 C538 C 0.10916 1.04102 0.74958
 H539 H 0.11912 1.04359 0.73621
 C540 C 0.09769 1.05767 0.75752
 H541 H 0.09857 1.07271 0.74966
 N542 N 0.10813 1.02179 0.75885
 C543 C 0.11854 0.95960 0.73558
 H544 H 0.13549 0.95959 0.73524
 C545 C 0.10772 0.94199 0.72971
 H546 H 0.11673 0.92846 0.72534
 C547 C 0.08669 0.97731 0.74272
 H548 H 0.07859 0.99119 0.74764
 C549 C 0.07519 0.96006 0.73677
 H550 H 0.05824 0.96076 0.73728
 Zn551 Zn 0.12476 0.99931 0.74968
 N552 N 0.10799 0.97669 0.74213
 C553 C 0.13899 0.97254 0.78212
 N554 N 0.14237 0.99108 0.77211
 C555 C 0.15701 1.00447 0.77895
 C556 C 0.16922 0.99922 0.79635
 C557 C 0.15059 0.96678 0.79970
 C558 C 0.12899 1.01296 0.70872
 C559 C 0.13897 1.01848 0.69014
 C560 C 0.17226 1.01107 0.70669
 C561 C 0.16158 1.00578 0.72501
 N562 N 0.14032 1.00711 0.72576
 H563 H 0.12693 0.96231 0.77681
 H564 H 0.15907 1.01934 0.77099
 H565 H 0.18079 1.01015 0.80153
 H566 H 0.14756 0.95172 0.80683
 H567 H 0.11205 1.01327 0.70960
 H568 H 0.12918 1.02273 0.67703
 H569 H 0.18921 1.01000 0.70649
 H570 H 0.17030 1.00040 0.73849
 C571 C 0.08568 0.94214 0.73002
 C572 C 0.08528 1.05452 0.77535
 C573 C 0.16104 1.01782 0.68893
 C574 C 0.16585 0.98033 0.80730
 C575 C 0.59366 0.51681 0.27886
 H576 H 0.59447 0.50159 0.28642
 C577 C 0.58207 0.53281 0.28782
 H578 H 0.57387 0.52978 0.30230
 C579 C 0.60380 0.53938 0.25105
 H580 H 0.61256 0.54202 0.23689
 C581 C 0.59237 0.55579 0.25944
 H582 H 0.59205 0.57061 0.25111
 N583 N 0.60420 0.52033 0.26077
 C584 C 0.61477 0.45913 0.23513
 H585 H 0.63157 0.45995 0.23302
 C586 C 0.60414 0.44126 0.22972
 H587 H 0.61317 0.42835 0.22388
 C588 C 0.58318 0.47497 0.24636
 H589 H 0.57510 0.48821 0.25274
 C590 C 0.57185 0.45739 0.24102
 H591 H 0.55506 0.45719 0.24342
 Zn592 Zn 0.62086 0.49844 0.25029
 N593 N 0.60429 0.47542 0.24347
 C594 C 0.63808 0.47129 0.28084
 N595 N 0.64014 0.49033 0.27142
 C596 C 0.65445 0.50412 0.27820
 C597 C 0.66747 0.49887 0.29503
 C598 C 0.65052 0.46549 0.29782
 C599 C 0.62134 0.51201 0.20929
 C600 C 0.62938 0.51925 0.19037
 C601 C 0.66427 0.51599 0.20468
 C602 C 0.65547 0.50882 0.22343
 N603 N 0.63433 0.50736 0.22547
 H604 H 0.62634 0.46067 0.27560
 H605 H 0.65549 0.51937 0.27075
 H606 H 0.67864 0.51017 0.30025
 H607 H 0.64846 0.45006 0.30449
 H608 H 0.60459 0.51040 0.21125
 H609 H 0.61858 0.52321 0.17788
 H610 H 0.68109 0.51740 0.20387
 H611 H 0.66556 0.50459 0.23634
 C612 C 0.58229 0.44029 0.23244
 C613 C 0.58155 0.55268 0.27827
 C614 C 0.65110 0.52154 0.18779
 C615 C 0.66529 0.47952 0.30549
 C616 C 0.90135 0.48517 0.77775
 H617 H 0.90018 0.49991 0.78543
 C618 C 0.91373 0.46910 0.78628
 H619 H 0.92211 0.47155 0.80060
 C620 C 0.89158 0.46400 0.74985
 H621 H 0.88299 0.46217 0.73559
 C622 C 0.90373 0.44748 0.75788
 H623 H 0.90452 0.43321 0.74939
 N624 N 0.89052 0.48232 0.75992
 C625 C 0.87988 0.54377 0.73151
 H626 H 0.86297 0.54408 0.73047
 C627 C 0.89137 0.56083 0.72427
 H628 H 0.88305 0.57401 0.71735
 C629 C 0.91107 0.52561 0.74101
 H630 H 0.91871 0.51178 0.74737
 C631 C 0.92317 0.54232 0.73391
 H632 H 0.94009 0.54125 0.73497
 Zn633 Zn 0.87311 0.50428 0.74996
 N634 N 0.88980 0.52672 0.73995
 C635 C 0.85757 0.53318 0.77903
 N636 N 0.85657 0.51313 0.77283
 C637 C 0.84551 0.49874 0.78400
 C638 C 0.83453 0.50438 0.80180
 C639 C 0.84716 0.53943 0.79692
 C640 C 0.86155 0.50047 0.70798
 C641 C 0.85097 0.49239 0.69107
 C642 C 0.82966 0.47239 0.71508
 C643 C 0.84070 0.48083 0.73149
 N644 N 0.85636 0.49461 0.72775
 H645 H 0.86687 0.54437 0.77045
 H646 H 0.84582 0.48264 0.77962
 H647 H 0.82597 0.49255 0.81047
 H648 H 0.84819 0.55558 0.80100
 H649 H 0.87444 0.51093 0.70517
 H650 H 0.85610 0.49721 0.67574
 H651 H 0.81744 0.46125 0.71855
 H652 H 0.83699 0.47591 0.74716
 C653 C 0.91334 0.56034 0.72571
 C654 C 0.91477 0.44984 0.77654
 C655 C 0.83478 0.47792 0.69445
 C656 C 0.83557 0.52486 0.80881
 C657 C 0.27739 0.39694 -0.01633
 H658 H 0.28411 0.39547 -0.00094
 C659 C 0.28759 0.40863 -0.03180
 H660 H 0.30218 0.41620 -0.02821
 C661 C 0.25040 0.38855 -0.03977
 H662 H 0.23603 0.38052 -0.04292
 C663 C 0.26006 0.40006 -0.05569
 H664 H 0.25247 0.40113 -0.07067
 N665 N 0.25909 0.38728 -0.02050
 C666 C 0.22705 0.37824 0.03874
 H667 H 0.22386 0.36177 0.03804
 C668 C 0.21971 0.38960 0.05547
 H669 H 0.21062 0.38167 0.06737
 C670 C 0.24176 0.40856 0.02320
 H671 H 0.25001 0.41596 0.01042
 C672 C 0.23468 0.42054 0.03964
 H673 H 0.23774 0.43709 0.03947
 Zn674 Zn 0.24657 0.37093 0.00092
 N675 N 0.23807 0.38775 0.02318
 C676 C 0.27308 0.35049 0.03024
 N677 N 0.26678 0.35097 0.01011
 C678 C 0.27614 0.33867 -0.00411
 C679 C 0.29283 0.32550 0.00168
 C680 C 0.28957 0.33750 0.03676
 C681 C 0.20607 0.37146 -0.01403
 C682 C 0.18720 0.36383 -0.02128
 C683 C 0.20137 0.32889 -0.01760
 C684 C 0.22010 0.33728 -0.01043
 N685 N 0.22212 0.35824 -0.00901
 H686 H 0.26577 0.36066 0.04126
 H687 H 0.27102 0.33956 -0.02011
 H688 H 0.30031 0.31619 -0.01006
 H689 H 0.29398 0.33803 0.05287
 H690 H 0.20804 0.38805 -0.01246
 H691 H 0.17475 0.37480 -0.02535
 H692 H 0.20048 0.31220 -0.01884
 H693 H 0.23299 0.32705 -0.00605
 C694 C 0.22371 0.41104 0.05616
 C695 C 0.27907 0.41013 -0.05185
 C696 C 0.18452 0.34230 -0.02322
 C697 C 0.30013 0.32498 0.02229
 C698 C 0.77550 0.10540 1.02462
 H699 H 0.78657 0.11425 1.01541
 C700 C 0.78259 0.09398 1.04201
 H701 H 0.79898 0.09479 1.04602
 C702 C 0.74070 0.09450 1.03085
 H703 H 0.72435 0.09489 1.02664
 C704 C 0.74712 0.08283 1.04836
 H705 H 0.73557 0.07434 1.05743
 N706 N 0.75479 0.10590 1.01964
 C707 C 0.72633 0.12145 0.95979
 H708 H 0.72467 0.13807 0.96162
 C709 C 0.71780 0.11216 0.94251
 H710 H 0.70959 0.12177 0.93102
 C711 C 0.73856 0.08874 0.97298
 H712 H 0.74640 0.07974 0.98514
 C713 C 0.73029 0.07876 0.95578
 H714 H 0.73170 0.06201 0.95501
 Zn715 Zn 0.74543 0.12443 0.99794
 N716 N 0.73638 0.10972 0.97462
 C717 C 0.77526 0.14138 0.97016
 N718 N 0.76780 0.14229 0.98988
 C719 C 0.77711 0.15448 1.00406
 C720 C 0.79490 0.16597 0.99870
 C721 C 0.79289 0.15263 0.96409
 C722 C 0.70338 0.12917 1.00752
 C723 C 0.68473 0.13902 1.01302
 C724 C 0.70383 0.17084 1.01732
 C725 C 0.72219 0.16032 1.01157
 N726 N 0.72169 0.13977 1.00707
 H727 H 0.76791 0.13144 0.95912
 H728 H 0.77116 0.15471 1.01979
 H729 H 0.80227 0.17518 1.01044
 H730 H 0.79799 0.15117 0.94824
 H731 H 0.70316 0.11306 1.00312
 H732 H 0.67040 0.13011 1.01317
 H733 H 0.70490 0.18719 1.02058
 H734 H 0.73673 0.16871 1.01052
 C735 C 0.71966 0.09059 0.94032
 C736 C 0.76824 0.08267 1.05432
 C737 C 0.68465 0.16011 1.01817
 C738 C 0.80339 0.16490 0.97858
 C739 C 0.25832 0.58810 0.51629
 H740 H 0.25426 0.58177 0.50149
 C741 C 0.26657 0.57488 0.53182
 H742 H 0.26881 0.55852 0.52874
 C743 C 0.26011 0.61756 0.53779
 H744 H 0.25762 0.63412 0.53944
 C745 C 0.26818 0.60584 0.55440
 H746 H 0.27183 0.61356 0.56865
 N747 N 0.25559 0.60877 0.51945
 C748 C 0.21369 0.61666 0.47052
 H749 H 0.20372 0.62628 0.47990
 C750 C 0.20542 0.60804 0.45275
 H751 H 0.18908 0.61088 0.44899
 C752 C 0.24713 0.60226 0.46329
 H753 H 0.26353 0.60054 0.46729
 C754 C 0.23949 0.59338 0.44522
 H755 H 0.25026 0.58485 0.43559
 Zn756 Zn 0.24538 0.62753 0.49861
 N757 N 0.23419 0.61359 0.47556
 C758 C 0.26353 0.65812 0.47268
 N759 N 0.26751 0.64438 0.48861
 C760 C 0.28717 0.64174 0.49638
 C761 C 0.30382 0.65320 0.48813
 C762 C 0.27968 0.66997 0.46399
 C763 C 0.20781 0.63371 0.51975
 C764 C 0.19093 0.64470 0.52803
 C765 C 0.20873 0.67676 0.51929
 C766 C 0.22514 0.66510 0.51090
 N767 N 0.22415 0.64398 0.51085
 H768 H 0.24780 0.65967 0.46655
 H769 H 0.29010 0.63041 0.50874
 H770 H 0.31917 0.65017 0.49458
 H771 H 0.27611 0.68070 0.45119
 H772 H 0.20773 0.61686 0.52001
 H773 H 0.17833 0.63583 0.53496
 H774 H 0.20971 0.69359 0.51890
 H775 H 0.23855 0.67298 0.50432
 C776 C 0.21830 0.59632 0.43975
 C777 C 0.27250 0.58293 0.55268
 C778 C 0.19101 0.66665 0.52752
 C779 C 0.30025 0.66761 0.47157
 C780 C 0.77791 0.90438 0.47777
 H781 H 0.78492 0.90291 0.49302
 C782 C 0.78815 0.91552 0.46191
 H783 H 0.80304 0.92268 0.46511
 C784 C 0.75023 0.89642 0.45498
 H785 H 0.73560 0.88872 0.45219
 C786 C 0.75987 0.90745 0.43872
 H787 H 0.75197 0.90847 0.42391
 N788 N 0.75927 0.89515 0.47408
 C789 C 0.72656 0.88663 0.53311
 H790 H 0.72234 0.87045 0.53181
 C791 C 0.71995 0.89777 0.55026
 H792 H 0.71027 0.89000 0.56178
 C793 C 0.74350 0.91636 0.51886
 H794 H 0.75249 0.92360 0.50649
 C795 C 0.73725 0.92810 0.53581
 H796 H 0.74161 0.94432 0.53638
 Zn797 Zn 0.74678 0.87904 0.49574
 N798 N 0.73838 0.89591 0.51802
 C799 C 0.77233 0.85815 0.52552
 N800 N 0.76687 0.85907 0.50515
 C801 C 0.77663 0.84687 0.49109
 C802 C 0.79273 0.83319 0.49737
 C803 C 0.78818 0.84463 0.53251
 C804 C 0.70605 0.87876 0.48081
 C805 C 0.68752 0.87054 0.47332
 C806 C 0.70280 0.83606 0.47704
 C807 C 0.72112 0.84502 0.48443
 N808 N 0.72247 0.86603 0.48591
 H809 H 0.76475 0.86826 0.53641
 H810 H 0.77219 0.84811 0.47491
 H811 H 0.80049 0.82388 0.48580
 H812 H 0.79198 0.84492 0.54879
 H813 H 0.70749 0.89540 0.48241
 H814 H 0.67477 0.88111 0.46912
 H815 H 0.70254 0.81935 0.47569
 H816 H 0.73428 0.83517 0.48886
 C817 C 0.72563 0.91874 0.55196
 C818 C 0.77929 0.91696 0.44199
 C819 C 0.68561 0.84893 0.47125
 C820 C 0.79894 0.83198 0.51832
 C821 C -0.01554 0.27576 0.39816
 H822 H -0.00008 0.28238 0.39667
 C823 C -0.03112 0.28620 0.40917
 H824 H -0.02747 0.30086 0.41619
 C825 C -0.03912 0.24888 0.39035
 H826 H -0.04228 0.23446 0.38276
 C827 C -0.05517 0.25879 0.40121
 H828 H -0.07025 0.25138 0.40199
 N829 N -0.01974 0.25741 0.38909
 C830 C 0.03999 0.22475 0.38163
 H831 H 0.03895 0.22104 0.36538
 C832 C 0.05749 0.21833 0.39318
 H833 H 0.06960 0.20932 0.38569
 C834 C 0.02486 0.24035 0.41108
 H835 H 0.01206 0.24879 0.41805
 C836 C 0.04207 0.23420 0.42324
 H837 H 0.04238 0.23806 0.43950
 Zn838 Zn 0.00180 0.24485 0.37327
 N839 N 0.02434 0.23591 0.39057
 C840 C 0.03181 0.27076 0.35378
 N841 N 0.01133 0.26523 0.35377
 C842 C -0.00282 0.27543 0.34135
 C843 C 0.00344 0.29216 0.32854
 C844 C 0.03878 0.28724 0.34119
 C845 C -0.01315 0.20451 0.37269
 C846 C -0.02079 0.18627 0.36443
 C847 C -0.01842 0.20222 0.33013
 C848 C -0.01073 0.22021 0.33912
 N849 N -0.00849 0.22108 0.36007
 H850 H 0.04280 0.26281 0.36402
 H851 H -0.01910 0.27095 0.34185
 H852 H -0.00824 0.30031 0.31912
 H853 H 0.05518 0.29090 0.34206
 H854 H -0.01100 0.20556 0.38928
 H855 H -0.02452 0.17337 0.37492
 H856 H -0.02026 0.20232 0.31348
 H857 H -0.00665 0.23348 0.32935
 C858 C 0.05884 0.22340 0.41422
 C859 C -0.05132 0.27787 0.41069
 C860 C -0.02366 0.18484 0.34288
 C861 C 0.02444 0.29862 0.32855
 C862 C 1.02476 0.77325 0.09954
 H863 H 1.01004 0.78143 0.09702
 C864 C 1.04320 0.78109 0.09071
 H865 H 1.04236 0.79541 0.08157
 C866 C 1.04363 0.74534 0.11571
 H867 H 1.04391 0.73170 0.12584
 C868 C 1.06236 0.75258 0.10721
 H869 H 1.07682 0.74426 0.11077
 N870 N 1.02530 0.75566 0.11175
 C871 C 0.96305 0.72849 0.11361
 H872 H 0.96146 0.72635 0.13025
 C873 C 0.94724 0.72186 0.10051
 H874 H 0.93371 0.71430 0.10729
 C875 C 0.98323 0.74019 0.08477
 H876 H 0.99737 0.74718 0.07873
 C877 C 0.96779 0.73366 0.07106
 H878 H 0.97010 0.73580 0.05448
 Zn879 Zn 1.00046 0.74657 0.12511
 N880 N 0.98041 0.73782 0.10564
 C881 C 0.96930 0.77544 0.13735
 N882 N 0.98946 0.76909 0.14039
 C883 C 1.00222 0.77916 0.15361
 C884 C 0.99471 0.79620 0.16463
 C885 C 0.96109 0.79218 0.14815
 C886 C 1.01139 0.70521 0.13337
 C887 C 1.01719 0.68751 0.14508
 C888 C 1.01284 0.70734 0.17618
 C889 C 1.00696 0.72463 0.16382
 N890 N 1.00673 0.72335 0.14280
 H891 H 0.95947 0.76765 0.12645
 H892 H 1.01829 0.77396 0.15556
 H893 H 1.00527 0.80356 0.17518
 H894 H 0.94492 0.79681 0.14547
 H895 H 1.01105 0.70465 0.11661
 H896 H 1.02146 0.67373 0.13677
 H897 H 1.01334 0.70884 0.19288
 H898 H 1.00296 0.73912 0.17105
 C899 C 0.94935 0.72477 0.07893
 C900 C 1.06237 0.77067 0.09457
 C901 C 1.01822 0.68842 0.16691
 C902 C 0.97377 0.80298 0.16194
 C903 C 0.52922 0.27366 0.60083
 H904 H 0.51472 0.28233 0.59875
 C905 C 0.54748 0.28050 0.59084
 H906 H 0.54668 0.29452 0.58124
 C907 C 0.54785 0.24566 0.61711
 H908 H 0.54817 0.23248 0.62784
 C909 C 0.56638 0.25188 0.60743
 H910 H 0.58070 0.24318 0.61064
 N911 N 0.52973 0.25654 0.61369
 C912 C 0.46520 0.23605 0.62117
 H913 H 0.46473 0.23552 0.63797
 C914 C 0.44758 0.23062 0.60991
 H915 H 0.43356 0.22642 0.61839
 C916 C 0.48407 0.24332 0.59018
 H917 H 0.49838 0.24821 0.58261
 C918 C 0.46677 0.23785 0.57823
 H919 H 0.46787 0.23863 0.56145
 Zn920 Zn 0.50530 0.24933 0.62891
 N921 N 0.48290 0.24243 0.61126
 C922 C 0.47921 0.28281 0.64007
 N923 N 0.49749 0.27270 0.64471
 C924 C 0.51072 0.28002 0.65926
 C925 C 0.50552 0.29799 0.67006
 C926 C 0.47344 0.30080 0.65035
 C927 C 0.51494 0.20770 0.63538
 C928 C 0.51988 0.18915 0.64605
 C929 C 0.51497 0.20689 0.67832
 C930 C 0.51022 0.22520 0.66694
 N931 N 0.51076 0.22534 0.64584
 H932 H 0.46918 0.27723 0.62800
 H933 H 0.52543 0.27201 0.66233
 H934 H 0.51634 0.30349 0.68159
 H935 H 0.45874 0.30800 0.64589
 H936 H 0.51469 0.20815 0.61858
 H937 H 0.52288 0.17559 0.63693
 H938 H 0.51480 0.20720 0.69513
 H939 H 0.50625 0.23924 0.67499
 C940 C 0.44827 0.23122 0.58808
 C941 C 0.56645 0.26956 0.59420
 C942 C 0.52044 0.18859 0.66794
 C943 C 0.48669 0.30884 0.66565
 C944 C 0.48163 0.76376 0.91064
 H945 H 0.49690 0.76054 0.91728
 C946 C 0.46595 0.77260 0.92282
 H947 H 0.46926 0.77605 0.93885
 C948 C 0.45883 0.76355 0.88166
 H949 H 0.45630 0.76009 0.86552
 C950 C 0.44270 0.77241 0.89326
 H951 H 0.42798 0.77602 0.88566
 N952 N 0.47783 0.75945 0.89046
 C953 C 0.51784 0.72180 0.90483
 H954 H 0.50258 0.71476 0.90552
 C955 C 0.53381 0.71397 0.91767
 H956 H 0.53070 0.70081 0.92803
 C957 C 0.54039 0.74760 0.89082
 H958 H 0.54280 0.76105 0.88074
 C959 C 0.55686 0.74019 0.90333
 H960 H 0.57168 0.74818 0.90264
 Zn961 Zn 0.49914 0.74756 0.87395
 N962 N 0.52142 0.73813 0.89149
 C963 C 0.52592 0.76351 0.84231
 N964 N 0.50912 0.76795 0.85449
 C965 C 0.50025 0.78729 0.85409
 C966 C 0.50849 0.80319 0.84147
 C967 C 0.53486 0.77901 0.82964
 C968 C 0.47440 0.71234 0.87200
 C969 C 0.46563 0.69460 0.86377
 C970 C 0.48385 0.70194 0.83158
 C971 C 0.49225 0.71967 0.84048
 N972 N 0.48765 0.72434 0.86047
 H973 H 0.53297 0.74812 0.84310
 H974 H 0.48712 0.79069 0.86407
 H975 H 0.50132 0.81844 0.84233
 H976 H 0.54864 0.77523 0.82058
 H977 H 0.47054 0.71658 0.88769
 H978 H 0.45520 0.68531 0.87344
 H979 H 0.48789 0.69881 0.81567
 H980 H 0.50252 0.72956 0.83139
 C981 C 0.55372 0.72290 0.91675
 C982 C 0.44615 0.77693 0.91423
 C983 C 0.47042 0.68895 0.84338
 C984 C 0.52634 0.79929 0.82921
 C985 C 0.46404 -0.17584 0.32522
 C986 C 0.45593 -0.15750 0.33367
 C987 C 0.44712 -0.13994 0.32099
 C988 C 0.44595 -0.12020 0.32975
 C989 C 0.43694 -0.10333 0.31880
 C990 C 0.42885 -0.10586 0.29873
 C991 C 0.42984 -0.12566 0.29004
 C992 C 0.43887 -0.14254 0.30100
 C993 C 0.41823 -0.08865 0.28696
 C994 C 0.42096 -0.06759 0.29114
 H995 H 0.45684 -0.15499 0.35013
 H996 H 0.45186 -0.11784 0.34526
 H997 H 0.43584 -0.08860 0.32646
 H998 H 0.42340 -0.12812 0.27476
 H999 H 0.43879 -0.15764 0.29397
 H1000 H 0.40765 -0.09298 0.27477
 H1001 H 0.46491 -0.17645 0.30845
 H1002 H 0.43182 -0.06330 0.30311
 C1003 C 0.96756 0.32313 0.82035
 C1004 C 0.96301 0.34273 0.82825
 C1005 C 0.95393 0.36030 0.81579
 C1006 C 0.95478 0.38038 0.82375
 C1007 C 0.94548 0.39730 0.81312
 C1008 C 0.93509 0.39448 0.79417
 C1009 C 0.93418 0.37437 0.78623
 C1010 C 0.94347 0.35744 0.79689
 C1011 C 0.92401 0.41172 0.78285
 C1012 C 0.92740 0.43281 0.78635
 H1013 H 0.96682 0.34566 0.84426
 H1014 H 0.96245 0.38297 0.83844
 H1015 H 0.94602 0.41232 0.82023
 H1016 H 0.92603 0.37170 0.77183
 H1017 H 0.94186 0.34215 0.79050
 H1018 H 0.91238 0.40740 0.77161
 H1019 H 0.96632 0.32076 0.80385
 H1020 H 0.93908 0.43722 0.79748
 C1021 C 0.04002 1.17956 0.82426
 C1022 C 0.03505 1.15841 0.82554
 C1023 C 0.04608 1.14211 0.81371
 C1024 C 0.03601 1.12308 0.81092
 C1025 C 0.04601 1.10698 0.80047
 C1026 C 0.06652 1.10946 0.79285
 C1027 C 0.07650 1.12858 0.79541
 C1028 C 0.06648 1.14471 0.80584
 C1029 C 0.07791 1.09261 0.78214
 C1030 C 0.07312 1.07154 0.78492
 H1031 H 0.02234 1.15324 0.83541
 H1032 H 0.02028 1.12069 0.81677
 H1033 H 0.03749 1.09276 0.79826
 H1034 H 0.09229 1.13091 0.78967
 H1035 H 0.07504 1.15890 0.80809
 H1036 H 0.09154 1.09695 0.77309
 H1037 H 0.05253 1.18459 0.81403
 H1038 H 0.06100 1.06707 0.79587
 C1039 C 0.53472 0.67922 0.32224
 C1040 C 0.53123 0.65801 0.32612
 C1041 C 0.54193 0.64120 0.31473
 C1042 C 0.53280 0.62143 0.31470
 C1043 C 0.54266 0.60492 0.30473
 C1044 C 0.56212 0.60779 0.29483
 C1045 C 0.57116 0.62760 0.29473
 C1046 C 0.56128 0.64412 0.30466
 C1047 C 0.57334 0.59073 0.28428
 C1048 C 0.56961 0.56959 0.28829
 H1049 H 0.52017 0.65320 0.33795
 H1050 H 0.51790 0.61877 0.32234
 H1051 H 0.53482 0.59010 0.30468
 H1052 H 0.58613 0.63025 0.28722
 H1053 H 0.56916 0.65892 0.30479
 H1054 H 0.58603 0.59514 0.27398
 H1055 H 0.54555 0.68387 0.31010
 H1056 H 0.55857 0.56510 0.30030
 C1057 C 0.54097 0.32452 0.16699
 C1058 C 0.53500 0.33358 0.18559
 C1059 C 0.54608 0.35182 0.19362
 C1060 C 0.53502 0.36653 0.20519
 C1061 C 0.54492 0.38452 0.21185
 C1062 C 0.56621 0.38793 0.20724
 C1063 C 0.57734 0.37283 0.19624
 C1064 C 0.56748 0.35493 0.18962
 C1065 C 0.57746 0.40702 0.21293
 C1066 C 0.57012 0.42168 0.22696
 H1067 H 0.52088 0.32849 0.19344
 H1068 H 0.51855 0.36439 0.20857
 H1069 H 0.53564 0.39578 0.22010
 H1070 H 0.59379 0.37490 0.19266
 H1071 H 0.57670 0.34355 0.18140
 H1072 H 0.59242 0.40951 0.20545
 H1073 H 0.55353 0.33153 0.15803
 H1074 H 0.55486 0.41986 0.23402
 C1075 C 0.03958 0.82932 0.66263
 C1076 C 0.03673 0.83660 0.68270
 C1077 C 0.04841 0.85461 0.69042
 C1078 C 0.03966 0.86662 0.70618
 C1079 C 0.05013 0.88406 0.71336
 C1080 C 0.06966 0.88975 0.70488
 C1081 C 0.07867 0.87727 0.68962
 C1082 C 0.06825 0.85988 0.68252
 C1083 C 0.08152 0.90808 0.71163
 C1084 C 0.07327 0.92396 0.72374
 H1085 H 0.02465 0.82997 0.69255
 H1086 H 0.02457 0.86264 0.71279
 H1087 H 0.04289 0.89278 0.72560
 H1088 H 0.09387 0.88101 0.68310
 H1089 H 0.07596 0.85051 0.67101
 H1090 H 0.09732 0.90950 0.70574
 H1091 H 0.04994 0.83774 0.65217
 H1092 H 0.05688 0.92380 0.72798
 C1093 C 0.95729 0.68771 0.67787
 C1094 C 0.96575 0.66781 0.68176
 C1095 C 0.95384 0.65036 0.69134
 C1096 C 0.96070 0.62994 0.68778
 C1097 C 0.94964 0.61290 0.69585
 C1098 C 0.93157 0.61595 0.70796
 C1099 C 0.92486 0.63639 0.71175
 C1100 C 0.93590 0.65344 0.70365
 C1101 C 0.91889 0.59838 0.71617
 C1102 C 0.92642 0.57791 0.71822
 H1103 H 0.98147 0.66429 0.67658
 H1104 H 0.97442 0.62712 0.67831
 H1105 H 0.95509 0.59747 0.69206
 H1106 H 0.91100 0.63918 0.72104
 H1107 H 0.93037 0.66888 0.70725
 H1108 H 0.90323 0.60197 0.72155
 H1109 H 0.94170 0.69137 0.68338
 H1110 H 0.94280 0.57464 0.71529
 C1111 C 0.45529 0.18482 0.17629
 C1112 C 0.46329 0.16502 0.18153
 C1113 C 0.45064 0.14806 0.19107
 C1114 C 0.45781 0.12746 0.18929
 C1115 C 0.44620 0.11085 0.19746
 C1116 C 0.42721 0.11452 0.20792
 C1117 C 0.42012 0.13513 0.20989
 C1118 C 0.43173 0.15176 0.20169
 C1119 C 0.41407 0.09734 0.21626
 C1120 C 0.42183 0.07730 0.22077
 H1121 H 0.47935 0.16123 0.17767
 H1122 H 0.47229 0.12415 0.18116
 H1123 H 0.45197 0.09521 0.19507
 H1124 H 0.40555 0.13840 0.21788
 H1125 H 0.42586 0.16737 0.20394
 H1126 H 0.39789 0.10099 0.21980
 H1127 H 0.43936 0.18880 0.18045
 H1128 H 0.43849 0.07431 0.21965
 C1129 C 0.32559 0.46636 -0.17536
 C1130 C 0.33354 0.46124 -0.15565
 C1131 C 0.32102 0.45135 -0.13878
 C1132 C 0.32854 0.45187 -0.11834
 C1133 C 0.31774 0.44194 -0.10206
 C1134 C 0.29911 0.43119 -0.10591
 C1135 C 0.29168 0.43056 -0.12639
 C1136 C 0.30248 0.44048 -0.14266
 C1137 C 0.28744 0.41969 -0.08939
 C1138 C 0.29031 0.42238 -0.06811
 H1139 H 0.34955 0.46517 -0.15208
 H1140 H 0.34295 0.45985 -0.11497
 H1141 H 0.32445 0.44237 -0.08670
 H1142 H 0.27753 0.42217 -0.12986
 H1143 H 0.29649 0.43908 -0.15823
 H1144 H 0.27618 0.40846 -0.09446
 H1145 H 0.30898 0.46491 -0.17823
 H1146 H 0.30167 0.43342 -0.06288
 C1147 C 0.82613 0.96551 0.31510
 C1148 C 0.83257 0.96474 0.33585
 C1149 C 0.82003 0.95549 0.35305
 C1150 C 0.82485 0.96063 0.37352
 C1151 C 0.81405 0.95158 0.39030
 C1152 C 0.79826 0.93690 0.38695
 C1153 C 0.79341 0.93187 0.36642
 C1154 C 0.80417 0.94097 0.34966
 C1155 C 0.78659 0.92626 0.40409
 C1156 C 0.79070 0.92847 0.42527
 H1157 H 0.84726 0.97183 0.33991
 H1158 H 0.83709 0.97170 0.37656
 H1159 H 0.81833 0.95621 0.40569
 H1160 H 0.78139 0.92059 0.36331
 H1161 H 0.80033 0.93614 0.33419
 H1162 H 0.77469 0.91546 0.39952
 H1163 H 0.81038 0.96093 0.31123
 H1164 H 0.80344 0.93814 0.43007
 C1165 C 0.83881 0.02280 1.16399
 C1166 C 0.82370 0.03857 1.16074
 C1167 C 0.81618 0.04497 1.13973
 C1168 C 0.79635 0.05442 1.13758
 C1169 C 0.78908 0.06131 1.11808
 C1170 C 0.80160 0.05895 1.10027
 C1171 C 0.82153 0.04973 1.10248
 C1172 C 0.82878 0.04283 1.12195
 C1173 C 0.79513 0.06712 1.07948
 C1174 C 0.77438 0.07187 1.07407
 H1175 H 0.81637 0.04614 1.17369
 H1176 H 0.78649 0.05660 1.15106
 H1177 H 0.77393 0.06897 1.11721
 H1178 H 0.83167 0.04809 1.08911
 H1179 H 0.84448 0.03640 1.12303
 H1180 H 0.80731 0.06910 1.06794
 H1181 H 0.84366 0.01426 1.15048
 H1182 H 0.76194 0.06747 1.08468
 C1183 C 0.32686 0.53799 0.68011
 C1184 C 0.32572 0.53101 0.65973
 C1185 C 0.31382 0.54191 0.64281
 C1186 C 0.31786 0.53643 0.62220
 C1187 C 0.30742 0.54652 0.60567
 C1188 C 0.29267 0.56240 0.60944
 C1189 C 0.28833 0.56765 0.63000
 C1190 C 0.29862 0.55744 0.64655
 C1191 C 0.28208 0.57413 0.59234
 C1192 C 0.28320 0.56811 0.57180
 H1193 H 0.33468 0.51746 0.65539
 H1194 H 0.32940 0.52450 0.61885
 H1195 H 0.31118 0.54210 0.58999
 H1196 H 0.27688 0.57972 0.63329
 H1197 H 0.29446 0.56181 0.66210
 H1198 H 0.27316 0.58800 0.59605
 H1199 H 0.31892 0.55231 0.68398
 H1200 H 0.27780 0.57555 0.56212
 C1201 C 0.18218 0.53106 0.32105
 C1202 C 0.17612 0.54754 0.33353
 C1203 C 0.18840 0.55468 0.35144
 C1204 C 0.18384 0.57439 0.35924
 C1205 C 0.19401 0.58134 0.37688
 C1206 C 0.20880 0.56854 0.38735
 C1207 C 0.21385 0.54907 0.37924
 C1208 C 0.20365 0.54209 0.36154
 C1209 C 0.21903 0.57514 0.40670
 C1210 C 0.20903 0.58854 0.42039
 H1211 H 0.16191 0.55613 0.32969
 H1212 H 0.17227 0.58446 0.35170
 H1213 H 0.19029 0.59679 0.38218
 H1214 H 0.22529 0.53899 0.38695
 H1215 H 0.20736 0.52664 0.35628
 H1216 H 0.23405 0.56822 0.41068
 H1217 H 0.19756 0.52405 0.32303
 H1218 H 0.19308 0.59339 0.41700
 C1219 C 0.67659 0.02185 0.82719
 C1220 C 0.66767 0.02953 0.84547
 C1221 C 0.67996 0.03711 0.86321
 C1222 C 0.67000 0.05065 0.87693
 C1223 C 0.68074 0.05843 0.89384
 C1224 C 0.70180 0.05284 0.89746
 C1225 C 0.71161 0.03871 0.88423
 C1226 C 0.70084 0.03094 0.86718
 C1227 C 0.71355 0.06136 0.91508
 C1228 C 0.70916 0.08120 0.92242
 H1229 H 0.65094 0.03142 0.84688
 H1230 H 0.65382 0.05537 0.87450
 H1231 H 0.67239 0.06863 0.90417
 H1232 H 0.72770 0.03387 0.88694
 H1233 H 0.70886 0.01996 0.85744
 H1234 H 0.72660 0.05240 0.92143
 H1235 H 0.69353 0.02114 0.82634
 H1236 H 0.69783 0.09088 0.91408
 C1237 C 0.67987 0.95848 0.68036
 C1238 C 0.68149 0.96669 0.66008
 C1239 C 0.69075 0.95528 0.64247
 C1240 C 0.69459 0.96627 0.62375
 C1241 C 0.70224 0.95605 0.60635
 C1242 C 0.70631 0.93447 0.60731
 C1243 C 0.70255 0.92351 0.62607
 C1244 C 0.69479 0.93370 0.64341
 C1245 C 0.71370 0.92254 0.58921
 C1246 C 0.71924 0.93136 0.56990
 H1247 H 0.67588 0.98234 0.65674
 H1248 H 0.69142 0.98286 0.62248
 H1249 H 0.70454 0.96520 0.59226
 H1250 H 0.70532 0.90686 0.62725
 H1251 H 0.69155 0.92440 0.65722
 H1252 H 0.71512 0.90584 0.59146
 H1253 H 0.68746 0.94377 0.68424
 H1254 H 0.71982 0.94807 0.56783
 C1255 C 0.17758 0.45822 0.18106
 C1256 C 0.17325 0.46143 0.15994
 C1257 C 0.18392 0.44997 0.14319
 C1258 C 0.18282 0.45810 0.12278
 C1259 C 0.19184 0.44738 0.10635
 C1260 C 0.20220 0.42819 0.11002
 C1261 C 0.20316 0.41998 0.13039
 C1262 C 0.19414 0.43070 0.14682
 C1263 C 0.21110 0.41576 0.09301
 C1264 C 0.21595 0.42399 0.07331
 H1265 H 0.16135 0.47266 0.15520
 H1266 H 0.17476 0.47274 0.11950
 H1267 H 0.19014 0.45396 0.09082
 H1268 H 0.21073 0.40507 0.13360
 H1269 H 0.19475 0.42346 0.16214
 H1270 H 0.21463 0.39953 0.09650
 H1271 H 0.18972 0.44720 0.18572
 H1272 H 0.21494 0.44064 0.07046
 C1273 C -0.17207 0.32703 0.46974
 C1274 C -0.15464 0.33486 0.45903
 C1275 C -0.13781 0.32157 0.45037
 C1276 C -0.11833 0.33054 0.44583
 C1277 C -0.10223 0.31884 0.43692
 C1278 C -0.10530 0.29781 0.43230
 C1279 C -0.12487 0.28891 0.43661
 C1280 C -0.14096 0.30060 0.44556
 C1281 C -0.08902 0.28501 0.42202
 C1282 C -0.06766 0.28972 0.42203
 H1283 H -0.15296 0.35148 0.45678
 H1284 H -0.11559 0.34675 0.44907
 H1285 H -0.08769 0.32658 0.43322
 H1286 H -0.12779 0.27286 0.43289
 H1287 H -0.15593 0.29325 0.44809
 H1288 H -0.09438 0.27133 0.41433
 H1289 H -0.17341 0.31039 0.47223
 H1290 H -0.06246 0.30301 0.43051
 C1291 C 0.32348 0.82507 0.97007
 C1292 C 0.34423 0.83142 0.96747
 C1293 C 0.36049 0.81910 0.95665
 C1294 C 0.38158 0.82442 0.95910
 C1295 C 0.39740 0.81396 0.94841
 C1296 C 0.39242 0.79781 0.93499
 C1297 C 0.37131 0.79257 0.93242
 C1298 C 0.35549 0.80307 0.94308
 C1299 C 0.40855 0.78686 0.92263
 C1300 C 0.42993 0.78685 0.92729
 H1301 H 0.34909 0.84592 0.97402
 H1302 H 0.38585 0.83693 0.96917
 H1303 H 0.41335 0.81902 0.95034
 H1304 H 0.36701 0.78043 0.92193
 H1305 H 0.33943 0.79890 0.94014
 H1306 H 0.40313 0.77789 0.90976
 H1307 H 0.31918 0.80952 0.96580
 H1308 H 0.43512 0.79370 0.94153
 C1309 C 1.17155 0.83355 0.02738
 C1310 C 1.16497 0.82915 0.04771
 C1311 C 1.14452 0.81973 0.05310
 C1312 C 1.14191 0.81080 0.07302
 C1313 C 1.12275 0.80228 0.07908
 C1314 C 1.10570 0.80247 0.06527
 C1315 C 1.10815 0.81175 0.04547
 C1316 C 1.12736 0.82028 0.03939
 C1317 C 1.08502 0.79397 0.07138
 C1318 C 1.08276 0.77860 0.08694
 H1319 H 1.17558 0.83192 0.06040
 H1320 H 1.15474 0.81052 0.08403
 H1321 H 1.12130 0.79604 0.09476
 H1322 H 1.09515 0.81243 0.03467
 H1323 H 1.12846 0.82765 0.02416
 H1324 H 1.07144 0.79943 0.06273
 H1325 H 1.16210 0.82853 0.01456
 H1326 H 1.09672 0.77152 0.09367
 C1327 C 0.67496 0.33213 0.52504
 C1328 C 0.66891 0.32687 0.54535
 C1329 C 0.64854 0.31735 0.55091
 C1330 C 0.64637 0.30776 0.57059
 C1331 C 0.62726 0.29932 0.57692
 C1332 C 0.60978 0.30027 0.56363
 C1333 C 0.61184 0.31011 0.54404
 C1334 C 0.63100 0.31855 0.53768
 C1335 C 0.58906 0.29217 0.57017
 C1336 C 0.58680 0.27662 0.58557
 H1337 H 0.67986 0.32916 0.55787
 H1338 H 0.65950 0.30695 0.58123
 H1339 H 0.62616 0.29261 0.59244
 H1340 H 0.59853 0.31138 0.53365
 H1341 H 0.63178 0.32641 0.52267
 H1342 H 0.57538 0.29830 0.56214
 H1343 H 0.66523 0.32758 0.51224
 H1344 H 0.60076 0.26895 0.59166
 C1345 C 0.32982 0.16758 0.54610
 C1346 C 0.33970 0.18607 0.54006
 C1347 C 0.35831 0.19366 0.55117
 C1348 C 0.37335 0.20547 0.54036
 C1349 C 0.39154 0.21198 0.55036
 C1350 C 0.39487 0.20690 0.57151
 C1351 C 0.37946 0.19562 0.58238
 C1352 C 0.36137 0.18918 0.57242
 C1353 C 0.41397 0.21269 0.58305
 C1354 C 0.42995 0.22549 0.57534
 H1355 H 0.33485 0.19424 0.52594
 H1356 H 0.37125 0.20928 0.52401
 H1357 H 0.40289 0.22064 0.54131
 H1358 H 0.38142 0.19172 0.59873
 H1359 H 0.34976 0.18080 0.58149
 H1360 H 0.41548 0.20615 0.59861
 H1361 H 0.33653 0.15826 0.55871
 H1362 H 0.42953 0.23120 0.55942
 C1363 C 0.82525 0.67544 0.03651
 C1364 C 0.84332 0.68135 0.02571
 C1365 C 0.86074 0.69201 0.03607
 C1366 C 0.88141 0.68848 0.02950
 C1367 C 0.89824 0.69709 0.04010
 C1368 C 0.89459 0.70971 0.05731
 C1369 C 0.87385 0.71387 0.06329
 C1370 C 0.85710 0.70524 0.05275
 C1371 C 0.91172 0.71775 0.07026
 C1372 C 0.93282 0.71818 0.06447
 H1373 H 0.84574 0.67622 0.01001
 H1374 H 0.88459 0.67842 0.01660
 H1375 H 0.91396 0.69324 0.03514
 H1376 H 0.87058 0.72365 0.07638
 H1377 H 0.84133 0.70890 0.05779
 H1378 H 0.90732 0.72393 0.08514
 H1379 H 0.82424 0.67843 0.05294
 H1380 H 0.93736 0.71460 0.04878
 C1381 C 0.68082 0.67808 0.96795
 C1382 C 0.65986 0.67199 0.96790
 C1383 C 0.64274 0.68417 0.95768
 C1384 C 0.62195 0.67910 0.96254
 C1385 C 0.60524 0.68932 0.95251
 C1386 C 0.60896 0.70498 0.93728
 C1387 C 0.62978 0.71008 0.93246
 C1388 C 0.64650 0.69980 0.94247
 C1389 C 0.59187 0.71563 0.92535
 C1390 C 0.57056 0.71388 0.93009
 H1391 H 0.65554 0.65780 0.97617
 H1392 H 0.61860 0.66694 0.97401
 H1393 H 0.58960 0.68441 0.95652
 H1394 H 0.63316 0.72189 0.92066
 H1395 H 0.66223 0.70383 0.93777
 H1396 H 0.59643 0.72476 0.91177
 H1397 H 0.68491 0.69338 0.96198
 H1398 H 0.56566 0.70460 0.94340
 C1399 C 0.18836 0.17895 0.45889
 C1400 C 0.16863 0.18380 0.46707
 C1401 C 0.15072 0.19219 0.45468
 C1402 C 0.13054 0.19069 0.46325
 C1403 C 0.11296 0.19750 0.45199
 C1404 C 0.11521 0.20629 0.43190
 C1405 C 0.13541 0.20802 0.42340
 C1406 C 0.15301 0.20116 0.43466
 C1407 C 0.09696 0.21301 0.41909
 C1408 C 0.07709 0.21724 0.42726
 H1409 H 0.16563 0.18028 0.48331
 H1410 H 0.12828 0.18377 0.47860
 H1411 H 0.09770 0.19532 0.45895
 H1412 H 0.13759 0.21472 0.40795
 H1413 H 0.16824 0.20305 0.42757
 H1414 H 0.09960 0.21551 0.40262
 H1415 H 0.19206 0.18321 0.44298
 H1416 H 0.07495 0.21724 0.44392
 C1417 C 0.58625 0.07514 0.71903
 C1418 C 0.56496 0.08059 0.71848
 C1419 C 0.55745 0.09924 0.70661
 C1420 C 0.54028 0.11082 0.71385
 C1421 C 0.53308 0.12850 0.70270
 C1422 C 0.54278 0.13463 0.68392
 C1423 C 0.55953 0.12266 0.67645
 C1424 C 0.56688 0.10523 0.68769
 C1425 C 0.53547 0.15282 0.67125
 C1426 C 0.52633 0.17065 0.67971
 H1427 H 0.55361 0.07185 0.72751
 H1428 H 0.53256 0.10627 0.72822
 H1429 H 0.51973 0.13705 0.70857
 H1430 H 0.56704 0.12686 0.66186
 H1431 H 0.57970 0.09624 0.68135
 H1432 H 0.53948 0.15266 0.65498
 H1433 H 0.59710 0.08621 0.71214
 H1434 H 0.52492 0.17115 0.69645
 C1435 C 1.07059 0.56659 0.21992
 C1436 C 1.07634 0.58751 0.21767
 C1437 C 1.06293 0.60353 0.20720
 C1438 C 1.06542 0.62449 0.21218
 C1439 C 1.05414 0.64019 0.20155
 C1440 C 1.04022 0.63522 0.18556
 C1441 C 1.03774 0.61425 0.18059
 C1442 C 1.04889 0.59853 0.19134
 C1443 C 1.02951 0.65152 0.17268
 C1444 C 1.02527 0.67161 0.17965
 H1445 H 1.09072 0.59283 0.22446
 H1446 H 1.07637 0.62876 0.22413
 H1447 H 1.05700 0.65620 0.20538
 H1448 H 1.02738 0.61004 0.16811
 H1449 H 1.04706 0.58261 0.18663
 H1450 H 1.02457 0.64711 0.15740
 H1451 H 1.05473 0.56256 0.21575
 H1452 H 1.02754 0.67443 0.19599
 C1453 C 0.93777 0.92222 0.22494
 C1454 C 0.93027 0.90222 0.22113
 C1455 C 0.94307 0.88468 0.21321
 C1456 C 0.93342 0.86525 0.21156
 C1457 C 0.94402 0.84851 0.20281
 C1458 C 0.96458 0.85080 0.19540
 C1459 C 0.97463 0.86991 0.19774
 C1460 C 0.96395 0.88678 0.20637
 C1461 C 0.97562 0.83355 0.18502
 C1462 C 0.96482 0.81983 0.17245
 H1463 H 0.91399 0.89880 0.22394
 H1464 H 0.91745 0.86305 0.21681
 H1465 H 0.93605 0.83378 0.20187
 H1466 H 0.99055 0.87197 0.19227
 H1467 H 0.97206 0.90140 0.20712
 H1468 H 0.99252 0.83298 0.18603
 H1469 H 0.95446 0.92478 0.22398
 H1470 H 0.94825 0.82288 0.17003
 C1471 C 0.41994 0.41925 0.72068
 C1472 C 0.44084 0.41506 0.71540
 C1473 C 0.44696 0.39575 0.70469
 C1474 C 0.46723 0.38738 0.70727
 C1475 C 0.47324 0.36914 0.69725
 C1476 C 0.45902 0.35901 0.68430
 C1477 C 0.43896 0.36776 0.68139
 C1478 C 0.43301 0.38590 0.69134
 C1479 C 0.46424 0.33979 0.67297
 C1480 C 0.48205 0.32718 0.67649
 H1481 H 0.45316 0.42558 0.71949
 H1482 H 0.47839 0.39491 0.71717
 H1483 H 0.48903 0.36335 0.69956
 H1484 H 0.42778 0.36056 0.67126
 H1485 H 0.41758 0.39233 0.68819
 H1486 H 0.45290 0.33553 0.66151
 H1487 H 0.40873 0.40701 0.71825
 H1488 H 0.49303 0.33166 0.68828
 C1489 C 0.42983 0.57374 0.77605
 C1490 C 0.42580 0.58529 0.79382
 C1491 C 0.43590 0.60531 0.79834
 C1492 C 0.42558 0.61884 0.81181
 C1493 C 0.43475 0.63748 0.81739
 C1494 C 0.45474 0.64288 0.80993
 C1495 C 0.46489 0.62962 0.79603
 C1496 C 0.45564 0.61092 0.79036
 C1497 C 0.46522 0.66213 0.81644
 C1498 C 0.46138 0.67073 0.83587
 H1499 H 0.41349 0.58059 0.80439
 H1500 H 0.41029 0.61499 0.81804
 H1501 H 0.42603 0.64765 0.82746
 H1502 H 0.48023 0.63349 0.78997
 H1503 H 0.46424 0.60073 0.78023
 H1504 H 0.47703 0.66858 0.80619
 H1505 H 0.44049 0.58019 0.76455
 H1506 H 0.45100 0.66231 0.84633
 C1507 C -0.07237 0.07561 0.27054
 C1508 C -0.07611 0.08654 0.28880
 C1509 C -0.06533 0.10592 0.29467
 C1510 C -0.06939 0.11371 0.31445
 C1511 C -0.05992 0.13188 0.32097
 C1512 C -0.04591 0.14272 0.30788
 C1513 C -0.04213 0.13526 0.28792
 C1514 C -0.05166 0.11703 0.28135
 C1515 C -0.03567 0.16211 0.31439
 C1516 C -0.03197 0.16629 0.33531
 H1517 H -0.08746 0.08081 0.29989
 H1518 H -0.08007 0.10574 0.32497
 H1519 H -0.06399 0.13754 0.33613
 H1520 H -0.03166 0.14351 0.27741
 H1521 H -0.04831 0.11201 0.26582
 H1522 H -0.03039 0.17269 0.30223
 H1523 H -0.06076 0.08153 0.25977
 H1524 H -0.03566 0.15417 0.34669
 C1525 C 0.08322 0.41943 0.28836
 C1526 C 0.07205 0.40444 0.27764
 C1527 C 0.06628 0.38423 0.28755
 C1528 C 0.04865 0.37360 0.28052
 C1529 C 0.04302 0.35442 0.28963
 C1530 C 0.05510 0.34546 0.30587
 C1531 C 0.07305 0.35584 0.31240
 C1532 C 0.07861 0.37495 0.30338
 C1533 C 0.05001 0.32529 0.31627
 C1534 C 0.02998 0.31650 0.31664
 H1535 H 0.06686 0.40745 0.26189
 H1536 H 0.03916 0.38022 0.26803
 H1537 H 0.02947 0.34662 0.28365
 H1538 H 0.08284 0.34916 0.32465
 H1539 H 0.09281 0.38219 0.30862
 H1540 H 0.06258 0.31813 0.32514
 H1541 H 0.08579 0.41654 0.30481
 H1542 H 0.01762 0.32448 0.30803
 C1543 C 0.57512 0.92041 0.77397
 C1544 C 0.57981 0.90580 0.78985
 C1545 C 0.56680 0.88736 0.79460
 C1546 C 0.57628 0.86975 0.80405
 C1547 C 0.56433 0.85252 0.81003
 C1548 C 0.54255 0.85264 0.80683
 C1549 C 0.53304 0.87027 0.79740
 C1550 C 0.54504 0.88745 0.79121
 C1551 C 0.52926 0.83549 0.81488
 C1552 C 0.53674 0.81504 0.81774
 H1553 H 0.59428 0.90686 0.79842
 H1554 H 0.59297 0.86943 0.80709
 H1555 H 0.57211 0.83950 0.81788
 H1556 H 0.51623 0.87088 0.79511
 H1557 H 0.53715 0.90100 0.78450
 H1558 H 0.51315 0.83936 0.81841
 H1559 H 0.56224 0.91709 0.76366
 H1560 H 0.55174 0.81115 0.81087
 C1561 C 0.71950 0.57129 0.07429
 C1562 C 0.70533 0.57834 0.08927
 C1563 C 0.69879 0.56574 0.10768
 C1564 C 0.67979 0.57080 0.11739
 C1565 C 0.67331 0.55997 0.13528
 C1566 C 0.68577 0.54378 0.14394
 C1567 C 0.70497 0.53894 0.13448
 C1568 C 0.71142 0.54974 0.11646
 C1569 C 0.67951 0.53255 0.16331
 C1570 C 0.65844 0.52988 0.16875
 H1571 H 0.69764 0.59329 0.08720
 H1572 H 0.66995 0.58331 0.11117
 H1573 H 0.65880 0.56470 0.14256
 H1574 H 0.71502 0.52679 0.14108
 H1575 H 0.72650 0.54586 0.10984
 H1576 H 0.69187 0.52583 0.17285
 H1577 H 0.72488 0.55527 0.07560
 H1578 H 0.64679 0.53464 0.15732
 C1579 C 0.21336 1.08170 0.57709
 C1580 C 0.21118 1.06040 0.58147
 C1581 C 0.19871 1.05297 0.59950
 C1582 C 0.20526 1.03525 0.61102
 C1583 C 0.19397 1.02853 0.62856
 C1584 C 0.17574 1.03929 0.63462
 C1585 C 0.16877 1.05648 0.62257
 C1586 C 0.18018 1.06334 0.60526
 C1587 C 0.16329 1.03279 0.65300
 C1588 C 0.17225 1.02342 0.67080
 H1589 H 0.21976 1.04897 0.57273
 H1590 H 0.21931 1.02683 0.60664
 H1591 H 0.19938 1.01480 0.63714
 H1592 H 0.15459 1.06480 0.62672
 H1593 H 0.17437 1.07666 0.59628
 H1594 H 0.14699 1.03745 0.65291
 H1595 H 0.20668 1.09232 0.58819
 H1596 H 0.18911 1.02124 0.67099
 C1597 C 0.21530 0.93223 0.93081
 C1598 C 0.22314 0.93440 0.91057
 C1599 C 0.21007 0.94222 0.89305
 C1600 C 0.21967 0.95173 0.87569
 C1601 C 0.20777 0.95800 0.85837
 C1602 C 0.18605 0.95460 0.85804
 C1603 C 0.17651 0.94496 0.87534
 C1604 C 0.18834 0.93890 0.89270
 C1605 C 0.17311 0.95960 0.83954
 C1606 C 0.17773 0.97571 0.82526
 H1607 H 0.23932 0.93062 0.90721
 H1608 H 0.23645 0.95410 0.87547
 H1609 H 0.21571 0.96485 0.84504
 H1610 H 0.15985 0.94190 0.87532
 H1611 H 0.18052 0.93096 0.90550
 H1612 H 0.15870 0.95108 0.83821
 H1613 H 0.20018 0.93930 0.93400
 H1614 H 0.19058 0.98591 0.82884
 C1615 C 0.71664 0.43174 0.42830
 C1616 C 0.72460 0.43434 0.40814
 C1617 C 0.71134 0.44175 0.39057
 C1618 C 0.72059 0.45204 0.37344
 C1619 C 0.70851 0.45807 0.35613
 C1620 C 0.68700 0.45362 0.35559
 C1621 C 0.67785 0.44318 0.37265
 C1622 C 0.68983 0.43737 0.38999
 C1623 C 0.67390 0.45837 0.33713
 C1624 C 0.67769 0.47497 0.32314
 H1625 H 0.74093 0.43124 0.40489
 H1626 H 0.73721 0.45524 0.37339
 H1627 H 0.71618 0.46557 0.34299
 H1628 H 0.66137 0.43930 0.37247
 H1629 H 0.68232 0.42883 0.40259
 H1630 H 0.65986 0.44928 0.33572
 H1631 H 0.70118 0.43811 0.43135
 H1632 H 0.69011 0.48563 0.32679
 C1633 C 0.78540 0.43118 0.57221
 C1634 C 0.79326 0.42313 0.59111
 C1635 C 0.80127 0.43628 0.60788
 C1636 C 0.80269 0.42769 0.62809
 C1637 C 0.81082 0.43920 0.64425
 C1638 C 0.81774 0.45969 0.64055
 C1639 C 0.81656 0.46820 0.62029
 C1640 C 0.80844 0.45667 0.60411
 C1641 C 0.82743 0.47208 0.65703
 C1642 C 0.82413 0.46814 0.67828
 H1643 H 0.79287 0.40660 0.59451
 H1644 H 0.79764 0.41190 0.63136
 H1645 H 0.81218 0.43172 0.65942
 H1646 H 0.82215 0.48379 0.61692
 H1647 H 0.80836 0.46365 0.58866
 H1648 H 0.83708 0.48490 0.65186
 H1649 H 0.78412 0.44793 0.57027
 H1650 H 0.81257 0.45664 0.68269
 C1651 C 0.28474 -0.07011 0.07418
 C1652 C 0.29114 -0.07830 0.09355
 C1653 C 0.29974 -0.06534 0.11013
 C1654 C 0.29862 -0.07270 0.13080
 C1655 C 0.30720 -0.06131 0.14683
 C1656 C 0.31718 -0.04228 0.14247
 C1657 C 0.31857 -0.03506 0.12178
 C1658 C 0.30992 -0.04642 0.10575
 C1659 C 0.32742 -0.03032 0.15889
 C1660 C 0.32130 -0.03154 0.17978
 H1661 H 0.28890 -0.09456 0.09746
 H1662 H 0.29119 -0.08741 0.13454
 H1663 H 0.30649 -0.06778 0.16248
 H1664 H 0.32652 -0.02064 0.11798
 H1665 H 0.31178 -0.04058 0.08997
 H1666 H 0.33958 -0.01975 0.15391
 H1667 H 0.28492 -0.05336 0.07186
 H1668 H 0.30725 -0.04015 0.18359
 C1669 C 0.28981 0.07845 0.43072
 C1670 C 0.27844 0.06819 0.41557
 C1671 C 0.28789 0.06309 0.39528
 C1672 C 0.28067 0.04594 0.38442
 C1673 C 0.28931 0.04105 0.36512
 C1674 C 0.30524 0.05343 0.35628
 C1675 C 0.31194 0.07093 0.36689
 C1676 C 0.30342 0.07572 0.38615
 C1677 C 0.31499 0.04907 0.33595
 C1678 C 0.31612 0.02919 0.32753
 H1679 H 0.26249 0.06345 0.41839
 H1680 H 0.26840 0.03625 0.39093
 H1681 H 0.28322 0.02785 0.35709
 H1682 H 0.32392 0.08093 0.36028
 H1683 H 0.30877 0.08957 0.39364
 H1684 H 0.32299 0.06195 0.32850
 H1685 H 0.30644 0.08044 0.42797
 H1686 H 0.30903 0.01646 0.33624
 C1687 C 0.79278 0.57586 0.93100
 C1688 C 0.78346 0.57167 0.91192
 C1689 C 0.79559 0.56447 0.89385
 C1690 C 0.78562 0.55261 0.87887
 C1691 C 0.79630 0.54676 0.86093
 C1692 C 0.81710 0.55298 0.85754
 C1693 C 0.82700 0.56500 0.87243
 C1694 C 0.81642 0.57059 0.89049
 C1695 C 0.82844 0.54818 0.83819
 C1696 C 0.82518 0.52989 0.82734
 H1697 H 0.76667 0.57300 0.91006
 H1698 H 0.76946 0.54801 0.88097
 H1699 H 0.78804 0.53797 0.84947
 H1700 H 0.84292 0.57020 0.87001
 H1701 H 0.82436 0.58028 0.90142
 H1702 H 0.84080 0.55868 0.83354
 H1703 H 0.80895 0.57099 0.93329
 H1704 H 0.81490 0.51835 0.83432
 C1705 C 0.06758 0.71966 0.57195
 C1706 C 0.08829 0.71798 0.57903
 C1707 C 0.10494 0.70671 0.56781
 C1708 C 0.12590 0.71215 0.57099
 C1709 C 0.14216 0.70097 0.56174
 C1710 C 0.13772 0.68395 0.54926
 C1711 C 0.11676 0.67841 0.54621
 C1712 C 0.10049 0.68973 0.55530
 C1713 C 0.15455 0.67096 0.54033
 C1714 C 0.17433 0.67877 0.53512
 H1715 H 0.09302 0.72592 0.59281
 H1716 H 0.12973 0.72495 0.58087
 H1717 H 0.15815 0.70528 0.56494
 H1718 H 0.11298 0.66515 0.53692
 H1719 H 0.08455 0.68470 0.55306
 H1720 H 0.15054 0.65517 0.53669
 H1721 H 0.06423 0.71451 0.55644
 H1722 H 0.17662 0.69540 0.53607
 C1723 C 0.57786 0.22097 1.07999
 C1724 C 0.58157 0.21804 1.05885
 C1725 C 0.60248 0.21171 1.05113
 C1726 C 0.60391 0.19875 1.03400
 C1727 C 0.62344 0.19168 1.02708
 C1728 C 0.64193 0.19765 1.03708
 C1729 C 0.64055 0.21150 1.05349
 C1730 C 0.62102 0.21841 1.06053
 C1731 C 0.66275 0.18960 1.03082
 C1732 C 0.66541 0.16938 1.02363
 H1733 H 0.56885 0.21872 1.04780
 H1734 H 0.58987 0.19372 1.02625
 H1735 H 0.62402 0.18161 1.01388
 H1736 H 0.65459 0.21662 1.06118
 H1737 H 0.62048 0.22904 1.07329
 H1738 H 0.67614 0.19917 1.03390
 H1739 H 0.59081 0.21782 1.09053
 H1740 H 0.65158 0.15978 1.02296
 C1741 C 0.91734 0.21656 0.91267
 C1742 C 0.91171 0.21365 0.93355
 C1743 C 0.89180 0.20344 0.93948
 C1744 C 0.88111 0.20936 0.95747
 C1745 C 0.86197 0.20021 0.96294
 C1746 C 0.85338 0.18466 0.95060
 C1747 C 0.86440 0.17850 0.93288
 C1748 C 0.88339 0.18766 0.92743
 C1749 C 0.83301 0.17455 0.95512
 C1750 C 0.82213 0.17560 0.97401
 H1751 H 0.92121 0.21975 0.94580
 H1752 H 0.88737 0.22141 0.96707
 H1753 H 0.85396 0.20570 0.97655
 H1754 H 0.85832 0.16646 0.92317
 H1755 H 0.89156 0.18217 0.91385
 H1756 H 0.82710 0.16507 0.94292
 H1757 H 0.90585 0.21242 0.90115
 H1758 H 0.82888 0.18450 0.98629
 C1759 C 0.42510 0.72050 0.42717
 C1760 C 0.40549 0.71457 0.41963
 C1761 C 0.38815 0.70621 0.43270
 C1762 C 0.36873 0.70290 0.42317
 C1763 C 0.35206 0.69426 0.43436
 C1764 C 0.35435 0.68885 0.45554
 C1765 C 0.37373 0.69213 0.46511
 C1766 C 0.39047 0.70069 0.45388
 C1767 C 0.33745 0.67860 0.46774
 C1768 C 0.31632 0.67914 0.46181
 H1769 H 0.40217 0.71602 0.40325
 H1770 H 0.36650 0.70672 0.40684
 H1771 H 0.33771 0.69134 0.42611
 H1772 H 0.37602 0.68784 0.48133
 H1773 H 0.40513 0.70247 0.46192
 H1774 H 0.34218 0.67068 0.48198
 H1775 H 0.42768 0.71983 0.44374
 H1776 H 0.31192 0.68913 0.44872
 C1777 C 0.57589 0.77642 0.42181
 C1778 C 0.58527 0.79606 0.42069
 C1779 C 0.60513 0.80139 0.43113
 C1780 C 0.61511 0.81985 0.42478
 C1781 C 0.63358 0.82600 0.43426
 C1782 C 0.64244 0.81392 0.45054
 C1783 C 0.63275 0.79527 0.45673
 C1784 C 0.61415 0.78911 0.44727
 C1785 C 0.66191 0.82033 0.46094
 C1786 C 0.66686 0.84136 0.46303
 H1787 H 0.57848 0.80832 0.41105
 H1788 H 0.60864 0.82956 0.41231
 H1789 H 0.64100 0.84011 0.42858
 H1790 H 0.63936 0.78566 0.46919
 H1791 H 0.60687 0.77498 0.45298
 H1792 H 0.67168 0.80820 0.46784
 H1793 H 0.58362 0.76417 0.43083
 H1794 H 0.65514 0.85277 0.45811
 C1795 C 0.07120 0.27404 -0.07118
 C1796 C 0.08100 0.29349 -0.07182
 C1797 C 0.10122 0.29805 -0.06165
 C1798 C 0.11169 0.31624 -0.06800
 C1799 C 0.13065 0.32158 -0.05897
 C1800 C 0.13955 0.30897 -0.04310
 C1801 C 0.12934 0.29060 -0.03689
 C1802 C 0.11026 0.28523 -0.04593
 C1803 C 0.15956 0.31457 -0.03315
 C1804 C 0.16534 0.33538 -0.03107
 H1805 H 0.07443 0.30613 -0.08112
 H1806 H 0.10523 0.32634 -0.08017
 H1807 H 0.13842 0.33547 -0.06471
 H1808 H 0.13596 0.28058 -0.02475
 H1809 H 0.10263 0.27127 -0.04027
 H1810 H 0.16909 0.30205 -0.02660
 H1811 H 0.07851 0.26151 -0.06220
 H1812 H 0.15392 0.34721 -0.03569
 C1813 C 0.42413 0.28574 0.07540
 C1814 C 0.40859 0.27443 0.06550
 C1815 C 0.38783 0.28385 0.06059
 C1816 C 0.37633 0.27698 0.04357
 C1817 C 0.35667 0.28577 0.03881
 C1818 C 0.34809 0.30149 0.05119
 C1819 C 0.35934 0.30777 0.06859
 C1820 C 0.37894 0.29910 0.07326
 C1821 C 0.32754 0.31167 0.04691
 C1822 C 0.31806 0.31279 0.02728
 H1823 H 0.41142 0.25857 0.06098
 H1824 H 0.38266 0.26492 0.03386
 H1825 H 0.34821 0.27999 0.02567
 H1826 H 0.35299 0.31958 0.07860
 H1827 H 0.38692 0.30415 0.08702
 H1828 H 0.32074 0.31986 0.05970
 H1829 H 0.42121 0.30225 0.07717
 H1830 H 0.32556 0.30461 0.01477
 C1831 C 0.91797 0.78882 0.57750
 C1832 C 0.90311 0.77763 0.56653
 C1833 C 0.88256 0.78705 0.56088
 C1834 C 0.87247 0.78139 0.54257
 C1835 C 0.85326 0.79061 0.53686
 C1836 C 0.84374 0.80551 0.54959
 C1837 C 0.85349 0.81043 0.56830
 C1838 C 0.87265 0.80136 0.57389
 C1839 C 0.82376 0.81631 0.54426
 C1840 C 0.81607 0.81897 0.52398
 H1841 H 0.90653 0.76211 0.56130
 H1842 H 0.87962 0.77005 0.53253
 H1843 H 0.84592 0.78585 0.52267
 H1844 H 0.84636 0.82158 0.57856
 H1845 H 0.87957 0.80544 0.58854
 H1846 H 0.81587 0.82360 0.55701
 H1847 H 0.91455 0.80515 0.57991
 H1848 H 0.82428 0.81120 0.51162
   
