data_POSCAR
  _audit_creation_date              2014-09-24
  _audit_creation_method            'ToBaCCo'
  _symmetry_space_group_name_H-M    'P1'
  _symmetry_Int_Tables_number       1
  _symmetry_cell_setting            triclinic
  loop_
  _symmetry_equiv_pos_as_xyz
 x,y,z
_cell_length_a 49.0789
_cell_length_b 49.0852
_cell_length_c 49.0290
_cell_angle_alpha 89.999900
_cell_angle_beta 89.990500
_cell_angle_gamma 90.005700
loop_
  _atom_site_label
  _atom_site_type_symbol
  _atom_site_fract_x
  _atom_site_fract_y
  _atom_site_fract_z
C1 C 0.35934 1.36050 0.32556
 N2 N 0.37068 1.33799 0.33693
 C3 C 0.35946 1.32677 0.35960
 N4 N 0.33679 1.33796 0.37080
 C5 C 0.32543 1.36047 0.35945
 N6 N 0.33666 1.37169 0.33677
 C7 C 0.35915 0.86022 0.82655
 N8 N 0.33650 0.87143 0.83780
 C9 C 0.32520 0.86012 0.86039
 N10 N 0.33644 0.83748 0.87161
 C11 C 0.35908 0.82627 0.86036
 N12 N 0.37037 0.83759 0.83778
 C13 C 0.86017 1.36026 0.82544
 N14 N 0.83753 1.37149 0.83669
 C15 C 0.82631 1.36028 0.85937
 N16 N 0.83761 1.33773 0.87068
 C17 C 0.86024 1.32649 0.85945
 N18 N 0.87147 1.33770 0.83677
 C19 C 0.86027 0.86022 0.32550
 N20 N 0.83767 0.87148 0.33678
 C21 C 0.82637 0.86021 0.35938
 N22 N 0.83757 0.83755 0.37060
 C23 C 0.86017 0.82628 0.35934
 N24 N 0.87147 0.83756 0.33673
 C25 C 0.63974 0.63995 0.32534
 N26 N 0.66234 0.62867 0.33658
 C27 C 0.67366 0.63991 0.35919
 N28 N 0.66247 0.66256 0.37045
 C29 C 0.63987 0.67385 0.35922
 N30 N 0.62856 0.66260 0.33661
 C31 C 0.64105 0.13986 0.82539
 N32 N 0.62973 0.16239 0.83673
 C33 C 0.64094 0.17364 0.85938
 N34 N 0.66361 0.16246 0.87060
 C35 C 0.67496 0.13992 0.85929
 N36 N 0.66373 0.12867 0.83662
 C37 C 1.13906 0.63900 0.82705
 N38 N 1.16166 0.62773 0.83831
 C39 C 1.17293 0.63898 0.86093
 N40 N 1.16173 0.66163 0.87217
 C41 C 1.13913 0.67290 0.86090
 N42 N 1.12786 0.66164 0.83828
 C43 C 1.14110 0.13973 0.32543
 N44 N 1.12975 0.16227 0.33673
 C45 C 1.14095 0.17356 0.35936
 N46 N 1.16363 0.16242 0.37060
 C47 C 1.17500 0.13987 0.35932
 N48 N 1.16379 0.12858 0.33667
 C49 C 0.64116 1.36011 0.67486
 N50 N 0.66386 1.37128 0.66365
 C51 C 0.67511 1.36002 0.64100
 N52 N 0.66376 1.33748 0.62968
 C53 C 0.64107 1.32631 0.64088
 N54 N 0.62984 1.33757 0.66351
 C55 C 0.63920 0.86081 1.17302
 N56 N 0.66185 0.87201 1.16178
 C57 C 0.67316 0.86069 1.13922
 N58 N 0.66194 0.83803 1.12801
 C59 C 0.63929 0.82683 1.13925
 N60 N 0.62798 0.83816 1.16182
 C61 C 1.14061 1.36038 1.17423
 N62 N 1.16328 1.37159 1.16300
 C63 C 1.17454 1.36033 1.14036
 N64 N 1.16323 1.33777 1.12906
 C65 C 1.14057 1.32656 1.14028
 N66 N 1.12932 1.33782 1.16291
 C67 C 1.14089 0.86010 0.67353
 N68 N 1.16352 0.87137 0.66230
 C69 C 1.17485 0.86013 0.63970
 N70 N 1.16365 0.83748 0.62844
 C71 C 1.14102 0.82620 0.63966
 N72 N 1.12971 0.83747 0.66226
 C73 C 0.35916 0.63973 0.67334
 N74 N 0.37036 0.66238 0.66213
 C75 C 0.35907 0.67370 0.63955
 N76 N 0.33645 0.66246 0.62829
 C77 C 0.32523 0.63980 0.63950
 N78 N 0.33654 0.62849 0.66208
 C79 C 0.35936 0.13950 1.17448
 N80 N 0.37063 0.16204 1.16309
 C81 C 0.35939 0.17322 1.14043
 N82 N 0.33673 0.16198 1.12926
 C83 C 0.32542 0.13945 1.14062
 N84 N 0.33668 0.12826 1.16329
 C85 C 0.86052 0.63927 1.17299
 N86 N 0.87174 0.66192 1.16179
 C87 C 0.86044 0.67326 1.13923
 N88 N 0.83778 0.66207 1.12800
 C89 C 0.82656 0.63941 1.13920
 N90 N 0.83787 0.62808 1.16176
 C91 C 0.85918 0.13980 0.67487
 N92 N 0.87051 0.16232 0.66350
 C93 C 0.85929 0.17355 0.64084
 N94 N 0.83662 0.16236 0.62965
 C95 C 0.82525 0.13984 0.64099
 N96 N 0.83648 0.12861 0.66366
 C97 C 1.36036 0.35915 0.67450
 N98 N 1.37163 0.33653 0.66326
 C99 C 1.36043 0.32528 0.64059
 N100 N 1.33786 0.33656 0.62927
 C101 C 1.32659 0.35918 0.64050
 N102 N 1.33779 0.37041 0.66317
 C103 C 1.36058 0.85942 1.17337
 N104 N 1.37172 0.83668 1.16223
 C105 C 1.36040 0.82536 1.13965
 N106 N 1.33783 0.83667 1.12835
 C107 C 1.32671 0.85940 1.13950
 N108 N 1.33803 0.87070 1.16206
 C109 C 0.86023 0.36031 1.17433
 N110 N 0.83758 0.37152 1.16311
 C111 C 0.82632 0.36027 1.14047
 N112 N 0.83761 0.33770 1.12917
 C113 C 0.86026 0.32649 1.14039
 N114 N 0.87151 0.33773 1.16302
 C115 C 0.86069 0.86059 0.67309
 N116 N 0.83809 0.87184 0.66183
 C117 C 0.82681 0.86058 0.63922
 N118 N 0.83801 0.83793 0.62799
 C119 C 0.86062 0.82667 0.63925
 N120 N 0.87190 0.83794 0.66186
 C121 C 0.63948 0.63960 0.67319
 N122 N 0.62830 0.66226 0.66196
 C123 C 0.63961 0.67354 0.63937
 N124 N 0.66223 0.66227 0.62813
 C125 C 0.67341 0.63961 0.63935
 N126 N 0.66209 0.62834 0.66194
 C127 C 0.63995 1.14107 1.17469
 N128 N 0.62870 1.16368 1.16341
 C129 C 0.63995 1.17494 1.14077
 N130 N 0.66257 1.16369 1.12952
 C131 C 0.67383 1.14108 1.14079
 N132 N 0.66257 1.12984 1.16342
 C133 C 0.13977 0.64099 1.17469
 N134 N 0.16231 0.62970 1.16334
 C135 C 0.17359 0.64097 1.14073
 N136 N 0.16242 0.66368 1.12957
 C137 C 0.13987 0.67500 1.14090
 N138 N 0.12860 0.66370 1.16353
 C139 C 0.13933 1.14040 0.67314
 N140 N 0.12810 1.16306 0.66193
 C141 C 0.13936 1.17434 0.63930
 N142 N 0.16196 1.16308 0.62802
 C143 C 0.17317 1.14043 0.63923
 N144 N 0.16192 1.12916 0.66184
 C145 C 1.36049 0.63975 0.32564
 N146 N 1.37169 0.66243 0.33684
 C147 C 1.36044 0.67368 0.35949
 N148 N 1.33789 0.66237 0.37081
 C149 C 1.32670 0.63970 0.35962
 N150 N 1.33794 0.62846 0.33699
 C151 C 1.36040 1.14069 0.82548
 N152 N 1.37162 1.16334 0.83672
 C153 C 1.36038 1.17456 0.85940
 N154 N 1.33782 1.16323 0.87070
 C155 C 1.32660 1.14060 0.85946
 N156 N 1.33784 1.12938 0.83680
 C157 C 0.86013 0.63976 0.82640
 N158 N 0.87134 0.66240 0.83765
 C159 C 0.86004 0.67367 0.86025
 N160 N 0.83742 0.66242 0.87150
 C161 C 0.82621 0.63978 0.86026
 N162 N 0.83751 0.62851 0.83765
 C163 C 0.86059 1.14075 0.32568
 N164 N 0.87184 1.16338 0.33693
 C165 C 0.86058 1.17466 0.35956
 N166 N 0.83795 1.16342 0.37081
 C167 C 0.82670 1.14079 0.35957
 N168 N 0.83797 1.12952 0.33696
 C169 C 0.63907 0.35983 0.32718
 N170 N 0.66172 0.37106 0.33838
 C171 C 0.67305 0.35978 0.36096
 N172 N 0.66186 0.33714 0.37221
 C173 C 0.63921 0.32589 0.36101
 N174 N 0.62788 0.33718 0.33843
 C175 C 0.63937 0.86055 0.82683
 N176 N 0.66199 0.87177 0.83810
 C177 C 0.67324 0.86047 0.86071
 N178 N 0.66200 0.83783 0.87192
 C179 C 0.63937 0.82661 0.86064
 N180 N 0.62813 0.83792 0.83804
 C181 C 0.13979 0.35878 0.82514
 N182 N 0.16235 0.37006 0.83647
 C183 C 0.17356 0.35884 0.85913
 N184 N 0.16232 0.33621 0.87036
 C185 C 0.13976 0.32490 0.85906
 N186 N 0.12854 0.33613 0.83638
 C187 C 0.13965 0.86041 0.32574
 N188 N 0.16221 0.87173 0.33705
 C189 C 0.17348 0.86049 0.35968
 N190 N 0.16230 0.83782 0.37089
 C191 C 0.13975 0.82649 0.35959
 N192 N 0.12848 0.83773 0.33696
 O193 O 0.97361 0.90202 0.86438
 O194 O 0.97353 0.87036 0.83246
 C195 C 0.96429 0.89252 0.84217
 C196 C 0.94203 0.90708 0.82789
 C197 C 0.93265 0.89800 0.80239
 H198 H 0.94221 0.88070 0.79253
 O199 O 1.02659 1.09836 0.86432
 O200 O 1.02668 1.13003 0.83241
 C201 C 1.03592 1.10787 0.84211
 C202 C 1.05822 1.09335 0.82785
 C203 C 1.06762 1.10246 0.80238
 H204 H 1.05805 1.11975 0.79251
 O205 O 0.86427 0.97389 0.90171
 O206 O 0.83241 0.97374 0.86999
 C207 C 0.84210 0.96453 0.89218
 C208 C 0.82787 0.94226 0.90677
 C209 C 0.80241 0.93280 0.89770
 H210 H 0.79253 0.94230 0.88036
 O211 O 1.13610 1.02666 0.90170
 O212 O 1.16794 1.02667 0.86996
 C213 C 1.15828 1.03596 0.89214
 C214 C 1.17255 1.05827 0.90663
 C215 C 1.19793 1.06779 0.89740
 H216 H 1.20773 1.05830 0.88001
 O217 O 0.90176 0.86469 0.97358
 O218 O 0.87004 0.83286 0.97361
 C219 C 0.89219 0.84251 0.96428
 C220 C 0.90665 0.82823 0.94195
 C221 C 0.89748 0.80281 0.93250
 H222 H 0.88014 0.79300 0.94205
 O223 O 1.09878 1.13587 0.97340
 O224 O 1.13044 1.16775 0.97334
 C225 C 1.10830 1.15805 0.96403
 C226 C 1.09381 1.17225 0.94165
 C227 C 1.10305 1.19758 0.93198
 H228 H 1.12047 1.20738 0.94139
 O229 O 0.90149 1.02703 0.86427
 O230 O 0.86981 1.02696 0.83237
 C231 C 0.89195 1.03629 0.84205
 C232 C 0.90641 1.05860 0.82775
 C233 C 0.89711 1.06817 0.80240
 H234 H 0.87969 1.05872 0.79265
 O235 O 1.09871 0.97355 0.86437
 O236 O 1.13039 0.97351 0.83247
 C237 C 1.10823 0.96424 0.84215
 C238 C 1.09371 0.94197 0.82787
 C239 C 1.10291 0.93246 0.80246
 H240 H 1.12029 0.94194 0.79265
 O241 O 1.02664 0.86453 0.90169
 O242 O 1.02661 0.83268 0.86996
 C243 C 1.03588 0.84231 0.89216
 C244 C 1.05806 0.82795 0.90676
 C245 C 1.06738 0.80244 0.89770
 H246 H 1.05785 0.79263 0.88034
 O247 O 0.97355 1.13579 0.90167
 O248 O 0.97357 1.16765 0.86996
 C249 C 0.96428 1.15799 0.89214
 C250 C 0.94200 1.17227 0.90666
 C251 C 0.93255 1.19768 0.89748
 H252 H 0.94207 1.20748 0.88010
 O253 O 0.86409 1.09870 0.97350
 O254 O 0.83234 1.13048 0.97354
 C255 C 0.84194 1.10832 0.96419
 C256 C 0.82767 1.09390 0.94180
 C257 C 0.80235 1.10319 0.93216
 H258 H 0.79257 1.12060 0.94161
 O259 O 1.13575 0.90145 0.97359
 O260 O 1.16759 0.86974 0.97352
 C261 C 1.15792 0.89190 0.96424
 C262 C 1.17219 0.90640 0.94190
 C263 C 1.19757 0.89717 0.93236
 H264 H 1.20733 0.87976 0.94182
 O265 O 0.97342 1.09868 0.86411
 O266 O 0.97344 1.13038 0.83223
 C267 C 0.96410 1.10826 0.84191
 C268 C 0.94172 1.09383 0.82767
 C269 C 0.93209 1.10310 0.80231
 H270 H 0.94154 1.12048 0.79249
 O271 O 1.02677 0.90180 0.86430
 O272 O 1.02676 0.87013 0.83240
 C273 C 1.03608 0.89226 0.84209
 C274 C 1.05841 0.90673 0.82784
 C275 C 1.06793 0.89755 0.80242
 H276 H 1.05844 0.88019 0.79259
 O277 O 1.13596 0.97349 0.90176
 O278 O 1.16781 0.97343 0.87003
 C279 C 1.15812 0.96414 0.89220
 C280 C 1.17231 0.94176 0.90668
 C281 C 1.19768 0.93220 0.89746
 H282 H 1.20752 0.94170 0.88010
 O283 O 0.86416 1.02704 0.90159
 O284 O 0.83232 1.02696 0.86987
 C285 C 0.84197 1.03631 0.89202
 C286 C 0.82770 1.05864 0.90649
 C287 C 0.80239 1.06824 0.89717
 H288 H 0.79263 1.05878 0.87974
 O289 O 0.90159 1.13583 0.97352
 O290 O 0.87001 1.16779 0.97356
 C291 C 0.89213 1.15806 0.96424
 C292 C 0.90669 1.17231 0.94193
 C293 C 0.89756 1.19772 0.93242
 H294 H 0.88019 1.20755 0.94190
 O295 O 1.09831 0.86426 0.97374
 O296 O 1.12997 0.83238 0.97367
 C297 C 1.10781 0.84206 0.96442
 C298 C 1.09324 0.82782 0.94214
 C299 C 1.10224 0.80232 0.93276
 H300 H 1.11950 0.79241 0.94235
 O301 O 1.09869 1.02668 0.86443
 O302 O 1.13035 1.02670 0.83251
 C303 C 1.10819 1.03597 0.84220
 C304 C 1.09361 1.05821 0.82790
 C305 C 1.10270 1.06766 0.80242
 H306 H 1.12008 1.05820 0.79258
 O307 O 0.90162 0.97389 0.86438
 O308 O 0.86995 0.97375 0.83248
 C309 C 0.89212 0.96454 0.84217
 C310 C 0.90671 0.94230 0.82790
 C311 C 0.89766 0.93289 0.80240
 H312 H 0.88033 0.94239 0.79254
 O313 O 1.02672 1.13581 0.90152
 O314 O 1.02679 1.16765 0.86978
 C315 C 1.03609 1.15796 0.89195
 C316 C 1.05846 1.17219 0.90640
 C317 C 1.06803 1.19752 0.89708
 H318 H 1.05853 1.20728 0.87968
 O319 O 0.97352 0.86460 0.90160
 O320 O 0.97342 0.83276 0.86986
 C321 C 0.96417 0.84243 0.89205
 C322 C 0.94187 0.82820 0.90659
 C323 C 0.93237 0.80278 0.89746
 H324 H 0.94185 0.79294 0.88009
 O325 O 1.13609 1.09856 0.97351
 O326 O 1.16793 1.13027 0.97347
 C327 C 1.15828 1.10810 0.96420
 C328 C 1.17255 1.09357 0.94190
 C329 C 1.19793 1.10277 0.93235
 H330 H 1.20773 1.12017 0.94181
 O331 O 0.86448 0.90202 0.97363
 O332 O 0.83260 0.87036 0.97367
 C333 C 0.84227 0.89250 0.96437
 C334 C 0.82796 0.90702 0.94209
 C335 C 0.80249 0.89789 0.93271
 H336 H 0.79268 0.88055 0.94227
 Cu337 Cu 1.00015 0.88641 0.88617
 Cu338 Cu 1.00007 0.84830 0.84796
 Cu339 Cu 1.00006 1.11398 0.88608
 Cu340 Cu 1.00013 1.15212 0.84790
 Cu341 Cu 0.88606 1.00047 0.88617
 Cu342 Cu 0.84793 1.00033 0.84798
 Cu343 Cu 1.11420 1.00010 0.88625
 Cu344 Cu 1.15232 1.00008 0.84805
 C345 C 0.92910 0.92942 0.84035
 H346 H 0.93596 0.93630 0.86019
 C347 C 0.91061 0.91088 0.78969
 C348 C 1.07118 1.07103 0.84032
 H349 H 1.06429 1.06413 0.86014
 C350 C 1.08972 1.08965 0.78970
 C351 C 0.84034 0.92940 0.92916
 H352 H 0.86014 0.93631 0.93602
 C353 C 0.78977 0.91075 0.91066
 C354 C 1.16017 1.07113 0.92907
 H355 H 1.14042 1.06416 0.93606
 C356 C 1.21057 1.08991 0.91023
 C357 C 0.92904 0.84062 0.92903
 H358 H 0.93599 0.86039 0.93595
 C359 C 0.91031 0.79013 0.91039
 C360 C 1.07132 1.15986 0.92887
 H361 H 1.06431 1.14016 0.93594
 C362 C 1.09019 1.21016 0.90983
 C363 C 0.92890 1.07140 0.84008
 H364 H 0.93595 1.06437 0.85980
 C365 C 0.90991 1.09028 0.78972
 C366 C 1.07127 0.92913 0.84026
 H367 H 1.06431 0.93609 0.86003
 C368 C 1.09005 0.91039 0.78978
 C369 C 1.07096 0.84034 0.92917
 H370 H 1.06415 0.86018 0.93603
 C371 C 1.08933 0.78967 0.91068
 C372 C 0.92910 1.15989 0.92908
 H373 H 0.93602 1.14012 0.93604
 C374 C 0.91047 1.21036 0.91032
 C375 C 0.84003 1.07144 0.92899
 H376 H 0.85972 1.06440 0.93604
 C377 C 0.78975 1.09038 0.90997
 C378 C 1.15987 0.92888 0.92909
 H379 H 1.14013 0.93588 0.93607
 C380 C 1.21026 0.91004 0.91028
 O381 O 1.02682 0.90184 1.13614
 O382 O 1.02678 0.87019 1.16807
 C383 C 1.03610 0.89232 1.15836
 C384 C 1.05842 0.90681 1.17262
 C385 C 1.06792 0.89763 1.19804
 H386 H 1.05839 0.88030 1.20788
 O387 O 0.97380 1.09858 1.13634
 O388 O 0.97381 1.13036 1.16814
 C389 C 0.96450 1.10819 1.15853
 C390 C 0.94216 1.09376 1.17283
 C391 C 0.93262 1.10305 1.19820
 H392 H 0.94213 1.12043 1.20798
 O393 O 0.86449 1.02707 1.09900
 O394 O 0.83262 1.02705 1.13071
 C395 C 0.84229 1.03636 1.10854
 C396 C 0.82800 1.05863 1.09400
 C397 C 0.80264 1.06820 1.10325
 H398 H 0.79288 1.05880 1.12071
 O399 O 1.13601 0.97360 1.09865
 O400 O 1.16792 0.97352 1.13031
 C401 C 1.15820 0.96426 1.10814
 C402 C 1.17241 0.94196 1.09357
 C403 C 1.19785 0.93246 1.10265
 H404 H 1.20774 0.94196 1.11999
 O405 O 1.09858 0.86416 1.02697
 O406 O 1.13027 0.83230 1.02696
 C407 C 1.10815 0.84199 1.03631
 C408 C 1.09372 0.82779 1.05874
 C409 C 1.10298 0.80247 1.06840
 H410 H 1.12036 0.79266 1.05894
 O411 O 0.90170 1.13572 1.02673
 O412 O 0.87012 1.16768 1.02684
 C413 C 0.89225 1.15792 1.03609
 C414 C 0.90684 1.17213 1.05841
 C415 C 0.89773 1.19756 1.06789
 H416 H 0.88039 1.20741 1.05839
 O417 O 0.90182 0.97385 1.13625
 O418 O 0.87012 0.97376 1.16813
 C419 C 0.89227 0.96449 1.15843
 C420 C 0.90675 0.94213 1.17266
 C421 C 0.89752 0.93257 1.19805
 H422 H 0.88015 0.94204 1.20787
 O423 O 1.09880 1.02676 1.13608
 O424 O 1.13054 1.02675 1.16792
 C425 C 1.10838 1.03606 1.15827
 C426 C 1.09394 1.05840 1.17256
 C427 C 1.10325 1.06796 1.19792
 H428 H 1.12065 1.05847 1.20768
 O429 O 0.97371 0.86455 1.09875
 O430 O 0.97359 0.83270 1.13048
 C431 C 0.96437 0.84238 1.10828
 C432 C 0.94211 0.82813 1.09369
 C433 C 0.93270 0.80265 1.10272
 H434 H 0.94222 0.79276 1.12004
 O435 O 1.02691 1.13579 1.09878
 O436 O 1.02695 1.16773 1.13041
 C437 C 1.03621 1.15802 1.10824
 C438 C 1.05845 1.17229 1.09364
 C439 C 1.06793 1.19772 1.10278
 H440 H 1.05847 1.20753 1.12017
 O441 O 0.86461 0.90208 1.02683
 O442 O 0.83272 0.87042 1.02692
 C443 C 0.84242 0.89258 1.03617
 C444 C 0.82815 0.90713 1.05845
 C445 C 0.80264 0.89807 1.06779
 H446 H 0.79280 0.88077 1.05820
 O447 O 1.13608 1.09867 1.02673
 O448 O 1.16791 1.13038 1.02676
 C449 C 1.15825 1.10823 1.03607
 C450 C 1.17249 1.09374 1.05844
 C451 C 1.19786 1.10295 1.06803
 H452 H 1.20766 1.12035 1.05859
 O453 O 1.02698 1.09856 1.13623
 O454 O 1.02706 1.13033 1.16803
 C455 C 1.03634 1.10816 1.15839
 C456 C 1.05870 1.09370 1.17263
 C457 C 1.06834 1.10295 1.19799
 H458 H 1.05892 1.12035 1.20780
 O459 O 0.97365 0.90182 1.13615
 O460 O 0.97354 0.87015 1.16806
 C461 C 0.96429 0.89230 1.15835
 C462 C 0.94198 0.90682 1.17261
 C463 C 0.93242 0.89759 1.19800
 H464 H 0.94187 0.88019 1.20779
 O465 O 1.13603 1.02677 1.09866
 O466 O 1.16793 1.02675 1.13033
 C467 C 1.15823 1.03607 1.10818
 C468 C 1.17247 1.05841 1.09369
 C469 C 1.19783 1.06794 1.10294
 H470 H 1.20762 1.05843 1.12033
 O471 O 0.86454 0.97393 1.09889
 O472 O 0.83265 0.97384 1.13058
 C473 C 0.84234 0.96461 1.10839
 C474 C 0.82809 0.94236 1.09379
 C475 C 0.80259 0.93297 1.10281
 H476 H 0.79270 0.94249 1.12013
 O477 O 1.09867 1.13588 1.02663
 O478 O 1.13032 1.16777 1.02665
 C479 C 1.10817 1.15807 1.03594
 C480 C 1.09365 1.17232 1.05825
 C481 C 1.10280 1.19775 1.06772
 H482 H 1.12013 1.20758 1.05818
 O483 O 0.90186 0.86471 1.02678
 O484 O 0.87014 0.83288 1.02686
 C485 C 0.89233 0.84252 1.03611
 C486 C 0.90687 0.82822 1.05836
 C487 C 0.89778 0.80273 1.06771
 H488 H 0.88047 0.79290 1.05813
 O489 O 1.09875 0.97361 1.13607
 O490 O 1.13048 0.97353 1.16791
 C491 C 1.10830 0.96428 1.15827
 C492 C 1.09377 0.94201 1.17257
 C493 C 1.10294 0.93250 1.19799
 H494 H 1.12033 0.94196 1.20780
 O495 O 0.90180 1.02701 1.13636
 O496 O 0.87011 1.02701 1.16825
 C497 C 0.89227 1.03630 1.15858
 C498 C 0.90679 1.05859 1.17286
 C499 C 0.89756 1.06820 1.19823
 H500 H 0.88014 1.05880 1.20803
 O501 O 0.97375 1.13566 1.09877
 O502 O 0.97374 1.16761 1.13040
 C503 C 0.96444 1.15787 1.10825
 C504 C 0.94213 1.17210 1.09370
 C505 C 0.93269 1.19754 1.10285
 H506 H 0.94221 1.20737 1.12020
 O507 O 1.02687 0.86438 1.09895
 O508 O 1.02681 0.83256 1.13071
 C509 C 1.03615 0.84220 1.10854
 C510 C 1.05848 0.82790 1.09409
 C511 C 1.06805 0.80258 1.10342
 H512 H 1.05860 0.79285 1.12086
 O513 O 1.13572 0.90163 1.02679
 O514 O 1.16758 0.86995 1.02678
 C515 C 1.15793 0.89212 1.03605
 C516 C 1.17226 0.90667 1.05829
 C517 C 1.19770 0.89751 1.06768
 H518 H 1.20748 0.88015 1.05815
 O519 O 0.86424 1.09858 1.02674
 O520 O 0.83248 1.13036 1.02686
 C521 C 0.84211 1.10818 1.03613
 C522 C 0.82790 1.09375 1.05854
 C523 C 0.80255 1.10300 1.06812
 H524 H 0.79272 1.12033 1.05858
 Cu525 Cu 1.00027 0.88632 1.11432
 Cu526 Cu 1.00016 0.84822 1.15253
 Cu527 Cu 1.00037 1.11396 1.11437
 Cu528 Cu 1.00039 1.15221 1.15243
 Cu529 Cu 0.88636 0.88655 1.00020
 Cu530 Cu 0.84818 0.84844 1.00028
 Cu531 Cu 1.11391 0.88604 1.00028
 Cu532 Cu 1.15204 0.84790 1.00022
 Cu533 Cu 0.88606 1.11401 1.00010
 Cu534 Cu 0.84805 1.15228 1.00021
 Cu535 Cu 1.11423 1.11407 1.00007
 Cu536 Cu 1.15234 1.15224 1.00005
 Cu537 Cu 0.88634 1.00048 1.11445
 Cu538 Cu 0.84818 1.00041 1.15262
 Cu539 Cu 1.11422 1.00018 1.11419
 Cu540 Cu 1.15242 1.00013 1.15230
 C541 C 1.07132 0.92919 1.16018
 H542 H 1.06437 0.93614 1.14041
 C543 C 1.09004 0.91045 1.21068
 C544 C 0.92928 1.07134 1.16047
 H545 H 0.93627 1.06431 1.14073
 C546 C 0.91046 1.09030 1.21086
 C547 C 0.84032 1.07138 1.07146
 H548 H 0.86005 1.06438 1.06445
 C549 C 0.78996 1.09025 1.09033
 C550 C 1.15992 0.92908 1.07120
 H551 H 1.14012 0.93602 1.06432
 C552 C 1.21045 0.91038 1.08972
 C553 C 1.07128 0.84020 1.07157
 H554 H 1.06426 0.85989 1.06449
 C555 C 1.09017 0.78991 1.09061
 C556 C 0.92923 1.15969 1.07129
 H557 H 0.93613 1.13991 1.06435
 C558 C 0.91063 1.21021 1.08997
 C559 C 0.92917 0.92928 1.16024
 H560 H 0.93617 0.93628 1.14049
 C561 C 0.91033 0.91043 1.21067
 C562 C 1.07148 1.07124 1.16023
 H563 H 1.06443 1.06423 1.14051
 C564 C 1.09048 1.09009 1.21059
 C565 C 0.92922 0.84062 1.07132
 H566 H 0.93611 0.86044 1.06448
 C567 C 0.91067 0.78999 1.08974
 C568 C 1.07128 1.15989 1.07119
 H569 H 1.06435 1.14012 1.06426
 C570 C 1.08997 1.21039 1.08984
 C571 C 0.84057 0.92946 1.07141
 H572 H 0.86041 0.93633 1.06457
 C573 C 0.78991 0.91096 1.08982
 C574 C 1.16010 1.07128 1.07125
 H575 H 1.14037 1.06429 1.06424
 C576 C 1.21048 1.09007 1.09015
 O577 O 0.97361 0.40124 0.36386
 O578 O 0.97356 0.36953 0.33199
 C579 C 0.96427 0.39168 0.34168
 C580 C 0.94194 0.40617 0.32745
 C581 C 0.93242 0.39701 0.30202
 H582 H 0.94192 0.37968 0.29215
 O583 O 1.02684 0.59820 0.36393
 O584 O 1.02679 0.62988 0.33203
 C585 C 1.03612 0.60775 0.34171
 C586 C 1.05844 0.59331 0.32740
 C587 C 1.06801 0.60266 0.30206
 H588 H 1.05854 0.62009 0.29233
 O589 O 0.86438 0.47297 0.40155
 O590 O 0.83253 0.47292 0.36983
 C591 C 0.84219 0.46366 0.39202
 C592 C 0.82792 0.44141 0.40660
 C593 C 0.80243 0.43202 0.39756
 H594 H 0.79256 0.44155 0.38023
 O595 O 1.13582 0.52621 0.40110
 O596 O 1.16770 0.52627 0.36940
 C597 C 1.15803 0.53551 0.39159
 C598 C 1.17232 0.55774 0.40618
 C599 C 1.19776 0.56719 0.39705
 H600 H 1.20757 0.55771 0.37966
 O601 O 0.90172 0.36380 0.47335
 O602 O 0.87006 0.33191 0.47327
 C603 C 0.89220 0.34163 0.46397
 C604 C 0.90671 0.32745 0.44158
 C605 C 0.89751 0.30208 0.43199
 H606 H 0.88014 0.29225 0.44146
 O607 O 1.09871 0.63537 0.47318
 O608 O 1.13043 0.66718 0.47311
 C609 C 1.10826 0.65754 0.46385
 C610 C 1.09373 0.67182 0.44155
 C611 C 1.10286 0.69725 0.43207
 H612 H 1.12023 0.70707 0.44155
 O613 O 0.90176 0.52606 0.36421
 O614 O 0.87010 0.52608 0.33229
 C615 C 0.89226 0.53535 0.34198
 C616 C 0.90683 0.55760 0.32769
 C617 C 0.89775 0.56698 0.30219
 H618 H 0.88043 0.55745 0.29234
 O619 O 1.09850 0.47314 0.36367
 O620 O 1.13020 0.47314 0.33178
 C621 C 1.10804 0.46384 0.34146
 C622 C 1.09357 0.44152 0.32720
 C623 C 1.10281 0.43199 0.30181
 H624 H 1.12017 0.44150 0.29200
 O625 O 1.02679 0.36399 0.40121
 O626 O 1.02681 0.33211 0.36953
 C627 C 1.03610 0.34180 0.39169
 C628 C 1.05841 0.32757 0.40622
 C629 C 1.06794 0.30218 0.39702
 H630 H 1.05846 0.29237 0.37963
 O631 O 0.97362 0.63547 0.40128
 O632 O 0.97355 0.66729 0.36953
 C633 C 0.96428 0.65763 0.39171
 C634 C 0.94195 0.67187 0.40620
 C635 C 0.93245 0.69727 0.39700
 H636 H 0.94197 0.70709 0.37964
 O637 O 0.86431 0.59810 0.47308
 O638 O 0.83244 0.62976 0.47309
 C639 C 0.84211 0.60762 0.46379
 C640 C 0.82784 0.59310 0.44149
 C641 C 0.80247 0.60229 0.43193
 H642 H 0.79267 0.61969 0.44139
 O643 O 1.13603 0.40134 0.47308
 O644 O 1.16787 0.36964 0.47302
 C645 C 1.15819 0.39178 0.46372
 C646 C 1.17240 0.40626 0.44132
 C647 C 1.19778 0.39707 0.43175
 H648 H 1.20762 0.37973 0.44125
 O649 O 0.97369 0.59796 0.36413
 O650 O 0.97359 0.62962 0.33220
 C651 C 0.96436 0.60745 0.34191
 C652 C 0.94210 0.59287 0.32766
 C653 C 0.93270 0.60192 0.30216
 H654 H 0.94223 0.61924 0.29228
 O655 O 1.02678 0.40120 0.36375
 O656 O 1.02679 0.36949 0.33188
 C657 C 1.03608 0.39165 0.34154
 C658 C 1.05838 0.40616 0.32723
 C659 C 1.06795 0.39695 0.30183
 H660 H 1.05853 0.37954 0.29204
 O661 O 1.13584 0.47308 0.40098
 O662 O 1.16771 0.47307 0.36927
 C663 C 1.15803 0.46377 0.39144
 C664 C 1.17230 0.44147 0.40595
 C665 C 1.19769 0.43197 0.39672
 H666 H 1.20746 0.44144 0.37931
 O667 O 0.86427 0.52612 0.40137
 O668 O 0.83244 0.52613 0.36962
 C669 C 0.84209 0.53543 0.39179
 C670 C 0.82783 0.55777 0.40626
 C671 C 0.80246 0.56728 0.39702
 H672 H 0.79265 0.55777 0.37965
 O673 O 0.90165 0.63538 0.47305
 O674 O 0.86995 0.66722 0.47306
 C675 C 0.89210 0.65756 0.46375
 C676 C 0.90661 0.67184 0.44144
 C677 C 0.89743 0.69724 0.43192
 H678 H 0.88005 0.70703 0.44140
 O679 O 1.09870 0.36404 0.47316
 O680 O 1.13036 0.33217 0.47309
 C681 C 1.10821 0.34185 0.46383
 C682 C 1.09368 0.32760 0.44152
 C683 C 1.10288 0.30221 0.43200
 H684 H 1.12026 0.29242 0.44148
 O685 O 1.09862 0.52632 0.36364
 O686 O 1.13033 0.52639 0.33176
 C687 C 1.10819 0.53568 0.34146
 C688 C 1.09372 0.55806 0.32725
 C689 C 1.10298 0.56775 0.30191
 H690 H 1.12038 0.55834 0.29208
 O691 O 0.90160 0.47293 0.36409
 O692 O 0.86992 0.47289 0.33219
 C693 C 0.89208 0.46362 0.34187
 C694 C 0.90660 0.44136 0.32756
 C695 C 0.89741 0.43189 0.30213
 H696 H 0.88002 0.44137 0.29235
 O697 O 1.02679 0.63540 0.40138
 O698 O 1.02677 0.66725 0.36965
 C699 C 1.03608 0.65758 0.39182
 C700 C 1.05839 0.67185 0.40632
 C701 C 1.06784 0.69727 0.39716
 H702 H 1.05829 0.70710 0.37982
 O703 O 0.97362 0.36397 0.40125
 O704 O 0.97357 0.33209 0.36955
 C705 C 0.96429 0.34178 0.39172
 C706 C 0.94198 0.32752 0.40625
 C707 C 0.93245 0.30216 0.39700
 H708 H 0.94192 0.29239 0.37959
 O709 O 1.13593 0.59797 0.47320
 O710 O 1.16784 0.62961 0.47314
 C711 C 1.15813 0.60747 0.46387
 C712 C 1.17237 0.59294 0.44155
 C713 C 1.19781 0.60205 0.43210
 H714 H 1.20766 0.61937 0.44164
 O715 O 0.86443 0.40113 0.47349
 O716 O 0.83259 0.36942 0.47342
 C717 C 0.84224 0.39160 0.46418
 C718 C 0.82794 0.40616 0.44192
 C719 C 0.80246 0.39710 0.43256
 H720 H 0.79261 0.37979 0.44213
 Cu721 Cu 1.00021 0.38578 0.38569
 Cu722 Cu 1.00018 0.34761 0.34755
 Cu723 Cu 1.00024 0.61359 0.38586
 Cu724 Cu 1.00016 0.65170 0.34765
 Cu725 Cu 0.88617 0.49952 0.38599
 Cu726 Cu 0.84805 0.49950 0.34779
 Cu727 Cu 1.11401 0.49969 0.38551
 Cu728 Cu 1.15218 0.49972 0.34735
 C729 C 0.92905 0.42853 0.33992
 H730 H 0.93602 0.43547 0.35970
 C731 C 0.91029 0.40985 0.28941
 C732 C 1.07127 0.57083 0.33969
 H733 H 1.06425 0.56374 0.35940
 C734 C 1.09014 0.58992 0.28936
 C735 C 0.84037 0.42851 0.42898
 H736 H 0.86020 0.43538 0.43583
 C737 C 0.78975 0.41000 0.41052
 C738 C 1.15992 0.57059 0.42863
 H739 H 1.14013 0.56369 0.43554
 C740 C 1.21046 0.58920 0.40999
 C741 C 0.92913 0.33987 0.42873
 H742 H 0.93611 0.35960 0.43574
 C743 C 0.91035 0.28949 0.40984
 C744 C 1.07130 0.65943 0.42871
 H745 H 1.06438 0.63965 0.43565
 C746 C 1.08993 0.70993 0.41001
 C747 C 0.92919 0.57051 0.34013
 H748 H 0.93607 0.56365 0.35996
 C749 C 0.91067 0.58900 0.28947
 C750 C 1.07117 0.42864 0.33960
 H751 H 1.06417 0.43562 0.35936
 C752 C 1.09004 0.40984 0.28917
 C753 C 1.07126 0.33997 0.42866
 H754 H 1.06429 0.35972 0.43562
 C755 C 1.09004 0.28956 0.40989
 C756 C 0.92906 0.65947 0.42861
 H757 H 0.93602 0.63971 0.43557
 C758 C 0.91033 0.70990 0.40984
 C759 C 0.84022 0.57065 0.42868
 H760 H 0.85996 0.56368 0.43567
 C761 C 0.78982 0.58941 0.40984
 C762 C 1.15996 0.42865 0.42844
 H763 H 1.14022 0.43561 0.43544
 C764 C 1.21038 0.40991 0.40959
 O765 O 1.02679 0.40116 0.63585
 O766 O 1.02684 0.36944 0.66771
 C767 C 1.03614 0.39159 0.65803
 C768 C 1.05850 0.40603 0.67228
 C769 C 1.06807 0.39673 0.69764
 H770 H 1.05857 0.37935 0.70743
 O771 O 0.97359 0.59814 0.63533
 O772 O 0.97354 0.62979 0.66726
 C773 C 0.96427 0.60765 0.65755
 C774 C 0.94198 0.59311 0.67183
 C775 C 0.93253 0.60227 0.69728
 H776 H 0.94202 0.61963 0.70709
 O777 O 0.86439 0.52600 0.59820
 O778 O 0.83256 0.52613 0.62996
 C779 C 0.84222 0.53535 0.60775
 C780 C 0.82797 0.55763 0.59319
 C781 C 0.80252 0.56707 0.60231
 H782 H 0.79266 0.55755 0.61965
 O783 O 1.13604 0.47295 0.59833
 O784 O 1.16788 0.47299 0.63007
 C785 C 1.15824 0.46368 0.60788
 C786 C 1.17253 0.44141 0.59335
 C787 C 1.19790 0.43187 0.60258
 H788 H 1.20767 0.44132 0.62001
 O789 O 1.09872 0.36408 0.52637
 O790 O 1.13038 0.33220 0.52637
 C791 C 1.10823 0.34189 0.53568
 C792 C 1.09371 0.32762 0.55801
 C793 C 1.10284 0.30219 0.56747
 H794 H 1.12019 0.29237 0.55795
 O795 O 0.90168 0.63539 0.52624
 O796 O 0.86999 0.66723 0.52632
 C797 C 0.89216 0.65758 0.53557
 C798 C 0.90674 0.67187 0.55782
 C799 C 0.89766 0.69733 0.56724
 H800 H 0.88031 0.70716 0.55773
 O801 O 0.90171 0.47293 0.63568
 O802 O 0.87005 0.47300 0.66761
 C803 C 0.89219 0.46368 0.65793
 C804 C 0.90669 0.44140 0.67224
 C805 C 0.89747 0.43190 0.69765
 H806 H 0.88009 0.44139 0.70744
 O807 O 1.09853 0.52599 0.63558
 O808 O 1.13016 0.52611 0.66752
 C809 C 1.10800 0.53533 0.65780
 C810 C 1.09340 0.55758 0.67204
 C811 C 1.10237 0.56694 0.69759
 H812 H 1.11963 0.55738 0.70751
 O813 O 0.97361 0.36383 0.59852
 O814 O 0.97362 0.33196 0.63022
 C815 C 0.96432 0.34163 0.60805
 C816 C 0.94202 0.32736 0.59354
 C817 C 0.93246 0.30200 0.60280
 H818 H 0.94191 0.29223 0.62023
 O819 O 1.02683 0.63553 0.59816
 O820 O 1.02686 0.66733 0.62993
 C821 C 1.03616 0.65769 0.60776
 C822 C 1.05851 0.67193 0.59328
 C823 C 1.06807 0.69731 0.60248
 H824 H 1.05859 0.70714 0.61986
 O825 O 0.86431 0.40089 0.52670
 O826 O 0.83249 0.36916 0.52670
 C827 C 0.84214 0.39131 0.53603
 C828 C 0.82790 0.40577 0.55841
 C829 C 0.80258 0.39650 0.56809
 H830 H 0.79279 0.37907 0.55870
 O831 O 1.13594 0.59802 0.52643
 O832 O 1.16784 0.62966 0.52642
 C833 C 1.15813 0.60754 0.53574
 C834 C 1.17237 0.59306 0.55810
 C835 C 1.19774 0.60230 0.56764
 H836 H 1.20753 0.61967 0.55814
 O837 O 1.02673 0.59803 0.63532
 O838 O 1.02673 0.62965 0.66727
 C839 C 1.03599 0.60750 0.65758
 C840 C 1.05818 0.59290 0.67191
 C841 C 1.06747 0.60192 0.69746
 H842 H 1.05791 0.61924 0.70730
 O843 O 0.97361 0.40119 0.63583
 O844 O 0.97360 0.36949 0.66770
 C845 C 0.96430 0.39164 0.65803
 C846 C 0.94197 0.40613 0.67229
 C847 C 0.93242 0.39695 0.69771
 H848 H 0.94189 0.37959 0.70754
 O849 O 1.13601 0.52610 0.59840
 O850 O 1.16783 0.52622 0.63015
 C851 C 1.15816 0.53548 0.60796
 C852 C 1.17239 0.55782 0.59345
 C853 C 1.19775 0.56739 0.60267
 H854 H 1.20756 0.55795 0.62007
 O855 O 0.86434 0.47283 0.59839
 O856 O 0.83252 0.47290 0.63016
 C857 C 0.84217 0.46353 0.60801
 C858 C 0.82792 0.44115 0.59361
 C859 C 0.80261 0.43157 0.60296
 H860 H 0.79284 0.44108 0.62036
 O861 O 1.09871 0.63539 0.52638
 O862 O 1.13044 0.66721 0.52638
 C863 C 1.10828 0.65757 0.53568
 C864 C 1.09379 0.67186 0.55799
 C865 C 1.10302 0.69724 0.56750
 H866 H 1.12041 0.70701 0.55800
 O867 O 0.90179 0.36375 0.52658
 O868 O 0.87014 0.33185 0.52657
 C869 C 0.89228 0.34154 0.53588
 C870 C 0.90678 0.32730 0.55821
 C871 C 0.89755 0.30195 0.56779
 H872 H 0.88017 0.29215 0.55832
 O873 O 1.09881 0.47284 0.63578
 O874 O 1.13047 0.47288 0.66769
 C875 C 1.10834 0.46355 0.65800
 C876 C 1.09386 0.44121 0.67227
 C877 C 1.10312 0.43158 0.69763
 H878 H 1.12055 0.44099 0.70742
 O879 O 0.90175 0.52609 0.63551
 O880 O 0.87009 0.52622 0.66743
 C881 C 0.89224 0.53547 0.65770
 C882 C 0.90676 0.55779 0.67191
 C883 C 0.89763 0.56728 0.69736
 H884 H 0.88030 0.55777 0.70723
 O885 O 0.97367 0.63547 0.59800
 O886 O 0.97363 0.66729 0.62976
 C887 C 0.96436 0.65764 0.60757
 C888 C 0.94208 0.67191 0.59304
 C889 C 0.93268 0.69738 0.60214
 H890 H 0.94224 0.70724 0.61946
 O891 O 1.02677 0.36400 0.59837
 O892 O 1.02684 0.33210 0.63005
 C893 C 1.03611 0.34181 0.60787
 C894 C 1.05841 0.32759 0.59331
 C895 C 1.06788 0.30216 0.60244
 H896 H 1.05836 0.29231 0.61979
 O897 O 1.13613 0.40130 0.52632
 O898 O 1.16796 0.36959 0.52632
 C899 C 1.15831 0.39174 0.53563
 C900 C 1.17257 0.40621 0.55798
 C901 C 1.19794 0.39699 0.56753
 H902 H 1.20775 0.37963 0.55803
 O903 O 0.86446 0.59799 0.52628
 O904 O 0.83258 0.62965 0.52637
 C905 C 0.84227 0.60749 0.53562
 C906 C 0.82801 0.59293 0.55791
 C907 C 0.80256 0.60204 0.56735
 H908 H 0.79274 0.61938 0.55783
 Cu909 Cu 1.00019 0.38573 0.61397
 Cu910 Cu 1.00023 0.34755 0.65211
 Cu911 Cu 1.00021 0.61363 0.61351
 Cu912 Cu 1.00019 0.65171 0.65176
 Cu913 Cu 0.88623 0.38557 0.50004
 Cu914 Cu 0.84814 0.34738 0.49998
 Cu915 Cu 1.11423 0.38587 0.49974
 Cu916 Cu 1.15233 0.34771 0.49970
 Cu917 Cu 0.88620 0.61354 0.49966
 Cu918 Cu 0.84804 0.65166 0.49972
 Cu919 Cu 1.11414 0.61352 0.49980
 Cu920 Cu 1.15234 0.65160 0.49975
 Cu921 Cu 0.88622 0.49945 0.61376
 Cu922 Cu 0.84812 0.49958 0.65199
 Cu923 Cu 1.11418 0.49945 0.61384
 Cu924 Cu 1.15227 0.49957 0.65206
 C925 C 1.07136 0.42845 0.65991
 H926 H 1.06434 0.43549 0.64018
 C927 C 1.09024 0.40947 0.71027
 C928 C 0.92913 0.57068 0.65944
 H929 H 0.93605 0.56374 0.63965
 C930 C 0.91049 0.58938 0.70999
 C931 C 0.84041 0.57053 0.57080
 H932 H 0.86021 0.56363 0.56389
 C933 C 0.78986 0.58914 0.58941
 C934 C 1.16018 0.42861 0.57086
 H935 H 1.14044 0.43560 0.56387
 C936 C 1.21055 0.40979 0.58970
 C937 C 1.07130 0.34002 0.57091
 H938 H 1.06437 0.35980 0.56399
 C939 C 1.08995 0.28951 0.58955
 C940 C 0.92914 0.65946 0.57069
 H941 H 0.93602 0.63966 0.56379
 C942 C 0.91061 0.71004 0.58926
 C943 C 0.92913 0.42855 0.65987
 H944 H 0.93612 0.43550 0.64010
 C945 C 0.91031 0.40981 0.71034
 C946 C 1.07111 0.57053 0.65950
 H947 H 1.06431 0.56369 0.63962
 C948 C 1.08942 0.58897 0.71025
 C949 C 0.92921 0.33970 0.57106
 H950 H 0.93620 0.35943 0.56404
 C951 C 0.91036 0.28935 0.58995
 C952 C 1.07135 0.65952 0.57084
 H953 H 1.06435 0.63978 0.56387
 C954 C 1.09019 0.70992 0.58960
 C955 C 0.84026 0.42828 0.57116
 H956 H 0.85995 0.43530 0.56407
 C957 C 0.78997 0.40938 0.59024
 C958 C 1.16000 0.57063 0.57098
 H959 H 1.14027 0.56362 0.56399
 C960 C 1.21038 0.58950 0.58979
 O961 O 0.47337 0.90207 0.36432
 O962 O 0.47337 0.87045 0.33236
 C963 C 0.46408 0.89258 0.34208
 C964 C 0.44183 0.90710 0.32778
 C965 C 0.43239 0.89790 0.30235
 H966 H 0.44190 0.88053 0.29256
 O967 O 0.52663 1.09900 0.36395
 O968 O 0.52671 1.13077 0.33214
 C969 C 0.53598 1.10860 0.34178
 C970 C 0.55833 1.09415 0.32752
 C971 C 0.56791 1.10343 0.30215
 H972 H 0.55842 1.12080 0.29236
 O973 O 0.36427 0.97409 0.40146
 O974 O 0.33242 0.97405 0.36974
 C975 C 0.34208 0.96479 0.39193
 C976 C 0.32779 0.94252 0.40646
 C977 C 0.30236 0.93308 0.39729
 H978 H 0.29255 0.94259 0.37992
 O979 O 0.63587 1.02728 0.40147
 O980 O 0.66771 1.02724 0.36973
 C981 C 0.65807 1.03654 0.39192
 C982 C 0.67238 1.05879 0.40646
 C983 C 0.69777 1.06831 0.39724
 H984 H 0.70754 1.05886 0.37981
 O985 O 0.40134 0.86471 0.47334
 O986 O 0.36961 0.83289 0.47323
 C987 C 0.39179 0.84254 0.46398
 C988 C 0.40634 0.82828 0.44168
 C989 C 0.39721 0.80286 0.43215
 H990 H 0.37983 0.79304 0.44161
 O991 O 0.59862 1.13601 0.47358
 O992 O 0.63024 1.16794 0.47354
 C993 C 0.60810 1.15822 0.46426
 C994 C 0.59355 1.17247 0.44195
 C995 C 0.60264 1.19794 0.43255
 H996 H 0.61996 1.20778 0.44209
 O997 O 0.40164 1.02719 0.36406
 O998 O 0.36995 1.02719 0.33216
 C999 C 0.39210 1.03648 0.34184
 C1000 C 0.40659 1.05879 0.32755
 C1001 C 0.39734 1.06830 0.30217
 H1002 H 0.37996 1.05879 0.29238
 O1003 O 0.59836 0.97423 0.36422
 O1004 O 0.63000 0.97411 0.33228
 C1005 C 0.60784 0.96489 0.34201
 C1006 C 0.59325 0.94263 0.32777
 C1007 C 0.60227 0.93324 0.30224
 H1008 H 0.61956 0.94278 0.29234
 O1009 O 0.52652 0.86462 0.40152
 O1010 O 0.52656 0.83286 0.36971
 C1011 C 0.53584 0.84247 0.39191
 C1012 C 0.55815 0.82819 0.40637
 C1013 C 0.56765 0.80281 0.39713
 H1014 H 0.55813 0.79301 0.37976
 O1015 O 0.47350 1.13627 0.40137
 O1016 O 0.47351 1.16820 0.36973
 C1017 C 0.46423 1.15850 0.39189
 C1018 C 0.44197 1.17277 0.40646
 C1019 C 0.43245 1.19816 0.39728
 H1020 H 0.44190 1.20796 0.37987
 O1021 O 0.36436 1.09912 0.47329
 O1022 O 0.33253 1.13083 0.47330
 C1023 C 0.34219 1.10869 0.46396
 C1024 C 0.32794 1.09424 0.44158
 C1025 C 0.30258 1.10348 0.43199
 H1026 H 0.29279 1.12088 0.44144
 O1027 O 0.63564 0.90207 0.47317
 O1028 O 0.66751 0.87041 0.47317
 C1029 C 0.65783 0.89255 0.46386
 C1030 C 0.67211 0.90707 0.44155
 C1031 C 0.69749 0.89787 0.43202
 H1032 H 0.70728 0.88047 0.44149
 O1033 O 0.47346 1.09900 0.36397
 O1034 O 0.47345 1.13075 0.33214
 C1035 C 0.46415 1.10859 0.34178
 C1036 C 0.44181 1.09411 0.32751
 C1037 C 0.43223 1.10332 0.30212
 H1038 H 0.44166 1.12071 0.29229
 O1039 O 0.52650 0.90218 0.36441
 O1040 O 0.52654 0.87058 0.33244
 C1041 C 0.53580 0.89272 0.34216
 C1042 C 0.55801 0.90732 0.32786
 C1043 C 0.56736 0.89826 0.30234
 H1044 H 0.55782 0.88094 0.29250
 O1045 O 0.63581 0.97413 0.40140
 O1046 O 0.66764 0.97402 0.36964
 C1047 C 0.65796 0.96475 0.39182
 C1048 C 0.67218 0.94240 0.40631
 C1049 C 0.69756 0.93287 0.39710
 H1050 H 0.70739 0.94238 0.37974
 O1051 O 0.36433 1.02725 0.40140
 O1052 O 0.33248 1.02727 0.36968
 C1053 C 0.34216 1.03658 0.39184
 C1054 C 0.32793 1.05893 0.40631
 C1055 C 0.30258 1.06848 0.39705
 H1056 H 0.29279 1.05899 0.37966
 O1057 O 0.40179 1.13631 0.47344
 O1058 O 0.37013 1.16820 0.47347
 C1059 C 0.39227 1.15852 0.46416
 C1060 C 0.40678 1.17279 0.44184
 C1061 C 0.39758 1.19818 0.43235
 H1062 H 0.38023 1.20799 0.44187
 O1063 O 0.59843 0.86465 0.47320
 O1064 O 0.63014 0.83282 0.47319
 C1065 C 0.60798 0.84246 0.46390
 C1066 C 0.59348 0.82818 0.44159
 C1067 C 0.60266 0.80280 0.43205
 H1068 H 0.62005 0.79300 0.44151
 O1069 O 0.59862 1.02737 0.36405
 O1070 O 0.63029 1.02733 0.33213
 C1071 C 0.60816 1.03665 0.34182
 C1072 C 0.59367 1.05897 0.32755
 C1073 C 0.60293 1.06857 0.30217
 H1074 H 0.62035 1.05915 0.29239
 O1075 O 0.40158 0.97403 0.36410
 O1076 O 0.36991 0.97397 0.33220
 C1077 C 0.39205 0.96469 0.34190
 C1078 C 0.40657 0.94237 0.32767
 C1079 C 0.39744 0.93283 0.30223
 H1080 H 0.38009 0.94230 0.29236
 O1081 O 0.52665 1.13609 0.40150
 O1082 O 0.52673 1.16803 0.36987
 C1083 C 0.53599 1.15829 0.39203
 C1084 C 0.55828 1.17250 0.40663
 C1085 C 0.56771 1.19797 0.39756
 H1086 H 0.55820 1.20784 0.38022
 O1087 O 0.47336 0.86472 0.40162
 O1088 O 0.47334 0.83294 0.36983
 C1089 C 0.46404 0.84257 0.39202
 C1090 C 0.44172 0.82829 0.40648
 C1091 C 0.43228 0.80288 0.39728
 H1092 H 0.44184 0.79307 0.37994
 O1093 O 0.63606 1.09883 0.47357
 O1094 O 0.66786 1.13058 0.47353
 C1095 C 0.65822 1.10842 0.46423
 C1096 C 0.67246 1.09396 0.44186
 C1097 C 0.69785 1.10316 0.43232
 H1098 H 0.70768 1.12050 0.44184
 O1099 O 0.36415 0.90214 0.47338
 O1100 O 0.33224 0.87051 0.47329
 C1101 C 0.34196 0.89266 0.46404
 C1102 C 0.32773 0.90723 0.44175
 C1103 C 0.30230 0.89812 0.43225
 H1104 H 0.29246 0.88077 0.44174
 Cu1105 Cu 0.49994 0.88656 0.38617
 Cu1106 Cu 0.49996 0.84852 0.34788
 Cu1107 Cu 0.50005 1.11440 0.38586
 Cu1108 Cu 0.50011 1.15264 0.34778
 Cu1109 Cu 0.38613 1.00063 0.38593
 Cu1110 Cu 0.34800 1.00061 0.34775
 Cu1111 Cu 0.61400 1.00077 0.38597
 Cu1112 Cu 0.65210 1.00067 0.34774
 C1113 C 0.42895 0.92952 0.34014
 H1114 H 0.43587 0.93649 0.35993
 C1115 C 0.41033 0.91073 0.28962
 C1116 C 0.57119 1.07174 0.33991
 H1117 H 0.56417 1.06471 0.35964
 C1118 C 0.59007 1.09066 0.28953
 C1119 C 0.34017 0.92963 0.42888
 H1120 H 0.35995 0.93653 0.43583
 C1121 C 0.28967 0.91102 0.41016
 C1122 C 0.66004 1.07159 0.42895
 H1123 H 0.64029 1.06462 0.43594
 C1124 C 0.71046 1.09036 0.41015
 C1125 C 0.42878 0.84068 0.42887
 H1126 H 0.43570 0.86045 0.43584
 C1127 C 0.41016 0.79021 0.41009
 C1128 C 0.57117 1.16005 0.42902
 H1129 H 0.56428 1.14024 0.43590
 C1130 C 0.58975 1.21064 0.41049
 C1131 C 0.42901 1.07166 0.33992
 H1132 H 0.43602 1.06468 0.35967
 C1133 C 0.41012 1.09042 0.28949
 C1134 C 0.57093 0.92970 0.34028
 H1135 H 0.56409 0.93656 0.36013
 C1136 C 0.58934 0.91120 0.28958
 C1137 C 0.57103 0.84057 0.42878
 H1138 H 0.56408 0.86031 0.43578
 C1139 C 0.58977 0.79016 0.40995
 C1140 C 0.42916 1.16039 0.42893
 H1141 H 0.43612 1.14063 0.43588
 C1142 C 0.41039 1.21082 0.41020
 C1143 C 0.34030 1.07178 0.42876
 H1144 H 0.36002 1.06477 0.43578
 C1145 C 0.28995 1.09062 0.40985
 C1146 C 0.65975 0.92953 0.42873
 H1147 H 0.64001 0.93650 0.43570
 C1148 C 0.71017 0.91074 0.40993
 O1149 O 0.52630 0.90197 0.63557
 O1150 O 0.52638 0.87030 0.66748
 C1151 C 0.53563 0.89247 0.65778
 C1152 C 0.55790 0.90701 0.67206
 C1153 C 0.56729 0.89791 0.69755
 H1154 H 0.55774 0.88059 0.70739
 O1155 O 0.47352 1.09872 0.63610
 O1156 O 0.47348 1.13042 0.66798
 C1157 C 0.46418 1.10827 0.65829
 C1158 C 0.44180 1.09382 0.67252
 C1159 C 0.43224 1.10307 0.69790
 H1160 H 0.44176 1.12042 0.70772
 O1161 O 0.36426 1.02700 0.59846
 O1162 O 0.33235 1.02707 0.63014
 C1163 C 0.34206 1.03632 0.60796
 C1164 C 0.32782 1.05857 0.59337
 C1165 C 0.30233 1.06799 0.60241
 H1166 H 0.29245 1.05848 0.61974
 O1167 O 0.63572 0.97398 0.59841
 O1168 O 0.66755 0.97376 0.63016
 C1169 C 0.65788 0.96459 0.60793
 C1170 C 0.67213 0.94235 0.59333
 C1171 C 0.69760 0.93292 0.60238
 H1172 H 0.70747 0.94243 0.61972
 O1173 O 0.59830 0.86478 0.52639
 O1174 O 0.63001 0.83294 0.52646
 C1175 C 0.60783 0.84260 0.53572
 C1176 C 0.59328 0.82831 0.55800
 C1177 C 0.60240 0.80287 0.56742
 H1178 H 0.61975 0.79305 0.55790
 O1179 O 0.40169 1.13622 0.52667
 O1180 O 0.37003 1.16809 0.52677
 C1181 C 0.39216 1.15838 0.53606
 C1182 C 0.40665 1.17256 0.55846
 C1183 C 0.39743 1.19791 0.56808
 H1184 H 0.38006 1.20774 0.55861
 O1185 O 0.40150 0.97388 0.63586
 O1186 O 0.36980 0.97387 0.66774
 C1187 C 0.39195 0.96457 0.65805
 C1188 C 0.40642 0.94224 0.67230
 C1189 C 0.39722 0.93272 0.69771
 H1190 H 0.37988 0.94224 0.70755
 O1191 O 0.59853 1.02709 0.63596
 O1192 O 0.63020 1.02693 0.66786
 C1193 C 0.60808 1.03631 0.65820
 C1194 C 0.59365 1.05862 0.67253
 C1195 C 0.60298 1.06817 0.69788
 H1196 H 0.62040 1.05869 0.70761
 O1197 O 0.47313 0.86454 0.59837
 O1198 O 0.47315 0.83268 0.63009
 C1199 C 0.46384 0.84235 0.60793
 C1200 C 0.44152 0.82810 0.59342
 C1201 C 0.43198 0.80270 0.60259
 H1202 H 0.44145 0.79286 0.61996
 O1203 O 0.52672 1.13601 0.59876
 O1204 O 0.52674 1.16788 0.63047
 C1205 C 0.53603 1.15820 0.60830
 C1206 C 0.55835 1.17244 0.59378
 C1207 C 0.56791 1.19781 0.60302
 H1208 H 0.55845 1.20760 0.62043
 O1209 O 0.36410 0.90203 0.52660
 O1210 O 0.33219 0.87039 0.52657
 C1211 C 0.34191 0.89251 0.53591
 C1212 C 0.32767 0.90698 0.55828
 C1213 C 0.30231 0.89774 0.56784
 H1214 H 0.29252 0.88037 0.55834
 O1215 O 0.63611 1.09888 0.52680
 O1216 O 0.66791 1.13062 0.52684
 C1217 C 0.65827 1.10846 0.53614
 C1218 C 0.67250 1.09400 0.55853
 C1219 C 0.69783 1.10324 0.56820
 H1220 H 0.70764 1.12064 0.55877
 O1221 O 0.52671 1.09882 0.63624
 O1222 O 0.52674 1.13052 0.66811
 C1223 C 0.53604 1.10838 0.65844
 C1224 C 0.55840 1.09390 0.67267
 C1225 C 0.56807 1.10314 0.69802
 H1226 H 0.55866 1.12054 0.70785
 O1227 O 0.47315 0.90188 0.63569
 O1228 O 0.47316 0.87020 0.66759
 C1229 C 0.46387 0.89235 0.65792
 C1230 C 0.44159 0.90688 0.67223
 C1231 C 0.43207 0.89768 0.69764
 H1232 H 0.44151 0.88028 0.70744
 O1233 O 0.63587 1.02713 0.59862
 O1234 O 0.66770 1.02697 0.63037
 C1235 C 0.65807 1.03636 0.60822
 C1236 C 0.67238 1.05870 0.59380
 C1237 C 0.69771 1.06825 0.60314
 H1238 H 0.70744 1.05876 0.62057
 O1239 O 0.36412 0.97385 0.59860
 O1240 O 0.33224 0.97385 0.63030
 C1241 C 0.34193 0.96454 0.60814
 C1242 C 0.32768 0.94222 0.59363
 C1243 C 0.30231 0.93264 0.60287
 H1244 H 0.29252 0.94208 0.62028
 O1245 O 0.59865 1.13603 0.52680
 O1246 O 0.63028 1.16795 0.52682
 C1247 C 0.60815 1.15823 0.53612
 C1248 C 0.59363 1.17245 0.55846
 C1249 C 0.60285 1.19781 0.56803
 H1250 H 0.62024 1.20761 0.55855
 O1251 O 0.40135 0.86467 0.52653
 O1252 O 0.36961 0.83286 0.52650
 C1253 C 0.39178 0.84248 0.53581
 C1254 C 0.40625 0.82818 0.55811
 C1255 C 0.39704 0.80278 0.56759
 H1256 H 0.37967 0.79300 0.55807
 O1257 O 0.59831 0.97394 0.63569
 O1258 O 0.62997 0.97372 0.66761
 C1259 C 0.60779 0.96454 0.65788
 C1260 C 0.59320 0.94226 0.67210
 C1261 C 0.60225 0.93283 0.69760
 H1262 H 0.61957 0.94234 0.70748
 O1263 O 0.40143 1.02704 0.63596
 O1264 O 0.36971 1.02711 0.66782
 C1265 C 0.39188 1.03637 0.65816
 C1266 C 0.40640 1.05867 0.67245
 C1267 C 0.39716 1.06825 0.69784
 H1268 H 0.37973 1.05884 0.70762
 O1269 O 0.47354 1.13605 0.59878
 O1270 O 0.47350 1.16791 0.63049
 C1271 C 0.46422 1.15823 0.60831
 C1272 C 0.44190 1.17249 0.59380
 C1273 C 0.43236 1.19784 0.60307
 H1274 H 0.44182 1.20760 0.62049
 O1275 O 0.52630 0.86463 0.59827
 O1276 O 0.52639 0.83277 0.62999
 C1277 C 0.53565 0.84246 0.60781
 C1278 C 0.55796 0.82823 0.59326
 C1279 C 0.56740 0.80278 0.60236
 H1280 H 0.55787 0.79291 0.61968
 O1281 O 0.63563 0.90209 0.52638
 O1282 O 0.66751 0.87043 0.52643
 C1283 C 0.65782 0.89258 0.53570
 C1284 C 0.67209 0.90712 0.55798
 C1285 C 0.69757 0.89803 0.56736
 H1286 H 0.70740 0.88072 0.55779
 O1287 O 0.36441 1.09888 0.52650
 O1288 O 0.33257 1.13057 0.52657
 C1289 C 0.34221 1.10839 0.53581
 C1290 C 0.32790 1.09383 0.55805
 C1291 C 0.30242 1.10291 0.56741
 H1292 H 0.29260 1.12023 0.55785
 Cu1293 Cu 0.49971 0.88642 0.61379
 Cu1294 Cu 0.49978 0.84830 0.65198
 Cu1295 Cu 0.50013 1.11422 0.61430
 Cu1296 Cu 0.50011 1.15238 0.65246
 Cu1297 Cu 0.38592 0.88655 0.49996
 Cu1298 Cu 0.34771 0.84848 0.49989
 Cu1299 Cu 0.61382 0.88657 0.49978
 Cu1300 Cu 0.65199 0.84846 0.49982
 Cu1301 Cu 0.38624 1.11446 0.49997
 Cu1302 Cu 0.34813 1.15262 0.50004
 Cu1303 Cu 0.61421 1.11425 0.50019
 Cu1304 Cu 0.65226 1.15247 0.50017
 Cu1305 Cu 0.38601 1.00045 0.61405
 Cu1306 Cu 0.34783 1.00048 0.65220
 Cu1307 Cu 0.61394 1.00056 0.61399
 Cu1308 Cu 0.65204 1.00031 0.65220
 C1309 C 0.57083 0.92938 0.65963
 H1310 H 0.56397 0.93628 0.63980
 C1311 C 0.58932 0.91080 0.71027
 C1312 C 0.42891 1.07143 0.66010
 H1313 H 0.43591 1.06443 0.64036
 C1314 C 0.41006 1.09032 0.71051
 C1315 C 0.34030 1.07146 0.57099
 H1316 H 0.36012 1.06458 0.56414
 C1317 C 0.28968 1.09002 0.58945
 C1318 C 0.65967 0.92947 0.57093
 H1319 H 0.63985 0.93636 0.56407
 C1320 C 0.71027 0.91091 0.58942
 C1321 C 0.57087 0.84070 0.57089
 H1322 H 0.56396 0.86049 0.56400
 C1323 C 0.58949 0.79015 0.58946
 C1324 C 0.42908 1.16015 0.57131
 H1325 H 0.43606 1.14043 0.56428
 C1326 C 0.41026 1.21050 0.59024
 C1327 C 0.42880 0.92934 0.65986
 H1328 H 0.43577 0.93631 0.64009
 C1329 C 0.41001 0.91058 0.71033
 C1330 C 0.57117 1.07145 0.66024
 H1331 H 0.56410 1.06445 0.64052
 C1332 C 0.59023 1.09029 0.71058
 C1333 C 0.42868 0.84053 0.57099
 H1334 H 0.43566 0.86028 0.56405
 C1335 C 0.40987 0.79009 0.58969
 C1336 C 0.57119 1.16007 0.57131
 H1337 H 0.56420 1.14034 0.56431
 C1338 C 0.59002 1.21044 0.59017
 C1339 C 0.34005 0.92941 0.57115
 H1340 H 0.35978 0.93641 0.56414
 C1341 C 0.28968 0.91053 0.59000
 C1342 C 0.66009 1.07154 0.57131
 H1343 H 0.64039 1.06454 0.56423
 C1344 C 0.71039 1.09038 0.59037
 O1345 O 0.47334 0.40106 0.86395
 O1346 O 0.47334 0.36933 0.83210
 C1347 C 0.46404 0.39148 0.84176
 C1348 C 0.44170 0.40594 0.82749
 C1349 C 0.43215 0.39669 0.80211
 H1350 H 0.44164 0.37932 0.79231
 O1351 O 0.52608 0.59804 0.86426
 O1352 O 0.52613 0.62970 0.83234
 C1353 C 0.53540 0.60755 0.84204
 C1354 C 0.55767 0.59301 0.82777
 C1355 C 0.56712 0.60213 0.80231
 H1356 H 0.55762 0.61947 0.79246
 O1357 O 0.36407 0.47273 0.90135
 O1358 O 0.33218 0.47276 0.86966
 C1359 C 0.34186 0.46345 0.89182
 C1360 C 0.32757 0.44117 0.90635
 C1361 C 0.30220 0.43163 0.89711
 H1362 H 0.29243 0.44108 0.87968
 O1363 O 0.63528 0.52619 0.90153
 O1364 O 0.66719 0.52629 0.86985
 C1365 C 0.65747 0.53554 0.89202
 C1366 C 0.67170 0.55783 0.90657
 C1367 C 0.69714 0.56731 0.89746
 H1368 H 0.70700 0.55780 0.88011
 O1369 O 0.40130 0.36380 0.97331
 O1370 O 0.36963 0.33193 0.97328
 C1371 C 0.39177 0.34162 0.96396
 C1372 C 0.40628 0.32739 0.94160
 C1373 C 0.39706 0.30203 0.93200
 H1374 H 0.37966 0.29223 0.94144
 O1375 O 0.59784 0.63540 0.97347
 O1376 O 0.62953 0.66726 0.97343
 C1377 C 0.60737 0.65759 0.96415
 C1378 C 0.59285 0.67186 0.94186
 C1379 C 0.60195 0.69732 0.93246
 H1380 H 0.61927 0.70716 0.94201
 O1381 O 0.40138 0.52591 0.86403
 O1382 O 0.36965 0.52599 0.83218
 C1383 C 0.39181 0.53526 0.84185
 C1384 C 0.40627 0.55760 0.82760
 C1385 C 0.39707 0.56710 0.80218
 H1386 H 0.37975 0.55756 0.79234
 O1387 O 0.59815 0.47296 0.86409
 O1388 O 0.62990 0.47303 0.83226
 C1389 C 0.60776 0.46367 0.84190
 C1390 C 0.59338 0.44131 0.82760
 C1391 C 0.60276 0.43175 0.80227
 H1392 H 0.62016 0.44127 0.79253
 O1393 O 0.52647 0.36382 0.90142
 O1394 O 0.52655 0.33192 0.86975
 C1395 C 0.53580 0.34163 0.89192
 C1396 C 0.55810 0.32741 0.90649
 C1397 C 0.56772 0.30207 0.89727
 H1398 H 0.55832 0.29227 0.87983
 O1399 O 0.47290 0.63540 0.90151
 O1400 O 0.47288 0.66724 0.86978
 C1401 C 0.46360 0.65758 0.89196
 C1402 C 0.44132 0.67184 0.90651
 C1403 C 0.43181 0.69725 0.89735
 H1404 H 0.44127 0.70707 0.87995
 O1405 O 0.36420 0.59788 0.97363
 O1406 O 0.33225 0.62947 0.97350
 C1407 C 0.34199 0.60732 0.96427
 C1408 C 0.32777 0.59271 0.94199
 C1409 C 0.30226 0.60172 0.93263
 H1410 H 0.29238 0.61901 0.94220
 O1411 O 0.63544 0.40120 0.97358
 O1412 O 0.66736 0.36958 0.97357
 C1413 C 0.65765 0.39171 0.96426
 C1414 C 0.67188 0.40624 0.94192
 C1415 C 0.69731 0.39712 0.93239
 H1416 H 0.70716 0.37978 0.94188
 O1417 O 0.47294 0.59806 0.86419
 O1418 O 0.47291 0.62972 0.83227
 C1419 C 0.46365 0.60756 0.84196
 C1420 C 0.44140 0.59300 0.82766
 C1421 C 0.43188 0.60218 0.80224
 H1422 H 0.44131 0.61959 0.79245
 O1423 O 0.52651 0.40100 0.86392
 O1424 O 0.52660 0.36927 0.83208
 C1425 C 0.53587 0.39143 0.84174
 C1426 C 0.55822 0.40593 0.82751
 C1427 C 0.56793 0.39668 0.80217
 H1428 H 0.55857 0.37924 0.79236
 O1429 O 0.63529 0.47304 0.90161
 O1430 O 0.66720 0.47310 0.86993
 C1431 C 0.65751 0.46378 0.89209
 C1432 C 0.67180 0.44152 0.90662
 C1433 C 0.69722 0.43208 0.89743
 H1434 H 0.70701 0.44161 0.88005
 O1435 O 0.36424 0.52587 0.90155
 O1436 O 0.33233 0.52596 0.86988
 C1437 C 0.34204 0.53520 0.89206
 C1438 C 0.32779 0.55745 0.90667
 C1439 C 0.30228 0.56680 0.89764
 H1440 H 0.29241 0.55726 0.88032
 O1441 O 0.40125 0.63544 0.97361
 O1442 O 0.36948 0.66721 0.97349
 C1443 C 0.39166 0.65758 0.96424
 C1444 C 0.40614 0.67184 0.94190
 C1445 C 0.39695 0.69724 0.93243
 H1446 H 0.37962 0.70706 0.94198
 O1447 O 0.59813 0.36388 0.97358
 O1448 O 0.62988 0.33209 0.97358
 C1449 C 0.60772 0.34172 0.96426
 C1450 C 0.59329 0.32745 0.94189
 C1451 C 0.60258 0.30211 0.93234
 H1452 H 0.61996 0.29234 0.94185
 O1453 O 0.59793 0.52612 0.86423
 O1454 O 0.62966 0.52624 0.83238
 C1455 C 0.60747 0.53547 0.84204
 C1456 C 0.59293 0.55774 0.82777
 C1457 C 0.60206 0.56718 0.80230
 H1458 H 0.61940 0.55767 0.79245
 O1459 O 0.40142 0.47274 0.86401
 O1460 O 0.36970 0.47275 0.83216
 C1461 C 0.39186 0.46345 0.84181
 C1462 C 0.40635 0.44114 0.82752
 C1463 C 0.39712 0.43156 0.80213
 H1464 H 0.37971 0.44099 0.79234
 O1465 O 0.52604 0.63542 0.90153
 O1466 O 0.52609 0.66726 0.86979
 C1467 C 0.53535 0.65760 0.89198
 C1468 C 0.55761 0.67188 0.90654
 C1469 C 0.56704 0.69734 0.89745
 H1470 H 0.55753 0.70719 0.88010
 O1471 O 0.47329 0.36382 0.90136
 O1472 O 0.47330 0.33191 0.86969
 C1473 C 0.46398 0.34163 0.89183
 C1474 C 0.44162 0.32740 0.90633
 C1475 C 0.43207 0.30204 0.89707
 H1476 H 0.44157 0.29225 0.87968
 O1477 O 0.63515 0.59810 0.97347
 O1478 O 0.66702 0.62979 0.97343
 C1479 C 0.65735 0.60763 0.96415
 C1480 C 0.67163 0.59311 0.94186
 C1481 C 0.69707 0.60225 0.93242
 H1482 H 0.70688 0.61960 0.94195
 O1483 O 0.36393 0.40105 0.97337
 O1484 O 0.33209 0.36934 0.97335
 C1485 C 0.34175 0.39150 0.96405
 C1486 C 0.32751 0.40597 0.94171
 C1487 C 0.30214 0.39675 0.93215
 H1488 H 0.29233 0.37938 0.94164
 Cu1489 Cu 0.49991 0.38560 0.88583
 Cu1490 Cu 0.49995 0.34741 0.84772
 Cu1491 Cu 0.49949 0.61356 0.88605
 Cu1492 Cu 0.49951 0.65167 0.84784
 Cu1493 Cu 0.38596 0.49930 0.88590
 Cu1494 Cu 0.34777 0.49937 0.84778
 Cu1495 Cu 0.61348 0.49957 0.88604
 Cu1496 Cu 0.65168 0.49968 0.84791
 C1497 C 0.42883 0.42835 0.83988
 H1498 H 0.43582 0.43536 0.85963
 C1499 C 0.41000 0.40947 0.78948
 C1500 C 0.57055 0.57062 0.84020
 H1501 H 0.56363 0.56371 0.86001
 C1502 C 0.58918 0.58924 0.78962
 C1503 C 0.33992 0.42837 0.92883
 H1504 H 0.35965 0.43536 0.93583
 C1505 C 0.28954 0.40955 0.90998
 C1506 C 0.65924 0.57071 0.92897
 H1507 H 0.63946 0.56378 0.93588
 C1508 C 0.70978 0.58938 0.91036
 C1509 C 0.42875 0.33977 0.92878
 H1510 H 0.43574 0.35950 0.93580
 C1511 C 0.40994 0.28941 0.90987
 C1512 C 0.57049 0.65944 0.92894
 H1513 H 0.56360 0.63964 0.93583
 C1514 C 0.58907 0.71002 0.91039
 C1515 C 0.42863 0.57052 0.84004
 H1516 H 0.43559 0.56357 0.85981
 C1517 C 0.40985 0.58925 0.78955
 C1518 C 0.57093 0.42843 0.83991
 H1519 H 0.56383 0.43545 0.85962
 C1520 C 0.59007 0.40957 0.78960
 C1521 C 0.57086 0.33980 0.92899
 H1522 H 0.56382 0.35951 0.93598
 C1523 C 0.58982 0.28947 0.91016
 C1524 C 0.42851 0.65944 0.92897
 H1525 H 0.43547 0.63968 0.93591
 C1526 C 0.40976 0.70990 0.91030
 C1527 C 0.34024 0.57038 0.92904
 H1528 H 0.36008 0.56355 0.93589
 C1529 C 0.28957 0.58880 0.91060
 C1530 C 0.65943 0.42863 0.92906
 H1531 H 0.63966 0.43554 0.93602
 C1532 C 0.70993 0.41003 0.91028
 O1533 O 0.52608 0.40129 1.13594
 O1534 O 0.52609 0.36964 1.16787
 C1535 C 0.53535 0.39180 1.15818
 C1536 C 0.55756 0.40639 1.17250
 C1537 C 0.56695 0.39730 1.19799
 H1538 H 0.55744 0.37995 1.20782
 O1539 O 0.47298 0.59815 1.13597
 O1540 O 0.47292 0.62983 1.16787
 C1541 C 0.46366 0.60767 1.15818
 C1542 C 0.44137 0.59314 1.17245
 C1543 C 0.43188 0.60231 1.19788
 H1544 H 0.44138 0.61966 1.20770
 O1545 O 0.36377 0.52625 1.09865
 O1546 O 0.33191 0.52625 1.13036
 C1547 C 0.34158 0.53555 1.10820
 C1548 C 0.32735 0.55789 1.09371
 C1549 C 0.30201 0.56750 1.10297
 H1550 H 0.29220 0.55805 1.12038
 O1551 O 0.63517 0.47321 1.09876
 O1552 O 0.66703 0.47319 1.13047
 C1553 C 0.65736 0.46390 1.10830
 C1554 C 0.67165 0.44162 1.09377
 C1555 C 0.69709 0.43221 1.10294
 H1556 H 0.70688 0.44174 1.12031
 O1557 O 0.59816 0.36385 1.02681
 O1558 O 0.62991 0.33206 1.02689
 C1559 C 0.60774 0.34170 1.03618
 C1560 C 0.59328 0.32747 1.05856
 C1561 C 0.60257 0.30216 1.06821
 H1562 H 0.61999 0.29239 1.05877
 O1563 O 0.40122 0.63548 1.02683
 O1564 O 0.36946 0.66726 1.02676
 C1565 C 0.39162 0.65765 1.03611
 C1566 C 0.40607 0.67196 1.05844
 C1567 C 0.39688 0.69737 1.06792
 H1568 H 0.37953 0.70717 1.05838
 O1569 O 0.40115 0.47310 1.13593
 O1570 O 0.36944 0.47303 1.16781
 C1571 C 0.39160 0.46376 1.15812
 C1572 C 0.40607 0.44144 1.17238
 C1573 C 0.39686 0.43194 1.19779
 H1574 H 0.37951 0.44147 1.20761
 O1575 O 0.59793 0.52644 1.13611
 O1576 O 0.62964 0.52647 1.16798
 C1577 C 0.60749 0.53577 1.15830
 C1578 C 0.59303 0.55811 1.17255
 C1579 C 0.60230 0.56770 1.19792
 H1580 H 0.61969 0.55824 1.20771
 O1581 O 0.47309 0.36384 1.09852
 O1582 O 0.47304 0.33201 1.13026
 C1583 C 0.46379 0.34165 1.10806
 C1584 C 0.44155 0.32736 1.09350
 C1585 C 0.43206 0.30195 1.10267
 H1586 H 0.44153 0.29215 1.12007
 O1587 O 0.52608 0.63552 1.09864
 O1588 O 0.52610 0.66740 1.13034
 C1589 C 0.53537 0.65772 1.10816
 C1590 C 0.55763 0.67199 1.09358
 C1591 C 0.56705 0.69746 1.10263
 H1592 H 0.55753 0.70733 1.11997
 O1593 O 0.36398 0.40107 1.02660
 O1594 O 0.33214 0.36937 1.02665
 C1595 C 0.34181 0.39153 1.03595
 C1596 C 0.32756 0.40604 1.05830
 C1597 C 0.30217 0.39683 1.06787
 H1598 H 0.29238 0.37943 1.05842
 O1599 O 0.63513 0.59810 1.02666
 O1600 O 0.66700 0.62977 1.02668
 C1601 C 0.65733 0.60762 1.03596
 C1602 C 0.67162 0.59310 1.05824
 C1603 C 0.69711 0.60217 1.06759
 H1604 H 0.70695 0.61946 1.05800
 O1605 O 0.52614 0.59832 1.13609
 O1606 O 0.52616 0.63001 1.16796
 C1607 C 0.53546 0.60787 1.15828
 C1608 C 0.55778 0.59340 1.17255
 C1609 C 0.56737 0.60266 1.19791
 H1610 H 0.55792 0.62006 1.20770
 O1611 O 0.47293 0.40110 1.13593
 O1612 O 0.47288 0.36945 1.16784
 C1613 C 0.46359 0.39158 1.15813
 C1614 C 0.44127 0.40609 1.17239
 C1615 C 0.43171 0.39692 1.19780
 H1616 H 0.44116 0.37953 1.20763
 O1617 O 0.63517 0.52634 1.09868
 O1618 O 0.66705 0.52639 1.13037
 C1619 C 0.65737 0.53564 1.10818
 C1620 C 0.67165 0.55788 1.09359
 C1621 C 0.69714 0.56727 1.10262
 H1622 H 0.70701 0.55776 1.11996
 O1623 O 0.36392 0.47308 1.09852
 O1624 O 0.33204 0.47301 1.13022
 C1625 C 0.34175 0.46373 1.10805
 C1626 C 0.32753 0.44138 1.09355
 C1627 C 0.30215 0.43185 1.10278
 H1628 H 0.29234 0.44136 1.12015
 O1629 O 0.59786 0.63544 1.02667
 O1630 O 0.62956 0.66729 1.02668
 C1631 C 0.60739 0.65763 1.03597
 C1632 C 0.59287 0.67193 1.05825
 C1633 C 0.60197 0.69741 1.06761
 H1634 H 0.61928 0.70724 1.05803
 O1635 O 0.40131 0.36377 1.02653
 O1636 O 0.36965 0.33189 1.02657
 C1637 C 0.39180 0.34157 1.03585
 C1638 C 0.40632 0.32732 1.05815
 C1639 C 0.39716 0.30191 1.06765
 H1640 H 0.37981 0.29209 1.05814
 O1641 O 0.59781 0.47328 1.13607
 O1642 O 0.62949 0.47324 1.16796
 C1643 C 0.60733 0.46398 1.15828
 C1644 C 0.59278 0.44170 1.17256
 C1645 C 0.60186 0.43228 1.19805
 H1646 H 0.61917 0.44182 1.20792
 O1647 O 0.40113 0.52626 1.13596
 O1648 O 0.36944 0.52625 1.16784
 C1649 C 0.39159 0.53556 1.15817
 C1650 C 0.40609 0.55787 1.17245
 C1651 C 0.39692 0.56737 1.19789
 H1652 H 0.37955 0.55789 1.20772
 O1653 O 0.47294 0.63558 1.09876
 O1654 O 0.47289 0.66744 1.13047
 C1655 C 0.46361 0.65776 1.10830
 C1656 C 0.44131 0.67200 1.09377
 C1657 C 0.43180 0.69741 1.10292
 H1658 H 0.44129 0.70724 1.12029
 O1659 O 0.52626 0.36385 1.09871
 O1660 O 0.52628 0.33204 1.13047
 C1661 C 0.53560 0.34170 1.10830
 C1662 C 0.55798 0.32747 1.09386
 C1663 C 0.56760 0.30217 1.10318
 H1664 H 0.55815 0.29240 1.12060
 O1665 O 0.63534 0.40129 1.02679
 O1666 O 0.66727 0.36968 1.02686
 C1667 C 0.65754 0.39181 1.03613
 C1668 C 0.67175 0.40636 1.05846
 C1669 C 0.69719 0.39727 1.06796
 H1670 H 0.70706 0.37995 1.05845
 O1671 O 0.36394 0.59814 1.02684
 O1672 O 0.33201 0.62975 1.02676
 C1673 C 0.34171 0.60764 1.03610
 C1674 C 0.32743 0.59316 1.05842
 C1675 C 0.30209 0.60244 1.06799
 H1676 H 0.29234 0.61985 1.05852
 Cu1677 Cu 0.49959 0.38569 1.11409
 Cu1678 Cu 0.49957 0.34759 1.15231
 Cu1679 Cu 0.49954 0.61372 1.11419
 Cu1680 Cu 0.49951 0.65186 1.15236
 Cu1681 Cu 0.38580 0.38560 0.99995
 Cu1682 Cu 0.34769 0.34744 0.99997
 Cu1683 Cu 0.61359 0.38572 1.00019
 Cu1684 Cu 0.65180 0.34766 1.00022
 Cu1685 Cu 0.38584 0.61358 1.00024
 Cu1686 Cu 0.34760 0.65161 1.00011
 Cu1687 Cu 0.61332 0.61358 1.00007
 Cu1688 Cu 0.65147 0.65172 1.00005
 Cu1689 Cu 0.38567 0.49968 1.11409
 Cu1690 Cu 0.34751 0.49963 1.15225
 Cu1691 Cu 0.61334 0.49982 1.11423
 Cu1692 Cu 0.65149 0.49982 1.15240
 C1693 C 0.57044 0.42878 1.16008
 H1694 H 0.56357 0.43567 1.14026
 C1695 C 0.58896 0.41022 1.21071
 C1696 C 0.42851 0.57073 1.16004
 H1697 H 0.43546 0.56378 1.14025
 C1698 C 0.40980 0.58946 1.21055
 C1699 C 0.33976 0.57070 1.07125
 H1700 H 0.35947 0.56367 1.06424
 C1701 C 0.28943 0.58964 1.09013
 C1702 C 0.65928 0.42873 1.07134
 H1703 H 0.63950 0.43562 1.06440
 C1704 C 0.70981 0.41017 1.09006
 C1705 C 0.57079 0.33982 1.07136
 H1706 H 0.56375 0.35950 1.06429
 C1707 C 0.58977 0.28956 1.09038
 C1708 C 0.42847 0.65959 1.07134
 H1709 H 0.43544 0.63983 1.06441
 C1710 C 0.40973 0.71005 1.09002
 C1711 C 0.42847 0.42854 1.15998
 H1712 H 0.43546 0.43550 1.14021
 C1713 C 0.40964 0.40983 1.21046
 C1714 C 0.57059 0.57094 1.16017
 H1715 H 0.56357 0.56392 1.14044
 C1716 C 0.58949 0.58984 1.21055
 C1717 C 0.42871 0.33974 1.07104
 H1718 H 0.43565 0.35951 1.06410
 C1719 C 0.41001 0.28928 1.08977
 C1720 C 0.57051 0.65952 1.07120
 H1721 H 0.56363 0.63971 1.06434
 C1722 C 0.58908 0.71013 1.08966
 C1723 C 0.33993 0.42850 1.07112
 H1724 H 0.35967 0.43548 1.06412
 C1725 C 0.28952 0.40972 1.08998
 C1726 C 0.65919 0.57076 1.07121
 H1727 H 0.63936 0.56389 1.06436
 C1728 C 0.70982 0.58928 1.08964
 C1729 C 1.13028 1.12892 1.30234
 C1730 C 1.12080 1.11963 1.28165
 C1731 C 1.10992 1.10910 1.25717
 C1732 C 1.10089 1.10033 1.23606
 C1733 C 1.12772 0.62764 0.80260
 C1734 C 1.11851 0.61836 0.78181
 C1735 C 1.10807 0.60781 0.75718
 C1736 C 1.09942 0.59906 0.73591
 C1737 C 0.63020 1.12908 0.80230
 C1738 C 0.62068 1.11981 0.78161
 C1739 C 0.60976 1.10929 0.75714
 C1740 C 0.60068 1.10054 0.73604
 C1741 C 0.62887 0.62914 1.30227
 C1742 C 0.61945 0.61976 1.28160
 C1743 C 0.60873 0.60906 1.25713
 C1744 C 0.59982 0.60016 1.23602
 C1745 C 0.87111 0.87106 1.30244
 C1746 C 0.88049 0.88047 1.28175
 C1747 C 0.89117 0.89120 1.25728
 C1748 C 0.90004 0.90012 1.23616
 C1749 C 0.87097 0.37101 0.80231
 C1750 C 0.88036 0.38028 0.78157
 C1751 C 0.89110 0.39083 0.75704
 C1752 C 0.90001 0.39961 0.73587
 C1753 C 0.37062 0.87166 0.80219
 C1754 C 0.38005 0.88098 0.78149
 C1755 C 0.39080 0.89156 0.75700
 C1756 C 0.39972 0.90036 0.73585
 C1757 C 0.37015 0.37123 1.30244
 C1758 C 0.37958 0.38046 1.28170
 C1759 C 0.39038 0.39093 1.25716
 C1760 C 0.39933 0.39965 1.23599
 C1761 C 0.87003 1.12904 0.69797
 C1762 C 0.87954 1.11979 0.71866
 C1763 C 0.89045 1.10929 0.74314
 C1764 C 0.89950 1.10054 0.76425
 C1765 C 0.87192 0.62783 0.19736
 C1766 C 0.88122 0.61850 0.21810
 C1767 C 0.89178 0.60790 0.24266
 C1768 C 0.90053 0.59913 0.26387
 C1769 C 0.37023 1.12881 0.19760
 C1770 C 0.37976 1.11965 0.21832
 C1771 C 0.39069 1.10926 0.24283
 C1772 C 0.39974 1.10060 0.26398
 C1773 C 0.37061 0.62827 0.69770
 C1774 C 0.38000 0.61893 0.71839
 C1775 C 0.39070 0.60830 0.74289
 C1776 C 0.39958 0.59947 0.76403
 C1777 C 1.12940 0.87150 0.69790
 C1778 C 1.11997 0.88079 0.71860
 C1779 C 1.10923 0.89137 0.74311
 C1780 C 1.10032 0.90017 0.76426
 C1781 C 1.12976 0.37115 0.19732
 C1782 C 1.12027 0.38039 0.21803
 C1783 C 1.10940 0.39089 0.24253
 C1784 C 1.10039 0.39963 0.26367
 C1785 C 0.62782 0.87225 0.19741
 C1786 C 0.61857 0.88161 0.21815
 C1787 C 0.60809 0.89225 0.24273
 C1788 C 0.59940 0.90105 0.26396
 C1789 C 0.63027 0.37089 0.69793
 C1790 C 0.62071 0.38014 0.71861
 C1791 C 0.60971 0.39061 0.74306
 C1792 C 0.60057 0.39934 0.76415
 C1793 C 1.30231 1.12869 1.12982
 C1794 C 1.28160 1.11946 1.12037
 C1795 C 1.25710 1.10899 1.10952
 C1796 C 1.23597 1.10027 1.10051
 C1797 C 1.30215 0.62898 0.62871
 C1798 C 1.28146 0.61955 0.61941
 C1799 C 1.25698 0.60877 0.60883
 C1800 C 1.23586 0.59983 0.60003
 C1801 C 0.80214 1.12911 0.63017
 C1802 C 0.78144 1.11987 0.62070
 C1803 C 0.75695 1.10936 0.60983
 C1804 C 0.73585 1.10061 0.60080
 C1805 C 0.80210 0.62809 1.12789
 C1806 C 0.78131 0.61879 1.11871
 C1807 C 0.75669 0.60819 1.10831
 C1808 C 0.73545 0.59941 1.09967
 C1809 C 1.30210 0.87089 0.87118
 C1810 C 1.28139 0.88024 0.88053
 C1811 C 1.25689 0.89090 0.89117
 C1812 C 1.23576 0.89977 0.90002
 C1813 C 1.30230 0.37119 0.37024
 C1814 C 1.28157 0.38044 0.37963
 C1815 C 1.25704 0.39096 0.39037
 C1816 C 1.23589 0.39971 0.39929
 C1817 C 0.80200 0.87164 0.37081
 C1818 C 0.78130 0.88099 0.38016
 C1819 C 0.75681 0.89164 0.39082
 C1820 C 0.73567 0.90049 0.39967
 C1821 C 0.80190 0.37162 0.87081
 C1822 C 0.78117 0.38081 0.88024
 C1823 C 0.75663 0.39123 0.89104
 C1824 C 0.73547 0.39991 0.89999
 C1825 C 0.69762 0.87204 1.12792
 C1826 C 0.71841 0.88136 1.11878
 C1827 C 0.74303 0.89201 1.10842
 C1828 C 0.76428 0.90082 1.09983
 C1829 C 0.69823 0.37073 0.63015
 C1830 C 0.71893 0.37994 0.62065
 C1831 C 0.74341 0.39042 0.60974
 C1832 C 0.76452 0.39915 0.60068
 C1833 C 0.19792 0.87098 0.62894
 C1834 C 0.21861 0.88044 0.61964
 C1835 C 0.24309 0.89124 0.60907
 C1836 C 0.26420 0.90020 0.60026
 C1837 C 0.19765 0.37106 1.12954
 C1838 C 0.21837 0.38029 1.12009
 C1839 C 0.24288 0.39078 1.10928
 C1840 C 0.26402 0.39951 1.10031
 C1841 C 0.69806 1.12919 0.87014
 C1842 C 0.71875 1.11994 0.87963
 C1843 C 0.74321 1.10942 0.89052
 C1844 C 0.76431 1.10065 0.89956
 C1845 C 0.69802 0.62846 0.37060
 C1846 C 0.71872 0.61912 0.37997
 C1847 C 0.74320 0.60848 0.39066
 C1848 C 0.76433 0.59965 0.39954
 C1849 C 0.19812 1.12920 0.37017
 C1850 C 0.21884 1.12001 0.37965
 C1851 C 0.24334 1.10955 0.39050
 C1852 C 0.26447 1.10083 0.39950
 C1853 C 0.19735 0.62759 0.87227
 C1854 C 0.21811 0.61827 0.88146
 C1855 C 0.24271 0.60766 0.89189
 C1856 C 0.26394 0.59889 0.90055
 C1857 C 1.12911 1.30222 1.12883
 C1858 C 1.11974 1.28154 1.11949
 C1859 C 1.10906 1.25705 1.10887
 C1860 C 1.10020 1.23591 1.10005
 C1861 C 1.12962 0.80180 0.62827
 C1862 C 1.12021 0.78108 0.61903
 C1863 C 1.10944 0.75657 0.60853
 C1864 C 1.10050 0.73542 0.59980
 C1865 C 0.62954 1.30202 0.62940
 C1866 C 0.62009 1.28139 0.62002
 C1867 C 0.60930 1.25696 0.60934
 C1868 C 0.60035 1.23588 0.60047
 C1869 C 0.62793 0.80237 1.12795
 C1870 C 0.61863 0.78158 1.11878
 C1871 C 0.60802 0.75698 1.10836
 C1872 C 0.59922 0.73574 1.09971
 C1873 C 0.87167 1.30216 0.87093
 C1874 C 0.88096 1.28148 0.88036
 C1875 C 0.89152 1.25700 0.89112
 C1876 C 0.90029 1.23587 0.90004
 C1877 C 0.87152 0.80186 0.37073
 C1878 C 0.88079 0.78112 0.38008
 C1879 C 0.89135 0.75659 0.39074
 C1880 C 0.90013 0.73543 0.39959
 C1881 C 0.37098 1.30248 0.37110
 C1882 C 0.38041 1.28184 0.38047
 C1883 C 0.39118 1.25740 0.39112
 C1884 C 0.40010 1.23630 0.39995
 C1885 C 0.37050 0.80186 0.87171
 C1886 C 0.37988 0.78113 0.88093
 C1887 C 0.39061 0.75660 0.89142
 C1888 C 0.39950 0.73543 0.90014
 C1889 C 1.12782 0.69736 0.87223
 C1890 C 1.11858 0.71816 0.88144
 C1891 C 1.10807 0.74278 0.89192
 C1892 C 1.09937 0.76403 0.90060
 C1893 C 1.12943 0.19787 0.37080
 C1894 C 1.11999 0.21853 0.38014
 C1895 C 1.10924 0.24298 0.39079
 C1896 C 1.10033 0.26408 0.39963
 C1897 C 0.62853 0.69826 0.37066
 C1898 C 0.61928 0.71898 0.38005
 C1899 C 0.60873 0.74350 0.39076
 C1900 C 0.59996 0.76465 0.39966
 C1901 C 0.62941 0.19793 0.87088
 C1902 C 0.61996 0.21856 0.88028
 C1903 C 0.60917 0.24297 0.89098
 C1904 C 0.60020 0.26404 0.89986
 C1905 C 0.87180 0.69772 1.12795
 C1906 C 0.88111 0.71851 1.11879
 C1907 C 0.89173 0.74313 1.10840
 C1908 C 0.90053 0.76437 1.09977
 C1909 C 0.87083 0.19782 0.62932
 C1910 C 0.88029 0.21844 0.61991
 C1911 C 0.89108 0.24285 0.60919
 C1912 C 0.90003 0.26392 0.60029
 C1913 C 0.37049 0.69812 0.62822
 C1914 C 0.37989 0.71886 0.61901
 C1915 C 0.39066 0.74340 0.60855
 C1916 C 0.39958 0.76456 0.59985
 C1917 C 0.37083 0.19753 1.12892
 C1918 C 0.38021 0.21820 1.11953
 C1919 C 0.39090 0.24266 1.10886
 C1920 C 0.39976 0.26378 1.10001
 C1921 C 1.12799 1.12896 0.69756
 C1922 C 1.11883 1.11953 0.71832
 C1923 C 1.10844 1.10877 0.74289
 C1924 C 1.09980 1.09986 0.76411
 C1925 C 1.12897 0.63008 0.19774
 C1926 C 1.11969 0.62050 0.21840
 C1927 C 1.10917 0.60952 0.24284
 C1928 C 1.10040 0.60040 0.26392
 C1929 C 0.62914 1.13023 0.19777
 C1930 C 0.61981 1.12079 0.21846
 C1931 C 0.60919 1.10999 0.24294
 C1932 C 0.60035 1.10102 0.26405
 C1933 C 0.62805 0.62819 0.69758
 C1934 C 0.61873 0.61886 0.71831
 C1935 C 0.60813 0.60823 0.74285
 C1936 C 0.59935 0.59942 0.76405
 C1937 C 0.87206 0.87198 0.69751
 C1938 C 0.88131 0.88131 0.71827
 C1939 C 0.89181 0.89193 0.74285
 C1940 C 0.90052 0.90073 0.76408
 C1941 C 0.87104 0.37107 0.19744
 C1942 C 0.88043 0.38036 0.21816
 C1943 C 0.89114 0.39091 0.24269
 C1944 C 0.90003 0.39967 0.26386
 C1945 C 0.37197 0.87093 0.19773
 C1946 C 0.38116 0.88046 0.21843
 C1947 C 0.39156 0.89137 0.24293
 C1948 C 0.40021 0.90039 0.26409
 C1949 C 0.37111 0.36998 0.69761
 C1950 C 0.38039 0.37941 0.71833
 C1951 C 0.39095 0.39019 0.74284
 C1952 C 0.39975 0.39914 0.76398
 C1953 C 1.12887 0.87120 1.30264
 C1954 C 1.11958 0.88059 1.28191
 C1955 C 1.10901 0.89131 1.25739
 C1956 C 1.10024 0.90019 1.23622
 C1957 C 1.12903 0.36963 0.80204
 C1958 C 1.11978 0.37913 0.78134
 C1959 C 1.10926 0.39003 0.75686
 C1960 C 1.10050 0.39907 0.73574
 C1961 C 0.62800 0.87197 0.80242
 C1962 C 0.61872 0.88128 0.78166
 C1963 C 0.60817 0.89187 0.75709
 C1964 C 0.59943 0.90064 0.73587
 C1965 C 0.62764 0.37124 1.30280
 C1966 C 0.61836 0.38059 1.28207
 C1967 C 0.60782 0.39123 1.25751
 C1968 C 0.59909 0.40005 1.23631
 C1969 C 0.87140 1.12989 1.30261
 C1970 C 0.88074 1.12044 1.28192
 C1971 C 0.89136 1.10964 1.25745
 C1972 C 0.90019 1.10067 1.23634
 C1973 C 0.87156 0.62836 0.80201
 C1974 C 0.88089 0.61903 0.78128
 C1975 C 0.89150 0.60840 0.75674
 C1976 C 0.90030 0.59959 0.73556
 C1977 C 0.37118 1.12987 0.80237
 C1978 C 0.38046 1.12043 0.78165
 C1979 C 0.39102 1.10963 0.75715
 C1980 C 0.39981 1.10066 0.73601
 C1981 C 0.37123 0.62892 1.30253
 C1982 C 0.38045 0.61947 1.28180
 C1983 C 0.39092 0.60867 1.25727
 C1984 C 0.39962 0.59973 1.23610
 C1985 C 1.12899 1.30182 0.86992
 C1986 C 1.11972 1.28115 0.87942
 C1987 C 1.10920 1.25670 0.89034
 C1988 C 1.10043 1.23561 0.89939
 C1989 C 1.12845 0.80203 0.37097
 C1990 C 1.11925 0.78126 0.38031
 C1991 C 1.10878 0.75669 0.39096
 C1992 C 1.10007 0.73549 0.39980
 C1993 C 0.62850 1.30276 0.37177
 C1994 C 0.61922 1.28200 0.38106
 C1995 C 0.60866 1.25743 0.39162
 C1996 C 0.59990 1.23622 0.40037
 C1997 C 0.62799 0.80217 0.87195
 C1998 C 0.61866 0.78141 0.88115
 C1999 C 0.60803 0.75682 0.89161
 C2000 C 0.59923 0.73561 0.90030
 C2001 C 0.87168 1.30213 1.12895
 C2002 C 0.88101 1.28142 1.11962
 C2003 C 0.89164 1.25691 1.10899
 C2004 C 0.90045 1.23575 1.10018
 C2005 C 0.87195 0.80222 0.62791
 C2006 C 0.88121 0.78145 0.61865
 C2007 C 0.89175 0.75686 0.60813
 C2008 C 0.90049 0.73564 0.59939
 C2009 C 0.37124 1.30221 0.62977
 C2010 C 0.38057 1.28153 0.62034
 C2011 C 0.39118 1.25707 0.60956
 C2012 C 0.40000 1.23597 0.60060
 C2013 C 0.37107 0.80217 1.12894
 C2014 C 0.38029 0.78139 1.11964
 C2015 C 0.39080 0.75681 1.10902
 C2016 C 0.39954 0.73561 1.10021
 C2017 C 0.87140 0.69810 0.87163
 C2018 C 0.88070 0.71884 0.88091
 C2019 C 0.89130 0.74339 0.89147
 C2020 C 0.90011 0.76458 0.90024
 C2021 C 0.87137 0.19774 0.37038
 C2022 C 0.88069 0.21842 0.37979
 C2023 C 0.89130 0.24289 0.39056
 C2024 C 0.90011 0.26401 0.39950
 C2025 C 0.37176 0.69814 0.37086
 C2026 C 0.38094 0.71890 0.38023
 C2027 C 0.39137 0.74347 0.39094
 C2028 C 0.40005 0.76465 0.39983
 C2029 C 0.37114 0.19765 0.87024
 C2030 C 0.38040 0.21834 0.87970
 C2031 C 0.39093 0.24282 0.89053
 C2032 C 0.39970 0.26393 0.89951
 C2033 C 1.12913 0.69813 1.13013
 C2034 C 1.11984 0.71885 1.12072
 C2035 C 1.10925 0.74334 1.10995
 C2036 C 1.10044 0.76445 1.10099
 C2037 C 1.12863 0.19747 0.62855
 C2038 C 1.11937 0.21821 0.61922
 C2039 C 1.10885 0.24277 0.60857
 C2040 C 1.10011 0.26395 0.59975
 C2041 C 0.62829 0.69799 0.62803
 C2042 C 0.61901 0.71877 0.61879
 C2043 C 0.60843 0.74335 0.60829
 C2044 C 0.59964 0.76456 0.59958
 C2045 C 0.62912 0.19799 1.12992
 C2046 C 0.61973 0.21864 1.12049
 C2047 C 0.60902 0.24307 1.10972
 C2048 C 0.60011 0.26414 1.10076
 C2049 C 1.30228 1.12912 0.87094
 C2050 C 1.28161 1.11974 0.88033
 C2051 C 1.25716 1.10905 0.89104
 C2052 C 1.23605 1.10018 0.89993
 C2053 C 1.30235 0.62826 0.37107
 C2054 C 1.28166 0.61890 0.38040
 C2055 C 1.25715 0.60824 0.39101
 C2056 C 1.23600 0.59940 0.39980
 C2057 C 0.80231 1.12940 0.37101
 C2058 C 0.78161 1.12007 0.38036
 C2059 C 0.75710 1.10944 0.39103
 C2060 C 0.73596 1.10060 0.39988
 C2061 C 0.80180 0.62837 0.87163
 C2062 C 0.78106 0.61904 0.88090
 C2063 C 0.75652 0.60840 0.89145
 C2064 C 0.73533 0.59958 0.90021
 C2065 C 1.30236 0.87087 1.12811
 C2066 C 1.28166 0.88034 1.11890
 C2067 C 1.25715 0.89115 1.10847
 C2068 C 1.23599 0.90010 1.09981
 C2069 C 1.30226 0.37061 0.62901
 C2070 C 1.28159 0.37997 0.61960
 C2071 C 1.25713 0.39064 0.60889
 C2072 C 1.23602 0.39951 0.59999
 C2073 C 0.80240 0.87197 0.62787
 C2074 C 0.78165 0.88130 0.61865
 C2075 C 0.75708 0.89194 0.60818
 C2076 C 0.73587 0.90075 0.59950
 C2077 C 0.80188 0.37161 1.12910
 C2078 C 0.78113 0.38084 1.11977
 C2079 C 0.75657 0.39134 1.10912
 C2080 C 0.73537 0.40006 1.10028
 C2081 C 0.69821 1.12964 1.12937
 C2082 C 0.71890 1.12023 1.12005
 C2083 C 0.74337 1.10949 1.10944
 C2084 C 0.76449 1.10056 1.10061
 C2085 C 0.69781 0.62819 0.62800
 C2086 C 0.71856 0.61883 0.61876
 C2087 C 0.74311 0.60816 0.60827
 C2088 C 0.76430 0.59933 0.59955
 C2089 C 0.19757 1.12904 0.62786
 C2090 C 0.21832 1.11968 0.61863
 C2091 C 0.24288 1.10902 0.60818
 C2092 C 0.26409 1.10019 0.59951
 C2093 C 0.19788 0.62944 1.12923
 C2094 C 0.21851 0.61994 1.11989
 C2095 C 0.24293 0.60906 1.10926
 C2096 C 0.26400 0.60004 1.10042
 C2097 C 0.69766 0.87183 0.87209
 C2098 C 0.71841 0.88114 0.88135
 C2099 C 0.74298 0.89175 0.89186
 C2100 C 0.76418 0.90056 0.90056
 C2101 C 0.69750 0.37116 0.37224
 C2102 C 0.71828 0.38047 0.38141
 C2103 C 0.74289 0.39109 0.39182
 C2104 C 0.76413 0.39987 0.40047
 C2105 C 0.19782 0.87196 0.37112
 C2106 C 0.21850 0.88133 0.38046
 C2107 C 0.24300 0.89199 0.39110
 C2108 C 0.26414 0.90082 0.39992
 C2109 C 0.19788 0.37031 0.87063
 C2110 C 0.21854 0.37969 0.88004
 C2111 C 0.24298 0.39038 0.89077
 C2112 C 0.26408 0.39926 0.89967
   
