data_POSCAR
  _audit_creation_date              2014-09-24
  _audit_creation_method            'ToBaCCo'
  _symmetry_space_group_name_H-M    'P1'
  _symmetry_Int_Tables_number       1
  _symmetry_cell_setting            triclinic
  loop_
  _symmetry_equiv_pos_as_xyz
 x,y,z
_cell_length_a 88.3073
_cell_length_b 85.7107
_cell_length_c 88.4558
_cell_angle_alpha 89.931600
_cell_angle_beta 89.873200
_cell_angle_gamma 89.817900
loop_
  _atom_site_label
  _atom_site_type_symbol
  _atom_site_fract_x
  _atom_site_fract_y
  _atom_site_fract_z
N1 N 0.36092 0.32632 0.33281
 N2 N 0.35845 0.33774 0.32318
 C3 C 0.36879 0.33698 0.31201
 C4 C 0.37831 0.32455 0.31486
 C5 C 0.37304 0.31801 0.32818
 H6 H 0.36916 0.34459 0.30226
 H7 H 0.37725 0.30762 0.33370
 Cu8 Cu 0.34139 0.35182 0.32566
 Cu9 Cu 0.34738 0.32229 0.34982
 Cu10 Cu 0.31675 0.34747 0.35424
 N11 N 0.32434 0.36592 0.32819
 N12 N 0.31460 0.36407 0.33930
 C13 C 0.30343 0.37471 0.33789
 C14 C 0.30640 0.38371 0.32528
 C15 C 0.31975 0.37782 0.31938
 H16 H 0.29369 0.37563 0.34527
 H17 H 0.32535 0.38151 0.30912
 N18 N 0.32091 0.32996 0.36811
 N19 N 0.33239 0.32022 0.36628
 C20 C 0.33146 0.30888 0.37679
 C21 C 0.31891 0.31169 0.38570
 C22 C 0.31248 0.32515 0.37992
 H23 H 0.33908 0.29902 0.37769
 H24 H 0.30206 0.33060 0.38360
 H25 H 0.32812 0.33193 0.34026
 H26 H 0.33993 0.34493 0.35231
 N27 N 0.36433 0.82331 -0.16414
 N28 N 0.36726 0.83541 -0.17282
 C29 C 0.37945 0.83217 -0.18151
 C30 C 0.38429 0.81717 -0.17808
 C31 C 0.37444 0.81194 -0.16706
 H32 H 0.38410 0.83998 -0.18992
 H33 H 0.37463 0.80065 -0.16158
 Cu34 Cu 0.35428 0.85383 -0.17264
 Cu35 Cu 0.34786 0.82315 -0.14945
 Cu36 Cu 0.32550 0.85628 -0.14798
 N37 N 0.33759 0.86852 -0.17564
 N38 N 0.32632 0.86915 -0.16593
 C39 C 0.31604 0.87963 -0.17065
 C40 C 0.32105 0.88595 -0.18408
 C41 C 0.33486 0.87872 -0.18697
 H42 H 0.30554 0.88226 -0.16485
 H43 H 0.34213 0.88035 -0.19669
 N44 N 0.32244 0.83835 -0.13461
 N45 N 0.33073 0.82554 -0.13524
 C46 C 0.32512 0.81510 -0.12529
 C47 C 0.31264 0.82171 -0.11826
 C48 C 0.31126 0.83640 -0.12445
 H49 H 0.32943 0.80339 -0.12368
 H50 H 0.30246 0.84485 -0.12209
 H51 H 0.33417 0.83867 -0.16105
 H52 H 0.34735 0.84663 -0.14655
 N53 N 0.86091 0.32193 -0.16702
 N54 N 0.86235 0.33486 -0.17489
 C55 C 0.87316 0.33273 -0.18552
 C56 C 0.87860 0.31760 -0.18413
 C57 C 0.87057 0.31114 -0.17237
 H58 H 0.87651 0.34136 -0.19380
 H59 H 0.87169 0.29939 -0.16805
 Cu60 Cu 0.84930 0.35278 -0.17083
 Cu61 Cu 0.84695 0.31989 -0.15025
 Cu62 Cu 0.82083 0.34934 -0.14515
 N63 N 0.83236 0.36739 -0.17015
 N64 N 0.82125 0.36583 -0.16033
 C65 C 0.81056 0.37665 -0.16319
 C66 C 0.81521 0.38551 -0.17539
 C67 C 0.82917 0.37937 -0.17951
 H68 H 0.79997 0.37775 -0.15709
 H69 H 0.83617 0.38283 -0.18897
 N70 N 0.82233 0.33119 -0.13146
 N71 N 0.83214 0.31979 -0.13377
 C72 C 0.82995 0.30858 -0.12337
 C73 C 0.81827 0.31312 -0.11402
 C74 C 0.81364 0.32754 -0.11940
 H75 H 0.83620 0.29774 -0.12273
 H76 H 0.80434 0.33454 -0.11521
 H77 H 0.83101 0.33474 -0.16029
 H78 H 0.84341 0.34354 -0.14539
 N79 N 0.85938 0.81613 0.32938
 N80 N 0.85441 0.82122 0.31627
 C81 C 0.86398 0.81686 0.30529
 C82 C 0.87570 0.80864 0.31171
 C83 C 0.87250 0.80827 0.32710
 H84 H 0.86277 0.81989 0.29347
 H85 H 0.87922 0.80291 0.33591
 Cu86 Cu 0.83688 0.83448 0.31425
 Cu87 Cu 0.84799 0.82046 0.34802
 Cu88 Cu 0.82231 0.85103 0.34524
 N89 N 0.82520 0.85346 0.31313
 N90 N 0.82016 0.86056 0.32530
 C91 C 0.81325 0.87396 0.32117
 C92 C 0.81413 0.87515 0.30553
 C93 C 0.82173 0.86194 0.30086
 H94 H 0.80793 0.88205 0.32892
 H95 H 0.82476 0.85886 0.28938
 N96 N 0.82567 0.83926 0.36409
 N97 N 0.83508 0.82729 0.36517
 C98 C 0.83264 0.82000 0.37849
 C99 C 0.82111 0.82780 0.38603
 C100 C 0.81707 0.83992 0.37662
 H101 H 0.83800 0.80919 0.38187
 H102 H 0.80761 0.84780 0.37825
 H103 H 0.82742 0.82792 0.33910
 H104 H 0.84356 0.84219 0.33951
 N105 N 0.63520 0.67996 0.34265
 N106 N 0.63321 0.66868 0.33279
 C107 C 0.62072 0.67182 0.32454
 C108 C 0.61467 0.68583 0.32957
 C109 C 0.62412 0.69061 0.34103
 H110 H 0.61676 0.66480 0.31522
 H111 H 0.62330 0.70140 0.34731
 Cu112 Cu 0.64771 0.65159 0.33087
 Cu113 Cu 0.65268 0.68100 0.35590
 Cu114 Cu 0.68100 0.65412 0.34932
 N115 N 0.66468 0.63779 0.32615
 N116 N 0.67767 0.63914 0.33327
 C117 C 0.68759 0.62877 0.32762
 C118 C 0.68051 0.62038 0.31643
 C119 C 0.66593 0.62636 0.31572
 H120 H 0.69920 0.62745 0.33130
 H121 H 0.65705 0.62293 0.30802
 N122 N 0.68232 0.67006 0.36519
 N123 N 0.67136 0.68016 0.36798
 C124 C 0.67574 0.68968 0.37927
 C125 C 0.69016 0.68532 0.38370
 C126 C 0.69397 0.67290 0.37456
 H127 H 0.66913 0.69933 0.38359
 H128 H 0.70458 0.66658 0.37463
 H129 H 0.66622 0.67026 0.33995
 H130 H 0.65863 0.65765 0.35553
 N131 N 0.63831 0.17811 -0.15885
 N132 N 0.63631 0.16738 -0.16928
 C133 C 0.62442 0.17154 -0.17799
 C134 C 0.61884 0.18565 -0.17270
 C135 C 0.62792 0.18945 -0.16062
 H136 H 0.62061 0.16517 -0.18781
 H137 H 0.62728 0.19997 -0.15390
 Cu138 Cu 0.65020 0.14971 -0.17129
 Cu139 Cu 0.65475 0.17741 -0.14433
 Cu140 Cu 0.68249 0.15003 -0.15093
 N141 N 0.66713 0.13579 -0.17599
 N142 N 0.67980 0.13648 -0.16823
 C143 C 0.68984 0.12631 -0.17398
 C144 C 0.68317 0.11867 -0.18592
 C145 C 0.66868 0.12491 -0.18694
 H146 H 0.70121 0.12452 -0.16978
 H147 H 0.66007 0.12206 -0.19516
 N148 N 0.68323 0.16459 -0.13386
 N149 N 0.67242 0.17484 -0.13104
 C150 C 0.67624 0.18321 -0.11874
 C151 C 0.69016 0.17794 -0.11367
 C152 C 0.69426 0.16620 -0.12350
 H153 H 0.66965 0.19274 -0.11415
 H154 H 0.70466 0.15952 -0.12323
 H155 H 0.66869 0.16716 -0.16020
 H156 H 0.65986 0.15390 -0.14578
 N157 N 0.13978 0.67644 -0.17099
 N158 N 0.14308 0.67027 -0.18420
 C159 C 0.13241 0.67428 -0.19427
 C160 C 0.12182 0.68346 -0.18708
 C161 C 0.12679 0.68469 -0.17226
 H162 H 0.13238 0.67084 -0.20603
 H163 H 0.12155 0.69124 -0.16320
 Cu164 Cu 0.16088 0.65758 -0.18746
 Cu165 Cu 0.15313 0.67355 -0.15359
 Cu166 Cu 0.18098 0.64522 -0.15765
 N167 N 0.17402 0.63959 -0.18878
 N168 N 0.18158 0.63437 -0.17703
 C169 C 0.18953 0.62162 -0.18116
 C170 C 0.18669 0.61880 -0.19632
 C171 C 0.17686 0.63043 -0.20077
 H172 H 0.19694 0.61508 -0.17377
 H173 H 0.17207 0.63206 -0.21191
 N174 N 0.17853 0.65778 -0.13914
 N175 N 0.16801 0.66866 -0.13757
 C176 C 0.17049 0.67646 -0.12459
 C177 C 0.18324 0.67021 -0.11776
 C178 C 0.18797 0.65840 -0.12724
 H179 H 0.16416 0.68660 -0.12096
 H180 H 0.19817 0.65149 -0.12604
 H181 H 0.17294 0.66695 -0.16458
 H182 H 0.15851 0.65138 -0.16089
 N183 N 0.13428 0.16941 0.32681
 N184 N 0.13717 0.15752 0.31787
 C185 C 0.12715 0.15756 0.30641
 C186 C 0.11741 0.17003 0.30836
 C187 C 0.12224 0.17733 0.32142
 H188 H 0.12700 0.14927 0.29721
 H189 H 0.11763 0.18782 0.32643
 Cu190 Cu 0.15396 0.14326 0.32174
 Cu191 Cu 0.14667 0.17416 0.34438
 Cu192 Cu 0.17718 0.14975 0.35115
 N193 N 0.17168 0.13018 0.32545
 N194 N 0.18073 0.13294 0.33690
 C195 C 0.19246 0.12291 0.33644
 C196 C 0.19066 0.11328 0.32413
 C197 C 0.17733 0.11816 0.31734
 H198 H 0.20183 0.12283 0.34429
 H199 H 0.17244 0.11369 0.30703
 N200 N 0.17190 0.16734 0.36436
 N201 N 0.16053 0.17695 0.36161
 C202 C 0.16058 0.18839 0.37207
 C203 C 0.17242 0.18569 0.38191
 C204 C 0.17936 0.17227 0.37669
 H205 H 0.15276 0.19811 0.37240
 H206 H 0.18948 0.16687 0.38118
 H207 H 0.16612 0.16421 0.33579
 H208 H 0.15392 0.15169 0.34809
 N209 N 0.63943 0.31862 0.67478
 N210 N 0.64371 0.32657 0.68672
 C211 C 0.63387 0.32420 0.69806
 C212 C 0.62277 0.31423 0.69307
 C213 C 0.62658 0.31084 0.67820
 H214 H 0.63478 0.32922 0.70923
 H215 H 0.62071 0.30305 0.67060
 Cu216 Cu 0.66178 0.33916 0.68679
 Cu217 Cu 0.65175 0.31856 0.65632
 Cu218 Cu 0.68055 0.34615 0.65452
 N219 N 0.67522 0.35675 0.68480
 N220 N 0.68251 0.35984 0.67218
 C221 C 0.69108 0.37269 0.67430
 C222 C 0.68889 0.37777 0.68905
 C223 C 0.67879 0.36740 0.69530
 H224 H 0.69852 0.37772 0.66589
 H225 H 0.67445 0.36754 0.70674
 N226 N 0.67661 0.33098 0.63811
 N227 N 0.66571 0.32047 0.63887
 C228 C 0.66703 0.31071 0.62701
 C229 C 0.67928 0.31526 0.61837
 C230 C 0.68509 0.32819 0.62569
 H231 H 0.66013 0.30048 0.62521
 H232 H 0.69530 0.33445 0.62276
 H233 H 0.67240 0.32607 0.66486
 H234 H 0.65821 0.34146 0.65976
 N235 N 0.63570 0.81677 1.16705
 N236 N 0.63349 0.82865 1.17617
 C237 C 0.62215 0.82516 1.18583
 C238 C 0.61711 0.81027 1.18249
 C239 C 0.62595 0.80533 1.17057
 H240 H 0.61821 0.83267 1.19484
 H241 H 0.62545 0.79409 1.16505
 Cu242 Cu 0.64617 0.84716 1.17499
 Cu243 Cu 0.65122 0.81670 1.15159
 Cu244 Cu 0.67556 0.84814 1.15021
 N245 N 0.66141 0.86347 1.17547
 N246 N 0.67256 0.86409 1.16561
 C247 C 0.68157 0.87625 1.16900
 C248 C 0.67577 0.88353 1.18173
 C249 C 0.66303 0.87511 1.18554
 H250 H 0.69195 0.87907 1.16311
 H251 H 0.65576 0.87704 1.19522
 N252 N 0.67669 0.83060 1.13579
 N253 N 0.66749 0.81852 1.13663
 C254 C 0.67168 0.80786 1.12630
 C255 C 0.68403 0.81344 1.11854
 C256 C 0.68698 0.82792 1.12477
 H257 H 0.66644 0.79659 1.12477
 H258 H 0.69629 0.83557 1.12198
 H259 H 0.66591 0.83117 1.16352
 H260 H 0.65349 0.84072 1.14907
 N261 N 0.13659 0.31455 1.16957
 N262 N 0.13876 0.32214 1.18229
 C263 C 0.12827 0.31781 1.19244
 C264 C 0.11895 0.30693 1.18584
 C265 C 0.12450 0.30505 1.17126
 H266 H 0.12747 0.32221 1.20387
 H267 H 0.12027 0.29723 1.16267
 Cu268 Cu 0.15498 0.33701 1.18493
 Cu269 Cu 0.15028 0.31742 1.15229
 Cu270 Cu 0.17521 0.34854 1.15492
 N271 N 0.16651 0.35618 1.18524
 N272 N 0.17421 0.36094 1.17338
 C273 C 0.18138 0.37433 1.17687
 C274 C 0.17792 0.37806 1.19173
 C275 C 0.16849 0.36630 1.19666
 H276 H 0.18887 0.38058 1.16932
 H277 H 0.16363 0.36508 1.20783
 N278 N 0.17456 0.33448 1.13731
 N279 N 0.16521 0.32252 1.13626
 C280 C 0.16872 0.31430 1.12372
 C281 C 0.18089 0.32145 1.11665
 C282 C 0.18423 0.33417 1.12554
 H283 H 0.16342 0.30346 1.12047
 H284 H 0.19360 0.34210 1.12395
 H285 H 0.16875 0.32681 1.16327
 H286 H 0.15315 0.34056 1.15783
 N287 N 0.13490 0.82087 0.66855
 N288 N 0.13463 0.83248 0.67826
 C289 C 0.12373 0.82979 0.68864
 C290 C 0.11693 0.81571 0.68517
 C291 C 0.12435 0.81036 0.67246
 H292 H 0.12128 0.83719 0.69824
 H293 H 0.12246 0.79939 0.66674
 Cu294 Cu 0.14944 0.84912 0.67658
 Cu295 Cu 0.14938 0.81973 0.65194
 Cu296 Cu 0.17591 0.84950 0.64944
 N297 N 0.16479 0.86529 0.67602
 N298 N 0.17496 0.86558 0.66512
 C299 C 0.18474 0.87727 0.66772
 C300 C 0.18049 0.88465 0.68098
 C301 C 0.16785 0.87673 0.68598
 H302 H 0.19472 0.87959 0.66097
 H303 H 0.16172 0.87879 0.69640
 N304 N 0.17493 0.83206 0.63486
 N305 N 0.16490 0.82071 0.63597
 C306 C 0.16771 0.81005 0.62517
 C307 C 0.18004 0.81488 0.61687
 C308 C 0.18439 0.82889 0.62326
 H309 H 0.16158 0.79926 0.62372
 H310 H 0.19407 0.83588 0.62013
 H311 H 0.16633 0.83220 0.66237
 H312 H 0.15330 0.84342 0.64985
 N313 N 0.36719 0.68210 0.67184
 N314 N 0.36205 0.67547 0.68422
 C315 C 0.37138 0.67866 0.69577
 C316 C 0.38301 0.68779 0.69038
 C317 C 0.38005 0.68982 0.67512
 H318 H 0.36975 0.67476 0.70729
 H319 H 0.38646 0.69671 0.66712
 Cu320 Cu 0.34368 0.66336 0.68433
 Cu321 Cu 0.35582 0.68121 0.65298
 Cu322 Cu 0.32631 0.65463 0.65156
 N323 N 0.33027 0.64576 0.68256
 N324 N 0.32377 0.64181 0.66976
 C325 C 0.31577 0.62859 0.67201
 C326 C 0.31749 0.62422 0.68703
 C327 C 0.32667 0.63538 0.69331
 H328 H 0.30922 0.62269 0.66344
 H329 H 0.33069 0.63574 0.70485
 N330 N 0.33117 0.66899 0.63467
 N331 N 0.34266 0.67882 0.63520
 C332 C 0.34204 0.68833 0.62313
 C333 C 0.32958 0.68444 0.61460
 C334 C 0.32293 0.67206 0.62217
 H335 H 0.34938 0.69823 0.62127
 H336 H 0.31230 0.66651 0.61944
 H337 H 0.33434 0.67500 0.66118
 H338 H 0.34823 0.65873 0.65781
 N339 N 0.35881 0.17769 1.16544
 N340 N 0.36148 0.16623 1.17499
 C341 C 0.37235 0.17074 1.18476
 C342 C 0.37655 0.18586 1.18108
 C343 C 0.36773 0.18985 1.16885
 H344 H 0.37651 0.16377 1.19407
 H345 H 0.36776 0.20090 1.16292
 Cu346 Cu 0.34976 0.14696 1.17425
 Cu347 Cu 0.34405 0.17630 1.14926
 Cu348 Cu 0.32306 0.14246 1.14752
 N349 N 0.33403 0.13104 1.17605
 N350 N 0.32356 0.12966 1.16560
 C351 C 0.31383 0.11838 1.16958
 C352 C 0.31838 0.11225 1.18324
 C353 C 0.33129 0.12051 1.18711
 H354 H 0.30399 0.11503 1.16311
 H355 H 0.33790 0.11930 1.19733
 N356 N 0.32063 0.15964 1.13305
 N357 N 0.32864 0.17259 1.13363
 C358 C 0.32387 0.18233 1.12265
 C359 C 0.31220 0.17517 1.11493
 C360 C 0.31041 0.16086 1.12184
 H361 H 0.32814 0.19398 1.12079
 H362 H 0.30198 0.15217 1.11917
 H363 H 0.33005 0.16089 1.16055
 H364 H 0.34463 0.15265 1.14745
 N365 N 0.86357 0.66946 1.16930
 N366 N 0.86241 0.65843 1.17959
 C367 C 0.87184 0.66152 1.19109
 C368 C 0.87953 0.67508 1.18781
 C369 C 0.87407 0.67987 1.17385
 H370 H 0.87302 0.65444 1.20115
 H371 H 0.87717 0.69027 1.16766
 Cu372 Cu 0.84879 0.64098 1.17718
 Cu373 Cu 0.85081 0.66941 1.15116
 Cu374 Cu 0.82000 0.64418 1.15306
 N375 N 0.83162 0.62703 1.17839
 N376 N 0.82039 0.62822 1.16874
 C377 C 0.80975 0.61761 1.17226
 C378 C 0.81455 0.60945 1.18489
 C379 C 0.82844 0.61577 1.18853
 H380 H 0.79906 0.61637 1.16645
 H381 H 0.83552 0.61264 1.19803
 N382 N 0.82174 0.66097 1.13795
 N383 N 0.83352 0.67038 1.13685
 C384 C 0.83102 0.68060 1.12547
 C385 C 0.81696 0.67740 1.11927
 C386 C 0.81146 0.66499 1.12746
 H387 H 0.83856 0.68997 1.12232
 H388 H 0.80057 0.65948 1.12597
 H389 H 0.83382 0.66034 1.16392
 H390 H 0.84304 0.64658 1.15048
 N391 N 0.86660 0.17828 0.67127
 N392 N 0.86262 0.17004 0.68315
 C393 C 0.87290 0.17211 0.69418
 C394 C 0.88391 0.18214 0.68889
 C395 C 0.87958 0.18585 0.67429
 H396 H 0.87220 0.16707 0.70537
 H397 H 0.88501 0.19399 0.66669
 Cu398 Cu 0.84404 0.15802 0.68339
 Cu399 Cu 0.85366 0.18008 0.65361
 Cu400 Cu 0.82323 0.15485 0.65149
 N401 N 0.82908 0.14174 0.68082
 N402 N 0.82112 0.14022 0.66836
 C403 C 0.81159 0.12805 0.66999
 C404 C 0.81379 0.12171 0.68424
 C405 C 0.82492 0.13068 0.69075
 H406 H 0.80345 0.12438 0.66161
 H407 H 0.82952 0.12933 0.70201
 N408 N 0.82755 0.17075 0.63584
 N409 N 0.83922 0.18030 0.63676
 C410 C 0.83833 0.19090 0.62559
 C411 C 0.82556 0.18792 0.61719
 C412 C 0.81896 0.17502 0.62392
 H413 H 0.84591 0.20067 0.62415
 H414 H 0.80823 0.16980 0.62099
 H415 H 0.83286 0.17322 0.66297
 H416 H 0.84578 0.15731 0.65612
 N417 N 0.32765 0.35669 0.65883
 N418 N 0.33855 0.35842 0.66879
 C419 C 0.33509 0.37053 0.67791
 C420 C 0.32126 0.37659 0.67336
 C421 C 0.31691 0.36754 0.66127
 H422 H 0.34176 0.37416 0.68752
 H423 H 0.30638 0.36843 0.65510
 Cu424 Cu 0.35550 0.34384 0.66973
 Cu425 Cu 0.32722 0.33973 0.64430
 Cu426 Cu 0.35379 0.31070 0.64926
 N427 N 0.36902 0.32627 0.67364
 N428 N 0.36797 0.31331 0.66578
 C429 C 0.37793 0.30282 0.67113
 C430 C 0.38573 0.30952 0.68290
 C431 C 0.37984 0.32446 0.68427
 H432 H 0.37931 0.29106 0.66692
 H433 H 0.38284 0.33313 0.69260
 N434 N 0.33862 0.31017 0.63307
 N435 N 0.32866 0.32145 0.63093
 C436 C 0.31956 0.31755 0.61933
 C437 C 0.32403 0.30308 0.61401
 C438 C 0.33610 0.29875 0.62296
 H439 H 0.31004 0.32442 0.61548
 H440 H 0.34232 0.28789 0.62234
 H441 H 0.33779 0.32505 0.65942
 H442 H 0.34997 0.33408 0.64441
 N443 N 0.32328 0.85879 0.16118
 N444 N 0.33433 0.85922 0.17112
 C445 C 0.33134 0.87053 0.18132
 C446 C 0.31766 0.87745 0.17751
 C447 C 0.31290 0.86971 0.16473
 H448 H 0.33827 0.87308 0.19106
 H449 H 0.30239 0.87159 0.15873
 Cu450 Cu 0.35105 0.84424 0.17054
 Cu451 Cu 0.32236 0.84348 0.14497
 Cu452 Cu 0.34858 0.81378 0.14664
 N453 N 0.36454 0.82618 0.17220
 N454 N 0.36308 0.81424 0.16300
 C455 C 0.37324 0.80321 0.16664
 C456 C 0.38166 0.80844 0.17866
 C457 C 0.37589 0.82312 0.18200
 H458 H 0.37451 0.79212 0.16094
 H459 H 0.37948 0.83082 0.19097
 N460 N 0.33323 0.81515 0.13073
 N461 N 0.32338 0.82670 0.12975
 C462 C 0.31425 0.82413 0.11779
 C463 C 0.31864 0.81026 0.11105
 C464 C 0.33063 0.80491 0.11954
 H465 H 0.30479 0.83146 0.11460
 H466 H 0.33679 0.79414 0.11780
 H467 H 0.33275 0.82725 0.15846
 H468 H 0.34493 0.83775 0.14437
 N469 N 0.81936 0.36354 0.17443
 N470 N 0.82674 0.35965 0.18676
 C471 C 0.82286 0.36951 0.19797
 C472 C 0.81254 0.38016 0.19233
 C473 C 0.81058 0.37604 0.17733
 H474 H 0.82689 0.36873 0.20948
 H475 H 0.80278 0.38120 0.16935
 Cu476 Cu 0.84000 0.34157 0.18723
 Cu477 Cu 0.81997 0.35067 0.15637
 Cu478 Cu 0.84660 0.32092 0.15530
 N479 N 0.85720 0.32761 0.18528
 N480 N 0.85995 0.31955 0.17292
 C481 C 0.87248 0.31076 0.17510
 C482 C 0.87776 0.31360 0.18960
 C483 C 0.86782 0.32432 0.19566
 H484 H 0.87724 0.30281 0.16687
 H485 H 0.86824 0.32925 0.20689
 N486 N 0.83184 0.32464 0.13883
 N487 N 0.82199 0.33626 0.13924
 C488 C 0.81239 0.33489 0.12755
 C489 C 0.81629 0.32184 0.11937
 C490 C 0.82875 0.31558 0.12674
 H491 H 0.80255 0.34217 0.12571
 H492 H 0.83440 0.30469 0.12415
 H493 H 0.82744 0.32952 0.16576
 H494 H 0.84242 0.34385 0.16007
 N495 N 0.82799 0.86687 0.66775
 N496 N 0.83803 0.86583 0.67868
 C497 C 0.83539 0.87717 0.68885
 C498 C 0.82310 0.88582 0.68403
 C499 C 0.81870 0.87902 0.67053
 H500 H 0.84162 0.87871 0.69926
 H501 H 0.80904 0.88212 0.66365
 Cu502 Cu 0.85313 0.84927 0.67899
 Cu503 Cu 0.82698 0.85136 0.65158
 Cu504 Cu 0.84186 0.81595 0.66322
 N505 N 0.86563 0.83057 0.67999
 N506 N 0.86098 0.81747 0.67387
 C507 C 0.87108 0.80611 0.67676
 C508 C 0.88276 0.81242 0.68503
 C509 C 0.87897 0.82800 0.68694
 H510 H 0.86990 0.79407 0.67327
 H511 H 0.88524 0.83672 0.69313
 N512 N 0.82700 0.81797 0.64686
 N513 N 0.82204 0.83148 0.64164
 C514 C 0.81328 0.82888 0.62943
 C515 C 0.81279 0.81292 0.62698
 C516 C 0.82150 0.80642 0.63825
 H517 H 0.80770 0.83790 0.62292
 H518 H 0.82408 0.79417 0.63975
 H519 H 0.83066 0.83653 0.66885
 H520 H 0.84648 0.83733 0.65485
 N521 N 0.68299 0.64219 0.66288
 N522 N 0.67353 0.63995 0.67419
 C523 C 0.67868 0.62804 0.68277
 C524 C 0.69208 0.62265 0.67649
 C525 C 0.69449 0.63193 0.66396
 H526 H 0.67342 0.62401 0.69310
 H527 H 0.70407 0.63137 0.65633
 Cu528 Cu 0.65621 0.65378 0.67714
 Cu529 Cu 0.68008 0.65862 0.64788
 Cu530 Cu 0.64903 0.68301 0.65289
 N531 N 0.63882 0.66757 0.67994
 N532 N 0.63599 0.67883 0.67022
 C533 C 0.62379 0.68696 0.67490
 C534 C 0.61875 0.68053 0.68834
 C535 C 0.62857 0.66829 0.69125
 H536 H 0.61932 0.69716 0.66924
 H537 H 0.62843 0.66076 0.70107
 N538 N 0.66350 0.68537 0.63605
 N539 N 0.67516 0.67593 0.63395
 C540 C 0.68307 0.68083 0.62180
 C541 C 0.67608 0.69404 0.61609
 C542 C 0.66379 0.69661 0.62540
 H543 H 0.69348 0.67560 0.61779
 H544 H 0.65586 0.70622 0.62462
 H545 H 0.66873 0.67382 0.66205
 H546 H 0.65695 0.66046 0.65034
 N547 N 0.67496 0.13788 0.16751
 N548 N 0.66687 0.13965 0.17989
 C549 C 0.67078 0.12861 0.18995
 C550 C 0.68197 0.11947 0.18362
 C551 C 0.68439 0.12561 0.16932
 H552 H 0.66611 0.12756 0.20122
 H553 H 0.69270 0.12183 0.16110
 Cu554 Cu 0.65264 0.15664 0.18242
 Cu555 Cu 0.67329 0.15251 0.15064
 Cu556 Cu 0.64372 0.17916 0.15270
 N557 N 0.63418 0.16885 0.18201
 N558 N 0.63057 0.17763 0.17036
 C559 C 0.61757 0.18528 0.17345
 C560 C 0.61288 0.18099 0.18782
 C561 C 0.62366 0.17056 0.19288
 H562 H 0.61224 0.19366 0.16602
 H563 H 0.62399 0.16490 0.20382
 N564 N 0.65837 0.17873 0.13589
 N565 N 0.66953 0.16847 0.13497
 C566 C 0.67836 0.17213 0.12306
 C567 C 0.67252 0.18540 0.11630
 C568 C 0.65988 0.18924 0.12469
 H569 H 0.68883 0.16626 0.12019
 H570 H 0.65282 0.19946 0.12320
 H571 H 0.66399 0.17128 0.16183
 H572 H 0.65051 0.15597 0.15507
 N573 N 0.18069 0.65009 0.17444
 N574 N 0.16807 0.64365 0.17926
 C575 C 0.17153 0.63105 0.18775
 C576 C 0.18718 0.62973 0.18823
 C577 C 0.19257 0.64205 0.17982
 H578 H 0.16332 0.62344 0.19303
 H579 H 0.20430 0.64469 0.17737
 Cu580 Cu 0.14856 0.65274 0.17387
 Cu581 Cu 0.18096 0.66786 0.16083
 Cu582 Cu 0.14719 0.67475 0.14249
 N583 N 0.13102 0.66578 0.16936
 N584 N 0.13045 0.67420 0.15692
 C585 C 0.11791 0.68313 0.15718
 C586 C 0.11028 0.68028 0.17051
 C587 C 0.11885 0.66912 0.17799
 H588 H 0.11509 0.69183 0.14876
 H589 H 0.11698 0.66457 0.18925
 N590 N 0.16675 0.68144 0.13424
 N591 N 0.17950 0.67962 0.14180
 C592 C 0.19094 0.68571 0.13370
 C593 C 0.18513 0.69162 0.12043
 C594 C 0.16971 0.68877 0.12109
 H595 H 0.20272 0.68546 0.13703
 H596 H 0.16127 0.69178 0.11274
 H597 H 0.15891 0.67611 0.16189
 H598 H 0.16286 0.65804 0.15080
 N599 N 0.17763 0.13983 0.67065
 N600 N 0.17053 0.14300 0.68337
 C601 C 0.17450 0.13247 0.69391
 C602 C 0.18463 0.12215 0.68751
 C603 C 0.18642 0.12711 0.67270
 H604 H 0.17041 0.13238 0.70544
 H605 H 0.19370 0.12206 0.66416
 Cu606 Cu 0.15685 0.16053 0.68543
 Cu607 Cu 0.17530 0.15298 0.65275
 Cu608 Cu 0.14643 0.18031 0.65440
 N609 N 0.13889 0.17351 0.68519
 N610 N 0.13459 0.18096 0.67294
 C611 C 0.12205 0.18934 0.67606
 C612 C 0.11838 0.18698 0.69111
 C613 C 0.12929 0.17689 0.69655
 H614 H 0.11640 0.19697 0.66812
 H615 H 0.13030 0.17256 0.70800
 N616 N 0.15979 0.17796 0.63675
 N617 N 0.17089 0.16763 0.63605
 C618 C 0.17896 0.17016 0.62332
 C619 C 0.17261 0.18275 0.61579
 C620 C 0.16052 0.18734 0.62459
 H621 H 0.18924 0.16402 0.62031
 H622 H 0.15338 0.19743 0.62270
 H623 H 0.16728 0.17299 0.66301
 H624 H 0.15314 0.15738 0.65851
 N625 N 0.32316 0.63499 0.33906
 N626 N 0.33330 0.63383 0.32819
 C627 C 0.32944 0.62195 0.31900
 C628 C 0.31619 0.61540 0.32450
 C629 C 0.31260 0.62392 0.33721
 H630 H 0.33537 0.61887 0.30871
 H631 H 0.30266 0.62256 0.34424
 Cu632 Cu 0.34970 0.64891 0.32610
 Cu633 Cu 0.32352 0.65138 0.35422
 Cu634 Cu 0.34740 0.68192 0.34653
 N635 N 0.36183 0.66725 0.32114
 N636 N 0.36006 0.68026 0.32881
 C637 C 0.36880 0.69142 0.32280
 C638 C 0.37671 0.68512 0.31091
 C639 C 0.37212 0.66969 0.31005
 H640 H 0.36954 0.70327 0.32691
 H641 H 0.37568 0.66108 0.30184
 N642 N 0.33396 0.68166 0.36407
 N643 N 0.32482 0.66996 0.36721
 C644 C 0.31679 0.67351 0.37974
 C645 C 0.32115 0.68819 0.38453
 C646 C 0.33202 0.69296 0.37439
 H647 H 0.30812 0.66622 0.38466
 H648 H 0.33777 0.70408 0.37438
 H649 H 0.33155 0.66624 0.33802
 H650 H 0.34563 0.65825 0.35190
 N651 N 0.32484 0.13415 0.83060
 N652 N 0.33756 0.13447 0.82286
 C653 C 0.33670 0.12448 0.81122
 C654 C 0.32277 0.11732 0.81173
 C655 C 0.31546 0.12367 0.82420
 H656 H 0.34544 0.12281 0.80278
 H657 H 0.30401 0.12136 0.82792
 Cu658 Cu 0.35369 0.14856 0.82804
 Cu659 Cu 0.32135 0.14842 0.84756
 Cu660 Cu 0.34832 0.17754 0.85292
 N661 N 0.36683 0.16644 0.82840
 N662 N 0.36503 0.17784 0.83818
 C663 C 0.37528 0.18909 0.83509
 C664 C 0.38371 0.18436 0.82263
 C665 C 0.37800 0.17002 0.81871
 H666 H 0.37597 0.20016 0.84089
 H667 H 0.38136 0.16296 0.80914
 N668 N 0.33037 0.17492 0.86625
 N669 N 0.32009 0.16398 0.86401
 C670 C 0.30902 0.16555 0.87439
 C671 C 0.31247 0.17796 0.88365
 C672 C 0.32609 0.18367 0.87821
 H673 H 0.29902 0.15834 0.87507
 H674 H 0.33221 0.19368 0.88238
 H675 H 0.33444 0.16594 0.83809
 H676 H 0.34358 0.15394 0.85315
 N677 N 0.82870 0.63427 0.83621
 N678 N 0.83986 0.63625 0.82651
 C679 C 0.83822 0.62622 0.81496
 C680 C 0.82544 0.61739 0.81757
 C681 C 0.81967 0.62272 0.83121
 H682 H 0.84544 0.62580 0.80507
 H683 H 0.80923 0.61918 0.83660
 Cu684 Cu 0.85489 0.65257 0.82903
 Cu685 Cu 0.82591 0.64838 0.85346
 Cu686 Cu 0.84067 0.68469 0.84458
 N687 N 0.86605 0.67212 0.82843
 N688 N 0.86025 0.68471 0.83464
 C689 C 0.86926 0.69694 0.83176
 C690 C 0.88143 0.69178 0.82335
 C691 C 0.87910 0.67590 0.82138
 H692 H 0.86690 0.70883 0.83515
 H693 H 0.88600 0.66786 0.81492
 N694 N 0.82516 0.68136 0.86022
 N695 N 0.82009 0.66755 0.86446
 C696 C 0.81034 0.66948 0.87612
 C697 C 0.80934 0.68534 0.87913
 C698 C 0.81880 0.69241 0.86889
 H699 H 0.80416 0.66018 0.88163
 H700 H 0.82107 0.70478 0.86803
 H701 H 0.83104 0.66405 0.83775
 H702 H 0.84540 0.66298 0.85309
 N703 N 0.81750 0.13750 0.33246
 N704 N 0.82999 0.13268 0.32586
 C705 C 0.82682 0.12055 0.31677
 C706 C 0.81143 0.11766 0.31778
 C707 C 0.80588 0.12862 0.32779
 H708 H 0.83502 0.11464 0.30971
 H709 H 0.79424 0.13000 0.33141
 Cu710 Cu 0.84886 0.14355 0.32900
 Cu711 Cu 0.81745 0.15434 0.34719
 Cu712 Cu 0.85144 0.17373 0.35312
 N713 N 0.86452 0.15917 0.32694
 N714 N 0.86577 0.17100 0.33632
 C715 C 0.87712 0.18032 0.33149
 C716 C 0.88299 0.17398 0.31827
 C717 C 0.87473 0.16064 0.31577
 H718 H 0.88024 0.19125 0.33671
 H719 H 0.87568 0.15289 0.30616
 N720 N 0.83278 0.17828 0.36486
 N721 N 0.81976 0.17139 0.36185
 C722 C 0.80899 0.17716 0.37101
 C723 C 0.81543 0.18805 0.38040
 C724 C 0.83058 0.18857 0.37625
 H725 H 0.79728 0.17354 0.37111
 H726 H 0.83924 0.19602 0.38095
 H727 H 0.83562 0.16652 0.33820
 H728 H 0.83975 0.15255 0.35380
 N729 N 0.67068 0.36088 0.33742
 N730 N 0.65923 0.36142 0.32795
 C731 C 0.66145 0.37324 0.31809
 C732 C 0.67505 0.38036 0.32164
 C733 C 0.68056 0.37222 0.33391
 H734 H 0.65403 0.37602 0.30875
 H735 H 0.69123 0.37414 0.33957
 Cu736 Cu 0.64304 0.34601 0.32875
 Cu737 Cu 0.67262 0.34499 0.35299
 Cu738 Cu 0.64745 0.31446 0.35125
 N739 N 0.63033 0.32756 0.32668
 N740 N 0.63246 0.31521 0.33525
 C741 C 0.62270 0.30399 0.33119
 C742 C 0.61388 0.30958 0.31954
 C743 C 0.61899 0.32462 0.31689
 H744 H 0.62204 0.29254 0.33629
 H745 H 0.61502 0.33264 0.30832
 N746 N 0.66330 0.31584 0.36673
 N747 N 0.67273 0.32770 0.36766
 C748 C 0.68234 0.32519 0.37923
 C749 C 0.67877 0.31103 0.38581
 C750 C 0.66670 0.30542 0.37761
 H751 H 0.69156 0.33282 0.38228
 H752 H 0.66101 0.29440 0.37934
 H753 H 0.66211 0.32875 0.33937
 H754 H 0.65015 0.33822 0.35435
 N755 N 0.68382 0.86521 0.83830
 N756 N 0.67339 0.86714 0.82788
 C757 C 0.67747 0.87884 0.81861
 C758 C 0.69122 0.88462 0.82347
 C759 C 0.69497 0.87566 0.83595
 H760 H 0.67113 0.88255 0.80880
 H761 H 0.70514 0.87658 0.84269
 Cu762 Cu 0.65585 0.85370 0.82710
 Cu763 Cu 0.68215 0.84885 0.85377
 Cu764 Cu 0.65167 0.82326 0.85023
 N765 N 0.64015 0.83843 0.82362
 N766 N 0.63815 0.82677 0.83307
 C767 C 0.62656 0.81794 0.82816
 C768 C 0.62117 0.82441 0.81486
 C769 C 0.63009 0.83732 0.81227
 H770 H 0.62274 0.80732 0.83354
 H771 H 0.62940 0.84518 0.80273
 N772 N 0.66675 0.82179 0.86667
 N773 N 0.67826 0.83151 0.86812
 C774 C 0.68659 0.82712 0.88017
 C775 C 0.68004 0.81397 0.88648
 C776 C 0.66755 0.81094 0.87766
 H777 H 0.69688 0.83277 0.88381
 H778 H 0.65977 0.80132 0.87906
 H779 H 0.67025 0.83357 0.84013
 H780 H 0.65897 0.84585 0.85340
 N781 N 0.18426 0.36092 0.83602
 N782 N 0.17485 0.36382 0.82488
 C783 C 0.18047 0.37537 0.81626
 C784 C 0.19420 0.37991 0.82231
 C785 C 0.19630 0.37050 0.83482
 H786 H 0.17534 0.37966 0.80598
 H787 H 0.20597 0.37042 0.84228
 Cu788 Cu 0.15686 0.35120 0.82198
 Cu789 Cu 0.18066 0.34437 0.85072
 Cu790 Cu 0.14850 0.32169 0.84561
 N791 N 0.13884 0.33863 0.81921
 N792 N 0.13551 0.32715 0.82852
 C793 C 0.12279 0.32006 0.82368
 C794 C 0.11806 0.32749 0.81060
 C795 C 0.12848 0.33915 0.80810
 H796 H 0.11772 0.31000 0.82899
 H797 H 0.12868 0.34711 0.79862
 N798 N 0.16307 0.31820 0.86219
 N799 N 0.17505 0.32712 0.86433
 C800 C 0.18277 0.32182 0.87639
 C801 C 0.17539 0.30887 0.88204
 C802 C 0.16300 0.30684 0.87275
 H803 H 0.19331 0.32665 0.88043
 H804 H 0.15467 0.29766 0.87356
 H805 H 0.16839 0.33005 0.83646
 H806 H 0.15728 0.34375 0.84860
 N807 N 0.17561 0.85846 0.33288
 N808 N 0.16519 0.85740 0.32232
 C809 C 0.16819 0.86784 0.31134
 C810 C 0.18106 0.87598 0.31528
 C811 C 0.18549 0.86976 0.32904
 H812 H 0.16170 0.86921 0.30107
 H813 H 0.19548 0.87273 0.33544
 Cu814 Cu 0.14889 0.84220 0.32342
 Cu815 Cu 0.17645 0.84411 0.35005
 Cu816 Cu 0.15101 0.81358 0.34917
 N817 N 0.13593 0.82387 0.32223
 N818 N 0.13722 0.81255 0.33219
 C819 C 0.12753 0.80107 0.32871
 C820 C 0.11958 0.80543 0.31600
 C821 C 0.12516 0.82000 0.31210
 H822 H 0.12627 0.79031 0.33498
 H823 H 0.12188 0.82707 0.30252
 N824 N 0.16563 0.81641 0.36557
 N825 N 0.17534 0.82807 0.36614
 C826 C 0.18419 0.82621 0.37847
 C827 C 0.17971 0.81272 0.38587
 C828 C 0.16798 0.80690 0.37741
 H829 H 0.19350 0.83374 0.38150
 H830 H 0.16191 0.79618 0.37956
 H831 H 0.16719 0.82662 0.33736
 H832 H 0.15414 0.83771 0.35016
 C833 C 0.25188 1.02619 0.27022
 C834 C 0.26266 1.03430 0.26169
 C835 C 0.27343 1.02654 0.25278
 C836 C 0.27354 1.01002 0.25243
 C837 C 0.26285 1.00156 0.26120
 C838 C 0.25205 1.00968 0.27019
 C839 C 0.24180 1.00106 0.27902
 C840 C 0.24186 0.98484 0.27879
 C841 C 0.25218 0.97653 0.26971
 C842 C 0.26274 0.98496 0.26076
 C843 C 0.28368 1.00172 0.24315
 C844 C 0.28336 0.98549 0.24247
 C845 C 0.27303 0.97685 0.25122
 C846 C 0.27241 0.96035 0.25036
 C847 C 0.26192 0.95225 0.25930
 C848 C 0.25196 0.96003 0.26908
 H849 H 0.23363 1.00675 0.28630
 H850 H 0.23350 0.97892 0.28565
 H851 H 0.29180 1.00770 0.23605
 H852 H 0.29122 0.97983 0.23484
 H853 H 0.26247 1.04695 0.26172
 H854 H 0.26190 0.93960 0.25906
 C855 C 0.24536 0.52813 0.75326
 C856 C 0.25419 0.53607 0.74261
 C857 C 0.26425 0.52820 0.73301
 C858 C 0.26560 0.51179 0.73404
 C859 C 0.25657 0.50351 0.74463
 C860 C 0.24634 0.51170 0.75419
 C861 C 0.23720 0.50321 0.76426
 C862 C 0.23812 0.48704 0.76502
 C863 C 0.24827 0.47868 0.75580
 C864 C 0.25781 0.48701 0.74571
 C865 C 0.27599 0.50348 0.72505
 C866 C 0.27746 0.48735 0.72637
 C867 C 0.26851 0.47887 0.73666
 C868 C 0.26971 0.46244 0.73789
 C869 C 0.26008 0.45441 0.74779
 C870 C 0.24927 0.46223 0.75657
 H871 H 0.22908 0.50894 0.77157
 H872 H 0.23089 0.48122 0.77313
 H873 H 0.28321 0.50938 0.71698
 H874 H 0.28559 0.48161 0.71909
 H875 H 0.25342 0.54868 0.74194
 H876 H 0.26084 0.44181 0.74849
 C877 C 0.76309 -0.03361 0.24995
 C878 C 0.75344 -0.04105 0.23971
 C879 C 0.74563 -0.03272 0.22855
 C880 C 0.74750 -0.01637 0.22751
 C881 C 0.75724 -0.00863 0.23781
 C882 C 0.76505 -0.01727 0.24906
 C883 C 0.77477 -0.00937 0.25901
 C884 C 0.77648 0.00673 0.25821
 C885 C 0.76866 0.01558 0.24734
 C886 C 0.75899 0.00784 0.23698
 C887 C 0.73952 -0.00748 0.21678
 C888 C 0.74107 0.00865 0.21612
 C889 C 0.75077 0.01656 0.22607
 C890 C 0.75206 0.03300 0.22578
 C891 C 0.76168 0.04041 0.23604
 C892 C 0.76988 0.03201 0.24684
 H893 H 0.78118 -0.01552 0.26756
 H894 H 0.78390 0.01216 0.26636
 H895 H 0.73175 -0.01286 0.20894
 H896 H 0.73440 0.01484 0.20780
 H897 H 0.75194 -0.05358 0.24046
 H898 H 0.76288 0.05299 0.23555
 C899 C 0.76925 0.46942 0.75487
 C900 C 0.76052 0.46123 0.74438
 C901 C 0.75092 0.46891 0.73419
 C902 C 0.74999 0.48541 0.73446
 C903 C 0.75856 0.49390 0.74522
 C904 C 0.76833 0.48589 0.75536
 C905 C 0.77664 0.49453 0.76595
 C906 C 0.77537 0.51069 0.76666
 C907 C 0.76561 0.51889 0.75691
 C908 C 0.75723 0.51044 0.74597
 C909 C 0.74043 0.49362 0.72453
 C910 C 0.73928 0.50981 0.72514
 C911 C 0.74744 0.51846 0.73587
 C912 C 0.74622 0.53492 0.73665
 C913 C 0.75464 0.54305 0.74746
 C914 C 0.76418 0.53533 0.75766
 H915 H 0.78414 0.48890 0.77394
 H916 H 0.78223 0.51665 0.77494
 H917 H 0.73366 0.48762 0.71620
 H918 H 0.73191 0.51547 0.71705
 H919 H 0.76151 0.44863 0.74388
 H920 H 0.75317 0.55558 0.74842
 C921 C 0.25791 0.46866 0.25758
 C922 C 0.24723 0.46116 0.24852
 C923 C 0.23726 0.46955 0.23925
 C924 C 0.23777 0.48606 0.23926
 C925 C 0.24856 0.49386 0.24842
 C926 C 0.25880 0.48512 0.25744
 C927 C 0.26939 0.49307 0.26640
 C928 C 0.27007 0.50927 0.26638
 C929 C 0.26005 0.51819 0.25757
 C930 C 0.24903 0.51044 0.24866
 C931 C 0.22759 0.49500 0.23064
 C932 C 0.22791 0.51124 0.23103
 C933 C 0.23842 0.51921 0.24009
 C934 C 0.23877 0.53571 0.24066
 C935 C 0.24974 0.54313 0.24951
 C936 C 0.26044 0.53468 0.25782
 H937 H 0.27721 0.48690 0.27368
 H938 H 0.27837 0.51470 0.27364
 H939 H 0.21909 0.48956 0.22364
 H940 H 0.21984 0.51744 0.22407
 H941 H 0.24710 0.44851 0.24825
 H942 H 0.24998 0.55577 0.24998
 C943 C 0.74909 0.96845 0.72766
 C944 C 0.74094 0.96057 0.73891
 C945 C 0.73067 0.96836 0.74837
 C946 C 0.72845 0.98464 0.74658
 C947 C 0.73676 0.99286 0.73537
 C948 C 0.74709 0.98474 0.72586
 C949 C 0.75551 0.99321 0.71514
 C950 C 0.75396 1.00931 0.71384
 C951 C 0.74384 1.01761 0.72313
 C952 C 0.73501 1.00931 0.73388
 C953 C 0.71848 0.99302 0.75601
 C954 C 0.71666 1.00908 0.75447
 C955 C 0.72483 1.01748 0.74352
 C956 C 0.72361 1.03392 0.74238
 C957 C 0.73253 1.04187 0.73181
 C958 C 0.74276 1.03405 0.72238
 H959 H 0.76369 0.98755 0.70784
 H960 H 0.76096 1.01519 0.70558
 H961 H 0.71216 0.98734 0.76492
 H962 H 0.70901 1.01487 0.76222
 H963 H 0.74219 0.94802 0.73993
 H964 H 0.73152 1.05445 0.73089
 C965 C 0.73674 0.53018 0.22680
 C966 C 0.72690 0.53866 0.23608
 C967 C 0.71668 0.53129 0.24587
 C968 C 0.71608 0.51477 0.24623
 C969 C 0.72604 0.50596 0.23689
 C970 C 0.73633 0.51370 0.22708
 C971 C 0.74635 0.50478 0.21824
 C972 C 0.74640 0.48859 0.21908
 C973 C 0.73641 0.48063 0.22877
 C974 C 0.72607 0.48938 0.23772
 C975 C 0.70624 0.50681 0.25607
 C976 C 0.70622 0.49057 0.25683
 C977 C 0.71608 0.48161 0.24782
 C978 C 0.71664 0.46514 0.24903
 C979 C 0.72702 0.45674 0.24020
 C980 C 0.73688 0.46419 0.23015
 H981 H 0.75450 0.51021 0.21079
 H982 H 0.75463 0.48244 0.21223
 H983 H 0.69860 0.51303 0.26351
 H984 H 0.69860 0.48515 0.26483
 H985 H 0.72711 0.55130 0.23553
 H986 H 0.72719 0.44411 0.24091
 C987 C 0.27467 -0.03398 0.74306
 C988 C 0.26516 -0.04172 0.73290
 C989 C 0.25521 -0.03357 0.72346
 C990 C 0.25481 -0.01708 0.72396
 C991 C 0.26406 -0.00904 0.73448
 C992 C 0.27402 -0.01751 0.74406
 C993 C 0.28270 -0.00932 0.75472
 C994 C 0.28154 0.00682 0.75607
 C995 C 0.27172 0.01545 0.74676
 C996 C 0.26310 0.00749 0.73566
 C997 C 0.24503 -0.00844 0.71461
 C998 C 0.24436 0.00775 0.71550
 C999 C 0.25329 0.01597 0.72593
 C1000 C 0.25229 0.03238 0.72726
 C1001 C 0.26087 0.04002 0.73828
 C1002 C 0.27041 0.03185 0.74813
 H1003 H 0.29030 -0.01531 0.76236
 H1004 H 0.28851 0.01245 0.76448
 H1005 H 0.23765 -0.01410 0.70658
 H1006 H 0.23649 0.01371 0.70812
 H1007 H 0.26573 -0.05434 0.73210
 H1008 H 0.25991 0.05258 0.73936
 C1009 C 0.25877 0.24044 0.96896
 C1010 C 0.24786 0.24911 0.96109
 C1011 C 0.23718 0.25839 0.96863
 C1012 C 0.23706 0.25873 0.98462
 C1013 C 0.24798 0.25000 0.99282
 C1014 C 0.25899 0.24098 0.98497
 C1015 C 0.26969 0.23244 0.99338
 C1016 C 0.26970 0.23288 1.00911
 C1017 C 0.25894 0.24176 1.01712
 C1018 C 0.24785 0.25026 1.00891
 C1019 C 0.22611 0.26737 0.99263
 C1020 C 0.22589 0.26750 1.00835
 C1021 C 0.23657 0.25895 1.01674
 C1022 C 0.23644 0.25907 1.03274
 C1023 C 0.24750 0.25065 1.04064
 C1024 C 0.25869 0.24201 1.03312
 H1025 H 0.27809 0.22518 0.98790
 H1026 H 0.27813 0.22594 1.01492
 H1027 H 0.21743 0.27399 0.98683
 H1028 H 0.21725 0.27446 1.01385
 H1029 H 0.24814 0.24923 0.94884
 H1030 H 0.24735 0.25075 1.05290
 C1031 C 0.24884 0.76522 0.53526
 C1032 C 0.25743 0.75365 0.54246
 C1033 C 0.26520 0.74219 0.53427
 C1034 C 0.26442 0.74226 0.51830
 C1035 C 0.25588 0.75401 0.51079
 C1036 C 0.24812 0.76558 0.51929
 C1037 C 0.23949 0.77690 0.51161
 C1038 C 0.23863 0.77699 0.49589
 C1039 C 0.24633 0.76575 0.48723
 C1040 C 0.25498 0.75409 0.49475
 C1041 C 0.27223 0.73111 0.50962
 C1042 C 0.27137 0.73120 0.49393
 C1043 C 0.26266 0.74245 0.48626
 C1044 C 0.26171 0.74258 0.47032
 C1045 C 0.25306 0.75407 0.46311
 C1046 C 0.24529 0.76557 0.47127
 H1047 H 0.23318 0.78576 0.51765
 H1048 H 0.23171 0.78590 0.49063
 H1049 H 0.27921 0.72223 0.51484
 H1050 H 0.27774 0.72239 0.48790
 H1051 H 0.25790 0.75345 0.55471
 H1052 H 0.25228 0.75401 0.45088
 C1053 C 0.23192 0.74085 -0.03669
 C1054 C 0.24294 0.74886 -0.04502
 C1055 C 0.25346 0.75865 -0.03801
 C1056 C 0.25290 0.76070 -0.02215
 C1057 C 0.24183 0.75265 -0.01352
 C1058 C 0.23134 0.74265 -0.02080
 C1059 C 0.22087 0.73433 -0.01194
 C1060 C 0.22061 0.73586 0.00372
 C1061 C 0.23070 0.74589 0.01117
 C1062 C 0.24138 0.75444 0.00246
 C1063 C 0.26298 0.77078 -0.01472
 C1064 C 0.26245 0.77265 0.00090
 C1065 C 0.25180 0.76455 0.00971
 C1066 C 0.25156 0.76595 0.02563
 C1067 C 0.24104 0.75737 0.03401
 C1068 C 0.23075 0.74725 0.02711
 H1069 H 0.21293 0.72630 -0.01697
 H1070 H 0.21248 0.72891 0.00990
 H1071 H 0.27137 0.77741 -0.02088
 H1072 H 0.27062 0.78040 0.00599
 H1073 H 0.24340 0.74738 -0.05718
 H1074 H 0.24071 0.75882 0.04619
 C1075 C 0.25555 0.25462 0.53166
 C1076 C 0.24655 0.24369 0.53922
 C1077 C 0.23714 0.23340 0.53138
 C1078 C 0.23666 0.23398 0.51541
 C1079 C 0.24564 0.24506 0.50754
 C1080 C 0.25510 0.25543 0.51568
 C1081 C 0.26414 0.26606 0.50762
 C1082 C 0.26369 0.26673 0.49191
 C1083 C 0.25417 0.25683 0.48361
 C1084 C 0.24515 0.24579 0.49148
 C1085 C 0.22714 0.22407 0.50711
 C1086 C 0.22662 0.22481 0.49141
 C1087 C 0.23565 0.23545 0.48333
 C1088 C 0.23517 0.23629 0.46736
 C1089 C 0.24422 0.24718 0.45979
 C1090 C 0.25371 0.25739 0.46763
 H1091 H 0.27181 0.27389 0.51332
 H1092 H 0.27104 0.27505 0.48637
 H1093 H 0.21983 0.21573 0.51268
 H1094 H 0.21892 0.21701 0.48570
 H1095 H 0.24685 0.24320 0.55147
 H1096 H 0.24392 0.24769 0.44754
 C1097 C 0.75898 0.73907 0.97081
 C1098 C 0.74863 0.74936 0.96404
 C1099 C 0.74150 0.76130 0.97216
 C1100 C 0.74434 0.76274 0.98782
 C1101 C 0.75471 0.75240 0.99498
 C1102 C 0.76215 0.74061 0.98644
 C1103 C 0.77273 0.73087 0.99372
 C1104 C 0.77558 0.73230 1.00913
 C1105 C 0.76810 0.74362 1.01789
 C1106 C 0.75760 0.75382 1.01073
 C1107 C 0.73674 0.77395 0.99661
 C1108 C 0.73929 0.77510 1.01207
 C1109 C 0.74974 0.76524 1.01936
 C1110 C 0.75216 0.76614 1.03513
 C1111 C 0.76255 0.75603 1.04196
 C1112 C 0.77050 0.74476 1.03367
 H1113 H 0.77897 0.72203 0.98760
 H1114 H 0.78364 0.72429 1.01414
 H1115 H 0.72843 0.78174 0.99170
 H1116 H 0.73284 0.78375 1.01824
 H1117 H 0.74622 0.74821 0.95209
 H1118 H 0.76461 0.75707 1.05400
 C1119 C 0.74733 0.26790 0.53413
 C1120 C 0.75602 0.25667 0.54171
 C1121 C 0.76558 0.24635 0.53394
 C1122 C 0.76669 0.24734 0.51800
 C1123 C 0.75797 0.25862 0.51009
 C1124 C 0.74818 0.26886 0.51816
 C1125 C 0.73917 0.27947 0.51001
 C1126 C 0.73979 0.28012 0.49430
 C1127 C 0.74962 0.27035 0.48610
 C1128 C 0.75890 0.25956 0.49405
 C1129 C 0.77646 0.23749 0.50977
 C1130 C 0.77753 0.23855 0.49410
 C1131 C 0.76888 0.24950 0.48598
 C1132 C 0.76963 0.25041 0.47000
 C1133 C 0.76027 0.26106 0.46241
 C1134 C 0.75011 0.27073 0.47013
 H1135 H 0.73130 0.28721 0.51566
 H1136 H 0.73239 0.28834 0.48867
 H1137 H 0.78347 0.22889 0.51537
 H1138 H 0.78508 0.23050 0.48841
 H1139 H 0.75529 0.25591 0.55393
 H1140 H 0.76101 0.26203 0.45021
 C1141 C 0.73918 0.24081 -0.02690
 C1142 C 0.74856 0.25131 -0.03457
 C1143 C 0.75869 0.26098 -0.02688
 C1144 C 0.75961 0.26010 -0.01094
 C1145 C 0.75020 0.24949 -0.00296
 C1146 C 0.73985 0.23991 -0.01096
 C1147 C 0.73068 0.22948 -0.00282
 C1148 C 0.73148 0.22858 0.01285
 C1149 C 0.74168 0.23788 0.02102
 C1150 C 0.75118 0.24840 0.01305
 C1151 C 0.76990 0.26929 -0.00278
 C1152 C 0.77087 0.26821 0.01289
 C1153 C 0.76164 0.25782 0.02104
 C1154 C 0.76239 0.25683 0.03700
 C1155 C 0.75262 0.24670 0.04470
 C1156 C 0.74242 0.23716 0.03696
 H1157 H 0.72277 0.22185 -0.00847
 H1158 H 0.72394 0.22051 0.01848
 H1159 H 0.77742 0.27737 -0.00842
 H1160 H 0.77886 0.27575 0.01854
 H1161 H 0.74758 0.25232 -0.04675
 H1162 H 0.75341 0.24574 0.05690
 C1163 C 0.76408 0.76737 0.46965
 C1164 C 0.75374 0.75886 0.46099
 C1165 C 0.74220 0.75006 0.46770
 C1166 C 0.74100 0.74960 0.48365
 C1167 C 0.75116 0.75844 0.49261
 C1168 C 0.76273 0.76737 0.48560
 C1169 C 0.77241 0.77632 0.49469
 C1170 C 0.77074 0.77659 0.51035
 C1171 C 0.75939 0.76781 0.51757
 C1172 C 0.74972 0.75837 0.50864
 C1173 C 0.73008 0.74029 0.49090
 C1174 C 0.72898 0.73986 0.50658
 C1175 C 0.73866 0.74880 0.51568
 C1176 C 0.73737 0.74864 0.53161
 C1177 C 0.74666 0.75840 0.54020
 C1178 C 0.75764 0.76796 0.53349
 H1179 H 0.78129 0.78339 0.48979
 H1180 H 0.77860 0.78363 0.51673
 H1181 H 0.72236 0.73307 0.48456
 H1182 H 0.72025 0.73259 0.51147
 H1183 H 0.75467 0.75915 0.44876
 H1184 H 0.74542 0.75840 0.55239
 C1185 C 1.02984 0.22611 0.25230
 C1186 C 1.03742 0.23395 0.24066
 C1187 C 1.02968 0.24309 0.23003
 C1188 C 1.01368 0.24403 0.23070
 C1189 C 1.00577 0.23617 0.24246
 C1190 C 1.01388 0.22723 0.25331
 C1191 C 1.00579 0.21941 0.26472
 C1192 C 0.99012 0.22068 0.26577
 C1193 C 0.98186 0.22982 0.25546
 C1194 C 0.98973 0.23745 0.24353
 C1195 C 1.00541 0.25300 0.22027
 C1196 C 0.98970 0.25418 0.22125
 C1197 C 0.98161 0.24647 0.23275
 C1198 C 0.96569 0.24790 0.23404
 C1199 C 0.95815 0.24027 0.24586
 C1200 C 0.96593 0.23127 0.25655
 H1201 H 1.01147 0.21210 0.27293
 H1202 H 0.98456 0.21428 0.27474
 H1203 H 1.01099 0.25933 0.21127
 H1204 H 0.98400 0.26139 0.21299
 H1205 H 1.04967 0.23331 0.24011
 H1206 H 0.94596 0.24143 0.24680
 C1207 C 0.53290 0.24062 0.76786
 C1208 C 0.54068 0.24911 0.75679
 C1209 C 0.53326 0.25970 0.74727
 C1210 C 0.51746 0.26197 0.74884
 C1211 C 0.50938 0.25359 0.76013
 C1212 C 0.51709 0.24279 0.76958
 C1213 C 0.50884 0.23468 0.78069
 C1214 C 0.49331 0.23695 0.78238
 C1215 C 0.48542 0.24757 0.77316
 C1216 C 0.49353 0.25602 0.76194
 C1217 C 0.50957 0.27259 0.73962
 C1218 C 0.49404 0.27481 0.74127
 C1219 C 0.48580 0.26669 0.75236
 C1220 C 0.46996 0.26863 0.75388
 C1221 C 0.46219 0.26027 0.76502
 C1222 C 0.46957 0.24968 0.77456
 H1223 H 0.51431 0.22649 0.78825
 H1224 H 0.48756 0.23023 0.79100
 H1225 H 0.51531 0.27935 0.73103
 H1226 H 0.48858 0.28297 0.73368
 H1227 H 0.55271 0.24706 0.75523
 H1228 H 0.45010 0.26209 0.76634
 C1229 C -0.03400 0.27513 0.74935
 C1230 C -0.04103 0.26451 0.73964
 C1231 C -0.03267 0.25437 0.73046
 C1232 C -0.01668 0.25501 0.73068
 C1233 C -0.00931 0.26554 0.74059
 C1234 C -0.01799 0.27566 0.74995
 C1235 C -0.01041 0.28568 0.75996
 C1236 C 0.00532 0.28569 0.76089
 C1237 C 0.01413 0.27568 0.75184
 C1238 C 0.00676 0.26570 0.74140
 C1239 C -0.00787 0.24502 0.72162
 C1240 C 0.00785 0.24539 0.72220
 C1241 C 0.01542 0.25564 0.73198
 C1242 C 0.03140 0.25573 0.73297
 C1243 C 0.03846 0.26564 0.74333
 C1244 C 0.03012 0.27548 0.75285
 H1245 H -0.01655 0.29347 0.76739
 H1246 H 0.01050 0.29369 0.76877
 H1247 H -0.01302 0.23666 0.71408
 H1248 H 0.01396 0.23727 0.71508
 H1249 H -0.05329 0.26430 0.73897
 H1250 H 0.05070 0.26553 0.74414
 C1251 C 0.46221 0.26206 0.25987
 C1252 C 0.45423 0.25169 0.25065
 C1253 C 0.46166 0.24182 0.24042
 C1254 C 0.47763 0.24252 0.23914
 C1255 C 0.48589 0.25307 0.24833
 C1256 C 0.47816 0.26277 0.25882
 C1257 C 0.48658 0.27310 0.26782
 C1258 C 0.50228 0.27374 0.26674
 C1259 C 0.51020 0.26426 0.25645
 C1260 C 0.50193 0.25386 0.24710
 C1261 C 0.48556 0.23313 0.22876
 C1262 C 0.50126 0.23387 0.22758
 C1263 C 0.50967 0.24413 0.23663
 C1264 C 0.52564 0.24468 0.23575
 C1265 C 0.53361 0.25486 0.24516
 C1266 C 0.52620 0.26461 0.25549
 H1267 H 0.48112 0.28085 0.27581
 H1268 H 0.50812 0.28172 0.27416
 H1269 H 0.47973 0.22515 0.22133
 H1270 H 0.50672 0.22619 0.21953
 H1271 H 0.44206 0.25082 0.25198
 H1272 H 0.54584 0.25548 0.24415
 C1273 C 1.03311 0.75155 0.77490
 C1274 C 1.04113 0.76255 0.76640
 C1275 C 1.03383 0.77272 0.75640
 C1276 C 1.01790 0.77214 0.75500
 C1277 C 1.00957 0.76097 0.76347
 C1278 C 1.01719 0.75073 0.77355
 C1279 C 1.00875 0.73959 0.78161
 C1280 C 0.99316 0.73840 0.77973
 C1281 C 0.98539 0.74821 0.76960
 C1282 C 0.99364 0.75975 0.76153
 C1283 C 1.01013 0.78200 0.74494
 C1284 C 0.99452 0.78094 0.74318
 C1285 C 0.98605 0.76992 0.75136
 C1286 C 0.97024 0.76847 0.74931
 C1287 C 0.96229 0.75706 0.75737
 C1288 C 0.96955 0.74697 0.76749
 H1289 H 1.01414 0.73155 0.78937
 H1290 H 0.98729 0.72966 0.78631
 H1291 H 1.01605 0.79054 0.73815
 H1292 H 0.98924 0.78870 0.73510
 H1293 H 1.05333 0.76321 0.76758
 H1294 H 0.95017 0.75603 0.75574
 C1295 C 0.53127 0.73730 0.26413
 C1296 C 0.53961 0.74875 0.25654
 C1297 C 0.53265 0.75981 0.24718
 C1298 C 0.51673 0.75965 0.24546
 C1299 C 0.50808 0.74801 0.25292
 C1300 C 0.51537 0.73676 0.26224
 C1301 C 0.50652 0.72550 0.26967
 C1302 C 0.49089 0.72502 0.26774
 C1303 C 0.48346 0.73582 0.25833
 C1304 C 0.49210 0.74756 0.25098
 C1305 C 0.50928 0.77053 0.23615
 C1306 C 0.49363 0.77018 0.23436
 C1307 C 0.48481 0.75887 0.24173
 C1308 C 0.46892 0.75831 0.23979
 C1309 C 0.46065 0.74660 0.24706
 C1310 C 0.46758 0.73545 0.25636
 H1311 H 0.51154 0.71697 0.27717
 H1312 H 0.48471 0.71615 0.27385
 H1313 H 0.51545 0.77940 0.23001
 H1314 H 0.48857 0.77878 0.22695
 H1315 H 0.55182 0.74898 0.25780
 H1316 H 0.44848 0.74624 0.24556
 C1317 C -0.03281 0.75440 0.26159
 C1318 C -0.04115 0.74520 0.25153
 C1319 C -0.03409 0.73605 0.24045
 C1320 C -0.01809 0.73573 0.23962
 C1321 C -0.00945 0.74521 0.24954
 C1322 C -0.01683 0.75465 0.26049
 C1323 C -0.00806 0.76435 0.26980
 C1324 C 0.00765 0.76481 0.26837
 C1325 C 0.01523 0.75545 0.25770
 C1326 C 0.00662 0.74530 0.24843
 C1327 C -0.01049 0.72597 0.22933
 C1328 C 0.00524 0.72563 0.22865
 C1329 C 0.01402 0.73521 0.23806
 C1330 C 0.03000 0.73517 0.23715
 C1331 C 0.03830 0.74556 0.24603
 C1332 C 0.03121 0.75571 0.25626
 H1333 H -0.01326 0.77186 0.27816
 H1334 H 0.01378 0.77247 0.27588
 H1335 H -0.01660 0.71829 0.22183
 H1336 H 0.01044 0.71792 0.22045
 H1337 H -0.05340 0.74532 0.25223
 H1338 H 0.05054 0.74565 0.24505
 C1339 C 0.47042 0.75073 0.73807
 C1340 C 0.46298 0.76071 0.74818
 C1341 C 0.47093 0.76986 0.75855
 C1342 C 0.48695 0.76901 0.75890
 C1343 C 0.49470 0.75892 0.74874
 C1344 C 0.48641 0.74986 0.73820
 C1345 C 0.49431 0.73983 0.72838
 C1346 C 0.51002 0.73880 0.72875
 C1347 C 0.51851 0.74769 0.73902
 C1348 C 0.51076 0.75771 0.74924
 C1349 C 0.49540 0.77767 0.76938
 C1350 C 0.51112 0.77643 0.76992
 C1351 C 0.51903 0.76643 0.76006
 C1352 C 0.53500 0.76512 0.76054
 C1353 C 0.54244 0.75524 0.75033
 C1354 C 0.53450 0.74650 0.73961
 H1355 H 0.48843 0.73248 0.72039
 H1356 H 0.51540 0.73072 0.72102
 H1357 H 0.48996 0.78539 0.77740
 H1358 H 0.51698 0.78348 0.77816
 H1359 H 0.45074 0.76169 0.74767
 H1360 H 0.55468 0.75435 0.75072
 C1361 C 0.39030 0.31888 0.30470
 C1362 C 0.40064 0.30739 0.30893
 C1363 C 0.41148 0.30075 0.29804
 N1364 N 0.42269 0.29111 0.30287
 N1365 N 0.43219 0.28455 0.29301
 C1366 C 0.43076 0.28733 0.27795
 N1367 N 0.41956 0.29696 0.27313
 N1368 N 0.41012 0.30359 0.28299
 C1369 C 0.44055 0.27951 0.26686
 C1370 C 0.45355 0.27135 0.27102
 H1371 H 0.40073 0.30303 0.32042
 H1372 H 0.43738 0.28005 0.25504
 H1373 H 0.39090 0.32389 0.29347
 H1374 H 0.45740 0.27168 0.28263
 C1375 C 0.39610 0.80845 0.81563
 C1376 C 0.40629 0.81431 0.80496
 C1377 C 0.41786 0.80422 0.79790
 N1378 N 0.42908 0.81051 0.78934
 N1379 N 0.43930 0.80139 0.78257
 C1380 C 0.43863 0.78562 0.78407
 N1381 N 0.42741 0.77935 0.79260
 N1382 N 0.41726 0.78846 0.79943
 C1383 C 0.44911 0.77522 0.77594
 C1384 C 0.46209 0.78046 0.76851
 H1385 H 0.40587 0.82647 0.80168
 H1386 H 0.44633 0.76293 0.77552
 H1387 H 0.39735 0.79647 0.81937
 H1388 H 0.46564 0.79246 0.76976
 C1389 C -0.11005 0.30917 0.80687
 C1390 C -0.09989 0.31632 0.79701
 C1391 C -0.08851 0.30693 0.78884
 N1392 N -0.07709 0.31390 0.78109
 N1393 N -0.06673 0.30532 0.77384
 C1394 C -0.06748 0.28948 0.77409
 N1395 N -0.07893 0.28256 0.78176
 N1396 N -0.08921 0.29111 0.78902
 C1397 C -0.05656 0.27967 0.76591
 C1398 C -0.04377 0.28551 0.75861
 H1399 H -0.09995 0.32887 0.79566
 H1400 H -0.05873 0.26723 0.76559
 H1401 H -0.10932 0.29669 0.80867
 H1402 H -0.04095 0.29774 0.75965
 C1403 C -0.11143 0.80252 0.30299
 C1404 C -0.09870 0.79523 0.30907
 C1405 C -0.08649 0.78973 0.29892
 N1406 N -0.07435 0.78176 0.30438
 N1407 N -0.06368 0.77638 0.29499
 C1408 C -0.06477 0.77887 0.27984
 N1409 N -0.07680 0.78696 0.27446
 N1410 N -0.08741 0.79230 0.28380
 C1411 C -0.05400 0.77212 0.26899
 C1412 C -0.04126 0.76352 0.27311
 H1413 H -0.09776 0.79343 0.32115
 H1414 H -0.05667 0.77331 0.25708
 H1415 H -0.11209 0.80415 0.29086
 H1416 H -0.03774 0.76304 0.28482
 C1417 C 0.60205 0.69507 0.32339
 C1418 C 0.59257 0.68981 0.31191
 C1419 C 0.58122 0.70022 0.30498
 N1420 N 0.57122 0.69461 0.29471
 N1421 N 0.56133 0.70413 0.28798
 C1422 C 0.56114 0.71962 0.29125
 N1423 N 0.57112 0.72520 0.30151
 N1424 N 0.58094 0.71569 0.30828
 C1425 C 0.55104 0.73056 0.28333
 C1426 C 0.53965 0.72580 0.27350
 H1427 H 0.59366 0.67800 0.30771
 H1428 H 0.55289 0.74293 0.28505
 H1429 H 0.60044 0.70669 0.32792
 H1430 H 0.53701 0.71352 0.27246
 C1431 C 0.60700 0.19579 0.82094
 C1432 C 0.59642 0.19080 0.81035
 C1433 C 0.58541 0.20179 0.80373
 N1434 N 0.57339 0.19647 0.79572
 N1435 N 0.56360 0.20644 0.78946
 C1436 C 0.56555 0.22209 0.79093
 N1437 N 0.57759 0.22738 0.79887
 N1438 N 0.58729 0.21744 0.80520
 C1439 C 0.55547 0.23335 0.78342
 C1440 C 0.54163 0.22925 0.77704
 H1441 H 0.59610 0.17866 0.80699
 H1442 H 0.55918 0.24537 0.78274
 H1443 H 0.60654 0.20771 0.82497
 H1444 H 0.53724 0.21758 0.77862
 C1445 C 1.10879 0.69072 0.80539
 C1446 C 1.09788 0.69972 0.81275
 C1447 C 1.08597 0.70776 0.80405
 N1448 N 1.07496 0.71609 0.81117
 N1449 N 1.06456 0.72385 0.80319
 C1450 C 1.06484 0.72355 0.78783
 N1451 N 1.07579 0.71519 0.78076
 N1452 N 1.08612 0.70742 0.78870
 C1453 C 1.05428 0.73280 0.77868
 C1454 C 1.04191 0.74081 0.78465
 H1455 H 1.09827 0.70116 0.82490
 H1456 H 1.05657 0.73367 0.76666
 H1457 H 1.10797 0.68903 0.79328
 H1458 H 1.03869 0.73925 0.79637
 C1459 C 1.10516 0.17470 0.29802
 C1460 C 1.09459 0.18621 0.30168
 C1461 C 1.08300 0.19148 0.29088
 N1462 N 1.07202 0.20158 0.29539
 N1463 N 1.06175 0.20684 0.28560
 C1464 C 1.06211 0.20222 0.27092
 N1465 N 1.07308 0.19212 0.26641
 N1466 N 1.08331 0.18681 0.27622
 C1467 C 1.05143 0.20859 0.25975
 C1468 C 1.03906 0.21783 0.26381
 H1469 H 1.09480 0.19159 0.31275
 H1470 H 1.05357 0.20621 0.24791
 H1471 H 1.10446 0.16881 0.28722
 H1472 H 1.03632 0.21941 0.27565
 C1473 C 0.61047 0.30824 0.70266
 C1474 C 0.59849 0.29916 0.69751
 C1475 C 0.58711 0.29308 0.70825
 N1476 N 0.57461 0.28547 0.70326
 N1477 N 0.56453 0.27976 0.71307
 C1478 C 0.56663 0.28144 0.72820
 N1479 N 0.57910 0.28903 0.73315
 N1480 N 0.58911 0.29477 0.72338
 C1481 C 0.55622 0.27463 0.73936
 C1482 C 0.54239 0.26789 0.73562
 H1483 H 0.59745 0.29649 0.68560
 H1484 H 0.55968 0.27479 0.75111
 H1485 H 0.61097 0.31130 0.71453
 H1486 H 0.53827 0.26856 0.72412
 C1487 C 0.60567 0.80073 0.19018
 C1488 C 0.59582 0.80652 0.20115
 C1489 C 0.58507 0.79613 0.20892
 N1490 N 0.57402 0.80210 0.21792
 N1491 N 0.56435 0.79267 0.22503
 C1492 C 0.56546 0.77693 0.22343
 N1493 N 0.57655 0.77100 0.21450
 N1494 N 0.58615 0.78041 0.20735
 C1495 C 0.55520 0.76622 0.23133
 C1496 C 0.54241 0.77121 0.23921
 H1497 H 0.59587 0.81880 0.20398
 H1498 H 0.55766 0.75385 0.23067
 H1499 H 0.60496 0.78858 0.18690
 H1500 H 0.53929 0.78343 0.23917
 C1501 C 1.10644 0.29911 0.19379
 C1502 C 1.09597 0.28913 0.18709
 C1503 C 1.08402 0.28178 0.19639
 N1504 N 1.07290 0.27308 0.18997
 N1505 N 1.06224 0.26640 0.19853
 C1506 C 1.06235 0.26821 0.21381
 N1507 N 1.07345 0.27686 0.22016
 N1508 N 1.08403 0.28353 0.21164
 C1509 C 1.05136 0.26050 0.22380
 C1510 C 1.03888 0.25197 0.21888
 H1511 H 1.09647 0.28680 0.17508
 H1512 H 1.05339 0.26138 0.23585
 H1513 H 1.10542 0.30164 0.20574
 H1514 H 1.03593 0.25178 0.20701
 C1515 C 1.10530 0.80711 0.69360
 C1516 C 1.09665 0.81378 0.70510
 C1517 C 1.08573 0.80442 0.71378
 N1518 N 1.07562 0.81142 0.72318
 N1519 N 1.06583 0.80292 0.73118
 C1520 C 1.06589 0.78711 0.73010
 N1521 N 1.07605 0.78013 0.72079
 N1522 N 1.08575 0.78862 0.71274
 C1523 C 1.05563 0.77737 0.73911
 C1524 C 1.04334 0.78330 0.74719
 H1525 H 1.09778 0.82607 0.70768
 H1526 H 1.05768 0.76489 0.73917
 H1527 H 1.10352 0.79502 0.69053
 H1528 H 1.04043 0.79555 0.74637
 C1529 C 0.39511 0.69446 0.69969
 C1530 C 0.40692 0.70333 0.69380
 C1531 C 0.41808 0.71072 0.70380
 N1532 N 0.42979 0.71898 0.69790
 N1533 N 0.43965 0.72609 0.70695
 C1534 C 0.43812 0.72522 0.72222
 N1535 N 0.42646 0.71693 0.72809
 N1536 N 0.41665 0.70980 0.71906
 C1537 C 0.44838 0.73350 0.73244
 C1538 C 0.46110 0.74155 0.72741
 H1539 H 0.40787 0.70513 0.68173
 H1540 H 0.44576 0.73335 0.74442
 H1541 H 0.39449 0.69242 0.71177
 H1542 H 0.46433 0.74105 0.71561
 C1543 C 0.38732 0.19635 0.18856
 C1544 C 0.39816 0.19136 0.19893
 C1545 C 0.40879 0.20251 0.20583
 N1546 N 0.42109 0.19733 0.21355
 N1547 N 0.43075 0.20741 0.21972
 C1548 C 0.42841 0.22304 0.21843
 N1549 N 0.41606 0.22819 0.21082
 N1550 N 0.40647 0.21813 0.20459
 C1551 C 0.43859 0.23442 0.22554
 C1552 C 0.45246 0.23032 0.23193
 H1553 H 0.39920 0.17909 0.20166
 H1554 H 0.43501 0.24653 0.22573
 H1555 H 0.38699 0.20853 0.18527
 H1556 H 0.45655 0.21845 0.23087
 C1557 C -0.10940 0.68254 0.19785
 C1558 C -0.09937 0.69410 0.19317
 C1559 C -0.08820 0.70076 0.20371
 N1560 N -0.07681 0.70992 0.19849
 N1561 N -0.06666 0.71590 0.20800
 C1562 C -0.06757 0.71296 0.22308
 N1563 N -0.07900 0.70388 0.22828
 N1564 N -0.08908 0.69785 0.21879
 C1565 C -0.05686 0.71986 0.23389
 C1566 C -0.04377 0.72767 0.22941
 H1567 H -0.09933 0.69794 0.18150
 H1568 H -0.05940 0.71875 0.24583
 H1569 H -0.10874 0.67817 0.20933
 H1570 H -0.04064 0.72786 0.21757
 C1571 C -0.10359 0.18872 0.69777
 C1572 C -0.09258 0.19830 0.69136
 C1573 C -0.08155 0.20680 0.70063
 N1574 N -0.07095 0.21590 0.69388
 N1575 N -0.06147 0.22440 0.70216
 C1576 C -0.06229 0.22414 0.71749
 N1577 N -0.07283 0.21497 0.72423
 N1578 N -0.08227 0.20644 0.71596
 C1579 C -0.05263 0.23415 0.72682
 C1580 C -0.04107 0.24329 0.72079
 H1581 H -0.09235 0.20014 0.67925
 H1582 H -0.05486 0.23459 0.73886
 H1583 H -0.10340 0.18637 0.70980
 H1584 H -0.03810 0.24230 0.70895
 C1585 C 0.29663 0.39597 0.31890
 C1586 C 0.30160 0.40570 0.30729
 C1587 C 0.29152 0.41683 0.29966
 N1588 N 0.29733 0.42706 0.28950
 N1589 N 0.28829 0.43683 0.28202
 C1590 C 0.27309 0.43665 0.28437
 N1591 N 0.26727 0.42641 0.29453
 N1592 N 0.27633 0.41669 0.30206
 C1593 C 0.26292 0.44693 0.27580
 C1594 C 0.26833 0.45893 0.26667
 H1595 H 0.31324 0.40506 0.30348
 H1596 H 0.25082 0.44509 0.27677
 H1597 H 0.28526 0.39724 0.32335
 H1598 H 0.28033 0.46145 0.26639
 C1599 C 0.31295 -0.10329 0.80731
 C1600 C 0.31837 -0.09636 0.79410
 C1601 C 0.30855 -0.08591 0.78521
 N1602 N 0.31459 -0.07566 0.77518
 N1603 N 0.30565 -0.06618 0.76719
 C1604 C 0.29035 -0.06673 0.76886
 N1605 N 0.28434 -0.07710 0.77875
 N1606 N 0.29326 -0.08646 0.78682
 C1607 C 0.28022 -0.05672 0.75995
 C1608 C 0.28521 -0.04346 0.75233
 H1609 H 0.32993 -0.09827 0.79043
 H1610 H 0.26828 -0.05962 0.75974
 H1611 H 0.30174 -0.10011 0.81130
 H1612 H 0.29686 -0.03977 0.75347
 C1613 C 0.80675 0.39729 0.81768
 C1614 C 0.81213 0.40625 0.80564
 C1615 C 0.80231 0.41745 0.79764
 N1616 N 0.80841 0.42801 0.78795
 N1617 N 0.79955 0.43782 0.78026
 C1618 C 0.78426 0.43733 0.78189
 N1619 N 0.77817 0.42674 0.79153
 N1620 N 0.78702 0.41703 0.79931
 C1621 C 0.77423 0.44744 0.77291
 C1622 C 0.77946 0.46038 0.76490
 H1623 H 0.82376 0.40511 0.80191
 H1624 H 0.76228 0.44463 0.77258
 H1625 H 0.79541 0.39945 0.82192
 H1626 H 0.79114 0.46400 0.76606
 C1627 C 0.80875 -0.11327 0.29588
 C1628 C 0.80143 -0.09972 0.30071
 C1629 C 0.79560 -0.08835 0.28965
 N1630 N 0.78884 -0.07495 0.29432
 N1631 N 0.78324 -0.06486 0.28428
 C1632 C 0.78422 -0.06783 0.26922
 N1633 N 0.79103 -0.08118 0.26457
 N1634 N 0.79662 -0.09122 0.27458
 C1635 C 0.77761 -0.05731 0.25791
 C1636 C 0.77068 -0.04323 0.26164
 H1637 H 0.79984 -0.09741 0.31264
 H1638 H 0.77809 -0.06088 0.24616
 H1639 H 0.81047 -0.11508 0.28387
 H1640 H 0.77084 -0.03917 0.27323
 C1641 C 0.31136 0.61091 0.69549
 C1642 C 0.30383 0.59832 0.68904
 C1643 C 0.29826 0.58550 0.69869
 N1644 N 0.29085 0.57314 0.69264
 N1645 N 0.28548 0.56182 0.70153
 C1646 C 0.28739 0.56248 0.71677
 N1647 N 0.29488 0.57476 0.72276
 N1648 N 0.30024 0.58601 0.71390
 C1649 C 0.28067 0.55095 0.72702
 C1650 C 0.27319 0.53761 0.72215
 H1651 H 0.30202 0.59787 0.67695
 H1652 H 0.28105 0.55343 0.73903
 H1653 H 0.31331 0.61099 0.70758
 H1654 H 0.27355 0.53425 0.71036
 C1655 C 0.30999 1.10030 0.19174
 C1656 C 0.31578 1.09213 0.20408
 C1657 C 0.30635 1.08060 0.21215
 N1658 N 0.31265 1.07032 0.22203
 N1659 N 0.30405 1.05995 0.22931
 C1660 C 0.28884 1.05956 0.22701
 N1661 N 0.28257 1.06989 0.21723
 N1662 N 0.29116 1.08016 0.20991
 C1663 C 0.27890 1.04875 0.23527
 C1664 C 0.28415 1.03615 0.24379
 H1665 H 0.32736 1.09396 0.20765
 H1666 H 0.26681 1.05077 0.23452
 H1667 H 0.29872 1.09757 0.18772
 H1668 H 0.29608 1.03323 0.24375
 C1669 C 0.80624 0.59761 0.19360
 C1670 C 0.79371 0.58989 0.18773
 C1671 C 0.78452 0.57918 0.19691
 N1672 N 0.77406 0.56994 0.19019
 N1673 N 0.76529 0.56059 0.19845
 C1674 C 0.76658 0.56024 0.21374
 N1675 N 0.77701 0.56951 0.22046
 N1676 N 0.78585 0.57877 0.21220
 C1677 C 0.75654 0.55058 0.22309
 C1678 C 0.74737 0.53895 0.21706
 H1679 H 0.79048 0.59173 0.17606
 H1680 H 0.75640 0.55260 0.23518
 H1681 H 0.81013 0.59492 0.20492
 H1682 H 0.74821 0.53601 0.20518
 C1683 C 0.80569 1.10898 0.69190
 C1684 C 0.79522 1.09935 0.68478
 C1685 C 0.78663 1.08761 0.69343
 N1686 N 0.77767 1.07713 0.68624
 N1687 N 0.76958 1.06679 0.69412
 C1688 C 0.77014 1.06662 0.70947
 N1689 N 0.77908 1.07709 0.71662
 N1690 N 0.78720 1.08734 0.70877
 C1691 C 0.76083 1.05594 0.71854
 C1692 C 0.75261 1.04360 0.71246
 H1693 H 0.79318 1.10051 0.67277
 H1694 H 0.76042 1.05788 0.73064
 H1695 H 0.80813 1.10722 0.70379
 H1696 H 0.75367 1.04073 0.70059
 C1697 C 0.68792 0.60832 0.30720
 C1698 C 0.68031 0.59848 0.29728
 C1699 C 0.68873 0.58676 0.28839
 N1700 N 0.68130 0.57558 0.28047
 N1701 N 0.68900 0.56497 0.27250
 C1702 C 0.70439 0.56521 0.27215
 N1703 N 0.71176 0.57642 0.27998
 N1704 N 0.70410 0.58696 0.28797
 C1705 C 0.71327 0.55404 0.26318
 C1706 C 0.70705 0.54128 0.25568
 H1707 H 0.66812 0.59916 0.29623
 H1708 H 0.72538 0.55597 0.26247
 H1709 H 0.70004 0.60698 0.30863
 H1710 H 0.69515 0.53862 0.25705
 C1711 C 0.69042 1.10745 0.80526
 C1712 C 0.68352 1.09887 0.79380
 C1713 C 0.69253 1.08774 0.78477
 N1714 N 0.68571 1.07644 0.77648
 N1715 N 0.69398 1.06634 0.76844
 C1716 C 0.70935 1.06727 0.76836
 N1717 N 0.71611 1.07864 0.77652
 N1718 N 0.70788 1.08863 0.78460
 C1719 C 0.71883 1.05673 0.75928
 C1720 C 0.71347 1.04328 0.75227
 H1721 H 0.67150 1.09999 0.79169
 H1722 H 0.73072 1.05963 0.75819
 H1723 H 0.70224 1.10516 0.80776
 H1724 H 0.70192 1.03954 0.75416
 C1725 C 0.19278 0.60654 0.79377
 C1726 C 0.20149 0.59413 0.79905
 C1727 C 0.20775 0.58235 0.78867
 N1728 N 0.21594 0.57018 0.79414
 N1729 N 0.22202 0.55972 0.78477
 C1730 C 0.22013 0.56105 0.76958
 N1731 N 0.21189 0.57317 0.76413
 N1732 N 0.20579 0.58360 0.77349
 C1733 C 0.22751 0.55022 0.75901
 C1734 C 0.23595 0.53742 0.76387
 H1735 H 0.20385 0.59303 0.81101
 H1736 H 0.22667 0.55268 0.74702
 H1737 H 0.19015 0.60735 0.78183
 H1738 H 0.23608 0.53440 0.77576
 C1739 C 0.20160 1.10140 0.31909
 C1740 C 0.19842 1.09048 0.30789
 C1741 C 0.21000 1.07935 0.30260
 N1742 N 0.20609 1.06735 0.29341
 N1743 N 0.21658 1.05743 0.28831
 C1744 C 0.23137 1.05921 0.29216
 N1745 N 0.23526 1.07123 0.30129
 N1746 N 0.22478 1.08108 0.30646
 C1747 C 0.24322 1.04890 0.28604
 C1748 C 0.23993 1.03528 0.27812
 H1749 H 0.18721 1.08999 0.30298
 H1750 H 0.25493 1.05224 0.28766
 H1751 H 0.21256 1.10121 0.32456
 H1752 H 0.22831 1.03137 0.27739
 C1753 C 0.69591 0.39067 0.69741
 C1754 C 0.70557 0.40172 0.69105
 C1755 C 0.71274 0.41371 0.70062
 N1756 N 0.72127 0.42522 0.69440
 N1757 N 0.72800 0.43581 0.70315
 C1758 C 0.72644 0.43523 0.71844
 N1759 N 0.71793 0.42374 0.72461
 N1760 N 0.71118 0.41323 0.71589
 C1761 C 0.73428 0.44618 0.72849
 C1762 C 0.74212 0.45927 0.72343
 H1763 H 0.70797 0.40152 0.67905
 H1764 H 0.73391 0.44377 0.74052
 H1765 H 0.69327 0.39137 0.70936
 H1766 H 0.74179 0.46247 0.71159
 C1767 C 0.68237 -0.10369 0.19061
 C1768 C 0.69448 -0.09476 0.18541
 C1769 C 0.70205 -0.08327 0.19514
 N1770 N 0.71290 -0.07381 0.18931
 N1771 N 0.72028 -0.06382 0.19815
 C1772 C 0.71711 -0.06298 0.21317
 N1773 N 0.70626 -0.07243 0.21898
 N1774 N 0.69884 -0.08236 0.21013
 C1775 C 0.72570 -0.05272 0.22329
 C1776 C 0.73585 -0.04154 0.21800
 H1777 H 0.69871 -0.09638 0.17403
 H1778 H 0.72414 -0.05415 0.23537
 H1779 H 0.67764 -0.10144 0.20170
 H1780 H 0.73670 -0.03924 0.20599
 C1781 C 0.18362 0.39092 0.20112
 C1782 C 0.19252 0.40300 0.19545
 C1783 C 0.19896 0.41497 0.20548
 N1784 N 0.20676 0.42719 0.19959
 N1785 N 0.21307 0.43776 0.20863
 C1786 C 0.21183 0.43647 0.22390
 N1787 N 0.20402 0.42429 0.22977
 N1788 N 0.19766 0.41377 0.22074
 C1789 C 0.21959 0.44731 0.23413
 C1790 C 0.22710 0.46064 0.22910
 H1791 H 0.19503 0.40360 0.18348
 H1792 H 0.21989 0.44437 0.24605
 H1793 H 0.18075 0.39071 0.21303
 H1794 H 0.22602 0.46425 0.21742
 C1795 C 0.18855 -0.10316 0.68940
 C1796 C 0.20055 -0.09472 0.68327
 C1797 C 0.20949 -0.08387 0.69252
 N1798 N 0.21969 -0.07421 0.68589
 N1799 N 0.22817 -0.06470 0.69424
 C1800 C 0.22680 -0.06461 0.70954
 N1801 N 0.21665 -0.07430 0.71616
 N1802 N 0.20812 -0.08372 0.70781
 C1803 C 0.23645 -0.05476 0.71907
 C1804 C 0.24531 -0.04271 0.71332
 H1805 H 0.20358 -0.09619 0.67150
 H1806 H 0.23639 -0.05691 0.73115
 H1807 H 0.18504 -0.10103 0.70094
 H1808 H 0.24463 -0.03966 0.70147
 C1809 C 0.31293 0.30137 0.39758
 C1810 C 0.30139 0.30604 0.40736
 C1811 C 0.29414 0.29512 0.41794
 N1812 N 0.28438 0.30054 0.42859
 N1813 N 0.27726 0.29070 0.43784
 C1814 C 0.27957 0.27507 0.43670
 N1815 N 0.28931 0.26965 0.42603
 N1816 N 0.29649 0.27949 0.41684
 C1817 C 0.27130 0.26400 0.44632
 C1818 C 0.26277 0.26872 0.45879
 H1819 H 0.29738 0.31799 0.40716
 H1820 H 0.27197 0.25170 0.44354
 H1821 H 0.31762 0.28972 0.39847
 H1822 H 0.26288 0.28083 0.46225
 C1823 C 0.30192 0.81460 -0.10758
 C1824 C 0.30506 0.80093 -0.09966
 C1825 C 0.29375 0.79392 -0.08950
 N1826 N 0.29804 0.78332 -0.07893
 N1827 N 0.28783 0.77696 -0.06968
 C1828 C 0.27295 0.78089 -0.07078
 N1829 N 0.26866 0.79135 -0.08146
 N1830 N 0.27887 0.79780 -0.09060
 C1831 C 0.26147 0.77381 -0.06090
 C1832 C 0.26521 0.76612 -0.04753
 H1833 H 0.31612 0.79552 -0.10057
 H1834 H 0.24967 0.77510 -0.06398
 H1835 H 0.29125 0.82058 -0.10570
 H1836 H 0.27688 0.76587 -0.04379
 C1837 C 0.81184 0.30346 -0.10191
 C1838 C 0.80124 0.30887 -0.09147
 C1839 C 0.79466 0.29825 -0.08015
 N1840 N 0.78632 0.30392 -0.06847
 N1841 N 0.78017 0.29424 -0.05837
 C1842 C 0.78212 0.27856 -0.05965
 N1843 N 0.79040 0.27292 -0.07136
 N1844 N 0.79660 0.28258 -0.08138
 C1845 C 0.77482 0.26758 -0.04922
 C1846 C 0.76772 0.27221 -0.03588
 H1847 H 0.79781 0.32101 -0.09151
 H1848 H 0.77482 0.25534 -0.05229
 H1849 H 0.81578 0.29150 -0.10119
 H1850 H 0.76857 0.28419 -0.03213
 C1851 C 0.81240 0.82304 0.39946
 C1852 C 0.81586 0.81005 0.40831
 C1853 C 0.80504 0.80431 0.41975
 N1854 N 0.80914 0.79303 0.42974
 N1855 N 0.79908 0.78728 0.43954
 C1856 C 0.78454 0.79254 0.43962
 N1857 N 0.78048 0.80380 0.42964
 N1858 N 0.79053 0.80962 0.41995
 C1859 C 0.77291 0.78556 0.44939
 C1860 C 0.77626 0.77591 0.46162
 H1861 H 0.82630 0.80367 0.40646
 H1862 H 0.76116 0.78789 0.44668
 H1863 H 0.80226 0.82971 0.40197
 H1864 H 0.78788 0.77448 0.46528
 C1865 C 0.68578 0.30641 0.60562
 C1866 C 0.69781 0.31185 0.59684
 C1867 C 0.70530 0.30192 0.58543
 N1868 N 0.71572 0.30810 0.57584
 N1869 N 0.72298 0.29907 0.56589
 C1870 C 0.72016 0.28351 0.56523
 N1871 N 0.70977 0.27735 0.57483
 N1872 N 0.70245 0.28638 0.58470
 C1873 C 0.72862 0.27315 0.55495
 C1874 C 0.73780 0.27866 0.54326
 H1875 H 0.70203 0.32357 0.59851
 H1876 H 0.72761 0.26068 0.55666
 H1877 H 0.68110 0.29499 0.60332
 H1878 H 0.73801 0.29103 0.54074
 C1879 C 0.69267 0.80450 1.10728
 C1880 C 0.70405 0.81081 1.09828
 C1881 C 0.71264 0.80085 1.08774
 N1882 N 0.72137 0.80726 1.07672
 N1883 N 0.72907 0.79818 1.06715
 C1884 C 0.72837 0.78238 1.06835
 N1885 N 0.71977 0.77602 1.07944
 N1886 N 0.71201 0.78507 1.08892
 C1887 C 0.73685 0.77206 1.05815
 C1888 C 0.74380 0.77724 1.04492
 H1889 H 0.70650 0.82317 1.09874
 H1890 H 0.73723 0.75974 1.06091
 H1891 H 0.68972 0.79231 1.10598
 H1892 H 0.74262 0.78930 1.04147
 C1893 C 0.19017 0.31596 1.10385
 C1894 C 0.18645 0.30312 1.09496
 C1895 C 0.19717 0.29684 1.08368
 N1896 N 0.19269 0.28573 1.07372
 N1897 N 0.20252 0.27958 1.06390
 C1898 C 0.21722 0.28426 1.06376
 N1899 N 0.22168 0.29534 1.07372
 N1900 N 0.21184 0.30155 1.08345
 C1901 C 0.22851 0.27702 1.05369
 C1902 C 0.22465 0.26743 1.04159
 H1903 H 0.17566 0.29736 1.09649
 H1904 H 0.24036 0.27929 1.05591
 H1905 H 0.20064 0.32213 1.10165
 H1906 H 0.21286 0.26601 1.03854
 C1907 C 0.18742 0.80579 0.60487
 C1908 C 0.19959 0.81130 0.59639
 C1909 C 0.20763 0.80105 0.58572
 N1910 N 0.21812 0.80697 0.57607
 N1911 N 0.22566 0.79762 0.56664
 C1912 C 0.22303 0.78200 0.56661
 N1913 N 0.21262 0.77610 0.57630
 N1914 N 0.20503 0.78545 0.58565
 C1915 C 0.23140 0.77137 0.55663
 C1916 C 0.24054 0.77654 0.54481
 H1917 H 0.20341 0.82321 0.59769
 H1918 H 0.23003 0.75895 0.55842
 H1919 H 0.18318 0.79414 0.60283
 H1920 H 0.24119 0.78887 0.54223
 C1921 C 0.32364 0.69389 0.60203
 C1922 C 0.31066 0.69011 0.59390
 C1923 C 0.30394 0.70129 0.58314
 N1924 N 0.29272 0.69677 0.57365
 N1925 N 0.28624 0.70702 0.56430
 C1926 C 0.29069 0.72219 0.56420
 N1927 N 0.30186 0.72670 0.57371
 N1928 N 0.30840 0.71644 0.58296
 C1929 C 0.28322 0.73390 0.55460
 C1930 C 0.27354 0.72999 0.54279
 H1931 H 0.30514 0.67900 0.59569
 H1932 H 0.28545 0.74610 0.55688
 H1933 H 0.32947 0.70469 0.59954
 H1934 H 0.27211 0.71787 0.53968
 C1935 C 0.30249 0.18169 1.10298
 C1936 C 0.30635 0.19503 1.09484
 C1937 C 0.29587 0.20215 1.08390
 N1938 N 0.30083 0.21335 1.07423
 N1939 N 0.29130 0.22020 1.06460
 C1940 C 0.27643 0.21616 1.06437
 N1941 N 0.27148 0.20501 1.07407
 N1942 N 0.28102 0.19810 1.08362
 C1943 C 0.26557 0.22403 1.05435
 C1944 C 0.27003 0.23352 1.04235
 H1945 H 0.31730 0.20040 1.09649
 H1946 H 0.25361 0.22219 1.05640
 H1947 H 0.29198 0.17574 1.10054
 H1948 H 0.28192 0.23451 1.03949
 C1949 C 0.80838 0.68567 1.10749
 C1950 C 0.81457 0.69644 1.09741
 C1951 C 0.80484 0.70433 1.08619
 N1952 N 0.81095 0.71241 1.07444
 N1953 N 0.80204 0.71957 1.06439
 C1954 C 0.78671 0.71891 1.06577
 N1955 N 0.78066 0.71092 1.07754
 N1956 N 0.78953 0.70372 1.08749
 C1957 C 0.77651 0.72739 1.05552
 C1958 C 0.78109 0.73441 1.04204
 H1959 H 0.82660 0.69885 1.09757
 H1960 H 0.76475 0.72841 1.05892
 H1961 H 0.79650 0.68272 1.10651
 H1962 H 0.79245 0.73253 1.03777
 C1963 C 0.81960 0.19819 0.60526
 C1964 C 0.80743 0.19427 0.59605
 C1965 C 0.80109 0.20561 0.58523
 N1966 N 0.79127 0.20092 0.57437
 N1967 N 0.78526 0.21123 0.56479
 C1968 C 0.78878 0.22662 0.56579
 N1969 N 0.79853 0.23130 0.57668
 N1970 N 0.80462 0.22100 0.58618
 C1971 C 0.78172 0.23831 0.55587
 C1972 C 0.77384 0.23437 0.54280
 H1973 H 0.80249 0.18275 0.59673
 H1974 H 0.78278 0.25050 0.55894
 H1975 H 0.82504 0.20940 0.60380
 H1976 H 0.77372 0.22237 0.53899
 C1977 C 0.70017 0.69261 0.39490
 C1978 C 0.69536 0.70427 0.40479
 C1979 C 0.70589 0.71175 0.41541
 N1980 N 0.70058 0.72157 0.42623
 N1981 N 0.71006 0.72847 0.43581
 C1982 C 0.72522 0.72585 0.43487
 N1983 N 0.73053 0.71611 0.42400
 N1984 N 0.72105 0.70915 0.41448
 C1985 C 0.73593 0.73354 0.44513
 C1986 C 0.73123 0.74198 0.45777
 H1987 H 0.68361 0.70793 0.40487
 H1988 H 0.74792 0.73225 0.44284
 H1989 H 0.71179 0.68854 0.39537
 H1990 H 0.71930 0.74248 0.46058
 C1991 C 0.69959 0.18405 -0.10137
 C1992 C 0.69429 0.19482 -0.09082
 C1993 C 0.70441 0.20173 -0.07948
 N1994 N 0.69866 0.21070 -0.06820
 N1995 N 0.70782 0.21743 -0.05819
 C1996 C 0.72307 0.21548 -0.05917
 N1997 N 0.72880 0.20653 -0.07046
 N1998 N 0.71965 0.19975 -0.08040
 C1999 C 0.73345 0.22348 -0.04884
 C2000 C 0.72853 0.23133 -0.03594
 H2001 H 0.68251 0.19839 -0.09091
 H2002 H 0.74541 0.22338 -0.05158
 H2003 H 0.71117 0.17990 -0.10068
 H2004 H 0.71678 0.23063 -0.03249
 C2005 C 0.19186 0.67625 -0.10482
 C2006 C 0.18678 0.68855 -0.09584
 C2007 C 0.19678 0.69617 -0.08480
 N2008 N 0.19121 0.70727 -0.07535
 N2009 N 0.20036 0.71484 -0.06592
 C2010 C 0.21544 0.71164 -0.06566
 N2011 N 0.22099 0.70053 -0.07508
 N2012 N 0.21184 0.69291 -0.08444
 C2013 C 0.22592 0.72050 -0.05607
 C2014 C 0.22102 0.73093 -0.04500
 H2015 H 0.17544 0.69312 -0.09730
 H2016 H 0.23796 0.71890 -0.05792
 H2017 H 0.20296 0.67126 -0.10279
 H2018 H 0.20908 0.73183 -0.04235
 C2019 C 0.17737 0.19583 0.39437
 C2020 C 0.18786 0.19074 0.40506
 C2021 C 0.19465 0.20123 0.41626
 N2022 N 0.20393 0.19531 0.42706
 N2023 N 0.21086 0.20470 0.43681
 C2024 C 0.20882 0.22039 0.43606
 N2025 N 0.19951 0.22632 0.42529
 N2026 N 0.19253 0.21692 0.41557
 C2027 C 0.21703 0.23098 0.44619
 C2028 C 0.22579 0.22557 0.45821
 H2029 H 0.19157 0.17869 0.40504
 H2030 H 0.21631 0.24340 0.44403
 H2031 H 0.17286 0.20758 0.39495
 H2032 H 0.22582 0.21326 0.46097
 C2033 C 0.31183 0.38870 0.68045
 C2034 C 0.31693 0.39857 0.69184
 C2035 C 0.30651 0.40962 0.69929
 N2036 N 0.31192 0.42103 0.70843
 N2037 N 0.30245 0.43087 0.71535
 C2038 C 0.28724 0.42958 0.71343
 N2039 N 0.28186 0.41814 0.70438
 N2040 N 0.29131 0.40839 0.69740
 C2041 C 0.27650 0.43980 0.72140
 C2042 C 0.28086 0.45327 0.72901
 H2043 H 0.32867 0.39824 0.69533
 H2044 H 0.26463 0.43663 0.72120
 H2045 H 0.30028 0.38980 0.67648
 H2046 H 0.29247 0.45723 0.72834
 C2047 C 0.30884 0.88937 0.18570
 C2048 C 0.31461 0.89808 0.19767
 C2049 C 0.30501 0.90912 0.20617
 N2050 N 0.31126 0.91907 0.21632
 N2051 N 0.30257 0.92884 0.22428
 C2052 C 0.28729 0.92894 0.22243
 N2053 N 0.28106 0.91898 0.21232
 N2054 N 0.28974 0.90929 0.20432
 C2055 C 0.27737 0.93911 0.23151
 C2056 C 0.28280 0.95115 0.24059
 H2057 H 0.32638 0.89682 0.20086
 H2058 H 0.26528 0.93710 0.23096
 H2059 H 0.29728 0.89133 0.18207
 H2060 H 0.29474 0.95393 0.24045
 C2061 C 0.80432 0.39207 0.20110
 C2062 C 0.79464 0.40285 0.19430
 C2063 C 0.78512 0.41361 0.20313
 N2064 N 0.77622 0.42416 0.19590
 N2065 N 0.76709 0.43359 0.20370
 C2066 C 0.76648 0.43278 0.21902
 N2067 N 0.77542 0.42226 0.22626
 N2068 N 0.78458 0.41285 0.21846
 C2069 C 0.75614 0.44277 0.22778
 C2070 C 0.74743 0.45447 0.22110
 H2071 H 0.79371 0.40325 0.18211
 H2072 H 0.75546 0.44097 0.23990
 H2073 H 0.80570 0.39207 0.21327
 H2074 H 0.74863 0.45683 0.20913
 C2075 C 0.81551 0.89826 0.69267
 C2076 C 0.80365 0.90715 0.68683
 C2077 C 0.79508 0.91824 0.69628
 N2078 N 0.78457 0.92778 0.68992
 N2079 N 0.77641 0.93749 0.69846
 C2080 C 0.77841 0.93794 0.71368
 N2081 N 0.78890 0.92839 0.72002
 N2082 N 0.79710 0.91874 0.71149
 C2083 C 0.76911 0.94809 0.72339
 C2084 C 0.75917 0.95925 0.71761
 H2085 H 0.80037 0.90583 0.67511
 H2086 H 0.77012 0.94674 0.73553
 H2087 H 0.81922 0.90019 0.70418
 H2088 H 0.75880 0.96135 0.70554
 C2089 C 0.70249 0.61061 0.68228
 C2090 C 0.69809 0.59954 0.69295
 C2091 C 0.70892 0.58829 0.69944
 N2092 N 0.70384 0.57608 0.70781
 N2093 N 0.71357 0.56615 0.71419
 C2094 C 0.72874 0.56811 0.71250
 N2095 N 0.73381 0.58033 0.70416
 N2096 N 0.72409 0.59019 0.69770
 C2097 C 0.73967 0.55785 0.72020
 C2098 C 0.73546 0.54389 0.72713
 H2099 H 0.68639 0.59901 0.69658
 H2100 H 0.75140 0.56150 0.72062
 H2101 H 0.71392 0.61037 0.67781
 H2102 H 0.72402 0.53961 0.72582
 C2103 C 0.69015 0.10702 0.19161
 C2104 C 0.70138 0.09782 0.18500
 C2105 C 0.71004 0.08657 0.19417
 N2106 N 0.71939 0.07599 0.18751
 N2107 N 0.72736 0.06597 0.19589
 C2108 C 0.72630 0.06626 0.21123
 N2109 N 0.71704 0.07688 0.21784
 N2110 N 0.70904 0.08680 0.20948
 C2111 C 0.73519 0.05574 0.22083
 C2112 C 0.74315 0.04290 0.21532
 H2113 H 0.70393 0.09891 0.17307
 H2114 H 0.73518 0.05799 0.23289
 H2115 H 0.68730 0.10525 0.20340
 H2116 H 0.74240 0.03983 0.20347
 C2117 C 0.19679 0.61778 0.19529
 C2118 C 0.19127 0.60417 0.20190
 C2119 C 0.20175 0.59229 0.20788
 N2120 N 0.19640 0.57909 0.21446
 N2121 N 0.20593 0.56837 0.21991
 C2122 C 0.22115 0.57047 0.21889
 N2123 N 0.22647 0.58362 0.21228
 N2124 N 0.21697 0.59431 0.20686
 C2125 C 0.23196 0.55923 0.22527
 C2126 C 0.22756 0.54556 0.23257
 H2127 H 0.17920 0.60208 0.20249
 H2128 H 0.24389 0.56205 0.22453
 H2129 H 0.20891 0.61962 0.19468
 H2130 H 0.21575 0.54223 0.23266
 C2131 C 0.19207 0.10927 0.69559
 C2132 C 0.20190 0.09870 0.68870
 C2133 C 0.20970 0.08659 0.69761
 N2134 N 0.21878 0.07594 0.69070
 N2135 N 0.22618 0.06523 0.69881
 C2136 C 0.22474 0.06482 0.71411
 N2137 N 0.21564 0.07543 0.72097
 N2138 N 0.20824 0.08609 0.71288
 C2139 C 0.23333 0.05374 0.72342
 C2140 C 0.24242 0.04197 0.71738
 H2141 H 0.20407 0.09939 0.67667
 H2142 H 0.23272 0.05510 0.73559
 H2143 H 0.18972 0.10822 0.70757
 H2144 H 0.24239 0.03983 0.70532
 C2145 C 0.30643 0.60347 0.31768
 C2146 C 0.31055 0.59468 0.30508
 C2147 C 0.29963 0.58420 0.29772
 N2148 N 0.30430 0.57399 0.28694
 N2149 N 0.29437 0.56478 0.27998
 C2150 C 0.27939 0.56553 0.28350
 N2151 N 0.27473 0.57578 0.29422
 N2152 N 0.28466 0.58490 0.30123
 C2153 C 0.26812 0.55597 0.27558
 C2154 C 0.27207 0.54342 0.26637
 H2155 H 0.32186 0.59559 0.30044
 H2156 H 0.25626 0.55880 0.27720
 H2157 H 0.29535 0.60181 0.32271
 H2158 H 0.28380 0.53979 0.26557
 C2159 C 0.31707 0.10636 0.80034
 C2160 C 0.30492 0.09640 0.80288
 C2161 C 0.29985 0.08549 0.79110
 N2162 N 0.29092 0.07317 0.79472
 N2163 N 0.28634 0.06326 0.78407
 C2164 C 0.29045 0.06538 0.76940
 N2165 N 0.29926 0.07776 0.76577
 N2166 N 0.30394 0.08758 0.77642
 C2167 C 0.28491 0.05509 0.75736
 C2168 C 0.27808 0.04075 0.76027
 H2169 H 0.29944 0.09614 0.81385
 H2170 H 0.28607 0.05903 0.74577
 H2171 H 0.32321 0.10566 0.78974
 H2172 H 0.27796 0.03618 0.77169
 C2173 C 0.81874 0.60635 0.80678
 C2174 C 0.80690 0.59636 0.81052
 C2175 C 0.79974 0.58641 0.79903
 N2176 N 0.79050 0.57454 0.80324
 N2177 N 0.78387 0.56563 0.79286
 C2178 C 0.78614 0.56834 0.77789
 N2179 N 0.79526 0.58029 0.77369
 N2180 N 0.80197 0.58913 0.78406
 C2181 C 0.77879 0.55881 0.76623
 C2182 C 0.77181 0.54465 0.76952
 H2183 H 0.80291 0.59567 0.82209
 H2184 H 0.77928 0.56283 0.75463
 H2185 H 0.82337 0.60610 0.79543
 H2186 H 0.77215 0.54017 0.78097
 C2187 C 0.80239 0.10596 0.30972
 C2188 C 0.80891 0.09438 0.30076
 C2189 C 0.79965 0.08339 0.29204
 N2190 N 0.80638 0.07174 0.28409
 N2191 N 0.79813 0.06204 0.27572
 C2192 C 0.78285 0.06369 0.27500
 N2193 N 0.77612 0.07530 0.28299
 N2194 N 0.78436 0.08495 0.29138
 C2195 C 0.77359 0.05370 0.26525
 C2196 C 0.77944 0.04086 0.25754
 H2197 H 0.82111 0.09341 0.29994
 H2198 H 0.76172 0.05665 0.26397
 H2199 H 0.79019 0.10653 0.31094
 H2200 H 0.79102 0.03717 0.25942
 C2201 C 0.68316 0.39290 0.31367
 C2202 C 0.67682 0.40176 0.30205
 C2203 C 0.68589 0.41335 0.29370
 N2204 N 0.67921 0.42319 0.28367
 N2205 N 0.68747 0.43338 0.27580
 C2206 C 0.70273 0.43404 0.27765
 N2207 N 0.70939 0.42419 0.28765
 N2208 N 0.70113 0.41408 0.29556
 C2209 C 0.71228 0.44449 0.26854
 C2210 C 0.70650 0.45625 0.25927
 H2211 H 0.66507 0.40014 0.29897
 H2212 H 0.72443 0.44275 0.26903
 H2213 H 0.69470 0.39516 0.31714
 H2214 H 0.69451 0.45891 0.25946
 C2215 C 0.70044 0.89689 0.81627
 C2216 C 0.69425 0.90707 0.80560
 C2217 C 0.70337 0.91807 0.79664
 N2218 N 0.69630 0.92841 0.78740
 N2219 N 0.70427 0.93793 0.77855
 C2220 C 0.71963 0.93741 0.77854
 N2221 N 0.72673 0.92708 0.78780
 N2222 N 0.71875 0.91759 0.79671
 C2223 C 0.72854 0.94741 0.76831
 C2224 C 0.72187 0.95905 0.75947
 H2225 H 0.68220 0.90681 0.80342
 H2226 H 0.74066 0.94551 0.76765
 H2227 H 0.71227 0.89780 0.81929
 H2228 H 0.70988 0.96141 0.76070
 C2229 C 0.20506 0.39125 0.81615
 C2230 C 0.20103 0.40167 0.80475
 C2231 C 0.21204 0.41199 0.79738
 N2232 N 0.20713 0.42305 0.78756
 N2233 N 0.21695 0.43219 0.78035
 C2234 C 0.23208 0.43054 0.78264
 N2235 N 0.23701 0.41944 0.79243
 N2236 N 0.22717 0.41035 0.79970
 C2237 C 0.24304 0.44023 0.77440
 C2238 C 0.23846 0.45291 0.76564
 H2239 H 0.18940 0.40226 0.80094
 H2240 H 0.25497 0.43742 0.77535
 H2241 H 0.21645 0.39132 0.82065
 H2242 H 0.22662 0.45619 0.76544
 C2243 C 0.18882 0.88771 0.30587
 C2244 C 0.20034 0.89720 0.31139
 C2245 C 0.20867 0.90812 0.30155
 N2246 N 0.21811 0.91884 0.30769
 N2247 N 0.22600 0.92850 0.29888
 C2248 C 0.22481 0.92772 0.28359
 N2249 N 0.21541 0.91697 0.27745
 N2250 N 0.20745 0.90738 0.28626
 C2251 C 0.23388 0.93786 0.27364
 C2252 C 0.24202 0.95059 0.27907
 H2253 H 0.20332 0.89672 0.32325
 H2254 H 0.23407 0.93530 0.26165
 H2255 H 0.18522 0.88894 0.29423
 H2256 H 0.24105 0.95379 0.29086
 C2257 C 0.39707 0.30141 0.69216
 C2258 C 0.40672 0.30886 0.70225
 C2259 C 0.41764 0.29974 0.71125
 N2260 N 0.42894 0.30691 0.71896
 N2261 N 0.43880 0.29856 0.72707
 C2262 C 0.43764 0.28276 0.72777
 N2263 N 0.42630 0.27566 0.72016
 N2264 N 0.41654 0.28397 0.71202
 C2265 C 0.44788 0.27322 0.73701
 C2266 C 0.46097 0.27889 0.74378
 H2267 H 0.40652 0.32144 0.70332
 H2268 H 0.44498 0.26103 0.73851
 H2269 H 0.39806 0.28891 0.69058
 H2270 H 0.46470 0.29069 0.74157
 C2271 C 0.39375 0.79933 0.18592
 C2272 C 0.40403 0.80526 0.19635
 C2273 C 0.41598 0.79511 0.20269
 N2274 N 0.42684 0.80098 0.21192
 N2275 N 0.43753 0.79168 0.21769
 C2276 C 0.43774 0.77619 0.21439
 N2277 N 0.42690 0.77037 0.20519
 N2278 N 0.41628 0.77964 0.19942
 C2279 C 0.44870 0.76537 0.22123
 C2280 C 0.46042 0.77001 0.23073
 H2281 H 0.40348 0.81740 0.19968
 H2282 H 0.44703 0.75303 0.21922
 H2283 H 0.39483 0.78729 0.18234
 H2284 H 0.46293 0.78229 0.23207
 C2285 C 0.89063 0.30672 0.19781
 C2286 C 0.90073 0.29593 0.19163
 C2287 C 0.91279 0.28888 0.20096
 N2288 N 0.92277 0.27855 0.19487
 N2289 N 0.93336 0.27182 0.20344
 C2290 C 0.93432 0.27518 0.21843
 N2291 N 0.92439 0.28553 0.22447
 N2292 N 0.91387 0.29227 0.21591
 C2293 C 0.94521 0.26727 0.22841
 C2294 C 0.95647 0.25715 0.22323
 H2295 H 0.89964 0.29240 0.17994
 H2296 H 0.94409 0.26924 0.24046
 H2297 H 0.89203 0.31030 0.20947
 H2298 H 0.95841 0.25585 0.21120
 C2299 C 0.89574 0.80364 0.69101
 C2300 C 0.90690 0.81035 0.69998
 C2301 C 0.91886 0.80079 0.70696
 N2302 N 0.92926 0.80746 0.71617
 N2303 N 0.93968 0.79874 0.72310
 C2304 C 0.94005 0.78303 0.72105
 N2305 N 0.92974 0.77640 0.71176
 N2306 N 0.91936 0.78511 0.70483
 C2307 C 0.95066 0.77303 0.72939
 C2308 C 0.96158 0.77894 0.73916
 H2309 H 0.90658 0.82271 0.70244
 H2310 H 0.94941 0.76051 0.72830
 H2311 H 0.89621 0.79126 0.68859
 H2312 H 0.96354 0.79139 0.73967
 C2313 C 0.60213 0.30060 0.31172
 C2314 C 0.59162 0.30719 0.30185
 C2315 C 0.58013 0.29747 0.29436
 N2316 N 0.56871 0.30416 0.28637
 N2317 N 0.55840 0.29535 0.27945
 C2318 C 0.55920 0.27953 0.28026
 N2319 N 0.57063 0.27288 0.28821
 N2320 N 0.58086 0.28167 0.29516
 C2321 C 0.54850 0.26948 0.27216
 C2322 C 0.53558 0.27510 0.26492
 H2323 H 0.59164 0.31964 0.29979
 H2324 H 0.55099 0.25710 0.27174
 H2325 H 0.60152 0.28824 0.31425
 H2326 H 0.53236 0.28723 0.26610
 C2327 C 0.60930 0.81859 0.80472
 C2328 C 0.59903 0.80709 0.80898
 C2329 C 0.58783 0.80090 0.79828
 N2330 N 0.57650 0.79153 0.80326
 N2331 N 0.56655 0.78554 0.79358
 C2332 C 0.56763 0.78864 0.77855
 N2333 N 0.57898 0.79797 0.77358
 N2334 N 0.58886 0.80403 0.78327
 C2335 C 0.55730 0.78152 0.76756
 C2336 C 0.54424 0.77354 0.77183
 H2337 H 0.59912 0.80255 0.82041
 H2338 H 0.56013 0.78247 0.75567
 H2339 H 0.60856 0.82372 0.79354
 H2340 H 0.54075 0.77342 0.78357
 C2341 C 0.10556 0.32346 0.80038
 C2342 C 0.09432 0.31275 0.80407
 C2343 C 0.08283 0.30806 0.79295
 N2344 N 0.07087 0.29917 0.79725
 N2345 N 0.06072 0.29444 0.78711
 C2346 C 0.06221 0.29839 0.77230
 N2347 N 0.07417 0.30723 0.76801
 N2348 N 0.08425 0.31203 0.77814
 C2349 C 0.05188 0.29228 0.76076
 C2350 C 0.03848 0.28457 0.76436
 H2351 H 0.09400 0.30758 0.81524
 H2352 H 0.05524 0.29329 0.74900
 H2353 H 0.10528 0.32921 0.78948
 H2354 H 0.03442 0.28456 0.77592
 C2355 C 0.10809 0.79578 0.30853
 C2356 C 0.09775 0.80154 0.29802
 C2357 C 0.08626 0.79124 0.29127
 N2358 N 0.07453 0.79731 0.28326
 N2359 N 0.06414 0.78798 0.27716
 C2360 C 0.06514 0.77224 0.27882
 N2361 N 0.07689 0.76620 0.28676
 N2362 N 0.08721 0.77551 0.29292
 C2363 C 0.05429 0.76161 0.27166
 C2364 C 0.04084 0.76664 0.26498
 H2365 H 0.09775 0.81381 0.29509
 H2366 H 0.05705 0.74928 0.27155
 H2367 H 0.10737 0.78369 0.31204
 H2368 H 0.03739 0.77872 0.26601
 C2369 C 0.60655 0.68621 0.69832
 C2370 C 0.59599 0.69733 0.69360
 C2371 C 0.58492 0.70442 0.70401
 N2372 N 0.57409 0.71419 0.69857
 N2373 N 0.56443 0.72130 0.70792
 C2374 C 0.56530 0.71895 0.72308
 N2375 N 0.57611 0.70917 0.72852
 N2376 N 0.58572 0.70201 0.71917
 C2377 C 0.55532 0.72737 0.73366
 C2378 C 0.54328 0.73671 0.72886
 H2379 H 0.59597 0.70120 0.68195
 H2380 H 0.55766 0.72635 0.74564
 H2381 H 0.60600 0.68162 0.70972
 H2382 H 0.54033 0.73700 0.71699
 C2383 C 0.60013 0.18697 0.19684
 C2384 C 0.58943 0.19746 0.19124
 C2385 C 0.57790 0.20445 0.20120
 N2386 N 0.56686 0.21373 0.19538
 N2387 N 0.55675 0.22057 0.20444
 C2388 C 0.55737 0.21841 0.21965
 N2389 N 0.56839 0.20914 0.22544
 N2390 N 0.57843 0.20226 0.21639
 C2391 C 0.54704 0.22658 0.22998
 C2392 C 0.53444 0.23494 0.22506
 H2393 H 0.58969 0.20089 0.17946
 H2394 H 0.54961 0.22626 0.24195
 H2395 H 0.59941 0.18318 0.20851
 H2396 H 0.53106 0.23444 0.21331
 C2397 C 0.09752 0.68957 0.17632
 C2398 C 0.08981 0.68582 0.18956
 C2399 C 0.07893 0.69673 0.19646
 N2400 N 0.06955 0.69183 0.20765
 N2401 N 0.06016 0.70182 0.21444
 C2402 C 0.05993 0.71711 0.21038
 N2403 N 0.06935 0.72203 0.19924
 N2404 N 0.07864 0.71201 0.19236
 C2405 C 0.05032 0.72845 0.21837
 C2406 C 0.03838 0.72385 0.22765
 H2407 H 0.09201 0.67483 0.19520
 H2408 H 0.05274 0.74076 0.21701
 H2409 H 0.09449 0.70007 0.17019
 H2410 H 0.03514 0.71168 0.22807
 C2411 C 0.10632 0.19434 0.70009
 C2412 C 0.09519 0.20378 0.69366
 C2413 C 0.08399 0.21209 0.70297
 N2414 N 0.07277 0.22045 0.69628
 N2415 N 0.06281 0.22839 0.70462
 C2416 C 0.06375 0.22829 0.71994
 N2417 N 0.07495 0.21993 0.72662
 N2418 N 0.08488 0.21196 0.71830
 C2419 C 0.05326 0.23741 0.72933
 C2420 C 0.04107 0.24568 0.72331
 H2421 H 0.09475 0.20532 0.68152
 H2422 H 0.05525 0.23771 0.74141
 H2423 H 0.10638 0.19240 0.71219
 H2424 H 0.03851 0.24471 0.71139
 C2425 C 0.38734 0.69402 0.30158
 C2426 C 0.39963 0.68754 0.29393
 C2427 C 0.41119 0.69787 0.28727
 N2428 N 0.42430 0.69201 0.28153
 N2429 N 0.43493 0.70155 0.27609
 C2430 C 0.43281 0.71727 0.27630
 N2431 N 0.41970 0.72307 0.28195
 N2432 N 0.40913 0.71357 0.28735
 C2433 C 0.44404 0.72821 0.27029
 C2434 C 0.45777 0.72370 0.26383
 H2435 H 0.40132 0.67503 0.29382
 H2436 H 0.44118 0.74051 0.27072
 H2437 H 0.38626 0.70660 0.30222
 H2438 H 0.46120 0.71157 0.26406
 C2439 C 0.39506 0.19286 0.81371
 C2440 C 0.40361 0.20525 0.81917
 C2441 C 0.41495 0.21280 0.80936
 N2442 N 0.42620 0.22163 0.81533
 N2443 N 0.43656 0.22823 0.80638
 C2444 C 0.43597 0.22627 0.79114
 N2445 N 0.42466 0.21759 0.78521
 N2446 N 0.41440 0.21092 0.79413
 C2447 C 0.44677 0.23386 0.78087
 C2448 C 0.46018 0.24088 0.78556
 H2449 H 0.40245 0.20893 0.83082
 H2450 H 0.44402 0.23389 0.76893
 H2451 H 0.39726 0.18854 0.80241
 H2452 H 0.46376 0.23991 0.79722
 C2453 C 0.89334 0.70193 0.81721
 C2454 C 0.90522 0.69663 0.80817
 C2455 C 0.91618 0.70765 0.80158
 N2456 N 0.92858 0.70234 0.79405
 N2457 N 0.93840 0.71232 0.78791
 C2458 C 0.93612 0.72797 0.78905
 N2459 N 0.92370 0.73324 0.79650
 N2460 N 0.91395 0.72329 0.80268
 C2461 C 0.94644 0.73927 0.78204
 C2462 C 0.96023 0.73515 0.77545
 H2463 H 0.90646 0.68431 0.80580
 H2464 H 0.94305 0.75144 0.78213
 H2465 H 0.89252 0.71424 0.81987
 H2466 H 0.96423 0.72322 0.77617
 C2467 C 0.89410 0.18044 0.30756
 C2468 C 0.90432 0.19222 0.31111
 C2469 C 0.91470 0.19844 0.29950
 N2470 N 0.92661 0.20755 0.30343
 N2471 N 0.93594 0.21318 0.29287
 C2472 C 0.93364 0.20996 0.27801
 N2473 N 0.92168 0.20096 0.27410
 N2474 N 0.91243 0.19527 0.28463
 C2475 C 0.94342 0.21638 0.26606
 C2476 C 0.95706 0.22395 0.26895
 H2477 H 0.90494 0.19665 0.32255
 H2478 H 0.93978 0.21494 0.25445
 H2479 H 0.89437 0.17534 0.29636
 H2480 H 0.96129 0.22449 0.28042
 C2481 C 0.31691 0.29338 0.60234
 C2482 C 0.30571 0.29905 0.59270
 C2483 C 0.29782 0.28883 0.58196
 N2484 N 0.28819 0.29504 0.57162
 N2485 N 0.28065 0.28586 0.56213
 C2486 C 0.28242 0.27012 0.56268
 N2487 N 0.29203 0.26391 0.57303
 N2488 N 0.29962 0.27310 0.58247
 C2489 C 0.27378 0.25974 0.55273
 C2490 C 0.26498 0.26529 0.54081
 H2491 H 0.30255 0.31126 0.59304
 H2492 H 0.27438 0.24729 0.55483
 H2493 H 0.32058 0.28135 0.60141
 H2494 H 0.26508 0.27761 0.53807
 C2495 C 0.31162 0.80169 0.09852
 C2496 C 0.30076 0.80810 0.08893
 C2497 C 0.29326 0.79848 0.07737
 N2498 N 0.28442 0.80520 0.06663
 N2499 N 0.27723 0.79644 0.05648
 C2500 C 0.27860 0.78064 0.05676
 N2501 N 0.28743 0.77396 0.06750
 N2502 N 0.29467 0.78270 0.07756
 C2503 C 0.26996 0.77062 0.04648
 C2504 C 0.26204 0.77626 0.03400
 H2505 H 0.29767 0.82029 0.08992
 H2506 H 0.26946 0.75827 0.04908
 H2507 H 0.31526 0.78973 0.09681
 H2508 H 0.26331 0.78830 0.03049
 C2509 C 0.80696 0.31514 0.10727
 C2510 C 0.81125 0.30233 0.09858
 C2511 C 0.80053 0.29518 0.08790
 N2512 N 0.80546 0.28494 0.07727
 N2513 N 0.79569 0.27822 0.06782
 C2514 C 0.78063 0.28144 0.06877
 N2515 N 0.77572 0.29159 0.07945
 N2516 N 0.78548 0.29838 0.08879
 C2517 C 0.76956 0.27367 0.05896
 C2518 C 0.77369 0.26563 0.04591
 H2519 H 0.82253 0.29747 0.09963
 H2520 H 0.75769 0.27443 0.06203
 H2521 H 0.79599 0.32048 0.10536
 H2522 H 0.78536 0.26582 0.04211
 C2523 C 0.80522 0.80402 0.61502
 C2524 C 0.79881 0.81077 0.60219
 C2525 C 0.79195 0.80099 0.59037
 N2526 N 0.78694 0.80743 0.57726
 N2527 N 0.78076 0.79853 0.56656
 C2528 C 0.77941 0.78288 0.56861
 N2529 N 0.78439 0.77648 0.58171
 N2530 N 0.79056 0.78535 0.59236
 C2531 C 0.77219 0.77279 0.55733
 C2532 C 0.76681 0.77816 0.54346
 H2533 H 0.79914 0.82330 0.60061
 H2534 H 0.77074 0.76061 0.56028
 H2535 H 0.80529 0.79144 0.61618
 H2536 H 0.76903 0.79007 0.54003
 C2537 C 0.31501 0.69792 0.39671
 C2538 C 0.30416 0.69282 0.40699
 C2539 C 0.29749 0.70371 0.41798
 N2540 N 0.28826 0.69844 0.42915
 N2541 N 0.28201 0.70839 0.43894
 C2542 C 0.28475 0.72395 0.43785
 N2543 N 0.29391 0.72919 0.42667
 N2544 N 0.30019 0.71926 0.41694
 C2545 C 0.27767 0.73521 0.44814
 C2546 C 0.26941 0.73077 0.46083
 H2547 H 0.30041 0.68081 0.40690
 H2548 H 0.27908 0.74751 0.44567
 H2549 H 0.31910 0.70981 0.39734
 H2550 H 0.26874 0.71857 0.46394
 C2551 C 0.30272 0.18400 0.89587
 C2552 C 0.30721 0.19558 0.90597
 C2553 C 0.29661 0.20213 0.91725
 N2554 N 0.30163 0.21217 0.92799
 N2555 N 0.29201 0.21851 0.93791
 C2556 C 0.27700 0.21509 0.93740
 N2557 N 0.27201 0.20506 0.92667
 N2558 N 0.28162 0.19867 0.91682
 C2559 C 0.26600 0.22258 0.94763
 C2560 C 0.27021 0.23161 0.96004
 H2561 H 0.31866 0.20003 0.90555
 H2562 H 0.25407 0.22105 0.94522
 H2563 H 0.29148 0.17907 0.89688
 H2564 H 0.28203 0.23238 0.96315
 C2565 C 0.80021 0.69401 0.89016
 C2566 C 0.79476 0.68790 0.90371
 C2567 C 0.78774 0.69847 0.91489
 N2568 N 0.78466 0.69363 0.92921
 N2569 N 0.77904 0.70360 0.93940
 C2570 C 0.77638 0.71875 0.93560
 N2571 N 0.77930 0.72347 0.92129
 N2572 N 0.78486 0.71356 0.91116
 C2573 C 0.77050 0.73026 0.94639
 C2574 C 0.76617 0.72687 0.96119
 H2575 H 0.79663 0.67574 0.90652
 H2576 H 0.76947 0.74214 0.94231
 H2577 H 0.79909 0.70641 0.88803
 H2578 H 0.76789 0.71524 0.96563
 C2579 C 0.80695 0.19690 0.39187
 C2580 C 0.81348 0.20477 0.40400
 C2581 C 0.80378 0.21255 0.41537
 N2582 N 0.80973 0.21840 0.42833
 N2583 N 0.80083 0.22525 0.43861
 C2584 C 0.78565 0.22646 0.43628
 N2585 N 0.77976 0.22069 0.42332
 N2586 N 0.78862 0.21385 0.41310
 C2587 C 0.77548 0.23434 0.44704
 C2588 C 0.78013 0.24065 0.46079
 H2589 H 0.82566 0.20473 0.40545
 H2590 H 0.76371 0.23552 0.44376
 H2591 H 0.79473 0.19635 0.39111
 H2592 H 0.79162 0.23875 0.46464
 C2593 C 0.68660 0.30268 0.39806
 C2594 C 0.69764 0.30961 0.40705
 C2595 C 0.70613 0.30056 0.41837
 N2596 N 0.71535 0.30789 0.42835
 N2597 N 0.72338 0.29970 0.43836
 C2598 C 0.72253 0.28388 0.43868
 N2599 N 0.71336 0.27657 0.42868
 N2600 N 0.70527 0.28475 0.41875
 C2601 C 0.73181 0.27450 0.44903
 C2602 C 0.73999 0.28082 0.46100
 H2603 H 0.70018 0.32188 0.40574
 H2604 H 0.73228 0.26201 0.44713
 H2605 H 0.68354 0.29062 0.40000
 H2606 H 0.73884 0.29307 0.46376
 C2607 C 0.68548 0.80420 0.89905
 C2608 C 0.69703 0.80881 0.90876
 C2609 C 0.70302 0.79832 0.92053
 N2610 N 0.71309 0.80372 0.93084
 N2611 N 0.71899 0.79417 0.94120
 C2612 C 0.71506 0.77886 0.94160
 N2613 N 0.70499 0.77348 0.93130
 N2614 N 0.69905 0.78303 0.92100
 C2615 C 0.72223 0.76788 0.95219
 C2616 C 0.73194 0.77263 0.96371
 H2617 H 0.70186 0.82035 0.90772
 H2618 H 0.72024 0.75554 0.95049
 H2619 H 0.68017 0.79294 0.90065
 H2620 H 0.73313 0.78495 0.96612
 C2621 C 0.18034 0.29854 0.89439
 C2622 C 0.19091 0.30342 0.90505
 C2623 C 0.19750 0.29285 0.91638
 N2624 N 0.20606 0.29878 0.92770
 N2625 N 0.21287 0.28936 0.93757
 C2626 C 0.21145 0.27363 0.93642
 N2627 N 0.20285 0.26769 0.92512
 N2628 N 0.19596 0.27713 0.91530
 C2629 C 0.21974 0.26310 0.94663
 C2630 C 0.22710 0.26853 0.95951
 H2631 H 0.19468 0.31543 0.90502
 H2632 H 0.22033 0.25082 0.94380
 H2633 H 0.17565 0.28690 0.89502
 H2634 H 0.22571 0.28059 0.96287
 C2635 C 0.18635 0.80468 0.39896
 C2636 C 0.19818 0.81054 0.40766
 C2637 C 0.20514 0.80084 0.41957
 N2638 N 0.21559 0.80689 0.42914
 N2639 N 0.22219 0.79791 0.43958
 C2640 C 0.21858 0.78254 0.44076
 N2641 N 0.20816 0.77653 0.43121
 N2642 N 0.20154 0.78550 0.42086
 C2643 C 0.22632 0.77204 0.45138
 C2644 C 0.23619 0.77708 0.46262
 H2645 H 0.20252 0.82214 0.40557
 H2646 H 0.22444 0.75963 0.45004
 H2647 H 0.18177 0.79330 0.40164
 H2648 H 0.23743 0.78941 0.46492
 C2649 C 0.68119 0.70433 0.60378
 C2650 C 0.69223 0.69985 0.59336
 C2651 C 0.69836 0.71083 0.58213
 N2652 N 0.70752 0.70556 0.57089
 N2653 N 0.71373 0.71549 0.56108
 C2654 C 0.71106 0.73107 0.56221
 N2655 N 0.70189 0.73632 0.57343
 N2656 N 0.69561 0.72639 0.58318
 C2657 C 0.71875 0.74229 0.55226
 C2658 C 0.72720 0.73768 0.53969
 H2659 H 0.69662 0.68805 0.59351
 H2660 H 0.71824 0.75454 0.55524
 H2661 H 0.67610 0.71582 0.60297
 H2662 H 0.72686 0.72563 0.53604
 C2663 C 0.67940 0.19514 0.10448
 C2664 C 0.69151 0.19006 0.09565
 C2665 C 0.69961 0.20071 0.08544
 N2666 N 0.70977 0.19499 0.07533
 N2667 N 0.71759 0.20461 0.06643
 C2668 C 0.71562 0.22030 0.06742
 N2669 N 0.70549 0.22601 0.07756
 N2670 N 0.69760 0.21640 0.08638
 C2671 C 0.72455 0.23111 0.05813
 C2672 C 0.73313 0.22611 0.04583
 H2673 H 0.69533 0.17806 0.09639
 H2674 H 0.72420 0.24342 0.06088
 H2675 H 0.67501 0.20686 0.10301
 H2676 H 0.73272 0.21400 0.04236
 C2677 C 0.19411 0.69890 0.10837
 C2678 C 0.18797 0.70407 0.09475
 C2679 C 0.19766 0.71101 0.08298
 N2680 N 0.19153 0.71659 0.06998
 N2681 N 0.20031 0.72301 0.05939
 C2682 C 0.21552 0.72402 0.06144
 N2683 N 0.22162 0.71839 0.07439
 N2684 N 0.21286 0.71201 0.08495
 C2685 C 0.22548 0.73147 0.05029
 C2686 C 0.22027 0.73834 0.03698
 H2687 H 0.17595 0.70304 0.09265
 H2688 H 0.23746 0.73192 0.05289
 H2689 H 0.20615 0.70006 0.11034
 H2690 H 0.20845 0.73734 0.03391
 C2691 C 0.17853 0.19153 0.60279
 C2692 C 0.19059 0.18642 0.59390
 C2693 C 0.19760 0.19678 0.58262
 N2694 N 0.20766 0.19106 0.57239
 N2695 N 0.21448 0.20056 0.56257
 C2696 C 0.21156 0.21613 0.56272
 N2697 N 0.20154 0.22184 0.57297
 N2698 N 0.19466 0.21234 0.58269
 C2699 C 0.21955 0.22698 0.55265
 C2700 C 0.22812 0.22209 0.54029
 H2701 H 0.19519 0.17480 0.59546
 H2702 H 0.21869 0.23935 0.55508
 H2703 H 0.17343 0.20280 0.60049
 H2704 H 0.22815 0.20991 0.53704
   
