data_POSCAR
  _audit_creation_date              2014-09-24
  _audit_creation_method            'ToBaCCo'
  _symmetry_space_group_name_H-M    'P1'
  _symmetry_Int_Tables_number       1
  _symmetry_cell_setting            triclinic
  loop_
  _symmetry_equiv_pos_as_xyz
 x,y,z
_cell_length_a 77.1118
_cell_length_b 82.4616
_cell_length_c 79.9407
_cell_angle_alpha 89.999000
_cell_angle_beta 90.361900
_cell_angle_gamma 89.339200
loop_
  _atom_site_label
  _atom_site_type_symbol
  _atom_site_fract_x
  _atom_site_fract_y
  _atom_site_fract_z
C1 C 0.31210 0.45283 0.91205
 C2 C 0.30080 0.45487 0.89847
 C3 C 0.28763 0.44364 0.89525
 C4 C 0.28547 0.43048 0.90625
 C5 C 0.29650 0.42848 0.92019
 C6 C 0.30986 0.43974 0.92305
 C7 C 0.32590 0.46351 0.91442
 C8 C 0.33819 0.46108 0.92740
 C9 C 0.33514 0.44838 0.93890
 C10 C 0.32114 0.43782 0.93678
 C11 C 0.31874 0.42494 0.94790
 C12 C 0.30589 0.41321 0.94500
 C13 C 0.29476 0.41517 0.93104
 H14 H 0.30240 0.46518 0.89023
 H15 H 0.27547 0.42166 0.90377
 H16 H 0.32685 0.47374 0.90603
 H17 H 0.34420 0.44573 0.94893
 H18 H 0.32708 0.42410 0.95881
 H19 H 0.28498 0.40622 0.92833
 C20 C 0.44636 0.83330 0.42990
 C21 C 0.45113 0.84651 0.43979
 C22 C 0.44150 0.85095 0.45403
 C23 C 0.42695 0.84153 0.45827
 C24 C 0.42193 0.82834 0.44832
 C25 C 0.43160 0.82430 0.43397
 C26 C 0.45639 0.82885 0.41611
 C27 C 0.45153 0.81593 0.40567
 C28 C 0.43645 0.80722 0.40957
 C29 C 0.42666 0.81115 0.42381
 C30 C 0.41217 0.80200 0.42818
 C31 C 0.40267 0.80567 0.44271
 C32 C 0.40749 0.81902 0.45257
 H33 H 0.46285 0.85292 0.43664
 H34 H 0.41901 0.84477 0.46891
 H35 H 0.46822 0.83540 0.41374
 H36 H 0.43228 0.79738 0.40158
 H37 H 0.40837 0.79189 0.42036
 H38 H 0.40033 0.82185 0.46385
 C39 C 0.95394 0.92556 0.83035
 C40 C 0.96394 0.91159 0.82712
 C41 C 0.96024 0.90129 0.81339
 C42 C 0.94559 0.90521 0.80331
 C43 C 0.93543 0.91915 0.80643
 C44 C 0.93976 0.92942 0.81988
 C45 C 0.95816 0.93585 0.84380
 C46 C 0.94862 0.95030 0.84680
 C47 C 0.93437 0.95385 0.83612
 C48 C 0.92996 0.94362 0.82280
 C49 C 0.91591 0.94755 0.81229
 C50 C 0.91129 0.93741 0.79887
 C51 C 0.92115 0.92315 0.79609
 H52 H 0.97434 0.90864 0.83578
 H53 H 0.94244 0.89800 0.79243
 H54 H 0.96948 0.93288 0.85131
 H55 H 0.92609 0.96429 0.83841
 H56 H 0.90881 0.95877 0.81438
 H57 H 0.91768 0.91508 0.78595
 C58 C 0.45745 -0.08120 0.32906
 C59 C 0.46981 -0.09309 0.32441
 C60 C 0.46785 -0.10186 0.30932
 C61 C 0.45387 -0.09794 0.29863
 C62 C 0.44110 -0.08681 0.30344
 C63 C 0.44275 -0.07851 0.31874
 C64 C 0.45936 -0.07200 0.34383
 C65 C 0.44661 -0.06042 0.34842
 C66 C 0.43151 -0.05886 0.33856
 C67 C 0.42963 -0.06757 0.32370
 C68 C 0.41479 -0.06542 0.31371
 C69 C 0.41310 -0.07366 0.29840
 C70 C 0.42650 -0.08415 0.29325
 H71 H 0.48059 -0.09578 0.33274
 H72 H 0.45261 -0.10385 0.28659
 H73 H 0.47094 -0.07354 0.35144
 H74 H 0.42120 -0.05063 0.34233
 H75 H 0.40448 -0.05742 0.31796
 H76 H 0.42552 -0.09036 0.28134
 C77 C 0.82348 0.29442 0.32361
 C78 C 0.82048 0.28670 0.33885
 C79 C 0.80571 0.29043 0.34841
 C80 C 0.79410 0.30259 0.34266
 C81 C 0.79705 0.31063 0.32737
 C82 C 0.81178 0.30640 0.31782
 C83 C 0.83804 0.29022 0.31408
 C84 C 0.84142 0.29811 0.29885
 C85 C 0.82968 0.31009 0.29316
 C86 C 0.81487 0.31414 0.30244
 C87 C 0.80318 0.32591 0.29655
 C88 C 0.78859 0.33056 0.30596
 C89 C 0.78558 0.32277 0.32140
 H90 H 0.82985 0.27780 0.34335
 H91 H 0.78265 0.30557 0.34988
 H92 H 0.84663 0.28063 0.31848
 H93 H 0.83220 0.31656 0.28164
 H94 H 0.80544 0.33133 0.28442
 H95 H 0.77450 0.32629 0.32889
 C96 C -0.19813 0.82558 0.82510
 C97 C -0.20564 0.83767 0.81515
 C98 C -0.19689 0.84399 0.80121
 C99 C -0.17989 0.83840 0.79787
 C100 C -0.17237 0.82584 0.80751
 C101 C -0.18159 0.81942 0.82118
 C102 C -0.20724 0.81927 0.83866
 C103 C -0.20035 0.80637 0.84814
 C104 C -0.18385 0.80012 0.84413
 C105 C -0.17448 0.80656 0.83071
 C106 C -0.15846 0.79985 0.82620
 C107 C -0.14954 0.80563 0.81217
 C108 C -0.15626 0.81896 0.80317
 H109 H -0.21832 0.84238 0.81856
 H110 H -0.17297 0.84296 0.78712
 H111 H -0.21981 0.82442 0.84177
 H112 H -0.17850 0.78996 0.85113
 H113 H -0.15315 0.78972 0.83329
 H114 H -0.14944 0.82332 0.79227
 C115 C 0.93854 0.33236 0.45892
 C116 C 0.94522 0.34795 0.46180
 C117 C 0.95673 0.35512 0.45027
 C118 C 0.96071 0.34654 0.43546
 C119 C 0.95406 0.33117 0.43236
 C120 C 0.94313 0.32393 0.44418
 C121 C 0.92742 0.32497 0.47053
 C122 C 0.92125 0.30923 0.46757
 C123 C 0.92589 0.30105 0.45287
 C124 C 0.93661 0.30832 0.44112
 C125 C 0.94057 0.30033 0.42615
 C126 C 0.95081 0.30783 0.41398
 C127 C 0.95785 0.32310 0.41733
 H128 H 0.94201 0.35405 0.47338
 H129 H 0.96846 0.35205 0.42579
 H130 H 0.92377 0.33127 0.48190
 H131 H 0.92084 0.28903 0.45048
 H132 H 0.93534 0.28839 0.42378
 H133 H 0.96572 0.32896 0.40796
 C134 C 0.41727 0.43957 0.82433
 C135 C 0.42461 0.45060 0.83566
 C136 C 0.44211 0.44903 0.84060
 C137 C 0.45227 0.43621 0.83428
 C138 C 0.44528 0.42528 0.82272
 C139 C 0.42773 0.42696 0.81773
 C140 C 0.39978 0.44103 0.81926
 C141 C 0.39269 0.43003 0.80765
 C142 C 0.40340 0.41782 0.80089
 C143 C 0.42074 0.41621 0.80584
 C144 C 0.43130 0.40419 0.79876
 C145 C 0.44874 0.40266 0.80348
 C146 C 0.45569 0.41302 0.81562
 H147 H 0.41676 0.46047 0.84061
 H148 H 0.46581 0.43513 0.83791
 H149 H 0.39166 0.45057 0.82444
 H150 H 0.39829 0.40965 0.79149
 H151 H 0.42607 0.39611 0.78932
 H152 H 0.46926 0.41184 0.81910
 C153 C 0.82394 0.92419 0.94836
 C154 C 0.81491 0.91085 0.95457
 C155 C 0.79991 0.90513 0.94639
 C156 C 0.79452 0.91281 0.93135
 C157 C 0.80381 0.92583 0.92469
 C158 C 0.81855 0.93153 0.93329
 C159 C 0.83791 0.93065 0.95740
 C160 C 0.84669 0.94451 0.95165
 C161 C 0.84172 0.95110 0.93603
 C162 C 0.82772 0.94481 0.92699
 C163 C 0.82234 0.95217 0.91207
 C164 C 0.80745 0.94691 0.90354
 C165 C 0.79833 0.93354 0.90981
 H166 H 0.81899 0.90569 0.96644
 H167 H 0.78339 0.90841 0.92447
 H168 H 0.84195 0.92467 0.96885
 H169 H 0.84773 0.96196 0.93130
 H170 H 0.82971 0.96221 0.90719
 H171 H 0.78674 0.92947 0.90342
 C172 C 0.32304 0.82309 0.30111
 C173 C 0.31373 0.83535 0.29263
 C174 C 0.29603 0.83854 0.29611
 C175 C 0.28794 0.82874 0.30826
 C176 C 0.29708 0.81632 0.31663
 C177 C 0.31472 0.81353 0.31316
 C178 C 0.34065 0.82032 0.29775
 C179 C 0.35021 0.80835 0.30650
 C180 C 0.34174 0.79876 0.31842
 C181 C 0.32405 0.80126 0.32181
 C182 C 0.31557 0.79179 0.33381
 C183 C 0.29788 0.79441 0.33720
 C184 C 0.28881 0.80679 0.32864
 H185 H 0.32036 0.84202 0.28299
 H186 H 0.27469 0.83106 0.31197
 H187 H 0.34695 0.82755 0.28829
 H188 H 0.34899 0.78959 0.32531
 H189 H 0.32266 0.78227 0.34035
 H190 H 0.27528 0.80913 0.33146
 C191 C 0.81646 0.41973 0.44088
 C192 C 0.81323 0.40718 0.45227
 C193 C 0.79902 0.39684 0.44996
 C194 C 0.78777 0.39945 0.43630
 C195 C 0.79095 0.41180 0.42474
 C196 C 0.80543 0.42188 0.42693
 C197 C 0.83053 0.43015 0.44330
 C198 C 0.83401 0.44280 0.43186
 C199 C 0.82316 0.44421 0.41753
 C200 C 0.80891 0.43403 0.41513
 C201 C 0.79812 0.43580 0.40100
 C202 C 0.78346 0.42594 0.39880
 C203 C 0.77990 0.41410 0.41094
 H204 H 0.82203 0.40522 0.46272
 H205 H 0.77657 0.39180 0.43461
 H206 H 0.83812 0.42870 0.45462
 H207 H 0.82588 0.45296 0.40785
 H208 H 0.80132 0.44477 0.39166
 H209 H 0.76851 0.40663 0.40972
 C210 C 0.95039 0.83986 -0.06657
 C211 C 0.95349 0.85555 -0.06038
 C212 C 0.94369 0.86184 -0.04703
 C213 C 0.93104 0.85199 -0.03967
 C214 C 0.92753 0.83654 -0.04601
 C215 C 0.93709 0.83048 -0.05964
 C216 C 0.96040 0.83346 -0.07961
 C217 C 0.95738 0.81774 -0.08603
 C218 C 0.94341 0.80883 -0.07946
 C219 C 0.93340 0.81500 -0.06624
 C220 C 0.92007 0.80575 -0.05916
 C221 C 0.91081 0.81168 -0.04534
 C222 C 0.91460 0.82705 -0.03886
 H223 H 0.96330 0.86295 -0.06617
 H224 H 0.92380 0.85636 -0.02897
 H225 H 0.97029 0.84104 -0.08499
 H226 H 0.94086 0.79666 -0.08382
 H227 H 0.91725 0.79379 -0.06402
 H228 H 0.90736 0.83164 -0.02825
 C229 C 0.30771 0.32303 0.80192
 C230 C 0.29468 0.33238 0.79410
 C231 C 0.28088 0.33905 0.80339
 C232 C 0.27963 0.33509 0.82046
 C233 C 0.29231 0.32532 0.82831
 C234 C 0.30661 0.31948 0.81911
 C235 C 0.32235 0.31809 0.79296
 C236 C 0.33644 0.31033 0.80100
 C237 C 0.33502 0.30617 0.81807
 C238 C 0.32013 0.31070 0.82723
 C239 C 0.31893 0.30754 0.84454
 C240 C 0.30466 0.31346 0.85371
 C241 C 0.29140 0.32217 0.84545
 H242 H 0.29569 0.33500 0.78087
 H243 H 0.26931 0.34031 0.82794
 H244 H 0.32313 0.32097 0.77976
 H245 H 0.34580 0.30020 0.82439
 H246 H 0.32937 0.30118 0.85100
 H247 H 0.28055 0.32690 0.85259
 C248 C 0.17333 0.54941 0.56231
 C249 C 0.15559 0.54776 0.55863
 C250 C 0.14649 0.56010 0.55001
 C251 C 0.15544 0.57389 0.54459
 C252 C 0.17307 0.57575 0.54822
 C253 C 0.18209 0.56345 0.55705
 C254 C 0.18225 0.53768 0.57191
 C255 C 0.19976 0.53987 0.57638
 C256 C 0.20844 0.55367 0.57064
 C257 C 0.19971 0.56550 0.56118
 C258 C 0.20809 0.57983 0.55668
 C259 C 0.19897 0.59244 0.54855
 C260 C 0.18155 0.59012 0.54397
 H261 H 0.14871 0.53722 0.56306
 H262 H 0.14857 0.58337 0.53778
 H263 H 0.17545 0.52707 0.57629
 H264 H 0.22177 0.55572 0.57440
 H265 H 0.22162 0.58138 0.56003
 H266 H 0.17431 0.59984 0.53792
 C267 C 0.56908 0.69450 0.08098
 C268 C 0.58458 0.70176 0.07616
 C269 C 0.59046 0.70047 0.05961
 C270 C 0.58120 0.69112 0.04799
 C271 C 0.56558 0.68386 0.05259
 C272 C 0.55933 0.68585 0.06906
 C273 C 0.56305 0.69595 0.09745
 C274 C 0.54704 0.68929 0.10208
 C275 C 0.53713 0.68122 0.08989
 C276 C 0.54328 0.67925 0.07359
 C277 C 0.53367 0.67059 0.06181
 C278 C 0.54001 0.66813 0.04559
 C279 C 0.55596 0.67482 0.04100
 H280 H 0.59191 0.70877 0.08518
 H281 H 0.58576 0.69012 0.03523
 H282 H 0.57093 0.70214 0.10666
 H283 H 0.52451 0.67650 0.09301
 H284 H 0.52151 0.66518 0.06546
 H285 H 0.56082 0.67296 0.02843
 C286 C 0.70649 0.17635 0.68843
 C287 C 0.71249 0.18359 0.67367
 C288 C 0.70475 0.19807 0.66764
 C289 C 0.69009 0.20453 0.67585
 C290 C 0.68415 0.19767 0.69070
 C291 C 0.69300 0.18409 0.69742
 C292 C 0.71283 0.16105 0.69390
 C293 C 0.70585 0.15383 0.70840
 C294 C 0.69525 0.16349 0.71878
 C295 C 0.68786 0.17784 0.71288
 C296 C 0.67392 0.18483 0.72138
 C297 C 0.66326 0.19649 0.71352
 C298 C 0.66898 0.20356 0.69852
 H299 H 0.72333 0.17814 0.66709
 H300 H 0.68331 0.21500 0.67070
 H301 H 0.72170 0.15428 0.68602
 H302 H 0.69118 0.15897 0.73086
 H303 H 0.67023 0.17987 0.73338
 H304 H 0.66120 0.21288 0.69242
 C305 C 1.07390 0.05887 0.17962
 C306 C 1.09145 0.05512 0.18291
 C307 C 1.09961 0.06115 0.19737
 C308 C 1.08996 0.07033 0.20887
 C309 C 1.07260 0.07423 0.20572
 C310 C 1.06452 0.06858 0.19103
 C311 C 1.06571 0.05336 0.16497
 C312 C 1.04818 0.05744 0.16146
 C313 C 1.03922 0.06749 0.17297
 C314 C 1.04719 0.07301 0.18760
 C315 C 1.03821 0.08334 0.19862
 C316 C 1.04635 0.08911 0.21316
 C317 C 1.06346 0.08426 0.21676
 H318 H 1.09888 0.04802 0.17401
 H319 H 1.09609 0.07471 0.22022
 H320 H 1.07296 0.04548 0.15667
 H321 H 1.02619 0.07182 0.17031
 H322 H 1.02498 0.08706 0.19581
 H323 H 1.06998 0.08898 0.22776
 C324 C 0.05728 0.18017 1.07652
 C325 C 0.04759 0.17068 1.06552
 C326 C 0.05468 0.16492 1.05037
 C327 C 0.07183 0.16929 1.04629
 C328 C 0.08143 0.17958 1.05686
 C329 C 0.07410 0.18491 1.07210
 C330 C 0.05069 0.18428 1.09230
 C331 C 0.06075 0.19310 1.10376
 C332 C 0.07701 0.19876 1.09889
 C333 C 0.08379 0.19457 1.08321
 C334 C 0.10050 0.19921 1.07889
 C335 C 0.10803 0.19397 1.06386
 C336 C 0.09840 0.18429 1.05275
 H337 H 0.03485 0.16683 1.06945
 H338 H 0.07754 0.16513 1.03468
 H339 H 0.03800 0.18006 1.09598
 H340 H 0.08486 0.20549 1.10773
 H341 H 0.10786 0.20673 1.08744
 H342 H 0.10428 0.18010 1.04123
 C343 C 0.19361 0.66675 0.69609
 C344 C 0.18122 0.67194 0.70776
 C345 C 0.16971 0.68489 0.70405
 C346 C 0.17217 0.69370 0.68920
 C347 C 0.18494 0.68897 0.67770
 C348 C 0.19530 0.67513 0.68086
 C349 C 0.20364 0.65277 0.69907
 C350 C 0.21478 0.64648 0.68670
 C351 C 0.21654 0.65506 0.67155
 C352 C 0.20696 0.66941 0.66859
 C353 C 0.20824 0.67773 0.65328
 C354 C 0.19812 0.69177 0.65016
 C355 C 0.18678 0.69741 0.66268
 H356 H 0.18005 0.66538 0.71943
 H357 H 0.16347 0.70363 0.68597
 H358 H 0.20239 0.64652 0.71091
 H359 H 0.22487 0.65029 0.66181
 H360 H 0.21675 0.67300 0.64367
 H361 H 0.17915 0.70837 0.66071
 C362 C 1.21223 0.17448 0.18217
 C363 C 1.22216 0.16046 0.18535
 C364 C 1.21819 0.14985 0.19868
 C365 C 1.20346 0.15370 0.20852
 C366 C 1.19323 0.16759 0.20530
 C367 C 1.19772 0.17808 0.19217
 C368 C 1.21674 0.18501 0.16916
 C369 C 1.20701 0.19922 0.16603
 C370 C 1.19243 0.20266 0.17601
 C371 C 1.18775 0.19222 0.18906
 C372 C 1.17337 0.19580 0.19916
 C373 C 1.16859 0.18534 0.21225
 C374 C 1.17865 0.17121 0.21515
 H375 H 1.23264 0.15772 0.17685
 H376 H 1.20014 0.14638 0.21922
 H377 H 1.22816 0.18237 0.16176
 H378 H 1.18466 0.21344 0.17358
 H379 H 1.16609 0.20691 0.19694
 H380 H 1.17503 0.16286 0.22495
 C381 C 0.68381 1.07198 0.54460
 C382 C 0.66853 1.06898 0.53545
 C383 C 0.65780 1.05586 0.53961
 C384 C 0.66262 1.04578 0.55310
 C385 C 0.67758 1.04882 0.56252
 C386 C 0.68830 1.06186 0.55818
 C387 C 0.69461 1.08497 0.54039
 C388 C 0.71001 1.08806 0.54955
 C389 C 0.71411 1.07776 0.56321
 C390 C 0.70346 1.06480 0.56752
 C391 C 0.70767 1.05487 0.58126
 C392 C 0.69682 1.04206 0.58591
 C393 C 0.68183 1.03909 0.57635
 H394 H 0.66489 1.07703 0.52528
 H395 H 0.65483 1.03538 0.55625
 H396 H 0.69118 1.09220 0.52955
 H397 H 0.72517 1.08013 0.57119
 H398 H 0.71947 1.05710 0.58828
 H399 H 0.67314 1.02947 0.57992
 C400 C 0.54158 0.57918 0.17295
 C401 C 0.53237 0.57650 0.15801
 C402 C 0.53905 0.56616 0.14545
 C403 C 0.55510 0.55828 0.14840
 C404 C 0.56402 0.56025 0.16362
 C405 C 0.55733 0.57080 0.17590
 C406 C 0.53525 0.59010 0.18499
 C407 C 0.54445 0.59278 0.19998
 C408 C 0.55988 0.58393 0.20305
 C409 C 0.56634 0.57290 0.19117
 C410 C 0.58153 0.56379 0.19438
 C411 C 0.58796 0.55278 0.18240
 C412 C 0.57941 0.55159 0.16683
 H413 H 0.51989 0.58242 0.15636
 H414 H 0.56078 0.55059 0.13889
 H415 H 0.52315 0.59655 0.18269
 H416 H 0.56708 0.58587 0.21455
 H417 H 0.58797 0.56487 0.20641
 H418 H 0.58455 0.54361 0.15725
 C419 C 0.67929 0.67640 0.17218
 C420 C 0.66269 0.67985 0.17858
 C421 C 0.65532 0.66973 0.19078
 C422 C 0.66485 0.65623 0.19662
 C423 C 0.68121 0.65249 0.19018
 C424 C 0.68850 0.66254 0.17793
 C425 C 0.68698 0.68663 0.16031
 C426 C 0.70376 0.68320 0.15432
 C427 C 0.71253 0.66910 0.15979
 C428 C 0.70507 0.65880 0.17157
 C429 C 0.71403 0.64490 0.17723
 C430 C 0.70679 0.63483 0.18949
 C431 C 0.69041 0.63886 0.19599
 H432 H 0.65548 0.69032 0.17399
 H433 H 0.65963 0.64865 0.20640
 H434 H 0.68016 0.69746 0.15612
 H435 H 0.72528 0.66619 0.15492
 H436 H 0.72660 0.64190 0.17201
 H437 H 0.68484 0.63147 0.20575
 C438 C 0.18122 0.06899 1.07096
 C439 C 0.16552 0.06469 1.06308
 C440 C 0.15860 0.07408 1.04970
 C441 C 0.16705 0.08864 1.04547
 C442 C 0.18259 0.09310 1.05317
 C443 C 0.18987 0.08310 1.06571
 C444 C 0.18895 0.05895 1.08332
 C445 C 0.20569 0.06236 1.08962
 C446 C 0.21381 0.07672 1.08443
 C447 C 0.20603 0.08707 1.07274
 C448 C 0.21458 0.10106 1.06756
 C449 C 0.20749 0.11107 1.05499
 C450 C 0.19133 0.10712 1.04799
 H451 H 0.15952 0.05340 1.06661
 H452 H 0.16154 0.09677 1.03617
 H453 H 0.18252 0.04792 1.08704
 H454 H 0.22626 0.08006 1.08971
 H455 H 0.22694 0.10408 1.07324
 H456 H 0.18588 0.11458 1.03806
 C457 C 0.57354 0.17256 0.54962
 C458 C 0.58986 0.17511 0.54240
 C459 C 0.60003 0.18849 0.54713
 C460 C 0.59403 0.19879 0.55994
 C461 C 0.57796 0.19620 0.56751
 C462 C 0.56749 0.18334 0.56199
 C463 C 0.56320 0.15945 0.54460
 C464 C 0.54634 0.15725 0.55117
 C465 C 0.54035 0.16883 0.56298
 C466 C 0.55092 0.18132 0.56881
 C467 C 0.54511 0.19177 0.58152
 C468 C 0.55585 0.20404 0.58782
 C469 C 0.57219 0.20632 0.58050
 H470 H 0.59454 0.16676 0.53295
 H471 H 0.60157 0.20919 0.56371
 H472 H 0.56857 0.15115 0.53555
 H473 H 0.52744 0.16851 0.56796
 H474 H 0.53227 0.19019 0.58667
 H475 H 0.58068 0.21569 0.58517
 C476 C 0.05655 0.55795 0.66963
 C477 C 0.07370 0.55214 0.67140
 C478 C 0.08458 0.55850 0.68385
 C479 C 0.07801 0.57005 0.69509
 C480 C 0.06092 0.57571 0.69366
 C481 C 0.05018 0.56992 0.68070
 C482 C 0.04585 0.55230 0.65671
 C483 C 0.02903 0.55879 0.65425
 C484 C 0.02284 0.57080 0.66538
 C485 C 0.03323 0.57631 0.67867
 C486 C 0.02708 0.58824 0.68986
 C487 C 0.03764 0.59361 0.70313
 C488 C 0.05456 0.58736 0.70481
 H489 H 0.07882 0.54324 0.66269
 H490 H 0.08640 0.57481 0.70482
 H491 H 0.05072 0.54284 0.64853
 H492 H 0.01008 0.57615 0.66353
 H493 H 0.01406 0.59317 0.68844
 H494 H 0.06292 0.59181 0.71471
 C495 C 0.67435 0.58335 0.05704
 C496 C 0.65931 0.57612 0.05067
 C497 C 0.65188 0.56285 0.05889
 C498 C 0.65935 0.55725 0.07398
 C499 C 0.67448 0.56424 0.08040
 C500 C 0.68209 0.57727 0.07184
 C501 C 0.68204 0.59631 0.04862
 C502 C 0.69741 0.60325 0.05474
 C503 C 0.70508 0.59707 0.06942
 C504 C 0.69759 0.58405 0.07793
 C505 C 0.70555 0.57752 0.09225
 C506 C 0.69799 0.56461 0.10108
 C507 C 0.68228 0.55819 0.09508
 H508 H 0.65375 0.58045 0.03898
 H509 H 0.65352 0.54724 0.08060
 H510 H 0.67605 0.60105 0.03730
 H511 H 0.71708 0.60221 0.07402
 H512 H 0.71788 0.58238 0.09628
 H513 H 0.67606 0.54847 0.10179
 C514 C 0.03862 0.68269 0.58068
 C515 C 0.03419 0.68996 0.59585
 C516 C 0.04355 0.70316 0.60208
 C517 C 0.05815 0.70864 0.59333
 C518 C 0.06288 0.70136 0.57802
 C519 C 0.05291 0.68842 0.57165
 C520 C 0.02857 0.67009 0.57422
 C521 C 0.03221 0.66331 0.55849
 C522 C 0.04665 0.66892 0.54959
 C523 C 0.05702 0.68136 0.55611
 C524 C 0.07117 0.68709 0.54709
 C525 C 0.08109 0.70014 0.55306
 C526 C 0.07696 0.70711 0.56867
 H527 H 0.02309 0.68556 0.60271
 H528 H 0.06538 0.71885 0.59812
 H529 H 0.01780 0.66564 0.58148
 H530 H 0.04956 0.66396 0.53736
 H531 H 0.07442 0.68137 0.53530
 H532 H 0.08436 0.71727 0.57331
 C533 C 0.54951 1.07510 0.67926
 C534 C 0.54667 1.06896 0.66308
 C535 C 0.55633 1.05556 0.65707
 C536 C 0.56847 1.04813 0.66803
 C537 C 0.57132 1.05410 0.68418
 C538 C 0.56198 1.06775 0.68985
 C539 C 0.54010 1.08857 0.68494
 C540 C 0.54275 1.09482 0.70111
 C541 C 0.55545 1.08760 0.71158
 C542 C 0.56508 1.07400 0.70609
 C543 C 0.57757 1.06634 0.71650
 C544 C 0.58655 1.05243 0.71088
 C545 C 0.58337 1.04649 0.69475
 H546 H 0.53747 1.07522 0.65499
 H547 H 0.57541 1.03723 0.66433
 H548 H 0.53070 1.09432 0.67664
 H549 H 0.55756 1.09235 0.72406
 H550 H 0.58005 1.07093 0.72899
 H551 H 0.59046 1.03586 0.69042
 C552 C 0.43178 0.34298 0.93997
 C553 C 0.43923 0.35827 0.94205
 C554 C 0.44943 0.36524 0.92935
 C555 C 0.45152 0.35651 0.91422
 C556 C 0.44411 0.34121 0.91197
 C557 C 0.43438 0.33435 0.92497
 C558 C 0.42160 0.33624 0.95265
 C559 C 0.41409 0.32090 0.95054
 C560 C 0.41726 0.31218 0.93576
 C561 C 0.42704 0.31891 0.92291
 C562 C 0.42919 0.31055 0.90784
 C563 C 0.43832 0.31751 0.89456
 C564 C 0.44600 0.33275 0.89679
 H565 H 0.43765 0.36427 0.95399
 H566 H 0.45839 0.36174 0.90381
 H567 H 0.41908 0.34317 0.96391
 H568 H 0.41186 0.30021 0.93412
 H569 H 0.42354 0.29866 0.90635
 H570 H 0.45307 0.33819 0.88658
 C571 C 0.92292 0.43791 0.32350
 C572 C 0.92939 0.44948 0.33460
 C573 C 0.94636 0.44819 0.34124
 C574 C 0.95669 0.43462 0.33668
 C575 C 0.95058 0.42320 0.32496
 C576 C 0.93364 0.42494 0.31834
 C577 C 0.90576 0.43906 0.31766
 C578 C 0.89919 0.42752 0.30643
 C579 C 0.91026 0.41510 0.30063
 C580 C 0.92735 0.41368 0.30660
 C581 C 0.93815 0.40107 0.30105
 C582 C 0.95505 0.39903 0.30752
 C583 C 0.96111 0.41015 0.31962
 H584 H 0.92078 0.45919 0.33859
 H585 H 0.96981 0.43337 0.34149
 H586 H 0.89736 0.44868 0.32226
 H587 H 0.90550 0.40641 0.29157
 H588 H 0.93335 0.39292 0.29151
 H589 H 0.97397 0.40863 0.32497
 C590 C 0.32327 0.93709 0.42127
 C591 C 0.32182 0.94163 0.40425
 C592 C 0.31007 0.93365 0.39359
 C593 C 0.29921 0.92177 0.40017
 C594 C 0.30044 0.91720 0.41692
 C595 C 0.31261 0.92469 0.42751
 C596 C 0.33535 0.94448 0.43204
 C597 C 0.33728 0.93950 0.44899
 C598 C 0.32658 0.92680 0.45470
 C599 C 0.31427 0.91955 0.44425
 C600 C 0.30377 0.90696 0.45023
 C601 C 0.29146 0.89966 0.43968
 C602 C 0.28993 0.90489 0.42305
 H603 H 0.33018 0.95087 0.39918
 H604 H 0.28991 0.91582 0.39206
 H605 H 0.34282 0.95438 0.42711
 H606 H 0.32816 0.92181 0.46712
 H607 H 0.30505 0.90294 0.46309
 H608 H 0.28084 0.89901 0.41468
 O609 O 0.20248 0.51848 0.72613
 O610 O 0.20327 0.51702 0.75554
 O611 O 0.25349 0.52574 0.71052
 O612 O 0.28094 0.51203 0.71532
 O613 O 0.22321 0.48871 0.68777
 O614 O 0.21545 0.46201 0.69545
 O615 O 0.28061 0.47603 0.76199
 O616 O 0.28408 0.50274 0.75715
 O617 O 0.22954 0.46950 0.77922
 O618 O 0.20101 0.47784 0.76967
 O619 O 0.24868 0.43996 0.74151
 O620 O 0.25261 0.44262 0.71134
 O621 O 0.27655 0.45499 0.74399
 O622 O 0.27475 0.45556 0.71202
 O623 O 0.22629 0.44680 0.75853
 O624 O 0.19749 0.46097 0.75146
 O625 O 0.25585 0.48160 0.78051
 O626 O 0.25923 0.51136 0.77325
 O627 O 0.19783 0.49758 0.70801
 O628 O 0.19544 0.46822 0.71230
 O629 O 0.24945 0.50106 0.68887
 O630 O 0.27773 0.49287 0.69953
 O631 O 0.23157 0.53294 0.72801
 O632 O 0.23006 0.52843 0.75878
 Zr633 Zr 0.22446 0.51121 0.73982
 O634 O 0.23269 0.49476 0.75845
 Zr635 Zr 0.25659 0.50053 0.71440
 O636 O 0.26659 0.48413 0.73227
 Zr637 Zr 0.21885 0.48132 0.71250
 O638 O 0.22757 0.46360 0.72973
 Zr639 Zr 0.25958 0.49142 0.75649
 O640 O 0.25169 0.50920 0.73878
 Zr641 Zr 0.22214 0.47176 0.75401
 O642 O 0.21193 0.48881 0.73668
 Zr643 Zr 0.25479 0.46154 0.72909
 O644 O 0.24585 0.47752 0.71007
 O645 O 0.22998 0.50391 0.71553
 O646 O 0.24893 0.46853 0.75335
 C647 C 0.19403 0.51158 0.71425
 C648 C 0.24304 0.53627 0.71696
 C649 C 0.23597 0.49603 0.68095
 C650 C 0.28470 0.46206 0.75603
 C651 C 0.24340 0.47356 0.78705
 C652 C 0.23748 0.43660 0.75278
 H653 H 0.22955 0.49901 0.76961
 H654 H 0.22194 0.45315 0.72729
 H655 H 0.22587 0.51176 0.70699
 H656 H 0.27935 0.48348 0.73118
 H657 H 0.28236 0.51381 0.75261
 H658 H 0.28077 0.51928 0.72517
 H659 H 0.19862 0.45173 0.74363
 H660 H 0.18860 0.47212 0.72197
 H661 H 0.26735 0.50877 0.78256
 H662 H 0.22385 0.53872 0.75609
 H663 H 0.24026 0.43953 0.71077
 H664 H 0.22723 0.45846 0.69208
 H665 H 0.19500 0.50796 0.75466
 H666 H 0.20359 0.48837 0.77499
 H667 H 0.27446 0.48234 0.69455
 H668 H 0.28510 0.46191 0.71510
 O669 O 0.22140 0.02315 0.23943
 O670 O 0.22772 0.01848 0.26770
 O671 O 0.26916 0.03395 0.21686
 O672 O 0.29757 0.02007 0.21607
 O673 O 0.23606 -0.00075 0.19384
 O674 O 0.22989 -0.02852 0.19948
 O675 O 0.30458 -0.02158 0.25644
 O676 O 0.30764 0.00594 0.25391
 O677 O 0.25946 -0.03242 0.27927
 O678 O 0.22842 -0.02070 0.27680
 O679 O 0.27050 -0.05504 0.23742
 O680 O 0.26800 -0.04867 0.20686
 O681 O 0.29793 -0.03982 0.23606
 O682 O 0.29036 -0.03590 0.20561
 O683 O 0.24948 -0.05087 0.25683
 O684 O 0.22154 -0.03665 0.25860
 O685 O 0.28412 -0.01750 0.27946
 O686 O 0.28599 0.01242 0.27508
 O687 O 0.21441 0.00518 0.21886
 O688 O 0.21244 -0.02421 0.21946
 O689 O 0.26207 0.01200 0.19311
 O690 O 0.29149 0.00393 0.19786
 O691 O 0.25009 0.03837 0.23802
 O692 O 0.25449 0.03023 0.26785
 Zr693 Zr 0.24572 0.01519 0.24807
 O694 O 0.25721 -0.00314 0.26293
 Zr695 Zr 0.27321 0.00857 0.21691
 O696 O 0.28602 -0.00983 0.23050
 Zr697 Zr 0.23578 -0.01110 0.21799
 O698 O 0.24710 -0.03057 0.23145
 Zr699 Zr 0.28335 -0.00553 0.25624
 O700 O 0.27241 0.01412 0.24261
 Zr701 Zr 0.24610 -0.02557 0.25720
 O702 O 0.23301 -0.00695 0.24380
 Zr703 Zr 0.27379 -0.03210 0.22629
 O704 O 0.26202 -0.01395 0.21113
 O705 O 0.24714 0.01115 0.22242
 O706 O 0.27229 -0.02807 0.25184
 C707 C 0.21131 0.01785 0.22784
 C708 C 0.25957 0.04329 0.22591
 C709 C 0.24771 0.00756 0.18635
 C710 C 0.30780 -0.03439 0.24778
 C711 C 0.27401 -0.02810 0.28574
 C712 C 0.26028 -0.05998 0.24895
 H713 H 0.25608 -0.00040 0.27492
 H714 H 0.24103 -0.04070 0.22861
 H715 H 0.24155 0.01983 0.21567
 H716 H 0.29839 -0.01011 0.22730
 H717 H 0.30519 0.01752 0.25153
 H718 H 0.29835 0.02713 0.22604
 H719 H 0.21963 -0.04249 0.24795
 H720 H 0.20748 -0.02190 0.23062
 H721 H 0.29610 0.00935 0.28218
 H722 H 0.24783 0.04060 0.26751
 H723 H 0.25649 -0.05331 0.20914
 H724 H 0.24102 -0.03147 0.19413
 H725 H 0.22038 0.00872 0.26784
 H726 H 0.23460 -0.01461 0.28563
 H727 H 0.28812 -0.00643 0.19256
 H728 H 0.30074 -0.02914 0.20729
 O729 O 0.52111 0.76895 0.30372
 O730 O 0.54883 0.75796 0.29662
 O731 O 0.50116 0.79054 0.26055
 O732 O 0.49737 0.78347 0.23314
 O733 O 0.46924 0.75715 0.28707
 O734 O 0.46906 0.72835 0.28979
 O735 O 0.52765 0.73324 0.21766
 O736 O 0.53202 0.76104 0.21909
 O737 O 0.54881 0.71159 0.25936
 O738 O 0.54856 0.71917 0.29058
 O739 O 0.50126 0.70041 0.24602
 O740 O 0.47137 0.71317 0.25056
 O741 O 0.50276 0.71934 0.22217
 O742 O 0.47316 0.72823 0.23052
 O743 O 0.52184 0.69723 0.26628
 O744 O 0.52661 0.70637 0.29482
 O745 O 0.55185 0.72888 0.23740
 O746 O 0.55478 0.75901 0.23978
 O747 O 0.49605 0.75517 0.30819
 O748 O 0.49022 0.72619 0.30647
 O749 O 0.47246 0.77462 0.26527
 O750 O 0.47450 0.76783 0.23537
 O751 O 0.52404 0.78740 0.27844
 O752 O 0.55192 0.77340 0.27285
 Zr753 Zr 0.52828 0.76218 0.27940
 O754 O 0.53888 0.74289 0.26542
 Zr755 Zr 0.49506 0.76672 0.25301
 O756 O 0.50436 0.74773 0.23780
 Zr757 Zr 0.49158 0.74215 0.28583
 O758 O 0.50061 0.72199 0.27205
 Zr759 Zr 0.53141 0.74568 0.24029
 O760 O 0.52235 0.76605 0.25391
 Zr761 Zr 0.52782 0.72105 0.27316
 O762 O 0.51867 0.74008 0.28857
 Zr763 Zr 0.49495 0.72545 0.24654
 O764 O 0.48389 0.74471 0.26063
 O765 O 0.50138 0.76415 0.27802
 O766 O 0.52172 0.72343 0.24793
 C767 C 0.50784 0.76531 0.31260
 C768 C 0.51264 0.79615 0.27074
 C769 C 0.46435 0.76938 0.27815
 C770 C 0.51581 0.72326 0.21314
 C771 C 0.55613 0.71615 0.24577
 C772 C 0.51195 0.69169 0.25471
 H773 H 0.55166 0.74270 0.26656
 H774 H 0.49539 0.71198 0.27645
 H775 H 0.49666 0.77331 0.28461
 H776 H 0.50099 0.74981 0.22604
 H777 H 0.53162 0.77231 0.22336
 H778 H 0.50247 0.77754 0.22359
 H779 H 0.51435 0.70332 0.29632
 H780 H 0.50204 0.72548 0.31134
 H781 H 0.56133 0.75562 0.22971
 H782 H 0.55426 0.78225 0.28095
 H783 H 0.47315 0.70557 0.26000
 H784 H 0.46302 0.72781 0.27884
 H785 H 0.54573 0.74830 0.30326
 H786 H 0.55884 0.72434 0.28563
 H787 H 0.46595 0.75962 0.23881
 H788 H 0.47590 0.73673 0.22225
 O789 O 0.05518 0.71857 0.76514
 O790 O 0.05312 0.72293 0.79359
 O791 O 0.00640 0.70404 0.74796
 O792 O -0.02113 0.71276 0.74992
 O793 O 0.03222 0.74202 0.72189
 O794 O 0.03759 0.76934 0.72699
 O795 O -0.02965 0.75415 0.79153
 O796 O -0.02764 0.72679 0.79181
 O797 O 0.02005 0.76972 0.81031
 O798 O 0.04965 0.76435 0.80276
 O799 O -0.00259 0.79220 0.76985
 O800 O -0.00421 0.78809 0.74132
 O801 O -0.02877 0.77289 0.77061
 O802 O -0.02224 0.77002 0.73886
 O803 O 0.02090 0.79024 0.78703
 O804 O 0.05156 0.77894 0.78262
 O805 O -0.00501 0.75567 0.81224
 O806 O -0.00300 0.72506 0.80962
 O807 O 0.05784 0.73720 0.74430
 O808 O 0.05647 0.76747 0.74584
 O809 O 0.00759 0.72725 0.72384
 O810 O -0.02221 0.73260 0.73364
 O811 O 0.02742 0.70108 0.76785
 O812 O 0.02781 0.70955 0.79773
 Zr813 Zr 0.03190 0.72476 0.77673
 O814 O 0.02109 0.74222 0.79290
 Zr815 Zr -0.00006 0.72888 0.74903
 O816 O -0.01289 0.74558 0.76457
 Zr817 Zr 0.03494 0.75182 0.74605
 O818 O 0.02294 0.77022 0.76055
 Zr819 Zr -0.00587 0.74207 0.78982
 O820 O 0.00480 0.72360 0.77448
 Zr821 Zr 0.02849 0.76564 0.78582
 O822 O 0.04158 0.74797 0.77126
 Zr823 Zr -0.00433 0.76904 0.75900
 O824 O 0.00774 0.75238 0.74230
 O825 O 0.02667 0.72855 0.75141
 O826 O 0.00151 0.76563 0.78415
 C827 C 0.06321 0.72470 0.75268
 C828 C 0.01719 0.69540 0.75656
 C829 C 0.02016 0.73331 0.71552
 C830 C -0.03647 0.76550 0.78262
 C831 C 0.00633 0.76553 0.81812
 C832 C 0.00814 0.79821 0.78046
 H833 H 0.02445 0.73978 0.80461
 H834 H 0.02710 0.78098 0.75704
 H835 H 0.03198 0.72035 0.74392
 H836 H -0.02547 0.74424 0.76268
 H837 H -0.02374 0.71579 0.78844
 H838 H -0.02761 0.71545 0.76020
 H839 H 0.04949 0.78701 0.77366
 H840 H 0.06368 0.76467 0.75574
 H841 H -0.01167 0.72783 0.81830
 H842 H 0.03506 0.69960 0.79652
 H843 H 0.00778 0.78888 0.73714
 H844 H 0.02573 0.77170 0.72276
 H845 H 0.05977 0.73307 0.79250
 H846 H 0.04862 0.75413 0.80913
 H847 H -0.01967 0.74180 0.72612
 H848 H -0.03238 0.76349 0.74205
 O849 O -0.00566 -0.00758 -0.04269
 O850 O 0.02445 -0.00519 -0.03878
 O851 O -0.02284 -0.02634 0.00442
 O852 O -0.01845 -0.02016 0.03159
 O853 O -0.04994 0.01195 -0.01747
 O854 O -0.04561 0.04089 -0.01871
 O855 O 0.02342 0.02135 0.04245
 O856 O 0.02285 -0.00631 0.03901
 O857 O 0.04193 0.03890 -0.00469
 O858 O 0.03307 0.03519 -0.03382
 O859 O -0.00142 0.06103 0.01702
 O860 O -0.03061 0.05569 0.02002
 O861 O 0.00143 0.04006 0.04191
 O862 O -0.03104 0.03794 0.03683
 O863 O 0.01794 0.06003 -0.00429
 O864 O 0.01305 0.05098 -0.03419
 O865 O 0.04462 0.02302 0.01840
 O866 O 0.04148 -0.00687 0.01512
 O867 O -0.02685 0.01194 -0.04269
 O868 O -0.02822 0.04060 -0.03848
 O869 O -0.04704 -0.00417 0.00549
 O870 O -0.03675 -0.00011 0.03421
 O871 O -0.00502 -0.02804 -0.01811
 O872 O 0.02687 -0.02155 -0.01543
 Zr873 Zr 0.00628 -0.00461 -0.01904
 O874 O 0.02344 0.01183 -0.00733
 Zr875 Zr -0.02102 -0.00236 0.01268
 O876 O -0.00497 0.01356 0.02582
 Zr877 Zr -0.02551 0.02324 -0.01916
 O878 O -0.00983 0.04051 -0.00727
 Zr879 Zr 0.02105 0.01022 0.01879
 O880 O 0.00511 -0.00750 0.00716
 Zr881 Zr 0.01631 0.03588 -0.01295
 O882 O 0.00045 0.01951 -0.02634
 Zr883 Zr -0.01115 0.03746 0.01873
 O884 O -0.02870 0.02159 0.00689
 O885 O -0.01958 -0.00056 -0.01316
 O886 O 0.01497 0.03431 0.01303
 C887 C -0.01818 0.00042 -0.04973
 C888 C -0.01658 -0.03389 -0.00826
 C889 C -0.05586 0.00183 -0.00671
 C890 C 0.01395 0.03244 0.04928
 C891 C 0.05052 0.03340 0.00794
 C892 C 0.00976 0.06756 0.00737
 H893 H 0.03548 0.00935 -0.01078
 H894 H -0.01361 0.05151 -0.01073
 H895 H -0.02741 -0.00790 -0.01931
 H896 H -0.00666 0.01157 0.03788
 H897 H 0.01971 -0.01709 0.03453
 H898 H -0.00944 -0.01637 0.03946
 H899 H 0.00355 0.05880 -0.03183
 H900 H -0.01707 0.04059 -0.04455
 H901 H 0.05025 -0.00523 0.02407
 H902 H 0.02534 -0.03057 -0.02349
 H903 H -0.03394 0.05846 0.00840
 H904 H -0.05063 0.04058 -0.00735
 H905 H 0.02343 0.00539 -0.04456
 H906 H 0.04082 0.02562 -0.03254
 H907 H -0.04462 0.00929 0.03235
 H908 H -0.02812 0.02963 0.04534
 O909 O 0.02420 0.54249 0.50209
 O910 O 0.02363 0.54182 0.47269
 O911 O -0.02625 0.55714 0.51647
 O912 O -0.05368 0.54897 0.51237
 O913 O -0.00132 0.51628 0.53957
 O914 O 0.00185 0.48829 0.53160
 O915 O -0.05833 0.51260 0.46394
 O916 O -0.05801 0.53997 0.46965
 O917 O -0.00960 0.49827 0.44763
 O918 O 0.02021 0.50326 0.45732
 O919 O -0.03187 0.47143 0.48505
 O920 O -0.03712 0.47446 0.51408
 O921 O -0.05812 0.49094 0.48157
 O922 O -0.05670 0.49097 0.51378
 O923 O -0.00820 0.47561 0.46895
 O924 O 0.02160 0.48607 0.47504
 O925 O -0.03259 0.51570 0.44589
 O926 O -0.03222 0.54490 0.45401
 O927 O 0.02533 0.52070 0.51967
 O928 O 0.02321 0.49153 0.51560
 O929 O -0.02558 0.53221 0.53813
 O930 O -0.05484 0.52682 0.52638
 O931 O -0.00252 0.56113 0.50025
 O932 O -0.00123 0.55716 0.46943
 Zr933 Zr 0.00156 0.53888 0.48797
 O934 O -0.00856 0.52425 0.46879
 Zr935 Zr -0.03241 0.53257 0.51254
 O936 O -0.04426 0.51813 0.49409
 Zr937 Zr 0.00209 0.50810 0.51483
 O938 O -0.00858 0.49226 0.49694
 Zr939 Zr -0.03565 0.52483 0.47024
 O940 O -0.02569 0.54083 0.48850
 Zr941 Zr -0.00159 0.49990 0.47286
 O942 O 0.01057 0.51482 0.49089
 Zr943 Zr -0.03587 0.49396 0.49696
 O944 O -0.02519 0.50816 0.51660
 O945 O -0.00556 0.53211 0.51199
 O946 O -0.02858 0.50047 0.47292
 C947 C 0.03136 0.53403 0.51380
 C948 C -0.01393 0.56598 0.51084
 C949 C -0.01296 0.52547 0.54622
 C950 C -0.06484 0.49945 0.46959
 C951 C -0.02198 0.50534 0.43949
 C952 C -0.02022 0.46658 0.47471
 H953 H -0.00463 0.52819 0.45778
 H954 H -0.00442 0.48112 0.49941
 H955 H -0.00046 0.53921 0.52064
 H956 H -0.05700 0.51926 0.49488
 H957 H -0.05466 0.55039 0.47485
 H958 H -0.06071 0.54643 0.50236
 H959 H 0.01982 0.47776 0.48377
 H960 H 0.03078 0.49425 0.50607
 H961 H -0.04064 0.54393 0.44464
 H962 H 0.00633 0.56638 0.47246
 H963 H -0.02506 0.47093 0.51646
 H964 H -0.01021 0.48741 0.53566
 H965 H 0.03010 0.53139 0.47296
 H966 H 0.01858 0.51363 0.45129
 H967 H -0.05225 0.51659 0.53244
 H968 H -0.06622 0.49839 0.51029
 O969 O 0.53408 0.02864 0.49441
 O970 O 0.52271 0.02656 0.46809
 O971 O 0.49063 0.04736 0.52303
 O972 O 0.46479 0.03959 0.53176
 O973 O 0.52267 0.00714 0.54166
 O974 O 0.52384 -0.02074 0.53612
 O975 O 0.44314 -0.00162 0.48830
 O976 O 0.44432 0.02625 0.49202
 O977 O 0.48294 -0.01819 0.46056
 O978 O 0.51334 -0.01580 0.45981
 O979 O 0.47361 -0.03966 0.50754
 O980 O 0.47834 -0.03363 0.53541
 O981 O 0.44848 -0.01969 0.50929
 O982 O 0.46117 -0.01506 0.53943
 O983 O 0.48889 -0.03924 0.48335
 O984 O 0.52081 -0.03015 0.47942
 O985 O 0.46152 0.00076 0.46338
 O986 O 0.46411 0.03043 0.46925
 O987 O 0.54055 0.00961 0.51422
 O988 O 0.53659 -0.02028 0.51311
 O989 O 0.50102 0.02547 0.54632
 O990 O 0.46844 0.01896 0.54597
 O991 O 0.50817 0.04922 0.50039
 O992 O 0.49811 0.04161 0.47124
 Zr993 Zr 0.50748 0.02546 0.48999
 O994 O 0.49127 0.00910 0.47722
 Zr995 Zr 0.48453 0.02292 0.52505
 O996 O 0.46629 0.00794 0.51309
 Zr997 Zr 0.51710 -0.00277 0.51830
 O998 O 0.50012 -0.01973 0.50770
 Zr999 Zr 0.46623 0.01137 0.48700
 O1000 O 0.48214 0.02852 0.49928
 Zr1001 Zr 0.49845 -0.01523 0.48194
 O1002 O 0.51646 0.00121 0.49241
 Zr1003 Zr 0.47466 -0.01603 0.51644
 O1004 O 0.49241 -0.00113 0.52943
 O1005 O 0.50943 0.02129 0.51553
 O1006 O 0.47325 -0.01283 0.49065
 C1007 C 0.54467 0.02134 0.50442
 C1008 C 0.50022 0.05542 0.51306
 C1009 C 0.51534 0.01822 0.55045
 C1010 C 0.43871 -0.01339 0.49780
 C1011 C 0.46933 -0.01064 0.45529
 C1012 C 0.47964 -0.04647 0.49440
 H1013 H 0.49142 0.01168 0.46514
 H1014 H 0.50448 -0.03079 0.51023
 H1015 H 0.51741 0.02903 0.52095
 H1016 H 0.45459 0.00988 0.51773
 H1017 H 0.44883 0.03699 0.49528
 H1018 H 0.45629 0.03954 0.52245
 H1019 H 0.52038 -0.03865 0.48813
 H1020 H 0.54106 -0.01783 0.50182
 H1021 H 0.45314 0.02899 0.46291
 H1022 H 0.50577 0.05118 0.47089
 H1023 H 0.49063 -0.03714 0.53492
 H1024 H 0.51371 -0.02180 0.54357
 H1025 H 0.52789 0.01563 0.46655
 H1026 H 0.51206 -0.00505 0.45443
 H1027 H 0.47436 0.01075 0.55309
 H1028 H 0.45015 -0.00904 0.53757
 O1029 O 0.48823 0.56193 0.00490
 O1030 O 0.46007 0.55528 -0.00257
 O1031 O 0.50652 0.52037 0.03249
 O1032 O 0.50493 0.49292 0.02746
 O1033 O 0.53942 0.53950 -0.00393
 O1034 O 0.53983 0.53968 -0.03378
 O1035 O 0.47420 0.47659 -0.02464
 O1036 O 0.47084 0.47952 0.00431
 O1037 O 0.45599 0.51833 -0.04757
 O1038 O 0.46079 0.54800 -0.04328
 O1039 O 0.50282 0.49884 -0.05939
 O1040 O 0.53342 0.50223 -0.04679
 O1041 O 0.50003 0.47768 -0.03813
 O1042 O 0.53008 0.48383 -0.03028
 O1043 O 0.48364 0.51956 -0.06365
 O1044 O 0.48294 0.54877 -0.05642
 O1045 O 0.45161 0.49813 -0.02875
 O1046 O 0.44994 0.50152 0.00192
 O1047 O 0.51406 0.56258 -0.00881
 O1048 O 0.52089 0.55761 -0.03739
 O1049 O 0.53507 0.51867 0.01418
 O1050 O 0.52847 0.49065 0.01150
 O1051 O 0.48553 0.53941 0.02770
 O1052 O 0.45653 0.53401 0.01507
 Zr1053 Zr 0.48001 0.53793 0.00202
 O1054 O 0.46794 0.52410 -0.01670
 Zr1055 Zr 0.51037 0.50995 0.00848
 O1056 O 0.49970 0.49480 -0.01013
 Zr1057 Zr 0.51697 0.53930 -0.01934
 O1058 O 0.50633 0.52562 -0.03911
 Zr1059 Zr 0.47295 0.49932 -0.01238
 O1060 O 0.48330 0.51313 0.00770
 Zr1061 Zr 0.47931 0.52911 -0.03983
 O1062 O 0.49019 0.54425 -0.02142
 Zr1063 Zr 0.50965 0.50087 -0.03376
 O1064 O 0.52202 0.51456 -0.01485
 O1065 O 0.50675 0.53455 0.00400
 O1066 O 0.48303 0.50440 -0.03585
 C1067 C 0.50178 0.56928 -0.00032
 C1068 C 0.49640 0.53201 0.03735
 C1069 C 0.54436 0.52996 0.00798
 C1070 C 0.48597 0.47047 -0.03423
 C1071 C 0.44721 0.50650 -0.04168
 C1072 C 0.49242 0.50724 -0.06870
 H1073 H 0.45534 0.52647 -0.01670
 H1074 H 0.51180 0.52862 -0.04980
 H1075 H 0.51239 0.54153 0.01245
 H1076 H 0.50201 0.48330 -0.00726
 H1077 H 0.47134 0.48410 0.01575
 H1078 H 0.49997 0.48328 0.02194
 H1079 H 0.49462 0.54760 -0.06135
 H1080 H 0.50933 0.56238 -0.03989
 H1081 H 0.44252 0.49209 -0.00071
 H1082 H 0.45526 0.54240 0.02390
 H1083 H 0.53199 0.51023 -0.05592
 H1084 H 0.54489 0.52861 -0.03317
 H1085 H 0.46259 0.56035 -0.01349
 H1086 H 0.45064 0.54559 -0.03624
 H1087 H 0.53652 0.49122 0.00193
 H1088 H 0.52673 0.47649 -0.02110
 O1089 O 0.76610 0.19991 0.53299
 O1090 O 0.79442 0.20753 0.53637
 O1091 O 0.73829 0.24293 0.55114
 O1092 O 0.73258 0.26811 0.54304
 O1093 O 0.72287 0.21843 0.50359
 O1094 O 0.73454 0.21851 0.47654
 O1095 O 0.78386 0.28684 0.51285
 O1096 O 0.77668 0.28199 0.54005
 O1097 O 0.81455 0.24691 0.49735
 O1098 O 0.81205 0.21834 0.49735
 O1099 O 0.77292 0.26255 0.46656
 O1100 O 0.74271 0.26053 0.46684
 O1101 O 0.76797 0.28485 0.48888
 O1102 O 0.73605 0.27580 0.48560
 O1103 O 0.79471 0.24412 0.47043
 O1104 O 0.79532 0.21452 0.47880
 O1105 O 0.80870 0.26764 0.51530
 O1106 O 0.79879 0.26174 0.54449
 O1107 O 0.74881 0.19774 0.50990
 O1108 O 0.75595 0.20327 0.48056
 O1109 O 0.71732 0.23712 0.52382
 O1110 O 0.72149 0.26739 0.51970
 O1111 O 0.75878 0.22319 0.55501
 O1112 O 0.79034 0.22917 0.55354
 Zr1113 Zr 0.77367 0.22428 0.53295
 O1114 O 0.79130 0.23928 0.52044
 Zr1115 Zr 0.74080 0.24999 0.52609
 O1116 O 0.75733 0.26647 0.51420
 Zr1117 Zr 0.74938 0.22094 0.49869
 O1118 O 0.76553 0.23641 0.48498
 Zr1119 Zr 0.78298 0.26345 0.52271
 O1120 O 0.76600 0.24864 0.53647
 Zr1121 Zr 0.79088 0.23470 0.49463
 O1122 O 0.77500 0.21806 0.50741
 Zr1123 Zr 0.75838 0.26088 0.48863
 O1124 O 0.74047 0.24513 0.50027
 O1125 O 0.74827 0.22582 0.52415
 O1126 O 0.78394 0.25907 0.49701
 C1127 C 0.75643 0.19180 0.52294
 C1128 C 0.74615 0.23218 0.56011
 C1129 C 0.71272 0.22557 0.51397
 C1130 C 0.77734 0.29283 0.49937
 C1131 C 0.81891 0.25955 0.50570
 C1132 C 0.78634 0.25464 0.46155
 H1133 H 0.80304 0.23771 0.52528
 H1134 H 0.76489 0.23328 0.47306
 H1135 H 0.74049 0.21854 0.53039
 H1136 H 0.75306 0.27764 0.51628
 H1137 H 0.77157 0.27657 0.54988
 H1138 H 0.74257 0.27535 0.54467
 H1139 H 0.78689 0.21522 0.46944
 H1140 H 0.76683 0.19794 0.48444
 H1141 H 0.80604 0.27158 0.54505
 H1142 H 0.78844 0.22093 0.56236
 H1143 H 0.74350 0.24945 0.46216
 H1144 H 0.72833 0.22898 0.47490
 H1145 H 0.79718 0.20305 0.52520
 H1146 H 0.81571 0.21855 0.50922
 H1147 H 0.71602 0.26371 0.50914
 H1148 H 0.73662 0.28458 0.49401
 O1149 O 0.79525 0.75885 -0.01786
 O1150 O 0.79045 0.73102 -0.01676
 O1151 O 0.74583 0.77704 -0.03738
 O1152 O 0.71821 0.77750 -0.02990
 O1153 O 0.77072 0.80004 0.00523
 O1154 O 0.77106 0.79285 0.03485
 O1155 O 0.70597 0.73361 0.00959
 O1156 O 0.70848 0.73795 -0.01883
 O1157 O 0.75278 0.71226 0.02584
 O1158 O 0.78386 0.71919 0.02240
 O1159 O 0.73173 0.75128 0.05143
 O1160 O 0.73216 0.78104 0.04756
 O1161 O 0.70720 0.75285 0.02997
 O1162 O 0.71281 0.78221 0.03085
 O1163 O 0.75446 0.73362 0.04940
 O1164 O 0.78504 0.73558 0.04063
 O1165 O 0.73052 0.71271 0.00702
 O1166 O 0.73272 0.71971 -0.02259
 O1167 O 0.79608 0.77658 0.00400
 O1168 O 0.79152 0.77656 0.03293
 O1169 O 0.74780 0.79962 -0.01278
 O1170 O 0.71756 0.79226 -0.00825
 O1171 O 0.76917 0.76001 -0.03927
 O1172 O 0.76679 0.73053 -0.03418
 Zr1173 Zr 0.77033 0.74869 -0.01569
 O1174 O 0.75700 0.73205 -0.00058
 Zr1175 Zr 0.73858 0.77595 -0.01212
 O1176 O 0.72407 0.76056 0.00310
 Zr1177 Zr 0.77139 0.77604 0.01489
 O1178 O 0.75845 0.76032 0.03136
 Zr1179 Zr 0.73011 0.73632 -0.00244
 O1180 O 0.74329 0.75177 -0.01913
 Zr1181 Zr 0.76302 0.73598 0.02467
 O1182 O 0.77775 0.75167 0.00952
 Zr1183 Zr 0.73159 0.76347 0.02824
 O1184 O 0.74458 0.78053 0.01314
 O1185 O 0.76531 0.77295 -0.01022
 O1186 O 0.73624 0.73910 0.02287
 C1187 C 0.80310 0.76905 -0.00835
 C1188 C 0.75827 0.77026 -0.04552
 C1189 C 0.76015 0.80691 -0.00521
 C1190 C 0.69933 0.74172 0.02180
 C1191 C 0.74037 0.70549 0.01769
 C1192 C 0.74193 0.74028 0.05743
 H1193 H 0.76002 0.72090 -0.00418
 H1194 H 0.76221 0.76253 0.04297
 H1195 H 0.77190 0.78030 -0.01756
 H1196 H 0.71161 0.76293 0.00124
 H1197 H 0.71291 0.74185 -0.02970
 H1198 H 0.70983 0.76895 -0.02708
 H1199 H 0.78392 0.74478 0.04850
 H1200 H 0.79671 0.76552 0.03314
 H1201 H 0.72299 0.71196 -0.02209
 H1202 H 0.77547 0.73208 -0.04314
 H1203 H 0.74322 0.77968 0.05376
 H1204 H 0.75930 0.79779 0.03496
 H1205 H 0.79623 0.73096 -0.00568
 H1206 H 0.78167 0.71244 0.01239
 H1207 H 0.72006 0.79828 0.00219
 H1208 H 0.70476 0.78152 0.02121
 O1209 O 1.00189 0.26971 0.30314
 O1210 O 1.03180 0.26228 0.30330
 O1211 O 0.99148 0.29019 0.25611
 O1212 O 0.99720 0.28358 0.22892
 O1213 O 0.95942 0.25312 0.27424
 O1214 O 0.96187 0.22393 0.27553
 O1215 O 1.03649 0.23713 0.22119
 O1216 O 1.03631 0.26551 0.22384
 O1217 O 1.04953 0.21810 0.26796
 O1218 O 1.03995 0.22267 0.29654
 O1219 O 1.00569 0.20048 0.24364
 O1220 O 0.97562 0.21129 0.23889
 O1221 O 1.01393 0.21957 0.22054
 O1222 O 0.98248 0.22547 0.21960
 O1223 O 1.02274 0.19969 0.26692
 O1224 O 1.01825 0.20953 0.29627
 O1225 O 1.05488 0.23496 0.24614
 O1226 O 1.05336 0.26510 0.24925
 O1227 O 0.97958 0.25200 0.30072
 O1228 O 0.97735 0.22338 0.29710
 O1229 O 0.96490 0.27001 0.25243
 O1230 O 0.97654 0.26551 0.22486
 O1231 O 1.00993 0.28926 0.27849
 O1232 O 1.03961 0.27843 0.28130
 Zr1233 Zr 1.01654 0.26462 0.28128
 O1234 O 1.03314 0.24714 0.27026
 Zr1235 Zr 0.99133 0.26601 0.24725
 O1236 O 1.00683 0.24851 0.23496
 Zr1237 Zr 0.98277 0.24016 0.27789
 O1238 O 0.99786 0.22162 0.26720
 Zr1239 Zr 1.03237 0.24941 0.24405
 O1240 O 1.01732 0.26824 0.25509
 Zr1241 Zr 1.02382 0.22385 0.27504
 O1242 O 1.00818 0.24119 0.28753
 Zr1243 Zr 0.99848 0.22510 0.24123
 O1244 O 0.98160 0.24264 0.25178
 O1245 O 0.99096 0.26353 0.27302
 O1246 O 1.02419 0.22592 0.24913
 C1247 C 0.98766 0.26335 0.30834
 C1248 C 0.99983 0.29685 0.26826
 C1249 C 0.95484 0.26398 0.26351
 C1250 C 1.02805 0.22530 0.21467
 C1251 C 1.05925 0.22346 0.25619
 C1252 C 1.01504 0.19289 0.25453
 H1253 H 1.04511 0.24848 0.27450
 H1254 H 0.99285 0.21108 0.27034
 H1255 H 0.98342 0.27186 0.27825
 H1256 H 1.00652 0.25039 0.22275
 H1257 H 1.03367 0.27655 0.22807
 H1258 H 1.00499 0.27832 0.22072
 H1259 H 1.00762 0.20336 0.29376
 H1260 H 0.98774 0.22294 0.30444
 H1261 H 1.06259 0.26280 0.24097
 H1262 H 1.03842 0.28730 0.28963
 H1263 H 0.97448 0.20477 0.24920
 H1264 H 0.95765 0.22479 0.26384
 H1265 H 1.02831 0.25210 0.30884
 H1266 H 1.04759 0.23221 0.29639
 H1267 H 0.96961 0.25549 0.22519
 H1268 H 0.98663 0.23414 0.21213
 O1269 O 0.74539 1.03581 0.72167
 O1270 O 0.77496 1.03030 0.71990
 O1271 O 0.72154 0.99195 0.70424
 O1272 O 0.72001 0.96606 0.71109
 O1273 O 0.70496 1.01512 0.75083
 O1274 O 0.71671 1.01432 0.77862
 O1275 O 0.77241 0.94996 0.74270
 O1276 O 0.76430 0.95444 0.71524
 O1277 O 0.79876 0.99011 0.75990
 O1278 O 0.79389 1.02010 0.75686
 O1279 O 0.75993 0.97348 0.78847
 O1280 O 0.72959 0.97418 0.78871
 O1281 O 0.75505 0.95096 0.76567
 O1282 O 0.72343 0.95879 0.77025
 O1283 O 0.77910 0.99393 0.78508
 O1284 O 0.77820 1.02264 0.77660
 O1285 O 0.79521 0.97084 0.73989
 O1286 O 0.78454 0.97601 0.71088
 O1287 O 0.72933 1.03644 0.74548
 O1288 O 0.73594 1.03163 0.77476
 O1289 O 0.70095 0.99450 0.73237
 O1290 O 0.70857 0.96508 0.73434
 O1291 O 0.74123 1.01191 0.70023
 O1292 O 0.77314 1.00854 0.70205
 Zr1293 Zr 0.75605 1.01206 0.72248
 O1294 O 0.77521 0.99793 0.73489
 Zr1295 Zr 0.72583 0.98413 0.72893
 O1296 O 0.74387 0.96882 0.74102
 Zr1297 Zr 0.73164 1.01350 0.75654
 O1298 O 0.74952 0.99934 0.77027
 Zr1299 Zr 0.76910 0.97330 0.73258
 O1300 O 0.75076 0.98723 0.71877
 Zr1301 Zr 0.77459 1.00243 0.76069
 O1302 O 0.75686 1.01810 0.74810
 Zr1303 Zr 0.74453 0.97458 0.76661
 O1304 O 0.72502 0.98890 0.75476
 O1305 O 0.73090 1.00865 0.73107
 O1306 O 0.76975 0.97775 0.75828
 C1307 C 0.73497 1.04288 0.73195
 C1308 C 0.72877 1.00284 0.69524
 C1309 C 0.69534 1.00634 0.74139
 C1310 C 0.76528 0.94353 0.75553
 C1311 C 0.80433 0.97818 0.75097
 C1312 C 0.77225 0.98257 0.79370
 H1313 H 0.78677 1.00007 0.73014
 H1314 H 0.74870 1.00249 0.78217
 H1315 H 0.72224 1.01530 0.72486
 H1316 H 0.74052 0.95746 0.73889
 H1317 H 0.75904 0.95959 0.70520
 H1318 H 0.73030 0.95883 0.71055
 H1319 H 0.76890 1.02245 0.78506
 H1320 H 0.74668 1.03727 0.77154
 H1321 H 0.79252 0.96651 0.71020
 H1322 H 0.77061 1.01697 0.69349
 H1323 H 0.72911 0.98539 0.79306
 H1324 H 0.71074 1.00378 0.77936
 H1325 H 0.77756 1.03429 0.73130
 H1326 H 0.80014 1.01736 0.74645
 H1327 H 0.70320 0.96760 0.74527
 H1328 H 0.72361 0.95071 0.76111
 O1329 O 0.75417 0.43236 0.24578
 O1330 O 0.75985 0.43914 0.21742
 O1331 O 0.77810 0.46896 0.27446
 O1332 O 0.77650 0.49593 0.27761
 O1333 O 0.72508 0.45465 0.28347
 O1334 O 0.69784 0.46236 0.27021
 O1335 O 0.75296 0.52169 0.22816
 O1336 O 0.77923 0.51065 0.23735
 O1337 O 0.72876 0.48991 0.19680
 O1338 O 0.72766 0.46143 0.19525
 O1339 O 0.69918 0.50640 0.23327
 O1340 O 0.69736 0.50372 0.26308
 O1341 O 0.72594 0.52383 0.23940
 O1342 O 0.71866 0.51643 0.27003
 O1343 O 0.70120 0.48755 0.21263
 O1344 O 0.70576 0.45693 0.21100
 O1345 O 0.75278 0.50387 0.20437
 O1346 O 0.78048 0.49119 0.21494
 O1347 O 0.72811 0.43461 0.25888
 O1348 O 0.70016 0.44584 0.24996
 O1349 O 0.74773 0.47052 0.29113
 O1350 O 0.75140 0.50024 0.28761
 O1351 O 0.77966 0.45028 0.25347
 O1352 O 0.78207 0.45665 0.22307
 Zr1353 Zr 0.75895 0.45611 0.23731
 O1354 O 0.75123 0.47389 0.21971
 Zr1355 Zr 0.75518 0.48228 0.26903
 O1356 O 0.74751 0.50108 0.25277
 Zr1357 Zr 0.72178 0.45954 0.25774
 O1358 O 0.71244 0.47753 0.24119
 Zr1359 Zr 0.75793 0.49675 0.22902
 O1360 O 0.76740 0.47897 0.24578
 Zr1361 Zr 0.72417 0.47467 0.21764
 O1362 O 0.73191 0.45531 0.23365
 Zr1363 Zr 0.72043 0.50060 0.24923
 O1364 O 0.72789 0.48269 0.26709
 O1365 O 0.74845 0.45935 0.26094
 O1366 O 0.73110 0.49758 0.22577
 C1367 C 0.74152 0.42641 0.25417
 C1368 C 0.78520 0.45669 0.26711
 C1369 C 0.73604 0.45998 0.29429
 C1370 C 0.73925 0.52980 0.23200
 C1371 C 0.74022 0.50089 0.19428
 C1372 C 0.69354 0.49949 0.21989
 H1373 H 0.75662 0.47184 0.20869
 H1374 H 0.69967 0.47659 0.24068
 H1375 H 0.75260 0.45099 0.26892
 H1376 H 0.75147 0.51157 0.25731
 H1377 H 0.78778 0.50293 0.24226
 H1378 H 0.77826 0.50466 0.26935
 H1379 H 0.69546 0.45880 0.21810
 H1380 H 0.70359 0.44014 0.23958
 H1381 H 0.78372 0.50109 0.20871
 H1382 H 0.78886 0.44659 0.22540
 H1383 H 0.69009 0.49414 0.26086
 H1384 H 0.69895 0.47201 0.27750
 H1385 H 0.74798 0.43490 0.21593
 H1386 H 0.73706 0.45345 0.19742
 H1387 H 0.73901 0.49994 0.29074
 H1388 H 0.72909 0.52330 0.27016
 O1389 O 0.53592 0.22418 0.75037
 O1390 O 0.52493 0.22558 0.77733
 O1391 O 0.49273 0.21071 0.72016
 O1392 O 0.46507 0.22187 0.71372
 O1393 O 0.52476 0.25142 0.70474
 O1394 O 0.52852 0.27808 0.71427
 O1395 O 0.44647 0.25941 0.75801
 O1396 O 0.44703 0.23202 0.75209
 O1397 O 0.48687 0.27140 0.78837
 O1398 O 0.51825 0.26488 0.78931
 O1399 O 0.48105 0.29790 0.74430
 O1400 O 0.48488 0.29315 0.71508
 O1401 O 0.45416 0.28040 0.74127
 O1402 O 0.46509 0.27803 0.71063
 O1403 O 0.49588 0.29343 0.76858
 O1404 O 0.52591 0.28190 0.77270
 O1405 O 0.46379 0.25544 0.78256
 O1406 O 0.46615 0.22571 0.77581
 O1407 O 0.54368 0.24417 0.73236
 O1408 O 0.54201 0.27351 0.73628
 O1409 O 0.50217 0.23481 0.69886
 O1410 O 0.47107 0.24132 0.69967
 O1411 O 0.50962 0.20633 0.74320
 O1412 O 0.49994 0.21161 0.77239
 Zr1413 Zr 0.50978 0.22896 0.75539
 O1414 O 0.49417 0.24487 0.76957
 Zr1415 Zr 0.48684 0.23575 0.72067
 O1416 O 0.46978 0.25143 0.73356
 Zr1417 Zr 0.52094 0.25858 0.72964
 O1418 O 0.50528 0.27563 0.74223
 Zr1419 Zr 0.46923 0.24539 0.75903
 O1420 O 0.48431 0.22816 0.74574
 Zr1421 Zr 0.50311 0.26873 0.76745
 O1422 O 0.52020 0.25247 0.75512
 Zr1423 Zr 0.47965 0.27500 0.73300
 O1424 O 0.49600 0.25963 0.71869
 O1425 O 0.51189 0.23500 0.73019
 O1426 O 0.47791 0.26921 0.75816
 C1427 C 0.54696 0.23127 0.74096
 C1428 C 0.50184 0.20150 0.72988
 C1429 C 0.51611 0.24226 0.69483
 C1430 C 0.44341 0.27316 0.75098
 C1431 C 0.47193 0.26557 0.79184
 C1432 C 0.48766 0.30265 0.75821
 H1433 H 0.49384 0.24120 0.78134
 H1434 H 0.51049 0.28645 0.74091
 H1435 H 0.51935 0.22741 0.72379
 H1436 H 0.45801 0.25085 0.72862
 H1437 H 0.45107 0.22086 0.74957
 H1438 H 0.46126 0.21619 0.72391
 H1439 H 0.52753 0.28975 0.76351
 H1440 H 0.54550 0.27044 0.74780
 H1441 H 0.45494 0.22733 0.78163
 H1442 H 0.50772 0.20194 0.77240
 H1443 H 0.49673 0.29708 0.71736
 H1444 H 0.51838 0.28082 0.70712
 H1445 H 0.53099 0.23590 0.77941
 H1446 H 0.51378 0.25518 0.79505
 H1447 H 0.47506 0.25187 0.69532
 H1448 H 0.45406 0.27214 0.71185
 O1449 O 0.24161 0.76029 0.44528
 O1450 O 0.21275 0.75747 0.45034
 O1451 O 0.26002 0.79068 0.48525
 O1452 O 0.26149 0.79011 0.51291
 O1453 O 0.28849 0.74654 0.47229
 O1454 O 0.28421 0.71882 0.47667
 O1455 O 0.21796 0.75029 0.53523
 O1456 O 0.21956 0.77727 0.52693
 O1457 O 0.19845 0.72350 0.49624
 O1458 O 0.20539 0.71878 0.46754
 O1459 O 0.24499 0.70841 0.52105
 O1460 O 0.27499 0.71642 0.52012
 O1461 O 0.24042 0.73254 0.53908
 O1462 O 0.27291 0.73732 0.53350
 O1463 O 0.22400 0.70343 0.50175
 O1464 O 0.22656 0.70451 0.46988
 O1465 O 0.19640 0.74537 0.51353
 O1466 O 0.20013 0.77390 0.50337
 O1467 O 0.26459 0.74289 0.44849
 O1468 O 0.26439 0.71488 0.45925
 O1469 O 0.28672 0.76945 0.48803
 O1470 O 0.27916 0.77084 0.51867
 O1471 O 0.23939 0.78626 0.46535
 O1472 O 0.20887 0.77754 0.46920
 Zr1473 Zr 0.23122 0.76225 0.46939
 O1474 O 0.21582 0.74887 0.48589
 Zr1475 Zr 0.26153 0.76870 0.49842
 O1476 O 0.24668 0.75654 0.51652
 Zr1477 Zr 0.26397 0.73614 0.47403
 O1478 O 0.25033 0.72217 0.49155
 Zr1479 Zr 0.22019 0.75733 0.51026
 O1480 O 0.23471 0.77172 0.49362
 Zr1481 Zr 0.22367 0.72438 0.48645
 O1482 O 0.23745 0.73731 0.46803
 Zr1483 Zr 0.25331 0.73185 0.51577
 O1484 O 0.26926 0.74417 0.49856
 O1485 O 0.25776 0.76071 0.47407
 O1486 O 0.22682 0.73279 0.51075
 C1487 C 0.25461 0.75216 0.43961
 C1488 C 0.25044 0.79530 0.47291
 C1489 C 0.29501 0.75946 0.47851
 C1490 C 0.22664 0.74002 0.54409
 C1491 C 0.19019 0.73260 0.50660
 C1492 C 0.23325 0.69945 0.51460
 H1493 H 0.20350 0.75019 0.48257
 H1494 H 0.25444 0.71079 0.49098
 H1495 H 0.26463 0.76705 0.46600
 H1496 H 0.24865 0.76127 0.52773
 H1497 H 0.22259 0.78695 0.52028
 H1498 H 0.25180 0.78916 0.52087
 H1499 H 0.23650 0.69782 0.47382
 H1500 H 0.25336 0.71477 0.45285
 H1501 H 0.19164 0.77432 0.51264
 H1502 H 0.20944 0.78496 0.45945
 H1503 H 0.27549 0.70855 0.51080
 H1504 H 0.28907 0.72031 0.48805
 H1505 H 0.21355 0.74571 0.44791
 H1506 H 0.19840 0.72871 0.46539
 H1507 H 0.28730 0.76149 0.51798
 H1508 H 0.26850 0.74603 0.54089
 O1509 O 0.28339 0.30951 1.01771
 O1510 O 0.27959 0.30340 1.04621
 O1511 O 0.30730 0.26902 0.99597
 O1512 O 0.30241 0.24225 0.99276
 O1513 O 0.26244 0.29119 0.97353
 O1514 O 0.23176 0.28899 0.97841
 O1515 O 0.26174 0.22288 1.03453
 O1516 O 0.29055 0.22837 1.03369
 O1517 O 0.23948 0.26452 1.05990
 O1518 O 0.23710 0.29273 1.05434
 O1519 O 0.21658 0.24399 1.01579
 O1520 O 0.22052 0.24741 0.98728
 O1521 O 0.24082 0.22368 1.01425
 O1522 O 0.24296 0.23330 0.98314
 O1523 O 0.21716 0.26061 1.03847
 O1524 O 0.21972 0.29236 1.03452
 O1525 O 0.25812 0.24300 1.05816
 O1526 O 0.29005 0.24925 1.05418
 O1527 O 0.26209 0.31135 0.99787
 O1528 O 0.23072 0.30492 0.99945
 O1529 O 0.28343 0.27162 0.97189
 O1530 O 0.28049 0.24142 0.97652
 O1531 O 0.30687 0.28678 1.01778
 O1532 O 0.29905 0.28222 1.04719
 Zr1533 Zr 0.28145 0.28581 1.02695
 O1534 O 0.26601 0.27080 1.04167
 Zr1535 Zr 0.28211 0.25948 0.99526
 O1536 O 0.26748 0.24292 1.00922
 Zr1537 Zr 0.25122 0.28784 0.99713
 O1538 O 0.23465 0.27207 1.01022
 Zr1539 Zr 0.27104 0.24658 1.03510
 O1540 O 0.28772 0.26153 1.02111
 Zr1541 Zr 0.23969 0.27453 1.03587
 O1542 O 0.25505 0.29141 1.02291
 Zr1543 Zr 0.24101 0.24773 1.00495
 O1544 O 0.25566 0.26359 0.98969
 O1545 O 0.27743 0.28346 1.00139
 O1546 O 0.24480 0.25029 1.03056
 C1547 C 0.27501 0.31720 1.00616
 C1548 C 0.31449 0.27951 1.00562
 C1549 C 0.27501 0.28395 0.96599
 C1550 C 0.24990 0.21628 1.02554
 C1551 C 0.24681 0.25175 1.06596
 C1552 C 0.21050 0.24914 1.02974
 H1553 H 0.26864 0.27290 1.05360
 H1554 H 0.22236 0.27446 1.00750
 H1555 H 0.28510 0.29066 0.99497
 H1556 H 0.27088 0.23178 1.00590
 H1557 H 0.30131 0.23385 1.03023
 H1558 H 0.30091 0.23426 1.00183
 H1559 H 0.20953 0.28751 1.02895
 H1560 H 0.23220 0.31021 1.01048
 H1561 H 0.28907 0.23990 1.06191
 H1562 H 0.30778 0.29097 1.04704
 H1563 H 0.21802 0.25882 0.98425
 H1564 H 0.23325 0.27916 0.97143
 H1565 H 0.26821 0.30895 1.04488
 H1566 H 0.24854 0.29365 1.05991
 H1567 H 0.27072 0.24453 0.96904
 H1568 H 0.25160 0.22460 0.98542
 C1569 C 0.26445 0.37485 0.77794
 C1570 C 0.24778 0.37652 0.78374
 C1571 C 0.24075 0.36580 0.79524
 C1572 C 0.25142 0.35303 0.80112
 C1573 C 0.26891 0.35136 0.79572
 C1574 C 0.27530 0.36245 0.78376
 O1575 O 0.26898 0.38656 0.76756
 C1576 C 0.25491 0.39592 0.76683
 C1577 C 0.24156 0.39044 0.77655
 C1578 C 0.22612 0.39917 0.77846
 C1579 C 0.22454 0.41422 0.77021
 C1580 C 0.23823 0.42009 0.76012
 C1581 C 0.25345 0.41054 0.75822
 H1582 H 0.22761 0.36732 0.79969
 H1583 H 0.24609 0.34461 0.81005
 H1584 H 0.28864 0.36204 0.77965
 H1585 H 0.21587 0.39480 0.78641
 H1586 H 0.21283 0.42138 0.77190
 H1587 H 0.26425 0.41466 0.75083
 C1588 C 0.28586 -0.12244 0.27374
 C1589 C 0.26808 -0.12289 0.27331
 C1590 C 0.25880 -0.13581 0.27959
 C1591 C 0.26818 -0.14876 0.28676
 C1592 C 0.28671 -0.14863 0.28790
 C1593 C 0.29550 -0.13509 0.28094
 O1594 O 0.29219 -0.10880 0.26753
 C1595 C 0.27806 -0.10046 0.26310
 C1596 C 0.26295 -0.10851 0.26645
 C1597 C 0.24662 -0.10159 0.26378
 C1598 C 0.24585 -0.08566 0.25757
 C1599 C 0.26125 -0.07716 0.25392
 C1600 C 0.27758 -0.08476 0.25654
 H1601 H 0.24478 -0.13595 0.27898
 H1602 H 0.26076 -0.15900 0.29096
 H1603 H 0.30939 -0.13374 0.28184
 H1604 H 0.23491 -0.10806 0.26677
 H1605 H 0.23330 -0.07987 0.25577
 H1606 H 0.28953 -0.07834 0.25436
 C1607 C 0.79409 0.88081 0.77545
 C1608 C 0.77640 0.87959 0.77375
 C1609 C 0.76711 0.86660 0.77977
 C1610 C 0.77630 0.85449 0.78836
 C1611 C 0.79459 0.85547 0.79084
 C1612 C 0.80366 0.86862 0.78360
 O1613 O 0.80003 0.89506 0.77038
 C1614 C 0.78575 0.90296 0.76550
 C1615 C 0.77098 0.89392 0.76730
 C1616 C 0.75439 0.90017 0.76470
 C1617 C 0.75289 0.91651 0.76029
 C1618 C 0.76783 0.92616 0.75847
 C1619 C 0.78456 0.91927 0.76074
 H1620 H 0.75315 0.86605 0.77842
 H1621 H 0.76904 0.84431 0.79304
 H1622 H 0.81745 0.87016 0.78558
 H1623 H 0.74299 0.89289 0.76663
 H1624 H 0.74006 0.92180 0.75863
 H1625 H 0.79608 0.92660 0.75989
 C1626 C 0.48390 0.85861 0.29066
 C1627 C 0.50112 0.85860 0.29513
 C1628 C 0.50840 0.87108 0.30451
 C1629 C 0.49750 0.88414 0.30921
 C1630 C 0.47962 0.88434 0.30475
 C1631 C 0.47285 0.87109 0.29557
 O1632 O 0.47929 0.84567 0.28196
 C1633 C 0.49391 0.83718 0.28092
 C1634 C 0.50768 0.84442 0.28886
 C1635 C 0.52391 0.83694 0.29014
 C1636 C 0.52581 0.82126 0.28336
 C1637 C 0.51166 0.81355 0.27522
 C1638 C 0.49566 0.82194 0.27363
 H1639 H 0.52200 0.87085 0.30795
 H1640 H 0.50308 0.89412 0.31610
 H1641 H 0.45922 0.87028 0.29242
 H1642 H 0.53454 0.84269 0.29666
 H1643 H 0.53812 0.81496 0.28486
 H1644 H 0.48454 0.81640 0.26775
 C1645 C -0.02407 0.86088 0.79737
 C1646 C -0.00721 0.86094 0.80296
 C1647 C -0.00029 0.87380 0.81184
 C1648 C -0.01116 0.88716 0.81516
 C1649 C -0.02888 0.88760 0.80975
 C1650 C -0.03520 0.87402 0.80056
 O1651 O -0.02816 0.84730 0.78937
 C1652 C -0.01352 0.83864 0.78991
 C1653 C -0.00030 0.84644 0.79812
 C1654 C 0.01600 0.83941 0.80057
 C1655 C 0.01876 0.82363 0.79443
 C1656 C 0.00535 0.81524 0.78591
 C1657 C -0.01101 0.82301 0.78354
 H1658 H 0.01310 0.87362 0.81599
 H1659 H -0.00529 0.89735 0.82142
 H1660 H -0.04856 0.87316 0.79653
 H1661 H 0.02617 0.84575 0.80717
 H1662 H 0.03132 0.81793 0.79642
 H1663 H -0.02163 0.81691 0.77735
 C1664 C -0.03592 -0.09821 -0.03387
 C1665 C -0.05040 -0.09014 -0.02819
 C1666 C -0.06692 -0.09659 -0.02888
 C1667 C -0.06865 -0.11218 -0.03551
 C1668 C -0.05393 -0.12123 -0.04097
 C1669 C -0.03730 -0.11395 -0.04031
 O1670 O -0.02149 -0.08959 -0.03218
 C1671 C -0.02706 -0.07585 -0.02516
 C1672 C -0.04465 -0.07576 -0.02239
 C1673 C -0.05339 -0.06299 -0.01483
 C1674 C -0.04364 -0.04963 -0.00993
 C1675 C -0.02547 -0.04908 -0.01280
 C1676 C -0.01703 -0.06237 -0.02069
 H1677 H -0.07813 -0.08982 -0.02453
 H1678 H -0.08155 -0.11715 -0.03641
 H1679 H -0.02576 -0.12044 -0.04431
 H1680 H -0.06724 -0.06328 -0.01277
 H1681 H -0.05042 -0.03948 -0.00425
 H1682 H -0.00323 -0.06226 -0.02312
 C1683 C -0.03726 0.39814 0.46389
 C1684 C -0.02170 0.40133 0.45638
 C1685 C -0.01232 0.38979 0.44759
 C1686 C -0.01941 0.37433 0.44608
 C1687 C -0.03585 0.37055 0.45316
 C1688 C -0.04461 0.38275 0.46263
 O1689 O -0.04411 0.41104 0.47146
 C1690 C -0.03258 0.42258 0.46861
 C1691 C -0.01868 0.41719 0.45939
 C1692 C -0.00525 0.42718 0.45456
 C1693 C -0.00607 0.44343 0.45954
 C1694 C -0.02016 0.44942 0.46924
 C1695 C -0.03365 0.43875 0.47380
 H1696 H 0.00006 0.39257 0.44203
 H1697 H -0.01170 0.36525 0.43967
 H1698 H -0.05723 0.38079 0.46805
 H1699 H 0.00548 0.42263 0.44718
 H1700 H 0.00441 0.45128 0.45590
 H1701 H -0.04461 0.44288 0.48112
 C1702 C 0.45997 -0.10917 0.46632
 C1703 C 0.45701 -0.10939 0.48321
 C1704 C 0.44875 -0.12207 0.49120
 C1705 C 0.44338 -0.13519 0.48137
 C1706 C 0.44652 -0.13557 0.46382
 C1707 C 0.45499 -0.12215 0.45633
 O1708 O 0.46727 -0.09557 0.46109
 C1709 C 0.46903 -0.08704 0.47506
 C1710 C 0.46303 -0.09505 0.48894
 C1711 C 0.46313 -0.08832 0.50481
 C1712 C 0.46936 -0.07255 0.50643
 C1713 C 0.47522 -0.06374 0.49228
 C1714 C 0.47534 -0.07126 0.47637
 H1715 H 0.44649 -0.12187 0.50455
 H1716 H 0.43746 -0.14529 0.48771
 H1717 H 0.45703 -0.12135 0.44298
 H1718 H 0.45829 -0.09486 0.51552
 H1719 H 0.46926 -0.06709 0.51875
 H1720 H 0.47947 -0.06482 0.46530
 C1721 C 0.45961 0.40668 -0.05431
 C1722 C 0.47461 0.40966 -0.06282
 C1723 C 0.48179 0.39882 -0.07415
 C1724 C 0.47322 0.38416 -0.07681
 C1725 C 0.45761 0.38043 -0.06816
 C1726 C 0.45081 0.39216 -0.05672
 O1727 O 0.45504 0.41869 -0.04406
 C1728 C 0.46756 0.42945 -0.04614
 C1729 C 0.47982 0.42441 -0.05749
 C1730 C 0.49414 0.43354 -0.06157
 C1731 C 0.49597 0.44853 -0.05366
 C1732 C 0.48354 0.45423 -0.04185
 C1733 C 0.46906 0.44446 -0.03808
 H1734 H 0.49375 0.40145 -0.08057
 H1735 H 0.47942 0.37551 -0.08506
 H1736 H 0.43874 0.39043 -0.05018
 H1737 H 0.50360 0.42927 -0.07055
 H1738 H 0.50712 0.45571 -0.05691
 H1739 H 0.45932 0.44839 -0.02921
 C1740 C 0.78831 0.35511 0.46623
 C1741 C 0.79144 0.35710 0.48305
 C1742 C 0.79680 0.37172 0.48992
 C1743 C 0.79909 0.38483 0.47898
 C1744 C 0.79613 0.38306 0.46152
 C1745 C 0.79062 0.36792 0.45514
 O1746 O 0.78343 0.34022 0.46223
 C1747 C 0.78350 0.33261 0.47685
 C1748 C 0.78837 0.34238 0.48997
 C1749 C 0.78976 0.33679 0.50631
 C1750 C 0.78602 0.32044 0.50924
 C1751 C 0.78088 0.31007 0.49593
 C1752 C 0.77952 0.31634 0.47949
 H1753 H 0.79912 0.37299 0.50322
 H1754 H 0.80305 0.39636 0.48413
 H1755 H 0.78851 0.36602 0.44189
 H1756 H 0.79371 0.34469 0.51642
 H1757 H 0.78708 0.31589 0.52192
 H1758 H 0.77583 0.30875 0.46904
 C1759 C 0.78831 0.86782 -0.02983
 C1760 C 0.77062 0.86815 -0.03177
 C1761 C 0.76191 0.87995 -0.04105
 C1762 C 0.77181 0.89206 -0.04855
 C1763 C 0.79018 0.89242 -0.04650
 C1764 C 0.79842 0.87995 -0.03686
 O1765 O 0.79409 0.85481 -0.02157
 C1766 C 0.77967 0.84681 -0.01815
 C1767 C 0.76498 0.85462 -0.02401
 C1768 C 0.74851 0.84823 -0.02254
 C1769 C 0.74714 0.83292 -0.01520
 C1770 C 0.76211 0.82418 -0.00967
 C1771 C 0.77862 0.83146 -0.01072
 H1772 H 0.74795 0.87978 -0.04256
 H1773 H 0.76491 0.90151 -0.05534
 H1774 H 0.81237 0.87918 -0.03546
 H1775 H 0.73717 0.85459 -0.02733
 H1776 H 0.73440 0.82757 -0.01443
 H1777 H 0.79029 0.82497 -0.00695
 C1778 C 0.79549 0.28012 0.39367
 C1779 C 0.80104 0.26422 0.39413
 C1780 C 0.80691 0.25598 0.38010
 C1781 C 0.80753 0.26457 0.36503
 C1782 C 0.80276 0.28128 0.36422
 C1783 C 0.79627 0.28905 0.37878
 O1784 O 0.79006 0.28547 0.40847
 C1785 C 0.79237 0.27268 0.41842
 C1786 C 0.79925 0.25945 0.41024
 C1787 C 0.80316 0.24489 0.41823
 C1788 C 0.79955 0.24377 0.43535
 C1789 C 0.79187 0.25700 0.44405
 C1790 C 0.78833 0.27173 0.43544
 H1791 H 0.81090 0.24337 0.38074
 H1792 H 0.81195 0.25818 0.35399
 H1793 H 0.79254 0.30175 0.37869
 H1794 H 0.80870 0.23471 0.41150
 H1795 H 0.80218 0.23238 0.44167
 H1796 H 0.78248 0.28203 0.44174
 C1797 C 0.78732 0.78895 -0.10982
 C1798 C 0.76956 0.78854 -0.11148
 C1799 C 0.76096 0.79299 -0.12610
 C1800 C 0.77104 0.79832 -0.13950
 C1801 C 0.78938 0.79941 -0.13798
 C1802 C 0.79760 0.79439 -0.12292
 O1803 O 0.79288 0.78446 -0.09475
 C1804 C 0.77831 0.78126 -0.08671
 C1805 C 0.76367 0.78369 -0.09636
 C1806 C 0.74698 0.78195 -0.09015
 C1807 C 0.74533 0.77754 -0.07329
 C1808 C 0.76024 0.77472 -0.06319
 C1809 C 0.77697 0.77650 -0.07005
 H1810 H 0.74697 0.79248 -0.12713
 H1811 H 0.76450 0.80167 -0.15104
 H1812 H 0.81149 0.79523 -0.12120
 H1813 H 0.73566 0.78416 -0.09793
 H1814 H 0.73247 0.77622 -0.06812
 H1815 H 0.78855 0.77471 -0.06250
 C1816 C 0.27339 0.45435 0.85139
 C1817 C 0.25580 0.45195 0.85228
 C1818 C 0.24783 0.44619 0.86666
 C1819 C 0.25841 0.44306 0.88073
 C1820 C 0.27657 0.44569 0.88012
 C1821 C 0.28409 0.45113 0.86505
 O1822 O 0.27846 0.46022 0.83681
 C1823 C 0.26377 0.46162 0.82826
 C1824 C 0.24949 0.45668 0.83707
 C1825 C 0.23281 0.45721 0.83035
 C1826 C 0.23083 0.46295 0.81388
 C1827 C 0.24541 0.46817 0.80460
 C1828 C 0.26209 0.46750 0.81202
 H1829 H 0.23395 0.44448 0.86714
 H1830 H 0.25241 0.43906 0.89220
 H1831 H 0.29791 0.45304 0.86401
 H1832 H 0.22174 0.45328 0.83749
 H1833 H 0.21796 0.46335 0.80839
 H1834 H 0.27353 0.47118 0.80527
 C1835 C 0.30116 -0.04628 0.35182
 C1836 C 0.30073 -0.05983 0.34177
 C1837 C 0.30512 -0.07524 0.34747
 C1838 C 0.30953 -0.07690 0.36439
 C1839 C 0.30920 -0.06332 0.37533
 C1840 C 0.30547 -0.04767 0.36883
 O1841 O 0.29585 -0.03289 0.34392
 C1842 C 0.29184 -0.03819 0.32866
 C1843 C 0.29444 -0.05462 0.32681
 C1844 C 0.28996 -0.06299 0.31235
 C1845 C 0.28267 -0.05403 0.29913
 C1846 C 0.28030 -0.03703 0.30050
 C1847 C 0.28503 -0.02893 0.31543
 H1848 H 0.30465 -0.08569 0.33930
 H1849 H 0.31241 -0.08892 0.36920
 H1850 H 0.30479 -0.03718 0.37695
 H1851 H 0.29186 -0.07598 0.31134
 H1852 H 0.27921 -0.06025 0.28767
 H1853 H 0.28322 -0.01595 0.31674
 C1854 C -0.03432 -0.03344 -0.11249
 C1855 C -0.03915 -0.01744 -0.11402
 C1856 C -0.04750 -0.01128 -0.12807
 C1857 C -0.05124 -0.02205 -0.14111
 C1858 C -0.04682 -0.03890 -0.14000
 C1859 C -0.03791 -0.04447 -0.12533
 O1860 O -0.02683 -0.03681 -0.09782
 C1861 C -0.02698 -0.02257 -0.08997
 C1862 C -0.03442 -0.01037 -0.09940
 C1863 C -0.03659 0.00536 -0.09355
 C1864 C -0.03096 0.00869 -0.07724
 C1865 C -0.02320 -0.00360 -0.06713
 C1866 C -0.02102 -0.01947 -0.07369
 H1867 H -0.05100 0.00144 -0.12900
 H1868 H -0.05711 -0.01690 -0.15224
 H1869 H -0.03460 -0.05710 -0.12340
 H1870 H -0.04263 0.01470 -0.10119
 H1871 H -0.03267 0.02089 -0.07248
 H1872 H -0.01537 -0.02916 -0.06622
 C1873 C -0.03255 0.46865 0.37770
 C1874 C -0.03869 0.48420 0.37539
 C1875 C -0.04887 0.48875 0.36180
 C1876 C -0.05327 0.47673 0.35023
 C1877 C -0.04750 0.46034 0.35228
 C1878 C -0.03640 0.45647 0.36606
 O1879 O -0.02446 0.46665 0.39232
 C1880 C -0.02559 0.48126 0.39934
 C1881 C -0.03413 0.49242 0.38940
 C1882 C -0.03807 0.50807 0.39467
 C1883 C -0.03332 0.51237 0.41100
 C1884 C -0.02474 0.50108 0.42171
 C1885 C -0.02049 0.48537 0.41563
 H1886 H -0.05369 0.50105 0.36038
 H1887 H -0.06112 0.48035 0.33957
 H1888 H -0.03211 0.44415 0.36850
 H1889 H -0.04508 0.51651 0.38669
 H1890 H -0.03672 0.52440 0.41545
 H1891 H -0.01439 0.47635 0.42364
 C1892 C 0.45730 -0.04435 0.39186
 C1893 C 0.45036 -0.02895 0.39067
 C1894 C 0.44300 -0.02289 0.37606
 C1895 C 0.44244 -0.03321 0.36216
 C1896 C 0.44883 -0.04946 0.36311
 C1897 C 0.45665 -0.05498 0.37821
 O1898 O 0.46413 -0.04749 0.40683
 C1899 C 0.46135 -0.03379 0.41523
 C1900 C 0.45282 -0.02213 0.40594
 C1901 C 0.44845 -0.00693 0.41229
 C1902 C 0.45334 -0.00348 0.42884
 C1903 C 0.46266 -0.01509 0.43856
 C1904 C 0.46654 -0.03055 0.43164
 H1905 H 0.43793 -0.01062 0.37534
 H1906 H 0.43697 -0.02847 0.35063
 H1907 H 0.46168 -0.06723 0.37945
 H1908 H 0.44166 0.00201 0.40472
 H1909 H 0.45037 0.00841 0.43388
 H1910 H 0.47359 -0.03969 0.43875
 C1911 C 0.46775 0.46836 -0.12434
 C1912 C 0.46617 0.48446 -0.12866
 C1913 C 0.45663 0.48976 -0.14248
 C1914 C 0.44852 0.47797 -0.15238
 C1915 C 0.45018 0.46126 -0.14838
 C1916 C 0.45999 0.45641 -0.13416
 O1917 O 0.47632 0.46602 -0.11005
 C1918 C 0.48027 0.48097 -0.10526
 C1919 C 0.47445 0.49266 -0.11630
 C1920 C 0.47617 0.50915 -0.11331
 C1921 C 0.48358 0.51383 -0.09803
 C1922 C 0.48906 0.50206 -0.08608
 C1923 C 0.48788 0.48536 -0.09002
 H1924 H 0.45532 0.50252 -0.14544
 H1925 H 0.44114 0.48180 -0.16327
 H1926 H 0.46125 0.44376 -0.13069
 H1927 H 0.47130 0.51812 -0.12210
 H1928 H 0.48425 0.52664 -0.09512
 H1929 H 0.49136 0.47611 -0.08094
 C1930 C 0.47483 0.79163 0.37211
 C1931 C 0.48456 0.80355 0.36487
 C1932 C 0.48347 0.81970 0.36963
 C1933 C 0.47213 0.82370 0.38265
 C1934 C 0.46248 0.81153 0.39101
 C1935 C 0.46384 0.79523 0.38543
 O1936 O 0.47683 0.77726 0.36482
 C1937 C 0.48815 0.78021 0.35278
 C1938 C 0.49347 0.79607 0.35247
 C1939 C 0.50495 0.80195 0.34069
 C1940 C 0.51080 0.79117 0.32837
 C1941 C 0.50479 0.77495 0.32783
 C1942 C 0.49358 0.76932 0.34047
 H1943 H 0.49083 0.82895 0.36333
 H1944 H 0.47084 0.83635 0.38604
 H1945 H 0.45680 0.78554 0.39134
 H1946 H 0.50886 0.81452 0.34067
 H1947 H 0.51911 0.79579 0.31864
 H1948 H 0.48856 0.75711 0.34024
 C1949 C -0.02651 0.79329 0.87768
 C1950 C -0.00957 0.79817 0.87724
 C1951 C -0.00276 0.80930 0.88842
 C1952 C -0.01388 0.81575 0.90058
 C1953 C -0.03161 0.81102 0.90152
 C1954 C -0.03781 0.79939 0.88979
 O1955 O -0.03053 0.78310 0.86539
 C1956 C -0.01573 0.78151 0.85708
 C1957 C -0.00251 0.79045 0.86390
 C1958 C 0.01392 0.79106 0.85697
 C1959 C 0.01682 0.78228 0.84224
 C1960 C 0.00334 0.77315 0.83466
 C1961 C -0.01313 0.77261 0.84240
 H1962 H 0.01066 0.81294 0.88780
 H1963 H -0.00829 0.82397 0.90961
 H1964 H -0.05123 0.79571 0.88944
 H1965 H 0.02407 0.79829 0.86253
 H1966 H 0.02951 0.78291 0.83657
 H1967 H -0.02378 0.76600 0.83687
 C1968 C 0.39450 0.78924 0.29886
 C1969 C 0.40408 0.80289 0.29593
 C1970 C 0.39713 0.81848 0.29675
 C1971 C 0.37949 0.82010 0.30059
 C1972 C 0.36909 0.80625 0.30333
 C1973 C 0.37685 0.79057 0.30263
 O1974 O 0.40360 0.77556 0.29705
 C1975 C 0.41924 0.78072 0.29281
 C1976 C 0.42014 0.79735 0.29189
 C1977 C 0.43495 0.80541 0.28689
 C1978 C 0.44941 0.79593 0.28251
 C1979 C 0.44892 0.77876 0.28338
 C1980 C 0.43367 0.77103 0.28883
 H1981 H 0.40499 0.82903 0.29442
 H1982 H 0.37395 0.83220 0.30142
 H1983 H 0.36930 0.77973 0.30444
 H1984 H 0.43528 0.81850 0.28613
 H1985 H 0.46103 0.80195 0.27848
 H1986 H 0.43289 0.75793 0.28939
 C1987 C -0.10444 0.79474 0.79688
 C1988 C -0.10583 0.77815 0.79628
 C1989 C -0.12092 0.77000 0.80013
 C1990 C -0.13525 0.77932 0.80502
 C1991 C -0.13424 0.79646 0.80609
 C1992 C -0.11866 0.80434 0.80168
 O1993 O -0.08857 0.79985 0.79328
 C1994 C -0.07981 0.78613 0.79043
 C1995 C -0.08989 0.77258 0.79217
 C1996 C -0.08347 0.75689 0.79066
 C1997 C -0.06583 0.75501 0.78736
 C1998 C -0.05499 0.76868 0.78551
 C1999 C -0.06210 0.78454 0.78680
 H2000 H -0.12158 0.75690 0.79959
 H2001 H -0.14715 0.77317 0.80807
 H2002 H -0.11752 0.81739 0.80252
 H2003 H -0.09169 0.74646 0.79226
 H2004 H -0.06055 0.74283 0.78623
 H2005 H -0.05403 0.79514 0.78562
 C2006 C 0.88084 0.29650 0.48990
 C2007 C 0.88595 0.28128 0.49519
 C2008 C 0.90283 0.27543 0.49353
 C2009 C 0.91480 0.28544 0.48557
 C2010 C 0.90973 0.30092 0.47941
 C2011 C 0.89263 0.30673 0.48205
 O2012 O 0.86386 0.29909 0.49130
 C2013 C 0.85814 0.28518 0.49746
 C2014 C 0.87115 0.27386 0.49995
 C2015 C 0.86793 0.25791 0.50453
 C2016 C 0.85058 0.25341 0.50658
 C2017 C 0.83696 0.26488 0.50429
 C2018 C 0.84079 0.28107 0.49990
 H2019 H 0.90644 0.26330 0.49749
 H2020 H 0.92780 0.28082 0.48336
 H2021 H 0.88830 0.31824 0.47688
 H2022 H 0.87835 0.24910 0.50595
 H2023 H 0.84771 0.24098 0.50982
 H2024 H 0.83054 0.28990 0.49761
 C2025 C 0.86946 0.78913 -0.03640
 C2026 C 0.87146 0.78663 -0.01948
 C2027 C 0.88623 0.79110 -0.01064
 C2028 C 0.89941 0.79875 -0.01954
 C2029 C 0.89763 0.80175 -0.03693
 C2030 C 0.88257 0.79658 -0.04557
 O2031 O 0.85382 0.78505 -0.04204
 C2032 C 0.84580 0.77994 -0.02835
 C2033 C 0.85610 0.78071 -0.01425
 C2034 C 0.85008 0.77728 0.00166
 C2035 C 0.83265 0.77304 0.00320
 C2036 C 0.82164 0.77219 -0.01105
 C2037 C 0.82838 0.77540 -0.02714
 H2038 H 0.88734 0.78923 0.00272
 H2039 H 0.91085 0.80273 -0.01284
 H2040 H 0.88075 0.79913 -0.05876
 H2041 H 0.85837 0.77829 0.01258
 H2042 H 0.82762 0.77064 0.01557
 H2043 H 0.82014 0.77520 -0.03815
 C2044 C -0.11580 -0.02998 -0.03561
 C2045 C -0.11685 -0.03110 -0.01853
 C2046 C -0.12906 -0.04053 -0.01053
 C2047 C -0.14092 -0.04894 -0.02056
 C2048 C -0.14049 -0.04783 -0.03838
 C2049 C -0.12739 -0.03823 -0.04584
 O2050 O -0.10277 -0.02090 -0.04073
 C2051 C -0.09547 -0.01612 -0.02653
 C2052 C -0.10365 -0.02200 -0.01257
 C2053 C -0.09775 -0.01914 0.00358
 C2054 C -0.08248 -0.01026 0.00541
 C2055 C -0.07351 -0.00444 -0.00881
 C2056 C -0.08038 -0.00706 -0.02500
 H2057 H -0.12955 -0.04127 0.00297
 H2058 H -0.15091 -0.05559 -0.01419
 H2059 H -0.12573 -0.03747 -0.05923
 H2060 H -0.10432 -0.02402 0.01436
 H2061 H -0.07728 -0.00843 0.01788
 H2062 H -0.07357 -0.00317 -0.03608
 C2063 C -0.12505 0.46143 0.44827
 C2064 C -0.12609 0.47642 0.44088
 C2065 C -0.13967 0.48104 0.43043
 C2066 C -0.15282 0.46979 0.42746
 C2067 C -0.15229 0.45396 0.43480
 C2068 C -0.13789 0.44993 0.44540
 O2069 O -0.11108 0.45956 0.45795
 C2070 C -0.10318 0.47374 0.45664
 C2071 C -0.11185 0.48444 0.44628
 C2072 C -0.10595 0.49995 0.44302
 C2073 C -0.09047 0.50468 0.45076
 C2074 C -0.08121 0.49397 0.46166
 C2075 C -0.08774 0.47822 0.46460
 H2076 H -0.14030 0.49304 0.42495
 H2077 H -0.16371 0.47395 0.42000
 H2078 H -0.13619 0.43808 0.45097
 H2079 H -0.11301 0.50813 0.43479
 H2080 H -0.08578 0.51677 0.44830
 H2081 H -0.08100 0.46970 0.47271
 C2082 C 0.37695 -0.03915 0.46485
 C2083 C 0.37506 -0.04112 0.48179
 C2084 C 0.36079 -0.04857 0.48870
 C2085 C 0.34805 -0.05447 0.47775
 C2086 C 0.34978 -0.05333 0.45995
 C2087 C 0.36459 -0.04515 0.45365
 O2088 O 0.39155 -0.03174 0.46082
 C2089 C 0.39901 -0.02902 0.47556
 C2090 C 0.38953 -0.03464 0.48882
 C2091 C 0.39537 -0.03370 0.50532
 C2092 C 0.41165 -0.02668 0.50825
 C2093 C 0.42150 -0.02051 0.49480
 C2094 C 0.41500 -0.02168 0.47823
 H2095 H 0.35941 -0.04972 0.50212
 H2096 H 0.33667 -0.05953 0.48347
 H2097 H 0.36718 -0.04408 0.44043
 H2098 H 0.38778 -0.03840 0.51553
 H2099 H 0.41653 -0.02593 0.52096
 H2100 H 0.42241 -0.01740 0.46768
 C2101 C 0.37898 0.47993 -0.05654
 C2102 C 0.38486 0.48732 -0.07077
 C2103 C 0.37577 0.48699 -0.08577
 C2104 C 0.36011 0.47852 -0.08621
 C2105 C 0.35353 0.47056 -0.07167
 C2106 C 0.36331 0.47171 -0.05654
 O2107 O 0.38984 0.48114 -0.04369
 C2108 C 0.40290 0.48944 -0.04999
 C2109 C 0.40048 0.49361 -0.06650
 C2110 C 0.41270 0.50217 -0.07557
 C2111 C 0.42805 0.50658 -0.06726
 C2112 C 0.43091 0.50220 -0.05027
 C2113 C 0.41807 0.49352 -0.04157
 H2114 H 0.38082 0.49265 -0.09691
 H2115 H 0.35384 0.47755 -0.09828
 H2116 H 0.35902 0.46661 -0.04486
 H2117 H 0.41054 0.50527 -0.08858
 H2118 H 0.43779 0.51315 -0.07412
 H2119 H 0.41981 0.49002 -0.02860
 C2120 C 0.34988 0.44658 0.79091
 C2121 C 0.34137 0.43233 0.78772
 C2122 C 0.34825 0.41722 0.79187
 C2123 C 0.36478 0.41673 0.79925
 C2124 C 0.37427 0.43118 0.80206
 C2125 C 0.36646 0.44637 0.79814
 O2126 O 0.34113 0.45960 0.78567
 C2127 C 0.32686 0.45341 0.77892
 C2128 C 0.32646 0.43677 0.77974
 C2129 C 0.31318 0.42772 0.77266
 C2130 C 0.29968 0.43619 0.76453
 C2131 C 0.29954 0.45338 0.76385
 C2132 C 0.31337 0.46210 0.77120
 H2133 H 0.34125 0.40618 0.78932
 H2134 H 0.37035 0.40502 0.80247
 H2135 H 0.37336 0.45760 0.79990
 H2136 H 0.31328 0.41460 0.77327
 H2137 H 0.28920 0.42938 0.75902
 H2138 H 0.31371 0.47521 0.77074
 C2139 C 0.37378 -0.05460 0.27758
 C2140 C 0.36718 -0.06765 0.26904
 C2141 C 0.37497 -0.08293 0.26944
 C2142 C 0.39015 -0.08481 0.27907
 C2143 C 0.39728 -0.07147 0.28794
 C2144 C 0.38893 -0.05612 0.28700
 O2145 O 0.36410 -0.04129 0.27613
 C2146 C 0.35109 -0.04603 0.26647
 C2147 C 0.35238 -0.06202 0.26169
 C2148 C 0.33994 -0.06950 0.25177
 C2149 C 0.32550 -0.06014 0.24674
 C2150 C 0.32370 -0.04371 0.25187
 C2151 C 0.33684 -0.03658 0.26175
 H2152 H 0.36940 -0.09309 0.26283
 H2153 H 0.39609 -0.09674 0.27989
 H2154 H 0.39401 -0.04563 0.29342
 H2155 H 0.34119 -0.08212 0.24821
 H2156 H 0.31555 -0.06582 0.23923
 H2157 H 0.33590 -0.02410 0.26591
 C2158 C 0.12649 0.53501 0.69003
 C2159 C 0.13806 0.54758 0.68975
 C2160 C 0.13314 0.56357 0.68671
 C2161 C 0.11548 0.56683 0.68414
 C2162 C 0.10319 0.55419 0.68465
 C2163 C 0.10879 0.53798 0.68729
 O2164 O 0.13382 0.52092 0.69436
 C2165 C 0.15034 0.52474 0.69691
 C2166 C 0.15353 0.54093 0.69425
 C2167 C 0.16951 0.54793 0.69733
 C2168 C 0.18275 0.53791 0.70362
 C2169 C 0.17988 0.52120 0.70662
 C2170 C 0.16352 0.51441 0.70291
 H2171 H 0.14250 0.57325 0.68683
 H2172 H 0.11128 0.57927 0.68215
 H2173 H 0.09958 0.52820 0.68810
 H2174 H 0.17158 0.56075 0.69537
 H2175 H 0.19527 0.54317 0.70631
 H2176 H 0.16094 0.50176 0.70539
 C2177 C 0.14335 0.04099 0.20418
 C2178 C 0.15239 0.05386 0.21064
 C2179 C 0.14548 0.06942 0.21185
 C2180 C 0.12833 0.07177 0.20658
 C2181 C 0.11836 0.05860 0.20054
 C2182 C 0.12615 0.04304 0.19891
 O2183 O 0.15233 0.02714 0.20464
 C2184 C 0.16727 0.03140 0.21168
 C2185 C 0.16783 0.04760 0.21567
 C2186 C 0.18168 0.05458 0.22402
 C2187 C 0.19567 0.04447 0.22831
 C2188 C 0.19575 0.02777 0.22398
 C2189 C 0.18129 0.02113 0.21550
 H2190 H 0.15293 0.07933 0.21695
 H2191 H 0.12265 0.08380 0.20758
 H2192 H 0.11881 0.03275 0.19452
 H2193 H 0.18163 0.06732 0.22728
 H2194 H 0.20655 0.04975 0.23485
 H2195 H 0.18088 0.00841 0.21220
 C2196 C 0.61681 0.69167 0.20990
 C2197 C 0.60691 0.67869 0.21460
 C2198 C 0.61138 0.66276 0.21084
 C2199 C 0.62692 0.66005 0.20224
 C2200 C 0.63788 0.67315 0.19790
 C2201 C 0.63247 0.68925 0.20152
 O2202 O 0.61017 0.70583 0.21472
 C2203 C 0.59585 0.70166 0.22272
 C2204 C 0.59336 0.68518 0.22314
 C2205 C 0.57954 0.67811 0.23139
 C2206 C 0.56767 0.68848 0.23939
 C2207 C 0.56970 0.70555 0.23874
 C2208 C 0.58400 0.71222 0.23027
 H2209 H 0.60326 0.65276 0.21450
 H2210 H 0.63052 0.64768 0.19919
 H2211 H 0.64050 0.69952 0.19858
 H2212 H 0.57794 0.66509 0.23165
 H2213 H 0.55662 0.68326 0.24563
 H2214 H 0.58582 0.72521 0.22961
 C2215 C 0.13040 0.70529 0.72404
 C2216 C 0.12310 0.69217 0.73173
 C2217 C 0.13049 0.67676 0.73147
 C2218 C 0.14600 0.67466 0.72270
 C2219 C 0.15408 0.68794 0.71460
 C2220 C 0.14612 0.70358 0.71555
 O2221 O 0.12070 0.71871 0.72520
 C2222 C 0.10699 0.71387 0.73383
 C2223 C 0.10798 0.69774 0.73815
 C2224 C 0.09512 0.68992 0.74696
 C2225 C 0.08061 0.69909 0.75163
 C2226 C 0.07903 0.71580 0.74737
 C2227 C 0.09244 0.72329 0.73820
 H2228 H 0.12424 0.66658 0.73737
 H2229 H 0.15123 0.66248 0.72172
 H2230 H 0.15176 0.71406 0.70964
 H2231 H 0.09619 0.67717 0.75009
 H2232 H 0.07044 0.69303 0.75842
 H2233 H 0.09161 0.73596 0.73471
 C2234 C 0.64518 0.20388 0.53774
 C2235 C 0.64618 0.20072 0.52090
 C2236 C 0.63293 0.19330 0.51200
 C2237 C 0.61791 0.18913 0.52078
 C2238 C 0.61647 0.19219 0.53823
 C2239 C 0.63052 0.19956 0.54679
 O2240 O 0.65912 0.21123 0.54379
 C2241 C 0.66916 0.21273 0.53045
 C2242 C 0.66186 0.20642 0.51615
 C2243 C 0.67025 0.20638 0.50082
 C2244 C 0.68693 0.21296 0.50024
 C2245 C 0.69475 0.21962 0.51479
 C2246 C 0.68562 0.21964 0.53009
 H2247 H 0.63397 0.19107 0.49870
 H2248 H 0.60727 0.18390 0.51382
 H2249 H 0.63011 0.20192 0.56009
 H2250 H 0.66428 0.20127 0.48976
 H2251 H 0.69378 0.21284 0.48845
 H2252 H 0.69135 0.22441 0.54144
 C2253 C 0.63304 0.71296 0.04053
 C2254 C 0.63286 0.72916 0.04460
 C2255 C 0.61947 0.73660 0.05335
 C2256 C 0.60560 0.72693 0.05818
 C2257 C 0.60537 0.71017 0.05420
 C2258 C 0.61923 0.70309 0.04509
 O2259 O 0.64747 0.70831 0.03273
 C2260 C 0.65654 0.72191 0.03190
 C2261 C 0.64805 0.73495 0.03896
 C2262 C 0.65515 0.75026 0.04008
 C2263 C 0.67186 0.75223 0.03389
 C2264 C 0.68121 0.73899 0.02679
 C2265 C 0.67330 0.72362 0.02548
 H2266 H 0.61975 0.74936 0.05647
 H2267 H 0.59497 0.73249 0.06496
 H2268 H 0.61939 0.69030 0.04202
 H2269 H 0.64817 0.76028 0.04576
 H2270 H 0.67761 0.76412 0.03482
 H2271 H 0.68017 0.71328 0.02029
 C2272 C 0.11682 0.05444 0.03695
 C2273 C 0.11578 0.05947 0.02061
 C2274 C 0.12825 0.06894 0.01317
 C2275 C 0.14243 0.07359 0.02296
 C2276 C 0.14407 0.06887 0.04011
 C2277 C 0.13097 0.05882 0.04702
 O2278 O 0.10315 0.04583 0.04159
 C2279 C 0.09337 0.04546 0.02781
 C2280 C 0.10062 0.05362 0.01465
 C2281 C 0.09259 0.05520 -0.00085
 C2282 C 0.07628 0.04819 -0.00291
 C2283 C 0.06826 0.03977 0.01043
 C2284 C 0.07708 0.03827 0.02602
 H2285 H 0.12715 0.07262 0.00020
 H2286 H 0.15241 0.08039 0.01674
 H2287 H 0.13122 0.05509 0.05999
 H2288 H 0.09859 0.06176 -0.01097
 H2289 H 0.06987 0.04945 -0.01494
 H2290 H 0.07127 0.03211 0.03652
 C2291 C 0.10176 0.54478 0.53871
 C2292 C 0.09215 0.55879 0.54070
 C2293 C 0.09925 0.57324 0.54623
 C2294 C 0.11707 0.57335 0.54967
 C2295 C 0.12747 0.55920 0.54734
 C2296 C 0.11959 0.54461 0.54202
 O2297 O 0.09249 0.53255 0.53273
 C2298 C 0.07674 0.53905 0.53084
 C2299 C 0.07593 0.55511 0.53550
 C2300 C 0.06107 0.56464 0.53367
 C2301 C 0.04645 0.55736 0.52660
 C2302 C 0.04688 0.54085 0.52170
 C2303 C 0.06216 0.53145 0.52408
 H2304 H 0.09138 0.58410 0.54766
 H2305 H 0.12278 0.58451 0.55406
 H2306 H 0.12718 0.53368 0.53995
 H2307 H 0.06084 0.57729 0.53727
 H2308 H 0.03474 0.56456 0.52494
 H2309 H 0.06283 0.51887 0.52023
 C2310 C 0.61240 0.04198 0.52888
 C2311 C 0.61170 0.04506 0.51199
 C2312 C 0.62542 0.05192 0.50338
 C2313 C 0.64052 0.05557 0.51252
 C2314 C 0.64156 0.05255 0.53003
 C2315 C 0.62706 0.04584 0.53824
 O2316 O 0.59819 0.03511 0.53470
 C2317 C 0.58825 0.03383 0.52119
 C2318 C 0.59582 0.03984 0.50697
 C2319 C 0.58743 0.03998 0.49151
 C2320 C 0.57054 0.03376 0.49073
 C2321 C 0.56260 0.02730 0.50521
 C2322 C 0.57168 0.02728 0.52063
 H2323 H 0.62464 0.05412 0.49005
 H2324 H 0.65148 0.06040 0.50586
 H2325 H 0.62706 0.04364 0.55158
 H2326 H 0.59357 0.04486 0.48049
 H2327 H 0.56369 0.03390 0.47886
 H2328 H 0.56585 0.02269 0.53194
 C2329 C 0.60952 0.55403 0.03636
 C2330 C 0.60950 0.53739 0.03733
 C2331 C 0.62273 0.52844 0.04492
 C2332 C 0.63660 0.53699 0.05188
 C2333 C 0.63697 0.55420 0.05132
 C2334 C 0.62320 0.56282 0.04330
 O2335 O 0.59547 0.56011 0.02878
 C2336 C 0.58639 0.54699 0.02494
 C2337 C 0.59446 0.53282 0.02998
 C2338 C 0.58715 0.51767 0.02786
 C2339 C 0.57072 0.51705 0.02039
 C2340 C 0.56199 0.53143 0.01505
 C2341 C 0.57006 0.54664 0.01716
 H2342 H 0.62240 0.51533 0.04543
 H2343 H 0.64716 0.53014 0.05756
 H2344 H 0.62298 0.57593 0.04274
 H2345 H 0.59373 0.50673 0.03205
 H2346 H 0.56477 0.50532 0.01878
 H2347 H 0.56361 0.55781 0.01339
 C2348 C 0.03995 0.04446 0.11724
 C2349 C 0.02218 0.04400 0.11735
 C2350 C 0.01241 0.04679 0.13154
 C2351 C 0.02126 0.05063 0.14628
 C2352 C 0.03971 0.05202 0.14668
 C2353 C 0.04913 0.04838 0.13180
 O2354 O 0.04661 0.04168 0.10216
 C2355 C 0.03264 0.03951 0.09260
 C2356 C 0.01742 0.04094 0.10140
 C2357 C 0.00117 0.04002 0.09401
 C2358 C 0.00050 0.03746 0.07677
 C2359 C 0.01591 0.03567 0.06729
 C2360 C 0.03229 0.03655 0.07533
 H2361 H -0.00160 0.04608 0.13128
 H2362 H 0.01352 0.05218 0.15740
 H2363 H 0.06305 0.04954 0.13107
 H2364 H -0.01058 0.04139 0.10123
 H2365 H -0.01211 0.03665 0.07084
 H2366 H 0.04422 0.03533 0.06835
 C2367 C 0.01575 0.54382 0.61120
 C2368 C -0.00198 0.54336 0.61273
 C2369 C -0.01042 0.54759 0.62745
 C2370 C -0.00016 0.55246 0.64113
 C2371 C 0.01821 0.55329 0.63982
 C2372 C 0.02614 0.54888 0.62448
 O2373 O 0.02128 0.53941 0.59617
 C2374 C 0.00673 0.53613 0.58798
 C2375 C -0.00791 0.53845 0.59748
 C2376 C -0.02457 0.53640 0.59105
 C2377 C -0.02616 0.53190 0.57415
 C2378 C -0.01122 0.52927 0.56419
 C2379 C 0.00545 0.53129 0.57131
 H2380 H -0.02439 0.54707 0.62842
 H2381 H -0.00657 0.55543 0.65275
 H2382 H 0.04001 0.54966 0.62272
 H2383 H -0.03592 0.53847 0.59868
 H2384 H -0.03899 0.53049 0.56879
 H2385 H 0.01708 0.52973 0.56391
 C2386 C 0.53651 0.04480 0.61567
 C2387 C 0.55039 0.03707 0.60841
 C2388 C 0.56642 0.03541 0.61614
 C2389 C 0.56829 0.04181 0.63223
 C2390 C 0.55417 0.04972 0.64049
 C2391 C 0.53806 0.05140 0.63172
 O2392 O 0.52228 0.04459 0.60614
 C2393 C 0.52739 0.03652 0.59258
 C2394 C 0.54451 0.03171 0.59347
 C2395 C 0.55264 0.02277 0.58109
 C2396 C 0.54275 0.01850 0.56713
 C2397 C 0.52497 0.02319 0.56568
 C2398 C 0.51721 0.03250 0.57861
 H2399 H 0.57717 0.02937 0.61001
 H2400 H 0.58104 0.04097 0.63789
 H2401 H 0.52673 0.05687 0.63741
 H2402 H 0.56613 0.01910 0.58217
 H2403 H 0.54910 0.01153 0.55742
 H2404 H 0.50372 0.03624 0.57794
 C2405 C 0.52211 0.54765 0.10478
 C2406 C 0.51101 0.55975 0.09949
 C2407 C 0.50872 0.57418 0.10818
 C2408 C 0.51817 0.57623 0.12305
 C2409 C 0.52937 0.56376 0.12932
 C2410 C 0.53125 0.54920 0.11986
 O2411 O 0.52320 0.53536 0.09402
 C2412 C 0.51248 0.53982 0.08170
 C2413 C 0.50457 0.55457 0.08463
 C2414 C 0.49304 0.56177 0.07344
 C2415 C 0.48978 0.55365 0.05841
 C2416 C 0.49825 0.53867 0.05456
 C2417 C 0.50962 0.53155 0.06660
 H2418 H 0.50026 0.58372 0.10346
 H2419 H 0.51691 0.58775 0.12941
 H2420 H 0.53948 0.53928 0.12402
 H2421 H 0.48700 0.57340 0.07606
 H2422 H 0.48111 0.55948 0.04949
 H2423 H 0.51645 0.52028 0.06409
 C2424 C 0.20922 0.51623 0.61580
 C2425 C 0.22674 0.51338 0.61415
 C2426 C 0.23581 0.51742 0.59979
 C2427 C 0.22653 0.52515 0.58683
 C2428 C 0.20859 0.52890 0.58854
 C2429 C 0.19977 0.52391 0.60310
 O2430 O 0.20326 0.51246 0.63081
 C2431 C 0.21733 0.50724 0.63887
 C2432 C 0.23209 0.50764 0.62930
 C2433 C 0.24850 0.50413 0.63581
 C2434 C 0.24972 0.50010 0.65287
 C2435 C 0.23463 0.49946 0.66290
 C2436 C 0.21821 0.50291 0.65569
 H2437 H 0.24962 0.51518 0.59881
 H2438 H 0.23346 0.52876 0.57572
 H2439 H 0.18625 0.52698 0.60507
 H2440 H 0.25999 0.50490 0.62816
 H2441 H 0.26238 0.49757 0.65829
 H2442 H 0.20653 0.50299 0.66316
 C2443 C 0.21646 0.03455 0.12523
 C2444 C 0.23413 0.03338 0.12328
 C2445 C 0.24285 0.04058 0.11021
 C2446 C 0.23308 0.04977 0.09881
 C2447 C 0.21476 0.05161 0.10046
 C2448 C 0.20628 0.04328 0.11363
 O2449 O 0.21111 0.02801 0.13950
 C2450 C 0.22576 0.02266 0.14663
 C2451 C 0.24015 0.02561 0.13709
 C2452 C 0.25694 0.02223 0.14249
 C2453 C 0.25910 0.01574 0.15853
 C2454 C 0.24459 0.01277 0.16888
 C2455 C 0.22760 0.01599 0.16269
 H2456 H 0.25681 0.03958 0.10909
 H2457 H 0.23992 0.05538 0.08858
 H2458 H 0.19247 0.04465 0.11565
 H2459 H 0.26805 0.02494 0.13480
 H2460 H 0.27216 0.01332 0.16303
 H2461 H 0.21631 0.01421 0.17044
 C2462 C 0.72419 0.20734 0.62518
 C2463 C 0.72351 0.22400 0.62549
 C2464 C 0.71758 0.23279 0.63914
 C2465 C 0.71190 0.22406 0.65304
 C2466 C 0.71190 0.20681 0.65299
 C2467 C 0.71840 0.19835 0.63886
 O2468 O 0.73013 0.20145 0.61079
 C2469 C 0.73314 0.21471 0.60185
 C2470 C 0.72916 0.22879 0.61029
 C2471 C 0.73045 0.24407 0.60314
 C2472 C 0.73604 0.24490 0.58654
 C2473 C 0.74046 0.23062 0.57757
 C2474 C 0.73915 0.21528 0.58538
 H2475 H 0.71730 0.24591 0.63909
 H2476 H 0.70745 0.23079 0.66385
 H2477 H 0.71847 0.18523 0.63829
 H2478 H 0.72704 0.25494 0.61001
 H2479 H 0.73705 0.25670 0.58069
 H2480 H 0.74223 0.20420 0.57871
 C2481 C 0.71328 0.71025 0.11720
 C2482 C 0.73059 0.71318 0.11998
 C2483 C 0.73954 0.70740 0.13391
 C2484 C 0.73037 0.69801 0.14538
 C2485 C 0.71259 0.69442 0.14270
 C2486 C 0.70385 0.70092 0.12851
 O2487 O 0.70754 0.71615 0.10268
 C2488 C 0.72156 0.72287 0.09615
 C2489 C 0.73600 0.72133 0.10626
 C2490 C 0.75237 0.72633 0.10142
 C2491 C 0.75400 0.73302 0.08540
 C2492 C 0.73935 0.73478 0.07472
 C2493 C 0.72282 0.72987 0.08026
 H2494 H 0.75320 0.70978 0.13573
 H2495 H 0.73719 0.69333 0.15627
 H2496 H 0.69039 0.69819 0.12597
 H2497 H 0.76358 0.72468 0.10948
 H2498 H 0.76671 0.73663 0.08118
 H2499 H 0.71156 0.73066 0.07213
 C2500 C 0.53720 0.70570 0.14536
 C2501 C 0.52682 0.69365 0.15143
 C2502 C 0.52312 0.67969 0.14245
 C2503 C 0.53025 0.67818 0.12644
 C2504 C 0.54051 0.69072 0.11952
 C2505 C 0.54411 0.70464 0.12931
 O2506 O 0.53940 0.71780 0.15610
 C2507 C 0.53010 0.71330 0.16918
 C2508 C 0.52199 0.69869 0.16686
 C2509 C 0.51116 0.69192 0.17870
 C2510 C 0.50874 0.70046 0.19367
 C2511 C 0.51748 0.71526 0.19670
 C2512 C 0.52823 0.72180 0.18416
 H2513 H 0.51515 0.67024 0.14764
 H2514 H 0.52779 0.66716 0.11952
 H2515 H 0.55169 0.71456 0.12453
 H2516 H 0.50474 0.68051 0.17648
 H2517 H 0.50029 0.69536 0.20300
 H2518 H 0.53494 0.73314 0.18599
 C2519 C 0.04004 0.71940 0.64624
 C2520 C 0.02246 0.72236 0.64683
 C2521 C 0.01159 0.72071 0.63306
 C2522 C 0.01903 0.71533 0.61812
 C2523 C 0.03700 0.71148 0.61724
 C2524 C 0.04778 0.71398 0.63141
 O2525 O 0.04779 0.72112 0.66105
 C2526 C 0.03477 0.72511 0.67116
 C2527 C 0.01901 0.72588 0.66302
 C2528 C 0.00345 0.72869 0.67124
 C2529 C 0.00411 0.73089 0.68859
 C2530 C 0.02018 0.73049 0.69732
 C2531 C 0.03579 0.72768 0.68845
 H2532 H -0.00221 0.72308 0.63389
 H2533 H 0.01068 0.71359 0.60734
 H2534 H 0.06145 0.71088 0.63116
 H2535 H -0.00880 0.72894 0.66456
 H2536 H -0.00789 0.73311 0.69521
 H2537 H 0.04819 0.72709 0.69487
 C2538 C 0.52630 0.63172 0.21847
 C2539 C 0.52773 0.62846 0.23529
 C2540 C 0.53412 0.61375 0.24140
 C2541 C 0.53931 0.60195 0.22970
 C2542 C 0.53814 0.60505 0.21224
 C2543 C 0.53138 0.62019 0.20663
 O2544 O 0.52067 0.64669 0.21525
 C2545 C 0.51850 0.65303 0.23037
 C2546 C 0.52266 0.64239 0.24308
 C2547 C 0.52240 0.64687 0.25986
 C2548 C 0.51802 0.66303 0.26366
 C2549 C 0.51381 0.67427 0.25076
 C2550 C 0.51378 0.66906 0.23390
 H2551 H 0.53525 0.61149 0.25470
 H2552 H 0.54425 0.59042 0.23426
 H2553 H 0.53066 0.62313 0.19344
 H2554 H 0.52600 0.63837 0.26963
 H2555 H 0.51831 0.66692 0.27659
 H2556 H 0.51128 0.67748 0.22380
 C2557 C 0.02179 0.63325 0.72155
 C2558 C 0.02536 0.63057 0.73823
 C2559 C 0.03155 0.61579 0.74428
 C2560 C 0.03458 0.60338 0.73264
 C2561 C 0.03154 0.60595 0.71529
 C2562 C 0.02462 0.62100 0.70974
 O2563 O 0.01711 0.64848 0.71831
 C2564 C 0.01784 0.65557 0.73322
 C2565 C 0.02289 0.64515 0.74582
 C2566 C 0.02586 0.65027 0.76215
 C2567 C 0.02364 0.66685 0.76564
 C2568 C 0.01838 0.67787 0.75290
 C2569 C 0.01523 0.67206 0.73649
 H2570 H 0.03446 0.61403 0.75742
 H2571 H 0.03986 0.59191 0.73704
 H2572 H 0.02260 0.62343 0.69656
 H2573 H 0.03016 0.64189 0.77178
 H2574 H 0.02614 0.67112 0.77823
 H2575 H 0.01164 0.68024 0.72642
 C2576 C 0.04198 0.12918 0.02464
 C2577 C 0.02427 0.13120 0.02464
 C2578 C 0.01605 0.14462 0.03157
 C2579 C 0.02643 0.15623 0.03936
 C2580 C 0.04482 0.15437 0.04017
 C2581 C 0.05269 0.14088 0.03193
 O2582 O 0.04696 0.11468 0.01898
 C2583 C 0.03205 0.10744 0.01543
 C2584 C 0.01781 0.11712 0.01866
 C2585 C 0.00089 0.11158 0.01756
 C2586 C -0.00149 0.09532 0.01319
 C2587 C 0.01291 0.08497 0.00993
 C2588 C 0.02995 0.09120 0.01071
 H2589 H 0.00205 0.14582 0.03158
 H2590 H 0.02000 0.16664 0.04491
 H2591 H 0.06653 0.13862 0.03265
 H2592 H -0.01006 0.11934 0.02058
 H2593 H -0.01456 0.09065 0.01271
 H2594 H 0.04116 0.08340 0.00882
 C2595 C 0.01661 0.62580 0.53574
 C2596 C -0.00080 0.62633 0.53937
 C2597 C -0.00831 0.63876 0.54865
 C2598 C 0.00259 0.65106 0.55454
 C2599 C 0.02074 0.65060 0.55138
 C2600 C 0.02773 0.63776 0.54166
 O2601 O 0.02123 0.61281 0.52698
 C2602 C 0.00643 0.60494 0.52513
 C2603 C -0.00744 0.61261 0.53255
 C2604 C -0.02394 0.60593 0.53290
 C2605 C -0.02615 0.59064 0.52545
 C2606 C -0.01202 0.58254 0.51764
 C2607 C 0.00442 0.59000 0.51731
 H2608 H -0.02205 0.63898 0.55130
 H2609 H -0.00319 0.66094 0.56154
 H2610 H 0.04148 0.63677 0.53917
 H2611 H -0.03461 0.61209 0.53904
 H2612 H -0.03879 0.58507 0.52589
 H2613 H 0.01554 0.58410 0.51166
 C2614 C 0.52946 0.11886 0.52920
 C2615 C 0.51386 0.11716 0.53705
 C2616 C 0.50824 0.12742 0.54960
 C2617 C 0.51900 0.14018 0.55424
 C2618 C 0.53510 0.14308 0.54598
 C2619 C 0.54022 0.13192 0.53315
 O2620 O 0.53303 0.10667 0.51877
 C2621 C 0.51927 0.09715 0.52013
 C2622 C 0.50712 0.10327 0.53102
 C2623 C 0.49202 0.09526 0.53503
 C2624 C 0.48949 0.08001 0.52794
 C2625 C 0.50215 0.07280 0.51731
 C2626 C 0.51708 0.08175 0.51293
 H2627 H 0.49618 0.12532 0.55609
 H2628 H 0.51447 0.14726 0.56465
 H2629 H 0.55220 0.13290 0.52639
 H2630 H 0.48272 0.10038 0.54370
 H2631 H 0.47790 0.07353 0.53134
 H2632 H 0.52710 0.07652 0.50511
 C2633 C 0.52927 0.63200 0.01923
 C2634 C 0.51148 0.63339 0.01854
 C2635 C 0.50246 0.64672 0.02485
 C2636 C 0.51216 0.65885 0.03270
 C2637 C 0.53046 0.65735 0.03416
 C2638 C 0.53916 0.64400 0.02681
 O2639 O 0.53517 0.61772 0.01402
 C2640 C 0.52081 0.60987 0.01009
 C2641 C 0.50595 0.61891 0.01267
 C2642 C 0.48943 0.61252 0.01100
 C2643 C 0.48818 0.59613 0.00654
 C2644 C 0.50333 0.58658 0.00380
 C2645 C 0.51987 0.59365 0.00538
 H2646 H 0.48844 0.64739 0.02445
 H2647 H 0.50538 0.66901 0.03836
 H2648 H 0.55303 0.64228 0.02826
 H2649 H 0.47793 0.61976 0.01349
 H2650 H 0.47543 0.59086 0.00534
 H2651 H 0.53165 0.58656 0.00376
 C2652 C 0.72541 0.12838 0.53433
 C2653 C 0.74240 0.12770 0.53949
 C2654 C 0.74967 0.11421 0.54726
 C2655 C 0.73894 0.10091 0.55009
 C2656 C 0.72099 0.10125 0.54546
 C2657 C 0.71440 0.11533 0.53709
 O2658 O 0.72097 0.14257 0.52757
 C2659 C 0.73551 0.15101 0.52856
 C2660 C 0.74899 0.14246 0.53584
 C2661 C 0.76512 0.14920 0.53900
 C2662 C 0.76744 0.16547 0.53454
 C2663 C 0.75380 0.17455 0.52689
 C2664 C 0.73765 0.16713 0.52370
 H2665 H 0.76318 0.11391 0.55105
 H2666 H 0.74498 0.09026 0.55557
 H2667 H 0.70088 0.11671 0.53366
 H2668 H 0.77544 0.14228 0.54496
 H2669 H 0.77985 0.17102 0.53705
 H2670 H 0.72692 0.17387 0.51817
 C2671 C 0.71896 0.64310 0.04470
 C2672 C 0.72023 0.64182 0.02761
 C2673 C 0.71458 0.62837 0.01873
 C2674 C 0.70726 0.61567 0.02783
 C2675 C 0.70568 0.61664 0.04548
 C2676 C 0.71179 0.63054 0.05404
 O2677 O 0.72428 0.65731 0.05056
 C2678 C 0.72898 0.66518 0.03683
 C2679 C 0.72675 0.65617 0.02249
 C2680 C 0.72979 0.66227 0.00660
 C2681 C 0.73500 0.67842 0.00539
 C2682 C 0.73721 0.68808 0.01992
 C2683 C 0.73449 0.68128 0.03593
 H2684 H 0.71559 0.62775 0.00524
 H2685 H 0.70283 0.60506 0.02115
 H2686 H 0.71049 0.63174 0.06746
 H2687 H 0.72769 0.65501 -0.00449
 H2688 H 0.73695 0.68358 -0.00691
 H2689 H 0.73564 0.68855 0.04716
 C2690 C 0.22358 0.60320 0.70053
 C2691 C 0.23984 0.60041 0.69410
 C2692 C 0.24873 0.61218 0.68520
 C2693 C 0.24054 0.62738 0.68290
 C2694 C 0.22368 0.63050 0.68935
 C2695 C 0.21516 0.61805 0.69822
 O2696 O 0.21727 0.59057 0.70863
 C2697 C 0.22979 0.57951 0.70730
 C2698 C 0.24388 0.58481 0.69847
 C2699 C 0.25825 0.57489 0.69535
 C2700 C 0.25801 0.55891 0.70155
 C2701 C 0.24363 0.55323 0.71083
 C2702 C 0.22939 0.56384 0.71375
 H2703 H 0.26156 0.60978 0.68028
 H2704 H 0.24743 0.63673 0.67626
 H2705 H 0.20216 0.61970 0.70301
 H2706 H 0.26917 0.57925 0.68828
 H2707 H 0.26901 0.55099 0.69914
 H2708 H 0.21812 0.55996 0.72063
 C2709 C 0.23242 0.10858 0.21343
 C2710 C 0.24897 0.10782 0.20722
 C2711 C 0.25630 0.12057 0.19859
 C2712 C 0.24615 0.13463 0.19613
 C2713 C 0.22865 0.13577 0.20194
 C2714 C 0.22197 0.12229 0.21093
 O2715 O 0.22776 0.09506 0.22110
 C2716 C 0.24167 0.08556 0.21964
 C2717 C 0.25500 0.09272 0.21116
 C2718 C 0.27041 0.08454 0.20748
 C2719 C 0.27203 0.06827 0.21263
 C2720 C 0.25846 0.06068 0.22150
 C2721 C 0.24318 0.06961 0.22521
 H2722 H 0.26945 0.11980 0.19398
 H2723 H 0.25242 0.14468 0.19007
 H2724 H 0.20874 0.12185 0.21524
 H2725 H 0.28065 0.09034 0.20058
 H2726 H 0.28377 0.06158 0.20962
 H2727 H 0.23248 0.06414 0.23172
 C2728 C 0.72143 1.11051 0.71149
 C2729 C 0.70714 1.10406 0.71904
 C2730 C 0.69241 1.11289 0.72287
 C2731 C 0.69232 1.12930 0.71904
 C2732 C 0.70694 1.13692 0.71159
 C2733 C 0.72159 1.12709 0.70724
 O2734 O 0.73430 1.09966 0.70983
 C2735 C 0.72782 1.08621 0.71657
 C2736 C 0.71121 1.08849 0.72230
 C2737 C 0.70197 1.07678 0.73066
 C2738 C 0.71020 1.06195 0.73347
 C2739 C 0.72734 1.05890 0.72780
 C2740 C 0.73629 1.07116 0.71895
 H2741 H 0.68132 1.10735 0.72870
 H2742 H 0.68039 1.13589 0.72151
 H2743 H 0.73301 1.13223 0.70163
 H2744 H 0.68899 1.07909 0.73523
 H2745 H 0.70320 1.05284 0.74030
 H2746 H 0.74945 1.06926 0.71470
 C2747 C 0.71608 0.59279 0.20652
 C2748 C 0.73376 0.59331 0.20865
 C2749 C 0.74347 0.60681 0.20448
 C2750 C 0.73455 0.62040 0.19802
 C2751 C 0.71625 0.62021 0.19574
 C2752 C 0.70700 0.60604 0.19994
 O2753 O 0.70924 0.57885 0.21127
 C2754 C 0.72292 0.57035 0.21654
 C2755 C 0.73825 0.57861 0.21515
 C2756 C 0.75420 0.57181 0.21961
 C2757 C 0.75435 0.55579 0.22553
 C2758 C 0.73870 0.54702 0.22707
 C2759 C 0.72274 0.55452 0.22265
 H2760 H 0.75739 0.60695 0.20631
 H2761 H 0.74187 0.63116 0.19514
 H2762 H 0.69312 0.60527 0.19811
 H2763 H 0.76610 0.57851 0.21835
 H2764 H 0.76667 0.55017 0.22881
 H2765 H 0.71062 0.54805 0.22338
 C2766 C 0.52935 0.13606 0.71793
 C2767 C 0.51224 0.13655 0.71296
 C2768 C 0.50411 0.12354 0.70533
 C2769 C 0.51412 0.10957 0.70232
 C2770 C 0.53203 0.10889 0.70666
 C2771 C 0.53963 0.12227 0.71496
 O2772 O 0.53462 0.14996 0.72454
 C2773 C 0.52056 0.15942 0.72360
 C2774 C 0.50657 0.15181 0.71648
 C2775 C 0.49086 0.15972 0.71330
 C2776 C 0.48949 0.17616 0.71768
 C2777 C 0.50361 0.18423 0.72534
 C2778 C 0.51935 0.17568 0.72842
 H2779 H 0.49062 0.12421 0.70157
 H2780 H 0.50800 0.09937 0.69625
 H2781 H 0.55327 0.12226 0.71822
 H2782 H 0.48014 0.15353 0.70741
 H2783 H 0.47740 0.18258 0.71525
 H2784 H 0.53044 0.18163 0.73397
 C2785 C 1.02501 0.12808 0.22684
 C2786 C 1.02742 0.12712 0.24388
 C2787 C 1.03439 0.11346 0.25173
 C2788 C 1.03954 0.10044 0.24155
 C2789 C 1.03781 0.10139 0.22389
 C2790 C 1.02996 0.11526 0.21651
 O2791 O 1.01959 0.14260 0.22174
 C2792 C 1.01871 0.15103 0.23584
 C2793 C 1.02343 0.14214 0.24974
 C2794 C 1.02510 0.14898 0.26554
 C2795 C 1.02195 0.16569 0.26705
 C2796 C 1.01713 0.17516 0.25288
 C2797 C 1.01513 0.16758 0.23712
 H2798 H 1.03640 0.11308 0.26514
 H2799 H 1.04550 0.08988 0.24735
 H2800 H 1.02899 0.11656 0.20305
 H2801 H 1.02921 0.14181 0.27623
 H2802 H 1.02348 0.17128 0.27922
 H2803 H 1.01169 0.17447 0.22605
 C2804 C 0.21101 0.63352 0.53100
 C2805 C 0.22128 0.63918 0.54378
 C2806 C 0.22505 0.63023 0.55808
 C2807 C 0.21783 0.61478 0.55934
 C2808 C 0.20715 0.60852 0.54636
 C2809 C 0.20375 0.61810 0.53194
 O2810 O 0.20889 0.64417 0.51864
 C2811 C 0.21804 0.65681 0.52380
 C2812 C 0.22585 0.65430 0.53911
 C2813 C 0.23591 0.66587 0.54702
 C2814 C 0.23814 0.68065 0.53878
 C2815 C 0.23035 0.68366 0.52288
 C2816 C 0.22004 0.67152 0.51534
 H2817 H 0.23305 0.63506 0.56803
 H2818 H 0.22022 0.60790 0.57067
 H2819 H 0.19569 0.61374 0.52180
 H2820 H 0.24182 0.66360 0.55912
 H2821 H 0.24592 0.68977 0.54492
 H2822 H 0.21388 0.67340 0.50328
 C2823 C 0.21954 0.15317 1.04010
 C2824 C 0.23723 0.15133 1.03889
 C2825 C 0.24582 0.13677 1.04211
 C2826 C 0.23580 0.12354 1.04696
 C2827 C 0.21753 0.12510 1.04878
 C2828 C 0.20928 0.14015 1.04503
 O2829 O 0.21409 0.16821 1.03685
 C2830 C 0.22869 0.17600 1.03360
 C2831 C 0.24320 0.16618 1.03478
 C2832 C 0.25994 0.17189 1.03280
 C2833 C 0.26185 0.18846 1.02958
 C2834 C 0.24716 0.19886 1.02816
 C2835 C 0.23029 0.19253 1.03001
 H2836 H 0.25977 0.13565 1.04103
 H2837 H 0.24234 0.11208 1.04936
 H2838 H 0.19542 0.14181 1.04643
 H2839 H 0.27113 0.16393 1.03401
 H2840 H 0.27480 0.19323 1.02821
 H2841 H 0.21890 0.20033 1.02932
 C2842 C 0.21407 0.71005 0.60941
 C2843 C 0.19918 0.71779 0.60404
 C2844 C 0.18358 0.71693 0.61250
 C2845 C 0.18334 0.70794 0.62733
 C2846 C 0.19867 0.70034 0.63374
 C2847 C 0.21425 0.70130 0.62441
 O2848 O 0.22729 0.71195 0.59900
 C2849 C 0.22054 0.72116 0.58688
 C2850 C 0.20343 0.72517 0.58954
 C2851 C 0.19374 0.73475 0.57862
 C2852 C 0.20191 0.74023 0.56415
 C2853 C 0.21941 0.73584 0.56064
 C2854 C 0.22891 0.72626 0.57235
 H2855 H 0.17194 0.72282 0.60776
 H2856 H 0.17108 0.70686 0.63372
 H2857 H 0.22620 0.69570 0.62877
 H2858 H 0.18029 0.73776 0.58106
 H2859 H 0.19432 0.74744 0.55540
 H2860 H 0.24221 0.72260 0.57004
 C2861 C 0.22462 0.21622 1.12546
 C2862 C 0.22325 0.23256 1.12861
 C2863 C 0.21664 0.23878 1.14345
 C2864 C 0.21129 0.22771 1.15562
 C2865 C 0.21246 0.21072 1.15277
 C2866 C 0.21925 0.20496 1.13737
 O2867 O 0.23117 0.21289 1.11048
 C2868 C 0.23398 0.22749 1.10404
 C2869 C 0.22930 0.23989 1.11466
 C2870 C 0.23065 0.25614 1.11039
 C2871 C 0.23687 0.25979 1.09443
 C2872 C 0.24175 0.24728 1.08313
 C2873 C 0.24048 0.23085 1.08810
 H2874 H 0.21575 0.25172 1.14562
 H2875 H 0.20650 0.23239 1.16739
 H2876 H 0.22018 0.19212 1.13465
 H2877 H 0.22678 0.26567 1.11895
 H2878 H 0.23776 0.27241 1.09081
 H2879 H 0.24381 0.22106 1.07964
 C2880 C 0.71378 0.53553 0.13510
 C2881 C 0.72406 0.54570 0.14432
 C2882 C 0.72585 0.56204 0.14067
 C2883 C 0.71685 0.56818 0.12673
 C2884 C 0.70663 0.55790 0.11641
 C2885 C 0.70505 0.54127 0.12087
 O2886 O 0.71326 0.52056 0.14132
 C2887 C 0.72355 0.52135 0.15471
 C2888 C 0.73060 0.53646 0.15690
 C2889 C 0.74170 0.54019 0.16999
 C2890 C 0.74553 0.52792 0.18153
 C2891 C 0.73800 0.51229 0.18008
 C2892 C 0.72690 0.50894 0.16632
 H2893 H 0.73370 0.56987 0.14842
 H2894 H 0.71779 0.58101 0.12417
 H2895 H 0.69752 0.53293 0.11341
 H2896 H 0.74702 0.55220 0.17144
 H2897 H 0.75378 0.53094 0.19206
 H2898 H 0.72076 0.49728 0.16496
 C2899 C 0.71136 1.02967 0.62947
 C2900 C 0.70689 1.01358 0.62953
 C2901 C 0.69965 1.00593 0.61571
 C2902 C 0.69675 1.01529 0.60128
 C2903 C 0.70085 1.03206 0.60097
 C2904 C 0.70836 1.03925 0.61536
 O2905 O 0.71822 1.03458 0.64384
 C2906 C 0.71802 1.02131 0.65321
 C2907 C 0.71110 1.00815 0.64509
 C2908 C 0.70925 0.99313 0.65272
 C2909 C 0.71486 0.99160 0.66938
 C2910 C 0.72237 1.00491 0.67794
 C2911 C 0.72396 1.01998 0.66967
 H2912 H 0.69639 0.99320 0.61601
 H2913 H 0.69138 1.00940 0.59034
 H2914 H 0.71143 1.05202 0.61578
 H2915 H 0.70366 0.98298 0.64611
 H2916 H 0.71363 0.97996 0.67552
 H2917 H 0.72950 1.03039 0.67590
 C2918 C 0.53641 0.21647 0.62943
 C2919 C 0.54160 0.23233 0.63041
 C2920 C 0.55084 0.23985 0.61777
 C2921 C 0.55506 0.23060 0.60359
 C2922 C 0.55026 0.21405 0.60239
 C2923 C 0.54064 0.20700 0.61555
 O2924 O 0.52792 0.21157 0.64290
 C2925 C 0.52782 0.22462 0.65264
 C2926 C 0.53612 0.23761 0.64560
 C2927 C 0.53825 0.25226 0.65390
 C2928 C 0.53157 0.25358 0.67013
 C2929 C 0.52277 0.24044 0.67764
 C2930 C 0.52074 0.22578 0.66867
 H2931 H 0.55471 0.25239 0.61881
 H2932 H 0.56209 0.23638 0.59359
 H2933 H 0.53700 0.19436 0.61530
 H2934 H 0.54500 0.26224 0.64818
 H2935 H 0.53317 0.26489 0.67682
 H2936 H 0.51430 0.21548 0.67416
 C2937 C 1.05173 0.20970 0.14708
 C2938 C 1.04662 0.19574 0.15493
 C2939 C 1.04538 0.18091 0.14681
 C2940 C 1.04974 0.18036 0.12986
 C2941 C 1.05527 0.19450 0.12140
 C2942 C 1.05634 0.20941 0.13018
 O2943 O 1.05125 0.22263 0.15705
 C2944 C 1.04573 0.21663 0.17149
 C2945 C 1.04284 0.20020 0.17078
 C2946 C 1.03651 0.19138 0.18412
 C2947 C 1.03253 0.19989 0.19872
 C2948 C 1.03482 0.21691 0.19977
 C2949 C 1.04195 0.22540 0.18608
 H2950 H 1.04117 0.17014 0.15330
 H2951 H 1.04914 0.16885 0.12339
 H2952 H 1.06045 0.22038 0.12400
 H2953 H 1.03432 0.17847 0.18319
 H2954 H 1.02725 0.19325 0.20916
 H2955 H 1.04358 0.23842 0.18647
 C2956 C 0.61916 0.21514 0.72408
 C2957 C 0.61149 0.20190 0.73125
 C2958 C 0.61962 0.18694 0.73279
 C2959 C 0.63651 0.18549 0.72680
 C2960 C 0.64525 0.19899 0.71979
 C2961 C 0.63626 0.21407 0.71827
 O2962 O 0.60858 0.22799 0.72327
 C2963 C 0.59402 0.22265 0.73012
 C2964 C 0.59528 0.20679 0.73527
 C2965 C 0.58177 0.19854 0.74266
 C2966 C 0.56613 0.20696 0.74479
 C2967 C 0.56416 0.22330 0.73938
 C2968 C 0.57840 0.23129 0.73195
 H2969 H 0.61306 0.17663 0.73810
 H2970 H 0.64256 0.17359 0.72735
 H2971 H 0.64233 0.22457 0.71280
 H2972 H 0.58318 0.18602 0.74654
 H2973 H 0.55544 0.20053 0.75034
 H2974 H 0.57732 0.24370 0.72763
 C2975 C 1.12445 0.20097 0.22640
 C2976 C 1.12469 0.19655 0.24298
 C2977 C 1.13878 0.18856 0.25033
 C2978 C 1.15317 0.18499 0.24019
 C2979 C 1.15322 0.18923 0.22292
 C2980 C 1.13848 0.19733 0.21603
 O2981 O 1.11000 0.20874 0.22188
 C2982 C 1.10089 0.20924 0.23592
 C2983 C 1.10922 0.20187 0.24920
 C2984 C 1.10183 0.20090 0.26502
 C2985 C 1.08525 0.20787 0.26723
 C2986 C 1.07654 0.21581 0.25378
 C2987 C 1.08456 0.21642 0.23789
 H2988 H 1.13879 0.18535 0.26345
 H2989 H 1.16435 0.17916 0.24592
 H2990 H 1.13778 0.20061 0.20294
 H2991 H 1.10858 0.19500 0.27529
 H2992 H 1.07932 0.20730 0.27946
 H2993 H 1.07823 0.22220 0.22730
 C2994 C 0.12468 0.71625 0.53901
 C2995 C 0.12234 0.71594 0.52195
 C2996 C 0.10683 0.71157 0.51441
 C2997 C 0.09321 0.70703 0.52485
 C2998 C 0.09534 0.70655 0.54253
 C2999 C 0.11131 0.71156 0.54969
 O3000 O 0.14060 0.72066 0.54351
 C3001 C 0.14844 0.72305 0.52895
 C3002 C 0.13783 0.72017 0.51541
 C3003 C 0.14353 0.72101 0.49898
 C3004 C 0.16091 0.72501 0.49636
 C3005 C 0.17207 0.72839 0.51004
 C3006 C 0.16573 0.72751 0.52661
 H3007 H 0.10529 0.71157 0.50094
 H3008 H 0.08100 0.70376 0.51908
 H3009 H 0.11348 0.71124 0.56308
 H3010 H 0.13497 0.71842 0.48855
 H3011 H 0.16567 0.72564 0.48366
 H3012 H 0.17410 0.72976 0.53725
 C3013 C 0.14776 0.21231 1.04422
 C3014 C 0.15903 0.21127 1.05759
 C3015 C 0.15509 0.20339 1.07239
 C3016 C 0.13857 0.19675 1.07375
 C3017 C 0.12625 0.19835 1.06056
 C3018 C 0.13111 0.20581 1.04534
 O3019 O 0.15405 0.22087 1.03156
 C3020 C 0.16952 0.22545 1.03720
 C3021 C 0.17301 0.21999 1.05315
 C3022 C 0.18775 0.22421 1.06209
 C3023 C 0.19955 0.23438 1.05422
 C3024 C 0.19661 0.23987 1.03762
 C3025 C 0.18143 0.23525 1.02887
 H3026 H 0.16424 0.20276 1.08270
 H3027 H 0.13510 0.19089 1.08537
 H3028 H 0.12189 0.20740 1.03518
 H3029 H 0.19002 0.21996 1.07473
 H3030 H 0.21125 0.23765 1.06091
 H3031 H 0.17892 0.23934 1.01620
 C3032 C 0.63069 0.53576 0.19949
 C3033 C 0.63009 0.52032 0.19306
 C3034 C 0.61636 0.51473 0.18347
 C3035 C 0.60261 0.52551 0.18022
 C3036 C 0.60286 0.54170 0.18633
 C3037 C 0.61715 0.54683 0.19625
 O3038 O 0.64498 0.53840 0.20849
 C3039 C 0.65353 0.52431 0.20766
 C3040 C 0.64491 0.51293 0.19828
 C3041 C 0.65136 0.49743 0.19547
 C3042 C 0.66742 0.49338 0.20260
 C3043 C 0.67672 0.50472 0.21250
 C3044 C 0.66959 0.52046 0.21512
 H3045 H 0.61616 0.50243 0.17874
 H3046 H 0.59166 0.52109 0.17311
 H3047 H 0.61784 0.55905 0.20112
 H3048 H 0.64429 0.48873 0.18802
 H3049 H 0.67249 0.48124 0.20056
 H3050 H 0.67636 0.52940 0.22254
 C3051 C 0.62884 1.03977 0.73097
 C3052 C 0.62563 1.02360 0.73374
 C3053 C 0.60942 1.01679 0.73119
 C3054 C 0.59612 1.02692 0.72501
 C3055 C 0.59922 1.04349 0.72145
 C3056 C 0.61570 1.05012 0.72491
 O3057 O 0.64547 1.04347 0.73282
 C3058 C 0.65291 1.02933 0.73670
 C3059 C 0.64136 1.01677 0.73731
 C3060 C 0.64659 1.00068 0.73942
 C3061 C 0.66445 0.99740 0.74095
 C3062 C 0.67661 1.01016 0.74057
 C3063 C 0.67070 1.02637 0.73862
 H3064 H 0.60729 1.00398 0.73313
 H3065 H 0.58365 1.02169 0.72206
 H3066 H 0.61858 1.06254 0.72165
 H3067 H 0.63729 0.99094 0.73941
 H3068 H 0.66884 0.98495 0.74233
 H3069 H 0.67971 1.03625 0.73774
 C3070 C 0.85459 0.44301 0.29353
 C3071 C 0.84592 0.42862 0.29192
 C3072 C 0.85376 0.41362 0.29480
 C3073 C 0.87127 0.41342 0.29960
 C3074 C 0.88066 0.42808 0.30124
 C3075 C 0.87208 0.44310 0.29815
 O3076 O 0.84481 0.45590 0.28981
 C3077 C 0.82964 0.44948 0.28574
 C3078 C 0.82969 0.43282 0.28680
 C3079 C 0.81550 0.42350 0.28237
 C3080 C 0.80073 0.43168 0.27631
 C3081 C 0.80036 0.44882 0.27497
 C3082 C 0.81490 0.45790 0.28005
 H3083 H 0.84663 0.40246 0.29343
 H3084 H 0.87745 0.40183 0.30223
 H3085 H 0.87885 0.45449 0.29904
 H3086 H 0.81590 0.41040 0.28320
 H3087 H 0.78960 0.42468 0.27252
 H3088 H 0.81501 0.47099 0.27887
 C3089 C 0.86852 0.95524 0.78311
 C3090 C 0.86945 0.95162 0.76637
 C3091 C 0.88344 0.94324 0.75946
 C3092 C 0.89707 0.93852 0.77022
 C3093 C 0.89646 0.94203 0.78763
 C3094 C 0.88177 0.95044 0.79408
 O3095 O 0.85415 0.96334 0.78717
 C3096 C 0.84581 0.96485 0.77266
 C3097 C 0.85457 0.95781 0.75955
 C3098 C 0.84791 0.95751 0.74334
 C3099 C 0.83147 0.96457 0.74059
 C3100 C 0.82218 0.97198 0.75389
 C3101 C 0.82960 0.97225 0.77014
 H3102 H 0.88393 0.94059 0.74621
 H3103 H 0.90824 0.93244 0.76487
 H3104 H 0.88057 0.95313 0.80727
 H3105 H 0.85496 0.95178 0.73324
 H3106 H 0.82593 0.96419 0.72812
 H3107 H 0.82268 0.97751 0.78061
 C3108 C 0.37799 0.29203 0.78323
 C3109 C 0.38279 0.30428 0.77259
 C3110 C 0.37355 0.31874 0.77113
 C3111 C 0.35858 0.32060 0.78081
 C3112 C 0.35295 0.30804 0.79164
 C3113 C 0.36303 0.29359 0.79301
 O3114 O 0.38882 0.27937 0.78283
 C3115 C 0.40063 0.28376 0.77169
 C3116 C 0.39749 0.29887 0.76503
 C3117 C 0.40824 0.30591 0.75324
 C3118 C 0.42301 0.29711 0.74824
 C3119 C 0.42681 0.28156 0.75507
 C3120 C 0.41525 0.27477 0.76689
 H3121 H 0.37771 0.32829 0.76283
 H3122 H 0.35139 0.33192 0.77989
 H3123 H 0.35916 0.28379 0.80114
 H3124 H 0.40546 0.31785 0.74820
 H3125 H 0.43165 0.30260 0.73930
 H3126 H 0.41775 0.26303 0.77252
 C3127 C 0.88721 0.28501 0.28803
 C3128 C 0.88681 0.28608 0.27087
 C3129 C 0.87203 0.29087 0.26204
 C3130 C 0.85709 0.29469 0.27129
 C3131 C 0.85725 0.29393 0.28908
 C3132 C 0.87270 0.28908 0.29746
 O3133 O 0.90232 0.27978 0.29405
 C3134 C 0.91169 0.27753 0.28040
 C3135 C 0.90291 0.28134 0.26587
 C3136 C 0.91050 0.28008 0.25016
 C3137 C 0.92781 0.27458 0.24945
 C3138 C 0.93691 0.27020 0.26429
 C3139 C 0.92870 0.27176 0.27996
 H3140 H 0.87192 0.29143 0.24851
 H3141 H 0.84538 0.29798 0.26452
 H3142 H 0.87358 0.28858 0.31096
 H3143 H 0.90339 0.28323 0.23889
 H3144 H 0.93401 0.27343 0.23738
 H3145 H 0.93540 0.26870 0.29148
 C3146 C 0.35952 0.79126 0.45930
 C3147 C 0.36176 0.77476 0.45783
 C3148 C 0.37680 0.76765 0.45159
 C3149 C 0.39015 0.77797 0.44667
 C3150 C 0.38824 0.79508 0.44796
 C3151 C 0.37265 0.80178 0.45446
 O3152 O 0.34404 0.79547 0.46525
 C3153 C 0.33637 0.78130 0.46757
 C3154 C 0.34671 0.76829 0.46320
 C3155 C 0.34122 0.75235 0.46414
 C3156 C 0.32428 0.74968 0.46959
 C3157 C 0.31318 0.76284 0.47404
 C3158 C 0.31944 0.77891 0.47323
 H3159 H 0.37822 0.75462 0.45055
 H3160 H 0.40207 0.77261 0.44203
 H3161 H 0.37071 0.81477 0.45546
 H3162 H 0.34961 0.74233 0.46057
 H3163 H 0.31976 0.73731 0.47021
 H3164 H 0.31123 0.78921 0.47632
 C3165 C 0.37573 0.30022 0.96986
 C3166 C 0.37868 0.30295 0.98659
 C3167 C 0.39314 0.31119 0.99247
 C3168 C 0.40500 0.31684 0.98059
 C3169 C 0.40208 0.31432 0.96321
 C3170 C 0.38717 0.30585 0.95790
 O3171 O 0.36097 0.29271 0.96673
 C3172 C 0.35437 0.29067 0.98182
 C3173 C 0.36464 0.29677 0.99444
 C3174 C 0.35957 0.29683 1.01110
 C3175 C 0.34317 0.29059 1.01483
 C3176 C 0.33238 0.28431 1.00197
 C3177 C 0.33825 0.28413 0.98527
 H3178 H 0.39516 0.31329 1.00570
 H3179 H 0.41640 0.32315 0.98493
 H3180 H 0.38417 0.30410 0.94478
 H3181 H 0.36772 0.30192 1.02080
 H3182 H 0.33876 0.29090 1.02766
 H3183 H 0.33012 0.27986 0.97513
 C3184 C 0.75980 0.44416 0.36138
 C3185 C 0.75181 0.43071 0.35490
 C3186 C 0.75348 0.41545 0.36213
 C3187 C 0.76381 0.41400 0.37660
 C3188 C 0.77207 0.42776 0.38372
 C3189 C 0.76975 0.44310 0.37595
 O3190 O 0.75796 0.45720 0.35180
 C3191 C 0.74863 0.45188 0.33899
 C3192 C 0.74434 0.43579 0.34033
 C3193 C 0.73551 0.42753 0.32777
 C3194 C 0.73145 0.43608 0.31302
 C3195 C 0.73655 0.45246 0.31103
 C3196 C 0.74482 0.46055 0.32445
 H3197 H 0.74753 0.40492 0.35653
 H3198 H 0.76574 0.40203 0.38188
 H3199 H 0.77571 0.45392 0.38088
 H3200 H 0.73248 0.41481 0.32900
 H3201 H 0.72540 0.42961 0.30278
 H3202 H 0.74916 0.47293 0.32323
 C3203 C 0.79070 0.95694 0.85995
 C3204 C 0.79307 0.97344 0.85986
 C3205 C 0.79897 0.98198 0.87366
 C3206 C 0.80295 0.97314 0.88813
 C3207 C 0.80139 0.95597 0.88849
 C3208 C 0.79482 0.94780 0.87421
 O3209 O 0.78489 0.95131 0.84539
 C3210 C 0.78370 0.96456 0.83594
 C3211 C 0.78872 0.97836 0.84423
 C3212 C 0.78916 0.99351 0.83670
 C3213 C 0.78407 0.99455 0.81990
 C3214 C 0.77842 0.98062 0.81107
 C3215 C 0.77821 0.96537 0.81924
 H3216 H 0.80052 0.99501 0.87329
 H3217 H 0.80742 0.97970 0.89903
 H3218 H 0.79352 0.93475 0.87401
 H3219 H 0.79333 1.00414 0.84349
 H3220 H 0.78417 1.00631 0.81388
 H3221 H 0.77407 0.95453 0.81277
 C3222 C 0.28671 0.77269 0.37744
 C3223 C 0.26996 0.76814 0.37396
 C3224 C 0.26198 0.77106 0.35860
 C3225 C 0.27154 0.77918 0.34639
 C3226 C 0.28871 0.78440 0.34975
 C3227 C 0.29648 0.78081 0.36545
 O3228 O 0.29146 0.76965 0.39315
 C3229 C 0.27737 0.76314 0.39974
 C3230 C 0.26384 0.76200 0.38850
 C3231 C 0.24739 0.75692 0.39305
 C3232 C 0.24470 0.75309 0.40992
 C3233 C 0.25842 0.75416 0.42174
 C3234 C 0.27508 0.75897 0.41653
 H3235 H 0.24873 0.76749 0.35622
 H3236 H 0.26547 0.78163 0.33440
 H3237 H 0.30940 0.78491 0.36855
 H3238 H 0.23685 0.75651 0.38406
 H3239 H 0.23185 0.74964 0.41389
 H3240 H 0.28558 0.76041 0.42546
 C3241 C 0.29896 0.29713 0.89765
 C3242 C 0.29715 0.31153 0.90619
 C3243 C 0.29903 0.32658 0.89866
 C3244 C 0.30251 0.32688 0.88150
 C3245 C 0.30396 0.31229 0.87218
 C3246 C 0.30254 0.29714 0.88044
 O3247 O 0.29571 0.28424 0.90714
 C3248 C 0.29167 0.29070 0.92191
 C3249 C 0.29230 0.30737 0.92186
 C3250 C 0.28749 0.31680 0.93549
 C3251 C 0.28175 0.30876 0.94980
 C3252 C 0.28107 0.29157 0.95038
 C3253 C 0.28633 0.28236 0.93627
 H3254 H 0.29736 0.33772 0.90565
 H3255 H 0.30348 0.33850 0.87529
 H3256 H 0.30319 0.28586 0.87353
 H3257 H 0.28787 0.32991 0.93504
 H3258 H 0.27795 0.31595 0.96055
 H3259 H 0.28576 0.26925 0.93632
 C3260 C 0.45526 0.29892 0.85450
 C3261 C 0.44057 0.29136 0.84876
 C3262 C 0.42479 0.29228 0.85700
 C3263 C 0.42417 0.30119 0.87190
 C3264 C 0.43921 0.30890 0.87832
 C3265 C 0.45494 0.30787 0.86933
 O3266 O 0.46892 0.29647 0.84475
 C3267 C 0.46269 0.28714 0.83262
 C3268 C 0.44542 0.28365 0.83454
 C3269 C 0.43628 0.27403 0.82337
 C3270 C 0.44528 0.26780 0.80957
 C3271 C 0.46310 0.27134 0.80714
 C3272 C 0.47189 0.28115 0.81894
 H3273 H 0.41339 0.28630 0.85216
 H3274 H 0.41195 0.30210 0.87846
 H3275 H 0.46665 0.31349 0.87394
 H3276 H 0.42268 0.27147 0.82516
 H3277 H 0.43822 0.26049 0.80064
 H3278 H 0.48543 0.28414 0.81747
 C3279 C 0.96985 0.29294 0.37305
 C3280 C 0.95530 0.28632 0.36594
 C3281 C 0.93924 0.28629 0.37366
 C3282 C 0.93804 0.29338 0.38948
 C3283 C 0.95279 0.30027 0.39730
 C3284 C 0.96896 0.30013 0.38888
 O3285 O 0.98386 0.29138 0.36349
 C3286 C 0.97793 0.28358 0.35008
 C3287 C 0.96052 0.28028 0.35111
 C3288 C 0.95148 0.27202 0.33887
 C3289 C 0.96075 0.26675 0.32496
 C3290 C 0.97881 0.26976 0.32338
 C3291 C 0.98753 0.27852 0.33611
 H3292 H 0.92800 0.28100 0.36769
 H3293 H 0.92553 0.29370 0.39555
 H3294 H 0.98045 0.30525 0.39455
 H3295 H 0.93778 0.26959 0.34005
 H3296 H 0.95369 0.26024 0.31538
 H3297 H 1.00126 0.28099 0.33532
 C3298 C 0.47091 0.36359 0.79170
 C3299 C 0.47505 0.36695 0.77534
 C3300 C 0.47223 0.38207 0.76805
 C3301 C 0.46445 0.39413 0.77791
 C3302 C 0.45971 0.39085 0.79464
 C3303 C 0.46326 0.37548 0.80177
 O3304 O 0.47332 0.34810 0.79572
 C3305 C 0.47898 0.34153 0.78157
 C3306 C 0.48020 0.35256 0.76872
 C3307 C 0.48422 0.34810 0.75243
 C3308 C 0.48697 0.33158 0.74920
 C3309 C 0.48584 0.31997 0.76223
 C3310 C 0.48207 0.32505 0.77872
 H3311 H 0.47528 0.38430 0.75506
 H3312 H 0.46143 0.40582 0.77237
 H3313 H 0.45915 0.37260 0.81434
 H3314 H 0.48469 0.35696 0.74246
 H3315 H 0.48981 0.32778 0.73653
 H3316 H 0.48068 0.31636 0.78877
 C3317 C 0.96924 0.35816 0.29010
 C3318 C 0.98681 0.36029 0.28868
 C3319 C 0.99491 0.37458 0.29345
 C3320 C 0.98444 0.38724 0.29974
 C3321 C 0.96621 0.38536 0.30140
 C3322 C 0.95866 0.37041 0.29661
 O3323 O 0.96405 0.34365 0.28503
 C3324 C 0.97868 0.33642 0.28032
 C3325 C 0.99302 0.34603 0.28239
 C3326 C 1.00978 0.34051 0.27909
 C3327 C 1.01183 0.32436 0.27375
 C3328 C 0.99723 0.31428 0.27147
 C3329 C 0.98040 0.32048 0.27458
 H3330 H 1.00877 0.37601 0.29221
 H3331 H 0.99053 0.39857 0.30299
 H3332 H 0.94494 0.36824 0.29800
 H3333 H 1.02090 0.34817 0.28107
 H3334 H 1.02479 0.31958 0.27170
 H3335 H 0.96911 0.31284 0.27347
 C3336 C 0.27771 0.85956 0.45788
 C3337 C 0.26077 0.85907 0.45240
 C3338 C 0.25280 0.87184 0.44388
 C3339 C 0.26282 0.88552 0.44052
 C3340 C 0.28052 0.88615 0.44552
 C3341 C 0.28792 0.87307 0.45468
 O3342 O 0.28294 0.84591 0.46523
 C3343 C 0.26904 0.83660 0.46429
 C3344 C 0.25515 0.84405 0.45648
 C3345 C 0.23956 0.83624 0.45343
 C3346 C 0.23820 0.82008 0.45874
 C3347 C 0.25225 0.81217 0.46704
 C3348 C 0.26789 0.82062 0.46986
 H3349 H 0.23947 0.87115 0.43966
 H3350 H 0.25690 0.89550 0.43367
 H3351 H 0.30144 0.87304 0.45840
 H3352 H 0.22889 0.84231 0.44709
 H3353 H 0.22613 0.81382 0.45656
 H3354 H 0.27893 0.81486 0.47595
 C3355 C 0.28844 0.37741 0.96975
 C3356 C 0.30319 0.37266 0.97821
 C3357 C 0.31910 0.37996 0.97597
 C3358 C 0.31986 0.39291 0.96471
 C3359 C 0.30470 0.39880 0.95630
 C3360 C 0.28874 0.39070 0.95886
 O3361 O 0.27495 0.36799 0.97290
 C3362 C 0.28139 0.35713 0.98365
 C3363 C 0.29855 0.35968 0.98744
 C3364 C 0.30806 0.34981 0.99823
 C3365 C 0.29967 0.33648 1.00515
 C3366 C 0.28214 0.33301 1.00096
 C3367 C 0.27279 0.34369 0.99019
 H3368 H 0.33065 0.37558 0.98237
 H3369 H 0.33244 0.39810 0.96244
 H3370 H 0.27686 0.39460 0.95275
 H3371 H 0.32158 0.35210 1.00096
 H3372 H 0.30721 0.32842 1.01313
 H3373 H 0.25951 0.34131 0.98656
 C3374 C 0.77242 0.36791 0.28282
 C3375 C 0.75487 0.36720 0.28554
 C3376 C 0.74747 0.35510 0.29523
 C3377 C 0.75859 0.34314 0.30212
 C3378 C 0.77679 0.34361 0.29943
 C3379 C 0.78367 0.35645 0.28982
 O3380 O 0.77702 0.38037 0.27344
 C3381 C 0.76205 0.38778 0.27016
 C3382 C 0.74806 0.38032 0.27731
 C3383 C 0.73129 0.38666 0.27610
 C3384 C 0.72898 0.40149 0.26761
 C3385 C 0.74332 0.40952 0.26033
 C3386 C 0.75998 0.40221 0.26127
 H3387 H 0.73361 0.35476 0.29725
 H3388 H 0.75294 0.33338 0.30922
 H3389 H 0.79746 0.35764 0.28782
 H3390 H 0.72047 0.38070 0.28197
 H3391 H 0.71615 0.40694 0.26716
 H3392 H 0.77124 0.40801 0.25608
   
