data_POSCAR
  _audit_creation_date              2014-09-24
  _audit_creation_method            'ToBaCCo'
  _symmetry_space_group_name_H-M    'P1'
  _symmetry_Int_Tables_number       1
  _symmetry_cell_setting            triclinic
  loop_
  _symmetry_equiv_pos_as_xyz
 x,y,z
_cell_length_a 86.7582
_cell_length_b 86.7230
_cell_length_c 86.7576
_cell_angle_alpha 90.495500
_cell_angle_beta 89.810400
_cell_angle_gamma 89.512400
loop_
  _atom_site_label
  _atom_site_type_symbol
  _atom_site_fract_x
  _atom_site_fract_y
  _atom_site_fract_z
C1 C 0.10301 0.01763 0.23129
 H2 H 0.10287 0.02673 0.23990
 C3 C 0.09416 0.01908 0.21794
 H4 H 0.08703 0.02927 0.21645
 C5 C 0.11266 -0.00662 0.22272
 H6 H 0.12019 -0.01643 0.22440
 C7 C 0.10399 -0.00566 0.20925
 H8 H 0.10495 -0.01481 0.20072
 N9 N 0.11198 0.00490 0.23345
 C10 C 0.12085 0.00215 0.28277
 H11 H 0.13330 0.00136 0.28242
 C12 C 0.11311 0.00120 0.29683
 H13 H 0.11971 -0.00041 0.30727
 C14 C 0.09718 0.00455 0.26940
 H15 H 0.09104 0.00563 0.25865
 C16 C 0.08895 0.00361 0.28324
 H17 H 0.07649 0.00426 0.28304
 Zn18 Zn 0.12472 0.00413 0.25112
 N19 N 0.11286 0.00391 0.26944
 C20 C 0.13668 0.03234 0.26242
 N21 N 0.13745 0.02176 0.25077
 C22 C 0.14643 0.02412 0.23814
 C23 C 0.15513 0.03754 0.23690
 C24 C 0.14521 0.04588 0.26168
 C25 C 0.12840 -0.02752 0.25268
 C26 C 0.13594 -0.04175 0.25325
 C27 C 0.16018 -0.02861 0.25045
 C28 C 0.15209 -0.01459 0.24998
 N29 N 0.13649 -0.01433 0.25098
 H30 H 0.12915 0.03051 0.27216
 H31 H 0.14664 0.01564 0.22892
 H32 H 0.16223 0.03920 0.22678
 H33 H 0.14413 0.05430 0.27091
 H34 H 0.11596 -0.02696 0.25348
 H35 H 0.12866 -0.05177 0.25377
 H36 H 0.17260 -0.02795 0.25029
 H37 H 0.15835 -0.00392 0.24908
 C38 C 0.09694 0.00193 0.29721
 C39 C 0.09462 0.00735 0.20668
 C40 C 0.15224 -0.04275 0.25219
 C41 C 0.15452 0.04868 0.24875
 C42 C 0.39575 0.01106 0.76704
 H43 H 0.39561 0.02110 0.75981
 C44 C 0.40417 0.01133 0.78073
 H45 H 0.41048 0.02161 0.78382
 C46 C 0.38794 -0.01457 0.77176
 H47 H 0.38169 -0.02471 0.76822
 C48 C 0.39620 -0.01480 0.78554
 H49 H 0.39591 -0.02503 0.79259
 N50 N 0.38756 -0.00164 0.76299
 C51 C 0.37998 0.00277 0.71376
 H52 H 0.36772 0.00514 0.71377
 C53 C 0.38820 0.00272 0.69993
 H54 H 0.38220 0.00528 0.68932
 C55 C 0.40265 -0.00337 0.72770
 H56 H 0.40813 -0.00592 0.73857
 C57 C 0.41134 -0.00353 0.71411
 H58 H 0.42353 -0.00627 0.71460
 Zn59 Zn 0.37490 -0.00104 0.74515
 N60 N 0.38724 -0.00042 0.72723
 C61 C 0.36991 0.03055 0.74208
 N62 N 0.36263 0.01720 0.74558
 C63 C 0.34727 0.01708 0.74884
 C64 C 0.33879 0.03086 0.74919
 C65 C 0.36189 0.04454 0.74225
 C66 C 0.36409 -0.02889 0.73220
 C67 C 0.35601 -0.04271 0.73177
 C68 C 0.34456 -0.03604 0.75637
 C69 C 0.35287 -0.02230 0.75633
 N70 N 0.36247 -0.01901 0.74438
 H71 H 0.38200 0.03033 0.73902
 H72 H 0.34153 0.00637 0.75118
 H73 H 0.32658 0.03057 0.75180
 H74 H 0.36802 0.05504 0.73972
 H75 H 0.37191 -0.02627 0.72290
 H76 H 0.35749 -0.05038 0.72196
 H77 H 0.33731 -0.03864 0.76618
 H78 H 0.35203 -0.01446 0.76607
 C79 C 0.40406 -0.00063 0.69996
 C80 C 0.40425 -0.00163 0.79031
 C81 C 0.34622 -0.04653 0.74405
 C82 C 0.34613 0.04484 0.74592
 C83 C 0.89620 0.51266 0.27081
 H84 H 0.89595 0.52258 0.26341
 C85 C 0.90494 0.51309 0.28428
 H86 H 0.91155 0.52337 0.28655
 C87 C 0.88855 0.48713 0.27596
 H88 H 0.88219 0.47698 0.27270
 C89 C 0.89716 0.48702 0.28952
 H90 H 0.89656 0.47682 0.29656
 N91 N 0.88792 0.49994 0.26707
 C92 C 0.87932 0.50423 0.21800
 H93 H 0.86708 0.50670 0.21828
 C94 C 0.88721 0.50400 0.20398
 H95 H 0.88098 0.50655 0.19350
 C96 C 0.90224 0.49792 0.23144
 H97 H 0.90795 0.49535 0.24219
 C98 C 0.91061 0.49759 0.21764
 H99 H 0.92277 0.49468 0.21786
 Zn100 Zn 0.87489 0.50037 0.24950
 N101 N 0.88685 0.50103 0.23131
 C102 C 0.86961 0.53189 0.24638
 N103 N 0.86249 0.51853 0.25014
 C104 C 0.84722 0.51837 0.25382
 C105 C 0.83868 0.53212 0.25430
 C106 C 0.86152 0.54585 0.24666
 C107 C 0.86425 0.47238 0.23679
 C108 C 0.85640 0.45843 0.23647
 C109 C 0.84514 0.46493 0.26120
 C110 C 0.85322 0.47881 0.26104
 N111 N 0.86263 0.48225 0.24898
 H112 H 0.88162 0.53172 0.24303
 H113 H 0.84161 0.50764 0.25640
 H114 H 0.82655 0.53179 0.25724
 H115 H 0.86754 0.55636 0.24390
 H116 H 0.87190 0.47511 0.22739
 H117 H 0.85789 0.45078 0.22664
 H118 H 0.83806 0.46221 0.27109
 H119 H 0.85238 0.48664 0.27079
 C120 C 0.90303 0.50046 0.20364
 C121 C 0.90538 0.50025 0.29419
 C122 C 0.84685 0.45444 0.24887
 C123 C 0.84586 0.54611 0.25073
 C124 C 0.60375 0.51413 0.73009
 H125 H 0.60359 0.52316 0.73877
 C126 C 0.59506 0.51576 0.71666
 H127 H 0.58801 0.52600 0.71518
 C128 C 0.61340 0.48993 0.72137
 H129 H 0.62089 0.48008 0.72300
 C130 C 0.60488 0.49107 0.70781
 H131 H 0.60592 0.48202 0.69919
 N132 N 0.61268 0.50135 0.73220
 C133 C 0.62183 0.49840 0.78149
 H134 H 0.63426 0.49739 0.78101
 C135 C 0.61424 0.49774 0.79565
 H136 H 0.62093 0.49610 0.80603
 C137 C 0.59807 0.50121 0.76838
 H138 H 0.59182 0.50238 0.75769
 C139 C 0.58998 0.50056 0.78233
 H140 H 0.57753 0.50152 0.78227
 Zn141 Zn 0.62546 0.50049 0.74984
 N142 N 0.61373 0.50027 0.76825
 C143 C 0.63762 0.52859 0.76122
 N144 N 0.63820 0.51811 0.74948
 C145 C 0.64706 0.52051 0.73678
 C146 C 0.65587 0.53386 0.73557
 C147 C 0.64626 0.54207 0.76051
 C148 C 0.62933 0.46875 0.75100
 C149 C 0.63706 0.45460 0.75124
 C150 C 0.66119 0.46811 0.74889
 C151 C 0.65296 0.48205 0.74866
 N152 N 0.63731 0.48208 0.74956
 H153 H 0.63018 0.52674 0.77102
 H154 H 0.64712 0.51210 0.72749
 H155 H 0.66290 0.53555 0.72540
 H156 H 0.64536 0.55041 0.76984
 H157 H 0.61690 0.46916 0.75199
 H158 H 0.63047 0.44414 0.75254
 H159 H 0.67363 0.46825 0.74796
 H160 H 0.65911 0.49279 0.74784
 C161 C 0.59810 0.49887 0.79622
 C162 C 0.59563 0.50416 0.70526
 C163 C 0.65320 0.45414 0.75013
 C164 C 0.65549 0.54489 0.74753
 C165 C 0.26538 0.10279 0.98626
 H166 H 0.25677 0.10259 0.97727
 C167 C 0.27864 0.09360 0.98489
 H168 H 0.28005 0.08616 0.97489
 C169 C 0.27407 0.11292 1.01012
 H170 H 0.27249 0.12076 1.01974
 C171 C 0.28745 0.10392 1.00923
 H172 H 0.29599 0.10495 1.01824
 N173 N 0.26332 0.11215 0.99877
 C174 C 0.21409 0.12207 1.00221
 H175 H 0.21451 0.13454 1.00267
 C176 C 0.20000 0.11460 1.00358
 H177 H 0.18956 0.12142 1.00486
 C178 C 0.22731 0.09813 0.99991
 H179 H 0.23801 0.09176 0.99877
 C180 C 0.21342 0.09016 1.00122
 H181 H 0.21359 0.07768 1.00106
 Zn182 Zn 0.24577 0.12528 0.99943
 N183 N 0.22736 0.11381 1.00032
 C184 C 0.23442 0.13660 0.97108
 N185 N 0.24616 0.13742 0.98141
 C186 C 0.25891 0.14595 0.97851
 C187 C 0.26021 0.15412 0.96476
 C188 C 0.23525 0.14457 0.95721
 C189 C 0.24455 0.13006 1.03096
 C190 C 0.24450 0.13805 1.04495
 C191 C 0.24733 0.16178 1.03093
 C192 C 0.24736 0.15323 1.01718
 N193 N 0.24616 0.13765 1.01747
 H194 H 0.22453 0.12951 0.97341
 H195 H 0.26822 0.14614 0.98678
 H196 H 0.27060 0.16057 0.96251
 H197 H 0.22576 0.14379 0.94917
 H198 H 0.24318 0.11766 1.03082
 H199 H 0.24245 0.13130 1.05513
 H200 H 0.24909 0.17404 1.02992
 H201 H 0.24843 0.15909 1.00629
 C202 C 0.19953 0.09842 1.00313
 C203 C 0.28991 0.09413 0.99647
 C204 C 0.24601 0.15433 1.04538
 C205 C 0.24833 0.15337 0.95382
 C206 C 0.73322 0.39437 0.98821
 H207 H 0.74164 0.39488 0.97901
 C208 C 0.71918 0.40228 0.98687
 H209 H 0.71687 0.40885 0.97657
 C210 C 0.72568 0.38445 1.01243
 H211 H 0.72805 0.37722 1.02222
 C212 C 0.71152 0.39214 1.01156
 H213 H 0.70333 0.39101 1.02092
 N214 N 0.73618 0.38566 1.00084
 C215 C 0.78594 0.37846 1.00285
 H216 H 0.78605 0.36604 1.00393
 C217 C 0.79976 0.38653 1.00313
 H218 H 0.81047 0.38022 1.00456
 C219 C 0.77169 0.40171 1.00016
 H220 H 0.76070 0.40756 0.99915
 C221 C 0.78528 0.41028 1.00043
 H222 H 0.78464 0.42270 0.99936
 Zn223 Zn 0.75450 0.37363 1.00127
 N224 N 0.77230 0.38607 1.00120
 C225 C 0.76575 0.36198 0.97277
 N226 N 0.75438 0.36074 0.98352
 C227 C 0.74211 0.35137 0.98114
 C228 C 0.74088 0.34285 0.96744
 C229 C 0.76498 0.35369 0.95896
 C230 C 0.75684 0.37041 1.03282
 C231 C 0.75760 0.36314 1.04705
 C232 C 0.75546 0.33861 1.03391
 C233 C 0.75472 0.34646 1.01990
 N234 N 0.75524 0.36208 1.01964
 H235 H 0.77524 0.36973 0.97467
 H236 H 0.73306 0.35084 0.98972
 H237 H 0.73083 0.33577 0.96558
 H238 H 0.77415 0.35488 0.95056
 H239 H 0.75763 0.38284 1.03223
 H240 H 0.75960 0.37050 1.05693
 H241 H 0.75420 0.32625 1.03335
 H242 H 0.75362 0.34002 1.00924
 C243 C 0.79957 0.40265 1.00183
 C244 C 0.70803 0.40105 0.99857
 C245 C 0.75678 0.34685 1.04807
 C246 C 0.75233 0.34412 0.95604
 C247 C 0.23227 0.89590 0.48863
 H248 H 0.24083 0.89635 0.47956
 C249 C 0.21844 0.90414 0.48721
 H250 H 0.21654 0.91113 0.47711
 C251 C 0.22424 0.88595 0.51268
 H252 H 0.22630 0.87851 0.52237
 C253 C 0.21029 0.89401 0.51175
 H254 H 0.20182 0.89268 0.52082
 N255 N 0.23491 0.88704 0.50123
 C256 C 0.28456 0.87957 0.50418
 H257 H 0.28465 0.86713 0.50504
 C258 C 0.29835 0.88765 0.50488
 H259 H 0.30908 0.88130 0.50609
 C260 C 0.27036 0.90284 0.50133
 H261 H 0.25940 0.90870 0.50016
 C262 C 0.28394 0.91140 0.50195
 H263 H 0.28329 0.92385 0.50125
 Zn264 Zn 0.25310 0.87484 0.50175
 N265 N 0.27095 0.88720 0.50228
 C266 C 0.26485 0.86366 0.47327
 N267 N 0.25323 0.86237 0.48373
 C268 C 0.24085 0.85327 0.48087
 C269 C 0.23977 0.84510 0.46696
 C270 C 0.26424 0.85571 0.45925
 C271 C 0.25472 0.87080 0.53333
 C272 C 0.25517 0.86305 0.54732
 C273 C 0.25333 0.83891 0.53335
 C274 C 0.25289 0.84716 0.51957
 N275 N 0.25341 0.86284 0.51984
 H276 H 0.27443 0.87119 0.47557
 H277 H 0.23161 0.85270 0.48925
 H278 H 0.22963 0.83826 0.46471
 H279 H 0.27360 0.85694 0.45108
 H280 H 0.25539 0.88325 0.53317
 H281 H 0.25632 0.86964 0.55790
 H282 H 0.25266 0.82645 0.53298
 H283 H 0.25212 0.84104 0.50870
 C284 C 0.29818 0.90379 0.50374
 C285 C 0.20719 0.90318 0.49885
 C286 C 0.25439 0.84689 0.54748
 C287 C 0.25148 0.84645 0.45584
 C288 C 0.76725 0.59709 0.49533
 H289 H 0.75636 0.59161 0.49310
 C290 C 0.78083 0.58830 0.49459
 H291 H 0.78020 0.57613 0.49180
 C292 C 0.78138 0.61937 0.50215
 H293 H 0.78151 0.63143 0.50538
 C294 C 0.79518 0.61103 0.50159
 H295 H 0.80587 0.61691 0.50399
 N296 N 0.76778 0.61241 0.49883
 C297 C 0.72222 0.61492 0.51342
 H298 H 0.72534 0.62270 0.52265
 C299 C 0.70829 0.60709 0.51431
 H300 H 0.70105 0.60872 0.52440
 C301 C 0.72766 0.60352 0.48908
 H302 H 0.73510 0.60249 0.47909
 C303 C 0.71378 0.59545 0.48950
 H304 H 0.71067 0.58820 0.47979
 Zn305 Zn 0.74984 0.62510 0.49978
 N306 N 0.73160 0.61308 0.50093
 C307 C 0.73605 0.63838 0.47337
 N308 N 0.74908 0.63782 0.48204
 C309 C 0.76183 0.64586 0.47794
 C310 C 0.76204 0.65429 0.46430
 C311 C 0.73576 0.64667 0.45964
 C312 C 0.75482 0.63003 0.53108
 C313 C 0.75500 0.63811 0.54503
 C314 C 0.74815 0.66133 0.53134
 C315 C 0.74810 0.65276 0.51760
 N316 N 0.75120 0.63737 0.51779
 H317 H 0.72586 0.63231 0.47699
 H318 H 0.77199 0.64551 0.48505
 H319 H 0.77250 0.66014 0.46099
 H320 H 0.72531 0.64685 0.45285
 H321 H 0.75728 0.61777 0.53085
 H322 H 0.75784 0.63202 0.55550
 H323 H 0.74520 0.67348 0.53108
 H324 H 0.74518 0.65832 0.50687
 C325 C 0.70382 0.59732 0.50218
 C326 C 0.79504 0.59530 0.49769
 C327 C 0.75141 0.65393 0.54532
 C328 C 0.74896 0.65455 0.45481
 C329 C 0.00422 0.23547 0.09917
 H330 H 0.00613 0.24610 0.09314
 C331 C 0.00498 0.22149 0.09103
 H332 H 0.00772 0.22155 0.07885
 C333 C -0.00171 0.22235 0.12224
 H334 H -0.00477 0.22278 0.13433
 C335 C -0.00106 0.20817 0.11458
 H336 H -0.00352 0.19777 0.12092
 N337 N 0.00119 0.23564 0.11458
 C338 C -0.01344 0.28128 0.11469
 H339 H -0.02259 0.27869 0.12270
 C340 C -0.01435 0.29476 0.10609
 H341 H -0.02417 0.30225 0.10812
 C342 C 0.01085 0.27511 0.10376
 H343 H 0.02076 0.26747 0.10307
 C344 C 0.01048 0.28852 0.09496
 H345 H 0.01999 0.29046 0.08715
 Zn346 Zn 0.00031 0.25418 0.12638
 N347 N -0.00097 0.27176 0.11345
 C348 C 0.02671 0.26868 0.13890
 N349 N 0.01817 0.25559 0.13896
 C350 C 0.02246 0.24325 0.14758
 C351 C 0.03615 0.24351 0.15600
 C352 C 0.04048 0.26943 0.14715
 C353 C -0.03092 0.24944 0.13180
 C354 C -0.04465 0.24912 0.14017
 C355 C -0.03058 0.25686 0.16292
 C356 C -0.01707 0.25698 0.15410
 N357 N -0.01753 0.25342 0.13882
 H358 H 0.02294 0.27856 0.13240
 H359 H 0.01545 0.23305 0.14774
 H360 H 0.03960 0.23335 0.16233
 H361 H 0.04717 0.27991 0.14684
 H362 H -0.03092 0.24672 0.11961
 H363 H -0.05524 0.24626 0.13428
 H364 H -0.03005 0.25974 0.17508
 H365 H -0.00627 0.26012 0.15941
 C366 C -0.00221 0.29881 0.09605
 C367 C 0.00247 0.20759 0.09879
 C368 C -0.04462 0.25295 0.15593
 C369 C 0.04549 0.25664 0.15564
 C370 C 0.01250 0.76515 0.39643
 H371 H 0.02167 0.75662 0.39637
 C372 C 0.01397 0.77865 0.40519
 H373 H 0.02423 0.78033 0.41206
 C374 C -0.01189 0.77342 0.38730
 H375 H -0.02176 0.77157 0.37998
 C376 C -0.01091 0.78705 0.39589
 H377 H -0.02010 0.79552 0.39508
 N378 N -0.00029 0.76278 0.38773
 C379 C -0.00252 0.71341 0.37837
 H380 H -0.00359 0.71378 0.36596
 C381 C -0.00289 0.69929 0.38591
 H382 H -0.00437 0.68883 0.37920
 C383 C 0.00019 0.72675 0.40215
 H384 H 0.00123 0.73751 0.40842
 C385 C -0.00016 0.71285 0.41019
 H386 H 0.00088 0.71301 0.42262
 Zn387 Zn -0.00088 0.74507 0.37485
 N388 N -0.00082 0.72674 0.38651
 C389 C 0.02753 0.73410 0.36275
 N390 N 0.01680 0.74560 0.36201
 C391 C 0.01916 0.75826 0.35319
 C392 C 0.03280 0.75975 0.34472
 C393 C 0.04129 0.73511 0.35449
 C394 C -0.03247 0.74310 0.37144
 C395 C -0.04666 0.74235 0.36403
 C396 C -0.03349 0.74530 0.33970
 C397 C -0.01951 0.74595 0.34767
 N398 N -0.01929 0.74496 0.36326
 H399 H 0.02565 0.72428 0.37006
 H400 H 0.01058 0.76739 0.35306
 H401 H 0.03464 0.77010 0.33810
 H402 H 0.04968 0.72584 0.35527
 H403 H -0.03193 0.74232 0.38387
 H404 H -0.05669 0.74171 0.37138
 H405 H -0.03280 0.74547 0.32727
 H406 H -0.00884 0.74699 0.34133
 C407 C -0.00164 0.69886 0.40203
 C408 C 0.00220 0.78987 0.40491
 C409 C -0.04762 0.74340 0.34775
 C410 C 0.04417 0.74816 0.34548
 C411 C 0.51315 0.26619 0.89678
 H412 H 0.52204 0.25738 0.89704
 C413 C 0.51479 0.27971 0.90549
 H414 H 0.52488 0.28111 0.91265
 C415 C 0.48933 0.27518 0.88684
 H416 H 0.47965 0.27362 0.87923
 C417 C 0.49049 0.28882 0.89538
 H418 H 0.48160 0.29758 0.89424
 N419 N 0.50056 0.26418 0.88770
 C420 C 0.49705 0.21485 0.87842
 H421 H 0.49624 0.21521 0.86599
 C422 C 0.49624 0.20077 0.88598
 H423 H 0.49467 0.19032 0.87927
 C424 C 0.49965 0.22819 0.90221
 H425 H 0.50085 0.23893 0.90848
 C426 C 0.49886 0.21432 0.91027
 H427 H 0.49972 0.21450 0.92272
 Zn428 Zn 0.49980 0.24644 0.87486
 N429 N 0.49893 0.22816 0.88655
 C430 C 0.52813 0.23451 0.86345
 N431 N 0.51785 0.24639 0.86254
 C432 C 0.52083 0.25899 0.85383
 C433 C 0.53464 0.25998 0.84558
 C434 C 0.54206 0.23503 0.85540
 C435 C 0.46820 0.24579 0.87035
 C436 C 0.45429 0.24592 0.86235
 C437 C 0.46859 0.24802 0.83852
 C438 C 0.48227 0.24788 0.84700
 N439 N 0.48180 0.24695 0.86264
 H440 H 0.52576 0.22475 0.87068
 H441 H 0.51259 0.26842 0.85357
 H442 H 0.53697 0.27026 0.83900
 H443 H 0.55008 0.22544 0.85627
 H444 H 0.46820 0.24478 0.88277
 H445 H 0.44360 0.24489 0.86872
 H446 H 0.46913 0.24900 0.82610
 H447 H 0.49321 0.24849 0.84108
 C448 C 0.49724 0.20036 0.90212
 C449 C 0.50339 0.29128 0.90479
 C450 C 0.45435 0.24713 0.84623
 C451 C 0.54555 0.24796 0.84645
 C452 C 0.51378 0.73340 0.60478
 H453 H 0.52282 0.74189 0.60412
 C454 C 0.51524 0.71946 0.59668
 H455 H 0.52548 0.71728 0.58981
 C456 C 0.48982 0.72563 0.61520
 H457 H 0.48008 0.72789 0.62268
 C458 C 0.49082 0.71157 0.60734
 H459 H 0.48161 0.70332 0.60860
 N460 N 0.50119 0.73623 0.61379
 C461 C 0.49800 0.78601 0.62060
 H462 H 0.49712 0.78632 0.63304
 C463 C 0.49721 0.79968 0.61230
 H464 H 0.49594 0.81052 0.61848
 C465 C 0.50090 0.77142 0.59753
 H466 H 0.50211 0.76035 0.59183
 C467 C 0.50019 0.78485 0.58876
 H468 H 0.50087 0.78399 0.57631
 Zn469 Zn 0.50049 0.75459 0.62576
 N470 N 0.49995 0.77227 0.61317
 C471 C 0.52879 0.76628 0.63680
 N472 N 0.51838 0.75473 0.63818
 C473 C 0.52117 0.74243 0.64741
 C474 C 0.53493 0.74139 0.65568
 C475 C 0.54267 0.76571 0.64485
 C476 C 0.46888 0.75644 0.62988
 C477 C 0.45480 0.75680 0.63766
 C478 C 0.46856 0.75494 0.66175
 C479 C 0.48243 0.75459 0.65348
 N480 N 0.48230 0.75512 0.63781
 H481 H 0.52655 0.77580 0.62916
 H482 H 0.51285 0.73324 0.64805
 H483 H 0.53712 0.73132 0.66266
 H484 H 0.55079 0.77502 0.64357
 H485 H 0.46915 0.75710 0.61744
 H486 H 0.44426 0.75789 0.63110
 H487 H 0.46882 0.75420 0.67420
 H488 H 0.49324 0.75382 0.65957
 C489 C 0.49832 0.79923 0.59616
 C490 C 0.50372 0.70826 0.59804
 C491 C 0.45450 0.75592 0.65381
 C492 C 0.54598 0.75305 0.65430
 C493 C 0.88662 0.98444 0.72359
 H494 H 0.87926 0.97482 0.72622
 C495 C 0.89449 0.98446 0.71032
 H496 H 0.89365 0.97443 0.70290
 C497 C 0.89685 1.00865 0.73146
 H498 H 0.89731 1.01823 0.73951
 C499 C 0.90584 1.00916 0.71698
 H500 H 0.91241 1.01947 0.71491
 N501 N 0.88789 0.99707 0.73431
 C502 C 0.87841 0.99690 0.78450
 H503 H 0.86594 0.99694 0.78409
 C504 C 0.88562 0.99623 0.79805
 H505 H 0.87861 0.99625 0.80837
 C506 C 0.90202 0.99802 0.77046
 H507 H 0.90833 0.99837 0.75972
 C508 C 0.91053 0.99738 0.78518
 H509 H 0.92296 0.99696 0.78451
 Zn510 Zn 0.87521 0.99788 0.75212
 N511 N 0.88703 0.99785 0.77041
 C512 C 0.87022 0.96661 0.75531
 N513 N 0.86267 0.98018 0.75293
 C514 C 0.84703 0.98082 0.75202
 C515 C 0.83837 0.96735 0.75332
 C516 C 0.86205 0.95293 0.75671
 C517 C 0.86470 1.02722 0.76227
 C518 C 0.85700 1.04134 0.76098
 C519 C 0.84644 1.03268 0.73671
 C520 C 0.85437 1.01870 0.73846
 N521 N 0.86328 1.01624 0.75109
 H522 H 0.88266 0.96647 0.75614
 H523 H 0.84123 0.99177 0.75047
 H524 H 0.82592 0.96805 0.75272
 H525 H 0.86834 0.94224 0.75838
 H526 H 0.87208 1.02524 0.77205
 H527 H 0.85828 1.04990 0.77003
 H528 H 0.83968 1.03456 0.72642
 H529 H 0.85369 1.00990 0.72958
 C530 C 0.90282 0.99635 0.79873
 C531 C 0.90463 0.99770 0.70637
 C532 C 0.84785 1.04429 0.74800
 C533 C 0.84591 0.95316 0.75576
 C534 C 0.39713 0.48942 0.23032
 H535 H 0.39761 0.48019 0.23862
 C536 C 0.40609 0.48854 0.21690
 H537 H 0.41362 0.47867 0.21505
 C538 C 0.38662 0.51343 0.22260
 H539 H 0.37877 0.52296 0.22461
 C540 C 0.39538 0.51304 0.20909
 H541 H 0.39412 0.52231 0.20090
 N542 N 0.38773 0.50181 0.23297
 C543 C 0.37941 0.50543 0.28250
 H544 H 0.36703 0.50697 0.28227
 C545 C 0.38715 0.50535 0.29655
 H546 H 0.38063 0.50705 0.30711
 C547 C 0.40287 0.50148 0.26891
 H548 H 0.40894 0.49996 0.25811
 C549 C 0.41110 0.50133 0.28275
 H550 H 0.42346 0.49949 0.28246
 Zn551 Zn 0.37519 0.50234 0.25094
 N552 N 0.38727 0.50319 0.26907
 C553 C 0.36445 0.47432 0.26318
 N554 N 0.36313 0.48417 0.25113
 C555 C 0.35395 0.48080 0.23889
 C556 C 0.34545 0.46716 0.23860
 C557 C 0.35615 0.46064 0.26339
 C558 C 0.37016 0.53395 0.25271
 C559 C 0.36202 0.54788 0.25246
 C560 C 0.33849 0.53362 0.24886
 C561 C 0.34710 0.51991 0.24922
 N562 N 0.36268 0.52035 0.25088
 H563 H 0.37214 0.47688 0.27259
 H564 H 0.35332 0.48867 0.22930
 H565 H 0.33811 0.46471 0.22883
 H566 H 0.35758 0.45288 0.27300
 H567 H 0.38254 0.53395 0.25412
 H568 H 0.36829 0.55858 0.25353
 H569 H 0.32610 0.53308 0.24750
 H570 H 0.34133 0.50898 0.24808
 C571 C 0.40318 0.50304 0.29683
 C572 C 0.40529 0.50049 0.20608
 C573 C 0.34598 0.54785 0.25042
 C574 C 0.34647 0.45688 0.25101
 C575 C 0.60260 0.99028 0.26635
 H576 H 0.60199 0.98051 0.25854
 C577 C 0.59445 0.99037 0.27948
 H578 H 0.58702 0.98070 0.28172
 C579 C 0.61303 1.01509 0.27154
 H580 H 0.62054 1.02451 0.26873
 C581 C 0.60422 1.01577 0.28607
 H582 H 0.60608 1.02568 0.29344
 N583 N 0.61205 1.00318 0.26240
 C584 C 0.61816 1.00298 0.21251
 H585 H 0.63056 1.00417 0.21195
 C586 C 0.60958 1.00235 0.19896
 H587 H 0.61550 1.00289 0.18798
 C588 C 0.59552 1.00049 0.22760
 H589 H 0.59007 0.99993 0.23879
 C590 C 0.58647 0.99977 0.21432
 H591 H 0.57410 0.99870 0.21542
 Zn592 Zn 0.62393 1.00235 0.24403
 N593 N 0.61109 1.00182 0.22645
 C594 C 0.63521 0.97357 0.23312
 N595 N 0.63637 0.98430 0.24457
 C596 C 0.64575 0.98195 0.25688
 C597 C 0.65466 0.96849 0.25785
 C598 C 0.64391 0.95999 0.23361
 C599 C 0.62838 1.03375 0.24023
 C600 C 0.63621 1.04771 0.24010
 C601 C 0.66001 1.03372 0.24412
 C602 C 0.65166 1.02000 0.24419
 N603 N 0.63609 1.02031 0.24263
 H604 H 0.62737 0.97536 0.22366
 H605 H 0.64625 0.99054 0.26598
 H606 H 0.66217 0.96688 0.26765
 H607 H 0.64263 0.95151 0.22447
 H608 H 0.61601 1.03361 0.23867
 H609 H 0.62955 1.05803 0.23782
 H610 H 0.67225 1.03295 0.24626
 H611 H 0.65763 1.00917 0.24587
 C612 C 0.59352 1.00062 0.19975
 C613 C 0.59515 1.00390 0.29025
 C614 C 0.65231 1.04805 0.24241
 C615 C 0.65381 0.95730 0.24608
 C616 C 0.10307 0.48955 0.76968
 H617 H 0.10222 0.48007 0.76154
 C618 C 0.09466 0.48928 0.78345
 H619 H 0.08718 0.47964 0.78575
 C620 C 0.11394 0.51360 0.77658
 H621 H 0.12171 0.52290 0.77408
 C622 C 0.10575 0.51382 0.79043
 H623 H 0.10734 0.52333 0.79841
 N624 N 0.11236 0.50166 0.76645
 C625 C 0.11798 0.50340 0.71657
 H626 H 0.13040 0.50430 0.71600
 C627 C 0.10935 0.50346 0.70305
 H628 H 0.11525 0.50426 0.69208
 C629 C 0.09533 0.50086 0.73166
 H630 H 0.08991 0.49999 0.74283
 C631 C 0.08623 0.50084 0.71839
 H632 H 0.07383 0.49997 0.71949
 Zn633 Zn 0.12396 0.50131 0.74791
 N634 N 0.11093 0.50186 0.73048
 C635 C 0.13422 0.47265 0.73572
 N636 N 0.13590 0.48292 0.74753
 C637 C 0.14550 0.47989 0.75951
 C638 C 0.15411 0.46619 0.75978
 C639 C 0.14261 0.45886 0.73551
 C640 C 0.12927 0.53273 0.74550
 C641 C 0.13764 0.54638 0.74513
 C642 C 0.16111 0.53138 0.74743
 C643 C 0.15227 0.51798 0.74772
 N644 N 0.13663 0.51893 0.74702
 H645 H 0.12621 0.47499 0.72653
 H646 H 0.14643 0.48813 0.76889
 H647 H 0.16182 0.46405 0.76932
 H648 H 0.14092 0.45077 0.72610
 H649 H 0.11683 0.53313 0.74482
 H650 H 0.13152 0.55727 0.74434
 H651 H 0.17355 0.53045 0.74805
 H652 H 0.15792 0.50689 0.74859
 C653 C 0.09326 0.50204 0.70384
 C654 C 0.09592 0.50157 0.79401
 C655 C 0.15378 0.54583 0.74623
 C656 C 0.15273 0.45548 0.74762
 C657 C 0.76765 0.89779 0.01319
 H658 H 0.75933 0.89848 0.02248
 C659 C 0.78098 0.90673 0.01374
 H660 H 0.78273 0.91448 0.02342
 C661 C 0.77556 0.88669 -0.01063
 H662 H 0.77366 0.87860 -0.01994
 C663 C 0.78898 0.89542 -0.01056
 H664 H 0.79722 0.89391 -0.01986
 N665 N 0.76515 0.88808 0.00107
 C666 C 0.71582 0.87932 -0.00154
 H667 H 0.71628 0.86688 -0.00247
 C668 C 0.70165 0.88699 -0.00190
 H669 H 0.69121 0.88031 -0.00295
 C670 C 0.72897 0.90301 0.00137
 H671 H 0.73966 0.90919 0.00252
 C672 C 0.71500 0.91116 0.00111
 H673 H 0.71507 0.92362 0.00202
 Zn674 Zn 0.74744 0.87543 0.00116
 N675 N 0.72909 0.88735 0.00029
 C676 C 0.73576 0.86546 0.02977
 N677 N 0.74765 0.86387 0.01961
 C678 C 0.76010 0.85484 0.02287
 C679 C 0.76081 0.84681 0.03677
 C680 C 0.73600 0.85767 0.04376
 C681 C 0.74560 0.86959 -0.03023
 C682 C 0.74577 0.86110 -0.04394
 C683 C 0.74975 0.83792 -0.02916
 C684 C 0.74945 0.84688 -0.01568
 N685 N 0.74762 0.86245 -0.01648
 H686 H 0.72612 0.87294 0.02720
 H687 H 0.76956 0.85404 0.01474
 H688 H 0.77089 0.83984 0.03927
 H689 H 0.72634 0.85901 0.05160
 H690 H 0.74405 0.88197 -0.03051
 H691 H 0.74452 0.86708 -0.05477
 H692 H 0.75123 0.82554 -0.02835
 H693 H 0.75072 0.84139 -0.00463
 C694 C 0.70108 0.90312 -0.00045
 C695 C 0.79186 0.90560 0.00174
 C696 C 0.74795 0.84505 -0.04353
 C697 C 0.74867 0.84826 0.04746
 C698 C 0.26815 0.40324 0.50162
 H699 H 0.25699 0.40881 0.50251
 C700 C 0.28145 0.41221 0.50092
 H701 H 0.28040 0.42466 0.50130
 C702 C 0.28310 0.38033 0.49941
 H703 H 0.28359 0.36787 0.49875
 C704 C 0.29664 0.38882 0.49864
 H705 H 0.30757 0.38277 0.49762
 N706 N 0.26923 0.38759 0.50096
 C707 C 0.22282 0.38472 0.48967
 H708 H 0.22538 0.37717 0.48003
 C709 C 0.20861 0.39233 0.49031
 H710 H 0.20055 0.39082 0.48092
 C711 C 0.22997 0.39555 0.51374
 H712 H 0.23828 0.39647 0.52297
 C713 C 0.21587 0.40340 0.51485
 H714 H 0.21339 0.41034 0.52500
 Zn715 Zn 0.25172 0.37474 0.50110
 N716 N 0.23318 0.38644 0.50128
 C717 C 0.23943 0.35300 0.52146
 N718 N 0.25163 0.36244 0.51903
 C719 C 0.26284 0.36413 0.52982
 C720 C 0.26200 0.35622 0.54373
 C721 C 0.23813 0.34486 0.53523
 C722 C 0.25430 0.37049 0.46955
 C723 C 0.25513 0.36268 0.45546
 C724 C 0.25340 0.33858 0.46910
 C725 C 0.25257 0.34689 0.48298
 N726 N 0.25282 0.36257 0.48291
 H727 H 0.23050 0.35211 0.51283
 H728 H 0.27228 0.37192 0.52786
 H729 H 0.27104 0.35776 0.55217
 H730 H 0.22813 0.33773 0.53712
 H731 H 0.25473 0.38295 0.46987
 H732 H 0.25635 0.36924 0.44498
 H733 H 0.25290 0.32611 0.46930
 H734 H 0.25166 0.34080 0.49376
 C735 C 0.20490 0.40171 0.50309
 C736 C 0.29595 0.40499 0.49936
 C737 C 0.25456 0.34651 0.45508
 C738 C 0.24942 0.34658 0.54668
 C739 C 0.23071 0.60279 0.01110
 H740 H 0.23850 0.60193 0.02077
 C741 C 0.21701 0.59440 0.01110
 H742 H 0.21499 0.58675 0.02065
 C743 C 0.22448 0.61366 -0.01300
 H744 H 0.22716 0.62146 -0.02223
 C745 C 0.21074 0.60546 -0.01353
 H746 H 0.20316 0.60761 -0.02315
 N747 N 0.23420 0.61220 -0.00084
 C748 C 0.28401 0.61839 -0.00384
 H749 H 0.28416 0.63041 -0.00698
 C750 C 0.29778 0.60997 -0.00367
 H751 H 0.30847 0.61576 -0.00626
 C752 C 0.26987 0.59626 0.00310
 H753 H 0.25900 0.59085 0.00553
 C754 C 0.28341 0.58739 0.00346
 H755 H 0.28274 0.57525 0.00615
 Zn756 Zn 0.25246 0.62428 -0.00044
 N757 N 0.27043 0.61155 -0.00024
 C758 C 0.26511 0.64578 0.02057
 N759 N 0.25236 0.63733 0.01733
 C760 C 0.23983 0.63781 0.02682
 C761 C 0.24008 0.64650 0.04045
 C762 C 0.26585 0.65461 0.03408
 C763 C 0.25637 0.62886 -0.03198
 C764 C 0.25600 0.63681 -0.04587
 C765 C 0.24942 0.66010 -0.03173
 C766 C 0.24990 0.65167 -0.01807
 N767 N 0.25315 0.63631 -0.01848
 H768 H 0.27481 0.64558 0.01278
 H769 H 0.22964 0.63135 0.02394
 H770 H 0.23016 0.64631 0.04805
 H771 H 0.27615 0.66116 0.03648
 H772 H 0.25893 0.61663 -0.03194
 H773 H 0.25855 0.63065 -0.05649
 H774 H 0.24637 0.67223 -0.03126
 H775 H 0.24729 0.65731 -0.00720
 C776 C 0.29762 0.59427 0.00013
 C777 C 0.20661 0.59560 -0.00135
 C778 C 0.25229 0.65261 -0.04590
 C779 C 0.25331 0.65486 0.04435
 C780 C 0.72232 0.11382 0.50995
 H781 H 0.72452 0.12113 0.51982
 C782 C 0.70834 0.10605 0.50893
 H783 H 0.70007 0.10721 0.51825
 C784 C 0.73022 0.10370 0.48570
 H785 H 0.73872 0.10313 0.47656
 C786 C 0.71638 0.09572 0.48421
 H787 H 0.71430 0.08904 0.47383
 N788 N 0.73293 0.11253 0.49842
 C789 C 0.78268 0.11879 0.50050
 H790 H 0.78294 0.13125 0.50131
 C791 C 0.79639 0.11032 0.50097
 H792 H 0.80719 0.11636 0.50226
 C793 C 0.76814 0.09587 0.49835
 H794 H 0.75708 0.09030 0.49750
 C795 C 0.78161 0.08691 0.49883
 H796 H 0.78081 0.07448 0.49807
 Zn797 Zn 0.75118 0.12433 0.49892
 N798 N 0.76894 0.11152 0.49903
 C799 C 0.75327 0.12857 0.53057
 N800 N 0.75188 0.13642 0.51715
 C801 C 0.75178 0.15211 0.51695
 C802 C 0.75292 0.16051 0.53073
 C803 C 0.75445 0.13649 0.54456
 C804 C 0.76251 0.13529 0.47038
 C805 C 0.76178 0.14350 0.45664
 C806 C 0.73759 0.15471 0.46512
 C807 C 0.73878 0.14627 0.47872
 N808 N 0.75110 0.13679 0.48109
 H809 H 0.75348 0.11610 0.53036
 H810 H 0.75102 0.15813 0.50613
 H811 H 0.75301 0.17299 0.53037
 H812 H 0.75532 0.12999 0.55513
 H813 H 0.77204 0.12746 0.47228
 H814 H 0.77100 0.14214 0.44828
 H815 H 0.72752 0.16191 0.46328
 H816 H 0.72970 0.14701 0.48728
 C817 C 0.79599 0.09416 0.50008
 C818 C 0.70515 0.09696 0.49587
 C819 C 0.74912 0.15325 0.45378
 C820 C 0.75433 0.15268 0.54478
 C821 C 0.98836 0.73041 0.89798
 H822 H 0.97896 0.73859 0.89937
 C823 C 0.98818 0.71705 0.90561
 H824 H 0.97832 0.71466 0.91281
 C825 C 1.01195 0.72400 0.88527
 H826 H 1.02100 0.72646 0.87712
 C827 C 1.01231 0.70920 0.89344
 H828 H 1.02232 0.70193 0.89156
 N829 N 1.00080 0.73386 0.88764
 C830 C 1.00250 0.78452 0.88192
 H831 H 1.00391 0.78484 0.86953
 C832 C 1.00230 0.79762 0.89011
 H833 H 1.00410 0.80829 0.88404
 C834 C 1.00018 0.76905 0.90435
 H835 H 0.99931 0.75795 0.90982
 C836 C 0.99989 0.78323 0.91393
 H837 H 0.99814 0.78185 0.92617
 Zn838 Zn 1.00031 0.75244 0.87627
 N839 N 1.00096 0.76993 0.88941
 C840 C 0.97150 0.76456 0.86715
 N841 N 0.98179 0.75285 0.86476
 C842 C 0.97858 0.74099 0.85496
 C843 C 0.96460 0.74070 0.84697
 C844 C 0.95743 0.76472 0.85945
 C845 C 1.03162 0.75483 0.87070
 C846 C 1.04538 0.75449 0.86238
 C847 C 1.03069 0.75170 0.83892
 C848 C 1.01715 0.75207 0.84773
 N849 N 1.01790 0.75326 0.86336
 H850 H 0.97404 0.77372 0.87522
 H851 H 0.98682 0.73165 0.85350
 H852 H 0.96214 0.73105 0.83940
 H853 H 0.94948 0.77423 0.86145
 H854 H 1.03185 0.75596 0.88312
 H855 H 1.05618 0.75560 0.86849
 H856 H 1.02995 0.75024 0.82654
 H857 H 1.00612 0.75108 0.84210
 C858 C 1.00050 0.79726 0.90723
 C859 C 1.00090 0.70549 0.90334
 C860 C 1.04506 0.75263 0.84630
 C861 C 0.95377 0.75264 0.84927
 C862 C 0.48898 0.23125 0.39671
 H863 H 0.47974 0.23954 0.39846
 C864 C 0.48865 0.21708 0.40430
 H865 H 0.47909 0.21453 0.41189
 C866 C 0.51231 0.22419 0.38415
 H867 H 0.52138 0.22679 0.37606
 C868 C 0.51242 0.20994 0.39144
 H869 H 0.52181 0.20194 0.38913
 N870 N 0.50076 0.23456 0.38693
 C871 C 0.50319 0.28452 0.38227
 H872 H 0.50407 0.28501 0.36985
 C873 C 0.50360 0.29807 0.39100
 H874 H 0.50464 0.30899 0.38516
 C875 C 0.50036 0.26959 0.40485
 H876 H 0.49922 0.25845 0.41018
 C877 C 0.50066 0.28291 0.41405
 H878 H 0.49977 0.28189 0.42645
 Zn879 Zn 0.50047 0.25334 0.37590
 N880 N 0.50137 0.27067 0.38924
 C881 C 0.47184 0.26592 0.36665
 N882 N 0.48200 0.25409 0.36434
 C883 C 0.47879 0.24231 0.35444
 C884 C 0.46496 0.24226 0.34622
 C885 C 0.45791 0.26633 0.35870
 C886 C 0.53181 0.25530 0.37021
 C887 C 0.54549 0.25501 0.36176
 C888 C 0.53056 0.25305 0.33837
 C889 C 0.51711 0.25336 0.34730
 N890 N 0.51801 0.25413 0.36294
 H891 H 0.47439 0.27501 0.37479
 H892 H 0.48692 0.23288 0.35306
 H893 H 0.46250 0.23270 0.33853
 H894 H 0.45007 0.27594 0.36059
 H895 H 0.53216 0.25612 0.38265
 H896 H 0.55637 0.25581 0.36779
 H897 H 0.52969 0.25196 0.32596
 H898 H 0.50602 0.25272 0.34173
 C899 C 0.50222 0.29739 0.40710
 C900 C 0.50044 0.20617 0.40160
 C901 C 0.54500 0.25361 0.34564
 C902 C 0.45428 0.25437 0.34836
 C903 C 0.98898 0.26762 0.60319
 H904 H 0.97971 0.25938 0.60244
 C905 C 0.98841 0.28109 0.59446
 H906 H 0.97879 0.28258 0.58671
 C907 C 1.01278 0.27503 0.61403
 H908 H 1.02205 0.27293 0.62202
 C909 C 1.01274 0.28857 0.60551
 H910 H 1.02200 0.29658 0.60756
 N911 N 1.00111 0.26478 0.61264
 C912 C 1.00405 0.21523 0.62031
 H913 H 1.00542 0.21545 0.63271
 C914 C 1.00387 0.20118 0.61241
 H915 H 1.00530 0.19060 0.61880
 C916 C 1.00062 0.22888 0.59701
 H917 H 0.99934 0.23970 0.59107
 C918 C 1.00038 0.21504 0.58862
 H919 H 0.99871 0.21535 0.57626
 Zn920 Zn 1.00125 0.24680 0.62491
 N921 N 1.00210 0.22869 0.61261
 C922 C 0.97285 0.23497 0.63511
 N923 N 0.98290 0.24680 0.63686
 C924 C 0.97955 0.25901 0.64629
 C925 C 0.96567 0.25951 0.65455
 C926 C 0.95890 0.23501 0.64310
 C927 C 1.03268 0.24481 0.62991
 C928 C 1.04656 0.24549 0.63789
 C929 C 1.03219 0.24937 0.66150
 C930 C 1.01854 0.24863 0.65299
 N931 N 1.01906 0.24672 0.63744
 H932 H 0.97547 0.22554 0.62732
 H933 H 0.98758 0.26844 0.64722
 H934 H 0.96307 0.26940 0.66183
 H935 H 0.95115 0.22540 0.64160
 H936 H 1.03273 0.24296 0.61756
 H937 H 1.05704 0.24354 0.63136
 H938 H 1.03122 0.25171 0.67372
 H939 H 1.00758 0.24992 0.65881
 C940 C 1.00175 0.20094 0.59638
 C941 C 1.00045 0.29195 0.59542
 C942 C 1.04665 0.24813 0.65398
 C943 C 0.95509 0.24743 0.65290
 C944 C 0.48893 0.76883 0.10333
 H945 H 0.47964 0.76063 0.10251
 C946 C 0.48855 0.78226 0.09452
 H947 H 0.47900 0.78421 0.08675
 C948 C 0.51259 0.77631 0.11459
 H949 H 0.52177 0.77419 0.12268
 C950 C 0.51268 0.78982 0.10600
 H951 H 0.52198 0.79792 0.10762
 N952 N 0.50090 0.76606 0.11304
 C953 C 0.50326 0.71654 0.12115
 H954 H 0.50425 0.71685 0.13358
 C955 C 0.50325 0.70243 0.11336
 H956 H 0.50445 0.69190 0.11987
 C957 C 0.50062 0.73002 0.09765
 H958 H 0.49959 0.74080 0.09159
 C959 C 0.50058 0.71611 0.08935
 H960 H 0.49930 0.71633 0.07695
 Zn961 Zn 0.50064 0.74816 0.12545
 N962 N 0.50163 0.72995 0.11329
 C963 C 0.47187 0.73665 0.13503
 N964 N 0.48200 0.74839 0.13697
 C965 C 0.47857 0.76064 0.14631
 C966 C 0.46453 0.76129 0.15429
 C967 C 0.45775 0.73684 0.14275
 C968 C 0.53196 0.74587 0.13123
 C969 C 0.54560 0.74591 0.13967
 C970 C 0.53061 0.74989 0.16290
 C971 C 0.51720 0.74972 0.15399
 N972 N 0.51814 0.74797 0.13842
 H973 H 0.47455 0.72718 0.12731
 H974 H 0.48667 0.76999 0.14740
 H975 H 0.46189 0.77121 0.16151
 H976 H 0.44995 0.72729 0.14112
 H977 H 0.53235 0.74439 0.11884
 H978 H 0.55648 0.74462 0.13363
 H979 H 0.52968 0.75134 0.17528
 H980 H 0.50609 0.75107 0.15952
 C981 C 0.50165 0.70206 0.09726
 C982 C 0.50056 0.79296 0.09580
 C983 C 0.54505 0.74805 0.15572
 C984 C 0.45387 0.74930 0.15247
 O985 O -0.01122 0.98990 0.96061
 O986 O 0.01416 0.99761 0.96001
 O987 O -0.01280 0.95760 0.99799
 O988 O -0.00813 0.95747 1.02315
 O989 O -0.04753 0.99381 0.99455
 O990 O -0.04771 1.02051 1.00052
 O991 O 0.02599 1.00057 1.03790
 O992 O 0.02786 0.97590 1.02808
 O993 O 0.03012 1.03086 1.00098
 O994 O 0.01765 1.03355 0.97590
 O995 O -0.00614 1.03689 1.03237
 O996 O -0.03076 1.02477 1.03667
 O997 O 0.00459 1.01327 1.04660
 O998 O -0.02340 1.00557 1.04710
 O999 O 0.00603 1.04511 1.01079
 O1000 O -0.00177 1.04407 0.98304
 O1001 O 0.03917 1.01024 1.01424
 O1002 O 0.03903 0.98338 1.00392
 O1003 O -0.03248 1.00306 0.96907
 O1004 O -0.03598 1.02811 0.98107
 O1005 O -0.03854 0.97296 1.00751
 O1006 O -0.02546 0.97196 1.03290
 O1007 O -0.00103 0.96577 0.97613
 O1008 O 0.02442 0.97840 0.97454
 Zr1009 Zr 0.00310 0.98935 0.98008
 O1010 O 0.01759 1.00401 0.99282
 Zr1011 Zr -0.01513 0.97769 1.01158
 O1012 O -0.00098 0.99142 1.02569
 Zr1013 Zr -0.02817 1.00809 0.99249
 O1014 O -0.01502 1.02328 1.00612
 Zr1015 Zr 0.02041 0.99507 1.01502
 O1016 O 0.00706 0.97949 1.00184
 Zr1017 Zr 0.00697 1.02558 0.99628
 O1018 O -0.00674 1.01160 0.98180
 Zr1019 Zr -0.01082 1.01354 1.02783
 O1020 O -0.02587 0.99930 1.01492
 O1021 O -0.01868 0.98620 0.98959
 O1022 O 0.01089 1.01702 1.01828
 C1023 C -0.02457 0.99609 0.95847
 C1024 C -0.00697 0.95520 0.98452
 C1025 C -0.04940 0.98066 1.00098
 C1026 C 0.01826 1.00772 1.04846
 C1027 C 0.04086 1.02355 1.00809
 C1028 C 0.00047 1.04735 1.02437
 H1029 H 0.02762 1.00487 0.98746
 H1030 H -0.02050 1.03329 1.00700
 H1031 H -0.02520 0.97934 0.98323
 H1032 H 0.00037 0.98639 1.03578
 H1033 H 0.02554 0.96658 1.02186
 H1034 H 0.00134 0.96008 1.02887
 H1035 H -0.01113 1.04812 0.98826
 H1036 H -0.02771 1.03102 0.97379
 H1037 H 0.04820 0.98417 1.01067
 H1038 H 0.02306 0.97195 0.96515
 H1039 H -0.03448 1.03200 1.02872
 H1040 H -0.04928 1.01744 1.01137
 H1041 H 0.01069 1.00842 0.95868
 H1042 H 0.02576 1.02599 0.97294
 H1043 H -0.03376 0.97964 1.03485
 H1044 H -0.01780 0.99660 1.05136
 O1045 O 0.49107 0.49229 0.45808
 O1046 O 0.51658 0.49946 0.45741
 O1047 O 0.48924 0.45954 0.49519
 O1048 O 0.49381 0.45907 0.52033
 O1049 O 0.45506 0.49639 0.49217
 O1050 O 0.45538 0.52300 0.49864
 O1051 O 0.52896 0.50127 0.53529
 O1052 O 0.53031 0.47671 0.52515
 O1053 O 0.53346 0.53190 0.49860
 O1054 O 0.52082 0.53516 0.47370
 O1055 O 0.49753 0.53824 0.53039
 O1056 O 0.47277 0.52670 0.53475
 O1057 O 0.50782 0.51423 0.54426
 O1058 O 0.47962 0.50705 0.54474
 O1059 O 0.50974 0.54650 0.50885
 O1060 O 0.50168 0.54598 0.48115
 O1061 O 0.54221 0.51097 0.51158
 O1062 O 0.54146 0.48424 0.50101
 O1063 O 0.47016 0.50580 0.46684
 O1064 O 0.46715 0.53071 0.47923
 O1065 O 0.46375 0.47523 0.50483
 O1066 O 0.47688 0.47381 0.53026
 O1067 O 0.50094 0.46771 0.47330
 O1068 O 0.52659 0.47993 0.47166
 Zr1069 Zr 0.50550 0.49119 0.47746
 O1070 O 0.52035 0.50542 0.49029
 Zr1071 Zr 0.48724 0.47953 0.50895
 O1072 O 0.50175 0.49280 0.52312
 Zr1073 Zr 0.47466 0.51038 0.49030
 O1074 O 0.48818 0.52514 0.50402
 Zr1075 Zr 0.52315 0.49617 0.51236
 O1076 O 0.50941 0.48101 0.49909
 Zr1077 Zr 0.51016 0.52715 0.49407
 O1078 O 0.49609 0.51360 0.47952
 Zr1079 Zr 0.49234 0.51507 0.52558
 O1080 O 0.47692 0.50129 0.51261
 O1081 O 0.48373 0.48835 0.48708
 O1082 O 0.51406 0.51825 0.51594
 C1083 C 0.47786 0.49882 0.45610
 C1084 C 0.49493 0.45716 0.48167
 C1085 C 0.45300 0.48317 0.49839
 C1086 C 0.52139 0.50838 0.54599
 C1087 C 0.54412 0.52429 0.50552
 C1088 C 0.50432 0.54867 0.52250
 H1089 H 0.53035 0.50615 0.48486
 H1090 H 0.48291 0.53525 0.50506
 H1091 H 0.47707 0.48168 0.48065
 H1092 H 0.50306 0.48762 0.53314
 H1093 H 0.52775 0.46751 0.51885
 H1094 H 0.50347 0.46136 0.52587
 H1095 H 0.49248 0.55019 0.48653
 H1096 H 0.47545 0.53359 0.47197
 H1097 H 0.55069 0.48476 0.50770
 H1098 H 0.52505 0.47359 0.46221
 H1099 H 0.46898 0.53388 0.52679
 H1100 H 0.45378 0.51975 0.50944
 H1101 H 0.51334 0.51036 0.45624
 H1102 H 0.52875 0.52749 0.47058
 H1103 H 0.46863 0.48153 0.53224
 H1104 H 0.48512 0.49798 0.54893
 O1105 O 0.47265 0.00426 0.53072
 O1106 O 0.46978 0.02816 0.51936
 O1107 O 0.46709 -0.02785 0.49320
 O1108 O 0.47825 -0.03311 0.47059
 O1109 O 0.50525 -0.03299 0.52494
 O1110 O 0.52935 -0.02045 0.52757
 O1111 O 0.50788 0.01139 0.45199
 O1112 O 0.48301 0.00270 0.45199
 O1113 O 0.51113 0.04446 0.48740
 O1114 O 0.50481 0.04520 0.51474
 O1115 O 0.54443 0.00909 0.48420
 O1116 O 0.54550 -0.01775 0.49085
 O1117 O 0.52951 -0.00084 0.46045
 O1118 O 0.53327 -0.02656 0.47343
 O1119 O 0.53560 0.03050 0.49673
 O1120 O 0.52318 0.03373 0.52269
 O1121 O 0.49883 0.03522 0.46623
 O1122 O 0.47268 0.02375 0.46701
 O1123 O 0.49447 -0.00755 0.53934
 O1124 O 0.52133 -0.00050 0.53868
 O1125 O 0.49256 -0.04225 0.50400
 O1126 O 0.50045 -0.04180 0.47649
 O1127 O 0.45825 -0.00673 0.50626
 O1128 O 0.45868 0.02018 0.49695
 Zr1129 Zr 0.47731 0.00812 0.50729
 O1130 O 0.49037 0.02280 0.49327
 Zr1131 Zr 0.49051 -0.02325 0.48918
 O1132 O 0.50369 -0.00980 0.47405
 Zr1133 Zr 0.50890 -0.00963 0.51982
 O1134 O 0.52328 0.00404 0.50601
 Zr1135 Zr 0.49382 0.01222 0.47169
 O1136 O 0.47941 -0.00196 0.48518
 Zr1137 Zr 0.51259 0.02550 0.50231
 O1138 O 0.49890 0.01237 0.51747
 Zr1139 Zr 0.52539 -0.00577 0.48385
 O1140 O 0.51275 -0.02062 0.49840
 O1141 O 0.48711 -0.01352 0.51086
 O1142 O 0.51587 0.01604 0.48038
 C1143 C 0.48091 -0.00175 0.54144
 C1144 C 0.45634 -0.02007 0.50003
 C1145 C 0.49883 -0.04394 0.51730
 C1146 C 0.52147 0.00570 0.44987
 C1147 C 0.50536 0.04609 0.47388
 C1148 C 0.54625 0.02272 0.48979
 H1149 H 0.48488 0.03278 0.49225
 H1150 H 0.53339 0.00512 0.51109
 H1151 H 0.48070 -0.02005 0.51759
 H1152 H 0.50447 -0.01512 0.46395
 H1153 H 0.47336 -0.00211 0.45563
 H1154 H 0.48021 -0.02658 0.46153
 H1155 H 0.53221 0.02705 0.52481
 H1156 H 0.51711 0.00998 0.54066
 H1157 H 0.47364 0.02883 0.45685
 H1158 H 0.44931 0.01889 0.50339
 H1159 H 0.54814 -0.01402 0.50131
 H1160 H 0.53290 -0.02731 0.51907
 H1161 H 0.47866 0.03186 0.52544
 H1162 H 0.49452 0.04805 0.51075
 H1163 H 0.51024 -0.04454 0.48165
 H1164 H 0.52656 -0.02878 0.46450
 O1165 O 0.04531 0.50974 0.98992
 O1166 O 0.04591 0.48434 0.99762
 O1167 O 0.00892 0.51110 0.95629
 O1168 O -0.01616 0.50632 0.95523
 O1169 O 0.01083 0.54590 0.99261
 O1170 O 0.00413 0.54601 1.01908
 O1171 O -0.03195 0.47218 0.99765
 O1172 O -0.02127 0.47031 0.97342
 O1173 O 0.00407 0.46814 1.02935
 O1174 O 0.02892 0.48068 1.03294
 O1175 O -0.02776 0.50434 1.03428
 O1176 O -0.03195 0.52892 1.02198
 O1177 O -0.04121 0.49353 1.01009
 O1178 O -0.04173 0.52150 1.00248
 O1179 O -0.00632 0.49231 1.04328
 O1180 O 0.02138 0.50011 1.04317
 O1181 O -0.00849 0.45907 1.00826
 O1182 O 0.00268 0.45922 0.98184
 O1183 O 0.03622 0.53096 1.00274
 O1184 O 0.02346 0.53439 1.02732
 O1185 O -0.00136 0.53681 0.97131
 O1186 O -0.02651 0.52360 0.96933
 O1187 O 0.03064 0.49944 0.96520
 O1188 O 0.03209 0.47400 0.97789
 Zr1189 Zr 0.02601 0.49530 0.98863
 O1190 O 0.01295 0.48074 1.00280
 Zr1191 Zr -0.00530 0.51337 0.97586
 O1192 O -0.01968 0.49917 0.98907
 Zr1193 Zr 0.01271 0.52652 1.00692
 O1194 O -0.00123 0.51330 1.02160
 Zr1195 Zr -0.00894 0.47782 0.99308
 O1196 O 0.00460 0.49123 0.97800
 Zr1197 Zr 0.00873 0.49133 1.02424
 O1198 O 0.02350 0.50513 1.01080
 Zr1199 Zr -0.02259 0.50900 1.01110
 O1200 O -0.00941 0.52411 0.99733
 O1201 O 0.01638 0.51705 0.98514
 O1202 O -0.01296 0.48731 1.01491
 C1203 C 0.04711 0.52309 0.99620
 C1204 C 0.02249 0.50532 0.95435
 C1205 C 0.00475 0.54773 0.97925
 C1206 C -0.04280 0.47988 1.00439
 C1207 C -0.00272 0.45738 1.02177
 C1208 C -0.01999 0.49785 1.04504
 H1209 H 0.01837 0.47073 1.00385
 H1210 H -0.00245 0.51877 1.03157
 H1211 H 0.02288 0.52361 0.97852
 H1212 H -0.02959 0.49779 0.98366
 H1213 H -0.01476 0.47264 0.96435
 H1214 H -0.02186 0.49681 0.95763
 H1215 H 0.01601 0.50950 1.04699
 H1216 H 0.03074 0.52616 1.03048
 H1217 H -0.00401 0.45002 0.98236
 H1218 H 0.04166 0.47539 0.97179
 H1219 H -0.02427 0.53267 1.02950
 H1220 H -0.00663 0.54755 1.01564
 H1221 H 0.04686 0.48780 1.00847
 H1222 H 0.03221 0.47262 1.02547
 H1223 H -0.02883 0.53185 0.97696
 H1224 H -0.04561 0.51593 0.99330
 O1225 O 0.00814 0.45192 0.50739
 O1226 O 0.00137 0.45131 0.48172
 O1227 O 0.04171 0.48819 0.51005
 O1228 O 0.04291 0.51324 0.50501
 O1229 O 0.00446 0.48645 0.54340
 O1230 O -0.02199 0.49335 0.54261
 O1231 O 0.00153 0.52915 0.46946
 O1232 O 0.02580 0.51835 0.46844
 O1233 O -0.03006 0.49330 0.46446
 O1234 O -0.03395 0.46844 0.47685
 O1235 O -0.03602 0.52519 0.50036
 O1236 O -0.02449 0.52943 0.52529
 O1237 O -0.01156 0.53851 0.49034
 O1238 O -0.00473 0.53906 0.51858
 O1239 O -0.04467 0.50373 0.48811
 O1240 O -0.04470 0.47601 0.49595
 O1241 O -0.00873 0.50573 0.45605
 O1242 O 0.01768 0.49441 0.45710
 O1243 O -0.00529 0.46112 0.52814
 O1244 O -0.02994 0.47405 0.53074
 O1245 O 0.02596 0.49861 0.53502
 O1246 O 0.02831 0.52375 0.52184
 O1247 O 0.03322 0.46645 0.49812
 O1248 O 0.02137 0.46509 0.47214
 Zr1249 Zr 0.00994 0.47121 0.49301
 O1250 O -0.00384 0.48428 0.47794
 Zr1251 Zr 0.02210 0.50252 0.51144
 O1252 O 0.00931 0.51692 0.49675
 Zr1253 Zr -0.00930 0.48466 0.52355
 O1254 O -0.02359 0.49863 0.50980
 Zr1255 Zr 0.00594 0.50612 0.47530
 O1256 O 0.02065 0.49258 0.48926
 Zr1257 Zr -0.02559 0.48861 0.48778
 O1258 O -0.01252 0.47383 0.50206
 Zr1259 Zr -0.01299 0.51994 0.50582
 O1260 O 0.00033 0.50674 0.52143
 O1261 O 0.01273 0.48088 0.51484
 O1262 O -0.01616 0.51026 0.48404
 C1263 C 0.00146 0.45017 0.52051
 C1264 C 0.04385 0.47455 0.50446
 C1265 C 0.01775 0.49248 0.54566
 C1266 C -0.00546 0.54005 0.47690
 C1267 C -0.02220 0.50007 0.45395
 C1268 C -0.04660 0.51744 0.49355
 H1269 H -0.00460 0.47884 0.46791
 H1270 H -0.03372 0.49990 0.51493
 H1271 H 0.01914 0.47436 0.52165
 H1272 H 0.01474 0.52681 0.49554
 H1273 H 0.03480 0.51180 0.47109
 H1274 H 0.04076 0.51901 0.49547
 H1275 H -0.04885 0.48145 0.50515
 H1276 H -0.03285 0.46675 0.52243
 H1277 H 0.01742 0.50109 0.44789
 H1278 H 0.02748 0.45552 0.47378
 H1279 H -0.03201 0.52173 0.52888
 H1280 H -0.01855 0.50409 0.54426
 H1281 H -0.00962 0.45046 0.48468
 H1282 H -0.02628 0.46515 0.46901
 H1283 H 0.02045 0.52610 0.52984
 H1284 H 0.00456 0.54294 0.51329
 O1285 O 0.46561 0.99283 -0.03726
 O1286 O 0.46322 0.96896 -0.02581
 O1287 O 0.45941 1.02503 0.00020
 O1288 O 0.47032 1.03020 0.02283
 O1289 O 0.49753 1.03026 -0.03160
 O1290 O 0.52179 1.01772 -0.03450
 O1291 O 0.50101 0.98588 0.04129
 O1292 O 0.47592 0.99452 0.04143
 O1293 O 0.50506 0.95286 0.00595
 O1294 O 0.49864 0.95198 -0.02133
 O1295 O 0.53748 0.98840 0.00875
 O1296 O 0.53786 1.01533 0.00209
 O1297 O 0.52241 0.99809 0.03261
 O1298 O 0.52560 1.02387 0.01980
 O1299 O 0.52917 0.96695 -0.00375
 O1300 O 0.51666 0.96359 -0.02956
 O1301 O 0.49250 0.96206 0.02716
 O1302 O 0.46608 0.97336 0.02651
 O1303 O 0.48716 1.00479 -0.04597
 O1304 O 0.51414 0.99778 -0.04552
 O1305 O 0.48468 1.03950 -0.01058
 O1306 O 0.49238 1.03903 0.01688
 O1307 O 0.45098 1.00384 -0.01273
 O1308 O 0.45196 0.97694 -0.00333
 Zr1309 Zr 0.47034 0.98904 -0.01383
 O1310 O 0.48372 0.97441 0.00012
 Zr1311 Zr 0.48289 1.02045 0.00419
 O1312 O 0.49634 1.00708 0.01925
 Zr1313 Zr 0.50157 1.00689 -0.02656
 O1314 O 0.51623 0.99329 -0.01285
 Zr1315 Zr 0.48695 0.98501 0.02167
 O1316 O 0.47224 0.99912 0.00827
 Zr1317 Zr 0.50599 0.97178 -0.00905
 O1318 O 0.49202 0.98486 -0.02413
 Zr1319 Zr 0.51812 1.00313 0.00929
 O1320 O 0.50517 1.01791 -0.00518
 O1321 O 0.47970 1.01072 -0.01747
 O1322 O 0.50907 0.98128 0.01283
 C1323 C 0.47374 0.99891 -0.04801
 C1324 C 0.44882 1.01722 -0.00655
 C1325 C 0.49098 1.04122 -0.02388
 C1326 C 0.51453 0.99152 0.04325
 C1327 C 0.49935 0.95123 0.01952
 C1328 C 0.53965 0.97482 0.00309
 H1329 H 0.47845 0.96441 0.00120
 H1330 H 0.52636 0.99226 -0.01801
 H1331 H 0.47318 1.01724 -0.02417
 H1332 H 0.49702 1.01239 0.02935
 H1333 H 0.46615 0.99924 0.03785
 H1334 H 0.47250 1.02374 0.03191
 H1335 H 0.52552 0.97032 -0.03179
 H1336 H 0.51007 0.98732 -0.04752
 H1337 H 0.46715 0.96832 0.03668
 H1338 H 0.44256 0.97819 -0.00971
 H1339 H 0.54074 1.01145 -0.00828
 H1340 H 0.52527 1.02456 -0.02603
 H1341 H 0.47220 0.96523 -0.03189
 H1342 H 0.48841 0.94911 -0.01725
 H1343 H 0.50220 1.04173 0.01177
 H1344 H 0.51883 1.02604 0.02877
 O1345 O 0.45844 0.50352 0.01148
 O1346 O 0.45851 0.47805 0.00347
 O1347 O 0.49483 0.50552 0.04502
 O1348 O 0.52004 0.50092 0.04597
 O1349 O 0.49193 0.53996 0.00899
 O1350 O 0.49856 0.53993 -0.01750
 O1351 O 0.53670 0.46665 0.00308
 O1352 O 0.52619 0.46492 0.02739
 O1353 O 0.50080 0.46202 -0.02851
 O1354 O 0.47560 0.47418 -0.03195
 O1355 O 0.53153 0.49860 -0.03318
 O1356 O 0.53503 0.52333 -0.02049
 O1357 O 0.54532 0.48798 -0.00922
 O1358 O 0.54523 0.51594 -0.00125
 O1359 O 0.51041 0.48625 -0.04225
 O1360 O 0.48246 0.49369 -0.04192
 O1361 O 0.51359 0.45323 -0.00751
 O1362 O 0.50249 0.45349 0.01895
 O1363 O 0.46697 0.52473 -0.00113
 O1364 O 0.47951 0.52803 -0.02577
 O1365 O 0.50440 0.53121 0.03020
 O1366 O 0.52991 0.51828 0.03202
 O1367 O 0.47343 0.49352 0.03604
 O1368 O 0.47267 0.46798 0.02307
 Zr1369 Zr 0.47813 0.48927 0.01254
 O1370 O 0.49157 0.47473 -0.00181
 Zr1371 Zr 0.50897 0.50776 0.02543
 O1372 O 0.52372 0.49361 0.01204
 Zr1373 Zr 0.49055 0.52045 -0.00548
 O1374 O 0.50482 0.50727 -0.02033
 Zr1375 Zr 0.51356 0.47212 0.00784
 O1376 O 0.49968 0.48550 0.02308
 Zr1377 Zr 0.49546 0.48518 -0.02316
 O1378 O 0.48034 0.49893 -0.00955
 Zr1379 Zr 0.52632 0.50329 -0.00991
 O1380 O 0.51275 0.51836 0.00404
 O1381 O 0.48719 0.51113 0.01622
 O1382 O 0.51727 0.48148 -0.01391
 C1383 C 0.45630 0.51685 0.00539
 C1384 C 0.48142 0.49961 0.04693
 C1385 C 0.49796 0.54199 0.02235
 C1386 C 0.54730 0.47438 -0.00370
 C1387 C 0.50789 0.45138 -0.02104
 C1388 C 0.52390 0.49198 -0.04401
 H1389 H 0.48643 0.46465 -0.00294
 H1390 H 0.50585 0.51270 -0.03024
 H1391 H 0.48054 0.51768 0.02292
 H1392 H 0.53369 0.49236 0.01739
 H1393 H 0.51964 0.46725 0.03650
 H1394 H 0.52612 0.49155 0.04342
 H1395 H 0.48756 0.50311 -0.04568
 H1396 H 0.47240 0.51972 -0.02894
 H1397 H 0.50945 0.44437 0.01834
 H1398 H 0.46306 0.46932 0.02920
 H1399 H 0.52732 0.52684 -0.02809
 H1400 H 0.50928 0.54163 -0.01404
 H1401 H 0.45745 0.48143 -0.00734
 H1402 H 0.47250 0.46622 -0.02448
 H1403 H 0.53202 0.52643 0.02440
 H1404 H 0.54921 0.51051 0.00791
 O1405 O -0.00770 0.00556 0.54485
 O1406 O 0.01787 -0.00209 0.54513
 O1407 O -0.00992 0.03882 0.50840
 O1408 O -0.00548 0.03971 0.48322
 O1409 O -0.04384 0.00218 0.51105
 O1410 O -0.04326 -0.02436 0.50430
 O1411 O 0.02979 -0.00235 0.46705
 O1412 O 0.03108 0.02192 0.47776
 O1413 O 0.03485 -0.03392 0.50297
 O1414 O 0.02253 -0.03747 0.52803
 O1415 O -0.00126 -0.03936 0.47171
 O1416 O -0.02608 -0.02751 0.46783
 O1417 O 0.00876 -0.01502 0.45807
 O1418 O -0.01953 -0.00775 0.45815
 O1419 O 0.01103 -0.04813 0.49299
 O1420 O 0.00333 -0.04791 0.52083
 O1421 O 0.04327 -0.01283 0.49022
 O1422 O 0.04250 0.01365 0.50149
 O1423 O -0.02858 -0.00756 0.53612
 O1424 O -0.03130 -0.03238 0.52348
 O1425 O -0.03534 0.02352 0.49875
 O1426 O -0.02237 0.02535 0.47325
 O1427 O 0.00204 0.03017 0.52996
 O1428 O 0.02774 0.01761 0.53114
 Zr1429 Zr 0.00669 0.00671 0.52535
 O1430 O 0.02158 -0.00742 0.51208
 Zr1431 Zr -0.01184 0.01910 0.49430
 O1432 O 0.00266 0.00595 0.47972
 Zr1433 Zr -0.02408 -0.01196 0.51257
 O1434 O -0.01051 -0.02660 0.49841
 Zr1435 Zr 0.02414 0.00221 0.49015
 O1436 O 0.01038 0.01725 0.50387
 Zr1437 Zr 0.01156 -0.02899 0.50803
 O1438 O -0.00255 -0.01558 0.52301
 Zr1439 Zr -0.00657 -0.01620 0.47696
 O1440 O -0.02202 -0.00251 0.49039
 O1441 O -0.01517 0.00993 0.51605
 O1442 O 0.01524 -0.01974 0.48627
 C1443 C -0.02091 -0.00076 0.54686
 C1444 C -0.00412 0.04092 0.52186
 C1445 C -0.04602 0.01554 0.50508
 C1446 C 0.02222 -0.00914 0.45628
 C1447 C 0.04535 -0.02629 0.49594
 C1448 C 0.00553 -0.05002 0.47939
 H1449 H 0.03164 -0.00834 0.51734
 H1450 H -0.01572 -0.03663 0.49728
 H1451 H -0.02184 0.01658 0.52264
 H1452 H 0.00385 0.01133 0.46979
 H1453 H 0.02851 0.03099 0.48432
 H1454 H 0.00416 0.03742 0.47752
 H1455 H -0.00599 -0.05185 0.51561
 H1456 H -0.02298 -0.03534 0.53069
 H1457 H 0.05167 0.01317 0.49465
 H1458 H 0.02621 0.02376 0.54073
 H1459 H -0.02980 -0.03476 0.47573
 H1460 H -0.04496 -0.02096 0.49357
 H1461 H 0.01465 -0.01296 0.54614
 H1462 H 0.03034 -0.02986 0.53123
 H1463 H -0.03055 0.01771 0.47120
 H1464 H -0.01419 0.00140 0.45409
 O1465 O 0.74206 0.20689 0.25950
 O1466 O 0.76781 0.20633 0.25274
 O1467 O 0.73910 0.24301 0.29384
 O1468 O 0.74403 0.26809 0.29556
 O1469 O 0.70610 0.24143 0.25634
 O1470 O 0.70718 0.24842 0.23005
 O1471 O 0.77999 0.28420 0.25470
 O1472 O 0.78075 0.27328 0.27873
 O1473 O 0.78540 0.24846 0.22237
 O1474 O 0.77309 0.22359 0.21790
 O1475 O 0.74953 0.28030 0.21684
 O1476 O 0.72443 0.28446 0.22843
 O1477 O 0.75927 0.29357 0.24168
 O1478 O 0.73100 0.29412 0.24831
 O1479 O 0.76191 0.25888 0.20785
 O1480 O 0.75412 0.23117 0.20721
 O1481 O 0.79356 0.26081 0.24399
 O1482 O 0.79222 0.24940 0.27015
 O1483 O 0.72145 0.21616 0.24619
 O1484 O 0.71915 0.22914 0.22178
 O1485 O 0.71422 0.25347 0.27817
 O1486 O 0.72733 0.27860 0.28112
 O1487 O 0.75112 0.22133 0.28488
 O1488 O 0.77718 0.22000 0.27311
 Zr1489 Zr 0.75642 0.22617 0.26173
 O1490 O 0.77164 0.23932 0.24831
 Zr1491 Zr 0.73784 0.25743 0.27450
 O1492 O 0.75264 0.27189 0.26205
 Zr1493 Zr 0.72610 0.23969 0.24266
 O1494 O 0.73999 0.25371 0.22871
 Zr1495 Zr 0.77414 0.26114 0.25856
 O1496 O 0.76004 0.24750 0.27291
 Zr1497 Zr 0.76204 0.24372 0.22662
 O1498 O 0.74762 0.22887 0.23929
 Zr1499 Zr 0.74384 0.27499 0.23977
 O1500 O 0.72810 0.26173 0.25276
 O1501 O 0.73456 0.23582 0.26465
 O1502 O 0.76566 0.26534 0.23651
 C1503 C 0.72899 0.20519 0.25275
 C1504 C 0.74471 0.22938 0.29568
 C1505 C 0.70368 0.24739 0.26976
 C1506 C 0.77262 0.29511 0.24791
 C1507 C 0.79582 0.25518 0.23042
 C1508 C 0.75646 0.27257 0.20614
 H1509 H 0.78168 0.23389 0.24750
 H1510 H 0.73497 0.25501 0.21859
 H1511 H 0.72769 0.22928 0.27090
 H1512 H 0.75378 0.28176 0.26770
 H1513 H 0.77800 0.26669 0.28757
 H1514 H 0.75356 0.27391 0.29355
 H1515 H 0.74492 0.23658 0.20316
 H1516 H 0.72748 0.22184 0.21877
 H1517 H 0.80142 0.25610 0.27008
 H1518 H 0.77548 0.21038 0.27897
 H1519 H 0.72102 0.27685 0.22063
 H1520 H 0.70550 0.25916 0.23369
 H1521 H 0.76490 0.20549 0.24175
 H1522 H 0.78085 0.22029 0.22554
 H1523 H 0.71946 0.28100 0.27324
 H1524 H 0.73610 0.29787 0.25779
 O1525 O 0.75368 0.72086 0.71579
 O1526 O 0.77752 0.71814 0.72730
 O1527 O 0.72154 0.71470 0.75302
 O1528 O 0.71616 0.72564 0.77573
 O1529 O 0.71600 0.75298 0.72171
 O1530 O 0.72824 0.77723 0.71939
 O1531 O 0.76032 0.75572 0.79495
 O1532 O 0.75189 0.73072 0.79461
 O1533 O 0.79327 0.75970 0.75985
 O1534 O 0.79419 0.75348 0.73247
 O1535 O 0.75749 0.79247 0.76309
 O1536 O 0.73067 0.79321 0.75639
 O1537 O 0.74789 0.77729 0.78667
 O1538 O 0.72205 0.78074 0.77364
 O1539 O 0.77899 0.78402 0.75056
 O1540 O 0.78243 0.77165 0.72452
 O1541 O 0.78419 0.74710 0.78079
 O1542 O 0.77310 0.72076 0.77961
 O1543 O 0.74160 0.74258 0.70733
 O1544 O 0.74829 0.76954 0.70836
 O1545 O 0.70686 0.74011 0.74247
 O1546 O 0.70725 0.74779 0.77009
 O1547 O 0.74277 0.70616 0.74002
 O1548 O 0.76967 0.70688 0.74956
 Zr1549 Zr 0.75740 0.72541 0.73930
 O1550 O 0.77191 0.73860 0.75355
 Zr1551 Zr 0.72589 0.73815 0.75736
 O1552 O 0.73916 0.75140 0.77274
 Zr1553 Zr 0.73929 0.75688 0.72701
 O1554 O 0.75276 0.77135 0.74108
 Zr1555 Zr 0.76129 0.74178 0.77510
 O1556 O 0.74729 0.72728 0.76138
 Zr1557 Zr 0.77434 0.76091 0.74479
 O1558 O 0.76140 0.74713 0.72940
 Zr1559 Zr 0.74292 0.77322 0.76320
 O1560 O 0.72826 0.76048 0.74840
 O1561 O 0.73566 0.73498 0.73570
 O1562 O 0.76483 0.76394 0.76669
 C1563 C 0.74761 0.72911 0.70512
 C1564 C 0.72944 0.70407 0.74614
 C1565 C 0.70511 0.74644 0.72924
 C1566 C 0.75454 0.76926 0.79718
 C1567 C 0.79496 0.75388 0.77332
 C1568 C 0.77106 0.79454 0.75755
 H1569 H 0.78196 0.73323 0.75458
 H1570 H 0.75370 0.78151 0.73610
 H1571 H 0.72921 0.72853 0.72885
 H1572 H 0.73384 0.75205 0.78282
 H1573 H 0.74723 0.72102 0.79083
 H1574 H 0.72269 0.72758 0.78485
 H1575 H 0.77565 0.78062 0.72246
 H1576 H 0.75879 0.76542 0.70635
 H1577 H 0.77814 0.72173 0.78981
 H1578 H 0.76848 0.69751 0.74303
 H1579 H 0.73428 0.79591 0.74594
 H1580 H 0.72133 0.78066 0.72787
 H1581 H 0.78122 0.72715 0.72145
 H1582 H 0.79717 0.74320 0.73638
 H1583 H 0.70440 0.75760 0.76505
 H1584 H 0.72000 0.77402 0.78255
 O1585 O 0.27935 0.21580 0.74663
 O1586 O 0.28143 0.22727 0.72277
 O1587 O 0.28476 0.25340 0.77873
 O1588 O 0.27321 0.27578 0.78427
 O1589 O 0.24747 0.22097 0.78446
 O1590 O 0.22319 0.21789 0.77236
 O1591 O 0.24217 0.29395 0.74031
 O1592 O 0.26728 0.29435 0.74854
 O1593 O 0.23877 0.25859 0.70731
 O1594 O 0.24583 0.23142 0.70627
 O1595 O 0.20640 0.26103 0.74327
 O1596 O 0.20614 0.25442 0.77007
 O1597 O 0.22099 0.28511 0.75285
 O1598 O 0.21820 0.27207 0.77866
 O1599 O 0.21499 0.24862 0.72172
 O1600 O 0.22809 0.22291 0.71819
 O1601 O 0.25083 0.27996 0.71634
 O1602 O 0.27735 0.27956 0.72720
 O1603 O 0.25801 0.20680 0.75883
 O1604 O 0.23097 0.20701 0.75225
 O1605 O 0.25984 0.24212 0.79357
 O1606 O 0.25137 0.26955 0.79326
 O1607 O 0.29345 0.24053 0.75745
 O1608 O 0.29216 0.24989 0.73058
 Zr1609 Zr 0.27407 0.23917 0.74294
 O1610 O 0.26034 0.25299 0.72852
 Zr1611 Zr 0.26116 0.25700 0.77455
 O1612 O 0.24735 0.27195 0.76137
 Zr1613 Zr 0.24318 0.22606 0.76121
 O1614 O 0.22818 0.23965 0.74785
 Zr1615 Zr 0.25664 0.27449 0.73918
 O1616 O 0.27167 0.26124 0.75309
 Zr1617 Zr 0.23828 0.24357 0.72622
 O1618 O 0.25262 0.22863 0.73905
 Zr1619 Zr 0.22579 0.26177 0.75773
 O1620 O 0.23909 0.24739 0.77230
 O1621 O 0.26485 0.23539 0.76474
 O1622 O 0.23471 0.26542 0.73577
 C1623 C 0.27147 0.20492 0.75276
 C1624 C 0.29550 0.24680 0.77076
 C1625 C 0.25391 0.22872 0.79533
 C1626 C 0.22865 0.29583 0.74618
 C1627 C 0.24412 0.27225 0.70561
 C1628 C 0.20436 0.25535 0.72971
 H1629 H 0.26555 0.25414 0.71844
 H1630 H 0.21817 0.23438 0.74696
 H1631 H 0.27156 0.22876 0.77114
 H1632 H 0.24647 0.28203 0.76671
 H1633 H 0.27714 0.29085 0.75311
 H1634 H 0.27106 0.28478 0.77768
 H1635 H 0.21925 0.22063 0.72499
 H1636 H 0.23508 0.20502 0.74176
 H1637 H 0.27601 0.28971 0.72219
 H1638 H 0.30171 0.24362 0.73169
 H1639 H 0.20370 0.24388 0.76645
 H1640 H 0.21959 0.22630 0.77930
 H1641 H 0.27256 0.22115 0.71913
 H1642 H 0.25596 0.23560 0.70326
 H1643 H 0.24176 0.26422 0.79619
 H1644 H 0.22470 0.28117 0.78070
 O1645 O 0.21933 0.78725 0.24670
 O1646 O 0.21704 0.77588 0.22262
 O1647 O 0.21427 0.74943 0.27804
 O1648 O 0.22589 0.72699 0.28277
 O1649 O 0.25155 0.78186 0.28397
 O1650 O 0.27571 0.78509 0.27154
 O1651 O 0.25657 0.70915 0.23807
 O1652 O 0.23154 0.70871 0.24664
 O1653 O 0.25964 0.74472 0.20578
 O1654 O 0.25240 0.77192 0.20550
 O1655 O 0.29234 0.74225 0.24111
 O1656 O 0.29282 0.74866 0.26809
 O1657 O 0.27788 0.71800 0.25040
 O1658 O 0.28096 0.73089 0.27641
 O1659 O 0.28351 0.75481 0.22002
 O1660 O 0.27027 0.78039 0.21725
 O1661 O 0.24772 0.72328 0.21453
 O1662 O 0.22130 0.72357 0.22577
 O1663 O 0.24074 0.79621 0.25880
 O1664 O 0.26770 0.79611 0.25184
 O1665 O 0.23930 0.76061 0.29274
 O1666 O 0.24780 0.73326 0.29167
 O1667 O 0.20536 0.76242 0.25720
 O1668 O 0.20641 0.75320 0.23011
 Zr1669 Zr 0.22460 0.76389 0.24241
 O1670 O 0.23823 0.75018 0.22746
 Zr1671 Zr 0.23784 0.74588 0.27339
 O1672 O 0.25159 0.73107 0.25965
 Zr1673 Zr 0.25562 0.77695 0.26051
 O1674 O 0.27053 0.76349 0.24657
 Zr1675 Zr 0.24208 0.72862 0.23757
 O1676 O 0.22714 0.74176 0.25199
 Zr1677 Zr 0.26024 0.75968 0.22501
 O1678 O 0.24599 0.77450 0.23844
 Zr1679 Zr 0.27309 0.74132 0.25587
 O1680 O 0.25987 0.75555 0.27101
 O1681 O 0.23401 0.76755 0.26415
 O1682 O 0.26396 0.73777 0.23399
 C1683 C 0.22724 0.79810 0.25296
 C1684 C 0.20344 0.75608 0.27040
 C1685 C 0.24524 0.77400 0.29475
 C1686 C 0.27016 0.70728 0.24368
 C1687 C 0.25432 0.73105 0.20388
 C1688 C 0.29424 0.74807 0.22767
 H1689 H 0.23292 0.74906 0.21744
 H1690 H 0.28051 0.76881 0.24564
 H1691 H 0.22735 0.77413 0.27082
 H1692 H 0.25255 0.72095 0.26475
 H1693 H 0.22172 0.71217 0.25143
 H1694 H 0.22818 0.71800 0.27605
 H1695 H 0.27910 0.78275 0.22404
 H1696 H 0.26352 0.79813 0.24144
 H1697 H 0.22261 0.71344 0.22052
 H1698 H 0.19686 0.75945 0.23150
 H1699 H 0.29521 0.75922 0.26466
 H1700 H 0.27939 0.77663 0.27822
 H1701 H 0.22587 0.78203 0.21898
 H1702 H 0.24232 0.76763 0.20248
 H1703 H 0.25747 0.73854 0.29450
 H1704 H 0.27444 0.72182 0.27841
 O1705 O 0.20631 0.73948 0.75732
 O1706 O 0.20642 0.74715 0.73193
 O1707 O 0.24306 0.70579 0.75938
 O1708 O 0.26829 0.70476 0.75498
 O1709 O 0.23962 0.74206 0.79412
 O1710 O 0.24607 0.76854 0.79440
 O1711 O 0.28459 0.74737 0.72123
 O1712 O 0.27435 0.72304 0.71919
 O1713 O 0.24833 0.77895 0.71659
 O1714 O 0.22304 0.78250 0.72870
 O1715 O 0.27898 0.78386 0.75340
 O1716 O 0.28255 0.77148 0.77804
 O1717 O 0.29303 0.75978 0.74277
 O1718 O 0.29286 0.75203 0.77069
 O1719 O 0.25783 0.79284 0.74092
 O1720 O 0.22992 0.79275 0.74822
 O1721 O 0.26138 0.75785 0.70770
 O1722 O 0.25059 0.73138 0.70767
 O1723 O 0.21462 0.75226 0.77871
 O1724 O 0.22699 0.77682 0.78247
 O1725 O 0.25236 0.72077 0.78524
 O1726 O 0.27796 0.71885 0.77252
 O1727 O 0.22159 0.71474 0.74735
 O1728 O 0.22080 0.72742 0.72188
 Zr1729 Zr 0.22608 0.73817 0.74328
 O1730 O 0.23940 0.75238 0.72898
 Zr1731 Zr 0.25698 0.72537 0.76190
 O1732 O 0.27163 0.73863 0.74800
 Zr1733 Zr 0.23821 0.75642 0.77475
 O1734 O 0.25235 0.77115 0.76181
 Zr1735 Zr 0.26149 0.74266 0.72646
 O1736 O 0.24774 0.72755 0.73959
 Zr1737 Zr 0.24303 0.77381 0.73967
 O1738 O 0.22802 0.76034 0.75318
 Zr1739 Zr 0.27396 0.76066 0.75791
 O1740 O 0.26050 0.74684 0.77274
 O1741 O 0.23509 0.73466 0.76518
 O1742 O 0.26494 0.76449 0.73606
 C1743 C 0.20404 0.74575 0.77063
 C1744 C 0.22967 0.70387 0.75338
 C1745 C 0.24579 0.72869 0.79604
 C1746 C 0.29509 0.75416 0.72913
 C1747 C 0.25551 0.77137 0.70594
 C1748 C 0.27130 0.79462 0.74673
 H1749 H 0.23427 0.75343 0.71888
 H1750 H 0.25328 0.78111 0.76732
 H1751 H 0.22846 0.72803 0.77161
 H1752 H 0.28166 0.73325 0.74678
 H1753 H 0.26791 0.71395 0.72139
 H1754 H 0.27436 0.70721 0.74567
 H1755 H 0.23496 0.79657 0.75771
 H1756 H 0.21998 0.78004 0.77410
 H1757 H 0.25755 0.73192 0.69860
 H1758 H 0.21125 0.72131 0.72309
 H1759 H 0.27470 0.77905 0.78161
 H1760 H 0.25682 0.76506 0.79614
 H1761 H 0.20524 0.75802 0.73536
 H1762 H 0.22014 0.77508 0.72051
 H1763 H 0.27992 0.72649 0.78082
 H1764 H 0.29703 0.74287 0.76517
 O1765 O 0.25346 0.22335 0.21384
 O1766 O 0.27745 0.22014 0.22492
 O1767 O 0.22185 0.21850 0.25169
 O1768 O 0.21718 0.22983 0.27437
 O1769 O 0.21682 0.25666 0.22008
 O1770 O 0.22973 0.28044 0.21718
 O1771 O 0.26244 0.25885 0.29247
 O1772 O 0.25334 0.23409 0.29253
 O1773 O 0.29487 0.26171 0.25683
 O1774 O 0.29528 0.25502 0.22956
 O1775 O 0.26007 0.29538 0.26011
 O1776 O 0.23310 0.29670 0.25398
 O1777 O 0.25056 0.28071 0.28416
 O1778 O 0.22459 0.28476 0.27162
 O1779 O 0.28109 0.28622 0.24722
 O1780 O 0.28378 0.27328 0.22140
 O1781 O 0.28579 0.24955 0.27803
 O1782 O 0.27407 0.22347 0.27729
 O1783 O 0.24179 0.24528 0.20536
 O1784 O 0.24936 0.27204 0.20593
 O1785 O 0.20768 0.24426 0.24112
 O1786 O 0.20876 0.25214 0.26863
 O1787 O 0.24264 0.20924 0.23845
 O1788 O 0.26973 0.20934 0.24746
 Zr1789 Zr 0.25776 0.22807 0.23722
 O1790 O 0.27288 0.24101 0.25107
 Zr1791 Zr 0.22691 0.24187 0.25568
 O1792 O 0.24080 0.25492 0.27067
 Zr1793 Zr 0.24031 0.25988 0.22489
 O1794 O 0.25440 0.27412 0.23855
 Zr1795 Zr 0.26270 0.24472 0.27275
 O1796 O 0.24808 0.23046 0.25944
 Zr1797 Zr 0.27576 0.26314 0.24200
 O1798 O 0.26219 0.24955 0.22700
 Zr1799 Zr 0.24502 0.27652 0.26083
 O1800 O 0.22976 0.26402 0.24643
 O1801 O 0.23622 0.23820 0.23389
 O1802 O 0.26672 0.26668 0.26403
 C1803 C 0.24737 0.23162 0.20319
 C1804 C 0.22936 0.20758 0.24482
 C1805 C 0.20587 0.25054 0.22788
 C1806 C 0.25714 0.27258 0.29465
 C1807 C 0.29660 0.25604 0.27036
 C1808 C 0.27354 0.29704 0.25418
 H1809 H 0.28280 0.23539 0.25201
 H1810 H 0.25552 0.28418 0.23342
 H1811 H 0.22946 0.23186 0.22724
 H1812 H 0.23568 0.25583 0.28084
 H1813 H 0.24838 0.22447 0.28892
 H1814 H 0.22391 0.23169 0.28334
 H1815 H 0.27717 0.28236 0.21926
 H1816 H 0.25964 0.26749 0.20369
 H1817 H 0.27931 0.22441 0.28739
 H1818 H 0.26817 0.19994 0.24108
 H1819 H 0.23666 0.29924 0.24347
 H1820 H 0.22308 0.28420 0.22574
 H1821 H 0.28131 0.22899 0.21895
 H1822 H 0.29799 0.24470 0.23352
 H1823 H 0.20615 0.26201 0.26359
 H1824 H 0.22248 0.27815 0.28060
 O1825 O 0.74248 0.79530 0.24190
 O1826 O 0.76788 0.79504 0.24975
 O1827 O 0.74048 0.75921 0.20763
 O1828 O 0.74480 0.73397 0.20612
 O1829 O 0.70582 0.76203 0.24396
 O1830 O 0.70569 0.75515 0.27030
 O1831 O 0.77883 0.71676 0.24838
 O1832 O 0.78077 0.72748 0.22432
 O1833 O 0.78353 0.75242 0.28069
 O1834 O 0.77142 0.77762 0.28478
 O1835 O 0.74678 0.72175 0.28495
 O1836 O 0.72213 0.71849 0.27247
 O1837 O 0.75738 0.70814 0.26060
 O1838 O 0.72942 0.70855 0.25284
 O1839 O 0.75922 0.74270 0.29439
 O1840 O 0.75188 0.77069 0.29478
 O1841 O 0.79235 0.73975 0.25937
 O1842 O 0.79224 0.75107 0.23313
 O1843 O 0.72116 0.78683 0.25452
 O1844 O 0.71766 0.77406 0.27891
 O1845 O 0.71462 0.74971 0.22243
 O1846 O 0.72741 0.72410 0.22001
 O1847 O 0.75254 0.78046 0.21698
 O1848 O 0.77799 0.78101 0.22981
 Zr1849 Zr 0.75662 0.77555 0.24035
 O1850 O 0.77099 0.76190 0.25431
 Zr1851 Zr 0.73800 0.74493 0.22694
 O1852 O 0.75201 0.72998 0.23991
 Zr1853 Zr 0.72527 0.76316 0.25832
 O1854 O 0.73829 0.74867 0.27276
 Zr1855 Zr 0.77353 0.73998 0.24417
 O1856 O 0.76030 0.75407 0.22932
 Zr1857 Zr 0.76041 0.75787 0.27565
 O1858 O 0.74683 0.77321 0.26246
 Zr1859 Zr 0.74220 0.72724 0.26186
 O1860 O 0.72727 0.74103 0.24832
 O1861 O 0.73472 0.76667 0.23663
 O1862 O 0.76404 0.73612 0.26590
 C1863 C 0.72915 0.79749 0.24814
 C1864 C 0.74650 0.77259 0.20596
 C1865 C 0.70383 0.75612 0.23049
 C1866 C 0.77099 0.70613 0.25494
 C1867 C 0.79417 0.74535 0.27299
 C1868 C 0.75343 0.72921 0.29589
 H1869 H 0.78109 0.76698 0.25547
 H1870 H 0.73282 0.74756 0.28269
 H1871 H 0.72825 0.77342 0.23010
 H1872 H 0.75322 0.72006 0.23432
 H1873 H 0.77850 0.73411 0.21535
 H1874 H 0.75421 0.72794 0.20842
 H1875 H 0.74244 0.76559 0.29850
 H1876 H 0.72601 0.78105 0.28219
 H1877 H 0.80133 0.74408 0.23356
 H1878 H 0.77673 0.79068 0.22389
 H1879 H 0.71856 0.72621 0.28017
 H1880 H 0.70396 0.74447 0.26665
 H1881 H 0.76442 0.79604 0.26060
 H1882 H 0.77943 0.78077 0.27733
 H1883 H 0.71915 0.72202 0.22758
 H1884 H 0.73491 0.70455 0.24361
 O1885 O 0.71602 0.24582 0.77934
 O1886 O 0.72764 0.22177 0.78120
 O1887 O 0.75326 0.27756 0.78528
 O1888 O 0.77567 0.28277 0.77398
 O1889 O 0.72097 0.28350 0.74769
 O1890 O 0.71791 0.27126 0.72340
 O1891 O 0.79429 0.23877 0.74261
 O1892 O 0.79451 0.24688 0.76782
 O1893 O 0.75915 0.20593 0.73860
 O1894 O 0.73197 0.20517 0.74551
 O1895 O 0.76147 0.24172 0.70665
 O1896 O 0.75445 0.26867 0.70657
 O1897 O 0.78533 0.25133 0.72150
 O1898 O 0.77202 0.27713 0.71874
 O1899 O 0.74915 0.22033 0.71491
 O1900 O 0.72343 0.21710 0.72778
 O1901 O 0.78046 0.21482 0.75079
 O1902 O 0.77991 0.22566 0.77747
 O1903 O 0.70695 0.25810 0.75809
 O1904 O 0.70721 0.25126 0.73100
 O1905 O 0.74201 0.29244 0.76034
 O1906 O 0.76942 0.29185 0.75219
 O1907 O 0.74063 0.25636 0.79369
 O1908 O 0.75020 0.22939 0.79218
 Zr1909 Zr 0.73941 0.24183 0.77415
 O1910 O 0.75336 0.22725 0.76035
 Zr1911 Zr 0.75699 0.27326 0.76166
 O1912 O 0.77204 0.25992 0.74781
 Zr1913 Zr 0.72619 0.26014 0.74335
 O1914 O 0.73990 0.24662 0.72829
 Zr1915 Zr 0.77478 0.23771 0.75689
 O1916 O 0.76139 0.25177 0.77199
 Zr1917 Zr 0.74398 0.22498 0.73821
 O1918 O 0.72892 0.23798 0.75259
 Zr1919 Zr 0.76193 0.25631 0.72614
 O1920 O 0.74743 0.27104 0.73950
 O1921 O 0.73546 0.26365 0.76511
 O1922 O 0.76576 0.23433 0.73487
 C1923 C 0.70512 0.25211 0.77150
 C1924 C 0.74673 0.26965 0.79590
 C1925 C 0.72864 0.29433 0.75425
 C1926 C 0.79613 0.24466 0.72918
 C1927 C 0.77284 0.20414 0.74394
 C1928 C 0.75593 0.22820 0.70444
 H1929 H 0.75459 0.21716 0.76546
 H1930 H 0.73466 0.24574 0.71823
 H1931 H 0.72879 0.27016 0.77182
 H1932 H 0.78207 0.26519 0.74705
 H1933 H 0.79094 0.25149 0.77771
 H1934 H 0.78473 0.27613 0.77177
 H1935 H 0.72110 0.22392 0.71900
 H1936 H 0.70530 0.24082 0.73507
 H1937 H 0.79009 0.22053 0.77613
 H1938 H 0.74390 0.23056 0.80169
 H1939 H 0.74406 0.26492 0.70387
 H1940 H 0.72632 0.27798 0.71978
 H1941 H 0.72149 0.21823 0.77228
 H1942 H 0.73616 0.20216 0.75565
 H1943 H 0.76414 0.29477 0.74253
 H1944 H 0.78100 0.27923 0.72542
 C1945 C 0.07748 1.02405 1.17016
 C1946 C 0.07052 1.01106 1.16363
 C1947 C 0.07096 0.99700 1.17142
 C1948 C 0.07854 0.99586 1.18556
 C1949 C 0.08581 1.00879 1.19211
 C1950 C 0.08506 1.02295 1.18432
 C1951 C 0.06337 1.01194 1.14870
 C1952 C 0.05757 1.01238 1.13611
 C1953 C 0.05093 1.01254 1.12127
 C1954 C 0.04536 1.01238 1.10856
 C1955 C 0.03878 1.01182 1.09335
 C1956 C 0.02402 1.01784 1.09072
 C1957 C 0.01741 1.01672 1.07608
 C1958 C 0.02549 1.00950 1.06385
 C1959 C 0.04043 1.00368 1.06658
 C1960 C 0.04700 1.00483 1.08123
 H1961 H 0.07726 1.03498 1.16419
 H1962 H 0.06559 0.98687 1.16648
 H1963 H 0.07874 0.98486 1.19136
 H1964 H 0.09070 1.03305 1.18896
 H1965 H 0.01755 1.02326 1.10003
 H1966 H 0.00591 1.02134 1.07440
 H1967 H 0.04700 0.99809 1.05746
 H1968 H 0.05843 1.00012 1.08314
 C1969 C 0.57941 0.52151 0.66862
 C1970 C 0.57252 0.50865 0.66173
 C1971 C 0.57269 0.49448 0.66933
 C1972 C 0.57993 0.49309 0.68362
 C1973 C 0.58712 0.50587 0.69053
 C1974 C 0.58665 0.52015 0.68293
 C1975 C 0.56570 0.50982 0.64668
 C1976 C 0.56014 0.51054 0.63398
 C1977 C 0.55375 0.51108 0.61905
 C1978 C 0.54834 0.51127 0.60626
 C1979 C 0.54187 0.51118 0.59100
 C1980 C 0.52734 0.51775 0.58839
 C1981 C 0.52077 0.51707 0.57370
 C1982 C 0.52866 0.50976 0.56140
 C1983 C 0.54338 0.50340 0.56411
 C1984 C 0.54991 0.50410 0.57881
 H1985 H 0.57940 0.53252 0.66282
 H1986 H 0.56737 0.48446 0.66412
 H1987 H 0.57993 0.48200 0.68926
 H1988 H 0.59225 0.53015 0.68785
 H1989 H 0.52100 0.52324 0.59774
 H1990 H 0.50944 0.52210 0.57205
 H1991 H 0.54980 0.49771 0.55494
 H1992 H 0.56117 0.49897 0.58071
 C1993 C 0.43569 0.00441 0.67009
 C1994 C 0.42892 -0.00230 0.65706
 C1995 C 0.41421 -0.00867 0.65812
 C1996 C 0.40621 -0.00823 0.67211
 C1997 C 0.41281 -0.00137 0.68525
 C1998 C 0.42770 0.00484 0.68413
 C1999 C 0.43682 -0.00239 0.64246
 C2000 C 0.44305 -0.00248 0.63003
 C2001 C 0.44992 -0.00256 0.61528
 C2002 C 0.45551 -0.00257 0.60255
 C2003 C 0.46189 -0.00249 0.58723
 C2004 C 0.47657 -0.00868 0.58438
 C2005 C 0.48275 -0.00853 0.56948
 C2006 C 0.47430 -0.00215 0.55721
 C2007 C 0.45950 0.00399 0.56022
 C2008 C 0.45336 0.00381 0.57512
 H2009 H 0.44706 0.00941 0.66937
 H2010 H 0.40888 -0.01392 0.64811
 H2011 H 0.39488 -0.01334 0.67266
 H2012 H 0.43302 0.01031 0.69401
 H2013 H 0.48326 -0.01361 0.59368
 H2014 H 0.49416 -0.01335 0.56760
 H2015 H 0.45266 0.00898 0.55108
 H2016 H 0.44197 0.00862 0.57721
 C2017 C -0.06594 0.50451 1.17298
 C2018 C -0.07312 0.49777 1.16019
 C2019 C -0.08794 0.49174 1.16166
 C2020 C -0.09563 0.49254 1.17581
 C2021 C -0.08860 0.49941 1.18872
 C2022 C -0.07362 0.50531 1.18718
 C2023 C -0.06548 0.49725 1.14545
 C2024 C -0.05940 0.49684 1.13295
 C2025 C -0.05257 0.49645 1.11817
 C2026 C -0.04692 0.49624 1.10546
 C2027 C -0.04033 0.49619 1.09023
 C2028 C -0.02562 0.48993 1.08764
 C2029 C -0.01908 0.49027 1.07291
 C2030 C -0.02717 0.49690 1.06054
 C2031 C -0.04204 0.50299 1.06324
 C2032 C -0.04855 0.50263 1.07799
 H2033 H -0.05448 0.50926 1.17195
 H2034 H -0.09359 0.48646 1.15185
 H2035 H -0.10705 0.48766 1.17669
 H2036 H -0.06797 0.51079 1.19687
 H2037 H -0.01917 0.48490 1.09704
 H2038 H -0.00762 0.48547 1.07125
 H2039 H -0.04861 0.50817 1.05401
 H2040 H -0.05996 0.50749 1.07986
 C2041 C -0.07424 0.48761 0.33013
 C2042 C -0.07182 0.50173 0.33755
 C2043 C -0.07645 0.51539 0.33045
 C2044 C -0.08370 0.51495 0.31609
 C2045 C -0.08656 0.50076 0.30846
 C2046 C -0.08150 0.48709 0.31577
 C2047 C -0.06497 0.50217 0.35263
 C2048 C -0.05943 0.50246 0.36535
 C2049 C -0.05312 0.50266 0.38031
 C2050 C -0.04783 0.50269 0.39314
 C2051 C -0.04159 0.50250 0.40849
 C2052 C -0.02712 0.50885 0.41144
 C2053 C -0.02088 0.50825 0.42627
 C2054 C -0.02905 0.50125 0.43836
 C2055 C -0.04369 0.49507 0.43528
 C2056 C -0.04989 0.49569 0.42045
 H2057 H -0.07056 0.47696 0.33547
 H2058 H -0.07473 0.52640 0.33616
 H2059 H -0.08769 0.52581 0.31151
 H2060 H -0.08266 0.47590 0.31036
 H2061 H -0.02060 0.51415 0.40226
 H2062 H -0.00960 0.51314 0.42820
 H2063 H -0.05031 0.48961 0.44429
 H2064 H -0.06111 0.49074 0.41829
 C2065 C 0.42710 0.98595 -0.17459
 C2066 C 0.42598 0.99915 -0.16524
 C2067 C 0.41815 1.01221 -0.17058
 C2068 C 0.41130 1.01203 -0.18514
 C2069 C 0.41219 0.99876 -0.19456
 C2070 C 0.42026 0.98575 -0.18916
 C2071 C 0.43251 0.99920 -0.15003
 C2072 C 0.43781 0.99926 -0.13720
 C2073 C 0.44387 0.99936 -0.12214
 C2074 C 0.44898 0.99943 -0.10924
 C2075 C 0.45508 0.99948 -0.09384
 C2076 C 0.46955 1.00586 -0.09093
 C2077 C 0.47557 1.00578 -0.07601
 C2078 C 0.46720 0.99928 -0.06377
 C2079 C 0.45261 0.99298 -0.06683
 C2080 C 0.44661 0.99308 -0.08177
 H2081 H 0.43316 0.97579 -0.17057
 H2082 H 0.41715 1.02246 -0.16341
 H2083 H 0.40498 1.02215 -0.18885
 H2084 H 0.42129 0.97543 -0.19621
 H2085 H 0.47620 1.01086 -0.10019
 H2086 H 0.48683 1.01073 -0.07410
 H2087 H 0.44584 0.98789 -0.05772
 H2088 H 0.43539 0.98812 -0.08391
 C2089 C 0.56887 0.48853 -0.17292
 C2090 C 0.57511 0.49584 -0.15994
 C2091 C 0.58860 0.50444 -0.16137
 C2092 C 0.59594 0.50560 -0.17567
 C2093 C 0.58989 0.49814 -0.18876
 C2094 C 0.57620 0.48969 -0.18725
 C2095 C 0.56788 0.49440 -0.14507
 C2096 C 0.56210 0.49332 -0.13247
 C2097 C 0.55559 0.49226 -0.11758
 C2098 C 0.55019 0.49156 -0.10479
 C2099 C 0.54385 0.49103 -0.08945
 C2100 C 0.55203 0.49738 -0.07709
 C2101 C 0.54568 0.49744 -0.06226
 C2102 C 0.53100 0.49117 -0.05958
 C2103 C 0.52298 0.48458 -0.07206
 C2104 C 0.52937 0.48453 -0.08689
 H2105 H 0.55845 0.48182 -0.17193
 H2106 H 0.59350 0.51020 -0.15142
 H2107 H 0.60633 0.51237 -0.17649
 H2108 H 0.57135 0.48368 -0.19708
 H2109 H 0.56325 0.50243 -0.07894
 H2110 H 0.55219 0.50259 -0.05295
 H2111 H 0.51168 0.47964 -0.07044
 H2112 H 0.52294 0.47959 -0.09638
 C2113 C 0.06769 -0.00995 0.32745
 C2114 C 0.07355 -0.00273 0.34066
 C2115 C 0.08677 0.00633 0.33958
 C2116 C 0.09423 0.00803 0.32541
 C2117 C 0.08857 0.00067 0.31209
 C2118 C 0.07513 -0.00825 0.31324
 C2119 C 0.06622 -0.00475 0.35541
 C2120 C 0.06038 -0.00629 0.36792
 C2121 C 0.05383 -0.00784 0.38274
 C2122 C 0.04843 -0.00889 0.39550
 C2123 C 0.04214 -0.00975 0.41084
 C2124 C 0.05043 -0.00377 0.42329
 C2125 C 0.04410 -0.00386 0.43812
 C2126 C 0.02933 -0.00994 0.44071
 C2127 C 0.02121 -0.01623 0.42814
 C2128 C 0.02757 -0.01610 0.41331
 H2129 H 0.05748 -0.01701 0.32817
 H2130 H 0.09137 0.01201 0.34972
 H2131 H 0.10441 0.01514 0.32486
 H2132 H 0.07060 -0.01419 0.30323
 H2133 H 0.06172 0.00118 0.42151
 H2134 H 0.05071 0.00104 0.44751
 H2135 H 0.00982 -0.02100 0.42970
 H2136 H 0.02105 -0.02076 0.40374
 C2137 C 0.16707 1.07001 0.99670
 C2138 C 0.15594 1.07557 1.00711
 C2139 C 0.15918 1.08836 1.01645
 C2140 C 0.17342 1.09567 1.01528
 C2141 C 0.18462 1.09030 1.00472
 C2142 C 0.18134 1.07731 0.99552
 C2143 C 0.14105 1.06844 1.00797
 C2144 C 0.12847 1.06267 1.00860
 C2145 C 0.11366 1.05609 1.00921
 C2146 C 0.10096 1.05058 1.00957
 C2147 C 0.08577 1.04405 1.00974
 C2148 C 0.07354 1.05182 1.00265
 C2149 C 0.05888 1.04528 1.00232
 C2150 C 0.05624 1.03083 1.00907
 C2151 C 0.06859 1.02322 1.01638
 C2152 C 0.08324 1.02979 1.01669
 H2153 H 0.16465 1.06015 0.98937
 H2154 H 0.15066 1.09274 1.02457
 H2155 H 0.17569 1.10550 1.02269
 H2156 H 0.18966 1.07300 0.98717
 H2157 H 0.07537 1.06287 0.99724
 H2158 H 0.04966 1.05148 0.99662
 H2159 H 0.06699 1.01209 1.02170
 H2160 H 0.09263 1.02368 1.02221
 C2161 C 0.67269 0.56700 0.49803
 C2162 C 0.65978 0.57500 0.50377
 C2163 C 0.66125 0.59025 0.50887
 C2164 C 0.67555 0.59749 0.50830
 C2165 C 0.68863 0.58956 0.50263
 C2166 C 0.68704 0.57423 0.49744
 C2167 C 0.64496 0.56769 0.50439
 C2168 C 0.63241 0.56188 0.50497
 C2169 C 0.61757 0.55537 0.50564
 C2170 C 0.60482 0.55000 0.50612
 C2171 C 0.58951 0.54376 0.50650
 C2172 C 0.58682 0.52944 0.51327
 C2173 C 0.57201 0.52320 0.51320
 C2174 C 0.55967 0.53121 0.50631
 C2175 C 0.56248 0.54571 0.49973
 C2176 C 0.57729 0.55192 0.49983
 H2177 H 0.67167 0.55518 0.49405
 H2178 H 0.65131 0.59658 0.51325
 H2179 H 0.67633 0.60937 0.51213
 H2180 H 0.69692 0.56779 0.49315
 H2181 H 0.59620 0.52304 0.51848
 H2182 H 0.57028 0.51203 0.51838
 H2183 H 0.55328 0.55221 0.49435
 H2184 H 0.57924 0.56302 0.49457
 C2185 C 0.67661 0.43049 -0.01019
 C2186 C 0.66341 0.42264 -0.00542
 C2187 C 0.66480 0.40775 0.00050
 C2188 C 0.67929 0.40074 0.00174
 C2189 C 0.69265 0.40855 -0.00292
 C2190 C 0.69115 0.42348 -0.00898
 C2191 C 0.64843 0.42984 -0.00635
 C2192 C 0.63576 0.43564 -0.00685
 C2193 C 0.62082 0.44220 -0.00712
 C2194 C 0.60800 0.44769 -0.00710
 C2195 C 0.59267 0.45417 -0.00677
 C2196 C 0.58059 0.44595 -0.00008
 C2197 C 0.56579 0.45242 0.00076
 C2198 C 0.56286 0.46725 -0.00509
 C2199 C 0.57506 0.47534 -0.01198
 C2200 C 0.58985 0.46884 -0.01279
 H2201 H 0.67568 0.44205 -0.01476
 H2202 H 0.65466 0.40154 0.00418
 H2203 H 0.68001 0.38913 0.00619
 H2204 H 0.70123 0.42983 -0.01254
 H2205 H 0.58265 0.43459 0.00463
 H2206 H 0.55670 0.44585 0.00611
 H2207 H 0.57324 0.48676 -0.01662
 H2208 H 0.59911 0.47531 -0.01799
 C2209 C 0.17036 -0.07508 0.50909
 C2210 C 0.16264 -0.07514 0.49495
 C2211 C 0.16970 -0.08179 0.48195
 C2212 C 0.18433 -0.08857 0.48313
 C2213 C 0.19207 -0.08881 0.49736
 C2214 C 0.18497 -0.08186 0.51030
 C2215 C 0.14731 -0.06876 0.49395
 C2216 C 0.13440 -0.06354 0.49335
 C2217 C 0.11924 -0.05752 0.49294
 C2218 C 0.10629 -0.05237 0.49283
 C2219 C 0.09085 -0.04615 0.49299
 C2220 C 0.08778 -0.03181 0.48637
 C2221 C 0.07293 -0.02545 0.48711
 C2222 C 0.06092 -0.03337 0.49452
 C2223 C 0.06410 -0.04791 0.50092
 C2224 C 0.07897 -0.05424 0.50016
 H2225 H 0.16501 -0.06994 0.51922
 H2226 H 0.16381 -0.08195 0.47096
 H2227 H 0.18940 -0.09400 0.47301
 H2228 H 0.19071 -0.08169 0.52136
 H2229 H 0.09690 -0.02544 0.48080
 H2230 H 0.07092 -0.01425 0.48204
 H2231 H 0.05516 -0.05434 0.50669
 H2232 H 0.08123 -0.06536 0.50534
 C2233 C 0.32950 -0.06743 0.49428
 C2234 C 0.34120 -0.07199 0.50438
 C2235 C 0.33866 -0.08411 0.51459
 C2236 C 0.32458 -0.09180 0.51457
 C2237 C 0.31282 -0.08749 0.50429
 C2238 C 0.31537 -0.07510 0.49425
 C2239 C 0.35598 -0.06459 0.50399
 C2240 C 0.36849 -0.05867 0.50363
 C2241 C 0.38326 -0.05198 0.50318
 C2242 C 0.39593 -0.04640 0.50276
 C2243 C 0.41111 -0.03985 0.50220
 C2244 C 0.42318 -0.04793 0.49496
 C2245 C 0.43791 -0.04156 0.49430
 C2246 C 0.44077 -0.02697 0.50090
 C2247 C 0.42855 -0.01897 0.50821
 C2248 C 0.41383 -0.02538 0.50885
 H2249 H 0.33136 -0.05809 0.48629
 H2250 H 0.34763 -0.08771 0.52248
 H2251 H 0.32289 -0.10114 0.52259
 H2252 H 0.30661 -0.07162 0.48610
 H2253 H 0.42120 -0.05915 0.48978
 H2254 H 0.44703 -0.04804 0.48859
 H2255 H 0.43031 -0.00773 0.51342
 H2256 H 0.40457 -0.01903 0.51449
 C2257 C -0.17046 0.43305 1.01102
 C2258 C -0.15749 0.42699 1.00339
 C2259 C -0.15867 0.41326 0.99491
 C2260 C -0.17269 0.40549 0.99423
 C2261 C -0.18576 0.41135 1.00204
 C2262 C -0.18453 0.42530 1.01034
 C2263 C -0.14285 0.43462 1.00439
 C2264 C -0.13040 0.44067 1.00510
 C2265 C -0.11568 0.44744 1.00573
 C2266 C -0.10301 0.45303 1.00607
 C2267 C -0.08781 0.45956 1.00620
 C2268 C -0.07541 0.45133 0.99971
 C2269 C -0.06073 0.45783 0.99933
 C2270 C -0.05823 0.47269 1.00543
 C2271 C -0.07074 0.48078 1.01214
 C2272 C -0.08542 0.47425 1.01250
 H2273 H -0.16966 0.44367 1.01764
 H2274 H -0.14873 0.40850 0.98891
 H2275 H -0.17333 0.39491 0.98755
 H2276 H -0.19434 0.43000 1.01659
 H2277 H -0.07713 0.43995 0.99481
 H2278 H -0.05139 0.45125 0.99411
 H2279 H -0.06926 0.49223 1.01695
 H2280 H -0.09494 0.48072 1.01755
 C2281 C -0.17355 0.56779 0.48364
 C2282 C -0.16194 0.57051 0.49448
 C2283 C -0.16458 0.58095 0.50660
 C2284 C -0.17865 0.58881 0.50779
 C2285 C -0.19031 0.58635 0.49683
 C2286 C -0.18767 0.57564 0.48481
 C2287 C -0.14719 0.56292 0.49306
 C2288 C -0.13467 0.55685 0.49211
 C2289 C -0.11985 0.55004 0.49132
 C2290 C -0.10711 0.54442 0.49093
 C2291 C -0.09180 0.53789 0.49088
 C2292 C -0.07963 0.54618 0.49734
 C2293 C -0.06487 0.53965 0.49797
 C2294 C -0.06207 0.52468 0.49215
 C2295 C -0.07436 0.51653 0.48542
 C2296 C -0.08912 0.52310 0.48482
 H2297 H -0.17161 0.55975 0.47419
 H2298 H -0.15569 0.58311 0.51509
 H2299 H -0.18042 0.59681 0.51730
 H2300 H -0.19636 0.57362 0.47612
 H2301 H -0.08159 0.55764 0.50207
 H2302 H -0.05571 0.54627 0.50320
 H2303 H -0.07263 0.50500 0.48082
 H2304 H -0.09847 0.51658 0.47980
 C2305 C 0.32630 1.07587 -0.02020
 C2306 C 0.33279 1.06916 -0.00709
 C2307 C 0.32499 1.07009 0.00703
 C2308 C 0.31089 1.07794 0.00812
 C2309 C 0.30440 1.08498 -0.00491
 C2310 C 0.31218 1.08372 -0.01913
 C2311 C 0.34771 1.06181 -0.00795
 C2312 C 0.36033 1.05589 -0.00842
 C2313 C 0.37520 1.04918 -0.00869
 C2314 C 0.38797 1.04360 -0.00871
 C2315 C 0.40328 1.03708 -0.00847
 C2316 C 0.41527 1.04520 -0.00145
 C2317 C 0.43009 1.03880 -0.00091
 C2318 C 0.43315 1.02414 -0.00738
 C2319 C 0.42101 1.01611 -0.01450
 C2320 C 0.40619 1.02254 -0.01503
 H2321 H 0.33228 1.07528 -0.03117
 H2322 H 0.32990 1.06491 0.01724
 H2323 H 0.30508 1.07853 0.01918
 H2324 H 0.30758 1.08918 -0.02933
 H2325 H 0.41314 1.05646 0.00367
 H2326 H 0.43913 1.04532 0.00465
 H2327 H 0.42293 1.00481 -0.01961
 H2328 H 0.39699 1.01615 -0.02048
 C2329 C -0.00229 1.17638 1.06823
 C2330 C 0.00441 1.16365 1.07553
 C2331 C 0.01079 1.16537 1.09022
 C2332 C 0.01031 1.17970 1.09769
 C2333 C 0.00343 1.19253 1.09056
 C2334 C -0.00276 1.19075 1.07569
 C2335 C 0.00442 1.14872 1.06818
 C2336 C 0.00433 1.13607 1.06231
 C2337 C 0.00411 1.12115 1.05571
 C2338 C 0.00380 1.10834 1.05024
 C2339 C 0.00326 1.09298 1.04385
 C2340 C -0.00358 1.08113 1.05224
 C2341 C -0.00438 1.06626 1.04597
 C2342 C 0.00165 1.06303 1.03119
 C2343 C 0.00862 1.07503 1.02291
 C2344 C 0.00940 1.08989 1.02921
 H2345 H -0.00731 1.17515 1.05687
 H2346 H 0.01603 1.15561 1.09596
 H2347 H 0.01538 1.18076 1.10904
 H2348 H -0.00828 1.20036 1.06997
 H2349 H -0.00836 1.08340 1.06359
 H2350 H -0.00980 1.05732 1.05268
 H2351 H 0.01340 1.07297 1.01153
 H2352 H 0.01473 1.09899 1.02263
 C2353 C 0.51220 0.67750 0.56765
 C2354 C 0.50773 0.66413 0.57535
 C2355 C 0.50216 0.66518 0.59047
 C2356 C 0.50095 0.67951 0.59785
 C2357 C 0.50528 0.69304 0.59019
 C2358 C 0.51102 0.69188 0.57503
 C2359 C 0.50854 0.64933 0.56776
 C2360 C 0.50890 0.63678 0.56168
 C2361 C 0.50897 0.62196 0.55484
 C2362 C 0.50873 0.60922 0.54920
 C2363 C 0.50809 0.59394 0.54264
 C2364 C 0.50124 0.58205 0.55094
 C2365 C 0.50015 0.56729 0.54447
 C2366 C 0.50589 0.56422 0.52954
 C2367 C 0.51292 0.57624 0.52135
 C2368 C 0.51399 0.59100 0.52787
 H2369 H 0.51649 0.67683 0.55592
 H2370 H 0.49870 0.65490 0.59655
 H2371 H 0.49674 0.67998 0.60961
 H2372 H 0.51432 0.70211 0.56879
 H2373 H 0.49663 0.58421 0.56239
 H2374 H 0.49469 0.55833 0.55112
 H2375 H 0.51748 0.57430 0.50986
 H2376 H 0.51931 0.60013 0.52134
 C2377 C -0.01111 0.66800 0.43131
 C2378 C -0.00355 0.65514 0.42489
 C2379 C 0.00492 0.65665 0.41125
 C2380 C 0.00570 0.67091 0.40394
 C2381 C -0.00201 0.68389 0.41018
 C2382 C -0.01033 0.68231 0.42402
 C2383 C -0.00459 0.64030 0.43211
 C2384 C -0.00535 0.62775 0.43790
 C2385 C -0.00607 0.61294 0.44447
 C2386 C -0.00652 0.60023 0.44997
 C2387 C -0.00680 0.58503 0.45647
 C2388 C 0.00003 0.57262 0.44852
 C2389 C 0.00027 0.55794 0.45504
 C2390 C -0.00633 0.55546 0.46965
 C2391 C -0.01337 0.56798 0.47745
 C2392 C -0.01358 0.58266 0.47090
 H2393 H -0.01772 0.66695 0.44186
 H2394 H 0.01087 0.64678 0.40621
 H2395 H 0.01239 0.67181 0.39343
 H2396 H -0.01652 0.69204 0.42901
 H2397 H 0.00532 0.57433 0.43734
 H2398 H 0.00576 0.54859 0.44869
 H2399 H -0.01857 0.56651 0.48870
 H2400 H -0.01890 0.59218 0.47716
 C2401 C 0.48717 1.16971 -0.06857
 C2402 C 0.49468 1.15675 -0.07486
 C2403 C 0.50326 1.15812 -0.08844
 C2404 C 0.50422 1.17233 -0.09582
 C2405 C 0.49658 1.18540 -0.08970
 C2406 C 0.48813 1.18397 -0.07593
 C2407 C 0.49349 1.14196 -0.06756
 C2408 C 0.49262 1.12943 -0.06174
 C2409 C 0.49177 1.11461 -0.05520
 C2410 C 0.49121 1.10188 -0.04978
 C2411 C 0.49076 1.08661 -0.04344
 C2412 C 0.49744 1.07423 -0.05155
 C2413 C 0.49737 1.05943 -0.04529
 C2414 C 0.49060 1.05681 -0.03077
 C2415 C 0.48377 1.06933 -0.02278
 C2416 C 0.48387 1.08412 -0.02908
 H2417 H 0.48047 1.16876 -0.05806
 H2418 H 0.50917 1.14818 -0.09338
 H2419 H 0.51102 1.17311 -0.10627
 H2420 H 0.48200 1.19378 -0.07103
 H2421 H 0.50280 1.07603 -0.06268
 H2422 H 0.50272 1.05009 -0.05177
 H2423 H 0.47847 1.06776 -0.01160
 H2424 H 0.47866 1.09363 -0.02271
 C2425 C 0.49381 0.32770 -0.07245
 C2426 C 0.50809 0.33506 -0.07217
 C2427 C 0.52098 0.32787 -0.07892
 C2428 C 0.51954 0.31347 -0.08613
 C2429 C 0.50516 0.30610 -0.08672
 C2430 C 0.49234 0.31332 -0.07967
 C2431 C 0.50936 0.35021 -0.06539
 C2432 C 0.51015 0.36297 -0.05986
 C2433 C 0.51075 0.37799 -0.05351
 C2434 C 0.51098 0.39085 -0.04812
 C2435 C 0.51090 0.40619 -0.04166
 C2436 C 0.51752 0.40899 -0.02723
 C2437 C 0.51679 0.42374 -0.02063
 C2438 C 0.50938 0.43593 -0.02839
 C2439 C 0.50300 0.43303 -0.04302
 C2440 C 0.50375 0.41827 -0.04958
 H2441 H 0.48376 0.33315 -0.06724
 H2442 H 0.53208 0.33350 -0.07882
 H2443 H 0.52958 0.30831 -0.09162
 H2444 H 0.48116 0.30785 -0.07976
 H2445 H 0.52307 0.39972 -0.02099
 H2446 H 0.52184 0.42554 -0.00937
 H2447 H 0.49723 0.44212 -0.04933
 H2448 H 0.49858 0.41622 -0.06076
 C2449 C 0.01914 -0.17315 0.42103
 C2450 C 0.00626 -0.16641 0.42821
 C2451 C -0.00780 -0.17419 0.42826
 C2452 C -0.00906 -0.18855 0.42095
 C2453 C 0.00375 -0.19532 0.41346
 C2454 C 0.01792 -0.18753 0.41371
 C2455 C 0.00729 -0.15129 0.43511
 C2456 C 0.00792 -0.13855 0.44072
 C2457 C 0.00838 -0.12355 0.44715
 C2458 C 0.00852 -0.11071 0.45259
 C2459 C 0.00837 -0.09536 0.45905
 C2460 C 0.00155 -0.08324 0.45093
 C2461 C 0.00082 -0.06844 0.45742
 C2462 C 0.00691 -0.06556 0.47219
 C2463 C 0.01396 -0.07780 0.48016
 C2464 C 0.01466 -0.09259 0.47363
 H2465 H 0.03007 -0.16720 0.42087
 H2466 H -0.01785 -0.16908 0.43381
 H2467 H -0.02007 -0.19434 0.42112
 H2468 H 0.02794 -0.19233 0.40788
 H2469 H -0.00337 -0.08526 0.43963
 H2470 H -0.00467 -0.05931 0.45094
 H2471 H 0.01878 -0.07602 0.49153
 H2472 H 0.01997 -0.10190 0.48002
 C2473 C 0.50730 -0.17004 0.56662
 C2474 C 0.49707 -0.15824 0.57110
 C2475 C 0.48696 -0.16052 0.58345
 C2476 C 0.48720 -0.17444 0.59144
 C2477 C 0.49760 -0.18628 0.58719
 C2478 C 0.50755 -0.18399 0.57459
 C2479 C 0.49721 -0.14364 0.56337
 C2480 C 0.49733 -0.13126 0.55716
 C2481 C 0.49749 -0.11663 0.55017
 C2482 C 0.49766 -0.10406 0.54436
 C2483 C 0.49790 -0.08898 0.53758
 C2484 C 0.50477 -0.07670 0.54545
 C2485 C 0.50504 -0.06204 0.53890
 C2486 C 0.49843 -0.05945 0.52433
 C2487 C 0.49151 -0.07190 0.51653
 C2488 C 0.49126 -0.08655 0.52312
 H2489 H 0.51522 -0.16837 0.55711
 H2490 H 0.47897 -0.15148 0.58699
 H2491 H 0.47924 -0.17594 0.60093
 H2492 H 0.51579 -0.19283 0.57116
 H2493 H 0.50993 -0.07846 0.55666
 H2494 H 0.51046 -0.05275 0.54524
 H2495 H 0.48631 -0.07035 0.50532
 H2496 H 0.48590 -0.09598 0.51693
 C2497 C 0.01074 0.33444 1.07560
 C2498 C -0.00334 0.34179 1.07277
 C2499 C -0.01706 0.33470 1.07707
 C2500 C -0.01674 0.32046 1.08446
 C2501 C -0.00260 0.31292 1.08779
 C2502 C 0.01115 0.32017 1.08297
 C2503 C -0.00370 0.35680 1.06583
 C2504 C -0.00401 0.36947 1.06022
 C2505 C -0.00433 0.38436 1.05382
 C2506 C -0.00452 0.39712 1.04842
 C2507 C -0.00458 0.41236 1.04199
 C2508 C -0.01122 0.41496 1.02756
 C2509 C -0.01084 0.42965 1.02108
 C2510 C -0.00378 0.44197 1.02896
 C2511 C 0.00267 0.43926 1.04357
 C2512 C 0.00227 0.42455 1.05002
 H2513 H 0.02146 0.33989 1.07239
 H2514 H -0.02805 0.34023 1.07477
 H2515 H -0.02771 0.31529 1.08713
 H2516 H 0.02238 0.31537 1.08553
 H2517 H -0.01656 0.40560 1.02125
 H2518 H -0.01593 0.43131 1.00983
 H2519 H 0.00818 0.44845 1.04997
 H2520 H 0.00744 0.42266 1.06120
 C2521 C 0.76165 0.31627 0.07756
 C2522 C 0.75862 0.32457 0.09109
 C2523 C 0.75484 0.34019 0.09030
 C2524 C 0.75416 0.34757 0.07608
 C2525 C 0.75730 0.33951 0.06205
 C2526 C 0.76098 0.32356 0.06325
 C2527 C 0.75928 0.31717 0.10587
 C2528 C 0.75968 0.31130 0.11841
 C2529 C 0.75993 0.30471 0.13323
 C2530 C 0.75995 0.29925 0.14596
 C2531 C 0.75968 0.29281 0.16119
 C2532 C 0.76600 0.27818 0.16383
 C2533 C 0.76520 0.27170 0.17851
 C2534 C 0.75803 0.27977 0.19077
 C2535 C 0.75193 0.29459 0.18804
 C2536 C 0.75275 0.30104 0.17335
 H2537 H 0.76469 0.30414 0.07806
 H2538 H 0.75224 0.34670 0.10072
 H2539 H 0.75037 0.35945 0.07638
 H2540 H 0.76416 0.31658 0.05336
 H2541 H 0.77140 0.27171 0.15450
 H2542 H 0.77004 0.26028 0.18018
 H2543 H 0.74634 0.30114 0.19718
 H2544 H 0.74782 0.31238 0.17143
 C2545 C 0.26406 0.81736 0.57815
 C2546 C 0.25611 0.82345 0.59092
 C2547 C 0.24733 0.83695 0.58938
 C2548 C 0.24662 0.84444 0.57521
 C2549 C 0.25471 0.83853 0.56234
 C2550 C 0.26335 0.82483 0.56393
 C2551 C 0.25704 0.81606 0.60568
 C2552 C 0.25765 0.81018 0.61821
 C2553 C 0.25813 0.80357 0.63301
 C2554 C 0.25831 0.79808 0.64573
 C2555 C 0.25822 0.79164 0.66096
 C2556 C 0.26488 0.77716 0.66361
 C2557 C 0.26425 0.77067 0.67829
 C2558 C 0.25690 0.77858 0.69056
 C2559 C 0.25046 0.79326 0.68781
 C2560 C 0.25111 0.79971 0.67312
 H2561 H 0.27091 0.80692 0.57922
 H2562 H 0.24107 0.84173 0.59917
 H2563 H 0.23968 0.85482 0.57431
 H2564 H 0.26983 0.82009 0.55428
 H2565 H 0.27042 0.77081 0.65428
 H2566 H 0.26935 0.75937 0.67997
 H2567 H 0.24473 0.79969 0.69695
 H2568 H 0.24592 0.81094 0.67120
 C2569 C 0.74345 0.66337 0.58735
 C2570 C 0.74940 0.67826 0.58866
 C2571 C 0.75586 0.68534 0.57575
 C2572 C 0.75646 0.67751 0.56158
 C2573 C 0.75064 0.66246 0.56021
 C2574 C 0.74405 0.65553 0.57324
 C2575 C 0.74903 0.68604 0.60337
 C2576 C 0.74868 0.69215 0.61590
 C2577 C 0.74827 0.69888 0.63076
 C2578 C 0.74797 0.70433 0.64358
 C2579 C 0.74770 0.71054 0.65901
 C2580 C 0.74123 0.72509 0.66199
 C2581 C 0.74109 0.73111 0.67699
 C2582 C 0.74743 0.72263 0.68924
 C2583 C 0.75383 0.70795 0.68611
 C2584 C 0.75395 0.70197 0.67110
 H2585 H 0.73839 0.65779 0.59726
 H2586 H 0.76054 0.69686 0.57666
 H2587 H 0.76171 0.68309 0.55179
 H2588 H 0.73923 0.64407 0.57250
 H2589 H 0.73634 0.73181 0.65271
 H2590 H 0.73607 0.74244 0.67897
 H2591 H 0.75881 0.70109 0.69523
 H2592 H 0.75897 0.69067 0.66892
 C2593 C 0.24912 0.16302 0.08727
 C2594 C 0.24585 0.17878 0.08764
 C2595 C 0.24285 0.18651 0.07393
 C2596 C 0.24300 0.17850 0.05985
 C2597 C 0.24610 0.16238 0.05911
 C2598 C 0.24927 0.15493 0.07329
 C2599 C 0.24557 0.18687 0.10219
 C2600 C 0.24542 0.19323 0.11460
 C2601 C 0.24536 0.20024 0.12934
 C2602 C 0.24544 0.20591 0.14207
 C2603 C 0.24572 0.21235 0.15740
 C2604 C 0.23979 0.22715 0.16030
 C2605 C 0.24023 0.23341 0.17520
 C2606 C 0.24662 0.22492 0.18743
 C2607 C 0.25246 0.21000 0.18438
 C2608 C 0.25201 0.20379 0.16947
 H2609 H 0.25169 0.15695 0.09783
 H2610 H 0.24020 0.19874 0.07411
 H2611 H 0.23984 0.18507 0.04982
 H2612 H 0.25266 0.14294 0.07388
 H2613 H 0.23488 0.23388 0.15103
 H2614 H 0.23562 0.24491 0.17711
 H2615 H 0.25745 0.20312 0.19348
 H2616 H 0.25662 0.19231 0.16736
 C2617 C 0.25740 0.18345 0.92358
 C2618 C 0.25237 0.17606 0.91012
 C2619 C 0.24607 0.16129 0.91095
 C2620 C 0.24477 0.15394 0.92514
 C2621 C 0.24974 0.16127 0.93876
 C2622 C 0.25612 0.17610 0.93782
 C2623 C 0.25352 0.18357 0.89544
 C2624 C 0.25427 0.18961 0.88300
 C2625 C 0.25489 0.19643 0.86830
 C2626 C 0.25518 0.20207 0.85565
 C2627 C 0.25526 0.20864 0.84047
 C2628 C 0.24869 0.20055 0.82814
 C2629 C 0.24838 0.20700 0.81344
 C2630 C 0.25463 0.22169 0.81085
 C2631 C 0.26133 0.22968 0.82331
 C2632 C 0.26162 0.22318 0.83801
 H2633 H 0.26225 0.19491 0.92308
 H2634 H 0.24219 0.15544 0.90060
 H2635 H 0.24005 0.14243 0.92544
 H2636 H 0.25991 0.18209 0.94811
 H2637 H 0.24372 0.18928 0.82992
 H2638 H 0.24313 0.20052 0.80415
 H2639 H 0.26625 0.24099 0.82175
 H2640 H 0.26673 0.22955 0.84748
 C2641 C 0.75760 0.68388 0.42373
 C2642 C 0.75085 0.67694 0.41082
 C2643 C 0.74321 0.66289 0.41235
 C2644 C 0.74242 0.65573 0.42670
 C2645 C 0.74929 0.66252 0.43973
 C2646 C 0.75684 0.67672 0.43810
 C2647 C 0.75188 0.68407 0.39594
 C2648 C 0.75269 0.68986 0.38339
 C2649 C 0.75351 0.69648 0.36861
 C2650 C 0.75405 0.70203 0.35593
 C2651 C 0.75446 0.70861 0.34077
 C2652 C 0.74797 0.70066 0.32831
 C2653 C 0.74785 0.70724 0.31366
 C2654 C 0.75421 0.72191 0.31126
 C2655 C 0.76092 0.72971 0.32384
 C2656 C 0.76102 0.72310 0.33848
 H2657 H 0.76351 0.69477 0.42268
 H2658 H 0.73798 0.65739 0.40243
 H2659 H 0.73674 0.64469 0.42751
 H2660 H 0.76210 0.68233 0.44794
 H2661 H 0.74287 0.68943 0.32996
 H2662 H 0.74261 0.70089 0.30427
 H2663 H 0.76593 0.74101 0.32243
 H2664 H 0.76607 0.72935 0.34805
 C2665 C 0.24306 0.81667 0.42464
 C2666 C 0.24757 0.82454 0.41137
 C2667 C 0.25333 0.83951 0.41264
 C2668 C 0.25461 0.84659 0.42709
 C2669 C 0.25015 0.83879 0.44053
 C2670 C 0.24431 0.82375 0.43914
 C2671 C 0.24641 0.81735 0.39641
 C2672 C 0.24563 0.81161 0.38373
 C2673 C 0.24495 0.80514 0.36877
 C2674 C 0.24457 0.79977 0.35591
 C2675 C 0.24435 0.79346 0.34051
 C2676 C 0.25086 0.80170 0.32835
 C2677 C 0.25102 0.79546 0.31344
 C2678 C 0.24467 0.78085 0.31048
 C2679 C 0.23802 0.77272 0.32278
 C2680 C 0.23788 0.77900 0.33768
 H2681 H 0.23861 0.80506 0.42379
 H2682 H 0.25681 0.84574 0.40245
 H2683 H 0.25889 0.85827 0.42773
 H2684 H 0.24091 0.81740 0.44927
 H2685 H 0.25591 0.81291 0.33041
 H2686 H 0.25622 0.80204 0.30427
 H2687 H 0.23302 0.76146 0.32094
 H2688 H 0.23281 0.77252 0.34702
 C2689 C 0.75360 0.33610 0.91300
 C2690 C 0.74818 0.32098 0.91221
 C2691 C 0.74402 0.31336 0.92575
 C2692 C 0.74532 0.32086 0.94004
 C2693 C 0.75085 0.33605 0.94095
 C2694 C 0.75492 0.34359 0.92725
 C2695 C 0.74706 0.31336 0.89745
 C2696 C 0.74636 0.30732 0.88490
 C2697 C 0.74581 0.30061 0.87003
 C2698 C 0.74557 0.29513 0.85721
 C2699 C 0.74555 0.28881 0.84180
 C2700 C 0.73904 0.27439 0.83883
 C2701 C 0.73930 0.26819 0.82389
 C2702 C 0.74612 0.27635 0.81170
 C2703 C 0.75254 0.29090 0.81482
 C2704 C 0.75225 0.29706 0.82976
 H2705 H 0.75681 0.34213 0.90260
 H2706 H 0.73984 0.30164 0.92527
 H2707 H 0.74221 0.31471 0.95039
 H2708 H 0.75895 0.35538 0.92751
 H2709 H 0.73382 0.26790 0.84807
 H2710 H 0.73425 0.25697 0.82193
 H2711 H 0.75786 0.29752 0.80574
 H2712 H 0.75732 0.30824 0.83193
 C2713 C 0.83996 0.41157 0.24388
 C2714 C 0.82479 0.41023 0.24914
 C2715 C 0.81679 0.42334 0.25447
 C2716 C 0.82395 0.43774 0.25447
 C2717 C 0.83918 0.43920 0.24908
 C2718 C 0.84712 0.42593 0.24385
 C2719 C 0.81751 0.39539 0.24899
 C2720 C 0.81167 0.38282 0.24872
 C2721 C 0.80506 0.36802 0.24831
 C2722 C 0.79953 0.35532 0.24795
 C2723 C 0.79297 0.34014 0.24758
 C2724 C 0.80082 0.32776 0.25431
 C2725 C 0.79432 0.31307 0.25424
 C2726 C 0.77983 0.31055 0.24743
 C2727 C 0.77212 0.32305 0.24053
 C2728 C 0.77865 0.33774 0.24062
 H2729 H 0.84628 0.40150 0.23980
 H2730 H 0.80502 0.42243 0.25856
 H2731 H 0.81750 0.44777 0.25844
 H2732 H 0.85894 0.42661 0.23989
 H2733 H 0.81192 0.32949 0.25970
 H2734 H 0.80059 0.30373 0.25964
 H2735 H 0.76097 0.32156 0.23518
 H2736 H 0.77249 0.34723 0.23535
 C2737 C 0.31563 0.92291 0.74959
 C2738 C 0.32347 0.90964 0.74447
 C2739 C 0.33869 0.91070 0.73924
 C2740 C 0.34605 0.92495 0.73910
 C2741 C 0.33828 0.93838 0.74419
 C2742 C 0.32299 0.93720 0.74947
 C2743 C 0.31604 0.89488 0.74463
 C2744 C 0.31010 0.88237 0.74470
 C2745 C 0.30340 0.86761 0.74475
 C2746 C 0.29783 0.85493 0.74483
 C2747 C 0.29130 0.83974 0.74500
 C2748 C 0.27682 0.83713 0.73850
 C2749 C 0.27037 0.82242 0.73890
 C2750 C 0.27834 0.81011 0.74585
 C2751 C 0.29298 0.81284 0.75223
 C2752 C 0.29939 0.82756 0.75180
 H2753 H 0.30383 0.92221 0.75365
 H2754 H 0.34489 0.90049 0.73533
 H2755 H 0.35791 0.92542 0.73522
 H2756 H 0.31667 0.94735 0.75332
 H2757 H 0.27047 0.84648 0.73319
 H2758 H 0.25909 0.82075 0.73387
 H2759 H 0.29945 0.80365 0.75765
 H2760 H 0.31063 0.82946 0.75685
 C2761 C 0.18277 0.92711 0.24775
 C2762 C 0.17530 0.91425 0.25364
 C2763 C 0.16030 0.91575 0.25927
 C2764 C 0.15268 0.92998 0.25892
 C2765 C 0.15986 0.94330 0.25282
 C2766 C 0.17524 0.94144 0.24737
 C2767 C 0.18284 0.89940 0.25375
 C2768 C 0.18884 0.88681 0.25386
 C2769 C 0.19554 0.87192 0.25397
 C2770 C 0.20109 0.85913 0.25402
 C2771 C 0.20756 0.84379 0.25399
 C2772 C 0.19932 0.83155 0.24752
 C2773 C 0.20564 0.81667 0.24729
 C2774 C 0.22033 0.81381 0.25355
 C2775 C 0.22848 0.82620 0.26014
 C2776 C 0.22212 0.84107 0.26035
 H2777 H 0.19440 0.92604 0.24323
 H2778 H 0.15445 0.90587 0.26406
 H2779 H 0.14140 0.93037 0.26418
 H2780 H 0.18146 0.95068 0.24196
 H2781 H 0.18803 0.83353 0.24258
 H2782 H 0.19904 0.80744 0.24213
 H2783 H 0.23980 0.82445 0.26507
 H2784 H 0.22859 0.85046 0.26540
 C2785 C 0.68281 0.42312 0.75955
 C2786 C 0.67670 0.41034 0.75182
 C2787 C 0.66316 0.41196 0.74324
 C2788 C 0.65565 0.42624 0.74254
 C2789 C 0.66157 0.43913 0.75042
 C2790 C 0.67530 0.43745 0.75885
 C2791 C 0.68411 0.39547 0.75282
 C2792 C 0.69004 0.38288 0.75356
 C2793 C 0.69672 0.36801 0.75427
 C2794 C 0.70225 0.35523 0.75473
 C2795 C 0.70871 0.33989 0.75504
 C2796 C 0.70063 0.32761 0.74844
 C2797 C 0.70702 0.31276 0.74834
 C2798 C 0.72161 0.30998 0.75486
 C2799 C 0.72956 0.32240 0.76162
 C2800 C 0.72314 0.33724 0.76170
 H2801 H 0.69327 0.42199 0.76625
 H2802 H 0.65837 0.40215 0.73717
 H2803 H 0.64522 0.42722 0.73577
 H2804 H 0.68005 0.44711 0.76518
 H2805 H 0.68944 0.32954 0.74325
 H2806 H 0.70056 0.30350 0.74304
 H2807 H 0.74081 0.32069 0.76674
 H2808 H 0.72949 0.34667 0.76684
 C2809 C 0.67225 0.58172 0.73141
 C2810 C 0.67930 0.58804 0.74448
 C2811 C 0.67904 0.58001 0.75839
 C2812 C 0.67155 0.56583 0.75932
 C2813 C 0.66421 0.55950 0.74632
 C2814 C 0.66477 0.56754 0.73231
 C2815 C 0.68634 0.60299 0.74380
 C2816 C 0.69203 0.61562 0.74345
 C2817 C 0.69849 0.63051 0.74330
 C2818 C 0.70387 0.64328 0.74338
 C2819 C 0.71017 0.65858 0.74373
 C2820 C 0.70191 0.67063 0.75083
 C2821 C 0.70811 0.68545 0.75151
 C2822 C 0.72270 0.68843 0.74510
 C2823 C 0.73086 0.67623 0.73787
 C2824 C 0.72463 0.66142 0.73721
 H2825 H 0.67233 0.58788 0.72060
 H2826 H 0.68448 0.58478 0.76858
 H2827 H 0.67149 0.55984 0.77022
 H2828 H 0.65906 0.56307 0.72215
 H2829 H 0.69070 0.66856 0.75592
 H2830 H 0.70149 0.69453 0.75714
 H2831 H 0.74211 0.67809 0.73281
 H2832 H 0.73112 0.65217 0.73170
 C2833 C 0.17100 0.08554 0.23236
 C2834 C 0.17785 0.09210 0.24542
 C2835 C 0.17752 0.08424 0.25943
 C2836 C 0.17019 0.06999 0.26046
 C2837 C 0.16306 0.06340 0.24746
 C2838 C 0.16367 0.07128 0.23335
 C2839 C 0.18482 0.10709 0.24458
 C2840 C 0.19050 0.11971 0.24407
 C2841 C 0.19702 0.13457 0.24366
 C2842 C 0.20254 0.14728 0.24349
 C2843 C 0.20909 0.16248 0.24347
 C2844 C 0.20126 0.17478 0.25063
 C2845 C 0.20776 0.18947 0.25096
 C2846 C 0.22224 0.19208 0.24413
 C2847 C 0.22997 0.17965 0.23684
 C2848 C 0.22343 0.16497 0.23653
 H2849 H 0.17114 0.09155 0.22146
 H2850 H 0.18280 0.08920 0.26961
 H2851 H 0.17009 0.06413 0.27143
 H2852 H 0.15812 0.06662 0.22319
 H2853 H 0.19015 0.17298 0.25605
 H2854 H 0.20148 0.19875 0.25666
 H2855 H 0.24111 0.18121 0.23145
 H2856 H 0.22960 0.15553 0.23096
 C2857 C 0.33278 0.08536 0.73624
 C2858 C 0.32235 0.08847 0.74822
 C2859 C 0.31930 0.07715 0.75919
 C2860 C 0.32681 0.06283 0.75831
 C2861 C 0.33752 0.05970 0.74644
 C2862 C 0.34031 0.07108 0.73534
 C2863 C 0.31514 0.10343 0.74942
 C2864 C 0.30937 0.11610 0.75031
 C2865 C 0.30286 0.13104 0.75122
 C2866 C 0.29743 0.14386 0.75186
 C2867 C 0.29106 0.15923 0.75243
 C2868 C 0.29929 0.17149 0.74615
 C2869 C 0.29300 0.18638 0.74638
 C2870 C 0.27836 0.18922 0.75291
 C2871 C 0.27025 0.17680 0.75933
 C2872 C 0.27657 0.16192 0.75907
 H2873 H 0.33519 0.09402 0.72766
 H2874 H 0.31127 0.07946 0.76854
 H2875 H 0.32455 0.05437 0.76711
 H2876 H 0.34831 0.06893 0.72595
 H2877 H 0.31053 0.16952 0.74098
 H2878 H 0.29958 0.19564 0.74135
 H2879 H 0.25896 0.17854 0.76445
 H2880 H 0.27010 0.15251 0.76397
 C2881 C 0.83211 0.58648 0.24097
 C2882 C 0.82199 0.58970 0.25319
 C2883 C 0.81926 0.57848 0.26436
 C2884 C 0.82678 0.56417 0.26342
 C2885 C 0.83719 0.56094 0.25132
 C2886 C 0.83965 0.57221 0.24003
 C2887 C 0.81477 0.60466 0.25439
 C2888 C 0.80900 0.61734 0.25520
 C2889 C 0.80250 0.63230 0.25592
 C2890 C 0.79710 0.64515 0.25632
 C2891 C 0.79076 0.66055 0.25651
 C2892 C 0.79911 0.67266 0.25011
 C2893 C 0.79279 0.68754 0.24979
 C2894 C 0.77797 0.69050 0.25585
 C2895 C 0.76975 0.67825 0.26245
 C2896 C 0.77611 0.66339 0.26275
 H2897 H 0.83428 0.59506 0.23224
 H2898 H 0.81147 0.58087 0.27389
 H2899 H 0.82478 0.55579 0.27237
 H2900 H 0.84742 0.56998 0.23045
 H2901 H 0.81047 0.67059 0.24525
 H2902 H 0.79946 0.69666 0.24465
 H2903 H 0.75834 0.68009 0.26723
 H2904 H 0.76954 0.65409 0.26773
 C2905 C 0.91546 0.24245 0.17008
 C2906 C 0.91224 0.25459 0.18035
 C2907 C 0.92333 0.26590 0.18309
 C2908 C 0.93752 0.26521 0.17540
 C2909 C 0.94075 0.25320 0.16483
 C2910 C 0.92961 0.24175 0.16238
 C2911 C 0.89735 0.25563 0.18765
 C2912 C 0.88473 0.25634 0.19345
 C2913 C 0.86980 0.25697 0.19992
 C2914 C 0.85695 0.25728 0.20522
 C2915 C 0.84152 0.25732 0.21136
 C2916 C 0.83848 0.26355 0.22600
 C2917 C 0.82357 0.26308 0.23213
 C2918 C 0.81149 0.25634 0.22368
 C2919 C 0.81466 0.25031 0.20887
 C2920 C 0.82957 0.25080 0.20278
 H2921 H 0.90697 0.23362 0.16790
 H2922 H 0.92093 0.27538 0.19099
 H2923 H 0.94579 0.27429 0.17740
 H2924 H 0.93184 0.23226 0.15447
 H2925 H 0.84766 0.26862 0.23273
 H2926 H 0.82155 0.26784 0.24355
 H2927 H 0.80566 0.24506 0.20204
 H2928 H 0.83181 0.24595 0.19143
 C2929 C 0.42329 0.76477 0.68350
 C2930 C 0.41084 0.75661 0.67738
 C2931 C 0.41275 0.74800 0.66380
 C2932 C 0.42699 0.74765 0.65625
 C2933 C 0.43955 0.75594 0.66218
 C2934 C 0.43758 0.76442 0.67596
 C2935 C 0.39600 0.75715 0.68485
 C2936 C 0.38341 0.75742 0.69077
 C2937 C 0.36854 0.75753 0.69741
 C2938 C 0.35576 0.75742 0.70290
 C2939 C 0.34045 0.75705 0.70931
 C2940 C 0.32849 0.75028 0.70095
 C2941 C 0.31369 0.74949 0.70730
 C2942 C 0.31065 0.75547 0.72215
 C2943 C 0.32275 0.76242 0.73039
 C2944 C 0.33754 0.76319 0.72401
 H2945 H 0.42193 0.77149 0.69401
 H2946 H 0.40320 0.74159 0.65900
 H2947 H 0.42819 0.74082 0.64580
 H2948 H 0.44699 0.77104 0.68073
 H2949 H 0.33062 0.74549 0.68955
 H2950 H 0.30467 0.74409 0.70061
 H2951 H 0.32085 0.76716 0.74184
 H2952 H 0.34673 0.76846 0.73058
 C2953 C 0.42391 0.23889 0.81595
 C2954 C 0.41122 0.24703 0.82199
 C2955 C 0.41274 0.25548 0.83569
 C2956 C 0.42682 0.25567 0.84344
 C2957 C 0.43960 0.24738 0.83760
 C2958 C 0.43803 0.23908 0.82369
 C2959 C 0.39652 0.24651 0.81438
 C2960 C 0.38403 0.24617 0.80834
 C2961 C 0.36924 0.24589 0.80163
 C2962 C 0.35650 0.24578 0.79613
 C2963 C 0.34119 0.24582 0.78981
 C2964 C 0.32904 0.25265 0.79811
 C2965 C 0.31417 0.25288 0.79198
 C2966 C 0.31123 0.24628 0.77741
 C2967 C 0.32353 0.23936 0.76918
 C2968 C 0.33840 0.23915 0.77536
 H2969 H 0.42284 0.23227 0.80536
 H2970 H 0.40301 0.26186 0.84044
 H2971 H 0.42773 0.26236 0.85400
 H2972 H 0.44761 0.23245 0.81900
 H2973 H 0.33107 0.25784 0.80932
 H2974 H 0.30500 0.25829 0.79864
 H2975 H 0.32171 0.23417 0.75795
 H2976 H 0.34773 0.23383 0.76884
 C2977 C 0.91099 0.73591 0.33998
 C2978 C 0.90946 0.74157 0.32508
 C2979 C 0.92229 0.74758 0.31755
 C2980 C 0.93659 0.74808 0.32495
 C2981 C 0.93846 0.74262 0.34024
 C2982 C 0.92520 0.73638 0.34746
 C2983 C 0.89463 0.74143 0.31770
 C2984 C 0.88206 0.74137 0.31182
 C2985 C 0.86722 0.74140 0.30520
 C2986 C 0.85448 0.74158 0.29970
 C2987 C 0.83923 0.74200 0.29323
 C2988 C 0.83650 0.73558 0.27865
 C2989 C 0.82179 0.73644 0.27216
 C2990 C 0.80959 0.74377 0.28018
 C2991 C 0.81242 0.74999 0.29493
 C2992 C 0.82714 0.74911 0.30139
 H2993 H 0.90114 0.73103 0.34586
 H2994 H 0.92120 0.75213 0.30601
 H2995 H 0.94578 0.75359 0.31872
 H2996 H 0.92561 0.73110 0.35867
 H2997 H 0.84577 0.73003 0.27224
 H2998 H 0.82004 0.73151 0.26080
 H2999 H 0.80332 0.75571 0.30144
 H3000 H 0.82913 0.75412 0.31269
 C3001 C 0.08715 0.74693 0.33735
 C3002 C 0.08784 0.75302 0.32249
 C3003 C 0.07426 0.75761 0.31510
 C3004 C 0.06001 0.75607 0.32255
 C3005 C 0.05921 0.74988 0.33747
 C3006 C 0.07296 0.74538 0.34479
 C3007 C 0.10255 0.75439 0.31490
 C3008 C 0.11504 0.75529 0.30886
 C3009 C 0.12983 0.75607 0.30210
 C3010 C 0.14257 0.75650 0.29654
 C3011 C 0.15788 0.75674 0.29009
 C3012 C 0.16054 0.76353 0.27577
 C3013 C 0.17538 0.76344 0.26940
 C3014 C 0.18777 0.75653 0.27729
 C3015 C 0.18496 0.74984 0.29176
 C3016 C 0.17013 0.74995 0.29809
 H3017 H 0.09760 0.74339 0.34320
 H3018 H 0.07466 0.76231 0.30358
 H3019 H 0.04963 0.75952 0.31656
 H3020 H 0.07278 0.74083 0.35637
 H3021 H 0.15114 0.76882 0.26948
 H3022 H 0.17710 0.76870 0.25826
 H3023 H 0.19420 0.74443 0.29817
 H3024 H 0.16819 0.74466 0.30919
 C3025 C 0.58851 0.24507 0.83857
 C3026 C 0.58952 0.25114 0.82373
 C3027 C 0.57616 0.25624 0.81626
 C3028 C 0.56182 0.25524 0.82362
 C3029 C 0.56070 0.24908 0.83853
 C3030 C 0.57422 0.24404 0.84593
 C3031 C 0.60431 0.25204 0.81624
 C3032 C 0.61683 0.25258 0.81023
 C3033 C 0.63164 0.25299 0.80346
 C3034 C 0.64436 0.25317 0.79786
 C3035 C 0.65963 0.25316 0.79133
 C3036 C 0.66222 0.25954 0.77680
 C3037 C 0.67703 0.25929 0.77037
 C3038 C 0.68946 0.25263 0.77841
 C3039 C 0.68672 0.24633 0.79306
 C3040 C 0.67191 0.24660 0.79945
 H3041 H 0.59878 0.24114 0.84448
 H3042 H 0.57681 0.26094 0.80475
 H3043 H 0.55161 0.25908 0.81757
 H3044 H 0.57378 0.23949 0.85751
 H3045 H 0.65279 0.26464 0.77041
 H3046 H 0.67869 0.26425 0.75908
 H3047 H 0.69600 0.24112 0.79958
 H3048 H 0.67003 0.24163 0.81071
 C3049 C 0.58898 0.75489 0.66179
 C3050 C 0.58992 0.74931 0.67684
 C3051 C 0.57649 0.74493 0.68458
 C3052 C 0.56216 0.74613 0.67730
 C3053 C 0.56111 0.75179 0.66217
 C3054 C 0.57470 0.75612 0.65450
 C3055 C 0.60470 0.74818 0.68425
 C3056 C 0.61721 0.74741 0.69020
 C3057 C 0.63199 0.74671 0.69693
 C3058 C 0.64468 0.74629 0.70253
 C3059 C 0.65989 0.74600 0.70910
 C3060 C 0.66242 0.73913 0.72341
 C3061 C 0.67715 0.73915 0.72992
 C3062 C 0.68957 0.74607 0.72218
 C3063 C 0.68690 0.75284 0.70773
 C3064 C 0.67217 0.75280 0.70125
 H3065 H 0.59931 0.75826 0.65567
 H3066 H 0.57708 0.74062 0.69625
 H3067 H 0.55190 0.74284 0.68355
 H3068 H 0.57432 0.76026 0.64277
 H3069 H 0.65300 0.73384 0.72958
 H3070 H 0.67876 0.73383 0.74105
 H3071 H 0.69617 0.75827 0.70144
 H3072 H 0.67033 0.75816 0.69017
 C3073 C 0.08797 0.26283 0.16356
 C3074 C 0.08967 0.25579 0.17791
 C3075 C 0.07686 0.24939 0.18521
 C3076 C 0.06241 0.24986 0.17811
 C3077 C 0.06062 0.25675 0.16359
 C3078 C 0.07356 0.26331 0.15644
 C3079 C 0.10465 0.25488 0.18493
 C3080 C 0.11729 0.25408 0.19059
 C3081 C 0.13219 0.25316 0.19702
 C3082 C 0.14497 0.25243 0.20237
 C3083 C 0.16028 0.25166 0.20866
 C3084 C 0.16283 0.24481 0.22297
 C3085 C 0.17768 0.24430 0.22917
 C3086 C 0.19019 0.25067 0.22113
 C3087 C 0.18750 0.25743 0.20667
 C3088 C 0.17264 0.25792 0.20050
 H3089 H 0.09783 0.26777 0.15777
 H3090 H 0.07805 0.24394 0.19634
 H3091 H 0.05265 0.24486 0.18398
 H3092 H 0.07262 0.26849 0.14517
 H3093 H 0.15333 0.23992 0.22937
 H3094 H 0.17931 0.23901 0.24032
 H3095 H 0.19683 0.26245 0.20015
 H3096 H 0.17079 0.26325 0.18941
 C3097 C -0.08940 0.98824 0.84039
 C3098 C -0.07458 0.99411 0.84215
 C3099 C -0.06700 1.00044 0.82950
 C3100 C -0.07427 1.00105 0.81514
 C3101 C -0.08941 0.99538 0.81313
 C3102 C -0.09674 0.98884 0.82610
 C3103 C -0.06737 0.99389 0.85707
 C3104 C -0.06163 0.99377 0.86971
 C3105 C -0.05519 0.99372 0.88463
 C3106 C -0.04987 0.99379 0.89745
 C3107 C -0.04366 0.99403 0.91282
 C3108 C -0.05195 1.00116 0.92481
 C3109 C -0.04583 1.00170 0.93969
 C3110 C -0.03130 0.99509 0.94279
 C3111 C -0.02312 0.98782 0.93066
 C3112 C -0.02927 0.98731 0.91579
 H3113 H -0.09534 0.98317 0.85009
 H3114 H -0.05554 1.00513 0.83077
 H3115 H -0.06814 1.00665 0.80590
 H3116 H -0.10798 0.98364 0.82529
 H3117 H -0.06310 1.00640 0.92263
 H3118 H -0.05245 1.00739 0.94872
 H3119 H -0.01191 0.98262 0.93261
 H3120 H -0.02276 0.98175 0.90659
 C3121 C 0.41237 0.49345 0.33839
 C3122 C 0.42669 0.50049 0.34032
 C3123 C 0.43347 0.50823 0.32797
 C3124 C 0.42592 0.50901 0.31376
 C3125 C 0.41144 0.50208 0.31177
 C3126 C 0.40480 0.49422 0.32423
 C3127 C 0.43419 0.49994 0.35509
 C3128 C 0.44013 0.49945 0.36761
 C3129 C 0.44677 0.49891 0.38243
 C3130 C 0.45223 0.49853 0.39519
 C3131 C 0.45854 0.49825 0.41051
 C3132 C 0.45044 0.50523 0.42272
 C3133 C 0.45663 0.50526 0.43757
 C3134 C 0.47104 0.49828 0.44045
 C3135 C 0.47902 0.49115 0.42810
 C3136 C 0.47279 0.49114 0.41325
 H3137 H 0.40703 0.48739 0.34785
 H3138 H 0.44454 0.51377 0.32935
 H3139 H 0.43125 0.51525 0.30443
 H3140 H 0.39380 0.48854 0.32300
 H3141 H 0.43939 0.51075 0.42073
 H3142 H 0.45016 0.51086 0.44676
 H3143 H 0.49013 0.48568 0.42987
 H3144 H 0.47915 0.48569 0.40389
 C3145 C 0.57495 -0.00950 0.32597
 C3146 C 0.57149 0.00452 0.33330
 C3147 C 0.57538 0.01834 0.32622
 C3148 C 0.58294 0.01820 0.31198
 C3149 C 0.58689 0.00414 0.30446
 C3150 C 0.58250 -0.00972 0.31169
 C3151 C 0.56435 0.00479 0.34829
 C3152 C 0.55861 0.00518 0.36096
 C3153 C 0.55214 0.00573 0.37589
 C3154 C 0.54679 0.00617 0.38873
 C3155 C 0.54059 0.00654 0.40413
 C3156 C 0.52600 0.01295 0.40700
 C3157 C 0.51985 0.01293 0.42192
 C3158 C 0.52823 0.00645 0.43418
 C3159 C 0.54300 0.00023 0.43117
 C3160 C 0.54910 0.00027 0.41625
 H3161 H 0.57206 -0.02029 0.33142
 H3162 H 0.57260 0.02928 0.33172
 H3163 H 0.58523 0.02925 0.30681
 H3164 H 0.58550 -0.02088 0.30686
 H3165 H 0.51932 0.01785 0.39769
 H3166 H 0.50847 0.01782 0.42381
 H3167 H 0.54979 -0.00484 0.44030
 H3168 H 0.56043 -0.00470 0.41416
 C3169 C 0.07867 0.48822 0.83184
 C3170 C 0.07237 0.50200 0.83768
 C3171 C 0.07332 0.51550 0.82903
 C3172 C 0.08074 0.51530 0.81471
 C3173 C 0.08734 0.50157 0.80885
 C3174 C 0.08609 0.48799 0.81750
 C3175 C 0.06536 0.50243 0.85273
 C3176 C 0.05969 0.50293 0.86542
 C3177 C 0.05324 0.50360 0.88037
 C3178 C 0.04788 0.50417 0.89319
 C3179 C 0.04161 0.50477 0.90856
 C3180 C 0.02696 0.51114 0.91124
 C3181 C 0.02079 0.51149 0.92615
 C3182 C 0.02920 0.50544 0.93860
 C3183 C 0.04399 0.49919 0.93578
 C3184 C 0.05012 0.49886 0.92087
 H3185 H 0.07805 0.47772 0.83847
 H3186 H 0.06846 0.52622 0.83343
 H3187 H 0.08132 0.52589 0.80822
 H3188 H 0.09121 0.47729 0.81338
 H3189 H 0.02027 0.51576 0.90179
 H3190 H 0.00938 0.51638 0.92788
 H3191 H 0.05080 0.49444 0.94506
 H3192 H 0.06149 0.49392 0.91892
 C3193 C 0.07945 0.50998 0.66323
 C3194 C 0.06763 0.49921 0.66164
 C3195 C 0.06377 0.48976 0.67404
 C3196 C 0.07187 0.49090 0.68791
 C3197 C 0.08399 0.50148 0.68951
 C3198 C 0.08757 0.51112 0.67706
 C3199 C 0.05991 0.49756 0.64708
 C3200 C 0.05383 0.49626 0.63467
 C3201 C 0.04717 0.49492 0.61992
 C3202 C 0.04183 0.49397 0.60715
 C3203 C 0.03585 0.49316 0.59172
 C3204 C 0.02134 0.48682 0.58887
 C3205 C 0.01549 0.48640 0.57387
 C3206 C 0.02410 0.49236 0.56151
 C3207 C 0.03874 0.49856 0.56451
 C3208 C 0.04455 0.49895 0.57950
 H3209 H 0.08251 0.51737 0.65371
 H3210 H 0.05468 0.48134 0.67291
 H3211 H 0.06897 0.48320 0.69722
 H3212 H 0.09669 0.51952 0.67801
 H3213 H 0.01451 0.48230 0.59826
 H3214 H 0.00418 0.48156 0.57199
 H3215 H 0.04570 0.50323 0.55531
 H3216 H 0.05580 0.50387 0.58158
 C3217 C 0.57949 1.00731 0.15898
 C3218 C 0.56772 0.99645 0.15775
 C3219 C 0.56405 0.98724 0.17039
 C3220 C 0.57226 0.98876 0.18416
 C3221 C 0.58428 0.99949 0.18542
 C3222 C 0.58772 1.00883 0.17271
 C3223 C 0.55972 0.99458 0.14336
 C3224 C 0.55337 0.99320 0.13110
 C3225 C 0.54633 0.99186 0.11652
 C3226 C 0.54065 0.99102 0.10389
 C3227 C 0.53424 0.99047 0.08862
 C3228 C 0.51951 0.98450 0.08612
 C3229 C 0.51315 0.98457 0.07132
 C3230 C 0.52146 0.99067 0.05883
 C3231 C 0.53636 0.99641 0.06147
 C3232 C 0.54267 0.99631 0.07625
 H3233 H 0.58240 1.01453 0.14928
 H3234 H 0.55498 0.97877 0.16954
 H3235 H 0.56947 0.98128 0.19368
 H3236 H 0.59676 1.01734 0.17340
 H3237 H 0.51287 0.97995 0.09563
 H3238 H 0.50167 0.98006 0.06971
 H3239 H 0.54312 1.00116 0.05215
 H3240 H 0.55409 1.00095 0.07806
 C3241 C 0.42901 0.51284 0.17156
 C3242 C 0.43017 0.49905 0.16313
 C3243 C 0.42371 0.48557 0.16901
 C3244 C 0.41590 0.48593 0.18315
 C3245 C 0.41440 0.49982 0.19156
 C3246 C 0.42120 0.51323 0.18567
 C3247 C 0.43751 0.49890 0.14821
 C3248 C 0.44343 0.49897 0.13561
 C3249 C 0.45012 0.49918 0.12076
 C3250 C 0.45566 0.49941 0.10799
 C3251 C 0.46210 0.49964 0.09267
 C3252 C 0.45382 0.49341 0.08032
 C3253 C 0.46004 0.49351 0.06544
 C3254 C 0.47467 0.49986 0.06268
 C3255 C 0.48287 0.50618 0.07518
 C3256 C 0.47661 0.50606 0.09006
 H3257 H 0.43399 0.52333 0.16713
 H3258 H 0.42449 0.47484 0.16255
 H3259 H 0.41065 0.47546 0.18728
 H3260 H 0.42044 0.52405 0.19197
 H3261 H 0.44256 0.48843 0.08220
 H3262 H 0.45339 0.48855 0.05612
 H3263 H 0.49415 0.51116 0.07350
 H3264 H 0.48311 0.51094 0.09954
 C3265 C -0.06705 0.00792 0.67520
 C3266 C -0.07287 -0.00044 0.66271
 C3267 C -0.08598 -0.00945 0.66466
 C3268 C -0.09329 -0.01011 0.67901
 C3269 C -0.08768 -0.00171 0.69184
 C3270 C -0.07433 0.00733 0.68960
 C3271 C -0.06552 0.00024 0.64782
 C3272 C -0.05959 0.00062 0.63524
 C3273 C -0.05286 0.00088 0.62040
 C3274 C -0.04728 0.00093 0.60766
 C3275 C -0.04075 0.00077 0.59237
 C3276 C -0.04867 -0.00631 0.58024
 C3277 C -0.04229 -0.00672 0.56543
 C3278 C -0.02783 -0.00005 0.56252
 C3279 C -0.02000 0.00714 0.57480
 C3280 C -0.02642 0.00753 0.58961
 H3281 H -0.05681 0.01485 0.67385
 H3282 H -0.09067 -0.01587 0.65502
 H3283 H -0.10375 -0.01675 0.67965
 H3284 H -0.06904 0.01359 0.69898
 H3285 H -0.05977 -0.01158 0.58225
 H3286 H -0.04865 -0.01234 0.55629
 H3287 H -0.00887 0.01239 0.57300
 H3288 H -0.02018 0.01304 0.59891
 C3289 C -0.17121 0.92391 1.01610
 C3290 C -0.16523 0.93003 1.00247
 C3291 C -0.17356 0.92870 0.98875
 C3292 C -0.18767 0.92104 0.98858
 C3293 C -0.19365 0.91458 1.00216
 C3294 C -0.18534 0.91626 1.01596
 C3295 C -0.15032 0.93719 1.00241
 C3296 C -0.13773 0.94297 1.00221
 C3297 C -0.12290 0.94951 1.00186
 C3298 C -0.11016 0.95496 1.00153
 C3299 C -0.09490 0.96133 1.00118
 C3300 C -0.09229 0.97555 0.99417
 C3301 C -0.07748 0.98179 0.99397
 C3302 C -0.06505 0.97388 1.00080
 C3303 C -0.06780 0.95953 1.00773
 C3304 C -0.08261 0.95332 1.00791
 H3305 H -0.16483 0.92483 1.02678
 H3306 H -0.16906 0.93341 0.97814
 H3307 H -0.19389 0.92013 0.97782
 H3308 H -0.18954 0.91126 1.02656
 H3309 H -0.10171 0.98184 0.98891
 H3310 H -0.07580 0.99285 0.98854
 H3311 H -0.05853 0.95311 1.01310
 H3312 H -0.08450 0.94230 1.01335
 C3313 C 0.32625 0.43534 0.50749
 C3314 C 0.33806 0.43069 0.49740
 C3315 C 0.33593 0.41796 0.48765
 C3316 C 0.32215 0.40975 0.48814
 C3317 C 0.31029 0.41416 0.49841
 C3318 C 0.31243 0.42715 0.50798
 C3319 C 0.35258 0.43861 0.49733
 C3320 C 0.36493 0.44488 0.49729
 C3321 C 0.37958 0.45185 0.49727
 C3322 C 0.39222 0.45753 0.49732
 C3323 C 0.40744 0.46400 0.49750
 C3324 C 0.41018 0.47838 0.49087
 C3325 C 0.42500 0.48461 0.49109
 C3326 C 0.43730 0.47653 0.49796
 C3327 C 0.43440 0.46205 0.50456
 C3328 C 0.41959 0.45586 0.50432
 H3329 H 0.32780 0.44514 0.51513
 H3330 H 0.34498 0.41427 0.47978
 H3331 H 0.32077 0.39996 0.48045
 H3332 H 0.30357 0.43073 0.51611
 H3333 H 0.40086 0.48477 0.48554
 H3334 H 0.42679 0.49577 0.48591
 H3335 H 0.44356 0.45550 0.50995
 H3336 H 0.41760 0.44471 0.50947
 C3337 C 0.33787 0.57953 -0.00942
 C3338 C 0.34048 0.56915 0.00257
 C3339 C 0.32892 0.56662 0.01353
 C3340 C 0.31486 0.57460 0.01261
 C3341 C 0.31223 0.58524 0.00073
 C3342 C 0.32386 0.58752 -0.01035
 C3343 C 0.35519 0.56144 0.00377
 C3344 C 0.36766 0.55528 0.00464
 C3345 C 0.38244 0.54839 0.00545
 C3346 C 0.39518 0.54276 0.00592
 C3347 C 0.41054 0.53634 0.00619
 C3348 C 0.41331 0.52185 0.01264
 C3349 C 0.42821 0.51554 0.01255
 C3350 C 0.44056 0.52366 0.00596
 C3351 C 0.43763 0.53830 -0.00036
 C3352 C 0.42274 0.54456 -0.00024
 H3353 H 0.34673 0.58155 -0.01799
 H3354 H 0.33083 0.55865 0.02288
 H3355 H 0.30621 0.57272 0.02140
 H3356 H 0.32210 0.59546 -0.01976
 H3357 H 0.40394 0.51538 0.01766
 H3358 H 0.43003 0.50426 0.01751
 H3359 H 0.44682 0.54490 -0.00551
 H3360 H 0.42073 0.55579 -0.00526
 C3361 C -0.17456 0.06315 0.51003
 C3362 C -0.16149 0.06844 0.50226
 C3363 C -0.16243 0.08188 0.49350
 C3364 C -0.17630 0.09010 0.49263
 C3365 C -0.18947 0.08501 0.50055
 C3366 C -0.18849 0.07136 0.50916
 C3367 C -0.14699 0.06036 0.50346
 C3368 C -0.13462 0.05398 0.50430
 C3369 C -0.11993 0.04692 0.50508
 C3370 C -0.10721 0.04123 0.50554
 C3371 C -0.09186 0.03482 0.50578
 C3372 C -0.08907 0.02027 0.51210
 C3373 C -0.07414 0.01402 0.51203
 C3374 C -0.06180 0.02226 0.50560
 C3375 C -0.06474 0.03693 0.49938
 C3376 C -0.07966 0.04314 0.49948
 H3377 H -0.17395 0.05278 0.51688
 H3378 H -0.15240 0.08606 0.48740
 H3379 H -0.17675 0.10043 0.48572
 H3380 H -0.19838 0.06724 0.51551
 H3381 H -0.09844 0.01372 0.51701
 H3382 H -0.07231 0.00270 0.51691
 H3383 H -0.05555 0.04362 0.49434
 H3384 H -0.08168 0.05441 0.49455
 C3385 C 0.67472 0.06710 0.48631
 C3386 C 0.66123 0.07480 0.49101
 C3387 C 0.66210 0.08968 0.49728
 C3388 C 0.67637 0.09685 0.49887
 C3389 C 0.69001 0.08923 0.49422
 C3390 C 0.68903 0.07427 0.48788
 C3391 C 0.64647 0.06746 0.48955
 C3392 C 0.63399 0.06154 0.48857
 C3393 C 0.61923 0.05485 0.48773
 C3394 C 0.60654 0.04930 0.48732
 C3395 C 0.59130 0.04285 0.48723
 C3396 C 0.57899 0.05122 0.49368
 C3397 C 0.56429 0.04479 0.49426
 C3398 C 0.56168 0.02984 0.48842
 C3399 C 0.57411 0.02161 0.48172
 C3400 C 0.58882 0.02808 0.48116
 H3401 H 0.67419 0.05556 0.48148
 H3402 H 0.65173 0.09575 0.50092
 H3403 H 0.67669 0.10846 0.50355
 H3404 H 0.69933 0.06805 0.48433
 H3405 H 0.58078 0.06266 0.49842
 H3406 H 0.55501 0.05147 0.49948
 H3407 H 0.57254 0.01009 0.47711
 H3408 H 0.59828 0.02150 0.47615
 C3409 C 0.17083 0.57555 1.01208
 C3410 C 0.16340 0.57269 0.99810
 C3411 C 0.17045 0.57691 0.98430
 C3412 C 0.18474 0.58420 0.98444
 C3413 C 0.19238 0.58753 0.99847
 C3414 C 0.18516 0.58282 1.01231
 C3415 C 0.14837 0.56579 0.99787
 C3416 C 0.13568 0.56022 0.99754
 C3417 C 0.12076 0.55388 0.99706
 C3418 C 0.10796 0.54858 0.99664
 C3419 C 0.09265 0.54233 0.99620
 C3420 C 0.09004 0.52796 0.98927
 C3421 C 0.07521 0.52177 0.98909
 C3422 C 0.06275 0.52989 0.99587
 C3423 C 0.06550 0.54440 1.00268
 C3424 C 0.08034 0.55056 1.00284
 H3425 H 0.16542 0.57240 1.02287
 H3426 H 0.16487 0.57460 0.97338
 H3427 H 0.18987 0.58677 0.97340
 H3428 H 0.19005 0.58538 1.02347
 H3429 H 0.09949 0.52150 0.98408
 H3430 H 0.07354 0.51058 0.98375
 H3431 H 0.05621 0.55098 1.00800
 H3432 H 0.08222 0.56170 1.00822
 C3433 C 0.16171 0.40836 0.50063
 C3434 C 0.16026 0.42348 0.50622
 C3435 C 0.17339 0.43150 0.51094
 C3436 C 0.18793 0.42443 0.51001
 C3437 C 0.18951 0.40926 0.50429
 C3438 C 0.17621 0.40129 0.49968
 C3439 C 0.14528 0.43072 0.50690
 C3440 C 0.13261 0.43654 0.50722
 C3441 C 0.11766 0.44310 0.50734
 C3442 C 0.10484 0.44856 0.50724
 C3443 C 0.08948 0.45497 0.50688
 C3444 C 0.08652 0.46969 0.51297
 C3445 C 0.07166 0.47602 0.51231
 C3446 C 0.05954 0.46771 0.50550
 C3447 C 0.06264 0.45285 0.49952
 C3448 C 0.07750 0.44655 0.50021
 H3449 H 0.15162 0.40203 0.49700
 H3450 H 0.17240 0.44323 0.51525
 H3451 H 0.19796 0.43090 0.51352
 H3452 H 0.17699 0.38952 0.49547
 H3453 H 0.09571 0.47631 0.51816
 H3454 H 0.06972 0.48747 0.51704
 H3455 H 0.05361 0.44611 0.49421
 H3456 H 0.07967 0.43514 0.49545
 C3457 C 0.65961 0.91385 -0.00941
 C3458 C 0.65685 0.92577 0.00123
 C3459 C 0.66870 0.93069 0.01096
 C3460 C 0.68321 0.92355 0.01021
 C3461 C 0.68601 0.91136 -0.00027
 C3462 C 0.67408 0.90670 -0.01017
 C3463 C 0.64172 0.93264 0.00237
 C3464 C 0.62893 0.93812 0.00322
 C3465 C 0.61384 0.94431 0.00404
 C3466 C 0.60090 0.94946 0.00455
 C3467 C 0.58541 0.95553 0.00487
 C3468 C 0.58235 0.97003 0.01142
 C3469 C 0.56740 0.97620 0.01112
 C3470 C 0.55530 0.96792 0.00423
 C3471 C 0.55848 0.95321 -0.00208
 C3472 C 0.57343 0.94709 -0.00177
 H3473 H 0.65053 0.90999 -0.01703
 H3474 H 0.66667 0.93989 0.01927
 H3475 H 0.69210 0.92728 0.01810
 H3476 H 0.67594 0.89749 -0.01850
 H3477 H 0.59154 0.97667 0.01658
 H3478 H 0.56540 0.98753 0.01610
 H3479 H 0.54947 0.94651 -0.00747
 H3480 H 0.57567 0.93584 -0.00687
 C3481 C -0.00704 0.83877 0.91722
 C3482 C -0.00316 0.83924 0.93281
 C3483 C 0.00182 0.82580 0.94010
 C3484 C 0.00299 0.81192 0.93181
 C3485 C -0.00076 0.81121 0.91593
 C3486 C -0.00587 0.82498 0.90887
 C3487 C -0.00410 0.85365 0.94111
 C3488 C -0.00487 0.86599 0.94757
 C3489 C -0.00568 0.88071 0.95459
 C3490 C -0.00624 0.89348 0.96015
 C3491 C -0.00668 0.90894 0.96630
 C3492 C -0.01293 0.91197 0.98092
 C3493 C -0.01316 0.92703 0.98684
 C3494 C -0.00713 0.93927 0.97818
 C3495 C -0.00099 0.93608 0.96345
 C3496 C -0.00077 0.92103 0.95757
 H3497 H -0.01104 0.84909 0.91148
 H3498 H 0.00499 0.82608 0.95217
 H3499 H 0.00746 0.80200 0.93785
 H3500 H -0.00959 0.82519 0.89700
 H3501 H -0.01755 0.90268 0.98777
 H3502 H -0.01798 0.92905 0.99822
 H3503 H 0.00375 0.94518 0.95645
 H3504 H 0.00407 0.91882 0.94623
 C3505 C 0.51113 0.33797 0.42080
 C3506 C 0.50032 0.34002 0.43265
 C3507 C 0.49059 0.32789 0.43667
 C3508 C 0.49147 0.31384 0.42864
 C3509 C 0.50206 0.31181 0.41644
 C3510 C 0.51201 0.32397 0.41275
 C3511 C 0.49887 0.35481 0.44020
 C3512 C 0.49775 0.36740 0.44609
 C3513 C 0.49659 0.38236 0.45255
 C3514 C 0.49579 0.39527 0.45774
 C3515 C 0.49510 0.41083 0.46363
 C3516 C 0.48886 0.41394 0.47823
 C3517 C 0.48859 0.42904 0.48404
 C3518 C 0.49460 0.44123 0.47531
 C3519 C 0.50069 0.43797 0.46056
 C3520 C 0.50093 0.42288 0.45479
 H3521 H 0.51874 0.34727 0.41762
 H3522 H 0.48214 0.32938 0.44579
 H3523 H 0.48355 0.30475 0.43163
 H3524 H 0.52042 0.32268 0.40357
 H3525 H 0.48431 0.40469 0.48517
 H3526 H 0.48382 0.43112 0.49543
 H3527 H 0.50541 0.44704 0.45351
 H3528 H 0.50579 0.42059 0.44347
 C3529 C 0.01363 0.32787 0.57570
 C3530 C -0.00038 0.33441 0.57120
 C3531 C -0.01412 0.32668 0.57416
 C3532 C -0.01390 0.31256 0.58185
 C3533 C 0.00015 0.30590 0.58688
 C3534 C 0.01393 0.31380 0.58341
 C3535 C -0.00057 0.34928 0.56396
 C3536 C -0.00046 0.36186 0.55815
 C3537 C -0.00010 0.37668 0.55160
 C3538 C 0.00031 0.38942 0.54616
 C3539 C 0.00081 0.40468 0.53981
 C3540 C -0.00606 0.41705 0.54777
 C3541 C -0.00571 0.43188 0.54159
 C3542 C 0.00153 0.43454 0.52732
 C3543 C 0.00852 0.42202 0.51947
 C3544 C 0.00815 0.40720 0.52568
 H3545 H 0.02437 0.33368 0.57331
 H3546 H -0.02507 0.33171 0.57079
 H3547 H -0.02490 0.30742 0.58447
 H3548 H 0.02513 0.30905 0.58619
 H3549 H -0.01175 0.41523 0.55874
 H3550 H -0.01121 0.44122 0.54796
 H3551 H 0.01419 0.42362 0.50846
 H3552 H 0.01353 0.39770 0.51944
 C3553 C 0.51402 0.82752 0.07300
 C3554 C 0.50033 0.83603 0.07160
 C3555 C 0.48658 0.83020 0.07761
 C3556 C 0.48657 0.81604 0.08520
 C3557 C 0.50033 0.80754 0.08692
 C3558 C 0.51403 0.81338 0.08059
 C3559 C 0.50051 0.85094 0.06442
 C3560 C 0.50075 0.86351 0.05860
 C3561 C 0.50105 0.87831 0.05196
 C3562 C 0.50123 0.89101 0.04641
 C3563 C 0.50129 0.90621 0.03987
 C3564 C 0.49468 0.91861 0.04801
 C3565 C 0.49428 0.93330 0.04151
 C3566 C 0.50048 0.93581 0.02673
 C3567 C 0.50732 0.92329 0.01874
 C3568 C 0.50769 0.90860 0.02527
 H3569 H 0.52472 0.83190 0.06836
 H3570 H 0.47593 0.83672 0.07664
 H3571 H 0.47588 0.81195 0.09011
 H3572 H 0.52478 0.80701 0.08154
 H3573 H 0.48970 0.91689 0.05933
 H3574 H 0.48895 0.94264 0.04802
 H3575 H 0.51221 0.92478 0.00735
 H3576 H 0.51285 0.89909 0.01887
 C3577 C 0.50770 0.67052 0.06710
 C3578 C 0.49941 0.65839 0.07357
 C3579 C 0.49170 0.66060 0.08761
 C3580 C 0.49236 0.67483 0.09522
 C3581 C 0.50078 0.68707 0.08892
 C3582 C 0.50837 0.68480 0.07470
 C3583 C 0.49897 0.64354 0.06605
 C3584 C 0.49856 0.63094 0.06009
 C3585 C 0.49808 0.61604 0.05345
 C3586 C 0.49773 0.60321 0.04800
 C3587 C 0.49744 0.58782 0.04168
 C3588 C 0.50396 0.57561 0.04992
 C3589 C 0.50397 0.56067 0.04374
 C3590 C 0.49745 0.55773 0.02917
 C3591 C 0.49079 0.57009 0.02104
 C3592 C 0.49080 0.58502 0.02727
 H3593 H 0.51375 0.66891 0.05625
 H3594 H 0.48521 0.65131 0.09270
 H3595 H 0.48618 0.67629 0.10601
 H3596 H 0.51504 0.69396 0.06963
 H3597 H 0.50912 0.57764 0.06111
 H3598 H 0.50920 0.55147 0.05032
 H3599 H 0.48567 0.56827 0.00981
 H3600 H 0.48571 0.59439 0.02080
 C3601 C 0.00678 0.16965 0.56580
 C3602 C -0.00134 0.15748 0.57243
 C3603 C -0.00859 0.15960 0.58673
 C3604 C -0.00764 0.17375 0.59443
 C3605 C 0.00060 0.18602 0.58796
 C3606 C 0.00773 0.18386 0.57349
 C3607 C -0.00204 0.14269 0.56484
 C3608 C -0.00265 0.13012 0.55885
 C3609 C -0.00335 0.11523 0.55223
 C3610 C -0.00386 0.10239 0.54685
 C3611 C -0.00429 0.08694 0.54068
 C3612 C 0.00181 0.07472 0.54920
 C3613 C 0.00170 0.05973 0.54317
 C3614 C -0.00453 0.05674 0.52849
 C3615 C -0.01080 0.06911 0.52008
 C3616 C -0.01066 0.08410 0.52615
 H3617 H 0.01248 0.16811 0.55475
 H3618 H -0.01493 0.15027 0.59195
 H3619 H -0.01347 0.17514 0.60542
 H3620 H 0.01425 0.19304 0.56828
 H3621 H 0.00676 0.07680 0.56047
 H3622 H 0.00662 0.05052 0.54998
 H3623 H -0.01569 0.06725 0.50876
 H3624 H -0.01544 0.09349 0.51946
 C3625 C 0.49645 0.17486 0.43167
 C3626 C 0.50097 0.16176 0.42320
 C3627 C 0.50492 0.16313 0.40763
 C3628 C 0.50455 0.17754 0.40059
 C3629 C 0.50023 0.19082 0.40903
 C3630 C 0.49605 0.18932 0.42463
 C3631 C 0.50177 0.14688 0.43039
 C3632 C 0.50260 0.13429 0.43612
 C3633 C 0.50365 0.11943 0.44255
 C3634 C 0.50450 0.10667 0.44788
 C3635 C 0.50535 0.09137 0.45414
 C3636 C 0.49923 0.07893 0.44589
 C3637 C 0.49952 0.06414 0.45215
 C3638 C 0.50594 0.06158 0.46681
 C3639 C 0.51232 0.07415 0.47489
 C3640 C 0.51200 0.08893 0.46859
 H3641 H 0.49338 0.17392 0.44374
 H3642 H 0.50837 0.15306 0.40095
 H3643 H 0.50758 0.17828 0.38850
 H3644 H 0.49281 0.19935 0.43145
 H3645 H 0.49407 0.08069 0.43467
 H3646 H 0.49452 0.05476 0.44559
 H3647 H 0.51735 0.07262 0.48619
 H3648 H 0.51679 0.09848 0.47507
 C3649 C 0.00925 0.66418 0.91320
 C3650 C 0.00122 0.66272 0.92706
 C3651 C -0.00706 0.67531 0.93305
 C3652 C -0.00725 0.68936 0.92524
 C3653 C 0.00094 0.69116 0.91124
 C3654 C 0.00913 0.67816 0.90537
 C3655 C 0.00149 0.64820 0.93497
 C3656 C 0.00193 0.63585 0.94122
 C3657 C 0.00261 0.62119 0.94813
 C3658 C 0.00321 0.60854 0.95373
 C3659 C 0.00385 0.59328 0.96011
 C3660 C 0.01045 0.59081 0.97458
 C3661 C 0.01092 0.57598 0.98077
 C3662 C 0.00478 0.56339 0.97253
 C3663 C -0.00171 0.56602 0.95792
 C3664 C -0.00216 0.58085 0.95178
 H3665 H 0.01554 0.65443 0.90835
 H3666 H -0.01328 0.67431 0.94384
 H3667 H -0.01335 0.69889 0.93064
 H3668 H 0.01504 0.67840 0.89439
 H3669 H 0.01517 0.60036 0.98111
 H3670 H 0.01599 0.57440 0.99204
 H3671 H -0.00656 0.55663 0.95125
 H3672 H -0.00727 0.58263 0.94054
 C3673 C 0.25545 0.68393 0.92390
 C3674 C 0.24868 0.67672 0.91113
 C3675 C 0.24299 0.66175 0.91246
 C3676 C 0.24412 0.65396 0.92644
 C3677 C 0.25100 0.66104 0.93932
 C3678 C 0.25659 0.67615 0.93793
 C3679 C 0.24778 0.68448 0.89656
 C3680 C 0.24705 0.69063 0.88417
 C3681 C 0.24628 0.69747 0.86948
 C3682 C 0.24575 0.70303 0.85681
 C3683 C 0.24536 0.70938 0.84154
 C3684 C 0.25181 0.70105 0.82920
 C3685 C 0.25178 0.70724 0.81438
 C3686 C 0.24529 0.72190 0.81168
 C3687 C 0.23868 0.73013 0.82415
 C3688 C 0.23873 0.72390 0.83898
 H3689 H 0.25995 0.69550 0.92298
 H3690 H 0.23770 0.65607 0.90267
 H3691 H 0.23948 0.64244 0.92721
 H3692 H 0.26206 0.68185 0.94760
 H3693 H 0.25697 0.68980 0.83105
 H3694 H 0.25696 0.70057 0.80508
 H3695 H 0.23359 0.74144 0.82251
 H3696 H 0.23370 0.73045 0.84845
 C3697 C 0.75066 0.16145 0.41092
 C3698 C 0.74514 0.17664 0.41043
 C3699 C 0.74086 0.18423 0.42411
 C3700 C 0.74213 0.17666 0.43824
 C3701 C 0.74774 0.16140 0.43885
 C3702 C 0.75196 0.15388 0.42501
 C3703 C 0.74402 0.18436 0.39584
 C3704 C 0.74332 0.19052 0.38346
 C3705 C 0.74278 0.19742 0.36879
 C3706 C 0.74258 0.20308 0.35614
 C3707 C 0.74266 0.20957 0.34092
 C3708 C 0.73663 0.22435 0.33841
 C3709 C 0.73712 0.23076 0.32368
 C3710 C 0.74370 0.22246 0.31124
 C3711 C 0.74960 0.20753 0.31388
 C3712 C 0.74908 0.20117 0.32862
 H3713 H 0.75396 0.15544 0.40040
 H3714 H 0.73660 0.19600 0.42387
 H3715 H 0.73892 0.18280 0.44871
 H3716 H 0.75607 0.14205 0.42504
 H3717 H 0.73164 0.23097 0.34787
 H3718 H 0.73248 0.24226 0.32207
 H3719 H 0.75473 0.20079 0.30461
 H3720 H 0.75379 0.18972 0.33043
 C3721 C 0.24800 0.33637 0.41302
 C3722 C 0.25697 0.32299 0.41129
 C3723 C 0.26489 0.31702 0.42399
 C3724 C 0.26396 0.32451 0.43832
 C3725 C 0.25514 0.33811 0.44010
 C3726 C 0.24708 0.34388 0.42731
 C3727 C 0.25812 0.31561 0.39640
 C3728 C 0.25887 0.30979 0.38374
 C3729 C 0.25947 0.30332 0.36876
 C3730 C 0.25972 0.29801 0.35587
 C3731 C 0.25969 0.29184 0.34041
 C3732 C 0.26581 0.27715 0.33733
 C3733 C 0.26522 0.27097 0.32240
 C3734 C 0.25845 0.27940 0.31033
 C3735 C 0.25254 0.29427 0.31354
 C3736 C 0.25315 0.30041 0.32847
 H3737 H 0.24177 0.34105 0.40330
 H3738 H 0.27189 0.30667 0.42277
 H3739 H 0.27041 0.31988 0.44792
 H3740 H 0.23999 0.35417 0.42836
 H3741 H 0.27089 0.27042 0.34649
 H3742 H 0.26990 0.25951 0.32037
 H3743 H 0.24727 0.30110 0.30456
 H3744 H 0.24838 0.31180 0.33073
 C3745 C 0.73958 0.83148 0.91570
 C3746 C 0.75079 0.81996 0.91360
 C3747 C 0.76072 0.81620 0.92572
 C3748 C 0.75960 0.82412 0.93981
 C3749 C 0.74856 0.83594 0.94190
 C3750 C 0.73846 0.83942 0.92974
 C3751 C 0.75232 0.81239 0.89884
 C3752 C 0.75343 0.80642 0.88628
 C3753 C 0.75450 0.79982 0.87139
 C3754 C 0.75516 0.79445 0.85854
 C3755 C 0.75560 0.78830 0.84308
 C3756 C 0.76203 0.77372 0.84010
 C3757 C 0.76193 0.76760 0.82513
 C3758 C 0.75535 0.77599 0.81293
 C3759 C 0.74911 0.79074 0.81605
 C3760 C 0.74924 0.79682 0.83101
 H3761 H 0.73181 0.83446 0.90642
 H3762 H 0.76947 0.80732 0.92420
 H3763 H 0.76764 0.82129 0.94890
 H3764 H 0.72970 0.84830 0.93108
 H3765 H 0.76698 0.76703 0.84936
 H3766 H 0.76684 0.75623 0.82316
 H3767 H 0.74398 0.79754 0.80698
 H3768 H 0.74423 0.80812 0.83320
 C3769 C 0.74417 0.84031 0.09015
 C3770 C 0.74947 0.82508 0.09107
 C3771 C 0.75482 0.81745 0.07777
 C3772 C 0.75474 0.82501 0.06358
 C3773 C 0.74924 0.84028 0.06253
 C3774 C 0.74406 0.84787 0.07600
 C3775 C 0.74925 0.81734 0.10568
 C3776 C 0.74888 0.81117 0.11807
 C3777 C 0.74831 0.80428 0.13273
 C3778 C 0.74780 0.79863 0.14537
 C3779 C 0.74725 0.79213 0.16057
 C3780 C 0.74070 0.77764 0.16291
 C3781 C 0.74030 0.77133 0.17768
 C3782 C 0.74647 0.77943 0.19034
 C3783 C 0.75293 0.79405 0.18785
 C3784 C 0.75331 0.80033 0.17308
 H3785 H 0.74007 0.84635 0.10037
 H3786 H 0.75894 0.80564 0.07835
 H3787 H 0.75867 0.81883 0.05339
 H3788 H 0.74000 0.85970 0.07563
 H3789 H 0.73595 0.77121 0.15330
 H3790 H 0.73525 0.76006 0.17916
 H3791 H 0.75779 0.80063 0.19730
 H3792 H 0.75839 0.81157 0.17141
 C3793 C 0.24090 0.31651 0.57712
 C3794 C 0.24476 0.32448 0.59065
 C3795 C 0.25011 0.33963 0.58980
 C3796 C 0.25163 0.34677 0.57551
 C3797 C 0.24783 0.33887 0.56182
 C3798 C 0.24240 0.32365 0.56279
 C3799 C 0.24342 0.31718 0.60544
 C3800 C 0.24254 0.31131 0.61796
 C3801 C 0.24181 0.30467 0.63274
 C3802 C 0.24146 0.29914 0.64545
 C3803 C 0.24142 0.29265 0.66067
 C3804 C 0.24781 0.30090 0.67299
 C3805 C 0.24844 0.29439 0.68766
 C3806 C 0.24269 0.27949 0.69023
 C3807 C 0.23605 0.27140 0.67781
 C3808 C 0.23544 0.27794 0.66314
 H3809 H 0.23680 0.30476 0.57764
 H3810 H 0.25309 0.34593 0.60019
 H3811 H 0.25558 0.35858 0.57520
 H3812 H 0.23952 0.31722 0.55246
 H3813 H 0.25248 0.31230 0.67122
 H3814 H 0.25361 0.30097 0.69693
 H3815 H 0.23150 0.25992 0.67935
 H3816 H 0.23048 0.27145 0.65368
 C3817 C 0.74763 0.18219 0.57678
 C3818 C 0.75761 0.17673 0.58819
 C3819 C 0.76679 0.16369 0.58526
 C3820 C 0.76588 0.15601 0.57108
 C3821 C 0.75572 0.16125 0.55960
 C3822 C 0.74671 0.17452 0.56255
 C3823 C 0.75812 0.18416 0.60308
 C3824 C 0.75846 0.19010 0.61569
 C3825 C 0.75872 0.19676 0.63059
 C3826 C 0.75876 0.20225 0.64341
 C3827 C 0.75855 0.20861 0.65879
 C3828 C 0.76463 0.22323 0.66173
 C3829 C 0.76398 0.22954 0.67662
 C3830 C 0.75722 0.22130 0.68878
 C3831 C 0.75133 0.20651 0.68571
 C3832 C 0.75199 0.20023 0.67082
 H3833 H 0.74042 0.19224 0.57895
 H3834 H 0.77457 0.15937 0.59400
 H3835 H 0.77315 0.14597 0.56907
 H3836 H 0.73867 0.17875 0.55402
 H3837 H 0.76974 0.22981 0.65250
 H3838 H 0.76864 0.24094 0.67855
 H3839 H 0.74606 0.19981 0.69476
 H3840 H 0.74726 0.18890 0.66868
 C3841 C 0.24203 0.67904 0.07941
 C3842 C 0.25563 0.67857 0.08804
 C3843 C 0.26856 0.67067 0.08224
 C3844 C 0.26787 0.66315 0.06794
 C3845 C 0.25420 0.66341 0.05924
 C3846 C 0.24131 0.67152 0.06511
 C3847 C 0.25620 0.68583 0.10301
 C3848 C 0.25662 0.69172 0.11564
 C3849 C 0.25697 0.69844 0.13052
 C3850 C 0.25709 0.70405 0.14328
 C3851 C 0.25698 0.71063 0.15858
 C3852 C 0.26286 0.72539 0.16122
 C3853 C 0.26224 0.73196 0.17599
 C3854 C 0.25568 0.72384 0.18835
 C3855 C 0.25000 0.70891 0.18559
 C3856 C 0.25064 0.70238 0.17081
 H3857 H 0.23196 0.68513 0.08378
 H3858 H 0.27912 0.67017 0.08885
 H3859 H 0.27791 0.65683 0.06387
 H3860 H 0.23068 0.67208 0.05862
 H3861 H 0.26780 0.73189 0.15182
 H3862 H 0.26674 0.74346 0.17768
 H3863 H 0.24489 0.70231 0.19480
 H3864 H 0.24605 0.69094 0.16890
 C3865 C 0.18312 0.57611 0.75744
 C3866 C 0.17878 0.58836 0.74796
 C3867 C 0.16665 0.58653 0.73754
 C3868 C 0.15871 0.57260 0.73676
 C3869 C 0.16280 0.56029 0.74642
 C3870 C 0.17520 0.56214 0.75667
 C3871 C 0.18639 0.60300 0.74921
 C3872 C 0.19243 0.61543 0.75020
 C3873 C 0.19914 0.63016 0.75126
 C3874 C 0.20460 0.64287 0.75202
 C3875 C 0.21082 0.65819 0.75271
 C3876 C 0.20237 0.67055 0.74671
 C3877 C 0.20843 0.68542 0.74707
 C3878 C 0.22307 0.68815 0.75344
 C3879 C 0.23143 0.67564 0.75957
 C3880 C 0.22533 0.66076 0.75919
 H3881 H 0.19247 0.57742 0.76559
 H3882 H 0.16322 0.59594 0.73012
 H3883 H 0.14936 0.57146 0.72861
 H3884 H 0.17850 0.55294 0.76438
 H3885 H 0.19112 0.66868 0.74168
 H3886 H 0.20166 0.69475 0.74226
 H3887 H 0.24272 0.67731 0.76456
 H3888 H 0.23196 0.65127 0.76388
 C3889 C 0.68416 0.07715 0.24121
 C3890 C 0.67625 0.09060 0.24556
 C3891 C 0.66050 0.09003 0.24874
 C3892 C 0.65262 0.07610 0.24762
 C3893 C 0.66035 0.06228 0.24328
 C3894 C 0.67635 0.06314 0.24010
 C3895 C 0.68418 0.10507 0.24678
 C3896 C 0.69044 0.11738 0.24785
 C3897 C 0.69738 0.13199 0.24910
 C3898 C 0.70302 0.14461 0.25008
 C3899 C 0.70946 0.15982 0.25107
 C3900 C 0.70156 0.17229 0.24460
 C3901 C 0.70782 0.18707 0.24530
 C3902 C 0.72212 0.18959 0.25250
 C3903 C 0.72990 0.17696 0.25911
 C3904 C 0.72360 0.16218 0.25839
 H3905 H 0.69637 0.07750 0.23859
 H3906 H 0.65427 0.10038 0.25225
 H3907 H 0.64059 0.07626 0.25088
 H3908 H 0.68289 0.05318 0.23619
 H3909 H 0.69059 0.17059 0.23893
 H3910 H 0.70150 0.19649 0.24009
 H3911 H 0.74092 0.17846 0.26474
 H3912 H 0.72980 0.15260 0.26346
 C3913 C 0.81807 0.07521 0.73864
 C3914 C 0.82592 0.08863 0.74288
 C3915 C 0.84094 0.08756 0.74860
 C3916 C 0.84807 0.07316 0.75019
 C3917 C 0.84025 0.05958 0.74609
 C3918 C 0.82519 0.06077 0.74021
 C3919 C 0.81858 0.10353 0.74165
 C3920 C 0.81266 0.11613 0.74092
 C3921 C 0.80594 0.13101 0.74041
 C3922 C 0.80032 0.14377 0.74028
 C3923 C 0.79369 0.15905 0.74051
 C3924 C 0.80177 0.17125 0.74726
 C3925 C 0.79512 0.18597 0.74814
 C3926 C 0.78023 0.18871 0.74230
 C3927 C 0.77230 0.17640 0.73531
 C3928 C 0.77899 0.16168 0.73444
 H3929 H 0.80642 0.07591 0.73424
 H3930 H 0.84715 0.09786 0.75188
 H3931 H 0.85976 0.07266 0.75450
 H3932 H 0.81884 0.05052 0.73708
 H3933 H 0.81316 0.16935 0.75200
 H3934 H 0.80158 0.19515 0.75358
 H3935 H 0.76083 0.17807 0.73067
 H3936 H 0.77262 0.15232 0.72921
 C3937 C 0.31781 0.57893 0.23756
 C3938 C 0.32185 0.59123 0.24724
 C3939 C 0.33339 0.58920 0.25829
 C3940 C 0.34103 0.57501 0.25951
 C3941 C 0.33724 0.56264 0.24967
 C3942 C 0.32544 0.56470 0.23878
 C3943 C 0.31447 0.60607 0.24568
 C3944 C 0.30859 0.61866 0.24453
 C3945 C 0.30198 0.63354 0.24341
 C3946 C 0.29652 0.64635 0.24271
 C3947 C 0.29016 0.66173 0.24224
 C3948 C 0.29840 0.67403 0.24859
 C3949 C 0.29203 0.68889 0.24879
 C3950 C 0.27728 0.69168 0.24264
 C3951 C 0.26920 0.67926 0.23601
 C3952 C 0.27561 0.66440 0.23584
 H3953 H 0.30892 0.58038 0.22894
 H3954 H 0.33657 0.59862 0.26588
 H3955 H 0.34990 0.57373 0.26816
 H3956 H 0.32238 0.55546 0.23093
 H3957 H 0.30968 0.67210 0.25358
 H3958 H 0.29860 0.69814 0.25396
 H3959 H 0.25784 0.68097 0.23116
 H3960 H 0.26913 0.65496 0.23089
 C3961 C 0.32397 0.42233 0.26495
 C3962 C 0.32334 0.41323 0.25158
 C3963 C 0.32971 0.41867 0.23782
 C3964 C 0.33692 0.43304 0.23751
 C3965 C 0.33790 0.44213 0.25099
 C3966 C 0.33118 0.43667 0.26467
 C3967 C 0.31661 0.39812 0.25214
 C3968 C 0.31114 0.38540 0.25278
 C3969 C 0.30490 0.37044 0.25361
 C3970 C 0.29964 0.35764 0.25428
 C3971 C 0.29339 0.34232 0.25492
 C3972 C 0.30155 0.32990 0.24837
 C3973 C 0.29526 0.31511 0.24842
 C3974 C 0.28067 0.31253 0.25504
 C3975 C 0.27268 0.32506 0.26186
 C3976 C 0.27901 0.33984 0.26178
 H3977 H 0.31905 0.41825 0.27565
 H3978 H 0.32933 0.41170 0.22741
 H3979 H 0.34212 0.43684 0.22685
 H3980 H 0.33155 0.44348 0.27518
 H3981 H 0.31270 0.33168 0.24304
 H3982 H 0.30174 0.30576 0.24308
 H3983 H 0.26144 0.32351 0.26705
 H3984 H 0.27260 0.34937 0.26690
 C3985 C 0.83380 0.91356 0.76928
 C3986 C 0.82147 0.91041 0.75943
 C3987 C 0.81674 0.92146 0.74872
 C3988 C 0.82448 0.93552 0.74770
 C3989 C 0.83709 0.93865 0.75735
 C3990 C 0.84155 0.92757 0.76827
 C3991 C 0.81410 0.89561 0.75998
 C3992 C 0.80828 0.88304 0.76035
 C3993 C 0.80179 0.86817 0.76065
 C3994 C 0.79646 0.85537 0.76071
 C3995 C 0.79029 0.84001 0.76051
 C3996 C 0.79879 0.82792 0.75379
 C3997 C 0.79266 0.81308 0.75306
 C3998 C 0.77788 0.81011 0.75905
 C3999 C 0.76952 0.82232 0.76601
 C4000 C 0.77569 0.83716 0.76671
 H4001 H 0.83754 0.90511 0.77763
 H4002 H 0.80724 0.91911 0.74099
 H4003 H 0.82087 0.94374 0.73909
 H4004 H 0.85106 0.92974 0.77602
 H4005 H 0.81011 0.83000 0.74896
 H4006 H 0.79944 0.80399 0.74764
 H4007 H 0.75812 0.82047 0.77074
 H4008 H 0.76900 0.84643 0.77195
 C4009 C 0.67199 0.92053 0.26137
 C4010 C 0.67848 0.91417 0.24794
 C4011 C 0.67741 0.92217 0.23404
 C4012 C 0.66966 0.93634 0.23351
 C4013 C 0.66285 0.94271 0.24688
 C4014 C 0.66424 0.93473 0.26087
 C4015 C 0.68574 0.89919 0.24824
 C4016 C 0.69159 0.88653 0.24830
 C4017 C 0.69820 0.87161 0.24823
 C4018 C 0.70368 0.85879 0.24811
 C4019 C 0.71005 0.84341 0.24799
 C4020 C 0.72447 0.84047 0.24125
 C4021 C 0.73066 0.82552 0.24119
 C4022 C 0.72249 0.81330 0.24789
 C4023 C 0.70796 0.81640 0.25457
 C4024 C 0.70181 0.83135 0.25461
 H4025 H 0.67270 0.91441 0.27218
 H4026 H 0.68241 0.91736 0.22358
 H4027 H 0.66897 0.94231 0.22261
 H4028 H 0.65897 0.93925 0.27132
 H4029 H 0.73094 0.84972 0.23607
 H4030 H 0.74186 0.82358 0.23596
 H4031 H 0.70134 0.80730 0.25983
 H4032 H 0.69062 0.83350 0.25983
 C4033 C 0.17542 0.42042 0.73373
 C4034 C 0.17673 0.41192 0.74731
 C4035 C 0.17066 0.41788 0.76111
 C4036 C 0.16310 0.43219 0.76130
 C4037 C 0.16148 0.44070 0.74765
 C4038 C 0.16786 0.43471 0.73389
 C4039 C 0.18391 0.39690 0.74694
 C4040 C 0.18973 0.38424 0.74653
 C4041 C 0.19636 0.36933 0.74601
 C4042 C 0.20191 0.35655 0.74562
 C4043 C 0.20844 0.34124 0.74530
 C4044 C 0.20040 0.32904 0.75193
 C4045 C 0.20686 0.31423 0.75202
 C4046 C 0.22150 0.31140 0.74547
 C4047 C 0.22940 0.32373 0.73864
 C4048 C 0.22290 0.33854 0.73858
 H4049 H 0.18010 0.41593 0.72299
 H4050 H 0.17157 0.41137 0.77167
 H4051 H 0.15816 0.43641 0.77203
 H4052 H 0.16698 0.44108 0.72325
 H4053 H 0.18919 0.33101 0.75716
 H4054 H 0.20044 0.30504 0.75736
 H4055 H 0.24067 0.32199 0.73348
 H4056 H 0.22922 0.34790 0.73340
 C4057 C 0.07546 0.75760 0.81513
 C4058 C 0.08778 0.74911 0.82123
 C4059 C 0.08602 0.74158 0.83530
 C4060 C 0.07209 0.74263 0.84334
 C4061 C 0.05968 0.75128 0.83744
 C4062 C 0.06146 0.75865 0.82316
 C4063 C 0.10241 0.74839 0.81338
 C4064 C 0.11489 0.74773 0.80726
 C4065 C 0.12972 0.74698 0.80056
 C4066 C 0.14254 0.74642 0.79518
 C4067 C 0.15799 0.74592 0.78909
 C4068 C 0.17004 0.75237 0.79757
 C4069 C 0.18504 0.75215 0.79166
 C4070 C 0.18821 0.74546 0.77714
 C4071 C 0.17601 0.73886 0.76876
 C4072 C 0.16101 0.73910 0.77471
 H4073 H 0.07672 0.76352 0.80426
 H4074 H 0.09546 0.73495 0.84011
 H4075 H 0.07099 0.73660 0.85417
 H4076 H 0.05216 0.76548 0.81839
 H4077 H 0.16784 0.75766 0.80873
 H4078 H 0.19412 0.75734 0.79844
 H4079 H 0.17801 0.73362 0.75755
 H4080 H 0.15175 0.73405 0.76805
 C4081 C 0.58569 0.24240 0.33387
 C4082 C 0.58738 0.25035 0.32002
 C4083 C 0.57510 0.25917 0.31432
 C4084 C 0.56121 0.26015 0.32255
 C4085 C 0.55951 0.25236 0.33660
 C4086 C 0.57187 0.24338 0.34210
 C4087 C 0.60191 0.24972 0.31201
 C4088 C 0.61434 0.24915 0.30578
 C4089 C 0.62913 0.24849 0.29901
 C4090 C 0.64194 0.24801 0.29362
 C4091 C 0.65742 0.24760 0.28762
 C4092 C 0.66051 0.24121 0.27307
 C4093 C 0.67558 0.24099 0.26728
 C4094 C 0.68775 0.24718 0.27600
 C4095 C 0.68449 0.25349 0.29067
 C4096 C 0.66944 0.25369 0.29642
 H4097 H 0.59511 0.23552 0.33837
 H4098 H 0.57632 0.26542 0.30363
 H4099 H 0.55194 0.26724 0.31809
 H4100 H 0.57081 0.23704 0.35275
 H4101 H 0.65128 0.23645 0.26618
 H4102 H 0.67766 0.23605 0.25594
 H4103 H 0.69355 0.25836 0.29771
 H4104 H 0.66716 0.25864 0.30772
 C4105 C 0.58586 0.73971 0.16901
 C4106 C 0.58776 0.75093 0.18050
 C4107 C 0.57549 0.76083 0.18436
 C4108 C 0.56145 0.75968 0.17656
 C4109 C 0.55955 0.74863 0.16475
 C4110 C 0.57187 0.73855 0.16119
 C4111 C 0.60249 0.75254 0.18792
 C4112 C 0.61501 0.75375 0.19377
 C4113 C 0.62985 0.75496 0.20026
 C4114 C 0.64265 0.75578 0.20555
 C4115 C 0.65806 0.75644 0.21163
 C4116 C 0.66075 0.76290 0.22620
 C4117 C 0.67567 0.76304 0.23225
 C4118 C 0.68812 0.75669 0.22380
 C4119 C 0.68529 0.75042 0.20907
 C4120 C 0.67037 0.75030 0.20305
 H4121 H 0.59527 0.73196 0.16596
 H4122 H 0.57685 0.76960 0.19322
 H4123 H 0.55224 0.76771 0.17944
 H4124 H 0.57069 0.72979 0.15231
 H4125 H 0.65130 0.76769 0.23294
 H4126 H 0.67741 0.76795 0.24363
 H4127 H 0.69456 0.74543 0.20223
 H4128 H 0.66841 0.74527 0.19175
 C4129 C 0.08826 0.25580 0.66250
 C4130 C 0.08898 0.25263 0.67821
 C4131 C 0.07570 0.24807 0.68604
 C4132 C 0.06173 0.24662 0.67815
 C4133 C 0.06076 0.24964 0.66217
 C4134 C 0.07438 0.25435 0.65455
 C4135 C 0.10348 0.25384 0.68611
 C4136 C 0.11587 0.25478 0.69228
 C4137 C 0.13060 0.25572 0.69904
 C4138 C 0.14335 0.25632 0.70448
 C4139 C 0.15872 0.25670 0.71065
 C4140 C 0.16142 0.26289 0.72533
 C4141 C 0.17632 0.26273 0.73145
 C4142 C 0.18871 0.25633 0.72295
 C4143 C 0.18587 0.25036 0.70810
 C4144 C 0.17098 0.25054 0.70201
 H4145 H 0.09846 0.25948 0.65634
 H4146 H 0.07617 0.24545 0.69822
 H4147 H 0.05194 0.24250 0.68461
 H4148 H 0.07439 0.25756 0.64254
 H4149 H 0.15200 0.26769 0.73210
 H4150 H 0.17807 0.26742 0.74291
 H4151 H 0.19511 0.24536 0.70121
 H4152 H 0.16901 0.24573 0.69063
 C4153 C 0.91246 0.24270 0.66113
 C4154 C 0.91146 0.24745 0.67655
 C4155 C 0.92468 0.25256 0.68421
 C4156 C 0.93888 0.25277 0.67649
 C4157 C 0.94001 0.24780 0.66104
 C4158 C 0.92660 0.24288 0.65343
 C4159 C 0.89684 0.24692 0.68440
 C4160 C 0.88442 0.24631 0.69061
 C4161 C 0.86968 0.24551 0.69749
 C4162 C 0.85697 0.24489 0.70308
 C4163 C 0.84166 0.24432 0.70948
 C4164 C 0.83912 0.23770 0.72391
 C4165 C 0.82426 0.23755 0.73024
 C4166 C 0.81175 0.24405 0.72220
 C4167 C 0.81444 0.25047 0.70758
 C4168 C 0.82928 0.25060 0.70130
 H4169 H 0.90229 0.23880 0.65507
 H4170 H 0.92404 0.25627 0.69615
 H4171 H 0.94902 0.25651 0.68269
 H4172 H 0.92704 0.23924 0.64146
 H4173 H 0.84863 0.23279 0.73033
 H4174 H 0.82264 0.23251 0.74150
 H4175 H 0.80511 0.25556 0.70105
 H4176 H 0.83112 0.25573 0.69011
 C4177 C 0.42300 0.75477 0.18328
 C4178 C 0.40986 0.74972 0.17544
 C4179 C 0.41106 0.74489 0.16006
 C4180 C 0.42533 0.74493 0.15257
 C4181 C 0.43866 0.74980 0.16037
 C4182 C 0.43732 0.75484 0.17579
 C4183 C 0.39512 0.74933 0.18310
 C4184 C 0.38262 0.74884 0.18918
 C4185 C 0.36783 0.74820 0.19596
 C4186 C 0.35509 0.74770 0.20152
 C4187 C 0.33977 0.74728 0.20792
 C4188 C 0.32741 0.75353 0.19968
 C4189 C 0.31256 0.75354 0.20598
 C4190 C 0.30985 0.74730 0.22067
 C4191 C 0.32234 0.74082 0.22877
 C4192 C 0.33719 0.74083 0.22243
 H4193 H 0.42220 0.75853 0.19520
 H4194 H 0.40096 0.74103 0.15386
 H4195 H 0.42593 0.74124 0.14063
 H4196 H 0.44739 0.75852 0.18213
 H4197 H 0.32927 0.75853 0.18843
 H4198 H 0.30325 0.75861 0.19940
 H4199 H 0.32069 0.73592 0.24009
 H4200 H 0.34668 0.73594 0.22890
 C4201 C 0.42432 0.25035 0.31677
 C4202 C 0.41092 0.25519 0.32452
 C4203 C 0.41167 0.25957 0.34005
 C4204 C 0.42574 0.25921 0.34780
 C4205 C 0.43931 0.25447 0.34012
 C4206 C 0.43843 0.24997 0.32452
 C4207 C 0.39636 0.25567 0.31664
 C4208 C 0.38402 0.25613 0.31033
 C4209 C 0.36940 0.25665 0.30326
 C4210 C 0.35681 0.25700 0.29745
 C4211 C 0.34166 0.25720 0.29076
 C4212 C 0.32923 0.25108 0.29892
 C4213 C 0.31455 0.25089 0.29238
 C4214 C 0.31207 0.25683 0.27752
 C4215 C 0.32462 0.26315 0.26948
 C4216 C 0.33931 0.26332 0.27607
 H4217 H 0.42386 0.24693 0.30474
 H4218 H 0.40136 0.26326 0.34617
 H4219 H 0.42599 0.26251 0.35986
 H4220 H 0.44870 0.24641 0.31826
 H4221 H 0.33092 0.24634 0.31031
 H4222 H 0.30518 0.24597 0.29892
 H4223 H 0.32314 0.26782 0.25804
 H4224 H 0.34886 0.26810 0.26966
 C4225 C 0.92308 0.74811 0.81844
 C4226 C 0.90982 0.75284 0.82649
 C4227 C 0.91090 0.75723 0.84199
 C4228 C 0.92516 0.75704 0.84941
 C4229 C 0.93859 0.75245 0.84140
 C4230 C 0.93739 0.74789 0.82585
 C4231 C 0.89508 0.75328 0.81893
 C4232 C 0.88260 0.75375 0.81288
 C4233 C 0.86785 0.75433 0.80607
 C4234 C 0.85518 0.75475 0.80043
 C4235 C 0.83998 0.75508 0.79383
 C4236 C 0.82762 0.74863 0.80184
 C4237 C 0.81292 0.74848 0.79530
 C4238 C 0.81037 0.75479 0.78061
 C4239 C 0.82285 0.76147 0.77276
 C4240 C 0.83755 0.76159 0.77933
 H4241 H 0.92238 0.74469 0.80642
 H4242 H 0.90070 0.76084 0.84836
 H4243 H 0.92565 0.76036 0.86145
 H4244 H 0.94754 0.74444 0.81935
 H4245 H 0.82937 0.74357 0.81308
 H4246 H 0.80361 0.74326 0.80168
 H4247 H 0.82133 0.76642 0.76144
 H4248 H 0.84704 0.76663 0.77305
   
