data_POSCAR
  _audit_creation_date              2014-09-24
  _audit_creation_method            'ToBaCCo'
  _symmetry_space_group_name_H-M    'P1'
  _symmetry_Int_Tables_number       1
  _symmetry_cell_setting            triclinic
  loop_
  _symmetry_equiv_pos_as_xyz
 x,y,z
_cell_length_a 67.7691
_cell_length_b 67.7733
_cell_length_c 67.7246
_cell_angle_alpha 90.000700
_cell_angle_beta 90.004600
_cell_angle_gamma 89.974100
loop_
  _atom_site_label
  _atom_site_type_symbol
  _atom_site_fract_x
  _atom_site_fract_y
  _atom_site_fract_z
C1 C 0.36665 1.35292 0.33769
 C2 C 0.36672 1.33835 0.35240
 C3 C 0.35228 1.33834 0.36683
 C4 C 0.33756 1.35289 0.36676
 C5 C 0.33749 1.36727 0.35225
 C6 C 0.35213 1.36728 0.33762
 C7 C 0.37848 1.35617 0.32150
 N8 N 0.37148 1.37215 0.31158
 C9 C 0.35537 1.37905 0.32137
 C10 C 0.32123 1.37903 0.35549
 N11 N 0.31144 1.37211 0.37159
 C12 C 0.32137 1.35613 0.37858
 C13 C 0.35562 1.32221 0.37872
 N14 N 0.37172 1.31246 0.37182
 C15 C 0.37862 1.32223 0.35574
 H16 H 0.39109 1.34738 0.31714
 H17 H 0.34648 1.39156 0.31688
 H18 H 0.31675 1.39154 0.34660
 H19 H 0.31701 1.34732 0.39119
 H20 H 0.34682 1.31773 0.39129
 H21 H 0.39119 1.31776 0.34694
 C22 C 0.36682 0.85312 0.83855
 C23 C 0.36681 0.83849 0.85320
 C24 C 0.35231 0.83843 0.86758
 C25 C 0.33761 0.85301 0.86751
 C26 C 0.33761 0.86744 0.85306
 C27 C 0.35232 0.86750 0.83848
 C28 C 0.37869 0.85642 0.82240
 N29 N 0.37172 0.87242 0.81256
 C30 C 0.35561 0.87931 0.82228
 C31 C 0.32137 0.87921 0.85626
 N32 N 0.31149 0.87224 0.87228
 C33 C 0.32136 0.85622 0.87927
 C34 C 0.35560 0.82224 0.87940
 N35 N 0.37172 0.81251 0.87252
 C36 C 0.37868 0.82234 0.85651
 H37 H 0.39129 0.84764 0.81798
 H38 H 0.34676 0.89182 0.81774
 H39 H 0.31694 0.89175 0.84740
 H40 H 0.31693 0.84737 0.89182
 H41 H 0.34675 0.81771 0.89192
 H42 H 0.39129 0.81791 0.84774
 C43 C 0.86598 1.35237 0.83705
 C44 C 0.86606 1.33781 0.85176
 C45 C 0.85161 1.33780 0.86620
 C46 C 0.83689 1.35234 0.86611
 C47 C 0.83680 1.36671 0.85160
 C48 C 0.85145 1.36672 0.83696
 C49 C 0.87784 1.35565 0.82089
 N50 N 0.87086 1.37163 0.81097
 C51 C 0.85472 1.37851 0.82073
 C52 C 0.82056 1.37848 0.85485
 N53 N 0.81079 1.37158 0.87097
 C54 C 0.82071 1.35559 0.87795
 C55 C 0.85499 1.32170 0.87812
 N56 N 0.87111 1.31197 0.87125
 C57 C 0.87799 1.32172 0.85514
 H58 H 0.89048 1.34687 0.81656
 H59 H 0.84584 1.39103 0.81624
 H60 H 0.81608 1.39100 0.84597
 H61 H 0.81637 1.34681 0.89058
 H62 H 0.84620 1.31723 0.89070
 H63 H 0.89059 1.31728 0.84637
 C64 C 0.86741 0.85292 0.33769
 C65 C 0.86745 0.83832 0.35237
 C66 C 0.85306 0.83836 0.36686
 C67 C 0.83842 0.85300 0.36686
 C68 C 0.83838 0.86740 0.35238
 C69 C 0.85298 0.86736 0.33770
 C70 C 0.87920 0.85615 0.32146
 N71 N 0.87223 0.87219 0.31160
 C72 C 0.85620 0.87915 0.32147
 C73 C 0.82219 0.87922 0.35567
 N74 N 0.81244 0.87232 0.37176
 C75 C 0.82226 0.85629 0.37872
 C76 C 0.85635 0.82220 0.37871
 N77 N 0.87237 0.81237 0.37175
 C78 C 0.87927 0.82212 0.35565
 H79 H 0.89175 0.84730 0.31703
 H80 H 0.84736 0.89171 0.31705
 H81 H 0.81768 0.89175 0.34683
 H82 H 0.81781 0.84751 0.39130
 H83 H 0.84757 0.81775 0.39130
 H84 H 0.89180 0.81760 0.34682
 C85 C 0.63236 0.64663 0.33805
 C86 C 0.63232 0.66123 0.35273
 C87 C 0.64673 0.66120 0.36721
 C88 C 0.66137 0.64657 0.36721
 C89 C 0.66141 0.63216 0.35273
 C90 C 0.64680 0.63219 0.33805
 C91 C 0.62058 0.64340 0.32182
 N92 N 0.62755 0.62738 0.31195
 C93 C 0.64359 0.62041 0.32182
 C94 C 0.67761 0.62036 0.35600
 N95 N 0.68737 0.62727 0.37209
 C96 C 0.67755 0.64329 0.37905
 C97 C 0.64344 0.67737 0.37905
 N98 N 0.62742 0.68719 0.37208
 C99 C 0.62050 0.67743 0.35600
 H100 H 0.60803 0.65225 0.31738
 H101 H 0.65244 0.60787 0.31738
 H102 H 0.68213 0.60783 0.34716
 H103 H 0.68200 0.65208 0.39163
 H104 H 0.65223 0.68184 0.39163
 H105 H 0.60798 0.68194 0.34716
 C106 C 0.63401 0.14772 0.83685
 C107 C 0.63392 0.16227 0.85158
 C108 C 0.64836 0.16227 0.86602
 C109 C 0.66308 0.14772 0.86594
 C110 C 0.66317 0.13336 0.85141
 C111 C 0.64853 0.13336 0.83677
 C112 C 0.62215 0.14444 0.82068
 N113 N 0.62914 0.12846 0.81076
 C114 C 0.64527 0.12157 0.82053
 C115 C 0.67941 0.12158 0.85467
 N116 N 0.68917 0.12847 0.87081
 C117 C 0.67924 0.14445 0.87780
 C118 C 0.64497 0.17835 0.87796
 N119 N 0.62886 0.18808 0.87109
 C120 C 0.62198 0.17835 0.85497
 H121 H 0.60951 0.15321 0.81635
 H122 H 0.65415 0.10906 0.81605
 H123 H 0.68389 0.10907 0.84579
 H124 H 0.68358 0.15323 0.89044
 H125 H 0.65375 0.18280 0.89056
 H126 H 0.60939 0.18281 0.84619
 C127 C 1.13301 0.64673 0.83881
 C128 C 1.13301 0.66137 0.85343
 C129 C 1.14751 0.66145 0.86781
 C130 C 1.16222 0.64687 0.86776
 C131 C 1.16221 0.63242 0.85332
 C132 C 1.14751 0.63235 0.83875
 C133 C 1.12114 0.64341 0.82265
 N134 N 1.12811 0.62740 0.81282
 C135 C 1.14423 0.62052 0.82256
 C136 C 1.17847 0.62067 0.85653
 N137 N 1.18835 0.62766 0.87254
 C138 C 1.17848 0.64368 0.87951
 C139 C 1.14423 0.67765 0.87962
 N140 N 1.12811 0.68737 0.87272
 C141 C 1.12114 0.67752 0.85672
 H142 H 1.10854 0.65218 0.81821
 H143 H 1.15308 0.60801 0.81802
 H144 H 1.18290 0.60812 0.84767
 H145 H 1.18292 0.65255 0.89205
 H146 H 1.15308 0.68221 0.89212
 H147 H 1.10854 0.68194 0.84794
 C148 C 1.13337 0.14706 0.33760
 C149 C 1.13330 0.16161 0.35232
 C150 C 1.14775 0.16160 0.36676
 C151 C 1.16246 0.14704 0.36667
 C152 C 1.16253 0.13268 0.35214
 C153 C 1.14788 0.13269 0.33751
 C154 C 1.12153 0.14383 0.32141
 N155 N 1.12853 0.12785 0.31147
 C156 C 1.14464 0.12094 0.32125
 C157 C 1.17877 0.12091 0.35536
 N158 N 1.18857 0.12781 0.37147
 C159 C 1.17866 0.14378 0.37849
 C160 C 1.14441 0.17771 0.37867
 N161 N 1.12832 0.18747 0.37179
 C162 C 1.12141 0.17773 0.35569
 H163 H 1.10892 0.15263 0.31706
 H164 H 1.15352 0.10843 0.31675
 H165 H 1.18325 0.10841 0.34646
 H166 H 1.18302 0.15257 0.39111
 H167 H 1.15322 0.18218 0.39124
 H168 H 1.10884 0.18221 0.34690
 C169 C 0.63275 1.35279 0.66249
 C170 C 0.63268 1.33823 0.64778
 C171 C 0.64707 1.33828 0.63328
 C172 C 0.66171 1.35289 0.63330
 C173 C 0.66178 1.36726 0.64782
 C174 C 0.64719 1.36721 0.66251
 C175 C 0.62097 1.35600 0.67873
 N176 N 0.62794 1.37201 0.68862
 C177 C 0.64398 1.37897 0.67877
 C178 C 0.67797 1.37907 0.64454
 N179 N 0.68769 1.37219 0.62841
 C180 C 0.67786 1.35619 0.62143
 C181 C 0.64375 1.32216 0.62139
 N182 N 0.62772 1.31234 0.62833
 C183 C 0.62084 1.32207 0.64446
 H184 H 0.60841 1.34717 0.68315
 H185 H 0.65283 1.39150 0.68322
 H186 H 0.68250 1.39157 0.65339
 H187 H 0.68228 1.34743 0.60881
 H188 H 0.65251 1.31772 0.60878
 H189 H 0.60832 1.31755 0.65330
 C190 C 0.63235 0.85317 1.16197
 C191 C 0.63234 0.83856 1.14730
 C192 C 0.64675 0.83858 1.13283
 C193 C 0.66137 0.85322 1.13282
 C194 C 0.66138 0.86763 1.14729
 C195 C 0.64678 0.86760 1.16196
 C196 C 0.62057 0.85640 1.17820
 N197 N 0.62751 0.87244 1.18805
 C198 C 0.64354 0.87940 1.17819
 C199 C 0.67757 0.87945 1.14402
 N200 N 0.68734 0.87253 1.12794
 C201 C 0.67754 0.85650 1.12098
 C202 C 0.64348 0.82240 1.12099
 N203 N 0.62746 0.81258 1.12796
 C204 C 0.62054 0.82236 1.14404
 H205 H 0.60802 0.84755 1.18263
 H206 H 0.65238 0.89195 1.18262
 H207 H 0.68207 0.89198 1.15285
 H208 H 0.68202 0.84770 1.10841
 H209 H 0.65227 0.81793 1.10842
 H210 H 0.60801 0.81785 1.15288
 C211 C 1.13251 1.35380 1.16072
 C212 C 1.13253 1.33916 1.14610
 C213 C 1.14706 1.33907 1.13174
 C214 C 1.16177 1.35362 1.13183
 C215 C 1.16175 1.36807 1.14626
 C216 C 1.14702 1.36816 1.16081
 C217 C 1.12064 1.35710 1.17688
 N218 N 1.12761 1.37308 1.18674
 C219 C 1.14374 1.37996 1.17703
 C220 C 1.17803 1.37978 1.14311
 N221 N 1.18794 1.37278 1.12712
 C222 C 1.17806 1.35678 1.12012
 C223 C 1.14380 1.32285 1.11995
 N224 N 1.12767 1.31314 1.12683
 C225 C 1.12068 1.32302 1.14281
 H226 H 1.10804 1.34833 1.18130
 H227 H 1.15260 1.39244 1.18160
 H228 H 1.18245 1.39232 1.15199
 H229 H 1.18253 1.34791 1.10759
 H230 H 1.15267 1.31827 1.10747
 H231 H 1.10807 1.31860 1.15158
 C232 C 1.13142 0.85410 0.66040
 C233 C 1.13143 0.83946 0.64577
 C234 C 1.14587 0.83945 0.63132
 C235 C 1.16049 0.85409 0.63131
 C236 C 1.16048 0.86854 0.64574
 C237 C 1.14584 0.86855 0.66038
 C238 C 1.11965 0.85734 0.67664
 N239 N 1.12660 0.87336 0.68645
 C240 C 1.14261 0.88033 0.67662
 C241 C 1.17670 0.88031 0.64251
 N242 N 1.18653 0.87333 0.62649
 C243 C 1.17672 0.85731 0.61953
 C244 C 1.14266 0.82320 0.61956
 N245 N 1.12665 0.81338 0.62654
 C246 C 1.11968 0.82322 0.64256
 H247 H 1.10713 0.84850 0.68116
 H248 H 1.15144 0.89286 0.68112
 H249 H 1.18120 0.89284 0.65134
 H250 H 1.18124 0.84846 0.60701
 H251 H 1.15150 0.81868 0.60704
 H252 H 1.10716 0.81871 0.65141
 C253 C 0.36708 0.64671 0.66125
 C254 C 0.36706 0.66135 0.64662
 C255 C 0.35255 0.66141 0.63224
 C256 C 0.33787 0.64683 0.63231
 C257 C 0.33789 0.63239 0.64675
 C258 C 0.35260 0.63233 0.66132
 C259 C 0.37895 0.64341 0.67741
 N260 N 0.37200 0.62740 0.68725
 C261 C 0.35590 0.62051 0.67752
 C262 C 0.32165 0.62063 0.64355
 N263 N 0.31176 0.62760 0.62754
 C264 C 0.32161 0.64362 0.62055
 C265 C 0.35582 0.67760 0.62042
 N266 N 0.37192 0.68734 0.62731
 C267 C 0.37890 0.67750 0.64332
 H268 H 0.39154 0.65219 0.68184
 H269 H 0.34706 0.60800 0.68206
 H270 H 0.31724 0.60808 0.65241
 H271 H 0.31716 0.65248 0.60800
 H272 H 0.34696 0.68214 0.60791
 H273 H 0.39150 0.68193 0.65209
 C274 C 0.36757 0.14609 1.16049
 C275 C 0.36755 0.16074 1.14588
 C276 C 0.35302 0.16086 1.13153
 C277 C 0.33830 0.14631 1.13160
 C278 C 0.33833 0.13185 1.14603
 C279 C 0.35306 0.13173 1.16057
 C280 C 0.37945 0.14278 1.17664
 N281 N 0.37247 0.12679 1.18649
 C282 C 0.35635 0.11992 1.17677
 C283 C 0.32204 0.12014 1.14287
 N284 N 0.31212 0.12717 1.12690
 C285 C 0.32200 0.14317 1.11990
 C286 C 0.35627 0.17709 1.11976
 N287 N 0.37240 0.18679 1.12665
 C288 C 0.37940 0.17689 1.14261
 H289 H 0.39205 0.15154 1.18107
 H290 H 0.34748 0.10744 1.18134
 H291 H 0.31761 0.10760 1.15174
 H292 H 0.31752 0.15206 1.10739
 H293 H 0.34738 0.18169 1.10729
 H294 H 0.39201 0.18129 1.15138
 C295 C 0.86850 0.64598 1.16048
 C296 C 0.86844 0.66066 1.14588
 C297 C 0.85396 0.66071 1.13148
 C298 C 0.83934 0.64607 1.13147
 C299 C 0.83940 0.63158 1.14587
 C300 C 0.85408 0.63154 1.16047
 C301 C 0.88032 0.64271 1.17668
 N302 N 0.87340 0.62665 1.18647
 C303 C 0.85736 0.61971 1.17666
 C304 C 0.82318 0.61980 1.14266
 N305 N 0.81330 0.62681 1.12668
 C306 C 0.82307 0.64286 1.11973
 C307 C 0.85715 0.67698 1.11974
 N308 N 0.87319 0.68677 1.12670
 C309 C 0.88020 0.67690 1.14268
 H310 H 0.89285 0.65154 1.18119
 H311 H 0.84854 0.60718 1.18116
 H312 H 0.81872 0.60724 1.15147
 H313 H 0.81851 0.65173 1.10724
 H314 H 0.84828 0.68153 1.10725
 H315 H 0.89275 0.68137 1.15150
 C316 C 0.86734 0.14695 0.66221
 C317 C 0.86740 0.16154 0.64752
 C318 C 0.85300 0.16151 0.63303
 C319 C 0.83836 0.14690 0.63303
 C320 C 0.83830 0.13251 0.64753
 C321 C 0.85289 0.13254 0.66222
 C322 C 0.87911 0.14372 0.67845
 N323 N 0.87214 0.12771 0.68833
 C324 C 0.85610 0.12077 0.67846
 C325 C 0.82210 0.12072 0.64424
 N326 N 0.81236 0.12762 0.62813
 C327 C 0.82220 0.14363 0.62117
 C328 C 0.85632 0.17766 0.62116
 N329 N 0.87235 0.18746 0.62813
 C330 C 0.87924 0.17770 0.64423
 H331 H 0.89168 0.15256 0.68287
 H332 H 0.84724 0.10823 0.68290
 H333 H 0.81756 0.10820 0.65309
 H334 H 0.81776 0.15240 0.60857
 H335 H 0.84755 0.18212 0.60857
 H336 H 0.89176 0.18220 0.65308
 C337 C 1.35374 0.36722 0.66110
 C338 C 1.33912 0.36725 0.64644
 C339 C 1.33905 0.35274 0.63206
 C340 C 1.35359 0.33801 0.63215
 C341 C 1.36801 0.33798 0.64662
 C342 C 1.36808 0.35268 0.66119
 C343 C 1.35702 0.37907 0.67726
 N344 N 1.37299 0.37207 0.68714
 C345 C 1.37987 0.35594 0.67743
 C346 C 1.37972 0.32169 0.64344
 N347 N 1.37273 0.31183 0.62741
 C348 C 1.35676 0.32175 0.62041
 C349 C 1.32286 0.35605 0.62023
 N350 N 1.31315 0.37217 0.62711
 C351 C 1.32299 0.37913 0.64313
 H352 H 1.34826 0.39168 0.68168
 H353 H 1.39234 0.34706 0.68200
 H354 H 1.39224 0.31721 0.65232
 H355 H 1.34790 0.31733 0.60785
 H356 H 1.31831 0.34719 0.60773
 H357 H 1.31856 0.39173 0.65191
 C358 C 1.35273 0.86641 1.16245
 C359 C 1.33816 0.86646 1.14775
 C360 C 1.33812 0.85198 1.13335
 C361 C 1.35267 0.83726 1.13345
 C362 C 1.36705 0.83721 1.14795
 C363 C 1.36709 0.85189 1.16256
 C364 C 1.35601 0.87828 1.17860
 N365 N 1.37199 0.87130 1.18853
 C366 C 1.37888 0.85516 1.17879
 C367 C 1.37881 0.82095 1.14475
 N368 N 1.37189 0.81113 1.12867
 C369 C 1.35590 0.82104 1.12166
 C370 C 1.32200 0.85533 1.12145
 N371 N 1.31228 0.87146 1.12832
 C372 C 1.32206 0.87838 1.14439
 H373 H 1.34723 0.89092 1.18293
 H374 H 1.39138 0.84627 1.18329
 H375 H 1.39133 0.81649 1.15363
 H376 H 1.34710 0.81666 1.10905
 H377 H 1.31750 0.84652 1.10890
 H378 H 1.31762 0.89098 1.15316
 C379 C 0.85266 0.36630 1.16273
 C380 C 0.83807 0.36636 1.14805
 C381 C 0.83805 0.35192 1.13360
 C382 C 0.85263 0.33723 1.13365
 C383 C 0.86703 0.33717 1.14813
 C384 C 0.86704 0.35180 1.16277
 C385 C 0.85594 0.37813 1.17892
 N386 N 0.87195 0.37115 1.18880
 C387 C 0.87885 0.35505 1.17899
 C388 C 0.87881 0.32095 1.14487
 N389 N 0.87189 0.31115 1.12877
 C390 C 0.85588 0.32105 1.12180
 C391 C 0.82191 0.35527 1.12172
 N392 N 0.81216 0.37136 1.12863
 C393 C 0.82194 0.37825 1.14472
 H394 H 0.84715 0.39074 1.18329
 H395 H 0.89138 0.34618 1.18344
 H396 H 0.89135 0.31648 1.15373
 H397 H 0.84707 0.31668 1.10920
 H398 H 0.81743 0.34648 1.10915
 H399 H 0.81748 0.39083 1.15352
 C400 C 0.85372 0.86816 0.66079
 C401 C 0.83908 0.86815 0.64615
 C402 C 0.83908 0.85370 0.63171
 C403 C 0.85372 0.83907 0.63172
 C404 C 0.86816 0.83908 0.64617
 C405 C 0.86816 0.85372 0.66080
 C406 C 0.85696 0.87996 0.67701
 N407 N 0.87299 0.87301 0.68683
 C408 C 0.87995 0.85697 0.67702
 C409 C 0.87995 0.82285 0.64294
 N410 N 0.87299 0.81303 0.62692
 C411 C 0.85696 0.82283 0.61995
 C412 C 0.82286 0.85693 0.61992
 N413 N 0.81305 0.87296 0.62687
 C414 C 0.82286 0.87993 0.64290
 H415 H 0.84812 0.89249 0.68150
 H416 H 0.89248 0.84814 0.68154
 H417 H 0.89249 0.81836 0.65178
 H418 H 0.84813 0.81832 0.60741
 H419 H 0.81835 0.84809 0.60739
 H420 H 0.81836 0.89247 0.65173
 C421 C 0.64625 0.63175 0.66087
 C422 C 0.66088 0.63175 0.64624
 C423 C 0.66088 0.64619 0.63179
 C424 C 0.64625 0.66082 0.63179
 C425 C 0.63180 0.66082 0.64623
 C426 C 0.63181 0.64619 0.66087
 C427 C 0.64301 0.61996 0.67710
 N428 N 0.62698 0.62692 0.68692
 C429 C 0.62002 0.64295 0.67710
 C430 C 0.62002 0.67705 0.64299
 N431 N 0.62698 0.68685 0.62695
 C432 C 0.64301 0.67704 0.61999
 C433 C 0.67711 0.64295 0.62000
 N434 N 0.68692 0.62692 0.62697
 C435 C 0.67711 0.61996 0.64300
 H436 H 0.65184 0.60743 0.68161
 H437 H 0.60748 0.65178 0.68160
 H438 H 0.60748 0.68155 0.65182
 H439 H 0.65184 0.68154 0.60746
 H440 H 0.68161 0.65177 0.60747
 H441 H 0.68161 0.60743 0.65184
 C442 C 0.64726 1.13356 1.16256
 C443 C 0.66185 1.13352 1.14788
 C444 C 0.66187 1.14797 1.13345
 C445 C 0.64728 1.16266 1.13351
 C446 C 0.63288 1.16270 1.14799
 C447 C 0.63287 1.14805 1.16262
 C448 C 0.64399 1.12171 1.17873
 N449 N 0.62797 1.12868 1.18862
 C450 C 0.62107 1.14478 1.17883
 C451 C 0.62109 1.17892 1.14475
 N452 N 0.62801 1.18874 1.12866
 C453 C 0.64403 1.17886 1.12168
 C454 C 0.67801 1.14465 1.12158
 N455 N 0.68776 1.12855 1.12847
 C456 C 0.67799 1.12164 1.14455
 H457 H 0.65279 1.10910 1.18310
 H458 H 0.60854 1.15365 1.18329
 H459 H 0.60856 1.18337 1.15361
 H460 H 0.65284 1.18324 1.10909
 H461 H 0.68249 1.15345 1.10901
 H462 H 0.68245 1.10906 1.15334
 C463 C 0.14755 0.63394 1.16291
 C464 C 0.16211 0.63387 1.14820
 C465 C 0.16214 0.64834 1.13379
 C466 C 0.14759 0.66307 1.13390
 C467 C 0.13322 0.66314 1.14841
 C468 C 0.13320 0.64847 1.16302
 C469 C 0.14427 0.62206 1.17906
 N470 N 0.12829 0.62905 1.18899
 C471 C 0.12141 0.64520 1.17925
 C472 C 0.12146 0.67939 1.14518
 N473 N 0.12837 0.68919 1.12908
 C474 C 0.14435 0.67927 1.12208
 C475 C 0.17824 0.64497 1.12188
 N476 N 0.18795 0.62884 1.12873
 C477 C 0.17819 0.62194 1.14482
 H478 H 0.15305 0.60942 1.18338
 H479 H 0.10891 0.65408 1.18376
 H480 H 0.10894 0.68386 1.15407
 H481 H 0.15314 0.68363 1.10946
 H482 H 0.18272 0.65377 1.10931
 H483 H 0.18263 0.60933 1.15359
 C484 C 0.14747 1.13376 0.66287
 C485 C 0.16202 1.13368 0.64815
 C486 C 0.16202 1.14812 0.63370
 C487 C 0.14746 1.16283 0.63378
 C488 C 0.13310 1.16291 0.64830
 C489 C 0.13310 1.14827 0.66294
 C490 C 0.14421 1.12192 0.67905
 N491 N 0.12822 1.12891 0.68896
 C492 C 0.12132 1.14503 0.67918
 C493 C 0.12132 1.17915 0.64505
 N494 N 0.12822 1.18892 0.62893
 C495 C 0.14420 1.17900 0.62194
 C496 C 0.17812 1.14475 0.62178
 N497 N 0.18787 1.12864 0.62866
 C498 C 0.17813 1.12176 0.64478
 H499 H 0.15299 1.10929 0.68340
 H500 H 0.10881 1.15391 0.68366
 H501 H 0.10881 1.18363 0.65394
 H502 H 0.15299 1.18335 0.60931
 H503 H 0.18258 1.15353 0.60919
 H504 H 0.18259 1.10918 0.65356
 C505 C 1.35270 0.63359 0.33751
 C506 C 1.33813 0.63355 0.35221
 C507 C 1.33808 0.64803 0.36661
 C508 C 1.35262 0.66275 0.36651
 C509 C 1.36701 0.66279 0.35201
 C510 C 1.36705 0.64811 0.33741
 C511 C 1.35599 0.62171 0.32137
 N512 N 1.37197 0.62869 0.31144
 C513 C 1.37884 0.64483 0.32119
 C514 C 1.37876 0.67903 0.35522
 N515 N 1.37183 0.68886 0.37130
 C516 C 1.35585 0.67896 0.37831
 C517 C 1.32195 0.64468 0.37850
 N518 N 1.31225 0.62855 0.37164
 C519 C 1.32203 0.62163 0.35557
 H520 H 1.34722 0.60908 0.31704
 H521 H 1.39134 0.65371 0.31669
 H522 H 1.39128 0.68349 0.34634
 H523 H 1.34704 0.68335 0.39091
 H524 H 1.31745 0.65350 0.39105
 H525 H 1.31761 0.60903 0.34681
 C526 C 1.35330 1.13301 0.83876
 C527 C 1.33867 1.13301 0.85340
 C528 C 1.33859 1.14753 0.86777
 C529 C 1.35314 1.16224 0.86769
 C530 C 1.36757 1.16224 0.85324
 C531 C 1.36765 1.14753 0.83867
 C532 C 1.35660 1.12113 0.82262
 N533 N 1.37259 1.12810 0.81275
 C534 C 1.37946 1.14423 0.82246
 C535 C 1.37930 1.17851 0.85642
 N536 N 1.37232 1.18839 0.87244
 C537 C 1.35632 1.17850 0.87944
 C538 C 1.32240 1.14423 0.87960
 N539 N 1.31270 1.12811 0.87272
 C540 C 1.32255 1.12114 0.85672
 H541 H 1.34784 1.10852 0.81821
 H542 H 1.39194 1.15309 0.81790
 H543 H 1.39184 1.18294 0.84756
 H544 H 1.34746 1.18294 0.89199
 H545 H 1.31784 1.15309 0.89210
 H546 H 1.31814 1.10853 0.84795
 C547 C 0.85371 0.63183 0.83931
 C548 C 0.83905 0.63185 0.85393
 C549 C 0.83902 0.64631 0.86836
 C550 C 0.85365 0.66094 0.86837
 C551 C 0.86811 0.66092 0.85394
 C552 C 0.86814 0.64627 0.83932
 C553 C 0.85698 0.62003 0.82310
 N554 N 0.87302 0.62698 0.81330
 C555 C 0.87995 0.64301 0.82311
 C556 C 0.87989 0.67714 0.85718
 N557 N 0.87291 0.68697 0.87319
 C558 C 0.85687 0.67718 0.88014
 C559 C 0.82279 0.64308 0.88013
 N560 N 0.81300 0.62704 0.87317
 C561 C 0.82284 0.62007 0.85716
 H562 H 0.84816 0.60750 0.81859
 H563 H 0.89248 0.65184 0.81862
 H564 H 0.89243 0.68162 0.84836
 H565 H 0.84803 0.68170 0.89266
 H566 H 0.81826 0.65192 0.89266
 H567 H 0.81836 0.60752 0.84834
 C568 C 0.85434 1.13116 0.33997
 C569 C 0.83966 1.13120 0.35456
 C570 C 0.83963 1.14566 0.36900
 C571 C 0.85428 1.16027 0.36903
 C572 C 0.86877 1.16022 0.35463
 C573 C 0.86880 1.14557 0.34001
 C574 C 0.85759 1.11938 0.32374
 N575 N 0.87364 1.12633 0.31395
 C576 C 0.88060 1.14233 0.32380
 C577 C 0.88054 1.17644 0.35786
 N578 N 0.87354 1.18630 0.37384
 C579 C 0.85748 1.17652 0.38078
 C580 C 0.82334 1.14248 0.38071
 N581 N 0.81353 1.12647 0.37372
 C582 C 0.82340 1.11947 0.35774
 H583 H 0.84874 1.10689 0.31919
 H584 H 0.89314 1.15116 0.31931
 H585 H 0.89309 1.18091 0.34904
 H586 H 0.84861 1.18108 0.39327
 H587 H 0.81879 1.15134 0.39321
 H588 H 0.81891 1.10695 0.34889
 C589 C 0.64672 0.36774 0.33824
 C590 C 0.66132 0.36776 0.35292
 C591 C 0.66127 0.35338 0.36742
 C592 C 0.64661 0.33878 0.36744
 C593 C 0.63220 0.33876 0.35296
 C594 C 0.63226 0.35334 0.33827
 C595 C 0.64351 0.37950 0.32198
 N596 N 0.62747 0.37255 0.31213
 C597 C 0.62048 0.35656 0.32202
 C598 C 0.62038 0.32258 0.35624
 N599 N 0.62728 0.31282 0.37233
 C600 C 0.64331 0.32261 0.37929
 C601 C 0.67745 0.35663 0.37925
 N602 N 0.68730 0.37262 0.37227
 C603 C 0.67755 0.37954 0.35617
 H604 H 0.65238 0.39202 0.31753
 H605 H 0.60792 0.34772 0.31761
 H606 H 0.60785 0.31808 0.34740
 H607 H 0.65211 0.31814 0.39187
 H608 H 0.68190 0.34784 0.39184
 H609 H 0.68209 0.39204 0.34732
 C610 C 0.64617 0.86816 0.83924
 C611 C 0.66081 0.86817 0.85387
 C612 C 0.66083 0.85372 0.86832
 C613 C 0.64621 0.83909 0.86832
 C614 C 0.63176 0.83909 0.85389
 C615 C 0.63174 0.85372 0.83925
 C616 C 0.64291 0.87995 0.82301
 N617 N 0.62688 0.87299 0.81320
 C618 C 0.61994 0.85696 0.82303
 C619 C 0.61999 0.82287 0.85713
 N620 N 0.62697 0.81305 0.87316
 C621 C 0.64299 0.82286 0.88011
 C622 C 0.67706 0.85697 0.88010
 N623 N 0.68685 0.87300 0.87313
 C624 C 0.67702 0.87996 0.85710
 H625 H 0.65172 0.89248 0.81850
 H626 H 0.60741 0.84812 0.81853
 H627 H 0.60745 0.81837 0.84830
 H628 H 0.65183 0.81836 0.89265
 H629 H 0.68159 0.84814 0.89263
 H630 H 0.68150 0.89249 0.84826
 C631 C 0.14660 0.36786 0.83826
 C632 C 0.16116 0.36792 0.85298
 C633 C 0.16109 0.35354 0.86748
 C634 C 0.14647 0.33891 0.86746
 C635 C 0.13210 0.33885 0.85294
 C636 C 0.13217 0.35343 0.83824
 C637 C 0.14342 0.37962 0.82200
 N638 N 0.12742 0.37264 0.81209
 C639 C 0.12044 0.35663 0.82196
 C640 C 0.12030 0.32265 0.85620
 N641 N 0.12718 0.31291 0.87231
 C642 C 0.14318 0.32274 0.87931
 C643 C 0.17724 0.35682 0.87935
 N644 N 0.18708 0.37282 0.87239
 C645 C 0.17735 0.37972 0.85627
 H646 H 0.15228 0.39216 0.81757
 H647 H 0.10791 0.34777 0.81750
 H648 H 0.10781 0.31811 0.84732
 H649 H 0.15194 0.31830 0.89191
 H650 H 0.18168 0.34804 0.89195
 H651 H 0.18189 0.39222 0.84742
 C652 C 0.14647 0.86779 0.33819
 C653 C 0.16104 0.86785 0.35289
 C654 C 0.16102 0.85344 0.36736
 C655 C 0.14642 0.83878 0.36733
 C656 C 0.13204 0.83872 0.35283
 C657 C 0.13207 0.85333 0.33815
 C658 C 0.14326 0.87957 0.32195
 N659 N 0.12727 0.87258 0.31204
 C660 C 0.12032 0.85654 0.32188
 C661 C 0.12027 0.82249 0.35607
 N662 N 0.12719 0.81274 0.37217
 C663 C 0.14317 0.82260 0.37916
 C664 C 0.17718 0.85673 0.37922
 N665 N 0.18698 0.87277 0.37227
 C666 C 0.17722 0.87967 0.35617
 H667 H 0.15210 0.89213 0.31754
 H668 H 0.10780 0.84767 0.31742
 H669 H 0.10778 0.81795 0.34721
 H670 H 0.15196 0.81815 0.39175
 H671 H 0.18166 0.84794 0.39179
 H672 H 0.18173 0.89220 0.34733
 O673 O 0.98079 0.92888 0.90186
 O674 O 0.98076 0.90595 0.87876
 C675 C 0.97406 0.92201 0.88577
 C676 C 0.95800 0.93261 0.87537
 C677 C 0.95158 0.92638 0.85666
 H678 H 0.95886 0.91404 0.84958
 O679 O 1.01921 1.07133 0.90171
 O680 O 1.01922 1.09428 0.87863
 C681 C 1.02595 1.07823 0.88563
 C682 C 1.04206 1.06769 0.87525
 C683 C 1.04861 1.07406 0.85664
 H684 H 1.04138 1.08645 0.84960
 O685 O 0.90171 0.98096 0.92885
 O686 O 0.87863 0.98091 0.90589
 C687 C 0.88563 0.97423 0.92197
 C688 C 0.87524 0.95818 0.93259
 C689 C 0.85655 0.95175 0.92636
 H690 H 0.84946 0.95902 0.91402
 O691 O 1.09830 1.01934 0.92877
 O692 O 1.12138 1.01933 0.90582
 C693 C 1.11439 1.02604 0.92188
 C694 C 1.12477 1.04210 0.93249
 C695 C 1.14345 1.04856 0.92624
 H696 H 1.15054 1.04131 0.91388
 O697 O 0.92879 0.90193 0.98088
 O698 O 0.90586 0.87885 0.98086
 C699 C 0.92191 0.88584 0.97415
 C700 C 0.93251 0.87543 0.95810
 C701 C 0.92629 0.85674 0.95168
 H702 H 0.91394 0.84967 0.95896
 O703 O 1.07121 1.09833 0.98077
 O704 O 1.09414 1.12141 0.98074
 C705 C 1.07808 1.11441 0.97404
 C706 C 1.06748 1.12480 0.95797
 C707 C 1.07371 1.14349 0.95151
 H708 H 1.08607 1.15056 0.95877
 O709 O 0.92872 1.01940 0.90176
 O710 O 0.90579 1.01938 0.87865
 C711 C 0.92183 1.02610 0.88565
 C712 C 0.93241 1.04215 0.87524
 C713 C 0.92611 1.04864 0.85657
 H714 H 0.91373 1.04139 0.84952
 O715 O 1.07122 0.98090 0.90175
 O716 O 1.09415 0.98086 0.87863
 C717 C 1.07809 0.97417 0.88565
 C718 C 1.06748 0.95813 0.87526
 C719 C 1.07366 0.95173 0.85652
 H720 H 1.08597 0.95902 0.84942
 O721 O 1.01930 0.90183 0.92886
 O722 O 1.01932 0.87875 0.90590
 C723 C 1.02602 0.88574 0.92196
 C724 C 1.04209 0.87535 0.93256
 C725 C 1.04856 0.85667 0.92630
 H726 H 1.04132 0.84961 0.91392
 O727 O 0.98069 1.09834 0.92875
 O728 O 0.98066 1.12142 0.90579
 C729 C 0.97395 1.11442 0.92186
 C730 C 0.95788 1.12481 0.93244
 C731 C 0.95135 1.14344 0.92611
 H732 H 0.95857 1.15048 0.91371
 O733 O 0.90165 1.07144 0.98081
 O734 O 0.87858 1.09440 0.98079
 C735 C 0.88557 1.07835 0.97407
 C736 C 0.87521 1.06779 0.95795
 C737 C 0.85661 1.07417 0.95134
 H738 H 0.84957 1.08658 0.95853
 O739 O 1.09829 0.92884 0.98084
 O740 O 1.12138 0.90590 0.98080
 C741 C 1.11437 0.92195 0.97409
 C742 C 1.12473 0.93252 0.95798
 C743 C 1.14337 0.92620 0.95146
 H744 H 1.15043 0.91383 0.95871
 O745 O 0.98072 1.07133 0.90169
 O746 O 0.98069 1.09427 0.87860
 C747 C 0.97399 1.07821 0.88559
 C748 C 0.95791 1.06764 0.87521
 C749 C 0.95141 1.07392 0.85654
 H750 H 0.95865 1.08629 0.84947
 O751 O 1.01927 0.92887 0.90183
 O752 O 1.01928 0.90594 0.87873
 C753 C 1.02598 0.92200 0.88573
 C754 C 1.04200 0.93261 0.87530
 C755 C 1.04838 0.92641 0.85657
 H756 H 1.04110 0.91408 0.84949
 O757 O 1.09826 0.98085 0.92877
 O758 O 1.12133 0.98080 0.90580
 C759 C 1.11434 0.97410 0.92187
 C760 C 1.12471 0.95801 0.93245
 C761 C 1.14336 0.95149 0.92614
 H762 H 1.15040 0.95873 0.91375
 O763 O 0.90171 1.01945 0.92881
 O764 O 0.87864 1.01944 0.90585
 C765 C 0.88563 1.02617 0.92190
 C766 C 0.87525 1.04228 0.93244
 C767 C 0.85665 1.04884 0.92604
 H768 H 0.84964 1.04162 0.91362
 O769 O 0.92872 1.09839 0.98082
 O770 O 0.90579 1.12149 0.98081
 C771 C 0.92184 1.11448 0.97409
 C772 C 0.93240 1.12484 0.95799
 C773 C 0.92608 1.14348 0.95146
 H774 H 0.91370 1.15053 0.95870
 O775 O 1.07128 0.90182 0.98089
 O776 O 1.09423 0.87874 0.98086
 C777 C 1.07816 0.88574 0.97416
 C778 C 1.06757 0.87535 0.95809
 C779 C 1.07384 0.85667 0.95164
 H780 H 1.08620 0.84961 0.95891
 O781 O 1.07128 1.01939 0.90172
 O782 O 1.09422 1.01939 0.87863
 C783 C 1.07817 1.02612 0.88563
 C784 C 1.06760 1.04222 0.87526
 C785 C 1.07396 1.04879 0.85664
 H786 H 1.08637 1.04159 0.84960
 O787 O 0.92876 0.98092 0.90184
 O788 O 0.90583 0.98086 0.87874
 C789 C 0.92189 0.97417 0.88575
 C790 C 0.93249 0.95811 0.87537
 C791 C 0.92627 0.95168 0.85665
 H792 H 0.91393 0.95896 0.84957
 O793 O 1.01918 1.09833 0.92876
 O794 O 1.01918 1.12143 0.90582
 C795 C 1.02589 1.11442 0.92188
 C796 C 1.04195 1.12481 0.93248
 C797 C 1.04838 1.14349 0.92623
 H798 H 1.04110 1.15056 0.91387
 O799 O 0.98082 0.90185 0.92888
 O800 O 0.98079 0.87877 0.90593
 C801 C 0.97409 0.88577 0.92200
 C802 C 0.95803 0.87540 0.93260
 C803 C 0.95160 0.85670 0.92638
 H804 H 0.95888 0.84961 0.91404
 O805 O 1.09825 1.07130 0.98079
 O806 O 1.12131 1.09425 0.98076
 C807 C 1.11433 1.07819 0.97406
 C808 C 1.12473 1.06759 0.95800
 C809 C 1.14341 1.07385 0.95156
 H810 H 1.15046 1.08621 0.95884
 O811 O 0.90177 0.92896 0.98088
 O812 O 0.87869 0.90603 0.98087
 C813 C 0.88568 0.92208 0.97416
 C814 C 0.87527 0.93268 0.95810
 C815 C 0.85658 0.92645 0.95168
 H816 H 0.84951 0.91411 0.95897
 Cu817 Cu 1.00005 0.91766 0.91766
 Cu818 Cu 1.00004 0.89004 0.89001
 Cu819 Cu 0.99995 1.08253 0.91752
 Cu820 Cu 0.99993 1.11016 0.88989
 Cu821 Cu 0.91752 1.00018 0.91762
 Cu822 Cu 0.88991 1.00014 0.88997
 Cu823 Cu 1.08247 1.00012 0.91755
 Cu824 Cu 1.11008 1.00009 0.88991
 C825 C 0.94848 0.94859 0.88451
 H826 H 0.95319 0.95331 0.89904
 C827 C 0.93574 0.93584 0.84714
 C828 C 1.05153 1.05165 0.88434
 H829 H 1.04672 1.04682 0.89881
 C830 C 1.06455 1.06470 0.84717
 C831 C 0.88439 0.94867 0.94858
 H832 H 0.89891 0.95338 0.95329
 C833 C 0.84704 0.93591 0.93584
 C834 C 1.11564 1.05160 0.94849
 H835 H 1.10112 1.04686 0.95322
 C836 C 1.15294 1.06442 0.93570
 C837 C 0.94851 0.88454 0.94858
 H838 H 0.95322 0.89907 0.95329
 C839 C 0.93575 0.84720 0.93584
 C840 C 1.05147 1.11568 0.94848
 H841 H 1.04675 1.10117 0.95321
 C842 C 1.06424 1.15300 0.93566
 C843 C 0.94844 1.05163 0.88433
 H844 H 0.95321 1.04687 0.89884
 C845 C 0.93552 1.06450 0.84706
 C846 C 1.05153 0.94859 0.88443
 H847 H 1.04685 0.95329 0.89898
 C848 C 1.06418 0.93589 0.84701
 C849 C 1.05158 0.88446 0.94858
 H850 H 1.04683 0.89897 0.95332
 C851 C 1.06442 0.84717 0.93576
 C852 C 0.94842 1.11573 0.94850
 H853 H 0.95322 1.10125 0.95330
 C854 C 0.93546 1.15294 0.93553
 C855 C 0.88430 1.05173 0.94852
 H856 H 0.89875 1.04691 0.95336
 C857 C 0.84717 1.06477 0.93540
 C858 C 1.11562 0.94854 0.94849
 H859 H 1.10114 0.95332 0.95328
 C860 C 1.15285 0.93561 0.93556
 O861 O 1.01932 0.92892 1.09840
 O862 O 1.01934 0.90600 1.12152
 C863 C 1.02604 0.92205 1.11451
 C864 C 1.04211 0.93263 1.12490
 C865 C 1.04857 0.92636 1.14358
 H866 H 1.04131 0.91401 1.15065
 O867 O 0.98086 1.07134 1.09839
 O868 O 0.98084 1.09426 1.12150
 C869 C 0.97415 1.07820 1.11450
 C870 C 0.95813 1.06758 1.12491
 C871 C 0.95178 1.07373 1.14367
 H872 H 0.95909 1.08603 1.15078
 O873 O 0.90176 1.01941 1.07138
 O874 O 0.87871 1.01946 1.09437
 C875 C 0.88569 1.02616 1.07829
 C876 C 0.87529 1.04223 1.06771
 C877 C 0.85665 1.04875 1.07403
 H878 H 0.84961 1.04152 1.08643
 O879 O 1.09836 0.98086 1.07137
 O880 O 1.12145 0.98084 1.09432
 C881 C 1.11445 0.97413 1.07826
 C882 C 1.12483 0.95805 1.06767
 C883 C 1.14349 0.95154 1.07396
 H884 H 1.15055 0.95877 1.08635
 O885 O 1.07136 0.90181 1.01941
 O886 O 1.09432 0.87874 1.01942
 C887 C 1.07827 0.88573 1.02615
 C888 C 1.06772 0.87537 1.04227
 C889 C 1.07409 0.85677 1.04887
 H890 H 1.08651 0.84973 1.04166
 O891 O 0.92870 1.09841 1.01934
 O892 O 0.90577 1.12150 1.01938
 C893 C 0.92182 1.11449 1.02609
 C894 C 0.93240 1.12484 1.04220
 C895 C 0.92606 1.14347 1.04876
 H896 H 0.91366 1.15052 1.04155
 O897 O 0.92879 0.98089 1.09838
 O898 O 0.90587 0.98088 1.12150
 C899 C 0.92191 0.97416 1.11448
 C900 C 0.93249 0.95808 1.12486
 C901 C 0.92618 0.95156 1.14352
 H902 H 0.91380 0.95880 1.15057
 O903 O 1.07133 1.01937 1.09838
 O904 O 1.09428 1.01939 1.12146
 C905 C 1.07823 1.02611 1.11446
 C906 C 1.06767 1.04221 1.12484
 C907 C 1.07400 1.04873 1.14348
 H908 H 1.08639 1.04148 1.15053
 O909 O 0.98087 0.90187 1.07136
 O910 O 0.98085 0.87880 1.09431
 C911 C 0.97415 0.88579 1.07824
 C912 C 0.95810 0.87541 1.06764
 C913 C 0.95169 0.85670 1.07384
 H914 H 0.95898 0.84960 1.08617
 O915 O 1.01926 1.09842 1.07133
 O916 O 1.01927 1.12151 1.09427
 C917 C 1.02597 1.11451 1.07820
 C918 C 1.04201 1.12490 1.06758
 C919 C 1.04845 1.14360 1.07379
 H920 H 1.04119 1.15070 1.08614
 O921 O 0.90175 0.92894 1.01939
 O922 O 0.87868 0.90599 1.01942
 C923 C 0.88567 0.92205 1.02612
 C924 C 0.87528 0.93264 1.04219
 C925 C 0.85661 0.92638 1.04867
 H926 H 0.84955 0.91401 1.04142
 O927 O 1.09826 1.07133 1.01930
 O928 O 1.12132 1.09427 1.01931
 C929 C 1.11434 1.07822 1.02602
 C930 C 1.12475 1.06764 1.04209
 C931 C 1.14343 1.07390 1.04854
 H932 H 1.15048 1.08626 1.04127
 O933 O 1.01935 1.07141 1.09838
 O934 O 1.01937 1.09435 1.12147
 C935 C 1.02609 1.07830 1.11446
 C936 C 1.04219 1.06774 1.12484
 C937 C 1.04873 1.07406 1.14349
 H938 H 1.04151 1.08645 1.15054
 O939 O 0.98083 0.92889 1.09840
 O940 O 0.98081 0.90596 1.12150
 C941 C 0.97410 0.92201 1.11449
 C942 C 0.95801 0.93258 1.12487
 C943 C 0.95150 0.92627 1.14352
 H944 H 0.95874 0.91389 1.15058
 O945 O 1.09834 1.01934 1.07133
 O946 O 1.12144 1.01936 1.09428
 C947 C 1.11443 1.02607 1.07821
 C948 C 1.12480 1.04213 1.06761
 C949 C 1.14348 1.04860 1.07386
 H950 H 1.15056 1.04134 1.08621
 O951 O 0.90174 0.98093 1.07137
 O952 O 0.87868 0.98093 1.09434
 C953 C 0.88566 0.97422 1.07827
 C954 C 0.87527 0.95816 1.06769
 C955 C 0.85660 0.95170 1.07397
 H956 H 0.84954 0.95896 1.08634
 O957 O 1.07121 1.09835 1.01928
 O958 O 1.09414 1.12143 1.01928
 C959 C 1.07808 1.11444 1.02599
 C960 C 1.06749 1.12485 1.04204
 C961 C 1.07372 1.14355 1.04845
 H962 H 1.08606 1.15060 1.04115
 O963 O 0.92882 0.90194 1.01938
 O964 O 0.90590 0.87886 1.01940
 C965 C 0.92195 0.88585 1.02610
 C966 C 0.93257 0.87545 1.04214
 C967 C 0.92636 0.85674 1.04855
 H968 H 0.91402 0.84967 1.04126
 O969 O 1.07133 0.98088 1.09840
 O970 O 1.09427 0.98086 1.12150
 C971 C 1.07821 0.97416 1.11450
 C972 C 1.06762 0.95811 1.12490
 C973 C 1.07389 0.95163 1.14358
 H974 H 1.08626 0.95888 1.15065
 O975 O 0.92884 1.01937 1.09837
 O976 O 0.90594 1.01940 1.12150
 C977 C 0.92199 1.02608 1.11449
 C978 C 0.93263 1.04209 1.12490
 C979 C 0.92648 1.04844 1.14366
 H980 H 0.91417 1.04114 1.15076
 O981 O 0.98077 1.09837 1.07136
 O982 O 0.98074 1.12144 1.09433
 C983 C 0.97402 1.11444 1.07827
 C984 C 0.95791 1.12482 1.06771
 C985 C 0.95138 1.14343 1.07406
 H986 H 0.95861 1.15046 1.08647
 O987 O 1.01937 0.90186 1.07141
 O988 O 1.01938 0.87880 1.09438
 C989 C 1.02610 0.88578 1.07832
 C990 C 1.04221 0.87540 1.06777
 C991 C 1.04878 0.85681 1.07416
 H992 H 1.04156 0.84979 1.08658
 O993 O 1.09834 0.92886 1.01935
 O994 O 1.12143 0.90593 1.01935
 C995 C 1.11443 0.92198 1.02607
 C996 C 1.12482 0.93256 1.04214
 C997 C 1.14347 0.92625 1.04863
 H998 H 1.15052 0.91388 1.04138
 O999 O 0.90170 1.07138 1.01933
 O1000 O 0.87862 1.09433 1.01936
 C1001 C 0.88562 1.07828 1.02607
 C1002 C 0.87526 1.06771 1.04217
 C1003 C 0.85661 1.07402 1.04869
 H1004 H 0.84955 1.08639 1.04144
 Cu1005 Cu 1.00010 0.91768 1.08259
 Cu1006 Cu 1.00009 0.89008 1.11024
 Cu1007 Cu 1.00006 1.08259 1.08256
 Cu1008 Cu 1.00005 1.11020 1.11020
 Cu1009 Cu 0.91758 0.91774 1.00013
 Cu1010 Cu 0.88997 0.89012 1.00014
 Cu1011 Cu 1.08252 0.91763 1.00013
 Cu1012 Cu 1.11015 0.89001 1.00010
 Cu1013 Cu 0.91749 1.08261 1.00007
 Cu1014 Cu 0.88988 1.11025 1.00009
 Cu1015 Cu 1.08243 1.08253 1.00004
 Cu1016 Cu 1.11004 1.11015 1.00002
 Cu1017 Cu 0.91758 1.00015 1.08257
 Cu1018 Cu 0.88999 1.00018 1.11024
 Cu1019 Cu 1.08254 1.00011 1.08257
 Cu1020 Cu 1.11017 1.00011 1.11020
 C1021 C 1.05161 0.94863 1.11578
 H1022 H 1.04686 0.95337 1.10126
 C1023 C 1.06444 0.93578 1.15309
 C1024 C 0.94858 1.05164 1.11574
 H1025 H 0.95324 1.04698 1.10117
 C1026 C 0.93598 1.06423 1.15321
 C1027 C 0.88437 1.05170 1.05166
 H1028 H 0.89886 1.04692 1.04687
 C1029 C 0.84714 1.06462 1.06460
 C1030 C 1.11572 0.94858 1.05164
 H1031 H 1.10123 0.95336 1.04687
 C1032 C 1.15297 0.93566 1.06453
 C1033 C 1.05166 0.88446 1.05171
 H1034 H 1.04684 0.89891 1.04687
 C1035 C 1.06470 0.84733 1.06480
 C1036 C 0.94844 1.11574 1.05165
 H1037 H 0.95324 1.10127 1.04684
 C1038 C 0.93547 1.15292 1.06468
 C1039 C 0.94852 0.94860 1.11576
 H1040 H 0.95330 0.95338 1.10126
 C1041 C 0.93560 0.93568 1.15301
 C1042 C 1.05164 1.05169 1.11574
 H1043 H 1.04684 1.04690 1.10126
 C1044 C 1.06462 1.06463 1.15297
 C1045 C 0.94856 0.88456 1.05166
 H1046 H 0.95326 0.89909 1.04696
 C1047 C 0.93585 0.84719 1.06437
 C1048 C 1.05151 1.11575 1.05158
 H1049 H 1.04679 1.10122 1.04688
 C1050 C 1.06429 1.15309 1.06430
 C1051 C 0.88438 0.94865 1.05168
 H1052 H 0.89889 0.95339 1.04693
 C1053 C 0.84711 0.93582 1.06454
 C1054 C 1.11565 1.05163 1.05161
 H1055 H 1.10114 1.04689 1.04688
 C1056 C 1.15296 1.06446 1.06440
 O1057 O 1.07145 0.51913 0.59827
 O1058 O 1.09439 0.51915 0.62137
 C1059 C 1.07833 0.52585 0.61437
 C1060 C 1.06774 0.54191 0.62476
 C1061 C 1.07401 0.54837 0.64345
 H1062 H 1.08637 0.54111 0.65051
 O1063 O 0.92890 0.48062 0.59837
 O1064 O 0.90594 0.48065 0.62144
 C1065 C 0.92199 0.47392 0.61446
 C1066 C 0.93254 0.45783 0.62486
 C1067 C 0.92614 0.45127 0.64347
 H1068 H 0.91372 0.45849 0.65047
 O1069 O 1.01938 0.59810 0.57124
 O1070 O 1.01939 0.62120 0.59417
 C1071 C 1.02609 0.61420 0.57811
 C1072 C 1.04212 0.62460 0.56749
 C1073 C 1.04849 0.64332 0.57368
 H1074 H 1.04120 0.65041 0.58601
 O1075 O 0.98093 0.40170 0.57138
 O1076 O 0.98094 0.37862 0.59433
 C1077 C 0.97422 0.38562 0.57827
 C1078 C 0.95816 0.37523 0.56768
 C1079 C 0.95169 0.35657 0.57397
 H1080 H 0.95895 0.34951 0.58634
 O1081 O 1.09844 0.57112 0.51922
 O1082 O 1.12150 0.59407 0.51925
 C1083 C 1.11452 0.57802 0.52596
 C1084 C 1.12491 0.56744 0.54205
 C1085 C 1.14356 0.57375 0.54854
 H1086 H 1.15060 0.58612 0.54129
 O1087 O 0.90186 0.42867 0.51931
 O1088 O 0.87880 0.40572 0.51933
 C1089 C 0.88578 0.42178 0.52604
 C1090 C 0.87539 0.43236 0.54212
 C1091 C 0.85673 0.42608 0.54863
 H1092 H 0.84968 0.41371 0.54138
 O1093 O 0.98094 0.57108 0.59830
 O1094 O 0.98091 0.59403 0.62139
 C1095 C 0.97421 0.57796 0.61440
 C1096 C 0.95817 0.56737 0.62480
 C1097 C 0.95175 0.57360 0.64352
 H1098 H 0.95903 0.58594 0.65060
 O1099 O 1.01940 0.42874 0.59841
 O1100 O 1.01944 0.40582 0.62152
 C1101 C 1.02614 0.42187 0.61451
 C1102 C 1.04222 0.43244 0.62488
 C1103 C 1.04870 0.42619 0.64356
 H1104 H 1.04143 0.41385 0.65065
 O1105 O 1.09849 0.48065 0.57124
 O1106 O 1.12158 0.48062 0.59419
 C1107 C 1.11458 0.47392 0.57812
 C1108 C 1.12497 0.45786 0.56751
 C1109 C 1.14367 0.45143 0.57374
 H1110 H 1.15076 0.45870 0.58608
 O1111 O 0.90191 0.51912 0.57127
 O1112 O 0.87882 0.51918 0.59422
 C1113 C 0.88583 0.52586 0.57814
 C1114 C 0.87543 0.54190 0.56752
 C1115 C 0.85672 0.54832 0.57373
 H1116 H 0.84965 0.54106 0.58608
 O1117 O 0.92892 0.59806 0.51917
 O1118 O 0.90597 0.62115 0.51919
 C1119 C 0.92203 0.61415 0.52590
 C1120 C 0.93262 0.62454 0.54197
 C1121 C 0.92639 0.64324 0.54839
 H1122 H 0.91405 0.65032 0.54110
 O1123 O 1.07143 0.40160 0.51932
 O1124 O 1.09437 0.37852 0.51936
 C1125 C 1.07833 0.38554 0.52608
 C1126 C 1.06777 0.37519 0.54221
 C1127 C 1.07411 0.35658 0.54878
 H1128 H 1.08650 0.34952 0.54157
 O1129 O 0.92893 0.51911 0.59832
 O1130 O 0.90599 0.51917 0.62141
 C1131 C 0.92206 0.52585 0.61441
 C1132 C 0.93266 0.54189 0.62481
 C1133 C 0.92645 0.54832 0.64352
 H1134 H 0.91410 0.54105 0.65061
 O1135 O 1.07148 0.48065 0.59830
 O1136 O 1.09443 0.48062 0.62139
 C1137 C 1.07837 0.47393 0.61440
 C1138 C 1.06777 0.45789 0.62482
 C1139 C 1.07404 0.45143 0.64351
 H1140 H 1.08643 0.45867 0.65056
 O1141 O 1.01943 0.40170 0.57140
 O1142 O 1.01947 0.37863 0.59436
 C1143 C 1.02617 0.38562 0.57830
 C1144 C 1.04227 0.37524 0.56773
 C1145 C 1.04881 0.35663 0.57409
 H1146 H 1.04158 0.34961 0.58650
 O1147 O 0.98090 0.59807 0.57124
 O1148 O 0.98087 0.62117 0.59418
 C1149 C 0.97417 0.61416 0.57811
 C1150 C 0.95811 0.62454 0.56750
 C1151 C 0.95168 0.64324 0.57372
 H1152 H 0.95895 0.65032 0.58607
 O1153 O 0.90189 0.57106 0.51917
 O1154 O 0.87880 0.59400 0.51918
 C1155 C 0.88580 0.57795 0.52590
 C1156 C 0.87542 0.56736 0.54197
 C1157 C 0.85671 0.57359 0.54838
 H1158 H 0.84962 0.58591 0.54108
 O1159 O 1.09844 0.42863 0.51924
 O1160 O 1.12153 0.40569 0.51927
 C1161 C 1.11453 0.42175 0.52596
 C1162 C 1.12494 0.43236 0.54200
 C1163 C 1.14364 0.42613 0.54842
 H1164 H 1.15071 0.41378 0.54113
 O1165 O 0.98090 0.42867 0.59847
 O1166 O 0.98090 0.40573 0.62156
 C1167 C 0.97417 0.42178 0.61456
 C1168 C 0.95805 0.43233 0.62492
 C1169 C 0.95144 0.42596 0.64353
 H1170 H 0.95864 0.41355 0.65058
 O1171 O 1.01942 0.57109 0.59829
 O1172 O 1.01944 0.59405 0.62137
 C1173 C 1.02615 0.57799 0.61438
 C1174 C 1.04223 0.56741 0.62477
 C1175 C 1.04870 0.57368 0.64346
 H1176 H 1.04144 0.58604 0.65053
 O1177 O 0.90188 0.48064 0.57131
 O1178 O 0.87879 0.48067 0.59426
 C1179 C 0.88579 0.47394 0.57820
 C1180 C 0.87540 0.45787 0.56762
 C1181 C 0.85675 0.45140 0.57393
 H1182 H 0.84970 0.45866 0.58631
 O1183 O 1.09849 0.51913 0.57126
 O1184 O 1.12157 0.51915 0.59421
 C1185 C 1.11457 0.52586 0.57815
 C1186 C 1.12494 0.54194 0.56756
 C1187 C 1.14359 0.54844 0.57386
 H1188 H 1.15065 0.54120 0.58624
 O1189 O 0.92892 0.40168 0.51935
 O1190 O 0.90601 0.37859 0.51937
 C1191 C 0.92205 0.38559 0.52608
 C1192 C 0.93265 0.37522 0.54217
 C1193 C 0.92638 0.35656 0.54865
 H1194 H 0.91402 0.34949 0.54140
 O1195 O 1.07138 0.59811 0.51920
 O1196 O 1.09429 0.62121 0.51922
 C1197 C 1.07824 0.61420 0.52592
 C1198 C 1.06762 0.62460 0.54197
 C1199 C 1.07379 0.64332 0.54836
 H1200 H 1.08611 0.65041 0.54106
 Cu1201 Cu 1.08268 0.49988 0.58247
 Cu1202 Cu 1.11031 0.49988 0.61010
 Cu1203 Cu 0.91771 0.49987 0.58252
 Cu1204 Cu 0.89007 0.49993 0.61015
 Cu1205 Cu 1.00016 0.58228 0.58247
 Cu1206 Cu 1.00015 0.60992 0.61009
 Cu1207 Cu 1.00016 0.41751 0.58262
 Cu1208 Cu 1.00019 0.38989 0.61026
 C1209 C 1.05173 0.55141 0.61565
 H1210 H 1.04699 0.54667 0.60113
 C1211 C 1.06457 0.56423 0.65296
 C1212 C 0.94861 0.44838 0.61581
 H1213 H 0.95346 0.45319 0.60136
 C1214 C 0.93550 0.43535 0.65296
 C1215 C 1.05166 0.61545 0.55151
 H1216 H 1.04698 0.60091 0.54682
 C1217 C 1.06431 0.65285 0.56419
 C1218 C 0.94866 0.38433 0.55166
 H1219 H 0.95340 0.39883 0.54690
 C1220 C 0.93582 0.34707 0.56454
 C1221 C 1.11582 0.55142 0.55154
 H1222 H 1.10133 0.54665 0.54677
 C1223 C 1.15306 0.56433 0.56443
 C1224 C 0.88450 0.44838 0.55160
 H1225 H 0.89899 0.45313 0.54683
 C1226 C 0.84725 0.43552 0.56451
 C1227 C 0.94865 0.55140 0.61567
 H1228 H 0.95335 0.54668 0.60113
 C1229 C 0.93591 0.56415 0.65304
 C1230 C 1.05174 0.44842 0.61573
 H1231 H 1.04698 0.45315 0.60121
 C1232 C 1.06459 0.43560 0.65304
 C1233 C 1.11582 0.44835 0.55153
 H1234 H 1.10129 0.45307 0.54682
 C1235 C 1.15317 0.43558 0.56426
 C1236 C 0.88456 0.55140 0.55151
 H1237 H 0.89909 0.54668 0.54681
 C1238 C 0.84720 0.56414 0.56424
 C1239 C 0.94860 0.61541 0.55150
 H1240 H 0.95332 0.60088 0.54679
 C1241 C 0.93584 0.65276 0.56424
 C1242 C 1.05173 0.38430 0.55166
 H1243 H 1.04692 0.39877 0.54684
 C1244 C 1.06471 0.34713 0.56471
 O1245 O 1.07138 0.48067 0.40171
 O1246 O 1.09431 0.48062 0.37861
 C1247 C 1.07825 0.47394 0.38561
 C1248 C 1.06764 0.45789 0.37522
 C1249 C 1.07386 0.45149 0.35650
 H1250 H 1.08618 0.45878 0.34941
 O1251 O 0.92899 0.51898 0.40164
 O1252 O 0.90606 0.51901 0.37853
 C1253 C 0.92212 0.52570 0.38554
 C1254 C 0.93273 0.54173 0.37514
 C1255 C 0.92654 0.54812 0.35640
 H1256 H 0.91422 0.54083 0.34930
 O1257 O 0.98090 0.59807 0.42867
 O1258 O 0.98085 0.62113 0.40569
 C1259 C 0.97415 0.61415 0.42176
 C1260 C 0.95808 0.62453 0.43234
 C1261 C 0.95160 0.64319 0.42604
 H1262 H 0.95885 0.65024 0.41367
 O1263 O 1.01944 0.40157 0.42873
 O1264 O 1.01948 0.37848 0.40579
 C1265 C 1.02617 0.38548 0.42185
 C1266 C 1.04223 0.37509 0.43246
 C1267 C 1.04871 0.35643 0.42618
 H1268 H 1.04148 0.34937 0.41379
 O1269 O 1.09842 0.42856 0.48073
 O1270 O 1.12150 0.40562 0.48072
 C1271 C 1.11449 0.42167 0.47399
 C1272 C 1.12487 0.43223 0.45789
 C1273 C 1.14350 0.42590 0.45135
 H1274 H 1.15055 0.41351 0.45857
 O1275 O 0.90190 0.57105 0.48066
 O1276 O 0.87881 0.59399 0.48063
 C1277 C 0.88582 0.57793 0.47393
 C1278 C 0.87544 0.56734 0.45785
 C1279 C 0.85676 0.57360 0.45137
 H1280 H 0.84969 0.58596 0.45863
 O1281 O 1.01945 0.57108 0.40165
 O1282 O 1.01944 0.59402 0.37856
 C1283 C 1.02617 0.57798 0.38557
 C1284 C 1.04228 0.56744 0.37519
 C1285 C 1.04883 0.57382 0.35657
 H1286 H 1.04159 0.58622 0.34955
 O1287 O 0.98092 0.42855 0.40166
 O1288 O 0.98092 0.40558 0.37859
 C1289 C 0.97419 0.42163 0.38557
 C1290 C 0.95810 0.43218 0.37518
 C1291 C 0.95156 0.42581 0.35655
 H1292 H 0.95880 0.41341 0.34952
 O1293 O 1.09848 0.51911 0.42872
 O1294 O 1.12156 0.51910 0.40576
 C1295 C 1.11457 0.52582 0.42182
 C1296 C 1.12495 0.54190 0.43240
 C1297 C 1.14359 0.54841 0.42609
 H1298 H 1.15065 0.54118 0.41371
 O1299 O 0.90194 0.48055 0.42870
 O1300 O 0.87885 0.48054 0.40574
 C1301 C 0.88584 0.47384 0.42181
 C1302 C 0.87545 0.45780 0.43242
 C1303 C 0.85677 0.45135 0.42616
 H1304 H 0.84971 0.45861 0.41378
 O1305 O 1.07141 0.59812 0.48070
 O1306 O 1.09432 0.62122 0.48068
 C1307 C 1.07827 0.61421 0.47397
 C1308 C 1.06767 0.62459 0.45790
 C1309 C 1.07390 0.64328 0.45143
 H1310 H 1.08625 0.65035 0.45868
 O1311 O 0.92896 0.40167 0.48084
 O1312 O 0.90605 0.37857 0.48082
 C1313 C 0.92210 0.38557 0.47412
 C1314 C 0.93272 0.37517 0.45808
 C1315 C 0.92655 0.35644 0.45171
 H1316 H 0.91423 0.34936 0.45903
 O1317 O 0.92891 0.48050 0.40161
 O1318 O 0.90596 0.48049 0.37852
 C1319 C 0.92201 0.47376 0.38552
 C1320 C 0.93258 0.45766 0.37515
 C1321 C 0.92624 0.45110 0.35652
 H1322 H 0.91384 0.45831 0.34947
 O1323 O 1.07148 0.51915 0.40164
 O1324 O 1.09443 0.51914 0.37855
 C1325 C 1.07838 0.52587 0.38555
 C1326 C 1.06782 0.54197 0.37517
 C1327 C 1.07417 0.54856 0.35655
 H1328 H 1.08659 0.54137 0.34951
 O1329 O 0.98096 0.40162 0.42878
 O1330 O 0.98096 0.37851 0.40586
 C1331 C 0.97425 0.38552 0.42192
 C1332 C 0.95822 0.37514 0.43255
 C1333 C 0.95184 0.35640 0.42639
 H1334 H 0.95913 0.34930 0.41406
 O1335 O 1.01939 0.59808 0.42871
 O1336 O 1.01937 0.62116 0.40575
 C1337 C 1.02609 0.61417 0.42182
 C1338 C 1.04214 0.62457 0.43241
 C1339 C 1.04857 0.64326 0.42614
 H1340 H 1.04128 0.65031 0.41378
 O1341 O 0.90188 0.42865 0.48080
 O1342 O 0.87883 0.40570 0.48078
 C1343 C 0.88581 0.42176 0.47406
 C1344 C 0.87543 0.43233 0.45797
 C1345 C 0.85675 0.42608 0.45150
 H1346 H 0.84967 0.41373 0.45878
 O1347 O 1.09844 0.57110 0.48071
 O1348 O 1.12150 0.59405 0.48069
 C1349 C 1.11452 0.57799 0.47398
 C1350 C 1.12491 0.56741 0.45791
 C1351 C 1.14355 0.57372 0.45140
 H1352 H 1.15059 0.58611 0.45864
 O1353 O 1.01941 0.42864 0.40172
 O1354 O 1.01945 0.40569 0.37863
 C1355 C 1.02614 0.42175 0.38562
 C1356 C 1.04218 0.43237 0.37522
 C1357 C 1.04859 0.42616 0.35650
 H1358 H 1.04133 0.41382 0.34941
 O1359 O 0.98096 0.57100 0.40167
 O1360 O 0.98092 0.59392 0.37855
 C1361 C 0.97424 0.57786 0.38556
 C1362 C 0.95821 0.56724 0.37515
 C1363 C 0.95183 0.57342 0.35641
 H1364 H 0.95911 0.58575 0.34932
 O1365 O 0.90193 0.51903 0.42864
 O1366 O 0.87885 0.51907 0.40568
 C1367 C 0.88585 0.52577 0.42175
 C1368 C 0.87546 0.54184 0.43234
 C1369 C 0.85678 0.54830 0.42606
 H1370 H 0.84972 0.54103 0.41370
 O1371 O 1.09843 0.48062 0.42872
 O1372 O 1.12150 0.48056 0.40576
 C1373 C 1.11450 0.47386 0.42183
 C1374 C 1.12487 0.45776 0.43240
 C1375 C 1.14350 0.45123 0.42607
 H1376 H 1.15054 0.45848 0.41368
 O1377 O 1.07139 0.40155 0.48080
 O1378 O 1.09433 0.37846 0.48080
 C1379 C 1.07828 0.38546 0.47408
 C1380 C 1.06770 0.37507 0.45800
 C1381 C 1.07399 0.35641 0.45153
 H1382 H 1.08635 0.34934 0.45879
 O1383 O 0.92889 0.59809 0.48066
 O1384 O 0.90594 0.62117 0.48064
 C1385 C 0.92200 0.61417 0.47393
 C1386 C 0.93257 0.62455 0.45785
 C1387 C 0.92629 0.64321 0.45135
 H1388 H 0.91392 0.65028 0.45860
 Cu1389 Cu 1.08265 0.49990 0.41750
 Cu1390 Cu 1.11027 0.49984 0.38986
 Cu1391 Cu 0.91774 0.49976 0.41745
 Cu1392 Cu 0.89012 0.49978 0.38980
 Cu1393 Cu 1.08262 0.58231 0.49996
 Cu1394 Cu 1.11021 0.60995 0.49996
 Cu1395 Cu 1.08262 0.41738 0.50002
 Cu1396 Cu 1.11024 0.38976 0.50004
 Cu1397 Cu 0.91770 0.58227 0.49991
 Cu1398 Cu 0.89006 0.60989 0.49991
 Cu1399 Cu 0.91770 0.41747 0.50007
 Cu1400 Cu 0.89011 0.38983 0.50007
 Cu1401 Cu 1.00017 0.58226 0.41748
 Cu1402 Cu 1.00014 0.60987 0.38982
 Cu1403 Cu 1.00018 0.41740 0.41752
 Cu1404 Cu 1.00021 0.38975 0.38990
 C1405 C 1.05168 0.44835 0.38436
 H1406 H 1.04697 0.45306 0.39890
 C1407 C 1.06441 0.43564 0.34697
 C1408 C 0.94869 0.55127 0.38429
 H1409 H 0.95338 0.54658 0.39885
 C1410 C 0.93602 0.56394 0.34687
 C1411 C 0.94859 0.61544 0.44836
 H1412 H 0.95335 0.60094 0.45313
 C1413 C 0.93572 0.65270 0.43546
 C1414 C 1.05170 0.38419 0.44849
 H1415 H 1.04694 0.39870 0.45324
 C1416 C 1.06457 0.34692 0.43563
 C1417 C 1.11577 0.44828 0.44843
 H1418 H 1.10129 0.45307 0.45323
 C1419 C 1.15298 0.43532 0.43545
 C1420 C 0.88457 0.55134 0.44835
 H1421 H 0.89908 0.54660 0.45310
 C1422 C 0.84727 0.56416 0.43550
 C1423 C 1.05175 0.55140 0.38426
 H1424 H 1.04694 0.54657 0.39873
 C1425 C 1.06476 0.56447 0.34709
 C1426 C 0.94863 0.44822 0.38425
 H1427 H 0.95343 0.45304 0.39873
 C1428 C 0.93565 0.43519 0.34706
 C1429 C 1.11583 0.55138 0.44843
 H1430 H 1.10135 0.54660 0.45321
 C1431 C 1.15305 0.56431 0.43551
 C1432 C 0.88455 0.44831 0.44845
 H1433 H 0.89906 0.45304 0.45319
 C1434 C 0.84726 0.43551 0.43562
 C1435 C 1.05167 0.61547 0.44841
 H1436 H 1.04695 0.60095 0.45315
 C1437 C 1.06442 0.65277 0.43557
 C1438 C 0.94868 0.38430 0.44852
 H1439 H 0.95336 0.39885 0.45319
 C1440 C 0.93603 0.34689 0.43589
 O1441 O 0.48062 0.92877 0.40146
 O1442 O 0.48063 0.90584 0.37835
 C1443 C 0.47390 0.92188 0.38536
 C1444 C 0.45781 0.93245 0.37497
 C1445 C 0.45129 0.92611 0.35633
 H1446 H 0.45854 0.91372 0.34929
 O1447 O 0.51912 1.07131 0.40150
 O1448 O 0.51912 1.09427 0.37843
 C1449 C 0.52584 1.07822 0.38542
 C1450 C 0.54193 1.06767 0.37502
 C1451 C 0.54846 1.07402 0.35639
 H1452 H 0.54123 1.08642 0.34936
 O1453 O 0.40163 0.98079 0.42852
 O1454 O 0.37854 0.98080 0.40557
 C1455 C 0.38554 0.97409 0.42163
 C1456 C 0.37514 0.95804 0.43223
 C1457 C 0.35645 0.95163 0.42599
 H1458 H 0.34937 0.95891 0.41364
 O1459 O 0.59805 1.01927 0.42855
 O1460 O 0.62116 1.01929 0.40562
 C1461 C 0.61415 1.02598 0.42169
 C1462 C 0.62455 1.04201 0.43233
 C1463 C 0.64328 1.04838 0.42616
 H1464 H 0.65038 1.04110 0.41382
 O1465 O 0.42864 0.90171 0.48046
 O1466 O 0.40568 0.87866 0.48044
 C1467 C 0.42174 0.88564 0.47372
 C1468 C 0.43229 0.87526 0.45762
 C1469 C 0.42595 0.85665 0.45105
 H1470 H 0.41355 0.84961 0.45827
 O1471 O 0.57105 1.09828 0.48065
 O1472 O 0.59399 1.12134 0.48062
 C1473 C 0.57793 1.11435 0.47392
 C1474 C 0.56734 1.12475 0.45785
 C1475 C 0.57358 1.14343 0.45140
 H1476 H 0.58593 1.15050 0.45868
 O1477 O 0.42869 1.01923 0.40149
 O1478 O 0.40576 1.01927 0.37838
 C1479 C 0.42182 1.02596 0.38539
 C1480 C 0.43242 1.04200 0.37499
 C1481 C 0.42621 1.04840 0.35627
 H1482 H 0.41389 1.04110 0.34918
 O1483 O 0.57104 0.98082 0.40146
 O1484 O 0.59399 0.98081 0.37838
 C1485 C 0.57793 0.97410 0.38537
 C1486 C 0.56737 0.95802 0.37498
 C1487 C 0.57366 0.95155 0.35631
 H1488 H 0.58602 0.95880 0.34924
 O1489 O 0.51910 0.90173 0.42850
 O1490 O 0.51915 0.87866 0.40553
 C1491 C 0.52584 0.88565 0.42161
 C1492 C 0.54190 0.87526 0.43221
 C1493 C 0.54836 0.85658 0.42595
 H1494 H 0.54110 0.84952 0.41358
 O1495 O 0.48059 1.09828 0.42856
 O1496 O 0.48055 1.12138 0.40561
 C1497 C 0.47385 1.11437 0.42168
 C1498 C 0.45779 1.12475 0.43228
 C1499 C 0.45131 1.14342 0.42601
 H1500 H 0.45855 1.15048 0.41363
 O1501 O 0.40158 1.07127 0.48057
 O1502 O 0.37850 1.09422 0.48055
 C1503 C 0.38551 1.07816 0.47383
 C1504 C 0.37515 1.06760 0.45771
 C1505 C 0.35651 1.07392 0.45117
 H1506 H 0.34945 1.08630 0.45841
 O1507 O 0.59808 0.92878 0.48052
 O1508 O 0.62118 0.90584 0.48050
 C1509 C 0.61417 0.92189 0.47379
 C1510 C 0.62455 0.93248 0.45771
 C1511 C 0.64322 0.92621 0.45123
 H1512 H 0.65029 0.91384 0.45849
 O1513 O 0.48063 1.07126 0.40151
 O1514 O 0.48059 1.09421 0.37842
 C1515 C 0.47391 1.07814 0.38541
 C1516 C 0.45788 1.06753 0.37500
 C1517 C 0.45147 1.07373 0.35627
 H1518 H 0.45873 1.08607 0.34919
 O1519 O 0.51910 0.92877 0.40147
 O1520 O 0.51915 0.90585 0.37836
 C1521 C 0.52584 0.92190 0.38537
 C1522 C 0.54190 0.93250 0.37498
 C1523 C 0.54839 0.92622 0.35631
 H1524 H 0.54116 0.91385 0.34925
 O1525 O 0.59807 0.98079 0.42850
 O1526 O 0.62116 0.98077 0.40556
 C1527 C 0.61415 0.97406 0.42162
 C1528 C 0.62454 0.95799 0.43220
 C1529 C 0.64321 0.95152 0.42593
 H1530 H 0.65027 0.95877 0.41356
 O1531 O 0.40164 1.01928 0.42850
 O1532 O 0.37857 1.01933 0.40554
 C1533 C 0.38557 1.02603 0.42160
 C1534 C 0.37518 1.04211 0.43218
 C1535 C 0.35655 1.04863 0.42585
 H1536 H 0.34951 1.04139 0.41345
 O1537 O 0.42860 1.09828 0.48061
 O1538 O 0.40566 1.12137 0.48059
 C1539 C 0.42172 1.11437 0.47388
 C1540 C 0.43230 1.12476 0.45781
 C1541 C 0.42602 1.14343 0.45134
 H1542 H 0.41366 1.15049 0.45860
 O1543 O 0.57109 0.90174 0.48052
 O1544 O 0.59404 0.87866 0.48051
 C1545 C 0.57798 0.88565 0.47380
 C1546 C 0.56740 0.87526 0.45772
 C1547 C 0.57366 0.85658 0.45127
 H1548 H 0.58602 0.84952 0.45853
 O1549 O 0.57109 1.01932 0.40144
 O1550 O 0.59405 1.01934 0.37837
 C1551 C 0.57799 1.02606 0.38537
 C1552 C 0.56743 1.04216 0.37499
 C1553 C 0.57377 1.04872 0.35636
 H1554 H 0.58617 1.04150 0.34931
 O1555 O 0.42861 0.98075 0.40144
 O1556 O 0.40567 0.98075 0.37835
 C1557 C 0.42172 0.97402 0.38535
 C1558 C 0.43229 0.95793 0.37496
 C1559 C 0.42596 0.95139 0.35632
 H1560 H 0.41356 0.95860 0.34927
 O1561 O 0.51908 1.09828 0.42859
 O1562 O 0.51907 1.12139 0.40566
 C1563 C 0.52579 1.11438 0.42172
 C1564 C 0.54184 1.12476 0.43233
 C1565 C 0.54828 1.14344 0.42608
 H1566 H 0.54101 1.15052 0.41372
 O1567 O 0.48062 0.90172 0.42846
 O1568 O 0.48062 0.87865 0.40549
 C1569 C 0.47390 0.88564 0.42155
 C1570 C 0.45780 0.87526 0.43211
 C1571 C 0.45126 0.85665 0.42575
 H1572 H 0.45849 0.84962 0.41334
 O1573 O 0.59806 1.07123 0.48065
 O1574 O 0.62115 1.09414 0.48063
 C1575 C 0.61415 1.07809 0.47393
 C1576 C 0.62454 1.06748 0.45787
 C1577 C 0.64327 1.07366 0.45150
 H1578 H 0.65036 1.08596 0.45882
 O1579 O 0.40165 0.92877 0.48049
 O1580 O 0.37854 0.90586 0.48048
 C1581 C 0.38555 0.92191 0.47378
 C1582 C 0.37515 0.93253 0.45772
 C1583 C 0.35645 0.92631 0.45129
 H1584 H 0.34938 0.91396 0.45856
 Cu1585 Cu 0.49986 0.91754 0.41727
 Cu1586 Cu 0.49989 0.88994 0.38962
 Cu1587 Cu 0.49985 1.08248 0.41734
 Cu1588 Cu 0.49983 1.11013 0.38972
 Cu1589 Cu 0.41744 1.00001 0.41729
 Cu1590 Cu 0.38982 1.00004 0.38964
 Cu1591 Cu 0.58226 1.00005 0.41728
 Cu1592 Cu 0.60990 1.00005 0.38967
 C1593 C 0.44833 0.94848 0.38406
 H1594 H 0.45312 0.95328 0.39855
 C1595 C 0.43538 0.93549 0.34684
 C1596 C 0.55140 1.05162 0.38410
 H1597 H 0.54660 1.04680 0.39857
 C1598 C 0.56437 1.06463 0.34690
 C1599 C 0.38427 0.94852 0.44822
 H1600 H 0.39880 0.95323 0.45294
 C1601 C 0.34694 0.93578 0.43544
 C1602 C 0.61540 1.05154 0.44831
 H1603 H 0.60085 1.04686 0.45298
 C1604 C 0.65281 1.06418 0.43567
 C1605 C 0.44834 0.88434 0.44816
 H1606 H 0.45314 0.89881 0.45298
 C1607 C 0.43535 0.84718 0.43513
 C1608 C 0.55135 1.11563 0.44833
 H1609 H 0.54662 1.10112 0.45306
 C1610 C 0.56413 1.15295 0.43554
 C1611 C 0.44838 1.05154 0.38414
 H1612 H 0.45308 1.04685 0.39869
 C1613 C 0.43565 1.06424 0.34674
 C1614 C 0.55137 0.94852 0.38410
 H1615 H 0.54660 0.95328 0.39860
 C1616 C 0.56425 0.93566 0.34681
 C1617 C 0.55140 0.88438 0.44822
 H1618 H 0.54665 0.89889 0.45296
 C1619 C 0.56422 0.84708 0.43540
 C1620 C 0.44830 1.11564 0.44830
 H1621 H 0.45306 1.10113 0.45305
 C1622 C 0.43544 1.15292 0.43546
 C1623 C 0.38426 1.05158 0.44824
 H1624 H 0.39874 1.04679 0.45303
 C1625 C 0.34705 1.06452 0.43526
 C1626 C 0.61543 0.94849 0.44822
 H1627 H 0.60092 0.95324 0.45297
 C1628 C 0.65271 0.93564 0.43536
 O1629 O 0.51905 0.92875 0.59811
 O1630 O 0.51909 0.90581 0.62120
 C1631 C 0.52578 0.92187 0.61421
 C1632 C 0.54182 0.93248 0.62461
 C1633 C 0.54823 0.92625 0.64333
 H1634 H 0.54096 0.91391 0.65041
 O1635 O 0.48066 1.07120 0.59821
 O1636 O 0.48061 1.09413 0.62131
 C1637 C 0.47393 1.07808 0.61430
 C1638 C 0.45786 1.06749 0.62469
 C1639 C 0.45141 1.07375 0.64338
 H1640 H 0.45869 1.08610 0.65045
 O1641 O 0.40160 1.01930 0.57112
 O1642 O 0.37851 1.01931 0.59407
 C1643 C 0.38551 1.02603 0.57801
 C1644 C 0.37512 1.04210 0.56744
 C1645 C 0.35648 1.04862 0.57377
 H1646 H 0.34945 1.04139 0.58617
 O1647 O 0.59806 0.98077 0.57112
 O1648 O 0.62115 0.98070 0.59407
 C1649 C 0.61414 0.97402 0.57799
 C1650 C 0.62454 0.95798 0.56737
 C1651 C 0.64324 0.95156 0.57358
 H1652 H 0.65032 0.95883 0.58594
 O1653 O 0.57107 0.90176 0.51903
 O1654 O 0.59403 0.87868 0.51906
 C1655 C 0.57796 0.88568 0.52576
 C1656 C 0.56737 0.87528 0.54183
 C1657 C 0.57361 0.85658 0.54825
 H1658 H 0.58596 0.84951 0.54097
 O1659 O 0.42859 1.09825 0.51912
 O1660 O 0.40566 1.12134 0.51914
 C1661 C 0.42171 1.11433 0.52586
 C1662 C 0.43229 1.12470 0.54195
 C1663 C 0.42602 1.14337 0.54844
 H1664 H 0.41365 1.15044 0.54118
 O1665 O 0.42863 0.98079 0.59814
 O1666 O 0.40567 0.98075 0.62121
 C1667 C 0.42173 0.97405 0.61422
 C1668 C 0.43231 0.95797 0.62460
 C1669 C 0.42602 0.95150 0.64328
 H1670 H 0.41367 0.95877 0.65034
 O1671 O 0.57109 1.01927 0.59822
 O1672 O 0.59405 1.01924 0.62130
 C1673 C 0.57800 1.02598 0.61431
 C1674 C 0.56747 1.04209 0.62470
 C1675 C 0.57388 1.04866 0.64330
 H1676 H 0.58629 1.04144 0.65031
 O1677 O 0.48059 0.90171 0.57107
 O1678 O 0.48058 0.87862 0.59402
 C1679 C 0.47387 0.88562 0.57795
 C1680 C 0.45782 0.87524 0.56735
 C1681 C 0.45135 0.85657 0.57361
 H1682 H 0.45858 0.84950 0.58599
 O1683 O 0.51911 1.09826 0.57119
 O1684 O 0.51910 1.12134 0.59413
 C1685 C 0.52581 1.11435 0.57807
 C1686 C 0.54187 1.12474 0.56749
 C1687 C 0.54835 1.14339 0.57379
 H1688 H 0.54110 1.15044 0.58617
 O1689 O 0.40169 0.92878 0.51900
 O1690 O 0.37858 0.90588 0.51902
 C1691 C 0.38559 0.92193 0.52572
 C1692 C 0.37520 0.93254 0.54178
 C1693 C 0.35648 0.92635 0.54817
 H1694 H 0.34940 0.91402 0.54088
 O1695 O 0.59809 1.07126 0.51916
 O1696 O 0.62118 1.09418 0.51918
 C1697 C 0.61418 1.07813 0.52589
 C1698 C 0.62456 1.06754 0.54197
 C1699 C 0.64322 1.07381 0.54847
 H1700 H 0.65028 1.08618 0.54123
 O1701 O 0.51915 1.07127 0.59827
 O1702 O 0.51915 1.09422 0.62135
 C1703 C 0.52588 1.07818 0.61435
 C1704 C 0.54199 1.06762 0.62473
 C1705 C 0.54860 1.07400 0.64333
 H1706 H 0.54142 1.08642 0.65037
 O1707 O 0.48057 0.92873 0.59811
 O1708 O 0.48056 0.90579 0.62121
 C1709 C 0.47385 0.92184 0.61421
 C1710 C 0.45778 0.93243 0.62460
 C1711 C 0.45130 0.92616 0.64328
 H1712 H 0.45854 0.91379 0.65035
 O1713 O 0.59808 1.01925 0.57115
 O1714 O 0.62117 1.01921 0.59409
 C1715 C 0.61417 1.02595 0.57804
 C1716 C 0.62456 1.04202 0.56747
 C1717 C 0.64322 1.04849 0.57377
 H1718 H 0.65027 1.04122 0.58614
 O1719 O 0.40165 0.98082 0.57105
 O1720 O 0.37855 0.98079 0.59399
 C1721 C 0.38556 0.97409 0.57792
 C1722 C 0.37518 0.95805 0.56729
 C1723 C 0.35646 0.95166 0.57349
 H1724 H 0.34937 0.95895 0.58582
 O1725 O 0.57107 1.09829 0.51916
 O1726 O 0.59401 1.12136 0.51918
 C1727 C 0.57796 1.11437 0.52589
 C1728 C 0.56738 1.12475 0.54198
 C1729 C 0.57366 1.14341 0.54848
 H1730 H 0.58603 1.15046 0.54123
 O1731 O 0.42867 0.90171 0.51898
 O1732 O 0.40572 0.87866 0.51901
 C1733 C 0.42178 0.88564 0.52571
 C1734 C 0.43235 0.87525 0.54179
 C1735 C 0.42608 0.85658 0.54825
 H1736 H 0.41373 0.84953 0.54097
 O1737 O 0.57102 0.98078 0.59816
 O1738 O 0.59397 0.98071 0.62125
 C1739 C 0.57791 0.97403 0.61424
 C1740 C 0.56730 0.95798 0.62463
 C1741 C 0.57352 0.95156 0.64335
 H1742 H 0.58585 0.95884 0.65044
 O1743 O 0.42863 1.01927 0.59817
 O1744 O 0.40568 1.01928 0.62126
 C1745 C 0.42174 1.02598 0.61427
 C1746 C 0.43234 1.04203 0.62468
 C1747 C 0.42608 1.04850 0.64337
 H1748 H 0.41371 1.04126 0.65044
 O1749 O 0.48062 1.09823 0.57118
 O1750 O 0.48057 1.12131 0.59414
 C1751 C 0.47387 1.11431 0.57807
 C1752 C 0.45780 1.12469 0.56747
 C1753 C 0.45132 1.14335 0.57376
 H1754 H 0.45858 1.15041 0.58613
 O1755 O 0.51907 0.90174 0.57106
 O1756 O 0.51911 0.87865 0.59401
 C1757 C 0.52581 0.88566 0.57794
 C1758 C 0.54187 0.87527 0.56734
 C1759 C 0.54831 0.85658 0.57357
 H1760 H 0.54103 0.84950 0.58591
 O1761 O 0.59807 0.92879 0.51903
 O1762 O 0.62117 0.90586 0.51905
 C1763 C 0.61416 0.92191 0.52576
 C1764 C 0.62455 0.93250 0.54183
 C1765 C 0.64326 0.92628 0.54824
 H1766 H 0.65034 0.91395 0.54095
 O1767 O 0.40155 1.07127 0.51909
 O1768 O 0.37847 1.09422 0.51911
 C1769 C 0.38547 1.07816 0.52582
 C1770 C 0.37509 1.06759 0.54191
 C1771 C 0.35645 1.07391 0.54844
 H1772 H 0.34940 1.08630 0.54120
 Cu1773 Cu 0.49982 0.91753 0.58229
 Cu1774 Cu 0.49984 0.88991 0.60992
 Cu1775 Cu 0.49989 1.08244 0.58241
 Cu1776 Cu 0.49985 1.11006 0.61005
 Cu1777 Cu 0.41747 0.91754 0.49973
 Cu1778 Cu 0.38982 0.88995 0.49974
 Cu1779 Cu 0.58228 0.91756 0.49977
 Cu1780 Cu 0.60992 0.88995 0.49978
 Cu1781 Cu 0.41738 1.08247 0.49985
 Cu1782 Cu 0.38976 1.11010 0.49985
 Cu1783 Cu 0.58227 1.08247 0.49991
 Cu1784 Cu 0.60990 1.11007 0.49990
 Cu1785 Cu 0.41743 1.00005 0.58232
 Cu1786 Cu 0.38979 1.00003 0.60994
 Cu1787 Cu 0.58226 1.00002 0.58236
 Cu1788 Cu 0.60990 0.99995 0.60999
 C1789 C 0.55133 0.94846 0.61549
 H1790 H 0.54662 0.95318 0.60094
 C1791 C 0.56406 0.93572 0.65287
 C1792 C 0.44835 1.05151 0.61556
 H1793 H 0.45309 1.04677 0.60104
 C1794 C 0.43554 1.06434 0.65288
 C1795 C 0.38420 1.05157 0.55139
 H1796 H 0.39868 1.04678 0.54660
 C1797 C 0.34699 1.06451 0.56435
 C1798 C 0.61541 0.94847 0.55137
 H1799 H 0.60087 0.95319 0.54666
 C1800 C 0.65277 0.93573 0.56410
 C1801 C 0.55138 0.88441 0.55135
 H1802 H 0.54666 0.89893 0.54663
 C1803 C 0.56415 0.84707 0.56410
 C1804 C 0.44830 1.11558 0.55145
 H1805 H 0.45306 1.10108 0.54669
 C1806 C 0.43545 1.15286 0.56432
 C1807 C 0.44830 0.94846 0.61549
 H1808 H 0.45306 0.95321 0.60098
 C1809 C 0.43544 0.93562 0.65278
 C1810 C 0.55141 1.05155 0.61564
 H1811 H 0.54656 1.04672 0.60119
 C1812 C 0.56454 1.06460 0.65277
 C1813 C 0.44834 0.88435 0.55132
 H1814 H 0.45309 0.89886 0.54657
 C1815 C 0.43549 0.84707 0.56414
 C1816 C 0.55136 1.11564 0.55146
 H1817 H 0.54661 1.10115 0.54669
 C1818 C 0.56422 1.15289 0.56437
 C1819 C 0.38433 0.94851 0.55132
 H1820 H 0.39887 0.95321 0.54663
 C1821 C 0.34695 0.93583 0.56400
 C1822 C 0.61545 1.05152 0.55145
 H1823 H 0.60096 1.04678 0.54668
 C1824 C 0.65271 1.06437 0.56435
 O1825 O 0.57116 0.51907 1.09850
 O1826 O 0.59411 0.51909 1.12159
 C1827 C 0.57805 0.52580 1.11459
 C1828 C 0.56747 0.54187 1.12498
 C1829 C 0.57376 0.54835 1.14365
 H1830 H 0.58613 0.54110 1.15071
 O1831 O 0.42868 0.48069 1.09853
 O1832 O 0.40573 0.48067 1.12161
 C1833 C 0.42178 0.47395 1.11461
 C1834 C 0.43234 0.45785 1.12499
 C1835 C 0.42601 0.45134 1.14363
 H1836 H 0.41363 0.45859 1.15067
 O1837 O 0.51912 0.59814 1.07150
 O1838 O 0.51916 0.62121 1.09446
 C1839 C 0.52585 0.61422 1.07839
 C1840 C 0.54191 0.62460 1.06780
 C1841 C 0.54838 0.64327 1.07407
 H1842 H 0.54112 0.65033 1.08643
 O1843 O 0.48071 0.40164 1.07146
 O1844 O 0.48067 0.37854 1.09439
 C1845 C 0.47398 0.38555 1.07832
 C1846 C 0.45793 0.37518 1.06769
 C1847 C 0.45150 0.35647 1.07388
 H1848 H 0.45877 0.34936 1.08623
 O1849 O 0.59811 0.57107 1.01945
 O1850 O 0.62120 0.59398 1.01947
 C1851 C 0.61420 0.57793 1.02617
 C1852 C 0.62461 0.56732 1.04222
 C1853 C 0.64333 0.57352 1.04861
 H1854 H 0.65039 0.58585 1.04131
 O1855 O 0.40167 0.42875 1.01942
 O1856 O 0.37859 0.40582 1.01944
 C1857 C 0.38559 0.42187 1.02615
 C1858 C 0.37520 0.43245 1.04223
 C1859 C 0.35652 0.42619 1.04868
 H1860 H 0.34947 0.41384 1.04141
 O1861 O 0.48065 0.57112 1.09855
 O1862 O 0.48065 0.59405 1.12165
 C1863 C 0.47393 0.57801 1.11465
 C1864 C 0.45785 0.56745 1.12504
 C1865 C 0.45133 0.57380 1.14368
 H1866 H 0.45858 0.58618 1.15071
 O1867 O 0.51915 0.42865 1.09855
 O1868 O 0.51916 0.40571 1.12164
 C1869 C 0.52587 0.42176 1.11465
 C1870 C 0.54194 0.43233 1.12504
 C1871 C 0.54842 0.42606 1.14372
 H1872 H 0.54117 0.41371 1.15079
 O1873 O 0.59820 0.48055 1.07148
 O1874 O 0.62128 0.48054 1.09444
 C1875 C 0.61429 0.47383 1.07838
 C1876 C 0.62468 0.45775 1.06780
 C1877 C 0.64333 0.45125 1.07411
 H1878 H 0.65037 0.45848 1.08651
 O1879 O 0.40165 0.51920 1.07151
 O1880 O 0.37856 0.51922 1.09445
 C1881 C 0.38556 0.52593 1.07839
 C1882 C 0.37519 0.54202 1.06781
 C1883 C 0.35655 0.54854 1.07412
 H1884 H 0.34949 0.54132 1.08651
 O1885 O 0.42866 0.59823 1.01950
 O1886 O 0.40571 0.62131 1.01952
 C1887 C 0.42176 0.61431 1.02624
 C1888 C 0.43232 0.62467 1.04235
 C1889 C 0.42598 0.64329 1.04891
 H1890 H 0.41358 0.65035 1.04169
 O1891 O 0.57124 0.40158 1.01946
 O1892 O 0.59417 0.37849 1.01950
 C1893 C 0.57812 0.38550 1.02621
 C1894 C 0.56754 0.37515 1.04231
 C1895 C 0.57387 0.35652 1.04887
 H1896 H 0.58626 0.34946 1.04165
 O1897 O 0.42865 0.51918 1.09858
 O1898 O 0.40570 0.51920 1.12167
 C1899 C 0.42176 0.52591 1.11467
 C1900 C 0.43233 0.54198 1.12506
 C1901 C 0.42601 0.54853 1.14370
 H1902 H 0.41361 0.54133 1.15075
 O1903 O 0.57116 0.48058 1.09851
 O1904 O 0.59410 0.48057 1.12161
 C1905 C 0.57805 0.47386 1.11461
 C1906 C 0.56746 0.45781 1.12502
 C1907 C 0.57373 0.45134 1.14370
 H1908 H 0.58611 0.45859 1.15075
 O1909 O 0.51920 0.40164 1.07149
 O1910 O 0.51921 0.37856 1.09444
 C1911 C 0.52593 0.38556 1.07839
 C1912 C 0.54203 0.37518 1.06782
 C1913 C 0.54855 0.35655 1.07417
 H1914 H 0.54132 0.34952 1.08657
 O1915 O 0.48063 0.59816 1.07153
 O1916 O 0.48063 0.62123 1.09449
 C1917 C 0.47391 0.61425 1.07843
 C1918 C 0.45782 0.62464 1.06787
 C1919 C 0.45128 0.64326 1.07423
 H1920 H 0.45851 0.65028 1.08663
 O1921 O 0.40167 0.57119 1.01947
 O1922 O 0.37858 0.59413 1.01948
 C1923 C 0.38558 0.57808 1.02619
 C1924 C 0.37519 0.56750 1.04228
 C1925 C 0.35655 0.57383 1.04879
 H1926 H 0.34951 0.58621 1.04154
 O1927 O 0.59826 0.42858 1.01943
 O1928 O 0.62134 0.40563 1.01946
 C1929 C 0.61434 0.42169 1.02617
 C1930 C 0.62471 0.43227 1.04226
 C1931 C 0.64336 0.42596 1.04878
 H1932 H 0.65042 0.41359 1.04154
 O1933 O 0.48066 0.42864 1.09853
 O1934 O 0.48062 0.40568 1.12161
 C1935 C 0.47392 0.42174 1.11461
 C1936 C 0.45783 0.43232 1.12499
 C1937 C 0.45128 0.42600 1.14364
 H1938 H 0.45850 0.41360 1.15069
 O1939 O 0.51914 0.57110 1.09852
 O1940 O 0.51918 0.59403 1.12163
 C1941 C 0.52588 0.57797 1.11461
 C1942 C 0.54196 0.56738 1.12499
 C1943 C 0.54845 0.57366 1.14366
 H1944 H 0.54120 0.58603 1.15073
 O1945 O 0.40164 0.48072 1.07150
 O1946 O 0.37855 0.48070 1.09444
 C1947 C 0.38556 0.47400 1.07837
 C1948 C 0.37518 0.45794 1.06776
 C1949 C 0.35650 0.45147 1.07402
 H1950 H 0.34943 0.45872 1.08638
 O1951 O 0.59819 0.51904 1.07146
 O1952 O 0.62127 0.51906 1.09441
 C1953 C 0.61427 0.52576 1.07834
 C1954 C 0.62465 0.54181 1.06772
 C1955 C 0.64337 0.54822 1.07392
 H1956 H 0.65047 0.54093 1.08626
 O1957 O 0.42872 0.40174 1.01939
 O1958 O 0.40579 0.37867 1.01940
 C1959 C 0.42185 0.38565 1.02611
 C1960 C 0.43245 0.37524 1.04216
 C1961 C 0.42622 0.35653 1.04854
 H1962 H 0.41389 0.34948 1.04123
 O1963 O 0.57110 0.59812 1.01947
 O1964 O 0.59405 0.62118 1.01950
 C1965 C 0.57800 0.61419 1.02621
 C1966 C 0.56741 0.62459 1.04228
 C1967 C 0.57368 0.64325 1.04875
 H1968 H 0.58604 0.65031 1.04149
 Cu1969 Cu 0.58238 0.49981 1.08269
 Cu1970 Cu 0.61000 0.49982 1.11033
 Cu1971 Cu 0.41745 0.49995 1.08273
 Cu1972 Cu 0.38982 0.49995 1.11036
 Cu1973 Cu 0.49988 0.58233 1.08272
 Cu1974 Cu 0.49991 0.60994 1.11038
 Cu1975 Cu 0.49993 0.41744 1.08271
 Cu1976 Cu 0.49991 0.38981 1.11033
 C1977 C 0.55145 0.55137 1.11587
 H1978 H 0.54668 0.54661 1.10136
 C1979 C 0.56433 0.56423 1.15316
 C1980 C 0.44837 0.44837 1.11589
 H1981 H 0.45317 0.45316 1.10141
 C1982 C 0.43539 0.43543 1.15312
 C1983 C 0.55141 0.61548 1.05178
 H1984 H 0.54666 0.60097 1.04704
 C1985 C 0.56424 0.65276 1.06462
 C1986 C 0.44843 0.38434 1.05171
 H1987 H 0.45314 0.39888 1.04702
 C1988 C 0.43567 0.34698 1.06438
 C1989 C 0.61550 0.55134 1.05175
 H1990 H 0.60096 0.54664 1.04706
 C1991 C 0.65287 0.56405 1.06444
 C1992 C 0.38431 0.44845 1.05175
 H1993 H 0.39882 0.45319 1.04701
 C1994 C 0.34701 0.43562 1.06456
 C1995 C 0.44837 0.55143 1.11595
 H1996 H 0.45316 0.54662 1.10147
 C1997 C 0.43543 0.56443 1.15317
 C1998 C 0.55144 0.44833 1.11591
 H1999 H 0.54669 0.45308 1.10140
 C2000 C 0.56430 0.43549 1.15321
 C2001 C 0.61560 0.44829 1.05175
 H2002 H 0.60111 0.45306 1.04696
 C2003 C 0.65283 0.43537 1.06469
 C2004 C 0.38429 0.55148 1.05177
 H2005 H 0.39877 0.54669 1.04699
 C2006 C 0.34707 0.56444 1.06469
 C2007 C 0.44836 0.61557 1.05181
 H2008 H 0.45316 0.60110 1.04700
 C2009 C 0.43538 0.65275 1.06483
 C2010 C 0.55150 0.38426 1.05177
 H2011 H 0.54671 0.39873 1.04697
 C2012 C 0.56446 0.34706 1.06478
 O2013 O 0.57118 0.48057 0.90188
 O2014 O 0.59411 0.48058 0.87878
 C2015 C 0.57807 0.47386 0.88578
 C2016 C 0.56751 0.45777 0.87539
 C2017 C 0.57383 0.45126 0.85674
 H2018 H 0.58620 0.45850 0.84969
 O2019 O 0.42872 0.51920 0.90184
 O2020 O 0.40579 0.51921 0.87873
 C2021 C 0.42184 0.52591 0.88574
 C2022 C 0.43242 0.54197 0.87534
 C2023 C 0.42616 0.54842 0.85665
 H2024 H 0.41381 0.54115 0.84958
 O2025 O 0.48064 0.59820 0.92892
 O2026 O 0.48063 0.62128 0.90596
 C2027 C 0.47392 0.61429 0.92203
 C2028 C 0.45785 0.62468 0.93262
 C2029 C 0.45136 0.64335 0.92635
 H2030 H 0.45860 0.65040 0.91396
 O2031 O 0.51923 0.40158 0.92895
 O2032 O 0.51923 0.37851 0.90598
 C2033 C 0.52594 0.38549 0.92205
 C2034 C 0.54203 0.37510 0.93262
 C2035 C 0.54856 0.35648 0.92627
 H2036 H 0.54133 0.34945 0.91387
 O2037 O 0.59828 0.42854 0.98091
 O2038 O 0.62135 0.40558 0.98090
 C2039 C 0.61435 0.42163 0.97417
 C2040 C 0.62471 0.43219 0.95805
 C2041 C 0.64331 0.42582 0.95144
 H2042 H 0.65036 0.41341 0.95863
 O2043 O 0.40168 0.57121 0.98095
 O2044 O 0.37859 0.59415 0.98093
 C2045 C 0.38560 0.57810 0.97421
 C2046 C 0.37523 0.56753 0.95811
 C2047 C 0.35658 0.57383 0.95160
 H2048 H 0.34952 0.58620 0.95886
 O2049 O 0.51913 0.57113 0.90193
 O2050 O 0.51917 0.59406 0.87883
 C2051 C 0.52587 0.57800 0.88584
 C2052 C 0.54192 0.56739 0.87545
 C2053 C 0.54835 0.57361 0.85674
 H2054 H 0.54108 0.58596 0.84966
 O2055 O 0.48075 0.42867 0.90193
 O2056 O 0.48072 0.40574 0.87883
 C2057 C 0.47402 0.42180 0.88584
 C2058 C 0.45797 0.43241 0.87543
 C2059 C 0.45154 0.42615 0.85674
 H2060 H 0.45882 0.41380 0.84967
 O2061 O 0.59818 0.51904 0.92895
 O2062 O 0.62126 0.51908 0.90599
 C2063 C 0.61426 0.52577 0.92206
 C2064 C 0.62463 0.54184 0.93267
 C2065 C 0.64333 0.54827 0.92644
 H2066 H 0.65042 0.54099 0.91409
 O2067 O 0.40168 0.48075 0.92889
 O2068 O 0.37861 0.48073 0.90593
 C2069 C 0.38560 0.47404 0.92200
 C2070 C 0.37520 0.45799 0.93260
 C2071 C 0.35651 0.45157 0.92635
 H2072 H 0.34945 0.45885 0.91399
 O2073 O 0.57110 0.59813 0.98096
 O2074 O 0.59404 0.62120 0.98095
 C2075 C 0.57798 0.61422 0.97424
 C2076 C 0.56739 0.62463 0.95818
 C2077 C 0.57362 0.64332 0.95176
 H2078 H 0.58596 0.65039 0.95905
 O2079 O 0.42867 0.40171 0.98088
 O2080 O 0.40572 0.37865 0.98086
 C2081 C 0.42177 0.38563 0.97415
 C2082 C 0.43235 0.37523 0.95807
 C2083 C 0.42604 0.35658 0.95156
 H2084 H 0.41365 0.34955 0.95879
 O2085 O 0.42873 0.48071 0.90187
 O2086 O 0.40580 0.48069 0.87877
 C2087 C 0.42186 0.47398 0.88578
 C2088 C 0.43246 0.45791 0.87540
 C2089 C 0.42622 0.45144 0.85670
 H2090 H 0.41387 0.45870 0.84961
 O2091 O 0.57113 0.51906 0.90193
 O2092 O 0.59407 0.51910 0.87882
 C2093 C 0.57801 0.52580 0.88583
 C2094 C 0.56741 0.54186 0.87544
 C2095 C 0.57363 0.54828 0.85673
 H2096 H 0.58597 0.54100 0.84965
 O2097 O 0.48073 0.40160 0.92892
 O2098 O 0.48069 0.37853 0.90596
 C2099 C 0.47399 0.38553 0.92202
 C2100 C 0.45789 0.37518 0.93259
 C2101 C 0.45138 0.35654 0.92628
 H2102 H 0.45863 0.34947 0.91391
 O2103 O 0.51912 0.59819 0.92893
 O2104 O 0.51916 0.62127 0.90597
 C2105 C 0.52585 0.61427 0.92204
 C2106 C 0.54190 0.62465 0.93266
 C2107 C 0.54833 0.64335 0.92644
 H2108 H 0.54106 0.65044 0.91409
 O2109 O 0.40166 0.42876 0.98090
 O2110 O 0.37858 0.40584 0.98089
 C2111 C 0.38557 0.42189 0.97418
 C2112 C 0.37518 0.43250 0.95811
 C2113 C 0.35649 0.42627 0.95166
 H2114 H 0.34941 0.41392 0.95893
 O2115 O 0.59811 0.57108 0.98095
 O2116 O 0.62119 0.59401 0.98093
 C2117 C 0.61420 0.57795 0.97422
 C2118 C 0.62460 0.56735 0.95817
 C2119 C 0.64329 0.57358 0.95174
 H2120 H 0.65035 0.58594 0.95902
 O2121 O 0.51924 0.42858 0.90188
 O2122 O 0.51924 0.40565 0.87878
 C2123 C 0.52596 0.42169 0.88579
 C2124 C 0.54203 0.43226 0.87539
 C2125 C 0.54855 0.42595 0.85674
 H2126 H 0.54133 0.41356 0.84969
 O2127 O 0.48065 0.57120 0.90186
 O2128 O 0.48065 0.59413 0.87876
 C2129 C 0.47394 0.57808 0.88575
 C2130 C 0.45789 0.56749 0.87535
 C2131 C 0.45143 0.57374 0.85666
 H2132 H 0.45868 0.58611 0.84959
 O2133 O 0.40171 0.51923 0.92889
 O2134 O 0.37864 0.51926 0.90592
 C2135 C 0.38563 0.52597 0.92199
 C2136 C 0.37525 0.54205 0.93257
 C2137 C 0.35660 0.54855 0.92627
 H2138 H 0.34955 0.54132 0.91388
 O2139 O 0.59820 0.48055 0.92892
 O2140 O 0.62127 0.48056 0.90596
 C2141 C 0.61428 0.47382 0.92201
 C2142 C 0.62467 0.45772 0.93256
 C2143 C 0.64326 0.45116 0.92616
 H2144 H 0.65027 0.45838 0.91374
 O2145 O 0.57124 0.40154 0.98094
 O2146 O 0.59417 0.37845 0.98093
 C2147 C 0.57812 0.38545 0.97422
 C2148 C 0.56754 0.37508 0.95813
 C2149 C 0.57387 0.35645 0.95158
 H2150 H 0.58627 0.34941 0.95880
 O2151 O 0.42870 0.59822 0.98098
 O2152 O 0.40575 0.62130 0.98096
 C2153 C 0.42181 0.61430 0.97425
 C2154 C 0.43238 0.62469 0.95817
 C2155 C 0.42610 0.64335 0.95170
 H2156 H 0.41374 0.65041 0.95897
 Cu2157 Cu 0.58238 0.49980 0.91772
 Cu2158 Cu 0.60999 0.49984 0.89007
 Cu2159 Cu 0.41751 0.49997 0.91767
 Cu2160 Cu 0.38990 0.49997 0.89002
 Cu2161 Cu 0.58230 0.58230 1.00021
 Cu2162 Cu 0.60994 0.60990 1.00021
 Cu2163 Cu 0.58246 0.41736 1.00018
 Cu2164 Cu 0.61007 0.38973 1.00020
 Cu2165 Cu 0.41748 0.58242 1.00023
 Cu2166 Cu 0.38984 0.61004 1.00022
 Cu2167 Cu 0.41748 0.41754 1.00014
 Cu2168 Cu 0.38985 0.38993 1.00015
 Cu2169 Cu 0.49988 0.58238 0.91771
 Cu2170 Cu 0.49990 0.61000 0.89006
 Cu2171 Cu 0.49999 0.41740 0.91773
 Cu2172 Cu 0.49997 0.38979 0.89007
 C2173 C 0.55149 0.44830 0.88449
 H2174 H 0.54671 0.45308 0.89899
 C2175 C 0.56443 0.43536 0.84725
 C2176 C 0.44841 0.55148 0.88447
 H2177 H 0.45315 0.54674 0.89899
 C2178 C 0.43558 0.56429 0.84714
 C2179 C 0.44838 0.61557 0.94866
 H2180 H 0.45314 0.60107 0.95341
 C2181 C 0.43550 0.65285 0.93581
 C2182 C 0.55150 0.38418 0.94867
 H2183 H 0.54670 0.39865 0.95347
 C2184 C 0.56447 0.34699 0.93566
 C2185 C 0.61561 0.44826 0.94862
 H2186 H 0.60116 0.45308 0.95347
 C2187 C 0.65275 0.43522 0.93551
 C2188 C 0.38434 0.55152 0.94861
 H2189 H 0.39883 0.54674 0.95339
 C2190 C 0.34710 0.56443 0.93570
 C2191 C 0.55143 0.55139 0.88458
 H2192 H 0.54671 0.54668 0.89912
 C2193 C 0.56418 0.56413 0.84721
 C2194 C 0.44845 0.44840 0.88455
 H2195 H 0.45317 0.45314 0.89907
 C2196 C 0.43569 0.43559 0.84720
 C2197 C 0.61549 0.55136 0.94865
 H2198 H 0.60097 0.54664 0.95337
 C2199 C 0.65282 0.56412 0.93590
 C2200 C 0.38431 0.44848 0.94861
 H2201 H 0.39883 0.45320 0.95334
 C2202 C 0.34699 0.43573 0.93580
 C2203 C 0.55141 0.61551 0.94865
 H2204 H 0.54669 0.60099 0.95336
 C2205 C 0.56417 0.65285 0.93591
 C2206 C 0.44840 0.38430 0.94860
 H2207 H 0.45318 0.39878 0.95338
 C2208 C 0.43547 0.34708 0.93569
 N2209 N 1.09765 1.12157 1.26898
 C2210 C 1.10617 1.10574 1.26021
 N2211 N 1.12215 1.09728 1.26877
 N2212 N 1.12941 1.10445 1.28559
 C2213 C 1.12096 1.12036 1.29444
 N2214 N 1.10490 1.12875 1.28580
 C2215 C 1.09859 1.09826 1.24190
 C2216 C 1.09232 1.09208 1.22643
 C2217 C 1.08502 1.08486 1.20790
 N2218 N 1.09380 1.06928 1.19895
 N2219 N 1.08724 1.06280 1.18157
 C2220 C 1.07169 1.07166 1.17249
 N2221 N 1.06294 1.08726 1.18159
 N2222 N 1.06948 1.09375 1.19897
 N2223 N 1.12150 0.59649 0.76916
 C2224 C 1.10556 0.60497 0.76054
 N2225 N 1.09700 0.62079 0.76930
 N2226 N 1.10418 0.62793 0.78617
 C2227 C 1.12018 0.61950 0.79484
 N2228 N 1.12868 0.60362 0.78603
 C2229 C 1.09807 0.59753 0.74218
 C2230 C 1.09189 0.59141 0.72665
 C2231 C 1.08469 0.58425 0.70807
 N2232 N 1.06917 0.59315 0.69911
 N2233 N 1.06272 0.58673 0.68167
 C2234 C 1.07155 0.57118 0.67254
 N2235 N 1.08707 0.56231 0.68165
 N2236 N 1.09353 0.56873 0.69908
 N2237 N 0.59813 1.12202 0.76839
 C2238 C 0.60663 1.10616 0.75965
 N2239 N 0.62265 1.09774 0.76818
 N2240 N 0.62996 1.10497 0.78495
 C2241 C 0.62153 1.12091 0.79378
 N2242 N 0.60544 1.12926 0.78516
 C2243 C 0.59897 1.09859 0.74140
 C2244 C 0.59263 1.09235 0.72598
 C2245 C 0.58523 1.08505 0.70752
 N2246 N 0.59395 1.06943 0.69859
 N2247 N 0.58730 1.06288 0.68128
 C2248 C 0.57171 1.07170 0.67224
 N2249 N 0.56301 1.08734 0.68132
 N2250 N 0.56965 1.09390 0.69864
 N2251 N 0.59690 0.62112 1.26929
 C2252 C 0.60541 0.60524 1.26061
 N2253 N 0.62130 0.59673 1.26929
 N2254 N 0.62849 0.60391 1.28613
 C2255 C 0.62005 0.61987 1.29490
 N2256 N 0.60407 0.62831 1.28614
 C2257 C 0.59791 0.59775 1.24227
 C2258 C 0.59173 0.59157 1.22677
 C2259 C 0.58451 0.58437 1.20820
 N2260 N 0.59336 0.56884 1.19923
 N2261 N 0.58689 0.56238 1.18182
 C2262 C 0.57133 0.57121 1.17272
 N2263 N 0.56250 0.58676 1.18183
 N2264 N 0.56897 0.59323 1.19925
 N2265 N 0.90292 0.87850 1.26898
 C2266 C 0.89441 0.89441 1.26032
 N2267 N 0.87852 0.90290 1.26900
 N2268 N 0.87132 0.89570 1.28583
 C2269 C 0.87975 0.87972 1.29457
 N2270 N 0.89572 0.87129 1.28581
 C2271 C 0.90193 0.90194 1.24200
 C2272 C 0.90812 0.90815 1.22652
 C2273 C 0.91536 0.91540 1.20798
 N2274 N 0.90651 0.93094 1.19903
 N2275 N 0.91301 0.93745 1.18164
 C2276 C 0.92858 0.92864 1.17255
 N2277 N 0.93741 0.91308 1.18164
 N2278 N 0.93092 0.90658 1.19903
 N2279 N 0.87737 0.40233 0.76838
 C2280 C 0.89339 0.39390 0.75986
 N2281 N 0.90189 0.37805 0.76862
 N2282 N 0.89457 0.37082 0.78539
 C2283 C 0.87848 0.37918 0.79399
 N2284 N 0.87005 0.39511 0.78515
 C2285 C 0.90107 0.40146 0.74162
 C2286 C 0.90741 0.40768 0.72620
 C2287 C 0.91481 0.41496 0.70773
 N2288 N 0.93040 0.40610 0.69886
 N2289 N 0.93704 0.41265 0.68154
 C2290 C 0.92833 0.42827 0.67243
 N2291 N 0.91273 0.43710 0.68145
 N2292 N 0.90609 0.43057 0.69877
 N2293 N 0.40287 0.87902 0.76907
 C2294 C 0.39432 0.89484 0.76030
 N2295 N 0.37838 0.90333 0.76890
 N2296 N 0.37117 0.89620 0.78576
 C2297 C 0.37967 0.88032 0.79458
 N2298 N 0.39568 0.87188 0.78593
 C2299 C 0.40184 0.90228 0.74195
 C2300 C 0.40803 0.90841 0.72643
 C2301 C 0.41526 0.91557 0.70786
 N2302 N 0.40644 0.93112 0.69888
 N2303 N 0.41292 0.93754 0.68146
 C2304 C 0.42844 0.92866 0.67235
 N2305 N 0.43723 0.91309 0.68147
 N2306 N 0.43076 0.90666 0.69890
 N2307 N 0.40235 0.37847 1.26910
 C2308 C 0.39382 0.39430 1.26034
 N2309 N 0.37784 0.40276 1.26891
 N2310 N 0.37058 0.39558 1.28572
 C2311 C 0.37904 0.37966 1.29456
 N2312 N 0.39510 0.37128 1.28591
 C2313 C 0.40140 0.40180 1.24204
 C2314 C 0.40767 0.40798 1.22657
 C2315 C 0.41498 0.41520 1.20804
 N2316 N 0.40621 0.43079 1.19909
 N2317 N 0.41276 0.43727 1.18171
 C2318 C 0.42832 0.42841 1.17264
 N2319 N 0.43706 0.41280 1.18174
 N2320 N 0.43051 0.40631 1.19911
 N2321 N 0.90282 1.12143 0.73096
 C2322 C 0.89431 1.10556 0.73966
 N2323 N 0.87841 1.09707 0.73099
 N2324 N 0.87121 1.10425 0.71415
 C2325 C 0.87965 1.12020 0.70538
 N2326 N 0.89563 1.12862 0.71412
 C2327 C 0.90182 1.09806 0.75799
 C2328 C 0.90803 1.09188 0.77349
 C2329 C 0.91527 1.08467 0.79204
 N2330 N 0.90644 1.06914 0.80101
 N2331 N 0.91294 1.06267 0.81842
 C2332 C 0.92850 1.07150 0.82751
 N2333 N 0.93731 1.08705 0.81839
 N2334 N 0.93081 1.09352 0.80098
 N2335 N 0.87987 0.59577 0.23017
 C2336 C 0.89570 0.60432 0.23890
 N2337 N 0.90424 0.62018 0.23019
 N2338 N 0.89715 0.62728 0.21328
 C2339 C 0.88126 0.61878 0.20449
 N2340 N 0.87277 0.60287 0.21325
 C2341 C 0.90308 0.59693 0.25732
 C2342 C 0.90915 0.59085 0.27291
 C2343 C 0.91624 0.58375 0.29156
 N2344 N 0.93170 0.59266 0.30058
 N2345 N 0.93804 0.58630 0.31808
 C2346 C 0.92915 0.57082 0.32722
 N2347 N 0.91367 0.56193 0.31806
 N2348 N 0.90732 0.56828 0.30056
 N2349 N 0.40354 1.12027 0.23005
 C2350 C 0.39496 1.10450 0.23886
 N2351 N 0.37903 1.09601 0.23026
 N2352 N 0.37186 1.10309 0.21336
 C2353 C 0.38039 1.11892 0.20450
 N2354 N 0.39639 1.12736 0.21316
 C2355 C 0.40242 1.09714 0.25727
 C2356 C 0.40856 1.09108 0.27284
 C2357 C 0.41571 1.08401 0.29148
 N2358 N 0.40687 1.06850 0.30048
 N2359 N 0.41327 1.06217 0.31797
 C2360 C 0.42874 1.07110 0.32711
 N2361 N 0.43756 1.08663 0.31796
 N2362 N 0.43116 1.09297 0.30047
 N2363 N 0.37865 0.59651 0.73092
 C2364 C 0.39458 0.60500 0.73954
 N2365 N 0.40312 0.62082 0.73077
 N2366 N 0.39594 0.62795 0.71391
 C2367 C 0.37995 0.61951 0.70523
 N2368 N 0.37146 0.60363 0.71405
 C2369 C 0.40208 0.59757 0.75790
 C2370 C 0.40826 0.59145 0.77343
 C2371 C 0.41547 0.58429 0.79202
 N2372 N 0.43096 0.59320 0.80099
 N2373 N 0.43741 0.58678 0.81843
 C2374 C 0.42861 0.57123 0.82755
 N2375 N 0.41310 0.56235 0.81843
 N2376 N 0.40664 0.56876 0.80100
 N2377 N 1.12022 0.90416 0.73023
 C2378 C 1.10440 0.89558 0.73897
 N2379 N 1.09584 0.87975 0.73025
 N2380 N 1.10290 0.87267 0.71331
 C2381 C 1.11878 0.88119 0.70451
 N2382 N 1.12728 0.89709 0.71328
 C2383 C 1.09705 0.90295 0.75742
 C2384 C 1.09099 0.90901 0.77301
 C2385 C 1.08393 0.91609 0.79169
 N2386 N 1.06848 0.90717 0.80071
 N2387 N 1.06215 0.91352 0.81822
 C2388 C 1.07104 0.92902 0.82736
 N2389 N 1.08650 0.93792 0.81818
 N2390 N 1.09284 0.93157 0.80067
 N2391 N 1.12106 0.40385 0.23052
 C2392 C 1.10512 0.39535 0.23912
 N2393 N 1.09654 0.37958 0.23030
 N2394 N 1.10370 0.37249 0.21340
 C2395 C 1.11969 0.38094 0.20475
 N2396 N 1.12822 0.39677 0.21362
 C2397 C 1.09766 0.40271 0.25752
 C2398 C 1.09152 0.40877 0.27309
 C2399 C 1.08437 0.41585 0.29172
 N2400 N 1.06891 0.40689 0.30071
 N2401 N 1.06251 0.41325 0.31819
 C2402 C 1.07133 0.42877 0.32734
 N2403 N 1.08680 0.43770 0.31821
 N2404 N 1.09321 0.43135 0.30073
 N2405 N 0.59685 0.87871 0.23070
 C2406 C 0.60534 0.89461 0.23937
 N2407 N 0.62122 0.90312 0.23069
 N2408 N 0.62842 0.89593 0.21385
 C2409 C 0.62000 0.87995 0.20510
 N2410 N 0.60403 0.87152 0.21386
 C2411 C 0.59784 0.90211 0.25771
 C2412 C 0.59166 0.90829 0.27321
 C2413 C 0.58443 0.91551 0.29177
 N2414 N 0.59327 0.93105 0.30073
 N2415 N 0.58679 0.93751 0.31814
 C2416 C 0.57125 0.92867 0.32725
 N2417 N 0.56244 0.91311 0.31814
 N2418 N 0.56891 0.90664 0.30073
 N2419 N 0.62165 0.40265 0.73129
 C2420 C 0.60574 0.39416 0.73994
 N2421 N 0.59724 0.37829 0.73124
 N2422 N 0.60444 0.37110 0.71441
 C2423 C 0.62042 0.37951 0.70567
 N2424 N 0.62886 0.39547 0.71445
 C2425 C 0.59821 0.40167 0.75826
 C2426 C 0.59199 0.40787 0.77375
 C2427 C 0.58473 0.41511 0.79229
 N2428 N 0.56920 0.40626 0.80124
 N2429 N 0.56269 0.41276 0.81862
 C2430 C 0.57147 0.42833 0.82772
 N2431 N 0.58703 0.43716 0.81862
 N2432 N 0.59355 0.43066 0.80123
 N2433 N 1.26929 1.12111 1.09646
 C2434 C 1.26061 1.10524 1.10500
 N2435 N 1.26935 1.09668 1.12084
 N2436 N 1.28625 1.10379 1.12794
 C2437 C 1.29501 1.11974 1.11947
 N2438 N 1.28618 1.12823 1.10356
 C2439 C 1.24222 1.09782 1.09759
 C2440 C 1.22668 1.09168 1.09149
 C2441 C 1.20808 1.08452 1.08436
 N2442 N 1.19913 1.06901 1.09326
 N2443 N 1.18169 1.06258 1.08686
 C2444 C 1.17254 1.07142 1.07133
 N2445 N 1.18163 1.08695 1.06245
 N2446 N 1.19907 1.09338 1.06885
 N2447 N 1.26907 0.62135 0.59693
 C2448 C 1.26042 0.60547 0.60546
 N2449 N 1.26913 0.59696 0.62134
 N2450 N 1.28597 0.60414 0.62851
 C2451 C 1.29470 0.62010 0.62005
 N2452 N 1.28592 0.62854 0.60409
 C2453 C 1.24209 0.59796 0.59798
 C2454 C 1.22660 0.59177 0.59181
 C2455 C 1.20805 0.58455 0.58460
 N2456 N 1.19911 0.56901 0.59347
 N2457 N 1.18172 0.56253 0.58700
 C2458 C 1.17260 0.57134 0.57143
 N2459 N 1.18168 0.58689 0.56259
 N2460 N 1.19908 0.59338 0.56906
 N2461 N 0.76887 1.12104 0.59699
 C2462 C 0.76012 1.10521 0.60554
 N2463 N 0.76874 1.09672 0.62148
 N2464 N 0.78558 1.10385 0.62868
 C2465 C 0.79439 1.11973 0.62019
 N2466 N 0.78572 1.12818 0.60419
 C2467 C 0.74178 1.09776 0.59802
 C2468 C 0.72628 1.09162 0.59182
 C2469 C 0.70772 1.08445 0.58458
 N2470 N 0.69876 1.06890 0.59341
 N2471 N 0.68136 1.06247 0.58691
 C2472 C 0.67226 1.07133 0.57137
 N2473 N 0.68137 1.08689 0.56257
 N2474 N 0.69878 1.09334 0.56906
 N2475 N 0.76961 0.59594 1.12036
 C2476 C 0.76080 0.60453 1.10458
 N2477 N 0.76944 0.62041 1.09602
 N2478 N 0.78638 0.62751 1.10305
 C2479 C 0.79525 0.61897 1.11889
 N2480 N 0.78655 0.60303 1.12739
 C2481 C 0.74236 0.59714 1.09725
 C2482 C 0.72678 0.59104 1.09122
 C2483 C 0.70813 0.58393 1.08417
 N2484 N 0.69910 0.59281 1.06869
 N2485 N 0.68162 0.58643 1.06237
 C2486 C 0.67250 0.57095 1.07130
 N2487 N 0.68167 0.56209 1.08680
 N2488 N 0.69916 0.56846 1.09313
 N2489 N 1.26885 0.90290 0.87851
 C2490 C 1.26017 0.89440 0.89440
 N2491 N 1.26884 0.87851 0.90292
 N2492 N 1.28567 0.87131 0.89575
 C2493 C 1.29444 0.87974 0.87978
 N2494 N 1.28569 0.89571 0.87133
 C2495 C 1.24184 0.90191 0.90190
 C2496 C 1.22635 0.90811 0.90809
 C2497 C 1.20781 0.91535 0.91532
 N2498 N 1.19887 0.90652 0.93088
 N2499 N 1.18148 0.91302 0.93737
 C2500 C 1.17238 0.92858 0.92853
 N2501 N 1.18147 0.93738 0.91296
 N2502 N 1.19886 0.93089 0.90646
 N2503 N 1.26895 0.37838 0.40244
 C2504 C 1.26019 0.39421 0.39392
 N2505 N 1.26876 0.40269 0.37795
 N2506 N 1.28558 0.39552 0.37069
 C2507 C 1.29442 0.37960 0.37915
 N2508 N 1.28576 0.37120 0.39520
 C2509 C 1.24188 0.40170 0.40150
 C2510 C 1.22641 0.40787 0.40776
 C2511 C 1.20789 0.41509 0.41506
 N2512 N 1.19894 0.43068 0.40628
 N2513 N 1.18157 0.43716 0.41283
 C2514 C 1.17249 0.42830 0.42838
 N2515 N 1.18159 0.41269 0.43714
 N2516 N 1.19896 0.40620 0.43059
 N2517 N 0.76883 0.90328 0.37839
 C2518 C 0.76019 0.89478 0.39431
 N2519 N 0.76892 0.87893 0.40286
 N2520 N 0.78578 0.87178 0.39568
 C2521 C 0.79447 0.88022 0.37970
 N2522 N 0.78568 0.89613 0.37120
 C2523 C 0.74184 0.90224 0.40181
 C2524 C 0.72633 0.90838 0.40799
 C2525 C 0.70776 0.91556 0.41520
 N2526 N 0.69881 0.90668 0.43073
 N2527 N 0.68139 0.91312 0.43719
 C2528 C 0.67227 0.92867 0.42837
 N2529 N 0.68138 0.93753 0.41283
 N2530 N 0.69879 0.93109 0.40636
 N2531 N 0.76840 0.37795 0.90195
 C2532 C 0.75965 0.39381 0.89346
 N2533 N 0.76819 0.40225 0.87745
 N2534 N 0.78496 0.39504 0.87014
 C2535 C 0.79379 0.37911 0.87857
 N2536 N 0.78517 0.37074 0.89465
 C2537 C 0.74140 0.40135 0.90111
 C2538 C 0.72597 0.40756 0.90745
 C2539 C 0.70750 0.41484 0.91484
 N2540 N 0.69856 0.43045 0.90612
 N2541 N 0.68124 0.43698 0.91275
 C2542 C 0.67221 0.42815 0.92835
 N2543 N 0.68130 0.41251 0.93705
 N2544 N 0.69862 0.40597 0.93042
 N2545 N 0.73091 0.87913 1.09692
 C2546 C 0.73961 0.89498 1.10547
 N2547 N 0.73094 0.90349 1.12137
 N2548 N 0.71408 0.89634 1.12853
 C2549 C 0.70532 0.88043 1.12003
 N2550 N 0.71405 0.87198 1.10407
 C2551 C 0.75797 0.90244 1.09800
 C2552 C 0.77348 0.90858 1.09184
 C2553 C 0.79205 0.91576 1.08465
 N2554 N 0.80101 0.93128 1.09351
 N2555 N 0.81843 0.93772 1.08706
 C2556 C 0.82755 0.92886 1.07152
 N2557 N 0.81844 0.91332 1.06268
 N2558 N 0.80102 0.90688 1.06913
 N2559 N 0.73114 0.37882 0.59722
 C2560 C 0.73990 0.39464 0.60578
 N2561 N 0.73130 0.40311 0.62175
 N2562 N 0.71447 0.39596 0.62896
 C2563 C 0.70565 0.38009 0.62046
 N2564 N 0.71430 0.37167 0.60443
 C2565 C 0.75822 0.40209 0.59825
 C2566 C 0.77372 0.40824 0.59203
 C2567 C 0.79226 0.41542 0.58478
 N2568 N 0.80123 0.43097 0.59360
 N2569 N 0.81862 0.43741 0.58709
 C2570 C 0.82771 0.42854 0.57154
 N2571 N 0.81860 0.41298 0.56275
 N2572 N 0.80120 0.40653 0.56925
 N2573 N 0.23027 0.90412 0.62011
 C2574 C 0.23901 0.89554 0.60428
 N2575 N 0.23030 0.87970 0.59571
 N2576 N 0.21337 0.87263 0.60278
 C2577 C 0.20458 0.88116 0.61866
 N2578 N 0.21334 0.89705 0.62718
 C2579 C 0.25744 0.90290 0.59692
 C2580 C 0.27302 0.90896 0.59086
 C2581 C 0.29168 0.91604 0.58378
 N2582 N 0.30069 0.90712 0.56831
 N2583 N 0.31818 0.91347 0.56197
 C2584 C 0.32731 0.92896 0.57087
 N2585 N 0.31816 0.93785 0.58636
 N2586 N 0.30067 0.93151 0.59271
 N2587 N 0.23074 0.37890 1.09666
 C2588 C 0.23941 0.39476 1.10522
 N2589 N 0.23068 0.40330 1.12107
 N2590 N 0.21379 0.39617 1.12818
 C2591 C 0.20504 0.38023 1.11970
 N2592 N 0.21385 0.37176 1.10376
 C2593 C 0.25779 0.40221 1.09780
 C2594 C 0.27332 0.40836 1.09169
 C2595 C 0.29191 0.41554 1.08455
 N2596 N 0.30087 0.43104 1.09346
 N2597 N 0.31830 0.43747 1.08704
 C2598 C 0.32743 0.42865 1.07150
 N2599 N 0.31833 0.41313 1.06261
 N2600 N 0.30090 0.40669 1.06902
 N2601 N 0.73153 1.12207 0.90182
 C2602 C 0.74029 1.10622 0.89333
 N2603 N 0.73176 1.09779 0.87731
 N2604 N 0.71499 1.10500 0.86999
 C2605 C 0.70615 1.12093 0.87842
 N2606 N 0.71476 1.12930 0.89451
 C2607 C 0.75853 1.09868 0.90099
 C2608 C 0.77395 1.09246 0.90733
 C2609 C 0.79242 1.08518 0.91473
 N2610 N 0.80136 1.06956 0.90600
 N2611 N 0.81868 1.06302 0.91264
 C2612 C 0.82771 1.07186 0.92824
 N2613 N 0.81862 1.08749 0.93694
 N2614 N 0.80130 1.09403 0.93031
 N2615 N 0.73104 0.59637 0.37866
 C2616 C 0.73969 0.60488 0.39457
 N2617 N 0.73095 0.62072 0.40313
 N2618 N 0.71407 0.62785 0.39597
 C2619 C 0.70537 0.61939 0.38000
 N2620 N 0.71416 0.60350 0.37150
 C2621 C 0.75806 0.59745 0.40205
 C2622 C 0.77358 0.59133 0.40821
 C2623 C 0.79217 0.58417 0.41540
 N2624 N 0.80113 0.59306 0.43092
 N2625 N 0.81856 0.58664 0.43736
 C2626 C 0.82769 0.57111 0.42853
 N2627 N 0.81859 0.56224 0.41299
 N2628 N 0.80115 0.56866 0.40654
 N2629 N 0.23124 1.09720 0.37778
 C2630 C 0.23983 1.10564 0.39376
 N2631 N 0.23108 1.12148 0.40230
 N2632 N 0.21426 1.12867 0.39507
 C2633 C 0.20560 1.12029 0.37901
 N2634 N 0.21443 1.10438 0.37054
 C2635 C 0.25813 1.09814 0.40132
 C2636 C 0.27360 1.09196 0.40757
 C2637 C 0.29213 1.08474 0.41487
 N2638 N 0.30104 1.09360 0.43043
 N2639 N 0.31841 1.08711 0.43697
 C2640 C 0.32753 1.07154 0.42819
 N2641 N 0.31847 1.06270 0.41261
 N2642 N 0.30109 1.06918 0.40606
 N2643 N 0.23102 0.59703 0.87876
 C2644 C 0.23971 0.60555 0.89464
 N2645 N 0.23104 0.62144 0.90315
 N2646 N 0.21419 0.62862 0.89599
 C2647 C 0.20541 0.62017 0.88003
 N2648 N 0.21417 0.60420 0.87159
 C2649 C 0.25805 0.59806 0.90212
 C2650 C 0.27355 0.59187 0.90830
 C2651 C 0.29210 0.58465 0.91551
 N2652 N 0.30105 0.59348 0.93107
 N2653 N 0.31845 0.58699 0.93754
 C2654 C 0.32756 0.57144 0.92869
 N2655 N 0.31846 0.56264 0.91312
 N2656 N 0.30106 0.56912 0.90664
 N2657 N 1.12112 1.26937 1.09608
 C2658 C 1.10517 1.26080 1.10458
 N2659 N 1.09658 1.26964 1.12035
 N2660 N 1.10374 1.28652 1.12743
 C2661 C 1.11975 1.29515 1.11898
 N2662 N 1.12829 1.28626 1.10315
 C2663 C 1.09769 1.24242 1.09722
 C2664 C 1.09153 1.22687 1.09116
 C2665 C 1.08434 1.20826 1.08409
 N2666 N 1.06887 1.19932 1.09306
 N2667 N 1.06243 1.18186 1.08671
 C2668 C 1.07124 1.17269 1.07117
 N2669 N 1.08672 1.18179 1.06223
 N2670 N 1.09316 1.19924 1.06857
 N2671 N 1.12031 0.76958 0.59581
 C2672 C 1.10449 0.76086 0.60439
 N2673 N 1.09592 0.76960 0.62022
 N2674 N 1.10296 0.78655 0.62727
 C2675 C 1.11884 0.79532 0.61874
 N2676 N 1.12737 0.78652 0.60285
 C2677 C 1.09715 0.74241 0.59705
 C2678 C 1.09110 0.72682 0.59100
 C2679 C 1.08404 0.70815 0.58394
 N2680 N 1.06859 0.69915 0.59288
 N2681 N 1.06226 0.68165 0.58654
 C2682 C 1.07116 0.67250 0.57105
 N2683 N 1.08663 0.68165 0.56214
 N2684 N 1.09296 0.69915 0.56847
 N2685 N 0.59672 1.26880 0.62161
 C2686 C 0.60520 1.26020 0.60565
 N2687 N 0.62104 1.26893 0.59712
 N2688 N 0.62821 1.28575 0.60434
 C2689 C 0.61979 1.29441 0.62036
 N2690 N 0.60389 1.28562 0.62884
 C2691 C 0.59772 1.24188 0.59811
 C2692 C 0.59155 1.22640 0.59189
 C2693 C 0.58435 1.20786 0.58463
 N2694 N 0.59323 1.19893 0.56909
 N2695 N 0.58677 1.18153 0.56259
 C2696 C 0.57121 1.17243 0.57139
 N2697 N 0.56236 1.18151 0.58695
 N2698 N 0.56881 1.19890 0.59346
 N2699 N 0.62090 0.76900 1.09695
 C2700 C 0.60505 0.76029 1.10550
 N2701 N 0.59654 0.76896 1.12141
 N2702 N 0.60367 0.78583 1.12856
 C2703 C 0.61957 0.79459 1.12006
 N2704 N 0.62803 0.78587 1.10410
 C2705 C 0.59761 0.74193 1.09804
 C2706 C 0.59147 0.72641 1.09189
 C2707 C 0.58430 0.70783 1.08471
 N2708 N 0.56878 0.69887 1.09358
 N2709 N 0.56235 0.68145 1.08713
 C2710 C 0.57120 0.67233 1.07159
 N2711 N 0.58674 0.68143 1.06275
 N2712 N 0.59317 0.69886 1.06918
 N2713 N 0.90242 1.26865 0.87812
 C2714 C 0.89395 1.26000 0.89405
 N2715 N 0.87800 1.26862 0.90252
 N2716 N 0.87072 1.28539 0.89526
 C2717 C 0.87914 1.29410 0.87927
 N2718 N 0.89515 1.28542 0.87086
 C2719 C 0.90154 1.24174 0.90163
 C2720 C 0.90779 1.22630 0.90788
 C2721 C 0.91509 1.20781 0.91517
 N2722 N 0.90630 1.19889 0.93076
 N2723 N 0.91284 1.18154 0.93729
 C2724 C 0.92840 1.17244 0.92847
 N2725 N 0.93718 1.18151 0.91287
 N2726 N 0.93064 1.19886 0.90633
 N2727 N 0.90332 0.76876 0.37839
 C2728 C 0.89483 0.76013 0.39432
 N2729 N 0.87898 0.76887 0.40286
 N2730 N 0.87183 0.78572 0.39567
 C2731 C 0.88027 0.79440 0.37969
 N2732 N 0.89618 0.78561 0.37120
 C2733 C 0.90229 0.74178 0.40183
 C2734 C 0.90843 0.72628 0.40802
 C2735 C 0.91562 0.70772 0.41525
 N2736 N 0.90673 0.69878 0.43078
 N2737 N 0.91318 0.68137 0.43727
 C2738 C 0.92874 0.67225 0.42845
 N2739 N 0.93760 0.68134 0.41291
 N2740 N 0.93115 0.69875 0.40642
 N2741 N 0.40287 1.26900 0.37854
 C2742 C 0.39437 1.26032 0.39444
 N2743 N 0.37846 1.26898 0.40294
 N2744 N 0.37124 1.28580 0.39574
 C2745 C 0.37969 1.29453 0.37979
 N2746 N 0.39566 1.28582 0.37134
 C2747 C 0.40188 1.24200 0.40194
 C2748 C 0.40807 1.22651 0.40812
 C2749 C 0.41529 1.20795 0.41533
 N2750 N 0.40644 1.19900 0.43087
 N2751 N 0.41292 1.18159 0.43733
 C2752 C 0.42846 1.17248 0.42848
 N2753 N 0.43728 1.18159 0.41292
 N2754 N 0.43081 1.19899 0.40645
 N2755 N 0.37837 0.76889 0.90346
 C2756 C 0.39433 0.76029 0.89498
 N2757 N 0.40288 0.76905 0.87915
 N2758 N 0.39568 0.78589 0.87200
 C2759 C 0.37967 0.79455 0.88043
 N2760 N 0.37117 0.78573 0.89632
 C2761 C 0.40185 0.74195 0.90243
 C2762 C 0.40805 0.72644 0.90857
 C2763 C 0.41529 0.70788 0.91574
 N2764 N 0.43079 0.69892 0.90682
 N2765 N 0.43728 0.68151 0.91326
 C2766 C 0.42849 0.67240 0.92884
 N2767 N 0.41297 0.68151 0.93773
 N2768 N 0.40648 0.69892 0.93130
 N2769 N 1.12146 0.73105 0.90358
 C2770 C 1.10551 0.73964 0.89508
 N2771 N 1.09696 0.73086 0.87927
 N2772 N 1.10416 0.71400 0.87215
 C2773 C 1.12016 0.70535 0.88060
 N2774 N 1.12866 0.71419 0.89647
 C2775 C 1.09800 0.75800 0.90250
 C2776 C 1.09181 0.77352 0.90861
 C2777 C 1.08458 0.79210 0.91576
 N2778 N 1.06909 0.80105 0.90683
 N2779 N 1.06262 0.81848 0.91325
 C2780 C 1.07141 0.82760 0.92881
 N2781 N 1.08693 0.81850 0.93772
 N2782 N 1.09340 0.80107 0.93131
 N2783 N 1.12160 0.23091 0.40297
 C2784 C 1.10568 0.23958 0.39449
 N2785 N 1.09718 0.23093 0.37858
 N2786 N 1.10438 0.21412 0.37135
 C2787 C 1.12035 0.20539 0.37978
 N2788 N 1.12880 0.21410 0.39575
 C2789 C 1.09817 0.25789 0.40202
 C2790 C 1.09198 0.27337 0.40822
 C2791 C 1.08475 0.29192 0.41545
 N2792 N 1.06923 0.30088 0.40659
 N2793 N 1.06275 0.31828 0.41307
 C2794 C 1.07157 0.32737 0.42864
 N2795 N 1.08711 0.31826 0.43748
 N2796 N 1.09359 0.30086 0.43101
 N2797 N 0.59649 0.73084 0.37864
 C2798 C 0.60500 0.73950 0.39455
 N2799 N 0.62084 0.73077 0.40310
 N2800 N 0.62798 0.71390 0.39595
 C2801 C 0.61952 0.70518 0.37999
 N2802 N 0.60362 0.71397 0.37148
 C2803 C 0.59756 0.75786 0.40201
 C2804 C 0.59142 0.77339 0.40816
 C2805 C 0.58426 0.79198 0.41534
 N2806 N 0.59314 0.80095 0.43085
 N2807 N 0.58671 0.81838 0.43728
 C2808 C 0.57118 0.82750 0.42844
 N2809 N 0.56232 0.81839 0.41290
 N2810 N 0.56874 0.80095 0.40646
 N2811 N 0.59755 0.23140 0.87802
 C2812 C 0.60601 0.24002 0.89398
 N2813 N 0.62195 0.23138 0.90243
 N2814 N 0.62923 0.21462 0.89515
 C2815 C 0.62082 0.20595 0.87914
 N2816 N 0.60482 0.21464 0.87073
 C2817 C 0.59842 0.25826 0.90159
 C2818 C 0.59216 0.27369 0.90787
 C2819 C 0.58486 0.29217 0.91520
 N2820 N 0.59368 0.30108 0.93078
 N2821 N 0.58713 0.31842 0.93735
 C2822 C 0.57154 0.32750 0.92857
 N2823 N 0.56274 0.31844 0.91297
 N2824 N 0.56928 0.30110 0.90640
 N2825 N 0.90401 0.73049 1.12038
 C2826 C 0.89541 0.73928 1.10459
 N2827 N 0.87954 0.73062 1.09603
 N2828 N 0.87246 0.71368 1.10306
 C2829 C 0.88101 0.70483 1.11891
 N2830 N 0.89693 0.71355 1.12741
 C2831 C 0.90279 0.75772 1.09725
 C2832 C 0.90888 0.77330 1.09121
 C2833 C 0.91598 0.79195 1.08415
 N2834 N 0.90708 0.80097 1.06867
 N2835 N 0.91346 0.81845 1.06233
 C2836 C 0.92895 0.82757 1.07124
 N2837 N 0.93782 0.81840 1.08674
 N2838 N 0.93146 0.80092 1.09308
 N2839 N 0.87903 0.23096 0.59703
 C2840 C 0.89488 0.23966 0.60559
 N2841 N 0.90336 0.23101 0.62152
 N2842 N 0.89619 0.21417 0.62870
 C2843 C 0.88028 0.20541 0.62020
 N2844 N 0.87186 0.21412 0.60421
 C2845 C 0.90237 0.25799 0.59810
 C2846 C 0.90853 0.27349 0.59192
 C2847 C 0.91572 0.29205 0.58470
 N2848 N 0.93125 0.30101 0.59356
 N2849 N 0.93770 0.31841 0.58709
 C2850 C 0.92885 0.32751 0.57153
 N2851 N 0.91331 0.31841 0.56270
 N2852 N 0.90686 0.30100 0.56917
 N2853 N 0.37851 0.73099 0.59640
 C2854 C 0.39445 0.73959 0.60488
 N2855 N 0.40302 0.73082 0.62070
 N2856 N 0.39584 0.71397 0.62784
 C2857 C 0.37985 0.70531 0.61941
 N2858 N 0.37133 0.71413 0.60353
 C2859 C 0.40194 0.75794 0.59744
 C2860 C 0.40813 0.77345 0.59132
 C2861 C 0.41534 0.79202 0.58416
 N2862 N 0.43084 0.80097 0.59309
 N2863 N 0.43730 0.81839 0.58666
 C2864 C 0.42850 0.82751 0.57109
 N2865 N 0.41299 0.81842 0.56220
 N2866 N 0.40652 0.80100 0.56861
 N2867 N 0.40347 0.23031 1.12024
 C2868 C 0.39487 0.23917 1.10449
 N2869 N 0.37892 0.23062 1.09598
 N2870 N 0.37176 0.21371 1.10302
 C2871 C 0.38031 0.20480 1.11883
 N2872 N 0.39632 0.21341 1.12729
 C2873 C 0.40234 0.25758 1.09716
 C2874 C 0.40849 0.27314 1.09114
 C2875 C 0.41566 0.29177 1.08409
 N2876 N 0.40683 0.30080 1.06858
 N2877 N 0.41326 0.31827 1.06227
 C2878 C 0.42873 0.32736 1.07123
 N2879 N 0.43754 0.31818 1.08676
 N2880 N 0.43112 0.30071 1.09308
 N2881 N 1.12182 1.09798 0.73140
 C2882 C 1.10597 1.10650 0.74014
 N2883 N 1.09754 1.12249 0.73158
 N2884 N 1.10475 1.12977 0.71479
 C2885 C 1.12068 1.12133 0.70597
 N2886 N 1.12905 1.10526 0.71461
 C2887 C 1.09843 1.09888 0.75841
 C2888 C 1.09221 1.09259 0.77385
 C2889 C 1.08493 1.08524 0.79234
 N2890 N 1.06932 1.09399 0.80127
 N2891 N 1.06279 1.08739 0.81861
 C2892 C 1.07162 1.07182 0.82768
 N2893 N 1.08725 1.06309 0.81860
 N2894 N 1.09379 1.06968 0.80126
 N2895 N 1.09764 0.62252 0.23161
 C2896 C 1.10607 0.60649 0.24012
 N2897 N 1.12191 0.59800 0.23134
 N2898 N 1.12912 0.60532 0.21457
 C2899 C 1.12076 0.62142 0.20598
 N2900 N 1.10484 0.62985 0.21484
 C2901 C 1.09855 0.59883 0.25838
 C2902 C 1.09235 0.59249 0.27381
 C2903 C 1.08509 0.58510 0.29229
 N2904 N 1.09398 0.56955 0.30118
 N2905 N 1.08746 0.56292 0.31852
 C2906 C 1.07182 0.57161 0.32761
 N2907 N 1.06295 0.58718 0.31856
 N2908 N 1.06947 0.59381 0.30123
 N2909 N 0.59725 1.12225 0.23120
 C2910 C 0.60570 1.10628 0.23979
 N2911 N 0.62158 1.09778 0.23108
 N2912 N 0.62880 1.10504 0.21429
 C2913 C 0.62042 1.12109 0.20562
 N2914 N 0.60447 1.12952 0.21442
 C2915 C 0.59816 1.09868 0.25807
 C2916 C 0.59195 1.09241 0.27352
 C2917 C 0.58469 1.08509 0.29202
 N2918 N 0.59353 1.06952 0.30094
 N2919 N 0.58701 1.06296 0.31829
 C2920 C 0.57142 1.07172 0.32739
 N2921 N 0.56260 1.08731 0.31833
 N2922 N 0.56911 1.09388 0.30098
 N2923 N 0.62054 0.59608 0.73065
 C2924 C 0.60469 0.60464 0.73937
 N2925 N 0.59613 0.62048 0.73065
 N2926 N 0.60323 0.62758 0.71373
 C2927 C 0.61913 0.61908 0.70496
 N2928 N 0.62764 0.60317 0.71373
 C2929 C 0.59730 0.59724 0.75778
 C2930 C 0.59120 0.59114 0.77335
 C2931 C 0.58409 0.58403 0.79199
 N2932 N 0.56860 0.59294 0.80098
 N2933 N 0.56222 0.58655 0.81846
 C2934 C 0.57109 0.57104 0.82759
 N2935 N 0.58659 0.56216 0.81845
 N2936 N 0.59298 0.56853 0.80098
 N2937 N 0.90382 0.87947 0.73057
 C2938 C 0.89526 0.89532 0.73928
 N2939 N 0.87941 0.90387 0.73055
 N2940 N 0.87232 0.89677 0.71363
 C2941 C 0.88083 0.88087 0.70487
 N2942 N 0.89673 0.87237 0.71365
 C2943 C 0.90265 0.90272 0.75770
 C2944 C 0.90874 0.90882 0.77326
 C2945 C 0.91585 0.91594 0.79190
 N2946 N 0.90694 0.93142 0.80089
 N2947 N 0.91332 0.93780 0.81837
 C2948 C 0.92883 0.92893 0.82752
 N2949 N 0.93771 0.91343 0.81838
 N2950 N 0.93134 0.90704 0.80090
 N2951 N 0.90270 0.37755 0.23137
 C2952 C 0.89426 0.39352 0.23997
 N2953 N 0.87838 0.40203 0.23126
 N2954 N 0.87114 0.39477 0.21448
 C2955 C 0.87951 0.37872 0.20580
 N2956 N 0.89547 0.37028 0.21458
 C2957 C 0.90181 0.40111 0.25825
 C2958 C 0.90804 0.40738 0.27370
 C2959 C 0.91531 0.41471 0.29220
 N2960 N 0.90646 0.43028 0.30111
 N2961 N 0.91299 0.43685 0.31846
 C2962 C 0.92859 0.42809 0.32756
 N2963 N 0.93741 0.41250 0.31850
 N2964 N 0.93089 0.40593 0.30114
 N2965 N 0.40263 0.87776 0.23118
 C2966 C 0.39419 0.89377 0.23970
 N2967 N 0.37836 0.90228 0.23093
 N2968 N 0.37116 0.89499 0.21414
 C2969 C 0.37952 0.87890 0.20553
 N2970 N 0.39544 0.87046 0.21438
 C2971 C 0.40170 0.90139 0.25799
 C2972 C 0.40789 0.90769 0.27344
 C2973 C 0.41513 0.91503 0.29195
 N2974 N 0.40624 0.93057 0.30086
 N2975 N 0.41274 0.93714 0.31823
 C2976 C 0.42835 0.92840 0.32733
 N2977 N 0.43721 0.91285 0.31826
 N2978 N 0.43072 0.90627 0.30090
 N2979 N 0.37950 0.40318 0.73067
 C2980 C 0.39526 0.39460 0.73950
 N2981 N 0.40375 0.37864 0.73092
 N2982 N 0.39667 0.37146 0.71403
 C2983 C 0.38084 0.37999 0.70515
 N2984 N 0.37241 0.39601 0.71378
 C2985 C 0.40264 0.40209 0.75789
 C2986 C 0.40872 0.40827 0.77343
 C2987 C 0.41581 0.41548 0.79204
 N2988 N 0.43134 0.40665 0.80105
 N2989 N 0.43770 0.41311 0.81850
 C2990 C 0.42879 0.42862 0.82760
 N2991 N 0.41325 0.43742 0.81845
 N2992 N 0.40687 0.43096 0.80099
 N2993 N 1.12108 0.90325 1.26938
 C2994 C 1.10524 0.89473 1.26065
 N2995 N 1.09673 0.87882 1.26929
 N2996 N 1.10387 0.87163 1.28615
 C2997 C 1.11980 0.88009 1.29497
 N2998 N 1.12823 0.89607 1.28625
 C2999 C 1.09780 0.90223 1.24229
 C3000 C 1.09166 0.90841 1.22677
 C3001 C 1.08449 0.91563 1.20818
 N3002 N 1.06895 0.90681 1.19921
 N3003 N 1.06253 0.91328 1.18178
 C3004 C 1.07140 0.92879 1.17267
 N3005 N 1.08696 0.93759 1.18179
 N3006 N 1.09339 0.93113 1.19922
 N3007 N 1.12129 0.40323 0.76937
 C3008 C 1.10543 0.39471 0.76065
 N3009 N 1.09690 0.37884 0.76932
 N3010 N 1.10403 0.37168 0.78620
 C3011 C 1.11997 0.38012 0.79500
 N3012 N 1.12842 0.39607 0.78625
 C3013 C 1.09799 0.40218 0.74227
 C3014 C 1.09185 0.40834 0.72674
 C3015 C 1.08467 0.41552 0.70815
 N3016 N 1.06913 0.40669 0.69920
 N3017 N 1.06269 0.41313 0.68177
 C3018 C 1.07156 0.42863 0.67262
 N3019 N 1.08713 0.43744 0.68172
 N3020 N 1.09357 0.43100 0.69916
 N3021 N 0.59602 0.87940 0.76947
 C3022 C 0.60456 0.89525 0.76075
 N3023 N 0.62039 0.90381 0.76946
 N3024 N 0.62750 0.89673 0.78638
 C3025 C 0.61902 0.88083 0.79516
 N3026 N 0.60312 0.87232 0.78640
 C3027 C 0.59715 0.90263 0.74233
 C3028 C 0.59105 0.90872 0.72676
 C3029 C 0.58394 0.91583 0.70811
 N3030 N 0.59283 0.93132 0.69912
 N3031 N 0.58645 0.93769 0.68164
 C3032 C 0.57096 0.92881 0.67249
 N3033 N 0.56210 0.91331 0.68163
 N3034 N 0.56847 0.90692 0.69911
 N3035 N 0.62124 0.40312 1.26941
 C3036 C 0.60534 0.39462 1.26075
 N3037 N 0.59681 0.37877 1.26947
 N3038 N 0.60399 0.37161 1.28633
 C3039 C 0.61997 0.38004 1.29507
 N3040 N 0.62842 0.39597 1.28627
 C3041 C 0.59785 0.40208 1.24239
 C3042 C 0.59166 0.40823 1.22688
 C3043 C 0.58445 0.41541 1.20830
 N3044 N 0.56893 0.40654 1.19934
 N3045 N 0.56246 0.41299 1.18192
 C3046 C 0.57129 0.42852 1.17279
 N3047 N 0.58683 0.43736 1.18189
 N3048 N 0.59330 0.43093 1.19931
 N3049 N 0.88002 1.09563 1.27010
 C3050 C 0.89587 1.10420 1.26141
 N3051 N 0.90445 1.11999 1.27019
 N3052 N 0.89739 1.12703 1.28714
 C3053 C 0.88148 1.11852 1.29589
 N3054 N 0.87295 1.10267 1.28706
 C3055 C 0.90322 1.09689 1.24294
 C3056 C 0.90927 1.09087 1.22732
 C3057 C 0.91632 1.08385 1.20863
 N3058 N 0.93176 1.09280 1.19961
 N3059 N 0.93806 1.08650 1.18207
 C3060 C 0.92916 1.07104 1.17290
 N3061 N 0.91370 1.06212 1.18206
 N3062 N 0.90739 1.06841 1.19960
 N3063 N 0.87952 0.59612 0.76959
 C3064 C 0.89537 0.60467 0.76088
 N3065 N 0.90391 0.62051 0.76961
 N3066 N 0.89680 0.62762 0.78652
 C3067 C 0.88089 0.61912 0.79528
 N3068 N 0.87240 0.60321 0.78650
 C3069 C 0.90279 0.59727 0.74247
 C3070 C 0.90889 0.59118 0.72691
 C3071 C 0.91601 0.58406 0.70827
 N3072 N 0.93150 0.59295 0.69928
 N3073 N 0.93788 0.58656 0.68180
 C3074 C 0.92901 0.57106 0.67266
 N3075 N 0.91351 0.56219 0.68181
 N3076 N 0.90712 0.56857 0.69928
 N3077 N 0.37915 1.09692 0.76928
 C3078 C 0.39494 1.10547 0.76047
 N3079 N 0.40342 1.12143 0.76904
 N3080 N 0.39631 1.12865 0.78591
 C3081 C 0.38046 1.12014 0.79477
 N3082 N 0.37204 1.10412 0.78615
 C3083 C 0.40234 1.09794 0.74211
 C3084 C 0.40844 1.09174 0.72658
 C3085 C 0.41557 1.08451 0.70799
 N3086 N 0.43112 1.09330 0.69901
 N3087 N 0.43752 1.08682 0.68158
 C3088 C 0.42860 1.07133 0.67247
 N3089 N 0.41304 1.06256 0.68159
 N3090 N 0.40663 1.06903 0.69903
 N3091 N 0.37837 0.59769 1.26906
 C3092 C 0.39421 0.60620 1.26029
 N3093 N 0.40263 0.62220 1.26882
 N3094 N 0.39543 0.62951 1.28561
 C3095 C 0.37951 0.62107 1.29445
 N3096 N 0.37116 0.60499 1.28584
 C3097 C 0.40173 0.59856 1.24201
 C3098 C 0.40792 0.59227 1.22656
 C3099 C 0.41517 0.58492 1.20806
 N3100 N 0.43076 0.59366 1.19911
 N3101 N 0.43725 0.58708 1.18175
 C3102 C 0.42840 0.57152 1.17268
 N3103 N 0.41279 0.56280 1.18178
 N3104 N 0.40629 0.56938 1.19915
 N3105 N 1.12062 1.26936 0.90337
 C3106 C 1.10482 1.26060 0.89478
 N3107 N 1.09634 1.26923 0.87884
 N3108 N 1.10345 1.28610 0.87168
 C3109 C 1.11931 1.29492 0.88022
 N3110 N 1.12774 1.28624 0.89622
 C3111 C 1.09741 1.24223 0.90225
 C3112 C 1.09131 1.22670 0.90840
 C3113 C 1.08418 1.20811 0.91559
 N3114 N 1.06866 1.19913 0.90674
 N3115 N 1.06227 1.18170 0.91318
 C3116 C 1.07116 1.17258 0.92870
 N3117 N 1.08670 1.18170 0.93752
 N3118 N 1.09310 1.19914 0.93109
 N3119 N 1.12071 0.76917 0.40321
 C3120 C 1.10492 0.76039 0.39463
 N3121 N 1.09640 0.76902 0.37870
 N3122 N 1.10349 0.78590 0.37154
 C3123 C 1.11935 0.79473 0.38007
 N3124 N 1.12781 0.78605 0.39605
 C3125 C 1.09753 0.74201 0.40210
 C3126 C 1.09144 0.72648 0.40826
 C3127 C 1.08433 0.70788 0.41546
 N3128 N 1.06881 0.69889 0.40662
 N3129 N 1.06243 0.68146 0.41307
 C3130 C 1.07134 0.67235 0.42859
 N3131 N 1.08687 0.68149 0.43741
 N3132 N 1.09326 0.69893 0.43096
 N3133 N 0.62069 1.26925 0.40335
 C3134 C 0.60485 1.26054 0.39479
 N3135 N 0.59634 1.26921 0.37888
 N3136 N 0.60348 1.28608 0.37173
 C3137 C 0.61938 1.29484 0.38024
 N3138 N 0.62783 1.28611 0.39620
 C3139 C 0.59740 1.24218 0.40224
 C3140 C 0.59127 1.22665 0.40837
 C3141 C 0.58412 1.20806 0.41554
 N3142 N 0.56862 1.19909 0.40665
 N3143 N 0.56221 1.18166 0.41307
 C3144 C 0.57107 1.17253 0.42860
 N3145 N 0.58659 1.18164 0.43746
 N3146 N 0.59300 1.19908 0.43105
 N3147 N 0.59614 0.76935 0.87961
 C3148 C 0.60471 0.76063 0.89545
 N3149 N 0.62056 0.76933 0.90400
 N3150 N 0.62765 0.78624 0.89691
 C3151 C 0.61913 0.79502 0.88101
 N3152 N 0.60322 0.78626 0.87251
 C3153 C 0.59731 0.74222 0.90285
 C3154 C 0.59122 0.72666 0.90893
 C3155 C 0.58409 0.70804 0.91604
 N3156 N 0.59298 0.69904 0.93154
 N3157 N 0.58659 0.68157 0.93791
 C3158 C 0.57109 0.67246 0.92901
 N3159 N 0.56222 0.68161 0.91350
 N3160 N 0.56861 0.69907 0.90712
 N3161 N 0.90259 1.26857 1.12233
 C3162 C 0.89412 1.25998 1.10636
 N3163 N 0.87825 1.26870 1.09787
 N3164 N 0.87103 1.28549 1.10514
 C3165 C 0.87943 1.29415 1.12118
 N3166 N 0.89538 1.28536 1.12961
 C3167 C 0.90166 1.24171 1.09876
 C3168 C 0.90787 1.22626 1.09248
 C3169 C 0.91514 1.20777 1.08516
 N3170 N 0.90629 1.19886 1.06959
 N3171 N 0.91281 1.18151 1.06302
 C3172 C 0.92841 1.17242 1.07178
 N3173 N 0.93724 1.18147 1.08737
 N3174 N 0.93072 1.19882 1.09394
 N3175 N 0.90385 0.76931 0.62052
 C3176 C 0.89529 0.76058 0.60467
 N3177 N 0.87944 0.76929 0.59611
 N3178 N 0.87234 0.78620 0.60318
 C3179 C 0.88085 0.79499 0.61908
 N3180 N 0.89675 0.78623 0.62760
 C3181 C 0.90269 0.74217 0.59729
 C3182 C 0.90879 0.72660 0.59121
 C3183 C 0.91592 0.70797 0.58411
 N3184 N 0.90703 0.69897 0.56861
 N3185 N 0.91342 0.68150 0.56224
 C3186 C 0.92892 0.67237 0.57114
 N3187 N 0.93778 0.68151 0.58666
 N3188 N 0.93140 0.69898 0.59303
 N3189 N 0.40321 1.26904 0.62124
 C3190 C 0.39467 1.26039 0.60534
 N3191 N 0.37883 1.26913 0.59681
 N3192 N 0.37171 1.28600 0.60396
 C3193 C 0.38017 1.29474 0.61994
 N3194 N 0.39609 1.28592 0.62840
 C3195 C 0.40210 1.24202 0.59786
 C3196 C 0.40823 1.22650 0.59169
 C3197 C 0.41539 1.20792 0.58448
 N3198 N 0.40650 1.19897 0.56896
 N3199 N 0.41294 1.18155 0.56249
 C3200 C 0.42848 1.17242 0.57132
 N3201 N 0.43735 1.18152 0.58686
 N3202 N 0.43092 1.19894 0.59333
 N3203 N 0.37822 0.76860 1.09787
 C3204 C 0.39407 0.75988 1.10640
 N3205 N 0.40253 0.76849 1.12236
 N3206 N 0.39534 0.78530 1.12959
 C3207 C 0.37940 0.79410 1.12113
 N3208 N 0.37102 0.78541 1.10509
 C3209 C 0.40160 0.74158 1.09883
 C3210 C 0.40781 0.72613 1.09258
 C3211 C 0.41506 0.70762 1.08528
 N3212 N 0.43063 0.69866 1.09408
 N3213 N 0.43714 0.68131 1.08752
 C3214 C 0.42833 0.67225 1.07192
 N3215 N 0.41274 0.68135 1.06315
 N3216 N 0.40622 0.69871 1.06970
 N3217 N 0.90377 0.73066 0.87961
 C3218 C 0.89520 0.73941 0.89543
 N3219 N 0.87933 0.73073 0.90399
 N3220 N 0.87223 0.71381 0.89691
 C3221 C 0.88075 0.70501 0.88103
 N3222 N 0.89667 0.71374 0.87253
 C3223 C 0.90260 0.75782 0.90281
 C3224 C 0.90870 0.77338 0.90889
 C3225 C 0.91583 0.79201 0.91598
 N3226 N 0.90694 0.80102 0.93147
 N3227 N 0.91333 0.81848 0.93784
 C3228 C 0.92884 0.82759 0.92895
 N3229 N 0.93770 0.81844 0.91344
 N3230 N 0.93131 0.80097 0.90707
 N3231 N 0.87987 0.23017 0.40449
 C3232 C 0.89574 0.23883 0.39593
 N3233 N 0.90435 0.23003 0.38015
 N3234 N 0.89728 0.21308 0.37312
 C3235 C 0.88136 0.20437 0.38163
 N3236 N 0.87280 0.21322 0.39747
 C3237 C 0.90310 0.25729 0.40323
 C3238 C 0.90917 0.27289 0.40924
 C3239 C 0.91625 0.29156 0.41626
 N3240 N 0.93169 0.30055 0.40728
 N3241 N 0.93803 0.31806 0.41358
 C3242 C 0.92916 0.32724 0.42907
 N3243 N 0.91370 0.31810 0.43802
 N3244 N 0.90736 0.30059 0.43173
 N3245 N 0.37816 0.73139 0.40210
 C3246 C 0.39401 0.74010 0.39357
 N3247 N 0.40247 0.73148 0.37761
 N3248 N 0.39528 0.71468 0.37038
 C3249 C 0.37934 0.70589 0.37884
 N3250 N 0.37095 0.71458 0.39487
 C3251 C 0.40154 0.75838 0.40114
 C3252 C 0.40775 0.77384 0.40739
 C3253 C 0.41501 0.79234 0.41469
 N3254 N 0.43059 0.80127 0.40589
 N3255 N 0.43711 0.81862 0.41246
 C3256 C 0.42829 0.82769 0.42804
 N3257 N 0.41270 0.81861 0.43682
 N3258 N 0.40617 0.80126 0.43026
 N3259 N 0.40289 0.23107 0.87865
 C3260 C 0.39437 0.23974 0.89454
 N3261 N 0.37850 0.23106 0.90307
 N3262 N 0.37134 0.21421 0.89590
 C3263 C 0.37979 0.20545 0.87993
 N3264 N 0.39574 0.21422 0.87147
 C3265 C 0.40185 0.25808 0.90204
 C3266 C 0.40803 0.27357 0.90823
 C3267 C 0.41525 0.29211 0.91546
 N3268 N 0.40638 0.30108 0.93098
 N3269 N 0.41287 0.31847 0.93747
 C3270 C 0.42845 0.32754 0.92867
 N3271 N 0.43729 0.31843 0.91312
 N3272 N 0.43081 0.30104 0.90663
 N3273 N 1.09770 0.73180 1.12267
 C3274 C 1.10615 0.74037 1.10669
 N3275 N 1.12200 0.73163 1.09817
 N3276 N 1.12922 0.71485 1.10544
 C3277 C 1.12084 0.70620 1.12151
 N3278 N 1.10491 0.71502 1.12995
 C3279 C 1.09861 0.75864 1.09906
 C3280 C 1.09239 0.77407 1.09276
 C3281 C 1.08511 0.79255 1.08540
 N3282 N 1.09395 0.80144 1.06982
 N3283 N 1.08741 0.81877 1.06321
 C3284 C 1.07179 0.82786 1.07194
 N3285 N 1.06297 0.81882 1.08754
 N3286 N 1.06950 0.80149 1.09415
 N3287 N 1.12185 0.23134 0.59799
 C3288 C 1.10601 0.24009 0.60651
 N3289 N 1.09757 0.23154 0.62251
 N3290 N 1.10477 0.21475 0.62979
 C3291 C 1.12069 0.20592 0.62135
 N3292 N 1.12906 0.21456 0.60527
 C3293 C 1.09848 0.25837 0.59889
 C3294 C 1.09228 0.27381 0.59260
 C3295 C 1.08503 0.29230 0.58525
 N3296 N 1.06944 0.30126 0.59401
 N3297 N 1.06293 0.31860 0.58742
 C3298 C 1.07176 0.32764 0.57183
 N3299 N 1.08736 0.31854 0.56308
 N3300 N 1.09388 0.30119 0.56967
 N3301 N 0.62054 0.73056 0.59609
 C3302 C 0.60469 0.73928 0.60464
 N3303 N 0.59613 0.73057 0.62049
 N3304 N 0.60322 0.71366 0.62760
 C3305 C 0.61913 0.70489 0.61910
 N3306 N 0.62764 0.71365 0.60319
 C3307 C 0.59730 0.75769 0.59724
 C3308 C 0.59120 0.77325 0.59114
 C3309 C 0.58408 0.79187 0.58402
 N3310 N 0.56858 0.80086 0.59291
 N3311 N 0.56220 0.81832 0.58652
 C3312 C 0.57107 0.82746 0.57101
 N3313 N 0.58659 0.81833 0.56214
 N3314 N 0.59298 0.80086 0.56852
 N3315 N 0.62164 0.23124 1.09783
 C3316 C 0.60577 0.23994 1.10634
 N3317 N 0.59730 0.23133 1.12229
 N3318 N 0.60452 0.21453 1.12954
 C3319 C 0.62047 0.20575 1.12110
 N3320 N 0.62886 0.21444 1.10507
 C3321 C 0.59823 0.25822 1.09876
 C3322 C 0.59202 0.27368 1.09251
 C3323 C 0.58476 0.29218 1.08520
 N3324 N 0.56919 0.30113 1.09400
 N3325 N 0.56268 0.31849 1.08745
 C3326 C 0.57150 0.32755 1.07186
 N3327 N 0.58709 0.31846 1.06308
 N3328 N 0.59361 0.30110 1.06964
 N3329 N 1.26903 1.12146 0.90360
 C3330 C 1.26046 1.10550 0.89511
 N3331 N 1.26926 1.09694 0.87930
 N3332 N 1.28611 1.10414 0.87218
 C3333 C 1.29473 1.12015 0.88061
 N3334 N 1.28588 1.12866 0.89648
 C3335 C 1.24211 1.09799 0.90252
 C3336 C 1.22660 1.09179 0.90862
 C3337 C 1.20802 1.08457 0.91576
 N3338 N 1.19908 1.06907 0.90682
 N3339 N 1.18166 1.06261 0.91322
 C3340 C 1.17251 1.07140 0.92878
 N3341 N 1.18160 1.08692 0.93768
 N3342 N 1.19902 1.09339 0.93129
 N3343 N 1.26879 0.62173 0.40277
 C3344 C 1.26021 0.60577 0.39431
 N3345 N 1.26892 0.59727 0.37843
 N3346 N 1.28571 0.60452 0.37121
 C3347 C 1.29435 0.62054 0.37962
 N3348 N 1.28558 0.62899 0.39556
 C3349 C 1.24193 0.59819 0.40183
 C3350 C 1.22647 0.59194 0.40803
 C3351 C 1.20796 0.58465 0.41527
 N3352 N 1.19904 0.56910 0.40641
 N3353 N 1.18168 0.56258 0.41290
 C3354 C 1.17257 0.57136 0.42849
 N3355 N 1.18163 0.58692 0.43733
 N3356 N 1.19900 0.59346 0.43084
 N3357 N 0.76961 1.12018 0.40431
 C3358 C 0.76092 1.10436 0.39571
 N3359 N 0.76971 1.09576 0.37992
 N3360 N 0.78668 1.10280 0.37292
 C3361 C 0.79543 1.11868 0.38147
 N3362 N 0.78659 1.12723 0.39732
 C3363 C 0.74245 1.09702 0.40300
 C3364 C 0.72684 1.09097 0.40901
 C3365 C 0.70815 1.08392 0.41602
 N3366 N 0.69915 1.06849 0.40704
 N3367 N 0.68163 1.06216 0.41335
 C3368 C 0.67246 1.07104 0.42884
 N3369 N 0.68162 1.08648 0.43779
 N3370 N 0.69913 1.09282 0.43150
 N3371 N 0.76933 0.59616 0.87959
 C3372 C 0.76058 0.60473 0.89542
 N3373 N 0.76925 0.62059 0.90398
 N3374 N 0.78616 0.62770 0.89690
 C3375 C 0.79497 0.61919 0.88101
 N3376 N 0.78624 0.60327 0.87251
 C3377 C 0.74217 0.59731 0.90281
 C3378 C 0.72662 0.59120 0.90889
 C3379 C 0.70800 0.58407 0.91600
 N3380 N 0.69899 0.59296 0.93150
 N3381 N 0.68154 0.58656 0.93787
 C3382 C 0.67242 0.57105 0.92899
 N3383 N 0.68157 0.56218 0.91348
 N3384 N 0.69903 0.56858 0.90709
 N3385 N 1.26892 0.90274 1.12154
 C3386 C 1.26021 0.89424 1.10566
 N3387 N 1.26881 0.87828 1.09719
 N3388 N 1.28561 0.87102 1.10440
 C3389 C 1.29437 0.87947 1.12034
 N3390 N 1.28572 0.89549 1.12876
 C3391 C 1.24191 0.90181 1.09814
 C3392 C 1.22645 0.90805 1.09195
 C3393 C 1.20792 0.91534 1.08472
 N3394 N 1.19897 0.90654 1.06915
 N3395 N 1.18158 0.91306 1.06268
 C3396 C 1.17250 0.92862 1.07153
 N3397 N 1.18161 0.93739 1.08712
 N3398 N 1.19899 0.93087 1.09360
 N3399 N 1.26965 0.40329 0.62055
 C3400 C 1.26086 0.39473 0.60475
 N3401 N 1.26946 0.37878 0.59625
 N3402 N 1.28634 0.37160 0.60336
 C3403 C 1.29517 0.38011 0.61923
 N3404 N 1.28652 0.39611 0.62767
 C3405 C 1.24249 0.40221 0.59735
 C3406 C 1.22695 0.40837 0.59125
 C3407 C 1.20834 0.41555 0.58414
 N3408 N 1.19934 0.40670 0.56863
 N3409 N 1.18189 0.41313 0.56226
 C3410 C 1.17278 0.42863 0.57116
 N3411 N 1.18193 0.43747 0.58669
 N3412 N 1.19938 0.43104 0.59307
 N3413 N 0.76932 0.87938 0.59603
 C3414 C 0.76060 0.89523 0.60458
 N3415 N 0.76933 0.90380 0.62042
 N3416 N 0.78624 0.89672 0.62752
 C3417 C 0.79501 0.88081 0.61902
 N3418 N 0.78623 0.87229 0.60312
 C3419 C 0.74219 0.90263 0.59718
 C3420 C 0.72662 0.90872 0.59109
 C3421 C 0.70799 0.91583 0.58398
 N3422 N 0.69899 0.93131 0.59290
 N3423 N 0.68152 0.93769 0.58652
 C3424 C 0.67239 0.92882 0.57100
 N3425 N 0.68153 0.91333 0.56210
 N3426 N 0.69900 0.90695 0.56848
 N3427 N 0.76873 0.40255 1.12190
 C3428 C 0.76006 0.39407 1.10598
 N3429 N 0.76870 0.37815 1.09748
 N3430 N 0.78551 0.37092 1.10469
 C3431 C 0.79424 0.37935 1.12067
 N3432 N 0.78554 0.39532 1.12911
 C3433 C 0.74176 0.40162 1.09845
 C3434 C 0.72629 0.40784 1.09224
 C3435 C 0.70777 0.41509 1.08498
 N3436 N 0.69884 0.40627 1.06941
 N3437 N 0.68146 0.41278 1.06290
 C3438 C 0.67236 0.42834 1.07173
 N3439 N 0.68143 0.43714 1.08732
 N3440 N 0.69881 0.43063 1.09383
 N3441 N 0.73121 1.09738 1.12173
 C3442 C 0.73989 1.10589 1.10584
 N3443 N 0.73124 1.12181 1.09735
 N3444 N 0.71443 1.12903 1.10455
 C3445 C 0.70569 1.12058 1.12051
 N3446 N 0.71440 1.10460 1.12895
 C3447 C 0.75820 1.09835 1.09831
 C3448 C 0.77367 1.09214 1.09211
 C3449 C 0.79220 1.08488 1.08486
 N3450 N 0.80113 1.09370 1.06929
 N3451 N 0.81851 1.08720 1.06279
 C3452 C 0.82762 1.07165 1.07163
 N3453 N 0.81854 1.06285 1.08722
 N3454 N 0.80116 1.06935 1.09372
 N3455 N 0.73064 0.59608 0.62054
 C3456 C 0.73936 0.60464 0.60469
 N3457 N 0.73064 0.62048 0.59613
 N3458 N 0.71373 0.62757 0.60322
 C3459 C 0.70496 0.61907 0.61912
 N3460 N 0.71373 0.60317 0.62763
 C3461 C 0.75778 0.59724 0.59730
 C3462 C 0.77334 0.59115 0.59121
 C3463 C 0.79198 0.58404 0.58411
 N3464 N 0.80096 0.59292 0.56860
 N3465 N 0.81843 0.58654 0.56223
 C3466 C 0.82758 0.57105 0.57113
 N3467 N 0.81845 0.56219 0.58666
 N3468 N 0.80098 0.56857 0.59303
 N3469 N 0.23125 1.09741 0.62179
 C3470 C 0.23988 1.10589 0.60586
 N3471 N 0.23122 1.12182 0.59739
 N3472 N 0.21444 1.12906 0.60465
 C3473 C 0.20576 1.12064 0.62064
 N3474 N 0.21447 1.10466 0.62906
 C3475 C 0.25815 1.09833 0.59827
 C3476 C 0.27360 1.09210 0.59202
 C3477 C 0.29210 1.08483 0.58472
 N3478 N 0.30102 1.09365 0.56915
 N3479 N 0.31838 1.08713 0.56261
 C3480 C 0.32748 1.07155 0.57141
 N3481 N 0.31841 1.06275 0.58700
 N3482 N 0.30105 1.06927 0.59355
 N3483 N 0.23127 0.59751 1.12189
 C3484 C 0.23995 0.60599 1.10599
 N3485 N 0.23135 0.62196 1.09753
 N3486 N 0.21458 0.62924 1.10477
 C3487 C 0.20584 0.62080 1.12073
 N3488 N 0.21449 0.60478 1.12914
 C3489 C 0.25822 0.59840 1.09844
 C3490 C 0.27367 0.59213 1.09222
 C3491 C 0.29217 0.58482 1.08496
 N3492 N 0.30111 0.59361 1.06938
 N3493 N 0.31848 0.58707 1.06288
 C3494 C 0.32755 0.57150 1.07172
 N3495 N 0.31846 0.56273 1.08732
 N3496 N 0.30110 0.56927 1.09382
 N3497 N 0.73059 0.87948 0.90395
 C3498 C 0.73927 0.89533 0.89538
 N3499 N 0.73053 0.90388 0.87954
 N3500 N 0.71362 0.89677 0.87245
 C3501 C 0.70488 0.88086 0.88097
 N3502 N 0.71368 0.87237 0.89687
 C3503 C 0.75768 0.90274 0.90276
 C3504 C 0.77323 0.90885 0.90885
 C3505 C 0.79186 0.91598 0.91596
 N3506 N 0.80083 0.93146 0.90704
 N3507 N 0.81829 0.93785 0.91342
 C3508 C 0.82744 0.92899 0.92893
 N3509 N 0.81832 0.91349 0.93783
 N3510 N 0.80086 0.90709 0.93145
 N3511 N 0.73088 0.37911 0.40330
 C3512 C 0.73965 0.39491 0.39473
 N3513 N 0.73101 0.40342 0.37881
 N3514 N 0.71413 0.39633 0.37165
 C3515 C 0.70531 0.38047 0.38017
 N3516 N 0.71400 0.37201 0.39615
 C3517 C 0.75802 0.40231 0.40220
 C3518 C 0.77356 0.40841 0.40835
 C3519 C 0.79215 0.41554 0.41554
 N3520 N 0.80114 0.43104 0.40666
 N3521 N 0.81857 0.43744 0.41311
 C3522 C 0.82768 0.42858 0.42865
 N3523 N 0.81854 0.41306 0.43750
 N3524 N 0.80111 0.40665 0.43106
 N3525 N 0.23056 0.87934 0.40328
 C3526 C 0.23928 0.89518 0.39472
 N3527 N 0.23060 0.90369 0.37882
 N3528 N 0.21373 0.89656 0.37167
 C3529 C 0.20496 0.88066 0.38017
 N3530 N 0.21369 0.87220 0.39614
 C3531 C 0.25765 0.90260 0.40216
 C3532 C 0.27318 0.90872 0.40830
 C3533 C 0.29179 0.91586 0.41545
 N3534 N 0.30076 0.93136 0.40657
 N3535 N 0.31821 0.93775 0.41299
 C3536 C 0.32734 0.92887 0.42851
 N3537 N 0.31822 0.91335 0.43736
 N3538 N 0.30077 0.90695 0.43095
 N3539 N 0.23061 0.37936 0.90348
 C3540 C 0.23937 0.39517 0.89492
 N3541 N 0.23075 0.40367 0.87898
 N3542 N 0.21388 0.39657 0.87181
 C3543 C 0.20506 0.38070 0.88032
 N3544 N 0.21374 0.37225 0.89631
 C3545 C 0.25774 0.40258 0.90239
 C3546 C 0.27327 0.40868 0.90856
 C3547 C 0.29186 0.41581 0.91574
 N3548 N 0.30085 0.43131 0.90688
 N3549 N 0.31829 0.43770 0.91332
 C3550 C 0.32740 0.42881 0.92884
 N3551 N 0.31827 0.41329 0.93768
 N3552 N 0.30083 0.40690 0.93125
   
