data_POSCAR
  _audit_creation_date              2014-09-24
  _audit_creation_method            'ToBaCCo'
  _symmetry_space_group_name_H-M    'P1'
  _symmetry_Int_Tables_number       1
  _symmetry_cell_setting            triclinic
  loop_
  _symmetry_equiv_pos_as_xyz
 x,y,z
_cell_length_a 88.5818
_cell_length_b 88.4353
_cell_length_c 88.4425
_cell_angle_alpha 90.027200
_cell_angle_beta 90.038200
_cell_angle_gamma 90.034100
loop_
  _atom_site_label
  _atom_site_type_symbol
  _atom_site_fract_x
  _atom_site_fract_y
  _atom_site_fract_z
C1 C 0.30076 0.43925 0.92838
 C2 C 0.30084 0.42810 0.93964
 C3 C 0.31216 0.42797 0.95046
 C4 C 0.32354 0.43900 0.95015
 C5 C 0.32346 0.45003 0.93901
 C6 C 0.31200 0.45016 0.92807
 C7 C 0.29181 0.44147 0.91584
 N8 N 0.29736 0.45343 0.90807
 C9 C 0.30969 0.45883 0.91535
 C10 C 0.33633 0.45858 0.94086
 N11 N 0.34407 0.45298 0.95281
 C12 C 0.33646 0.44102 0.95859
 C13 C 0.31001 0.41531 0.95927
 N14 N 0.29769 0.40790 0.95403
 C15 C 0.29199 0.41552 0.94204
 H16 H 0.28228 0.43462 0.91235
 H17 H 0.31672 0.46804 0.91140
 H18 H 0.34001 0.46788 0.93378
 H19 H 0.34026 0.43406 0.96792
 H20 H 0.31713 0.41150 0.96846
 H21 H 0.28245 0.41189 0.93529
 C22 C 0.43865 0.82416 0.45013
 C23 C 0.42767 0.81273 0.45021
 C24 C 0.42792 0.80152 0.43926
 C25 C 0.43917 0.80159 0.42811
 C26 C 0.45003 0.81288 0.42803
 C27 C 0.44977 0.82423 0.43911
 C28 C 0.44057 0.83699 0.45875
 N29 N 0.45255 0.84471 0.45319
 C30 C 0.45827 0.83711 0.44119
 C31 C 0.45883 0.81071 0.41538
 N32 N 0.45355 0.79842 0.40793
 C33 C 0.44154 0.79275 0.41551
 C34 C 0.41538 0.79259 0.44145
 N35 N 0.40765 0.79813 0.45343
 C36 C 0.41496 0.81043 0.45888
 H37 H 0.43353 0.84067 0.46807
 H38 H 0.46762 0.84090 0.43427
 H39 H 0.46806 0.81780 0.41160
 H40 H 0.43477 0.78323 0.41186
 H41 H 0.41185 0.78309 0.43457
 H42 H 0.41106 0.81744 0.46813
 C43 C 0.93515 0.92363 0.80431
 C44 C 0.92389 0.93477 0.80441
 C45 C 0.92383 0.94576 0.81559
 C46 C 0.93503 0.94574 0.82681
 C47 C 0.94616 0.93472 0.82671
 C48 C 0.94622 0.92361 0.81540
 C49 C 0.93752 0.91114 0.79533
 N50 N 0.94972 0.90367 0.80073
 C51 C 0.95515 0.91109 0.81298
 C52 C 0.95501 0.93699 0.83932
 N53 N 0.94948 0.94908 0.84692
 C54 C 0.93728 0.95453 0.83947
 C55 C 0.91121 0.95456 0.81336
 N56 N 0.90375 0.94915 0.80113
 C57 C 0.91131 0.93707 0.79556
 H58 H 0.93067 0.90754 0.78583
 H59 H 0.96462 0.90745 0.81982
 H60 H 0.96452 0.93017 0.84290
 H61 H 0.93038 0.96393 0.84317
 H62 H 0.90752 0.96395 0.82029
 H63 H 0.90771 0.93028 0.78602
 C64 C 0.43744 -0.07327 0.30162
 C65 C 0.42603 -0.06229 0.30191
 C66 C 0.42588 -0.05142 0.31320
 C67 C 0.43715 -0.05141 0.32435
 C68 C 0.44843 -0.06226 0.32407
 C69 C 0.44857 -0.07325 0.31264
 C70 C 0.43980 -0.08575 0.29261
 N71 N 0.45207 -0.09317 0.29794
 C72 C 0.45753 -0.08573 0.31016
 C73 C 0.45722 -0.06012 0.33674
 N74 N 0.45153 -0.04825 0.34456
 C75 C 0.43927 -0.04284 0.33718
 C76 C 0.41305 -0.04286 0.31123
 N77 N 0.40554 -0.04830 0.29904
 C78 C 0.41328 -0.06016 0.29325
 H79 H 0.43284 -0.08944 0.28323
 H80 H 0.46699 -0.08940 0.31701
 H81 H 0.46677 -0.06691 0.34025
 H82 H 0.43221 -0.03365 0.34110
 H83 H 0.40923 -0.03366 0.31834
 H84 H 0.40967 -0.06697 0.28373
 C85 C 0.80099 0.31067 0.32192
 C86 C 0.80104 0.32183 0.31066
 C87 C 0.81231 0.32195 0.29980
 C88 C 0.82366 0.31090 0.30007
 C89 C 0.82361 0.29987 0.31120
 C90 C 0.81220 0.29976 0.32219
 C91 C 0.79208 0.30844 0.33448
 N92 N 0.79764 0.29648 0.34223
 C93 C 0.80993 0.29107 0.33491
 C94 C 0.83645 0.29131 0.30930
 N95 N 0.84415 0.29689 0.29732
 C96 C 0.83654 0.30886 0.29159
 C97 C 0.81013 0.33460 0.29099
 N98 N 0.79785 0.34202 0.29627
 C99 C 0.79220 0.33441 0.30828
 H100 H 0.78258 0.31530 0.33800
 H101 H 0.81695 0.28185 0.33883
 H102 H 0.84015 0.28200 0.31634
 H103 H 0.84031 0.31580 0.28224
 H104 H 0.81721 0.33841 0.28177
 H105 H 0.78268 0.33803 0.31505
 C106 C -0.18660 0.82492 0.80163
 C107 C -0.17545 0.81367 0.80173
 C108 C -0.17573 0.80244 0.81266
 C109 C -0.18718 0.80233 0.82361
 C110 C -0.19820 0.81344 0.82350
 C111 C -0.19791 0.82480 0.81245
 C112 C -0.18862 0.83768 0.79293
 N113 N -0.20085 0.84516 0.79826
 C114 C -0.20663 0.83749 0.81017
 C115 C -0.20726 0.81108 0.83594
 N116 N -0.20196 0.79884 0.84343
 C117 C -0.18970 0.79338 0.83610
 C118 C -0.16309 0.79362 0.81058
 N119 N -0.15528 0.79925 0.79869
 C120 C -0.16264 0.81149 0.79319
 H121 H -0.18151 0.84145 0.78371
 H122 H -0.21619 0.84109 0.81691
 H123 H -0.21669 0.81801 0.83952
 H124 H -0.18287 0.78393 0.83983
 H125 H -0.15962 0.78409 0.81742
 H126 H -0.15874 0.81849 0.78393
 C127 C 0.94859 0.32470 0.43657
 C128 C 0.94861 0.31351 0.42532
 C129 C 0.93780 0.30218 0.42550
 C130 C 0.92685 0.30188 0.43694
 C131 C 0.92682 0.31293 0.44806
 C132 C 0.93775 0.32441 0.44787
 C133 C 0.95713 0.33755 0.43867
 N134 N 0.95170 0.34492 0.45094
 C135 C 0.93987 0.33709 0.45667
 C136 C 0.91439 0.31041 0.45705
 N137 N 0.90701 0.29813 0.45163
 C138 C 0.91444 0.29282 0.43936
 C139 C 0.93997 0.29346 0.41278
 N140 N 0.95180 0.29926 0.40502
 C141 C 0.95718 0.31151 0.41248
 H142 H 0.96630 0.34146 0.43158
 H143 H 0.93308 0.34057 0.46624
 H144 H 0.91071 0.31724 0.46652
 H145 H 0.91079 0.28339 0.43244
 H146 H 0.93323 0.28389 0.40922
 H147 H 0.96635 0.31863 0.40864
 C148 C 0.44816 0.43628 0.82477
 C149 C 0.44810 0.42512 0.81351
 C150 C 0.43723 0.42542 0.80223
 C151 C 0.42632 0.43689 0.80207
 C152 C 0.42638 0.44793 0.81320
 C153 C 0.43737 0.44762 0.82462
 C154 C 0.45677 0.43826 0.83760
 N155 N 0.45141 0.45049 0.84509
 C156 C 0.43956 0.45632 0.83736
 C157 C 0.41396 0.45698 0.81082
 N158 N 0.40650 0.45167 0.79855
 C159 C 0.41386 0.43941 0.79310
 C160 C 0.43931 0.41275 0.79342
 N161 N 0.45114 0.40490 0.79911
 C162 C 0.45661 0.41227 0.81137
 H163 H 0.46594 0.43112 0.84142
 H164 H 0.43282 0.46588 0.84094
 H165 H 0.41034 0.46640 0.81775
 H166 H 0.41014 0.43258 0.78364
 H167 H 0.43251 0.40927 0.78385
 H168 H 0.46580 0.40834 0.81842
 C169 C 0.80248 0.92648 0.93743
 C170 C 0.80261 0.93747 0.92601
 C171 C 0.81386 0.94836 0.92573
 C172 C 0.82512 0.94840 0.93688
 C173 C 0.82500 0.93754 0.94818
 C174 C 0.81361 0.92651 0.94846
 C175 C 0.79351 0.91401 0.93992
 N176 N 0.79897 0.90660 0.95216
 C177 C 0.81124 0.91404 0.95748
 C178 C 0.83771 0.93975 0.95689
 N179 N 0.84539 0.95167 0.95112
 C180 C 0.83790 0.95706 0.93890
 C181 C 0.81168 0.95695 0.91292
 N182 N 0.79942 0.95149 0.90556
 C183 C 0.79378 0.93960 0.91337
 H184 H 0.78405 0.91033 0.93308
 H185 H 0.81817 0.91040 0.96689
 H186 H 0.84130 0.93298 0.96644
 H187 H 0.84167 0.96630 0.93181
 H188 H 0.81870 0.96618 0.90902
 H189 H 0.78423 0.93278 0.90988
 C190 C 0.30017 0.82359 0.31091
 C191 C 0.29990 0.81221 0.32194
 C192 C 0.31074 0.80092 0.32182
 C193 C 0.32198 0.80087 0.31066
 C194 C 0.32225 0.81212 0.29975
 C195 C 0.31128 0.82355 0.29988
 C196 C 0.29170 0.83650 0.30890
 N197 N 0.29744 0.84413 0.29694
 C198 C 0.30940 0.83643 0.29133
 C199 C 0.33495 0.80985 0.29108
 N200 N 0.34226 0.79754 0.29648
 C201 C 0.33452 0.79195 0.30843
 C202 C 0.30838 0.79206 0.33440
 N203 N 0.29640 0.79773 0.34202
 C204 C 0.29112 0.81003 0.33461
 H205 H 0.28238 0.84027 0.31586
 H206 H 0.31644 0.84013 0.28203
 H207 H 0.33887 0.81690 0.28187
 H208 H 0.33804 0.78244 0.31529
 H209 H 0.31515 0.78254 0.33802
 H210 H 0.28193 0.81713 0.33843
 C211 C 0.80096 0.42806 0.43921
 C212 C 0.80085 0.43924 0.42798
 C213 C 0.81205 0.45018 0.42770
 C214 C 0.82350 0.45008 0.43866
 C215 C 0.82361 0.43902 0.44977
 C216 C 0.81227 0.42795 0.45005
 C217 C 0.79216 0.41544 0.44157
 N218 N 0.79787 0.40781 0.45355
 C219 C 0.81016 0.41526 0.45882
 C220 C 0.83652 0.44106 0.45822
 N221 N 0.84409 0.45306 0.45248
 C222 C 0.83634 0.45867 0.44053
 C223 C 0.80973 0.45887 0.41499
 N224 N 0.79743 0.45344 0.40769
 C225 C 0.79190 0.44145 0.41543
 H226 H 0.78263 0.41180 0.43481
 H227 H 0.81728 0.41145 0.46801
 H228 H 0.84034 0.43410 0.46754
 H229 H 0.83999 0.46799 0.43348
 H230 H 0.81673 0.46811 0.41106
 H231 H 0.78241 0.43457 0.41191
 C232 C 0.93786 0.82385 -0.05234
 C233 C 0.92685 0.81245 -0.05224
 C234 C 0.92681 0.80147 -0.06343
 C235 C 0.93778 0.80176 -0.07485
 C236 C 0.94867 0.81303 -0.07494
 C237 C 0.94871 0.82414 -0.06362
 C238 C 0.94003 0.83647 -0.04348
 N239 N 0.95190 0.84428 -0.04914
 C240 C 0.95731 0.83694 -0.06143
 C241 C 0.95724 0.81106 -0.08779
 N242 N 0.95177 0.79891 -0.09534
 C243 C 0.93989 0.79313 -0.08763
 C244 C 0.91431 0.79251 -0.06110
 N245 N 0.90690 0.79781 -0.04881
 C246 C 0.91438 0.80999 -0.04329
 H247 H 0.93324 0.83996 -0.03392
 H248 H 0.96650 0.84086 -0.06848
 H249 H 0.96646 0.81816 -0.09157
 H250 H 0.93306 0.78363 -0.09127
 H251 H 0.91059 0.78316 -0.06809
 H252 H 0.91072 0.81680 -0.03380
 C253 C 0.30076 0.32214 0.81119
 C254 C 0.30071 0.31098 0.82244
 C255 C 0.31195 0.30009 0.82272
 C256 C 0.32337 0.30024 0.81175
 C257 C 0.32342 0.31127 0.80063
 C258 C 0.31204 0.32229 0.80034
 C259 C 0.29189 0.33470 0.80880
 N260 N 0.29754 0.34233 0.79680
 C261 C 0.30985 0.33494 0.79153
 C262 C 0.33630 0.30925 0.79215
 N263 N 0.34393 0.29730 0.79789
 C264 C 0.33623 0.29169 0.80986
 C265 C 0.30968 0.29139 0.83543
 N266 N 0.29736 0.29677 0.84274
 C267 C 0.29179 0.30873 0.83499
 H268 H 0.28236 0.33830 0.81556
 H269 H 0.31693 0.33876 0.78232
 H270 H 0.34007 0.31619 0.78280
 H271 H 0.33993 0.28238 0.81689
 H272 H 0.31671 0.28219 0.83936
 H273 H 0.28227 0.31556 0.83850
 C274 C 0.17634 0.56305 0.55176
 C275 C 0.18734 0.57446 0.55207
 C276 C 0.19817 0.57459 0.56339
 C277 C 0.19813 0.56331 0.57453
 C278 C 0.18726 0.55204 0.57422
 C279 C 0.17630 0.55191 0.56277
 C280 C 0.16389 0.56069 0.54273
 N281 N 0.15644 0.54841 0.54802
 C282 C 0.16383 0.54294 0.56025
 C283 C 0.18936 0.54321 0.58687
 N284 N 0.20121 0.54889 0.59471
 C285 C 0.20667 0.56116 0.58737
 C286 C 0.20677 0.58742 0.56142
 N287 N 0.20139 0.59493 0.54921
 C288 C 0.18953 0.58721 0.54341
 H289 H 0.16025 0.56763 0.53333
 H290 H 0.16013 0.53348 0.56707
 H291 H 0.18255 0.53366 0.59034
 H292 H 0.21587 0.56820 0.59130
 H293 H 0.21597 0.59123 0.56853
 H294 H 0.18278 0.59081 0.53386
 C295 C 0.57451 0.68730 0.05204
 C296 C 0.56310 0.67630 0.05192
 C297 C 0.55213 0.67631 0.06308
 C298 C 0.55243 0.68732 0.07449
 C299 C 0.56370 0.69820 0.07461
 C300 C 0.57481 0.69819 0.06331
 C301 C 0.58710 0.68947 0.04317
 N302 N 0.59489 0.70138 0.04882
 C303 C 0.58758 0.70680 0.06112
 C304 C 0.56171 0.70683 0.08742
 N305 N 0.54954 0.70142 0.09494
 C306 C 0.54377 0.68951 0.08723
 C307 C 0.54311 0.66385 0.06070
 N308 N 0.54837 0.65641 0.04841
 C309 C 0.56057 0.66383 0.04294
 H310 H 0.59056 0.68268 0.03359
 H311 H 0.59148 0.71605 0.06814
 H312 H 0.56878 0.71608 0.09121
 H313 H 0.53424 0.68274 0.09083
 H314 H 0.53372 0.66019 0.06764
 H315 H 0.56736 0.66015 0.03344
 C316 C 0.68876 0.19987 0.67713
 C317 C 0.67779 0.20003 0.68855
 C318 C 0.67804 0.18915 0.69982
 C319 C 0.68927 0.17798 0.69980
 C320 C 0.70011 0.17782 0.68851
 C321 C 0.69985 0.18882 0.67711
 C322 C 0.69065 0.20837 0.66422
 N323 N 0.70259 0.20273 0.65652
 C324 C 0.70831 0.19079 0.66420
 C325 C 0.70886 0.16514 0.69070
 N326 N 0.70356 0.15774 0.70301
 C327 C 0.69160 0.16540 0.70867
 C328 C 0.66549 0.19139 0.70872
 N329 N 0.65776 0.20334 0.70310
 C330 C 0.66508 0.20872 0.69079
 H331 H 0.68362 0.21766 0.66048
 H332 H 0.71762 0.18382 0.66043
 H333 H 0.71804 0.16128 0.68360
 H334 H 0.68481 0.16179 0.71818
 H335 H 0.66195 0.18456 0.71824
 H336 H 0.66117 0.21791 0.68371
 C337 C 1.07123 0.05955 0.20095
 C338 C 1.05999 0.07072 0.20088
 C339 C 1.04896 0.07064 0.18977
 C340 C 1.04902 0.05939 0.17859
 C341 C 1.06013 0.04835 0.17865
 C342 C 1.07129 0.04843 0.18990
 C343 C 1.08395 0.05751 0.20967
 N344 N 1.09160 0.04546 0.20416
 C345 C 1.08406 0.03982 0.19208
 C346 C 1.05807 0.03963 0.16590
 N347 N 1.04601 0.04514 0.15826
 C348 C 1.04039 0.05721 0.16581
 C349 C 1.04026 0.08338 0.19182
 N350 N 1.04577 0.09105 0.20387
 C351 C 1.05783 0.08350 0.20951
 H352 H 1.08764 0.06455 0.21899
 H353 H 1.08786 0.03049 0.18513
 H354 H 1.06511 0.03033 0.16219
 H355 H 1.03107 0.06418 0.16202
 H356 H 1.03097 0.08708 0.18478
 H357 H 1.06478 0.08732 0.21883
 C358 C 0.06164 0.17794 1.05004
 C359 C 0.07310 0.18888 1.05019
 C360 C 0.07319 0.20001 1.06123
 C361 C 0.06182 0.20033 1.07226
 C362 C 0.05049 0.18951 1.07211
 C363 C 0.05040 0.17825 1.06094
 C364 C 0.05933 0.16521 1.04136
 N365 N 0.04701 0.15793 1.04675
 C366 C 0.04145 0.16571 1.05871
 C367 C 0.04165 0.19189 1.08469
 N368 N 0.04737 0.20388 1.09233
 C369 C 0.05969 0.20913 1.08493
 C370 C 0.08612 0.20843 1.05923
 N371 N 0.09373 0.20266 1.04728
 C372 C 0.08597 0.19072 1.04166
 H373 H 0.06636 0.16125 1.03217
 H374 H 0.03194 0.16221 1.06556
 H375 H 0.03212 0.18512 1.08829
 H376 H 0.06684 0.21831 1.08876
 H377 H 0.08994 0.21776 1.06619
 H378 H 0.08965 0.18366 1.03237
 C379 C 0.17674 0.69864 0.68736
 C380 C 0.18775 0.69848 0.67598
 C381 C 0.19865 0.68724 0.67580
 C382 C 0.19865 0.67602 0.68701
 C383 C 0.18776 0.67618 0.69825
 C384 C 0.17675 0.68756 0.69843
 C385 C 0.16424 0.70757 0.68975
 N386 N 0.15679 0.70214 0.70196
 C387 C 0.16424 0.68992 0.70737
 C388 C 0.18992 0.66348 0.70699
 N389 N 0.20182 0.65575 0.70129
 C390 C 0.20725 0.66322 0.68909
 C391 C 0.20724 0.68934 0.66301
 N392 N 0.20180 0.70155 0.65555
 C393 C 0.18990 0.70724 0.66329
 H394 H 0.16055 0.71699 0.68285
 H395 H 0.16056 0.68302 0.71678
 H396 H 0.18311 0.65989 0.71649
 H397 H 0.21648 0.65939 0.68204
 H398 H 0.21647 0.68230 0.65916
 H399 H 0.18309 0.71675 0.65972
 C400 C 1.18952 0.17797 0.19933
 C401 C 1.17832 0.18916 0.19934
 C402 C 1.17814 0.20009 0.18811
 C403 C 1.18917 0.19995 0.17674
 C404 C 1.20024 0.18888 0.17673
 C405 C 1.20042 0.17782 0.18809
 C406 C 1.19180 0.16536 0.20817
 N407 N 1.20378 0.15770 0.20254
 C408 C 1.20914 0.16513 0.19028
 C409 C 1.20877 0.19089 0.16386
 N410 N 1.20310 0.20288 0.15622
 C411 C 1.19113 0.20852 0.16389
 C412 C 1.16545 0.20880 0.19033
 N413 N 1.15806 0.20339 0.20258
 C414 C 1.16574 0.19140 0.20819
 H415 H 1.18497 0.16174 0.21765
 H416 H 1.21836 0.16129 0.18322
 H417 H 1.21808 0.18390 0.16012
 H418 H 1.18412 0.21784 0.16016
 H419 H 1.16159 0.21803 0.18327
 H420 H 1.16214 0.18453 0.21766
 C421 C 0.67807 1.05124 0.56090
 C422 C 0.68925 1.05112 0.57213
 C423 C 0.70017 1.06234 0.57242
 C424 C 0.70004 1.07382 0.56149
 C425 C 0.68897 1.07395 0.55039
 C426 C 0.67793 1.06258 0.55010
 C427 C 0.66548 1.04241 0.55852
 N428 N 0.65784 1.04814 0.54657
 C429 C 0.66525 1.06046 0.54132
 C430 C 0.69101 1.08687 0.54195
 N431 N 0.70301 1.09445 0.54769
 C432 C 0.70862 1.08668 0.55963
 C433 C 0.70888 1.05999 0.58511
 N434 N 0.70348 1.04764 0.59238
 C435 C 0.69150 1.04212 0.58463
 H436 H 0.66187 1.03285 0.56526
 H437 H 0.66142 1.06760 0.53215
 H438 H 0.68405 1.09070 0.53264
 H439 H 0.71796 1.09032 0.56666
 H440 H 0.71812 1.06699 0.58905
 H441 H 0.68464 1.03261 0.58813
 C442 C 0.56307 0.55203 0.17662
 C443 C 0.57445 0.55234 0.18764
 C444 C 0.57459 0.56367 0.19847
 C445 C 0.56334 0.57483 0.19840
 C446 C 0.55209 0.57452 0.18751
 C447 C 0.55196 0.56305 0.17655
 C448 C 0.56069 0.54296 0.16418
 N449 N 0.54844 0.54824 0.15670
 C450 C 0.54300 0.56051 0.16407
 C451 C 0.54328 0.58717 0.18960
 N452 N 0.54894 0.59502 0.20148
 C453 C 0.56118 0.58767 0.20695
 C454 C 0.58737 0.56169 0.20712
 N455 N 0.59486 0.54946 0.20177
 C456 C 0.58715 0.54365 0.18988
 H457 H 0.56760 0.53353 0.16056
 H458 H 0.53355 0.56732 0.16035
 H459 H 0.53374 0.59064 0.18278
 H460 H 0.56820 0.59160 0.21619
 H461 H 0.59117 0.56881 0.21633
 H462 H 0.59074 0.53408 0.18314
 C463 C 0.67427 0.68576 0.19644
 C464 C 0.68542 0.67450 0.19634
 C465 C 0.69644 0.67452 0.18523
 C466 C 0.69645 0.68579 0.17408
 C467 C 0.68543 0.69691 0.17417
 C468 C 0.67428 0.69689 0.18542
 C469 C 0.66173 0.68804 0.20533
 N470 N 0.65425 0.70025 0.19994
 C471 C 0.66173 0.70577 0.18779
 C472 C 0.68771 0.70581 0.16160
 N473 N 0.69980 0.70032 0.15402
 C474 C 0.70525 0.68811 0.16146
 C475 C 0.70524 0.66187 0.18743
 N476 N 0.69978 0.65432 0.19957
 C477 C 0.68769 0.66185 0.20512
 H478 H 0.65808 0.68113 0.21475
 H479 H 0.65809 0.71526 0.18098
 H480 H 0.68087 0.71530 0.15801
 H481 H 0.71464 0.68122 0.15774
 H482 H 0.71464 0.65822 0.18052
 H483 H 0.68085 0.65817 0.21458
 C484 C 0.17794 0.06136 1.04988
 C485 C 0.18896 0.07275 1.05018
 C486 C 0.20002 0.07266 1.06127
 C487 C 0.20019 0.06117 1.07220
 C488 C 0.18930 0.04992 1.07191
 C489 C 0.17811 0.05002 1.06069
 C490 C 0.16524 0.05925 1.04114
 N491 N 0.15784 0.04693 1.04640
 C492 C 0.16551 0.04119 1.05834
 C493 C 0.19154 0.04097 1.08444
 N494 N 0.20350 0.04654 1.09219
 C495 C 0.20888 0.05887 1.08491
 C496 C 0.20852 0.08557 1.05944
 N497 N 0.20287 0.09335 1.04753
 C498 C 0.19092 0.08571 1.04178
 H499 H 0.16138 0.06641 1.03200
 H500 H 0.16190 0.03165 1.06510
 H501 H 0.18469 0.03145 1.08796
 H502 H 0.21807 0.06593 1.08886
 H503 H 0.21782 0.08927 1.06648
 H504 H 0.18393 0.08954 1.03249
 C505 C 0.57297 0.20083 0.56063
 C506 C 0.56159 0.20108 0.57164
 C507 C 0.55030 0.19022 0.57146
 C508 C 0.55026 0.17898 0.56027
 C509 C 0.56151 0.17874 0.54938
 C510 C 0.57293 0.18972 0.54956
 C511 C 0.58589 0.20928 0.55868
 N512 N 0.59354 0.20355 0.54674
 C513 C 0.58582 0.19161 0.54107
 C514 C 0.55928 0.16599 0.54070
 N515 N 0.54699 0.15864 0.54608
 C516 C 0.54139 0.16639 0.55803
 C517 C 0.54148 0.19252 0.58406
 N518 N 0.54715 0.20448 0.59175
 C519 C 0.55943 0.20981 0.58436
 H520 H 0.58968 0.21859 0.56569
 H521 H 0.58955 0.18456 0.53178
 H522 H 0.56635 0.16206 0.53152
 H523 H 0.53191 0.16283 0.56488
 H524 H 0.53198 0.18570 0.58766
 H525 H 0.56655 0.21899 0.58824
 C526 C 0.07297 0.56142 0.69974
 C527 C 0.06153 0.57237 0.69989
 C528 C 0.05028 0.57207 0.68900
 C529 C 0.05033 0.56081 0.67783
 C530 C 0.06164 0.54998 0.67768
 C531 C 0.07302 0.55029 0.68870
 C532 C 0.08585 0.55956 0.70827
 N533 N 0.09357 0.54761 0.70266
 C534 C 0.08593 0.54185 0.69071
 C535 C 0.05946 0.54117 0.66502
 N536 N 0.04715 0.54642 0.65762
 C537 C 0.04147 0.55841 0.66525
 C538 C 0.04135 0.58461 0.69123
 N539 N 0.04693 0.59238 0.70319
 C540 C 0.05925 0.58510 0.70858
 H541 H 0.08955 0.56662 0.71758
 H542 H 0.08971 0.53251 0.68375
 H543 H 0.06657 0.53198 0.66119
 H544 H 0.03194 0.56516 0.66164
 H545 H 0.03183 0.58811 0.68439
 H546 H 0.06629 0.58905 0.71778
 C547 C 0.67655 0.55177 0.06241
 C548 C 0.68756 0.55197 0.07381
 C549 C 0.69838 0.56329 0.07406
 C550 C 0.69832 0.57456 0.06290
 C551 C 0.68743 0.57437 0.05164
 C552 C 0.67649 0.56291 0.05139
 C553 C 0.66411 0.54276 0.05996
 N554 N 0.65663 0.54818 0.04776
 C555 C 0.66401 0.56048 0.04242
 C556 C 0.68952 0.58711 0.04295
 N557 N 0.70138 0.59490 0.04869
 C558 C 0.70685 0.58742 0.06087
 C559 C 0.70700 0.56119 0.08685
 N560 N 0.70163 0.54890 0.09424
 C561 C 0.68977 0.54317 0.08646
 H562 H 0.66048 0.53328 0.06681
 H563 H 0.66029 0.56740 0.03303
 H564 H 0.68271 0.59068 0.03343
 H565 H 0.71607 0.59128 0.06794
 H566 H 0.71618 0.56828 0.09074
 H567 H 0.68302 0.53358 0.08998
 C568 C 0.06204 0.70010 0.57195
 C569 C 0.07340 0.69980 0.56092
 C570 C 0.07333 0.68866 0.54989
 C571 C 0.06188 0.67769 0.54976
 C572 C 0.05066 0.67800 0.56066
 C573 C 0.05073 0.68927 0.57182
 C574 C 0.05987 0.70894 0.58460
 N575 N 0.04757 0.70369 0.59200
 C576 C 0.04188 0.69168 0.58438
 C577 C 0.04170 0.66546 0.55842
 N578 N 0.04725 0.65769 0.54645
 C579 C 0.05957 0.66498 0.54107
 C580 C 0.08618 0.69053 0.54134
 N581 N 0.09391 0.70251 0.54693
 C582 C 0.08630 0.70826 0.55889
 H583 H 0.06698 0.71815 0.58841
 H584 H 0.03234 0.68493 0.58800
 H585 H 0.03218 0.66196 0.56525
 H586 H 0.06659 0.66104 0.53185
 H587 H 0.08986 0.68348 0.53203
 H588 H 0.09009 0.71762 0.56583
 C589 C 0.56026 1.04933 0.67834
 C590 C 0.57143 1.04937 0.68958
 C591 C 0.57140 1.06047 0.70065
 C592 C 0.56019 1.07167 0.70061
 C593 C 0.54915 1.07164 0.68949
 C594 C 0.54918 1.06040 0.67829
 C595 C 0.55816 1.04061 0.66560
 N596 N 0.54611 1.04615 0.65798
 C597 C 0.54052 1.05824 0.66553
 C598 C 0.54045 1.08437 0.69158
 N599 N 0.54598 1.09198 0.70368
 C600 C 0.55804 1.08443 0.70929
 C601 C 0.58410 1.05836 0.70939
 N602 N 0.59170 1.04629 0.70386
 C603 C 0.58415 1.04070 0.69177
 H604 H 0.56516 1.03128 0.66189
 H605 H 0.53121 1.06522 0.66176
 H606 H 0.53114 1.08808 0.68456
 H607 H 0.56500 1.08819 0.71864
 H608 H 0.58781 1.06537 0.71872
 H609 H 0.58791 1.03135 0.68481
 C610 C 0.44887 0.32409 0.93724
 C611 C 0.44889 0.31285 0.92606
 C612 C 0.43802 0.30156 0.92626
 C613 C 0.42702 0.30139 0.93764
 C614 C 0.42700 0.31250 0.94870
 C615 C 0.43799 0.32391 0.94850
 C616 C 0.45745 0.33693 0.93930
 N617 N 0.45200 0.34439 0.95151
 C618 C 0.44011 0.33664 0.95723
 C619 C 0.41451 0.31010 0.95765
 N620 N 0.40708 0.29785 0.95226
 C621 C 0.41453 0.29242 0.94005
 C622 C 0.44018 0.29279 0.91357
 N623 N 0.45205 0.29850 0.90582
 C624 C 0.45747 0.31074 0.91325
 H625 H 0.46666 0.34077 0.93223
 H626 H 0.43329 0.34021 0.96674
 H627 H 0.41082 0.31702 0.96705
 H628 H 0.41086 0.28298 0.93316
 H629 H 0.43338 0.28325 0.91002
 H630 H 0.46668 0.31781 0.90939
 C631 C 0.94865 0.43664 0.32442
 C632 C 0.94868 0.42548 0.31315
 C633 C 0.93784 0.42573 0.30184
 C634 C 0.92685 0.43713 0.30167
 C635 C 0.92681 0.44815 0.31281
 C636 C 0.93777 0.44791 0.32426
 C637 C 0.95721 0.43865 0.33728
 N638 N 0.95175 0.45084 0.34477
 C639 C 0.93988 0.45660 0.33701
 C640 C 0.91434 0.45712 0.31042
 N641 N 0.90694 0.45178 0.29813
 C642 C 0.91439 0.43957 0.29268
 C643 C 0.94001 0.41307 0.29303
 N644 N 0.95187 0.40529 0.29874
 C645 C 0.95727 0.41268 0.31102
 H646 H 0.96641 0.43157 0.34111
 H647 H 0.93307 0.46611 0.34059
 H648 H 0.91064 0.46651 0.31735
 H649 H 0.91073 0.43273 0.28320
 H650 H 0.93324 0.40955 0.28346
 H651 H 0.96646 0.40880 0.31810
 C652 C 0.30302 0.93788 0.42522
 C653 C 0.30283 0.92692 0.43667
 C654 C 0.31396 0.92690 0.44768
 C655 C 0.32541 0.93785 0.44739
 C656 C 0.32560 0.94870 0.43608
 C657 C 0.31433 0.94872 0.42493
 C658 C 0.29417 0.94006 0.41260
 N659 N 0.29988 0.95192 0.40479
 C660 C 0.31219 0.95731 0.41212
 C661 C 0.33843 0.95729 0.43810
 N662 N 0.34588 0.95187 0.45033
 C663 C 0.33812 0.94001 0.45611
 C664 C 0.31152 0.91447 0.45673
 N665 N 0.29921 0.90708 0.45144
 C666 C 0.29380 0.91450 0.43919
 H667 H 0.28457 0.93329 0.40914
 H668 H 0.31926 0.96652 0.40822
 H669 H 0.34226 0.96650 0.43100
 H670 H 0.34166 0.93323 0.46568
 H671 H 0.31842 0.91080 0.46615
 H672 H 0.28431 0.91085 0.43238
 O673 O 0.25083 0.48021 0.79073
 O674 O 0.22505 0.48218 0.78586
 O675 O 0.26902 0.45947 0.75097
 O676 O 0.26952 0.46400 0.72608
 O677 O 0.29021 0.49911 0.76984
 O678 O 0.28462 0.52547 0.76873
 O679 O 0.22998 0.50051 0.71098
 O680 O 0.23296 0.47480 0.71520
 O681 O 0.21042 0.51927 0.74938
 O682 O 0.21571 0.51829 0.77660
 O683 O 0.24876 0.53934 0.73096
 O684 O 0.27571 0.53418 0.73165
 O685 O 0.24815 0.51878 0.71092
 O686 O 0.27618 0.51725 0.71642
 O687 O 0.23068 0.53946 0.74923
 O688 O 0.23242 0.53374 0.77708
 O689 O 0.21044 0.50132 0.73092
 O690 O 0.21538 0.47397 0.73593
 O691 O 0.26875 0.49877 0.79086
 O692 O 0.26753 0.52560 0.78517
 O693 O 0.29029 0.48091 0.75161
 O694 O 0.28408 0.48338 0.72427
 O695 O 0.25122 0.45948 0.76956
 O696 O 0.22399 0.46545 0.76619
 Zr697 Zr 0.24177 0.48135 0.76877
 O698 O 0.22726 0.49489 0.75564
 Zr699 Zr 0.26841 0.48158 0.74224
 O700 O 0.25476 0.49467 0.72781
 Zr701 Zr 0.26823 0.50809 0.76890
 O702 O 0.25499 0.52259 0.75544
 Zr703 Zr 0.23183 0.49112 0.73268
 O704 O 0.24544 0.47640 0.74573
 Zr705 Zr 0.23205 0.51788 0.75914
 O706 O 0.24530 0.50440 0.77378
 Zr707 Zr 0.25842 0.51768 0.73242
 O708 O 0.27329 0.50460 0.74590
 O709 O 0.26463 0.48522 0.76509
 O710 O 0.23551 0.51414 0.73618
 C711 C 0.26121 0.48807 0.79718
 C712 C 0.26155 0.45309 0.76165
 C713 C 0.29662 0.48861 0.76217
 C714 C 0.23733 0.51134 0.70472
 C715 C 0.20421 0.51204 0.73844
 C716 C 0.23803 0.54564 0.73837
 H717 H 0.21665 0.49240 0.75806
 H718 H 0.25752 0.53321 0.75785
 H719 H 0.27109 0.47875 0.77153
 H720 H 0.25699 0.49209 0.71716
 H721 H 0.23621 0.46522 0.71999
 H722 H 0.26178 0.46622 0.71835
 H723 H 0.24094 0.54076 0.77529
 H724 H 0.25765 0.52477 0.79033
 H725 H 0.20822 0.47438 0.72731
 H726 H 0.22493 0.45765 0.77420
 H727 H 0.27535 0.53992 0.74124
 H728 H 0.28934 0.52523 0.75859
 H729 H 0.22528 0.49254 0.79010
 H730 H 0.20961 0.50896 0.77576
 H731 H 0.29009 0.49264 0.72611
 H732 H 0.27420 0.50886 0.70929
 O733 O 0.24886 0.04023 0.23035
 O734 O 0.27463 0.03538 0.23231
 O735 O 0.23059 0.00042 0.20974
 O736 O 0.23007 -0.02446 0.21434
 O737 O 0.20949 0.01932 0.24942
 O738 O 0.21520 0.01835 0.27573
 O739 O 0.26966 -0.03948 0.25074
 O740 O 0.26667 -0.03527 0.22506
 O741 O 0.28934 -0.00101 0.26945
 O742 O 0.28406 0.02624 0.26836
 O743 O 0.25115 -0.01942 0.28961
 O744 O 0.22411 -0.01870 0.28453
 O745 O 0.25157 -0.03951 0.26907
 O746 O 0.22357 -0.03400 0.26768
 O747 O 0.26918 -0.00109 0.28965
 O748 O 0.26743 0.02672 0.28388
 O749 O 0.28923 -0.01954 0.25158
 O750 O 0.28427 -0.01455 0.22421
 O751 O 0.23098 0.04041 0.24892
 O752 O 0.23229 0.03480 0.27577
 O753 O 0.20935 0.00106 0.23125
 O754 O 0.21557 -0.02624 0.23371
 O755 O 0.24842 0.01900 0.20969
 O756 O 0.27564 0.01568 0.21562
 Zr757 Zr 0.25790 0.01828 0.23154
 O758 O 0.27245 0.00520 0.24508
 Zr759 Zr 0.23124 -0.00825 0.23187
 O760 O 0.24492 -0.02265 0.24497
 Zr761 Zr 0.23152 0.01847 0.25831
 O762 O 0.24480 0.00505 0.27283
 Zr763 Zr 0.26784 -0.01778 0.24137
 O764 O 0.25420 -0.00477 0.22664
 Zr765 Zr 0.26773 0.00876 0.26805
 O766 O 0.25444 0.02335 0.25457
 Zr767 Zr 0.24135 -0.01799 0.26798
 O768 O 0.22645 -0.00455 0.25489
 O769 O 0.23504 0.01461 0.23545
 O770 O 0.26424 -0.01422 0.26438
 C771 C 0.23851 0.04670 0.23820
 C772 C 0.23807 0.01107 0.20332
 C773 C 0.20303 0.01160 0.23897
 C774 C 0.26234 -0.04574 0.26158
 C775 C 0.29550 -0.01199 0.26227
 C776 C 0.26190 -0.01197 0.29586
 H777 H 0.28305 0.00761 0.24256
 H778 H 0.24231 0.00748 0.28344
 H779 H 0.22856 0.02102 0.22898
 H780 H 0.24267 -0.03330 0.24242
 H781 H 0.26340 -0.03049 0.21547
 H782 H 0.23784 -0.03216 0.21654
 H783 H 0.25891 0.02497 0.29090
 H784 H 0.24217 0.03996 0.27490
 H785 H 0.29143 -0.02315 0.22464
 H786 H 0.27469 0.02369 0.20781
 H787 H 0.22459 -0.00915 0.29033
 H788 H 0.21054 0.00817 0.27561
 H789 H 0.27444 0.03965 0.24266
 H790 H 0.29020 0.02533 0.25907
 H791 H 0.20962 -0.02442 0.24301
 H792 H 0.22545 -0.04109 0.25924
 O793 O 0.48020 0.79093 0.25118
 O794 O 0.48224 0.78602 0.22536
 O795 O 0.45952 0.75125 0.26947
 O796 O 0.46404 0.72636 0.27007
 O797 O 0.49916 0.77013 0.29067
 O798 O 0.52544 0.76907 0.28504
 O799 O 0.50050 0.71114 0.23051
 O800 O 0.47482 0.71538 0.23347
 O801 O 0.51926 0.74948 0.21082
 O802 O 0.51824 0.77674 0.21603
 O803 O 0.53924 0.73113 0.24920
 O804 O 0.53409 0.73198 0.27628
 O805 O 0.51874 0.71113 0.24871
 O806 O 0.51724 0.71668 0.27675
 O807 O 0.53937 0.74938 0.23107
 O808 O 0.53369 0.77725 0.23278
 O809 O 0.50136 0.73099 0.21091
 O810 O 0.47402 0.73605 0.21579
 O811 O 0.49872 0.79112 0.26914
 O812 O 0.52553 0.78546 0.26788
 O813 O 0.48096 0.75193 0.29080
 O814 O 0.48337 0.72457 0.28465
 O815 O 0.45954 0.76976 0.25156
 O816 O 0.46552 0.76635 0.22432
 Zr817 Zr 0.48138 0.76896 0.24214
 O818 O 0.49490 0.75580 0.22765
 Zr819 Zr 0.48160 0.74251 0.26891
 O820 O 0.49466 0.72804 0.25528
 Zr821 Zr 0.50807 0.76917 0.26865
 O822 O 0.52255 0.75567 0.25543
 Zr823 Zr 0.49113 0.73285 0.23230
 O824 O 0.47643 0.74594 0.24589
 Zr825 Zr 0.51784 0.75932 0.23244
 O826 O 0.50439 0.77399 0.24567
 Zr827 Zr 0.51764 0.73266 0.25893
 O828 O 0.50458 0.74618 0.27378
 O829 O 0.48524 0.76535 0.26505
 O830 O 0.51410 0.73637 0.23599
 C831 C 0.48802 0.79740 0.26158
 C832 C 0.45315 0.76189 0.26193
 C833 C 0.48868 0.76247 0.29713
 C834 C 0.51131 0.70490 0.23788
 C835 C 0.51208 0.73848 0.20466
 C836 C 0.54551 0.73851 0.23842
 H837 H 0.49242 0.75818 0.21701
 H838 H 0.53315 0.75808 0.25795
 H839 H 0.47878 0.77179 0.27152
 H840 H 0.49209 0.71740 0.25754
 H841 H 0.46525 0.72018 0.23670
 H842 H 0.46623 0.71862 0.26231
 H843 H 0.54070 0.77547 0.24130
 H844 H 0.52467 0.79060 0.25798
 H845 H 0.47446 0.72743 0.20863
 H846 H 0.45775 0.77438 0.22523
 H847 H 0.53996 0.74149 0.27576
 H848 H 0.52528 0.75891 0.28974
 H849 H 0.49257 0.79028 0.22561
 H850 H 0.50894 0.77586 0.20990
 H851 H 0.49264 0.72640 0.29064
 H852 H 0.50882 0.70959 0.27482
 O853 O 0.04023 0.73050 0.74865
 O854 O 0.03538 0.73247 0.77448
 O855 O 0.00057 0.70980 0.73033
 O856 O -0.02427 0.71434 0.72975
 O857 O 0.01940 0.74955 0.70924
 O858 O 0.01833 0.77586 0.71494
 O859 O -0.03939 0.75075 0.76945
 O860 O -0.03516 0.72504 0.76639
 O861 O -0.00108 0.76950 0.78917
 O862 O 0.02613 0.76850 0.78392
 O863 O -0.01948 0.78960 0.75089
 O864 O -0.01868 0.78453 0.72379
 O865 O -0.03945 0.76906 0.75131
 O866 O -0.03394 0.76763 0.72325
 O867 O -0.00123 0.78969 0.76901
 O868 O 0.02659 0.78403 0.76724
 O869 O -0.01953 0.75157 0.78904
 O870 O -0.01449 0.72421 0.78406
 O871 O 0.04039 0.74909 0.73076
 O872 O 0.03473 0.77594 0.73211
 O873 O 0.00123 0.73131 0.70906
 O874 O -0.02607 0.73373 0.71524
 O875 O 0.01910 0.70979 0.74822
 O876 O 0.01575 0.71572 0.77548
 Zr877 Zr 0.01832 0.73164 0.75771
 O878 O 0.00520 0.74515 0.77226
 Zr879 Zr -0.00814 0.73192 0.73096
 O880 O -0.02257 0.74497 0.74465
 Zr881 Zr 0.01847 0.75844 0.73129
 O882 O 0.00501 0.77291 0.74457
 Zr883 Zr -0.01772 0.74138 0.76761
 O884 O -0.00467 0.72669 0.75396
 Zr885 Zr 0.00870 0.76814 0.76754
 O886 O 0.02333 0.75470 0.75426
 Zr887 Zr -0.01796 0.76799 0.74107
 O888 O -0.00449 0.75495 0.72617
 O889 O 0.01467 0.73556 0.73481
 O890 O -0.01422 0.76440 0.76400
 C891 C 0.04668 0.73836 0.73828
 C892 C 0.01121 0.70340 0.73784
 C893 C 0.01175 0.73906 0.70276
 C894 C -0.04564 0.76160 0.76212
 C895 C -0.01204 0.76229 0.79532
 C896 C -0.01211 0.79586 0.76169
 H897 H 0.00760 0.74264 0.78289
 H898 H 0.00741 0.78353 0.74208
 H899 H 0.02109 0.72910 0.72833
 H900 H -0.03319 0.74240 0.74238
 H901 H -0.03037 0.71547 0.76312
 H902 H -0.03198 0.71652 0.73752
 H903 H 0.02480 0.79107 0.75874
 H904 H 0.03988 0.77505 0.74200
 H905 H -0.02309 0.72462 0.79121
 H906 H 0.02376 0.70794 0.77454
 H907 H -0.00919 0.79039 0.72432
 H908 H 0.00818 0.77570 0.71026
 H909 H 0.03963 0.74282 0.77427
 H910 H 0.02526 0.75918 0.79004
 H911 H -0.02425 0.74302 0.70927
 H912 H -0.04103 0.75920 0.72517
 O913 O 0.04023 0.01976 0.00134
 O914 O 0.03528 0.01778 -0.02444
 O915 O 0.00061 0.04044 0.01975
 O916 O -0.02424 0.03587 0.02033
 O917 O 0.01948 0.00077 0.04088
 O918 O 0.01846 -0.02554 0.03523
 O919 O -0.03945 -0.00064 -0.01924
 O920 O -0.03520 0.02508 -0.01627
 O921 O -0.00124 -0.01946 -0.03895
 O922 O 0.02603 -0.01829 -0.03382
 O923 O -0.01940 -0.03947 -0.00060
 O924 O -0.01859 -0.03428 0.02647
 O925 O -0.03943 -0.01897 -0.00111
 O926 O -0.03390 -0.01745 0.02693
 O927 O -0.00116 -0.03956 -0.01871
 O928 O 0.02661 -0.03376 -0.01709
 O929 O -0.01969 -0.00154 -0.03884
 O930 O -0.01459 0.02586 -0.03398
 O931 O 0.04044 0.00123 0.01930
 O932 O 0.03479 -0.02562 0.01806
 O933 O 0.00127 0.01895 0.04105
 O934 O -0.02602 0.01651 0.03489
 O935 O 0.01908 0.04045 0.00183
 O936 O 0.01562 0.03447 -0.02542
 Zr937 Zr 0.01827 0.01858 -0.00763
 O938 O 0.00513 0.00502 -0.02214
 Zr939 Zr -0.00810 0.01831 0.01915
 O940 O -0.02256 0.00520 0.00551
 Zr941 Zr 0.01853 -0.00815 0.01884
 O942 O 0.00505 -0.02268 0.00562
 Zr943 Zr -0.01778 0.00875 -0.01747
 O944 O -0.00471 0.02350 -0.00386
 Zr945 Zr 0.00867 -0.01795 -0.01737
 O946 O 0.02331 -0.00445 -0.00413
 Zr947 Zr -0.01793 -0.01781 0.00913
 O948 O -0.00443 -0.00470 0.02399
 O949 O 0.01470 0.01471 0.01528
 O950 O -0.01424 -0.01425 -0.01381
 C951 C 0.04672 0.01192 0.01170
 C952 C 0.01123 0.04684 0.01222
 C953 C 0.01180 0.01122 0.04737
 C954 C -0.04566 -0.01151 -0.01192
 C955 C -0.01224 -0.01230 -0.04509
 C956 C -0.01200 -0.04576 -0.01136
 H957 H 0.00749 0.00751 -0.03278
 H958 H 0.00748 -0.03329 0.00813
 H959 H 0.02114 0.02118 0.02175
 H960 H -0.03318 0.00775 0.00778
 H961 H -0.03039 0.03467 -0.01305
 H962 H -0.03196 0.03366 0.01257
 H963 H 0.02491 -0.04075 -0.00853
 H964 H 0.03992 -0.02476 0.00816
 H965 H -0.02321 0.02541 -0.04113
 H966 H 0.02362 0.04228 -0.02451
 H967 H -0.00909 -0.04012 0.02596
 H968 H 0.00832 -0.02541 0.03993
 H969 H 0.03947 0.00741 -0.02429
 H970 H 0.02504 -0.00904 -0.04002
 H971 H -0.02421 0.00721 0.04084
 H972 H -0.04099 -0.00903 0.02501
 O973 O 0.04009 0.51972 0.50076
 O974 O 0.03521 0.51768 0.47493
 O975 O 0.00048 0.54046 0.51901
 O976 O -0.02438 0.53594 0.51953
 O977 O 0.01923 0.50076 0.54021
 O978 O 0.01815 0.47444 0.53456
 O979 O -0.03960 0.49945 0.47998
 O980 O -0.03529 0.52514 0.48291
 O981 O -0.00129 0.48059 0.46031
 O982 O 0.02590 0.48161 0.46555
 O983 O -0.01967 0.46058 0.49866
 O984 O -0.01890 0.46575 0.52571
 O985 O -0.03966 0.48117 0.49816
 O986 O -0.03411 0.48264 0.52620
 O987 O -0.00140 0.46044 0.48058
 O988 O 0.02640 0.46617 0.48229
 O989 O -0.01973 0.49852 0.46038
 O990 O -0.01464 0.52589 0.46527
 O991 O 0.04022 0.50119 0.51872
 O992 O 0.03454 0.47433 0.51742
 O993 O 0.00107 0.51899 0.54032
 O994 O -0.02622 0.51659 0.53412
 O995 O 0.01899 0.54042 0.50113
 O996 O 0.01560 0.53443 0.47388
 Zr997 Zr 0.01816 0.51855 0.49169
 O998 O 0.00502 0.50500 0.47716
 Zr999 Zr -0.00828 0.51834 0.51841
 O1000 O -0.02272 0.50525 0.50474
 Zr1001 Zr 0.01830 0.49183 0.51817
 O1002 O 0.00482 0.47732 0.50493
 Zr1003 Zr -0.01789 0.50878 0.48177
 O1004 O -0.00482 0.52351 0.49540
 Zr1005 Zr 0.00850 0.48202 0.48195
 O1006 O 0.02315 0.49550 0.49520
 Zr1007 Zr -0.01815 0.48224 0.50839
 O1008 O -0.00466 0.49533 0.52327
 O1009 O 0.01452 0.51469 0.51459
 O1010 O -0.01442 0.48576 0.48545
 C1011 C 0.04652 0.51190 0.51116
 C1012 C 0.01113 0.54683 0.51150
 C1013 C 0.01158 0.51125 0.54666
 C1014 C -0.04586 0.48864 0.48736
 C1015 C -0.01224 0.48779 0.45413
 C1016 C -0.01226 0.45427 0.48792
 H1017 H 0.00742 0.50748 0.46653
 H1018 H 0.00722 0.46670 0.50745
 H1019 H 0.02095 0.52116 0.52107
 H1020 H -0.03334 0.50784 0.50700
 H1021 H -0.03048 0.53472 0.48616
 H1022 H -0.03210 0.53373 0.51177
 H1023 H 0.02464 0.45917 0.49084
 H1024 H 0.03971 0.47521 0.50754
 H1025 H -0.02324 0.52546 0.45810
 H1026 H 0.02362 0.54221 0.47480
 H1027 H -0.00938 0.45992 0.52525
 H1028 H 0.00801 0.47461 0.53925
 H1029 H 0.03945 0.50733 0.47517
 H1030 H 0.02506 0.49093 0.45944
 H1031 H -0.02442 0.50731 0.54010
 H1032 H -0.04117 0.49109 0.52428
 O1033 O 0.50116 0.04085 0.51996
 O1034 O 0.47541 0.03595 0.51796
 O1035 O 0.51937 0.00118 0.54087
 O1036 O 0.51997 -0.02371 0.53639
 O1037 O 0.54059 0.01992 0.50116
 O1038 O 0.53501 0.01873 0.47484
 O1039 O 0.48047 -0.03903 0.49991
 O1040 O 0.48337 -0.03465 0.52560
 O1041 O 0.46087 -0.00073 0.48090
 O1042 O 0.46607 0.02651 0.48188
 O1043 O 0.49918 -0.01917 0.46102
 O1044 O 0.52617 -0.01840 0.46623
 O1045 O 0.49863 -0.03914 0.48165
 O1046 O 0.52663 -0.03359 0.48318
 O1047 O 0.48113 -0.00087 0.46080
 O1048 O 0.48282 0.02700 0.46647
 O1049 O 0.46090 -0.01914 0.49888
 O1050 O 0.46574 -0.01396 0.52626
 O1051 O 0.51910 0.04093 0.50144
 O1052 O 0.51790 0.03514 0.47462
 O1053 O 0.54069 0.00178 0.51943
 O1054 O 0.53450 -0.02559 0.51707
 O1055 O 0.50155 0.01975 0.54077
 O1056 O 0.47434 0.01634 0.53474
 Zr1057 Zr 0.49214 0.01887 0.51888
 O1058 O 0.47765 0.00568 0.50534
 Zr1059 Zr 0.51882 -0.00761 0.51877
 O1060 O 0.50519 -0.02212 0.50571
 Zr1061 Zr 0.51861 0.01894 0.49218
 O1062 O 0.50540 0.00540 0.47770
 Zr1063 Zr 0.48225 -0.01727 0.50919
 O1064 O 0.49584 -0.00414 0.52390
 Zr1065 Zr 0.48245 0.00910 0.48236
 O1066 O 0.49567 0.02380 0.49582
 Zr1067 Zr 0.50886 -0.01760 0.48269
 O1068 O 0.52370 -0.00405 0.49575
 O1069 O 0.51501 0.01522 0.51506
 O1070 O 0.48595 -0.01385 0.48617
 C1071 C 0.51153 0.04728 0.51210
 C1072 C 0.51187 0.01186 0.54721
 C1073 C 0.54702 0.01229 0.51168
 C1074 C 0.48783 -0.04533 0.48912
 C1075 C 0.45468 -0.01169 0.48811
 C1076 C 0.48847 -0.01176 0.45468
 H1077 H 0.46703 0.00809 0.50780
 H1078 H 0.50794 0.00777 0.46708
 H1079 H 0.52146 0.02169 0.52152
 H1080 H 0.50743 -0.03275 0.50832
 H1081 H 0.48658 -0.02980 0.53517
 H1082 H 0.51215 -0.03140 0.53425
 H1083 H 0.49134 0.02520 0.45948
 H1084 H 0.50802 0.04030 0.47544
 H1085 H 0.45859 -0.02258 0.52584
 H1086 H 0.47526 0.02438 0.54251
 H1087 H 0.52574 -0.00887 0.46040
 H1088 H 0.53970 0.00858 0.47506
 H1089 H 0.47561 0.04012 0.50758
 H1090 H 0.45994 0.02567 0.49118
 H1091 H 0.54051 -0.02379 0.50781
 H1092 H 0.52469 -0.04066 0.49162
 O1093 O 0.54020 0.51935 0.00086
 O1094 O 0.53528 0.51731 -0.02496
 O1095 O 0.50063 0.54011 0.01918
 O1096 O 0.47575 0.53562 0.01968
 O1097 O 0.51941 0.50050 0.04036
 O1098 O 0.51826 0.47414 0.03477
 O1099 O 0.46049 0.49910 -0.01979
 O1100 O 0.46481 0.52479 -0.01689
 O1101 O 0.49876 0.48020 -0.03948
 O1102 O 0.52597 0.48123 -0.03427
 O1103 O 0.48044 0.46023 -0.00110
 O1104 O 0.48121 0.46541 0.02592
 O1105 O 0.46044 0.48083 -0.00160
 O1106 O 0.46603 0.48234 0.02644
 O1107 O 0.49869 0.46007 -0.01919
 O1108 O 0.52648 0.46580 -0.01753
 O1109 O 0.48034 0.49814 -0.03942
 O1110 O 0.48544 0.52552 -0.03456
 O1111 O 0.54035 0.50084 0.01884
 O1112 O 0.53465 0.47399 0.01762
 O1113 O 0.50124 0.51871 0.04047
 O1114 O 0.47393 0.51627 0.03431
 O1115 O 0.51914 0.54006 0.00129
 O1116 O 0.51566 0.53408 -0.02597
 Zr1117 Zr 0.51826 0.51819 -0.00817
 O1118 O 0.50511 0.50463 -0.02267
 Zr1119 Zr 0.49185 0.51802 0.01858
 O1120 O 0.47738 0.50491 0.00494
 Zr1121 Zr 0.51842 0.49149 0.01835
 O1122 O 0.50493 0.47698 0.00513
 Zr1123 Zr 0.48220 0.50842 -0.01804
 O1124 O 0.49528 0.52317 -0.00444
 Zr1125 Zr 0.50859 0.48166 -0.01786
 O1126 O 0.52325 0.49515 -0.00463
 Zr1127 Zr 0.48196 0.48190 0.00860
 O1128 O 0.49547 0.49500 0.02346
 O1129 O 0.51464 0.51435 0.01474
 O1130 O 0.48567 0.48541 -0.01434
 C1131 C 0.54664 0.51153 0.01127
 C1132 C 0.51130 0.54647 0.01168
 C1133 C 0.51178 0.51102 0.04680
 C1134 C 0.45423 0.48830 -0.01241
 C1135 C 0.48781 0.48740 -0.04566
 C1136 C 0.48784 0.45391 -0.01183
 H1137 H 0.50750 0.50710 -0.03330
 H1138 H 0.50733 0.46637 0.00766
 H1139 H 0.52109 0.52082 0.02120
 H1140 H 0.46677 0.50750 0.00720
 H1141 H 0.46963 0.53437 -0.01365
 H1142 H 0.46799 0.53337 0.01196
 H1143 H 0.52474 0.45882 -0.00897
 H1144 H 0.53980 0.47483 0.00772
 H1145 H 0.47682 0.52508 -0.04172
 H1146 H 0.52369 0.54186 -0.02506
 H1147 H 0.49076 0.45965 0.02552
 H1148 H 0.50814 0.47436 0.03950
 H1149 H 0.53951 0.50696 -0.02472
 H1150 H 0.52510 0.49054 -0.04041
 H1151 H 0.47575 0.50701 0.04032
 H1152 H 0.45896 0.49077 0.02451
 O1153 O 0.77022 0.29037 0.49908
 O1154 O 0.76822 0.28551 0.52488
 O1155 O 0.79082 0.25060 0.48081
 O1156 O 0.78625 0.22570 0.48039
 O1157 O 0.75132 0.26946 0.45957
 O1158 O 0.72502 0.26847 0.46514
 O1159 O 0.74971 0.21067 0.51987
 O1160 O 0.77537 0.21485 0.51694
 O1161 O 0.73103 0.24913 0.53945
 O1162 O 0.73213 0.27635 0.53418
 O1163 O 0.71098 0.23077 0.50101
 O1164 O 0.71620 0.23138 0.47403
 O1165 O 0.73146 0.21064 0.50167
 O1166 O 0.73301 0.21610 0.47361
 O1167 O 0.71089 0.24909 0.51910
 O1168 O 0.71674 0.27688 0.51743
 O1169 O 0.74890 0.23064 0.53945
 O1170 O 0.77623 0.23559 0.53455
 O1171 O 0.75175 0.29054 0.48107
 O1172 O 0.72493 0.28492 0.48226
 O1173 O 0.76942 0.25118 0.45951
 O1174 O 0.76692 0.22387 0.46574
 O1175 O 0.79084 0.26919 0.49866
 O1176 O 0.78487 0.26580 0.52593
 Zr1177 Zr 0.76901 0.26842 0.50812
 O1178 O 0.75542 0.25534 0.52263
 Zr1179 Zr 0.76873 0.24188 0.48143
 O1180 O 0.75559 0.22748 0.49508
 Zr1181 Zr 0.74235 0.26860 0.48158
 O1182 O 0.72781 0.25518 0.49481
 Zr1183 Zr 0.75912 0.23236 0.51805
 O1184 O 0.77389 0.24537 0.50444
 Zr1185 Zr 0.73250 0.25889 0.51781
 O1186 O 0.74602 0.27348 0.50455
 Zr1187 Zr 0.73264 0.23214 0.49139
 O1188 O 0.74576 0.24557 0.47652
 O1189 O 0.76516 0.26474 0.48521
 O1190 O 0.73615 0.23591 0.51434
 C1191 C 0.76243 0.29683 0.48867
 C1192 C 0.79720 0.26128 0.48829
 C1193 C 0.76176 0.26173 0.45314
 C1194 C 0.73889 0.20442 0.51250
 C1195 C 0.73822 0.23819 0.54568
 C1196 C 0.70468 0.23826 0.51171
 H1197 H 0.75791 0.25776 0.53326
 H1198 H 0.71723 0.25762 0.49226
 H1199 H 0.77163 0.27116 0.47874
 H1200 H 0.75813 0.21683 0.49285
 H1201 H 0.78495 0.21962 0.51370
 H1202 H 0.78396 0.21794 0.48809
 H1203 H 0.70979 0.27516 0.50884
 H1204 H 0.72579 0.29010 0.49214
 H1205 H 0.77578 0.22698 0.54173
 H1206 H 0.79267 0.27380 0.52501
 H1207 H 0.71050 0.24099 0.47438
 H1208 H 0.72520 0.25831 0.46043
 H1209 H 0.75789 0.28977 0.52466
 H1210 H 0.74143 0.27548 0.54033
 H1211 H 0.75766 0.22568 0.45974
 H1212 H 0.74139 0.20897 0.47559
 O1213 O 0.79023 0.75136 -0.02039
 O1214 O 0.78521 0.72555 -0.01849
 O1215 O 0.75068 0.76992 -0.04103
 O1216 O 0.72582 0.77051 -0.03651
 O1217 O 0.76964 0.79086 -0.00133
 O1218 O 0.76853 0.78519 0.02499
 O1219 O 0.71053 0.73087 -0.00008
 O1220 O 0.71472 0.73393 -0.02580
 O1221 O 0.74875 0.71103 0.01860
 O1222 O 0.77597 0.71616 0.01759
 O1223 O 0.73058 0.74942 0.03875
 O1224 O 0.73147 0.77649 0.03368
 O1225 O 0.71058 0.74901 0.01824
 O1226 O 0.71621 0.77707 0.01679
 O1227 O 0.74872 0.73121 0.03881
 O1228 O 0.77655 0.73285 0.03311
 O1229 O 0.73030 0.71121 0.00067
 O1230 O 0.73532 0.71619 -0.02669
 O1231 O 0.79049 0.76926 -0.00179
 O1232 O 0.78484 0.76796 0.02506
 O1233 O 0.75142 0.79113 -0.01952
 O1234 O 0.72409 0.78505 -0.01709
 O1235 O 0.76912 0.75196 -0.04108
 O1236 O 0.76555 0.72468 -0.03522
 Zr1237 Zr 0.76826 0.74241 -0.01926
 O1238 O 0.75509 0.72791 -0.00575
 Zr1239 Zr 0.74195 0.76926 -0.01893
 O1240 O 0.72746 0.75563 -0.00588
 Zr1241 Zr 0.76858 0.76883 0.00757
 O1242 O 0.75507 0.75561 0.02204
 Zr1243 Zr 0.73219 0.73264 -0.00949
 O1244 O 0.74528 0.74625 -0.02419
 Zr1245 Zr 0.75864 0.73262 0.01724
 O1246 O 0.77331 0.74584 0.00380
 Zr1247 Zr 0.73210 0.75920 0.01714
 O1248 O 0.74564 0.77405 0.00410
 O1249 O 0.76473 0.76532 -0.01531
 O1250 O 0.73573 0.73625 0.01352
 C1251 C 0.79673 0.76170 -0.01253
 C1252 C 0.76131 0.76240 -0.04743
 C1253 C 0.76201 0.79738 -0.01181
 C1254 C 0.70434 0.73821 0.01079
 C1255 C 0.73777 0.70490 0.01138
 C1256 C 0.73790 0.73859 0.04500
 H1257 H 0.75743 0.71728 -0.00827
 H1258 H 0.75749 0.75809 0.03266
 H1259 H 0.77120 0.77178 -0.02175
 H1260 H 0.71684 0.75793 -0.00844
 H1261 H 0.71951 0.73718 -0.03537
 H1262 H 0.71805 0.76280 -0.03430
 H1263 H 0.77480 0.74135 0.04016
 H1264 H 0.78994 0.75804 0.02417
 H1265 H 0.72668 0.70907 -0.02628
 H1266 H 0.77356 0.72560 -0.04301
 H1267 H 0.74100 0.77597 0.03949
 H1268 H 0.75842 0.78995 0.02482
 H1269 H 0.78947 0.72572 -0.00814
 H1270 H 0.77507 0.71005 0.00826
 H1271 H 0.72595 0.79101 -0.00779
 H1272 H 0.70908 0.77515 0.00839
 O1273 O 1.04069 0.22999 0.24854
 O1274 O 1.03583 0.23198 0.27434
 O1275 O 1.00101 0.20920 0.23027
 O1276 O 0.97618 0.21374 0.22962
 O1277 O 1.01983 0.24894 0.20908
 O1278 O 1.01874 0.27525 0.21473
 O1279 O 0.96102 0.25016 0.26925
 O1280 O 0.96532 0.22446 0.26629
 O1281 O 0.99932 0.26905 0.28896
 O1282 O 1.02652 0.26805 0.28375
 O1283 O 0.98094 0.28905 0.25061
 O1284 O 0.98169 0.28391 0.22357
 O1285 O 0.96095 0.26845 0.25109
 O1286 O 0.96648 0.26699 0.22305
 O1287 O 0.99922 0.28920 0.26871
 O1288 O 1.02702 0.28350 0.26702
 O1289 O 0.98089 0.25109 0.28887
 O1290 O 0.98598 0.22373 0.28396
 O1291 O 1.04082 0.24855 0.23061
 O1292 O 1.03512 0.27539 0.23188
 O1293 O 1.00168 0.23069 0.20893
 O1294 O 0.97437 0.23309 0.21511
 O1295 O 1.01955 0.20924 0.24814
 O1296 O 1.01621 0.21524 0.27538
 Zr1297 Zr 1.01877 0.23112 0.25757
 O1298 O 1.00564 0.24464 0.27210
 Zr1299 Zr 0.99231 0.23132 0.23083
 O1300 O 0.97787 0.24439 0.24449
 Zr1301 Zr 1.01889 0.25786 0.23111
 O1302 O 1.00542 0.27235 0.24436
 Zr1303 Zr 0.98272 0.24085 0.26747
 O1304 O 0.99578 0.22614 0.25384
 Zr1305 Zr 1.00912 0.26763 0.26734
 O1306 O 1.02375 0.25417 0.25408
 Zr1307 Zr 0.98245 0.26741 0.24087
 O1308 O 0.99593 0.25435 0.22599
 O1309 O 1.01512 0.23498 0.23467
 O1310 O 0.98619 0.26387 0.26381
 C1311 C 1.04713 0.23786 0.23817
 C1312 C 1.01164 0.20282 0.23779
 C1313 C 1.01218 0.23844 0.20261
 C1314 C 0.95475 0.26097 0.26189
 C1315 C 0.98837 0.26183 0.29513
 C1316 C 0.98835 0.29536 0.26137
 H1317 H 1.00804 0.24216 0.28273
 H1318 H 1.00782 0.28296 0.24184
 H1319 H 1.02155 0.22851 0.22820
 H1320 H 0.96725 0.24179 0.24223
 H1321 H 0.97013 0.21489 0.26305
 H1322 H 0.96851 0.21588 0.23744
 H1323 H 1.02525 0.29051 0.25849
 H1324 H 1.04028 0.27453 0.24177
 H1325 H 0.97737 0.22415 0.29112
 H1326 H 1.02422 0.20745 0.27446
 H1327 H 0.99122 0.28973 0.22402
 H1328 H 1.00859 0.27507 0.21002
 H1329 H 1.04004 0.24235 0.27414
 H1330 H 1.02566 0.25873 0.28987
 H1331 H 0.97619 0.24237 0.20911
 H1332 H 0.95941 0.25855 0.22496
 O1333 O 0.74879 1.04020 0.73040
 O1334 O 0.77454 1.03531 0.73241
 O1335 O 0.73050 1.00053 0.70954
 O1336 O 0.72999 0.97561 0.71402
 O1337 O 0.70931 1.01927 0.74922
 O1338 O 0.71490 1.01818 0.77555
 O1339 O 0.76943 0.96041 0.75057
 O1340 O 0.76649 0.96471 0.72485
 O1341 O 0.78902 0.99869 0.76954
 O1342 O 0.78384 1.02599 0.76846
 O1343 O 0.75073 0.98034 0.78942
 O1344 O 0.72369 0.98110 0.78418
 O1345 O 0.75130 0.96033 0.76886
 O1346 O 0.72329 0.96580 0.76731
 O1347 O 0.76878 0.99865 0.78961
 O1348 O 0.76712 1.02648 0.78391
 O1349 O 0.78896 0.98026 0.75156
 O1350 O 0.78415 0.98540 0.72417
 O1351 O 0.73082 1.04032 0.74889
 O1352 O 0.73201 1.03461 0.77572
 O1353 O 0.70920 1.00108 0.73098
 O1354 O 0.71538 0.97376 0.73334
 O1355 O 0.74837 1.01908 0.70964
 O1356 O 0.77557 1.01566 0.71565
 Zr1357 Zr 0.75778 1.01824 0.73152
 O1358 O 0.77226 1.00508 0.74506
 Zr1359 Zr 0.73108 0.99174 0.73164
 O1360 O 0.74470 0.97727 0.74474
 Zr1361 Zr 0.73130 1.01835 0.75819
 O1362 O 0.74450 1.00486 0.77270
 Zr1363 Zr 0.76763 0.98213 0.74124
 O1364 O 0.75406 0.99522 0.72651
 Zr1365 Zr 0.76746 1.00856 0.76803
 O1366 O 0.75424 1.02322 0.75456
 Zr1367 Zr 0.74104 0.98184 0.76775
 O1368 O 0.72621 0.99535 0.75466
 O1369 O 0.73490 1.01458 0.73533
 O1370 O 0.76394 0.98561 0.76425
 C1371 C 0.73841 1.04665 0.73823
 C1372 C 0.73802 1.01120 0.70320
 C1373 C 0.70287 1.01160 0.73871
 C1374 C 0.76211 0.95414 0.76141
 C1375 C 0.79517 0.98770 0.76235
 C1376 C 0.76145 0.98776 0.79575
 H1377 H 0.78289 1.00748 0.74260
 H1378 H 0.74197 1.00726 0.78332
 H1379 H 0.72845 1.02103 0.72887
 H1380 H 0.74245 0.96662 0.74215
 H1381 H 0.76328 0.96954 0.71528
 H1382 H 0.73771 0.96787 0.71625
 H1383 H 0.75856 1.02474 0.79087
 H1384 H 0.74189 1.03977 0.77490
 H1385 H 0.79129 0.97678 0.72461
 H1386 H 0.77466 1.02369 0.70787
 H1387 H 0.72419 0.99060 0.79006
 H1388 H 0.71022 1.00801 0.77536
 H1389 H 0.77436 1.03949 0.74279
 H1390 H 0.79005 1.02505 0.75922
 H1391 H 0.70943 0.97552 0.74265
 H1392 H 0.72523 0.95872 0.75887
 O1393 O 0.79052 0.49874 0.26957
 O1394 O 0.78566 0.52456 0.26756
 O1395 O 0.75090 0.48046 0.29031
 O1396 O 0.72604 0.47988 0.28579
 O1397 O 0.76964 0.45928 0.25058
 O1398 O 0.76853 0.46493 0.22426
 O1399 O 0.71086 0.51949 0.24937
 O1400 O 0.71516 0.51650 0.27508
 O1401 O 0.74907 0.53915 0.23048
 O1402 O 0.77631 0.53397 0.23154
 O1403 O 0.73074 0.50080 0.21047
 O1404 O 0.73147 0.47375 0.21562
 O1405 O 0.71077 0.50136 0.23103
 O1406 O 0.71625 0.47328 0.23253
 O1407 O 0.74902 0.51889 0.21034
 O1408 O 0.77681 0.51723 0.21607
 O1409 O 0.73068 0.53906 0.24846
 O1410 O 0.73582 0.53418 0.27583
 O1411 O 0.79063 0.48079 0.25102
 O1412 O 0.78493 0.48208 0.22417
 O1413 O 0.75150 0.45914 0.26882
 O1414 O 0.72420 0.46532 0.26642
 O1415 O 0.76942 0.49835 0.29029
 O1416 O 0.76606 0.52560 0.28432
 Zr1417 Zr 0.76860 0.50779 0.26842
 O1418 O 0.75545 0.52232 0.25491
 Zr1419 Zr 0.74214 0.48104 0.26820
 O1420 O 0.72769 0.49471 0.25514
 Zr1421 Zr 0.76870 0.48132 0.24167
 O1422 O 0.75522 0.49456 0.22719
 Zr1423 Zr 0.73255 0.51768 0.25870
 O1424 O 0.74562 0.50406 0.27340
 Zr1425 Zr 0.75892 0.51754 0.23193
 O1426 O 0.77356 0.50429 0.24537
 Zr1427 Zr 0.73224 0.49108 0.23212
 O1428 O 0.74574 0.47620 0.24518
 O1429 O 0.76494 0.48489 0.26454
 O1430 O 0.73600 0.51401 0.23569
 C1431 C 0.79694 0.48834 0.26173
 C1432 C 0.76155 0.48798 0.29669
 C1433 C 0.76200 0.45282 0.26108
 C1434 C 0.70459 0.51217 0.23851
 C1435 C 0.73811 0.54530 0.23769
 C1436 C 0.73815 0.51154 0.20417
 H1437 H 0.75785 0.53296 0.25740
 H1438 H 0.75761 0.49204 0.21657
 H1439 H 0.77137 0.47841 0.27100
 H1440 H 0.71706 0.49245 0.25772
 H1441 H 0.71998 0.51326 0.28465
 H1442 H 0.71832 0.48765 0.28361
 H1443 H 0.77507 0.50867 0.20909
 H1444 H 0.79011 0.49197 0.22505
 H1445 H 0.72722 0.54133 0.27541
 H1446 H 0.77409 0.52468 0.29210
 H1447 H 0.74099 0.47420 0.20981
 H1448 H 0.75839 0.46022 0.22445
 H1449 H 0.78986 0.52435 0.25720
 H1450 H 0.77542 0.54012 0.24084
 H1451 H 0.72599 0.45934 0.25712
 H1452 H 0.70916 0.47524 0.24094
 O1453 O 0.50103 0.20906 0.73012
 O1454 O 0.47527 0.21386 0.73208
 O1455 O 0.51919 0.24895 0.70954
 O1456 O 0.51972 0.27380 0.71418
 O1457 O 0.54040 0.23001 0.74915
 O1458 O 0.53477 0.23098 0.77548
 O1459 O 0.48011 0.28871 0.75069
 O1460 O 0.48311 0.28456 0.72497
 O1461 O 0.46057 0.25023 0.76932
 O1462 O 0.46588 0.22301 0.76823
 O1463 O 0.49887 0.26867 0.78946
 O1464 O 0.52584 0.26804 0.78433
 O1465 O 0.49826 0.28876 0.76898
 O1466 O 0.52631 0.28332 0.76745
 O1467 O 0.48082 0.25036 0.78951
 O1468 O 0.48259 0.22253 0.78369
 O1469 O 0.46060 0.26874 0.75143
 O1470 O 0.46554 0.26380 0.72406
 O1471 O 0.51894 0.20890 0.74868
 O1472 O 0.51770 0.21451 0.77553
 O1473 O 0.54047 0.24829 0.73102
 O1474 O 0.53422 0.27560 0.73357
 O1475 O 0.50141 0.23032 0.70946
 O1476 O 0.47418 0.23358 0.71545
 Zr1477 Zr 0.49197 0.23100 0.73133
 O1478 O 0.47743 0.24405 0.74492
 Zr1479 Zr 0.51858 0.25758 0.73169
 O1480 O 0.50490 0.27195 0.74482
 Zr1481 Zr 0.51840 0.23084 0.75809
 O1482 O 0.50515 0.24424 0.77263
 Zr1483 Zr 0.48198 0.26704 0.74124
 O1484 O 0.49562 0.25406 0.72647
 Zr1485 Zr 0.48220 0.24050 0.76789
 O1486 O 0.49548 0.22593 0.75437
 Zr1487 Zr 0.50856 0.26728 0.76781
 O1488 O 0.52344 0.25387 0.75469
 O1489 O 0.51482 0.23471 0.73523
 O1490 O 0.48566 0.26348 0.76424
 C1491 C 0.51140 0.20260 0.73796
 C1492 C 0.51172 0.23829 0.70311
 C1493 C 0.54682 0.23774 0.73870
 C1494 C 0.48744 0.29496 0.76155
 C1495 C 0.45437 0.26119 0.76212
 C1496 C 0.48815 0.26122 0.79573
 H1497 H 0.46682 0.24162 0.74241
 H1498 H 0.50767 0.24181 0.78324
 H1499 H 0.52130 0.22830 0.72874
 H1500 H 0.50712 0.28261 0.74228
 H1501 H 0.48636 0.27980 0.71537
 H1502 H 0.51192 0.28148 0.71638
 H1503 H 0.49110 0.22431 0.79072
 H1504 H 0.50782 0.20935 0.77467
 H1505 H 0.45837 0.27240 0.72450
 H1506 H 0.47513 0.22561 0.70761
 H1507 H 0.52546 0.25844 0.79005
 H1508 H 0.53946 0.24114 0.77533
 H1509 H 0.47545 0.20963 0.74243
 H1510 H 0.45976 0.22388 0.75891
 H1511 H 0.54022 0.27376 0.74283
 H1512 H 0.52431 0.29048 0.75910
 O1513 O 0.29050 0.75147 0.48015
 O1514 O 0.28563 0.72565 0.48214
 O1515 O 0.25082 0.76967 0.45935
 O1516 O 0.22597 0.77025 0.46388
 O1517 O 0.26966 0.79091 0.49902
 O1518 O 0.26850 0.78534 0.52536
 O1519 O 0.21082 0.73066 0.50031
 O1520 O 0.21512 0.73359 0.47462
 O1521 O 0.24913 0.71104 0.51921
 O1522 O 0.27633 0.71629 0.51821
 O1523 O 0.23075 0.74940 0.53920
 O1524 O 0.23146 0.77640 0.53407
 O1525 O 0.21075 0.74885 0.51859
 O1526 O 0.21629 0.77692 0.51710
 O1527 O 0.24902 0.73132 0.53936
 O1528 O 0.27682 0.73304 0.53366
 O1529 O 0.23070 0.71108 0.50126
 O1530 O 0.23579 0.71596 0.47389
 O1531 O 0.29062 0.76942 0.49871
 O1532 O 0.28490 0.76820 0.52554
 O1533 O 0.25149 0.79100 0.48078
 O1534 O 0.22417 0.78482 0.48324
 O1535 O 0.26937 0.75184 0.45940
 O1536 O 0.26601 0.72458 0.46539
 Zr1537 Zr 0.26857 0.74240 0.48127
 O1538 O 0.25544 0.72788 0.49480
 Zr1539 Zr 0.24210 0.76911 0.48147
 O1540 O 0.22767 0.75544 0.49453
 Zr1541 Zr 0.26869 0.76891 0.50800
 O1542 O 0.25522 0.75566 0.52249
 Zr1543 Zr 0.23252 0.73247 0.49100
 O1544 O 0.24558 0.74609 0.47629
 Zr1545 Zr 0.25892 0.73268 0.51778
 O1546 O 0.27355 0.74594 0.50432
 Zr1547 Zr 0.23224 0.75910 0.51755
 O1548 O 0.24573 0.77399 0.50448
 O1549 O 0.26491 0.76530 0.48513
 O1550 O 0.23600 0.73616 0.51402
 C1551 C 0.29693 0.76186 0.48801
 C1552 C 0.26147 0.76218 0.45299
 C1553 C 0.26203 0.79734 0.48849
 C1554 C 0.20455 0.73803 0.51111
 C1555 C 0.23818 0.70484 0.51200
 C1556 C 0.23816 0.73866 0.54551
 H1557 H 0.25785 0.71724 0.49232
 H1558 H 0.25762 0.75819 0.53311
 H1559 H 0.27135 0.77176 0.47866
 H1560 H 0.21705 0.75768 0.49194
 H1561 H 0.21994 0.73684 0.46505
 H1562 H 0.21828 0.76245 0.46605
 H1563 H 0.27505 0.74158 0.54066
 H1564 H 0.29007 0.75832 0.52470
 H1565 H 0.22719 0.70878 0.47431
 H1566 H 0.27402 0.72551 0.45760
 H1567 H 0.24104 0.77605 0.53981
 H1568 H 0.25838 0.79006 0.52513
 H1569 H 0.28984 0.72587 0.49251
 H1570 H 0.27547 0.71015 0.50890
 H1571 H 0.22602 0.79085 0.49249
 H1572 H 0.20920 0.77496 0.50868
 O1573 O 0.29054 0.25109 0.98073
 O1574 O 0.28565 0.22527 0.98273
 O1575 O 0.25092 0.26939 0.96000
 O1576 O 0.22606 0.26994 0.96452
 O1577 O 0.26973 0.29054 0.99973
 O1578 O 0.26866 0.28489 1.02605
 O1579 O 0.21087 0.23034 1.00093
 O1580 O 0.21512 0.23331 0.97527
 O1581 O 0.24919 0.21062 1.01974
 O1582 O 0.27636 0.21586 1.01879
 O1583 O 0.23086 0.24904 1.03985
 O1584 O 0.23159 0.27605 1.03470
 O1585 O 0.21083 0.24851 1.01924
 O1586 O 0.21638 0.27655 1.01780
 O1587 O 0.24910 0.23092 1.03997
 O1588 O 0.27688 0.23259 1.03424
 O1589 O 0.23076 0.21071 1.00178
 O1590 O 0.23579 0.21568 0.97444
 O1591 O 0.29070 0.26904 0.99929
 O1592 O 0.28504 0.26774 1.02614
 O1593 O 0.25155 0.29068 0.98150
 O1594 O 0.22425 0.28450 0.98389
 O1595 O 0.26942 0.25149 0.96002
 O1596 O 0.26603 0.22424 0.96596
 Zr1597 Zr 0.26861 0.24204 0.98187
 O1598 O 0.25547 0.22752 0.99539
 Zr1599 Zr 0.24218 0.26878 0.98211
 O1600 O 0.22774 0.25511 0.99517
 Zr1601 Zr 0.26879 0.26851 1.00864
 O1602 O 0.25531 0.25526 1.02311
 Zr1603 Zr 0.23256 0.23214 0.99161
 O1604 O 0.24562 0.24577 0.97691
 Zr1605 Zr 0.25897 0.23227 1.01838
 O1606 O 0.27361 0.24553 1.00493
 Zr1607 Zr 0.23233 0.25873 1.01819
 O1608 O 0.24583 0.27362 1.00514
 O1609 O 0.26498 0.26494 0.98576
 O1610 O 0.23605 0.23578 1.01464
 C1611 C 0.29699 0.26149 0.98857
 C1612 C 0.26155 0.26187 0.95362
 C1613 C 0.26208 0.29701 0.98924
 C1614 C 0.20461 0.23771 1.01175
 C1615 C 0.23826 0.20443 1.01248
 C1616 C 0.23828 0.23830 1.04615
 H1617 H 0.25787 0.21688 0.99289
 H1618 H 0.25772 0.25778 1.03373
 H1619 H 0.27142 0.27142 0.97930
 H1620 H 0.21712 0.25737 0.99259
 H1621 H 0.21992 0.23658 0.96569
 H1622 H 0.21834 0.26218 0.96671
 H1623 H 0.27515 0.24115 1.04123
 H1624 H 0.29020 0.25785 1.02525
 H1625 H 0.22719 0.20851 0.97484
 H1626 H 0.27404 0.22516 0.95819
 H1627 H 0.24115 0.27564 1.04047
 H1628 H 0.25853 0.28961 1.02585
 H1629 H 0.28991 0.22551 0.99307
 H1630 H 0.27554 0.20979 1.00943
 H1631 H 0.22607 0.29048 0.99318
 H1632 H 0.20930 0.27463 1.00936
 C1633 C 0.28291 0.38350 0.78231
 C1634 C 0.27538 0.39272 0.79493
 C1635 C 0.27075 0.40670 0.79044
 C1636 C 0.27410 0.41011 0.77376
 C1637 C 0.26666 0.39714 0.76491
 C1638 C 0.27129 0.38314 0.76942
 C1639 C 0.29577 0.39357 0.77649
 C1640 C 0.29114 0.40755 0.77200
 C1641 C 0.28798 0.36852 0.78727
 C1642 C 0.29234 0.35635 0.79159
 C1643 C 0.26924 0.42524 0.76905
 C1644 C 0.26554 0.43786 0.76549
 H1645 H 0.27381 0.38862 0.80640
 H1646 H 0.26521 0.41458 0.79805
 H1647 H 0.25848 0.39881 0.75592
 H1648 H 0.26709 0.37282 0.76428
 H1649 H 0.30749 0.39002 0.77594
 H1650 H 0.29890 0.41597 0.76760
 C1651 C 0.28377 -0.11509 0.28304
 C1652 C 0.27681 -0.10558 0.29577
 C1653 C 0.27232 -0.09156 0.29123
 C1654 C 0.27522 -0.08843 0.27442
 C1655 C 0.26727 -0.10135 0.26597
 C1656 C 0.27177 -0.11537 0.27051
 C1657 C 0.29665 -0.10536 0.27671
 C1658 C 0.29216 -0.09134 0.27218
 C1659 C 0.28866 -0.13015 0.28798
 C1660 C 0.29280 -0.14243 0.29220
 C1661 C 0.27044 -0.07329 0.26961
 C1662 C 0.26665 -0.06076 0.26584
 H1663 H 0.27552 -0.10950 0.30732
 H1664 H 0.26718 -0.08348 0.29891
 H1665 H 0.25886 -0.09963 0.25721
 H1666 H 0.26721 -0.12568 0.26563
 H1667 H 0.30827 -0.10914 0.27585
 H1668 H 0.29994 -0.08312 0.26745
 C1669 C 0.78468 0.88542 0.78369
 C1670 C 0.77658 0.89456 0.79601
 C1671 C 0.77180 0.90841 0.79127
 C1672 C 0.77559 0.91178 0.77468
 C1673 C 0.76870 0.89860 0.76571
 C1674 C 0.77348 0.88474 0.77045
 C1675 C 0.79751 0.89571 0.77819
 C1676 C 0.79273 0.90956 0.77346
 C1677 C 0.78987 0.87055 0.78886
 C1678 C 0.79426 0.85842 0.79328
 C1679 C 0.77052 0.92675 0.76967
 C1680 C 0.76655 0.93918 0.76576
 H1681 H 0.77475 0.89051 0.80745
 H1682 H 0.76589 0.91623 0.79866
 H1683 H 0.76077 0.90004 0.75646
 H1684 H 0.76964 0.87429 0.76526
 H1685 H 0.80931 0.89241 0.77804
 H1686 H 0.80045 0.91813 0.76925
 C1687 C 0.46660 0.86667 0.28319
 C1688 C 0.46588 0.86456 0.26597
 C1689 C 0.47054 0.85064 0.26126
 C1690 C 0.47545 0.84021 0.27423
 C1691 C 0.46189 0.83971 0.28500
 C1692 C 0.45724 0.85361 0.28971
 C1693 C 0.48299 0.86302 0.28751
 C1694 C 0.48765 0.84911 0.28279
 C1695 C 0.46149 0.88156 0.28838
 C1696 C 0.45707 0.89365 0.29286
 C1697 C 0.48033 0.82516 0.26930
 C1698 C 0.48403 0.81258 0.26557
 H1699 H 0.46207 0.87323 0.25818
 H1700 H 0.47071 0.84739 0.24942
 H1701 H 0.45640 0.82934 0.28862
 H1702 H 0.44778 0.85514 0.29736
 H1703 H 0.49030 0.87070 0.29371
 H1704 H 0.49894 0.84486 0.28495
 C1705 C -0.03518 0.86396 0.78531
 C1706 C -0.03387 0.85200 0.79780
 C1707 C -0.02896 0.83831 0.79274
 C1708 C -0.02584 0.83791 0.77568
 C1709 C -0.01458 0.85081 0.77287
 C1710 C -0.01950 0.86452 0.77794
 C1711 C -0.04552 0.85684 0.77332
 C1712 C -0.04061 0.84314 0.76826
 C1713 C -0.04054 0.87865 0.79083
 C1714 C -0.04512 0.89060 0.79550
 C1715 C -0.02065 0.82310 0.77034
 C1716 C -0.01661 0.81075 0.76622
 H1717 H -0.03656 0.85409 0.80959
 H1718 H -0.02745 0.82868 0.80020
 H1719 H -0.00372 0.84932 0.76739
 H1720 H -0.01284 0.87477 0.77680
 H1721 H -0.05579 0.86209 0.76917
 H1722 H -0.04668 0.83667 0.75978
 C1723 C -0.03373 -0.11464 -0.03405
 C1724 C -0.04602 -0.10585 -0.02554
 C1725 C -0.04145 -0.09196 -0.02069
 C1726 C -0.02504 -0.08822 -0.02481
 C1727 C -0.02417 -0.09021 -0.04203
 C1728 C -0.02874 -0.10410 -0.04688
 C1729 C -0.02025 -0.11518 -0.02314
 C1730 C -0.01568 -0.10128 -0.01828
 C1731 C -0.03873 -0.12955 -0.03934
 C1732 C -0.04299 -0.14169 -0.04382
 C1733 C -0.02018 -0.07321 -0.01968
 C1734 C -0.01635 -0.06074 -0.01572
 H1735 H -0.05732 -0.11015 -0.02351
 H1736 H -0.04883 -0.08436 -0.01450
 H1737 H -0.02031 -0.08147 -0.04974
 H1738 H -0.02879 -0.10726 -0.05875
 H1739 H -0.01479 -0.12556 -0.01955
 H1740 H -0.00629 -0.09975 -0.01053
 C1741 C -0.03420 0.38533 0.46553
 C1742 C -0.04669 0.39455 0.47324
 C1743 C -0.04208 0.40846 0.47801
 C1744 C -0.02542 0.41179 0.47460
 C1745 C -0.02377 0.40940 0.45749
 C1746 C -0.02839 0.39549 0.45272
 C1747 C -0.02126 0.38478 0.47708
 C1748 C -0.01664 0.39870 0.48185
 C1749 C -0.03923 0.37040 0.46032
 C1750 C -0.04350 0.35823 0.45590
 C1751 C -0.02052 0.42682 0.47965
 C1752 C -0.01665 0.43928 0.48357
 H1753 H -0.05816 0.39050 0.47482
 H1754 H -0.04960 0.41633 0.48367
 H1755 H -0.01937 0.41788 0.44979
 H1756 H -0.02793 0.39206 0.44094
 H1757 H -0.01618 0.37438 0.48115
 H1758 H -0.00761 0.40022 0.49001
 C1759 C 0.46631 -0.11461 0.46737
 C1760 C 0.45346 -0.10494 0.47384
 C1761 C 0.45797 -0.09095 0.47846
 C1762 C 0.47489 -0.08800 0.47616
 C1763 C 0.47772 -0.09101 0.45931
 C1764 C 0.47321 -0.10500 0.45468
 C1765 C 0.47837 -0.11497 0.47984
 C1766 C 0.48289 -0.10097 0.48447
 C1767 C 0.46140 -0.12964 0.46232
 C1768 C 0.45723 -0.14189 0.45802
 C1769 C 0.47969 -0.07289 0.48106
 C1770 C 0.48349 -0.06036 0.48487
 H1771 H 0.44184 -0.10875 0.47471
 H1772 H 0.45021 -0.08277 0.48329
 H1773 H 0.48282 -0.08286 0.45167
 H1774 H 0.47445 -0.10884 0.44309
 H1775 H 0.48296 -0.12530 0.48461
 H1776 H 0.49134 -0.09930 0.49321
 C1777 C 0.46606 0.38487 -0.03406
 C1778 C 0.45351 0.39412 -0.02647
 C1779 C 0.45809 0.40805 -0.02174
 C1780 C 0.47477 0.41138 -0.02505
 C1781 C 0.47652 0.40891 -0.04214
 C1782 C 0.47195 0.39498 -0.04688
 C1783 C 0.47892 0.38438 -0.02243
 C1784 C 0.48350 0.39832 -0.01769
 C1785 C 0.46107 0.36992 -0.03923
 C1786 C 0.45680 0.35773 -0.04360
 C1787 C 0.47963 0.42642 -0.02004
 C1788 C 0.48347 0.43891 -0.01615
 H1789 H 0.44204 0.39007 -0.02495
 H1790 H 0.45053 0.41594 -0.01616
 H1791 H 0.48096 0.41736 -0.04985
 H1792 H 0.47247 0.39150 -0.05864
 H1793 H 0.48398 0.37400 -0.01828
 H1794 H 0.49248 0.39989 -0.00947
 C1795 C 0.78347 0.36652 0.46794
 C1796 C 0.78576 0.35426 0.45587
 C1797 C 0.78121 0.34025 0.46035
 C1798 C 0.77481 0.33985 0.47647
 C1799 C 0.76210 0.35164 0.47655
 C1800 C 0.76665 0.36567 0.47206
 C1801 C 0.79183 0.36065 0.48197
 C1802 C 0.78728 0.34663 0.48645
 C1803 C 0.78846 0.38154 0.46301
 C1804 C 0.79275 0.39375 0.45872
 C1805 C 0.77003 0.32468 0.48117
 C1806 C 0.76639 0.31205 0.48476
 H1807 H 0.79053 0.35639 0.44477
 H1808 H 0.78209 0.33039 0.45309
 H1809 H 0.75055 0.34919 0.47984
 H1810 H 0.75900 0.37524 0.47151
 H1811 H 0.80055 0.36697 0.48787
 H1812 H 0.79210 0.34093 0.49620
 C1813 C 0.78414 0.86653 -0.03311
 C1814 C 0.79682 0.85656 -0.02674
 C1815 C 0.79202 0.84269 -0.02208
 C1816 C 0.77501 0.84014 -0.02424
 C1817 C 0.77210 0.84320 -0.04108
 C1818 C 0.77690 0.85707 -0.04573
 C1819 C 0.77221 0.86719 -0.02054
 C1820 C 0.76740 0.85330 -0.01587
 C1821 C 0.78941 0.88139 -0.03825
 C1822 C 0.79391 0.89345 -0.04274
 C1823 C 0.76997 0.82511 -0.01937
 C1824 C 0.76614 0.81255 -0.01571
 H1825 H 0.80853 0.86009 -0.02594
 H1826 H 0.79962 0.83434 -0.01729
 H1827 H 0.76674 0.83518 -0.04867
 H1828 H 0.77564 0.86093 -0.05732
 H1829 H 0.76792 0.87763 -0.01573
 H1830 H 0.75899 0.85183 -0.00707
 C1831 C 0.78294 0.28232 0.38348
 C1832 C 0.78464 0.26528 0.38628
 C1833 C 0.78002 0.26083 0.40030
 C1834 C 0.77415 0.27388 0.41013
 C1835 C 0.76164 0.28133 0.40071
 C1836 C 0.76626 0.28577 0.38669
 C1837 C 0.79166 0.28991 0.39642
 C1838 C 0.78705 0.28548 0.41042
 C1839 C 0.78801 0.28720 0.36847
 C1840 C 0.79239 0.29141 0.35628
 C1841 C 0.76932 0.26922 0.42528
 C1842 C 0.76567 0.26564 0.43791
 H1843 H 0.78907 0.25739 0.37799
 H1844 H 0.78049 0.24914 0.40401
 H1845 H 0.75016 0.28295 0.40469
 H1846 H 0.75874 0.29120 0.37867
 H1847 H 0.80068 0.29806 0.39474
 H1848 H 0.79211 0.28983 0.42072
 C1849 C 0.78306 0.78418 -0.11654
 C1850 C 0.77619 0.79685 -0.10688
 C1851 C 0.77142 0.79213 -0.09302
 C1852 C 0.77397 0.77521 -0.09017
 C1853 C 0.79090 0.77271 -0.09290
 C1854 C 0.79567 0.77742 -0.10675
 C1855 C 0.77083 0.77187 -0.11724
 C1856 C 0.76605 0.76715 -0.10336
 C1857 C 0.78832 0.78935 -0.13138
 C1858 C 0.79288 0.79381 -0.14343
 C1859 C 0.76899 0.77026 -0.07516
 C1860 C 0.76526 0.76649 -0.06261
 H1861 H 0.77516 0.80850 -0.11060
 H1862 H 0.76630 0.79975 -0.08487
 H1863 H 0.79848 0.76767 -0.08467
 H1864 H 0.80733 0.77641 -0.11039
 H1865 H 0.76633 0.76728 -0.12770
 H1866 H 0.75746 0.75852 -0.10192
 C1867 C 0.28254 0.46754 0.86682
 C1868 C 0.29435 0.47685 0.85820
 C1869 C 0.28971 0.48127 0.84419
 C1870 C 0.27370 0.47595 0.84018
 C1871 C 0.26366 0.48188 0.85302
 C1872 C 0.26831 0.47745 0.86704
 C1873 C 0.27866 0.45431 0.85628
 C1874 C 0.27402 0.45873 0.84228
 C1875 C 0.28766 0.46268 0.88183
 C1876 C 0.29207 0.45848 0.89402
 C1877 C 0.26884 0.48060 0.82502
 C1878 C 0.26516 0.48416 0.81240
 H1879 H 0.30539 0.47974 0.86270
 H1880 H 0.29677 0.48794 0.83670
 H1881 H 0.25378 0.48892 0.85126
 H1882 H 0.26242 0.48070 0.87730
 H1883 H 0.27948 0.44250 0.85953
 H1884 H 0.27085 0.45070 0.83354
 C1885 C 0.28496 -0.03386 0.36456
 C1886 C 0.29765 -0.02822 0.35419
 C1887 C 0.29272 -0.02360 0.34034
 C1888 C 0.27558 -0.02508 0.33822
 C1889 C 0.26865 -0.01616 0.35139
 C1890 C 0.27358 -0.02078 0.36525
 C1891 C 0.27697 -0.04633 0.35550
 C1892 C 0.27204 -0.04172 0.34166
 C1893 C 0.29032 -0.03890 0.37942
 C1894 C 0.29484 -0.04321 0.39154
 C1895 C 0.27038 -0.02019 0.32325
 C1896 C 0.26634 -0.01633 0.31082
 H1897 H 0.30947 -0.02787 0.35743
 H1898 H 0.30033 -0.01931 0.33173
 H1899 H 0.26059 -0.00704 0.34996
 H1900 H 0.26974 -0.01561 0.37569
 H1901 H 0.27532 -0.05779 0.35961
 H1902 H 0.26618 -0.04922 0.33390
 C1903 C -0.03548 -0.03583 -0.11320
 C1904 C -0.02861 -0.04833 -0.10333
 C1905 C -0.02369 -0.04335 -0.08961
 C1906 C -0.02612 -0.02635 -0.08709
 C1907 C -0.04305 -0.02381 -0.08974
 C1908 C -0.04798 -0.02879 -0.10346
 C1909 C -0.02320 -0.02362 -0.11424
 C1910 C -0.01827 -0.01863 -0.10050
 C1911 C -0.04085 -0.04125 -0.12793
 C1912 C -0.04540 -0.04582 -0.13994
 C1913 C -0.02090 -0.02106 -0.07226
 C1914 C -0.01681 -0.01692 -0.05994
 H1915 H -0.02769 -0.06007 -0.10681
 H1916 H -0.01856 -0.05082 -0.08133
 H1917 H -0.05053 -0.01856 -0.08155
 H1918 H -0.05966 -0.02781 -0.10703
 H1919 H -0.01876 -0.01928 -0.12482
 H1920 H -0.00961 -0.01002 -0.09932
 C1921 C -0.03415 0.46525 0.38524
 C1922 C -0.02788 0.45250 0.39520
 C1923 C -0.02328 0.45725 0.40912
 C1924 C -0.02539 0.47429 0.41171
 C1925 C -0.04217 0.47725 0.40856
 C1926 C -0.04678 0.47250 0.39465
 C1927 C -0.02156 0.47717 0.38470
 C1928 C -0.01695 0.48193 0.39862
 C1929 C -0.03917 0.46008 0.37030
 C1930 C -0.04344 0.45572 0.35810
 C1931 C -0.02050 0.47933 0.42673
 C1932 C -0.01663 0.48331 0.43918
 H1933 H -0.02712 0.44078 0.39164
 H1934 H -0.01858 0.44960 0.41748
 H1935 H -0.04977 0.48260 0.41656
 H1936 H -0.05832 0.47379 0.39072
 H1937 H -0.01669 0.48150 0.37430
 H1938 H -0.00814 0.49033 0.40015
 C1939 C 0.46631 -0.03382 0.38572
 C1940 C 0.45349 -0.02804 0.39585
 C1941 C 0.45821 -0.02340 0.40976
 C1942 C 0.47530 -0.02500 0.41219
 C1943 C 0.48253 -0.01619 0.39911
 C1944 C 0.47781 -0.02083 0.38519
 C1945 C 0.47404 -0.04631 0.39495
 C1946 C 0.47876 -0.04168 0.40887
 C1947 C 0.46116 -0.03887 0.37079
 C1948 C 0.45676 -0.04316 0.35861
 C1949 C 0.48029 -0.02007 0.42722
 C1950 C 0.48417 -0.01618 0.43969
 H1951 H 0.44173 -0.02762 0.39240
 H1952 H 0.45050 -0.01902 0.41823
 H1953 H 0.49065 -0.00711 0.40065
 H1954 H 0.48188 -0.01573 0.37479
 H1955 H 0.47566 -0.05779 0.39091
 H1956 H 0.48442 -0.04918 0.41675
 C1957 C 0.46569 0.46485 -0.11449
 C1958 C 0.47840 0.47665 -0.11507
 C1959 C 0.48306 0.48139 -0.10115
 C1960 C 0.47455 0.47388 -0.08804
 C1961 C 0.47649 0.45682 -0.09058
 C1962 C 0.47183 0.45207 -0.10449
 C1963 C 0.45314 0.47226 -0.10510
 C1964 C 0.45780 0.47700 -0.09119
 C1965 C 0.46061 0.45970 -0.12941
 C1966 C 0.45628 0.45535 -0.14159
 C1967 C 0.47949 0.47892 -0.07303
 C1968 C 0.48339 0.48290 -0.06060
 H1969 H 0.48331 0.48089 -0.12548
 H1970 H 0.49196 0.48971 -0.09965
 H1971 H 0.48111 0.44914 -0.08220
 H1972 H 0.47247 0.44033 -0.10801
 H1973 H 0.44161 0.47366 -0.10902
 H1974 H 0.45025 0.48246 -0.08321
 C1975 C 0.46802 0.78383 0.36673
 C1976 C 0.46037 0.76917 0.36144
 C1977 C 0.46486 0.76454 0.34745
 C1978 C 0.47656 0.77503 0.34011
 C1979 C 0.48953 0.77606 0.35160
 C1980 C 0.48503 0.78068 0.36561
 C1981 C 0.46475 0.79538 0.35420
 C1982 C 0.46923 0.79076 0.34022
 C1983 C 0.46307 0.78890 0.38172
 C1984 C 0.45876 0.79324 0.39389
 C1985 C 0.48126 0.77018 0.32497
 C1986 C 0.48482 0.76648 0.31235
 H1987 H 0.45217 0.76296 0.36811
 H1988 H 0.46050 0.75437 0.34213
 H1989 H 0.50119 0.77337 0.34898
 H1990 H 0.49285 0.78197 0.37498
 H1991 H 0.45938 0.80624 0.35614
 H1992 H 0.46771 0.79766 0.33019
 C1993 C -0.03406 0.78465 0.86419
 C1994 C -0.02317 0.77116 0.86471
 C1995 C -0.01854 0.76644 0.85079
 C1996 C -0.02525 0.77569 0.83773
 C1997 C -0.02107 0.79217 0.84125
 C1998 C -0.02570 0.79687 0.85516
 C1999 C -0.04704 0.77954 0.85387
 C2000 C -0.04241 0.77483 0.83996
 C2001 C -0.03911 0.78977 0.87913
 C2002 C -0.04340 0.79408 0.89132
 C2003 C -0.02032 0.77068 0.82271
 C2004 C -0.01644 0.76674 0.81026
 H2005 H -0.01944 0.76578 0.87509
 H2006 H -0.01083 0.75703 0.84924
 H2007 H -0.01500 0.79949 0.83350
 H2008 H -0.02360 0.80823 0.85933
 H2009 H -0.05884 0.77961 0.85720
 H2010 H -0.05024 0.77087 0.83137
 C2011 C 0.38350 0.78288 0.28240
 C2012 C 0.38979 0.76975 0.29184
 C2013 C 0.40380 0.76515 0.28744
 C2014 C 0.41014 0.77414 0.27402
 C2015 C 0.40952 0.79075 0.27902
 C2016 C 0.39552 0.79534 0.28342
 C2017 C 0.38414 0.77732 0.26596
 C2018 C 0.39815 0.77272 0.26155
 C2019 C 0.36849 0.78793 0.28724
 C2020 C 0.35631 0.79230 0.29143
 C2021 C 0.42529 0.76933 0.26939
 C2022 C 0.43792 0.76573 0.26584
 H2023 H 0.38376 0.76451 0.30116
 H2024 H 0.40977 0.75598 0.29298
 H2025 H 0.41922 0.79825 0.27910
 H2026 H 0.39324 0.80677 0.28726
 H2027 H 0.37444 0.77701 0.25845
 H2028 H 0.40047 0.76847 0.25027
 C2029 C -0.11431 0.78417 0.78424
 C2030 C -0.10851 0.79234 0.77008
 C2031 C -0.09466 0.78752 0.76542
 C2032 C -0.08797 0.77499 0.77539
 C2033 C -0.09996 0.76246 0.77557
 C2034 C -0.11382 0.76729 0.78023
 C2035 C -0.10186 0.78635 0.79612
 C2036 C -0.08802 0.78153 0.79147
 C2037 C -0.12917 0.78944 0.78930
 C2038 C -0.14129 0.79393 0.79359
 C2039 C -0.07301 0.76990 0.77045
 C2040 C -0.06058 0.76596 0.76654
 H2041 H -0.11474 0.80113 0.76421
 H2042 H -0.08903 0.79217 0.75557
 H2043 H -0.09777 0.75082 0.77233
 H2044 H -0.12350 0.75979 0.78097
 H2045 H -0.10375 0.79125 0.80722
 H2046 H -0.07805 0.78229 0.79859
 C2047 C 0.86630 0.28290 0.46663
 C2048 C 0.86047 0.29132 0.48064
 C2049 C 0.84661 0.28657 0.48534
 C2050 C 0.83994 0.27385 0.47558
 C2051 C 0.85193 0.26132 0.47565
 C2052 C 0.86580 0.26608 0.47094
 C2053 C 0.85388 0.28484 0.45469
 C2054 C 0.84003 0.28009 0.45939
 C2055 C 0.88113 0.28814 0.46146
 C2056 C 0.89316 0.29268 0.45700
 C2057 C 0.82493 0.26890 0.48051
 C2058 C 0.81238 0.26520 0.48425
 H2059 H 0.86669 0.30022 0.48637
 H2060 H 0.84096 0.29139 0.49511
 H2061 H 0.84972 0.24975 0.47910
 H2062 H 0.87548 0.25859 0.47036
 H2063 H 0.85579 0.28953 0.44351
 H2064 H 0.83009 0.28072 0.45223
 C2065 C 0.86600 0.78294 -0.03398
 C2066 C 0.85642 0.79565 -0.02709
 C2067 C 0.84252 0.79102 -0.02243
 C2068 C 0.83954 0.77413 -0.02511
 C2069 C 0.85258 0.76594 -0.01713
 C2070 C 0.86651 0.77057 -0.02180
 C2071 C 0.85626 0.77631 -0.04672
 C2072 C 0.84235 0.77169 -0.04206
 C2073 C 0.88090 0.78804 -0.03910
 C2074 C 0.89299 0.79247 -0.04352
 C2075 C 0.82448 0.76929 -0.02022
 C2076 C 0.81191 0.76563 -0.01652
 H2077 H 0.86023 0.80727 -0.02597
 H2078 H 0.83441 0.79868 -0.01732
 H2079 H 0.85102 0.75727 -0.00858
 H2080 H 0.87688 0.76588 -0.01725
 H2081 H 0.85996 0.77534 -0.05838
 H2082 H 0.83414 0.76674 -0.04972
 C2083 C -0.11435 -0.03383 -0.03441
 C2084 C -0.10412 -0.02830 -0.04727
 C2085 C -0.09027 -0.02357 -0.04251
 C2086 C -0.08800 -0.02482 -0.02535
 C2087 C -0.09135 -0.04143 -0.02158
 C2088 C -0.10520 -0.04616 -0.02634
 C2089 C -0.11498 -0.02061 -0.02316
 C2090 C -0.10112 -0.01587 -0.01839
 C2091 C -0.12922 -0.03899 -0.03959
 C2092 C -0.14135 -0.04339 -0.04397
 C2093 C -0.07303 -0.01981 -0.02029
 C2094 C -0.06061 -0.01589 -0.01634
 H2095 H -0.10746 -0.02812 -0.05908
 H2096 H -0.08174 -0.01934 -0.05024
 H2097 H -0.08354 -0.04882 -0.01569
 H2098 H -0.10925 -0.05761 -0.02452
 H2099 H -0.12539 -0.01543 -0.01928
 H2100 H -0.09966 -0.00664 -0.01044
 C2101 C -0.11517 0.46708 0.46606
 C2102 C -0.11542 0.47950 0.47820
 C2103 C -0.10141 0.48407 0.48265
 C2104 C -0.08853 0.47577 0.47454
 C2105 C -0.09157 0.47816 0.45762
 C2106 C -0.10558 0.47359 0.45316
 C2107 C -0.10556 0.45434 0.47285
 C2108 C -0.09156 0.45891 0.47731
 C2109 C -0.13021 0.46209 0.46121
 C2110 C -0.14248 0.45784 0.45710
 C2111 C -0.07341 0.48062 0.47928
 C2112 C -0.06088 0.48440 0.48305
 H2113 H -0.12570 0.48428 0.48287
 H2114 H -0.09967 0.49277 0.49115
 H2115 H -0.08344 0.48301 0.44982
 H2116 H -0.10945 0.47453 0.44155
 H2117 H -0.10942 0.44275 0.47406
 H2118 H -0.08341 0.45123 0.48233
 C2119 C 0.38614 -0.03384 0.46502
 C2120 C 0.38546 -0.02103 0.47672
 C2121 C 0.39931 -0.01637 0.48160
 C2122 C 0.41246 -0.02499 0.47431
 C2123 C 0.41013 -0.02316 0.45721
 C2124 C 0.39629 -0.02781 0.45232
 C2125 C 0.39538 -0.04639 0.47263
 C2126 C 0.40922 -0.04174 0.47751
 C2127 C 0.37128 -0.03892 0.45972
 C2128 C 0.35915 -0.04325 0.45528
 C2129 C 0.42740 -0.02005 0.47949
 C2130 C 0.43979 -0.01614 0.48356
 H2131 H 0.37503 -0.01605 0.48080
 H2132 H 0.40074 -0.00741 0.48987
 H2133 H 0.41860 -0.01862 0.44960
 H2134 H 0.39292 -0.02725 0.44054
 H2135 H 0.39141 -0.05792 0.47406
 H2136 H 0.41710 -0.04929 0.48312
 C2137 C 0.38486 0.46688 -0.03364
 C2138 C 0.39428 0.45421 -0.02646
 C2139 C 0.40830 0.45874 -0.02202
 C2140 C 0.41153 0.47550 -0.02518
 C2141 C 0.39868 0.48413 -0.01737
 C2142 C 0.38465 0.47959 -0.02182
 C2143 C 0.39461 0.47297 -0.04662
 C2144 C 0.40863 0.47750 -0.04218
 C2145 C 0.36980 0.46193 -0.03848
 C2146 C 0.35751 0.45772 -0.04258
 C2147 C 0.42666 0.48030 -0.02045
 C2148 C 0.43920 0.48407 -0.01669
 H2149 H 0.39030 0.44269 -0.02500
 H2150 H 0.41632 0.45110 -0.01675
 H2151 H 0.40044 0.49301 -0.00907
 H2152 H 0.37439 0.48459 -0.01734
 H2153 H 0.39084 0.47366 -0.05828
 H2154 H 0.41687 0.48207 -0.05003
 C2155 C 0.36574 0.46689 0.78366
 C2156 C 0.35747 0.47667 0.79537
 C2157 C 0.34361 0.48142 0.79071
 C2158 C 0.33935 0.47594 0.77480
 C2159 C 0.34093 0.45867 0.77541
 C2160 C 0.35479 0.45391 0.78006
 C2161 C 0.36618 0.47654 0.76923
 C2162 C 0.35229 0.48130 0.76457
 C2163 C 0.38059 0.46165 0.78879
 C2164 C 0.39263 0.45712 0.79322
 C2165 C 0.32433 0.48091 0.76991
 C2166 C 0.31179 0.48464 0.76619
 H2167 H 0.36212 0.47961 0.80635
 H2168 H 0.33637 0.48844 0.79770
 H2169 H 0.33195 0.45085 0.77243
 H2170 H 0.35768 0.44203 0.78107
 H2171 H 0.37648 0.47938 0.76322
 H2172 H 0.35069 0.48822 0.75456
 C2173 C 0.36435 -0.03389 0.28453
 C2174 C 0.35502 -0.04646 0.27703
 C2175 C 0.34111 -0.04185 0.27235
 C2176 C 0.33789 -0.02511 0.27562
 C2177 C 0.35093 -0.01645 0.26816
 C2178 C 0.36485 -0.02107 0.27285
 C2179 C 0.35435 -0.02790 0.29738
 C2180 C 0.34045 -0.02329 0.29270
 C2181 C 0.37928 -0.03892 0.28963
 C2182 C 0.39146 -0.04320 0.29394
 C2183 C 0.32287 -0.02022 0.27065
 C2184 C 0.31043 -0.01636 0.26672
 H2185 H 0.35899 -0.05798 0.27553
 H2186 H 0.33317 -0.04942 0.26684
 H2187 H 0.34937 -0.00748 0.25993
 H2188 H 0.37521 -0.01606 0.26863
 H2189 H 0.35789 -0.02733 0.30912
 H2190 H 0.33207 -0.01877 0.30043
 C2191 C 0.13504 0.53365 0.71685
 C2192 C 0.14280 0.52287 0.70570
 C2193 C 0.15679 0.51835 0.71024
 C2194 C 0.16165 0.52506 0.72549
 C2195 C 0.14904 0.52070 0.73657
 C2196 C 0.13504 0.52522 0.73202
 C2197 C 0.14621 0.54676 0.71899
 C2198 C 0.16020 0.54225 0.72353
 C2199 C 0.12001 0.53856 0.71190
 C2200 C 0.10775 0.54270 0.70768
 C2201 C 0.17675 0.52025 0.73032
 C2202 C 0.18924 0.51642 0.73412
 H2203 H 0.13775 0.51911 0.69516
 H2204 H 0.16372 0.51073 0.70359
 H2205 H 0.15094 0.51460 0.74705
 H2206 H 0.12495 0.52299 0.73861
 H2207 H 0.14338 0.55855 0.71711
 H2208 H 0.16935 0.55017 0.72554
 C2209 C 0.13311 0.03170 0.21841
 C2210 C 0.13308 0.02081 0.23193
 C2211 C 0.14717 0.01649 0.23641
 C2212 C 0.15989 0.02350 0.22693
 C2213 C 0.15727 0.04063 0.22779
 C2214 C 0.14319 0.04494 0.22332
 C2215 C 0.14210 0.02350 0.20605
 C2216 C 0.15617 0.01919 0.21052
 C2217 C 0.11801 0.03643 0.21349
 C2218 C 0.10574 0.04053 0.20925
 C2219 C 0.17511 0.01896 0.23161
 C2220 C 0.18778 0.01546 0.23516
 H2221 H 0.12290 0.01684 0.23749
 H2222 H 0.14906 0.00883 0.24581
 H2223 H 0.16572 0.04868 0.23160
 H2224 H 0.13960 0.05667 0.22330
 H2225 H 0.13778 0.02127 0.19477
 H2226 H 0.16391 0.01327 0.20308
 C2227 C 0.61370 0.71550 0.21536
 C2228 C 0.60419 0.70306 0.22281
 C2229 C 0.59046 0.70795 0.22774
 C2230 C 0.58760 0.72480 0.22474
 C2231 C 0.58995 0.72679 0.20766
 C2232 C 0.60367 0.72190 0.20273
 C2233 C 0.61468 0.72816 0.22721
 C2234 C 0.60094 0.73305 0.23215
 C2235 C 0.62843 0.71017 0.20997
 C2236 C 0.64041 0.70564 0.20539
 C2237 C 0.57276 0.72997 0.22995
 C2238 C 0.56040 0.73400 0.23398
 H2239 H 0.60790 0.69144 0.22410
 H2240 H 0.58242 0.70051 0.23326
 H2241 H 0.58157 0.73161 0.20011
 H2242 H 0.60705 0.72254 0.19095
 H2243 H 0.62522 0.73287 0.23135
 H2244 H 0.59972 0.74195 0.24052
 C2245 C 0.11589 0.71697 0.71683
 C2246 C 0.11324 0.73401 0.71484
 C2247 C 0.09932 0.73866 0.71951
 C2248 C 0.08945 0.72581 0.72570
 C2249 C 0.09890 0.71852 0.73829
 C2250 C 0.11281 0.71386 0.73363
 C2251 C 0.10283 0.70934 0.70835
 C2252 C 0.08894 0.71399 0.71301
 C2253 C 0.13078 0.71186 0.71170
 C2254 C 0.14287 0.70745 0.70727
 C2255 C 0.07440 0.73068 0.73059
 C2256 C 0.06184 0.73438 0.73429
 H2257 H 0.12155 0.74174 0.71019
 H2258 H 0.09572 0.75038 0.71886
 H2259 H 0.09501 0.71714 0.74985
 H2260 H 0.12084 0.70850 0.74119
 H2261 H 0.10435 0.70101 0.69946
 H2262 H 0.07857 0.70963 0.70811
 C2263 C 0.63516 0.21731 0.53281
 C2264 C 0.64483 0.22376 0.54569
 C2265 C 0.65888 0.22816 0.54124
 C2266 C 0.66189 0.22568 0.52433
 C2267 C 0.64910 0.23408 0.51617
 C2268 C 0.63504 0.22968 0.52063
 C2269 C 0.64463 0.20444 0.52606
 C2270 C 0.65868 0.20884 0.52160
 C2271 C 0.62007 0.21251 0.53767
 C2272 C 0.60776 0.20843 0.54181
 C2273 C 0.67706 0.23035 0.51960
 C2274 C 0.68962 0.23405 0.51590
 H2275 H 0.64098 0.22479 0.55730
 H2276 H 0.66707 0.23295 0.54903
 H2277 H 0.65093 0.24272 0.50765
 H2278 H 0.62482 0.23455 0.51593
 H2279 H 0.64064 0.19289 0.52488
 H2280 H 0.66673 0.20105 0.51661
 C2281 C 0.63577 0.71600 0.03363
 C2282 C 0.64555 0.72299 0.04614
 C2283 C 0.65937 0.72768 0.04127
 C2284 C 0.66206 0.72492 0.02435
 C2285 C 0.64886 0.73279 0.01632
 C2286 C 0.63503 0.72810 0.02120
 C2287 C 0.64544 0.70325 0.02693
 C2288 C 0.65926 0.70794 0.02205
 C2289 C 0.62094 0.71089 0.03895
 C2290 C 0.60886 0.70655 0.04346
 C2291 C 0.67699 0.72989 0.01919
 C2292 C 0.68940 0.73380 0.01520
 H2293 H 0.64194 0.72416 0.05781
 H2294 H 0.66759 0.73286 0.04876
 H2295 H 0.65024 0.74129 0.00758
 H2296 H 0.62457 0.73258 0.01664
 H2297 H 0.64176 0.69157 0.02609
 H2298 H 0.66741 0.70027 0.01704
 C2299 C 0.11648 0.03267 0.03216
 C2300 C 0.11550 0.02847 0.01534
 C2301 C 0.10144 0.02398 0.01091
 C2302 C 0.08977 0.02414 0.02373
 C2303 C 0.09027 0.04029 0.03007
 C2304 C 0.10430 0.04477 0.03450
 C2305 C 0.11066 0.01869 0.04064
 C2306 C 0.09662 0.01421 0.03621
 C2307 C 0.13153 0.03759 0.03704
 C2308 C 0.14375 0.04184 0.04128
 C2309 C 0.07459 0.01943 0.01909
 C2310 C 0.06194 0.01584 0.01556
 H2311 H 0.12500 0.02896 0.00760
 H2312 H 0.09890 0.02063 -0.00063
 H2313 H 0.08045 0.04758 0.03100
 H2314 H 0.10650 0.05589 0.03922
 H2315 H 0.11701 0.01282 0.04934
 H2316 H 0.09094 0.00450 0.04111
 C2317 C 0.11564 0.53349 0.53287
 C2318 C 0.11491 0.52991 0.51589
 C2319 C 0.10102 0.52521 0.51116
 C2320 C 0.08925 0.52456 0.52387
 C2321 C 0.08924 0.54046 0.53083
 C2322 C 0.10311 0.54515 0.53556
 C2323 C 0.11014 0.51904 0.54075
 C2324 C 0.09626 0.51435 0.53602
 C2325 C 0.13050 0.53864 0.53808
 C2326 C 0.14256 0.54309 0.54259
 C2327 C 0.07422 0.51964 0.51892
 C2328 C 0.06168 0.51592 0.51518
 H2329 H 0.12446 0.53096 0.50827
 H2330 H 0.09866 0.52224 0.49948
 H2331 H 0.07922 0.54744 0.53194
 H2332 H 0.10496 0.55614 0.54072
 H2333 H 0.11658 0.51302 0.54928
 H2334 H 0.09081 0.50430 0.54050
 C2335 C 0.61661 0.03360 0.53221
 C2336 C 0.60728 0.02649 0.54498
 C2337 C 0.59329 0.02187 0.54053
 C2338 C 0.58999 0.02482 0.52375
 C2339 C 0.60288 0.01701 0.51518
 C2340 C 0.61689 0.02163 0.51963
 C2341 C 0.60673 0.04643 0.52600
 C2342 C 0.59274 0.04182 0.52156
 C2343 C 0.63161 0.03866 0.53712
 C2344 C 0.64379 0.04298 0.54139
 C2345 C 0.57485 0.01997 0.51909
 C2346 C 0.56223 0.01628 0.51554
 H2347 H 0.61130 0.02518 0.55650
 H2348 H 0.58533 0.01662 0.54825
 H2349 H 0.60116 0.00860 0.50640
 H2350 H 0.62717 0.01718 0.51466
 H2351 H 0.61041 0.05811 0.52515
 H2352 H 0.58444 0.04955 0.51690
 C2353 C 0.61582 0.53315 0.03279
 C2354 C 0.61498 0.52976 0.01577
 C2355 C 0.60108 0.52505 0.01108
 C2356 C 0.58940 0.52419 0.02387
 C2357 C 0.58937 0.54001 0.03101
 C2358 C 0.60324 0.54472 0.03569
 C2359 C 0.61044 0.51858 0.04054
 C2360 C 0.59655 0.51387 0.03585
 C2361 C 0.63068 0.53832 0.03794
 C2362 C 0.64275 0.54280 0.04240
 C2363 C 0.57437 0.51926 0.01896
 C2364 C 0.56181 0.51554 0.01525
 H2365 H 0.62447 0.53095 0.00810
 H2366 H 0.59866 0.52220 -0.00061
 H2367 H 0.57932 0.54693 0.03227
 H2368 H 0.60508 0.55565 0.04097
 H2369 H 0.61697 0.51249 0.04895
 H2370 H 0.59118 0.50375 0.04025
 C2371 C 0.03234 0.03138 0.11741
 C2372 C 0.03470 0.04358 0.10531
 C2373 C 0.03028 0.03922 0.09121
 C2374 C 0.02394 0.02308 0.09058
 C2375 C 0.01112 0.02283 0.10226
 C2376 C 0.01554 0.02720 0.11637
 C2377 C 0.04080 0.01745 0.11147
 C2378 C 0.03638 0.01308 0.09736
 C2379 C 0.03718 0.03619 0.13254
 C2380 C 0.04133 0.04038 0.14483
 C2381 C 0.01929 0.01850 0.07533
 C2382 C 0.01572 0.01502 0.06264
 H2383 H 0.03941 0.05468 0.10760
 H2384 H 0.03122 0.04659 0.08144
 H2385 H -0.00039 0.01951 0.09967
 H2386 H 0.00781 0.02763 0.12588
 H2387 H 0.04948 0.01152 0.11780
 H2388 H 0.04128 0.00342 0.09160
 C2389 C 0.03266 0.53195 0.61636
 C2390 C 0.03574 0.54368 0.60395
 C2391 C 0.03118 0.53918 0.58995
 C2392 C 0.02398 0.52339 0.58970
 C2393 C 0.01110 0.52415 0.60129
 C2394 C 0.01567 0.52866 0.61531
 C2395 C 0.04039 0.51743 0.61085
 C2396 C 0.03583 0.51293 0.59684
 C2397 C 0.03767 0.53691 0.63137
 C2398 C 0.04199 0.54122 0.64357
 C2399 C 0.01919 0.51868 0.57454
 C2400 C 0.01554 0.51511 0.56190
 H2401 H 0.04103 0.55457 0.60598
 H2402 H 0.03257 0.54622 0.57999
 H2403 H -0.00056 0.52139 0.59871
 H2404 H 0.00792 0.52975 0.62475
 H2405 H 0.04870 0.51122 0.61739
 H2406 H 0.04023 0.50286 0.59137
 C2407 C 0.53236 0.03228 0.61719
 C2408 C 0.52012 0.01997 0.61729
 C2409 C 0.51570 0.01554 0.60319
 C2410 C 0.52395 0.02386 0.59040
 C2411 C 0.54080 0.02130 0.59352
 C2412 C 0.54522 0.02573 0.60760
 C2413 C 0.52574 0.04515 0.60763
 C2414 C 0.52132 0.04073 0.59355
 C2415 C 0.53721 0.03715 0.63229
 C2416 C 0.54138 0.04136 0.64457
 C2417 C 0.51931 0.01922 0.57516
 C2418 C 0.51575 0.01569 0.56248
 H2419 H 0.51536 0.01516 0.62752
 H2420 H 0.50715 0.00694 0.60134
 H2421 H 0.54859 0.01643 0.58538
 H2422 H 0.55679 0.02464 0.61153
 H2423 H 0.52461 0.05672 0.61157
 H2424 H 0.51641 0.04851 0.58543
 C2425 C 0.53348 0.53291 0.11593
 C2426 C 0.53599 0.54457 0.10332
 C2427 C 0.53129 0.53977 0.08947
 C2428 C 0.52453 0.52379 0.08954
 C2429 C 0.51186 0.52433 0.10137
 C2430 C 0.51657 0.52913 0.11525
 C2431 C 0.54151 0.51854 0.11044
 C2432 C 0.53680 0.51375 0.09657
 C2433 C 0.53865 0.53819 0.13078
 C2434 C 0.54310 0.54276 0.14283
 C2435 C 0.51960 0.51877 0.07452
 C2436 C 0.51585 0.51501 0.06197
 H2437 H 0.54101 0.55563 0.10513
 H2438 H 0.53229 0.54673 0.07940
 H2439 H 0.50024 0.52121 0.09905
 H2440 H 0.50897 0.53012 0.12483
 H2441 H 0.55012 0.51265 0.11689
 H2442 H 0.54138 0.50374 0.09113
 C2443 C 0.21552 0.53387 0.63582
 C2444 C 0.23030 0.52482 0.63551
 C2445 C 0.23488 0.52000 0.64942
 C2446 C 0.22422 0.52471 0.66226
 C2447 C 0.20865 0.51867 0.65760
 C2448 C 0.20407 0.52348 0.64370
 C2449 C 0.21838 0.54678 0.64707
 C2450 C 0.22295 0.54197 0.66097
 C2451 C 0.21053 0.53913 0.62091
 C2452 C 0.20628 0.54359 0.60875
 C2453 C 0.22908 0.51962 0.67728
 C2454 C 0.23293 0.51569 0.68974
 H2455 H 0.23661 0.52240 0.62527
 H2456 H 0.24511 0.51345 0.65109
 H2457 H 0.20182 0.51126 0.66459
 H2458 H 0.19333 0.52020 0.63879
 H2459 H 0.21694 0.55867 0.64436
 H2460 H 0.22542 0.54973 0.67016
 C2461 C 0.21756 0.03188 0.13351
 C2462 C 0.22924 0.01905 0.13329
 C2463 C 0.23364 0.01448 0.14734
 C2464 C 0.22593 0.02319 0.16022
 C2465 C 0.20894 0.02135 0.15732
 C2466 C 0.20454 0.02591 0.14328
 C2467 C 0.22486 0.04448 0.14296
 C2468 C 0.22926 0.03991 0.15699
 C2469 C 0.21272 0.03692 0.11847
 C2470 C 0.20854 0.04128 0.10626
 C2471 C 0.23056 0.01842 0.17541
 C2472 C 0.23412 0.01486 0.18806
 H2473 H 0.23365 0.01401 0.12301
 H2474 H 0.24183 0.00552 0.14910
 H2475 H 0.20106 0.01683 0.16556
 H2476 H 0.19289 0.02531 0.13950
 H2477 H 0.22645 0.05598 0.13897
 H2478 H 0.23461 0.04751 0.16502
 C2479 C 0.71658 0.21678 0.61497
 C2480 C 0.70489 0.22655 0.60669
 C2481 C 0.70940 0.23105 0.59267
 C2482 C 0.72517 0.22534 0.58831
 C2483 C 0.72440 0.20810 0.59016
 C2484 C 0.71988 0.20360 0.60417
 C2485 C 0.73109 0.22628 0.61509
 C2486 C 0.73561 0.23079 0.60106
 C2487 C 0.71167 0.21187 0.63003
 C2488 C 0.70752 0.20770 0.64232
 C2489 C 0.72999 0.23012 0.57318
 C2490 C 0.73382 0.23390 0.56067
 H2491 H 0.69401 0.22966 0.61142
 H2492 H 0.70240 0.23801 0.58539
 H2493 H 0.72715 0.20012 0.58124
 H2494 H 0.71877 0.19177 0.60726
 H2495 H 0.73727 0.22922 0.62529
 H2496 H 0.74566 0.23758 0.59924
 C2497 C 0.71497 0.71565 0.11336
 C2498 C 0.72237 0.70321 0.10379
 C2499 C 0.72724 0.70811 0.09003
 C2500 C 0.72424 0.72496 0.08718
 C2501 C 0.73169 0.73320 0.10052
 C2502 C 0.72681 0.72830 0.11430
 C2503 C 0.70233 0.72206 0.10336
 C2504 C 0.70720 0.72695 0.08960
 C2505 C 0.70966 0.71030 0.12812
 C2506 C 0.70515 0.70574 0.14014
 C2507 C 0.72940 0.73013 0.07230
 C2508 C 0.73342 0.73414 0.05992
 H2509 H 0.72367 0.69158 0.10749
 H2510 H 0.73272 0.70067 0.08194
 H2511 H 0.74005 0.74209 0.09926
 H2512 H 0.73099 0.73300 0.12484
 H2513 H 0.69058 0.72270 0.10680
 H2514 H 0.69962 0.73178 0.08125
 C2515 C 0.53479 0.71613 0.13600
 C2516 C 0.54745 0.72263 0.14592
 C2517 C 0.54266 0.72734 0.15978
 C2518 C 0.52567 0.72509 0.16236
 C2519 C 0.52286 0.70822 0.15939
 C2520 C 0.52764 0.70352 0.14553
 C2521 C 0.52278 0.72863 0.13531
 C2522 C 0.51799 0.73334 0.14918
 C2523 C 0.53999 0.71100 0.12111
 C2524 C 0.54437 0.70663 0.10897
 C2525 C 0.52059 0.73009 0.17733
 C2526 C 0.51658 0.73403 0.18974
 H2527 H 0.55915 0.72346 0.14237
 H2528 H 0.55027 0.73220 0.16810
 H2529 H 0.51757 0.70064 0.16745
 H2530 H 0.52645 0.69190 0.14172
 H2531 H 0.51843 0.73336 0.12485
 H2532 H 0.50953 0.74211 0.15060
 C2533 C 0.03301 0.71826 0.63317
 C2534 C 0.02843 0.73499 0.63390
 C2535 C 0.02382 0.73953 0.64789
 C2536 C 0.02425 0.72688 0.65978
 C2537 C 0.04052 0.72093 0.65942
 C2538 C 0.04512 0.71640 0.64545
 C2539 C 0.01924 0.70954 0.63910
 C2540 C 0.01464 0.71407 0.65308
 C2541 C 0.03806 0.71327 0.61819
 C2542 C 0.04239 0.70893 0.60602
 C2543 C 0.01942 0.73162 0.67491
 C2544 C 0.01574 0.73520 0.68753
 H2545 H 0.02876 0.74260 0.62427
 H2546 H 0.02021 0.75102 0.65026
 H2547 H 0.04780 0.72032 0.66929
 H2548 H 0.05633 0.71192 0.64335
 H2549 H 0.01360 0.70060 0.63285
 H2550 H 0.00505 0.70901 0.65882
 C2551 C 0.53390 0.63608 0.21589
 C2552 C 0.52174 0.63544 0.22824
 C2553 C 0.51692 0.64932 0.23287
 C2554 C 0.52473 0.66249 0.22469
 C2555 C 0.52210 0.65948 0.20780
 C2556 C 0.52693 0.64560 0.20317
 C2557 C 0.54650 0.64599 0.22252
 C2558 C 0.54168 0.65987 0.22715
 C2559 C 0.53916 0.62119 0.21085
 C2560 C 0.54363 0.60904 0.20657
 C2561 C 0.51963 0.67748 0.22960
 C2562 C 0.51568 0.68993 0.23348
 H2563 H 0.51732 0.62499 0.23293
 H2564 H 0.50836 0.65078 0.24152
 H2565 H 0.51692 0.66754 0.20014
 H2566 H 0.52586 0.64178 0.19155
 H2567 H 0.55819 0.64243 0.22350
 H2568 H 0.54924 0.66819 0.23208
 C2569 C 0.03222 0.63366 0.71729
 C2570 C 0.02761 0.63452 0.73401
 C2571 C 0.02300 0.64856 0.73842
 C2572 C 0.02346 0.66034 0.72568
 C2573 C 0.01386 0.65355 0.71291
 C2574 C 0.01846 0.63952 0.70850
 C2575 C 0.04433 0.64592 0.71535
 C2576 C 0.03973 0.65993 0.71975
 C2577 C 0.03729 0.61864 0.71244
 C2578 C 0.04167 0.60644 0.70825
 C2579 C 0.01864 0.67551 0.73032
 C2580 C 0.01504 0.68816 0.73389
 H2581 H 0.02793 0.62496 0.74169
 H2582 H 0.01937 0.65102 0.74988
 H2583 H 0.00428 0.65925 0.70780
 H2584 H 0.01283 0.63320 0.69961
 H2585 H 0.05555 0.64378 0.71091
 H2586 H 0.04701 0.66979 0.71908
 C2587 C 0.03227 0.11662 0.03270
 C2588 C 0.03393 0.11377 0.01566
 C2589 C 0.02932 0.09973 0.01126
 C2590 C 0.02349 0.08993 0.02433
 C2591 C 0.01098 0.09934 0.03178
 C2592 C 0.01560 0.11338 0.03618
 C2593 C 0.04102 0.10372 0.04030
 C2594 C 0.03641 0.08970 0.03590
 C2595 C 0.03734 0.13165 0.03753
 C2596 C 0.04174 0.14386 0.04172
 C2597 C 0.01868 0.07474 0.01971
 C2598 C 0.01507 0.06209 0.01615
 H2599 H 0.03833 0.12205 0.00774
 H2600 H 0.02977 0.09599 -0.00043
 H2601 H -0.00049 0.09533 0.03344
 H2602 H 0.00808 0.12140 0.04161
 H2603 H 0.05005 0.10545 0.04843
 H2604 H 0.04150 0.07942 0.04027
 C2605 C 0.03239 0.61647 0.53224
 C2606 C 0.03378 0.61380 0.51514
 C2607 C 0.02912 0.59979 0.51067
 C2608 C 0.02353 0.58985 0.52375
 C2609 C 0.01113 0.59916 0.53150
 C2610 C 0.01579 0.61316 0.53597
 C2611 C 0.04129 0.60352 0.53956
 C2612 C 0.03664 0.58953 0.53510
 C2613 C 0.03752 0.63147 0.53714
 C2614 C 0.04194 0.64365 0.54137
 C2615 C 0.01866 0.57470 0.51906
 C2616 C 0.01501 0.56207 0.51546
 H2617 H 0.03803 0.62217 0.50724
 H2618 H 0.02938 0.59617 0.49895
 H2619 H -0.00031 0.59512 0.53331
 H2620 H 0.00835 0.62112 0.54160
 H2621 H 0.05046 0.60518 0.54755
 H2622 H 0.04182 0.57922 0.53928
 C2623 C 0.53249 0.11720 0.53217
 C2624 C 0.54531 0.10735 0.52592
 C2625 C 0.54076 0.09328 0.52161
 C2626 C 0.52382 0.09043 0.52395
 C2627 C 0.51588 0.10324 0.51536
 C2628 C 0.52044 0.11733 0.51968
 C2629 C 0.52555 0.10789 0.54505
 C2630 C 0.52099 0.09382 0.54074
 C2631 C 0.53750 0.13228 0.53693
 C2632 C 0.54182 0.14453 0.54107
 C2633 C 0.51905 0.07521 0.51941
 C2634 C 0.51543 0.06254 0.51593
 H2635 H 0.55695 0.11109 0.52496
 H2636 H 0.54849 0.08497 0.51695
 H2637 H 0.50743 0.10141 0.50665
 H2638 H 0.51590 0.12757 0.51468
 H2639 H 0.52431 0.11199 0.55656
 H2640 H 0.51585 0.08587 0.54854
 C2641 C 0.53311 0.61562 0.03339
 C2642 C 0.53564 0.61278 0.01645
 C2643 C 0.53085 0.59890 0.01174
 C2644 C 0.52401 0.58924 0.02442
 C2645 C 0.51139 0.59901 0.03120
 C2646 C 0.51618 0.61289 0.03592
 C2647 C 0.54103 0.60244 0.04141
 C2648 C 0.53625 0.58858 0.03670
 C2649 C 0.53837 0.63048 0.03857
 C2650 C 0.54292 0.64253 0.04305
 C2651 C 0.51901 0.57421 0.01948
 C2652 C 0.51527 0.56166 0.01573
 H2653 H 0.54072 0.62095 0.00884
 H2654 H 0.53184 0.59518 0.00008
 H2655 H 0.49973 0.59535 0.03220
 H2656 H 0.50862 0.62113 0.04096
 H2657 H 0.54964 0.60386 0.05003
 H2658 H 0.54077 0.57814 0.04129
 C2659 C 0.71711 0.13517 0.53401
 C2660 C 0.70488 0.14414 0.52560
 C2661 C 0.70949 0.15813 0.52110
 C2662 C 0.72587 0.16179 0.52544
 C2663 C 0.73527 0.14887 0.51871
 C2664 C 0.73067 0.13486 0.52321
 C2665 C 0.72201 0.14544 0.54713
 C2666 C 0.72661 0.15943 0.54262
 C2667 C 0.71208 0.12014 0.53891
 C2668 C 0.70781 0.10787 0.54305
 C2669 C 0.73075 0.17690 0.52065
 C2670 C 0.73458 0.18941 0.51684
 H2671 H 0.69360 0.13988 0.52337
 H2672 H 0.70215 0.16586 0.51502
 H2673 H 0.74472 0.15056 0.51107
 H2674 H 0.73616 0.12456 0.51944
 H2675 H 0.72187 0.14202 0.55891
 H2676 H 0.73042 0.16800 0.55055
 C2677 C 0.71576 0.63608 0.03392
 C2678 C 0.72672 0.63551 0.02050
 C2679 C 0.73134 0.64942 0.01572
 C2680 C 0.72452 0.66252 0.02484
 C2681 C 0.72862 0.65914 0.04137
 C2682 C 0.72402 0.64524 0.04614
 C2683 C 0.70277 0.64629 0.02867
 C2684 C 0.70738 0.66019 0.02390
 C2685 C 0.71074 0.62115 0.03912
 C2686 C 0.70647 0.60897 0.04350
 C2687 C 0.72943 0.67753 0.01978
 C2688 C 0.73332 0.68997 0.01582
 H2689 H 0.73053 0.62511 0.01521
 H2690 H 0.73909 0.65094 0.00635
 H2691 H 0.73462 0.66698 0.04868
 H2692 H 0.72607 0.64117 0.05754
 H2693 H 0.69099 0.64290 0.02870
 H2694 H 0.69954 0.66871 0.01984
 C2695 C 0.21626 0.61459 0.71603
 C2696 C 0.21754 0.61321 0.73329
 C2697 C 0.22215 0.59929 0.73803
 C2698 C 0.22502 0.58813 0.72505
 C2699 C 0.23644 0.59610 0.71471
 C2700 C 0.23183 0.61001 0.70997
 C2701 C 0.20563 0.60173 0.71125
 C2702 C 0.21024 0.58782 0.71599
 C2703 C 0.21123 0.62952 0.71086
 C2704 C 0.20694 0.64169 0.70648
 C2705 C 0.22990 0.57310 0.73007
 C2706 C 0.23373 0.56063 0.73399
 H2707 H 0.21505 0.62235 0.74109
 H2708 H 0.22361 0.59651 0.74990
 H2709 H 0.24720 0.59124 0.71142
 H2710 H 0.23865 0.61708 0.70261
 H2711 H 0.19539 0.60339 0.70471
 H2712 H 0.20394 0.57758 0.71351
 C2713 C 0.21797 0.11639 0.21707
 C2714 C 0.22665 0.11643 0.23211
 C2715 C 0.23108 0.10239 0.23670
 C2716 C 0.22639 0.08972 0.22579
 C2717 C 0.23289 0.09438 0.21039
 C2718 C 0.22847 0.10840 0.20581
 C2719 C 0.20480 0.10537 0.21950
 C2720 C 0.20923 0.09136 0.22408
 C2721 C 0.21310 0.13142 0.21204
 C2722 C 0.20888 0.14363 0.20771
 C2723 C 0.23104 0.07455 0.23059
 C2724 C 0.23461 0.06192 0.23425
 H2725 H 0.22909 0.12657 0.23858
 H2726 H 0.23732 0.10051 0.24710
 H2727 H 0.24033 0.08730 0.20369
 H2728 H 0.23211 0.11333 0.19518
 H2729 H 0.19303 0.10832 0.21778
 H2730 H 0.20124 0.08230 0.22628
 C2731 C 0.71783 1.11642 0.71741
 C2732 C 0.72397 1.10659 0.70450
 C2733 C 0.72841 1.09256 0.70901
 C2734 C 0.72630 1.08972 0.72600
 C2735 C 0.70956 1.09300 0.72904
 C2736 C 0.70511 1.10703 0.72453
 C2737 C 0.73045 1.11665 0.72932
 C2738 C 0.73490 1.10260 0.73384
 C2739 C 0.71293 1.13146 0.71245
 C2740 C 0.70868 1.14367 0.70816
 C2741 C 0.73097 1.07453 0.73073
 C2742 C 0.73453 1.06189 0.73433
 H2743 H 0.72476 1.11032 0.69283
 H2744 H 0.73301 1.08427 0.70121
 H2745 H 0.70187 1.08500 0.73429
 H2746 H 0.69362 1.11105 0.72591
 H2747 H 0.73544 1.12693 0.73381
 H2748 H 0.74371 1.10084 0.74220
 C2749 C 0.71501 0.61359 0.21467
 C2750 C 0.72467 0.61436 0.22907
 C2751 C 0.72958 0.60058 0.23394
 C2752 C 0.72434 0.58740 0.22393
 C2753 C 0.72973 0.59145 0.20794
 C2754 C 0.72482 0.60522 0.20308
 C2755 C 0.70217 0.60256 0.21846
 C2756 C 0.70708 0.58880 0.22332
 C2757 C 0.70967 0.62836 0.20938
 C2758 C 0.70515 0.64040 0.20489
 C2759 C 0.72953 0.57253 0.22909
 C2760 C 0.73359 0.56018 0.23314
 H2761 H 0.72742 0.62480 0.23493
 H2762 H 0.73653 0.59922 0.24396
 H2763 H 0.73677 0.58415 0.20105
 H2764 H 0.72767 0.60971 0.19202
 H2765 H 0.69028 0.60531 0.21741
 H2766 H 0.69938 0.57976 0.22643
 C2767 C 0.53207 0.13273 0.71744
 C2768 C 0.52842 0.13387 0.73438
 C2769 C 0.52396 0.14795 0.73879
 C2770 C 0.52357 0.15949 0.72584
 C2771 C 0.51331 0.15239 0.71377
 C2772 C 0.51778 0.13832 0.70936
 C2773 C 0.54394 0.14504 0.71457
 C2774 C 0.53948 0.15910 0.71898
 C2775 C 0.53697 0.11764 0.71259
 C2776 C 0.54119 0.10538 0.70841
 C2777 C 0.51888 0.17471 0.73048
 C2778 C 0.51530 0.18736 0.73404
 H2779 H 0.52928 0.12445 0.74220
 H2780 H 0.52098 0.15059 0.75040
 H2781 H 0.50341 0.15791 0.70911
 H2782 H 0.51170 0.13179 0.70092
 H2783 H 0.55490 0.14290 0.70952
 H2784 H 0.54662 0.16900 0.71771
 C2785 C 1.03175 0.13268 0.21765
 C2786 C 1.02780 0.13387 0.23452
 C2787 C 1.02343 0.14801 0.23884
 C2788 C 1.02344 0.15955 0.22588
 C2789 C 1.01332 0.15257 0.21362
 C2790 C 1.01769 0.13845 0.20930
 C2791 C 1.04383 0.14484 0.21501
 C2792 C 1.03947 0.15895 0.21933
 C2793 C 1.03657 0.11754 0.21290
 C2794 C 1.04074 0.10523 0.20880
 C2795 C 1.01886 0.17483 0.23043
 C2796 C 1.01539 0.18753 0.23393
 H2797 H 1.02839 0.12445 0.24236
 H2798 H 1.02026 0.15069 0.25039
 H2799 H 1.00358 0.15822 0.20878
 H2800 H 1.01169 0.13199 0.20074
 H2801 H 1.05486 0.14256 0.21017
 H2802 H 1.04675 0.16876 0.21820
 C2803 C 0.21601 0.63607 0.53456
 C2804 C 0.22255 0.64593 0.54726
 C2805 C 0.22722 0.65982 0.54251
 C2806 C 0.22490 0.66249 0.52552
 C2807 C 0.20805 0.65951 0.52275
 C2808 C 0.20338 0.64562 0.52750
 C2809 C 0.22844 0.63544 0.52248
 C2810 C 0.23311 0.64934 0.51772
 C2811 C 0.21091 0.62115 0.53972
 C2812 C 0.20657 0.60899 0.54407
 C2813 C 0.22986 0.67748 0.52047
 C2814 C 0.23377 0.68991 0.51649
 H2815 H 0.22343 0.64232 0.55896
 H2816 H 0.23210 0.66811 0.55015
 H2817 H 0.20046 0.66760 0.51752
 H2818 H 0.19178 0.64182 0.52634
 H2819 H 0.23314 0.62501 0.51805
 H2820 H 0.24183 0.65082 0.50922
 C2821 C 0.21688 0.13500 1.03377
 C2822 C 0.22345 0.14460 1.04665
 C2823 C 0.22794 0.15866 1.04221
 C2824 C 0.22541 0.16173 1.02532
 C2825 C 0.20857 0.15865 1.02265
 C2826 C 0.20408 0.14460 1.02709
 C2827 C 0.22918 0.13481 1.02155
 C2828 C 0.23367 0.14887 1.01711
 C2829 C 0.21199 0.11991 1.03860
 C2830 C 0.20783 0.10759 1.04268
 C2831 C 0.23018 0.17689 1.02058
 C2832 C 0.23396 0.18942 1.01681
 H2833 H 0.22449 0.14071 1.05825
 H2834 H 0.23281 0.16680 1.05000
 H2835 H 0.20084 0.16679 1.01770
 H2836 H 0.19251 0.14070 1.02594
 H2837 H 0.23395 0.12454 1.01681
 H2838 H 0.24228 0.15065 1.00856
 C2839 C 0.21625 0.71635 0.61443
 C2840 C 0.22190 0.70351 0.60422
 C2841 C 0.22651 0.70826 0.59032
 C2842 C 0.22503 0.72540 0.58798
 C2843 C 0.23392 0.73253 0.60107
 C2844 C 0.22930 0.72777 0.61499
 C2845 C 0.20380 0.72421 0.60526
 C2846 C 0.20841 0.72897 0.59136
 C2847 C 0.21121 0.71117 0.62935
 C2848 C 0.20692 0.70677 0.64151
 C2849 C 0.22993 0.73042 0.57296
 C2850 C 0.23379 0.73433 0.56050
 H2851 H 0.22224 0.69172 0.60761
 H2852 H 0.23080 0.70054 0.58180
 H2853 H 0.24303 0.74060 0.59956
 H2854 H 0.23446 0.73177 0.62539
 H2855 H 0.19237 0.72590 0.60934
 H2856 H 0.20093 0.73472 0.58353
 C2857 C 0.21687 0.21680 1.11549
 C2858 C 0.22920 0.22901 1.11579
 C2859 C 0.23370 0.23356 1.10178
 C2860 C 0.22543 0.22545 1.08884
 C2861 C 0.20858 0.22811 1.09192
 C2862 C 0.20409 0.22356 1.10593
 C2863 C 0.22342 0.20398 1.10580
 C2864 C 0.22792 0.20853 1.09179
 C2865 C 0.21197 0.21184 1.13053
 C2866 C 0.20780 0.20762 1.14280
 C2867 C 0.23021 0.23027 1.07372
 C2868 C 0.23398 0.23405 1.06119
 H2869 H 0.23397 0.23366 1.12610
 H2870 H 0.24233 0.24211 1.10007
 H2871 H 0.20087 0.23312 1.08380
 H2872 H 0.19252 0.22468 1.10981
 H2873 H 0.22444 0.19235 1.10961
 H2874 H 0.23278 0.20079 1.08360
 C2875 C 0.71616 0.53399 0.13531
 C2876 C 0.72890 0.52224 0.13470
 C2877 C 0.73354 0.51744 0.14860
 C2878 C 0.72498 0.52488 0.16173
 C2879 C 0.70824 0.52172 0.15852
 C2880 C 0.70361 0.52651 0.14464
 C2881 C 0.72226 0.54675 0.14539
 C2882 C 0.72690 0.54196 0.15927
 C2883 C 0.71111 0.53922 0.12041
 C2884 C 0.70679 0.54365 0.10826
 C2885 C 0.72990 0.51982 0.17673
 C2886 C 0.73377 0.51589 0.18919
 H2887 H 0.73383 0.51805 0.12427
 H2888 H 0.74244 0.50915 0.15008
 H2889 H 0.70069 0.51621 0.16646
 H2890 H 0.69209 0.52510 0.14068
 H2891 H 0.72289 0.55851 0.14192
 H2892 H 0.73149 0.54962 0.16770
 C2893 C 0.71758 1.03266 0.63357
 C2894 C 0.72279 1.04558 0.64394
 C2895 C 0.72717 1.04087 0.65793
 C2896 C 0.72594 1.02370 0.66019
 C2897 C 0.73523 1.01677 0.64729
 C2898 C 0.73084 1.02148 0.63328
 C2899 C 0.70507 1.02455 0.64242
 C2900 C 0.70946 1.01984 0.65641
 C2901 C 0.71275 1.03784 0.61858
 C2902 C 0.70855 1.04231 0.60640
 C2903 C 0.73055 1.01879 0.67534
 C2904 C 0.73410 1.01510 0.68797
 H2905 H 0.72302 1.05738 0.64059
 H2906 H 0.73116 1.04865 0.66656
 H2907 H 0.74444 1.00886 0.64901
 H2908 H 0.73628 1.01761 0.62299
 H2909 H 0.69376 1.02265 0.63807
 H2910 H 0.70191 1.01391 0.66405
 C2911 C 0.53276 0.21847 0.63318
 C2912 C 0.52659 0.23468 0.63381
 C2913 C 0.52203 0.23899 0.64790
 C2914 C 0.52409 0.22666 0.65994
 C2915 C 0.54084 0.22231 0.65911
 C2916 C 0.54539 0.21801 0.64504
 C2917 C 0.52011 0.20855 0.63970
 C2918 C 0.51555 0.21286 0.65377
 C2919 C 0.53775 0.21371 0.61810
 C2920 C 0.54204 0.20954 0.60586
 C2921 C 0.51930 0.23116 0.67516
 C2922 C 0.51566 0.23458 0.68783
 H2923 H 0.52586 0.24211 0.62407
 H2924 H 0.51739 0.25011 0.65023
 H2925 H 0.54846 0.22260 0.66872
 H2926 H 0.55692 0.21461 0.64262
 H2927 H 0.51516 0.19900 0.63378
 H2928 H 0.50670 0.20699 0.65990
 C2929 C 1.03325 0.21795 0.13288
 C2930 C 1.02719 0.23420 0.13338
 C2931 C 1.02263 0.23866 0.14741
 C2932 C 1.02458 0.22641 0.15956
 C2933 C 1.04130 0.22194 0.15880
 C2934 C 1.04586 0.21750 0.14478
 C2935 C 1.02053 0.20817 0.13945
 C2936 C 1.01597 0.21261 0.15348
 C2937 C 1.03825 0.21304 0.11785
 C2938 C 1.04254 0.20876 0.10564
 C2939 C 1.01979 0.23106 0.17473
 C2940 C 1.01614 0.23460 0.18737
 H2941 H 1.02654 0.24156 0.12358
 H2942 H 1.01807 0.24983 0.14964
 H2943 H 1.04891 0.22225 0.16842
 H2944 H 1.05736 0.21400 0.14240
 H2945 H 1.01553 0.19860 0.13360
 H2946 H 1.00706 0.20686 0.15964
 C2947 C 0.61649 0.21740 0.71769
 C2948 C 0.61480 0.23459 0.71937
 C2949 C 0.60077 0.23898 0.72396
 C2950 C 0.58984 0.22573 0.72641
 C2951 C 0.59786 0.21527 0.73769
 C2952 C 0.61188 0.21088 0.73310
 C2953 C 0.60384 0.21265 0.70681
 C2954 C 0.58984 0.21703 0.71139
 C2955 C 0.63151 0.21257 0.71265
 C2956 C 0.64370 0.20839 0.70831
 C2957 C 0.57467 0.23034 0.73121
 C2958 C 0.56204 0.23387 0.73483
 H2959 H 0.62382 0.24261 0.71717
 H2960 H 0.59778 0.25075 0.72569
 H2961 H 0.59297 0.21163 0.74834
 H2962 H 0.61900 0.20349 0.73982
 H2963 H 0.60572 0.20640 0.69641
 H2964 H 0.57972 0.21453 0.70492
 C2965 C 1.11678 0.21748 0.21710
 C2966 C 1.11490 0.23471 0.21815
 C2967 C 1.10087 0.23910 0.22273
 C2968 C 1.09012 0.22583 0.22581
 C2969 C 1.09839 0.21590 0.23738
 C2970 C 1.11241 0.21150 0.23280
 C2971 C 1.10406 0.21218 0.20656
 C2972 C 1.09006 0.21657 0.21113
 C2973 C 1.13179 0.21264 0.21208
 C2974 C 1.14400 0.20845 0.20776
 C2975 C 1.07496 0.23045 0.23061
 C2976 C 1.06234 0.23398 0.23425
 H2977 H 1.12379 0.24274 0.21554
 H2978 H 1.09775 0.25090 0.22404
 H2979 H 1.09366 0.21261 0.24821
 H2980 H 1.11969 0.20445 0.23971
 H2981 H 1.10590 0.20556 0.19638
 H2982 H 1.07991 0.21371 0.20487
 C2983 C 0.13534 0.71650 0.53265
 C2984 C 0.14489 0.72345 0.54537
 C2985 C 0.15887 0.72796 0.54081
 C2986 C 0.16194 0.72508 0.52397
 C2987 C 0.14902 0.73306 0.51559
 C2988 C 0.13503 0.72854 0.52015
 C2989 C 0.14503 0.70361 0.52625
 C2990 C 0.15901 0.70812 0.52169
 C2991 C 0.12032 0.71159 0.53763
 C2992 C 0.10807 0.70744 0.54188
 C2993 C 0.17704 0.72988 0.51913
 C2994 C 0.18955 0.73369 0.51535
 H2995 H 0.14101 0.72472 0.55694
 H2996 H 0.16697 0.73309 0.54847
 H2997 H 0.15071 0.74150 0.50684
 H2998 H 0.12473 0.73312 0.51532
 H2999 H 0.14123 0.69197 0.52538
 H3000 H 0.16720 0.70034 0.51691
 C3001 C 0.13526 0.21647 1.03313
 C3002 C 0.14474 0.22354 1.04583
 C3003 C 0.15876 0.22798 1.04131
 C3004 C 0.16193 0.22492 1.02452
 C3005 C 0.14907 0.23282 1.01598
 C3006 C 0.13504 0.22838 1.02050
 C3007 C 0.14497 0.20350 1.02692
 C3008 C 0.15899 0.20794 1.02240
 C3009 C 0.12021 0.21163 1.03807
 C3010 C 0.10793 0.20754 1.04227
 C3011 C 0.17706 0.22965 1.01973
 C3012 C 0.18959 0.23341 1.01597
 H3013 H 0.14080 0.22494 1.05737
 H3014 H 0.16682 0.23318 1.04897
 H3015 H 0.15083 0.24117 1.00715
 H3016 H 0.12478 0.23292 1.01556
 H3017 H 0.14116 0.19185 1.02615
 H3018 H 0.16719 0.20010 1.01775
 C3019 C 0.63588 0.53474 0.21646
 C3020 C 0.64410 0.52485 0.20481
 C3021 C 0.65796 0.52008 0.20949
 C3022 C 0.66225 0.52566 0.22536
 C3023 C 0.64930 0.52042 0.23564
 C3024 C 0.63543 0.52520 0.23095
 C3025 C 0.64688 0.54771 0.21995
 C3026 C 0.66073 0.54293 0.22463
 C3027 C 0.62101 0.53993 0.21135
 C3028 C 0.60887 0.54430 0.20698
 C3029 C 0.67722 0.52059 0.23031
 C3030 C 0.68965 0.51662 0.23418
 H3031 H 0.63944 0.52186 0.19385
 H3032 H 0.66517 0.51300 0.20254
 H3033 H 0.65088 0.51357 0.24569
 H3034 H 0.62513 0.52244 0.23700
 H3035 H 0.64403 0.55959 0.21885
 H3036 H 0.66975 0.55074 0.22753
 C3037 C 0.63310 1.03220 0.71813
 C3038 C 0.64229 1.02459 0.70554
 C3039 C 0.65633 1.02015 0.71000
 C3040 C 0.65981 1.02376 0.72662
 C3041 C 0.64701 1.01630 0.73563
 C3042 C 0.63296 1.02074 0.73116
 C3043 C 0.64306 1.04526 0.72373
 C3044 C 0.65710 1.04083 0.72819
 C3045 C 0.61805 1.03707 0.71321
 C3046 C 0.60581 1.04126 0.70896
 C3047 C 0.67500 1.01910 0.73131
 C3048 C 0.68764 1.01552 0.73486
 H3049 H 0.63813 1.02282 0.69412
 H3050 H 0.66419 1.01459 0.70241
 H3051 H 0.64883 1.00825 0.74472
 H3052 H 0.62273 1.01649 0.73642
 H3053 H 0.63940 1.05697 0.72416
 H3054 H 0.66546 1.04874 0.73244
 C3055 C 0.86611 0.46676 0.28319
 C3056 C 0.85648 0.47360 0.29589
 C3057 C 0.84260 0.47829 0.29123
 C3058 C 0.83969 0.47570 0.27431
 C3059 C 0.84249 0.45875 0.27180
 C3060 C 0.85638 0.45406 0.27647
 C3061 C 0.86668 0.47900 0.27089
 C3062 C 0.85277 0.48370 0.26621
 C3063 C 0.88098 0.46160 0.28833
 C3064 C 0.89304 0.45713 0.29278
 C3065 C 0.82465 0.48062 0.26942
 C3066 C 0.81210 0.48434 0.26572
 H3067 H 0.86024 0.47467 0.30753
 H3068 H 0.83446 0.48338 0.29887
 H3069 H 0.83430 0.45111 0.26679
 H3070 H 0.86007 0.44240 0.27545
 H3071 H 0.87707 0.48356 0.26625
 H3072 H 0.85125 0.49229 0.25758
 C3073 C 0.86319 0.96447 0.78577
 C3074 C 0.85346 0.95197 0.77868
 C3075 C 0.83976 0.95690 0.77373
 C3076 C 0.83712 0.97385 0.77635
 C3077 C 0.85050 0.98176 0.76867
 C3078 C 0.86422 0.97683 0.77362
 C3079 C 0.85334 0.97130 0.79831
 C3080 C 0.83964 0.97623 0.79336
 C3081 C 0.87790 0.95910 0.79117
 C3082 C 0.88989 0.95455 0.79573
 C3083 C 0.82231 0.97908 0.77109
 C3084 C 0.81000 0.98316 0.76697
 H3085 H 0.85703 0.94027 0.77764
 H3086 H 0.83158 0.94942 0.76845
 H3087 H 0.84931 0.99046 0.76009
 H3088 H 0.87478 0.98130 0.76930
 H3089 H 0.85683 0.97218 0.81005
 H3090 H 0.83138 0.98133 0.80086
 C3091 C 0.38531 0.28297 0.78383
 C3092 C 0.39480 0.27603 0.79659
 C3093 C 0.40876 0.27143 0.79205
 C3094 C 0.41186 0.27421 0.77521
 C3095 C 0.40904 0.29118 0.77286
 C3096 C 0.39508 0.29578 0.77739
 C3097 C 0.38493 0.27087 0.77138
 C3098 C 0.39890 0.26627 0.76685
 C3099 C 0.37031 0.28799 0.78876
 C3100 C 0.35808 0.29224 0.79293
 C3101 C 0.42693 0.26933 0.77038
 C3102 C 0.43941 0.26550 0.76653
 H3103 H 0.39091 0.27484 0.80816
 H3104 H 0.41683 0.26630 0.79975
 H3105 H 0.41728 0.29890 0.76806
 H3106 H 0.39136 0.30744 0.77647
 H3107 H 0.37461 0.26632 0.76656
 H3108 H 0.40055 0.25777 0.75814
 C3109 C 0.88556 0.28258 0.28333
 C3110 C 0.88523 0.27003 0.27133
 C3111 C 0.89922 0.26545 0.26683
 C3112 C 0.91215 0.27386 0.27478
 C3113 C 0.90924 0.27165 0.29174
 C3114 C 0.89526 0.27623 0.29624
 C3115 C 0.89510 0.29527 0.27634
 C3116 C 0.90907 0.29069 0.27185
 C3117 C 0.87055 0.28758 0.28823
 C3118 C 0.85830 0.29183 0.29238
 C3119 C 0.92724 0.26901 0.27000
 C3120 C 0.93975 0.26522 0.26620
 H3121 H 0.87493 0.26518 0.26677
 H3122 H 0.90090 0.25667 0.25842
 H3123 H 0.91743 0.26690 0.29954
 H3124 H 0.89148 0.27540 0.30788
 H3125 H 0.89122 0.30684 0.27503
 H3126 H 0.91717 0.29834 0.26669
 C3127 C 0.36646 0.78330 0.46753
 C3128 C 0.35649 0.79611 0.47363
 C3129 C 0.34251 0.79145 0.47804
 C3130 C 0.33986 0.77442 0.47592
 C3131 C 0.35277 0.76674 0.48459
 C3132 C 0.36677 0.77141 0.48017
 C3133 C 0.35720 0.77606 0.45476
 C3134 C 0.34322 0.77139 0.45917
 C3135 C 0.38144 0.78843 0.46268
 C3136 C 0.39362 0.79285 0.45848
 C3137 C 0.32473 0.76953 0.48056
 C3138 C 0.31213 0.76583 0.48411
 H3139 H 0.36010 0.80782 0.47443
 H3140 H 0.33415 0.79916 0.48261
 H3141 H 0.35107 0.75837 0.49341
 H3142 H 0.37706 0.76705 0.48521
 H3143 H 0.36127 0.77471 0.44326
 H3144 H 0.33532 0.76604 0.45145
 C3145 C 0.36620 0.28295 0.96714
 C3146 C 0.36674 0.27050 0.97923
 C3147 C 0.35282 0.26583 0.98389
 C3148 C 0.33976 0.27407 0.97601
 C3149 C 0.34253 0.27175 0.95903
 C3150 C 0.35642 0.27641 0.95437
 C3151 C 0.35663 0.29561 0.97413
 C3152 C 0.34274 0.29095 0.97879
 C3153 C 0.38109 0.28808 0.96201
 C3154 C 0.39317 0.29252 0.95758
 C3155 C 0.32471 0.26918 0.98089
 C3156 C 0.31215 0.26548 0.98459
 H3157 H 0.37712 0.26577 0.98372
 H3158 H 0.35128 0.25710 0.99239
 H3159 H 0.33430 0.26686 0.95135
 H3160 H 0.36010 0.27551 0.94270
 H3161 H 0.36044 0.30722 0.97533
 H3162 H 0.33465 0.29856 0.98398
 C3163 C 0.78265 0.46750 0.36641
 C3164 C 0.79543 0.47380 0.35654
 C3165 C 0.79081 0.47820 0.34252
 C3166 C 0.77386 0.47587 0.33974
 C3167 C 0.76599 0.48440 0.35265
 C3168 C 0.77062 0.48000 0.36668
 C3169 C 0.77564 0.45467 0.35705
 C3170 C 0.77102 0.45907 0.34304
 C3171 C 0.78774 0.46267 0.38144
 C3172 C 0.79215 0.45848 0.39363
 C3173 C 0.76903 0.48050 0.32457
 C3174 C 0.76540 0.48406 0.31193
 H3175 H 0.80708 0.47474 0.36023
 H3176 H 0.79851 0.48290 0.33421
 H3177 H 0.75754 0.49312 0.35092
 H3178 H 0.76614 0.48494 0.37698
 H3179 H 0.77440 0.44314 0.36109
 H3180 H 0.76582 0.45131 0.33506
 C3181 C 0.78426 0.96589 0.86453
 C3182 C 0.77588 0.95353 0.85566
 C3183 C 0.77100 0.95812 0.84180
 C3184 C 0.77496 0.97462 0.83815
 C3185 C 0.79214 0.97566 0.84016
 C3186 C 0.79703 0.97107 0.85402
 C3187 C 0.77324 0.97927 0.86514
 C3188 C 0.76835 0.98387 0.85127
 C3189 C 0.78959 0.96087 0.87941
 C3190 C 0.79409 0.95660 0.89155
 C3191 C 0.76980 0.97950 0.82317
 C3192 C 0.76582 0.98337 0.81072
 H3193 H 0.77396 0.94217 0.85991
 H3194 H 0.76489 0.95070 0.83416
 H3195 H 0.79980 0.97965 0.83145
 H3196 H 0.80887 0.97114 0.85719
 H3197 H 0.76961 0.98466 0.87555
 H3198 H 0.76052 0.99319 0.84979
 C3199 C 0.28202 0.78324 0.38328
 C3200 C 0.27068 0.77010 0.38300
 C3201 C 0.26620 0.76553 0.39703
 C3202 C 0.27351 0.77456 0.40994
 C3203 C 0.26980 0.79116 0.40651
 C3204 C 0.27427 0.79572 0.39250
 C3205 C 0.29505 0.77772 0.39330
 C3206 C 0.29058 0.77316 0.40730
 C3207 C 0.28695 0.78825 0.36827
 C3208 C 0.29123 0.79257 0.35607
 C3209 C 0.26884 0.76977 0.42510
 C3210 C 0.26529 0.76613 0.43774
 H3211 H 0.26653 0.76485 0.37270
 H3212 H 0.25823 0.75637 0.39875
 H3213 H 0.26414 0.79867 0.41440
 H3214 H 0.27243 0.80714 0.38838
 H3215 H 0.30676 0.77740 0.38970
 H3216 H 0.29847 0.76894 0.41570
 C3217 C 0.28263 0.28256 0.88397
 C3218 C 0.29542 0.27626 0.89384
 C3219 C 0.29080 0.27181 0.90783
 C3220 C 0.27385 0.27410 0.91060
 C3221 C 0.26599 0.26559 0.89767
 C3222 C 0.27061 0.27005 0.88365
 C3223 C 0.27562 0.29535 0.89336
 C3224 C 0.27100 0.29090 0.90736
 C3225 C 0.28771 0.28746 0.86896
 C3226 C 0.29210 0.29168 0.85678
 C3227 C 0.26903 0.26941 0.92576
 C3228 C 0.26541 0.26582 0.93839
 H3229 H 0.30707 0.27535 0.89015
 H3230 H 0.29851 0.26709 0.91614
 H3231 H 0.25754 0.25686 0.89936
 H3232 H 0.26612 0.26513 0.87333
 H3233 H 0.27437 0.30689 0.88936
 H3234 H 0.26581 0.29863 0.91535
 C3235 C 0.46644 0.28365 0.86468
 C3236 C 0.47265 0.29638 0.85467
 C3237 C 0.47723 0.29161 0.84076
 C3238 C 0.47516 0.27456 0.83822
 C3239 C 0.45839 0.27153 0.84140
 C3240 C 0.45381 0.27631 0.85531
 C3241 C 0.47907 0.27177 0.86524
 C3242 C 0.48366 0.26699 0.85132
 C3243 C 0.46144 0.28885 0.87961
 C3244 C 0.45716 0.29327 0.89177
 C3245 C 0.48002 0.26950 0.82320
 C3246 C 0.48384 0.26558 0.81072
 H3247 H 0.47338 0.30812 0.85819
 H3248 H 0.48188 0.29926 0.83237
 H3249 H 0.45079 0.26612 0.83343
 H3250 H 0.44228 0.27498 0.85925
 H3251 H 0.48398 0.26750 0.87565
 H3252 H 0.49249 0.25863 0.84980
 C3253 C 0.96631 0.28449 0.36389
 C3254 C 0.97894 0.27262 0.36452
 C3255 C 0.98358 0.26784 0.35062
 C3256 C 0.97514 0.27540 0.33748
 C3257 C 0.97719 0.29245 0.34002
 C3258 C 0.97255 0.29723 0.35390
 C3259 C 0.95372 0.27715 0.35447
 C3260 C 0.95836 0.27237 0.34059
 C3261 C 0.96125 0.28969 0.37880
 C3262 C 0.95694 0.29408 0.39096
 C3263 C 0.98007 0.27032 0.32249
 C3264 C 0.98396 0.26633 0.31006
 H3265 H 0.98380 0.26836 0.37494
 H3266 H 0.99242 0.25947 0.34914
 H3267 H 0.98188 0.30009 0.33164
 H3268 H 0.97327 0.30897 0.35742
 H3269 H 0.94217 0.27583 0.35837
 H3270 H 0.95079 0.26696 0.33259
 C3271 C 0.46548 0.36379 0.78413
 C3272 C 0.47768 0.36441 0.77182
 C3273 C 0.48229 0.35051 0.76701
 C3274 C 0.47424 0.33736 0.77499
 C3275 C 0.45734 0.34029 0.77252
 C3276 C 0.45273 0.35418 0.77733
 C3277 C 0.47226 0.35398 0.79673
 C3278 C 0.47687 0.34009 0.79193
 C3279 C 0.46046 0.37870 0.78937
 C3280 C 0.45621 0.39085 0.79382
 C3281 C 0.47914 0.32236 0.76990
 C3282 C 0.48302 0.30991 0.76595
 H3283 H 0.48228 0.37484 0.76728
 H3284 H 0.49084 0.34903 0.75835
 H3285 H 0.44966 0.33216 0.76745
 H3286 H 0.44111 0.35795 0.77637
 H3287 H 0.47335 0.35763 0.80840
 H3288 H 0.48190 0.33184 0.79949
 C3289 C 0.96636 0.36421 0.28383
 C3290 C 0.97923 0.36482 0.27222
 C3291 C 0.98387 0.35092 0.26743
 C3292 C 0.97517 0.33779 0.27472
 C3293 C 0.95849 0.34105 0.27138
 C3294 C 0.95385 0.35494 0.27616
 C3295 C 0.97227 0.35408 0.29661
 C3296 C 0.97690 0.34019 0.29182
 C3297 C 0.96131 0.37912 0.28905
 C3298 C 0.95700 0.39126 0.29348
 C3299 C 0.98009 0.32279 0.26966
 C3300 C 0.98397 0.31034 0.26573
 H3301 H 0.98426 0.37524 0.26813
 H3302 H 0.99287 0.34944 0.25924
 H3303 H 0.95097 0.33315 0.26575
 H3304 H 0.94237 0.35893 0.27463
 H3305 H 0.97277 0.35751 0.30839
 H3306 H 0.98137 0.33173 0.29951
 C3307 C 0.28400 0.86639 0.46670
 C3308 C 0.27289 0.86709 0.48000
 C3309 C 0.26811 0.85323 0.48478
 C3310 C 0.27491 0.84005 0.47577
 C3311 C 0.29207 0.84224 0.47689
 C3312 C 0.29684 0.85609 0.47213
 C3313 C 0.27580 0.85726 0.45443
 C3314 C 0.27102 0.84341 0.45919
 C3315 C 0.28925 0.88122 0.46145
 C3316 C 0.29378 0.89324 0.45690
 C3317 C 0.26990 0.82505 0.48075
 C3318 C 0.26611 0.81251 0.48449
 H3319 H 0.26912 0.87755 0.48521
 H3320 H 0.26023 0.85180 0.49407
 H3321 H 0.29979 0.83368 0.48108
 H3322 H 0.30865 0.85938 0.47223
 H3323 H 0.27390 0.86131 0.44300
 H3324 H 0.26503 0.83561 0.45184
 C3325 C 0.28321 0.36666 0.96853
 C3326 C 0.27124 0.36699 0.98108
 C3327 C 0.26667 0.35297 0.98559
 C3328 C 0.27452 0.34003 0.97710
 C3329 C 0.29147 0.34285 0.97933
 C3330 C 0.29604 0.35685 0.97482
 C3331 C 0.27616 0.35721 0.95579
 C3332 C 0.27159 0.34321 0.96030
 C3333 C 0.28823 0.38167 0.96356
 C3334 C 0.29254 0.39386 0.95924
 C3335 C 0.26972 0.32487 0.98182
 C3336 C 0.26606 0.31224 0.98539
 H3337 H 0.26676 0.37730 0.98598
 H3338 H 0.25827 0.35127 0.99436
 H3339 H 0.29921 0.33458 0.98404
 H3340 H 0.30769 0.36057 0.97568
 H3341 H 0.27485 0.36117 0.94424
 H3342 H 0.26637 0.33518 0.95261
 C3343 C 0.78328 0.38322 0.28178
 C3344 C 0.77598 0.39254 0.29446
 C3345 C 0.77138 0.40652 0.28996
 C3346 C 0.77451 0.40983 0.27322
 C3347 C 0.76688 0.39687 0.26454
 C3348 C 0.77149 0.38287 0.26905
 C3349 C 0.79613 0.39317 0.27574
 C3350 C 0.79152 0.40716 0.27124
 C3351 C 0.78834 0.36823 0.28674
 C3352 C 0.79267 0.35605 0.29106
 C3353 C 0.76967 0.42497 0.26851
 C3354 C 0.76599 0.43759 0.26494
 H3355 H 0.77455 0.38851 0.30596
 H3356 H 0.76600 0.41447 0.29761
 H3357 H 0.75859 0.39855 0.25565
 H3358 H 0.76716 0.37254 0.26402
 H3359 H 0.80782 0.38955 0.27504
 H3360 H 0.79926 0.41552 0.26669
   
