data_POSCAR
  _audit_creation_date              2014-09-24
  _audit_creation_method            'ToBaCCo'
  _symmetry_space_group_name_H-M    'P1'
  _symmetry_Int_Tables_number       1
  _symmetry_cell_setting            triclinic
  loop_
  _symmetry_equiv_pos_as_xyz
 x,y,z
_cell_length_a 70.6153
_cell_length_b 70.6151
_cell_length_c 70.5866
_cell_angle_alpha 89.993200
_cell_angle_beta 89.993100
_cell_angle_gamma 89.991100
loop_
  _atom_site_label
  _atom_site_type_symbol
  _atom_site_fract_x
  _atom_site_fract_y
  _atom_site_fract_z
C1 C 0.34183 1.36708 0.34196
 C2 C 0.34994 1.37504 0.32565
 C3 C 0.36620 1.36699 0.31727
 C4 C 0.37431 1.35079 0.32572
 C5 C 0.36634 1.34270 0.34202
 C6 C 0.35004 1.35085 0.35017
 C7 C 0.32551 1.37503 0.35006
 C8 C 0.31712 1.36696 0.36631
 C9 C 0.32556 1.35077 0.37442
 C10 C 0.34187 1.34268 0.36646
 C11 C 0.35003 1.32643 0.37447
 C12 C 0.36625 1.31813 0.36640
 C13 C 0.37434 1.32644 0.35018
 H14 H 0.34342 1.38749 0.31946
 H15 H 0.38680 1.34430 0.31959
 H16 H 0.31933 1.38748 0.34353
 H17 H 0.31942 1.34427 0.38691
 H18 H 0.34362 1.32018 0.38695
 H19 H 0.38683 1.32021 0.34379
 C20 C 0.34183 0.86708 0.84255
 C21 C 0.34998 0.87506 0.82627
 C22 C 0.36621 0.86698 0.81798
 C23 C 0.37431 0.85080 0.82632
 C24 C 0.36632 0.84267 0.84260
 C25 C 0.35001 0.85082 0.85075
 C26 C 0.32550 0.87503 0.85063
 C27 C 0.31707 0.86694 0.86686
 C28 C 0.32549 0.85072 0.87495
 C29 C 0.34182 0.84263 0.86701
 C30 C 0.34995 0.82635 0.87499
 C31 C 0.36618 0.81805 0.86692
 C32 C 0.37430 0.82639 0.85073
 H33 H 0.34356 0.88752 0.82000
 H34 H 0.38680 0.84440 0.82010
 H35 H 0.31934 0.88750 0.84412
 H36 H 0.31933 0.84420 0.88742
 H37 H 0.34352 0.82008 0.88745
 H38 H 0.38679 0.82017 0.84434
 C39 C 0.84232 1.36704 0.84177
 C40 C 0.85039 1.37499 0.82543
 C41 C 0.86662 1.36690 0.81701
 C42 C 0.87473 1.35070 0.82546
 C43 C 0.86680 1.34263 0.84179
 C44 C 0.85053 1.35080 0.84998
 C45 C 0.82603 1.37501 0.84991
 C46 C 0.81775 1.36694 0.86616
 C47 C 0.82611 1.35077 0.87429
 C48 C 0.84240 1.34266 0.86630
 C49 C 0.85055 1.32640 0.87430
 C50 C 0.86674 1.31807 0.86619
 C51 C 0.87480 1.32637 0.84995
 H52 H 0.84386 1.38743 0.81926
 H53 H 0.88720 1.34420 0.81930
 H54 H 0.81974 1.38745 0.84348
 H55 H 0.81990 1.34438 0.88678
 H56 H 0.84416 1.32018 0.88680
 H57 H 0.88726 1.32011 0.84353
 C58 C 0.84265 0.86722 0.34204
 C59 C 0.85074 0.87518 0.32572
 C60 C 0.86696 0.86709 0.31730
 C61 C 0.87505 0.85087 0.32572
 C62 C 0.86710 0.84278 0.34203
 C63 C 0.85083 0.85096 0.35022
 C64 C 0.82636 0.87519 0.35017
 C65 C 0.81805 0.86710 0.36639
 C66 C 0.82639 0.85091 0.37450
 C67 C 0.84267 0.84279 0.36652
 C68 C 0.85080 0.82651 0.37450
 C69 C 0.86698 0.81818 0.36639
 C70 C 0.87507 0.82649 0.35017
 H71 H 0.84422 0.88765 0.31956
 H72 H 0.88752 0.84436 0.31955
 H73 H 0.82009 0.88764 0.34375
 H74 H 0.82015 0.84450 0.38698
 H75 H 0.84439 0.82027 0.38698
 H76 H 0.88753 0.82023 0.34374
 C77 C 0.65748 0.63314 0.34198
 C78 C 0.64938 0.62518 0.32567
 C79 C 0.63314 0.63326 0.31727
 C80 C 0.62505 0.64948 0.32570
 C81 C 0.63302 0.65757 0.34201
 C82 C 0.64929 0.64939 0.35018
 C83 C 0.67378 0.62517 0.35010
 C84 C 0.68209 0.63326 0.36631
 C85 C 0.67375 0.64944 0.37444
 C86 C 0.65746 0.65756 0.36647
 C87 C 0.64933 0.67383 0.37446
 C88 C 0.63313 0.68216 0.36637
 C89 C 0.62504 0.67385 0.35015
 H90 H 0.65589 0.61272 0.31950
 H91 H 0.61257 0.65599 0.31956
 H92 H 0.68004 0.61272 0.34367
 H93 H 0.67999 0.65585 0.38691
 H94 H 0.65575 0.68007 0.38694
 H95 H 0.61257 0.68011 0.34375
 C96 C 0.65837 0.13340 0.84232
 C97 C 0.65023 0.12543 0.82603
 C98 C 0.63398 0.13349 0.81775
 C99 C 0.62585 0.14965 0.82612
 C100 C 0.63383 0.15777 0.84240
 C101 C 0.65016 0.14964 0.85053
 C102 C 0.67471 0.12547 0.85038
 C103 C 0.68312 0.13356 0.86661
 C104 C 0.67468 0.14976 0.87473
 C105 C 0.65834 0.15783 0.86679
 C106 C 0.65018 0.17408 0.87480
 C107 C 0.63393 0.18236 0.86674
 C108 C 0.62582 0.17402 0.85055
 H109 H 0.65666 0.11299 0.81974
 H110 H 0.61335 0.15603 0.81991
 H111 H 0.68089 0.11303 0.84385
 H112 H 0.68083 0.15628 0.88719
 H113 H 0.65660 0.18035 0.88725
 H114 H 0.61332 0.18023 0.84416
 C115 C 1.15820 0.63320 0.84247
 C116 C 1.15006 0.62522 0.82619
 C117 C 1.13383 0.63330 0.81789
 C118 C 1.12572 0.64948 0.82622
 C119 C 1.13371 0.65761 0.84250
 C120 C 1.15001 0.64946 0.85066
 C121 C 1.17451 0.62525 0.85056
 C122 C 1.18294 0.63334 0.86678
 C123 C 1.17452 0.64957 0.87487
 C124 C 1.15820 0.65765 0.86692
 C125 C 1.15006 0.67394 0.87489
 C126 C 1.13383 0.68224 0.86681
 C127 C 1.12572 0.67389 0.85062
 H128 H 1.15648 0.61276 0.81992
 H129 H 1.11324 0.65588 0.81999
 H130 H 1.18067 0.61278 0.84405
 H131 H 1.18068 0.65609 0.88734
 H132 H 1.15648 0.68021 0.88735
 H133 H 1.11324 0.68012 0.84422
 C134 C 1.15845 0.13345 0.34159
 C135 C 1.15035 0.12549 0.32528
 C136 C 1.13409 0.13355 0.31689
 C137 C 1.12599 0.14975 0.32534
 C138 C 1.13395 0.15784 0.34165
 C139 C 1.15025 0.14968 0.34980
 C140 C 1.17477 0.12549 0.34970
 C141 C 1.18315 0.13356 0.36596
 C142 C 1.17471 0.14975 0.37406
 C143 C 1.15840 0.15784 0.36610
 C144 C 1.15024 0.17409 0.37411
 C145 C 1.13402 0.18240 0.36603
 C146 C 1.12594 0.17409 0.34981
 H147 H 1.15687 0.11304 0.31909
 H148 H 1.11349 0.15624 0.31922
 H149 H 1.18095 0.11305 0.34318
 H150 H 1.18083 0.15625 0.38656
 H151 H 1.15664 0.18033 0.38659
 H152 H 1.11346 0.18033 0.34341
 C153 C 0.65834 1.36696 0.65766
 C154 C 0.65019 1.37494 0.67394
 C155 C 0.63395 1.36687 0.68222
 C156 C 0.62583 1.35071 0.67386
 C157 C 0.63382 1.34258 0.65759
 C158 C 0.65014 1.35071 0.64945
 C159 C 0.67468 1.37489 0.64959
 C160 C 0.68310 1.36679 0.63336
 C161 C 0.67467 1.35059 0.62526
 C162 C 0.65834 1.34252 0.63319
 C163 C 0.65018 1.32626 0.62520
 C164 C 0.63394 1.31798 0.63326
 C165 C 0.62582 1.32632 0.64945
 H166 H 0.65662 1.38738 0.68023
 H167 H 0.61333 1.34432 0.68007
 H168 H 0.68084 1.38734 0.65611
 H169 H 0.68083 1.34407 0.61279
 H170 H 0.65661 1.31998 0.61274
 H171 H 0.61333 1.32011 0.65583
 C172 C 0.65750 0.86708 1.15808
 C173 C 0.64940 0.87504 1.17439
 C174 C 0.63317 0.86696 1.18281
 C175 C 0.62509 0.85074 1.17439
 C176 C 0.63305 0.84264 1.15808
 C177 C 0.64932 0.85082 1.14990
 C178 C 0.67378 0.87505 1.14994
 C179 C 0.68210 0.86696 1.13372
 C180 C 0.67376 0.85077 1.12561
 C181 C 0.65748 0.84265 1.13359
 C182 C 0.64936 0.82637 1.12562
 C183 C 0.63316 0.81804 1.13373
 C184 C 0.62507 0.82636 1.14995
 H185 H 0.65591 0.88751 1.18055
 H186 H 0.61262 0.84423 1.18055
 H187 H 0.68005 0.88750 1.15636
 H188 H 0.68000 0.84436 1.11314
 H189 H 0.65576 0.82013 1.11314
 H190 H 0.61262 0.82010 1.15637
 C191 C 1.15768 1.36751 1.15695
 C192 C 1.14952 1.37550 1.17322
 C193 C 1.13329 1.36743 1.18151
 C194 C 1.12517 1.35126 1.17316
 C195 C 1.13317 1.34313 1.15689
 C196 C 1.14949 1.35126 1.14875
 C197 C 1.17401 1.37544 1.14888
 C198 C 1.18246 1.36733 1.13268
 C199 C 1.17403 1.35112 1.12457
 C200 C 1.15770 1.34306 1.13250
 C201 C 1.14956 1.32678 1.12452
 C202 C 1.13332 1.31849 1.13260
 C203 C 1.12519 1.32685 1.14876
 H204 H 1.15595 1.38794 1.17950
 H205 H 1.11268 1.34487 1.17938
 H206 H 1.18017 1.38790 1.15541
 H207 H 1.18021 1.34459 1.11212
 H208 H 1.15599 1.32049 1.11208
 H209 H 1.11269 1.32064 1.15516
 C210 C 1.15816 0.86707 0.65740
 C211 C 1.15000 0.87506 0.67367
 C212 C 1.13377 0.86699 0.68196
 C213 C 1.12566 0.85081 0.67362
 C214 C 1.13366 0.84268 0.65735
 C215 C 1.14998 0.85082 0.64921
 C216 C 1.17449 0.87501 0.64933
 C217 C 1.18293 0.86691 0.63312
 C218 C 1.17451 0.85069 0.62502
 C219 C 1.15818 0.84262 0.63296
 C220 C 1.15004 0.82634 0.62498
 C221 C 1.13381 0.81805 0.63305
 C222 C 1.12568 0.82640 0.64922
 H223 H 1.15642 0.88751 0.67995
 H224 H 1.11317 0.84442 0.67984
 H225 H 1.18064 0.88748 0.65585
 H226 H 1.18069 0.84417 0.61256
 H227 H 1.15648 0.82006 0.61253
 H228 H 1.11319 0.82019 0.65562
 C229 C 0.34329 0.63240 0.65668
 C230 C 0.35139 0.62444 0.67298
 C231 C 0.36757 0.63256 0.68134
 C232 C 0.37567 0.64876 0.67302
 C233 C 0.36772 0.65687 0.65671
 C234 C 0.35147 0.64868 0.64851
 C235 C 0.32701 0.62443 0.64855
 C236 C 0.31869 0.63255 0.63235
 C237 C 0.32701 0.64875 0.62425
 C238 C 0.34329 0.65687 0.63222
 C239 C 0.35140 0.67317 0.62427
 C240 C 0.36757 0.68151 0.63241
 C241 C 0.37568 0.67318 0.64861
 H242 H 0.34497 0.61198 0.67923
 H243 H 0.38812 0.65519 0.67929
 H244 H 0.32076 0.61197 0.65497
 H245 H 0.32075 0.65517 0.61179
 H246 H 0.34498 0.67943 0.61181
 H247 H 0.38812 0.67945 0.65505
 C248 C 0.34278 0.13278 1.15776
 C249 C 0.35085 0.12483 1.17409
 C250 C 0.36707 0.13292 1.18252
 C251 C 0.37517 0.14913 1.17408
 C252 C 0.36723 0.15721 1.15775
 C253 C 0.35097 0.14903 1.14957
 C254 C 0.32649 0.12481 1.14962
 C255 C 0.31820 0.13290 1.13340
 C256 C 0.32655 0.14907 1.12527
 C257 C 0.34283 0.15719 1.13325
 C258 C 0.35096 0.17346 1.12527
 C259 C 0.36714 0.18179 1.13339
 C260 C 0.37522 0.17349 1.14961
 H261 H 0.34433 0.11238 1.18026
 H262 H 0.38763 0.15564 1.18024
 H263 H 0.32022 0.11237 1.15605
 H264 H 0.32032 0.15548 1.11279
 H265 H 0.34456 0.17969 1.11278
 H266 H 0.38767 0.17975 1.15604
 C267 C 0.84325 0.63243 1.15665
 C268 C 0.85139 0.62444 1.17292
 C269 C 0.86760 0.63254 1.18123
 C270 C 0.87570 0.64873 1.17290
 C271 C 0.86771 0.65687 1.15662
 C272 C 0.85142 0.64871 1.14847
 C273 C 0.82693 0.62449 1.14856
 C274 C 0.81857 0.63262 1.13239
 C275 C 0.82689 0.64882 1.12428
 C276 C 0.84320 0.65692 1.13221
 C277 C 0.85130 0.67322 1.12425
 C278 C 0.86751 0.68153 1.13234
 C279 C 0.87566 0.67317 1.14851
 H280 H 0.84498 0.61198 1.17919
 H281 H 0.88817 0.65515 1.17914
 H282 H 0.82069 0.61203 1.15499
 H283 H 0.82060 0.65527 1.11184
 H284 H 0.84486 0.67950 1.11182
 H285 H 0.88813 0.67941 1.15492
 C286 C 0.84108 0.13392 0.65881
 C287 C 0.84919 0.12596 0.67513
 C288 C 0.86546 0.13401 0.68350
 C289 C 0.87356 0.15020 0.67504
 C290 C 0.86559 0.15829 0.65874
 C291 C 0.84929 0.15015 0.65060
 C292 C 0.82477 0.12597 0.65071
 C293 C 0.81638 0.13403 0.63444
 C294 C 0.82483 0.15022 0.62633
 C295 C 0.84114 0.15830 0.63429
 C296 C 0.84931 0.17455 0.62627
 C297 C 0.86554 0.18284 0.63434
 C298 C 0.87361 0.17453 0.65056
 H299 H 0.84267 0.11352 0.68132
 H300 H 0.88606 0.15668 0.68116
 H301 H 0.81858 0.11353 0.65724
 H302 H 0.81871 0.15671 0.61383
 H303 H 0.84292 0.18078 0.61378
 H304 H 0.88610 0.18076 0.65695
 C305 C 1.36635 0.34131 0.65884
 C306 C 1.37430 0.34941 0.67517
 C307 C 1.36624 0.36566 0.68356
 C308 C 1.35005 0.37377 0.67511
 C309 C 1.34197 0.36582 0.65879
 C310 C 1.35013 0.34953 0.65063
 C311 C 1.37432 0.32501 0.65073
 C312 C 1.36627 0.31664 0.63445
 C313 C 1.35008 0.32510 0.62634
 C314 C 1.34199 0.34139 0.63432
 C315 C 1.32575 0.34957 0.62630
 C316 C 1.31744 0.36578 0.63438
 C317 C 1.32573 0.37384 0.65061
 H318 H 1.38675 0.34288 0.68136
 H319 H 1.34356 0.38626 0.68124
 H320 H 1.38676 0.31881 0.65725
 H321 H 1.34360 0.31898 0.61384
 H322 H 1.31953 0.34318 0.61380
 H323 H 1.31949 0.38632 0.65701
 C324 C 1.36707 0.84211 1.15730
 C325 C 1.37507 0.85028 1.17357
 C326 C 1.36701 0.86653 1.18183
 C327 C 1.35085 0.87466 1.17347
 C328 C 1.34271 0.86666 1.15721
 C329 C 1.35083 0.85031 1.14910
 C330 C 1.37499 0.82576 1.14925
 C331 C 1.36687 0.81732 1.13305
 C332 C 1.35067 0.82575 1.12494
 C333 C 1.34262 0.84211 1.13286
 C334 C 1.32635 0.85026 1.12486
 C335 C 1.31808 0.86652 1.13292
 C336 C 1.32645 0.87465 1.14908
 H337 H 1.38750 0.84385 1.17986
 H338 H 1.34447 0.88717 1.17967
 H339 H 1.38744 0.81959 1.15578
 H340 H 1.34413 0.81958 1.11249
 H341 H 1.32006 0.84382 1.11243
 H342 H 1.32025 0.88716 1.15545
 C343 C 0.86709 0.34213 1.15730
 C344 C 0.87509 0.35028 1.17357
 C345 C 0.86702 0.36651 1.18187
 C346 C 0.85083 0.37462 1.17354
 C347 C 0.84267 0.36662 1.15729
 C348 C 0.85081 0.35030 1.14914
 C349 C 0.87502 0.32580 1.14922
 C350 C 0.86690 0.31736 1.13303
 C351 C 0.85067 0.32577 1.12495
 C352 C 0.84259 0.34209 1.13290
 C353 C 0.82629 0.35023 1.12494
 C354 C 0.81801 0.36646 1.13303
 C355 C 0.82638 0.37459 1.14919
 H356 H 0.88756 0.34387 1.17982
 H357 H 0.84443 0.38710 1.17977
 H358 H 0.88750 0.31965 1.15573
 H359 H 0.84413 0.31959 1.11251
 H360 H 0.82000 0.34379 1.11251
 H361 H 0.82017 0.38708 1.15559
 C362 C 0.86754 0.84320 0.65688
 C363 C 0.87550 0.85132 0.67317
 C364 C 0.86739 0.86751 0.68149
 C365 C 0.85120 0.87562 0.67316
 C366 C 0.84308 0.86766 0.65686
 C367 C 0.85126 0.85137 0.64869
 C368 C 0.87550 0.82690 0.64877
 C369 C 0.86738 0.81856 0.63258
 C370 C 0.85119 0.82689 0.62446
 C371 C 0.84308 0.84319 0.63241
 C372 C 0.82679 0.85130 0.62445
 C373 C 0.81846 0.86750 0.63255
 C374 C 0.82679 0.87561 0.64874
 H375 H 0.88795 0.84490 0.67943
 H376 H 0.84477 0.88808 0.67941
 H377 H 0.88795 0.82064 0.65520
 H378 H 0.84477 0.82062 0.61200
 H379 H 0.82053 0.84487 0.61199
 H380 H 0.82053 0.88808 0.65516
 C381 C 0.63254 0.65712 0.65697
 C382 C 0.62457 0.64901 0.67327
 C383 C 0.63268 0.63282 0.68161
 C384 C 0.64888 0.62471 0.67328
 C385 C 0.65699 0.63267 0.65698
 C386 C 0.64881 0.64894 0.64879
 C387 C 0.62458 0.67342 0.64885
 C388 C 0.63269 0.68175 0.63265
 C389 C 0.64888 0.67341 0.62454
 C390 C 0.65700 0.65712 0.63251
 C391 C 0.67329 0.64900 0.62455
 C392 C 0.68163 0.63281 0.63267
 C393 C 0.67329 0.62471 0.64887
 H394 H 0.61211 0.65544 0.67952
 H395 H 0.65530 0.61225 0.67955
 H396 H 0.61212 0.67968 0.65527
 H397 H 0.65531 0.67967 0.61208
 H398 H 0.67955 0.65543 0.61209
 H399 H 0.67955 0.61225 0.65530
 C400 C 0.63285 1.15810 1.15721
 C401 C 0.62485 1.14993 1.17347
 C402 C 0.63292 1.13370 1.18176
 C403 C 0.64911 1.12560 1.17342
 C404 C 0.65726 1.13361 1.15717
 C405 C 0.64912 1.14993 1.14903
 C406 C 0.62491 1.17443 1.14914
 C407 C 0.63303 1.18289 1.13295
 C408 C 0.64926 1.17448 1.12486
 C409 C 0.65734 1.15815 1.13279
 C410 C 0.67363 1.15002 1.12482
 C411 C 0.68192 1.13379 1.13289
 C412 C 0.67355 1.12564 1.14905
 H413 H 0.61239 1.15634 1.17973
 H414 H 0.65551 1.11310 1.17964
 H415 H 0.61244 1.18058 1.15566
 H416 H 0.65580 1.18067 1.11241
 H417 H 0.67992 1.15647 1.11239
 H418 H 0.67977 1.11315 1.15544
 C419 C 0.13337 0.65873 1.15849
 C420 C 0.12541 0.65061 1.17480
 C421 C 0.13345 0.63434 1.18316
 C422 C 0.14963 0.62622 1.17469
 C423 C 0.15773 0.63420 1.15839
 C424 C 0.14959 0.65052 1.15026
 C425 C 0.12543 0.67506 1.15040
 C426 C 0.13349 0.68346 1.13415
 C427 C 0.14968 0.67501 1.12602
 C428 C 0.15776 0.65868 1.13397
 C429 C 0.17400 0.65051 1.12594
 C430 C 0.18228 0.63427 1.13400
 C431 C 0.17396 0.62618 1.15022
 H432 H 0.11297 0.65714 1.18100
 H433 H 0.15611 0.61371 1.18080
 H434 H 0.11299 0.68125 1.15694
 H435 H 0.15618 0.68114 1.11353
 H436 H 0.18025 0.65691 1.11346
 H437 H 0.18018 0.61368 1.15660
 C438 C 0.13266 1.15728 0.65777
 C439 C 0.12473 1.14921 0.67411
 C440 C 0.13283 1.13299 0.68253
 C441 C 0.14903 1.12488 0.67409
 C442 C 0.15709 1.13282 0.65775
 C443 C 0.14890 1.14907 0.64956
 C444 C 0.12468 1.17356 0.64963
 C445 C 0.13275 1.18185 0.63338
 C446 C 0.14891 1.17349 0.62525
 C447 C 0.15704 1.15721 0.63323
 C448 C 0.17330 1.14908 0.62523
 C449 C 0.18165 1.13290 0.63335
 C450 C 0.17337 1.12483 0.64959
 H451 H 0.11228 1.15573 0.68029
 H452 H 0.15555 1.11242 0.68025
 H453 H 0.11224 1.17985 0.65606
 H454 H 0.15531 1.17971 0.61275
 H455 H 0.17952 1.15547 0.61274
 H456 H 0.17964 1.11238 0.65602
 C457 C 1.36666 0.65872 0.34165
 C458 C 1.37463 0.65060 0.32534
 C459 C 1.36659 0.63432 0.31698
 C460 C 1.35041 0.62621 0.32545
 C461 C 1.34231 0.63420 0.34175
 C462 C 1.35045 0.65051 0.34987
 C463 C 1.37460 0.67506 0.34972
 C464 C 1.36653 0.68346 0.36597
 C465 C 1.35035 0.67501 0.37410
 C466 C 1.34228 0.65868 0.36616
 C467 C 1.32603 0.65052 0.37419
 C468 C 1.31775 0.63428 0.36613
 C469 C 1.32607 0.62618 0.34992
 H470 H 1.38707 0.65713 0.31914
 H471 H 1.34393 0.61371 0.31935
 H472 H 1.38704 0.68124 0.34319
 H473 H 1.34385 0.68115 0.38658
 H474 H 1.31978 0.65692 0.38666
 H475 H 1.31986 0.61368 0.34354
 C476 C 1.36706 1.15822 0.84261
 C477 C 1.37504 1.15009 0.82631
 C478 C 1.36697 1.13386 0.81802
 C479 C 1.35081 1.12573 0.82637
 C480 C 1.34268 1.13370 0.84266
 C481 C 1.35081 1.15002 0.85081
 C482 C 1.37499 1.17455 0.85069
 C483 C 1.36689 1.18296 0.86692
 C484 C 1.35068 1.17452 0.87502
 C485 C 1.34262 1.15820 0.86707
 C486 C 1.32635 1.15004 0.87506
 C487 C 1.31807 1.13381 0.86698
 C488 C 1.32641 1.12571 0.85079
 H489 H 1.38748 1.15652 0.82003
 H490 H 1.34441 1.11324 0.82015
 H491 H 1.38744 1.18072 0.84416
 H492 H 1.34417 1.18068 0.88749
 H493 H 1.32008 1.15646 0.88752
 H494 H 1.32020 1.11322 0.84439
 C495 C 0.86721 0.65733 0.84287
 C496 C 0.87518 0.64920 0.82658
 C497 C 0.86708 0.63300 0.81825
 C498 C 0.85088 0.62490 0.82658
 C499 C 0.84275 0.63288 0.84287
 C500 C 0.85092 0.64915 0.85104
 C501 C 0.87516 0.67362 0.85098
 C502 C 0.86704 0.68196 0.86717
 C503 C 0.85084 0.67364 0.87527
 C504 C 0.84273 0.65735 0.86732
 C505 C 0.82643 0.64924 0.87528
 C506 C 0.81811 0.63304 0.86717
 C507 C 0.82645 0.62492 0.85098
 H508 H 0.88764 0.65561 0.82033
 H509 H 0.84446 0.61244 0.82033
 H510 H 0.88763 0.67987 0.84456
 H511 H 0.84441 0.67991 0.88773
 H512 H 0.82017 0.65567 0.88773
 H513 H 0.82020 0.61246 0.84456
 C514 C 0.86724 1.15739 0.34222
 C515 C 0.87519 1.14931 0.32590
 C516 C 0.86709 1.13311 0.31747
 C517 C 0.85087 1.12502 0.32588
 C518 C 0.84278 1.13297 0.34221
 C519 C 0.85097 1.14922 0.35040
 C520 C 0.87522 1.17367 0.35037
 C521 C 0.86713 1.18197 0.36659
 C522 C 0.85094 1.17364 0.37470
 C523 C 0.84281 1.15737 0.36671
 C524 C 0.82652 1.14926 0.37468
 C525 C 0.81818 1.13309 0.36656
 C526 C 0.82649 1.12500 0.35033
 H527 H 0.88766 1.15582 0.31975
 H528 H 0.84435 1.11257 0.31971
 H529 H 0.88768 1.17993 0.34395
 H530 H 0.84453 1.17988 0.38718
 H531 H 0.82029 1.15566 0.38717
 H532 H 0.82022 1.11256 0.34390
 C533 C 0.63278 0.34301 0.34235
 C534 C 0.62481 0.35111 0.32605
 C535 C 0.63291 0.36732 0.31762
 C536 C 0.64914 0.37540 0.32603
 C537 C 0.65724 0.36743 0.34233
 C538 C 0.64905 0.35117 0.35053
 C539 C 0.62481 0.32672 0.35049
 C540 C 0.63291 0.31840 0.36670
 C541 C 0.64910 0.32672 0.37480
 C542 C 0.65723 0.34300 0.36682
 C543 C 0.67352 0.35111 0.37478
 C544 C 0.68186 0.36729 0.36666
 C545 C 0.67354 0.37539 0.35045
 H546 H 0.61234 0.34460 0.31990
 H547 H 0.65565 0.38786 0.31986
 H548 H 0.61234 0.32047 0.34408
 H549 H 0.65552 0.32047 0.38727
 H550 H 0.67976 0.34469 0.38725
 H551 H 0.67980 0.38784 0.34403
 C552 C 0.63256 0.84313 0.84302
 C553 C 0.62460 0.85125 0.82672
 C554 C 0.63271 0.86744 0.81839
 C555 C 0.64890 0.87554 0.82672
 C556 C 0.65702 0.86758 0.84302
 C557 C 0.64884 0.85130 0.85120
 C558 C 0.62459 0.82684 0.85114
 C559 C 0.63270 0.81850 0.86734
 C560 C 0.64890 0.82682 0.87545
 C561 C 0.65702 0.84311 0.86748
 C562 C 0.67331 0.85122 0.87544
 C563 C 0.68164 0.86741 0.86733
 C564 C 0.67331 0.87553 0.85113
 H565 H 0.61214 0.84483 0.82047
 H566 H 0.65533 0.88800 0.82046
 H567 H 0.61213 0.82059 0.84472
 H568 H 0.65532 0.82056 0.88791
 H569 H 0.67957 0.84480 0.88790
 H570 H 0.67957 0.88799 0.84470
 C571 C 0.13293 0.34203 0.84265
 C572 C 0.12496 0.35018 0.82635
 C573 C 0.13304 0.36641 0.81807
 C574 C 0.14920 0.37453 0.82644
 C575 C 0.15732 0.36655 0.84272
 C576 C 0.14917 0.35023 0.85086
 C577 C 0.12499 0.32570 0.85072
 C578 C 0.13308 0.31728 0.86694
 C579 C 0.14928 0.32571 0.87506
 C580 C 0.15735 0.34204 0.86713
 C581 C 0.17362 0.35019 0.87513
 C582 C 0.18191 0.36642 0.86706
 C583 C 0.17357 0.37454 0.85087
 H584 H 0.11253 0.34375 0.82007
 H585 H 0.15559 0.38703 0.82022
 H586 H 0.11255 0.31953 0.84418
 H587 H 0.15579 0.31955 0.88753
 H588 H 0.17988 0.34376 0.88758
 H589 H 0.17980 0.38703 0.84448
 C590 C 0.13346 0.84159 0.34154
 C591 C 0.12548 0.84970 0.32524
 C592 C 0.13352 0.86598 0.31686
 C593 C 0.14971 0.87408 0.32531
 C594 C 0.15782 0.86611 0.34160
 C595 C 0.14969 0.84980 0.34975
 C596 C 0.12552 0.82526 0.34964
 C597 C 0.13360 0.81687 0.36589
 C598 C 0.14979 0.82531 0.37399
 C599 C 0.15786 0.84163 0.36603
 C600 C 0.17411 0.84980 0.37404
 C601 C 0.18239 0.86603 0.36597
 C602 C 0.17407 0.87412 0.34976
 H603 H 0.11304 0.84318 0.31906
 H604 H 0.15619 0.88659 0.31919
 H605 H 0.11308 0.81908 0.34312
 H606 H 0.15629 0.81918 0.38648
 H607 H 0.18036 0.84340 0.38652
 H608 H 0.18028 0.88661 0.34337
 O609 O 1.06836 1.01860 1.09453
 O610 O 1.09041 1.01862 1.11665
 C611 C 1.07500 1.02507 1.10995
 C612 C 1.06491 1.04055 1.11989
 C613 C 1.07109 1.04690 1.13771
 H614 H 1.08301 1.03999 1.14444
 O615 O 0.93168 0.98180 1.09443
 O616 O 0.90965 0.98179 1.11657
 C617 C 0.92506 0.97534 1.10986
 C618 C 0.93518 0.95988 1.11982
 C619 C 0.92906 0.95357 1.13768
 H620 H 0.91715 0.96050 1.14442
 O621 O 1.01854 1.09448 1.06851
 O622 O 1.01857 1.11666 1.09050
 C623 C 1.02500 1.10993 1.07509
 C624 C 1.04041 1.11988 1.06491
 C625 C 1.04668 1.13777 1.07094
 H626 H 1.03977 1.14454 1.08285
 O627 O 0.98160 0.90594 1.06849
 O628 O 0.98153 0.88377 1.09050
 C629 C 0.97513 0.89050 1.07508
 C630 C 0.95971 0.88056 1.06489
 C631 C 0.95348 0.86265 1.07090
 H632 H 0.96042 0.85586 1.08278
 O633 O 1.09428 1.06847 1.01854
 O634 O 1.11644 1.09047 1.01857
 C635 C 1.10971 1.07507 1.02501
 C636 C 1.11966 1.06492 1.04046
 C637 C 1.13753 1.07099 1.04674
 H638 H 1.14430 1.08288 1.03980
 O639 O 0.90574 0.93194 1.01856
 O640 O 0.88359 0.90993 1.01858
 C641 C 0.89031 0.92533 1.02503
 C642 C 0.88035 0.93546 1.04048
 C643 C 0.86250 0.92935 1.04679
 H644 H 0.85575 0.91744 1.03988
 O645 O 0.98162 1.06858 1.09449
 O646 O 0.98160 1.09061 1.11663
 C647 C 0.97516 1.07520 1.10992
 C648 C 0.95971 1.06507 1.11988
 C649 C 0.95342 1.07117 1.13774
 H650 H 0.96034 1.08307 1.14450
 O651 O 1.01852 0.93180 1.09452
 O652 O 1.01848 0.90977 1.11666
 C653 C 1.02495 0.92516 1.10996
 C654 C 1.04041 0.93527 1.11993
 C655 C 1.04675 0.92908 1.13775
 H656 H 1.03985 0.91714 1.14446
 O657 O 1.09425 0.98164 1.06856
 O658 O 1.11644 0.98162 1.09055
 C659 C 1.10970 0.97518 1.07515
 C660 C 1.11965 0.95976 1.06498
 C661 C 1.13753 0.95347 1.07104
 H662 H 1.14430 0.96038 1.08295
 O663 O 0.90579 1.01876 1.06847
 O664 O 0.88363 1.01880 1.09048
 C665 C 0.89036 1.02523 1.07507
 C666 C 0.88041 1.04067 1.06490
 C667 C 0.86254 1.04698 1.07098
 H668 H 0.85578 1.04007 1.08289
 O669 O 0.93177 1.09456 1.01850
 O670 O 0.90977 1.11672 1.01852
 C671 C 0.92517 1.10999 1.02497
 C672 C 0.93529 1.11993 1.04044
 C673 C 0.92917 1.13778 1.04674
 H674 H 0.91728 1.14453 1.03981
 O675 O 1.06838 0.90578 1.01860
 O676 O 1.09041 0.88364 1.01863
 C677 C 1.07501 0.89036 1.02508
 C678 C 1.06490 0.88043 1.04056
 C679 C 1.07106 0.86261 1.04695
 H680 H 1.08299 0.85587 1.04006
 O681 O 0.93169 1.01874 1.09445
 O682 O 0.90966 1.01877 1.11659
 C683 C 0.92507 1.02520 1.10989
 C684 C 0.93522 1.04062 1.11986
 C685 C 0.92912 1.04691 1.13773
 H686 H 0.91720 1.04000 1.14447
 O687 O 1.06837 0.98165 1.09457
 O688 O 1.09042 0.98162 1.11669
 C689 C 1.07501 0.97518 1.11000
 C690 C 1.06489 0.95972 1.11996
 C691 C 1.07105 0.95334 1.13777
 H692 H 1.08299 0.96022 1.14451
 O693 O 1.01854 0.90588 1.06856
 O694 O 1.01850 0.88372 1.09058
 C695 C 1.02498 0.89044 1.07518
 C696 C 1.04044 0.88047 1.06506
 C697 C 1.04679 0.86266 1.07125
 H698 H 1.03990 0.85595 1.08321
 O699 O 0.98161 1.09450 1.06853
 O700 O 0.98159 1.11667 1.09054
 C701 C 0.97515 1.10994 1.07513
 C702 C 0.95972 1.11990 1.06497
 C703 C 0.95341 1.13775 1.07108
 H704 H 0.96030 1.14449 1.08301
 O705 O 0.90584 1.06863 1.01848
 O706 O 0.88371 1.09067 1.01850
 C707 C 0.89041 1.07525 1.02495
 C708 C 0.88044 1.06512 1.04039
 C709 C 0.86258 1.07123 1.04666
 H710 H 0.85584 1.08313 1.03971
 O711 O 1.09424 0.93178 1.01857
 O712 O 1.11640 0.90977 1.01859
 C713 C 1.10968 0.92517 1.02503
 C714 C 1.11964 0.93532 1.04046
 C715 C 1.13751 0.92923 1.04672
 H716 H 1.14427 0.91734 1.03976
 O717 O 0.98158 0.93185 1.09445
 O718 O 0.98150 0.90982 1.11659
 C719 C 0.97509 0.92524 1.10987
 C720 C 0.95964 0.93539 1.11982
 C721 C 0.95332 0.92928 1.13768
 H722 H 0.96023 0.91736 1.14443
 O723 O 1.01856 1.06859 1.09450
 O724 O 1.01859 1.09063 1.11663
 C725 C 1.02503 1.07522 1.10993
 C726 C 1.04048 1.06508 1.11989
 C727 C 1.04686 1.07124 1.13771
 H728 H 1.04000 1.08320 1.14444
 O729 O 0.90575 0.98182 1.06849
 O730 O 0.88359 0.98182 1.09050
 C731 C 0.89031 0.97538 1.07510
 C732 C 0.88035 0.95994 1.06496
 C733 C 0.86250 0.95364 1.07107
 H734 H 0.85575 0.96056 1.08299
 O735 O 1.09424 1.01857 1.06854
 O736 O 1.11643 1.01859 1.09053
 C737 C 1.10969 1.02503 1.07512
 C738 C 1.11964 1.04045 1.06496
 C739 C 1.13752 1.04671 1.07103
 H740 H 1.14427 1.03978 1.08293
 O741 O 0.93170 0.90603 1.01854
 O742 O 0.90968 0.88388 1.01855
 C743 C 0.92509 0.89059 1.02499
 C744 C 0.93525 0.88060 1.04040
 C745 C 0.92921 0.86269 1.04661
 H746 H 0.91733 0.85593 1.03964
 O747 O 1.06837 1.09443 1.01850
 O748 O 1.09040 1.11657 1.01852
 C749 C 1.07498 1.10986 1.02495
 C750 C 1.06484 1.11984 1.04038
 C751 C 1.07092 1.13773 1.04661
 H752 H 1.08280 1.14448 1.03964
 Cu753 Cu 1.07909 1.00011 1.07935
 Cu754 Cu 1.10564 1.00011 1.10582
 Cu755 Cu 0.92094 1.00028 1.07925
 Cu756 Cu 0.89441 1.00030 1.10576
 Cu757 Cu 1.00008 1.07933 1.07931
 Cu758 Cu 1.00009 1.10586 1.10580
 Cu759 Cu 1.00007 0.92107 1.07930
 Cu760 Cu 0.99999 0.89455 1.10580
 C761 C 1.04949 1.04962 1.11120
 H762 H 1.04481 1.04496 1.09735
 C763 C 1.06216 1.06224 1.14677
 C764 C 0.95059 0.95080 1.11111
 H765 H 0.95523 0.95543 1.09723
 C766 C 0.93804 0.93828 1.14676
 C767 C 1.04947 1.11113 1.04951
 H768 H 1.04487 1.09723 1.04494
 C769 C 1.06192 1.14685 1.06188
 C770 C 0.95062 0.88932 1.04952
 H771 H 0.95519 0.90324 1.04497
 C772 C 0.93824 0.85356 1.06184
 C773 C 1.11092 1.04954 1.04955
 H774 H 1.09703 1.04494 1.04495
 C775 C 1.14662 1.06197 1.06201
 C776 C 0.88906 0.95087 1.04954
 H777 H 0.90294 0.95550 1.04491
 C778 C 0.85342 0.93836 1.06208
 C779 C 0.95064 1.04968 1.11115
 H780 H 0.95526 1.04506 1.09726
 C781 C 0.93813 1.06217 1.14682
 C782 C 1.04945 0.95070 1.11125
 H783 H 1.04479 0.95538 1.09740
 C784 C 1.06207 0.93803 1.14682
 C785 C 1.11092 0.95070 1.04957
 H786 H 1.09702 0.95530 1.04498
 C787 C 1.14662 0.93822 1.06199
 C788 C 0.88915 1.04973 1.04949
 H789 H 0.90304 1.04510 1.04489
 C790 C 0.85347 1.06224 1.06194
 C791 C 0.95068 1.11120 1.04953
 H792 H 0.95531 1.09733 1.04490
 C793 C 0.93814 1.14684 1.06205
 C794 C 1.04947 0.88914 1.04960
 H795 H 1.04480 0.90298 1.04492
 C796 C 1.06209 0.85358 1.06229
 O797 O 1.06846 0.98168 0.90572
 O798 O 1.09049 0.98165 0.88357
 C799 C 1.07508 0.97522 0.89028
 C800 C 1.06494 0.95979 0.88032
 C801 C 1.07105 0.95350 0.86246
 H802 H 1.08296 0.96042 0.85571
 O803 O 0.93167 1.01878 0.90563
 O804 O 0.90963 1.01877 0.88349
 C805 C 0.92504 1.02523 0.89019
 C806 C 0.93514 1.04069 0.88022
 C807 C 0.92892 1.04707 0.86242
 H808 H 0.91696 1.04019 0.85573
 O809 O 0.98162 1.09446 0.93154
 O810 O 0.98164 1.11662 0.90953
 C811 C 0.97519 1.10991 0.92494
 C812 C 0.95977 1.11989 0.93510
 C813 C 0.95348 1.13775 0.92898
 H814 H 0.96040 1.14448 0.91705
 O815 O 1.01854 0.90587 0.93166
 O816 O 1.01853 0.88372 0.90963
 C817 C 1.02498 0.89043 0.92504
 C818 C 1.04040 0.88045 0.93520
 C819 C 1.04672 0.86260 0.92908
 H820 H 1.03983 0.85586 0.91715
 O821 O 1.09430 0.93172 0.98161
 O822 O 1.11645 0.90970 0.98160
 C823 C 1.10973 0.92510 0.97515
 C824 C 1.11969 0.93524 0.95970
 C825 C 1.13754 0.92910 0.95339
 H826 H 1.14428 0.91718 0.96030
 O827 O 0.90580 1.06868 0.98153
 O828 O 0.88368 1.09072 0.98151
 C829 C 0.89038 1.07531 0.97506
 C830 C 0.88041 1.06520 0.95961
 C831 C 0.86258 1.07135 0.95327
 H832 H 0.85585 1.08328 0.96017
 O833 O 1.01852 1.06848 0.90560
 O834 O 1.01858 1.09050 0.88345
 C835 C 1.02500 1.07509 0.89017
 C836 C 1.04045 1.06494 0.88023
 C837 C 1.04675 1.07103 0.86236
 H838 H 1.03982 1.08292 0.85559
 O839 O 0.98163 0.93188 0.90574
 O840 O 0.98158 0.90987 0.88358
 C841 C 0.97517 0.92529 0.89030
 C842 C 0.95975 0.93546 0.88034
 C843 C 0.95350 0.92940 0.86244
 H844 H 0.96044 0.91752 0.85567
 O845 O 1.09440 1.01860 0.93166
 O846 O 1.11657 1.01860 0.90966
 C847 C 1.10984 1.02505 0.92506
 C848 C 1.11979 1.04048 0.93522
 C849 C 1.13766 1.04677 0.92914
 H850 H 1.14443 1.03986 0.91723
 O851 O 0.90576 0.98186 0.93164
 O852 O 0.88360 0.98182 0.90962
 C853 C 0.89032 0.97540 0.92504
 C854 C 0.88036 0.95998 0.93522
 C855 C 0.86247 0.95373 0.92916
 H856 H 0.85571 0.96066 0.91726
 O857 O 1.06840 1.09440 0.98154
 O858 O 1.09043 1.11653 0.98153
 C859 C 1.07503 1.10982 0.97507
 C860 C 1.06492 1.11978 0.95960
 C861 C 1.07104 1.13763 0.95329
 H862 H 1.08294 1.14437 0.96022
 O863 O 0.93167 0.90602 0.98159
 O864 O 0.90965 0.88388 0.98157
 C865 C 0.92505 0.89059 0.97513
 C866 C 0.93520 0.88062 0.95969
 C867 C 0.92911 0.86274 0.95343
 H868 H 0.91721 0.85600 0.96037
 O869 O 0.93173 0.98184 0.90572
 O870 O 0.90971 0.98180 0.88357
 C871 C 0.92512 0.97537 0.89029
 C872 C 0.93528 0.95994 0.88033
 C873 C 0.92922 0.95369 0.86243
 H874 H 0.91734 0.96064 0.85566
 O875 O 1.06848 1.01862 0.90570
 O876 O 1.09051 1.01862 0.88356
 C877 C 1.07510 1.02507 0.89026
 C878 C 1.06496 1.04049 0.88028
 C879 C 1.07107 1.04678 0.86241
 H880 H 1.08299 1.03986 0.85567
 O881 O 0.98160 0.90594 0.93167
 O882 O 0.98155 0.88379 0.90965
 C883 C 0.97512 0.89052 0.92506
 C884 C 0.95968 0.88058 0.93522
 C885 C 0.95340 0.86271 0.92915
 H886 H 0.96033 0.85594 0.91726
 O887 O 1.01855 1.09442 0.93153
 O888 O 1.01861 1.11658 0.90951
 C889 C 1.02503 1.10985 0.92492
 C890 C 1.04048 1.11978 0.93508
 C891 C 1.04680 1.13763 0.92897
 H892 H 1.03990 1.14438 0.91705
 O893 O 0.90576 0.93198 0.98161
 O894 O 0.88361 0.90997 0.98159
 C895 C 0.89032 0.92538 0.97515
 C896 C 0.88036 0.93553 0.95972
 C897 C 0.86248 0.92947 0.95347
 H898 H 0.85572 0.91758 0.96042
 O899 O 1.09434 1.06847 0.98159
 O900 O 1.11649 1.09047 0.98159
 C901 C 1.10978 1.07507 0.97514
 C902 C 1.11976 1.06493 0.95971
 C903 C 1.13763 1.07103 0.95344
 H904 H 1.14436 1.08293 0.96038
 O905 O 1.01857 0.93181 0.90571
 O906 O 1.01856 0.90980 0.88355
 C907 C 1.02502 0.92519 0.89027
 C908 C 1.04047 0.93532 0.88031
 C909 C 1.04677 0.92922 0.86244
 H910 H 1.03985 0.91732 0.85569
 O911 O 0.98157 1.06859 0.90553
 O912 O 0.98159 1.09063 0.88339
 C913 C 0.97512 1.07523 0.89010
 C914 C 0.95963 1.06514 0.88016
 C915 C 0.95321 1.07134 0.86236
 H916 H 0.96008 1.08328 0.85563
 O917 O 0.90578 1.01880 0.93162
 O918 O 0.88362 1.01879 0.90961
 C919 C 0.89034 1.02526 0.92501
 C920 C 0.88040 1.04072 0.93513
 C921 C 0.86257 1.04706 0.92899
 H922 H 0.85583 1.04016 0.91707
 O923 O 1.09436 0.98166 0.93168
 O924 O 1.11652 0.98162 0.90968
 C925 C 1.10979 0.97518 0.92508
 C926 C 1.11972 0.95972 0.93522
 C927 C 1.13757 0.95340 0.92911
 H928 H 1.14432 0.96031 0.91719
 O929 O 1.06833 0.90581 0.98163
 O930 O 1.09036 0.88367 0.98163
 C931 C 1.07495 0.89038 0.97518
 C932 C 1.06483 0.88043 0.95972
 C933 C 1.07095 0.86258 0.95342
 H934 H 1.08285 0.85584 0.96035
 O935 O 0.93179 1.09456 0.98153
 O936 O 0.90979 1.11673 0.98152
 C937 C 0.92519 1.11000 0.97507
 C938 C 0.93533 1.11994 0.95961
 C939 C 0.92923 1.13780 0.95330
 H940 H 0.91734 1.14457 0.96023
 Cu941 Cu 1.07922 1.00014 0.92090
 Cu942 Cu 1.10575 1.00012 0.89440
 Cu943 Cu 0.92094 1.00032 0.92086
 Cu944 Cu 0.89442 1.00029 0.89435
 Cu945 Cu 1.07914 1.07924 1.00004
 Cu946 Cu 1.10566 1.10573 1.00005
 Cu947 Cu 1.07910 0.92097 1.00010
 Cu948 Cu 1.10562 0.89447 1.00011
 Cu949 Cu 0.92100 1.07940 1.00001
 Cu950 Cu 0.89452 1.10594 1.00002
 Cu951 Cu 0.92092 0.92120 1.00008
 Cu952 Cu 0.89441 0.89470 1.00008
 Cu953 Cu 1.00006 1.07928 0.92075
 Cu954 Cu 1.00011 1.10580 0.89425
 Cu955 Cu 1.00009 0.92108 0.92090
 Cu956 Cu 1.00005 0.89458 0.89438
 C957 C 1.04953 0.95072 0.88903
 H958 H 1.04491 0.95534 0.90292
 C959 C 1.06205 0.93823 0.85336
 C960 C 0.95061 1.04970 0.88887
 H961 H 0.95531 1.04501 0.90270
 C962 C 0.93787 1.06239 0.85334
 C963 C 0.95071 1.11120 0.95053
 H964 H 0.95532 1.09732 0.95516
 C965 C 0.93823 1.14686 0.93799
 C966 C 1.04944 0.88915 0.95063
 H967 H 1.04481 0.90303 0.95526
 C968 C 1.06198 0.85351 0.93811
 C969 C 1.11100 0.95066 0.95064
 H970 H 1.09713 0.95531 0.95527
 C971 C 1.14663 0.93810 0.93810
 C972 C 0.88911 1.04977 0.95055
 H973 H 0.90296 1.04511 0.95520
 C974 C 0.85351 1.06237 0.93797
 C975 C 1.04954 1.04956 0.88897
 H976 H 1.04491 1.04495 0.90286
 C977 C 1.06205 1.06203 0.85329
 C978 C 0.95065 0.95084 0.88907
 H979 H 0.95524 0.95542 0.90298
 C980 C 0.93825 0.93844 0.85333
 C981 C 1.11106 1.04953 0.95062
 H982 H 1.09717 1.04492 0.95523
 C983 C 1.14673 1.06204 0.93817
 C984 C 0.88909 0.95091 0.95061
 H985 H 0.90299 0.95550 0.95520
 C986 C 0.85338 0.93848 0.93820
 C987 C 1.04952 1.11107 0.95051
 H988 H 1.04488 1.09720 0.95514
 C989 C 1.06207 1.14671 0.93799
 C990 C 0.95060 0.88932 0.95061
 H991 H 0.95521 0.90322 0.95520
 C992 C 0.93813 0.85363 0.93818
 O993 O 0.98174 0.43170 0.40564
 O994 O 0.98173 0.40969 0.38347
 C995 C 0.97529 0.42509 0.39019
 C996 C 0.95986 0.43523 0.38023
 C997 C 0.95359 0.42913 0.36235
 H998 H 0.96052 0.41723 0.35561
 O999 O 1.01872 0.56852 0.40561
 O1000 O 1.01870 0.59052 0.38343
 C1001 C 1.02517 0.57513 0.39016
 C1002 C 1.04063 0.56502 0.38020
 C1003 C 1.04696 0.57119 0.36238
 H1004 H 1.04005 0.58312 0.35566
 O1005 O 0.90587 0.48160 0.43154
 O1006 O 0.88375 0.48159 0.40949
 C1007 C 0.89044 0.47515 0.42491
 C1008 C 0.88046 0.45973 0.43505
 C1009 C 0.86259 0.45347 0.42895
 H1010 H 0.85585 0.46041 0.41704
 O1011 O 1.09453 0.51860 0.43152
 O1012 O 1.11668 0.51861 0.40949
 C1013 C 1.10997 0.52506 0.42490
 C1014 C 1.11991 0.54051 0.43503
 C1015 C 1.13775 0.54685 0.42890
 H1016 H 1.14450 0.53994 0.41699
 O1017 O 0.93174 0.40577 0.48147
 O1018 O 0.90973 0.38362 0.48141
 C1019 C 0.92515 0.39034 0.47499
 C1020 C 0.93532 0.38039 0.45956
 C1021 C 0.92925 0.36252 0.45327
 H1022 H 0.91734 0.35577 0.46018
 O1023 O 1.06853 0.59450 0.48137
 O1024 O 1.09057 0.61662 0.48139
 C1025 C 1.07517 0.60993 0.47492
 C1026 C 1.06506 0.61989 0.45945
 C1027 C 1.07123 0.63770 0.45308
 H1028 H 1.08317 0.64443 0.45996
 O1029 O 0.93187 0.51852 0.40563
 O1030 O 0.90988 0.51854 0.38344
 C1031 C 0.92529 0.52497 0.39017
 C1032 C 0.93546 0.54038 0.38020
 C1033 C 0.92943 0.54659 0.36228
 H1034 H 0.91757 0.53963 0.35551
 O1035 O 1.06855 0.48169 0.40562
 O1036 O 1.09056 0.48165 0.38345
 C1037 C 1.07515 0.47523 0.39018
 C1038 C 1.06499 0.45980 0.38023
 C1039 C 1.07105 0.45356 0.36233
 H1040 H 1.08293 0.46051 0.35556
 O1041 O 1.01869 0.40574 0.43156
 O1042 O 1.01871 0.38361 0.40952
 C1043 C 1.02515 0.39032 0.42493
 C1044 C 1.04060 0.38036 0.43506
 C1045 C 1.04692 0.36252 0.42893
 H1046 H 1.04000 0.35578 0.41701
 O1047 O 0.98174 0.59443 0.43153
 O1048 O 0.98169 0.61655 0.40948
 C1049 C 0.97526 0.60985 0.42490
 C1050 C 0.95980 0.61979 0.43503
 C1051 C 0.95351 0.63765 0.42892
 H1052 H 0.96045 0.64441 0.41702
 O1053 O 0.90583 0.56845 0.48137
 O1054 O 0.88368 0.59047 0.48135
 C1055 C 0.89040 0.57507 0.47490
 C1056 C 0.88045 0.56494 0.45945
 C1057 C 0.86260 0.57104 0.45314
 H1058 H 0.85584 0.58295 0.46005
 O1059 O 1.09450 0.43171 0.48143
 O1060 O 1.11664 0.40968 0.48142
 C1061 C 1.10993 0.42509 0.47497
 C1062 C 1.11989 0.43523 0.45951
 C1063 C 1.13772 0.42909 0.45317
 H1064 H 1.14446 0.41717 0.46007
 O1065 O 0.98178 0.56846 0.40561
 O1066 O 0.98173 0.59046 0.38343
 C1067 C 0.97532 0.57505 0.39017
 C1068 C 0.95992 0.56486 0.38020
 C1069 C 0.95370 0.57088 0.36228
 H1070 H 0.96064 0.58276 0.35550
 O1071 O 1.01868 0.43173 0.40566
 O1072 O 1.01870 0.40973 0.38349
 C1073 C 1.02513 0.42514 0.39021
 C1074 C 1.04055 0.43530 0.38024
 C1075 C 1.04680 0.42925 0.36234
 H1076 H 1.03987 0.41736 0.35558
 O1077 O 1.09451 0.48166 0.43153
 O1078 O 1.11665 0.48162 0.40950
 C1079 C 1.10994 0.47518 0.42491
 C1080 C 1.11988 0.45972 0.43504
 C1081 C 1.13772 0.45339 0.42890
 H1082 H 1.14445 0.46031 0.41698
 O1083 O 0.90586 0.51854 0.43150
 O1084 O 0.88375 0.51857 0.40944
 C1085 C 0.89044 0.52501 0.42486
 C1086 C 0.88047 0.54045 0.43498
 C1087 C 0.86262 0.54675 0.42886
 H1088 H 0.85588 0.53982 0.41695
 O1089 O 0.93176 0.59438 0.48138
 O1090 O 0.90975 0.61654 0.48136
 C1091 C 0.92515 0.60982 0.47492
 C1092 C 0.93530 0.61978 0.45949
 C1093 C 0.92920 0.63765 0.45319
 H1094 H 0.91729 0.64439 0.46010
 O1095 O 1.06860 0.40575 0.48143
 O1096 O 1.09061 0.38359 0.48142
 C1097 C 1.07521 0.39031 0.47497
 C1098 C 1.06508 0.38036 0.45953
 C1099 C 1.07121 0.36251 0.45320
 H1100 H 1.08313 0.35577 0.46011
 O1101 O 1.06862 0.51863 0.40556
 O1102 O 1.09064 0.51863 0.38340
 C1103 C 1.07524 0.52509 0.39012
 C1104 C 1.06512 0.54056 0.38018
 C1105 C 1.07127 0.54693 0.36235
 H1106 H 1.08320 0.54005 0.35560
 O1107 O 0.93182 0.48158 0.40560
 O1108 O 0.90983 0.48157 0.38342
 C1109 C 0.92522 0.47513 0.39016
 C1110 C 0.93537 0.45969 0.38020
 C1111 C 0.92929 0.45340 0.36233
 H1112 H 0.91739 0.46032 0.35557
 O1113 O 1.01868 0.59449 0.43151
 O1114 O 1.01867 0.61661 0.40946
 C1115 C 1.02513 0.60992 0.42487
 C1116 C 1.04058 0.61988 0.43498
 C1117 C 1.04693 0.63769 0.42880
 H1118 H 1.04004 0.64441 0.41686
 O1119 O 0.98174 0.40578 0.43160
 O1120 O 0.98173 0.38364 0.40957
 C1121 C 0.97529 0.39035 0.42498
 C1122 C 0.95984 0.38040 0.43512
 C1123 C 0.95357 0.36253 0.42902
 H1124 H 0.96052 0.35577 0.41713
 O1125 O 1.09444 0.56853 0.48137
 O1126 O 1.11660 0.59052 0.48140
 C1127 C 1.10989 0.57513 0.47493
 C1128 C 1.11986 0.56500 0.45949
 C1129 C 1.13770 0.57114 0.45318
 H1130 H 1.14442 0.58307 0.46009
 O1131 O 0.90579 0.43169 0.48145
 O1132 O 0.88364 0.40968 0.48140
 C1133 C 0.89036 0.42509 0.47497
 C1134 C 0.88042 0.43525 0.45953
 C1135 C 0.86255 0.42918 0.45323
 H1136 H 0.85578 0.41729 0.46016
 Cu1137 Cu 1.00021 0.42094 0.42083
 Cu1138 Cu 1.00022 0.39445 0.39429
 Cu1139 Cu 1.00023 0.57927 0.42078
 Cu1140 Cu 1.00019 0.60575 0.39423
 Cu1141 Cu 0.92106 0.50006 0.42078
 Cu1142 Cu 0.89459 0.50007 0.39422
 Cu1143 Cu 1.07935 0.50015 0.42077
 Cu1144 Cu 1.10585 0.50012 0.39424
 C1145 C 0.95077 0.45062 0.38894
 H1146 H 0.95538 0.45524 0.40283
 C1147 C 0.93832 0.43813 0.35325
 C1148 C 1.04968 0.54958 0.38889
 H1149 H 1.04503 0.54491 0.40275
 C1150 C 1.06227 0.56223 0.35330
 C1151 C 0.88916 0.45063 0.45045
 H1152 H 0.90305 0.45523 0.45507
 C1153 C 0.85348 0.43821 0.43796
 C1154 C 1.11118 0.54957 0.45044
 H1155 H 1.09732 0.54492 0.45508
 C1156 C 1.14680 0.56215 0.43789
 C1157 C 0.95073 0.38912 0.45051
 H1158 H 0.95533 0.40300 0.45512
 C1159 C 0.93829 0.35344 0.43801
 C1160 C 1.04962 0.61120 0.45042
 H1161 H 1.04495 0.59735 0.45510
 C1162 C 1.06225 0.64675 0.43776
 C1163 C 0.95082 0.54949 0.38895
 H1164 H 0.95538 0.54494 0.40288
 C1165 C 0.93847 0.56183 0.35317
 C1166 C 1.04962 0.45070 0.38897
 H1167 H 1.04504 0.45528 0.40288
 C1168 C 1.06204 0.43830 0.35323
 C1169 C 1.04966 0.38906 0.45048
 H1170 H 1.04502 0.40293 0.45512
 C1171 C 1.06221 0.35344 0.43791
 C1172 C 0.95072 0.61107 0.45043
 H1173 H 0.95534 0.59719 0.45505
 C1174 C 0.93823 0.64673 0.43791
 C1175 C 0.88917 0.54953 0.45040
 H1176 H 0.90305 0.54490 0.45503
 C1177 C 0.85353 0.56203 0.43785
 C1178 C 1.11118 0.45066 0.45047
 H1179 H 1.09732 0.45530 0.45512
 C1180 C 1.14679 0.43809 0.43787
 O1181 O 1.01849 0.43168 0.59422
 O1182 O 1.01853 0.40965 0.61637
 C1183 C 1.02496 0.42506 0.60966
 C1184 C 1.04040 0.43520 0.61961
 C1185 C 1.04668 0.42909 0.63748
 H1186 H 1.03974 0.41720 0.64423
 O1187 O 0.98167 0.56840 0.59419
 O1188 O 0.98163 0.59041 0.61635
 C1189 C 0.97520 0.57500 0.60963
 C1190 C 0.95976 0.56485 0.61958
 C1191 C 0.95349 0.57092 0.63747
 H1192 H 0.96043 0.58281 0.64423
 O1193 O 0.90579 0.51849 0.56824
 O1194 O 0.88364 0.51854 0.59026
 C1195 C 0.89036 0.52496 0.57484
 C1196 C 0.88041 0.54039 0.56468
 C1197 C 0.86252 0.54665 0.57074
 H1198 H 0.85575 0.53971 0.58263
 O1199 O 1.09444 0.48152 0.56832
 O1200 O 1.11657 0.48152 0.59036
 C1201 C 1.10987 0.47507 0.57495
 C1202 C 1.11984 0.45962 0.56483
 C1203 C 1.13765 0.45327 0.57101
 H1204 H 1.14436 0.46016 0.58295
 O1205 O 1.06853 0.40579 0.51838
 O1206 O 1.09053 0.38363 0.51841
 C1207 C 1.07512 0.39035 0.52484
 C1208 C 1.06494 0.38040 0.54027
 C1209 C 1.07100 0.36252 0.54655
 H1210 H 1.08291 0.35575 0.53964
 O1211 O 0.93177 0.59435 0.51833
 O1212 O 0.90975 0.61650 0.51835
 C1213 C 0.92516 0.60978 0.52479
 C1214 C 0.93531 0.61974 0.54022
 C1215 C 0.92925 0.63763 0.54648
 H1216 H 0.91737 0.64439 0.53953
 O1217 O 0.93168 0.48155 0.59423
 O1218 O 0.90966 0.48157 0.61638
 C1219 C 0.92506 0.47510 0.60967
 C1220 C 0.93518 0.45965 0.61964
 C1221 C 0.92904 0.45333 0.63748
 H1222 H 0.91712 0.46024 0.64421
 O1223 O 1.06847 0.51847 0.59422
 O1224 O 1.09048 0.51850 0.61638
 C1225 C 1.07508 0.52494 0.60966
 C1226 C 1.06495 0.54039 0.61962
 C1227 C 1.07106 0.54668 0.63747
 H1228 H 1.08296 0.53975 0.64422
 O1229 O 0.98155 0.40571 0.56831
 O1230 O 0.98155 0.38357 0.59034
 C1231 C 0.97510 0.39028 0.57494
 C1232 C 0.95963 0.38033 0.56482
 C1233 C 0.95326 0.36253 0.57100
 H1234 H 0.96015 0.35580 0.58295
 O1235 O 1.01861 0.59438 0.56829
 O1236 O 1.01861 0.61651 0.59032
 C1237 C 1.02506 0.60981 0.57491
 C1238 C 1.04050 0.61978 0.56477
 C1239 C 1.04680 0.63763 0.57088
 H1240 H 1.03989 0.64438 0.58280
 O1241 O 0.90574 0.43167 0.51841
 O1242 O 0.88360 0.40965 0.51839
 C1243 C 0.89031 0.42505 0.52485
 C1244 C 0.88035 0.43517 0.54031
 C1245 C 0.86252 0.42903 0.54666
 H1246 H 0.85578 0.41711 0.53976
 O1247 O 1.09437 0.56845 0.51831
 O1248 O 1.11654 0.59044 0.51838
 C1249 C 1.10980 0.57503 0.52479
 C1250 C 1.11975 0.56484 0.54021
 C1251 C 1.13766 0.57086 0.54644
 H1252 H 1.14443 0.58274 0.53949
 O1253 O 1.01860 0.56842 0.59422
 O1254 O 1.01860 0.59043 0.61638
 C1255 C 1.02505 0.57502 0.60966
 C1256 C 1.04049 0.56488 0.61962
 C1257 C 1.04680 0.57098 0.63748
 H1258 H 1.03989 0.58290 0.64423
 O1259 O 0.98155 0.43166 0.59424
 O1260 O 0.98155 0.40964 0.61640
 C1261 C 0.97510 0.42504 0.60969
 C1262 C 0.95965 0.43517 0.61965
 C1263 C 0.95331 0.42904 0.63749
 H1264 H 0.96021 0.41711 0.64424
 O1265 O 1.09436 0.51846 0.56823
 O1266 O 1.11651 0.51849 0.59026
 C1267 C 1.10979 0.52492 0.57484
 C1268 C 1.11975 0.54035 0.56468
 C1269 C 1.13766 0.54656 0.57071
 H1270 H 1.14444 0.53960 0.58258
 O1271 O 0.90575 0.48155 0.56829
 O1272 O 0.88360 0.48157 0.59032
 C1273 C 0.89031 0.47510 0.57491
 C1274 C 0.88035 0.45965 0.56479
 C1275 C 0.86252 0.45332 0.57094
 H1276 H 0.85579 0.46023 0.58287
 O1277 O 1.06847 0.59443 0.51832
 O1278 O 1.09051 0.61655 0.51839
 C1279 C 1.07509 0.60984 0.52481
 C1280 C 1.06495 0.61979 0.54026
 C1281 C 1.07106 0.63764 0.54656
 H1282 H 1.08296 0.64438 0.53963
 O1283 O 0.93167 0.40573 0.51842
 O1284 O 0.90966 0.38358 0.51840
 C1285 C 0.92505 0.39030 0.52487
 C1286 C 0.93516 0.38034 0.54034
 C1287 C 0.92898 0.36253 0.54671
 H1288 H 0.91704 0.35582 0.53982
 O1289 O 1.06844 0.48153 0.59421
 O1290 O 1.09045 0.48153 0.61638
 C1291 C 1.07504 0.47508 0.60966
 C1292 C 1.06489 0.45965 0.61962
 C1293 C 1.07098 0.45335 0.63749
 H1294 H 1.08289 0.46026 0.64425
 O1295 O 0.93172 0.51849 0.59418
 O1296 O 0.90971 0.51854 0.61634
 C1297 C 0.92512 0.52496 0.60962
 C1298 C 0.93528 0.54039 0.61958
 C1299 C 0.92920 0.54665 0.63746
 H1300 H 0.91731 0.53972 0.64422
 O1301 O 0.98168 0.59434 0.56825
 O1302 O 0.98163 0.61649 0.59028
 C1303 C 0.97521 0.60977 0.57486
 C1304 C 0.95978 0.61974 0.56471
 C1305 C 0.95353 0.63762 0.57076
 H1306 H 0.96047 0.64439 0.58265
 O1307 O 1.01850 0.40578 0.56824
 O1308 O 1.01853 0.38363 0.59027
 C1309 C 1.02497 0.39035 0.57485
 C1310 C 1.04041 0.38040 0.56471
 C1311 C 1.04667 0.36252 0.57079
 H1312 H 1.03971 0.35577 0.58268
 O1313 O 1.09452 0.43167 0.51839
 O1314 O 1.11666 0.40963 0.51843
 C1315 C 1.10994 0.42504 0.52487
 C1316 C 1.11987 0.43516 0.54034
 C1317 C 1.13769 0.42900 0.54671
 H1318 H 1.14443 0.41707 0.53982
 O1319 O 0.90583 0.56842 0.51832
 O1320 O 0.88368 0.59044 0.51834
 C1321 C 0.89039 0.57503 0.52478
 C1322 C 0.88042 0.56488 0.54020
 C1323 C 0.86253 0.57094 0.54645
 H1324 H 0.85577 0.58283 0.53951
 Cu1325 Cu 1.00001 0.42092 0.57905
 Cu1326 Cu 1.00005 0.39440 0.60556
 Cu1327 Cu 1.00014 0.57918 0.57903
 Cu1328 Cu 1.00011 0.60568 0.60556
 Cu1329 Cu 0.92094 0.42092 0.49994
 Cu1330 Cu 0.89444 0.39441 0.49989
 Cu1331 Cu 1.07934 0.42094 0.49991
 Cu1332 Cu 1.10583 0.39441 0.49993
 Cu1333 Cu 0.92100 0.57920 0.49985
 Cu1334 Cu 0.89449 0.60571 0.49986
 Cu1335 Cu 1.07924 0.57927 0.49983
 Cu1336 Cu 1.10577 0.60575 0.49990
 Cu1337 Cu 0.92094 0.50001 0.57903
 Cu1338 Cu 0.89443 0.50006 0.60555
 Cu1339 Cu 1.07922 0.49999 0.57904
 Cu1340 Cu 1.10572 0.50001 0.60557
 C1341 C 1.04949 0.45059 0.61090
 H1342 H 1.04487 0.45521 0.59701
 C1343 C 1.06196 0.43808 0.64658
 C1344 C 0.95067 0.54947 0.61085
 H1345 H 0.95527 0.54487 0.59695
 C1346 C 0.93823 0.56190 0.64656
 C1347 C 0.88915 0.54949 0.54930
 H1348 H 0.90305 0.54489 0.54471
 C1349 C 0.85342 0.56191 0.56171
 C1350 C 1.11116 0.45058 0.54938
 H1351 H 1.09732 0.45524 0.54470
 C1352 C 1.14673 0.43796 0.56204
 C1353 C 1.04953 0.38913 0.54933
 H1354 H 1.04494 0.40302 0.54472
 C1355 C 1.06194 0.35343 0.56180
 C1356 C 0.95069 0.61100 0.54932
 H1357 H 0.95528 0.59710 0.54473
 C1358 C 0.93828 0.64673 0.56173
 C1359 C 0.95060 0.45059 0.61094
 H1360 H 0.95525 0.45524 0.59707
 C1361 C 0.93801 0.43803 0.64656
 C1362 C 1.04954 0.54946 0.61090
 H1363 H 1.04492 0.54484 0.59702
 C1364 C 1.06207 0.56197 0.64656
 C1365 C 0.95060 0.38902 0.54938
 H1366 H 0.95528 0.40287 0.54470
 C1367 C 0.93794 0.35348 0.56203
 C1368 C 1.04955 0.61107 0.54934
 H1369 H 1.04493 0.59719 0.54472
 C1370 C 1.06207 0.64671 0.56186
 C1371 C 0.88905 0.45060 0.54936
 H1372 H 0.90291 0.45524 0.54471
 C1373 C 0.85345 0.43802 0.56196
 C1374 C 1.11101 0.54947 0.54931
 H1375 H 1.09710 0.54491 0.54474
 C1376 C 1.14677 0.56180 0.56167
 O1377 O 0.48143 0.93188 0.40563
 O1378 O 0.48142 0.90988 0.38345
 C1379 C 0.47498 0.92529 0.39019
 C1380 C 0.45954 0.93543 0.38023
 C1381 C 0.45328 0.92935 0.36236
 H1382 H 0.46022 0.91746 0.35561
 O1383 O 0.51831 1.06860 0.40565
 O1384 O 0.51833 1.09063 0.38350
 C1385 C 0.52476 1.07521 0.39021
 C1386 C 0.54018 1.06507 0.38022
 C1387 C 0.54644 1.07116 0.36234
 H1388 H 0.53950 1.08306 0.35560
 O1389 O 0.40551 0.98176 0.43157
 O1390 O 0.38338 0.98175 0.40952
 C1391 C 0.39009 0.97530 0.42494
 C1392 C 0.38014 0.95984 0.43506
 C1393 C 0.36231 0.95349 0.42891
 H1394 H 0.35557 0.96040 0.41699
 O1395 O 0.59421 1.01867 0.43147
 O1396 O 0.61633 1.01870 0.40941
 C1397 C 0.60963 1.02513 0.42484
 C1398 C 0.61962 1.04054 0.43499
 C1399 C 0.63749 1.04680 0.42889
 H1400 H 0.64422 1.03988 0.41697
 O1401 O 0.43149 0.90587 0.48136
 O1402 O 0.40947 0.88372 0.48138
 C1403 C 0.42487 0.89043 0.47491
 C1404 C 0.43499 0.88049 0.45944
 C1405 C 0.42882 0.86267 0.45306
 H1406 H 0.41688 0.85594 0.45994
 O1407 O 0.56839 1.09447 0.48145
 O1408 O 0.59039 1.11663 0.48138
 C1409 C 0.57498 1.10990 0.47497
 C1410 C 0.56480 1.11986 0.45955
 C1411 C 0.57087 1.13773 0.45326
 H1412 H 0.58278 1.14448 0.46017
 O1413 O 0.43148 1.01870 0.40566
 O1414 O 0.40948 1.01873 0.38349
 C1415 C 0.42488 1.02517 0.39022
 C1416 C 0.43503 1.04061 0.38026
 C1417 C 0.42894 1.04689 0.36239
 H1418 H 0.41705 1.03996 0.35563
 O1419 O 0.56825 0.98174 0.40554
 O1420 O 0.59025 0.98174 0.38336
 C1421 C 0.57485 0.97529 0.39009
 C1422 C 0.56472 0.95984 0.38014
 C1423 C 0.57084 0.95352 0.36229
 H1424 H 0.58275 0.96044 0.35554
 O1425 O 0.51836 0.90589 0.43153
 O1426 O 0.51838 0.88376 0.40949
 C1427 C 0.52482 0.89046 0.42490
 C1428 C 0.54026 0.88050 0.43503
 C1429 C 0.54655 0.86264 0.42892
 H1430 H 0.53961 0.85589 0.41703
 O1431 O 0.48140 1.09458 0.43161
 O1432 O 0.48138 1.11673 0.40958
 C1433 C 0.47494 1.11002 0.42500
 C1434 C 0.45951 1.11998 0.43514
 C1435 C 0.45321 1.13784 0.42903
 H1436 H 0.46013 1.14458 0.41712
 O1437 O 0.40554 1.06867 0.48146
 O1438 O 0.38339 1.09069 0.48145
 C1439 C 0.39011 1.07529 0.47500
 C1440 C 0.38017 1.06516 0.45953
 C1441 C 0.36235 1.07131 0.45316
 H1442 H 0.35561 1.08325 0.46004
 O1443 O 0.59424 0.93184 0.48133
 O1444 O 0.61639 0.90982 0.48132
 C1445 C 0.60967 0.92522 0.47487
 C1446 C 0.61962 0.93536 0.45942
 C1447 C 0.63749 0.92927 0.45312
 H1448 H 0.64424 0.91737 0.46004
 O1449 O 0.48137 1.06862 0.40568
 O1450 O 0.48136 1.09064 0.38353
 C1451 C 0.47492 1.07524 0.39025
 C1452 C 0.45948 1.06509 0.38028
 C1453 C 0.45321 1.07119 0.36240
 H1454 H 0.46013 1.08309 0.35565
 O1455 O 0.51837 0.93182 0.40557
 O1456 O 0.51839 0.90982 0.38340
 C1457 C 0.52483 0.92521 0.39013
 C1458 C 0.54027 0.93535 0.38016
 C1459 C 0.54658 0.92923 0.36231
 H1460 H 0.53968 0.91731 0.35557
 O1461 O 0.59421 0.98174 0.43145
 O1462 O 0.61633 0.98174 0.40940
 C1463 C 0.60963 0.97529 0.42482
 C1464 C 0.61960 0.95985 0.43495
 C1465 C 0.63747 0.95356 0.42883
 H1466 H 0.64421 0.96050 0.41693
 O1467 O 0.40554 1.01871 0.43159
 O1468 O 0.38342 1.01874 0.40955
 C1469 C 0.39012 1.02518 0.42496
 C1470 C 0.38018 1.04065 0.43508
 C1471 C 0.36236 1.04700 0.42891
 H1472 H 0.35563 1.04008 0.41698
 O1473 O 0.43150 1.09458 0.48151
 O1474 O 0.40948 1.11673 0.48150
 C1475 C 0.42488 1.11002 0.47506
 C1476 C 0.43503 1.11998 0.45962
 C1477 C 0.42892 1.13784 0.45332
 H1478 H 0.41701 1.14459 0.46024
 O1479 O 0.56831 0.90590 0.48136
 O1480 O 0.59033 0.88375 0.48135
 C1481 C 0.57492 0.89046 0.47491
 C1482 C 0.56477 0.88050 0.45948
 C1483 C 0.57086 0.86264 0.45318
 H1484 H 0.58278 0.85589 0.46009
 O1485 O 0.56823 1.01868 0.40557
 O1486 O 0.59022 1.01872 0.38338
 C1487 C 0.57482 1.02515 0.39012
 C1488 C 0.56465 1.04059 0.38018
 C1489 C 0.57072 1.04688 0.36230
 H1490 H 0.58261 1.03995 0.35552
 O1491 O 0.43148 0.98176 0.40564
 O1492 O 0.40948 0.98176 0.38347
 C1493 C 0.42488 0.97531 0.39020
 C1494 C 0.43504 0.95988 0.38023
 C1495 C 0.42896 0.95360 0.36235
 H1496 H 0.41706 0.96051 0.35559
 O1497 O 0.51834 1.09451 0.43162
 O1498 O 0.51836 1.11666 0.40959
 C1499 C 0.52481 1.10994 0.42500
 C1500 C 0.54027 1.11988 0.43512
 C1501 C 0.54653 1.13775 0.42903
 H1502 H 0.53958 1.14452 0.41715
 O1503 O 0.48142 0.90587 0.43150
 O1504 O 0.48140 0.88375 0.40945
 C1505 C 0.47495 0.89045 0.42486
 C1506 C 0.45948 0.88050 0.43497
 C1507 C 0.45313 0.86269 0.42879
 H1508 H 0.46004 0.85597 0.41686
 O1509 O 0.59432 1.06852 0.48144
 O1510 O 0.61646 1.09055 0.48138
 C1511 C 0.60974 1.07514 0.47496
 C1512 C 0.61968 1.06499 0.45950
 C1513 C 0.63755 1.07106 0.45320
 H1514 H 0.64432 1.08294 0.46014
 O1515 O 0.40557 0.93182 0.48141
 O1516 O 0.38343 0.90980 0.48142
 C1517 C 0.39013 0.92521 0.47497
 C1518 C 0.38016 0.93535 0.45953
 C1519 C 0.36234 0.92920 0.45319
 H1520 H 0.35561 0.91726 0.46009
 Cu1521 Cu 0.49990 0.92106 0.42077
 Cu1522 Cu 0.49989 0.89458 0.39423
 Cu1523 Cu 0.49985 1.07937 0.42085
 Cu1524 Cu 0.49986 1.10589 0.39433
 Cu1525 Cu 0.42071 1.00023 0.42083
 Cu1526 Cu 0.39422 1.00024 0.39429
 Cu1527 Cu 0.57902 1.00021 0.42072
 Cu1528 Cu 0.60550 1.00023 0.39416
 C1529 C 0.45045 0.95082 0.38896
 H1530 H 0.45505 0.95543 0.40285
 C1531 C 0.43800 0.93834 0.35326
 C1532 C 0.54927 1.04966 0.38893
 H1533 H 0.54468 1.04505 0.40283
 C1534 C 0.56169 1.06215 0.35322
 C1535 C 0.38885 0.95078 0.45048
 H1536 H 0.40270 0.95544 0.45513
 C1537 C 0.35326 0.93818 0.43789
 C1538 C 0.61093 1.04962 0.45041
 H1539 H 0.59704 1.04502 0.45503
 C1540 C 0.64661 1.06205 0.43791
 C1541 C 0.45043 0.88918 0.45041
 H1542 H 0.45509 0.90303 0.45509
 C1543 C 0.43781 0.85362 0.43775
 C1544 C 0.54939 1.11114 0.45050
 H1545 H 0.54479 1.09725 0.45511
 C1546 C 0.56182 1.14683 0.43802
 C1547 C 0.45041 1.04969 0.38900
 H1548 H 0.45502 1.04508 0.40289
 C1549 C 0.43795 1.06217 0.35330
 C1550 C 0.54932 0.95078 0.38886
 H1551 H 0.54468 0.95541 0.40274
 C1552 C 0.56186 0.93823 0.35322
 C1553 C 0.54935 0.88921 0.45043
 H1554 H 0.54474 0.90310 0.45505
 C1555 C 0.56184 0.85355 0.43791
 C1556 C 0.45044 1.11127 0.45055
 H1557 H 0.45506 1.09739 0.45518
 C1558 C 0.43793 1.14692 0.43803
 C1559 C 0.38887 1.04971 0.45051
 H1560 H 0.40272 1.04505 0.45518
 C1561 C 0.35329 1.06232 0.43786
 C1562 C 0.61090 0.95076 0.45035
 H1563 H 0.59701 0.95538 0.45498
 C1564 C 0.64656 0.93829 0.43784
 O1565 O 0.51840 0.93191 0.59417
 O1566 O 0.51844 0.90989 0.61633
 C1567 C 0.52487 0.92530 0.60960
 C1568 C 0.54030 0.93545 0.61956
 C1569 C 0.54655 0.92939 0.63746
 H1570 H 0.53960 0.91751 0.64423
 O1571 O 0.48151 1.06859 0.59416
 O1572 O 0.48150 1.09059 0.61634
 C1573 C 0.47506 1.07519 0.60961
 C1574 C 0.45963 1.06504 0.61958
 C1575 C 0.45335 1.07115 0.63745
 H1576 H 0.46028 1.08305 0.64419
 O1577 O 0.40563 1.01865 0.56829
 O1578 O 0.38349 1.01867 0.59033
 C1579 C 0.39019 1.02510 0.57491
 C1580 C 0.38021 1.04052 0.56476
 C1581 C 0.36233 1.04676 0.57085
 H1582 H 0.35558 1.03980 0.58274
 O1583 O 0.59429 0.98180 0.56818
 O1584 O 0.61642 0.98174 0.59021
 C1585 C 0.60971 0.97533 0.57479
 C1586 C 0.61967 0.95990 0.56463
 C1587 C 0.63756 0.95365 0.57068
 H1588 H 0.64433 0.96059 0.58256
 O1589 O 0.56831 0.90594 0.51831
 O1590 O 0.59033 0.88378 0.51833
 C1591 C 0.57492 0.89050 0.52477
 C1592 C 0.56477 0.88055 0.54021
 C1593 C 0.57083 0.86266 0.54646
 H1594 H 0.58271 0.85589 0.53952
 O1595 O 0.43145 1.09458 0.51846
 O1596 O 0.40942 1.11671 0.51851
 C1597 C 0.42483 1.11000 0.52494
 C1598 C 0.43497 1.11994 0.54041
 C1599 C 0.42879 1.13773 0.54682
 H1600 H 0.41682 1.14446 0.53998
 O1601 O 0.43159 0.98174 0.59425
 O1602 O 0.40958 0.98173 0.61642
 C1603 C 0.42499 0.97529 0.60969
 C1604 C 0.43512 0.95985 0.61966
 C1605 C 0.42901 0.95355 0.63752
 H1606 H 0.41711 0.96048 0.64427
 O1607 O 0.56836 1.01874 0.59414
 O1608 O 0.59036 1.01871 0.61631
 C1609 C 0.57496 1.02517 0.60958
 C1610 C 0.56484 1.04062 0.61955
 C1611 C 0.57097 1.04691 0.63740
 H1612 H 0.58288 1.03999 0.64413
 O1613 O 0.48148 0.90596 0.56825
 O1614 O 0.48148 0.88380 0.59026
 C1615 C 0.47504 0.89051 0.57485
 C1616 C 0.45963 0.88054 0.56469
 C1617 C 0.45341 0.86263 0.57074
 H1618 H 0.46037 0.85587 0.58263
 O1619 O 0.51843 1.09457 0.56823
 O1620 O 0.51846 1.11670 0.59027
 C1621 C 0.52490 1.10999 0.57485
 C1622 C 0.54035 1.11994 0.56472
 C1623 C 0.54668 1.13778 0.57083
 H1624 H 0.53976 1.14455 0.58274
 O1625 O 0.40562 0.93181 0.51837
 O1626 O 0.38348 0.90979 0.51842
 C1627 C 0.39020 0.92519 0.52486
 C1628 C 0.38026 0.93532 0.54033
 C1629 C 0.36243 0.92919 0.54667
 H1630 H 0.35568 0.91728 0.53976
 O1631 O 0.59441 1.06861 0.51840
 O1632 O 0.61654 1.09065 0.51839
 C1633 C 0.60984 1.07525 0.52486
 C1634 C 0.61979 1.06515 0.54034
 C1635 C 0.63757 1.07134 0.54676
 H1636 H 0.64430 1.08330 0.53990
 O1637 O 0.51845 1.06864 0.59419
 O1638 O 0.51848 1.09065 0.61636
 C1639 C 0.52492 1.07525 0.60963
 C1640 C 0.54037 1.06510 0.61957
 C1641 C 0.54670 1.07121 0.63743
 H1642 H 0.53980 1.08313 0.64419
 O1643 O 0.48147 0.93184 0.59424
 O1644 O 0.48147 0.90982 0.61639
 C1645 C 0.47502 0.92522 0.60968
 C1646 C 0.45958 0.93536 0.61965
 C1647 C 0.45328 0.92925 0.63752
 H1648 H 0.46018 0.91733 0.64427
 O1649 O 0.59437 1.01874 0.56826
 O1650 O 0.61649 1.01872 0.59031
 C1651 C 0.60979 1.02519 0.57491
 C1652 C 0.61976 1.04066 0.56481
 C1653 C 0.63754 1.04704 0.57104
 H1654 H 0.64424 1.04016 0.58300
 O1655 O 0.40565 0.98171 0.56831
 O1656 O 0.38352 0.98169 0.59036
 C1657 C 0.39023 0.97524 0.57494
 C1658 C 0.38027 0.95979 0.56482
 C1659 C 0.36244 0.95346 0.57096
 H1660 H 0.35570 0.96037 0.58289
 O1661 O 0.56840 1.09447 0.51839
 O1662 O 0.59040 1.11664 0.51837
 C1663 C 0.57500 1.10992 0.52483
 C1664 C 0.56486 1.11989 0.54026
 C1665 C 0.57098 1.13774 0.54656
 H1666 H 0.58291 1.14446 0.53965
 O1667 O 0.43158 0.90590 0.51832
 O1668 O 0.40957 0.88374 0.51837
 C1669 C 0.42498 0.89046 0.52479
 C1670 C 0.43516 0.88051 0.54021
 C1671 C 0.42914 0.86260 0.54645
 H1672 H 0.41727 0.85582 0.53950
 O1673 O 0.56836 0.98180 0.59414
 O1674 O 0.59036 0.98174 0.61631
 C1675 C 0.57495 0.97532 0.60958
 C1676 C 0.56479 0.95990 0.61955
 C1677 C 0.57084 0.95365 0.63745
 H1678 H 0.58273 0.96059 0.64421
 O1679 O 0.43159 1.01868 0.59421
 O1680 O 0.40958 1.01871 0.61639
 C1681 C 0.42499 1.02514 0.60965
 C1682 C 0.43514 1.04059 0.61960
 C1683 C 0.42905 1.04689 0.63747
 H1684 H 0.41714 1.03998 0.64424
 O1685 O 0.48147 1.09457 0.56827
 O1686 O 0.48146 1.11670 0.59032
 C1687 C 0.47500 1.10999 0.57491
 C1688 C 0.45951 1.11993 0.56483
 C1689 C 0.45314 1.13772 0.57104
 H1690 H 0.46005 1.14444 0.58297
 O1691 O 0.51841 0.90595 0.56826
 O1692 O 0.51845 0.88379 0.59028
 C1693 C 0.52488 0.89051 0.57486
 C1694 C 0.54030 0.88055 0.56470
 C1695 C 0.54655 0.86266 0.57076
 H1696 H 0.53961 0.85590 0.58265
 O1697 O 0.59425 0.93186 0.51828
 O1698 O 0.61640 0.90985 0.51831
 C1699 C 0.60968 0.92526 0.52474
 C1700 C 0.61965 0.93542 0.54016
 C1701 C 0.63755 0.92936 0.54640
 H1702 H 0.64431 0.91747 0.53946
 O1703 O 0.40556 1.06860 0.51841
 O1704 O 0.38340 1.09060 0.51845
 C1705 C 0.39012 1.07519 0.52488
 C1706 C 0.38017 1.06502 0.54030
 C1707 C 0.36229 1.07106 0.54658
 H1708 H 0.35551 1.08296 0.53966
 Cu1709 Cu 0.49993 0.92112 0.57902
 Cu1710 Cu 0.49996 0.89460 0.60554
 Cu1711 Cu 0.49997 1.07939 0.57900
 Cu1712 Cu 0.49998 1.10588 0.60554
 Cu1713 Cu 0.42077 0.92106 0.49986
 Cu1714 Cu 0.39427 0.89454 0.49990
 Cu1715 Cu 0.57907 0.92109 0.49982
 Cu1716 Cu 0.60558 0.89458 0.49983
 Cu1717 Cu 0.42072 1.07941 0.49996
 Cu1718 Cu 0.39420 1.10590 0.49998
 Cu1719 Cu 0.57918 1.07931 0.49993
 Cu1720 Cu 0.60567 1.10583 0.49987
 Cu1721 Cu 0.42082 1.00019 0.57906
 Cu1722 Cu 0.39433 1.00020 0.60559
 Cu1723 Cu 0.57914 1.00027 0.57897
 Cu1724 Cu 0.60563 1.00022 0.60551
 C1725 C 0.54940 0.95082 0.61082
 H1726 H 0.54482 0.95541 0.59691
 C1727 C 0.56180 0.93841 0.64655
 C1728 C 0.45054 1.04965 0.61087
 H1729 H 0.45515 1.04502 0.59698
 C1730 C 0.43807 1.06216 0.64655
 C1731 C 0.38892 1.04963 0.54937
 H1732 H 0.40282 1.04505 0.54477
 C1733 C 0.35321 1.06201 0.56184
 C1734 C 0.61093 0.95080 0.54925
 H1735 H 0.59702 0.95539 0.54467
 C1736 C 0.64665 0.93839 0.56165
 C1737 C 0.54939 0.88928 0.54931
 H1738 H 0.54480 0.90319 0.54472
 C1739 C 0.56180 0.85356 0.56172
 C1740 C 0.45044 1.11125 0.54940
 H1741 H 0.45512 1.09742 0.54470
 C1742 C 0.43779 1.14678 0.56213
 C1743 C 0.45052 0.95077 0.61094
 H1744 H 0.45515 0.95540 0.59706
 C1745 C 0.43800 0.93826 0.64660
 C1746 C 0.54942 1.04969 0.61085
 H1747 H 0.54478 1.04506 0.59698
 C1748 C 0.56199 1.06220 0.64649
 C1749 C 0.45052 0.88926 0.54931
 H1750 H 0.45508 0.90318 0.54473
 C1751 C 0.43818 0.85351 0.56170
 C1752 C 0.54943 1.11121 0.54932
 H1753 H 0.54479 1.09733 0.54469
 C1754 C 0.56198 1.14684 0.56183
 C1755 C 0.38897 0.95074 0.54939
 H1756 H 0.40283 0.95538 0.54473
 C1757 C 0.35336 0.93817 0.56197
 C1758 C 0.61110 1.04969 0.54935
 H1759 H 0.59727 1.04500 0.54464
 C1760 C 0.64660 1.06238 0.56210
 O1761 O 0.48139 0.43163 0.90578
 O1762 O 0.48140 0.40959 0.88364
 C1763 C 0.47493 0.42499 0.89035
 C1764 C 0.45945 0.43508 0.88040
 C1765 C 0.45307 0.42887 0.86260
 H1766 H 0.45997 0.41693 0.85589
 O1767 O 0.51826 0.56846 0.90586
 O1768 O 0.51827 0.59047 0.88369
 C1769 C 0.52471 0.57507 0.89041
 C1770 C 0.54014 0.56492 0.88045
 C1771 C 0.54640 0.57098 0.86255
 H1772 H 0.53946 0.58288 0.85579
 O1773 O 0.40557 0.48149 0.93178
 O1774 O 0.38341 0.48148 0.90977
 C1775 C 0.39013 0.47504 0.92518
 C1776 C 0.38019 0.45961 0.93535
 C1777 C 0.36232 0.45331 0.92927
 H1778 H 0.35556 0.46021 0.91736
 O1779 O 0.59409 0.51856 0.93179
 O1780 O 0.61623 0.51860 0.90976
 C1781 C 0.60951 0.52503 0.92517
 C1782 C 0.61946 0.54047 0.93532
 C1783 C 0.63734 0.54674 0.92924
 H1784 H 0.64410 0.53980 0.91735
 O1785 O 0.43158 0.40571 0.98172
 O1786 O 0.40958 0.38356 0.98173
 C1787 C 0.42497 0.39027 0.97527
 C1788 C 0.43509 0.38032 0.95981
 C1789 C 0.42897 0.36247 0.95349
 H1790 H 0.41706 0.35573 0.96041
 O1791 O 0.56811 0.59442 0.98171
 O1792 O 0.59012 0.61657 0.98168
 C1793 C 0.57471 0.60985 0.97525
 C1794 C 0.56456 0.61981 0.95982
 C1795 C 0.57062 0.63770 0.95355
 H1796 H 0.58251 0.64446 0.96049
 O1797 O 0.43151 0.51840 0.90581
 O1798 O 0.40950 0.51843 0.88366
 C1799 C 0.42491 0.52486 0.89037
 C1800 C 0.43506 0.54029 0.88041
 C1801 C 0.42903 0.54652 0.86250
 H1802 H 0.41718 0.53955 0.85571
 O1803 O 0.56818 0.48161 0.90584
 O1804 O 0.59021 0.48162 0.88368
 C1805 C 0.57481 0.47516 0.89040
 C1806 C 0.56469 0.45971 0.88043
 C1807 C 0.57083 0.45342 0.86258
 H1808 H 0.58274 0.46035 0.85584
 O1809 O 0.51836 0.40576 0.93174
 O1810 O 0.51842 0.38359 0.90974
 C1811 C 0.52484 0.39032 0.92514
 C1812 C 0.54029 0.38039 0.93530
 C1813 C 0.54662 0.36254 0.92920
 H1814 H 0.53973 0.35578 0.91728
 O1815 O 0.48130 0.59438 0.93178
 O1816 O 0.48125 0.61651 0.90974
 C1817 C 0.47482 0.60980 0.92516
 C1818 C 0.45938 0.61975 0.93530
 C1819 C 0.45306 0.63760 0.92920
 H1820 H 0.45998 0.64436 0.91729
 O1821 O 0.40552 0.56835 0.98169
 O1822 O 0.38336 0.59035 0.98166
 C1823 C 0.39009 0.57495 0.97522
 C1824 C 0.38015 0.56482 0.95975
 C1825 C 0.36231 0.57095 0.95342
 H1826 H 0.35557 0.58287 0.96033
 O1827 O 0.59419 0.43174 0.98169
 O1828 O 0.61634 0.40972 0.98168
 C1829 C 0.60962 0.42513 0.97523
 C1830 C 0.61957 0.43526 0.95977
 C1831 C 0.63742 0.42915 0.95344
 H1832 H 0.64418 0.41724 0.96034
 O1833 O 0.48133 0.56840 0.90588
 O1834 O 0.48130 0.59040 0.88370
 C1835 C 0.47488 0.57499 0.89043
 C1836 C 0.45949 0.56480 0.88045
 C1837 C 0.45327 0.57083 0.86253
 H1838 H 0.46021 0.58272 0.85577
 O1839 O 0.51833 0.43167 0.90578
 O1840 O 0.51839 0.40964 0.88364
 C1841 C 0.52481 0.42506 0.89035
 C1842 C 0.54025 0.43521 0.88039
 C1843 C 0.54659 0.42911 0.86254
 H1844 H 0.53970 0.41719 0.85578
 O1845 O 0.59412 0.48162 0.93178
 O1846 O 0.61627 0.48163 0.90975
 C1847 C 0.60956 0.47518 0.92516
 C1848 C 0.61953 0.45974 0.93529
 C1849 C 0.63738 0.45344 0.92915
 H1850 H 0.64411 0.46037 0.91723
 O1851 O 0.40555 0.51843 0.93173
 O1852 O 0.38340 0.51846 0.90971
 C1853 C 0.39012 0.52490 0.92512
 C1854 C 0.38017 0.54036 0.93526
 C1855 C 0.36233 0.54669 0.92912
 H1856 H 0.35560 0.53979 0.91719
 O1857 O 0.43141 0.59432 0.98170
 O1858 O 0.40937 0.61646 0.98168
 C1859 C 0.42478 0.60975 0.97524
 C1860 C 0.43491 0.61972 0.95980
 C1861 C 0.42880 0.63758 0.95351
 H1862 H 0.41689 0.64432 0.96044
 O1863 O 0.56824 0.40582 0.98171
 O1864 O 0.59027 0.38368 0.98170
 C1865 C 0.57486 0.39039 0.97525
 C1866 C 0.56474 0.38042 0.95981
 C1867 C 0.57088 0.36258 0.95351
 H1868 H 0.58279 0.35585 0.96045
 O1869 O 0.56815 0.51854 0.90584
 O1870 O 0.59017 0.51859 0.88368
 C1871 C 0.57476 0.52501 0.89040
 C1872 C 0.56461 0.54044 0.88044
 C1873 C 0.57067 0.54669 0.86255
 H1874 H 0.58256 0.53975 0.85578
 O1875 O 0.43144 0.48146 0.90577
 O1876 O 0.40941 0.48144 0.88363
 C1877 C 0.42482 0.47499 0.89034
 C1878 C 0.43494 0.45952 0.88039
 C1879 C 0.42875 0.45312 0.86259
 H1880 H 0.41680 0.45998 0.85586
 O1881 O 0.51823 0.59440 0.93180
 O1882 O 0.51823 0.61654 0.90976
 C1883 C 0.52467 0.60983 0.92518
 C1884 C 0.54009 0.61981 0.93533
 C1885 C 0.54635 0.63769 0.92926
 H1886 H 0.53941 0.64445 0.91736
 O1887 O 0.48143 0.40572 0.93175
 O1888 O 0.48144 0.38356 0.90974
 C1889 C 0.47499 0.39028 0.92515
 C1890 C 0.45955 0.38032 0.93530
 C1891 C 0.45323 0.36248 0.92918
 H1892 H 0.46014 0.35574 0.91726
 O1893 O 0.59405 0.56849 0.98169
 O1894 O 0.61620 0.59051 0.98166
 C1895 C 0.60948 0.57510 0.97522
 C1896 C 0.61945 0.56495 0.95979
 C1897 C 0.63732 0.57103 0.95352
 H1898 H 0.64407 0.58293 0.96045
 O1899 O 0.40564 0.43165 0.98173
 O1900 O 0.38351 0.40962 0.98175
 C1901 C 0.39021 0.42503 0.97529
 C1902 C 0.38023 0.43515 0.95985
 C1903 C 0.36236 0.42904 0.95358
 H1904 H 0.35563 0.41714 0.96053
 Cu1905 Cu 0.49988 0.42090 0.92096
 Cu1906 Cu 0.49992 0.39438 0.89447
 Cu1907 Cu 0.49978 0.57920 0.92104
 Cu1908 Cu 0.49976 0.60570 0.89450
 Cu1909 Cu 0.42073 0.49995 0.92098
 Cu1910 Cu 0.39421 0.49995 0.89447
 Cu1911 Cu 0.57893 0.50008 0.92102
 Cu1912 Cu 0.60544 0.50011 0.89450
 C1913 C 0.45040 0.45052 0.88908
 H1914 H 0.45508 0.45521 0.90292
 C1915 C 0.43773 0.43780 0.85354
 C1916 C 0.54923 0.54953 0.88918
 H1917 H 0.54464 0.54494 0.90308
 C1918 C 0.56165 0.56195 0.85345
 C1919 C 0.38893 0.45055 0.95075
 H1920 H 0.40281 0.45518 0.95535
 C1921 C 0.35326 0.43803 0.93831
 C1922 C 0.61073 0.54955 0.95071
 H1923 H 0.59684 0.54495 0.95531
 C1924 C 0.64642 0.56200 0.93826
 C1925 C 0.45050 0.38903 0.95073
 H1926 H 0.45514 0.40289 0.95536
 C1927 C 0.43795 0.35340 0.93819
 C1928 C 0.54918 0.61108 0.95073
 H1929 H 0.54459 0.59718 0.95532
 C1930 C 0.56160 0.64679 0.93829
 C1931 C 0.45040 0.54941 0.88918
 H1932 H 0.45497 0.54485 0.90310
 C1933 C 0.43806 0.56177 0.85340
 C1934 C 0.54928 0.45063 0.88912
 H1935 H 0.54463 0.45525 0.90300
 C1936 C 0.56187 0.43813 0.85348
 C1937 C 0.54933 0.38912 0.95072
 H1938 H 0.54468 0.40299 0.95534
 C1939 C 0.56191 0.35348 0.93822
 C1940 C 0.45032 0.61102 0.95072
 H1941 H 0.45495 0.59714 0.95533
 C1942 C 0.43779 0.64667 0.93822
 C1943 C 0.38887 0.54941 0.95069
 H1944 H 0.40273 0.54476 0.95534
 C1945 C 0.35325 0.56198 0.93811
 C1946 C 0.61084 0.45067 0.95071
 H1947 H 0.59697 0.45529 0.95536
 C1948 C 0.64648 0.43816 0.93814
 O1949 O 0.51837 0.43178 1.09464
 O1950 O 0.51840 0.40976 1.11680
 C1951 C 0.52483 0.42517 1.11008
 C1952 C 0.54027 0.43531 1.12004
 C1953 C 0.54656 0.42923 1.13791
 H1954 H 0.53964 0.41733 1.14467
 O1955 O 0.48134 0.56845 1.09457
 O1956 O 0.48131 0.59049 1.11670
 C1957 C 0.47487 0.57508 1.11000
 C1958 C 0.45942 0.56496 1.11996
 C1959 C 0.45308 0.57113 1.13779
 H1960 H 0.45999 0.58307 1.14450
 O1961 O 0.40553 0.51855 1.06866
 O1962 O 0.38337 0.51855 1.09067
 C1963 C 0.39009 0.52499 1.07526
 C1964 C 0.38012 0.54042 1.06510
 C1965 C 0.36228 0.54675 1.07123
 H1966 H 0.35554 0.53987 1.08317
 O1967 O 0.59417 0.48163 1.06861
 O1968 O 0.61634 0.48163 1.09062
 C1969 C 0.60961 0.47518 1.07522
 C1970 C 0.61957 0.45974 1.06506
 C1971 C 0.63744 0.45344 1.07115
 H1972 H 0.64419 0.46034 1.08307
 O1973 O 0.56825 0.40584 1.01867
 O1974 O 0.59027 0.38370 1.01869
 C1975 C 0.57487 0.39041 1.02514
 C1976 C 0.56474 0.38047 1.04061
 C1977 C 0.57086 0.36261 1.04690
 H1978 H 0.58275 0.35586 1.03996
 O1979 O 0.43141 0.59430 1.01866
 O1980 O 0.40938 0.61644 1.01867
 C1981 C 0.42479 0.60973 1.02512
 C1982 C 0.43492 0.61970 1.04056
 C1983 C 0.42879 0.63755 1.04686
 H1984 H 0.41688 0.64429 1.03994
 O1985 O 0.43151 0.48164 1.09461
 O1986 O 0.40947 0.48159 1.11675
 C1987 C 0.42488 0.47517 1.11004
 C1988 C 0.43502 0.45972 1.12001
 C1989 C 0.42888 0.45340 1.13785
 H1990 H 0.41695 0.46031 1.14458
 O1991 O 0.56823 0.51859 1.09453
 O1992 O 0.59027 0.51863 1.11667
 C1993 C 0.57485 0.52506 1.10996
 C1994 C 0.56471 0.54051 1.11991
 C1995 C 0.57083 0.54683 1.13776
 H1996 H 0.58276 0.53993 1.14450
 O1997 O 0.48147 0.40584 1.06867
 O1998 O 0.48147 0.38368 1.09069
 C1999 C 0.47503 0.39039 1.07527
 C2000 C 0.45963 0.38041 1.06511
 C2001 C 0.45339 0.36253 1.07118
 H2002 H 0.46032 0.35578 1.08309
 O2003 O 0.51826 0.59440 1.06860
 O2004 O 0.51826 0.61656 1.09061
 C2005 C 0.52471 0.60984 1.07520
 C2006 C 0.54014 0.61980 1.06506
 C2007 C 0.54644 0.63765 1.07117
 H2008 H 0.53952 0.64440 1.08308
 O2009 O 0.40568 0.43168 1.01869
 O2010 O 0.38355 0.40965 1.01874
 C2011 C 0.39026 0.42506 1.02516
 C2012 C 0.38029 0.43521 1.04060
 C2013 C 0.36241 0.42912 1.04687
 H2014 H 0.35567 0.41722 1.03993
 O2015 O 0.59407 0.56847 1.01864
 O2016 O 0.61622 0.59049 1.01864
 C2017 C 0.60951 0.57508 1.02508
 C2018 C 0.61949 0.56492 1.04049
 C2019 C 0.63740 0.57096 1.04670
 H2020 H 0.64416 0.58284 1.03974
 O2021 O 0.51829 0.56846 1.09454
 O2022 O 0.51830 0.59049 1.11668
 C2023 C 0.52475 0.57508 1.10997
 C2024 C 0.54021 0.56496 1.11992
 C2025 C 0.54653 0.57109 1.13777
 H2026 H 0.53961 0.58300 1.14452
 O2027 O 0.48143 0.43175 1.09464
 O2028 O 0.48142 0.40972 1.11679
 C2029 C 0.47496 0.42512 1.11008
 C2030 C 0.45950 0.43525 1.12003
 C2031 C 0.45316 0.42911 1.13787
 H2032 H 0.46006 0.41719 1.14462
 O2033 O 0.59415 0.51856 1.06857
 O2034 O 0.61632 0.51860 1.09057
 C2035 C 0.60958 0.52503 1.07516
 C2036 C 0.61953 0.54045 1.06498
 C2037 C 0.63744 0.54668 1.07099
 H2038 H 0.64422 0.53973 1.08287
 O2039 O 0.40561 0.48161 1.06864
 O2040 O 0.38344 0.48157 1.09065
 C2041 C 0.39018 0.47513 1.07524
 C2042 C 0.38025 0.45969 1.06508
 C2043 C 0.36237 0.45340 1.07115
 H2044 H 0.35560 0.46033 1.08304
 O2045 O 0.56814 0.59442 1.01866
 O2046 O 0.59016 0.61657 1.01867
 C2047 C 0.57475 0.60985 1.02512
 C2048 C 0.56462 0.61980 1.04057
 C2049 C 0.57072 0.63766 1.04688
 H2050 H 0.58263 0.64441 1.03996
 O2051 O 0.43163 0.40575 1.01868
 O2052 O 0.40962 0.38359 1.01873
 C2053 C 0.42503 0.39031 1.02515
 C2054 C 0.43518 0.38037 1.04060
 C2055 C 0.42913 0.36248 1.04687
 H2056 H 0.41726 0.35571 1.03992
 O2057 O 0.56825 0.48165 1.09458
 O2058 O 0.59028 0.48165 1.11672
 C2059 C 0.57487 0.47521 1.11002
 C2060 C 0.56474 0.45978 1.12000
 C2061 C 0.57084 0.45350 1.13788
 H2062 H 0.58275 0.46043 1.14462
 O2063 O 0.43145 0.51858 1.09462
 O2064 O 0.40942 0.51858 1.11676
 C2065 C 0.42482 0.52504 1.11005
 C2066 C 0.43493 0.54050 1.12000
 C2067 C 0.42878 0.54688 1.13783
 H2068 H 0.41685 0.54000 1.14457
 O2069 O 0.48132 0.59435 1.06858
 O2070 O 0.48129 0.61651 1.09059
 C2071 C 0.47485 0.60978 1.07519
 C2072 C 0.45939 0.61972 1.06504
 C2073 C 0.45308 0.63757 1.07115
 H2074 H 0.45999 0.64433 1.08306
 O2075 O 0.51840 0.40586 1.06869
 O2076 O 0.51844 0.38370 1.09071
 C2077 C 0.52487 0.39043 1.07530
 C2078 C 0.54031 0.38047 1.06514
 C2079 C 0.54662 0.36262 1.07124
 H2080 H 0.53972 0.35587 1.08316
 O2081 O 0.59417 0.43178 1.01865
 O2082 O 0.61632 0.40976 1.01867
 C2083 C 0.60960 0.42517 1.02511
 C2084 C 0.61956 0.43530 1.04055
 C2085 C 0.63742 0.42919 1.04683
 H2086 H 0.64417 0.41730 1.03988
 O2087 O 0.40549 0.56836 1.01865
 O2088 O 0.38333 0.59037 1.01866
 C2089 C 0.39005 0.57497 1.02511
 C2090 C 0.38010 0.56485 1.04058
 C2091 C 0.36227 0.57099 1.04690
 H2092 H 0.35552 0.58289 1.03997
 Cu2093 Cu 0.49992 0.42102 1.07946
 Cu2094 Cu 0.49993 0.39449 1.10597
 Cu2095 Cu 0.49980 0.57921 1.07937
 Cu2096 Cu 0.49979 0.60573 1.10587
 Cu2097 Cu 0.42084 0.42090 1.00020
 Cu2098 Cu 0.39435 0.39438 1.00024
 Cu2099 Cu 0.57900 0.42100 1.00018
 Cu2100 Cu 0.60552 0.39450 1.00019
 Cu2101 Cu 0.42066 0.57913 1.00017
 Cu2102 Cu 0.39414 0.60562 1.00017
 Cu2103 Cu 0.57888 0.57924 1.00018
 Cu2104 Cu 0.60539 0.60575 1.00016
 Cu2105 Cu 0.42073 0.50010 1.07943
 Cu2106 Cu 0.39420 0.50007 1.10593
 Cu2107 Cu 0.57899 0.50010 1.07937
 Cu2108 Cu 0.60552 0.50013 1.10586
 C2109 C 0.54933 0.45071 1.11130
 H2110 H 0.54471 0.45531 1.09741
 C2111 C 0.56184 0.43824 1.14698
 C2112 C 0.45037 0.54953 1.11129
 H2113 H 0.45503 0.54486 1.09743
 C2114 C 0.43777 0.56219 1.14687
 C2115 C 0.38882 0.54945 1.04966
 H2116 H 0.40268 0.54481 1.04502
 C2117 C 0.35320 0.56203 1.06221
 C2118 C 0.61085 0.45069 1.04965
 H2119 H 0.59696 0.45531 1.04504
 C2120 C 0.64651 0.43817 1.06212
 C2121 C 0.54935 0.38919 1.04971
 H2122 H 0.54472 0.40306 1.04509
 C2123 C 0.56188 0.35353 1.06220
 C2124 C 0.45033 0.61100 1.04964
 H2125 H 0.45497 0.59712 1.04501
 C2126 C 0.43779 0.64664 1.06214
 C2127 C 0.45045 0.45067 1.11131
 H2128 H 0.45510 0.45531 1.09744
 C2129 C 0.43786 0.43811 1.14693
 C2130 C 0.54928 0.54956 1.11121
 H2131 H 0.54465 0.54492 1.09734
 C2132 C 0.56183 0.56211 1.14684
 C2133 C 0.45055 0.38912 1.04970
 H2134 H 0.45513 0.40302 1.04510
 C2135 C 0.43815 0.35341 1.06214
 C2136 C 0.54921 0.61109 1.04964
 H2137 H 0.54459 0.59721 1.04502
 C2138 C 0.56172 0.64674 1.06216
 C2139 C 0.38899 0.45061 1.04969
 H2140 H 0.40288 0.45522 1.04509
 C2141 C 0.35330 0.43813 1.06213
 C2142 C 0.61077 0.54954 1.04961
 H2143 H 0.59686 0.54497 1.04505
 C2144 C 0.64653 0.56192 1.06194
 C2145 C 1.11138 1.11097 1.26791
 N2146 N 1.12684 1.10302 1.27609
 N2147 N 1.13410 1.11024 1.29194
 C2148 C 1.12623 1.12572 1.30028
 N2149 N 1.11069 1.13358 1.29204
 N2150 N 1.10342 1.12638 1.27619
 C2151 C 1.10358 1.10325 1.25024
 N2152 N 1.08830 1.11142 1.24190
 N2153 N 1.08143 1.10462 1.22569
 C2154 C 1.08958 1.08940 1.21723
 N2155 N 1.10483 1.08120 1.22559
 N2156 N 1.11171 1.08800 1.24180
 C2157 C 1.08223 1.08213 1.19917
 N2158 N 1.09056 1.06709 1.19057
 N2159 N 1.08411 1.06072 1.17403
 C2160 C 1.06909 1.06912 1.16540
 N2161 N 1.06076 1.08414 1.17408
 N2162 N 1.06719 1.09052 1.19064
 C2163 C 1.11081 0.61037 0.76801
 N2164 N 1.12624 0.60239 0.77623
 N2165 N 1.13347 0.60959 0.79210
 C2166 C 1.12556 0.62505 0.80040
 N2167 N 1.11007 0.63296 0.79216
 N2168 N 1.10283 0.62577 0.77629
 C2169 C 1.10306 0.60267 0.75031
 N2170 N 1.08781 0.61086 0.74193
 N2171 N 1.08100 0.60410 0.72568
 C2172 C 1.08918 0.58890 0.71722
 N2173 N 1.10440 0.58068 0.72562
 N2174 N 1.11122 0.58744 0.74187
 C2175 C 1.08192 0.58169 0.69911
 N2176 N 1.09028 0.56668 0.69050
 N2177 N 1.08391 0.56036 0.67390
 C2178 C 1.06893 0.56878 0.66524
 N2179 N 1.06054 0.58377 0.67394
 N2180 N 1.06691 0.59010 0.69054
 C2181 C 0.61091 1.11058 0.76788
 N2182 N 0.60293 1.12597 0.77619
 N2183 N 0.61018 1.13315 0.79206
 C2184 C 0.62570 1.12525 0.80027
 N2185 N 0.63361 1.10980 0.79194
 N2186 N 0.62637 1.10261 0.77606
 C2187 C 0.60315 1.10290 0.75018
 N2188 N 0.61130 1.08768 0.74171
 N2189 N 0.60445 1.08092 0.72547
 C2190 C 0.58922 1.08914 0.71710
 N2191 N 0.58104 1.10433 0.72560
 N2192 N 0.58788 1.11108 0.74184
 C2193 C 0.58192 1.08193 0.69901
 N2194 N 0.56689 1.09034 0.69047
 N2195 N 0.56050 1.08401 0.67388
 C2196 C 0.56887 1.06902 0.66516
 N2197 N 0.58387 1.06060 0.67380
 N2198 N 0.59027 1.06692 0.69038
 C2199 C 0.61053 0.61070 1.26824
 N2200 N 0.62596 0.60273 1.27646
 N2201 N 0.63318 0.60995 1.29233
 C2202 C 0.62530 0.62544 1.30065
 N2203 N 0.60979 0.63332 1.29236
 N2204 N 0.60256 0.62611 1.27649
 C2205 C 0.60279 0.60299 1.25053
 N2206 N 0.58754 0.61116 1.24215
 N2207 N 0.58073 0.60437 1.22590
 C2208 C 0.58893 0.58916 1.21746
 N2209 N 0.60415 0.58096 1.22587
 N2210 N 0.61096 0.58775 1.24211
 C2211 C 0.58167 0.58192 1.19936
 N2212 N 0.59005 0.56691 1.19077
 N2213 N 0.58368 0.56056 1.17418
 C2214 C 0.56869 0.56896 1.16551
 N2215 N 0.56029 0.58395 1.17420
 N2216 N 0.56665 0.59030 1.19079
 C2217 C 0.88950 0.88968 1.26823
 N2218 N 0.87409 0.89765 1.27649
 N2219 N 0.86689 0.89042 1.29236
 C2220 C 0.87478 0.87492 1.30067
 N2221 N 0.89028 0.86705 1.29235
 N2222 N 0.89749 0.87426 1.27647
 C2223 C 0.89721 0.89740 1.25052
 N2224 N 0.91245 0.88924 1.24210
 N2225 N 0.91923 0.89603 1.22585
 C2226 C 0.91102 0.91124 1.21742
 N2227 N 0.89581 0.91943 1.22586
 N2228 N 0.88903 0.91264 1.24212
 C2229 C 0.91826 0.91849 1.19931
 N2230 N 0.90986 0.93349 1.19072
 N2231 N 0.91621 0.93984 1.17412
 C2232 C 0.93120 0.93144 1.16543
 N2233 N 0.93961 0.91646 1.17412
 N2234 N 0.93327 0.91010 1.19072
 C2235 C 0.88920 0.38943 0.76794
 N2236 N 0.87377 0.39741 0.77616
 N2237 N 0.86656 0.39020 0.79204
 C2238 C 0.87444 0.37472 0.80038
 N2239 N 0.88995 0.36684 0.79209
 N2240 N 0.89718 0.37404 0.77621
 C2241 C 0.89694 0.39714 0.75023
 N2242 N 0.91220 0.38897 0.74185
 N2243 N 0.91901 0.39576 0.72561
 C2244 C 0.91082 0.41096 0.71715
 N2245 N 0.89560 0.41917 0.72556
 N2246 N 0.88878 0.41238 0.74180
 C2247 C 0.91811 0.41821 0.69906
 N2248 N 0.90974 0.43322 0.69046
 N2249 N 0.91613 0.43958 0.67388
 C2250 C 0.93113 0.43118 0.66522
 N2251 N 0.93951 0.41618 0.67391
 N2252 N 0.93313 0.40982 0.69049
 C2253 C 0.38925 0.88989 0.76809
 N2254 N 0.37382 0.89788 0.77630
 N2255 N 0.36658 0.89069 0.79218
 C2256 C 0.37448 0.87522 0.80049
 N2257 N 0.38998 0.86731 0.79225
 N2258 N 0.39722 0.87449 0.77637
 C2259 C 0.39700 0.89758 0.75038
 N2260 N 0.41225 0.88938 0.74200
 N2261 N 0.41906 0.89614 0.72575
 C2262 C 0.41089 0.91134 0.71728
 N2263 N 0.39567 0.91957 0.72568
 N2264 N 0.38886 0.91282 0.74193
 C2265 C 0.41816 0.91855 0.69916
 N2266 N 0.40980 0.93356 0.69055
 N2267 N 0.41617 0.93988 0.67395
 C2268 C 0.43115 0.93145 0.66528
 N2269 N 0.43953 0.91646 0.67399
 N2270 N 0.43316 0.91013 0.69059
 C2271 C 0.38888 0.38955 1.26826
 N2272 N 0.37343 0.39751 1.27644
 N2273 N 0.36618 0.39029 1.29231
 C2274 C 0.37406 0.37481 1.30065
 N2275 N 0.38960 0.36695 1.29240
 N2276 N 0.39686 0.37415 1.27654
 C2277 C 0.39666 0.39726 1.25056
 N2278 N 0.41194 0.38909 1.24222
 N2279 N 0.41878 0.39587 1.22599
 C2280 C 0.41060 0.41107 1.21751
 N2281 N 0.39536 0.41927 1.22589
 N2282 N 0.38851 0.41249 1.24212
 C2283 C 0.41791 0.41830 1.19942
 N2284 N 0.40955 0.43332 1.19081
 N2285 N 0.41596 0.43966 1.17423
 C2286 C 0.43097 0.43126 1.16559
 N2287 N 0.43934 0.41627 1.17430
 N2288 N 0.43294 0.40991 1.19088
 C2289 C 0.88826 1.11138 0.73243
 N2290 N 0.89621 1.12678 0.72414
 N2291 N 0.88890 1.13401 0.70832
 C2292 C 0.87334 1.12616 0.70010
 N2293 N 0.86549 1.11067 0.70845
 N2294 N 0.87278 1.10344 0.72428
 C2295 C 0.89611 1.10362 0.75008
 N2296 N 0.88800 1.08836 0.75852
 N2297 N 0.89493 1.08153 0.77469
 C2298 C 0.91021 1.08971 0.78302
 N2299 N 0.91835 1.10493 0.77455
 N2300 N 0.91142 1.11176 0.75837
 C2301 C 0.91762 1.08240 0.80104
 N2302 N 0.93270 1.09076 0.80953
 N2303 N 0.93919 1.08433 0.82605
 C2304 C 0.93088 1.06931 0.83475
 N2305 N 0.91582 1.06094 0.82616
 N2306 N 0.90932 1.06735 0.80964
 C2307 C 0.89049 0.60970 0.23121
 N2308 N 0.87509 0.60169 0.22296
 N2309 N 0.86792 0.60886 0.20704
 C2310 C 0.87584 0.62431 0.19874
 N2311 N 0.89130 0.63224 0.20702
 N2312 N 0.89848 0.62509 0.22293
 C2313 C 0.89815 0.60206 0.24898
 N2314 N 0.91335 0.61028 0.25741
 N2315 N 0.92006 0.60358 0.27372
 C2316 C 0.91183 0.58841 0.28221
 N2317 N 0.89666 0.58016 0.27375
 N2318 N 0.88994 0.58686 0.25743
 C2319 C 0.91898 0.58128 0.30039
 N2320 N 0.91055 0.56633 0.30903
 N2321 N 0.91681 0.56009 0.32570
 C2322 C 0.93174 0.56855 0.33441
 N2323 N 0.94018 0.58349 0.32568
 N2324 N 0.93393 0.58973 0.30901
 C2325 C 0.38958 1.11044 0.23164
 N2326 N 0.37418 1.10245 0.22339
 N2327 N 0.36699 1.10964 0.20749
 C2328 C 0.37488 1.12512 0.19916
 N2329 N 0.39037 1.13301 0.20747
 N2330 N 0.39756 1.12583 0.22337
 C2331 C 0.39727 1.10277 0.24938
 N2332 N 0.41249 1.11096 0.25779
 N2333 N 0.41925 1.10422 0.27407
 C2334 C 0.41104 1.08903 0.28253
 N2335 N 0.39586 1.08080 0.27409
 N2336 N 0.38909 1.08754 0.25781
 C2337 C 0.41825 1.08183 0.30067
 N2338 N 0.40986 1.06684 0.30928
 N2339 N 0.41618 1.06054 0.32590
 C2340 C 0.43114 1.06897 0.33460
 N2341 N 0.43955 1.08394 0.32590
 N2342 N 0.43324 1.09025 0.30927
 C2343 C 0.39031 0.60973 0.73139
 N2344 N 0.39832 0.62513 0.72314
 N2345 N 0.39119 0.63229 0.70720
 C2346 C 0.37576 0.62434 0.69887
 N2347 N 0.36782 0.60888 0.70715
 N2348 N 0.37495 0.60172 0.72309
 C2349 C 0.39792 0.60209 0.74917
 N2350 N 0.38970 0.58688 0.75759
 N2351 N 0.39638 0.58017 0.77392
 C2352 C 0.41152 0.58842 0.78243
 N2353 N 0.41977 0.60359 0.77398
 N2354 N 0.41310 0.61031 0.75765
 C2355 C 0.41863 0.58128 0.80062
 N2356 N 0.43357 0.58972 0.80927
 N2357 N 0.43980 0.58346 0.82595
 C2358 C 0.43134 0.56851 0.83465
 N2359 N 0.41643 0.56006 0.82590
 N2360 N 0.41019 0.56631 0.80923
 C2361 C 1.11073 0.88991 0.73184
 N2362 N 1.12617 0.89789 0.72363
 N2363 N 1.13340 0.89070 0.70776
 C2364 C 1.12549 0.87524 0.69945
 N2365 N 1.10999 0.86733 0.70768
 N2366 N 1.10275 0.87452 0.72356
 C2367 C 1.10298 0.89760 0.74956
 N2368 N 1.08773 0.88941 0.75793
 N2369 N 1.08093 0.89616 0.77419
 C2370 C 1.08912 0.91134 0.78267
 N2371 N 1.10433 0.91957 0.77426
 N2372 N 1.11114 0.91282 0.75801
 C2373 C 1.08186 0.91855 0.80078
 N2374 N 1.09024 0.93354 0.80940
 N2375 N 1.08387 0.93985 0.82601
 C2376 C 1.06889 0.93142 0.83468
 N2377 N 1.06050 0.91645 0.82596
 N2378 N 1.06685 0.91013 0.80935
 C2379 C 1.11033 0.39029 0.23145
 N2380 N 1.12575 0.39828 0.22322
 N2381 N 1.13295 0.39111 0.20732
 C2382 C 1.12503 0.37566 0.19901
 N2383 N 1.10955 0.36775 0.20726
 N2384 N 1.10234 0.37491 0.22316
 C2385 C 1.10263 0.39794 0.24920
 N2386 N 1.08741 0.38973 0.25760
 N2387 N 1.08065 0.39644 0.27389
 C2388 C 1.08887 0.41161 0.28238
 N2389 N 1.10405 0.41986 0.27395
 N2390 N 1.11081 0.41315 0.25765
 C2391 C 1.08167 0.41877 0.30053
 N2392 N 1.09007 0.43374 0.30916
 N2393 N 1.08376 0.44000 0.32581
 C2394 C 1.06881 0.43154 0.33451
 N2395 N 1.06040 0.41659 0.32578
 N2396 N 1.06669 0.41032 0.30913
 C2397 C 0.61057 0.88955 0.23184
 N2398 N 0.62599 0.89752 0.22360
 N2399 N 0.63321 0.89029 0.20773
 C2400 C 0.62534 0.87479 0.19943
 N2401 N 0.60983 0.86692 0.20773
 N2402 N 0.60260 0.87414 0.22360
 C2403 C 0.60284 0.89728 0.24954
 N2404 N 0.58759 0.88912 0.25794
 N2405 N 0.58078 0.89592 0.27418
 C2406 C 0.58897 0.91113 0.28261
 N2407 N 0.60419 0.91933 0.27418
 N2408 N 0.61099 0.91253 0.25794
 C2409 C 0.58171 0.91839 0.30071
 N2410 N 0.59008 0.93341 0.30929
 N2411 N 0.58371 0.93977 0.32587
 C2412 C 0.56872 0.93137 0.33455
 N2413 N 0.56033 0.91638 0.32588
 N2414 N 0.56670 0.91001 0.30929
 C2415 C 0.61085 0.38978 0.73208
 N2416 N 0.62631 0.39776 0.72390
 N2417 N 0.63356 0.39057 0.70803
 C2418 C 0.62566 0.37512 0.69970
 N2419 N 0.61014 0.36722 0.70791
 N2420 N 0.60288 0.37440 0.72378
 C2421 C 0.60307 0.39747 0.74979
 N2422 N 0.58780 0.38928 0.75812
 N2423 N 0.58096 0.39603 0.77436
 C2424 C 0.58913 0.41122 0.78286
 N2425 N 0.60436 0.41944 0.77449
 N2426 N 0.61121 0.41269 0.75825
 C2427 C 0.58182 0.41843 0.80096
 N2428 N 0.59017 0.43343 0.80959
 N2429 N 0.58376 0.43974 0.82618
 C2430 C 0.56876 0.43132 0.83481
 N2431 N 0.56040 0.41634 0.82609
 N2432 N 0.56680 0.41001 0.80949
 C2433 C 1.26827 1.11006 1.11044
 N2434 N 1.27656 1.12545 1.10244
 N2435 N 1.29245 1.13260 1.10965
 C2436 C 1.30070 1.12468 1.12514
 N2437 N 1.29238 1.10924 1.13307
 N2438 N 1.27648 1.10207 1.12587
 C2439 C 1.25053 1.10241 1.10273
 N2440 N 1.24207 1.08721 1.11092
 N2441 N 1.22580 1.08049 1.10414
 C2442 C 1.21738 1.08873 1.08894
 N2443 N 1.22587 1.10390 1.08072
 N2444 N 1.24215 1.11062 1.08749
 C2445 C 1.19925 1.08156 1.08171
 N2446 N 1.19067 1.08999 1.06672
 N2447 N 1.17404 1.08370 1.06040
 C2448 C 1.16532 1.06874 1.06882
 N2449 N 1.17400 1.06031 1.08379
 N2450 N 1.19062 1.06658 1.09012
 C2451 C 1.26870 0.60972 0.60954
 N2452 N 1.27697 0.60171 0.62492
 N2453 N 1.29289 0.60887 0.63207
 C2454 C 1.30117 0.62433 0.62413
 N2455 N 1.29287 0.63227 0.60868
 N2456 N 1.27695 0.62511 0.60152
 C2457 C 1.25093 0.60207 0.60190
 N2458 N 1.24248 0.61029 0.58671
 N2459 N 1.22616 0.60358 0.58001
 C2460 C 1.21770 0.58842 0.58827
 N2461 N 1.22618 0.58017 0.60343
 N2462 N 1.24250 0.58687 0.61013
 C2463 C 1.19952 0.58128 0.58114
 N2464 N 1.19090 0.56632 0.58959
 N2465 N 1.17424 0.56008 0.58334
 C2466 C 1.16551 0.56853 0.56840
 N2467 N 1.17423 0.58347 0.55994
 N2468 N 1.19089 0.58972 0.56618
 C2469 C 0.76746 1.11141 0.61167
 N2470 N 0.77562 1.10346 0.62715
 N2471 N 0.79145 1.11070 0.63443
 C2472 C 0.79979 1.12619 0.62657
 N2473 N 0.79156 1.13404 0.61101
 N2474 N 0.77573 1.12681 0.60372
 C2475 C 0.74982 1.10365 0.60384
 N2476 N 0.74151 1.11179 0.58852
 N2477 N 0.72534 1.10496 0.58160
 C2478 C 0.71689 1.08973 0.58975
 N2479 N 0.72522 1.08155 0.60503
 N2480 N 0.74139 1.08839 0.61195
 C2481 C 0.69887 1.08241 0.58235
 N2482 N 0.69029 1.06736 0.59066
 N2483 N 0.67378 1.06094 0.58416
 C2484 C 0.66518 1.06931 0.56910
 N2485 N 0.67386 1.08434 0.56077
 N2486 N 0.69037 1.09077 0.56726
 C2487 C 0.76850 0.60985 1.10968
 N2488 N 0.77675 0.62525 1.10166
 N2489 N 0.79269 0.63239 1.10879
 C2490 C 0.80103 0.62443 1.12421
 N2491 N 0.79275 0.60897 1.13216
 N2492 N 0.77681 0.60183 1.12504
 C2493 C 0.75072 0.60222 1.10207
 N2494 N 0.74230 0.58702 1.11029
 N2495 N 0.72598 0.58032 1.10362
 C2496 C 0.71747 0.58858 1.08848
 N2497 N 0.72592 0.60375 1.08022
 N2498 N 0.74224 0.61045 1.08689
 C2499 C 0.69928 0.58143 1.08136
 N2500 N 0.69063 0.58988 1.06642
 N2501 N 0.67396 0.58362 1.06019
 C2502 C 0.66527 0.56867 1.06865
 N2503 N 0.67402 0.56021 1.08358
 N2504 N 0.69069 0.56647 1.08981
 C2505 C 1.26802 0.88948 0.88942
 N2506 N 1.27626 0.89746 0.87401
 N2507 N 1.29214 0.89025 0.86680
 C2508 C 1.30044 0.87475 0.87468
 N2509 N 1.29214 0.86687 0.89018
 N2510 N 1.27626 0.87407 0.89740
 C2511 C 1.25031 0.89720 0.89715
 N2512 N 1.24191 0.88902 0.91240
 N2513 N 1.22566 0.89580 0.91920
 C2514 C 1.21723 0.91102 0.91100
 N2515 N 1.22566 0.91923 0.89579
 N2516 N 1.24191 0.91245 0.88899
 C2517 C 1.19914 0.91827 0.91826
 N2518 N 1.19056 0.93329 0.90989
 N2519 N 1.17398 0.93965 0.91626
 C2520 C 1.16529 0.93124 0.93125
 N2521 N 1.17396 0.91624 0.93963
 N2522 N 1.19055 0.90988 0.93327
 C2523 C 1.26809 0.38950 0.38895
 N2524 N 1.27629 0.39747 0.37350
 N2525 N 1.29216 0.39026 0.36627
 C2526 C 1.30049 0.37478 0.37415
 N2527 N 1.29223 0.36691 0.38968
 N2528 N 1.27636 0.37411 0.39693
 C2529 C 1.25040 0.39721 0.39671
 N2530 N 1.24203 0.38904 0.41198
 N2531 N 1.22580 0.39582 0.41882
 C2532 C 1.21734 0.41103 0.41063
 N2533 N 1.22573 0.41923 0.39539
 N2534 N 1.24196 0.41245 0.38856
 C2535 C 1.19926 0.41827 0.41793
 N2536 N 1.19066 0.43329 0.40957
 N2537 N 1.17409 0.43964 0.41597
 C2538 C 1.16544 0.43124 0.43099
 N2539 N 1.17413 0.41624 0.43936
 N2540 N 1.19071 0.40988 0.43296
 C2541 C 0.76813 0.88999 0.38934
 N2542 N 0.77640 0.87459 0.39734
 N2543 N 0.79229 0.86742 0.39013
 C2544 C 0.80055 0.87533 0.37464
 N2545 N 0.79225 0.89079 0.36672
 N2546 N 0.77636 0.89798 0.37392
 C2547 C 0.75040 0.89767 0.39705
 N2548 N 0.74197 0.91289 0.38887
 N2549 N 0.72570 0.91964 0.39564
 C2550 C 0.71728 0.91142 0.41085
 N2551 N 0.72574 0.89623 0.41907
 N2552 N 0.74201 0.88948 0.41229
 C2553 C 0.69915 0.91862 0.41808
 N2554 N 0.69057 0.91021 0.43309
 N2555 N 0.67396 0.91652 0.43942
 C2556 C 0.66525 0.93149 0.43101
 N2557 N 0.67392 0.93991 0.41602
 N2558 N 0.69054 0.93361 0.40968
 C2559 C 0.76787 0.38982 0.88922
 N2560 N 0.77617 0.37443 0.89720
 N2561 N 0.79205 0.36726 0.88995
 C2562 C 0.80026 0.37517 0.87444
 N2563 N 0.79193 0.39061 0.86652
 N2564 N 0.77605 0.39780 0.87376
 C2565 C 0.75016 0.39749 0.89699
 N2566 N 0.74170 0.41271 0.88883
 N2567 N 0.72546 0.41946 0.89567
 C2568 C 0.71709 0.41124 0.91091
 N2569 N 0.72558 0.39605 0.91910
 N2570 N 0.74182 0.38930 0.91226
 C2571 C 0.69899 0.41845 0.91821
 N2572 N 0.69045 0.41004 0.93324
 N2573 N 0.67386 0.41636 0.93963
 C2574 C 0.66514 0.43134 0.93126
 N2575 N 0.67378 0.43976 0.91625
 N2576 N 0.69036 0.43345 0.90985
 C2577 C 0.73198 0.88988 1.11073
 N2578 N 0.72372 0.87448 1.10275
 N2579 N 0.70785 0.86729 1.10997
 C2580 C 0.69959 0.87520 1.12546
 N2581 N 0.70787 0.89066 1.13338
 N2582 N 0.72375 0.89786 1.12616
 C2583 C 0.74969 0.89758 1.10300
 N2584 N 0.75811 0.91281 1.11117
 N2585 N 0.77436 0.91959 1.10437
 C2586 C 0.78278 0.91137 1.08916
 N2587 N 0.77433 0.89617 1.08096
 N2588 N 0.75809 0.88940 1.08776
 C2589 C 0.80089 0.91860 1.08190
 N2590 N 0.80946 0.91020 1.06689
 N2591 N 0.82606 0.91654 1.06053
 C2592 C 0.83475 0.93153 1.06893
 N2593 N 0.82607 0.93994 1.08392
 N2594 N 0.80948 0.93360 1.09028
 C2595 C 0.73216 0.38933 0.61079
 N2596 N 0.72392 0.39730 0.62621
 N2597 N 0.70805 0.39010 0.63343
 C2598 C 0.69974 0.37460 0.62554
 N2599 N 0.70804 0.36673 0.61004
 N2600 N 0.72391 0.37392 0.60281
 C2601 C 0.74986 0.39705 0.60305
 N2602 N 0.75825 0.38888 0.58779
 N2603 N 0.77448 0.39568 0.58098
 C2604 C 0.78291 0.41089 0.58917
 N2605 N 0.77449 0.41909 0.60439
 N2606 N 0.75827 0.41229 0.61121
 C2607 C 0.80099 0.41816 0.58188
 N2608 N 0.80957 0.43318 0.59025
 N2609 N 0.82614 0.43954 0.58386
 C2610 C 0.83481 0.43115 0.56885
 N2611 N 0.82613 0.41615 0.56047
 N2612 N 0.80956 0.40978 0.56685
 C2613 C 0.23200 0.88947 0.61059
 N2614 N 0.22377 0.87406 0.60261
 N2615 N 0.20789 0.86685 0.60981
 C2616 C 0.19956 0.87473 0.62531
 N2617 N 0.20786 0.89023 0.63320
 N2618 N 0.22373 0.89744 0.62600
 C2619 C 0.24970 0.89720 0.60289
 N2620 N 0.25810 0.91244 0.61107
 N2621 N 0.27434 0.91924 0.60428
 C2622 C 0.28278 0.91105 0.58907
 N2623 N 0.27436 0.89584 0.58085
 N2624 N 0.25812 0.88904 0.58764
 C2625 C 0.30087 0.91831 0.58182
 N2626 N 0.30946 0.90995 0.56679
 N2627 N 0.32604 0.91632 0.56043
 C2628 C 0.33471 0.93131 0.56884
 N2629 N 0.32603 0.93969 0.58384
 N2630 N 0.30945 0.93333 0.59021
 C2631 C 0.23161 0.38980 1.11025
 N2632 N 0.22333 0.39779 1.12564
 N2633 N 0.20742 0.39061 1.13280
 C2634 C 0.19912 0.37512 1.12490
 N2635 N 0.20746 0.36722 1.10942
 N2636 N 0.22337 0.37440 1.10225
 C2637 C 0.24936 0.39748 1.10260
 N2638 N 0.25781 0.38929 1.08739
 N2639 N 0.27409 0.39604 1.08066
 C2640 C 0.28252 0.41123 1.08890
 N2641 N 0.27404 0.41945 1.10408
 N2642 N 0.25776 0.41270 1.11081
 C2643 C 0.30067 0.41844 1.08173
 N2644 N 0.30925 0.43343 1.09016
 N2645 N 0.32587 0.43974 1.08386
 C2646 C 0.33460 0.43132 1.06890
 N2647 N 0.32592 0.41635 1.06047
 N2648 N 0.30930 0.41003 1.06675
 C2649 C 0.73219 1.11105 0.88918
 N2650 N 0.72393 1.12645 0.89716
 N2651 N 0.70806 1.13364 0.88994
 C2652 C 0.69976 1.12576 0.87443
 N2653 N 0.70809 1.11028 0.86654
 N2654 N 0.72397 1.10307 0.87375
 C2655 C 0.74990 1.10333 0.89691
 N2656 N 0.75831 1.08809 0.88875
 N2657 N 0.77455 1.08130 0.89557
 C2658 C 0.78296 1.08950 0.91079
 N2659 N 0.77452 1.10471 0.91898
 N2660 N 0.75828 1.11150 0.91217
 C2661 C 0.80105 1.08224 0.91807
 N2662 N 0.80961 1.09062 0.93309
 N2663 N 0.82619 1.08424 0.93947
 C2664 C 0.83486 1.06924 0.93109
 N2665 N 0.82620 1.06085 0.91609
 N2666 N 0.80963 1.06722 0.90970
 C2667 C 0.73202 0.61037 0.38926
 N2668 N 0.72379 0.60239 0.37383
 N2669 N 0.70790 0.60958 0.36663
 C2670 C 0.69960 0.62503 0.37456
 N2671 N 0.70785 0.63294 0.39004
 N2672 N 0.72374 0.62576 0.39725
 C2673 C 0.74974 0.60269 0.39697
 N2674 N 0.75813 0.61088 0.41222
 N2675 N 0.77439 0.60412 0.41901
 C2676 C 0.78286 0.58894 0.41079
 N2677 N 0.77445 0.58072 0.39558
 N2678 N 0.75819 0.58747 0.38879
 C2679 C 0.80097 0.58173 0.41804
 N2680 N 0.80959 0.56674 0.40965
 N2681 N 0.82619 0.56043 0.41601
 C2682 C 0.83485 0.56884 0.43100
 N2683 N 0.82614 0.58381 0.43940
 N2684 N 0.80954 0.59014 0.43305
 C2685 C 0.23214 1.11099 0.38866
 N2686 N 0.22396 1.10303 0.37321
 N2687 N 0.20811 1.11025 0.36595
 C2688 C 0.19976 1.12573 0.37382
 N2689 N 0.20801 1.13360 0.38936
 N2690 N 0.22386 1.12639 0.39663
 C2691 C 0.24981 1.10328 0.39646
 N2692 N 0.25815 1.11145 0.41174
 N2693 N 0.27436 1.10466 0.41862
 C2694 C 0.28283 1.08944 0.41046
 N2695 N 0.27446 1.08124 0.39521
 N2696 N 0.25825 1.08803 0.38834
 C2697 C 0.30089 1.08218 0.41780
 N2698 N 0.30949 1.06715 0.40947
 N2699 N 0.32604 1.06079 0.41591
 C2700 C 0.33466 1.06919 0.43093
 N2701 N 0.32597 1.08420 0.43927
 N2702 N 0.30942 1.09058 0.43284
 C2703 C 0.23196 0.61075 0.88937
 N2704 N 0.22372 0.60278 0.87395
 N2705 N 0.20785 0.61001 0.86674
 C2706 C 0.19956 0.62551 0.87461
 N2707 N 0.20786 0.63339 0.89012
 N2708 N 0.22372 0.62617 0.89734
 C2709 C 0.24965 0.60301 0.89710
 N2710 N 0.25805 0.61116 0.91236
 N2711 N 0.27428 0.60435 0.91917
 C2712 C 0.28270 0.58913 0.91097
 N2713 N 0.27427 0.58094 0.89574
 N2714 N 0.25805 0.58776 0.88894
 C2715 C 0.30078 0.58186 0.91824
 N2716 N 0.30936 0.56684 0.90985
 N2717 N 0.32593 0.56046 0.91623
 C2718 C 0.33460 0.56885 0.93124
 N2719 N 0.32593 0.58384 0.93964
 N2720 N 0.30936 0.59022 0.93327
 C2721 C 1.11036 1.26856 1.10977
 N2722 N 1.10236 1.27688 1.12514
 N2723 N 1.10957 1.29277 1.13229
 C2724 C 1.12507 1.30100 1.12437
 N2725 N 1.13300 1.29266 1.10894
 N2726 N 1.12580 1.27676 1.10178
 C2727 C 1.10265 1.25082 1.10214
 N2728 N 1.11083 1.24234 1.08694
 N2729 N 1.10405 1.22605 1.08024
 C2730 C 1.08885 1.21766 1.08850
 N2731 N 1.08063 1.22618 1.10365
 N2732 N 1.08741 1.24246 1.11035
 C2733 C 1.08163 1.19951 1.08136
 N2734 N 1.06664 1.19095 1.08981
 N2735 N 1.06032 1.17431 1.08356
 C2736 C 1.06873 1.16556 1.06861
 N2737 N 1.08369 1.17422 1.06015
 N2738 N 1.09002 1.19086 1.06639
 C2739 C 1.11079 0.76817 0.61016
 N2740 N 1.10281 0.77646 0.62556
 N2741 N 1.11004 0.79234 0.63273
 C2742 C 1.12554 0.80056 0.62482
 N2743 N 1.13345 0.79225 0.60936
 N2744 N 1.12623 0.77637 0.60217
 C2745 C 1.10305 0.75046 0.60249
 N2746 N 1.11120 0.74201 0.58726
 N2747 N 1.10438 0.72576 0.58051
 C2748 C 1.08917 0.71736 0.58875
 N2749 N 1.08099 0.72584 0.60395
 N2750 N 1.08780 0.74210 0.61069
 C2751 C 1.08190 0.69926 0.58155
 N2752 N 1.06690 0.69069 0.58998
 N2753 N 1.06054 0.67409 0.58366
 C2754 C 1.06892 0.66539 0.56867
 N2755 N 1.08390 0.67405 0.56023
 N2756 N 1.09027 0.69064 0.56655
 C2757 C 0.61086 1.26816 0.61030
 N2758 N 0.62632 1.27634 0.60233
 N2759 N 0.63357 1.29220 0.60954
 C2760 C 0.62565 1.30051 0.62500
 N2761 N 0.61014 1.29230 0.63290
 N2762 N 0.60289 1.27645 0.62570
 C2763 C 0.60310 1.25047 0.60260
 N2764 N 0.58782 1.24213 0.61077
 N2765 N 0.58099 1.22590 0.60400
 C2766 C 0.58918 1.21742 0.58881
 N2767 N 0.60442 1.22579 0.58060
 N2768 N 0.61125 1.24202 0.58737
 C2769 C 0.58188 1.19933 0.58158
 N2770 N 0.59025 1.19071 0.56658
 N2771 N 0.58386 1.17413 0.56025
 C2772 C 0.56885 1.16550 0.56866
 N2773 N 0.56047 1.17421 0.58364
 N2774 N 0.56685 1.19079 0.58998
 C2775 C 0.61022 0.76817 1.11076
 N2776 N 0.62562 0.77642 1.10277
 N2777 N 0.63282 0.79230 1.10998
 C2778 C 0.62491 0.80056 1.12547
 N2779 N 0.60945 0.79228 1.13339
 N2780 N 0.60224 0.77640 1.12619
 C2781 C 0.60251 0.75046 1.10304
 N2782 N 0.58728 0.74204 1.11121
 N2783 N 0.58050 0.72580 1.10442
 C2784 C 0.58871 0.71737 1.08921
 N2785 N 0.60391 0.72582 1.08099
 N2786 N 0.61068 0.74207 1.08778
 C2787 C 0.58148 0.69927 1.08196
 N2788 N 0.58987 0.69069 1.06694
 N2789 N 0.58353 0.67410 1.06060
 C2790 C 0.56855 0.66541 1.06900
 N2791 N 0.56014 0.67408 1.08400
 N2792 N 0.56648 0.69068 1.09035
 C2793 C 0.88974 1.26825 0.88925
 N2794 N 0.87434 1.27652 0.89723
 N2795 N 0.86713 1.29238 0.88999
 C2796 C 0.87501 1.30061 0.87447
 N2797 N 0.89047 1.29231 0.86655
 N2798 N 0.89769 1.27645 0.87379
 C2799 C 0.89745 1.25055 0.89699
 N2800 N 0.91267 1.24212 0.88882
 N2801 N 0.91945 1.22588 0.89563
 C2802 C 0.91126 1.21749 0.91088
 N2803 N 0.89607 1.22595 0.91909
 N2804 N 0.88929 1.24219 0.91227
 C2805 C 0.91849 1.19939 0.91815
 N2806 N 0.91010 1.19084 0.93318
 N2807 N 0.91644 1.17424 0.93955
 C2808 C 0.93141 1.16553 0.93114
 N2809 N 0.93980 1.17418 0.91612
 N2810 N 0.93348 1.19077 0.90975
 C2811 C 0.88988 0.76827 0.38935
 N2812 N 0.87448 0.77653 0.39734
 N2813 N 0.86730 0.79242 0.39013
 C2814 C 0.87522 0.80068 0.37464
 N2815 N 0.89068 0.79238 0.36672
 N2816 N 0.89787 0.77650 0.37393
 C2817 C 0.89757 0.75054 0.39707
 N2818 N 0.91280 0.74211 0.38890
 N2819 N 0.91955 0.72585 0.39569
 C2820 C 0.91132 0.71743 0.41089
 N2821 N 0.89613 0.72589 0.41910
 N2822 N 0.88937 0.74215 0.41231
 C2823 C 0.91853 0.69931 0.41814
 N2824 N 0.91011 0.69072 0.43314
 N2825 N 0.91643 0.67411 0.43948
 C2826 C 0.93141 0.66542 0.43108
 N2827 N 0.93984 0.67410 0.41610
 N2828 N 0.93353 0.69070 0.40975
 C2829 C 0.38929 1.26831 0.38942
 N2830 N 0.37386 1.27654 0.39740
 N2831 N 0.36663 1.29239 0.39017
 C2832 C 0.37453 1.30066 0.37468
 N2833 N 0.39002 1.29241 0.36677
 N2834 N 0.39726 1.27655 0.37400
 C2835 C 0.39703 1.25061 0.39715
 N2836 N 0.41228 1.24222 0.38898
 N2837 N 0.41908 1.22598 0.39578
 C2838 C 0.41088 1.21755 0.41099
 N2839 N 0.39567 1.22597 0.41920
 N2840 N 0.38886 1.24221 0.41241
 C2841 C 0.41813 1.19945 0.41824
 N2842 N 0.40975 1.19086 0.43326
 N2843 N 0.41610 1.17427 0.43960
 C2844 C 0.43109 1.16559 0.43119
 N2845 N 0.43949 1.17428 0.41620
 N2846 N 0.43314 1.19087 0.40985
 C2847 C 0.38916 0.76816 0.88985
 N2848 N 0.37372 0.77638 0.89782
 N2849 N 0.36651 0.79226 0.89062
 C2850 C 0.37444 0.80056 0.87517
 N2851 N 0.38994 0.79232 0.86726
 N2852 N 0.39715 0.77644 0.87445
 C2853 C 0.39689 0.75045 0.89754
 N2854 N 0.41214 0.74207 0.88936
 N2855 N 0.41894 0.72582 0.89612
 C2856 C 0.41073 0.71735 0.91131
 N2857 N 0.39551 0.72575 0.91953
 N2858 N 0.38871 0.74201 0.91277
 C2859 C 0.41798 0.69923 0.91852
 N2860 N 0.40959 0.69062 0.93352
 N2861 N 0.41595 0.67401 0.93983
 C2862 C 0.43094 0.66535 0.93141
 N2863 N 0.43934 0.67406 0.91644
 N2864 N 0.43299 0.69067 0.91011
 C2865 C 1.11079 0.73211 0.88971
 N2866 N 1.12622 0.72390 0.89771
 N2867 N 1.13346 0.70803 0.89051
 C2868 C 1.12556 0.69972 0.87505
 N2869 N 1.11007 0.70796 0.86712
 N2870 N 1.10283 0.72383 0.87430
 C2871 C 1.10304 0.74982 0.89740
 N2872 N 1.08780 0.75819 0.88919
 N2873 N 1.08097 0.77443 0.89595
 C2874 C 1.08914 0.78290 0.91116
 N2875 N 1.10435 0.77450 0.91940
 N2876 N 1.11118 0.75825 0.91264
 C2877 C 1.08186 0.80100 0.91837
 N2878 N 1.09021 0.80960 0.93340
 N2879 N 1.08382 0.82618 0.93972
 C2880 C 1.06885 0.83485 0.93128
 N2881 N 1.06049 0.82615 0.91628
 N2882 N 1.06686 0.80956 0.90995
 C2883 C 1.11096 0.23218 0.38911
 N2884 N 1.10300 0.22395 0.37367
 N2885 N 1.11024 0.20811 0.36643
 C2886 C 1.12573 0.19985 0.37432
 N2887 N 1.13363 0.20810 0.38982
 N2888 N 1.12639 0.22395 0.39707
 C2889 C 1.10321 0.24986 0.39686
 N2890 N 1.11137 0.25824 0.41212
 N2891 N 1.10456 0.27446 0.41894
 C2892 C 1.08933 0.28289 0.41076
 N2893 N 1.08114 0.27447 0.39553
 N2894 N 1.08796 0.25825 0.38871
 C2895 C 1.08206 0.30097 0.41804
 N2896 N 1.06704 0.30955 0.40966
 N2897 N 1.06068 0.32612 0.41604
 C2898 C 1.06907 0.33479 0.43104
 N2899 N 1.08407 0.32611 0.43943
 N2900 N 1.09044 0.30954 0.43306
 C2901 C 0.61021 0.73204 0.38935
 N2902 N 0.60222 0.72381 0.37394
 N2903 N 0.60942 0.70793 0.36673
 C2904 C 0.62489 0.69965 0.37463
 N2905 N 0.63281 0.70791 0.39011
 N2906 N 0.62562 0.72379 0.39733
 C2907 C 0.60252 0.74976 0.39708
 N2908 N 0.61071 0.75816 0.41231
 N2909 N 0.60395 0.77442 0.41910
 C2910 C 0.58875 0.78287 0.41090
 N2911 N 0.58052 0.77444 0.39570
 N2912 N 0.58728 0.75818 0.38891
 C2913 C 0.58154 0.80098 0.41814
 N2914 N 0.56653 0.80958 0.40976
 N2915 N 0.56022 0.82619 0.41611
 C2916 C 0.56865 0.83487 0.43108
 N2917 N 0.58363 0.82618 0.43948
 N2918 N 0.58996 0.80957 0.43314
 C2919 C 0.61083 0.23216 0.88973
 N2920 N 0.62629 0.22398 0.89769
 N2921 N 0.63354 0.20812 0.89047
 C2922 C 0.62563 0.19982 0.87501
 N2923 N 0.61012 0.20804 0.86712
 N2924 N 0.60286 0.22389 0.87433
 C2925 C 0.60306 0.24985 0.89745
 N2926 N 0.58778 0.25820 0.88927
 N2927 N 0.58094 0.27443 0.89605
 C2928 C 0.58913 0.28290 0.91125
 N2929 N 0.60436 0.27452 0.91946
 N2930 N 0.61120 0.25829 0.91268
 C2931 C 0.58183 0.30098 0.91848
 N2932 N 0.59019 0.30960 0.93349
 N2933 N 0.58379 0.32618 0.93981
 C2934 C 0.56879 0.33482 0.93140
 N2935 N 0.56041 0.32611 0.91641
 N2936 N 0.56680 0.30953 0.91008
 C2937 C 0.89030 0.73157 1.10958
 N2938 N 0.89834 0.72326 1.12494
 N2939 N 0.89118 0.70733 1.13207
 C2940 C 0.87572 0.69906 1.12414
 N2941 N 0.86775 0.70740 1.10872
 N2942 N 0.87490 0.72333 1.10158
 C2943 C 0.89794 0.74936 1.10196
 N2944 N 0.88971 0.75784 1.08679
 N2945 N 0.89641 0.77416 1.08011
 C2946 C 0.91159 0.78260 1.08836
 N2947 N 0.91986 0.77409 1.10350
 N2948 N 0.91315 0.75776 1.11018
 C2949 C 0.91873 0.80079 1.08125
 N2950 N 0.93370 0.80938 1.08970
 N2951 N 0.93996 0.82606 1.08347
 C2952 C 0.93150 0.83481 1.06855
 N2953 N 0.91655 0.82612 1.06009
 N2954 N 0.91029 0.80945 1.06631
 C2955 C 0.88872 0.23253 0.61118
 N2956 N 0.89666 0.22431 0.62663
 N2957 N 0.88937 0.20850 0.63390
 C2958 C 0.87386 0.20027 0.62602
 N2959 N 0.86598 0.20852 0.61051
 N2960 N 0.87326 0.22433 0.60323
 C2961 C 0.89652 0.25017 0.60339
 N2962 N 0.88840 0.25855 0.58810
 N2963 N 0.89528 0.27473 0.58123
 C2964 C 0.91053 0.28311 0.58941
 N2965 N 0.91869 0.27470 0.60466
 N2966 N 0.91181 0.25853 0.61152
 C2967 C 0.91788 0.30114 0.58207
 N2968 N 0.93293 0.30968 0.59043
 N2969 N 0.93936 0.32621 0.58399
 C2970 C 0.93101 0.33487 0.56896
 N2971 N 0.91599 0.32623 0.56059
 N2972 N 0.90954 0.30970 0.56702
 C2973 C 0.39035 0.73155 0.60963
 N2974 N 0.37498 0.72327 0.60160
 N2975 N 0.36784 0.70734 0.60874
 C2976 C 0.37577 0.69905 0.62421
 N2977 N 0.39120 0.70736 0.63217
 N2978 N 0.39835 0.72329 0.62502
 C2979 C 0.39797 0.74933 0.60199
 N2980 N 0.41315 0.75779 0.61023
 N2981 N 0.41984 0.77411 0.60353
 C2982 C 0.41160 0.78257 0.58835
 N2983 N 0.39646 0.77409 0.58008
 N2984 N 0.38976 0.75777 0.58678
 C2985 C 0.41873 0.80076 0.58121
 N2986 N 0.41029 0.80937 0.56624
 N2987 N 0.41654 0.82603 0.55998
 C2988 C 0.43146 0.83477 0.56844
 N2989 N 0.43990 0.82606 0.58340
 N2990 N 0.43367 0.80939 0.58966
 C2991 C 0.39003 0.23171 1.11046
 N2992 N 0.37465 0.22344 1.10244
 N2993 N 0.36747 0.20754 1.10964
 C2994 C 0.37538 0.19929 1.12514
 N2995 N 0.39082 0.20759 1.13308
 N2996 N 0.39800 0.22349 1.12589
 C2997 C 0.39770 0.24945 1.10276
 N2998 N 0.41289 0.25790 1.11097
 N2999 N 0.41962 0.27418 1.10421
 C3000 C 0.41141 0.28261 1.08900
 N3001 N 0.39625 0.27413 1.08076
 N3002 N 0.38952 0.25785 1.08752
 C3003 C 0.41858 0.30075 1.08180
 N3004 N 0.41017 0.30933 1.06680
 N3005 N 0.41645 0.32597 1.06050
 C3006 C 0.43139 0.33470 1.06894
 N3007 N 0.43981 0.32602 1.08392
 N3008 N 0.43353 0.30938 1.09023
 C3009 C 1.11037 1.11048 0.73167
 N3010 N 1.10238 1.12588 0.72343
 N3011 N 1.10956 1.13307 0.70752
 C3012 C 1.12504 1.12518 0.69919
 N3013 N 1.13294 1.10969 0.70750
 N3014 N 1.12577 1.10249 0.72340
 C3015 C 1.10270 1.10278 0.74941
 N3016 N 1.11090 1.08755 0.75782
 N3017 N 1.10416 1.08078 0.77410
 C3018 C 1.08896 1.08898 0.78255
 N3019 N 1.08072 1.10417 0.77411
 N3020 N 1.08747 1.11094 0.75784
 C3021 C 1.08176 1.08176 0.80069
 N3022 N 1.06675 1.09014 0.80928
 N3023 N 1.06043 1.08381 0.82590
 C3024 C 1.06886 1.06885 0.83460
 N3025 N 1.08385 1.06045 0.82591
 N3026 N 1.09018 1.06678 0.80929
 C3027 C 1.11089 0.61157 0.23213
 N3028 N 1.10294 0.62704 0.22398
 N3029 N 1.11015 0.63432 0.20813
 C3030 C 1.12563 0.62646 0.19976
 N3031 N 1.13348 0.61090 0.20798
 N3032 N 1.12628 0.60361 0.22383
 C3033 C 1.10318 0.60374 0.24980
 N3034 N 1.11135 0.58845 0.25811
 N3035 N 1.10457 0.58155 0.27432
 C3036 C 1.08936 0.58970 0.28281
 N3037 N 1.08116 0.60496 0.27448
 N3038 N 1.08794 0.61186 0.25827
 C3039 C 1.08211 0.58234 0.30088
 N3040 N 1.06709 0.59066 0.30950
 N3041 N 1.06073 0.58420 0.32605
 C3042 C 1.06914 0.56917 0.33466
 N3043 N 1.08414 0.56084 0.32595
 N3044 N 1.09051 0.56728 0.30939
 C3045 C 0.60996 1.11067 0.23162
 N3046 N 0.62536 1.10269 0.22335
 N3047 N 0.63255 1.10992 0.20747
 C3048 C 0.62466 1.12542 0.19923
 N3049 N 0.60920 1.13333 0.20753
 N3050 N 0.60199 1.12611 0.22341
 C3051 C 0.60227 1.10295 0.24934
 N3052 N 0.58705 1.11113 0.25779
 N3053 N 0.58030 1.10434 0.27406
 C3054 C 0.58851 1.08912 0.28247
 N3055 N 0.60369 1.08091 0.27399
 N3056 N 0.61045 1.08770 0.25773
 C3057 C 0.58132 1.08189 0.30060
 N3058 N 0.58973 1.06688 0.30917
 N3059 N 0.58343 1.06055 0.32579
 C3060 C 0.56847 1.06897 0.33452
 N3061 N 0.56005 1.08395 0.32585
 N3062 N 0.56634 1.09029 0.30923
 C3063 C 0.60982 0.61001 0.73162
 N3064 N 0.62521 0.60199 0.72336
 N3065 N 0.63238 0.60916 0.70744
 C3066 C 0.62446 0.62461 0.69914
 N3067 N 0.60900 0.63255 0.70742
 N3068 N 0.60182 0.62540 0.72334
 C3069 C 0.60215 0.60236 0.74938
 N3070 N 0.58694 0.61057 0.75781
 N3071 N 0.58021 0.60386 0.77411
 C3072 C 0.58843 0.58868 0.78258
 N3073 N 0.60360 0.58043 0.77413
 N3074 N 0.61034 0.58715 0.75782
 C3075 C 0.58125 0.58152 0.80075
 N3076 N 0.58967 0.56654 0.80937
 N3077 N 0.58337 0.56027 0.82601
 C3078 C 0.56842 0.56872 0.83472
 N3079 N 0.56000 0.58368 0.82601
 N3080 N 0.56628 0.58996 0.80936
 C3081 C 0.89022 0.89037 0.73149
 N3082 N 0.89822 0.87497 0.72323
 N3083 N 0.89106 0.86781 0.70731
 C3084 C 0.87560 0.87574 0.69901
 N3085 N 0.86767 0.89120 0.70730
 N3086 N 0.87482 0.89837 0.72322
 C3087 C 0.89787 0.89802 0.74925
 N3088 N 0.88966 0.91323 0.75768
 N3089 N 0.89638 0.91996 0.77398
 C3090 C 0.91155 0.91172 0.78245
 N3091 N 0.91979 0.89654 0.77399
 N3092 N 0.91307 0.88982 0.75769
 C3093 C 0.91870 0.91888 0.80062
 N3094 N 0.93367 0.91045 0.80924
 N3095 N 0.93994 0.91673 0.82589
 C3096 C 0.93150 0.93168 0.83460
 N3097 N 0.91655 0.94012 0.82589
 N3098 N 0.91027 0.93385 0.80923
 C3099 C 0.88999 0.38953 0.23172
 N3100 N 0.89796 0.37410 0.22351
 N3101 N 0.89075 0.36687 0.20763
 C3102 C 0.87529 0.37479 0.19934
 N3103 N 0.86739 0.39029 0.20758
 N3104 N 0.87459 0.39752 0.22345
 C3105 C 0.89769 0.39727 0.24943
 N3106 N 0.88951 0.41252 0.25781
 N3107 N 0.89627 0.41931 0.27407
 C3108 C 0.91145 0.41111 0.28254
 N3109 N 0.91967 0.39589 0.27413
 N3110 N 0.91291 0.38910 0.25787
 C3111 C 0.91866 0.41835 0.30066
 N3112 N 0.93364 0.40997 0.30928
 N3113 N 0.93995 0.41632 0.32589
 C3114 C 0.93152 0.43130 0.33456
 N3115 N 0.91656 0.43970 0.32584
 N3116 N 0.91024 0.43336 0.30923
 C3117 C 0.38989 0.88961 0.23170
 N3118 N 0.37451 0.89759 0.22339
 N3119 N 0.36734 0.89034 0.20752
 C3120 C 0.37525 0.87483 0.19931
 N3121 N 0.39070 0.86692 0.20765
 N3122 N 0.39788 0.87416 0.22353
 C3123 C 0.39755 0.89737 0.24942
 N3124 N 0.41276 0.88922 0.25790
 N3125 N 0.41949 0.89605 0.27416
 C3126 C 0.41124 0.91126 0.28254
 N3127 N 0.39606 0.91945 0.27403
 N3128 N 0.38934 0.91263 0.25777
 C3129 C 0.41841 0.91853 0.30066
 N3130 N 0.40997 0.93353 0.30922
 N3131 N 0.41625 0.93989 0.32584
 C3132 C 0.43122 0.93151 0.33457
 N3133 N 0.43968 0.91653 0.32591
 N3134 N 0.43340 0.91017 0.30930
 C3135 C 0.38883 0.38838 0.73254
 N3136 N 0.37342 0.39634 0.72426
 N3137 N 0.36621 0.38906 0.70842
 C3138 C 0.37407 0.37352 0.70017
 N3139 N 0.38956 0.36565 0.70852
 N3140 N 0.39678 0.37292 0.72436
 C3141 C 0.39657 0.39620 0.75020
 N3142 N 0.41183 0.38808 0.75863
 N3143 N 0.41865 0.39498 0.77482
 C3144 C 0.41046 0.41025 0.78317
 N3145 N 0.39523 0.41839 0.77471
 N3146 N 0.38841 0.41149 0.75852
 C3147 C 0.41775 0.41762 0.80121
 N3148 N 0.40938 0.43268 0.80973
 N3149 N 0.41579 0.43915 0.82626
 C3150 C 0.43082 0.43083 0.83494
 N3151 N 0.43920 0.41579 0.82633
 N3152 N 0.43280 0.40931 0.80980
 C3153 C 1.11089 0.88872 1.26791
 N3154 N 1.10295 0.87325 1.27609
 N3155 N 1.11019 0.86598 1.29192
 C3156 C 1.12567 0.87385 1.30026
 N3157 N 1.13351 0.88941 1.29203
 N3158 N 1.12629 0.89669 1.27619
 C3159 C 1.10314 0.89654 1.25025
 N3160 N 1.11129 0.91184 1.24192
 N3161 N 1.10447 0.91872 1.22573
 C3162 C 1.08926 0.91056 1.21726
 N3163 N 1.08108 0.89530 1.22562
 N3164 N 1.08790 0.88841 1.24181
 C3165 C 1.08198 0.91792 1.19921
 N3166 N 1.06696 0.90959 1.19061
 N3167 N 1.06057 0.91605 1.17406
 C3168 C 1.06895 0.93108 1.16545
 N3169 N 1.08396 0.93943 1.17414
 N3170 N 1.09035 0.93298 1.19069
 C3171 C 1.11018 0.38942 0.76815
 N3172 N 1.10219 0.37399 0.77635
 N3173 N 1.10937 0.36677 0.79224
 C3174 C 1.12481 0.37468 0.80057
 N3175 N 1.13273 0.39017 0.79234
 N3176 N 1.12556 0.39740 0.77645
 C3177 C 1.10251 0.39716 0.75042
 N3178 N 1.11071 0.41240 0.74205
 N3179 N 1.10398 0.41921 0.72578
 C3180 C 1.08880 0.41102 0.71729
 N3181 N 1.08056 0.39580 0.72569
 N3182 N 1.08730 0.38900 0.74196
 C3183 C 1.08161 0.41827 0.69917
 N3184 N 1.06662 0.40990 0.69054
 N3185 N 1.06032 0.41626 0.67393
 C3186 C 1.06875 0.43124 0.66527
 N3187 N 1.08373 0.43963 0.67398
 N3188 N 1.09003 0.43327 0.69060
 C3189 C 0.60987 0.89030 0.76839
 N3190 N 0.62527 0.89829 0.77665
 N3191 N 0.63243 0.89112 0.79257
 C3192 C 0.62449 0.87566 0.80087
 N3193 N 0.60903 0.86774 0.79258
 N3194 N 0.60187 0.87491 0.77666
 C3195 C 0.60222 0.89796 0.75063
 N3196 N 0.58701 0.88976 0.74220
 N3197 N 0.58029 0.89649 0.72589
 C3198 C 0.58853 0.91166 0.71743
 N3199 N 0.60371 0.91989 0.72589
 N3200 N 0.61043 0.91316 0.74219
 C3201 C 0.58137 0.91883 0.69926
 N3202 N 0.58980 0.93379 0.69064
 N3203 N 0.58352 0.94007 0.67399
 C3204 C 0.56856 0.93164 0.66528
 N3205 N 0.56012 0.91670 0.67400
 N3206 N 0.56639 0.91041 0.69065
 C3207 C 0.61034 0.38987 1.26855
 N3208 N 0.60236 0.37447 1.27682
 N3209 N 0.60957 0.36727 1.29270
 C3210 C 0.62508 0.37514 1.30099
 N3211 N 0.63296 0.39063 1.29267
 N3212 N 0.62576 0.39784 1.27679
 C3213 C 0.60262 0.39757 1.25083
 N3214 N 0.61080 0.41279 1.24240
 N3215 N 0.60402 0.41955 1.22614
 C3216 C 0.58882 0.41134 1.21771
 N3217 N 0.58060 0.39615 1.22617
 N3218 N 0.58738 0.38939 1.24244
 C3219 C 0.58159 0.41855 1.19958
 N3220 N 0.56658 0.41015 1.19100
 N3221 N 0.56025 0.41647 1.17439
 C3222 C 0.56866 0.43144 1.16568
 N3223 N 0.58364 0.43985 1.17435
 N3224 N 0.58998 0.43354 1.19097
 C3225 C 0.88964 1.11059 1.26838
 N3226 N 0.87422 1.10261 1.27662
 N3227 N 0.86702 1.10981 1.29251
 C3228 C 0.87491 1.12530 1.30083
 N3229 N 0.89042 1.13317 1.29253
 N3230 N 0.89762 1.12598 1.27664
 C3231 C 0.89735 1.10289 1.25066
 N3232 N 0.91259 1.11107 1.24225
 N3233 N 0.91936 1.10430 1.22599
 C3234 C 0.91115 1.08911 1.21753
 N3235 N 0.89594 1.08090 1.22597
 N3236 N 0.88916 1.08767 1.24223
 C3237 C 0.91838 1.08189 1.19941
 N3238 N 0.90998 1.06691 1.19080
 N3239 N 0.91632 1.06059 1.17419
 C3240 C 0.93130 1.06899 1.16551
 N3241 N 0.93972 1.08396 1.17421
 N3242 N 0.93338 1.09029 1.19082
 C3243 C 0.88997 0.61012 0.76829
 N3244 N 0.89797 0.62551 0.77656
 N3245 N 0.89078 0.63269 0.79246
 C3246 C 0.87531 0.62477 0.80074
 N3247 N 0.86739 0.60931 0.79246
 N3248 N 0.87457 0.60212 0.77655
 C3249 C 0.89765 0.60244 0.75055
 N3250 N 0.88946 0.58723 0.74212
 N3251 N 0.89621 0.58049 0.72583
 C3252 C 0.91139 0.58871 0.71738
 N3253 N 0.91962 0.60389 0.72584
 N3254 N 0.91287 0.61063 0.74212
 C3255 C 0.91859 0.58153 0.69923
 N3256 N 0.93357 0.58994 0.69062
 N3257 N 0.93987 0.58364 0.67398
 C3258 C 0.93144 0.56869 0.66528
 N3259 N 0.91648 0.56026 0.67398
 N3260 N 0.91017 0.56655 0.69062
 C3261 C 0.38985 1.11085 0.76811
 N3262 N 0.37447 1.10287 0.77641
 N3263 N 0.36730 1.11009 0.79230
 C3264 C 0.37521 1.12560 0.80052
 N3265 N 0.39065 1.13352 0.79219
 N3266 N 0.39783 1.12629 0.77630
 C3267 C 0.39752 1.10311 0.75038
 N3268 N 0.41274 1.11128 0.74191
 N3269 N 0.41947 1.10447 0.72565
 C3270 C 0.41124 1.08925 0.71726
 N3271 N 0.39607 1.08105 0.72576
 N3272 N 0.38933 1.08786 0.74202
 C3273 C 0.41843 1.08198 0.69914
 N3274 N 0.41001 1.06698 0.69058
 N3275 N 0.41631 1.06062 0.67397
 C3276 C 0.43128 1.06901 0.66524
 N3277 N 0.43971 1.08399 0.67389
 N3278 N 0.43342 1.09036 0.69050
 C3279 C 0.38916 0.61154 1.26802
 N3280 N 0.39711 0.62702 1.27617
 N3281 N 0.38989 0.63430 1.29201
 C3282 C 0.37442 0.62644 1.30038
 N3283 N 0.36657 0.61088 1.29217
 N3284 N 0.37377 0.60358 1.27633
 C3285 C 0.39687 0.60371 1.25035
 N3286 N 0.38870 0.58842 1.24205
 N3287 N 0.39548 0.58152 1.22584
 C3288 C 0.41069 0.58966 1.21735
 N3289 N 0.41889 0.60493 1.22568
 N3290 N 0.41211 0.61183 1.24188
 C3291 C 0.41793 0.58229 1.19928
 N3292 N 0.43296 0.59061 1.19066
 N3293 N 0.43931 0.58415 1.17411
 C3294 C 0.43091 0.56913 1.16550
 N3295 N 0.41591 0.56079 1.17422
 N3296 N 0.40954 0.56724 1.19078
 C3297 C 1.11058 1.26818 0.88946
 N3298 N 1.12597 1.27644 0.89746
 N3299 N 1.13316 1.29233 0.89026
 C3300 C 1.12528 1.30063 0.87475
 N3301 N 1.10980 1.29231 0.86685
 N3302 N 1.10260 1.27643 0.87404
 C3303 C 1.10288 1.25046 0.89717
 N3304 N 1.08766 1.24204 0.88898
 N3305 N 1.08088 1.22579 0.89576
 C3306 C 1.08909 1.21736 0.91097
 N3307 N 1.10428 1.22580 0.91919
 N3308 N 1.11105 1.24206 0.91241
 C3309 C 1.08185 1.19924 0.91821
 N3310 N 1.09023 1.19066 0.93323
 N3311 N 1.08388 1.17406 0.93957
 C3312 C 1.06891 1.16538 0.93115
 N3313 N 1.06052 1.17406 0.91616
 N3314 N 1.06686 1.19066 0.90981
 C3315 C 1.11104 0.76787 0.38857
 N3316 N 1.12644 0.77614 0.39654
 N3317 N 1.13365 0.79199 0.38928
 C3318 C 1.12578 0.80025 0.37374
 N3319 N 1.11029 0.79191 0.36587
 N3320 N 1.10308 0.77606 0.37312
 C3321 C 1.10331 0.75019 0.39636
 N3322 N 1.08806 0.74177 0.38823
 N3323 N 1.08126 0.72556 0.39510
 C3324 C 1.08945 0.71719 0.41035
 N3325 N 1.10467 0.72564 0.41851
 N3326 N 1.11148 0.74184 0.41165
 C3327 C 1.08217 0.69913 0.41769
 N3328 N 1.09055 0.69060 0.43274
 N3329 N 1.08415 0.67405 0.43918
 C3330 C 1.06914 0.66537 0.43083
 N3331 N 1.06076 0.67401 0.41580
 N3332 N 1.06714 0.69055 0.40935
 C3333 C 0.61002 1.26847 0.38963
 N3334 N 0.62543 1.27673 0.39762
 N3335 N 0.63260 1.29262 0.39042
 C3336 C 0.62467 1.30090 0.37495
 N3337 N 0.60921 1.29262 0.36703
 N3338 N 0.60202 1.27672 0.37422
 C3339 C 0.60235 1.25074 0.39733
 N3340 N 0.58713 1.24231 0.38915
 N3341 N 0.58039 1.22604 0.39592
 C3342 C 0.58863 1.21759 0.41110
 N3343 N 0.60382 1.22604 0.41931
 N3344 N 0.61056 1.24232 0.41255
 C3345 C 0.58144 1.19946 0.41832
 N3346 N 0.58988 1.19085 0.43329
 N3347 N 0.58358 1.17423 0.43961
 C3348 C 0.56860 1.16553 0.43121
 N3349 N 0.56016 1.17423 0.41625
 N3350 N 0.56645 1.19086 0.40993
 C3351 C 0.60982 0.76853 0.89018
 N3352 N 0.62521 0.77678 0.89819
 N3353 N 0.63239 0.79269 0.89102
 C3354 C 0.62447 0.80099 0.87555
 N3355 N 0.60901 0.79271 0.86762
 N3356 N 0.60183 0.77681 0.87478
 C3357 C 0.60214 0.75078 0.89783
 N3358 N 0.58693 0.74237 0.88961
 N3359 N 0.58019 0.72608 0.89634
 C3360 C 0.58841 0.71761 0.91152
 N3361 N 0.60358 0.72605 0.91977
 N3362 N 0.61032 0.74234 0.91305
 C3363 C 0.58122 0.69945 0.91869
 N3364 N 0.58962 0.69084 0.93368
 N3365 N 0.58332 0.67420 0.93996
 C3366 C 0.56838 0.66550 0.93151
 N3367 N 0.55996 0.67421 0.91654
 N3368 N 0.56625 0.69085 0.91026
 C3369 C 0.88946 1.26829 1.11051
 N3370 N 0.89745 1.27656 1.12591
 N3371 N 0.89023 1.29244 1.13309
 C3372 C 0.87472 1.30072 1.12522
 N3373 N 0.86683 1.29239 1.10974
 N3374 N 0.87404 1.27651 1.10254
 C3375 C 0.89719 1.25057 1.10282
 N3376 N 0.88903 1.24214 1.08758
 N3377 N 0.89583 1.22589 1.08082
 C3378 C 0.91104 1.21748 1.08903
 N3379 N 0.91924 1.22594 1.10423
 N3380 N 0.91244 1.24219 1.11100
 C3381 C 0.91830 1.19937 1.08181
 N3382 N 0.93331 1.19080 1.09022
 N3383 N 0.93967 1.17421 1.08388
 C3384 C 0.93129 1.16551 1.06888
 N3385 N 0.91630 1.17418 1.06046
 N3386 N 0.90993 1.19078 1.06679
 C3387 C 0.89022 0.76855 0.60977
 N3388 N 0.87483 0.77682 0.60175
 N3389 N 0.86767 0.79274 0.60891
 C3390 C 0.87560 0.80103 0.62437
 N3391 N 0.89105 0.79274 0.63231
 N3392 N 0.89822 0.77682 0.62516
 C3393 C 0.89787 0.75079 0.60212
 N3394 N 0.91307 0.74235 0.61034
 N3395 N 0.91979 0.72605 0.60362
 C3396 C 0.91155 0.71759 0.58845
 N3397 N 0.89638 0.72605 0.58020
 N3398 N 0.88966 0.74235 0.58691
 C3399 C 0.91871 0.69942 0.58129
 N3400 N 0.91029 0.69081 0.56632
 N3401 N 0.91657 0.67416 0.56005
 C3402 C 0.93152 0.66545 0.56849
 N3403 N 0.93995 0.67416 0.58345
 N3404 N 0.93368 0.69081 0.58972
 C3405 C 0.38889 1.26772 0.61166
 N3406 N 0.39683 1.27587 0.62714
 N3407 N 0.38960 1.29170 0.63443
 C3408 C 0.37411 1.30005 0.62657
 N3409 N 0.36627 1.29183 0.61101
 N3410 N 0.37349 1.27600 0.60371
 C3411 C 0.39664 1.25007 0.60382
 N3412 N 0.38848 1.24176 0.58852
 N3413 N 0.39530 1.22558 0.58160
 C3414 C 0.41053 1.21712 0.58974
 N3415 N 0.41872 1.22545 0.60501
 N3416 N 0.41190 1.24163 0.61193
 C3417 C 0.41782 1.19909 0.58234
 N3418 N 0.43287 1.19050 0.59064
 N3419 N 0.43927 1.17398 0.58415
 C3420 C 0.43088 1.16538 0.56911
 N3421 N 0.41585 1.17406 0.56080
 N3422 N 0.40944 1.19059 0.56728
 C3423 C 0.38932 0.76817 1.11059
 N3424 N 0.39732 0.77643 1.12599
 N3425 N 0.39014 0.79234 1.13316
 C3426 C 0.37466 0.80066 1.12527
 N3427 N 0.36675 0.79233 1.10979
 N3428 N 0.37392 0.77643 1.10260
 C3429 C 0.39701 0.75044 1.10290
 N3430 N 0.38882 0.74202 1.08768
 N3431 N 0.39558 0.72575 1.08091
 C3432 C 0.41079 0.71731 1.08912
 N3433 N 0.41901 0.72576 1.10431
 N3434 N 0.41224 0.74203 1.11108
 C3435 C 0.41801 0.69919 1.08190
 N3436 N 0.43302 0.69061 1.09029
 N3437 N 0.43936 0.67401 1.08395
 C3438 C 0.43095 0.66532 1.06897
 N3439 N 0.41596 0.67399 1.06057
 N3440 N 0.40961 0.69060 1.06690
 C3441 C 0.88989 0.73193 0.89002
 N3442 N 0.89791 0.72366 0.87463
 N3443 N 0.89073 0.70775 0.86746
 C3444 C 0.87526 0.69948 0.87539
 N3445 N 0.86732 0.70778 0.89084
 N3446 N 0.87449 0.72369 0.89801
 C3447 C 0.89756 0.74968 0.89768
 N3448 N 0.88936 0.75812 0.91289
 N3449 N 0.89610 0.77441 0.91962
 C3450 C 0.91129 0.78285 0.91139
 N3451 N 0.91953 0.77438 0.89622
 N3452 N 0.91279 0.75809 0.88948
 C3453 C 0.91848 0.80099 0.91857
 N3454 N 0.93347 0.80958 0.91015
 N3455 N 0.93977 0.82621 0.91645
 C3456 C 0.93134 0.83493 0.93140
 N3457 N 0.91636 0.82625 0.93983
 N3458 N 0.91006 0.80962 0.93354
 C3459 C 0.89004 0.23187 0.38956
 N3460 N 0.87464 0.22360 0.39755
 N3461 N 0.86746 0.20772 0.39034
 C3462 C 0.87537 0.19946 0.37485
 N3463 N 0.89084 0.20775 0.36693
 N3464 N 0.89803 0.22363 0.37413
 C3465 C 0.89772 0.24959 0.39726
 N3466 N 0.91294 0.25802 0.38908
 N3467 N 0.91969 0.27428 0.39586
 C3468 C 0.91146 0.28271 0.41106
 N3469 N 0.89628 0.27425 0.41928
 N3470 N 0.88953 0.25799 0.41250
 C3471 C 0.91866 0.30084 0.41828
 N3472 N 0.91023 0.30942 0.43328
 N3473 N 0.91654 0.32604 0.43960
 C3474 C 0.93151 0.33474 0.43120
 N3475 N 0.93994 0.32606 0.41622
 N3476 N 0.93364 0.30945 0.40989
 C3477 C 0.38907 0.73248 0.38861
 N3478 N 0.37368 0.72420 0.39659
 N3479 N 0.36648 0.70834 0.38935
 C3480 C 0.37435 0.70008 0.37381
 N3481 N 0.38982 0.70842 0.36592
 N3482 N 0.39703 0.72428 0.37316
 C3483 C 0.39679 0.75016 0.39639
 N3484 N 0.41204 0.75859 0.38825
 N3485 N 0.41883 0.77480 0.39510
 C3486 C 0.41064 0.78317 0.41036
 N3487 N 0.39543 0.77472 0.41853
 N3488 N 0.38863 0.75851 0.41168
 C3489 C 0.41791 0.80123 0.41769
 N3490 N 0.40953 0.80977 0.43274
 N3491 N 0.41592 0.82631 0.43917
 C3492 C 0.43093 0.83500 0.43082
 N3493 N 0.43931 0.82637 0.41578
 N3494 N 0.43294 0.80983 0.40935
 C3495 C 0.38940 0.23202 0.88949
 N3496 N 0.37399 0.22376 0.89747
 N3497 N 0.36681 0.20789 0.89025
 C3498 C 0.37469 0.19960 0.87474
 N3499 N 0.39018 0.20792 0.86686
 N3500 N 0.39738 0.22379 0.87407
 C3501 C 0.39710 0.24973 0.89722
 N3502 N 0.41234 0.25815 0.88906
 N3503 N 0.41912 0.27439 0.89586
 C3504 C 0.41091 0.28280 0.91108
 N3505 N 0.39570 0.27436 0.91928
 N3506 N 0.38892 0.25812 0.91247
 C3507 C 0.41815 0.30090 0.91834
 N3508 N 0.40976 0.30947 0.93336
 N3509 N 0.41611 0.32606 0.93973
 C3510 C 0.43111 0.33474 0.93133
 N3511 N 0.43951 0.32607 0.91633
 N3512 N 0.43316 0.30949 0.90996
 C3513 C 1.11093 0.73247 1.11149
 N3514 N 1.12632 0.72419 1.10351
 N3515 N 1.13353 0.70834 1.11076
 C3516 C 1.12567 0.70008 1.12630
 N3517 N 1.11020 0.70842 1.13419
 N3518 N 1.10297 0.72428 1.12695
 C3519 C 1.10319 0.75015 1.10370
 N3520 N 1.08795 0.75858 1.11185
 N3521 N 1.08114 0.77478 1.10498
 C3522 C 1.08932 0.78315 1.08972
 N3523 N 1.10453 0.77469 1.08154
 N3524 N 1.11134 0.75849 1.08840
 C3525 C 1.08203 0.80120 1.08237
 N3526 N 1.09039 0.80973 1.06731
 N3527 N 1.08399 0.82627 1.06087
 C3528 C 1.06899 0.83496 1.06923
 N3529 N 1.06062 0.82634 1.08428
 N3530 N 1.06701 0.80980 1.09072
 C3531 C 1.10993 0.23177 0.61038
 N3532 N 1.12530 0.22346 0.60239
 N3533 N 1.13245 0.20757 0.60962
 C3534 C 1.12453 0.19934 0.62512
 N3535 N 1.10909 0.20768 0.63304
 N3536 N 1.10193 0.22357 0.62582
 C3537 C 1.10229 0.24951 0.60265
 N3538 N 1.08708 0.25798 0.61082
 N3539 N 1.08037 0.27426 0.60402
 C3540 C 1.08863 0.28265 0.58881
 N3541 N 1.10380 0.27415 0.58061
 N3542 N 1.11051 0.25787 0.58741
 C3543 C 1.08148 0.30079 0.58156
 N3544 N 1.08994 0.30936 0.56657
 N3545 N 1.08367 0.32599 0.56024
 C3546 C 1.06870 0.33472 0.56863
 N3547 N 1.06024 0.32606 0.58359
 N3548 N 1.06650 0.30943 0.58994
 C3549 C 0.60986 0.73173 0.60980
 N3550 N 0.62525 0.72347 0.60179
 N3551 N 0.63241 0.70755 0.60896
 C3552 C 0.62447 0.69926 0.62442
 N3553 N 0.60902 0.70756 0.63236
 N3554 N 0.60185 0.72347 0.62520
 C3555 C 0.60221 0.74950 0.60214
 N3556 N 0.58700 0.75793 0.61035
 N3557 N 0.58028 0.77423 0.60363
 C3558 C 0.58852 0.78269 0.58845
 N3559 N 0.60369 0.77423 0.58021
 N3560 N 0.61041 0.75793 0.58693
 C3561 C 0.58136 0.80086 0.58129
 N3562 N 0.58979 0.80947 0.56631
 N3563 N 0.58351 0.82612 0.56004
 C3564 C 0.56856 0.83483 0.56849
 N3565 N 0.56012 0.82612 0.58344
 N3566 N 0.56639 0.80947 0.58972
 C3567 C 0.61049 0.23200 1.11050
 N3568 N 0.62591 0.22378 1.10251
 N3569 N 0.63311 0.20788 1.10968
 C3570 C 0.62522 0.19953 1.12516
 N3571 N 0.60971 0.20782 1.13305
 N3572 N 0.60250 0.22371 1.12588
 C3573 C 0.60277 0.24973 1.10283
 N3574 N 0.58753 0.25811 1.11103
 N3575 N 0.58074 0.27437 1.10428
 C3576 C 0.58894 0.28285 1.08909
 N3577 N 0.60415 0.27444 1.08086
 N3578 N 0.61094 0.25817 1.08760
 C3579 C 0.58169 0.30097 1.08189
 N3580 N 0.59006 0.30958 1.06689
 N3581 N 0.58371 0.32618 1.06058
 C3582 C 0.56873 0.33485 1.06901
 N3583 N 0.56034 0.32614 1.08400
 N3584 N 0.56669 0.30954 1.09032
 C3585 C 1.26821 1.11076 0.88990
 N3586 N 1.27640 1.12620 0.89789
 N3587 N 1.29228 1.13343 0.89069
 C3588 C 1.30059 1.12553 0.87523
 N3589 N 1.29237 1.11003 0.86731
 N3590 N 1.27650 1.10279 0.87450
 C3591 C 1.25050 1.10301 0.89758
 N3592 N 1.24215 1.08776 0.88938
 N3593 N 1.22589 1.08094 0.89613
 C3594 C 1.21741 1.08913 0.91132
 N3595 N 1.22580 1.10434 0.91956
 N3596 N 1.24205 1.11116 0.91281
 C3597 C 1.19930 1.08186 0.91852
 N3598 N 1.19067 1.09023 0.93351
 N3599 N 1.17407 1.08386 0.93981
 C3600 C 1.16541 1.06888 0.93137
 N3601 N 1.17414 1.06050 0.91640
 N3602 N 1.19074 1.06686 0.91009
 C3603 C 1.26800 0.61114 0.38920
 N3604 N 1.27619 0.62660 0.39715
 N3605 N 1.29202 0.63387 0.38991
 C3606 C 1.30031 0.62597 0.37443
 N3607 N 1.29210 0.61045 0.36655
 N3608 N 1.27627 0.60318 0.37378
 C3609 C 1.25034 0.60336 0.39694
 N3610 N 1.24199 0.58808 0.38879
 N3611 N 1.22578 0.58123 0.39559
 C3612 C 1.21732 0.58941 0.41080
 N3613 N 1.22569 0.60466 0.41899
 N3614 N 1.24190 0.61151 0.41219
 C3615 C 1.19925 0.58210 0.41806
 N3616 N 1.19064 0.59046 0.43308
 N3617 N 1.17408 0.58406 0.43943
 C3618 C 1.16544 0.56904 0.43104
 N3619 N 1.17415 0.56066 0.41605
 N3620 N 1.19072 0.56706 0.40968
 C3621 C 0.76824 1.11022 0.38948
 N3622 N 0.77653 1.12559 0.39750
 N3623 N 0.79242 1.13276 0.39030
 C3624 C 0.80068 1.12486 0.37480
 N3625 N 0.79236 1.10942 0.36686
 N3626 N 0.77647 1.10224 0.37405
 C3627 C 0.75051 1.10255 0.39718
 N3628 N 0.74205 1.08736 0.38897
 N3629 N 0.72577 1.08062 0.39574
 C3630 C 0.71736 1.08883 0.41096
 N3631 N 0.72585 1.10399 0.41920
 N3632 N 0.74212 1.11073 0.41243
 C3633 C 0.69923 1.08165 0.41818
 N3634 N 0.69066 1.09006 0.43320
 N3635 N 0.67404 1.08376 0.43953
 C3636 C 0.66531 1.06882 0.43109
 N3637 N 0.67397 1.06041 0.41610
 N3638 N 0.69059 1.06670 0.40976
 C3639 C 0.76813 0.61020 0.89003
 N3640 N 0.77640 0.60219 0.87464
 N3641 N 0.79231 0.60936 0.86747
 C3642 C 0.80059 0.62483 0.87539
 N3643 N 0.79229 0.63276 0.89085
 N3644 N 0.77638 0.62560 0.89802
 C3645 C 0.75038 0.60254 0.89770
 N3646 N 0.74194 0.61074 0.91291
 N3647 N 0.72566 0.60400 0.91965
 C3648 C 0.71721 0.58882 0.91143
 N3649 N 0.72567 0.58058 0.89625
 N3650 N 0.74196 0.58731 0.88951
 C3651 C 0.69906 0.58163 0.91861
 N3652 N 0.69047 0.56665 0.91020
 N3653 N 0.67384 0.56036 0.91651
 C3654 C 0.66513 0.56879 0.93147
 N3655 N 0.67382 0.58376 0.93989
 N3656 N 0.69045 0.59006 0.93359
 C3657 C 1.26820 0.88957 1.11004
 N3658 N 1.27652 0.89755 1.12542
 N3659 N 1.29239 0.89031 1.13259
 C3660 C 1.30060 0.87480 1.12468
 N3661 N 1.29226 0.86688 1.10924
 N3662 N 1.27638 0.87411 1.10206
 C3663 C 1.25048 0.89731 1.10239
 N3664 N 1.24200 0.88915 1.08718
 N3665 N 1.22574 0.89596 1.08047
 C3666 C 1.21736 0.91118 1.08871
 N3667 N 1.22587 0.91938 1.10388
 N3668 N 1.24213 0.91257 1.11060
 C3669 C 1.19923 0.91844 1.08155
 N3670 N 1.19068 0.93343 1.08999
 N3671 N 1.17405 0.93978 1.08371
 C3672 C 1.16532 0.93139 1.06875
 N3673 N 1.17397 0.91641 1.06030
 N3674 N 1.19059 0.91006 1.06657
 C3675 C 1.26773 0.38892 0.61121
 N3676 N 1.27597 0.37349 0.60325
 N3677 N 1.29178 0.36622 0.61053
 C3678 C 1.30001 0.37409 0.62606
 N3679 N 1.29175 0.38959 0.63395
 N3680 N 1.27593 0.39686 0.62668
 C3681 C 1.25009 0.39671 0.60341
 N3682 N 1.24170 0.41198 0.61155
 N3683 N 1.22551 0.41883 0.60468
 C3684 C 1.21713 0.41067 0.58942
 N3685 N 1.22556 0.39544 0.58124
 N3686 N 1.24174 0.38858 0.58811
 C3687 C 1.19909 0.41798 0.58208
 N3688 N 1.19056 0.40964 0.56702
 N3689 N 1.17402 0.41605 0.56059
 C3690 C 1.16535 0.43106 0.56896
 N3691 N 1.17398 0.43942 0.58400
 N3692 N 1.19052 0.43302 0.59044
 C3693 C 0.76847 0.89033 0.60970
 N3694 N 0.77674 0.89834 0.62509
 N3695 N 0.79265 0.89117 0.63226
 C3696 C 0.80094 0.87571 0.62433
 N3697 N 0.79264 0.86777 0.60888
 N3698 N 0.77673 0.87493 0.60171
 C3699 C 0.75071 0.89798 0.60205
 N3700 N 0.74227 0.88977 0.58685
 N3701 N 0.72597 0.89649 0.58013
 C3702 C 0.71751 0.91167 0.58836
 N3703 N 0.72598 0.91991 0.60353
 N3704 N 0.74228 0.91319 0.61025
 C3705 C 0.69935 0.91883 0.58120
 N3706 N 0.69074 0.93381 0.58962
 N3707 N 0.67409 0.94008 0.58335
 C3708 C 0.66538 0.93163 0.56841
 N3709 N 0.67408 0.91667 0.55997
 N3710 N 0.69073 0.91039 0.56624
 C3711 C 0.76807 0.38946 1.11022
 N3712 N 0.77639 0.39744 1.12560
 N3713 N 0.79228 0.39021 1.13275
 C3714 C 0.80050 0.37472 1.12482
 N3715 N 0.79216 0.36681 1.10938
 N3716 N 0.77627 0.37403 1.10222
 C3717 C 0.75034 0.39720 1.10258
 N3718 N 0.74187 0.38905 1.08736
 N3719 N 0.72560 0.39586 1.08064
 C3720 C 0.71722 0.41107 1.08890
 N3721 N 0.72572 0.41925 1.10408
 N3722 N 0.74198 0.41244 1.11080
 C3723 C 0.69909 0.41834 1.08173
 N3724 N 0.69054 0.43334 1.09017
 N3725 N 0.67392 0.43970 1.08388
 C3726 C 0.66520 0.43132 1.06890
 N3727 N 0.67385 0.41635 1.06045
 N3728 N 0.69046 0.40998 1.06673
 C3729 C 0.73186 1.11083 1.11005
 N3730 N 0.72355 1.10283 1.12543
 N3731 N 0.70766 1.11004 1.13258
 C3732 C 0.69943 1.12554 1.12467
 N3733 N 0.70777 1.13348 1.10924
 N3734 N 0.72366 1.12627 1.10207
 C3735 C 0.74960 1.10311 1.10240
 N3736 N 0.75808 1.11129 1.08720
 N3737 N 0.77435 1.10450 1.08047
 C3738 C 0.78274 1.08928 1.08871
 N3739 N 0.77423 1.08107 1.10388
 N3740 N 0.75796 1.08786 1.11060
 C3741 C 0.80087 1.08203 1.08154
 N3742 N 0.80942 1.06703 1.08997
 N3743 N 0.82604 1.06068 1.08368
 C3744 C 0.83478 1.06908 1.06872
 N3745 N 0.82613 1.08406 1.06028
 N3746 N 0.80951 1.09042 1.06656
 C3747 C 0.73162 0.60998 0.60982
 N3748 N 0.72336 0.60198 0.62522
 N3749 N 0.70744 0.60914 0.63238
 C3750 C 0.69915 0.62460 0.62445
 N3751 N 0.70744 0.63253 0.60899
 N3752 N 0.72335 0.62538 0.60182
 C3753 C 0.74938 0.60233 0.60216
 N3754 N 0.75781 0.61054 0.58695
 N3755 N 0.77411 0.60382 0.58022
 C3756 C 0.78257 0.58865 0.58846
 N3757 N 0.77411 0.58040 0.60364
 N3758 N 0.75781 0.58712 0.61037
 C3759 C 0.80074 0.58148 0.58129
 N3760 N 0.80935 0.56651 0.58971
 N3761 N 0.82599 0.56023 0.58343
 C3762 C 0.83470 0.56868 0.56848
 N3763 N 0.82600 0.58363 0.56004
 N3764 N 0.80935 0.58991 0.56632
 C3765 C 0.23155 1.11003 0.61035
 N3766 N 0.22325 1.12541 0.60235
 N3767 N 0.20736 1.13258 0.60958
 C3768 C 0.19914 1.12467 0.62508
 N3769 N 0.20746 1.10922 0.63301
 N3770 N 0.22335 1.10205 0.62579
 C3771 C 0.24928 1.10238 0.60262
 N3772 N 0.25775 1.08718 0.61081
 N3773 N 0.27403 1.08046 0.60402
 C3774 C 0.28242 1.08870 0.58880
 N3775 N 0.27392 1.10386 0.58059
 N3776 N 0.25765 1.11058 0.58737
 C3777 C 0.30056 1.08154 0.58157
 N3778 N 0.30913 1.08998 0.56657
 N3779 N 0.32576 1.08371 0.56024
 C3780 C 0.33450 1.06876 0.56866
 N3781 N 0.32584 1.06031 0.58363
 N3782 N 0.30921 1.06657 0.58997
 C3783 C 0.23202 0.61110 1.11093
 N3784 N 0.22377 0.60315 1.12637
 N3785 N 0.20794 0.61043 1.13360
 C3786 C 0.19972 0.62595 1.12571
 N3787 N 0.20800 0.63382 1.11021
 N3788 N 0.22383 0.62655 1.10297
 C3789 C 0.24968 0.60330 1.10319
 N3790 N 0.25810 0.61142 1.08792
 N3791 N 0.27431 0.60455 1.08111
 C3792 C 0.28269 0.58932 1.08932
 N3793 N 0.27424 0.58116 1.10456
 N3794 N 0.25804 0.58803 1.11136
 C3795 C 0.30075 0.58200 1.08206
 N3796 N 0.30931 0.56697 1.09046
 N3797 N 0.32587 0.56057 1.08409
 C3798 C 0.33455 0.56892 1.06907
 N3799 N 0.32590 0.58392 1.06066
 N3800 N 0.30934 0.59033 1.06702
 C3801 C 0.73162 0.89027 0.89015
 N3802 N 0.72335 0.89827 0.87476
 N3803 N 0.70744 0.89109 0.86760
 C3804 C 0.69916 0.87564 0.87554
 N3805 N 0.70746 0.86771 0.89100
 N3806 N 0.72337 0.87488 0.89816
 C3807 C 0.74938 0.89794 0.89780
 N3808 N 0.75782 0.88975 0.91301
 N3809 N 0.77411 0.89649 0.91973
 C3810 C 0.78256 0.91167 0.91148
 N3811 N 0.77408 0.91989 0.89630
 N3812 N 0.75779 0.91315 0.88958
 C3813 C 0.80071 0.91886 0.91864
 N3814 N 0.80931 0.93383 0.91020
 N3815 N 0.82595 0.94012 0.91648
 C3816 C 0.83466 0.93170 0.93144
 N3817 N 0.82597 0.91675 0.93989
 N3818 N 0.80933 0.91045 0.93362
 C3819 C 0.73182 0.39012 0.38956
 N3820 N 0.72358 0.39811 0.37414
 N3821 N 0.70768 0.39095 0.36696
 C3822 C 0.69937 0.37550 0.37489
 N3823 N 0.70763 0.36758 0.39037
 N3824 N 0.72354 0.37473 0.39756
 C3825 C 0.74956 0.39777 0.39725
 N3826 N 0.75796 0.38957 0.41249
 N3827 N 0.77424 0.39629 0.41925
 C3828 C 0.78272 0.41146 0.41102
 N3829 N 0.77429 0.41969 0.39582
 N3830 N 0.75801 0.41297 0.38906
 C3831 C 0.80086 0.41863 0.41824
 N3832 N 0.80949 0.43360 0.40983
 N3833 N 0.82611 0.43988 0.41616
 C3834 C 0.83478 0.43144 0.43114
 N3835 N 0.82606 0.41649 0.43956
 N3836 N 0.80943 0.41020 0.43324
 C3837 C 0.23214 0.88917 0.38904
 N3838 N 0.22389 0.89712 0.37361
 N3839 N 0.20806 0.88986 0.36637
 C3840 C 0.19983 0.87434 0.37426
 N3841 N 0.20811 0.86645 0.38975
 N3842 N 0.22394 0.87371 0.39700
 C3843 C 0.24980 0.89695 0.39680
 N3844 N 0.25820 0.88881 0.41206
 N3845 N 0.27440 0.89566 0.41889
 C3846 C 0.28279 0.91090 0.41070
 N3847 N 0.27435 0.91908 0.39547
 N3848 N 0.25815 0.91223 0.38865
 C3849 C 0.30085 0.91822 0.41799
 N3850 N 0.30939 0.93326 0.40961
 N3851 N 0.32595 0.93966 0.41601
 C3852 C 0.33463 0.93129 0.43101
 N3853 N 0.32598 0.91627 0.43940
 N3854 N 0.30943 0.90986 0.43302
 C3855 C 0.23176 0.38943 0.89001
 N3856 N 0.22356 0.37398 0.89798
 N3857 N 0.20768 0.36677 0.89078
 C3858 C 0.19938 0.37469 0.87532
 N3859 N 0.20761 0.39020 0.86742
 N3860 N 0.22348 0.39742 0.87462
 C3861 C 0.24947 0.39715 0.89770
 N3862 N 0.25784 0.41241 0.88952
 N3863 N 0.27409 0.41921 0.89628
 C3864 C 0.28257 0.41099 0.91146
 N3865 N 0.27418 0.39577 0.91967
 N3866 N 0.25792 0.38898 0.91292
 C3867 C 0.30069 0.41824 0.91866
 N3868 N 0.30932 0.40985 0.93364
 N3869 N 0.32592 0.41621 0.93994
 C3870 C 0.33457 0.43120 0.93152
 N3871 N 0.32585 0.43960 0.91655
 N3872 N 0.30924 0.43325 0.91024
   
