data_POSCAR
  _audit_creation_date              2014-09-24
  _audit_creation_method            'ToBaCCo'
  _symmetry_space_group_name_H-M    'P1'
  _symmetry_Int_Tables_number       1
  _symmetry_cell_setting            triclinic
  loop_
  _symmetry_equiv_pos_as_xyz
 x,y,z
_cell_length_a 35.2955
_cell_length_b 35.5424
_cell_length_c 27.3030
_cell_angle_alpha 90.143100
_cell_angle_beta 89.528300
_cell_angle_gamma 88.724600
loop_
  _atom_site_label
  _atom_site_type_symbol
  _atom_site_fract_x
  _atom_site_fract_y
  _atom_site_fract_z
Zr1 Zr -0.06338 0.00267 0.00052
 O2 O -0.10193 -0.03020 -0.03930
 O3 O -0.10008 0.03491 0.04555
 O4 O -0.09261 -0.03554 0.04592
 O5 O -0.05217 0.06637 -0.09386
 O6 O -0.04512 -0.06300 0.09050
 O7 O -0.09624 0.03565 -0.04812
 O8 O -0.05876 0.07042 0.08852
 O9 O -0.03387 0.00682 0.06671
 O10 O -0.03529 0.05408 -0.00172
 O11 O -0.02613 -0.04445 0.00164
 O12 O -0.02947 0.00048 -0.06376
 Zr13 Zr 0.06916 0.00977 0.00303
 Zr14 Zr 0.00515 -0.03825 0.06590
 Zr15 Zr 0.00033 0.05084 -0.06301
 Zr16 Zr -0.00413 0.05673 0.06211
 O17 O 0.00269 0.04030 -0.13921
 O18 O 0.00064 0.04803 0.13843
 O19 O 0.03238 0.05775 0.00087
 O20 O 0.03505 0.01202 0.06660
 O21 O 0.04156 -0.04168 0.00511
 O22 O 0.03884 0.00556 -0.06239
 C23 C -0.09228 0.05919 0.07867
 C24 C -0.08654 0.05820 -0.08268
 C25 C -0.08002 -0.05964 0.07740
 O26 O 0.00096 -0.03105 0.14270
 O27 O 0.05694 -0.05400 0.09718
 O28 O 0.10162 -0.02495 0.05139
 C29 C 0.09163 -0.04787 0.08571
 O30 O -0.03691 -0.07018 -0.09274
 Zr31 Zr 0.01014 -0.04455 -0.05910
 O32 O 0.10584 -0.02509 -0.03870
 O33 O 0.01413 -0.09722 0.06352
 O34 O 0.01435 -0.10287 -0.04314
 O35 O 0.01452 -0.04036 -0.13642
 O36 O 0.06526 -0.06313 -0.07941
 C37 C 0.09864 -0.05236 -0.06796
 O38 O 0.10805 0.04273 0.04197
 O39 O -0.00631 0.10997 -0.06777
 O40 O 0.09797 0.04714 -0.04383
 O41 O 0.05063 0.07503 -0.08855
 O42 O -0.01583 0.11529 0.06563
 O43 O 0.03905 0.09414 0.08168
 C44 C 0.08569 0.06984 -0.07721
 H45 H -0.05275 0.07619 -0.00343
 H46 H 0.05079 0.01456 0.09621
 H47 H 0.05522 0.00570 -0.09197
 H48 H -0.03994 -0.06835 0.00092
 H49 H -0.00507 0.07280 0.15382
 H50 H 0.00279 -0.05649 0.15738
 H51 H 0.01138 -0.10650 0.09754
 H52 H 0.02350 -0.11592 -0.07324
 H53 H -0.02043 0.12381 0.03173
 H54 H 0.01017 0.12061 -0.04230
 H55 H 0.00229 0.06527 -0.15530
 H56 H 0.02365 -0.06514 -0.14906
 H57 H 0.05806 0.07933 0.10038
 H58 H 0.13373 0.03543 0.02983
 H59 H -0.12789 -0.02251 -0.02848
 H60 H -0.02792 -0.09200 -0.11261
 Zr61 Zr 0.56811 0.51053 0.50409
 O62 O 0.60619 0.54386 0.54381
 O63 O 0.60554 0.47578 0.46320
 O64 O 0.60021 0.47584 0.55286
 O65 O 0.55045 0.57539 0.41178
 O66 O 0.55524 0.44633 0.59768
 O67 O 0.59736 0.54781 0.45754
 O68 O 0.56569 0.43744 0.42176
 O69 O 0.54090 0.45886 0.50555
 O70 O 0.53861 0.50608 0.43809
 O71 O 0.53319 0.51251 0.56700
 O72 O 0.53093 0.55824 0.50143
 Zr73 Zr 0.43581 0.50226 0.49872
 Zr74 Zr 0.50378 0.46198 0.56560
 Zr75 Zr 0.49987 0.55116 0.43670
 Zr76 Zr 0.51029 0.45574 0.44070
 O77 O 0.49276 0.61026 0.43233
 O78 O 0.51458 0.39740 0.45647
 O79 O 0.47052 0.50051 0.43519
 O80 O 0.47335 0.45549 0.50070
 O81 O 0.46425 0.50662 0.56564
 O82 O 0.46338 0.55396 0.49722
 C83 C 0.59884 0.44840 0.43386
 C84 C 0.58543 0.57027 0.42367
 C85 C 0.58998 0.45266 0.58675
 O86 O 0.51271 0.40299 0.56315
 O87 O 0.45349 0.43705 0.58942
 O88 O 0.40629 0.46422 0.54405
 C89 C 0.41875 0.44025 0.57579
 O90 O 0.53572 0.59462 0.58370
 Zr91 Zr 0.49351 0.55681 0.56194
 O92 O 0.39827 0.53503 0.54169
 O93 O 0.49897 0.46905 0.64238
 O94 O 0.49714 0.54785 0.63834
 O95 O 0.48090 0.61522 0.56444
 O96 O 0.43841 0.56953 0.58801
 C97 C 0.40522 0.55893 0.57558
 O98 O 0.39804 0.46864 0.45869
 O99 O 0.50334 0.54094 0.36048
 O100 O 0.40337 0.53422 0.44869
 O101 O 0.44759 0.56594 0.40446
 O102 O 0.51575 0.46003 0.36349
 O103 O 0.46376 0.42998 0.40605
 C104 C 0.41321 0.55695 0.41444
 H105 H 0.55534 0.50624 0.40886
 H106 H 0.45969 0.43152 0.49972
 H107 H 0.44569 0.57586 0.49500
 H108 H 0.54853 0.51509 0.59694
 H109 H 0.52406 0.38446 0.42645
 H110 H 0.50962 0.39363 0.59708
 H111 H 0.50065 0.44358 0.65702
 H112 H 0.49012 0.57228 0.65386
 H113 H 0.52514 0.43529 0.35104
 H114 H 0.50284 0.56597 0.34452
 H115 H 0.50985 0.62101 0.45703
 H116 H 0.47822 0.62368 0.53019
 H117 H 0.47309 0.40832 0.38613
 H118 H 0.37189 0.47618 0.46885
 H119 H 0.63207 0.53657 0.53241
 H120 H 0.55512 0.57968 0.60154
 Zr121 Zr 0.57017 0.00387 0.50119
 O122 O 0.61329 0.03435 0.46571
 O123 O 0.60156 -0.02728 0.55262
 O124 O 0.59614 0.04276 0.54779
 O125 O 0.56543 -0.06288 0.41014
 O126 O 0.54691 0.07344 0.58605
 O127 O 0.60649 -0.03213 0.45952
 O128 O 0.55739 -0.06179 0.59176
 O129 O 0.53534 0.00447 0.56371
 O130 O 0.54124 -0.04678 0.50064
 O131 O 0.53445 0.05162 0.49330
 O132 O 0.54227 0.00220 0.43303
 Zr133 Zr 0.43838 -0.00067 0.48813
 Zr134 Zr 0.49809 0.05042 0.55420
 Zr135 Zr 0.51091 -0.04740 0.43557
 Zr136 Zr 0.50500 -0.04526 0.56079
 O137 O 0.51152 -0.04675 0.35805
 O138 O 0.50079 -0.03421 0.63701
 O139 O 0.47369 -0.04902 0.49586
 O140 O 0.46722 0.00076 0.55545
 O141 O 0.46695 0.05065 0.48876
 O142 O 0.47364 -0.00180 0.42611
 C143 C 0.59194 -0.05218 0.58399
 C144 C 0.59899 -0.05603 0.42558
 C145 C 0.58266 0.06716 0.57859
 O146 O 0.49152 0.04489 0.63084
 O147 O 0.44382 0.07149 0.57371
 O148 O 0.40301 0.03787 0.52703
 C149 C 0.41048 0.06345 0.55881
 O150 O 0.54928 0.07894 0.40028
 Zr151 Zr 0.50358 0.04779 0.42843
 O152 O 0.40641 0.02986 0.43651
 O153 O 0.49905 0.10986 0.55321
 O154 O 0.50055 0.10722 0.42513
 O155 O 0.51116 0.03250 0.35403
 O156 O 0.45111 0.06481 0.39835
 C157 C 0.41665 0.05466 0.40510
 O158 O 0.39496 -0.02817 0.52720
 O159 O 0.51953 -0.10603 0.44470
 O160 O 0.41218 -0.04315 0.44642
 O161 O 0.46218 -0.07516 0.41145
 O162 O 0.51036 -0.10458 0.55369
 O163 O 0.45493 -0.07110 0.58663
 C164 C 0.42640 -0.07029 0.42007
 H165 H 0.55830 -0.06920 0.50243
 H166 H 0.44912 0.00050 0.58335
 H167 H 0.45970 -0.00470 0.39505
 H168 H 0.54902 0.07509 0.49269
 H169 H 0.50852 -0.05759 0.65432
 H170 H 0.49046 0.07083 0.64426
 H171 H 0.48087 0.11821 0.52790
 H172 H 0.47866 0.11544 0.44567
 H173 H 0.51614 -0.11491 0.58654
 H174 H 0.52172 -0.11714 0.41145
 H175 H 0.51394 -0.07329 0.34707
 H176 H 0.50777 0.05596 0.33492
 H177 H 0.46106 -0.08717 0.61520
 H178 H 0.37048 -0.02057 0.51210
 H179 H 0.63780 0.02633 0.48040
 H180 H 0.57026 0.06056 0.39399
 Zr181 Zr -0.06260 0.50051 -0.01794
 O182 O -0.10672 0.47251 0.01906
 O183 O -0.09356 0.53305 -0.06839
 O184 O -0.09807 0.53867 0.02171
 O185 O -0.03915 0.42886 -0.10009
 O186 O -0.05710 0.57185 0.06866
 O187 O -0.08855 0.45978 -0.06286
 O188 O -0.04792 0.56484 -0.10886
 O189 O -0.03341 0.55132 -0.01613
 O190 O -0.02675 0.49964 -0.07930
 O191 O -0.03441 0.50089 0.04987
 O192 O -0.02814 0.45157 -0.01045
 Zr193 Zr 0.06918 0.50321 -0.00314
 Zr194 Zr -0.00300 0.55015 0.04971
 Zr195 Zr 0.00961 0.45337 -0.07013
 Zr196 Zr 0.00372 0.54873 -0.07588
 O197 O 0.01289 0.39417 -0.06247
 O198 O -0.00185 0.60806 -0.07763
 O199 O 0.04166 0.50252 -0.07152
 O200 O 0.03412 0.55151 -0.01057
 O201 O 0.03378 0.50378 0.05893
 O202 O 0.03959 0.45289 -0.00479
 C203 C -0.08284 0.55633 -0.10159
 C204 C -0.07505 0.43473 -0.09326
 C205 C -0.09052 0.56410 0.05372
 O206 O -0.00586 0.60960 0.05185
 O207 O 0.04558 0.57361 0.08129
 O208 O 0.09480 0.54129 0.04527
 C209 C 0.08128 0.56653 0.07496
 O210 O -0.04761 0.42857 0.07918
 Zr211 Zr 0.00292 0.45443 0.05492
 O212 O 0.10015 0.47087 0.04727
 O213 O -0.00885 0.54251 0.12610
 O214 O -0.00257 0.46405 0.13134
 O215 O 0.00862 0.39519 0.04701
 O216 O 0.05504 0.43827 0.08721
 C217 C 0.08991 0.44698 0.07955
 O218 O 0.11196 0.53411 -0.03871
 O219 O 0.01503 0.45609 -0.14725
 O220 O 0.10586 0.46780 -0.04562
 O221 O 0.06441 0.43629 -0.09226
 O222 O 0.01391 0.53415 -0.15006
 O223 O 0.04943 0.58120 -0.10126
 C224 C 0.09857 0.44354 -0.07929
 H225 H -0.04006 0.49742 -0.11092
 H226 H 0.04919 0.57465 -0.01077
 H227 H 0.05632 0.43022 -0.00307
 H228 H -0.05276 0.50054 0.07749
 H229 H -0.02257 0.61509 -0.05447
 H230 H 0.00723 0.61848 0.02204
 H231 H -0.01084 0.56809 0.14051
 H232 H 0.00491 0.44037 0.14812
 H233 H 0.01175 0.55782 -0.16899
 H234 H 0.02082 0.43019 -0.15902
 H235 H 0.01730 0.38363 -0.09572
 H236 H 0.01438 0.38467 0.07977
 H237 H 0.07067 0.56319 -0.10792
 H238 H 0.13610 0.52885 -0.02146
 H239 H -0.13089 0.48061 0.00356
 H240 H -0.04179 0.41136 0.10671
 Zr241 Zr 0.06613 0.51116 0.51049
 O242 O 0.10915 0.48639 0.55433
 O243 O 0.09778 0.54607 0.46461
 O244 O 0.10301 0.47537 0.46928
 O245 O 0.04150 0.57722 0.59926
 O246 O 0.06291 0.44094 0.42280
 O247 O 0.09143 0.54982 0.55789
 O248 O 0.05258 0.57196 0.41504
 O249 O 0.03835 0.50726 0.44314
 O250 O 0.02946 0.55821 0.50666
 O251 O 0.03808 0.45960 0.51277
 O252 O 0.03121 0.50824 0.57365
 Zr253 Zr -0.06551 0.50019 0.50307
 Zr254 Zr 0.00817 0.45739 0.44699
 Zr255 Zr -0.00696 0.55395 0.56703
 Zr256 Zr 0.00014 0.55287 0.44149
 O257 O -0.01153 0.54793 0.64386
 O258 O 0.00175 0.54244 0.36509
 O259 O -0.03785 0.55237 0.50140
 O260 O -0.03011 0.50302 0.44089
 O261 O -0.02915 0.45288 0.50675
 O262 O -0.03699 0.50406 0.56978
 C263 C 0.08714 0.56672 0.42846
 C264 C 0.07724 0.57241 0.59043
 C265 C 0.09616 0.44970 0.43732
 O266 O 0.00861 0.46106 0.36967
 O267 O -0.03955 0.42999 0.42003
 O268 O -0.09027 0.45987 0.45644
 C269 C -0.07536 0.43416 0.42832
 O270 O 0.05049 0.44182 0.60991
 Zr271 Zr 0.00037 0.45818 0.57214
 O272 O -0.09663 0.46328 0.54689
 O273 O 0.01831 0.39882 0.45450
 O274 O 0.00755 0.39932 0.56149
 O275 O -0.00737 0.46586 0.64868
 O276 O -0.05116 0.43302 0.59194
 C277 C -0.08566 0.43851 0.57830
 O278 O -0.10899 0.52430 0.45948
 O279 O -0.00991 0.61338 0.56594
 O280 O -0.10198 0.53686 0.54395
 O281 O -0.06164 0.57383 0.58691
 O282 O -0.00203 0.61235 0.44667
 O283 O -0.04809 0.57542 0.40509
 C284 C -0.09499 0.56376 0.57422
 H285 H 0.04282 0.58241 0.50711
 H286 H -0.04506 0.50161 0.41045
 H287 H -0.05433 0.50393 0.59846
 H288 H 0.05627 0.43817 0.51583
 H289 H 0.00664 0.56676 0.34875
 H290 H 0.01325 0.43518 0.35707
 H291 H 0.01918 0.38802 0.42099
 H292 H 0.00017 0.38684 0.59244
 H293 H 0.00320 0.62220 0.41341
 H294 H -0.02400 0.62031 0.53599
 H295 H -0.01526 0.57369 0.65731
 H296 H -0.01185 0.44079 0.66319
 H297 H -0.06658 0.58354 0.43068
 H298 H -0.13326 0.51360 0.47079
 H299 H 0.13376 0.49634 0.54298
 H300 H 0.04521 0.41996 0.63112
 Zr301 Zr 0.43484 0.00015 0.00168
 O302 O 0.39187 0.02426 -0.04272
 O303 O 0.40318 -0.03655 0.04513
 O304 O 0.41063 -0.04038 -0.04512
 O305 O 0.43778 0.07386 0.08547
 O306 O 0.46159 -0.07050 -0.08047
 O307 O 0.39793 0.03682 0.04184
 O308 O 0.44852 -0.06759 0.08939
 O309 O 0.47122 -0.04711 0.00600
 O310 O 0.46269 0.00410 0.06886
 O311 O 0.47080 0.00289 -0.05997
 O312 O 0.46248 0.05235 0.00038
 Zr313 Zr 0.56631 0.01125 0.01123
 Zr314 Zr 0.50904 -0.04271 -0.05317
 Zr315 Zr 0.49270 0.05404 0.06654
 Zr316 Zr 0.50010 -0.04171 0.07182
 O317 O 0.48955 0.11346 0.06550
 O318 O 0.50822 -0.10056 0.06192
 O319 O 0.53085 0.00839 0.07385
 O320 O 0.53834 -0.04035 0.01307
 O321 O 0.53921 0.00720 -0.05659
 O322 O 0.52965 0.05825 0.00670
 C323 C 0.41403 -0.06195 0.07573
 C324 C 0.40458 0.06374 0.07220
 C325 C 0.42570 -0.06633 -0.07271
 O326 O 0.51932 -0.10122 -0.04519
 O327 O 0.56406 -0.05897 -0.07644
 O328 O 0.60365 -0.02451 -0.02923
 C329 C 0.59714 -0.05017 -0.06129
 O330 O 0.45314 0.07525 -0.09619
 Zr331 Zr 0.50101 0.05277 -0.05896
 O332 O 0.59846 0.04603 -0.03420
 O333 O 0.51003 -0.03930 -0.13050
 O334 O 0.50339 0.04222 -0.13530
 O335 O 0.49874 0.11227 -0.05400
 O336 O 0.55374 0.07188 -0.08449
 C337 C 0.58818 0.06665 -0.07052
 O338 O 0.60876 -0.01343 0.05604
 O339 O 0.48756 0.04797 0.14330
 O340 O 0.59116 0.05014 0.05869
 O341 O 0.54087 0.07759 0.09929
 O342 O 0.49076 -0.03414 0.14809
 O343 O 0.54977 -0.05752 0.11091
 C344 C 0.57670 0.07286 0.09087
 H345 H 0.44504 0.00391 0.09722
 H346 H 0.55654 -0.06173 0.01650
 H347 H 0.54296 0.08247 0.00726
 H348 H 0.45613 0.00139 -0.09063
 H349 H 0.50046 -0.11296 0.09277
 H350 H 0.52080 -0.11208 -0.07865
 H351 H 0.51491 -0.06520 -0.14287
 H352 H 0.50846 0.06652 -0.15160
 H353 H 0.48606 -0.05925 0.16232
 H354 H 0.48361 0.07371 0.15671
 H355 H 0.47604 0.12037 0.03509
 H356 H 0.50436 0.12205 -0.08718
 H357 H 0.54425 -0.07901 0.13264
 H358 H 0.63352 -0.00354 0.04515
 H359 H 0.36749 0.01345 -0.03197
 H360 H 0.43442 0.08344 -0.07091
 Zr361 Zr 0.43388 0.49209 -0.00478
 O362 O 0.38414 0.51854 0.02434
 O363 O 0.41018 0.45220 -0.05149
 O364 O 0.40277 0.52545 -0.05504
 O365 O 0.44670 0.43104 0.09268
 O366 O 0.44828 0.55594 -0.09762
 O367 O 0.40253 0.45772 0.04250
 O368 O 0.46092 0.41927 -0.08363
 O369 O 0.46983 0.49086 -0.06633
 O370 O 0.47102 0.44602 0.00402
 O371 O 0.46124 0.54392 -0.00282
 O372 O 0.45964 0.49940 0.06421
 Zr373 Zr 0.56428 0.50469 0.01176
 Zr374 Zr 0.49900 0.54123 -0.06234
 Zr375 Zr 0.49873 0.45438 0.06982
 Zr376 Zr 0.50843 0.44615 -0.05506
 O377 O 0.49213 0.46387 0.14593
 O378 O 0.51211 0.45031 -0.13239
 O379 O 0.53773 0.45209 0.01106
 O380 O 0.53808 0.49652 -0.05625
 O381 O 0.52694 0.55088 0.00347
 O382 O 0.52794 0.50480 0.07286
 C383 C 0.42524 0.42551 -0.07742
 C384 C 0.41239 0.43511 0.07697
 C385 C 0.41341 0.54898 -0.08791
 O386 O 0.50970 0.52899 -0.13701
 O387 O 0.54869 0.56999 -0.07919
 O388 O 0.59464 0.54371 -0.03110
 C389 C 0.58285 0.56777 -0.06313
 O390 O 0.43434 0.56368 0.08888
 Zr391 Zr 0.48993 0.54948 0.06331
 O392 O 0.58894 0.54586 0.05505
 O393 O 0.48909 0.59931 -0.07369
 O394 O 0.47781 0.60759 0.05359
 O395 O 0.49215 0.54573 0.14079
 O396 O 0.53793 0.57993 0.08354
 C397 C 0.57383 0.57456 0.07694
 O398 O 0.61286 0.47882 -0.02096
 O399 O 0.50477 0.39500 0.07038
 O400 O 0.59543 0.47062 0.06147
 O401 O 0.55028 0.43787 0.10204
 O402 O 0.51366 0.38794 -0.03884
 O403 O 0.56325 0.42535 -0.07557
 C404 C 0.58505 0.44628 0.09363
 H405 H 0.45816 0.42172 0.00548
 H406 H 0.55696 0.49639 -0.08329
 H407 H 0.54190 0.50741 0.10395
 H408 H 0.44301 0.56535 -0.00553
 H409 H 0.50949 0.42464 -0.14600
 H410 H 0.50771 0.55340 -0.15434
 H411 H 0.48485 0.61038 -0.04078
 H412 H 0.47958 0.61970 0.08622
 H413 H 0.51140 0.37387 -0.07005
 H414 H 0.50189 0.38690 0.10490
 H415 H 0.49445 0.43891 0.16185
 H416 H 0.49473 0.57170 0.15341
 H417 H 0.56092 0.40647 -0.10205
 H418 H 0.63536 0.49078 -0.00657
 H419 H 0.36190 0.50603 0.00997
 H420 H 0.43575 0.57995 0.11827
 Zr421 Zr 0.06301 0.00703 0.50951
 O422 O 0.11038 -0.01677 0.47164
 O423 O 0.08907 0.04653 0.55393
 O424 O 0.09087 0.04791 0.46687
 O425 O 0.05367 -0.06451 0.59451
 O426 O 0.04269 0.07585 0.42405
 O427 O 0.09685 -0.02878 0.55467
 O428 O 0.03883 0.07790 0.58916
 O429 O 0.02466 0.05306 0.50817
 O430 O 0.02950 0.00308 0.57291
 O431 O 0.03364 0.00261 0.44297
 O432 O 0.03730 -0.04586 0.50575
 Zr433 Zr -0.06768 -0.00749 0.50081
 Zr434 Zr -0.00652 0.04689 0.44388
 Zr435 Zr 0.00083 -0.04754 0.56715
 Zr436 Zr -0.00949 0.04742 0.57035
 O437 O 0.00775 -0.10670 0.56145
 O438 O -0.02329 0.10568 0.56743
 O439 O -0.03909 -0.00313 0.56840
 O440 O -0.04094 0.04455 0.50626
 O441 O -0.03463 -0.00402 0.43687
 O442 O -0.02939 -0.05301 0.50274
 C443 C 0.07441 0.07378 0.57914
 C444 C 0.08794 -0.05495 0.58524
 C445 C 0.07775 0.07282 0.43677
 O446 O -0.01696 0.10545 0.43981
 O447 O -0.06018 0.06522 0.41810
 O448 O -0.10222 0.02703 0.45633
 C449 C -0.09407 0.05477 0.42841
 O450 O 0.05976 -0.06607 0.41483
 Zr451 Zr 0.00538 -0.04842 0.44130
 O452 O -0.09233 -0.04571 0.45199
 O453 O -0.00189 0.03892 0.36739
 O454 O 0.00502 -0.03973 0.36450
 O455 O 0.01347 -0.10722 0.45120
 O456 O -0.04220 -0.07552 0.41385
 C457 C -0.07767 -0.07086 0.42305
 O458 O -0.11614 0.01665 0.53629
 O459 O -0.00240 -0.04256 0.64429
 O460 O -0.09631 -0.04487 0.54663
 O461 O -0.04976 -0.07250 0.59236
 O462 O -0.00353 0.03911 0.64685
 O463 O -0.06390 0.05952 0.60135
 C464 C -0.08467 -0.06835 0.57912
 H465 H 0.04480 0.00435 0.60308
 H466 H -0.05932 0.06576 0.50752
 H467 H -0.04172 -0.07761 0.50306
 H468 H 0.05103 0.00431 0.41447
 H469 H -0.01939 0.11609 0.60069
 H470 H -0.01699 0.11457 0.47407
 H471 H -0.00519 0.06428 0.35285
 H472 H 0.00276 -0.06467 0.34861
 H473 H -0.00019 0.06428 0.66169
 H474 H 0.00101 -0.06831 0.65762
 H475 H 0.00629 -0.11682 0.59519
 H476 H 0.01040 -0.11953 0.41890
 H477 H -0.06121 0.07361 0.63242
 H478 H -0.13901 0.00446 0.52313
 H479 H 0.13334 -0.00518 0.48531
 H480 H 0.05683 -0.08311 0.38644
 Zr481 Zr 0.74729 0.18628 0.25899
 O482 O 0.71541 0.14718 0.29971
 O483 O 0.78010 0.15019 0.21348
 O484 O 0.70677 0.15882 0.21592
 O485 O 0.81517 0.19497 0.34794
 O486 O 0.67654 0.20648 0.17486
 O487 O 0.78017 0.15245 0.30629
 O488 O 0.81301 0.19081 0.16551
 O489 O 0.74717 0.21629 0.19291
 O490 O 0.79914 0.21363 0.25547
 O491 O 0.70042 0.22372 0.26437
 O492 O 0.74993 0.21896 0.32373
 Zr493 Zr 0.75658 0.31751 0.25781
 Zr494 Zr 0.70234 0.25569 0.20015
 Zr495 Zr 0.80082 0.24776 0.31735
 Zr496 Zr 0.79810 0.24505 0.19142
 O497 O 0.79597 0.25318 0.39429
 O498 O 0.78538 0.24446 0.11582
 O499 O 0.80403 0.28018 0.25303
 O500 O 0.75333 0.28448 0.19395
 O501 O 0.70420 0.29098 0.26163
 O502 O 0.75631 0.28682 0.32320
 C503 C 0.80431 0.15763 0.17956
 C504 C 0.80439 0.16121 0.33913
 C505 C 0.68138 0.17161 0.18628
 O506 O 0.70493 0.25643 0.12274
 O507 O 0.68285 0.30868 0.17615
 O508 O 0.71866 0.35145 0.21620
 C509 C 0.69179 0.34264 0.18679
 O510 O 0.68053 0.21219 0.36092
 Zr511 Zr 0.70519 0.25895 0.32539
 O512 O 0.72576 0.35383 0.30461
 O513 O 0.64283 0.25973 0.20994
 O514 O 0.64574 0.26502 0.31652
 O515 O 0.71471 0.26123 0.40192
 O516 O 0.68960 0.31357 0.34918
 C517 C 0.70058 0.34661 0.33726
 O518 O 0.78658 0.35642 0.21462
 O519 O 0.85964 0.23579 0.31777
 O520 O 0.79935 0.34476 0.29782
 O521 O 0.83061 0.29636 0.33574
 O522 O 0.85787 0.23849 0.19378
 O523 O 0.82524 0.28933 0.15401
 C524 C 0.82625 0.33147 0.32499
 H525 H 0.82141 0.19638 0.25565
 H526 H 0.75385 0.30037 0.16422
 H527 H 0.75947 0.30290 0.35247
 H528 H 0.67638 0.21006 0.26728
 H529 H 0.80897 0.23670 0.09821
 H530 H 0.67842 0.25795 0.11114
 H531 H 0.63155 0.26163 0.17688
 H532 H 0.63490 0.27386 0.34822
 H533 H 0.86678 0.23276 0.15997
 H534 H 0.86875 0.24109 0.28423
 H535 H 0.82213 0.25103 0.40706
 H536 H 0.69095 0.27067 0.41772
 H537 H 0.83571 0.30605 0.17935
 H538 H 0.78020 0.38189 0.22766
 H539 H 0.72192 0.12162 0.28700
 H540 H 0.65991 0.22119 0.38312
 Zr541 Zr 0.75319 0.81868 0.76178
 O542 O 0.78840 0.85707 0.79825
 O543 O 0.71866 0.85501 0.71979
 O544 O 0.78977 0.84657 0.71329
 O545 O 0.69302 0.80966 0.86119
 O546 O 0.81571 0.79918 0.66638
 O547 O 0.72216 0.85241 0.81210
 O548 O 0.67953 0.81469 0.68041
 O549 O 0.74678 0.78895 0.69603
 O550 O 0.70141 0.79150 0.76710
 O551 O 0.80021 0.78122 0.75802
 O552 O 0.75624 0.78608 0.82642
 Zr553 Zr 0.74462 0.68759 0.76027
 Zr554 Zr 0.79196 0.74989 0.69400
 Zr555 Zr 0.70526 0.75680 0.82832
 Zr556 Zr 0.69604 0.76021 0.70347
 O557 O 0.71374 0.75197 0.90467
 O558 O 0.69960 0.76083 0.62592
 O559 O 0.69692 0.72456 0.76475
 O560 O 0.74097 0.72106 0.69686
 O561 O 0.79681 0.71465 0.75498
 O562 O 0.75032 0.71753 0.82603
 C563 C 0.69133 0.84779 0.69056
 C564 C 0.70071 0.84362 0.84850
 C565 C 0.81174 0.83394 0.67889
 O566 O 0.77874 0.75144 0.61868
 O567 O 0.80852 0.69737 0.66415
 O568 O 0.77771 0.65423 0.71067
 C569 C 0.80045 0.66337 0.67558
 O570 O 0.83264 0.79006 0.84968
 Zr571 Zr 0.80066 0.74614 0.81932
 O572 O 0.78041 0.65128 0.80001
 O573 O 0.85149 0.74706 0.68468
 O574 O 0.86049 0.74283 0.81823
 O575 O 0.79269 0.74242 0.89601
 O576 O 0.82314 0.69181 0.83157
 C577 C 0.81137 0.65864 0.82206
 O578 O 0.71107 0.64858 0.72228
 O579 O 0.64607 0.76750 0.83022
 O580 O 0.70567 0.65981 0.80644
 O581 O 0.67825 0.70754 0.85127
 O582 O 0.63761 0.76744 0.72067
 O583 O 0.66552 0.71341 0.67741
 C584 C 0.68137 0.67270 0.83825
 H585 H 0.67947 0.80916 0.77057
 H586 H 0.73740 0.70541 0.66728
 H587 H 0.75027 0.70078 0.85497
 H588 H 0.82440 0.79475 0.75696
 H589 H 0.67492 0.77044 0.61352
 H590 H 0.80330 0.75007 0.60084
 H591 H 0.86099 0.72674 0.70634
 H592 H 0.86833 0.74703 0.78390
 H593 H 0.62463 0.77595 0.69048
 H594 H 0.63817 0.76730 0.86514
 H595 H 0.68841 0.75435 0.92041
 H596 H 0.81727 0.73326 0.90919
 H597 H 0.64688 0.72203 0.65272
 H598 H 0.71937 0.62301 0.73277
 H599 H 0.78037 0.88281 0.78809
 H600 H 0.81459 0.80679 0.86780
 Zr601 Zr 0.26148 0.31556 0.75270
 O602 O 0.23717 0.36424 0.71988
 O603 O 0.29840 0.33972 0.80212
 O604 O 0.22885 0.34798 0.80319
 O605 O 0.32472 0.29904 0.65785
 O606 O 0.19176 0.30465 0.84085
 O607 O 0.30083 0.34470 0.70899
 O608 O 0.32669 0.28913 0.83871
 O609 O 0.25817 0.28050 0.81422
 O610 O 0.30747 0.27741 0.74705
 O611 O 0.20820 0.29048 0.74835
 O612 O 0.25555 0.28900 0.68399
 Zr613 Zr 0.24513 0.18623 0.73604
 Zr614 Zr 0.20658 0.25301 0.80758
 Zr615 Zr 0.29987 0.24878 0.68124
 Zr616 Zr 0.30269 0.24133 0.80624
 O617 O 0.29715 0.25346 0.60420
 O618 O 0.29348 0.23581 0.88253
 O619 O 0.29875 0.21100 0.74018
 O620 O 0.25133 0.21338 0.80390
 O621 O 0.19888 0.22398 0.74178
 O622 O 0.24824 0.22182 0.67515
 C623 C 0.32162 0.32481 0.83268
 C624 C 0.32286 0.33321 0.67388
 C625 C 0.20253 0.33852 0.83338
 O626 O 0.21195 0.24648 0.88422
 O627 O 0.17959 0.20348 0.82956
 O628 O 0.20600 0.15756 0.78075
 C629 C 0.18302 0.16913 0.81484
 O630 O 0.19319 0.31244 0.64619
 Zr631 Zr 0.20395 0.26070 0.68259
 O632 O 0.20436 0.16272 0.69092
 O633 O 0.14722 0.26184 0.80327
 O634 O 0.14623 0.27483 0.69605
 O635 O 0.20562 0.25790 0.60501
 O636 O 0.17363 0.21380 0.65895
 C637 C 0.17756 0.17817 0.66595
 O638 O 0.26928 0.13714 0.76803
 O639 O 0.35916 0.23943 0.68313
 O640 O 0.27890 0.15391 0.68628
 O641 O 0.31568 0.19738 0.64841
 O642 O 0.36241 0.23677 0.79853
 O643 O 0.32376 0.18850 0.83150
 C644 C 0.30476 0.16351 0.65534
 H645 H 0.33250 0.28943 0.74763
 H646 H 0.25045 0.19527 0.83134
 H647 H 0.24623 0.20828 0.64358
 H648 H 0.18742 0.30957 0.75022
 H649 H 0.31880 0.23371 0.89783
 H650 H 0.18620 0.24994 0.89852
 H651 H 0.13714 0.26088 0.83723
 H652 H 0.13424 0.27736 0.66350
 H653 H 0.37312 0.23698 0.83200
 H654 H 0.36418 0.21961 0.70777
 H655 H 0.27699 0.27244 0.59723
 H656 H 0.17908 0.25903 0.59329
 H657 H 0.33079 0.17324 0.80229
 H658 H 0.25670 0.11517 0.75328
 H659 H 0.24911 0.38644 0.73493
 H660 H 0.18439 0.33087 0.67122
 Zr661 Zr 0.24661 0.68445 0.24569
 O662 O 0.27396 0.64059 0.20539
 O663 O 0.21051 0.65390 0.29141
 O664 O 0.28221 0.64942 0.28852
 O665 O 0.17918 0.70605 0.15745
 O666 O 0.31813 0.69068 0.33113
 O667 O 0.20900 0.65781 0.19764
 O668 O 0.18199 0.69923 0.33925
 O669 O 0.25002 0.71351 0.31242
 O670 O 0.19877 0.72013 0.24945
 O671 O 0.29805 0.71315 0.24179
 O672 O 0.24841 0.71754 0.18153
 Zr673 Zr 0.25615 0.81502 0.25005
 Zr674 Zr 0.29986 0.74416 0.30700
 Zr675 Zr 0.20194 0.75515 0.18860
 Zr676 Zr 0.20341 0.75080 0.31392
 O677 O 0.20443 0.75856 0.11128
 O678 O 0.21263 0.74835 0.39048
 O679 O 0.20379 0.78726 0.25333
 O680 O 0.25352 0.78150 0.31340
 O681 O 0.30414 0.77924 0.24574
 O682 O 0.25182 0.78529 0.18405
 C683 C 0.18725 0.66484 0.32531
 C684 C 0.18515 0.67071 0.16594
 C685 C 0.30863 0.65727 0.31886
 O686 O 0.29558 0.74841 0.38418
 O687 O 0.32873 0.79245 0.32935
 O688 O 0.29846 0.84155 0.29174
 C689 C 0.32482 0.82776 0.31936
 O690 O 0.31666 0.69746 0.14700
 Zr691 Zr 0.29833 0.74870 0.18092
 O692 O 0.29181 0.84574 0.20463
 O693 O 0.35874 0.73267 0.30743
 O694 O 0.35824 0.74380 0.18349
 O695 O 0.28646 0.75331 0.10514
 O696 O 0.32171 0.80010 0.15857
 C697 C 0.31550 0.83455 0.17156
 O698 O 0.23134 0.85784 0.29466
 O699 O 0.14238 0.75846 0.19795
 O700 O 0.21938 0.85043 0.20911
 O701 O 0.18184 0.80918 0.16876
 O702 O 0.14368 0.75410 0.30623
 O703 O 0.18230 0.80197 0.34537
 C704 C 0.19212 0.84271 0.17980
 H705 H 0.17462 0.70651 0.24907
 H706 H 0.25508 0.79725 0.34326
 H707 H 0.25132 0.80181 0.15493
 H708 H 0.31996 0.69542 0.23894
 H709 H 0.18803 0.74294 0.40643
 H710 H 0.28297 0.72543 0.39573
 H711 H 0.36768 0.73706 0.27358
 H712 H 0.36819 0.74961 0.15036
 H713 H 0.13231 0.74725 0.33821
 H714 H 0.13134 0.75967 0.16472
 H715 H 0.17801 0.76210 0.09989
 H716 H 0.31050 0.75956 0.08834
 H717 H 0.16402 0.79638 0.37194
 H718 H 0.24168 0.88208 0.28333
 H719 H 0.26323 0.61650 0.21671
 H720 H 0.33281 0.70297 0.11818
 Zr721 Zr 0.25757 0.81728 0.75562
 O722 O 0.28827 0.85560 0.71234
 O723 O 0.22647 0.85415 0.80159
 O724 O 0.22042 0.85107 0.71234
 O725 O 0.33109 0.79632 0.83462
 O726 O 0.18510 0.80790 0.67241
 O727 O 0.30022 0.84460 0.79588
 O728 O 0.19032 0.81433 0.84684
 O729 O 0.20500 0.79110 0.75971
 O730 O 0.25708 0.78708 0.82145
 O731 O 0.25439 0.78353 0.69236
 O732 O 0.30475 0.77950 0.75148
 Zr733 Zr 0.24732 0.68608 0.75907
 Zr734 Zr 0.20315 0.75521 0.69880
 Zr735 Zr 0.30133 0.74765 0.81623
 Zr736 Zr 0.20578 0.75953 0.82399
 O737 O 0.36036 0.73721 0.81804
 O738 O 0.14635 0.76569 0.81494
 O739 O 0.25031 0.71918 0.82335
 O740 O 0.20073 0.72389 0.76352
 O741 O 0.24760 0.71546 0.69252
 O742 O 0.29956 0.71280 0.75484
 C743 C 0.20129 0.84723 0.83440
 C744 C 0.32691 0.83138 0.82345
 C745 C 0.19410 0.84200 0.68216
 O746 O 0.14372 0.76046 0.70851
 O747 O 0.17707 0.70591 0.67428
 O748 O 0.20650 0.65848 0.71672
 C749 C 0.18152 0.67113 0.68642
 O750 O 0.32688 0.78685 0.65217
 Zr751 Zr 0.29876 0.74368 0.69053
 O752 O 0.27781 0.64895 0.71267
 O753 O 0.20576 0.75451 0.62137
 O754 O 0.28629 0.74276 0.61485
 O755 O 0.35845 0.73659 0.69327
 O756 O 0.31233 0.68878 0.66564
 C757 C 0.30239 0.65572 0.67902
 O758 O 0.21516 0.64836 0.80151
 O759 O 0.29508 0.75183 0.89312
 O760 O 0.28173 0.65230 0.80478
 O761 O 0.31760 0.69485 0.84505
 O762 O 0.21474 0.76289 0.90058
 O763 O 0.18117 0.71309 0.86029
 C764 C 0.30789 0.66091 0.83514
 H765 H 0.26024 0.80333 0.85057
 H766 H 0.17656 0.71048 0.76658
 H767 H 0.32171 0.69523 0.75453
 H768 H 0.25527 0.79903 0.66231
 H769 H 0.13549 0.77478 0.84651
 H770 H 0.13250 0.76163 0.67538
 H771 H 0.17927 0.75621 0.60966
 H772 H 0.30961 0.73384 0.59753
 H773 H 0.19075 0.77214 0.91598
 H774 H 0.32110 0.75072 0.90644
 H775 H 0.36932 0.73954 0.78382
 H776 H 0.36725 0.72938 0.65989
 H777 H 0.16023 0.72221 0.88189
 H778 H 0.22111 0.62257 0.78926
 H779 H 0.28223 0.88118 0.72522
 H780 H 0.33653 0.80437 0.67714
 Zr781 Zr 0.24431 0.18747 0.25795
 O782 O 0.21141 0.14767 0.22039
 O783 O 0.28019 0.15168 0.29848
 O784 O 0.27735 0.15433 0.20799
 O785 O 0.17705 0.20782 0.34794
 O786 O 0.30775 0.19760 0.16117
 O787 O 0.20474 0.15986 0.30377
 O788 O 0.32230 0.19255 0.33073
 O789 O 0.29632 0.21491 0.25232
 O790 O 0.24981 0.21779 0.32346
 O791 O 0.24048 0.22078 0.19436
 O792 O 0.19642 0.22421 0.26223
 Zr793 Zr 0.25174 0.31881 0.25848
 Zr794 Zr 0.29122 0.25012 0.19114
 Zr795 Zr 0.20453 0.25684 0.32552
 Zr796 Zr 0.30000 0.24671 0.31642
 O797 O 0.14534 0.26763 0.32814
 O798 O 0.35980 0.24281 0.31416
 O799 O 0.25529 0.28645 0.32329
 O800 O 0.29913 0.28175 0.25497
 O801 O 0.24562 0.28870 0.19299
 O802 O 0.20026 0.29119 0.26406
 C803 C 0.31059 0.15928 0.32172
 C804 C 0.18002 0.17299 0.33494
 C805 C 0.29977 0.16354 0.17256
 O806 O 0.35084 0.24741 0.18275
 O807 O 0.31438 0.29974 0.16288
 O808 O 0.28784 0.34693 0.20960
 C809 C 0.30995 0.33455 0.17521
 O810 O 0.16515 0.21218 0.17518
 Zr811 Zr 0.19519 0.25947 0.20069
 O812 O 0.21654 0.35449 0.21637
 O813 O 0.27828 0.25163 0.11573
 O814 O 0.19870 0.25968 0.12313
 O815 O 0.13673 0.26622 0.21803
 O816 O 0.17810 0.31352 0.17708
 C817 C 0.18939 0.34681 0.18705
 O818 O 0.28662 0.35782 0.29439
 O819 O 0.21333 0.25182 0.40179
 O820 O 0.22054 0.35250 0.30877
 O821 O 0.19206 0.30967 0.35832
 O822 O 0.29206 0.24413 0.39320
 O823 O 0.33212 0.29072 0.34633
 C824 C 0.19937 0.34366 0.34543
 H825 H 0.24974 0.20121 0.35257
 H826 H 0.32314 0.29558 0.25374
 H827 H 0.17817 0.30867 0.26748
 H828 H 0.23696 0.20506 0.16483
 H829 H 0.36747 0.24926 0.28038
 H830 H 0.36011 0.22653 0.20372
 H831 H 0.30291 0.25038 0.09803
 H832 H 0.17387 0.26882 0.11066
 H833 H 0.31663 0.23518 0.40663
 H834 H 0.18806 0.25416 0.41770
 H835 H 0.13752 0.26683 0.36307
 H836 H 0.12359 0.27436 0.18778
 H837 H 0.31396 0.30819 0.36305
 H838 H 0.27824 0.38342 0.28408
 H839 H 0.21993 0.12229 0.23141
 H840 H 0.14635 0.22047 0.15050
 Zr841 Zr 0.74559 0.68593 0.23477
 O842 O 0.77052 0.63656 0.26504
 O843 O 0.70407 0.66268 0.19042
 O844 O 0.70747 0.65647 0.28032
 O845 O 0.81472 0.69850 0.14542
 O846 O 0.68126 0.70190 0.32994
 O847 O 0.77913 0.65439 0.18396
 O848 O 0.67215 0.71387 0.16073
 O849 O 0.69921 0.72327 0.24288
 O850 O 0.74694 0.72213 0.17434
 O851 O 0.75320 0.71235 0.30283
 O852 O 0.79901 0.71140 0.23716
 Zr853 Zr 0.76109 0.81536 0.25302
 Zr854 Zr 0.70829 0.75157 0.30885
 Zr855 Zr 0.79834 0.74969 0.17871
 Zr856 Zr 0.70256 0.76070 0.18420
 O857 O 0.85749 0.74037 0.17395
 O858 O 0.64498 0.77400 0.19988
 O859 O 0.75384 0.78960 0.18403
 O860 O 0.70799 0.78976 0.25037
 O861 O 0.75966 0.77955 0.31392
 O862 O 0.80726 0.77755 0.24492
 C863 C 0.67657 0.67819 0.16673
 C864 C 0.80452 0.66442 0.15261
 C865 C 0.68463 0.66766 0.31482
 O866 O 0.64904 0.76180 0.30697
 O867 O 0.69627 0.80216 0.34614
 O868 O 0.72806 0.84695 0.30412
 C869 C 0.70472 0.83660 0.33778
 O870 O 0.82664 0.68779 0.32613
 Zr871 Zr 0.80428 0.74090 0.30366
 O872 O 0.79804 0.83932 0.30260
 O873 O 0.71459 0.74237 0.38494
 O874 O 0.79592 0.73450 0.37998
 O875 O 0.86398 0.73732 0.29505
 O876 O 0.82833 0.78874 0.33630
 C877 C 0.82219 0.82447 0.33201
 O878 O 0.73640 0.86435 0.22146
 O879 O 0.79092 0.75526 0.10225
 O880 O 0.79981 0.84525 0.20913
 O881 O 0.82350 0.80025 0.15678
 O882 O 0.70292 0.75887 0.10657
 O883 O 0.69026 0.81277 0.14938
 C884 C 0.82176 0.83419 0.17371
 H885 H 0.74444 0.70875 0.14272
 H886 H 0.68703 0.80856 0.25366
 H887 H 0.83224 0.78964 0.24514
 H888 H 0.75298 0.69386 0.32988
 H889 H 0.63234 0.77707 0.16783
 H890 H 0.63960 0.75953 0.34109
 H891 H 0.68921 0.74621 0.40020
 H892 H 0.82129 0.73040 0.39452
 H893 H 0.67617 0.75981 0.09564
 H894 H 0.77430 0.77769 0.09719
 H895 H 0.86476 0.72577 0.20334
 H896 H 0.87498 0.73705 0.32836
 H897 H 0.68233 0.83089 0.17525
 H898 H 0.74824 0.88641 0.23700
 H899 H 0.75772 0.61472 0.25031
 H900 H 0.83340 0.67330 0.29617
 Zr901 Zr 0.75392 0.31736 0.75332
 O902 O 0.72714 0.35974 0.79684
 O903 O 0.78964 0.34885 0.70859
 O904 O 0.79402 0.34503 0.79677
 O905 O 0.68072 0.30971 0.67091
 O906 O 0.82765 0.29696 0.83248
 O907 O 0.71703 0.35188 0.71147
 O908 O 0.82043 0.30374 0.66261
 O909 O 0.80286 0.28287 0.74941
 O910 O 0.75084 0.28738 0.68741
 O911 O 0.75219 0.28392 0.81680
 O912 O 0.70234 0.28839 0.75646
 Zr913 Zr 0.74778 0.18660 0.74930
 Zr914 Zr 0.79962 0.24783 0.81082
 Zr915 Zr 0.70167 0.25619 0.69175
 Zr916 Zr 0.79820 0.25185 0.68483
 O917 O 0.64205 0.25852 0.70069
 O918 O 0.85814 0.24816 0.68852
 O919 O 0.74901 0.21963 0.68512
 O920 O 0.79867 0.21642 0.74578
 O921 O 0.75047 0.21592 0.81598
 O922 O 0.69918 0.22122 0.75273
 C923 C 0.81356 0.33810 0.67549
 C924 C 0.69031 0.34352 0.68170
 C925 C 0.82122 0.33211 0.82351
 O926 O 0.85902 0.23940 0.81143
 O927 O 0.81920 0.19464 0.83480
 O928 O 0.78390 0.15253 0.79261
 C929 C 0.81020 0.16096 0.82286
 O930 O 0.68062 0.30274 0.84857
 Zr931 Zr 0.70290 0.25201 0.81720
 O932 O 0.71218 0.15523 0.79473
 O933 O 0.79489 0.25196 0.88796
 O934 O 0.71199 0.24973 0.89380
 O935 O 0.64315 0.25393 0.80935
 O936 O 0.68254 0.19996 0.84243
 C937 C 0.68853 0.16568 0.82844
 O938 O 0.77592 0.14341 0.70870
 O939 O 0.70458 0.25902 0.61441
 O940 O 0.71071 0.15901 0.70125
 O941 O 0.67986 0.20661 0.66101
 O942 O 0.78715 0.25602 0.60880
 O943 O 0.81750 0.20093 0.65090
 C944 C 0.68646 0.17141 0.66969
 H945 H 0.75021 0.30378 0.65817
 H946 H 0.82104 0.19924 0.74310
 H947 H 0.67533 0.20710 0.75232
 H948 H 0.75318 0.29974 0.84665
 H949 H 0.86832 0.25440 0.65566
 H950 H 0.86827 0.24818 0.77927
 H951 H 0.78302 0.22855 0.89940
 H952 H 0.68748 0.24383 0.90965
 H953 H 0.81133 0.26233 0.59240
 H954 H 0.67819 0.26205 0.60271
 H955 H 0.63113 0.25941 0.66738
 H956 H 0.63189 0.24691 0.84133
 H957 H 0.83465 0.20666 0.62315
 H958 H 0.76601 0.11906 0.72034
 H959 H 0.73700 0.38424 0.78574
 H960 H 0.66240 0.29676 0.87506
 C961 C 0.14070 0.36753 0.84630
 C962 C 0.11557 0.39375 0.86591
 C963 C 0.12704 0.42256 0.89830
 C964 C 0.16732 0.42563 0.90633
 C965 C 0.19296 0.39773 0.88610
 C966 C 0.17909 0.36845 0.85662
 C967 C 0.23182 0.39971 0.89633
 N968 N 0.24491 0.42878 0.92288
 N969 N 0.22173 0.45593 0.93967
 C970 C 0.18380 0.45553 0.93217
 H971 H 0.12974 0.34589 0.82253
 H972 H 0.08623 0.38994 0.85606
 H973 H 0.25196 0.37850 0.88333
 H974 H 0.16785 0.47946 0.94520
 C975 C 0.32893 0.62005 0.39039
 C976 C 0.35409 0.59519 0.41339
 C977 C 0.38280 0.57630 0.38667
 C978 C 0.38413 0.58018 0.33506
 C979 C 0.35844 0.60539 0.31156
 C980 C 0.33124 0.62606 0.33986
 C981 C 0.36178 0.60994 0.26055
 N982 N 0.38819 0.58959 0.23491
 N983 N 0.41159 0.56516 0.25682
 C984 C 0.41046 0.55973 0.30595
 H985 H 0.30842 0.63582 0.41247
 H986 H 0.35257 0.59243 0.45280
 H987 H 0.34368 0.62937 0.24077
 H988 H 0.42976 0.53913 0.32165
 C989 C 0.86296 0.87979 0.67797
 C990 C 0.88868 0.90237 0.65349
 C991 C 0.88657 0.90760 0.60269
 C992 C 0.85734 0.88955 0.57612
 C993 C 0.83191 0.86577 0.60109
 C994 C 0.83501 0.86093 0.65222
 C995 C 0.80384 0.84754 0.57402
 N996 N 0.80124 0.85312 0.52514
 N997 N 0.82504 0.87532 0.50154
 C998 C 0.85297 0.89339 0.52518
 H999 H 0.86571 0.87597 0.71716
 H1000 H 0.91043 0.91598 0.67449
 H1001 H 0.78352 0.82942 0.59128
 H1002 H 0.87159 0.90991 0.50340
 C1003 C 0.65465 0.14109 0.11346
 C1004 C 0.62944 0.11719 0.09073
 C1005 C 0.60342 0.09648 0.11809
 C1006 C 0.60351 0.09936 0.16989
 C1007 C 0.62919 0.12380 0.19314
 C1008 C 0.65507 0.14464 0.16447
 C1009 C 0.62745 0.12712 0.24446
 N1010 N 0.60274 0.10628 0.27058
 N1011 N 0.57956 0.08246 0.24888
 C1012 C 0.57915 0.07822 0.19952
 H1013 H 0.67396 0.15706 0.09101
 H1014 H 0.62968 0.11542 0.05120
 H1015 H 0.64525 0.14621 0.26409
 H1016 H 0.56002 0.05815 0.18408
 C1017 C 0.83436 0.09734 0.34232
 C1018 C 0.86066 0.07225 0.36296
 C1019 C 0.87419 0.07836 0.41021
 C1020 C 0.85823 0.10822 0.43880
 C1021 C 0.83254 0.13436 0.41716
 C1022 C 0.82280 0.13028 0.36724
 C1023 C 0.81663 0.16323 0.44671
 N1024 N 0.82656 0.16606 0.49440
 N1025 N 0.85102 0.14179 0.51461
 C1026 C 0.86704 0.11299 0.48855
 H1027 H 0.82481 0.09209 0.30547
 H1028 H 0.87139 0.04864 0.34139
 H1029 H 0.79548 0.18280 0.43290
 H1030 H 0.88554 0.09359 0.50742
 C1031 C 0.33577 0.39816 0.64346
 C1032 C 0.35803 0.42386 0.61786
 C1033 C 0.39264 0.41227 0.59656
 C1034 C 0.40447 0.37403 0.60042
 C1035 C 0.38450 0.34951 0.63132
 C1036 C 0.34845 0.36074 0.65039
 C1037 C 0.40209 0.31479 0.64291
 N1038 N 0.43401 0.30317 0.61884
 N1039 N 0.44986 0.32433 0.58454
 C1040 C 0.43603 0.35927 0.57433
 H1041 H 0.30853 0.40760 0.65801
 H1042 H 0.34842 0.45294 0.61517
 H1043 H 0.39160 0.29750 0.67202
 H1044 H 0.44947 0.37503 0.54559
 C1045 C 0.66133 0.90175 0.84672
 C1046 C 0.63582 0.92735 0.86842
 C1047 C 0.62939 0.92715 0.91907
 C1048 C 0.65039 0.90153 0.94872
 C1049 C 0.67638 0.87544 0.92655
 C1050 C 0.68071 0.87469 0.87492
 C1051 C 0.69705 0.85072 0.95697
 N1052 N 0.69108 0.85138 1.00609
 N1053 N 0.66590 0.87504 1.02677
 C1054 C 0.64528 0.89998 0.99984
 H1055 H 0.66411 0.90156 0.80715
 H1056 H 0.61977 0.94649 0.84525
 H1057 H 0.71820 0.83122 0.94229
 H1058 H 0.62517 0.91824 1.01874
 C1059 C 0.12319 0.65380 0.13039
 C1060 C 0.09778 0.62836 0.11089
 C1061 C 0.10863 0.59076 0.10141
 C1062 C 0.14624 0.57884 0.11301
 C1063 C 0.17296 0.60558 0.12893
 C1064 C 0.16093 0.64315 0.13992
 C1065 C 0.21113 0.59375 0.13223
 N1066 N 0.22095 0.55694 0.12631
 N1067 N 0.19521 0.53122 0.11671
 C1068 C 0.15825 0.54086 0.11007
 H1069 H 0.11298 0.68212 0.13852
 H1070 H 0.06938 0.63847 0.10260
 H1071 H 0.23337 0.61348 0.13794
 H1072 H 0.13862 0.51860 0.10378
 C1073 C 0.36363 0.88317 0.17256
 C1074 C 0.38755 0.90795 0.14898
 C1075 C 0.38520 0.91384 0.09830
 C1076 C 0.35711 0.89490 0.07107
 C1077 C 0.33267 0.86981 0.09534
 C1078 C 0.33694 0.86333 0.14602
 C1079 C 0.30465 0.85182 0.06798
 N1080 N 0.30217 0.85779 0.01913
 N1081 N 0.32582 0.88045 -0.00405
 C1082 C 0.35316 0.89897 0.02017
 H1083 H 0.36682 0.87849 0.21155
 H1084 H 0.40857 0.92224 0.17046
 H1085 H 0.28458 0.83328 0.08497
 H1086 H 0.37147 0.91639 -0.00073
 C1087 C 0.65823 0.40213 0.33614
 C1088 C 0.63284 0.42650 0.36007
 C1089 C 0.63108 0.42779 0.41134
 C1090 C 0.65704 0.40573 0.43907
 C1091 C 0.68291 0.38104 0.41465
 C1092 C 0.68211 0.37822 0.36303
 C1093 C 0.70833 0.35924 0.44284
 N1094 N 0.70711 0.36162 0.49239
 N1095 N 0.68211 0.38413 0.51545
 C1096 C 0.65697 0.40605 0.49051
 H1097 H 0.65735 0.40004 0.29655
 H1098 H 0.61310 0.44319 0.33845
 H1099 H 0.72926 0.34060 0.42590
 H1100 H 0.63717 0.42334 0.51103
 C1101 C 0.82605 0.60134 0.86992
 C1102 C 0.85215 0.57490 0.88783
 C1103 C 0.89018 0.57409 0.87105
 C1104 C 0.89899 0.59546 0.82827
 C1105 C 0.87305 0.62350 0.81189
 C1106 C 0.83704 0.62728 0.83457
 C1107 C 0.88353 0.64619 0.77195
 N1108 N 0.91658 0.63910 0.74774
 N1109 N 0.93965 0.61079 0.76058
 C1110 C 0.93176 0.58850 0.79940
 H1111 H 0.79795 0.60323 0.88615
 H1112 H 0.84311 0.55764 0.91824
 H1113 H 0.86514 0.66848 0.75846
 H1114 H 0.95013 0.56442 0.80564
 C1115 C 0.16152 0.11590 0.63255
 C1116 C 0.13695 0.09077 0.61134
 C1117 C 0.10031 0.10233 0.59797
 C1118 C 0.08881 0.14046 0.60493
 C1119 C 0.11192 0.16465 0.63222
 C1120 C 0.14963 0.15294 0.64361
 C1121 C 0.09575 0.19928 0.64781
 N1122 N 0.06176 0.21117 0.63017
 N1123 N 0.04259 0.19048 0.59863
 C1124 C 0.05509 0.15563 0.58515
 H1125 H 0.18995 0.10599 0.64104
 H1126 H 0.14668 0.06197 0.60564
 H1127 H 0.10891 0.21643 0.67498
 H1128 H 0.03908 0.14059 0.55825
 C1129 C 0.15965 0.40169 0.34426
 C1130 C 0.13424 0.42722 0.36637
 C1131 C 0.12823 0.42698 0.41710
 C1132 C 0.14950 0.40134 0.44640
 C1133 C 0.17540 0.37533 0.42384
 C1134 C 0.17937 0.37465 0.37213
 C1135 C 0.19638 0.35065 0.45396
 N1136 N 0.19077 0.35122 0.50314
 N1137 N 0.16566 0.37477 0.52419
 C1138 C 0.14478 0.39970 0.49757
 H1139 H 0.16214 0.40157 0.30466
 H1140 H 0.11797 0.44637 0.34345
 H1141 H 0.21750 0.33125 0.43901
 H1142 H 0.12476 0.41788 0.51676
 C1143 C 0.37078 0.63664 0.85747
 C1144 C 0.39629 0.60916 0.87287
 C1145 C 0.38439 0.57344 0.88751
 C1146 C 0.34521 0.56519 0.88386
 C1147 C 0.31875 0.59403 0.86960
 C1148 C 0.33188 0.63011 0.85600
 C1149 C 0.27999 0.58580 0.87055
 N1150 N 0.26873 0.55055 0.88144
 N1151 N 0.29356 0.52301 0.89167
 C1152 C 0.33133 0.52905 0.89312
 H1153 H 0.38191 0.66345 0.84615
 H1154 H 0.42578 0.61676 0.87466
 H1155 H 0.25846 0.60708 0.86370
 H1156 H 0.34996 0.50524 0.90028
 C1157 C 0.62425 0.15384 0.63576
 C1158 C 0.59891 0.12843 0.61615
 C1159 C 0.61013 0.09120 0.60514
 C1160 C 0.64812 0.07954 0.61550
 C1161 C 0.67464 0.10630 0.63207
 C1162 C 0.66227 0.14356 0.64415
 C1163 C 0.71295 0.09485 0.63483
 N1164 N 0.72325 0.05834 0.62719
 N1165 N 0.69784 0.03253 0.61651
 C1166 C 0.66071 0.04181 0.61065
 H1167 H 0.61377 0.18190 0.64484
 H1168 H 0.57026 0.13830 0.60886
 H1169 H 0.73497 0.11465 0.64156
 H1170 H 0.64149 0.01938 0.60348
 C1171 C 0.83539 0.89900 0.14303
 C1172 C 0.85840 0.92440 0.11797
 C1173 C 0.89367 0.91262 0.09859
 C1174 C 0.90538 0.87445 0.10400
 C1175 C 0.88456 0.85041 0.13459
 C1176 C 0.84791 0.86173 0.15137
 C1177 C 0.90178 0.81593 0.14804
 N1178 N 0.93428 0.80389 0.12569
 N1179 N 0.95098 0.82440 0.09137
 C1180 C 0.93744 0.85916 0.07952
 H1181 H 0.80770 0.90850 0.15596
 H1182 H 0.84876 0.95338 0.11401
 H1183 H 0.89036 0.79915 0.17716
 H1184 H 0.95136 0.87425 0.05056
 C1185 C 0.83204 0.12532 0.89515
 C1186 C 0.85656 0.09969 0.91793
 C1187 C 0.88315 0.07846 0.89052
 C1188 C 0.88330 0.08133 0.83878
 C1189 C 0.85842 0.10747 0.81555
 C1190 C 0.83303 0.13001 0.84427
 C1191 C 0.86091 0.11109 0.76432
 N1192 N 0.88557 0.08893 0.73830
 N1193 N 0.90808 0.06358 0.76002
 C1194 C 0.90780 0.05902 0.80931
 H1195 H 0.81297 0.14253 0.91756
 H1196 H 0.85631 0.09807 0.95753
 H1197 H 0.84372 0.13138 0.74468
 H1198 H 0.92641 0.03774 0.82491
 C1199 C 0.15530 0.64039 0.61348
 C1200 C 0.13030 0.61637 0.59056
 C1201 C 0.10413 0.59574 0.61777
 C1202 C 0.10398 0.59865 0.66958
 C1203 C 0.12944 0.62322 0.69300
 C1204 C 0.15536 0.64410 0.66449
 C1205 C 0.12743 0.62662 0.74431
 N1206 N 0.10268 0.60571 0.77027
 N1207 N 0.07974 0.58174 0.74843
 C1208 C 0.07959 0.57743 0.69907
 H1209 H 0.17473 0.65633 0.59117
 H1210 H 0.13080 0.61451 0.55102
 H1211 H 0.14505 0.64581 0.76404
 H1212 H 0.06068 0.55720 0.68354
 C1213 C 0.64640 0.85510 0.38197
 C1214 C 0.62085 0.88106 0.40155
 C1215 C 0.62972 0.91906 0.40584
 C1216 C 0.66662 0.93057 0.39226
 C1217 C 0.69352 0.90352 0.37338
 C1218 C 0.68252 0.86562 0.36598
 C1219 C 0.73051 0.91549 0.36338
 N1220 N 0.73917 0.95222 0.36902
 N1221 N 0.71345 0.97777 0.38406
 C1222 C 0.67750 0.96824 0.39567
 H1223 H 0.63684 0.82655 0.37768
 H1224 H 0.59334 0.87116 0.41291
 H1225 H 0.75294 0.89609 0.35235
 H1226 H 0.65783 0.99028 0.40693
 C1227 C 0.36149 0.38004 0.17428
 C1228 C 0.38622 0.40391 0.15029
 C1229 C 0.38262 0.41161 0.10010
 C1230 C 0.35217 0.39500 0.07386
 C1231 C 0.32784 0.36964 0.09837
 C1232 C 0.33286 0.36213 0.14871
 C1233 C 0.29884 0.35258 0.07175
 N1234 N 0.29393 0.36088 0.02385
 N1235 N 0.31636 0.38471 0.00073
 C1236 C 0.34523 0.40176 0.02379
 H1237 H 0.36553 0.37448 0.21292
 H1238 H 0.40868 0.41635 0.17129
 H1239 H 0.27956 0.33320 0.08873
 H1240 H 0.36227 0.41985 0.00194
 C1241 C 0.66037 0.61600 0.13308
 C1242 C 0.63598 0.59118 0.11093
 C1243 C 0.59967 0.60305 0.09646
 C1244 C 0.58839 0.64126 0.10350
 C1245 C 0.61109 0.66500 0.13206
 C1246 C 0.64857 0.65302 0.14429
 C1247 C 0.59479 0.69951 0.14786
 N1248 N 0.56134 0.71189 0.12914
 N1249 N 0.54283 0.69179 0.09628
 C1250 C 0.55539 0.65702 0.08255
 H1251 H 0.68862 0.60584 0.14212
 H1252 H 0.64569 0.56238 0.10526
 H1253 H 0.60739 0.71614 0.17604
 H1254 H 0.54009 0.64257 0.05447
 C1255 C 0.15806 0.90214 0.83344
 C1256 C 0.13215 0.92582 0.85767
 C1257 C 0.13065 0.92701 0.90896
 C1258 C 0.15728 0.90552 0.93640
 C1259 C 0.18377 0.88168 0.91167
 C1260 C 0.18281 0.87891 0.86004
 C1261 C 0.20989 0.86049 0.93956
 N1262 N 0.20870 0.86253 0.98913
 N1263 N 0.18307 0.88414 1.01249
 C1264 C 0.15726 0.90548 0.98784
 H1265 H 0.15695 0.89997 0.79387
 H1266 H 0.11193 0.94210 0.83630
 H1267 H 0.23132 0.84256 0.92237
 H1268 H 0.13688 0.92190 1.00863
 C1269 C 0.32551 0.10717 0.37856
 C1270 C 0.35108 0.08088 0.39811
 C1271 C 0.38679 0.07434 0.37617
 C1272 C 0.39466 0.09138 0.33029
 C1273 C 0.36975 0.11965 0.31208
 C1274 C 0.33531 0.12790 0.33710
 C1275 C 0.38012 0.13869 0.26901
 N1276 N 0.41203 0.12804 0.24420
 N1277 N 0.43418 0.09975 0.25960
 C1278 C 0.42643 0.08092 0.30151
 H1279 H 0.29897 0.11304 0.39761
 H1280 H 0.34382 0.06750 0.43243
 H1281 H 0.36268 0.16122 0.25412
 H1282 H 0.44439 0.05715 0.31102
 C1283 C 0.85904 0.38955 0.67639
 C1284 C 0.88428 0.41294 0.65251
 C1285 C 0.88537 0.41481 0.60124
 C1286 C 0.85968 0.39328 0.57358
 C1287 C 0.83366 0.36998 0.59799
 C1288 C 0.83463 0.36708 0.64956
 C1289 C 0.80746 0.35010 0.56984
 N1290 N 0.80868 0.35215 0.52030
 N1291 N 0.83433 0.37265 0.49721
 C1292 C 0.85989 0.39302 0.52217
 H1293 H 0.85956 0.38790 0.71597
 H1294 H 0.90355 0.42931 0.67422
 H1295 H 0.78585 0.33327 0.58673
 H1296 H 0.88038 0.40831 0.50172
 C1297 C 0.84306 0.60555 0.14880
 C1298 C 0.86936 0.58183 0.12499
 C1299 C 0.87777 0.58652 0.07517
 C1300 C 0.85814 0.61473 0.04831
 C1301 C 0.83115 0.63865 0.07240
 C1302 C 0.82478 0.63494 0.12354
 C1303 C 0.81157 0.66583 0.04436
 N1304 N 0.81968 0.66958 -0.00400
 N1305 N 0.84598 0.64800 -0.02617
 C1306 C 0.86554 0.62081 -0.00168
 H1307 H 0.83873 0.60239 0.18789
 H1308 H 0.88433 0.56048 0.14604
 H1309 H 0.78960 0.68378 0.06029
 H1310 H 0.88672 0.60430 -0.02144
 C1311 C 0.62855 0.36957 0.65755
 C1312 C 0.60481 0.39583 0.63551
 C1313 C 0.61863 0.42885 0.61390
 C1314 C 0.65834 0.43531 0.61679
 C1315 C 0.68297 0.40732 0.63785
 C1316 C 0.66762 0.37436 0.65887
 C1317 C 0.72228 0.41292 0.63575
 N1318 N 0.73584 0.44529 0.61710
 N1319 N 0.71281 0.47238 0.60035
 C1320 C 0.67468 0.46861 0.59980
 H1321 H 0.61604 0.34477 0.67340
 H1322 H 0.57503 0.38928 0.63466
 H1323 H 0.74247 0.39188 0.64816
 H1324 H 0.65782 0.49211 0.58718
 C1325 C 0.16503 0.11084 0.37308
 C1326 C 0.14098 0.08740 0.39974
 C1327 C 0.10448 0.09988 0.41421
 C1328 C 0.09266 0.13709 0.40205
 C1329 C 0.11508 0.15889 0.37018
 C1330 C 0.15269 0.14684 0.35815
 C1331 C 0.09858 0.19200 0.35084
 N1332 N 0.06478 0.20520 0.36837
 N1333 N 0.04617 0.18719 0.40346
 C1334 C 0.05913 0.15375 0.42114
 H1335 H 0.19350 0.10085 0.36427
 H1336 H 0.15087 0.05921 0.40876
 H1337 H 0.11177 0.20694 0.32116
 H1338 H 0.04368 0.14098 0.45072
 C1339 C 0.34159 0.89467 0.85869
 C1340 C 0.36471 0.91875 0.88542
 C1341 C 0.40038 0.90646 0.90237
 C1342 C 0.41236 0.86880 0.89215
 C1343 C 0.39125 0.84635 0.85977
 C1344 C 0.35416 0.85812 0.84574
 C1345 C 0.40845 0.81277 0.84231
 N1346 N 0.44121 0.79970 0.86226
 N1347 N 0.45807 0.81824 0.89809
 C1348 C 0.44454 0.85213 0.91401
 H1349 H 0.31352 0.90461 0.84854
 H1350 H 0.35451 0.94713 0.89315
 H1351 H 0.39675 0.79740 0.81218
 H1352 H 0.45833 0.86515 0.94452
 C1353 C 0.13228 0.86228 0.65031
 C1354 C 0.10729 0.88647 0.62686
 C1355 C 0.11797 0.92232 0.61108
 C1356 C 0.15581 0.93361 0.62036
 C1357 C 0.18224 0.90767 0.64237
 C1358 C 0.17005 0.87169 0.65816
 C1359 C 0.22008 0.91859 0.64666
 N1360 N 0.23022 0.95373 0.63359
 N1361 N 0.20515 0.97869 0.61616
 C1362 C 0.16840 0.96993 0.60924
 H1363 H 0.12161 0.83541 0.66216
 H1364 H 0.07898 0.87636 0.62082
 H1365 H 0.24192 0.89954 0.65942
 H1366 H 0.14963 0.99182 0.59599
 C1367 C 0.65951 0.64095 0.39192
 C1368 C 0.63630 0.61705 0.41861
 C1369 C 0.61366 0.59108 0.39472
 C1370 C 0.61588 0.58786 0.34298
 C1371 C 0.63908 0.61252 0.31568
 C1372 C 0.66108 0.63950 0.34048
 C1373 C 0.63827 0.61001 0.26432
 N1374 N 0.61734 0.58348 0.24211
 N1375 N 0.59689 0.55935 0.26779
 C1376 C 0.59547 0.56060 0.31738
 H1377 H 0.67608 0.66123 0.41168
 H1378 H 0.63495 0.61983 0.45812
 H1379 H 0.65365 0.62901 0.24155
 H1380 H 0.57869 0.54006 0.33628
 C1381 C 0.33782 0.10388 0.16823
 C1382 C 0.36437 0.08051 0.14412
 C1383 C 0.37205 0.08493 0.09402
 C1384 C 0.35094 0.11205 0.06717
 C1385 C 0.32417 0.13602 0.09175
 C1386 C 0.31921 0.13328 0.14334
 C1387 C 0.30307 0.16198 0.06360
 N1388 N 0.30947 0.16458 0.01469
 N1389 N 0.33542 0.14291 -0.00803
 C1390 C 0.35640 0.11681 0.01650
 H1391 H 0.33361 0.10047 0.20726
 H1392 H 0.38007 0.05967 0.16514
 H1393 H 0.28102 0.17965 0.07981
 H1394 H 0.37697 0.09991 -0.00387
 C1395 C 0.83693 0.38480 0.87939
 C1396 C 0.86203 0.41083 0.89860
 C1397 C 0.89996 0.41285 0.88162
 C1398 C 0.91029 0.39019 0.83964
 C1399 C 0.88528 0.36227 0.82231
 C1400 C 0.84854 0.35943 0.84278
 C1401 C 0.89711 0.33916 0.78279
 N1402 N 0.93041 0.34543 0.75965
 N1403 N 0.95233 0.37358 0.77285
 C1404 C 0.94311 0.39641 0.81116
 H1405 H 0.80842 0.38376 0.89428
 H1406 H 0.85179 0.42821 0.92878
 H1407 H 0.87966 0.31701 0.76888
 H1408 H 0.96023 0.42059 0.81655
 C1409 C 0.66486 0.13524 0.90340
 C1410 C 0.64132 0.11055 0.92799
 C1411 C 0.61758 0.08675 0.90206
 C1412 C 0.61943 0.08599 0.85023
 C1413 C 0.64283 0.11157 0.82506
 C1414 C 0.66558 0.13658 0.85213
 C1415 C 0.64141 0.11208 0.77356
 N1416 N 0.61990 0.08712 0.74927
 N1417 N 0.59939 0.06188 0.77295
 C1418 C 0.59841 0.06044 0.82255
 H1419 H 0.68205 0.15412 0.92458
 H1420 H 0.64033 0.11130 0.96755
 H1421 H 0.65670 0.13225 0.75234
 H1422 H 0.58156 0.03911 0.83984
 C1423 C 0.32435 0.62507 0.60292
 C1424 C 0.34944 0.60141 0.57733
 C1425 C 0.37313 0.57619 0.60237
 C1426 C 0.36934 0.57228 0.65365
 C1427 C 0.34380 0.59629 0.67992
 C1428 C 0.32208 0.62389 0.65418
 C1429 C 0.34251 0.59288 0.73122
 N1430 N 0.36439 0.56654 0.75406
 N1431 N 0.38782 0.54355 0.72916
 C1432 C 0.39111 0.54555 0.67976
 H1433 H 0.30811 0.64601 0.58272
 H1434 H 0.35233 0.60478 0.53812
 H1435 H 0.32443 0.61063 0.75350
 H1436 H 0.41053 0.52614 0.66130
 C1437 C 0.12924 0.38029 0.17419
 C1438 C 0.10567 0.40448 0.14820
 C1439 C 0.11944 0.42685 0.10971
 C1440 C 0.15971 0.42660 0.10073
 C1441 C 0.18375 0.40212 0.12872
 C1442 C 0.16793 0.37798 0.16409
 C1443 C 0.22298 0.40160 0.11944
 N1444 N 0.23763 0.42414 0.08462
 N1445 N 0.21562 0.44693 0.05819
 C1446 C 0.17751 0.44885 0.06468
 H1447 H 0.11685 0.36220 0.20164
 H1448 H 0.07578 0.40428 0.15748
 H1449 H 0.24223 0.38361 0.13966
 H1450 H 0.16268 0.46835 0.04158
 C1451 C 0.84816 0.88809 0.34329
 C1452 C 0.87276 0.91331 0.36435
 C1453 C 0.89697 0.90166 0.40163
 C1454 C 0.89515 0.86447 0.42000
 C1455 C 0.86748 0.83991 0.40187
 C1456 C 0.84560 0.85088 0.36057
 C1457 C 0.86194 0.80598 0.42722
 N1458 N 0.88524 0.79576 0.46432
 N1459 N 0.91335 0.81746 0.47847
 C1460 C 0.91907 0.85142 0.45765
 H1461 H 0.83148 0.89784 0.31251
 H1462 H 0.87372 0.94182 0.35047
 H1463 H 0.83831 0.78840 0.41994
 H1464 H 0.94180 0.86800 0.47137
 C1465 C 0.84068 0.60523 0.67206
 C1466 C 0.86704 0.58190 0.64757
 C1467 C 0.87274 0.58492 0.59684
 C1468 C 0.85005 0.61077 0.56998
 C1469 C 0.82349 0.63473 0.59495
 C1470 C 0.82013 0.63312 0.64680
 C1471 C 0.80109 0.65971 0.56697
 N1472 N 0.80591 0.66128 0.51769
 N1473 N 0.83155 0.63955 0.49449
 C1474 C 0.85383 0.61445 0.51890
 H1475 H 0.83807 0.60302 0.71147
 H1476 H 0.88411 0.56219 0.66866
 H1477 H 0.77937 0.67753 0.58368
 H1478 H 0.87417 0.59759 0.49814
 C1479 C 0.62848 0.36488 0.16263
 C1480 C 0.60295 0.38967 0.14101
 C1481 C 0.61435 0.42425 0.12165
 C1482 C 0.65302 0.43435 0.12717
 C1483 C 0.67968 0.40784 0.14726
 C1484 C 0.66708 0.37272 0.16529
 C1485 C 0.71815 0.41723 0.14733
 N1486 N 0.72883 0.45176 0.13235
 N1487 N 0.70368 0.47746 0.11699
 C1488 C 0.66627 0.47005 0.11406
 H1489 H 0.61777 0.33868 0.17680
 H1490 H 0.57388 0.38080 0.13841
 H1491 H 0.73996 0.39749 0.15844
 H1492 H 0.64748 0.49261 0.10275
 C1493 C 0.34052 0.89080 0.35494
 C1494 C 0.36429 0.91479 0.38086
 C1495 C 0.40013 0.90230 0.39705
 C1496 C 0.41155 0.86445 0.38690
 C1497 C 0.38966 0.84199 0.35534
 C1498 C 0.35244 0.85403 0.34208
 C1499 C 0.40640 0.80828 0.33760
 N1500 N 0.43944 0.79510 0.35664
 N1501 N 0.45707 0.81366 0.39179
 C1502 C 0.44404 0.84770 0.40785
 H1503 H 0.31250 0.90108 0.34505
 H1504 H 0.35457 0.94339 0.38821
 H1505 H 0.39420 0.79296 0.30782
 H1506 H 0.45850 0.86079 0.43776
 C1507 C 0.15897 0.14134 0.89176
 C1508 C 0.13643 0.11667 0.91818
 C1509 C 0.11349 0.09113 0.89394
 C1510 C 0.11459 0.08923 0.84207
 C1511 C 0.13698 0.11474 0.81513
 C1512 C 0.15944 0.14107 0.84031
 C1513 C 0.13495 0.11378 0.76377
 N1514 N 0.11370 0.08774 0.74109
 N1515 N 0.09407 0.06269 0.76635
 C1516 C 0.09382 0.06251 0.81599
 H1517 H 0.17594 0.16117 0.91170
 H1518 H 0.13583 0.11848 0.95781
 H1519 H 0.14957 0.13371 0.74149
 H1520 H 0.07769 0.04127 0.83454
 C1521 C 0.13028 0.87015 0.15872
 C1522 C 0.10652 0.89645 0.13677
 C1523 C 0.12048 0.92853 0.11297
 C1524 C 0.16043 0.93420 0.11400
 C1525 C 0.18500 0.90618 0.13515
 C1526 C 0.16949 0.87399 0.15788
 C1527 C 0.22437 0.91092 0.13147
 N1528 N 0.23819 0.94253 0.11102
 N1529 N 0.21535 0.96967 0.09400
 C1530 C 0.17711 0.96670 0.09503
 H1531 H 0.11768 0.84596 0.17603
 H1532 H 0.07657 0.89057 0.13766
 H1533 H 0.24439 0.88983 0.14419
 H1534 H 0.16051 0.99026 0.08211
 C1535 C 0.84097 0.39500 0.35929
 C1536 C 0.86394 0.41927 0.38590
 C1537 C 0.89931 0.40694 0.40366
 C1538 C 0.91113 0.36908 0.39464
 C1539 C 0.89029 0.34633 0.36237
 C1540 C 0.85344 0.35820 0.34734
 C1541 C 0.90753 0.31241 0.34610
 N1542 N 0.93991 0.29943 0.36710
 N1543 N 0.95643 0.31838 0.40284
 C1544 C 0.94291 0.35258 0.41761
 H1545 H 0.81309 0.40500 0.34841
 H1546 H 0.85389 0.44782 0.39284
 H1547 H 0.89621 0.29669 0.31604
 H1548 H 0.95645 0.36605 0.44801
 C1549 C 0.34084 0.10315 0.65108
 C1550 C 0.36757 0.07952 0.62795
 C1551 C 0.37869 0.08598 0.57940
 C1552 C 0.36132 0.11567 0.55282
 C1553 C 0.33348 0.13911 0.57589
 C1554 C 0.32468 0.13392 0.62622
 C1555 C 0.31560 0.16736 0.54777
 N1556 N 0.32651 0.17288 0.50063
 N1557 N 0.35393 0.15195 0.47970
 C1558 C 0.37175 0.12361 0.50418
 H1559 H 0.33459 0.09882 0.68956
 H1560 H 0.38084 0.05694 0.64870
 H1561 H 0.29275 0.18475 0.56261
 H1562 H 0.39382 0.10753 0.48540
 C1563 C 0.66838 0.60933 0.87399
 C1564 C 0.64547 0.58440 0.89996
 C1565 C 0.60943 0.59588 0.91699
 C1566 C 0.59696 0.63351 0.90880
 C1567 C 0.61806 0.65711 0.87773
 C1568 C 0.65522 0.64588 0.86243
 C1569 C 0.60045 0.69086 0.86207
 N1570 N 0.56704 0.70264 0.88234
 N1571 N 0.54970 0.68257 0.91656
 C1572 C 0.56363 0.64848 0.93063
 H1573 H 0.69653 0.59992 0.86269
 H1574 H 0.65568 0.55583 0.90602
 H1575 H 0.61221 0.70728 0.83282
 H1576 H 0.54885 0.63355 0.95911
 C1577 C 0.35430 0.38528 0.83796
 C1578 C 0.38025 0.40925 0.85865
 C1579 C 0.39955 0.39871 0.90091
 C1580 C 0.39154 0.36426 0.92430
 C1581 C 0.36278 0.34133 0.90559
 C1582 C 0.34570 0.35082 0.86024
 C1583 C 0.35136 0.31054 0.93402
 N1584 N 0.37013 0.30141 0.97561
 N1585 N 0.39918 0.32134 0.99111
 C1586 C 0.41051 0.35242 0.96692
 H1587 H 0.34144 0.39357 0.80363
 H1588 H 0.38588 0.43587 0.84104
 H1589 H 0.32677 0.29467 0.92497
 H1590 H 0.43385 0.36772 0.98157
 C1591 C 0.82025 0.11678 0.10855
 C1592 C 0.84513 0.09206 0.08388
 C1593 C 0.87658 0.07628 0.10794
 C1594 C 0.88112 0.08279 0.15868
 C1595 C 0.85718 0.10928 0.18296
 C1596 C 0.82648 0.12634 0.15759
 C1597 C 0.86601 0.11904 0.23139
 N1598 N 0.89508 0.10132 0.25471
 N1599 N 0.91594 0.07444 0.23286
 C1600 C 0.90977 0.06436 0.18578
 H1601 H 0.79723 0.13010 0.08856
 H1602 H 0.84121 0.08722 0.04510
 H1603 H 0.84991 0.14022 0.25120
 H1604 H 0.92716 0.04194 0.17002
 C1605 C 0.63312 0.88563 0.68222
 C1606 C 0.60946 0.90979 0.65616
 C1607 C 0.62189 0.92784 0.61325
 C1608 C 0.66104 0.92341 0.59917
 C1609 C 0.68537 0.89955 0.62748
 C1610 C 0.67062 0.87941 0.66761
 C1611 C 0.72368 0.89544 0.61379
 N1612 N 0.73699 0.91351 0.57387
 N1613 N 0.71443 0.93507 0.54647
 C1614 C 0.67714 0.94044 0.55732
 H1615 H 0.62160 0.87055 0.71323
 H1616 H 0.58042 0.91302 0.66887
 H1617 H 0.74320 0.87816 0.63467
 H1618 H 0.66139 0.95788 0.53247
 C1619 C 0.16320 0.63559 0.40085
 C1620 C 0.13974 0.61115 0.42599
 C1621 C 0.11626 0.58680 0.40057
 C1622 C 0.11808 0.58542 0.34875
 C1623 C 0.14142 0.61074 0.32300
 C1624 C 0.16406 0.63617 0.34956
 C1625 C 0.14004 0.61054 0.27148
 N1626 N 0.11859 0.58521 0.24776
 N1627 N 0.09809 0.56027 0.27202
 C1628 C 0.09709 0.55949 0.32164
 H1629 H 0.18028 0.65482 0.42165
 H1630 H 0.13864 0.61248 0.46555
 H1631 H 0.15529 0.63045 0.24974
 H1632 H 0.08021 0.53840 0.33940
   
