data_POSCAR
  _audit_creation_date              2014-09-24
  _audit_creation_method            'ToBaCCo'
  _symmetry_space_group_name_H-M    'P1'
  _symmetry_Int_Tables_number       1
  _symmetry_cell_setting            triclinic
  loop_
  _symmetry_equiv_pos_as_xyz
 x,y,z
_cell_length_a 51.6102
_cell_length_b 52.3906
_cell_length_c 52.1045
_cell_angle_alpha 93.945500
_cell_angle_beta 93.904300
_cell_angle_gamma 94.822700
loop_
  _atom_site_label
  _atom_site_type_symbol
  _atom_site_fract_x
  _atom_site_fract_y
  _atom_site_fract_z
C1 C 0.71705 0.67790 0.98094
 H2 H 0.73384 0.68890 0.99077
 C3 C 0.69693 0.69084 0.96984
 H4 H 0.69903 0.71161 0.97045
 C5 C 0.69319 0.63779 0.96909
 H6 H 0.69130 0.61720 0.96968
 C7 C 0.67267 0.64987 0.95791
 H8 H 0.65535 0.63824 0.94973
 N9 N 0.71522 0.65173 0.97962
 C10 C 0.78372 0.64311 1.02970
 H11 H 0.77530 0.62588 1.03729
 C12 C 0.80789 0.65421 1.04030
 H13 H 0.81745 0.64502 1.05583
 C14 C 0.78279 0.67343 0.99812
 H15 H 0.77388 0.67982 0.98061
 C16 C 0.80664 0.68572 1.00871
 H17 H 0.81477 0.70241 0.99993
 Zn18 Zn 0.74167 0.63204 0.99335
 N19 N 0.77159 0.65273 1.00897
 C20 C 0.77858 0.61397 0.96126
 N21 N 0.75318 0.60975 0.96658
 C22 C 0.73699 0.59114 0.95264
 C23 C 0.74607 0.57650 0.93213
 C24 C 0.78842 0.59977 0.94119
 C25 C 0.71876 0.62949 1.03874
 C26 C 0.70962 0.61956 1.06081
 C27 C 0.71625 0.57702 1.04305
 C28 C 0.72563 0.58800 1.02126
 N29 N 0.72699 0.61386 1.01976
 H30 H 0.79141 0.62857 0.97237
 H31 H 0.71708 0.58743 0.95738
 H32 H 0.73302 0.56176 0.92125
 H33 H 0.80860 0.60388 0.93715
 H34 H 0.71971 0.64998 1.03683
 H35 H 0.70241 0.63308 1.07461
 H36 H 0.71681 0.55653 1.04383
 H37 H 0.73254 0.57593 1.00596
 C38 C 0.81987 0.67588 1.02989
 C39 C 0.67455 0.67672 0.95771
 C40 C 0.70864 0.59285 1.06397
 C41 C 0.77214 0.58081 0.92625
 C42 C 0.72524 0.35063 0.50408
 H43 H 0.74327 0.35326 0.51620
 C44 C 0.70525 0.33286 0.50994
 H45 H 0.70810 0.32210 0.52676
 C46 C 0.69913 0.36289 0.46862
 H47 H 0.69666 0.37486 0.45273
 C48 C 0.67868 0.34518 0.47367
 H49 H 0.66079 0.34353 0.46133
 N50 N 0.72176 0.36551 0.48395
 C51 C 0.79664 0.39144 0.45714
 H52 H 0.79332 0.41117 0.45431
 C53 C 0.81847 0.38125 0.44756
 H54 H 0.83213 0.39339 0.43789
 C55 C 0.78223 0.35121 0.47182
 H56 H 0.76778 0.33930 0.48059
 C57 C 0.80403 0.34033 0.46285
 H58 H 0.80617 0.32016 0.46490
 Zn59 Zn 0.74835 0.39144 0.47823
 N60 N 0.77893 0.37639 0.46886
 C61 C 0.77707 0.43171 0.50977
 N62 N 0.75627 0.41381 0.50872
 C63 C 0.74237 0.41053 0.52971
 C64 C 0.75065 0.42374 0.55344
 C65 C 0.78587 0.44557 0.53305
 C66 C 0.73783 0.39835 0.42624
 C67 C 0.72949 0.41056 0.40463
 C68 C 0.71903 0.44613 0.43295
 C69 C 0.72796 0.43335 0.45407
 N70 N 0.73693 0.40982 0.45032
 H71 H 0.78749 0.43460 0.49279
 H72 H 0.72533 0.39695 0.52844
 H73 H 0.74023 0.41943 0.57017
 H74 H 0.80293 0.45916 0.53357
 H75 H 0.74508 0.37961 0.42385
 H76 H 0.73083 0.40118 0.38566
 H77 H 0.71122 0.46450 0.43637
 H78 H 0.72730 0.44197 0.47345
 C79 C 0.82223 0.35534 0.45021
 C80 C 0.68142 0.33017 0.49484
 C81 C 0.71965 0.43469 0.40777
 C82 C 0.77324 0.44091 0.55557
 C83 C 0.24160 -0.13598 0.01262
 H84 H 0.26083 -0.13182 0.02237
 C85 C 0.22308 -0.15233 0.02308
 H86 H 0.22851 -0.16106 0.04066
 C87 C 0.21155 -0.12962 -0.02230
 H88 H 0.20713 -0.12071 -0.03997
 C89 C 0.19222 -0.14549 -0.01221
 H90 H 0.17294 -0.14807 -0.02207
 N91 N 0.23551 -0.12476 -0.00949
 C92 C 0.31248 -0.10442 -0.03619
 H93 H 0.31334 -0.08373 -0.03632
 C94 C 0.33360 -0.11737 -0.04383
 H95 H 0.35070 -0.10656 -0.04977
 C96 C 0.28863 -0.14384 -0.02981
 H97 H 0.27096 -0.15426 -0.02485
 C98 C 0.30915 -0.15752 -0.03746
 H99 H 0.30716 -0.17829 -0.03791
 Zn100 Zn 0.26128 -0.10040 -0.01982
 N101 N 0.29057 -0.11775 -0.02924
 C102 C 0.29522 -0.07048 0.01899
 N103 N 0.27008 -0.07679 0.00953
 C104 C 0.24985 -0.06962 0.02301
 C105 C 0.25446 -0.05665 0.04742
 C106 C 0.30071 -0.05708 0.04314
 C107 C 0.25861 -0.08539 -0.07133
 C108 C 0.24737 -0.07495 -0.09297
 C109 C 0.21333 -0.06130 -0.06708
 C110 C 0.22568 -0.07133 -0.04586
 N111 N 0.24755 -0.08368 -0.04840
 H112 H 0.31111 -0.07686 0.00859
 H113 H 0.23003 -0.07549 0.01560
 H114 H 0.23814 -0.05222 0.05842
 H115 H 0.32078 -0.05324 0.05089
 H116 H 0.27574 -0.09564 -0.07326
 H117 H 0.25634 -0.07811 -0.11093
 H118 H 0.19628 -0.05125 -0.06368
 H119 H 0.21725 -0.06995 -0.02747
 C120 C 0.33191 -0.14429 -0.04475
 C121 C 0.19772 -0.15676 0.01106
 C122 C 0.22372 -0.06325 -0.09157
 C123 C 0.28015 -0.05074 0.05795
 C124 C 0.21031 0.17195 0.46842
 H125 H 0.23057 0.17573 0.46465
 C126 C 0.19154 0.18645 0.45728
 H127 H 0.19776 0.20182 0.44563
 C128 C 0.17771 0.14704 0.48783
 H129 H 0.17219 0.13114 0.49903
 C130 C 0.15834 0.16072 0.47680
 H131 H 0.13819 0.15503 0.47981
 N132 N 0.20321 0.15301 0.48383
 C133 C 0.27373 0.13746 0.52917
 H134 H 0.26897 0.11693 0.52889
 C135 C 0.29756 0.14834 0.54073
 H136 H 0.31100 0.13595 0.54925
 C137 C 0.26253 0.17800 0.51665
 H138 H 0.24891 0.18944 0.50711
 C139 C 0.28640 0.18972 0.52791
 H140 H 0.29091 0.21019 0.52700
 Zn141 Zn 0.22854 0.13253 0.49795
 N142 N 0.25710 0.15213 0.51677
 C143 C 0.26711 0.11937 0.46548
 N144 N 0.24176 0.11360 0.47015
 C145 C 0.22607 0.09604 0.45442
 C146 C 0.23610 0.08296 0.43343
 C147 C 0.27787 0.10678 0.44496
 C148 C 0.20306 0.12353 0.54175
 C149 C 0.19193 0.10995 0.56088
 C150 C 0.20354 0.07057 0.53949
 C151 C 0.21403 0.08495 0.52030
 N152 N 0.21340 0.11095 0.52173
 H153 H 0.27909 0.13408 0.47739
 H154 H 0.20581 0.09219 0.45820
 H155 H 0.22359 0.06872 0.42129
 H156 H 0.29809 0.11180 0.44160
 H157 H 0.20337 0.14425 0.54270
 H158 H 0.18350 0.12026 0.57654
 H159 H 0.20406 0.04990 0.53830
 H160 H 0.22295 0.07541 0.50456
 C161 C 0.30448 0.17469 0.53967
 C162 C 0.16506 0.18094 0.46144
 C163 C 0.19209 0.08318 0.55988
 C164 C 0.26245 0.08814 0.42876
 C165 C 0.17519 0.48579 0.22693
 H166 H 0.17218 0.47492 0.24356
 C167 C 0.18884 0.47575 0.20687
 H168 H 0.19606 0.45706 0.20833
 C169 C 0.16707 0.52211 0.20398
 H170 H 0.15787 0.53972 0.20239
 C171 C 0.18110 0.51310 0.18378
 H172 H 0.18310 0.52450 0.16737
 N173 N 0.16405 0.50825 0.22487
 C174 C 0.14102 0.53829 0.29914
 H175 H 0.12026 0.53722 0.29404
 C176 C 0.15073 0.54666 0.32413
 H177 H 0.13739 0.55228 0.33822
 C178 C 0.18354 0.53168 0.28694
 H179 H 0.19607 0.52544 0.27237
 C180 C 0.19420 0.54034 0.31179
 H181 H 0.21502 0.54072 0.31637
 Zn182 Zn 0.14024 0.51684 0.24956
 N183 N 0.15731 0.53041 0.28136
 C184 C 0.12422 0.47612 0.27860
 N185 N 0.12029 0.48585 0.25525
 C186 C 0.10513 0.47227 0.23570
 C187 C 0.09302 0.44798 0.23945
 C188 C 0.11272 0.45202 0.28309
 C189 C 0.13273 0.56600 0.23688
 C190 C 0.11988 0.58667 0.22876
 C191 C 0.07959 0.55923 0.22377
 C192 C 0.09335 0.53888 0.23187
 N193 N 0.11955 0.54258 0.23787
 H194 H 0.13701 0.48657 0.29369
 H195 H 0.10295 0.48002 0.21704
 H196 H 0.08119 0.43725 0.22370
 H197 H 0.11609 0.44477 0.30189
 H198 H 0.15348 0.56852 0.24217
 H199 H 0.13116 0.60483 0.22731
 H200 H 0.05875 0.55602 0.21914
 H201 H 0.08309 0.52028 0.23342
 C202 C 0.17754 0.54738 0.33080
 C203 C 0.19142 0.48914 0.18455
 C204 C 0.09292 0.58355 0.22206
 C205 C 0.09711 0.43749 0.26334
 C206 C -0.14762 0.02037 0.22595
 H207 H -0.14341 0.03068 0.24468
 C208 C -0.16467 0.02970 0.20767
 H209 H -0.17419 0.04653 0.21349
 C210 C -0.14034 -0.01446 0.19678
 H211 H -0.13024 -0.03130 0.19241
 C212 C -0.15715 -0.00576 0.17780
 H213 H -0.15894 -0.01614 0.15902
 N214 N -0.13571 -0.00121 0.22019
 C215 C -0.11015 -0.03380 0.29097
 H216 H -0.09034 -0.03690 0.28684
 C217 C -0.12037 -0.04318 0.31292
 H218 H -0.10833 -0.05341 0.32580
 C219 C -0.15014 -0.01709 0.27895
 H220 H -0.16188 -0.00739 0.26543
 C221 C -0.16101 -0.02577 0.30092
 H222 H -0.18105 -0.02266 0.30418
 Zn223 Zn -0.10993 -0.01040 0.24450
 N224 N -0.12506 -0.02108 0.27449
 C225 C -0.07797 0.02623 0.27795
 N226 N -0.08629 0.01906 0.25295
 C227 C -0.08078 0.03450 0.23372
 C228 C -0.06764 0.05883 0.23948
 C229 C -0.06433 0.05021 0.28450
 C230 C -0.10572 -0.06180 0.22927
 C231 C -0.09398 -0.08316 0.21973
 C232 C -0.05637 -0.05495 0.21170
 C233 C -0.06870 -0.03415 0.22178
 N234 N -0.09296 -0.03794 0.23023
 H235 H -0.08283 0.01387 0.29299
 H236 H -0.08785 0.02845 0.21404
 H237 H -0.06445 0.07142 0.22415
 H238 H -0.05884 0.05612 0.30460
 H239 H -0.12497 -0.06424 0.23627
 H240 H -0.10428 -0.10201 0.21981
 H241 H -0.03729 -0.05143 0.20454
 H242 H -0.05897 -0.01498 0.22272
 C243 C -0.14610 -0.03917 0.31805
 C244 C -0.16933 0.01710 0.18270
 C245 C -0.06895 -0.07994 0.21070
 C246 C -0.05977 0.06710 0.26522
 C247 C 0.35735 0.49711 0.73371
 H248 H 0.36064 0.50794 0.75216
 C249 C 0.34023 0.50549 0.71490
 H250 H 0.33063 0.52267 0.71936
 C251 C 0.36797 0.46342 0.70476
 H252 H 0.37930 0.44746 0.70053
 C253 C 0.35076 0.47097 0.68541
 H254 H 0.34871 0.46029 0.66674
 N255 N 0.37111 0.47661 0.72836
 C256 C 0.37976 0.43577 0.79238
 H257 H 0.38962 0.42126 0.78229
 C258 C 0.36655 0.42940 0.81385
 H259 H 0.36630 0.41000 0.81983
 C260 C 0.36913 0.47879 0.79794
 H261 H 0.37080 0.49820 0.79217
 C262 C 0.35580 0.47328 0.81962
 H263 H 0.34663 0.48839 0.82983
 Zn264 Zn 0.39661 0.46844 0.75400
 N265 N 0.38018 0.45996 0.78433
 C266 C 0.43512 0.49932 0.78536
 N267 N 0.42024 0.49785 0.76267
 C268 C 0.42033 0.51796 0.74750
 C269 C 0.43433 0.54133 0.75587
 C270 C 0.44959 0.52230 0.79440
 C271 C 0.40107 0.41756 0.73410
 C272 C 0.41369 0.39710 0.72381
 C273 C 0.45386 0.42477 0.72729
 C274 C 0.44057 0.44459 0.73797
 N275 N 0.41460 0.44072 0.74103
 H276 H 0.43480 0.48297 0.79698
 H277 H 0.40868 0.51626 0.72934
 H278 H 0.43276 0.55752 0.74420
 H279 H 0.46068 0.52335 0.81290
 H280 H 0.38033 0.41509 0.73623
 H281 H 0.40260 0.37890 0.71801
 H282 H 0.47444 0.42820 0.72454
 H283 H 0.45091 0.46319 0.74335
 C284 C 0.35401 0.44819 0.82752
 C285 C 0.33694 0.49258 0.69022
 C286 C 0.44033 0.40072 0.72005
 C287 C 0.44856 0.54399 0.78001
 C288 C 0.67087 0.98317 0.70976
 H289 H 0.67927 0.98638 0.72939
 C290 C 0.68659 0.97586 0.69016
 H291 H 0.70710 0.97403 0.69480
 C292 C 0.63385 0.98001 0.67990
 H293 H 0.61316 0.98046 0.67601
 C294 C 0.64886 0.97303 0.65974
 H295 H 0.63949 0.96855 0.64054
 N296 N 0.64493 0.98508 0.70436
 C297 C 0.63581 0.98825 0.78437
 H298 H 0.62077 0.97248 0.78250
 C299 C 0.64719 0.99685 0.80883
 H300 H 0.63982 0.98747 0.82502
 C301 C 0.66116 1.02048 0.76531
 H302 H 0.66618 1.02988 0.74825
 C303 C 0.67314 1.02972 0.78941
 H304 H 0.68817 1.04544 0.78994
 Zn305 Zn 0.62252 0.99145 0.73131
 N306 N 0.64236 1.00052 0.76329
 C307 C 0.61234 0.93830 0.72880
 N308 N 0.60162 0.96066 0.73447
 C309 C 0.57827 0.96087 0.74504
 C310 C 0.56517 0.93788 0.75119
 C311 C 0.59991 0.91494 0.73454
 C312 C 0.60489 1.04088 0.73940
 C313 C 0.59258 1.06247 0.73285
 C314 C 0.57124 1.03775 0.69542
 C315 C 0.58383 1.01649 0.70285
 N316 N 0.60136 1.01874 0.72380
 H317 H 0.63112 0.93865 0.72078
 H318 H 0.57045 0.97898 0.74981
 H319 H 0.54722 0.93849 0.76074
 H320 H 0.60903 0.89741 0.73033
 H321 H 0.61777 1.04222 0.75669
 H322 H 0.59634 1.08006 0.74521
 H323 H 0.55861 1.03594 0.67781
 H324 H 0.57990 0.99839 0.69151
 C325 C 0.66576 1.01847 0.81203
 C326 C 0.67553 0.97063 0.66479
 C327 C 0.57632 1.06142 0.71003
 C328 C 0.57635 0.91458 0.74650
 C329 C 0.01437 0.22990 -0.13696
 H330 H 0.02141 0.24974 -0.13842
 C331 C 0.02339 0.21060 -0.15285
 H332 H 0.03714 0.21579 -0.16682
 C333 C -0.01204 0.19914 -0.11675
 H334 H -0.02552 0.19482 -0.10232
 C335 C -0.00343 0.17918 -0.13221
 H336 H -0.01027 0.15954 -0.12940
 N337 N -0.00283 0.22386 -0.11921
 C338 C -0.01534 0.30337 -0.10765
 H339 H -0.00659 0.30806 -0.08835
 C340 C -0.02254 0.32315 -0.12257
 H341 H -0.01956 0.34280 -0.11430
 C342 C -0.03093 0.27225 -0.14150
 H343 H -0.03431 0.25234 -0.14879
 C344 C -0.03826 0.29138 -0.15710
 H345 H -0.04701 0.28595 -0.17639
 Zn346 Zn -0.01262 0.25076 -0.09690
 N347 N -0.01995 0.27844 -0.11715
 C348 C 0.01345 0.27906 -0.05217
 N349 N 0.01550 0.26068 -0.07152
 C350 C 0.03824 0.24969 -0.07412
 C351 C 0.06048 0.25835 -0.05823
 C352 C 0.03530 0.28831 -0.03572
 C353 C -0.06512 0.23354 -0.09825
 C354 C -0.08871 0.22467 -0.08908
 C355 C -0.06752 0.22788 -0.04612
 C356 C -0.04429 0.23673 -0.05625
 N357 N -0.04351 0.23934 -0.08191
 H358 H -0.00497 0.28706 -0.04991
 H359 H 0.03957 0.23477 -0.08918
 H360 H 0.07863 0.25028 -0.06184
 H361 H 0.03348 0.30347 -0.02093
 H362 H -0.06410 0.23586 -0.11860
 H363 H -0.10532 0.22175 -0.10305
 H364 H -0.06641 0.22491 -0.02579
 H365 H -0.02674 0.24097 -0.04361
 C366 C -0.03451 0.31722 -0.14754
 C367 C 0.01479 0.18480 -0.15033
 C368 C -0.09061 0.22129 -0.06250
 C369 C 0.05944 0.27841 -0.03913
 C370 C 0.47307 0.21702 0.18089
 H371 H 0.46957 0.23646 0.18715
 C372 C 0.46343 0.19650 0.19444
 H373 H 0.45330 0.20058 0.21156
 C374 C 0.49017 0.18824 0.15078
 H375 H 0.49993 0.18495 0.13332
 C376 C 0.48041 0.16725 0.16331
 H377 H 0.48281 0.14816 0.15502
 N378 N 0.48657 0.21258 0.15974
 C379 C 0.52835 0.28509 0.14388
 H380 H 0.52616 0.28124 0.12314
 C381 C 0.54077 0.30837 0.15447
 H382 H 0.54793 0.32232 0.14164
 C383 C 0.52002 0.27196 0.18538
 H384 H 0.51185 0.25775 0.19731
 C385 C 0.53228 0.29528 0.19688
 H386 H 0.53349 0.29879 0.21767
 Zn387 Zn 0.49846 0.23954 0.13972
 N388 N 0.51770 0.26770 0.15922
 C389 C 0.46379 0.27648 0.13042
 N390 N 0.46901 0.25223 0.12270
 C391 C 0.45301 0.23757 0.10452
 C392 C 0.43137 0.24776 0.09258
 C393 C 0.44267 0.28735 0.11900
 C394 C 0.54408 0.21985 0.12900
 C395 C 0.56437 0.21188 0.11507
 C396 C 0.53912 0.21830 0.07563
 C397 C 0.51916 0.22634 0.09045
 N398 N 0.52211 0.22698 0.11667
 H399 H 0.47585 0.28754 0.14566
 H400 H 0.45717 0.21811 0.09915
 H401 H 0.41909 0.23620 0.07772
 H402 H 0.43904 0.30677 0.12536
 H403 H 0.54592 0.22069 0.14985
 H404 H 0.58162 0.20619 0.12540
 H405 H 0.53683 0.21819 0.05481
 H406 H 0.50168 0.23249 0.08106
 C407 C 0.54250 0.31398 0.18127
 C408 C 0.46696 0.17109 0.18563
 C409 C 0.56225 0.21133 0.08805
 C410 C 0.42637 0.27315 0.09957
 C411 C 0.97469 0.68509 0.64176
 H412 H 0.97220 0.68568 0.62108
 C413 C 0.96471 0.66342 0.65311
 H414 H 0.95549 0.64717 0.64088
 C415 C 0.98832 0.70605 0.68277
 H416 H 0.99680 0.72295 0.69432
 C417 C 0.97863 0.68463 0.69497
 H418 H 0.97992 0.68524 0.71584
 N419 N 0.98629 0.70586 0.65655
 C420 C 0.99275 0.78637 0.65520
 H421 H 0.97785 0.78532 0.63951
 C422 C 1.00049 0.81009 0.66836
 H423 H 0.99142 0.82676 0.66223
 C424 C 1.02417 0.76645 0.68024
 H425 H 1.03400 0.74954 0.68410
 C426 C 1.03229 0.78986 0.69425
 H427 H 1.04781 0.79046 0.70939
 Zn428 Zn 0.99629 0.73495 0.63837
 N429 N 1.00486 0.76517 0.66092
 C430 C 0.94368 0.73896 0.62718
 N431 N 0.96704 0.74082 0.61655
 C432 C 0.96944 0.74965 0.59283
 C433 C 0.94782 0.75806 0.57926
 C434 C 0.92161 0.74691 0.61425
 C435 C 1.02493 0.70724 0.60247
 C436 C 1.04740 0.70098 0.59075
 C437 C 1.07028 0.73968 0.61177
 C438 C 1.04743 0.74519 0.62305
 N439 N 1.02553 0.72860 0.61900
 H440 H 0.94243 0.73221 0.64625
 H441 H 0.98837 0.75141 0.58507
 H442 H 0.95033 0.76625 0.56098
 H443 H 0.90330 0.74559 0.62326
 H444 H 1.00731 0.69455 0.59888
 H445 H 1.04684 0.68322 0.57872
 H446 H 1.08765 0.75281 0.61583
 H447 H 1.04749 0.76252 0.63550
 C448 C 1.02076 0.81227 0.68800
 C449 C 0.96635 0.66307 0.68005
 C450 C 1.07068 0.71693 0.59598
 C451 C 0.92363 0.75730 0.59028
 C452 C 0.49913 0.72895 0.34768
 H453 H 0.50200 0.74872 0.34300
 C454 C 0.50723 0.70958 0.33115
 H455 H 0.51631 0.71464 0.31384
 C456 C 0.48413 0.69837 0.37595
 H457 H 0.47553 0.69399 0.39359
 C458 C 0.49189 0.67837 0.35992
 H459 H 0.48942 0.65888 0.36564
 N460 N 0.48850 0.72318 0.36999
 C461 C 0.47973 0.80248 0.38347
 H462 H 0.49331 0.80626 0.40030
 C463 C 0.47120 0.82293 0.37040
 H464 H 0.47811 0.84212 0.37823
 C465 C 0.45318 0.77263 0.35480
 H466 H 0.44638 0.75289 0.34881
 C467 C 0.44408 0.79249 0.34110
 H468 H 0.43092 0.78723 0.32418
 Zn469 Zn 0.48270 0.75085 0.39391
 N470 N 0.47067 0.77794 0.37553
 C471 C 0.53456 0.76978 0.39657
 N472 N 0.51533 0.76261 0.41185
 C473 C 0.51992 0.76366 0.43798
 C474 C 0.54500 0.77117 0.44949
 C475 C 0.55969 0.77746 0.40719
 C476 C 0.43304 0.74805 0.41364
 C477 C 0.41311 0.73822 0.42799
 C478 C 0.44386 0.71290 0.44930
 C479 C 0.46309 0.72293 0.43428
 N480 N 0.45734 0.73989 0.41658
 H481 H 0.53040 0.76958 0.37598
 H482 H 0.50430 0.75860 0.44996
 H483 H 0.54850 0.77135 0.47023
 H484 H 0.57454 0.78324 0.39452
 H485 H 0.42875 0.76152 0.39950
 H486 H 0.39366 0.74409 0.42437
 H487 H 0.44894 0.69937 0.46320
 H488 H 0.48252 0.71666 0.43633
 C489 C 0.45294 0.81835 0.34875
 C490 C 0.50431 0.68397 0.33758
 C491 C 0.41826 0.72002 0.44581
 C492 C 0.56537 0.77779 0.43394
 C493 C 0.37894 -0.03135 0.27036
 C494 C 0.35891 -0.03650 0.24708
 C495 C 0.34620 -0.01578 0.24104
 C496 C 0.35455 0.00849 0.25888
 C497 C 0.39697 -0.00838 0.26311
 C498 C 0.38432 0.01263 0.25712
 C499 C 0.36388 -0.02038 0.29206
 C500 C 0.35133 0.00052 0.28642
 H501 H 0.35749 -0.05388 0.23434
 H502 H 0.34349 0.02491 0.25384
 H503 H 0.41775 -0.00904 0.26221
 H504 H 0.36387 -0.02822 0.31078
 C505 C 0.09466 1.03884 0.75710
 C506 C 0.10528 1.04530 0.73158
 C507 C 0.11885 1.02693 0.72051
 C508 C 0.12100 1.00337 0.73642
 C509 C 0.07881 1.01251 0.75116
 C510 C 0.09252 0.99387 0.74022
 C511 C 0.11840 1.03268 0.77400
 C512 C 0.13187 1.01370 0.76373
 H513 H 0.10167 1.06289 0.72269
 H514 H 0.13268 0.98888 0.72736
 H515 H 0.05961 1.00802 0.75752
 H516 H 0.12103 1.03908 0.79432
 C517 C 0.59675 0.54333 0.25113
 C518 C 0.61129 0.55150 0.22803
 C519 C 0.62794 0.53468 0.21943
 C520 C 0.62813 0.51040 0.23437
 C521 C 0.58295 0.51669 0.24182
 C522 C 0.59942 0.49933 0.23328
 C523 C 0.61810 0.53759 0.27126
 C524 C 0.63431 0.52023 0.26276
 H525 H 0.60851 0.56925 0.21911
 H526 H 0.64203 0.49686 0.22752
 H527 H 0.56219 0.51187 0.24155
 H528 H 0.61825 0.54436 0.29141
 C529 C 0.88596 0.46071 0.76617
 C530 C 0.86727 0.45463 0.74200
 C531 C 0.85284 0.47421 0.73578
 C532 C 0.85818 0.49826 0.75465
 C533 C 0.90231 0.48535 0.76028
 C534 C 0.88776 0.50500 0.75415
 C535 C 0.86892 0.46930 0.78728
 C536 C 0.85479 0.48918 0.78177
 H537 H 0.86839 0.43796 0.72874
 H538 H 0.84610 0.51412 0.74995
 H539 H 0.92306 0.48625 0.75811
 H540 H 0.86958 0.46137 0.80596
 C541 C 0.26816 0.39183 -0.01599
 C542 C 0.24337 0.37328 -0.01916
 C543 C 0.23742 0.36200 0.00270
 C544 C 0.25688 0.37018 0.02603
 C545 C 0.26287 0.41097 0.00641
 C546 C 0.25711 0.39963 0.02840
 C547 C 0.28939 0.37628 -0.00495
 C548 C 0.28380 0.36511 0.01699
 H549 H 0.22966 0.37210 -0.03600
 H550 H 0.25200 0.36089 0.04384
 H551 H 0.26196 0.43134 0.00461
 H552 H 0.30789 0.37502 -0.01344
 C553 C 0.74310 0.09768 1.03475
 C554 C 0.72049 0.11344 1.04130
 C555 C 0.71234 0.12796 1.02230
 C556 C 0.72734 0.12549 0.99795
 C557 C 0.73337 0.08197 1.00930
 C558 C 0.72486 0.09636 0.98994
 C559 C 0.76417 0.11721 1.02674
 C560 C 0.75617 0.13182 1.00771
 H561 H 0.71177 0.11325 1.05964
 H562 H 0.72055 0.13805 0.98310
 H563 H 0.73482 0.06164 1.00612
 H564 H 0.78426 0.11833 1.03458
 C565 C 0.25415 0.59744 0.55887
 C566 C 0.23513 0.61679 0.56756
 C567 C 0.22954 0.63385 0.54988
 C568 C 0.24368 0.63040 0.52501
 C569 C 0.24163 0.58510 0.53287
 C570 C 0.23642 0.60225 0.51511
 C571 C 0.27796 0.61440 0.55189
 C572 C 0.27270 0.63121 0.53390
 H573 H 0.22535 0.61646 0.58519
 H574 H 0.23914 0.64445 0.51069
 H575 H 0.23872 0.56451 0.52846
 H576 H 0.29767 0.61211 0.55940
 C577 C 0.77920 0.88687 0.47354
 C578 C 0.75496 0.86836 0.46579
 C579 C 0.74548 0.85559 0.48548
 C580 C 0.76132 0.86214 0.51144
 C581 C 0.77117 0.90446 0.49601
 C582 C 0.76163 0.89156 0.51575
 C583 C 0.79871 0.87045 0.48646
 C584 C 0.78940 0.85710 0.50580
 H585 H 0.74511 0.86685 0.44662
 H586 H 0.75360 0.85128 0.52726
 H587 H 0.77328 0.92518 0.49686
 H588 H 0.81837 0.86940 0.48063
 C589 C -0.02574 0.28110 0.36955
 C590 C -0.03400 0.25649 0.35239
 C591 C -0.01437 0.24676 0.33983
 C592 C 0.01201 0.26268 0.34518
 C593 C -0.00266 0.27435 0.38741
 C594 C 0.01700 0.26425 0.37482
 C595 C -0.01290 0.29957 0.35171
 C596 C 0.00647 0.29000 0.33868
 H597 H -0.05342 0.24671 0.35162
 H598 H 0.02747 0.25475 0.33410
 H599 H -0.00136 0.27840 0.40808
 H600 H -0.01789 0.31914 0.35040
 C601 C 1.04812 0.75931 0.09874
 C602 C 1.05486 0.73946 0.11772
 C603 C 1.03523 0.73233 0.13248
 C604 C 1.01035 0.74577 0.12722
 C605 C 1.02305 0.74700 0.08320
 C606 C 1.00307 0.74008 0.09806
 C607 C 1.03872 0.78152 0.11533
 C608 C 1.01917 0.77455 0.13023
 H609 H 1.07319 0.73075 0.11844
 H610 H 0.99498 0.74053 0.14023
 H611 H 1.02114 0.74392 0.06250
 H612 H 1.04585 0.80142 0.11403
 C613 C 0.53947 0.24009 0.58441
 C614 C 0.54615 0.21894 0.60205
 C615 C 0.52840 0.21405 0.61957
 C616 C 0.50519 0.23058 0.61794
 C617 C 0.51191 0.23123 0.57228
 C618 C 0.49387 0.22634 0.58972
 C619 C 0.53577 0.26302 0.60327
 C620 C 0.51738 0.25858 0.62034
 H621 H 0.56293 0.20806 0.60099
 H622 H 0.49087 0.22640 0.63231
 H623 H 0.50730 0.22903 0.55162
 H624 H 0.54676 0.28146 0.60261
 C625 C 0.47377 0.76302 0.87692
 C626 C 0.46670 0.73574 0.86432
 C627 C 0.48502 0.72680 0.84931
 C628 C 0.50896 0.74605 0.84815
 C629 C 0.50033 0.76105 0.89176
 C630 C 0.51875 0.75183 0.87676
 C631 C 0.47990 0.77947 0.85474
 C632 C 0.49833 0.77095 0.83976
 H633 H 0.45009 0.72346 0.86916
 H634 H 0.52371 0.73905 0.83549
 H635 H 0.50301 0.76317 0.91260
 H636 H 0.47191 0.79776 0.85262
 C637 C 0.42388 -0.11933 0.31127
 C638 C 0.44864 -0.11609 0.32448
 C639 C 0.45840 -0.13687 0.33637
 C640 C 0.44352 -0.16098 0.33554
 C641 C 0.41871 -0.16370 0.32169
 C642 C 0.40884 -0.14301 0.30970
 C643 C 0.41320 -0.09728 0.29942
 C644 C 0.38807 -0.10032 0.28697
 C645 C 0.37755 -0.07907 0.27676
 C646 C 0.39205 -0.05482 0.27849
 C647 C 0.41721 -0.05219 0.29140
 C648 C 0.42793 -0.07337 0.30166
 C649 C 0.38389 -0.14541 0.29671
 C650 C 0.37366 -0.12441 0.28558
 C651 C 0.46306 -0.09198 0.32585
 C652 C 0.45284 -0.07096 0.31473
 H653 H 0.37203 -0.16359 0.29537
 H654 H 0.35421 -0.12701 0.27600
 H655 H 0.48226 -0.08923 0.33594
 H656 H 0.46445 -0.05262 0.31657
 H657 H 0.47792 -0.13414 0.34567
 H658 H 0.40618 -0.18137 0.32125
 H659 H 0.35768 -0.08129 0.26824
 H660 H 0.42816 -0.03357 0.29442
 C661 C 0.93514 0.37684 0.81012
 C662 C 0.95956 0.38161 0.82400
 C663 C 0.96980 0.36189 0.83733
 C664 C 0.95562 0.33764 0.83704
 C665 C 0.93128 0.33320 0.82276
 C666 C 0.92095 0.35270 0.80931
 C667 C 0.92378 0.39777 0.79696
 C668 C 0.89893 0.39321 0.78399
 C669 C 0.88752 0.41350 0.77285
 C670 C 0.90075 0.43832 0.77433
 C671 C 0.92580 0.44245 0.78742
 C672 C 0.93743 0.42222 0.79864
 C673 C 0.89637 0.34873 0.79563
 C674 C 0.88553 0.36867 0.78320
 C675 C 0.97295 0.40617 0.82471
 C676 C 0.96204 0.42615 0.81231
 H677 H 0.88526 0.33017 0.79485
 H678 H 0.86633 0.36493 0.77321
 H679 H 0.99183 0.41010 0.83530
 H680 H 0.97281 0.44492 0.81373
 H681 H 0.98865 0.36544 0.84806
 H682 H 0.91995 0.31482 0.82279
 H683 H 0.86780 0.41018 0.76399
 H684 H 0.93582 0.46154 0.79003
 C685 C 0.04734 1.12372 0.80735
 C686 C 0.06347 1.14566 0.81701
 C687 C 0.05260 1.16564 0.83054
 C688 C 0.02577 1.16388 0.83441
 C689 C 0.00980 1.14184 0.82431
 C690 C 0.02051 1.12166 0.81079
 C691 C 0.05884 1.10234 0.79370
 C692 C 0.04284 1.08023 0.78432
 C693 C 0.05402 1.05967 0.77191
 C694 C 0.08117 1.06096 0.76924
 C695 C 0.09661 1.08381 0.77805
 C696 C 0.08567 1.10437 0.79050
 C697 C 0.00503 1.09937 0.80082
 C698 C 0.01600 1.07902 0.78780
 C699 C 0.09022 1.14706 0.81323
 C700 C 0.10113 1.12677 0.80013
 H701 H -0.01570 1.09757 0.80327
 H702 H 0.00340 1.06210 0.78059
 H703 H 0.10285 1.16392 0.82056
 H704 H 0.12188 1.12853 0.79774
 H705 H 0.06516 1.18230 0.83859
 H706 H -0.01091 1.14043 0.82694
 H707 H 0.04136 1.04299 0.76444
 H708 H 0.11736 1.08534 0.77558
 C709 C 0.54101 0.62462 0.29704
 C710 C 0.51549 0.61932 0.30421
 C711 C 0.50316 0.63893 0.31695
 C712 C 0.51624 0.66364 0.32240
 C713 C 0.54169 0.66862 0.31468
 C714 C 0.55421 0.64918 0.30215
 C715 C 0.55446 0.60390 0.28452
 C716 C 0.58025 0.60907 0.27824
 C717 C 0.59326 0.58922 0.26719
 C718 C 0.58072 0.56422 0.26187
 C719 C 0.55469 0.55938 0.26835
 C720 C 0.54152 0.57919 0.27972
 C721 C 0.57990 0.65368 0.29517
 C722 C 0.59274 0.63394 0.28348
 C723 C 0.50304 0.59442 0.29887
 C724 C 0.51582 0.57472 0.28682
 H725 H 0.59028 0.67256 0.29905
 H726 H 0.61267 0.63813 0.27864
 H727 H 0.48333 0.59007 0.30425
 H728 H 0.50557 0.55576 0.28325
 H729 H 0.48354 0.63498 0.32275
 H730 H 0.55210 0.68740 0.31926
 H731 H 0.61344 0.59311 0.26299
 H732 H 0.54474 0.54034 0.26540
 C733 C 0.56953 0.39160 0.20710
 C734 C 0.54853 0.37934 0.21863
 C735 C 0.54059 0.35343 0.21118
 C736 C 0.55340 0.33992 0.19220
 C737 C 0.57510 0.35233 0.18165
 C738 C 0.58307 0.37820 0.18883
 C739 C 0.57706 0.41918 0.21378
 C740 C 0.59764 0.43154 0.20177
 C741 C 0.60446 0.45783 0.20785
 C742 C 0.59101 0.47180 0.22593
 C743 C 0.57043 0.45900 0.23787
 C744 C 0.56331 0.43272 0.23177
 C745 C 0.60382 0.39115 0.17751
 C746 C 0.61096 0.41738 0.18384
 C747 C 0.53541 0.39347 0.23677
 C748 C 0.54273 0.41968 0.24329
 H749 H 0.61443 0.38100 0.16338
 H750 H 0.62693 0.42669 0.17450
 H751 H 0.51920 0.38426 0.24584
 H752 H 0.53200 0.42989 0.25727
 H753 H 0.52370 0.34419 0.21919
 H754 H 0.58532 0.34201 0.16731
 H755 H 0.62009 0.46735 0.19828
 H756 H 0.56026 0.46929 0.25225
 C757 C 0.05072 0.88860 0.71650
 C758 C 0.06782 0.86917 0.71498
 C759 C 0.05784 0.84398 0.70668
 C760 C 0.03089 0.83810 0.70018
 C761 C 0.01395 0.85772 0.70320
 C762 C 0.02380 0.88304 0.71081
 C763 C 0.06131 0.91542 0.72341
 C764 C 0.04434 0.93499 0.72369
 C765 C 0.05462 0.96057 0.72912
 C766 C 0.08165 0.96667 0.73479
 C767 C 0.09825 0.94661 0.73511
 C768 C 0.08824 0.92102 0.72904
 C769 C 0.00733 0.90307 0.71202
 C770 C 0.01745 0.92863 0.71818
 C771 C 0.09465 0.87549 0.72101
 C772 C 0.10466 0.90094 0.72813
 H773 H -0.01349 0.89902 0.70766
 H774 H 0.00413 0.94355 0.71846
 H775 H 0.10805 0.86067 0.72002
 H776 H 0.12549 0.90500 0.73248
 H777 H 0.07123 0.82932 0.70419
 H778 H -0.00687 0.85347 0.69895
 H779 H 0.04156 0.97569 0.72843
 H780 H 0.11894 0.95071 0.74017
 C781 C 0.93211 0.59703 0.71362
 C782 C 0.95655 0.60846 0.72391
 C783 C 0.96757 0.63039 0.71323
 C784 C 0.95438 0.64064 0.69226
 C785 C 0.92973 0.62906 0.68247
 C786 C 0.91855 0.60724 0.69301
 C787 C 0.92062 0.57374 0.72442
 C788 C 0.89628 0.56227 0.71396
 C789 C 0.88559 0.53995 0.72401
 C790 C 0.89906 0.52902 0.74432
 C791 C 0.92347 0.54078 0.75464
 C792 C 0.93433 0.56321 0.74476
 C793 C 0.89416 0.59531 0.68317
 C794 C 0.88322 0.57318 0.69347
 C795 C 0.96958 0.59751 0.74444
 C796 C 0.95867 0.57526 0.75467
 H797 H 0.88351 0.60305 0.66728
 H798 H 0.86442 0.56448 0.68524
 H799 H 0.98844 0.60612 0.75256
 H800 H 0.96943 0.56737 0.77039
 H801 H 0.98661 0.63908 0.72076
 H802 H 0.91924 0.63707 0.66663
 H803 H 0.86708 0.53079 0.71555
 H804 H 0.93388 0.53255 0.77038
 C805 C 0.43375 0.10470 0.22005
 C806 C 0.42127 0.12748 0.22165
 C807 C 0.43235 0.14929 0.21081
 C808 C 0.45603 0.14857 0.19881
 C809 C 0.46870 0.12568 0.19837
 C810 C 0.45742 0.10362 0.20848
 C811 C 0.42156 0.08137 0.23026
 C812 C 0.43353 0.05834 0.22769
 C813 C 0.42138 0.03599 0.23652
 C814 C 0.39766 0.03658 0.24848
 C815 C 0.38638 0.06013 0.25149
 C816 C 0.39800 0.08244 0.24204
 C817 C 0.46913 0.08036 0.20679
 C818 C 0.45728 0.05805 0.21605
 C819 C 0.39770 0.12784 0.23364
 C820 C 0.38638 0.10576 0.24384
 H821 H 0.48741 0.07928 0.19787
 H822 H 0.46677 0.04042 0.21402
 H823 H 0.38788 0.14531 0.23510
 H824 H 0.36817 0.10687 0.25288
 H825 H 0.42208 0.16649 0.21110
 H826 H 0.48724 0.12485 0.18993
 H827 H 0.43023 0.01813 0.23347
 H828 H 0.36860 0.06131 0.26122
 C829 C 0.31238 0.42753 -0.10754
 C830 C 0.30954 0.41127 -0.13031
 C831 C 0.32290 0.41838 -0.15158
 C832 C 0.33915 0.44148 -0.15017
 C833 C 0.34149 0.45778 -0.12731
 C834 C 0.32825 0.45080 -0.10585
 C835 C 0.29917 0.41963 -0.08478
 C836 C 0.30285 0.43533 -0.06167
 C837 C 0.29153 0.42696 -0.03964
 C838 C 0.27632 0.40316 -0.04063
 C839 C 0.27289 0.38777 -0.06416
 C840 C 0.28410 0.39594 -0.08624
 C841 C 0.33099 0.46631 -0.08256
 C842 C 0.31857 0.45867 -0.06082
 C843 C 0.29378 0.38798 -0.13121
 C844 C 0.28132 0.38042 -0.10951
 H845 H 0.34316 0.48432 -0.08100
 H846 H 0.32156 0.47099 -0.04311
 H847 H 0.29139 0.37531 -0.14870
 H848 H 0.26970 0.36210 -0.11087
 H849 H 0.32073 0.40591 -0.16922
 H850 H 0.35417 0.47547 -0.12599
 H851 H 0.29563 0.43848 -0.02154
 H852 H 0.26249 0.36886 -0.06509
 C853 C 0.82101 0.93004 0.38367
 C854 C 0.83355 0.91408 0.36664
 C855 C 0.84442 0.92438 0.34530
 C856 C 0.84244 0.95031 0.34073
 C857 C 0.82947 0.96601 0.35773
 C858 C 0.81888 0.95599 0.37942
 C859 C 0.80993 0.91937 0.40640
 C860 C 0.79777 0.93534 0.42373
 C861 C 0.78765 0.92514 0.44558
 C862 C 0.78969 0.89909 0.45018
 C863 C 0.80111 0.88327 0.43185
 C864 C 0.81164 0.89334 0.41029
 C865 C 0.80633 0.97135 0.39701
 C866 C 0.79601 0.96122 0.41882
 C867 C 0.83491 0.88811 0.37124
 C868 C 0.82400 0.87788 0.39264
 H869 H 0.80456 0.99140 0.39397
 H870 H 0.78661 0.97377 0.43197
 H871 H 0.84444 0.87560 0.35817
 H872 H 0.82542 0.85774 0.39550
 H873 H 0.85412 0.91221 0.33203
 H874 H 0.82803 0.98602 0.35426
 H875 H 0.77797 0.93754 0.45850
 H876 H 0.80204 0.86303 0.43461
 C877 C 0.78850 0.04958 1.12214
 C878 C 0.79022 0.02298 1.12087
 C879 C 0.80349 0.01214 1.14127
 C880 C 0.81545 0.02770 1.16293
 C881 C 0.81279 0.05446 1.16381
 C882 C 0.79949 0.06539 1.14359
 C883 C 0.77553 0.06122 1.10030
 C884 C 0.77441 0.08790 1.10140
 C885 C 0.76304 0.09898 1.08025
 C886 C 0.75309 0.08380 1.05773
 C887 C 0.75369 0.05684 1.05732
 C888 C 0.76504 0.04552 1.07852
 C889 C 0.79760 0.09202 1.14413
 C890 C 0.78523 0.10309 1.12340
 C891 C 0.77895 0.00777 1.09902
 C892 C 0.76660 0.01885 1.07820
 H893 H 0.80600 0.10446 1.16060
 H894 H 0.78444 0.12373 1.12446
 H895 H 0.78000 -0.01284 1.09782
 H896 H 0.75850 0.00645 1.06158
 H897 H 0.80393 -0.00851 1.14022
 H898 H 0.82234 0.06736 1.17934
 H899 H 0.76251 0.11967 1.08095
 H900 H 0.74583 0.04446 1.04075
 C901 C 0.29482 0.52905 0.63147
 C902 C 0.28545 0.52851 0.65610
 C903 C 0.29833 0.51516 0.67481
 C904 C 0.32092 0.50305 0.66927
 C905 C 0.32945 0.50305 0.64412
 C906 C 0.31647 0.51601 0.62516
 C907 C 0.28251 0.54458 0.61231
 C908 C 0.29236 0.54571 0.58796
 C909 C 0.28171 0.56178 0.57045
 C910 C 0.26202 0.57757 0.57736
 C911 C 0.25157 0.57517 0.60156
 C912 C 0.26185 0.55882 0.61910
 C913 C 0.32534 0.51706 0.60032
 C914 C 0.31340 0.53157 0.58198
 C915 C 0.26401 0.54215 0.66184
 C916 C 0.25245 0.55711 0.64367
 H917 H 0.34195 0.50698 0.59517
 H918 H 0.32113 0.53226 0.56320
 H919 H 0.25653 0.54180 0.68076
 H920 H 0.23638 0.56787 0.64912
 H921 H 0.29125 0.51489 0.69390
 H922 H 0.34696 0.49414 0.63962
 H923 H 0.28960 0.56302 0.55176
 H924 H 0.23595 0.58616 0.60738
 C925 C 0.20390 0.56991 0.40931
 C926 C 0.21625 0.58185 0.38949
 C927 C 0.20817 0.57390 0.36367
 C928 C 0.18757 0.55458 0.35781
 C929 C 0.17559 0.54270 0.37793
 C930 C 0.18375 0.55020 0.40372
 C931 C 0.21206 0.57834 0.43646
 C932 C 0.19990 0.56617 0.45624
 C933 C 0.20787 0.57412 0.48202
 C934 C 0.22755 0.59430 0.48799
 C935 C 0.23936 0.60649 0.46795
 C936 C 0.23183 0.59844 0.44210
 C937 C 0.17199 0.53854 0.42402
 C938 C 0.18001 0.54633 0.44985
 C939 C 0.23613 0.60173 0.39591
 C940 C 0.24373 0.60993 0.42177
 H941 H 0.15645 0.52328 0.41991
 H942 H 0.17047 0.53682 0.46494
 H943 H 0.24579 0.61113 0.38083
 H944 H 0.25907 0.62539 0.42589
 H945 H 0.21728 0.58319 0.34819
 H946 H 0.15987 0.52765 0.37344
 H947 H 0.19865 0.56482 0.49743
 H948 H 0.25482 0.62179 0.47248
 C949 C 0.69187 0.05116 0.88722
 C950 C 0.68319 0.02501 0.88365
 C951 C 0.67534 0.01409 0.85871
 C952 C 0.67560 0.02913 0.83708
 C953 C 0.68491 0.05546 0.84135
 C954 C 0.69297 0.06646 0.86623
 C955 C 0.69980 0.06280 0.91348
 C956 C 0.70836 0.08899 0.91707
 C957 C 0.71600 0.09994 0.94204
 C958 C 0.71542 0.08491 0.96351
 C959 C 0.70609 0.05868 0.95943
 C960 C 0.69852 0.04753 0.93451
 C961 C 0.70165 0.09267 0.87058
 C962 C 0.70924 0.10373 0.89555
 C963 C 0.68232 0.01027 0.90518
 C964 C 0.68977 0.02135 0.93018
 H965 H 0.70255 0.10476 0.85455
 H966 H 0.71585 0.12399 0.89803
 H967 H 0.67567 -0.00998 0.90272
 H968 H 0.68871 0.00931 0.94623
 H969 H 0.66963 -0.00632 0.85640
 H970 H 0.68469 0.06804 0.82575
 H971 H 0.72267 0.12008 0.94437
 H972 H 0.70445 0.04681 0.97553
 C973 C 0.71633 0.94001 0.60250
 C974 C 0.70123 0.96069 0.59870
 C975 C 0.68861 0.97121 0.61940
 C976 C 0.69107 0.96121 0.64378
 C977 C 0.70687 0.94092 0.64745
 C978 C 0.71936 0.93007 0.62678
 C979 C 0.72863 0.92810 0.58048
 C980 C 0.74296 0.90683 0.58404
 C981 C 0.75392 0.89508 0.56285
 C982 C 0.75087 0.90461 0.53831
 C983 C 0.73664 0.92615 0.53518
 C984 C 0.72536 0.93787 0.55616
 C985 C 0.73425 0.90905 0.62970
 C986 C 0.74579 0.89759 0.60868
 C987 C 0.69860 0.97009 0.57412
 C988 C 0.71052 0.95891 0.55323
 H989 H 0.73673 0.90119 0.64831
 H990 H 0.75688 0.88125 0.61171
 H991 H 0.68705 0.98608 0.57096
 H992 H 0.70785 0.96662 0.53456
 H993 H 0.67659 0.98692 0.61653
 H994 H 0.70855 0.93293 0.66608
 H995 H 0.76486 0.87863 0.56551
 H996 H 0.73370 0.93333 0.51628
 C997 C 0.22199 0.45304 0.11781
 C998 C 0.23249 0.44853 0.14249
 C999 C 0.22311 0.46097 0.16426
 C1000 C 0.20290 0.47739 0.16152
 C1001 C 0.19268 0.48158 0.13648
 C1002 C 0.20227 0.46967 0.11463
 C1003 C 0.23148 0.43976 0.09487
 C1004 C 0.22099 0.44439 0.07021
 C1005 C 0.22992 0.43160 0.04847
 C1006 C 0.24879 0.41394 0.05133
 C1007 C 0.25897 0.40929 0.07614
 C1008 C 0.25056 0.42240 0.09804
 C1009 C 0.19223 0.47377 0.08965
 C1010 C 0.20153 0.46144 0.06780
 C1011 C 0.25191 0.43138 0.14487
 C1012 C 0.26069 0.41843 0.12303
 H1013 H 0.17702 0.48659 0.08695
 H1014 H 0.19324 0.46511 0.04888
 H1015 H 0.26019 0.42771 0.16378
 H1016 H 0.27549 0.40517 0.12574
 H1017 H 0.23145 0.45775 0.18328
 H1018 H 0.17671 0.49354 0.13389
 H1019 H 0.22172 0.43484 0.02938
 H1020 H 0.27353 0.39567 0.07830
 C1021 C -0.11396 0.32237 0.41618
 C1022 C -0.13006 0.33711 0.40153
 C1023 C -0.15080 0.34792 0.41290
 C1024 C -0.15571 0.34381 0.43860
 C1025 C -0.13969 0.32861 0.45292
 C1026 C -0.11861 0.31798 0.44183
 C1027 C -0.09180 0.31136 0.40442
 C1028 C -0.07544 0.29692 0.41909
 C1029 C -0.05408 0.28689 0.40791
 C1030 C -0.04882 0.29154 0.38229
 C1031 C -0.06641 0.30500 0.36760
 C1032 C -0.08751 0.31538 0.37867
 C1033 C -0.10199 0.30316 0.45584
 C1034 C -0.08076 0.29284 0.44468
 C1035 C -0.12514 0.34069 0.37579
 C1036 C -0.10430 0.32988 0.36450
 H1037 H -0.10536 0.29961 0.47563
 H1038 H -0.06835 0.28165 0.45621
 H1039 H -0.13751 0.35193 0.36427
 H1040 H -0.10116 0.33310 0.34458
 H1041 H -0.16335 0.35928 0.40170
 H1042 H -0.14341 0.32546 0.47274
 H1043 H -0.04198 0.27526 0.41916
 H1044 H -0.06355 0.30761 0.34750
 C1045 C 0.39244 0.81385 0.92553
 C1046 C 0.36630 0.80655 0.91699
 C1047 C 0.34669 0.82022 0.92706
 C1048 C 0.35302 0.84127 0.94531
 C1049 C 0.37933 0.84850 0.95360
 C1050 C 0.39917 0.83473 0.94381
 C1051 C 0.41317 0.79973 0.91461
 C1052 C 0.43936 0.80724 0.92270
 C1053 C 0.45903 0.79435 0.91143
 C1054 C 0.45264 0.77404 0.89218
 C1055 C 0.42612 0.76718 0.88419
 C1056 C 0.40640 0.77963 0.89554
 C1057 C 0.42558 0.84151 0.95170
 C1058 C 0.44534 0.82800 0.94133
 C1059 C 0.36029 0.78598 0.89823
 C1060 C 0.38002 0.77283 0.88758
 H1061 H 0.43106 0.85753 0.96584
 H1062 H 0.46547 0.83403 0.94774
 H1063 H 0.34019 0.78022 0.89150
 H1064 H 0.37460 0.75730 0.87287
 H1065 H 0.32651 0.81485 0.92028
 H1066 H 0.38426 0.86464 0.96773
 H1067 H 0.47927 0.80080 0.91690
 H1068 H 0.42065 0.75285 0.86836
 C1069 C 1.13621 0.80276 0.04763
 C1070 C 1.15643 0.81736 0.06279
 C1071 C 1.17655 0.83021 0.05069
 C1072 C 1.17686 0.82833 0.02357
 C1073 C 1.15665 0.81307 0.00869
 C1074 C 1.13614 0.80046 0.02062
 C1075 C 1.11436 0.79019 0.06027
 C1076 C 1.09359 0.77638 0.04515
 C1077 C 1.07221 0.76553 0.05726
 C1078 C 1.07155 0.76850 0.08438
 C1079 C 1.09326 0.78154 0.09911
 C1080 C 1.11442 0.79273 0.08723
 C1081 C 1.11533 0.78593 0.00613
 C1082 C 1.09438 0.77417 0.01817
 C1083 C 1.15591 0.81923 0.08976
 C1084 C 1.13531 0.80700 0.10179
 H1085 H 1.11504 0.78393 -0.01473
 H1086 H 1.07855 0.76349 0.00624
 H1087 H 1.17147 0.83038 0.10167
 H1088 H 1.13553 0.80909 0.12264
 H1089 H 1.19153 0.84229 0.06245
 H1090 H 1.15676 0.81112 -0.01214
 H1091 H 1.05632 0.75523 0.04529
 H1092 H 1.09319 0.78372 0.11996
 C1093 C 0.61796 0.28456 0.52270
 C1094 C 0.61312 0.30724 0.51106
 C1095 C 0.63372 0.32147 0.50089
 C1096 C 0.65907 0.31324 0.50240
 C1097 C 0.66325 0.28980 0.51311
 C1098 C 0.64284 0.27554 0.52355
 C1099 C 0.59695 0.27080 0.53553
 C1100 C 0.60224 0.24907 0.54861
 C1101 C 0.58306 0.23759 0.56301
 C1102 C 0.55876 0.24798 0.56478
 C1103 C 0.55332 0.26871 0.54991
 C1104 C 0.57245 0.28048 0.53571
 C1105 C 0.64704 0.25301 0.53576
 C1106 C 0.62710 0.24003 0.54813
 C1107 C 0.58804 0.31582 0.51083
 C1108 C 0.56801 0.30262 0.52289
 H1109 H 0.66611 0.24576 0.53642
 H1110 H 0.63140 0.22317 0.55800
 H1111 H 0.58402 0.33322 0.50178
 H1112 H 0.54914 0.31024 0.52284
 H1113 H 0.63027 0.33961 0.49304
 H1114 H 0.68255 0.28303 0.51398
 H1115 H 0.58794 0.22143 0.57351
 H1116 H 0.53471 0.27678 0.55090
 C1117 C 0.38400 0.20049 0.56325
 C1118 C 0.37214 0.20960 0.54102
 C1119 C 0.34567 0.20220 0.53408
 C1120 C 0.33120 0.18562 0.54910
 C1121 C 0.34326 0.17742 0.57181
 C1122 C 0.36968 0.18463 0.57886
 C1123 C 0.41211 0.20716 0.56995
 C1124 C 0.42403 0.19762 0.59189
 C1125 C 0.45080 0.20370 0.59800
 C1126 C 0.46572 0.21925 0.58243
 C1127 C 0.45337 0.22869 0.56046
 C1128 C 0.42657 0.22264 0.55412
 C1129 C 0.38225 0.17572 0.60085
 C1130 C 0.40897 0.18209 0.60724
 C1131 C 0.38720 0.22530 0.52580
 C1132 C 0.41394 0.23175 0.53226
 H1133 H 0.37140 0.16348 0.61306
 H1134 H 0.41795 0.17466 0.62426
 H1135 H 0.37830 0.23247 0.50860
 H1136 H 0.42485 0.24378 0.51991
 H1137 H 0.33669 0.20834 0.51640
 H1138 H 0.33222 0.16489 0.58363
 H1139 H 0.45994 0.19603 0.61474
 H1140 H 0.46443 0.24108 0.54857
 C1141 C 0.89786 0.70432 0.05893
 C1142 C 0.88094 0.69254 0.07541
 C1143 C 0.85520 0.68451 0.06619
 C1144 C 0.84653 0.68696 0.04023
 C1145 C 0.86397 0.69890 0.02399
 C1146 C 0.88947 0.70795 0.03337
 C1147 C 0.92495 0.71287 0.06859
 C1148 C 0.94166 0.72541 0.05241
 C1149 C 0.96719 0.73415 0.06196
 C1150 C 0.97640 0.72968 0.08730
 C1151 C 0.95944 0.71615 0.10282
 C1152 C 0.93360 0.70830 0.09382
 C1153 C 0.90688 0.72030 0.01760
 C1154 C 0.93244 0.72913 0.02705
 C1155 C 0.89019 0.68866 0.10071
 C1156 C 0.91616 0.69615 0.10967
 H1157 H 0.90066 0.72329 -0.00216
 H1158 H 0.94515 0.73874 0.01432
 H1159 H 0.87734 0.67949 0.11361
 H1160 H 0.92257 0.69260 0.12923
 H1161 H 0.84208 0.67617 0.07932
 H1162 H 0.85811 0.70063 0.00390
 H1163 H 0.97950 0.74483 0.04970
 H1164 H 0.96609 0.71157 0.12194
 C1165 C 0.61072 0.71168 0.92146
 C1166 C 0.61914 0.68916 0.90984
 C1167 C 0.64042 0.67834 0.92149
 C1168 C 0.65313 0.68957 0.94485
 C1169 C 0.64471 0.71244 0.95606
 C1170 C 0.62344 0.72355 0.94443
 C1171 C 0.58782 0.72270 0.90960
 C1172 C 0.57904 0.74498 0.92136
 C1173 C 0.55678 0.75495 0.91030
 C1174 C 0.54328 0.74260 0.88777
 C1175 C 0.55257 0.72033 0.87627
 C1176 C 0.57480 0.71037 0.88701
 C1177 C 0.61429 0.74602 0.95549
 C1178 C 0.59250 0.75656 0.94414
 C1179 C 0.60583 0.67763 0.88700
 C1180 C 0.58398 0.68802 0.87582
 H1181 H 0.62391 0.75541 0.97319
 H1182 H 0.58598 0.77378 0.95342
 H1183 H 0.61217 0.66026 0.87786
 H1184 H 0.57407 0.67837 0.85836
 H1185 H 0.64702 0.66105 0.91242
 H1186 H 0.65418 0.72114 0.97413
 H1187 H 0.54988 0.77214 0.91927
 H1188 H 0.54208 0.71010 0.85944
 C1189 C 0.10378 0.22027 0.42589
 C1190 C 0.12623 0.21676 0.41276
 C1191 C 0.14642 0.20428 0.42455
 C1192 C 0.14439 0.19554 0.44943
 C1193 C 0.12194 0.19998 0.46253
 C1194 C 0.10149 0.21198 0.45074
 C1195 C 0.08204 0.23243 0.41320
 C1196 C 0.05927 0.23511 0.42601
 C1197 C 0.03829 0.24577 0.41352
 C1198 C 0.03998 0.25422 0.38847
 C1199 C 0.06330 0.25183 0.37618
 C1200 C 0.08424 0.24069 0.38834
 C1201 C 0.07858 0.21547 0.46316
 C1202 C 0.05777 0.22670 0.45094
 C1203 C 0.12780 0.22544 0.38793
 C1204 C 0.10723 0.23731 0.37598
 H1205 H 0.07657 0.20914 0.48235
 H1206 H 0.04032 0.22872 0.46107
 H1207 H 0.14502 0.22292 0.37758
 H1208 H 0.10921 0.24360 0.35678
 H1209 H 0.16332 0.20076 0.41403
 H1210 H 0.12026 0.19396 0.48187
 H1211 H 0.02045 0.24674 0.42318
 H1212 H 0.06534 0.25848 0.35719
 C1213 C 0.55126 0.12977 0.67890
 C1214 C 0.57597 0.13032 0.69205
 C1215 C 0.58353 0.10814 0.70288
 C1216 C 0.56672 0.08532 0.70052
 C1217 C 0.54173 0.08524 0.68771
 C1218 C 0.53393 0.10744 0.67677
 C1219 C 0.54391 0.15263 0.66607
 C1220 C 0.51964 0.15181 0.65192
 C1221 C 0.51363 0.17294 0.63810
 C1222 C 0.53200 0.19435 0.63806
 C1223 C 0.55578 0.19523 0.65310
 C1224 C 0.56189 0.17441 0.66708
 C1225 C 0.50949 0.10761 0.66312
 C1226 C 0.50247 0.12940 0.65092
 C1227 C 0.59304 0.15279 0.69338
 C1228 C 0.58613 0.17447 0.68107
 H1229 H 0.49587 0.09057 0.66142
 H1230 H 0.48367 0.12850 0.64013
 H1231 H 0.61214 0.15345 0.70356
 H1232 H 0.60010 0.19120 0.68204
 H1233 H 0.60299 0.10835 0.71218
 H1234 H 0.52856 0.06788 0.68594
 H1235 H 0.49557 0.17204 0.62609
 H1236 H 0.56994 0.21172 0.65294
 C1237 C 1.05911 0.64773 0.19055
 C1238 C 1.07764 0.65192 0.21173
 C1239 C 1.08732 0.63077 0.22296
 C1240 C 1.07936 0.60550 0.21263
 C1241 C 1.06001 0.60165 0.19193
 C1242 C 1.04984 0.62273 0.18079
 C1243 C 1.05033 0.66994 0.17748
 C1244 C 1.03252 0.66576 0.15566
 C1245 C 1.02585 0.68681 0.14209
 C1246 C 1.03754 0.71158 0.14985
 C1247 C 1.05471 0.71561 0.17213
 C1248 C 1.06110 0.69483 0.18614
 C1249 C 1.03143 0.61936 0.15940
 C1250 C 1.02284 0.64050 0.14711
 C1251 C 1.08699 0.67717 0.22059
 C1252 C 1.07898 0.69826 0.20791
 H1253 H 1.02401 0.60019 0.15175
 H1254 H 1.00907 0.63701 0.13034
 H1255 H 1.10124 0.68062 0.23699
 H1256 H 1.08729 0.71737 0.21486
 H1257 H 1.10171 0.63403 0.23926
 H1258 H 1.05383 0.58239 0.18364
 H1259 H 1.01296 0.68379 0.12461
 H1260 H 1.06387 0.73474 0.17782
 C1261 C 0.96827 0.85541 0.18016
 C1262 C 0.98340 0.87586 0.19426
 C1263 C 0.97110 0.89672 0.20452
 C1264 C 0.94390 0.89751 0.20035
 C1265 C 0.92906 0.87672 0.18614
 C1266 C 0.94113 0.85557 0.17615
 C1267 C 0.98118 0.83366 0.16891
 C1268 C 0.96608 0.81327 0.15460
 C1269 C 0.97858 0.79313 0.14309
 C1270 C 1.00594 0.79376 0.14529
 C1271 C 1.02075 0.81406 0.16010
 C1272 C 1.00845 0.83404 0.17205
 C1273 C 0.92664 0.83472 0.16194
 C1274 C 0.93889 0.81388 0.15143
 C1275 C 1.01058 0.87520 0.19757
 C1276 C 1.02291 0.85470 0.18654
 H1277 H 0.90566 0.83458 0.15877
 H1278 H 0.92703 0.79831 0.14041
 H1279 H 1.02246 0.89085 0.20845
 H1280 H 1.04395 0.85514 0.18917
 H1281 H 0.98273 0.91227 0.21581
 H1282 H 0.90821 0.87717 0.18238
 H1283 H 0.96718 0.77767 0.13141
 H1284 H 1.04184 0.81447 0.16189
 C1285 C 0.47606 0.34057 0.68008
 C1286 C 0.47818 0.36545 0.67149
 C1287 C 0.46711 0.38518 0.68521
 C1288 C 0.45348 0.38004 0.70700
 C1289 C 0.45147 0.35502 0.71543
 C1290 C 0.46297 0.33520 0.70211
 C1291 C 0.48732 0.31967 0.66542
 C1292 C 0.48530 0.29476 0.67392
 C1293 C 0.49581 0.27488 0.65961
 C1294 C 0.50771 0.27972 0.63664
 C1295 C 0.50928 0.30492 0.62846
 C1296 C 0.49945 0.32493 0.64287
 C1297 C 0.46142 0.31007 0.71015
 C1298 C 0.47252 0.29024 0.69637
 C1299 C 0.49088 0.37002 0.64905
 C1300 C 0.50120 0.35005 0.63488
 H1301 H 0.45146 0.30568 0.72717
 H1302 H 0.47080 0.27113 0.70318
 H1303 H 0.49257 0.38911 0.64221
 H1304 H 0.51059 0.35431 0.61750
 H1305 H 0.46836 0.40435 0.67851
 H1306 H 0.44099 0.35109 0.73226
 H1307 H 0.49464 0.25578 0.66640
 H1308 H 0.51748 0.30905 0.61047
 C1309 C 0.47301 0.62059 0.81147
 C1310 C 0.46328 0.60223 0.82760
 C1311 C 0.45669 0.57691 0.81745
 C1312 C 0.45951 0.56982 0.79127
 C1313 C 0.47027 0.58830 0.77559
 C1314 C 0.47688 0.61379 0.78557
 C1315 C 0.47808 0.64766 0.82160
 C1316 C 0.48684 0.66631 0.80526
 C1317 C 0.49010 0.69229 0.81464
 C1318 C 0.48407 0.69946 0.83991
 C1319 C 0.47628 0.68039 0.85626
 C1320 C 0.47307 0.65451 0.84718
 C1321 C 0.48639 0.63283 0.76999
 C1322 C 0.49130 0.65864 0.77967
 C1323 C 0.45932 0.60974 0.85333
 C1324 C 0.46417 0.63546 0.86297
 H1325 H 0.48956 0.62783 0.75000
 H1326 H 0.49814 0.67277 0.76687
 H1327 H 0.45190 0.59571 0.86597
 H1328 H 0.46037 0.64056 0.88279
 H1329 H 0.44799 0.56310 0.82962
 H1330 H 0.47280 0.58302 0.75550
 H1331 H 0.49624 0.70696 0.80209
 H1332 H 0.47231 0.68576 0.87598
 C1333 C -0.03501 0.14516 0.29059
 C1334 C -0.01991 0.12566 0.29863
 C1335 C -0.02749 0.10008 0.28957
 C1336 C -0.04976 0.09411 0.27238
 C1337 C -0.06409 0.11400 0.26379
 C1338 C -0.05703 0.13953 0.27313
 C1339 C -0.02835 0.17179 0.30155
 C1340 C -0.04451 0.19094 0.29481
 C1341 C -0.03926 0.21579 0.30675
 C1342 C -0.01788 0.22156 0.32502
 C1343 C -0.00120 0.20251 0.33079
 C1344 C -0.00662 0.17739 0.31941
 C1345 C -0.07214 0.15938 0.26612
 C1346 C -0.06606 0.18464 0.27689
 C1347 C 0.00197 0.13209 0.31616
 C1348 C 0.00858 0.15754 0.32627
 H1349 H -0.08916 0.15526 0.25265
 H1350 H -0.07857 0.19928 0.27144
 H1351 H 0.01386 0.11726 0.32241
 H1352 H 0.02538 0.16161 0.34002
 H1353 H -0.01645 0.08477 0.29621
 H1354 H -0.08149 0.10942 0.25089
 H1355 H -0.05204 0.23054 0.30229
 H1356 H 0.01510 0.20692 0.34512
 C1357 C 0.06059 0.36652 0.28457
 C1358 C 0.04598 0.38246 0.26976
 C1359 C 0.05838 0.40496 0.26140
 C1360 C 0.08503 0.41176 0.26827
 C1361 C 0.09961 0.39493 0.28211
 C1362 C 0.08745 0.37238 0.29050
 C1363 C 0.04721 0.34422 0.29551
 C1364 C 0.06155 0.32918 0.31164
 C1365 C 0.04830 0.30966 0.32416
 C1366 C 0.02096 0.30577 0.32107
 C1367 C 0.00707 0.32005 0.30376
 C1368 C 0.02006 0.33946 0.29107
 C1369 C 0.10136 0.35624 0.30572
 C1370 C 0.08862 0.33499 0.31611
 C1371 C 0.01902 0.37628 0.26473
 C1372 C 0.00627 0.35514 0.27524
 H1373 H 0.12213 0.36050 0.31027
 H1374 H 0.09993 0.32351 0.32840
 H1375 H 0.00755 0.38833 0.25324
 H1376 H -0.01468 0.35152 0.27159
 H1377 H 0.04702 0.41790 0.25093
 H1378 H 0.12024 0.39990 0.28714
 H1379 H 0.05896 0.29892 0.33773
 H1380 H -0.01402 0.31696 0.30131
 C1381 C 0.54297 0.84697 0.77804
 C1382 C 0.57016 0.85216 0.77942
 C1383 C 0.58094 0.87382 0.76827
 C1384 C 0.56473 0.89041 0.75599
 C1385 C 0.53749 0.88455 0.75425
 C1386 C 0.52650 0.86289 0.76534
 C1387 C 0.53148 0.82519 0.79123
 C1388 C 0.50426 0.82079 0.79092
 C1389 C 0.49345 0.80151 0.80533
 C1390 C 0.50965 0.78705 0.82037
 C1391 C 0.53687 0.79078 0.81942
 C1392 C 0.54792 0.81005 0.80506
 C1393 C 0.49936 0.85727 0.76466
 C1394 C 0.48842 0.83656 0.77724
 C1395 C 0.58601 0.83608 0.79270
 C1396 C 0.57508 0.81539 0.80531
 H1397 H 0.48644 0.86930 0.75481
 H1398 H 0.46738 0.83327 0.77680
 H1399 H 0.60704 0.83985 0.79381
 H1400 H 0.58798 0.80385 0.81584
 H1401 H 0.60189 0.87836 0.77012
 H1402 H 0.52489 0.89705 0.74465
 H1403 H 0.47245 0.79854 0.80582
 H1404 H 0.54945 0.77996 0.83120
 C1405 C 0.68147 0.56490 0.13193
 C1406 C 0.69228 0.59032 0.13207
 C1407 C 0.70192 0.59919 0.10957
 C1408 C 0.70067 0.58315 0.08628
 C1409 C 0.69064 0.55708 0.08715
 C1410 C 0.68075 0.54808 0.10974
 C1411 C 0.66997 0.55601 0.15529
 C1412 C 0.65812 0.53083 0.15498
 C1413 C 0.64560 0.52312 0.17674
 C1414 C 0.64464 0.54067 0.19830
 C1415 C 0.65760 0.56542 0.19862
 C1416 C 0.67014 0.57325 0.17717
 C1417 C 0.66936 0.52277 0.11036
 C1418 C 0.65821 0.51432 0.13255
 C1419 C 0.69291 0.60671 0.15467
 C1420 C 0.68198 0.59832 0.17683
 H1421 H 0.66864 0.50948 0.09340
 H1422 H 0.64921 0.49482 0.13199
 H1423 H 0.70143 0.62636 0.15506
 H1424 H 0.68233 0.61174 0.19366
 H1425 H 0.71124 0.61856 0.11090
 H1426 H 0.68862 0.54399 0.07002
 H1427 H 0.63546 0.50414 0.17635
 H1428 H 0.65710 0.57889 0.21531
 C1429 C 0.15836 1.04921 0.62334
 C1430 C 0.18442 1.04562 0.61898
 C1431 C 0.19512 1.05531 0.59709
 C1432 C 0.18000 1.06899 0.58019
 C1433 C 0.15374 1.07169 0.58445
 C1434 C 0.14279 1.06184 0.60597
 C1435 C 0.14754 1.04086 0.64721
 C1436 C 0.12184 1.04550 0.65193
 C1437 C 0.11224 1.03937 0.67539
 C1438 C 0.12824 1.02923 0.69445
 C1439 C 0.15359 1.02354 0.68906
 C1440 C 0.16345 1.02957 0.66543
 C1441 C 0.11690 1.06531 0.61100
 C1442 C 0.10657 1.05720 0.63357
 C1443 C 0.19948 1.03342 0.63719
 C1444 C 0.18919 1.02558 0.66001
 H1445 H 0.10468 1.07489 0.59765
 H1446 H 0.08667 1.06076 0.63701
 H1447 H 0.21958 1.03047 0.63407
 H1448 H 0.20169 1.01682 0.67379
 H1449 H 0.21545 1.05349 0.59393
 H1450 H 0.14216 1.08227 0.57145
 H1451 H 0.09252 1.04331 0.67922
 H1452 H 0.16598 1.01577 0.70367
 C1453 C 0.18468 0.96357 0.84358
 C1454 C 0.17060 0.95596 0.86424
 C1455 C 0.18378 0.94719 0.88582
 C1456 C 0.21112 0.94534 0.88709
 C1457 C 0.22468 0.95245 0.86539
 C1458 C 0.21165 0.96196 0.84395
 C1459 C 0.17096 0.97408 0.82143
 C1460 C 0.18519 0.98319 0.80132
 C1461 C 0.17220 0.99502 0.78128
 C1462 C 0.14534 0.99763 0.78163
 C1463 C 0.13122 0.98703 0.80111
 C1464 C 0.14396 0.97568 0.82128
 C1465 C 0.22516 0.97049 0.82311
 C1466 C 0.21219 0.98105 0.80225
 C1467 C 0.14348 0.95735 0.86306
 C1468 C 0.13036 0.96694 0.84187
 H1469 H 0.24603 0.96940 0.82312
 H1470 H 0.22346 0.98788 0.78690
 H1471 H 0.13234 0.95127 0.87880
 H1472 H 0.10949 0.96807 0.84189
 H1473 H 0.17211 0.94056 0.90094
 H1474 H 0.24564 0.95238 0.86558
 H1475 H 0.18303 1.00315 0.76622
 H1476 H 0.11044 0.98884 0.80119
 C1477 C 0.68888 0.47133 0.34247
 C1478 C 0.70232 0.48644 0.36329
 C1479 C 0.71279 0.47439 0.38437
 C1480 C 0.70950 0.44744 0.38494
 C1481 C 0.69602 0.43264 0.36374
 C1482 C 0.68579 0.44446 0.34244
 C1483 C 0.67709 0.48393 0.32065
 C1484 C 0.66315 0.46882 0.30009
 C1485 C 0.65068 0.48092 0.28013
 C1486 C 0.65153 0.50788 0.28106
 C1487 C 0.66624 0.52276 0.30138
 C1488 C 0.67909 0.51086 0.32126
 C1489 C 0.67210 0.42997 0.32132
 C1490 C 0.66103 0.44194 0.30046
 C1491 C 0.70462 0.51331 0.36281
 C1492 C 0.69310 0.52533 0.34220
 H1493 H 0.66967 0.40921 0.32104
 H1494 H 0.65031 0.43008 0.28474
 H1495 H 0.71500 0.52519 0.37872
 H1496 H 0.69486 0.54612 0.34284
 H1497 H 0.72345 0.48600 0.40031
 H1498 H 0.69287 0.41196 0.36405
 H1499 H 0.63904 0.46937 0.26476
 H1500 H 0.66693 0.54354 0.30210
 C1501 C 0.80756 0.46496 0.63165
 C1502 C 0.78042 0.46436 0.62685
 C1503 C 0.76924 0.45789 0.60163
 C1504 C 0.78502 0.45160 0.58141
 C1505 C 0.81230 0.45317 0.58659
 C1506 C 0.82364 0.45974 0.61160
 C1507 C 0.81929 0.46987 0.65835
 C1508 C 0.84631 0.46924 0.66314
 C1509 C 0.85715 0.47198 0.68861
 C1510 C 0.84119 0.47496 0.70924
 C1511 C 0.81431 0.47674 0.70426
 C1512 C 0.80316 0.47391 0.67868
 C1513 C 0.85070 0.46014 0.61712
 C1514 C 0.86185 0.46485 0.64247
 C1515 C 0.76498 0.46934 0.64755
 C1516 C 0.77615 0.47403 0.67301
 H1517 H 0.86330 0.45625 0.60178
 H1518 H 0.88274 0.46444 0.64598
 H1519 H 0.74401 0.46906 0.64412
 H1520 H 0.76347 0.47721 0.68843
 H1521 H 0.74827 0.45710 0.59790
 H1522 H 0.82470 0.44792 0.57147
 H1523 H 0.87793 0.47093 0.69253
 H1524 H 0.80209 0.47909 0.72021
 C1525 C 0.30037 -0.02804 0.13760
 C1526 C 0.28106 -0.04831 0.13064
 C1527 C 0.27343 -0.05452 0.10449
 C1528 C 0.28554 -0.04118 0.08534
 C1529 C 0.30449 -0.02057 0.09262
 C1530 C 0.31190 -0.01381 0.11880
 C1531 C 0.30979 -0.02262 0.16497
 C1532 C 0.32973 -0.00292 0.17188
 C1533 C 0.34005 0.00079 0.19762
 C1534 C 0.33120 -0.01572 0.21598
 C1535 C 0.31068 -0.03481 0.20898
 C1536 C 0.29977 -0.03828 0.18347
 C1537 C 0.33127 0.00624 0.12655
 C1538 C 0.33994 0.01168 0.15265
 C1539 C 0.27064 -0.06273 0.14988
 C1540 C 0.27996 -0.05791 0.17584
 H1541 H 0.34019 0.01747 0.11226
 H1542 H 0.35532 0.02693 0.15774
 H1543 H 0.25571 -0.07839 0.14472
 H1544 H 0.27199 -0.07000 0.18996
 H1545 H 0.25914 -0.07068 0.09894
 H1546 H 0.31384 -0.01029 0.07789
 H1547 H 0.35620 0.01520 0.20296
 H1548 H 0.30407 -0.04761 0.22315
 C1549 C 0.29958 0.05097 0.36725
 C1550 C 0.27466 0.05917 0.36208
 C1551 C 0.26202 0.07070 0.38238
 C1552 C 0.27439 0.07418 0.40751
 C1553 C 0.29917 0.06540 0.41229
 C1554 C 0.31188 0.05389 0.39229
 C1555 C 0.31313 0.03911 0.34609
 C1556 C 0.33794 0.03083 0.35148
 C1557 C 0.35052 0.01906 0.33156
 C1558 C 0.33845 0.01523 0.30637
 C1559 C 0.31388 0.02427 0.30099
 C1560 C 0.30098 0.03611 0.32095
 C1561 C 0.33678 0.04547 0.39684
 C1562 C 0.34960 0.03412 0.37676
 C1563 C 0.26313 0.05594 0.33669
 C1564 C 0.27606 0.04462 0.31648
 H1565 H 0.34643 0.04767 0.41609
 H1566 H 0.36876 0.02778 0.38108
 H1567 H 0.24394 0.06222 0.33238
 H1568 H 0.26641 0.04242 0.29723
 H1569 H 0.24302 0.07759 0.37854
 H1570 H 0.30864 0.06768 0.43164
 H1571 H 0.36968 0.01262 0.33571
 H1572 H 0.30452 0.02130 0.28163
 C1573 C 0.80590 0.54066 0.86423
 C1574 C 0.78095 0.54904 0.85982
 C1575 C 0.76939 0.56145 0.88037
 C1576 C 0.78286 0.56566 0.90498
 C1577 C 0.80761 0.55661 0.90904
 C1578 C 0.81926 0.54424 0.88878
 C1579 C 0.81843 0.52810 0.84273
 C1580 C 0.84338 0.51988 0.84733
 C1581 C 0.85516 0.50778 0.82705
 C1582 C 0.84217 0.50349 0.80226
 C1583 C 0.81738 0.51235 0.79768
 C1584 C 0.80530 0.52459 0.81802
 C1585 C 0.84420 0.53571 0.89256
 C1586 C 0.85608 0.52374 0.87216
 C1587 C 0.76835 0.54518 0.83487
 C1588 C 0.78031 0.53317 0.81435
 H1589 H 0.85467 0.53841 0.91143
 H1590 H 0.87535 0.51743 0.87586
 H1591 H 0.74912 0.55157 0.83115
 H1592 H 0.76990 0.53059 0.79545
 H1593 H 0.75040 0.56855 0.87706
 H1594 H 0.81793 0.55946 0.92800
 H1595 H 0.87455 0.50165 0.83060
 H1596 H 0.80736 0.50915 0.77862
 C1597 C 0.14197 0.68950 0.57225
 C1598 C 0.14128 0.70177 0.59698
 C1599 C 0.11817 0.71156 0.60413
 C1600 C 0.09565 0.70885 0.58694
 C1601 C 0.09683 0.69694 0.56198
 C1602 C 0.11998 0.68721 0.55454
 C1603 C 0.16578 0.67777 0.56523
 C1604 C 0.16622 0.66464 0.54083
 C1605 C 0.18823 0.65186 0.53502
 C1606 C 0.20917 0.65163 0.55373
 C1607 C 0.20882 0.66570 0.57768
 C1608 C 0.18715 0.67878 0.58356
 C1609 C 0.12141 0.67457 0.53004
 C1610 C 0.14414 0.66353 0.52329
 C1611 C 0.16343 0.70321 0.61442
 C1612 C 0.18596 0.69184 0.60785
 H1613 H 0.10465 0.67277 0.51614
 H1614 H 0.14421 0.65350 0.50441
 H1615 H 0.16314 0.71269 0.63354
 H1616 H 0.20239 0.69282 0.62210
 H1617 H 0.11738 0.72026 0.62352
 H1618 H 0.07966 0.69493 0.54856
 H1619 H 0.18834 0.64074 0.51670
 H1620 H 0.22499 0.66554 0.59208
 C1621 C 0.62721 0.18377 1.05122
 C1622 C 0.63149 0.20258 1.07194
 C1623 C 0.61007 0.21262 1.08275
 C1624 C 0.58443 0.20357 1.07348
 C1625 C 0.58043 0.18552 1.05193
 C1626 C 0.60183 0.17539 1.04082
 C1627 C 0.64964 0.17158 1.04125
 C1628 C 0.64535 0.15181 1.02138
 C1629 C 0.66655 0.13876 1.01355
 C1630 C 0.69151 0.14506 1.02603
 C1631 C 0.69566 0.16547 1.04519
 C1632 C 0.67478 0.17883 1.05291
 C1633 C 0.59840 0.15622 1.02033
 C1634 C 0.61979 0.14466 1.01075
 C1635 C 0.65706 0.21016 1.08225
 C1636 C 0.67834 0.19841 1.07295
 H1637 H 0.57897 0.14963 1.01203
 H1638 H 0.61619 0.12951 0.99538
 H1639 H 0.66057 0.22474 1.09817
 H1640 H 0.69767 0.20425 1.08196
 H1641 H 0.61331 0.22681 1.09905
 H1642 H 0.56076 0.17839 1.04477
 H1643 H 0.66341 0.12273 0.99905
 H1644 H 0.71493 0.17006 1.05489
 C1645 C 0.84028 0.18992 0.96615
 C1646 C 0.85922 0.20422 0.98306
 C1647 C 0.88201 0.21510 0.97340
 C1648 C 0.88650 0.21170 0.94678
 C1649 C 0.86647 0.19747 0.93020
 C1650 C 0.84365 0.18659 0.93974
 C1651 C 0.81691 0.17737 0.97644
 C1652 C 0.79851 0.16206 0.95963
 C1653 C 0.77740 0.14854 0.96980
 C1654 C 0.77491 0.15002 0.99653
 C1655 C 0.79293 0.16628 1.01299
 C1656 C 0.81407 0.17989 1.00306
 C1657 C 0.82445 0.17169 0.92340
 C1658 C 0.80228 0.15963 0.93317
 C1659 C 0.85521 0.20706 1.00949
 C1660 C 0.83305 0.19506 1.01933
 H1661 H 0.82679 0.16898 0.90291
 H1662 H 0.78824 0.14790 0.91998
 H1663 H 0.86960 0.21822 1.02278
 H1664 H 0.83103 0.19724 1.03991
 H1665 H 0.89560 0.22690 0.98688
 H1666 H 0.86893 0.19300 0.91001
 H1667 H 0.76410 0.13555 0.95717
 H1668 H 0.79108 0.16740 1.03364
 C1669 C 0.35576 0.68268 0.48366
 C1670 C 0.35532 0.70881 0.47942
 C1671 C 0.37600 0.72116 0.46749
 C1672 C 0.39683 0.70743 0.45952
 C1673 C 0.39672 0.68116 0.46386
 C1674 C 0.37639 0.66877 0.47605
 C1675 C 0.33418 0.66959 0.49625
 C1676 C 0.33489 0.64354 0.50072
 C1677 C 0.31463 0.63126 0.51302
 C1678 C 0.29365 0.64472 0.52073
 C1679 C 0.29280 0.67067 0.51562
 C1680 C 0.31327 0.68333 0.50359
 C1681 C 0.37623 0.64265 0.48063
 C1682 C 0.35586 0.63027 0.49284
 C1683 C 0.33416 0.72199 0.48711
 C1684 C 0.31345 0.70944 0.49890
 H1685 H 0.39204 0.63172 0.47480
 H1686 H 0.35654 0.61013 0.49614
 H1687 H 0.33354 0.74215 0.48392
 H1688 H 0.29751 0.72030 0.50447
 H1689 H 0.37592 0.74142 0.46452
 H1690 H 0.41218 0.67015 0.45731
 H1691 H 0.31504 0.61109 0.51638
 H1692 H 0.27659 0.68101 0.52147
 C1693 C 0.64377 0.80351 0.46233
 C1694 C 0.62308 0.81082 0.47655
 C1695 C 0.59740 0.80155 0.46789
 C1696 C 0.59246 0.78523 0.44509
 C1697 C 0.61363 0.77724 0.43182
 C1698 C 0.63924 0.78658 0.44011
 C1699 C 0.67055 0.81476 0.47010
 C1700 C 0.69092 0.80863 0.45486
 C1701 C 0.71588 0.82109 0.46093
 C1702 C 0.72052 0.83944 0.48209
 C1703 C 0.70031 0.84446 0.49800
 C1704 C 0.67507 0.83243 0.49182
 C1705 C 0.66030 0.78006 0.42603
 C1706 C 0.68571 0.79100 0.43322
 C1707 C 0.62846 0.82800 0.49858
 C1708 C 0.65401 0.83856 0.50613
 H1709 H 0.65701 0.76692 0.40890
 H1710 H 0.70131 0.78602 0.42143
 H1711 H 0.61271 0.83373 0.50981
 H1712 H 0.65721 0.85213 0.52293
 H1713 H 0.58127 0.80793 0.47818
 H1714 H 0.61011 0.76425 0.41459
 H1715 H 0.73151 0.81724 0.44873
 H1716 H 0.70385 0.85886 0.51411
 C1717 C 0.13342 0.31412 -0.00756
 C1718 C 0.11285 0.32938 -0.01276
 C1719 C 0.08814 0.31748 -0.02132
 C1720 C 0.08396 0.29051 -0.02506
 C1721 C 0.10450 0.27549 -0.01832
 C1722 C 0.12937 0.28721 -0.00991
 C1723 C 0.16004 0.32654 -0.00129
 C1724 C 0.18098 0.31125 0.00215
 C1725 C 0.20657 0.32311 0.00548
 C1726 C 0.21101 0.34987 0.00491
 C1727 C 0.18983 0.36499 0.00275
 C1728 C 0.16427 0.35342 -0.00058
 C1729 C 0.15057 0.27258 -0.00510
 C1730 C 0.17594 0.28440 0.00078
 C1731 C 0.11772 0.35626 -0.01069
 C1732 C 0.14301 0.36808 -0.00468
 H1733 H 0.14767 0.25179 -0.00672
 H1734 H 0.19185 0.27238 0.00352
 H1735 H 0.10198 0.36823 -0.01452
 H1736 H 0.14607 0.38884 -0.00404
 H1737 H 0.07269 0.32929 -0.02674
 H1738 H 0.10143 0.25472 -0.02072
 H1739 H 0.22301 0.31155 0.00693
 H1740 H 0.19344 0.38565 0.00225
 C1741 C 0.36455 0.31182 0.06510
 C1742 C 0.35894 0.28680 0.07255
 C1743 C 0.37933 0.27363 0.08311
 C1744 C 0.40495 0.28560 0.08645
 C1745 C 0.41015 0.31052 0.07847
 C1746 C 0.39009 0.32372 0.06785
 C1747 C 0.34333 0.32588 0.05417
 C1748 C 0.34920 0.35072 0.04646
 C1749 C 0.32926 0.36370 0.03531
 C1750 C 0.30358 0.35204 0.03164
 C1751 C 0.29769 0.32747 0.04022
 C1752 C 0.31767 0.31413 0.05133
 C1753 C 0.39510 0.34869 0.06012
 C1754 C 0.37498 0.36197 0.04957
 C1755 C 0.33303 0.27569 0.06954
 C1756 C 0.31276 0.28912 0.05913
 H1757 H 0.41476 0.35803 0.06220
 H1758 H 0.37967 0.38114 0.04367
 H1759 H 0.32838 0.25644 0.07526
 H1760 H 0.29312 0.27978 0.05703
 H1761 H 0.37521 0.25451 0.08940
 H1762 H 0.42989 0.31969 0.08071
 H1763 H 0.33376 0.38277 0.02903
 H1764 H 0.27792 0.31846 0.03728
 C1765 C 0.86090 0.79411 0.55452
 C1766 C 0.86523 0.79629 0.58147
 C1767 C 0.88537 0.78369 0.59304
 C1768 C 0.90117 0.76899 0.57786
 C1769 C 0.89614 0.76660 0.55085
 C1770 C 0.87612 0.77923 0.53907
 C1771 C 0.84069 0.80847 0.54217
 C1772 C 0.83715 0.80715 0.51516
 C1773 C 0.81923 0.82217 0.50349
 C1774 C 0.80508 0.83863 0.51858
 C1775 C 0.80796 0.83891 0.54560
 C1776 C 0.82602 0.82404 0.55755
 C1777 C 0.87141 0.77778 0.51212
 C1778 C 0.85227 0.79154 0.50036
 C1779 C 0.84980 0.81157 0.59628
 C1780 C 0.83050 0.82519 0.58452
 H1781 H 0.88293 0.76630 0.50000
 H1782 H 0.84961 0.79032 0.47949
 H1783 H 0.85292 0.81333 0.61712
 H1784 H 0.81933 0.83708 0.59662
 H1785 H 0.88931 0.78608 0.61380
 H1786 H 0.90796 0.75514 0.53902
 H1787 H 0.81682 0.82169 0.48261
 H1788 H 0.79729 0.85167 0.55725
   
