data_POSCAR
  _audit_creation_date              2014-09-24
  _audit_creation_method            'ToBaCCo'
  _symmetry_space_group_name_H-M    'P1'
  _symmetry_Int_Tables_number       1
  _symmetry_cell_setting            triclinic
  loop_
  _symmetry_equiv_pos_as_xyz
 x,y,z
_cell_length_a 68.3729
_cell_length_b 68.3693
_cell_length_c 68.4338
_cell_angle_alpha 90.033200
_cell_angle_beta 90.000100
_cell_angle_gamma 90.013400
loop_
  _atom_site_label
  _atom_site_type_symbol
  _atom_site_fract_x
  _atom_site_fract_y
  _atom_site_fract_z
C1 C 0.19334 0.21155 0.22095
 N2 N 0.20567 0.19627 0.22393
 C3 C 0.22098 0.19316 0.21166
 N4 N 0.22393 0.20545 0.19635
 C5 C 0.21166 0.22077 0.19327
 N6 N 0.19639 0.22377 0.20560
 C7 C 0.69320 0.71191 0.72083
 N8 N 0.70548 0.69658 0.72376
 C9 C 0.72079 0.69348 0.71149
 N10 N 0.72379 0.70583 0.69624
 C11 C 0.71157 0.72119 0.69321
 N12 N 0.69629 0.72418 0.70554
 C13 C 0.30622 0.78878 0.72115
 N14 N 0.30315 0.77650 0.70585
 C15 C 0.28788 0.77947 0.69351
 N16 N 0.27564 0.79482 0.69655
 C17 C 0.27859 0.80719 0.71182
 N18 N 0.29392 0.80409 0.72409
 C19 C 0.80721 0.28819 0.22123
 N20 N 0.79484 0.30347 0.22415
 C21 C 0.77952 0.30651 0.21188
 N22 N 0.77660 0.29417 0.19659
 C23 C 0.78888 0.27886 0.19355
 N24 N 0.80416 0.27592 0.20589
 C25 C 0.80691 0.71197 0.27901
 N26 N 0.79457 0.69668 0.27609
 C27 C 0.77926 0.69363 0.28836
 N28 N 0.77633 0.70599 0.30364
 C29 C 0.78860 0.72132 0.30666
 N30 N 0.80387 0.72426 0.29432
 C31 C 0.30677 0.21142 -0.22146
 N32 N 0.30365 0.22369 -0.20613
 C33 C 0.28834 0.22073 -0.19384
 N34 N 0.27609 0.20540 -0.19692
 C35 C 0.27905 0.19304 -0.21219
 N36 N 0.29442 0.19612 -0.22441
 C37 C 0.69353 0.28834 -0.22072
 N38 N 0.70585 0.30364 -0.22370
 C39 C 0.72122 0.30674 -0.21149
 N40 N 0.72421 0.29438 -0.19623
 C41 C 0.71196 0.27905 -0.19314
 N42 N 0.69664 0.27608 -0.20543
 C43 C 0.19364 0.78849 0.27877
 N44 N 0.19665 0.77626 0.29411
 C45 C 0.21190 0.77925 0.30647
 N46 N 0.22417 0.79457 0.30343
 C47 C 0.22129 0.80690 0.28812
 N48 N 0.20598 0.80378 0.27583
 C49 C 0.46156 0.44319 0.47125
 N50 N 0.47384 0.44624 0.45594
 C51 C 0.47089 0.46152 0.44361
 N52 N 0.45557 0.47379 0.44666
 C53 C 0.44323 0.47085 0.46194
 N54 N 0.44628 0.45554 0.47420
 C55 C -0.03821 -0.05638 0.97072
 N56 N -0.05351 -0.04407 0.97369
 C57 C -0.05660 -0.02871 0.96147
 N58 N -0.04423 -0.02574 0.94620
 C59 C -0.02890 -0.03799 0.94313
 N60 N -0.02594 -0.05329 0.95542
 C61 C 1.03801 0.55697 0.97103
 N62 N 1.05329 0.54460 0.97397
 C63 C 1.05633 0.52926 0.96172
 N64 N 1.04400 0.52630 0.94645
 C65 C 1.02868 0.53857 0.94339
 N66 N 1.02574 0.55387 0.95571
 C67 C 0.53860 0.05626 0.47124
 N68 N 0.55393 0.04398 0.47417
 C69 C 0.55706 0.02866 0.46190
 N70 N 0.54471 0.02569 0.44662
 C71 C 0.52934 0.03791 0.44358
 N72 N 0.52634 0.05318 0.45593
 C73 C -0.03858 0.05681 0.52905
 N74 N -0.02629 0.05374 0.54434
 C75 C -0.02924 0.03845 0.55665
 N76 N -0.04458 0.02619 0.55361
 C77 C -0.05696 0.02913 0.53835
 N78 N -0.05389 0.04448 0.52611
 C79 C 0.46167 0.55675 0.02913
 N80 N 0.47393 0.55368 0.04444
 C81 C 0.47097 0.53837 0.05673
 N82 N 0.45564 0.52610 0.05365
 C83 C 0.44332 0.52907 0.03837
 N84 N 0.44638 0.54441 0.02614
 C85 C 0.53839 -0.05704 0.02890
 N86 N 0.55370 -0.04469 0.02598
 C87 C 0.55681 -0.02939 0.03826
 N88 N 0.54451 -0.02645 0.05357
 C89 C 0.52917 -0.03870 0.05662
 N90 N 0.52617 -0.05396 0.04426
 C91 C 1.03791 0.44294 0.52869
 N92 N 1.02567 0.44599 0.54406
 C93 C 1.02864 0.46126 0.55641
 N94 N 1.04395 0.47354 0.55336
 C95 C 1.05626 0.47063 0.53806
 N96 N 1.05319 0.45533 0.52577
 C97 C 0.40498 0.00866 0.22385
 H98 H 0.40576 0.02194 0.23243
 C99 C 0.41775 0.00590 0.20816
 H100 H 0.42827 0.01723 0.20475
 C101 C 0.39040 -0.02227 0.21821
 H102 H 0.37995 -0.03336 0.22234
 C103 C 0.40289 -0.02564 0.20241
 H104 H 0.40170 -0.03928 0.19445
 N105 N 0.39151 -0.00523 0.22842
 C106 C 0.34521 0.02596 0.25929
 H107 H 0.34443 0.01740 0.27256
 C108 C 0.33247 0.04167 0.25653
 H109 H 0.32195 0.04513 0.26785
 C110 C 0.35977 0.03153 0.22838
 H111 H 0.37021 0.02736 0.21730
 C112 C 0.34731 0.04735 0.22501
 H113 H 0.34850 0.05528 0.21137
 Zn114 Zn 0.37507 -0.00046 0.25017
 N115 N 0.35867 0.02134 0.24541
 C116 C 0.39043 0.02134 0.28215
 N117 N 0.39150 0.00429 0.27194
 C118 C 0.40493 -0.00962 0.27653
 C119 C 0.41770 -0.00688 0.29222
 C120 C 0.40292 0.02469 0.29795
 C121 C 0.34516 -0.02680 0.24101
 C122 C 0.33237 -0.04249 0.24374
 C123 C 0.34717 -0.04823 0.27528
 C124 C 0.35967 -0.03243 0.27193
 N125 N 0.35861 -0.02222 0.25491
 H126 H 0.38000 0.03244 0.27800
 H127 H 0.40569 -0.02291 0.26796
 H128 H 0.42820 -0.01822 0.29564
 H129 H 0.40176 0.03834 0.30589
 H130 H 0.34441 -0.01823 0.22774
 H131 H 0.32186 -0.04592 0.23241
 H132 H 0.34833 -0.05617 0.28891
 H133 H 0.37011 -0.02828 0.28302
 C134 C 0.33344 0.05265 0.23921
 C135 C 0.41677 -0.01142 0.19716
 C136 C 0.33331 -0.05349 0.26105
 C137 C 0.41677 0.01045 0.30321
 C138 C 0.09546 -0.00890 0.72346
 H139 H 0.09470 -0.02217 0.73204
 C140 C 0.08267 -0.00617 0.70780
 H141 H 0.07214 -0.01751 0.70440
 C142 C 0.11001 0.02203 0.71779
 H143 H 0.12047 0.03313 0.72191
 C144 C 0.09750 0.02537 0.70201
 H145 H 0.09867 0.03900 0.69406
 N146 N 0.10893 0.00500 0.72801
 C147 C 0.15526 -0.02610 0.75889
 H148 H 0.15605 -0.01751 0.77214
 C149 C 0.16800 -0.04182 0.75615
 H150 H 0.17852 -0.04525 0.76746
 C151 C 0.14068 -0.03176 0.72799
 H152 H 0.13023 -0.02762 0.71691
 C153 C 0.15314 -0.04759 0.72464
 H154 H 0.15194 -0.05556 0.71102
 Zn155 Zn 0.12539 0.00027 0.74976
 N156 N 0.14180 -0.02152 0.74500
 C157 C 0.11005 -0.02148 0.78174
 N158 N 0.10897 -0.00445 0.77154
 C159 C 0.09553 0.00947 0.77612
 C160 C 0.08277 0.00674 0.79181
 C161 C 0.09757 -0.02482 0.79755
 C162 C 0.15528 0.02663 0.74057
 C163 C 0.16805 0.04233 0.74329
 C164 C 0.15327 0.04809 0.77484
 C165 C 0.14077 0.03228 0.77150
 N166 N 0.14183 0.02206 0.75447
 H167 H 0.12048 -0.03258 0.77760
 H168 H 0.09476 0.02274 0.76755
 H169 H 0.07226 0.01808 0.79524
 H170 H 0.09873 -0.03846 0.80549
 H171 H 0.15602 0.01804 0.72730
 H172 H 0.17856 0.04574 0.73196
 H173 H 0.15212 0.05605 0.78847
 H174 H 0.13034 0.02815 0.78260
 C175 C 0.16701 -0.05286 0.73885
 C176 C 0.08361 0.01114 0.69679
 C177 C 0.16713 0.05334 0.76061
 C178 C 0.08371 -0.01058 0.80281
 C179 C 0.59521 0.49077 0.22381
 H180 H 0.59444 0.47748 0.23235
 C181 C 0.58246 0.49353 0.20812
 H182 H 0.57195 0.48219 0.20466
 C183 C 0.60974 0.52174 0.21826
 H184 H 0.62017 0.53284 0.22244
 C185 C 0.59727 0.52511 0.20246
 H186 H 0.59844 0.53876 0.19455
 N187 N 0.60866 0.50468 0.22843
 C188 C 0.65498 0.47357 0.25931
 H189 H 0.65574 0.48214 0.27258
 C190 C 0.66776 0.45788 0.25655
 H191 H 0.67827 0.45446 0.26787
 C192 C 0.64045 0.46795 0.22838
 H193 H 0.63001 0.47209 0.21730
 C194 C 0.65295 0.45215 0.22501
 H195 H 0.65178 0.44420 0.21137
 Zn196 Zn 0.62508 0.49992 0.25019
 N197 N 0.64152 0.47815 0.24542
 C198 C 0.60975 0.47809 0.28212
 N199 N 0.60865 0.49514 0.27195
 C200 C 0.59519 0.50903 0.27655
 C201 C 0.58243 0.50626 0.29224
 C202 C 0.59727 0.47470 0.29792
 C203 C 0.65496 0.52630 0.24108
 C204 C 0.66771 0.54201 0.24383
 C205 C 0.65289 0.54774 0.27536
 C206 C 0.64041 0.53192 0.27200
 N207 N 0.64150 0.52171 0.25497
 H208 H 0.62019 0.46700 0.27796
 H209 H 0.59442 0.52231 0.26800
 H210 H 0.57192 0.51758 0.29569
 H211 H 0.59845 0.46105 0.30584
 H212 H 0.65573 0.51772 0.22781
 H213 H 0.67823 0.54545 0.23251
 H214 H 0.65171 0.55569 0.28900
 H215 H 0.62997 0.52776 0.28308
 C216 C 0.66681 0.44689 0.23922
 C217 C 0.58341 0.51088 0.19716
 C218 C 0.66675 0.55302 0.26115
 C219 C 0.58340 0.48892 0.30321
 C220 C 0.90447 0.50870 0.72362
 H221 H 0.90523 0.52200 0.73215
 C222 C 0.91723 0.50592 0.70793
 H223 H 0.92774 0.51725 0.70448
 C224 C 0.88994 0.47773 0.71807
 H225 H 0.87951 0.46663 0.72224
 C226 C 0.90243 0.47433 0.70228
 H227 H 0.90126 0.46066 0.69436
 N228 N 0.89102 0.49480 0.72823
 C229 C 0.84467 0.52601 0.75901
 H230 H 0.84389 0.51748 0.77230
 C231 C 0.83193 0.54171 0.75622
 H232 H 0.82142 0.54519 0.76753
 C233 C 0.85924 0.53152 0.72809
 H234 H 0.86968 0.52733 0.71702
 C235 C 0.84677 0.54734 0.72468
 H236 H 0.84796 0.55524 0.71103
 Zn237 Zn 0.87457 0.49962 0.74997
 N238 N 0.85814 0.52137 0.74514
 C239 C 0.88988 0.52155 0.78187
 N240 N 0.89099 0.50447 0.77173
 C241 C 0.90445 0.49059 0.77637
 C242 C 0.91719 0.49341 0.79206
 C243 C 0.90235 0.52498 0.79767
 C244 C 0.84471 0.47318 0.74089
 C245 C 0.83197 0.45747 0.74368
 C246 C 0.84677 0.45187 0.77523
 C247 C 0.85924 0.46769 0.77184
 N248 N 0.85815 0.47784 0.75478
 H249 H 0.87944 0.53262 0.77768
 H250 H 0.90523 0.47728 0.76785
 H251 H 0.92771 0.48210 0.79554
 H252 H 0.90116 0.53866 0.80556
 H253 H 0.84394 0.48170 0.72760
 H254 H 0.82146 0.45398 0.73236
 H255 H 0.84795 0.44397 0.78889
 H256 H 0.86967 0.47190 0.78292
 C257 C 0.83291 0.55267 0.73888
 C258 C 0.91628 0.48856 0.69698
 C259 C 0.83292 0.44653 0.76103
 C260 C 0.91622 0.51078 0.80300
 C261 C 0.22340 0.40469 0.00895
 H262 H 0.23198 0.40543 0.02221
 C263 C 0.20771 0.41747 0.00623
 H264 H 0.20429 0.42796 0.01758
 C265 C 0.21777 0.39020 -0.02200
 H266 H 0.22191 0.37978 -0.03312
 C267 C 0.20197 0.40271 -0.02533
 H268 H 0.19402 0.40156 -0.03897
 N269 N 0.22798 0.39126 -0.00498
 C270 C 0.25891 0.34489 0.02602
 H271 H 0.27218 0.34413 0.01744
 C272 C 0.25617 0.33212 0.04169
 H273 H 0.26751 0.32160 0.04510
 C274 C 0.22797 0.35942 0.03167
 H275 H 0.21687 0.36986 0.02754
 C276 C 0.22462 0.34693 0.04745
 H277 H 0.21098 0.34809 0.05540
 Zn278 Zn 0.24976 0.37482 -0.00027
 N279 N 0.24500 0.35835 0.02146
 C280 C 0.28175 0.39013 0.02155
 N281 N 0.27154 0.39125 0.00453
 C282 C 0.27613 0.40473 -0.00933
 C283 C 0.29183 0.41749 -0.00656
 C284 C 0.29756 0.40262 0.02494
 C285 C 0.24062 0.34498 -0.02670
 C286 C 0.24338 0.33225 -0.04242
 C287 C 0.27495 0.34708 -0.04807
 C288 C 0.27157 0.35954 -0.03225
 N289 N 0.25452 0.35843 -0.02207
 H290 H 0.27760 0.37967 0.03261
 H291 H 0.26755 0.40552 -0.02260
 H292 H 0.29525 0.42803 -0.01785
 H293 H 0.30551 0.40142 0.03857
 H294 H 0.22733 0.34420 -0.01815
 H295 H 0.23205 0.32173 -0.04588
 H296 H 0.28860 0.34827 -0.05600
 H297 H 0.28267 0.36997 -0.02807
 C298 C 0.23885 0.33306 0.05270
 C299 C 0.19671 0.41655 -0.01109
 C300 C 0.26072 0.33322 -0.05339
 C301 C 0.30283 0.41651 0.01075
 C302 C 0.72417 0.09478 -0.00914
 H303 H 0.73273 0.09402 -0.02243
 C304 C 0.70846 0.08203 -0.00640
 H305 H 0.70500 0.07153 -0.01773
 C306 C 0.71862 0.10930 0.02180
 H307 H 0.72279 0.11972 0.03290
 C308 C 0.70279 0.09682 0.02517
 H309 H 0.69487 0.09799 0.03881
 N310 N 0.72880 0.10822 0.00476
 C311 C 0.75969 0.15458 -0.02631
 H312 H 0.77298 0.15533 -0.01775
 C313 C 0.75693 0.16736 -0.04197
 H314 H 0.76826 0.17788 -0.04539
 C315 C 0.72874 0.14003 -0.03191
 H316 H 0.71765 0.12959 -0.02777
 C317 C 0.72536 0.15254 -0.04768
 H318 H 0.71170 0.15137 -0.05561
 Zn319 Zn 0.75058 0.12466 0.00000
 N320 N 0.74579 0.14111 -0.02173
 C321 C 0.78253 0.10934 -0.02185
 N322 N 0.77235 0.10823 -0.00481
 C323 C 0.77697 0.09477 0.00905
 C324 C 0.79267 0.08202 0.00626
 C325 C 0.79834 0.09687 -0.02526
 C326 C 0.74147 0.15452 0.02639
 C327 C 0.74423 0.16728 0.04209
 C328 C 0.77579 0.15245 0.04778
 C329 C 0.77241 0.13998 0.03196
 N330 N 0.75536 0.14107 0.02178
 H331 H 0.77835 0.11979 -0.03292
 H332 H 0.76842 0.09398 0.02233
 H333 H 0.79613 0.07150 0.01756
 H334 H 0.80626 0.09807 -0.03890
 H335 H 0.72818 0.15530 0.01784
 H336 H 0.73290 0.17779 0.04554
 H337 H 0.78944 0.15127 0.05570
 H338 H 0.78350 0.12954 0.02779
 C339 C 0.73958 0.16641 -0.05294
 C340 C 0.69749 0.08298 0.01094
 C341 C 0.76157 0.16631 0.05307
 C342 C 0.80364 0.08300 -0.01107
 C343 C 0.22333 0.59527 0.49082
 H344 H 0.23192 0.59451 0.47757
 C345 C 0.20763 0.58249 0.49353
 H346 H 0.20423 0.57197 0.48220
 C347 C 0.21766 0.60981 0.52174
 H348 H 0.22178 0.62025 0.53284
 C349 C 0.20185 0.59730 0.52507
 H350 H 0.19388 0.59847 0.53869
 N351 N 0.22789 0.60873 0.50473
 C352 C 0.25888 0.65505 0.47371
 H353 H 0.27214 0.65582 0.48231
 C354 C 0.25617 0.66781 0.45803
 H355 H 0.26751 0.67833 0.45463
 C356 C 0.22795 0.64051 0.46803
 H357 H 0.21684 0.63007 0.47215
 C358 C 0.22462 0.65299 0.45223
 H359 H 0.21099 0.65181 0.44426
 Zn360 Zn 0.24968 0.62516 0.50002
 N361 N 0.24497 0.64160 0.47826
 C362 C 0.28170 0.60982 0.47829
 N363 N 0.27147 0.60873 0.49530
 C364 C 0.27603 0.59527 0.50919
 C365 C 0.29173 0.58251 0.50646
 C366 C 0.29751 0.59733 0.47495
 C367 C 0.24050 0.65504 0.52638
 C368 C 0.24322 0.66781 0.54208
 C369 C 0.27477 0.65299 0.54784
 C370 C 0.27143 0.64051 0.53203
 N371 N 0.25440 0.64159 0.52181
 H372 H 0.27757 0.62026 0.46720
 H373 H 0.26743 0.59451 0.52244
 H374 H 0.29513 0.57199 0.51778
 H375 H 0.30548 0.59850 0.46133
 H376 H 0.22723 0.65581 0.51780
 H377 H 0.23189 0.67832 0.54550
 H378 H 0.28841 0.65182 0.55580
 H379 H 0.28253 0.63007 0.52789
 C380 C 0.23886 0.66686 0.44700
 C381 C 0.19661 0.58343 0.51084
 C382 C 0.26054 0.66685 0.55309
 C383 C 0.30276 0.58346 0.48916
 C384 C 0.72377 0.90549 0.50919
 H385 H 0.73231 0.90627 0.52248
 C386 C 0.70804 0.91822 0.50642
 H387 H 0.70457 0.92872 0.51774
 C388 C 0.71824 0.89093 0.47826
 H389 H 0.72243 0.88050 0.46717
 C390 C 0.70241 0.90338 0.47487
 H391 H 0.69449 0.90219 0.46122
 N392 N 0.72841 0.89204 0.49530
 C393 C 0.75932 0.84575 0.52643
 H394 H 0.77261 0.84500 0.51788
 C395 C 0.75655 0.83297 0.54209
 H396 H 0.76788 0.82246 0.54553
 C397 C 0.72836 0.86026 0.53200
 H398 H 0.71726 0.87069 0.52785
 C399 C 0.72497 0.84776 0.54778
 H400 H 0.71131 0.84891 0.55570
 Zn401 Zn 0.75020 0.87563 0.50009
 N402 N 0.74541 0.85919 0.52183
 C403 C 0.78214 0.89100 0.52193
 N404 N 0.77196 0.89208 0.50489
 C405 C 0.77657 0.90554 0.49101
 C406 C 0.79228 0.91830 0.49378
 C407 C 0.79796 0.90348 0.52532
 C408 C 0.74111 0.84573 0.47373
 C409 C 0.74389 0.83297 0.45804
 C410 C 0.77544 0.84782 0.45235
 C411 C 0.77205 0.86030 0.46815
 N412 N 0.75500 0.85920 0.47833
 H413 H 0.77797 0.88056 0.53300
 H414 H 0.76802 0.90630 0.47773
 H415 H 0.79573 0.92881 0.48247
 H416 H 0.80588 0.90231 0.53896
 H417 H 0.72783 0.84495 0.48228
 H418 H 0.73257 0.82244 0.45459
 H419 H 0.78909 0.84901 0.44442
 H420 H 0.78313 0.87076 0.47231
 C421 C 0.73920 0.83390 0.55305
 C422 C 0.69708 0.91723 0.48909
 C423 C 0.76123 0.83394 0.44706
 C424 C 0.80325 0.91734 0.51112
 C425 C 0.00886 0.22400 0.40485
 H426 H 0.02214 0.23258 0.40563
 C427 C 0.00610 0.20831 0.41761
 H428 H 0.01741 0.20490 0.42813
 C429 C -0.02206 0.21835 0.39028
 H430 H -0.03314 0.22248 0.37983
 C431 C -0.02544 0.20255 0.40276
 H432 H -0.03908 0.19459 0.40157
 N433 N -0.00502 0.22856 0.39138
 C434 C 0.02619 0.25942 0.34513
 H435 H 0.01764 0.27270 0.34434
 C436 C 0.04191 0.25664 0.33240
 H437 H 0.04537 0.26795 0.32189
 C438 C 0.03176 0.22849 0.35969
 H439 H 0.02758 0.21741 0.37012
 C440 C 0.04758 0.22509 0.34724
 H441 H 0.05551 0.21144 0.34843
 Zn442 Zn -0.00024 0.25032 0.37496
 N443 N 0.02157 0.24554 0.35858
 C444 C 0.02155 0.28233 0.39030
 N445 N 0.00450 0.27213 0.39136
 C446 C -0.00942 0.27673 0.40478
 C447 C -0.00668 0.29243 0.41754
 C448 C 0.02490 0.29815 0.40279
 C449 C -0.02656 0.24113 0.34506
 C450 C -0.04224 0.24385 0.33229
 C451 C -0.04800 0.27543 0.34706
 C452 C -0.03220 0.27209 0.35956
 N453 N -0.02199 0.25505 0.35850
 H454 H 0.03266 0.27817 0.37989
 H455 H -0.02270 0.26816 0.40553
 H456 H -0.01803 0.29587 0.42803
 H457 H 0.03855 0.30609 0.40164
 H458 H -0.01798 0.22785 0.34432
 H459 H -0.04565 0.23250 0.32179
 H460 H -0.05595 0.28907 0.34821
 H461 H -0.02807 0.28320 0.36999
 C462 C 0.05289 0.23930 0.33338
 C463 C -0.01123 0.19730 0.41663
 C464 C -0.05325 0.26118 0.33321
 C465 C 0.01066 0.30343 0.41662
 C466 C -0.00901 0.72348 0.09466
 H467 H -0.02228 0.73206 0.09392
 C468 C -0.00630 0.70776 0.08191
 H469 H -0.01765 0.70433 0.07143
 C470 C 0.02197 0.71786 0.10912
 H471 H 0.03309 0.72202 0.11952
 C472 C 0.02529 0.70204 0.09664
 H473 H 0.03894 0.69409 0.09779
 N474 N 0.00493 0.72808 0.10807
 C475 C -0.02605 0.75907 0.15441
 H476 H -0.01745 0.77234 0.15516
 C477 C -0.04172 0.75636 0.16720
 H478 H -0.04510 0.76770 0.17772
 C479 C -0.03176 0.72813 0.13990
 H480 H -0.02765 0.71702 0.12946
 C481 C -0.04755 0.72480 0.15242
 H482 H -0.05552 0.71117 0.15126
 Zn483 Zn 0.00023 0.74988 0.12449
 N484 N -0.02152 0.74515 0.14096
 C485 C -0.02158 0.78186 0.10921
 N486 N -0.00455 0.77165 0.10808
 C487 C 0.00932 0.77624 0.09461
 C488 C 0.00656 0.79195 0.08188
 C489 C -0.02497 0.79768 0.09676
 C490 C 0.02665 0.74075 0.15430
 C491 C 0.04236 0.74351 0.16704
 C492 C 0.04808 0.77506 0.15222
 C493 C 0.03226 0.77168 0.13976
 N494 N 0.02205 0.75464 0.14086
 H495 H -0.03266 0.77772 0.11966
 H496 H 0.02260 0.76766 0.09381
 H497 H 0.01787 0.79538 0.07135
 H498 H -0.03860 0.80563 0.09797
 H499 H 0.01807 0.72747 0.15508
 H500 H 0.04580 0.73219 0.17755
 H501 H 0.05602 0.78871 0.15104
 H502 H 0.02809 0.78277 0.12933
 C503 C -0.05275 0.73905 0.16628
 C504 C 0.01103 0.69676 0.08282
 C505 C 0.05336 0.76085 0.16607
 C506 C -0.01076 0.80295 0.08288
 C507 C 0.49069 0.22334 0.59558
 H508 H 0.47740 0.23189 0.59479
 C509 C 0.49347 0.20764 0.58283
 H510 H 0.48216 0.20418 0.57231
 C511 C 0.52162 0.21778 0.61015
 H512 H 0.53270 0.22196 0.62059
 C513 C 0.52502 0.20197 0.59767
 H514 H 0.53868 0.19405 0.59886
 N515 N 0.50457 0.22796 0.60904
 C516 C 0.47332 0.25887 0.65527
 H517 H 0.48187 0.27217 0.65605
 C518 C 0.45760 0.25610 0.66800
 H519 H 0.45413 0.26743 0.67849
 C520 C 0.46779 0.22790 0.64074
 H521 H 0.47198 0.21680 0.63032
 C522 C 0.45196 0.22451 0.65318
 H523 H 0.44404 0.21085 0.65200
 Zn524 Zn 0.49976 0.24975 0.62545
 N525 N 0.47796 0.24496 0.64184
 C526 C 0.47794 0.28170 0.61008
 N527 N 0.49499 0.27151 0.60902
 C528 C 0.50891 0.27610 0.59559
 C529 C 0.50616 0.29178 0.58283
 C530 C 0.47458 0.29750 0.59760
 C531 C 0.52612 0.24067 0.65533
 C532 C 0.54182 0.24345 0.66808
 C533 C 0.54752 0.27500 0.65326
 C534 C 0.53170 0.27161 0.64079
 N535 N 0.52152 0.25456 0.64188
 H536 H 0.46684 0.27755 0.62050
 H537 H 0.52219 0.26754 0.59484
 H538 H 0.51750 0.29522 0.57233
 H539 H 0.46093 0.30544 0.59875
 H540 H 0.51756 0.22738 0.65610
 H541 H 0.54527 0.23213 0.67858
 H542 H 0.55545 0.28866 0.65208
 H543 H 0.52754 0.28269 0.63036
 C544 C 0.44664 0.23874 0.66703
 C545 C 0.51082 0.19667 0.58380
 C546 C 0.55281 0.26079 0.66711
 C547 C 0.48882 0.30277 0.58376
 C548 C 0.50901 0.72405 0.90501
 H549 H 0.52229 0.73263 0.90577
 C550 C 0.50628 0.70835 0.91776
 H551 H 0.51763 0.70492 0.92825
 C552 C 0.47805 0.71842 0.89052
 H553 H 0.46694 0.72257 0.88010
 C554 C 0.47471 0.70261 0.90299
 H555 H 0.46106 0.69466 0.90183
 N556 N 0.49509 0.72863 0.89159
 C557 C 0.52618 0.75956 0.84529
 H558 H 0.51761 0.77284 0.84454
 C559 C 0.54186 0.75680 0.83252
 H560 H 0.54528 0.76813 0.82201
 C561 C 0.53179 0.72861 0.85979
 H562 H 0.52765 0.71751 0.87022
 C563 C 0.54759 0.72524 0.84730
 H564 H 0.55553 0.71159 0.84845
 Zn565 Zn 0.49984 0.75042 0.87518
 N566 N 0.52159 0.74565 0.85873
 C567 C 0.52166 0.78240 0.89050
 N568 N 0.50462 0.77220 0.89160
 C569 C 0.49073 0.77679 0.90506
 C570 C 0.49351 0.79248 0.91783
 C571 C 0.52505 0.79821 0.90299
 C572 C 0.47343 0.74127 0.84535
 C573 C 0.45771 0.74402 0.83261
 C574 C 0.45201 0.77558 0.84744
 C575 C 0.46783 0.77221 0.85990
 N576 N 0.47803 0.75517 0.85879
 H577 H 0.53274 0.77825 0.88006
 H578 H 0.47745 0.76821 0.90584
 H579 H 0.48219 0.79591 0.92835
 H580 H 0.53870 0.80615 0.90181
 H581 H 0.48200 0.72799 0.84456
 H582 H 0.45427 0.73268 0.82211
 H583 H 0.44407 0.78922 0.84863
 H584 H 0.47200 0.78331 0.87033
 C585 C 0.55285 0.73946 0.83345
 C586 C 0.48895 0.69734 0.91682
 C587 C 0.44672 0.76135 0.83359
 C588 C 0.51085 0.80348 0.91687
 N589 N 0.15862 0.20567 0.26167
 C590 C 0.14626 0.22090 0.25875
 N591 N 0.14938 0.23306 0.24342
 N592 N 0.16439 0.23008 0.23136
 C593 C 0.17680 0.21484 0.23424
 N594 N 0.17363 0.20269 0.24962
 C595 C 0.13008 0.22410 0.27171
 C596 C 0.11648 0.22679 0.28260
 C597 C 0.10029 0.22998 0.29554
 N598 N 0.08979 0.24676 0.29455
 N599 N 0.07474 0.24972 0.30656
 C600 C 0.06964 0.23601 0.32001
 N601 N 0.08024 0.21921 0.32093
 N602 N 0.09529 0.21625 0.30891
 N603 N 0.65843 0.70595 0.76150
 C604 C 0.64612 0.72123 0.75864
 N605 N 0.64927 0.73344 0.74337
 N606 N 0.66429 0.73048 0.73131
 C607 C 0.67665 0.71519 0.73413
 N608 N 0.67345 0.70298 0.74945
 C609 C 0.62994 0.72441 0.77162
 C610 C 0.61635 0.72708 0.78252
 C611 C 0.60018 0.73024 0.79550
 N612 N 0.58966 0.74701 0.79454
 N613 N 0.57464 0.74994 0.80659
 C614 C 0.56957 0.73620 0.82003
 N615 N 0.58019 0.71942 0.82090
 N616 N 0.59521 0.71648 0.80886
 N617 N 0.35017 0.76730 0.74366
 C618 C 0.35332 0.77953 0.75895
 N619 N 0.34099 0.79479 0.76183
 N620 N 0.32596 0.79773 0.74978
 C621 C 0.32277 0.78552 0.73445
 N622 N 0.33515 0.77025 0.73161
 C623 C 0.36950 0.77636 0.77191
 C624 C 0.38311 0.77371 0.78280
 C625 C 0.39931 0.77056 0.79575
 N626 N 0.40982 0.75379 0.79476
 N627 N 0.42487 0.75087 0.80677
 C628 C 0.42996 0.76460 0.82022
 N629 N 0.41934 0.78139 0.82112
 N630 N 0.40429 0.78432 0.80911
 N631 N -0.14963 0.26697 0.24309
 C632 C -0.14654 0.27918 0.25839
 N633 N -0.15891 0.29440 0.26128
 N634 N -0.17393 0.29733 0.24921
 C635 C -0.17709 0.28513 0.23385
 N636 N -0.16464 0.26989 0.23103
 C637 C -0.13036 0.27604 0.27138
 C638 C -0.11677 0.27341 0.28228
 C639 C -0.10059 0.27030 0.29526
 N640 N -0.09564 0.28408 0.30861
 N641 N -0.08061 0.28118 0.32066
 C642 C -0.06997 0.26440 0.31980
 N643 N -0.07503 0.25064 0.30637
 N644 N -0.09006 0.25353 0.29432
 N645 N -0.14910 0.73335 0.25646
 C646 C -0.14601 0.72111 0.24117
 N647 N -0.15838 0.70588 0.23831
 N648 N -0.17339 0.70297 0.25038
 C649 C -0.17654 0.71519 0.26571
 N650 N -0.16412 0.73044 0.26852
 C651 C -0.12983 0.72424 0.22819
 C652 C -0.11624 0.72686 0.21727
 C653 C -0.10007 0.72996 0.20428
 N654 N -0.09516 0.71618 0.19091
 N655 N -0.08013 0.71907 0.17885
 C656 C -0.06947 0.73583 0.17971
 N657 N -0.07449 0.74959 0.19316
 N658 N -0.08951 0.74671 0.20522
 N659 N 0.34078 0.20524 0.73861
 C660 C 0.35313 0.22048 0.74152
 N661 N 0.34998 0.23270 0.75681
 N662 N 0.33493 0.22976 0.76883
 C663 C 0.32250 0.21450 0.76597
 N664 N 0.32573 0.20230 0.75062
 C665 C 0.36934 0.22364 0.72859
 C666 C 0.38297 0.22630 0.71773
 C667 C 0.39919 0.22947 0.70481
 N668 N 0.40968 0.24626 0.70581
 N669 N 0.42474 0.24920 0.69381
 C670 C 0.42987 0.23547 0.68038
 N671 N 0.41928 0.21866 0.67947
 N672 N 0.40421 0.21571 0.69146
 N673 N 0.65865 0.29430 0.73870
 C674 C 0.64632 0.27905 0.74162
 N675 N 0.64949 0.26685 0.75691
 N676 N 0.66455 0.26981 0.76891
 C677 C 0.67694 0.28507 0.76604
 N678 N 0.67371 0.29726 0.75071
 C679 C 0.63010 0.27587 0.72870
 C680 C 0.61647 0.27320 0.71784
 C681 C 0.60025 0.27004 0.70492
 N682 N 0.58973 0.25327 0.70592
 N683 N 0.57467 0.25034 0.69391
 C684 C 0.56956 0.26406 0.68048
 N685 N 0.58018 0.28085 0.67957
 N686 N 0.59525 0.28379 0.69157
 N687 N 0.14970 0.76700 0.25620
 C688 C 0.14662 0.77918 0.24087
 N689 N 0.15899 0.79441 0.23799
 N690 N 0.17399 0.79738 0.25007
 C691 C 0.17712 0.78521 0.26544
 N692 N 0.16470 0.76997 0.26828
 C693 C 0.13047 0.77599 0.22787
 C694 C 0.11689 0.77332 0.21696
 C695 C 0.10071 0.77013 0.20398
 N696 N 0.09574 0.78387 0.19061
 N697 N 0.08071 0.78092 0.17857
 C698 C 0.07010 0.76413 0.17946
 N699 N 0.07517 0.75041 0.19291
 N700 N 0.09020 0.75335 0.20495
 N701 N 0.26166 0.15836 0.20569
 C702 C 0.25878 0.14605 0.22094
 N703 N 0.24348 0.14922 0.23315
 N704 N 0.23143 0.16424 0.23020
 C705 C 0.23427 0.17661 0.21493
 N706 N 0.24961 0.17339 0.20273
 C707 C 0.27174 0.12987 0.22412
 C708 C 0.28263 0.11626 0.22679
 C709 C 0.29558 0.10006 0.22996
 N710 N 0.29459 0.08956 0.24672
 N711 N 0.30661 0.07451 0.24965
 C712 C 0.32006 0.06940 0.23594
 N713 N 0.32097 0.08001 0.21916
 N714 N 0.30896 0.09506 0.21622
 N715 N 0.74314 0.64939 0.73284
 C716 C 0.75844 0.64623 0.72064
 N717 N 0.76138 0.65859 0.70544
 N718 N 0.74938 0.67366 0.70252
 C719 C 0.73403 0.67687 0.71471
 N720 N 0.73114 0.66446 0.72993
 C721 C 0.77136 0.63000 0.72379
 C722 C 0.78221 0.61636 0.72644
 C723 C 0.79512 0.60013 0.72960
 N724 N 0.80848 0.59509 0.71586
 N725 N 0.82047 0.58002 0.71881
 C726 C 0.81955 0.56943 0.73559
 N727 N 0.80611 0.57457 0.74931
 N728 N 0.79411 0.58964 0.74637
 N729 N 0.76126 0.34071 0.79457
 C730 C 0.75831 0.35306 0.77936
 N731 N 0.74297 0.34992 0.76721
 N732 N 0.73093 0.33489 0.77017
 C733 C 0.73382 0.32246 0.78540
 N734 N 0.74922 0.32567 0.79754
 C735 C 0.77126 0.36926 0.77617
 C736 C 0.78214 0.38288 0.77350
 C737 C 0.79508 0.39910 0.77032
 N738 N 0.79410 0.40956 0.75354
 N739 N 0.80612 0.42462 0.75059
 C740 C 0.81955 0.42977 0.76431
 N741 N 0.82044 0.41920 0.78111
 N742 N 0.80843 0.40414 0.78406
 N743 N 0.26131 -0.15915 0.29435
 C744 C 0.25846 -0.14683 0.27910
 N745 N 0.24319 -0.14998 0.26687
 N746 N 0.23112 -0.16500 0.26979
 C747 C 0.23391 -0.17740 0.28506
 N748 N 0.24925 -0.17417 0.29728
 C749 C 0.27145 -0.13064 0.27596
 C750 C 0.28236 -0.11704 0.27332
 C751 C 0.29534 -0.10085 0.27020
 N752 N 0.29439 -0.09033 0.25345
 N753 N 0.30644 -0.07529 0.25055
 C754 C 0.31989 -0.07022 0.26429
 N755 N 0.32076 -0.08085 0.28105
 N756 N 0.30871 -0.09589 0.28396
 N757 N 0.23864 -0.15879 0.70559
 C758 C 0.24155 -0.14642 0.72080
 N759 N 0.25684 -0.14956 0.73301
 N760 N 0.26886 -0.16462 0.73011
 C761 C 0.26601 -0.17707 0.71488
 N762 N 0.25066 -0.17386 0.70268
 C763 C 0.22861 -0.13020 0.72393
 C764 C 0.21775 -0.11656 0.72656
 C765 C 0.20482 -0.10033 0.72969
 N766 N 0.20583 -0.08978 0.74643
 N767 N 0.19383 -0.07470 0.74933
 C768 C 0.18038 -0.06963 0.73561
 N769 N 0.17945 -0.08029 0.71886
 N770 N 0.19145 -0.09536 0.71595
 N771 N 0.73880 0.34122 0.20582
 C772 C 0.74166 0.35359 0.22105
 N773 N 0.75696 0.35049 0.23327
 N774 N 0.76903 0.33547 0.23035
 C775 C 0.76621 0.32305 0.21511
 N776 N 0.75087 0.32621 0.20290
 C777 C 0.72867 0.36977 0.22419
 C778 C 0.71776 0.38336 0.22683
 C779 C 0.70477 0.39954 0.22999
 N780 N 0.70574 0.41006 0.24676
 N781 N 0.69368 0.42509 0.24968
 C782 C 0.68023 0.43016 0.23596
 N783 N 0.67935 0.41954 0.21918
 N784 N 0.69140 0.40450 0.21625
 N785 N 0.75674 0.64959 0.26702
 C786 C 0.74145 0.64648 0.27924
 N787 N 0.73857 0.65886 0.29445
 N788 N 0.75062 0.67390 0.29736
 C789 C 0.76596 0.67706 0.28515
 N790 N 0.76880 0.66463 0.26992
 C791 C 0.72848 0.63028 0.27611
 C792 C 0.71758 0.61666 0.27348
 C793 C 0.70463 0.60045 0.27034
 N794 N 0.69126 0.59548 0.28409
 N795 N 0.67924 0.58042 0.28117
 C796 C 0.68014 0.56978 0.26440
 N797 N 0.69358 0.57486 0.25067
 N798 N 0.70561 0.58992 0.25358
 N799 N 0.25726 0.14984 0.76653
 C800 C 0.24193 0.14672 0.77870
 N801 N 0.23901 0.15909 0.79391
 N802 N 0.25106 0.17413 0.79687
 C803 C 0.26645 0.17732 0.78471
 N804 N 0.26931 0.16488 0.76948
 C805 C 0.22896 0.13053 0.77553
 C806 C 0.21806 0.11692 0.77289
 C807 C 0.20508 0.10072 0.76975
 N808 N 0.19172 0.09577 0.78351
 N809 N 0.17967 0.08073 0.78061
 C810 C 0.18054 0.07008 0.76384
 N811 N 0.19398 0.07514 0.75010
 N812 N 0.20604 0.09019 0.75300
 N813 N 0.23304 0.24313 0.14922
 C814 C 0.22083 0.25843 0.14608
 N815 N 0.20561 0.26137 0.15844
 N816 N 0.20269 0.24936 0.17349
 C817 C 0.21489 0.23401 0.17668
 N818 N 0.23012 0.23112 0.16427
 C819 C 0.22397 0.27136 0.12987
 C820 C 0.22660 0.28223 0.11626
 C821 C 0.22972 0.29518 0.10006
 N822 N 0.21595 0.30853 0.09510
 N823 N 0.21885 0.32056 0.08006
 C824 C 0.23562 0.31967 0.06942
 N825 N 0.24937 0.30623 0.07448
 N826 N 0.24647 0.29420 0.08952
 N827 N 0.70568 0.76196 0.65856
 C828 C 0.72090 0.75904 0.64620
 N829 N 0.73306 0.74369 0.64928
 N830 N 0.73009 0.73162 0.66428
 C831 C 0.71486 0.73450 0.67669
 N832 N 0.70271 0.74990 0.67355
 C833 C 0.72409 0.77203 0.63005
 C834 C 0.72676 0.78294 0.61648
 C835 C 0.72993 0.79593 0.60032
 N836 N 0.74672 0.79498 0.58984
 N837 N 0.74966 0.80704 0.57483
 C838 C 0.73593 0.82048 0.56976
 N839 N 0.71912 0.82135 0.58034
 N840 N 0.71618 0.80930 0.59535
 N841 N 0.79465 0.76206 0.34137
 C842 C 0.77943 0.75918 0.35374
 N843 N 0.76722 0.74386 0.35064
 N844 N 0.77014 0.73179 0.33563
 C845 C 0.78537 0.73464 0.32321
 N846 N 0.79758 0.75000 0.32636
 C847 C 0.77629 0.77216 0.36992
 C848 C 0.77364 0.78307 0.38351
 C849 C 0.77048 0.79603 0.39970
 N850 N 0.75371 0.79504 0.41020
 N851 N 0.75078 0.80708 0.42524
 C852 C 0.76450 0.82054 0.43033
 N853 N 0.78129 0.82145 0.41972
 N854 N 0.78423 0.80942 0.40468
 N855 N 0.29428 0.26145 -0.15908
 C856 C 0.27902 0.25855 -0.14676
 N857 N 0.26682 0.24323 -0.14991
 N858 N 0.26979 0.23117 -0.16493
 C859 C 0.28506 0.23403 -0.17730
 N860 N 0.29725 0.24939 -0.17409
 C861 C 0.27584 0.27152 -0.13058
 C862 C 0.27316 0.28241 -0.11698
 C863 C 0.26999 0.29536 -0.10078
 N864 N 0.25320 0.29437 -0.09030
 N865 N 0.25027 0.30639 -0.07525
 C866 C 0.26400 0.31984 -0.07014
 N867 N 0.28079 0.32075 -0.08073
 N868 N 0.28374 0.30873 -0.09578
 N869 N 0.73350 0.25656 -0.14924
 C870 C 0.72131 0.24124 -0.14611
 N871 N 0.70604 0.23834 -0.15842
 N872 N 0.70306 0.25039 -0.17342
 C873 C 0.71525 0.26575 -0.17661
 N874 N 0.73053 0.26862 -0.16425
 C875 C 0.72450 0.22827 -0.12995
 C876 C 0.72717 0.21736 -0.11637
 C877 C 0.73034 0.20438 -0.10021
 N878 N 0.71658 0.19100 -0.09525
 N879 N 0.71952 0.17895 -0.08024
 C880 C 0.73631 0.17983 -0.06964
 N881 N 0.75005 0.19329 -0.07470
 N882 N 0.74711 0.20535 -0.08971
 N883 N 0.20577 0.73861 0.34125
 C884 C 0.22096 0.74154 0.35364
 N885 N 0.23319 0.75684 0.35054
 N886 N 0.23030 0.76887 0.33549
 C887 C 0.21509 0.76599 0.32305
 N888 N 0.20288 0.75064 0.32620
 C889 C 0.22406 0.72859 0.36984
 C890 C 0.22667 0.71771 0.38345
 C891 C 0.22978 0.70475 0.39964
 N892 N 0.24652 0.70573 0.41019
 N893 N 0.24940 0.69370 0.42523
 C894 C 0.23565 0.68025 0.43027
 N895 N 0.21889 0.67936 0.41961
 N896 N 0.21600 0.69139 0.40458
 N897 N 0.29385 0.73872 0.65880
 C898 C 0.27863 0.74163 0.64643
 N899 N 0.26645 0.75697 0.64953
 N900 N 0.26939 0.76903 0.66455
 C901 C 0.28462 0.76616 0.67697
 N902 N 0.29679 0.75078 0.67382
 C903 C 0.27547 0.72866 0.63025
 C904 C 0.27283 0.71775 0.61665
 C905 C 0.26969 0.70478 0.60046
 N906 N 0.25294 0.70575 0.58993
 N907 N 0.25003 0.69371 0.57489
 C908 C 0.26377 0.68026 0.56983
 N909 N 0.28054 0.67937 0.58047
 N910 N 0.28345 0.69141 0.59551
 N911 N 0.79496 0.23815 0.15880
 C912 C 0.77973 0.24103 0.14644
 N913 N 0.76751 0.25633 0.14956
 N914 N 0.77042 0.26839 0.16458
 C915 C 0.78566 0.26555 0.17699
 N916 N 0.79788 0.25021 0.17383
 C917 C 0.77660 0.22805 0.13026
 C918 C 0.77395 0.21716 0.11665
 C919 C 0.77080 0.20420 0.10046
 N920 N 0.75403 0.20518 0.08995
 N921 N 0.75110 0.19315 0.07491
 C922 C 0.76483 0.17970 0.06981
 N923 N 0.78162 0.17881 0.08042
 N924 N 0.78456 0.19083 0.09546
 N925 N 0.48295 0.39919 0.49374
 C926 C 0.47073 0.39609 0.50903
 N927 N 0.45550 0.40846 0.51192
 N928 N 0.45258 0.42348 0.49987
 C929 C 0.46479 0.42664 0.48454
 N930 N 0.48003 0.41422 0.48170
 C931 C 0.47387 0.37991 0.52200
 C932 C 0.47649 0.36631 0.53289
 C933 C 0.47964 0.35012 0.54585
 N934 N 0.46586 0.34515 0.55920
 N935 N 0.46878 0.33012 0.57123
 C936 C 0.48557 0.31950 0.57036
 N937 N 0.49932 0.32457 0.55693
 N938 N 0.49641 0.33961 0.54490
 N939 N -0.01677 0.89959 -0.00688
 C940 C -0.02898 0.89644 0.00840
 N941 N -0.04423 0.90878 0.01131
 N942 N -0.04717 0.92383 -0.00070
 C943 C -0.03496 0.92704 -0.01603
 N944 N -0.01970 0.91464 -0.01890
 C945 C -0.02583 0.88023 0.02133
 C946 C -0.02317 0.86660 0.03218
 C947 C -0.02001 0.85039 0.04510
 N948 N -0.03374 0.84541 0.05848
 N949 N -0.03081 0.83035 0.07047
 C950 C -0.01403 0.81971 0.06952
 N951 N -0.00032 0.82479 0.05606
 N952 N -0.00325 0.83985 0.04407
 N953 N 0.04422 0.59094 0.01102
 C954 C 0.02900 0.60331 0.00813
 N955 N 0.01678 0.60018 -0.00716
 N956 N 0.01970 0.58514 -0.01920
 C957 C 0.03494 0.57270 -0.01637
 N958 N 0.04714 0.57590 -0.00102
 C959 C 0.02586 0.61951 0.02108
 C960 C 0.02323 0.63313 0.03197
 C961 C 0.02012 0.64934 0.04493
 N962 N 0.00336 0.65987 0.04399
 N963 N 0.00047 0.67492 0.05602
 C964 C 0.01424 0.68000 0.06943
 N965 N 0.03102 0.66937 0.07029
 N966 N 0.03391 0.65432 0.05826
 N967 N 0.51703 0.10018 0.49378
 C968 C 0.52923 0.10333 0.50907
 N969 N 0.54451 0.09103 0.51194
 N970 N 0.54750 0.07601 0.49988
 C971 C 0.53530 0.07281 0.48454
 N972 N 0.52001 0.08516 0.48171
 C973 C 0.52603 0.11951 0.52205
 C974 C 0.52334 0.13310 0.53295
 C975 C 0.52015 0.14929 0.54591
 N976 N 0.53388 0.15429 0.55929
 N977 N 0.53092 0.16933 0.57132
 C978 C 0.51412 0.17993 0.57041
 N979 N 0.50041 0.17483 0.55695
 N980 N 0.50337 0.15979 0.54492
 N981 N -0.01717 0.10081 0.50657
 C982 C -0.02941 0.10394 0.49129
 N983 N -0.04465 0.09158 0.48842
 N984 N -0.04758 0.07655 0.50046
 C985 C -0.03535 0.07337 0.51577
 N986 N -0.02009 0.08578 0.51861
 C987 C -0.02627 0.12013 0.47834
 C988 C -0.02362 0.13373 0.46745
 C989 C -0.02046 0.14993 0.45451
 N990 N -0.00370 0.16046 0.45550
 N991 N -0.00077 0.17550 0.44348
 C992 C -0.01449 0.18056 0.43002
 N993 N -0.03127 0.16992 0.42911
 N994 N -0.03420 0.15488 0.44113
 N995 N 0.48309 0.60079 1.00673
 C996 C 0.47088 0.60392 0.99143
 N997 N 0.45565 0.59156 0.98852
 N998 N 0.45272 0.57651 1.00053
 C999 C 0.46491 0.57333 1.01587
 N1000 N 0.48016 0.58575 1.01875
 C1001 C 0.47403 0.62013 0.97850
 C1002 C 0.47667 0.63375 0.96763
 C1003 C 0.47980 0.64995 0.95468
 N1004 N 0.49657 0.66048 0.95564
 N1005 N 0.49947 0.67552 0.94362
 C1006 C 0.48572 0.68060 0.93020
 N1007 N 0.46893 0.66996 0.92932
 N1008 N 0.46603 0.65492 0.94134
 N1009 N 0.54445 0.90909 0.98881
 C1010 C 0.52920 0.89675 0.99170
 N1011 N 0.51702 0.89986 1.00702
 N1012 N 0.52000 0.91487 1.01909
 C1013 C 0.53527 0.92728 1.01627
 N1014 N 0.54743 0.92410 1.00088
 C1015 C 0.52600 0.88059 0.97870
 C1016 C 0.52331 0.86700 0.96779
 C1017 C 0.52013 0.85082 0.95481
 N1018 N 0.50336 0.84031 0.95579
 N1019 N 0.50041 0.82528 0.94374
 C1020 C 0.51413 0.82021 0.93027
 N1021 N 0.53092 0.83082 0.92938
 N1022 N 0.53387 0.84586 0.94142
 N1023 N 0.04403 0.40910 0.48859
 C1024 C 0.02882 0.39672 0.49148
 N1025 N 0.01663 0.39980 0.50680
 N1026 N 0.01958 0.41480 0.51888
 C1027 C 0.03482 0.42726 0.51606
 N1028 N 0.04699 0.42411 0.50067
 C1029 C 0.02565 0.38055 0.47848
 C1030 C 0.02300 0.36697 0.46756
 C1031 C 0.01985 0.35079 0.45457
 N1032 N 0.00307 0.34027 0.45551
 N1033 N 0.00015 0.32524 0.44346
 C1034 C 0.01390 0.32016 0.43003
 N1035 N 0.03070 0.33078 0.42917
 N1036 N 0.03362 0.34582 0.44122
 N1037 N 0.40850 0.51157 0.45590
 C1038 C 0.39613 0.50869 0.47112
 N1039 N 0.39924 0.49339 0.48332
 N1040 N 0.41426 0.48132 0.48040
 C1041 C 0.42668 0.48416 0.46517
 N1042 N 0.42352 0.49950 0.45298
 C1043 C 0.37994 0.52167 0.47426
 C1044 C 0.36634 0.53257 0.47689
 C1045 C 0.35014 0.54554 0.48002
 N1046 N 0.33959 0.54456 0.49676
 N1047 N 0.32455 0.55660 0.49966
 C1048 C 0.31950 0.57006 0.48593
 N1049 N 0.33015 0.57095 0.46918
 N1050 N 0.34520 0.55891 0.46628
 N1051 N 0.90944 0.01130 -0.04464
 C1052 C 0.89708 0.00837 -0.02943
 N1053 N 0.90020 -0.00695 -0.01727
 N1054 N 0.91524 -0.01899 -0.02021
 C1055 C 0.92768 -0.01612 -0.03544
 N1056 N 0.92448 -0.00073 -0.04759
 C1057 C 0.88087 0.02133 -0.02626
 C1058 C 0.86726 0.03220 -0.02359
 C1059 C 0.85105 0.04515 -0.02040
 N1060 N 0.84056 0.04414 -0.00363
 N1061 N 0.82550 0.05616 -0.00067
 C1062 C 0.82039 0.06962 -0.01437
 N1063 N 0.83099 0.07054 -0.03116
 N1064 N 0.84604 0.05852 -0.03412
 N1065 N 0.60081 -0.00693 0.01683
 C1066 C 0.60399 0.00835 0.02906
 N1067 N 0.59166 0.01124 0.04431
 N1068 N 0.57661 -0.00079 0.04724
 C1069 C 0.57339 -0.01612 0.03502
 N1070 N 0.58577 -0.01897 0.01976
 C1071 C 0.62020 0.02130 0.02590
 C1072 C 0.63382 0.03218 0.02325
 C1073 C 0.65004 0.04512 0.02012
 N1074 N 0.65505 0.05847 0.03388
 N1075 N 0.67012 0.07049 0.03096
 C1076 C 0.68073 0.06959 0.01418
 N1077 N 0.67561 0.05617 0.00044
 N1078 N 0.66055 0.04415 0.00335
 N1079 N 0.10020 0.49322 0.51662
 C1080 C 0.10333 0.50851 0.52886
 N1081 N 0.09100 0.51136 0.54411
 N1082 N 0.07598 0.49928 0.54704
 C1083 C 0.07280 0.48395 0.53482
 N1084 N 0.08519 0.48114 0.51955
 C1085 C 0.11950 0.52151 0.52571
 C1086 C 0.13309 0.53244 0.52308
 C1087 C 0.14927 0.54544 0.51995
 N1088 N 0.15420 0.55882 0.53371
 N1089 N 0.16923 0.57088 0.53081
 C1090 C 0.17988 0.57001 0.51406
 N1091 N 0.17484 0.55654 0.50032
 N1092 N 0.15981 0.54448 0.50321
 N1093 N 0.10033 0.50675 -0.01688
 C1094 C 0.10342 0.49143 -0.02908
 N1095 N 0.09105 0.48853 -0.04429
 N1096 N 0.07603 0.50059 -0.04722
 C1097 C 0.07288 0.51596 -0.03504
 N1098 N 0.08531 0.51882 -0.01981
 C1099 C 0.11960 0.47844 -0.02593
 C1100 C 0.13320 0.46753 -0.02330
 C1101 C 0.14938 0.45454 -0.02019
 N1102 N 0.15433 0.44118 -0.03397
 N1103 N 0.16936 0.42912 -0.03107
 C1104 C 0.17998 0.42997 -0.01430
 N1105 N 0.17493 0.44341 -0.00054
 N1106 N 0.15990 0.45547 -0.00343
 N1107 N 0.59114 0.98875 0.45567
 C1108 C 0.60349 0.99168 0.47089
 N1109 N 0.60031 1.00697 0.48311
 N1110 N 0.58524 1.01897 0.48019
 C1111 C 0.57282 1.01610 0.46495
 N1112 N 0.57607 1.00075 0.45275
 C1113 C 0.61972 0.97876 0.47403
 C1114 C 0.63336 0.96791 0.47668
 C1115 C 0.64960 0.95500 0.47984
 N1116 N 0.66009 0.95601 0.49661
 N1117 N 0.67517 0.94402 0.49954
 C1118 C 0.68031 0.93059 0.48582
 N1119 N 0.66971 0.92966 0.46903
 N1120 N 0.65463 0.94165 0.46609
 N1121 N 0.89983 1.00733 0.51715
 C1122 C 0.89671 0.99201 0.52933
 N1123 N 0.90909 0.98910 0.54453
 N1124 N 0.92413 1.00115 0.54746
 C1125 C 0.92732 1.01653 0.53529
 N1126 N 0.91487 1.01938 0.52007
 C1127 C 0.88051 0.97905 0.52618
 C1128 C 0.86689 0.96816 0.52353
 C1129 C 0.85068 0.95521 0.52037
 N1130 N 0.84568 0.94185 0.53410
 N1131 N 0.83062 0.92983 0.53117
 C1132 C 0.82001 0.93073 0.51439
 N1133 N 0.82511 0.94417 0.50067
 N1134 N 0.84017 0.95620 0.50360
 N1135 N 0.40855 0.48835 0.04428
 C1136 C 0.39620 0.49126 0.02906
 N1137 N 0.39933 0.50659 0.01689
 N1138 N 0.41436 0.51864 0.01986
 C1139 C 0.42676 0.51578 0.03509
 N1140 N 0.42358 0.50040 0.04725
 C1141 C 0.38002 0.47828 0.02587
 C1142 C 0.36641 0.46739 0.02320
 C1143 C 0.35021 0.45442 0.02003
 N1144 N 0.33969 0.45543 0.00328
 N1145 N 0.32464 0.44339 0.00034
 C1146 C 0.31957 0.42991 0.01403
 N1147 N 0.33020 0.42899 0.03080
 N1148 N 0.34525 0.44102 0.03374
 N1149 N 0.49340 0.48292 0.39965
 C1150 C 0.50870 0.47071 0.39653
 N1151 N 0.51159 0.45548 0.40888
 N1152 N 0.49954 0.45255 0.42390
 C1153 C 0.48419 0.46475 0.42707
 N1154 N 0.48134 0.48000 0.41467
 C1155 C 0.52167 0.47386 0.38035
 C1156 C 0.53256 0.47651 0.36675
 C1157 C 0.54552 0.47967 0.35057
 N1158 N 0.55889 0.46592 0.34557
 N1159 N 0.57091 0.46886 0.33054
 C1160 C 0.57001 0.48565 0.31994
 N1161 N 0.55656 0.49938 0.32504
 N1162 N 0.54453 0.49645 0.34007
 N1163 N 0.01182 -0.04394 0.90840
 C1164 C 0.00893 -0.02870 0.89608
 N1165 N -0.00639 -0.01650 0.89921
 N1166 N -0.01845 -0.01946 0.91422
 C1167 C -0.01559 -0.03472 0.92659
 N1168 N -0.00024 -0.04691 0.92341
 C1169 C 0.02190 -0.02553 0.87991
 C1170 C 0.03280 -0.02288 0.86632
 C1171 C 0.04578 -0.01974 0.85014
 N1172 N 0.04482 -0.00298 0.83963
 N1173 N 0.05686 -0.00007 0.82460
 C1174 C 0.07031 -0.01382 0.81954
 N1175 N 0.07119 -0.03059 0.83016
 N1176 N 0.05915 -0.03350 0.84518
 N1177 N -0.00667 0.01701 0.60056
 C1178 C 0.00865 0.02922 0.60366
 N1179 N 0.01153 0.04446 0.59131
 N1180 N -0.00055 0.04740 0.57632
 C1181 C -0.01591 0.03520 0.57317
 N1182 N -0.01875 0.01995 0.58557
 C1183 C 0.02166 0.02607 0.61981
 C1184 C 0.03258 0.02342 0.63337
 C1185 C 0.04559 0.02029 0.64953
 N1186 N 0.05898 0.03405 0.65445
 N1187 N 0.07105 0.03114 0.66945
 C1188 C 0.07018 0.01437 0.68009
 N1189 N 0.05670 0.00064 0.67506
 N1190 N 0.04463 0.00354 0.66006
 N1191 N 0.49344 0.51689 0.10067
 C1192 C 0.50875 0.52910 0.10382
 N1193 N 0.51165 0.54435 0.09151
 N1194 N 0.49960 0.54731 0.07649
 C1195 C 0.48425 0.53511 0.07328
 N1196 N 0.48139 0.51984 0.08565
 C1197 C 0.52171 0.52592 0.12000
 C1198 C 0.53259 0.52326 0.13360
 C1199 C 0.54554 0.52010 0.14979
 N1200 N 0.55890 0.53386 0.15479
 N1201 N 0.57093 0.53093 0.16983
 C1202 C 0.57003 0.51414 0.18042
 N1203 N 0.55659 0.50040 0.17531
 N1204 N 0.54456 0.50332 0.16028
 N1205 N 0.50677 -0.01734 0.10068
 C1206 C 0.49145 -0.02954 0.10379
 N1207 N 0.48851 -0.04475 0.09140
 N1208 N 0.50054 -0.04766 0.07636
 C1209 C 0.51591 -0.03547 0.07320
 N1210 N 0.51880 -0.02026 0.08564
 C1211 C 0.47851 -0.02641 0.11999
 C1212 C 0.46763 -0.02377 0.13360
 C1213 C 0.45467 -0.02063 0.14980
 N1214 N 0.44128 -0.03438 0.15475
 N1215 N 0.42926 -0.03145 0.16979
 C1216 C 0.43017 -0.01468 0.18042
 N1217 N 0.44363 -0.00095 0.17537
 N1218 N 0.45566 -0.00387 0.16033
 N1219 N 1.00621 0.48260 0.60046
 C1220 C 0.99091 0.47037 0.60358
 N1221 N 0.98800 0.45516 0.59120
 N1222 N 1.00003 0.45225 0.57616
 C1223 C 1.01537 0.46446 0.57299
 N1224 N 1.01824 0.47969 0.58542
 C1225 C 0.97796 0.47351 0.61978
 C1226 C 0.96708 0.47615 0.63339
 C1227 C 0.95414 0.47931 0.64960
 N1228 N 0.94079 0.46554 0.65460
 N1229 N 0.92878 0.46848 0.66965
 C1230 C 0.92967 0.48528 0.68024
 N1231 N 0.94310 0.49903 0.67513
 N1232 N 0.95512 0.49609 0.66009
 N1233 N 0.98798 0.54454 0.90865
 C1234 C 0.99087 0.52928 0.89632
 N1235 N 1.00618 0.51707 0.89945
 N1236 N 1.01823 0.52003 0.91446
 C1237 C 1.01538 0.53530 0.92685
 N1238 N 1.00004 0.54750 0.92366
 C1239 C 0.97790 0.52609 0.88014
 C1240 C 0.96702 0.52340 0.86655
 C1241 C 0.95407 0.52019 0.85036
 N1242 N 0.95506 0.50338 0.83990
 N1243 N 0.94305 0.50040 0.82486
 C1244 C 0.92960 0.51411 0.81973
 N1245 N 0.92868 0.53093 0.83029
 N1246 N 0.94070 0.53392 0.84533
 N1247 N 0.50690 0.01645 0.39959
 C1248 C 0.49155 0.02862 0.39650
 N1249 N 0.48861 0.04382 0.40887
 N1250 N 0.50066 0.04679 0.42389
 C1251 C 0.51605 0.03463 0.42703
 N1252 N 0.51895 0.01941 0.41460
 C1253 C 0.47858 0.02544 0.38032
 C1254 C 0.46768 0.02279 0.36672
 C1255 C 0.45470 0.01964 0.35054
 N1256 N 0.44135 0.03341 0.34558
 N1257 N 0.42930 0.03049 0.33056
 C1258 C 0.43017 0.01370 0.31994
 N1259 N 0.44361 -0.00005 0.32500
 N1260 N 0.45566 0.00287 0.34003
   
