data_POSCAR
  _audit_creation_date              2014-09-24
  _audit_creation_method            'ToBaCCo'
  _symmetry_space_group_name_H-M    'P1'
  _symmetry_Int_Tables_number       1
  _symmetry_cell_setting            triclinic
  loop_
  _symmetry_equiv_pos_as_xyz
 x,y,z
_cell_length_a 66.6079
_cell_length_b 66.7391
_cell_length_c 67.1098
_cell_angle_alpha 89.651300
_cell_angle_beta 86.371200
_cell_angle_gamma 92.432400
loop_
  _atom_site_label
  _atom_site_type_symbol
  _atom_site_fract_x
  _atom_site_fract_y
  _atom_site_fract_z
C1 C 0.12312 -0.00779 0.24758
 C2 C 0.37574 0.00562 0.75759
 C3 C 0.87655 0.50653 0.25504
 C4 C 0.62466 0.49274 0.74315
 C5 C 0.25692 0.12750 0.99767
 C6 C 0.74740 0.37446 1.00020
 C7 C 0.24032 0.87310 0.50111
 C8 C 0.75783 0.62722 0.49866
 C9 C 0.00566 0.25545 0.12361
 C10 C -0.00651 0.74759 0.37672
 C11 C 0.49079 0.25121 0.87715
 C12 C 0.50616 0.74723 0.62366
 C13 C 0.87522 1.00182 0.76255
 C14 C 0.37662 0.50235 0.25853
 C15 C 0.62342 0.99547 0.24307
 C16 C 0.12448 0.49465 0.74017
 C17 C 0.74630 0.87371 -0.00231
 C18 C 0.24706 0.37275 0.49663
 C19 C 0.25766 0.62881 0.00166
 C20 C 0.75058 0.12680 0.50165
 C21 C 0.99069 0.75643 0.87710
 C22 C 0.49062 0.24812 0.37399
 C23 C 1.00560 0.24613 0.62347
 C24 C 0.50935 0.75153 0.12459
 O25 O 0.03881 1.00046 1.04599
 O26 O 0.04171 0.96921 1.02917
 O27 O 0.04547 1.04258 0.99700
 O28 O 0.03003 1.04903 0.96955
 O29 O -0.00254 1.04846 1.04328
 O30 O -0.03390 1.03094 1.05072
 O31 O -0.01265 0.99197 0.94982
 O32 O 0.02135 1.00302 0.94628
 O33 O -0.01539 0.94761 0.99545
 O34 O -0.00501 0.94694 1.02985
 O35 O -0.05762 0.99293 0.99709
 O36 O -0.05695 1.02818 1.00660
 O37 O -0.03977 1.00701 0.96426
 O38 O -0.04276 1.03953 0.98178
 O39 O -0.04591 0.96499 1.01105
 O40 O -0.02860 0.96071 1.04249
 O41 O -0.00091 0.96043 0.96632
 O42 O 0.03275 0.97622 0.95973
 O43 O 0.01181 1.01567 1.06055
 O44 O -0.02319 1.00545 1.06363
 O45 O 0.01376 1.06074 1.01474
 O46 O 0.00161 1.06051 0.98115
 O47 O 0.05714 1.01480 1.01137
 O48 O 0.05580 0.98034 1.00267
 Zr49 Zr 0.03144 0.99558 1.01631
 O50 O 0.01299 0.97638 0.99987
 Zr51 Zr 0.01451 1.03615 0.99531
 O52 O -0.00448 1.01872 0.97768
 Zr53 Zr -0.00804 1.01782 1.03747
 O54 O -0.02825 0.99974 1.02175
 Zr55 Zr 0.00721 0.99033 0.97280
 O56 O 0.02765 1.00868 0.98824
 Zr57 Zr -0.01544 0.97218 1.01498
 O58 O 0.00388 0.98940 1.03273
 Zr59 Zr -0.03224 1.01279 0.99376
 O60 O -0.01396 1.03216 1.01059
 O61 O 0.02002 1.02351 1.02269
 O62 O -0.02105 0.98468 0.98740
 C63 C 0.02920 1.00810 1.06114
 C64 C 0.05969 1.03236 1.00342
 C65 C 0.00589 1.06286 1.03253
 C66 C -0.03021 0.99912 0.94923
 C67 C -0.00927 0.94597 0.97702
 C68 C -0.05999 0.97496 1.00405
 H69 H 0.01957 0.96351 0.99777
 H70 H -0.04112 0.99797 1.02986
 H71 H 0.02917 1.03211 1.03039
 H72 H -0.00599 1.02582 0.96492
 H73 H 0.03315 1.01125 0.95023
 H74 H 0.02447 1.04246 0.95780
 H75 H -0.03966 0.96942 1.04689
 H76 H -0.01823 0.99178 1.06519
 H77 H 0.03597 0.96499 0.96848
 H78 H 0.05737 0.98512 0.98864
 H79 H -0.06076 1.02204 1.01982
 H80 H -0.03900 1.03972 1.04040
 H81 H 0.03095 0.96431 1.03908
 H82 H 0.00774 0.94319 1.02277
 H83 H -0.01101 1.06332 0.98903
 H84 H -0.03393 1.04332 0.96983
 O85 O 0.49132 0.48663 0.44409
 O86 O 0.52623 0.49563 0.44108
 O87 O 0.48926 0.44066 0.49021
 O88 O 0.49718 0.43837 0.52166
 O89 O 0.44561 0.48743 0.49300
 O90 O 0.44713 0.52162 0.50199
 O91 O 0.54302 0.49360 0.54020
 O92 O 0.54457 0.46208 0.52434
 O93 O 0.54899 0.53638 0.49382
 O94 O 0.53176 0.54131 0.46272
 O95 O 0.50364 0.54087 0.53859
 O96 O 0.47036 0.52401 0.54598
 O97 O 0.51611 0.50889 0.55475
 O98 O 0.47994 0.49914 0.55809
 O99 O 0.51846 0.55378 0.50967
 O100 O 0.50786 0.55458 0.47519
 O101 O 0.56074 0.50832 0.50754
 O102 O 0.56038 0.47412 0.49710
 O103 O 0.46422 0.50169 0.45865
 O104 O 0.46181 0.53317 0.47582
 O105 O 0.45714 0.45913 0.50648
 O106 O 0.47460 0.45598 0.53742
 O107 O 0.50398 0.45344 0.46113
 O108 O 0.53653 0.47006 0.45450
 Zr109 Zr 0.51080 0.48377 0.46731
 O110 O 0.53108 0.50181 0.48291
 Zr111 Zr 0.48803 0.46549 0.50930
 O112 O 0.50761 0.48244 0.52676
 Zr113 Zr 0.47152 0.50640 0.48839
 O114 O 0.49005 0.52521 0.50518
 Zr115 Zr 0.53530 0.48851 0.51070
 O116 O 0.51667 0.46922 0.49412
 Zr117 Zr 0.51845 0.52938 0.48998
 O118 O 0.49916 0.51234 0.47206
 Zr119 Zr 0.49592 0.51084 0.53201
 O120 O 0.47517 0.49304 0.51634
 O121 O 0.48266 0.47839 0.48200
 O122 O 0.52416 0.51661 0.51743
 C123 C 0.47393 0.49418 0.44348
 C124 C 0.49595 0.43888 0.47195
 C125 C 0.44297 0.46961 0.50031
 C126 C 0.53353 0.50143 0.55530
 C127 C 0.56311 0.52632 0.50064
 C128 C 0.51203 0.55539 0.52801
 H129 H 0.54385 0.50370 0.47469
 H130 H 0.48346 0.53804 0.50754
 H131 H 0.47352 0.46995 0.47415
 H132 H 0.50941 0.47504 0.53928
 H133 H 0.53878 0.45062 0.51697
 H134 H 0.50804 0.44183 0.53058
 H135 H 0.49537 0.55856 0.48260
 H136 H 0.47236 0.53764 0.46551
 H137 H 0.56306 0.47963 0.48345
 H138 H 0.54066 0.46039 0.46454
 H139 H 0.46661 0.53511 0.53731
 H140 H 0.44556 0.51686 0.51603
 H141 H 0.52213 0.50964 0.43981
 H142 H 0.54252 0.53241 0.45797
 H143 H 0.46450 0.46587 0.54149
 H144 H 0.48594 0.48636 0.56155
 O145 O 0.45162 -0.04145 0.49985
 O146 O 0.46876 -0.04676 0.46810
 O147 O 0.50036 -0.04500 0.53898
 O148 O 0.52945 -0.02883 0.54328
 O149 O 0.45823 0.00305 0.54555
 O150 O 0.45419 0.03314 0.52738
 O151 O 0.55406 0.00988 0.48326
 O152 O 0.55412 -0.02320 0.49614
 O153 O 0.50859 0.00855 0.44221
 O154 O 0.47296 -0.00162 0.44388
 O155 O 0.51074 0.05436 0.48554
 O156 O 0.50079 0.05594 0.52122
 O157 O 0.54186 0.03787 0.49781
 O158 O 0.52472 0.04302 0.53117
 O159 O 0.49541 0.04069 0.45928
 O160 O 0.46228 0.02252 0.45734
 O161 O 0.53618 -0.00545 0.45362
 O162 O 0.53999 -0.03667 0.47055
 O163 O 0.43958 -0.01353 0.51473
 O164 O 0.44009 0.02048 0.50337
 O165 O 0.48549 -0.01171 0.55686
 O166 O 0.52063 0.00023 0.55402
 O167 O 0.48413 -0.05857 0.51317
 O168 O 0.49394 -0.05986 0.47845
 Zr169 Zr 0.48242 -0.03444 0.49312
 O170 O 0.50103 -0.01736 0.47234
 Zr171 Zr 0.50512 -0.01448 0.53130
 O172 O 0.52494 0.00334 0.51213
 Zr173 Zr 0.46493 0.00643 0.51464
 O174 O 0.48292 0.02535 0.49490
 Zr175 Zr 0.52892 -0.01039 0.48420
 O176 O 0.51111 -0.02955 0.50419
 Zr177 Zr 0.48871 0.01061 0.46772
 O178 O 0.46870 -0.00752 0.48669
 Zr179 Zr 0.51148 0.03044 0.50598
 O180 O 0.49257 0.01352 0.52699
 O181 O 0.47696 -0.02103 0.52069
 O182 O 0.51706 0.01729 0.47817
 C183 C 0.43724 -0.03139 0.50792
 C184 C 0.49214 -0.05992 0.53003
 C185 C 0.46822 -0.00394 0.55962
 C186 C 0.55618 0.02801 0.48939
 C187 C 0.52628 0.00168 0.43958
 C188 C 0.50373 0.05555 0.46820
 H189 H 0.50253 -0.02495 0.45978
 H190 H 0.47600 0.03798 0.49311
 H191 H 0.46818 -0.02952 0.53008
 H192 H 0.53795 0.00549 0.51828
 H193 H 0.54890 -0.03458 0.50478
 H194 H 0.54192 -0.02375 0.53580
 H195 H 0.45867 0.03400 0.46591
 H196 H 0.43808 0.01455 0.49012
 H197 H 0.52994 -0.04193 0.46147
 H198 H 0.50763 -0.06141 0.48305
 H199 H 0.48797 0.05936 0.51562
 H200 H 0.46500 0.03876 0.53543
 H201 H 0.45982 -0.03651 0.46334
 H202 H 0.47851 -0.01481 0.44064
 H203 H 0.51414 0.01313 0.55653
 H204 H 0.53594 0.03461 0.53448
 O205 O -0.04271 0.46448 0.99755
 O206 O -0.02580 0.46012 0.96569
 O207 O 0.00690 0.46087 1.03603
 O208 O 0.03486 0.47790 1.04165
 O209 O -0.03690 0.50805 1.04404
 O210 O -0.04143 0.53844 1.02673
 O211 O 0.05888 0.51740 0.98172
 O212 O 0.05956 0.48426 0.99334
 O213 O 0.01323 0.51699 0.94077
 O214 O -0.02200 0.50621 0.94210
 O215 O 0.01504 0.56145 0.98512
 O216 O 0.00541 0.56246 1.02050
 O217 O 0.04654 0.54490 0.99709
 O218 O 0.02892 0.54902 1.03073
 O219 O -0.00046 0.54824 0.95874
 O220 O -0.03351 0.52941 0.95672
 O221 O 0.04111 0.50317 0.95174
 O222 O 0.04499 0.47096 0.96804
 O223 O -0.05524 0.49191 1.01295
 O224 O -0.05520 0.52631 1.00228
 O225 O -0.00945 0.49339 1.05502
 O226 O 0.02581 0.50643 1.05214
 O227 O -0.00975 0.44773 1.01027
 O228 O -0.00008 0.44744 0.97537
 Zr229 Zr -0.01208 0.47220 0.99078
 O230 O 0.00613 0.49000 0.97025
 Zr231 Zr 0.01038 0.49170 1.02938
 O232 O 0.02993 0.51004 1.01045
 Zr233 Zr -0.03020 0.51228 1.01325
 O234 O -0.01247 0.53190 0.99398
 Zr235 Zr 0.03395 0.49702 0.98217
 O236 O 0.01655 0.47731 1.00191
 Zr237 Zr -0.00661 0.51789 0.96641
 O238 O -0.02627 0.49902 0.98499
 Zr239 Zr 0.01611 0.53711 1.00501
 O240 O -0.00263 0.51956 1.02569
 O241 O -0.01769 0.48490 1.01869
 O242 O 0.02171 0.52468 0.97688
 C243 C -0.05726 0.47413 1.00586
 C244 C -0.00121 0.44607 1.02682
 C245 C -0.02688 0.50082 1.05795
 C246 C 0.06093 0.53530 0.98843
 C247 C 0.03112 0.51064 0.93793
 C248 C 0.00781 0.56296 0.96791
 H249 H 0.00770 0.48278 0.95749
 H250 H -0.01958 0.54447 0.99252
 H251 H -0.02626 0.47602 1.02790
 H252 H 0.04293 0.51216 1.01661
 H253 H 0.05458 0.47289 1.00212
 H254 H 0.04714 0.48226 1.03345
 H255 H -0.03700 0.54094 0.96527
 H256 H -0.05737 0.52039 0.98906
 H257 H 0.03562 0.46663 0.95789
 H258 H 0.01370 0.44608 0.97981
 H259 H -0.00789 0.56531 1.01562
 H260 H -0.03062 0.54412 1.03476
 H261 H -0.03470 0.47045 0.96103
 H262 H -0.01657 0.49298 0.93881
 H263 H 0.01857 0.51875 1.05548
 H264 H 0.04053 0.54094 1.03358
 O265 O 0.01098 0.43803 0.50595
 O266 O 0.00044 0.43866 0.47270
 O267 O 0.05673 0.48541 0.50452
 O268 O 0.05941 0.51800 0.49942
 O269 O 0.01015 0.48068 0.55351
 O270 O -0.02400 0.48938 0.55651
 O271 O 0.00289 0.54016 0.46064
 O272 O 0.03472 0.52623 0.45478
 O273 O -0.03962 0.49288 0.45711
 O274 O -0.04556 0.46029 0.47321
 O275 O -0.04307 0.53290 0.50506
 O276 O -0.02607 0.53657 0.53623
 O277 O -0.01144 0.55129 0.48988
 O278 O -0.00058 0.55028 0.52471
 O279 O -0.05663 0.50558 0.49005
 O280 O -0.05785 0.46920 0.49940
 O281 O -0.01159 0.50948 0.44338
 O282 O 0.02313 0.49954 0.43960
 O283 O -0.00505 0.44839 0.53476
 O284 O -0.03625 0.46475 0.54188
 O285 O 0.03847 0.49681 0.53976
 O286 O 0.04170 0.53046 0.52378
 O287 O 0.04347 0.45772 0.48979
 O288 O 0.02592 0.45430 0.45968
 Zr289 Zr 0.01297 0.46365 0.48748
 O290 O -0.00516 0.48126 0.47047
 Zr291 Zr 0.03198 0.50348 0.51019
 O292 O 0.01513 0.52297 0.49369
 Zr293 Zr -0.00920 0.47914 0.52994
 O294 O -0.02795 0.49791 0.51480
 Zr295 Zr 0.00851 0.51003 0.46631
 O296 O 0.02785 0.49173 0.48155
 Zr297 Zr -0.03264 0.48607 0.48647
 O298 O -0.01557 0.46609 0.50246
 Zr299 Zr -0.01314 0.52596 0.50887
 O300 O 0.00454 0.50806 0.52644
 O301 O 0.01878 0.47502 0.51538
 O302 O -0.01944 0.51462 0.48095
 C303 C 0.00309 0.43487 0.52371
 C304 C 0.05828 0.46807 0.49646
 C305 C 0.02808 0.48835 0.55454
 C306 C -0.00483 0.55392 0.47161
 C307 C -0.02956 0.50191 0.44246
 C308 C -0.05778 0.52319 0.49755
 H309 H -0.00724 0.47448 0.45767
 H310 H -0.04075 0.49917 0.52289
 H311 H 0.02735 0.46629 0.52289
 H312 H 0.02264 0.53598 0.49163
 H313 H 0.04637 0.51884 0.45894
 H314 H 0.05618 0.52761 0.48895
 H315 H -0.06226 0.47573 0.51203
 H316 H -0.04106 0.45570 0.53139
 H317 H 0.01634 0.48675 0.43597
 H318 H 0.03561 0.46519 0.45485
 H319 H -0.03702 0.52689 0.54093
 H320 H -0.01887 0.50335 0.55835
 H321 H -0.01333 0.43614 0.47890
 H322 H -0.03589 0.45592 0.46249
 H323 H 0.03216 0.53269 0.53539
 H324 H 0.01174 0.55538 0.51699
 O325 O 0.51345 0.94347 0.00674
 O326 O 0.50228 0.94412 -0.02641
 O327 O 0.55864 0.99117 0.00501
 O328 O 0.56078 1.02380 -0.00119
 O329 O 0.51305 0.98627 0.05427
 O330 O 0.47868 0.99436 0.05794
 O331 O 0.50255 1.04549 -0.03817
 O332 O 0.53498 1.03236 -0.04436
 O333 O 0.46123 0.99746 -0.04101
 O334 O 0.45629 0.96462 -0.02472
 O335 O 0.45787 1.03735 0.00708
 O336 O 0.47575 1.04098 0.03820
 O337 O 0.48897 1.05633 -0.00847
 O338 O 0.50024 1.05571 0.02585
 O339 O 0.44458 1.00984 -0.00785
 O340 O 0.44391 0.97368 0.00135
 O341 O 0.48880 1.01445 -0.05522
 O342 O 0.52360 1.00549 -0.05964
 O343 O 0.49789 0.95366 0.03585
 O344 O 0.46667 0.96944 0.04369
 O345 O 0.54082 1.00311 0.04021
 O346 O 0.54362 1.03625 0.02405
 O347 O 0.54537 0.96353 -0.00978
 O348 O 0.52757 0.95996 -0.03962
 Zr349 Zr 0.51480 0.96915 -0.01168
 O350 O 0.49614 0.98652 -0.02832
 Zr351 Zr 0.53378 1.00921 0.01067
 O352 O 0.51618 1.02848 -0.00533
 Zr353 Zr 0.49321 0.98431 0.03115
 O354 O 0.47381 1.00268 0.01642
 Zr355 Zr 0.50925 1.01554 -0.03262
 O356 O 0.52918 0.99743 -0.01787
 Zr357 Zr 0.46884 0.99078 -0.01183
 O358 O 0.48650 0.97112 0.00384
 Zr359 Zr 0.48808 1.03095 0.01035
 O360 O 0.50651 1.01338 0.02742
 O361 O 0.52101 0.98060 0.01609
 O362 O 0.48144 1.01955 -0.01745
 C363 C 0.50593 0.94023 0.02464
 C364 C 0.56018 0.97384 -0.00310
 C365 C 0.53077 0.99450 0.05512
 C366 C 0.49487 1.05907 -0.02691
 C367 C 0.47092 1.00656 -0.05583
 C368 C 0.44320 1.02738 -0.00027
 H369 H 0.49398 0.97972 -0.04109
 H370 H 0.46112 1.00372 0.02474
 H371 H 0.52980 0.97202 0.02351
 H372 H 0.52341 1.04164 -0.00748
 H373 H 0.54686 1.02506 -0.04068
 H374 H 0.55703 1.03401 -0.01086
 H375 H 0.43984 0.97992 0.01424
 H376 H 0.46162 0.96052 0.03322
 H377 H 0.51733 0.99233 -0.06293
 H378 H 0.53701 0.97100 -0.04459
 H379 H 0.46444 1.03159 0.04263
 H380 H 0.48369 1.00837 0.05973
 H381 H 0.48873 0.94125 -0.01983
 H382 H 0.46560 0.96076 -0.03598
 H383 H 0.53391 1.03878 0.03545
 H384 H 0.51268 1.06068 0.01823
 O385 O 0.49609 0.45699 -0.03535
 O386 O 0.46555 0.47400 -0.03803
 O387 O 0.54072 0.50488 -0.04492
 O388 O 0.54961 0.53338 -0.03075
 O389 O 0.54405 0.46216 0.00391
 O390 O 0.52694 0.45866 0.03602
 O391 O 0.49242 0.55850 0.01200
 O392 O 0.50439 0.55901 -0.02183
 O393 O 0.44616 0.51384 0.01708
 O394 O 0.44313 0.47875 0.00932
 O395 O 0.49204 0.51613 0.05804
 O396 O 0.52643 0.50553 0.05728
 O397 O 0.50819 0.54673 0.03846
 O398 O 0.53979 0.52827 0.04126
 O399 O 0.46324 0.50117 0.04790
 O400 O 0.45714 0.46749 0.03205
 O401 O 0.46039 0.54132 0.00079
 O402 O 0.47698 0.54456 -0.03265
 O403 O 0.50983 0.44443 -0.00800
 O404 O 0.50023 0.44521 0.02709
 O405 O 0.55829 0.48929 -0.01302
 O406 O 0.56002 0.52454 -0.00243
 O407 O 0.51217 0.48927 -0.05499
 O408 O 0.47811 0.49939 -0.05324
 Zr409 Zr 0.49276 0.48752 -0.02903
 O410 O 0.47461 0.50616 -0.01108
 Zr411 Zr 0.53482 0.50942 -0.01415
 O412 O 0.51848 0.52944 0.00411
 Zr413 Zr 0.51398 0.46960 0.01037
 O414 O 0.49710 0.48784 0.03007
 Zr415 Zr 0.49016 0.53370 -0.00695
 O416 O 0.50760 0.51586 -0.02682
 Zr417 Zr 0.46977 0.49391 0.01779
 O418 O 0.48571 0.47382 -0.00098
 Zr419 Zr 0.51189 0.51613 0.03237
 O420 O 0.53008 0.49689 0.01470
 O421 O 0.52042 0.48164 -0.01808
 O422 O 0.48394 0.52195 0.02174
 C423 C 0.50262 0.44248 -0.02525
 C424 C 0.53008 0.49696 -0.05839
 C425 C 0.55918 0.47182 -0.00501
 C426 C 0.50023 0.56079 0.02889
 C427 C 0.44536 0.53161 0.00979
 C428 C 0.47369 0.50961 0.06121
 H429 H 0.46180 0.50780 -0.01742
 H430 H 0.49496 0.48103 0.04319
 H431 H 0.52848 0.47283 -0.02699
 H432 H 0.52629 0.54231 0.00484
 H433 H 0.51247 0.55391 -0.03347
 H434 H 0.54333 0.54585 -0.02621
 H435 H 0.46512 0.46459 0.04359
 H436 H 0.48640 0.44332 0.02260
 H437 H 0.46546 0.53544 -0.03552
 H438 H 0.48432 0.51295 -0.05600
 H439 H 0.51994 0.49240 0.06131
 H440 H 0.53651 0.46936 0.04017
 H441 H 0.46029 0.46498 -0.02696
 H442 H 0.44054 0.48350 -0.00423
 H443 H 0.56282 0.51743 0.01001
 H444 H 0.54398 0.53966 0.03223
 O445 O -0.01531 -0.05003 0.46692
 O446 O -0.04474 -0.03195 0.46318
 O447 O 0.03096 -0.00288 0.45544
 O448 O 0.03903 0.02684 0.46824
 O449 O 0.03475 -0.04358 0.50491
 O450 O 0.01772 -0.04667 0.53715
 O451 O -0.01637 0.05285 0.51167
 O452 O -0.00480 0.05236 0.47748
 O453 O -0.06289 0.00871 0.51845
 O454 O -0.06622 -0.02688 0.51064
 O455 O -0.01649 0.01064 0.55856
 O456 O 0.01818 0.00024 0.55710
 O457 O -0.00070 0.04130 0.53830
 O458 O 0.03071 0.02331 0.54123
 O459 O -0.04546 -0.00459 0.54914
 O460 O -0.05249 -0.03764 0.53360
 O461 O -0.04875 0.03565 0.50120
 O462 O -0.03304 0.03845 0.46792
 O463 O 0.00060 -0.06154 0.49345
 O464 O -0.00900 -0.06037 0.52844
 O465 O 0.04875 -0.01675 0.48734
 O466 O 0.05078 0.01841 0.49661
 O467 O 0.00225 -0.01856 0.44580
 O468 O -0.03155 -0.00731 0.44745
 Zr469 Zr -0.01717 -0.01902 0.47191
 O470 O -0.03495 0.00009 0.48976
 Zr471 Zr 0.02517 0.00311 0.48588
 O472 O 0.00922 0.02347 0.50406
 Zr473 Zr 0.00464 -0.03614 0.51138
 O474 O -0.01202 -0.01760 0.53089
 Zr475 Zr -0.01920 0.02765 0.49326
 O476 O -0.00221 0.00934 0.47343
 Zr477 Zr -0.03953 -0.01160 0.51888
 O478 O -0.02382 -0.03208 0.50034
 Zr479 Zr 0.00292 0.01067 0.53259
 O480 O 0.02087 -0.00882 0.51500
 O481 O 0.01064 -0.02475 0.48266
 O482 O -0.02516 0.01646 0.52223
 C483 C -0.00800 -0.06414 0.47699
 C484 C 0.02035 -0.01134 0.44225
 C485 C 0.04979 -0.03400 0.49574
 C486 C -0.00845 0.05532 0.52849
 C487 C -0.06367 0.02633 0.51078
 C488 C -0.03465 0.00375 0.56223
 H489 H -0.04786 0.00173 0.48359
 H490 H -0.01397 -0.02428 0.54409
 H491 H 0.01852 -0.03390 0.47399
 H492 H 0.01712 0.03632 0.50450
 H493 H 0.00262 0.04689 0.46561
 H494 H 0.03363 0.03949 0.47345
 H495 H -0.04369 -0.04124 0.54428
 H496 H -0.02283 -0.06237 0.52400
 H497 H -0.04374 0.02857 0.46452
 H498 H -0.02494 0.00600 0.44430
 H499 H 0.01142 -0.01258 0.56175
 H500 H 0.02753 -0.03602 0.54093
 H501 H -0.05057 -0.04004 0.47471
 H502 H -0.06978 -0.02121 0.49775
 H503 H 0.05333 0.01212 0.50956
 H504 H 0.03510 0.03415 0.53161
 O505 O 0.78796 0.29683 0.25472
 O506 O 0.79082 0.27971 0.28569
 O507 O 0.79687 0.24848 0.21288
 O508 O 0.78155 0.22013 0.20486
 O509 O 0.74795 0.28998 0.20749
 O510 O 0.71572 0.29228 0.22473
 O511 O 0.73931 0.19321 0.26260
 O512 O 0.77349 0.19453 0.25123
 O513 O 0.73488 0.23774 0.30731
 O514 O 0.74357 0.27335 0.30844
 O515 O 0.69295 0.23470 0.26222
 O516 O 0.69398 0.24498 0.22738
 O517 O 0.71186 0.20461 0.24841
 O518 O 0.70926 0.22220 0.21575
 O519 O 0.70375 0.24973 0.29007
 O520 O 0.72034 0.28350 0.29472
 O521 O 0.75084 0.21093 0.29434
 O522 O 0.78405 0.20874 0.27803
 O523 O 0.76049 0.30827 0.24053
 O524 O 0.72535 0.30629 0.25024
 O525 O 0.76482 0.26365 0.19462
 O526 O 0.75322 0.22804 0.19476
 O527 O 0.80725 0.26553 0.23988
 O528 O 0.80583 0.25505 0.27406
 Zr529 Zr 0.78132 0.26601 0.25937
 O530 O 0.76316 0.24661 0.27841
 Zr531 Zr 0.76565 0.24351 0.21887
 O532 O 0.74703 0.22288 0.23622
 Zr533 Zr 0.74166 0.28240 0.23779
 O534 O 0.72171 0.26351 0.25571
 Zr535 Zr 0.75844 0.21892 0.26436
 O536 O 0.77857 0.23758 0.24608
 Zr537 Zr 0.73426 0.25778 0.28300
 O538 O 0.75326 0.27861 0.26595
 Zr539 Zr 0.71879 0.23517 0.24247
 O540 O 0.73676 0.25496 0.22324
 O541 O 0.77015 0.27147 0.23171
 O542 O 0.72970 0.22960 0.27034
 C543 C 0.77788 0.31093 0.24761
 C544 C 0.81055 0.25733 0.22278
 C545 C 0.75679 0.28071 0.19289
 C546 C 0.72174 0.19061 0.25594
 C547 C 0.74210 0.22030 0.30892
 C548 C 0.69000 0.24114 0.28011
 H549 H 0.76968 0.24518 0.29113
 H550 H 0.70862 0.26989 0.25762
 H551 H 0.77921 0.28060 0.22322
 H552 H 0.74599 0.21000 0.22907
 H553 H 0.78525 0.20028 0.24304
 H554 H 0.77725 0.20757 0.21210
 H555 H 0.70912 0.28649 0.28635
 H556 H 0.72977 0.30816 0.26394
 H557 H 0.78772 0.21847 0.28838
 H558 H 0.80834 0.24162 0.26849
 H559 H 0.69001 0.25787 0.23331
 H560 H 0.71149 0.28158 0.21554
 H561 H 0.77979 0.28823 0.29066
 H562 H 0.75690 0.26857 0.31147
 H563 H 0.74070 0.23469 0.19188
 H564 H 0.71818 0.21113 0.21217
 O565 O 0.75847 0.71145 0.70458
 O566 O 0.78810 0.70859 0.72237
 O567 O 0.71155 0.70106 0.75057
 O568 O 0.70233 0.71429 0.77999
 O569 O 0.70856 0.75008 0.70929
 O570 O 0.72489 0.78254 0.70619
 O571 O 0.75569 0.75791 0.80621
 O572 O 0.74539 0.72380 0.80610
 O573 O 0.80400 0.76397 0.76241
 O574 O 0.80841 0.75603 0.72703
 O575 O 0.75676 0.80466 0.76350
 O576 O 0.72245 0.80311 0.75261
 O577 O 0.74105 0.78504 0.79379
 O578 O 0.70955 0.78740 0.77581
 O579 O 0.78675 0.79466 0.74992
 O580 O 0.79464 0.77949 0.71637
 O581 O 0.78926 0.74751 0.78958
 O582 O 0.77386 0.71370 0.79235
 O583 O 0.74394 0.73863 0.69207
 O584 O 0.75224 0.77377 0.69304
 O585 O 0.69384 0.73307 0.73618
 O586 O 0.69047 0.74283 0.77110
 O587 O 0.74134 0.69112 0.73631
 O588 O 0.77485 0.69305 0.74714
 Zr589 Zr 0.76004 0.71736 0.73518
 O590 O 0.77686 0.73546 0.75416
 Zr591 Zr 0.71671 0.73170 0.75633
 O592 O 0.73164 0.75016 0.77659
 Zr593 Zr 0.73819 0.75681 0.71714
 O594 O 0.75381 0.77665 0.73560
 Zr595 Zr 0.76009 0.73928 0.78134
 O596 O 0.74405 0.71922 0.76315
 Zr597 Zr 0.78125 0.76454 0.74212
 O598 O 0.76664 0.74569 0.72177
 Zr599 Zr 0.73786 0.77863 0.76350
 O600 O 0.72094 0.76077 0.74407
 O601 O 0.73229 0.72813 0.72886
 O602 O 0.76585 0.76818 0.76980
 C603 C 0.75213 0.72159 0.69008
 C604 C 0.72298 0.68768 0.74293
 C605 C 0.69332 0.74114 0.71879
 C606 C 0.74810 0.77522 0.80812
 C607 C 0.80436 0.75672 0.78015
 C608 C 0.77540 0.80791 0.75787
 H609 H 0.78981 0.72922 0.75600
 H610 H 0.75579 0.78988 0.72890
 H611 H 0.72488 0.71927 0.71980
 H612 H 0.72332 0.75082 0.78927
 H613 H 0.73802 0.71202 0.80074
 H614 H 0.70722 0.71965 0.79259
 H615 H 0.78625 0.79084 0.71329
 H616 H 0.76641 0.76980 0.69170
 H617 H 0.78572 0.71093 0.78333
 H618 H 0.76824 0.69023 0.76055
 H619 H 0.72959 0.80769 0.73992
 H620 H 0.71462 0.78641 0.71660
 H621 H 0.79354 0.71986 0.71370
 H622 H 0.81186 0.74296 0.73261
 H623 H 0.68800 0.75581 0.76467
 H624 H 0.70536 0.77822 0.78708
 O625 O 0.28790 0.20681 0.74666
 O626 O 0.29509 0.22252 0.71476
 O627 O 0.29065 0.25694 0.78626
 O628 O 0.27509 0.28530 0.79140
 O629 O 0.24165 0.21217 0.79266
 O630 O 0.21151 0.20657 0.77576
 O631 O 0.24041 0.30553 0.73223
 O632 O 0.27282 0.30795 0.74412
 O633 O 0.24177 0.25855 0.69055
 O634 O 0.25056 0.22415 0.69080
 O635 O 0.19415 0.26046 0.73479
 O636 O 0.19018 0.25172 0.77023
 O637 O 0.21108 0.29257 0.74706
 O638 O 0.20383 0.27647 0.78064
 O639 O 0.20832 0.24419 0.70818
 O640 O 0.22630 0.21168 0.70579
 O641 O 0.25571 0.28749 0.70222
 O642 O 0.28744 0.29284 0.71851
 O643 O 0.25833 0.19370 0.76096
 O644 O 0.22440 0.19218 0.75089
 O645 O 0.25605 0.24088 0.80439
 O646 O 0.24503 0.27544 0.80234
 O647 O 0.30514 0.24069 0.75976
 O648 O 0.30833 0.24920 0.72488
 Zr649 Zr 0.28190 0.23677 0.74010
 O650 O 0.26631 0.25353 0.71990
 Zr651 Zr 0.26059 0.25984 0.77916
 O652 O 0.24443 0.27800 0.76060
 Zr653 Zr 0.23917 0.21799 0.76215
 O654 O 0.22169 0.23423 0.74318
 Zr655 Zr 0.25974 0.28147 0.73241
 O656 O 0.27734 0.26555 0.75183
 Zr657 Zr 0.23803 0.23958 0.71576
 O658 O 0.25475 0.22135 0.73398
 Zr659 Zr 0.21708 0.26295 0.75484
 O660 O 0.23232 0.24566 0.77521
 O661 O 0.26680 0.23172 0.76782
 O662 O 0.23185 0.26795 0.72684
 C663 C 0.27675 0.19221 0.75440
 C664 C 0.30583 0.24918 0.77687
 C665 C 0.24835 0.22297 0.80678
 C666 C 0.22192 0.30696 0.73854
 C667 C 0.24877 0.27670 0.68822
 C668 C 0.19343 0.25250 0.71747
 H669 H 0.27452 0.25494 0.70715
 H670 H 0.20886 0.22660 0.74157
 H671 H 0.27465 0.22377 0.77684
 H672 H 0.24242 0.29115 0.76696
 H673 H 0.28342 0.30375 0.75278
 H674 H 0.27107 0.29718 0.78399
 H675 H 0.21357 0.20838 0.71376
 H676 H 0.23106 0.18966 0.73759
 H677 H 0.29174 0.28357 0.70779
 H678 H 0.31002 0.26314 0.72964
 H679 H 0.18693 0.23828 0.76487
 H680 H 0.20610 0.21739 0.78429
 H681 H 0.28474 0.21282 0.71018
 H682 H 0.26466 0.22923 0.68832
 H683 H 0.23193 0.26810 0.80527
 H684 H 0.21226 0.28850 0.78364
 O685 O 0.26542 0.69316 0.24068
 O686 O 0.23028 0.69094 0.24920
 O687 O 0.26952 0.74028 0.19577
 O688 O 0.26279 0.77225 0.19374
 O689 O 0.31113 0.74010 0.24332
 O690 O 0.30831 0.74962 0.27738
 O691 O 0.21400 0.79101 0.24854
 O692 O 0.21394 0.77619 0.21665
 O693 O 0.20589 0.74392 0.28976
 O694 O 0.22268 0.71232 0.29497
 O695 O 0.25146 0.78773 0.29600
 O696 O 0.28524 0.79453 0.28010
 O697 O 0.24034 0.80484 0.26427
 O698 O 0.27702 0.80719 0.25502
 O699 O 0.23569 0.75896 0.30812
 O700 O 0.24608 0.72392 0.30875
 O701 O 0.19567 0.75881 0.26185
 O702 O 0.19788 0.74845 0.22728
 O703 O 0.29156 0.70660 0.25703
 O704 O 0.29287 0.72357 0.28855
 O705 O 0.30134 0.75547 0.21544
 O706 O 0.28404 0.78710 0.21221
 O707 O 0.25394 0.71135 0.20784
 O708 O 0.22095 0.70521 0.22385
 Zr709 Zr 0.24621 0.71713 0.23805
 O710 O 0.22530 0.73313 0.25576
 Zr711 Zr 0.27016 0.75898 0.22089
 O712 O 0.24993 0.77685 0.23752
 Zr713 Zr 0.28448 0.73672 0.26173
 O714 O 0.26532 0.75394 0.28024
 Zr715 Zr 0.22196 0.76140 0.24277
 O716 O 0.24130 0.74453 0.22377
 Zr717 Zr 0.23670 0.73945 0.28360
 O718 O 0.25654 0.72107 0.26683
 Zr719 Zr 0.26034 0.78136 0.26615
 O720 O 0.28174 0.76519 0.24874
 O721 O 0.27461 0.73112 0.23346
 O722 O 0.23185 0.76740 0.27109
 C723 C 0.28227 0.69183 0.24882
 C724 C 0.26249 0.72224 0.19360
 C725 C 0.31480 0.74812 0.22595
 C726 C 0.22308 0.80581 0.25685
 C727 C 0.19234 0.75149 0.27956
 C728 C 0.24225 0.77717 0.31011
 H729 H 0.21243 0.72521 0.25723
 H730 H 0.27134 0.75593 0.29321
 H731 H 0.28397 0.72306 0.22508
 H732 H 0.24848 0.78962 0.23031
 H733 H 0.22027 0.76904 0.20516
 H734 H 0.25149 0.78107 0.19692
 H735 H 0.25828 0.73108 0.31322
 H736 H 0.28207 0.71348 0.29270
 H737 H 0.19397 0.73523 0.23339
 H738 H 0.21715 0.71564 0.21441
 H739 H 0.28881 0.78522 0.29071
 H740 H 0.31043 0.76361 0.27244
 H741 H 0.23387 0.68928 0.26318
 H742 H 0.21267 0.70770 0.28553
 H743 H 0.29375 0.79070 0.22231
 H744 H 0.27127 0.81132 0.24247
 O745 O 0.19137 0.73684 0.76367
 O746 O 0.19208 0.74681 0.72958
 O747 O 0.23763 0.69302 0.76197
 O748 O 0.27020 0.69233 0.75346
 O749 O 0.23559 0.73862 0.80807
 O750 O 0.24536 0.77319 0.80830
 O751 O 0.29391 0.74993 0.71062
 O752 O 0.27835 0.71750 0.70778
 O753 O 0.24751 0.79001 0.70786
 O754 O 0.21460 0.79342 0.72618
 O755 O 0.28818 0.79564 0.75276
 O756 O 0.29193 0.77805 0.78466
 O757 O 0.30582 0.76508 0.73795
 O758 O 0.30543 0.75423 0.77310
 O759 O 0.26057 0.80757 0.73932
 O760 O 0.22470 0.80664 0.75022
 O761 O 0.26299 0.76310 0.69450
 O762 O 0.25233 0.72843 0.69329
 O763 O 0.20319 0.75217 0.79097
 O764 O 0.22048 0.78402 0.79508
 O765 O 0.25090 0.71155 0.79480
 O766 O 0.28377 0.71001 0.77650
 O767 O 0.21004 0.70491 0.74840
 O768 O 0.20654 0.72219 0.71752
 Zr769 Zr 0.21691 0.73566 0.74362
 O770 O 0.23488 0.75481 0.72416
 Zr771 Zr 0.25683 0.71865 0.76433
 O772 O 0.27662 0.73686 0.74550
 Zr773 Zr 0.23404 0.75810 0.78350
 O774 O 0.25297 0.77810 0.76578
 Zr775 Zr 0.26340 0.74294 0.71867
 O776 O 0.24460 0.72250 0.73639
 Zr777 Zr 0.24070 0.78234 0.73808
 O778 O 0.22053 0.76407 0.75671
 Zr779 Zr 0.28071 0.76515 0.75862
 O780 O 0.26263 0.74612 0.77852
 O781 O 0.22870 0.73014 0.77097
 O782 O 0.26901 0.77102 0.73117
 C783 C 0.18889 0.74419 0.78127
 C784 C 0.22005 0.69060 0.75522
 C785 C 0.24305 0.72128 0.80961
 C786 C 0.30814 0.75834 0.72009
 C787 C 0.25591 0.78062 0.69311
 C788 C 0.27833 0.80986 0.74558
 H789 H 0.22793 0.75661 0.71174
 H790 H 0.25463 0.79083 0.77305
 H791 H 0.21978 0.72110 0.77970
 H792 H 0.28946 0.73013 0.74298
 H793 H 0.27029 0.70555 0.71295
 H794 H 0.28040 0.69645 0.74271
 H795 H 0.23066 0.81046 0.76286
 H796 H 0.21133 0.78847 0.78502
 H797 H 0.23899 0.73361 0.69098
 H798 H 0.21720 0.71332 0.71241
 H799 H 0.28282 0.78867 0.78917
 H800 H 0.25921 0.76870 0.80948
 H801 H 0.19026 0.76053 0.73472
 H802 H 0.21068 0.78438 0.71534
 H803 H 0.28701 0.71995 0.78683
 H804 H 0.30955 0.74183 0.76627
 O805 O 0.25584 0.21233 0.20267
 O806 O 0.28521 0.20784 0.22030
 O807 O 0.20903 0.20307 0.24940
 O808 O 0.19994 0.21683 0.27841
 O809 O 0.20728 0.25354 0.20831
 O810 O 0.22537 0.28477 0.20476
 O811 O 0.25555 0.25782 0.30456
 O812 O 0.24392 0.22409 0.30430
 O813 O 0.30365 0.26245 0.26046
 O814 O 0.30757 0.25469 0.22513
 O815 O 0.25816 0.30493 0.26244
 O816 O 0.22376 0.30488 0.25152
 O817 O 0.24178 0.28560 0.29246
 O818 O 0.21043 0.28946 0.27472
 O819 O 0.28741 0.29405 0.24802
 O820 O 0.29456 0.27853 0.21449
 O821 O 0.28856 0.24610 0.28754
 O822 O 0.27182 0.21299 0.29027
 O823 O 0.24196 0.24001 0.19044
 O824 O 0.25206 0.27480 0.19156
 O825 O 0.19242 0.23579 0.23468
 O826 O 0.18962 0.24583 0.26977
 O827 O 0.23786 0.19222 0.23396
 O828 O 0.27137 0.19264 0.24506
 Zr829 Zr 0.25765 0.21773 0.23327
 O830 O 0.27534 0.23501 0.25219
 Zr831 Zr 0.21521 0.23362 0.25482
 O832 O 0.23102 0.25129 0.27508
 Zr833 Zr 0.23736 0.25831 0.21565
 O834 O 0.25387 0.27735 0.23414
 Zr835 Zr 0.25901 0.23923 0.27954
 O836 O 0.24202 0.21996 0.26137
 Zr837 Zr 0.28081 0.26406 0.24035
 O838 O 0.26531 0.24594 0.22002
 Zr839 Zr 0.23825 0.27967 0.26217
 O840 O 0.22052 0.26268 0.24274
 O841 O 0.23036 0.22970 0.22719
 O842 O 0.26583 0.26805 0.26817
 C843 C 0.24968 0.22277 0.18829
 C844 C 0.21963 0.18932 0.24122
 C845 C 0.19193 0.24471 0.21770
 C846 C 0.24858 0.27539 0.30665
 C847 C 0.30391 0.25487 0.27808
 C848 C 0.27674 0.30765 0.25635
 H849 H 0.28802 0.22822 0.25387
 H850 H 0.25632 0.29058 0.22753
 H851 H 0.22251 0.22123 0.21814
 H852 H 0.22282 0.25214 0.28783
 H853 H 0.23603 0.21267 0.29892
 H854 H 0.20553 0.22147 0.29097
 H855 H 0.28655 0.29018 0.21142
 H856 H 0.26591 0.26998 0.18995
 H857 H 0.28323 0.20961 0.28094
 H858 H 0.26451 0.18984 0.25837
 H859 H 0.23132 0.30965 0.23911
 H860 H 0.21577 0.28942 0.21543
 H861 H 0.29117 0.21903 0.21183
 H862 H 0.31045 0.24135 0.23049
 H863 H 0.18747 0.25880 0.26318
 H864 H 0.20586 0.28022 0.28583
 O865 O 0.79087 0.70953 0.24721
 O866 O 0.79727 0.72535 0.21526
 O867 O 0.79527 0.76050 0.28639
 O868 O 0.77924 0.78809 0.29299
 O869 O 0.74600 0.71506 0.29449
 O870 O 0.71526 0.70970 0.27851
 O871 O 0.74348 0.80863 0.23470
 O872 O 0.77637 0.81075 0.24531
 O873 O 0.74354 0.76152 0.19265
 O874 O 0.75227 0.72685 0.19287
 O875 O 0.69696 0.76363 0.23803
 O876 O 0.69392 0.75484 0.27353
 O877 O 0.71429 0.79566 0.24987
 O878 O 0.70800 0.77958 0.28361
 O879 O 0.71049 0.74743 0.21106
 O880 O 0.72794 0.71491 0.20805
 O881 O 0.75770 0.79051 0.20396
 O882 O 0.78998 0.79572 0.21927
 O883 O 0.76164 0.69655 0.26234
 O884 O 0.72738 0.69522 0.25332
 O885 O 0.76104 0.74361 0.30585
 O886 O 0.74965 0.77832 0.30409
 O887 O 0.80857 0.74317 0.25999
 O888 O 0.81098 0.75192 0.22521
 Zr889 Zr 0.78482 0.73956 0.24097
 O890 O 0.76879 0.75645 0.22127
 Zr891 Zr 0.76473 0.76272 0.28060
 O892 O 0.74810 0.78095 0.26252
 Zr893 Zr 0.74263 0.72095 0.26415
 O894 O 0.72468 0.73728 0.24570
 Zr895 Zr 0.76265 0.78441 0.23397
 O896 O 0.78071 0.76837 0.25284
 Zr897 Zr 0.74033 0.74259 0.21790
 O898 O 0.75744 0.72425 0.23561
 Zr899 Zr 0.72047 0.76602 0.25748
 O900 O 0.73624 0.74866 0.27739
 O901 O 0.77052 0.73457 0.26908
 O902 O 0.73453 0.77099 0.22915
 C903 C 0.77987 0.69497 0.25521
 C904 C 0.80998 0.75224 0.27671
 C905 C 0.75325 0.72574 0.30842
 C906 C 0.72509 0.81006 0.24134
 C907 C 0.75046 0.77968 0.19014
 C908 C 0.69583 0.75576 0.22070
 H909 H 0.77667 0.75783 0.20833
 H910 H 0.71176 0.72971 0.24440
 H911 H 0.77865 0.72660 0.27782
 H912 H 0.74633 0.79409 0.26897
 H913 H 0.78716 0.80643 0.25367
 H914 H 0.77577 0.79991 0.28516
 H915 H 0.71557 0.71153 0.21656
 H916 H 0.73355 0.69276 0.23980
 H917 H 0.79398 0.78639 0.20848
 H918 H 0.81278 0.76588 0.22989
 H919 H 0.69048 0.74142 0.26823
 H920 H 0.71017 0.72054 0.28721
 H921 H 0.78675 0.71569 0.21094
 H922 H 0.76614 0.73231 0.18963
 H923 H 0.73677 0.77078 0.30755
 H924 H 0.71658 0.79158 0.28638
 O925 O 0.76591 0.23681 0.69624
 O926 O 0.75719 0.27081 0.69517
 O927 O 0.80802 0.23802 0.74300
 O928 O 0.80773 0.24615 0.77495
 O929 O 0.76115 0.19095 0.74247
 O930 O 0.72615 0.18964 0.75128
 O931 O 0.75042 0.28734 0.79541
 O932 O 0.78362 0.29129 0.78050
 O933 O 0.71205 0.29013 0.74878
 O934 O 0.70951 0.27263 0.71675
 O935 O 0.70370 0.24395 0.79103
 O936 O 0.72006 0.21236 0.79674
 O937 O 0.73426 0.25913 0.80843
 O938 O 0.74404 0.22386 0.80969
 O939 O 0.69332 0.25831 0.76294
 O940 O 0.69530 0.24762 0.72766
 O941 O 0.73908 0.30395 0.76348
 O942 O 0.77434 0.30611 0.75365
 O943 O 0.74937 0.20865 0.70902
 O944 O 0.71663 0.20346 0.72590
 O945 O 0.78832 0.20467 0.75706
 O946 O 0.78874 0.22197 0.78919
 O947 O 0.79793 0.25250 0.71477
 O948 O 0.78147 0.28318 0.70947
 Zr949 Zr 0.76688 0.25632 0.72073
 O950 O 0.74751 0.27499 0.73735
 Zr951 Zr 0.78161 0.23484 0.76172
 O952 O 0.76321 0.25292 0.78018
 Zr953 Zr 0.74245 0.21526 0.73927
 O954 O 0.72223 0.23214 0.75696
 Zr955 Zr 0.75847 0.28008 0.76562
 O956 O 0.77916 0.26316 0.74817
 Zr957 Zr 0.71930 0.26020 0.74338
 O958 O 0.73787 0.24244 0.72450
 Zr959 Zr 0.73436 0.23896 0.78440
 O960 O 0.75346 0.21979 0.76767
 O961 O 0.77103 0.22864 0.73384
 O962 O 0.72979 0.26671 0.77137
 C963 C 0.75811 0.21900 0.69446
 C964 C 0.81149 0.24543 0.72535
 C965 C 0.77841 0.18975 0.74986
 C966 C 0.74133 0.27724 0.80993
 C967 C 0.72167 0.30498 0.75643
 C968 C 0.69011 0.25143 0.78082
 H969 H 0.74633 0.28760 0.72983
 H970 H 0.70918 0.22453 0.75877
 H971 H 0.78014 0.22031 0.72549
 H972 H 0.76954 0.25529 0.79293
 H973 H 0.79576 0.28640 0.77310
 H974 H 0.80346 0.25635 0.78478
 H975 H 0.69046 0.23502 0.73455
 H976 H 0.71282 0.21375 0.71632
 H977 H 0.76966 0.30873 0.74023
 H978 H 0.79017 0.28822 0.71994
 H979 H 0.70991 0.20758 0.78753
 H980 H 0.72990 0.18828 0.76525
 H981 H 0.74324 0.26564 0.69353
 H982 H 0.71899 0.28390 0.71255
 H983 H 0.77848 0.21108 0.79250
 H984 H 0.75642 0.23099 0.81376
 C985 C 0.09232 0.99797 1.19203
 C986 C 0.10937 0.98644 1.19285
 C987 C 0.11879 0.98424 1.21063
 C988 C 0.11116 0.99293 1.22855
 C989 C 0.09450 1.00521 1.22743
 C990 C 0.08498 1.00739 1.20953
 C991 C 0.08285 1.00041 1.17276
 N992 N 0.06560 1.01042 1.17153
 N993 N 0.05729 1.01238 1.15408
 C994 C 0.06590 1.00447 1.13714
 N995 N 0.08314 0.99454 1.13842
 N996 N 0.09141 0.99256 1.15581
 C997 C 0.05670 1.00625 1.11765
 C998 C 0.06647 0.99872 1.10025
 C999 C 0.05769 0.99965 1.08195
 C1000 C 0.03886 1.00810 1.08050
 C1001 C 0.02920 1.01594 1.09783
 C1002 C 0.03803 1.01504 1.11619
 H1003 H 0.11578 0.97930 1.17962
 H1004 H 0.13247 0.97604 1.21004
 H1005 H 0.08896 1.01337 1.24038
 H1006 H 0.07213 1.01678 1.20933
 H1007 H 0.08090 0.99192 1.10075
 H1008 H 0.06562 0.99349 1.06895
 H1009 H 0.01469 1.02258 1.09727
 H1010 H 0.03010 1.02101 1.12928
 C1011 C 0.59177 0.48907 0.68832
 C1012 C 0.60991 0.47944 0.68978
 C1013 C 0.61973 0.47974 0.70754
 C1014 C 0.61164 0.48933 0.72480
 C1015 C 0.59299 0.49852 0.72322
 C1016 C 0.58320 0.49826 0.70538
 C1017 C 0.58271 0.49065 0.66876
 N1018 N 0.56565 0.50077 0.66686
 N1019 N 0.55814 0.50296 0.64907
 C1020 C 0.56742 0.49520 0.63240
 N1021 N 0.58441 0.48501 0.63434
 N1022 N 0.59190 0.48281 0.65211
 C1023 C 0.55921 0.49771 0.61253
 C1024 C 0.56926 0.49011 0.59532
 C1025 C 0.56124 0.49183 0.57668
 C1026 C 0.54293 0.50118 0.57476
 C1027 C 0.53311 0.50922 0.59190
 C1028 C 0.54116 0.50751 0.61055
 H1029 H 0.61705 0.47225 0.67693
 H1030 H 0.63415 0.47300 0.70716
 H1031 H 0.58658 0.50737 0.73527
 H1032 H 0.56934 0.50608 0.70475
 H1033 H 0.58326 0.48258 0.59625
 H1034 H 0.56923 0.48547 0.56383
 H1035 H 0.51899 0.51654 0.59100
 H1036 H 0.53306 0.51363 0.62346
 C1037 C 0.41026 0.01103 0.69945
 C1038 C 0.41882 0.00237 0.71582
 C1039 C 0.40847 0.00167 0.73463
 C1040 C 0.38917 0.00973 0.73787
 C1041 C 0.38121 0.01898 0.72123
 C1042 C 0.39160 0.01980 0.70255
 C1043 C 0.41978 0.00967 0.67896
 N1044 N 0.41073 0.01735 0.66322
 N1045 N 0.41842 0.01508 0.64463
 C1046 C 0.43550 0.00498 0.64094
 N1047 N 0.44471 -0.00256 0.65669
 N1048 N 0.43699 -0.00030 0.67531
 C1049 C 0.44367 0.00210 0.62014
 C1050 C 0.46179 -0.00760 0.61615
 C1051 C 0.46957 -0.00995 0.59650
 C1052 C 0.45937 -0.00268 0.58038
 C1053 C 0.44108 0.00670 0.58440
 C1054 C 0.43334 0.00908 0.60402
 H1055 H 0.43315 -0.00469 0.71395
 H1056 H 0.41510 -0.00663 0.74625
 H1057 H 0.36652 0.02509 0.72200
 H1058 H 0.38449 0.02663 0.69029
 H1059 H 0.47010 -0.01322 0.62821
 H1060 H 0.48371 -0.01724 0.59397
 H1061 H 0.43282 0.01251 0.57238
 H1062 H 0.41929 0.01653 0.60651
 C1063 C -0.08812 0.51142 1.19724
 C1064 C -0.07999 0.50245 1.21369
 C1065 C -0.09062 0.50178 1.23238
 C1066 C -0.10975 0.51023 1.23542
 C1067 C -0.11740 0.51956 1.21866
 C1068 C -0.10674 0.52034 1.20010
 C1069 C -0.07815 0.51039 1.17688
 N1070 N -0.08693 0.51826 1.16105
 N1071 N -0.07874 0.51651 1.14258
 C1072 C -0.06141 0.50676 1.13907
 N1073 N -0.05249 0.49901 1.15490
 N1074 N -0.06072 0.50075 1.17342
 C1075 C -0.05267 0.50459 1.11834
 C1076 C -0.03410 0.49566 1.11444
 C1077 C -0.02585 0.49407 1.09482
 C1078 C -0.03602 0.50132 1.07868
 C1079 C -0.05475 0.50992 1.08262
 C1080 C -0.06294 0.51155 1.10217
 H1081 H -0.06575 0.49520 1.21198
 H1082 H -0.08434 0.49325 1.24405
 H1083 H -0.13203 0.52581 1.21928
 H1084 H -0.11357 0.52735 1.18777
 H1085 H -0.02581 0.49009 1.12653
 H1086 H -0.01138 0.48737 1.09234
 H1087 H -0.06303 0.51568 1.07061
 H1088 H -0.07732 0.51841 1.10457
 C1089 C -0.09177 0.50271 0.31067
 C1090 C -0.11067 0.49305 0.30897
 C1091 C -0.12032 0.49383 0.29116
 C1092 C -0.11132 0.50389 0.27402
 C1093 C -0.09224 0.51366 0.27603
 C1094 C -0.08259 0.51291 0.29394
 C1095 C -0.08229 0.50278 0.33010
 N1096 N -0.06414 0.51237 0.33221
 N1097 N -0.05597 0.51273 0.34985
 C1098 C -0.06562 0.50358 0.36612
 N1099 N -0.08372 0.49398 0.36396
 N1100 N -0.09187 0.49360 0.34636
 C1101 C -0.05662 0.50387 0.38579
 C1102 C -0.06701 0.49468 0.40256
 C1103 C -0.05840 0.49440 0.42100
 C1104 C -0.03915 0.50328 0.42316
 C1105 C -0.02889 0.51279 0.40648
 C1106 C -0.03753 0.51309 0.38802
 H1107 H -0.11837 0.48522 0.32161
 H1108 H -0.13518 0.48681 0.29133
 H1109 H -0.08511 0.52291 0.26411
 H1110 H -0.06817 0.52087 0.29480
 H1111 H -0.08178 0.48751 0.40144
 H1112 H -0.06676 0.48696 0.43349
 H1113 H -0.01405 0.51982 0.40760
 H1114 H -0.02913 0.52036 0.37545
 C1115 C 0.40793 1.00312 -0.18710
 C1116 C 0.38934 0.99280 -0.18864
 C1117 C 0.37955 0.99310 -0.20640
 C1118 C 0.38814 1.00334 -0.22360
 C1119 C 0.40695 1.01371 -0.22178
 C1120 C 0.41673 1.01343 -0.20395
 C1121 C 0.41747 1.00386 -0.16773
 N1122 N 0.43531 1.01409 -0.16583
 N1123 N 0.44351 1.01511 -0.14823
 C1124 C 0.43419 1.00599 -0.13178
 N1125 N 0.41638 0.99574 -0.13372
 N1126 N 0.40820 0.99471 -0.15129
 C1127 C 0.44325 1.00699 -0.11217
 C1128 C 0.43321 0.99784 -0.09521
 C1129 C 0.44197 0.99812 -0.07685
 C1130 C 0.46104 1.00753 -0.07498
 C1131 C 0.47091 1.01707 -0.09184
 C1132 C 0.46211 1.01681 -0.11022
 H1133 H 0.38196 0.98485 -0.17591
 H1134 H 0.36489 0.98561 -0.20616
 H1135 H 0.41369 1.02313 -0.23377
 H1136 H 0.43089 1.02188 -0.20321
 H1137 H 0.41862 0.99023 -0.09612
 H1138 H 0.43391 0.99064 -0.06420
 H1139 H 0.48559 1.02451 -0.09094
 H1140 H 0.47023 1.02408 -0.12295
 C1141 C 0.59099 0.49880 -0.19850
 C1142 C 0.60999 0.50831 -0.20237
 C1143 C 0.62025 0.50692 -0.22101
 C1144 C 0.61182 0.49634 -0.23691
 C1145 C 0.59243 0.48706 -0.23282
 C1146 C 0.58218 0.48835 -0.21402
 C1147 C 0.58117 0.49901 -0.17804
 N1148 N 0.56324 0.48902 -0.17351
 N1149 N 0.55502 0.48864 -0.15485
 C1150 C 0.56442 0.49818 -0.13996
 N1151 N 0.58226 0.50824 -0.14455
 N1152 N 0.59045 0.50863 -0.16315
 C1153 C 0.55564 0.49754 -0.11908
 C1154 C 0.56618 0.50655 -0.10374
 C1155 C 0.55801 0.50613 -0.08406
 C1156 C 0.53903 0.49674 -0.07920
 C1157 C 0.52853 0.48759 -0.09451
 C1158 C 0.53675 0.48797 -0.11422
 H1159 H 0.61737 0.51642 -0.19076
 H1160 H 0.63510 0.51391 -0.22233
 H1161 H 0.58549 0.47774 -0.24382
 H1162 H 0.56762 0.48061 -0.21151
 H1163 H 0.58080 0.51400 -0.10690
 H1164 H 0.56653 0.51335 -0.07269
 H1165 H 0.51388 0.48020 -0.09131
 H1166 H 0.52823 0.48085 -0.12565
 C1167 C 0.08891 -0.01441 0.30548
 C1168 C 0.10954 -0.00906 0.30393
 C1169 C 0.11997 -0.00714 0.28540
 C1170 C 0.11019 -0.01007 0.26753
 C1171 C 0.08969 -0.01658 0.26912
 C1172 C 0.07911 -0.01842 0.28788
 C1173 C 0.07810 -0.01553 0.32552
 N1174 N 0.05787 -0.01940 0.32792
 N1175 N 0.04845 -0.01961 0.34610
 C1176 C 0.05889 -0.01594 0.36258
 N1177 N 0.07907 -0.01225 0.36011
 N1178 N 0.08844 -0.01205 0.34203
 C1179 C 0.04873 -0.01537 0.38289
 C1180 C 0.05989 -0.00964 0.39917
 C1181 C 0.05064 -0.00846 0.41831
 C1182 C 0.02993 -0.01306 0.42180
 C1183 C 0.01872 -0.01907 0.40562
 C1184 C 0.02802 -0.02015 0.38632
 H1185 H 0.11777 -0.00617 0.31709
 H1186 H 0.13589 -0.00300 0.28496
 H1187 H 0.08179 -0.02050 0.25602
 H1188 H 0.06330 -0.02306 0.28859
 H1189 H 0.07586 -0.00585 0.39717
 H1190 H 0.05981 -0.00390 0.43039
 H1191 H 0.00273 -0.02271 0.40780
 H1192 H 0.01899 -0.02465 0.37412
 C1193 C 0.19791 1.09617 0.99645
 C1194 C 0.21463 1.08871 0.98555
 C1195 C 0.23360 1.09856 0.98599
 C1196 C 0.23655 1.11543 0.99824
 C1197 C 0.21936 1.12311 1.00846
 C1198 C 0.20049 1.11355 1.00773
 C1199 C 0.17763 1.08644 0.99592
 N1200 N 0.16111 1.09718 1.00035
 N1201 N 0.14274 1.08853 1.00072
 C1202 C 0.14011 1.06871 0.99680
 N1203 N 0.15662 1.05792 0.99227
 N1204 N 0.17505 1.06663 0.99176
 C1205 C 0.11963 1.05919 0.99796
 C1206 C 0.11664 1.03833 1.00036
 C1207 C 0.09716 1.02959 1.00233
 C1208 C 0.08031 1.04152 1.00163
 C1209 C 0.08334 1.06234 0.99896
 C1210 C 0.10277 1.07108 0.99727
 H1211 H 0.21292 1.07561 0.97626
 H1212 H 0.24597 1.09304 0.97663
 H1213 H 0.22025 1.13689 1.01681
 H1214 H 0.18785 1.11989 1.01604
 H1215 H 0.12935 1.02880 1.00104
 H1216 H 0.09528 1.01348 1.00424
 H1217 H 0.07067 1.07194 0.99840
 H1218 H 0.10457 1.08720 0.99538
 C1219 C 0.69917 0.59513 0.49699
 C1220 C 0.70141 0.61257 0.50828
 C1221 C 0.72011 0.62254 0.50898
 C1222 C 0.73746 0.61519 0.49874
 C1223 C 0.73477 0.59844 0.48627
 C1224 C 0.71600 0.58820 0.48586
 C1225 C 0.67918 0.58467 0.49675
 N1226 N 0.67725 0.56501 0.49176
 N1227 N 0.65914 0.55562 0.49230
 C1228 C 0.64228 0.56555 0.49772
 N1229 N 0.64425 0.58521 0.50254
 N1230 N 0.66231 0.59455 0.50214
 C1231 C 0.62211 0.55532 0.49849
 C1232 C 0.60480 0.56664 0.49847
 C1233 C 0.58569 0.55719 0.49924
 C1234 C 0.58341 0.53619 0.50032
 C1235 C 0.60068 0.52482 0.50059
 C1236 C 0.61987 0.53429 0.49952
 H1237 H 0.68866 0.61858 0.51671
 H1238 H 0.72080 0.63626 0.51744
 H1239 H 0.74724 0.59321 0.47687
 H1240 H 0.71457 0.57512 0.47650
 H1241 H 0.60602 0.58286 0.49766
 H1242 H 0.57266 0.56636 0.49908
 H1243 H 0.59937 0.50860 0.50131
 H1244 H 0.63293 0.52518 0.49968
 C1245 C 0.69151 0.40647 -0.00334
 C1246 C 0.69144 0.38628 0.00259
 C1247 C 0.70938 0.37655 0.00380
 C1248 C 0.72821 0.38671 -0.00031
 C1249 C 0.72824 0.40680 -0.00706
 C1250 C 0.71012 0.41662 -0.00831
 C1251 C 0.67212 0.41648 -0.00446
 N1252 N 0.67141 0.43583 -0.01074
 N1253 N 0.65381 0.44456 -0.01153
 C1254 C 0.63621 0.43431 -0.00606
 N1255 N 0.63699 0.41500 0.00017
 N1256 N 0.65451 0.40629 0.00094
 C1257 C 0.61652 0.44389 -0.00650
 C1258 C 0.59873 0.43329 0.00044
 C1259 C 0.58017 0.44227 0.00067
 C1260 C 0.57886 0.46211 -0.00611
 C1261 C 0.59660 0.47265 -0.01337
 C1262 C 0.61523 0.46366 -0.01352
 H1263 H 0.67745 0.37780 0.00619
 H1264 H 0.70856 0.36084 0.00804
 H1265 H 0.74213 0.41489 -0.01183
 H1266 H 0.71070 0.43208 -0.01337
 H1267 H 0.59909 0.41803 0.00594
 H1268 H 0.56685 0.43365 0.00630
 H1269 H 0.59616 0.48797 -0.01869
 H1270 H 0.62862 0.47224 -0.01902
 C1271 C 0.18370 -0.09601 0.49874
 C1272 C 0.18410 -0.11632 0.50409
 C1273 C 0.20229 -0.12566 0.50499
 C1274 C 0.22089 -0.11498 0.50114
 C1275 C 0.22046 -0.09468 0.49518
 C1276 C 0.20208 -0.08528 0.49419
 C1277 C 0.16403 -0.08650 0.49769
 N1278 N 0.16282 -0.06729 0.49119
 N1279 N 0.14498 -0.05907 0.49026
 C1280 C 0.12763 -0.06971 0.49580
 N1281 N 0.12890 -0.08888 0.50229
 N1282 N 0.14668 -0.09708 0.50319
 C1283 C 0.10770 -0.06069 0.49509
 C1284 C 0.09011 -0.07152 0.50228
 C1285 C 0.07133 -0.06297 0.50221
 C1286 C 0.06962 -0.04340 0.49487
 C1287 C 0.08716 -0.03268 0.48734
 C1288 C 0.10598 -0.04121 0.48749
 H1289 H 0.17031 -0.12522 0.50738
 H1290 H 0.20186 -0.14149 0.50872
 H1291 H 0.23417 -0.08613 0.49075
 H1292 H 0.20228 -0.06968 0.48964
 H1293 H 0.09082 -0.08657 0.50821
 H1294 H 0.05817 -0.07170 0.50807
 H1295 H 0.08641 -0.01755 0.48159
 H1296 H 0.11919 -0.03248 0.48177
 C1297 C 0.29865 -0.09433 0.50410
 C1298 C 0.28157 -0.08771 0.51513
 C1299 C 0.26271 -0.09766 0.51374
 C1300 C 0.26027 -0.11405 0.50075
 C1301 C 0.27773 -0.12073 0.49018
 C1302 C 0.29640 -0.11090 0.49160
 C1303 C 0.31900 -0.08479 0.50590
 N1304 N 0.33538 -0.09346 0.49723
 N1305 N 0.35376 -0.08523 0.49858
 C1306 C 0.35666 -0.06791 0.50867
 N1307 N 0.34028 -0.05916 0.51742
 N1308 N 0.32182 -0.06746 0.51611
 C1309 C 0.37728 -0.05877 0.50961
 C1310 C 0.38059 -0.03964 0.51775
 C1311 C 0.40008 -0.03085 0.51758
 C1312 C 0.41669 -0.04102 0.50930
 C1313 C 0.41337 -0.06033 0.50161
 C1314 C 0.39395 -0.06906 0.50175
 H1315 H 0.28285 -0.07521 0.52524
 H1316 H 0.25007 -0.09279 0.52314
 H1317 H 0.27730 -0.13409 0.48116
 H1318 H 0.30922 -0.11669 0.48310
 H1319 H 0.36810 -0.03132 0.52395
 H1320 H 0.40208 -0.01596 0.52366
 H1321 H 0.42575 -0.06866 0.49517
 H1322 H 0.39204 -0.08387 0.49546
 C1323 C -0.19432 0.40711 1.00368
 C1324 C -0.19621 0.38983 0.99206
 C1325 C -0.21482 0.37985 0.99061
 C1326 C -0.23253 0.38706 1.00025
 C1327 C -0.23041 0.40398 1.01262
 C1328 C -0.21165 0.41409 1.01401
 C1329 C -0.17417 0.41720 1.00521
 N1330 N -0.17181 0.43498 1.01475
 N1331 N -0.15356 0.44386 1.01575
 C1332 C -0.13694 0.43529 1.00732
 N1333 N -0.13936 0.41751 0.99789
 N1334 N -0.15754 0.40869 0.99685
 C1335 C -0.11655 0.44510 1.00792
 C1336 C -0.09961 0.43527 1.00000
 C1337 C -0.08043 0.44457 0.99968
 C1338 C -0.07760 0.46401 1.00726
 C1339 C -0.09448 0.47375 1.01554
 C1340 C -0.11374 0.46439 1.01588
 H1341 H -0.18319 0.38371 0.98419
 H1342 H -0.21511 0.36608 0.98220
 H1343 H -0.24326 0.40926 1.02143
 H1344 H -0.21065 0.42712 1.02349
 H1345 H -0.10113 0.42038 0.99383
 H1346 H -0.06783 0.43655 0.99324
 H1347 H -0.09286 0.48872 1.02153
 H1348 H -0.12645 0.47238 1.02212
 C1349 C -0.18748 0.59308 0.49988
 C1350 C -0.20631 0.58334 0.50459
 C1351 C -0.22402 0.59394 0.50445
 C1352 C -0.22338 0.61438 0.49879
 C1353 C -0.20428 0.62412 0.49502
 C1354 C -0.18670 0.61365 0.49536
 C1355 C -0.16858 0.58219 0.49988
 N1356 N -0.15057 0.59254 0.49928
 N1357 N -0.13343 0.58301 0.49894
 C1358 C -0.13352 0.56268 0.49908
 N1359 N -0.15153 0.55225 0.49968
 N1360 N -0.16873 0.56182 0.50011
 C1361 C -0.11428 0.55232 0.49862
 C1362 C -0.11358 0.53163 0.49493
 C1363 C -0.09522 0.52212 0.49434
 C1364 C -0.07725 0.53308 0.49765
 C1365 C -0.07802 0.55374 0.50134
 C1366 C -0.09627 0.56324 0.50174
 H1367 H -0.20735 0.56761 0.50873
 H1368 H -0.23805 0.58608 0.50916
 H1369 H -0.20301 0.64002 0.49160
 H1370 H -0.17245 0.62174 0.49194
 H1371 H -0.12719 0.52282 0.49238
 H1372 H -0.09512 0.50617 0.49151
 H1373 H -0.06446 0.56266 0.50385
 H1374 H -0.09623 0.57918 0.50464
 C1375 C 0.31203 1.09419 -0.00063
 C1376 C 0.31251 1.11460 -0.00574
 C1377 C 0.29478 1.12475 -0.00643
 C1378 C 0.27581 1.11482 -0.00238
 C1379 C 0.27543 1.09448 0.00361
 C1380 C 0.29332 1.08421 0.00409
 C1381 C 0.33112 1.08375 0.00006
 N1382 N 0.33141 1.06340 0.00056
 N1383 N 0.34882 1.05425 0.00078
 C1384 C 0.36658 1.06508 0.00060
 N1385 N 0.36622 1.08539 0.00021
 N1386 N 0.34889 1.09451 -0.00009
 C1387 C 0.38603 1.05517 0.00065
 C1388 C 0.40371 1.06645 0.00425
 C1389 C 0.42219 1.05738 0.00403
 C1390 C 0.42350 1.03682 0.00005
 C1391 C 0.40583 1.02550 -0.00359
 C1392 C 0.38726 1.03457 -0.00318
 H1393 H 0.32666 1.12285 -0.00926
 H1394 H 0.29583 1.14058 -0.01017
 H1395 H 0.26150 1.08652 0.00843
 H1396 H 0.29252 1.06858 0.00862
 H1397 H 0.40331 1.08235 0.00730
 H1398 H 0.43551 1.06656 0.00682
 H1399 H 0.40633 1.00961 -0.00664
 H1400 H 0.37392 1.02549 -0.00608
 C1401 C 0.00280 1.20187 1.08640
 C1402 C -0.01489 1.20872 1.09606
 C1403 C -0.01449 1.22645 1.10700
 C1404 C 0.00385 1.23729 1.10944
 C1405 C 0.02094 1.23164 1.09761
 C1406 C 0.02052 1.21400 1.08651
 C1407 C 0.00296 1.18171 1.07729
 N1408 N 0.01890 1.17608 1.06530
 N1409 N 0.01956 1.15750 1.05821
 C1410 C 0.00439 1.14372 1.06298
 N1411 N -0.01159 1.14938 1.07488
 N1412 N -0.01230 1.16798 1.08187
 C1413 C 0.00530 1.12289 1.05558
 C1414 C -0.00755 1.10759 1.06437
 C1415 C -0.00693 1.08798 1.05725
 C1416 C 0.00636 1.08327 1.04103
 C1417 C 0.01937 1.09852 1.03239
 C1418 C 0.01894 1.11809 1.03967
 H1419 H -0.02903 1.20019 1.09547
 H1420 H -0.02858 1.23129 1.11382
 H1421 H 0.03501 1.24035 1.09790
 H1422 H 0.03430 1.20948 1.07872
 H1423 H -0.01812 1.11076 1.07675
 H1424 H -0.01723 1.07661 1.06417
 H1425 H 0.02983 1.09536 1.01990
 H1426 H 0.02905 1.12952 1.03260
 C1427 C 0.51153 0.69019 0.59204
 C1428 C 0.51594 0.70831 0.58152
 C1429 C 0.51418 0.72681 0.59120
 C1430 C 0.50746 0.72762 0.61155
 C1431 C 0.50384 0.70929 0.62201
 C1432 C 0.50561 0.69099 0.61243
 C1433 C 0.51310 0.67039 0.58222
 N1434 N 0.50895 0.65330 0.59305
 N1435 N 0.50988 0.63541 0.58451
 C1436 C 0.51503 0.63375 0.56473
 N1437 N 0.51930 0.65083 0.55384
 N1438 N 0.51836 0.66880 0.56241
 C1439 C 0.51535 0.61367 0.55534
 C1440 C 0.52090 0.61149 0.53494
 C1441 C 0.52028 0.59253 0.52612
 C1442 C 0.51400 0.57535 0.53749
 C1443 C 0.50887 0.57752 0.55797
 C1444 C 0.50957 0.59640 0.56678
 H1445 H 0.52095 0.70820 0.56585
 H1446 H 0.51851 0.74033 0.58277
 H1447 H 0.49950 0.70916 0.63784
 H1448 H 0.50236 0.67742 0.62118
 H1449 H 0.52550 0.62445 0.52571
 H1450 H 0.52435 0.59141 0.51030
 H1451 H 0.50407 0.56463 0.56723
 H1452 H 0.50526 0.59745 0.58255
 C1453 C -0.00708 0.68969 0.40834
 C1454 C -0.00550 0.69104 0.38744
 C1455 C -0.00543 0.70956 0.37784
 C1456 C -0.00726 0.72754 0.38868
 C1457 C -0.00821 0.72616 0.40975
 C1458 C -0.00835 0.70746 0.41941
 C1459 C -0.00715 0.66976 0.41822
 N1460 N -0.01025 0.66762 0.43835
 N1461 N -0.01031 0.64954 0.44696
 C1462 C -0.00727 0.63289 0.43578
 N1463 N -0.00418 0.63508 0.41570
 N1464 N -0.00415 0.65309 0.40712
 C1465 C -0.00707 0.61271 0.44511
 C1466 C -0.00194 0.59607 0.43339
 C1467 C -0.00136 0.57705 0.44200
 C1468 C -0.00599 0.57411 0.46255
 C1469 C -0.01138 0.59068 0.47428
 C1470 C -0.01186 0.60980 0.46566
 H1471 H -0.00433 0.67774 0.37836
 H1472 H -0.00419 0.70990 0.36167
 H1473 H -0.00851 0.73934 0.41899
 H1474 H -0.00921 0.70694 0.43557
 H1475 H 0.00182 0.59772 0.41752
 H1476 H 0.00275 0.56464 0.43248
 H1477 H -0.01502 0.58894 0.49017
 H1478 H -0.01594 0.62227 0.47510
 C1479 C 0.48396 1.19451 -0.08846
 C1480 C 0.49308 1.21156 -0.08018
 C1481 C 0.49457 1.22984 -0.09064
 C1482 C 0.48649 1.23193 -0.10957
 C1483 C 0.47699 1.21456 -0.11736
 C1484 C 0.47566 1.19634 -0.10699
 C1485 C 0.48431 1.17456 -0.07867
 N1486 N 0.48072 1.15761 -0.08921
 N1487 N 0.48192 1.13959 -0.08090
 C1488 C 0.48670 1.13770 -0.06163
 N1489 N 0.49011 1.15464 -0.05099
 N1490 N 0.48902 1.17270 -0.05936
 C1491 C 0.48856 1.11758 -0.05265
 C1492 C 0.48840 1.11505 -0.03184
 C1493 C 0.49027 1.09603 -0.02347
 C1494 C 0.49265 1.07918 -0.03574
 C1495 C 0.49287 1.08173 -0.05655
 C1496 C 0.49071 1.10069 -0.06490
 H1497 H 0.50002 1.21058 -0.06607
 H1498 H 0.50336 1.24194 -0.08435
 H1499 H 0.47101 1.21441 -0.13186
 H1500 H 0.46852 1.18347 -0.11385
 H1501 H 0.48670 1.12775 -0.02200
 H1502 H 0.49008 1.09455 -0.00738
 H1503 H 0.49456 1.06903 -0.06641
 H1504 H 0.49096 1.10213 -0.08099
 C1505 C 0.49631 0.30802 -0.08974
 C1506 C 0.50564 0.30599 -0.10885
 C1507 C 0.50416 0.28792 -0.11903
 C1508 C 0.49356 0.27083 -0.11045
 C1509 C 0.48364 0.27334 -0.09134
 C1510 C 0.48534 0.29147 -0.08102
 C1511 C 0.49742 0.32766 -0.07960
 N1512 N 0.49299 0.32929 -0.05963
 N1513 N 0.49403 0.34712 -0.05078
 C1514 C 0.49940 0.36404 -0.06156
 N1515 N 0.50377 0.36237 -0.08149
 N1516 N 0.50287 0.34458 -0.09029
 C1517 C 0.50028 0.38399 -0.05203
 C1518 C 0.50000 0.40146 -0.06380
 C1519 C 0.50072 0.42037 -0.05505
 C1520 C 0.50203 0.42232 -0.03434
 C1521 C 0.50253 0.40488 -0.02254
 C1522 C 0.50149 0.38589 -0.03128
 H1523 H 0.51402 0.31852 -0.11617
 H1524 H 0.51119 0.28787 -0.13389
 H1525 H 0.47382 0.26155 -0.08455
 H1526 H 0.47745 0.29273 -0.06650
 H1527 H 0.49901 0.40054 -0.07981
 H1528 H 0.50041 0.43350 -0.06458
 H1529 H 0.50346 0.40592 -0.00652
 H1530 H 0.50182 0.37271 -0.02184
 C1531 C -0.01055 -0.19852 0.41391
 C1532 C 0.00653 -0.20129 0.40120
 C1533 C 0.00788 -0.21817 0.38924
 C1534 C -0.00742 -0.23361 0.39030
 C1535 C -0.02484 -0.23041 0.40286
 C1536 C -0.02643 -0.21304 0.41445
 C1537 C -0.01156 -0.18008 0.42586
 N1538 N -0.02900 -0.17036 0.42877
 N1539 N -0.02921 -0.15268 0.43793
 C1540 C -0.01204 -0.14416 0.44468
 N1541 N 0.00526 -0.15410 0.44209
 N1542 N 0.00552 -0.17163 0.43277
 C1543 C -0.01176 -0.12402 0.45375
 C1544 C 0.00340 -0.11828 0.46646
 C1545 C 0.00446 -0.09890 0.47419
 C1546 C -0.00938 -0.08474 0.46905
 C1547 C -0.02460 -0.09048 0.45639
 C1548 C -0.02590 -0.11001 0.44898
 H1549 H 0.01871 -0.18996 0.39999
 H1550 H 0.02094 -0.21850 0.37892
 H1551 H -0.03730 -0.24142 0.40362
 H1552 H -0.03993 -0.21107 0.42397
 H1553 H 0.01448 -0.12877 0.47042
 H1554 H 0.01635 -0.09490 0.48390
 H1555 H -0.03556 -0.07991 0.45232
 H1556 H -0.03766 -0.11399 0.43910
 C1557 C 0.50212 -0.19557 0.59191
 C1558 C 0.51417 -0.19713 0.60818
 C1559 C 0.51595 -0.21544 0.61777
 C1560 C 0.50629 -0.23321 0.61110
 C1561 C 0.49374 -0.23145 0.59504
 C1562 C 0.49194 -0.21297 0.58536
 C1563 C 0.49983 -0.17564 0.58257
 N1564 N 0.48901 -0.17349 0.56623
 N1565 N 0.48704 -0.15541 0.55816
 C1566 C 0.49576 -0.13874 0.56612
 N1567 N 0.50652 -0.14095 0.58243
 N1568 N 0.50850 -0.15897 0.59046
 C1569 C 0.49394 -0.11855 0.55720
 C1570 C 0.50221 -0.10148 0.56638
 C1571 C 0.50127 -0.08248 0.55777
 C1572 C 0.49205 -0.08000 0.53970
 C1573 C 0.48343 -0.09701 0.53068
 C1574 C 0.48434 -0.11606 0.53934
 H1575 H 0.52196 -0.18405 0.61394
 H1576 H 0.52450 -0.21536 0.63095
 H1577 H 0.48496 -0.24433 0.59021
 H1578 H 0.48219 -0.21223 0.57309
 H1579 H 0.50963 -0.10278 0.58020
 H1580 H 0.50805 -0.06976 0.56518
 H1581 H 0.47618 -0.09566 0.51676
 H1582 H 0.47777 -0.12886 0.53188
 C1583 C 0.00746 0.30890 1.08519
 C1584 C 0.02525 0.30270 1.09305
 C1585 C 0.02524 0.28509 1.10445
 C1586 C 0.00717 0.27374 1.10919
 C1587 C -0.01003 0.27893 1.09934
 C1588 C -0.00997 0.29637 1.08776
 C1589 C 0.00680 0.32871 1.07523
 N1590 N -0.00916 0.33338 1.06470
 N1591 N -0.01037 0.35164 1.05685
 C1592 C 0.00424 0.36607 1.05936
 N1593 N 0.02026 0.36136 1.06977
 N1594 N 0.02152 0.34307 1.07753
 C1595 C 0.00257 0.38659 1.05123
 C1596 C 0.01476 0.40258 1.05787
 C1597 C 0.01319 0.42196 1.05027
 C1598 C -0.00043 0.42575 1.03568
 C1599 C -0.01269 0.40977 1.02910
 C1600 C -0.01130 0.39043 1.03689
 H1601 H 0.03918 0.31159 1.09058
 H1602 H 0.03943 0.28067 1.10968
 H1603 H -0.02391 0.26990 1.10147
 H1604 H -0.02384 0.30039 1.08146
 H1605 H 0.02551 0.40017 1.06900
 H1606 H 0.02294 0.43390 1.05559
 H1607 H -0.02337 0.41219 1.01790
 H1608 H -0.02092 0.37844 1.03147
 C1609 C 0.75079 0.34293 0.05741
 C1610 C 0.73920 0.35986 0.05588
 C1611 C 0.73768 0.36940 0.03758
 C1612 C 0.74715 0.36206 0.01981
 C1613 C 0.75933 0.34539 0.02153
 C1614 C 0.76085 0.33575 0.04000
 C1615 C 0.75266 0.33352 0.07730
 N1616 N 0.76289 0.31650 0.07945
 N1617 N 0.76438 0.30834 0.09749
 C1618 C 0.75577 0.31688 0.11411
 N1619 N 0.74563 0.33387 0.11189
 N1620 N 0.74411 0.34199 0.09393
 C1621 C 0.75701 0.30787 0.13428
 C1622 C 0.74869 0.31757 0.15121
 C1623 C 0.74900 0.30894 0.17019
 C1624 C 0.75764 0.29033 0.17280
 C1625 C 0.76633 0.28076 0.15592
 C1626 C 0.76603 0.28944 0.13688
 H1627 H 0.73153 0.36613 0.06896
 H1628 H 0.72943 0.38301 0.03760
 H1629 H 0.76801 0.34002 0.00862
 H1630 H 0.77027 0.32297 0.04071
 H1631 H 0.74169 0.33183 0.14985
 H1632 H 0.74220 0.31680 0.18279
 H1633 H 0.77312 0.26641 0.15736
 H1634 H 0.77261 0.28157 0.12418
 C1635 C 0.24600 0.84182 0.55803
 C1636 C 0.23335 0.85797 0.55672
 C1637 C 0.23099 0.86734 0.53850
 C1638 C 0.24071 0.86058 0.52059
 C1639 C 0.25382 0.84462 0.52207
 C1640 C 0.25616 0.83514 0.54047
 C1641 C 0.24890 0.83279 0.57786
 N1642 N 0.25943 0.81595 0.57978
 N1643 N 0.26176 0.80807 0.59778
 C1644 C 0.25375 0.81677 0.61459
 N1645 N 0.24333 0.83362 0.61260
 N1646 N 0.24097 0.84144 0.59467
 C1647 C 0.25572 0.80796 0.63470
 C1648 C 0.24831 0.81801 0.65182
 C1649 C 0.24892 0.80938 0.67076
 C1650 C 0.25693 0.79044 0.67313
 C1651 C 0.26491 0.78061 0.65608
 C1652 C 0.26432 0.78929 0.63708
 H1653 H 0.22550 0.86380 0.56992
 H1654 H 0.22199 0.88045 0.53875
 H1655 H 0.26266 0.83975 0.50904
 H1656 H 0.26636 0.82297 0.54100
 H1657 H 0.24171 0.83248 0.65062
 H1658 H 0.24271 0.81745 0.68351
 H1659 H 0.27123 0.76601 0.65734
 H1660 H 0.27022 0.78117 0.62423
 C1661 C 0.76156 0.65899 0.55534
 C1662 C 0.75638 0.63845 0.55464
 C1663 C 0.75533 0.62877 0.53644
 C1664 C 0.75915 0.63927 0.51819
 C1665 C 0.76558 0.65967 0.51897
 C1666 C 0.76633 0.66951 0.53734
 C1667 C 0.76180 0.66903 0.57493
 N1668 N 0.76086 0.68927 0.57650
 N1669 N 0.75999 0.69794 0.59437
 C1670 C 0.76011 0.68673 0.61135
 N1671 N 0.76128 0.66656 0.60970
 N1672 N 0.76205 0.65791 0.59190
 C1673 C 0.75850 0.69602 0.63135
 C1674 C 0.76183 0.68460 0.64840
 C1675 C 0.75979 0.69294 0.66738
 C1676 C 0.75424 0.71289 0.66984
 C1677 C 0.75094 0.72437 0.65279
 C1678 C 0.75314 0.71604 0.63373
 H1679 H 0.75282 0.62979 0.56819
 H1680 H 0.75121 0.61290 0.53659
 H1681 H 0.77030 0.66808 0.50556
 H1682 H 0.77094 0.68526 0.53747
 H1683 H 0.76603 0.66914 0.64713
 H1684 H 0.76244 0.68365 0.68016
 H1685 H 0.74674 0.73983 0.65416
 H1686 H 0.75040 0.72521 0.62090
 C1687 C 0.26081 0.15994 0.05386
 C1688 C 0.25607 0.13931 0.05342
 C1689 C 0.25506 0.12940 0.03537
 C1690 C 0.25850 0.13976 0.01700
 C1691 C 0.26460 0.16027 0.01750
 C1692 C 0.26529 0.17034 0.03575
 C1693 C 0.26080 0.17019 0.07332
 N1694 N 0.25920 0.19037 0.07476
 N1695 N 0.25795 0.19914 0.09258
 C1696 C 0.25832 0.18806 0.10963
 N1697 N 0.26017 0.16797 0.10809
 N1698 N 0.26134 0.15923 0.09035
 C1699 C 0.25630 0.19735 0.12958
 C1700 C 0.25926 0.18584 0.14667
 C1701 C 0.25698 0.19412 0.16562
 C1702 C 0.25160 0.21412 0.16805
 C1703 C 0.24857 0.22569 0.15099
 C1704 C 0.25097 0.21739 0.13191
 H1705 H 0.25275 0.13074 0.06708
 H1706 H 0.25118 0.11348 0.03571
 H1707 H 0.26902 0.16860 0.00397
 H1708 H 0.26956 0.18618 0.03570
 H1709 H 0.26339 0.17036 0.14546
 H1710 H 0.25942 0.18475 0.17841
 H1711 H 0.24451 0.24118 0.15235
 H1712 H 0.24850 0.22662 0.11904
 C1713 C 0.25300 0.15954 0.94104
 C1714 C 0.26425 0.14235 0.94206
 C1715 C 0.26600 0.13261 0.96020
 C1716 C 0.25690 0.13993 0.97816
 C1717 C 0.24481 0.15671 0.97681
 C1718 C 0.24332 0.16671 0.95859
 C1719 C 0.25097 0.16927 0.92149
 N1720 N 0.24616 0.18878 0.92008
 N1721 N 0.24492 0.19745 0.90227
 C1722 C 0.24826 0.18688 0.88521
 N1723 N 0.25289 0.16735 0.88668
 N1724 N 0.25427 0.15875 0.90443
 C1725 C 0.24737 0.19636 0.86535
 C1726 C 0.24535 0.18435 0.84841
 C1727 C 0.24535 0.19305 0.82947
 C1728 C 0.24763 0.21395 0.82699
 C1729 C 0.24949 0.22601 0.84394
 C1730 C 0.24921 0.21729 0.86297
 H1731 H 0.27163 0.13623 0.92875
 H1732 H 0.27410 0.11890 0.95990
 H1733 H 0.23624 0.16197 0.98984
 H1734 H 0.23406 0.17963 0.95812
 H1735 H 0.24381 0.16817 0.84976
 H1736 H 0.24394 0.18334 0.81671
 H1737 H 0.25116 0.24217 0.84250
 H1738 H 0.25086 0.22691 0.87575
 C1739 C 0.75572 0.66030 0.44226
 C1740 C 0.76658 0.64286 0.44330
 C1741 C 0.76765 0.63272 0.46135
 C1742 C 0.75826 0.63989 0.47924
 C1743 C 0.74647 0.65689 0.47784
 C1744 C 0.74566 0.66728 0.45971
 C1745 C 0.75449 0.67048 0.42276
 N1746 N 0.74992 0.69009 0.42151
 N1747 N 0.74934 0.69910 0.40376
 C1748 C 0.75314 0.68881 0.38660
 N1749 N 0.75756 0.66921 0.38792
 N1750 N 0.75828 0.66027 0.40560
 C1751 C 0.75268 0.69855 0.36678
 C1752 C 0.75082 0.68674 0.34969
 C1753 C 0.75084 0.69563 0.33084
 C1754 C 0.75300 0.71656 0.32855
 C1755 C 0.75488 0.72844 0.34563
 C1756 C 0.75456 0.71952 0.36460
 H1757 H 0.77421 0.63684 0.43006
 H1758 H 0.77552 0.61888 0.46103
 H1759 H 0.73768 0.66206 0.49077
 H1760 H 0.73666 0.68039 0.45922
 H1761 H 0.74927 0.67055 0.35087
 H1762 H 0.74944 0.68604 0.31799
 H1763 H 0.75646 0.74462 0.34433
 H1764 H 0.75610 0.72900 0.37749
 C1765 C 0.23622 0.84118 0.44445
 C1766 C 0.23228 0.83053 0.46254
 C1767 C 0.23351 0.84031 0.48094
 C1768 C 0.23924 0.86090 0.48163
 C1769 C 0.24229 0.87147 0.46335
 C1770 C 0.24102 0.86181 0.44518
 C1771 C 0.23548 0.83127 0.42474
 N1772 N 0.23934 0.84226 0.40774
 N1773 N 0.23930 0.83368 0.38992
 C1774 C 0.23536 0.81368 0.38824
 N1775 N 0.23135 0.80261 0.40523
 N1776 N 0.23141 0.81123 0.42314
 C1777 C 0.23610 0.80428 0.36823
 C1778 C 0.23131 0.78374 0.36592
 C1779 C 0.23287 0.77497 0.34701
 C1780 C 0.23938 0.78654 0.33002
 C1781 C 0.24380 0.80712 0.33232
 C1782 C 0.24214 0.81588 0.35115
 H1783 H 0.22812 0.81467 0.46249
 H1784 H 0.22963 0.83175 0.49446
 H1785 H 0.24588 0.88745 0.46316
 H1786 H 0.24387 0.87067 0.43164
 H1787 H 0.22655 0.77439 0.37874
 H1788 H 0.22935 0.75906 0.34577
 H1789 H 0.24874 0.81652 0.31958
 H1790 H 0.24590 0.83175 0.35230
 C1791 C 0.74271 0.34231 0.94372
 C1792 C 0.73771 0.33209 0.96188
 C1793 C 0.73935 0.34192 0.98020
 C1794 C 0.74655 0.36211 0.98079
 C1795 C 0.75082 0.37228 0.96242
 C1796 C 0.74919 0.36255 0.94430
 C1797 C 0.74111 0.33236 0.92409
 N1798 N 0.74583 0.34292 0.90695
 N1799 N 0.74476 0.33430 0.88922
 C1800 C 0.73889 0.31468 0.88776
 N1801 N 0.73406 0.30404 0.90489
 N1802 N 0.73514 0.31271 0.92269
 C1803 C 0.73836 0.30516 0.86783
 C1804 C 0.73222 0.28489 0.86584
 C1805 C 0.73268 0.27591 0.84701
 C1806 C 0.73936 0.28699 0.82975
 C1807 C 0.74506 0.30735 0.83174
 C1808 C 0.74453 0.31632 0.85049
 H1809 H 0.73226 0.31657 0.96195
 H1810 H 0.73451 0.33379 0.99375
 H1811 H 0.75548 0.38803 0.96209
 H1812 H 0.75291 0.37108 0.93070
 H1813 H 0.72731 0.27588 0.87885
 H1814 H 0.72819 0.26018 0.84604
 H1815 H 0.75020 0.31639 0.81880
 H1816 H 0.74929 0.33198 0.85138
 C1817 C 0.84277 0.44853 0.24999
 C1818 C 0.83363 0.46459 0.25980
 C1819 C 0.84410 0.48315 0.26125
 C1820 C 0.86383 0.48656 0.25227
 C1821 C 0.87276 0.46994 0.24281
 C1822 C 0.86241 0.45148 0.24153
 C1823 C 0.83255 0.42840 0.24931
 N1824 N 0.84345 0.41211 0.24485
 N1825 N 0.83462 0.39388 0.24439
 C1826 C 0.81445 0.39113 0.24829
 N1827 N 0.80346 0.40743 0.25268
 N1828 N 0.81234 0.42570 0.25325
 C1829 C 0.80489 0.37070 0.24796
 C1830 C 0.78401 0.36775 0.24658
 C1831 C 0.77522 0.34834 0.24615
 C1832 C 0.78710 0.33151 0.24742
 C1833 C 0.80796 0.33450 0.24885
 C1834 C 0.81676 0.35384 0.24897
 H1835 H 0.81867 0.46263 0.26702
 H1836 H 0.83695 0.49449 0.27030
 H1837 H 0.88803 0.47060 0.23661
 H1838 H 0.87006 0.43935 0.23406
 H1839 H 0.77449 0.38044 0.24569
 H1840 H 0.75908 0.34650 0.24513
 H1841 H 0.81755 0.32185 0.24975
 H1842 H 0.83289 0.35557 0.25010
 C1843 C 0.34334 0.94698 0.75187
 C1844 C 0.33377 0.96275 0.76177
 C1845 C 0.34387 0.98143 0.76363
 C1846 C 0.36362 0.98530 0.75488
 C1847 C 0.37310 0.96889 0.74560
 C1848 C 0.36313 0.95029 0.74394
 C1849 C 0.33331 0.92686 0.75039
 N1850 N 0.34438 0.91075 0.74558
 N1851 N 0.33565 0.89256 0.74426
 C1852 C 0.31543 0.88967 0.74756
 N1853 N 0.30429 0.90578 0.75231
 N1854 N 0.31306 0.92401 0.75374
 C1855 C 0.30591 0.86930 0.74632
 C1856 C 0.28503 0.86654 0.74484
 C1857 C 0.27613 0.84723 0.74403
 C1858 C 0.28789 0.83028 0.74500
 C1859 C 0.30879 0.83306 0.74630
 C1860 C 0.31771 0.85235 0.74681
 H1861 H 0.31869 0.96047 0.76866
 H1862 H 0.33636 0.99255 0.77267
 H1863 H 0.38850 0.96985 0.73977
 H1864 H 0.37114 0.93837 0.73650
 H1865 H 0.27556 0.87930 0.74431
 H1866 H 0.25997 0.84556 0.74313
 H1867 H 0.31826 0.82031 0.74700
 H1868 H 0.33384 0.85395 0.74797
 C1869 C 0.15621 0.93697 0.25110
 C1870 C 0.16599 0.95551 0.25494
 C1871 C 0.15589 0.97346 0.25352
 C1872 C 0.13585 0.97334 0.24775
 C1873 C 0.12609 0.95455 0.24460
 C1874 C 0.13612 0.93678 0.24596
 C1875 C 0.16645 0.91774 0.25273
 N1876 N 0.15662 0.90019 0.24849
 N1877 N 0.16550 0.88281 0.24987
 C1878 C 0.18463 0.88213 0.25559
 N1879 N 0.19454 0.89967 0.25988
 N1880 N 0.18563 0.91712 0.25848
 C1881 C 0.19441 0.86260 0.25675
 C1882 C 0.21403 0.86138 0.26313
 C1883 C 0.22325 0.84291 0.26356
 C1884 C 0.21307 0.82527 0.25754
 C1885 C 0.19334 0.82649 0.25149
 C1886 C 0.18414 0.84488 0.25113
 H1887 H 0.18137 0.95616 0.25934
 H1888 H 0.16368 0.98724 0.25753
 H1889 H 0.11042 0.95364 0.24113
 H1890 H 0.12791 0.92283 0.24320
 H1891 H 0.22235 0.87471 0.26763
 H1892 H 0.23847 0.84252 0.26830
 H1893 H 0.18499 0.81323 0.24685
 H1894 H 0.16899 0.84518 0.24620
 C1895 C 0.65667 0.43665 0.74952
 C1896 C 0.66602 0.45293 0.73877
 C1897 C 0.65601 0.47079 0.73671
 C1898 C 0.63660 0.47335 0.74606
 C1899 C 0.62730 0.45645 0.75628
 C1900 C 0.63718 0.43861 0.75812
 C1901 C 0.66666 0.41735 0.75118
 N1902 N 0.65564 0.40034 0.75645
 N1903 N 0.66438 0.38287 0.75783
 C1904 C 0.68456 0.38166 0.75413
 N1905 N 0.69564 0.39868 0.74895
 N1906 N 0.68686 0.41617 0.74744
 C1907 C 0.69409 0.36209 0.75539
 C1908 C 0.71496 0.36110 0.75695
 C1909 C 0.72388 0.34254 0.75781
 C1910 C 0.71214 0.32460 0.75679
 C1911 C 0.69126 0.32561 0.75537
 C1912 C 0.68232 0.34414 0.75483
 H1913 H 0.68084 0.45167 0.73138
 H1914 H 0.66332 0.48230 0.72707
 H1915 H 0.61214 0.45646 0.76276
 H1916 H 0.62936 0.42623 0.76625
 H1917 H 0.72441 0.37467 0.75753
 H1918 H 0.74003 0.34223 0.75882
 H1919 H 0.68181 0.31205 0.75464
 H1920 H 0.66620 0.34438 0.75359
 C1921 C 0.66073 0.54954 0.73528
 C1922 C 0.66856 0.53321 0.74497
 C1923 C 0.65759 0.51486 0.74683
 C1924 C 0.63855 0.51198 0.73864
 C1925 C 0.63124 0.52864 0.72861
 C1926 C 0.64214 0.54689 0.72684
 C1927 C 0.67087 0.56973 0.73522
 N1928 N 0.66049 0.58613 0.73097
 N1929 N 0.66901 0.60446 0.73179
 C1930 C 0.68833 0.60721 0.73683
 N1931 N 0.69885 0.59081 0.74091
 N1932 N 0.69026 0.57243 0.74020
 C1933 C 0.69740 0.62773 0.73830
 C1934 C 0.71838 0.63111 0.73792
 C1935 C 0.72675 0.65061 0.73925
 C1936 C 0.71427 0.66705 0.74132
 C1937 C 0.69330 0.66361 0.74183
 C1938 C 0.68497 0.64420 0.74019
 H1939 H 0.68272 0.53488 0.75201
 H1940 H 0.66352 0.50337 0.75595
 H1941 H 0.61671 0.52825 0.72249
 H1942 H 0.63561 0.55917 0.71927
 H1943 H 0.72834 0.61872 0.73642
 H1944 H 0.74297 0.65280 0.73887
 H1945 H 0.68329 0.67597 0.74330
 H1946 H 0.66874 0.64209 0.74063
 C1947 C 0.15487 0.05125 0.24306
 C1948 C 0.13721 0.04813 0.25538
 C1949 C 0.12748 0.02930 0.25705
 C1950 C 0.13531 0.01254 0.24694
 C1951 C 0.15255 0.01596 0.23380
 C1952 C 0.16244 0.03496 0.23219
 C1953 C 0.16472 0.07163 0.24150
 N1954 N 0.18305 0.07508 0.23170
 N1955 N 0.19173 0.09351 0.23082
 C1956 C 0.18241 0.10921 0.23966
 N1957 N 0.16408 0.10570 0.24933
 N1958 N 0.15546 0.08736 0.25024
 C1959 C 0.19194 0.12974 0.23924
 C1960 C 0.18131 0.14576 0.24756
 C1961 C 0.19024 0.16503 0.24795
 C1962 C 0.21009 0.16887 0.24007
 C1963 C 0.22068 0.15293 0.23146
 C1964 C 0.21169 0.13357 0.23103
 H1965 H 0.13062 0.06034 0.26368
 H1966 H 0.11344 0.02811 0.26609
 H1967 H 0.15830 0.00394 0.22464
 H1968 H 0.17577 0.03697 0.22217
 H1969 H 0.16604 0.14345 0.25394
 H1970 H 0.18156 0.17690 0.25464
 H1971 H 0.23598 0.15535 0.22520
 H1972 H 0.22030 0.12159 0.22450
 C1973 C 0.34037 0.05996 0.76312
 C1974 C 0.35883 0.05886 0.77183
 C1975 C 0.36952 0.04138 0.77074
 C1976 C 0.36213 0.02399 0.76113
 C1977 C 0.34333 0.02537 0.75248
 C1978 C 0.33254 0.04292 0.75371
 C1979 C 0.33023 0.07928 0.76278
 N1980 N 0.31076 0.08020 0.75802
 N1981 N 0.30207 0.09779 0.75713
 C1982 C 0.31255 0.11517 0.76081
 N1983 N 0.33197 0.11420 0.76560
 N1984 N 0.34060 0.09664 0.76660
 C1985 C 0.30325 0.13482 0.75929
 C1986 C 0.31544 0.15252 0.75720
 C1987 C 0.30683 0.17112 0.75550
 C1988 C 0.28581 0.17247 0.75615
 C1989 C 0.27359 0.15480 0.75844
 C1990 C 0.28223 0.13615 0.75983
 H1991 H 0.36537 0.07176 0.77915
 H1992 H 0.38396 0.04213 0.77706
 H1993 H 0.33743 0.01333 0.74355
 H1994 H 0.31851 0.04342 0.74643
 H1995 H 0.33169 0.15201 0.75664
 H1996 H 0.31664 0.18446 0.75385
 H1997 H 0.25734 0.15537 0.75892
 H1998 H 0.27244 0.12278 0.76149
 C1999 C 0.84270 0.56192 0.26043
 C2000 C 0.86136 0.56047 0.26868
 C2001 C 0.87161 0.54271 0.26755
 C2002 C 0.86355 0.52536 0.25838
 C2003 C 0.84470 0.52716 0.24994
 C2004 C 0.83433 0.54499 0.25125
 C2005 C 0.83282 0.58140 0.26042
 N2006 N 0.81316 0.58257 0.25640
 N2007 N 0.80460 0.60027 0.25600
 C2008 C 0.81541 0.61751 0.25944
 N2009 N 0.83503 0.61630 0.26346
 N2010 N 0.84353 0.59863 0.26399
 C2011 C 0.80619 0.63729 0.25854
 C2012 C 0.81845 0.65494 0.25631
 C2013 C 0.80990 0.67363 0.25516
 C2014 C 0.78889 0.67514 0.25651
 C2015 C 0.77661 0.65752 0.25897
 C2016 C 0.78517 0.63877 0.25981
 H2017 H 0.86836 0.57329 0.27575
 H2018 H 0.88622 0.54315 0.27352
 H2019 H 0.83835 0.51521 0.24120
 H2020 H 0.82017 0.54575 0.24425
 H2021 H 0.83470 0.65431 0.25521
 H2022 H 0.81977 0.68693 0.25337
 H2023 H 0.76036 0.65820 0.25999
 H2024 H 0.77533 0.62546 0.26161
 C2025 C 0.95211 0.25749 0.16480
 C2026 C 0.96234 0.23966 0.16213
 C2027 C 0.98015 0.23939 0.14997
 C2028 C 0.98747 0.25664 0.13908
 C2029 C 0.97845 0.27494 0.14388
 C2030 C 0.96088 0.27530 0.15636
 C2031 C 0.93184 0.25732 0.17518
 N2032 N 0.92402 0.27451 0.18236
 N2033 N 0.90516 0.27457 0.19028
 C2034 C 0.89328 0.25749 0.19109
 N2035 N 0.90115 0.24029 0.18403
 N2036 N 0.92005 0.24019 0.17628
 C2037 C 0.87205 0.25771 0.19900
 C2038 C 0.85798 0.24289 0.19329
 C2039 C 0.83788 0.24310 0.20060
 C2040 C 0.83152 0.25791 0.21408
 C2041 C 0.84558 0.27275 0.21979
 C2042 C 0.86561 0.27276 0.21216
 H2043 H 0.95635 0.22580 0.16911
 H2044 H 0.98757 0.22535 0.14810
 H2045 H 0.98462 0.28905 0.13768
 H2046 H 0.95373 0.28944 0.15871
 H2047 H 0.86247 0.23119 0.18304
 H2048 H 0.82741 0.23140 0.19605
 H2049 H 0.84108 0.28438 0.23013
 H2050 H 0.87612 0.28437 0.21682
 C2051 C 0.44714 0.75215 0.65575
 C2052 C 0.44966 0.73947 0.63928
 C2053 C 0.46853 0.73742 0.62960
 C2054 C 0.48590 0.74751 0.63632
 C2055 C 0.48319 0.76069 0.65257
 C2056 C 0.46414 0.76271 0.66238
 C2057 C 0.42665 0.75458 0.66524
 N2058 N 0.42362 0.76485 0.68253
 N2059 N 0.40506 0.76667 0.69087
 C2060 C 0.38878 0.75839 0.68221
 N2061 N 0.39187 0.74824 0.66491
 N2062 N 0.41036 0.74638 0.65663
 C2063 C 0.36807 0.75975 0.69154
 C2064 C 0.35149 0.75209 0.68158
 C2065 C 0.33204 0.75214 0.69064
 C2066 C 0.32862 0.75983 0.70994
 C2067 C 0.34512 0.76804 0.71972
 C2068 C 0.36463 0.76801 0.71061
 H2069 H 0.43691 0.73133 0.63349
 H2070 H 0.46923 0.72830 0.61633
 H2071 H 0.49577 0.76977 0.65745
 H2072 H 0.46266 0.77293 0.67480
 H2073 H 0.35351 0.74573 0.66682
 H2074 H 0.31973 0.74578 0.68260
 H2075 H 0.34304 0.77415 0.73458
 H2076 H 0.37704 0.77409 0.71868
 C2077 C 0.43657 0.25474 0.84286
 C2078 C 0.43777 0.26428 0.86132
 C2079 C 0.45514 0.26359 0.87184
 C2080 C 0.47233 0.25372 0.86419
 C2081 C 0.47084 0.24413 0.84551
 C2082 C 0.45339 0.24478 0.83499
 C2083 C 0.41753 0.25448 0.83246
 N2084 N 0.41584 0.24469 0.81490
 N2085 N 0.39850 0.24398 0.80599
 C2086 C 0.38209 0.25300 0.81427
 N2087 N 0.38383 0.26285 0.83176
 N2088 N 0.40115 0.26356 0.84065
 C2089 C 0.36262 0.25197 0.80462
 C2090 C 0.34559 0.26078 0.81373
 C2091 C 0.32720 0.25979 0.80478
 C2092 C 0.32534 0.24998 0.78646
 C2093 C 0.34235 0.24114 0.77735
 C2094 C 0.36076 0.24211 0.78633
 H2095 H 0.42504 0.27194 0.86799
 H2096 H 0.45456 0.27056 0.88627
 H2097 H 0.48281 0.23512 0.83936
 H2098 H 0.45291 0.23694 0.82094
 H2099 H 0.34642 0.26847 0.82783
 H2100 H 0.31445 0.26679 0.81223
 H2101 H 0.34149 0.23345 0.76325
 H2102 H 0.37354 0.23514 0.77890
 C2103 C 0.94059 0.75199 0.34112
 C2104 C 0.95560 0.76741 0.34056
 C2105 C 0.97265 0.76569 0.35161
 C2106 C 0.97508 0.74857 0.36363
 C2107 C 0.95917 0.73376 0.36475
 C2108 C 0.94258 0.73523 0.35333
 C2109 C 0.92251 0.75312 0.32959
 N2110 N 0.91362 0.73604 0.32277
 N2111 N 0.89654 0.73655 0.31357
 C2112 C 0.88749 0.75413 0.31100
 N2113 N 0.89643 0.77128 0.31771
 N2114 N 0.91368 0.77080 0.32676
 C2115 C 0.86795 0.75426 0.30169
 C2116 C 0.85424 0.76924 0.30626
 C2117 C 0.83527 0.76850 0.29835
 C2118 C 0.82986 0.75300 0.28538
 C2119 C 0.84374 0.73825 0.28054
 C2120 C 0.86249 0.73876 0.28875
 H2121 H 0.95425 0.78066 0.33143
 H2122 H 0.98401 0.77781 0.35087
 H2123 H 0.95888 0.72102 0.37474
 H2124 H 0.93088 0.72342 0.35456
 H2125 H 0.85800 0.78128 0.31630
 H2126 H 0.82491 0.78014 0.30222
 H2127 H 0.83997 0.72609 0.27063
 H2128 H 0.87276 0.72702 0.28494
 C2129 C 0.05272 0.74709 0.34395
 C2130 C 0.03535 0.74840 0.33323
 C2131 C 0.01619 0.74834 0.34324
 C2132 C 0.01399 0.74750 0.36432
 C2133 C 0.03158 0.74543 0.37474
 C2134 C 0.05052 0.74534 0.36480
 C2135 C 0.07316 0.74758 0.33378
 N2136 N 0.08938 0.74421 0.34441
 N2137 N 0.10787 0.74501 0.33568
 C2138 C 0.11104 0.74929 0.31592
 N2139 N 0.09482 0.75264 0.30520
 N2140 N 0.07625 0.75179 0.31395
 C2141 C 0.13179 0.75022 0.30647
 C2142 C 0.13567 0.75620 0.28642
 C2143 C 0.15535 0.75689 0.27770
 C2144 C 0.17154 0.75153 0.28882
 C2145 C 0.16763 0.74570 0.30889
 C2146 C 0.14804 0.74509 0.31760
 H2147 H 0.03652 0.74935 0.31709
 H2148 H 0.00334 0.74880 0.33426
 H2149 H 0.03063 0.74432 0.39089
 H2150 H 0.06349 0.74414 0.37361
 H2151 H 0.12351 0.76031 0.27744
 H2152 H 0.15783 0.76143 0.26219
 H2153 H 0.17971 0.74153 0.31794
 H2154 H 0.14566 0.74044 0.33308
 C2155 C 0.54969 0.24736 0.84354
 C2156 C 0.53385 0.25679 0.83497
 C2157 C 0.51491 0.25742 0.84522
 C2158 C 0.51095 0.24838 0.86434
 C2159 C 0.52719 0.23893 0.87258
 C2160 C 0.54599 0.23823 0.86233
 C2161 C 0.57027 0.24780 0.83363
 N2162 N 0.58550 0.23934 0.84272
 N2163 N 0.60417 0.24021 0.83436
 C2164 C 0.60848 0.24962 0.81652
 N2165 N 0.59324 0.25802 0.80733
 N2166 N 0.57452 0.25716 0.81572
 C2167 C 0.62941 0.25064 0.80746
 C2168 C 0.63400 0.25944 0.78854
 C2169 C 0.65374 0.25997 0.77998
 C2170 C 0.66933 0.25175 0.79017
 C2171 C 0.66475 0.24324 0.80921
 C2172 C 0.64506 0.24267 0.81772
 H2173 H 0.53623 0.26427 0.82061
 H2174 H 0.50371 0.26608 0.83851
 H2175 H 0.52597 0.23235 0.88728
 H2176 H 0.55786 0.23094 0.86953
 H2177 H 0.62233 0.26577 0.78024
 H2178 H 0.65672 0.26668 0.76530
 H2179 H 0.67634 0.23677 0.81751
 H2180 H 0.64213 0.23586 0.83235
 C2181 C 0.56175 0.74374 0.65498
 C2182 C 0.56197 0.74892 0.63469
 C2183 C 0.54411 0.75012 0.62520
 C2184 C 0.52521 0.74675 0.63568
 C2185 C 0.52502 0.74082 0.65593
 C2186 C 0.54308 0.73955 0.66550
 C2187 C 0.58108 0.74257 0.66471
 N2188 N 0.59871 0.74775 0.65431
 N2189 N 0.61619 0.74686 0.66274
 C2190 C 0.61687 0.74072 0.68198
 N2191 N 0.59925 0.73549 0.69245
 N2192 N 0.58171 0.73640 0.68399
 C2193 C 0.63647 0.74010 0.69129
 C2194 C 0.63762 0.73277 0.71084
 C2195 C 0.65611 0.73274 0.71964
 C2196 C 0.67388 0.74013 0.70912
 C2197 C 0.67274 0.74720 0.68948
 C2198 C 0.65429 0.74715 0.68067
 H2199 H 0.57602 0.75192 0.62595
 H2200 H 0.54502 0.75378 0.60941
 H2201 H 0.51108 0.73669 0.66434
 H2202 H 0.54240 0.73511 0.68108
 H2203 H 0.62422 0.72717 0.71942
 H2204 H 0.65642 0.72720 0.73481
 H2205 H 0.68609 0.75296 0.68091
 H2206 H 0.65402 0.75288 0.66557
 C2207 C 0.05815 0.25165 0.15958
 C2208 C 0.04922 0.23423 0.15181
 C2209 C 0.03225 0.23528 0.14074
 C2210 C 0.02394 0.25391 0.13664
 C2211 C 0.03154 0.27089 0.14663
 C2212 C 0.04881 0.26993 0.15736
 C2213 C 0.07742 0.25076 0.16930
 N2214 N 0.08996 0.26729 0.17003
 N2215 N 0.10790 0.26619 0.17760
 C2216 C 0.11399 0.24855 0.18485
 N2217 N 0.10135 0.23208 0.18434
 N2218 N 0.08348 0.23314 0.17661
 C2219 C 0.13408 0.24724 0.19288
 C2220 C 0.13802 0.23164 0.20606
 C2221 C 0.15688 0.23067 0.21396
 C2222 C 0.17232 0.24504 0.20854
 C2223 C 0.16853 0.26037 0.19501
 C2224 C 0.14955 0.26156 0.18740
 H2225 H 0.05566 0.21978 0.15382
 H2226 H 0.02582 0.22137 0.13531
 H2227 H 0.02455 0.28517 0.14544
 H2228 H 0.05492 0.28351 0.16386
 H2229 H 0.12639 0.22039 0.21056
 H2230 H 0.15938 0.21866 0.22433
 H2231 H 0.18009 0.27175 0.19067
 H2232 H 0.14702 0.27366 0.17716
 C2233 C -0.09135 1.00588 0.81710
 C2234 C -0.08296 0.99652 0.80006
 C2235 C -0.09300 0.99598 0.78235
 C2236 C -0.11173 1.00505 0.78090
 C2237 C -0.11975 1.01460 0.79823
 C2238 C -0.10969 1.01520 0.81582
 C2239 C -0.08183 1.00501 0.83649
 N2240 N -0.09077 1.01329 0.85304
 N2241 N -0.08280 1.01191 0.87066
 C2242 C -0.06554 1.00215 0.87256
 N2243 N -0.05651 0.99393 0.85600
 N2244 N -0.06451 0.99530 0.83834
 C2245 C -0.05682 1.00060 0.89230
 C2246 C -0.03852 0.99126 0.89429
 C2247 C -0.03009 0.99038 0.91283
 C2248 C -0.03978 0.99879 0.92984
 C2249 C -0.05829 1.00775 0.92791
 C2250 C -0.06669 1.00866 0.90939
 H2251 H -0.06896 0.98890 0.80058
 H2252 H -0.08664 0.98718 0.77024
 H2253 H -0.13424 1.02119 0.79876
 H2254 H -0.11673 1.02246 0.82867
 H2255 H -0.03055 0.98482 0.88147
 H2256 H -0.01583 0.98333 0.91375
 H2257 H -0.06619 1.01439 0.94066
 H2258 H -0.08086 1.01587 0.90847
 C2259 C 0.40897 0.49869 0.31326
 C2260 C 0.41924 0.49515 0.29473
 C2261 C 0.40934 0.49641 0.27693
 C2262 C 0.38903 0.50171 0.27724
 C2263 C 0.37876 0.50433 0.29602
 C2264 C 0.38858 0.50314 0.31362
 C2265 C 0.41905 0.49759 0.33231
 N2266 N 0.40887 0.50219 0.34975
 N2267 N 0.41759 0.50132 0.36700
 C2268 C 0.43689 0.49578 0.36764
 N2269 N 0.44714 0.49115 0.35021
 N2270 N 0.43840 0.49205 0.33289
 C2271 C 0.44642 0.49500 0.38701
 C2272 C 0.46601 0.48825 0.38820
 C2273 C 0.47489 0.48778 0.40654
 C2274 C 0.46440 0.49412 0.42409
 C2275 C 0.44477 0.50075 0.42287
 C2276 C 0.43589 0.50115 0.40459
 H2277 H 0.43488 0.49123 0.29397
 H2278 H 0.41755 0.49276 0.26312
 H2279 H 0.36290 0.50743 0.29705
 H2280 H 0.38000 0.50558 0.32758
 H2281 H 0.47453 0.48337 0.37497
 H2282 H 0.49005 0.48261 0.40692
 H2283 H 0.43621 0.50571 0.43606
 H2284 H 0.42077 0.50643 0.40428
 C2285 C 0.58799 -0.01006 0.30070
 C2286 C 0.57977 -0.00123 0.28423
 C2287 C 0.59043 -0.00046 0.26558
 C2288 C 0.60969 -0.00866 0.26259
 C2289 C 0.61733 -0.01805 0.27932
 C2290 C 0.60664 -0.01890 0.29786
 C2291 C 0.57805 -0.00886 0.32105
 N2292 N 0.58699 -0.01627 0.33699
 N2293 N 0.57883 -0.01425 0.35544
 C2294 C 0.56137 -0.00468 0.35880
 N2295 N 0.55230 0.00261 0.34285
 N2296 N 0.56049 0.00061 0.32436
 C2297 C 0.55260 -0.00223 0.37946
 C2298 C 0.53387 0.00646 0.38314
 C2299 C 0.52550 0.00819 0.40268
 C2300 C 0.53569 0.00131 0.41896
 C2301 C 0.55462 -0.00695 0.41525
 C2302 C 0.56294 -0.00872 0.39577
 H2303 H 0.56548 0.00592 0.28591
 H2304 H 0.58409 0.00802 0.25391
 H2305 H 0.63199 -0.02424 0.27870
 H2306 H 0.61350 -0.02586 0.31022
 H2307 H 0.52554 0.01169 0.37093
 H2308 H 0.51089 0.01463 0.40498
 H2309 H 0.56293 -0.01240 0.42739
 H2310 H 0.57745 -0.01536 0.39353
 C2311 C 0.09241 0.50011 0.79887
 C2312 C 0.08631 0.51076 0.78232
 C2313 C 0.09605 0.50848 0.76337
 C2314 C 0.11170 0.49497 0.76027
 C2315 C 0.11780 0.48466 0.77718
 C2316 C 0.10818 0.48697 0.79597
 C2317 C 0.08324 0.50304 0.81932
 N2318 N 0.09182 0.49513 0.83524
 N2319 N 0.08391 0.49756 0.85370
 C2320 C 0.06703 0.50800 0.85714
 N2321 N 0.05837 0.51597 0.84124
 N2322 N 0.06635 0.51359 0.82269
 C2323 C 0.05818 0.51007 0.87784
 C2324 C 0.03915 0.51807 0.88171
 C2325 C 0.03050 0.51873 0.90126
 C2326 C 0.04073 0.51146 0.91736
 C2327 C 0.06001 0.50405 0.91349
 C2328 C 0.06859 0.50334 0.89402
 H2329 H 0.07443 0.52131 0.78412
 H2330 H 0.09167 0.51765 0.75115
 H2331 H 0.13064 0.47525 0.77628
 H2332 H 0.11352 0.47870 0.80837
 H2333 H 0.03075 0.52342 0.86960
 H2334 H 0.01564 0.52459 0.90370
 H2335 H 0.06840 0.49840 0.92548
 H2336 H 0.08335 0.49723 0.89166
 C2337 C 0.09251 0.48991 0.68512
 C2338 C 0.08177 0.48644 0.70364
 C2339 C 0.09156 0.48795 0.72153
 C2340 C 0.11229 0.49344 0.72131
 C2341 C 0.12296 0.49603 0.70256
 C2342 C 0.11326 0.49454 0.68488
 C2343 C 0.08254 0.48872 0.66598
 N2344 N 0.09335 0.49293 0.64852
 N2345 N 0.08470 0.49220 0.63122
 C2346 C 0.06481 0.48720 0.63054
 N2347 N 0.05391 0.48291 0.64799
 N2348 N 0.06260 0.48366 0.66537
 C2349 C 0.05534 0.48685 0.61111
 C2350 C 0.03502 0.48070 0.60982
 C2351 C 0.02620 0.48088 0.59143
 C2352 C 0.03749 0.48732 0.57395
 C2353 C 0.05785 0.49326 0.57525
 C2354 C 0.06666 0.49299 0.59356
 H2355 H 0.06582 0.48242 0.70432
 H2356 H 0.08290 0.48442 0.73535
 H2357 H 0.13904 0.49942 0.70166
 H2358 H 0.12217 0.49700 0.67095
 H2359 H 0.02589 0.47583 0.62303
 H2360 H 0.01046 0.47623 0.59097
 H2361 H 0.06703 0.49824 0.56212
 H2362 H 0.08235 0.49781 0.59394
 C2363 C 0.59174 0.99885 0.18749
 C2364 C 0.61026 1.00921 0.18934
 C2365 C 0.61990 1.00865 0.20718
 C2366 C 0.61123 0.99806 0.22415
 C2367 C 0.59248 0.98770 0.22202
 C2368 C 0.58285 0.98825 0.20411
 C2369 C 0.58237 0.99833 0.16801
 N2370 N 0.56460 0.98805 0.16587
 N2371 N 0.55659 0.98714 0.14818
 C2372 C 0.56603 0.99640 0.13187
 N2373 N 0.58376 1.00672 0.13405
 N2374 N 0.59175 1.00765 0.15172
 C2375 C 0.55724 0.99534 0.11213
 C2376 C 0.56749 1.00442 0.09523
 C2377 C 0.55908 1.00383 0.07669
 C2378 C 0.54018 0.99416 0.07457
 C2379 C 0.53005 0.98483 0.09141
 C2380 C 0.53849 0.98540 0.10996
 H2381 H 0.61769 1.01741 0.17679
 H2382 H 0.63449 1.01623 0.20717
 H2383 H 0.58565 0.97810 0.23383
 H2384 H 0.56872 0.97978 0.20314
 H2385 H 0.58200 1.01215 0.09632
 H2386 H 0.56732 1.01119 0.06407
 H2387 H 0.51546 0.97724 0.09033
 H2388 H 0.53020 0.97820 0.12263
 C2389 C 0.40847 0.50846 0.19938
 C2390 C 0.41595 0.51874 0.21577
 C2391 C 0.40606 0.51662 0.23483
 C2392 C 0.38897 0.50347 0.23817
 C2393 C 0.38129 0.49392 0.22135
 C2394 C 0.39098 0.49614 0.20247
 C2395 C 0.41823 0.51059 0.17894
 N2396 N 0.40856 0.50324 0.16317
 N2397 N 0.41716 0.50442 0.14477
 C2398 C 0.43588 0.51299 0.14124
 N2399 N 0.44561 0.52050 0.15698
 N2400 N 0.43694 0.51937 0.17547
 C2401 C 0.44549 0.51337 0.12066
 C2402 C 0.46565 0.52012 0.11675
 C2403 C 0.47477 0.51926 0.09739
 C2404 C 0.46393 0.51164 0.08156
 C2405 C 0.44365 0.50537 0.08545
 C2406 C 0.43457 0.50623 0.10471
 H2407 H 0.42915 0.52876 0.21378
 H2408 H 0.41165 0.52544 0.24694
 H2409 H 0.36736 0.48493 0.22252
 H2410 H 0.38451 0.48824 0.19021
 H2411 H 0.47448 0.52573 0.12868
 H2412 H 0.49042 0.52426 0.09492
 H2413 H 0.43476 0.49954 0.07365
 H2414 H 0.41898 0.50102 0.10709
 C2415 C -0.09212 -0.00204 0.70350
 C2416 C -0.08288 0.00753 0.71929
 C2417 C -0.09268 0.00792 0.73838
 C2418 C -0.11207 -0.00140 0.74247
 C2419 C -0.12082 -0.01128 0.72633
 C2420 C -0.11100 -0.01178 0.70742
 C2421 C -0.08299 -0.00101 0.68274
 N2422 N -0.09306 -0.00925 0.66762
 N2423 N -0.08552 -0.00776 0.64882
 C2424 C -0.06757 0.00209 0.64424
 N2425 N -0.05738 0.01027 0.65935
 N2426 N -0.06496 0.00880 0.67822
 C2427 C -0.05939 0.00363 0.62318
 C2428 C -0.04007 0.01222 0.61823
 C2429 C -0.03221 0.01279 0.59838
 C2430 C -0.04351 0.00481 0.58303
 C2431 C -0.06303 -0.00327 0.58796
 C2432 C -0.07085 -0.00386 0.60776
 H2433 H -0.06838 0.01540 0.71676
 H2434 H -0.08551 0.01679 0.74957
 H2435 H -0.13567 -0.01827 0.72768
 H2436 H -0.11868 -0.01931 0.69564
 H2437 H -0.03087 0.01820 0.62972
 H2438 H -0.01711 0.01913 0.59513
 H2439 H -0.07221 -0.00952 0.57657
 H2440 H -0.08585 -0.01045 0.61096
 C2441 C -0.19556 0.90615 1.00174
 C2442 C -0.19720 0.88880 0.99022
 C2443 C -0.21576 0.87877 0.98865
 C2444 C -0.23352 0.88597 0.99820
 C2445 C -0.23150 0.90273 1.01079
 C2446 C -0.21287 0.91302 1.01210
 C2447 C -0.17569 0.91656 1.00309
 N2448 N -0.17404 0.93618 1.00827
 N2449 N -0.15600 0.94555 1.00879
 C2450 C -0.13892 0.93561 1.00427
 N2451 N -0.14061 0.91598 0.99926
 N2452 N -0.15861 0.90668 0.99862
 C2453 C -0.11883 0.94585 1.00451
 C2454 C -0.10158 0.93456 1.00539
 C2455 C -0.08251 0.94405 1.00532
 C2456 C -0.08024 0.96504 1.00408
 C2457 C -0.09746 0.97637 1.00310
 C2458 C -0.11661 0.96687 1.00347
 H2459 H -0.18407 0.88287 0.98236
 H2460 H -0.21597 0.86507 0.98014
 H2461 H -0.24437 0.90787 1.01967
 H2462 H -0.21193 0.92604 1.02159
 H2463 H -0.10280 0.91834 1.00626
 H2464 H -0.06951 0.93490 1.00602
 H2465 H -0.09617 0.99259 1.00224
 H2466 H -0.12963 0.97595 1.00267
 C2467 C 0.30538 0.40482 0.50068
 C2468 C 0.28801 0.41233 0.51040
 C2469 C 0.26924 0.40228 0.50902
 C2470 C 0.26720 0.38512 0.49698
 C2471 C 0.28499 0.37741 0.48798
 C2472 C 0.30363 0.38719 0.48962
 C2473 C 0.32546 0.41475 0.50226
 N2474 N 0.34225 0.40413 0.49882
 N2475 N 0.36047 0.41293 0.49945
 C2476 C 0.36272 0.43277 0.50341
 N2477 N 0.34593 0.44344 0.50695
 N2478 N 0.32764 0.43458 0.50645
 C2479 C 0.38311 0.44245 0.50333
 C2480 C 0.38605 0.46334 0.50125
 C2481 C 0.40551 0.47221 0.50017
 C2482 C 0.42236 0.46036 0.50144
 C2483 C 0.41935 0.43951 0.50386
 C2484 C 0.39997 0.43065 0.50467
 H2485 H 0.28903 0.42562 0.51952
 H2486 H 0.25635 0.40784 0.51755
 H2487 H 0.28470 0.36345 0.47989
 H2488 H 0.31677 0.38080 0.48222
 H2489 H 0.37336 0.47280 0.50009
 H2490 H 0.40735 0.48833 0.49843
 H2491 H 0.43200 0.42997 0.50485
 H2492 H 0.39820 0.41452 0.50636
 C2493 C 0.31330 0.59668 0.00595
 C2494 C 0.29460 0.58634 0.00988
 C2495 C 0.27654 0.59615 0.00823
 C2496 C 0.27676 0.61646 0.00214
 C2497 C 0.29565 0.62672 -0.00115
 C2498 C 0.31352 0.61699 0.00046
 C2499 C 0.33264 0.58676 0.00777
 N2500 N 0.35035 0.59730 0.00379
 N2501 N 0.36785 0.58869 0.00518
 C2502 C 0.36849 0.56915 0.01066
 N2503 N 0.35078 0.55855 0.01472
 N2504 N 0.33321 0.56718 0.01332
 C2505 C 0.38816 0.55965 0.01160
 C2506 C 0.38926 0.53951 0.01754
 C2507 C 0.40787 0.53050 0.01747
 C2508 C 0.42577 0.54142 0.01137
 C2509 C 0.42467 0.56168 0.00590
 C2510 C 0.40613 0.57067 0.00605
 H2511 H 0.29391 0.57075 0.01452
 H2512 H 0.26255 0.58791 0.01227
 H2513 H 0.29656 0.64254 -0.00495
 H2514 H 0.32757 0.62559 -0.00242
 H2515 H 0.37573 0.53061 0.02198
 H2516 H 0.40817 0.51486 0.02177
 H2517 H 0.43814 0.57059 0.00124
 H2518 H 0.40591 0.58624 0.00148
 C2519 C -0.19424 0.09425 0.50755
 C2520 C -0.21308 0.08440 0.51203
 C2521 C -0.23095 0.09441 0.50997
 C2522 C -0.23043 0.11438 0.50278
 C2523 C -0.21139 0.12426 0.49912
 C2524 C -0.19368 0.11434 0.50119
 C2525 C -0.17510 0.08400 0.50958
 N2526 N -0.15720 0.09413 0.50546
 N2527 N -0.13990 0.08515 0.50688
 C2528 C -0.13967 0.06560 0.51251
 N2529 N -0.15758 0.05542 0.51674
 N2530 N -0.17494 0.06444 0.51532
 C2531 C -0.12023 0.05564 0.51332
 C2532 C -0.11952 0.03542 0.51918
 C2533 C -0.10111 0.02597 0.51889
 C2534 C -0.08305 0.03653 0.51264
 C2535 C -0.08376 0.05685 0.50728
 C2536 C -0.10207 0.06628 0.50765
 H2537 H -0.21405 0.06904 0.51740
 H2538 H -0.24506 0.08658 0.51445
 H2539 H -0.21021 0.13990 0.49464
 H2540 H -0.17949 0.12259 0.49791
 H2541 H -0.13320 0.02680 0.52371
 H2542 H -0.10110 0.01029 0.52311
 H2543 H -0.07015 0.06550 0.50254
 H2544 H -0.10197 0.08189 0.50314
 C2545 C 0.69265 0.09468 0.49466
 C2546 C 0.71045 0.08742 0.48555
 C2547 C 0.72910 0.09735 0.48809
 C2548 C 0.73056 0.11432 0.50049
 C2549 C 0.71244 0.12177 0.50894
 C2550 C 0.69393 0.11201 0.50631
 C2551 C 0.67265 0.08483 0.49185
 N2552 N 0.65565 0.09413 0.49802
 N2553 N 0.63758 0.08542 0.49602
 C2554 C 0.63562 0.06698 0.48779
 N2555 N 0.65262 0.05764 0.48150
 N2556 N 0.67078 0.06641 0.48344
 C2557 C 0.61532 0.05720 0.48651
 C2558 C 0.61283 0.03712 0.48055
 C2559 C 0.59358 0.02772 0.48089
 C2560 C 0.57645 0.03820 0.48720
 C2561 C 0.57896 0.05846 0.49246
 C2562 C 0.59810 0.06781 0.49212
 H2563 H 0.70994 0.07436 0.47608
 H2564 H 0.74237 0.09190 0.48010
 H2565 H 0.71236 0.13556 0.51733
 H2566 H 0.68054 0.11829 0.51330
 H2567 H 0.62576 0.02853 0.47609
 H2568 H 0.59219 0.01210 0.47670
 H2569 H 0.56614 0.06709 0.49724
 H2570 H 0.59937 0.08334 0.49663
 C2571 C 0.19911 0.59752 0.99603
 C2572 C 0.21645 0.59066 0.98565
 C2573 C 0.23535 0.60016 0.98796
 C2574 C 0.23756 0.61633 1.00124
 C2575 C 0.21988 0.62324 1.01122
 C2576 C 0.20115 0.61386 1.00888
 C2577 C 0.17877 0.58845 0.99319
 N2578 N 0.16220 0.59745 1.00105
 N2579 N 0.14383 0.58953 0.99883
 C2580 C 0.14115 0.57224 0.98864
 N2581 N 0.15771 0.56320 0.98068
 N2582 N 0.17616 0.57118 0.98286
 C2583 C 0.12057 0.56326 0.98697
 C2584 C 0.11748 0.54411 0.97881
 C2585 C 0.09806 0.53523 0.97870
 C2586 C 0.08130 0.54533 0.98672
 C2587 C 0.08437 0.56476 0.99420
 C2588 C 0.10372 0.57359 0.99434
 H2589 H 0.21535 0.57832 0.97532
 H2590 H 0.24823 0.59514 0.97900
 H2591 H 0.22022 0.63647 1.02044
 H2592 H 0.18813 0.61980 1.01692
 H2593 H 0.13010 0.53576 0.97295
 H2594 H 0.09625 0.52026 0.97276
 H2595 H 0.07185 0.57305 1.00040
 H2596 H 0.10548 0.58843 1.00058
 C2597 C 0.19145 0.40487 0.49278
 C2598 C 0.21007 0.41521 0.48855
 C2599 C 0.22813 0.40530 0.48960
 C2600 C 0.22797 0.38501 0.49574
 C2601 C 0.20911 0.37472 0.49919
 C2602 C 0.19123 0.38447 0.49789
 C2603 C 0.17217 0.41492 0.49183
 N2604 N 0.15471 0.40378 0.49112
 N2605 N 0.13714 0.41249 0.49104
 C2606 C 0.13622 0.43274 0.49176
 N2607 N 0.15370 0.44396 0.49236
 N2608 N 0.17135 0.43522 0.49234
 C2609 C 0.11647 0.44214 0.49239
 C2610 C 0.11469 0.46245 0.49731
 C2611 C 0.09580 0.47091 0.49868
 C2612 C 0.07834 0.45928 0.49496
 C2613 C 0.08021 0.43905 0.48979
 C2614 C 0.09901 0.43058 0.48858
 H2615 H 0.21067 0.43084 0.48404
 H2616 H 0.24205 0.41351 0.48520
 H2617 H 0.20824 0.35891 0.50302
 H2618 H 0.17717 0.37596 0.50104
 H2619 H 0.12784 0.47173 0.50040
 H2620 H 0.09489 0.48657 0.50262
 H2621 H 0.06709 0.42964 0.48686
 H2622 H 0.09984 0.41490 0.48469
 C2623 C 0.69154 0.90720 -0.00633
 C2624 C 0.69077 0.88667 -0.00167
 C2625 C 0.70838 0.87642 -0.00041
 C2626 C 0.72746 0.88634 -0.00344
 C2627 C 0.72815 0.90675 -0.00925
 C2628 C 0.71040 0.91714 -0.01026
 C2629 C 0.67258 0.91785 -0.00716
 N2630 N 0.67236 0.93819 -0.00641
 N2631 N 0.65501 0.94748 -0.00640
 C2632 C 0.63725 0.93679 -0.00724
 N2633 N 0.63757 0.91651 -0.00816
 N2634 N 0.65484 0.90725 -0.00807
 C2635 C 0.61781 0.94676 -0.00678
 C2636 C 0.60020 0.93569 -0.01102
 C2637 C 0.58164 0.94459 -0.00997
 C2638 C 0.58012 0.96479 -0.00454
 C2639 C 0.59773 0.97598 -0.00042
 C2640 C 0.61642 0.96706 -0.00161
 H2641 H 0.67650 0.87845 0.00121
 H2642 H 0.70712 0.86055 0.00315
 H2643 H 0.74226 0.91473 -0.01339
 H2644 H 0.71142 0.93286 -0.01447
 H2645 H 0.60071 0.92004 -0.01512
 H2646 H 0.56841 0.93548 -0.01321
 H2647 H 0.59707 0.99160 0.00375
 H2648 H 0.62971 0.97598 0.00180
 C2649 C -0.01432 0.81271 0.91011
 C2650 C -0.00977 0.81240 0.88943
 C2651 C -0.00826 0.79434 0.87938
 C2652 C -0.01081 0.77578 0.88960
 C2653 C -0.01635 0.77608 0.91026
 C2654 C -0.01781 0.79435 0.92042
 C2655 C -0.01521 0.83225 0.92050
 N2656 N -0.01879 0.83335 0.94063
 N2657 N -0.01892 0.85110 0.94970
 C2658 C -0.01548 0.86843 0.93902
 N2659 N -0.01204 0.86725 0.91893
 N2660 N -0.01192 0.84959 0.90990
 C2661 C -0.01481 0.88826 0.94889
 C2662 C -0.00945 0.90568 0.93756
 C2663 C -0.00792 0.92435 0.94668
 C2664 C -0.01178 0.92616 0.96740
 C2665 C -0.01757 0.90882 0.97874
 C2666 C -0.01901 0.89005 0.96959
 H2667 H -0.00727 0.82617 0.88085
 H2668 H -0.00481 0.79481 0.86339
 H2669 H -0.01988 0.76237 0.91862
 H2670 H -0.02178 0.79407 0.93632
 H2671 H -0.00616 0.90493 0.92158
 H2672 H -0.00357 0.93737 0.93745
 H2673 H -0.02067 0.90969 0.99474
 H2674 H -0.02323 0.87695 0.97875
 C2675 C 0.48718 0.30486 0.40644
 C2676 C 0.49137 0.30425 0.38572
 C2677 C 0.49215 0.28604 0.37584
 C2678 C 0.48920 0.26763 0.38627
 C2679 C 0.48379 0.26826 0.40693
 C2680 C 0.48306 0.28667 0.41693
 C2681 C 0.48745 0.32451 0.41667
 N2682 N 0.48350 0.32597 0.43672
 N2683 N 0.48435 0.34378 0.44564
 C2684 C 0.48923 0.36084 0.43488
 N2685 N 0.49308 0.35932 0.41487
 N2686 N 0.49221 0.34159 0.40599
 C2687 C 0.49070 0.38073 0.44456
 C2688 C 0.49755 0.39777 0.43326
 C2689 C 0.49924 0.41655 0.44216
 C2690 C 0.49406 0.41885 0.46261
 C2691 C 0.48709 0.40184 0.47394
 C2692 C 0.48547 0.38298 0.46502
 H2693 H 0.49426 0.31788 0.37699
 H2694 H 0.49553 0.28629 0.35983
 H2695 H 0.47993 0.25470 0.41545
 H2696 H 0.47929 0.28666 0.43286
 H2697 H 0.50174 0.39664 0.41747
 H2698 H 0.50460 0.42928 0.43294
 H2699 H 0.48296 0.40307 0.48974
 H2700 H 0.48012 0.37018 0.47416
 C2701 C 0.00693 0.29780 0.58282
 C2702 C -0.01079 0.28599 0.58685
 C2703 C -0.01072 0.26887 0.59887
 C2704 C 0.00679 0.26369 0.60818
 C2705 C 0.02499 0.27429 0.60212
 C2706 C 0.02500 0.29128 0.58980
 C2707 C 0.00625 0.31736 0.57246
 N2708 N 0.02322 0.32656 0.56380
 N2709 N 0.02267 0.34476 0.55560
 C2710 C 0.00518 0.35456 0.55595
 N2711 N -0.01178 0.34532 0.56453
 N2712 N -0.01126 0.32708 0.57257
 C2713 C 0.00466 0.37509 0.54763
 C2714 C -0.01044 0.38793 0.55444
 C2715 C -0.01080 0.40746 0.54687
 C2716 C 0.00370 0.41439 0.53205
 C2717 C 0.01872 0.40150 0.52512
 C2718 C 0.01932 0.38210 0.53299
 H2719 H -0.02484 0.29021 0.58107
 H2720 H -0.02475 0.26027 0.60190
 H2721 H 0.03926 0.26982 0.60711
 H2722 H 0.03905 0.29971 0.58637
 H2723 H -0.02186 0.38298 0.56581
 H2724 H -0.02259 0.41705 0.55242
 H2725 H 0.03016 0.40649 0.51377
 H2726 H 0.03111 0.37252 0.52744
 C2727 C 0.51077 0.80339 0.08413
 C2728 C 0.49310 0.79145 0.08796
 C2729 C 0.49314 0.77431 0.09996
 C2730 C 0.51058 0.76923 0.10945
 C2731 C 0.52876 0.78000 0.10365
 C2732 C 0.52878 0.79701 0.09135
 C2733 C 0.51005 0.82292 0.07371
 N2734 N 0.52701 0.83223 0.06514
 N2735 N 0.52638 0.85037 0.05684
 C2736 C 0.50881 0.86003 0.05700
 N2737 N 0.49186 0.85068 0.06550
 N2738 N 0.49247 0.83249 0.07363
 C2739 C 0.50815 0.88052 0.04861
 C2740 C 0.49299 0.89327 0.05548
 C2741 C 0.49245 0.91276 0.04787
 C2742 C 0.50680 0.91975 0.03294
 C2743 C 0.52188 0.90696 0.02594
 C2744 C 0.52268 0.88759 0.03386
 H2745 H 0.47910 0.79556 0.08200
 H2746 H 0.47916 0.76560 0.10279
 H2747 H 0.54299 0.77561 0.10880
 H2748 H 0.54280 0.80556 0.08809
 H2749 H 0.48167 0.88827 0.06693
 H2750 H 0.48062 0.92227 0.05348
 H2751 H 0.53320 0.91201 0.01450
 H2752 H 0.53450 0.87807 0.02828
 C2753 C 0.50510 0.69769 0.08770
 C2754 C 0.48764 0.70524 0.09711
 C2755 C 0.48871 0.72266 0.10850
 C2756 C 0.50741 0.73280 0.11118
 C2757 C 0.52438 0.72642 0.09963
 C2758 C 0.52339 0.70878 0.08858
 C2759 C 0.50440 0.67798 0.07773
 N2760 N 0.52118 0.66713 0.07557
 N2761 N 0.52039 0.64885 0.06775
 C2762 C 0.50280 0.64069 0.06164
 N2763 N 0.48606 0.65163 0.06358
 N2764 N 0.48682 0.66986 0.07157
 C2765 C 0.50188 0.62018 0.05344
 C2766 C 0.48673 0.61419 0.04082
 C2767 C 0.48614 0.59487 0.03284
 C2768 C 0.50044 0.58104 0.03770
 C2769 C 0.51535 0.58691 0.05063
 C2770 C 0.51618 0.60634 0.05825
 H2771 H 0.47318 0.69736 0.09618
 H2772 H 0.47480 0.72800 0.11527
 H2773 H 0.53871 0.73467 0.09990
 H2774 H 0.53699 0.70372 0.08085
 H2775 H 0.47552 0.62455 0.03684
 H2776 H 0.47444 0.59071 0.02296
 H2777 H 0.52663 0.57660 0.05453
 H2778 H 0.52795 0.61048 0.06806
 C2779 C -0.00009 0.19233 0.58667
 C2780 C 0.01839 0.20313 0.58728
 C2781 C 0.01987 0.22071 0.59839
 C2782 C 0.00321 0.22730 0.61027
 C2783 C -0.01569 0.21743 0.60791
 C2784 C -0.01725 0.20008 0.59648
 C2785 C -0.00131 0.17272 0.57656
 N2786 N -0.01915 0.16493 0.57069
 N2787 N -0.02037 0.14675 0.56263
 C2788 C -0.00384 0.13554 0.56034
 N2789 N 0.01400 0.14337 0.56612
 N2790 N 0.01525 0.16161 0.57401
 C2791 C -0.00528 0.11500 0.55224
 C2792 C 0.00878 0.10092 0.55702
 C2793 C 0.00745 0.08143 0.54963
 C2794 C -0.00774 0.07571 0.53695
 C2795 C -0.02178 0.08980 0.53207
 C2796 C -0.02070 0.10921 0.53983
 H2797 H 0.03177 0.19792 0.57925
 H2798 H 0.03432 0.22878 0.59838
 H2799 H -0.02941 0.22295 0.61492
 H2800 H -0.03186 0.19243 0.59577
 H2801 H 0.02074 0.10490 0.56667
 H2802 H 0.01856 0.07094 0.55353
 H2803 H -0.03368 0.08576 0.52237
 H2804 H -0.03173 0.11977 0.53589
 C2805 C 0.49530 0.19078 0.40532
 C2806 C 0.48264 0.19244 0.38953
 C2807 C 0.48061 0.21079 0.38009
 C2808 C 0.49069 0.22848 0.38642
 C2809 C 0.50382 0.22659 0.40199
 C2810 C 0.50583 0.20809 0.41154
 C2811 C 0.49782 0.17083 0.41453
 N2812 N 0.50856 0.16874 0.43092
 N2813 N 0.51061 0.15067 0.43899
 C2814 C 0.50209 0.13395 0.43093
 N2815 N 0.49145 0.13610 0.41452
 N2816 N 0.48937 0.15411 0.40652
 C2817 C 0.50380 0.11380 0.43998
 C2818 C 0.49587 0.09667 0.43064
 C2819 C 0.49635 0.07776 0.43954
 C2820 C 0.50475 0.07543 0.45806
 C2821 C 0.51321 0.09247 0.46717
 C2822 C 0.51275 0.11144 0.45822
 H2823 H 0.47454 0.17940 0.38406
 H2824 H 0.47158 0.21077 0.36726
 H2825 H 0.51291 0.23939 0.40652
 H2826 H 0.51604 0.20726 0.42341
 H2827 H 0.48898 0.09787 0.41652
 H2828 H 0.48976 0.06500 0.43204
 H2829 H 0.51985 0.09124 0.48142
 H2830 H 0.51906 0.12429 0.46579
 C2831 C -0.00370 0.69897 0.90787
 C2832 C -0.01681 0.70067 0.89247
 C2833 C -0.01918 0.71906 0.88323
 C2834 C -0.00898 0.73674 0.88941
 C2835 C 0.00452 0.73484 0.90466
 C2836 C 0.00687 0.71629 0.91399
 C2837 C -0.00072 0.67896 0.91671
 N2838 N 0.01032 0.67679 0.93289
 N2839 N 0.01281 0.65865 0.94059
 C2840 C 0.00447 0.64194 0.93235
 N2841 N -0.00647 0.64417 0.91617
 N2842 N -0.00900 0.66225 0.90853
 C2843 C 0.00669 0.62169 0.94097
 C2844 C -0.00084 0.60462 0.93124
 C2845 C 0.00006 0.58556 0.93972
 C2846 C 0.00847 0.58304 0.95821
 C2847 C 0.01653 0.60004 0.96771
 C2848 C 0.01567 0.61915 0.95916
 H2849 H -0.02499 0.68763 0.88710
 H2850 H -0.02854 0.71905 0.87065
 H2851 H 0.01363 0.74767 0.90907
 H2852 H 0.01740 0.71545 0.92559
 H2853 H -0.00772 0.60595 0.91713
 H2854 H -0.00623 0.57285 0.93192
 H2855 H 0.02316 0.59865 0.98194
 H2856 H 0.02166 0.63197 0.96702
 C2857 C 0.25398 0.66090 0.94493
 C2858 C 0.26640 0.64457 0.94636
 C2859 C 0.26817 0.63493 0.96455
 C2860 C 0.25808 0.64158 0.98229
 C2861 C 0.24531 0.65781 0.98070
 C2862 C 0.24354 0.66754 0.96234
 C2863 C 0.25149 0.67011 0.92511
 N2864 N 0.24062 0.68671 0.92311
 N2865 N 0.23841 0.69462 0.90510
 C2866 C 0.24690 0.68618 0.88838
 N2867 N 0.25771 0.66961 0.89044
 N2868 N 0.25995 0.66176 0.90838
 C2869 C 0.24481 0.69486 0.86825
 C2870 C 0.25239 0.68485 0.85118
 C2871 C 0.25137 0.69322 0.83220
 C2872 C 0.24278 0.71188 0.82973
 C2873 C 0.23477 0.72172 0.84674
 C2874 C 0.23575 0.71329 0.86580
 H2875 H 0.27445 0.63879 0.93325
 H2876 H 0.27697 0.62168 0.96439
 H2877 H 0.23628 0.66267 0.99360
 H2878 H 0.23353 0.67986 0.96171
 H2879 H 0.25935 0.67057 0.85245
 H2880 H 0.25765 0.68517 0.81948
 H2881 H 0.22802 0.73610 0.84539
 H2882 H 0.22972 0.72137 0.87861
 C2883 C 0.74855 0.15884 0.44461
 C2884 C 0.76003 0.14183 0.44624
 C2885 C 0.76129 0.13223 0.46456
 C2886 C 0.75165 0.13957 0.48223
 C2887 C 0.73981 0.15648 0.48045
 C2888 C 0.73853 0.16616 0.46197
 C2889 C 0.74660 0.16810 0.42466
 N2890 N 0.73640 0.18512 0.42246
 N2891 N 0.73469 0.19309 0.40438
 C2892 C 0.74303 0.18433 0.38776
 N2893 N 0.75316 0.16733 0.39002
 N2894 N 0.75490 0.15941 0.40803
 C2895 C 0.74156 0.19316 0.36754
 C2896 C 0.74944 0.18318 0.35058
 C2897 C 0.74909 0.19174 0.33157
 C2898 C 0.74087 0.21056 0.32896
 C2899 C 0.73250 0.22034 0.34586
 C2900 C 0.73282 0.21173 0.36493
 H2901 H 0.76771 0.13550 0.43320
 H2902 H 0.76937 0.11851 0.46461
 H2903 H 0.73107 0.16193 0.49328
 H2904 H 0.72925 0.17904 0.46120
 H2905 H 0.75617 0.16879 0.35195
 H2906 H 0.75564 0.18371 0.31895
 H2907 H 0.72602 0.23485 0.34442
 H2908 H 0.72656 0.21980 0.37764
 C2909 C 0.24497 0.34019 0.44032
 C2910 C 0.23953 0.32997 0.45835
 C2911 C 0.23992 0.34004 0.47661
 C2912 C 0.24658 0.36039 0.47726
 C2913 C 0.25116 0.37057 0.45895
 C2914 C 0.25054 0.36065 0.44086
 C2915 C 0.24475 0.32996 0.42084
 N2916 N 0.24565 0.34095 0.40371
 N2917 N 0.24605 0.33208 0.38603
 C2918 C 0.24565 0.31180 0.38467
 N2919 N 0.24468 0.30072 0.40181
 N2920 N 0.24421 0.30963 0.41956
 C2921 C 0.24639 0.30222 0.36483
 C2922 C 0.24989 0.28170 0.36272
 C2923 C 0.25086 0.27295 0.34381
 C2924 C 0.24815 0.28453 0.32668
 C2925 C 0.24464 0.30503 0.32885
 C2926 C 0.24384 0.31377 0.34767
 H2927 H 0.23461 0.31430 0.45834
 H2928 H 0.23466 0.33190 0.49003
 H2929 H 0.25543 0.38642 0.45868
 H2930 H 0.25460 0.36909 0.42727
 H2931 H 0.25200 0.27242 0.37566
 H2932 H 0.25352 0.25710 0.34262
 H2933 H 0.24257 0.31441 0.31598
 H2934 H 0.24111 0.32961 0.34874
 C2935 C 0.74413 0.84086 0.94149
 C2936 C 0.73897 0.83067 0.95961
 C2937 C 0.73941 0.84083 0.97782
 C2938 C 0.74583 0.86125 0.97836
 C2939 C 0.75021 0.87138 0.95998
 C2940 C 0.74952 0.86137 0.94193
 C2941 C 0.74381 0.83053 0.92206
 N2942 N 0.74422 0.84142 0.90488
 N2943 N 0.74452 0.83245 0.88724
 C2944 C 0.74452 0.81218 0.88597
 N2945 N 0.74405 0.80121 0.90315
 N2946 N 0.74365 0.81021 0.92086
 C2947 C 0.74526 0.80246 0.86618
 C2948 C 0.74946 0.78208 0.86415
 C2949 C 0.75057 0.77323 0.84528
 C2950 C 0.74730 0.78452 0.82811
 C2951 C 0.74300 0.80485 0.83021
 C2952 C 0.74208 0.81372 0.84898
 H2953 H 0.73422 0.81495 0.95968
 H2954 H 0.73437 0.83267 0.99130
 H2955 H 0.75435 0.88725 0.95964
 H2956 H 0.75339 0.86978 0.92828
 H2957 H 0.75207 0.77302 0.87709
 H2958 H 0.75385 0.75750 0.84418
 H2959 H 0.74047 0.81401 0.81730
 H2960 H 0.73877 0.82944 0.85000
 C2961 C 0.74711 0.84207 0.05499
 C2962 C 0.73576 0.85908 0.05313
 C2963 C 0.73500 0.86870 0.03476
 C2964 C 0.74524 0.86141 0.01736
 C2965 C 0.75735 0.84476 0.01957
 C2966 C 0.75787 0.83491 0.03801
 C2967 C 0.74815 0.83251 0.07482
 N2968 N 0.75363 0.81325 0.07669
 N2969 N 0.75419 0.80478 0.09468
 C2970 C 0.74944 0.81529 0.11150
 N2971 N 0.74410 0.83456 0.10959
 N2972 N 0.74341 0.84296 0.09164
 C2973 C 0.74992 0.80605 0.13154
 C2974 C 0.75085 0.81821 0.14852
 C2975 C 0.75112 0.80964 0.16751
 C2976 C 0.75015 0.78870 0.17000
 C2977 C 0.74909 0.77652 0.15305
 C2978 C 0.74915 0.78511 0.13399
 H2979 H 0.72755 0.86520 0.06598
 H2980 H 0.72675 0.88230 0.03447
 H2981 H 0.76667 0.83951 0.00704
 H2982 H 0.76720 0.82211 0.03912
 H2983 H 0.75152 0.83440 0.14712
 H2984 H 0.75187 0.81942 0.18029
 H2985 H 0.74845 0.76033 0.15450
 H2986 H 0.74833 0.77536 0.12120
 C2987 C 0.24817 0.34077 0.55369
 C2988 C 0.23739 0.35821 0.55211
 C2989 C 0.23666 0.36798 0.53384
 C2990 C 0.24631 0.36042 0.51626
 C2991 C 0.25801 0.34344 0.51819
 C2992 C 0.25850 0.33343 0.53655
 C2993 C 0.24899 0.33092 0.57338
 N2994 N 0.25381 0.31143 0.57502
 N2995 N 0.25403 0.30268 0.59292
 C2996 C 0.24957 0.31312 0.60985
 N2997 N 0.24489 0.33261 0.60815
 N2998 N 0.24455 0.34130 0.59031
 C2999 C 0.24962 0.30361 0.62979
 C3000 C 0.25051 0.31558 0.64689
 C3001 C 0.25030 0.30681 0.66582
 C3002 C 0.24892 0.28586 0.66811
 C3003 C 0.24792 0.27385 0.65104
 C3004 C 0.24842 0.28264 0.63203
 H3005 H 0.22955 0.36449 0.56510
 H3006 H 0.22880 0.38183 0.53370
 H3007 H 0.26698 0.33799 0.50551
 H3008 H 0.26743 0.32031 0.53745
 H3009 H 0.25149 0.33179 0.64566
 H3010 H 0.25101 0.31647 0.67869
 H3011 H 0.24696 0.25765 0.65235
 H3012 H 0.24762 0.27304 0.61913
 C3013 C 0.75371 0.15780 0.55890
 C3014 C 0.74620 0.13792 0.55773
 C3015 C 0.74496 0.12856 0.53937
 C3016 C 0.75062 0.13882 0.52130
 C3017 C 0.75870 0.15865 0.52251
 C3018 C 0.76000 0.16809 0.54107
 C3019 C 0.75522 0.16723 0.57879
 N3020 N 0.76270 0.18634 0.58074
 N3021 N 0.76394 0.19449 0.59877
 C3022 C 0.75777 0.18386 0.61558
 N3023 N 0.75033 0.16479 0.61357
 N3024 N 0.74909 0.15668 0.59561
 C3025 C 0.75873 0.19277 0.63576
 C3026 C 0.75169 0.18156 0.65280
 C3027 C 0.75184 0.18996 0.67180
 C3028 C 0.75910 0.20980 0.67433
 C3029 C 0.76652 0.22093 0.65734
 C3030 C 0.76632 0.21252 0.63827
 H3031 H 0.74149 0.12933 0.57108
 H3032 H 0.73962 0.11301 0.53928
 H3033 H 0.76454 0.16677 0.50925
 H3034 H 0.76622 0.18332 0.54146
 H3035 H 0.74579 0.16629 0.65149
 H3036 H 0.74605 0.18090 0.68449
 H3037 H 0.77220 0.23627 0.65872
 H3038 H 0.77192 0.22156 0.62550
 C3039 C 0.26189 0.66022 0.05851
 C3040 C 0.25583 0.63988 0.05766
 C3041 C 0.25435 0.63038 0.03942
 C3042 C 0.25840 0.64088 0.02121
 C3043 C 0.26517 0.66119 0.02207
 C3044 C 0.26664 0.67079 0.04051
 C3045 C 0.26330 0.66989 0.07825
 N3046 N 0.26855 0.68969 0.07996
 N3047 N 0.26942 0.69809 0.09791
 C3048 C 0.26511 0.68701 0.11485
 N3049 N 0.25997 0.66726 0.11306
 N3050 N 0.25909 0.65890 0.09520
 C3051 C 0.26542 0.69613 0.13494
 C3052 C 0.25982 0.68437 0.15201
 C3053 C 0.25920 0.69282 0.17097
 C3054 C 0.26423 0.71327 0.17344
 C3055 C 0.27027 0.72500 0.15644
 C3056 C 0.27081 0.71653 0.13737
 H3057 H 0.25229 0.63110 0.07114
 H3058 H 0.24997 0.61456 0.03951
 H3059 H 0.26980 0.66961 0.00863
 H3060 H 0.27176 0.68640 0.04067
 H3061 H 0.25563 0.66860 0.15077
 H3062 H 0.25460 0.68328 0.18370
 H3063 H 0.27423 0.74082 0.15782
 H3064 H 0.27525 0.72600 0.12455
 C3065 C 0.15727 0.55268 0.74472
 C3066 C 0.16311 0.53588 0.75530
 C3067 C 0.15305 0.51716 0.75339
 C3068 C 0.13734 0.51454 0.74032
 C3069 C 0.13139 0.53174 0.73022
 C3070 C 0.14134 0.55029 0.73214
 C3071 C 0.16693 0.57288 0.74714
 N3072 N 0.15905 0.58911 0.73877
 N3073 N 0.16734 0.60738 0.74083
 C3074 C 0.18393 0.61031 0.75135
 N3075 N 0.19191 0.59409 0.75975
 N3076 N 0.18355 0.57574 0.75772
 C3077 C 0.19304 0.63082 0.75325
 C3078 C 0.21163 0.63414 0.76176
 C3079 C 0.22036 0.65356 0.76269
 C3080 C 0.21062 0.67006 0.75519
 C3081 C 0.19185 0.66671 0.74706
 C3082 C 0.18321 0.64738 0.74608
 H3083 H 0.17508 0.53729 0.76545
 H3084 H 0.15731 0.50475 0.76244
 H3085 H 0.11848 0.53125 0.72122
 H3086 H 0.13614 0.56293 0.72401
 H3087 H 0.21959 0.62172 0.76744
 H3088 H 0.23482 0.65561 0.76909
 H3089 H 0.18386 0.67901 0.74117
 H3090 H 0.16882 0.64545 0.73954
 C3091 C 0.65651 0.05361 0.24969
 C3092 C 0.63676 0.05037 0.25777
 C3093 C 0.62656 0.03192 0.25584
 C3094 C 0.63576 0.01559 0.24612
 C3095 C 0.65551 0.01938 0.23733
 C3096 C 0.66583 0.03791 0.23943
 C3097 C 0.66670 0.07364 0.25133
 N3098 N 0.68693 0.07643 0.24767
 N3099 N 0.69581 0.09461 0.24915
 C3100 C 0.68480 0.11072 0.25424
 N3101 N 0.66462 0.10788 0.25787
 N3102 N 0.65578 0.08974 0.25650
 C3103 C 0.69437 0.13108 0.25540
 C3104 C 0.68253 0.14800 0.25502
 C3105 C 0.69142 0.16729 0.25545
 C3106 C 0.71233 0.17013 0.25657
 C3107 C 0.72415 0.15322 0.25744
 C3108 C 0.71527 0.13388 0.25670
 H3109 H 0.62895 0.06223 0.26551
 H3110 H 0.61122 0.03102 0.26185
 H3111 H 0.66284 0.00831 0.22807
 H3112 H 0.68088 0.04014 0.23245
 H3113 H 0.66638 0.14638 0.25400
 H3114 H 0.68190 0.18002 0.25485
 H3115 H 0.74032 0.15495 0.25821
 H3116 H 0.72477 0.12113 0.25713
 C3117 C 0.84292 0.05785 0.75698
 C3118 C 0.86242 0.05605 0.74831
 C3119 C 0.87238 0.03825 0.74994
 C3120 C 0.86317 0.02120 0.75996
 C3121 C 0.84377 0.02360 0.76943
 C3122 C 0.83367 0.04144 0.76759
 C3123 C 0.83288 0.07713 0.75553
 N3124 N 0.81269 0.07827 0.75939
 N3125 N 0.80388 0.09577 0.75803
 C3126 C 0.81494 0.11282 0.75287
 N3127 N 0.83510 0.11163 0.74905
 N3128 N 0.84386 0.09417 0.75029
 C3129 C 0.80544 0.13240 0.75171
 C3130 C 0.81732 0.15029 0.75215
 C3131 C 0.80851 0.16886 0.75145
 C3132 C 0.78765 0.17000 0.75000
 C3133 C 0.77577 0.15214 0.74920
 C3134 C 0.78456 0.13351 0.75022
 H3135 H 0.87018 0.06854 0.74030
 H3136 H 0.88755 0.03838 0.74346
 H3137 H 0.83655 0.01198 0.77900
 H3138 H 0.81887 0.04258 0.77505
 H3139 H 0.83344 0.14997 0.75334
 H3140 H 0.81809 0.18235 0.75199
 H3141 H 0.75963 0.15257 0.74817
 H3142 H 0.77503 0.11998 0.74975
 C3143 C 0.34513 0.55859 0.25493
 C3144 C 0.36219 0.55725 0.26598
 C3145 C 0.37180 0.53926 0.26745
 C3146 C 0.36436 0.52156 0.25850
 C3147 C 0.34769 0.52320 0.24667
 C3148 C 0.33798 0.54136 0.24520
 C3149 C 0.33552 0.57816 0.25330
 N3150 N 0.31856 0.58010 0.24332
 N3151 N 0.31020 0.59786 0.24207
 C3152 C 0.31847 0.61438 0.25070
 N3153 N 0.33540 0.61237 0.26062
 N3154 N 0.34372 0.59468 0.26189
 C3155 C 0.30930 0.63421 0.24962
 C3156 C 0.31865 0.65112 0.25809
 C3157 C 0.30999 0.66978 0.25762
 C3158 C 0.29170 0.67207 0.24869
 C3159 C 0.28241 0.65521 0.24000
 C3160 C 0.29112 0.63649 0.24045
 H3161 H 0.36849 0.57026 0.27332
 H3162 H 0.38549 0.53951 0.27531
 H3163 H 0.34231 0.51047 0.23830
 H3164 H 0.32514 0.54199 0.23614
 H3165 H 0.33270 0.64999 0.26522
 H3166 H 0.31761 0.68239 0.26443
 H3167 H 0.26832 0.65642 0.23296
 H3168 H 0.28352 0.62380 0.23377
 C3169 C 0.34376 0.44399 0.26374
 C3170 C 0.33342 0.46153 0.26822
 C3171 C 0.34355 0.48044 0.26686
 C3172 C 0.36414 0.48225 0.26039
 C3173 C 0.37444 0.46443 0.25697
 C3174 C 0.36446 0.44574 0.25841
 C3175 C 0.33341 0.42384 0.26430
 N3176 N 0.34413 0.40736 0.26011
 N3177 N 0.33512 0.38922 0.25981
 C3178 C 0.31494 0.38668 0.26370
 N3179 N 0.30415 0.40313 0.26805
 N3180 N 0.31320 0.42136 0.26834
 C3181 C 0.30507 0.36640 0.26257
 C3182 C 0.28432 0.36319 0.26726
 C3183 C 0.27513 0.34408 0.26551
 C3184 C 0.28648 0.32779 0.25893
 C3185 C 0.30727 0.33100 0.25449
 C3186 C 0.31644 0.35002 0.25633
 H3187 H 0.31754 0.46065 0.27285
 H3188 H 0.33523 0.49346 0.27111
 H3189 H 0.39044 0.46503 0.25282
 H3190 H 0.37308 0.43263 0.25517
 H3191 H 0.27513 0.37545 0.27216
 H3192 H 0.25908 0.34214 0.26908
 H3193 H 0.31651 0.31881 0.24949
 H3194 H 0.33246 0.35189 0.25261
 C3195 C 0.83929 0.94485 0.76973
 C3196 C 0.83132 0.96138 0.76053
 C3197 C 0.84229 0.97974 0.75884
 C3198 C 0.86145 0.98245 0.76680
 C3199 C 0.86897 0.96556 0.77627
 C3200 C 0.85808 0.94728 0.77784
 C3201 C 0.82898 0.92475 0.76961
 N3202 N 0.83921 0.90814 0.77350
 N3203 N 0.83049 0.88992 0.77238
 C3204 C 0.81112 0.88749 0.76740
 N3205 N 0.80076 0.90409 0.76372
 N3206 N 0.80954 0.92236 0.76473
 C3207 C 0.80181 0.86713 0.76542
 C3208 C 0.78081 0.86412 0.76526
 C3209 C 0.77219 0.84485 0.76307
 C3210 C 0.78441 0.82825 0.76068
 C3211 C 0.80539 0.83128 0.76086
 C3212 C 0.81398 0.85047 0.76335
 H3213 H 0.81704 0.95990 0.75371
 H3214 H 0.83620 0.99137 0.75003
 H3215 H 0.88365 0.96585 0.78208
 H3216 H 0.86475 0.93481 0.78498
 H3217 H 0.77104 0.87664 0.76689
 H3218 H 0.75596 0.84298 0.76295
 H3219 H 0.81520 0.81878 0.75919
 H3220 H 0.83021 0.85228 0.76334
 C3221 C 0.65894 0.94122 0.23657
 C3222 C 0.64041 0.94241 0.22800
 C3223 C 0.62958 0.95979 0.22956
 C3224 C 0.63689 0.97699 0.23953
 C3225 C 0.65562 0.97543 0.24828
 C3226 C 0.66656 0.95800 0.24656
 C3227 C 0.66944 0.92208 0.23604
 N3228 N 0.68902 0.92130 0.24048
 N3229 N 0.69809 0.90386 0.24048
 C3230 C 0.68790 0.88650 0.23616
 N3231 N 0.66837 0.88733 0.23169
 N3232 N 0.65936 0.90473 0.23157
 C3233 C 0.69759 0.86697 0.23686
 C3234 C 0.68571 0.84905 0.23858
 C3235 C 0.69467 0.83059 0.23993
 C3236 C 0.71572 0.82960 0.23928
 C3237 C 0.72764 0.84747 0.23712
 C3238 C 0.71866 0.86599 0.23610
 H3239 H 0.63399 0.92969 0.22030
 H3240 H 0.61517 0.95914 0.22320
 H3241 H 0.66145 0.98730 0.25748
 H3242 H 0.68061 0.95740 0.25378
 H3243 H 0.66944 0.84928 0.23926
 H3244 H 0.68509 0.81707 0.24146
 H3245 H 0.74391 0.84717 0.23663
 H3246 H 0.72820 0.87954 0.23468
 C3247 C 0.15651 0.43868 0.73471
 C3248 C 0.16724 0.45710 0.73111
 C3249 C 0.15740 0.47525 0.73274
 C3250 C 0.13666 0.47542 0.73856
 C3251 C 0.12599 0.45679 0.74124
 C3252 C 0.13573 0.43881 0.73956
 C3253 C 0.16660 0.41929 0.73360
 N3254 N 0.15564 0.40186 0.73700
 N3255 N 0.16444 0.38434 0.73666
 C3256 C 0.18462 0.38343 0.73289
 N3257 N 0.19565 0.40085 0.72933
 N3258 N 0.18682 0.41844 0.72967
 C3259 C 0.19426 0.36382 0.73334
 C3260 C 0.21506 0.36234 0.72892
 C3261 C 0.22405 0.34383 0.73022
 C3262 C 0.21244 0.32644 0.73610
 C3263 C 0.19160 0.32790 0.74016
 C3264 C 0.18264 0.34632 0.73876
 H3265 H 0.18322 0.45749 0.72690
 H3266 H 0.16607 0.48898 0.72909
 H3267 H 0.10990 0.45618 0.74489
 H3268 H 0.12684 0.42498 0.74215
 H3269 H 0.22444 0.37550 0.72463
 H3270 H 0.24014 0.34322 0.72696
 H3271 H 0.18216 0.31481 0.74457
 H3272 H 0.16657 0.34684 0.74222
 C3273 C 0.04950 0.75271 0.84431
 C3274 C 0.03275 0.74127 0.83836
 C3275 C 0.01376 0.74297 0.84837
 C3276 C 0.01083 0.75664 0.86419
 C3277 C 0.02795 0.76772 0.87016
 C3278 C 0.04677 0.76601 0.86025
 C3279 C 0.06998 0.75046 0.83476
 N3280 N 0.08613 0.75970 0.84272
 N3281 N 0.10464 0.75779 0.83451
 C3282 C 0.10788 0.74655 0.81794
 N3283 N 0.09175 0.73727 0.80990
 N3284 N 0.07317 0.73915 0.81817
 C3285 C 0.12863 0.74488 0.80882
 C3286 C 0.13221 0.73559 0.79027
 C3287 C 0.15181 0.73500 0.78144
 C3288 C 0.16824 0.74362 0.79102
 C3289 C 0.16464 0.75246 0.80978
 C3290 C 0.14512 0.75310 0.81854
 H3291 H 0.03439 0.73060 0.82635
 H3292 H 0.00139 0.73326 0.84402
 H3293 H 0.02720 0.77732 0.88308
 H3294 H 0.05934 0.77486 0.86551
 H3295 H 0.11986 0.72907 0.78239
 H3296 H 0.15402 0.72803 0.76698
 H3297 H 0.17688 0.75922 0.81764
 H3298 H 0.14298 0.76026 0.83291
 C3299 C 0.54988 0.24414 0.34210
 C3300 C 0.53314 0.23305 0.33559
 C3301 C 0.51400 0.23478 0.34531
 C3302 C 0.51093 0.24818 0.36134
 C3303 C 0.52805 0.25885 0.36788
 C3304 C 0.54699 0.25708 0.35830
 C3305 C 0.57051 0.24199 0.33288
 N3306 N 0.58654 0.25024 0.34187
 N3307 N 0.60517 0.24873 0.33385
 C3308 C 0.60868 0.23888 0.31645
 N3309 N 0.59267 0.23051 0.30740
 N3310 N 0.57396 0.23198 0.31549
 C3311 C 0.62956 0.23799 0.30745
 C3312 C 0.63351 0.23036 0.28818
 C3313 C 0.65320 0.23090 0.27943
 C3314 C 0.66934 0.23905 0.28978
 C3315 C 0.66540 0.24607 0.30926
 C3316 C 0.64580 0.24557 0.31796
 H3317 H 0.53493 0.22263 0.32337
 H3318 H 0.50163 0.22531 0.34056
 H3319 H 0.52718 0.26818 0.38099
 H3320 H 0.55952 0.26567 0.36398
 H3321 H 0.62137 0.22438 0.27969
 H3322 H 0.65569 0.22529 0.26441
 H3323 H 0.67742 0.25235 0.31775
 H3324 H 0.64339 0.25143 0.33289
 C3325 C 0.56253 0.75182 0.16002
 C3326 C 0.55495 0.73379 0.15217
 C3327 C 0.53761 0.73338 0.14152
 C3328 C 0.52784 0.75120 0.13748
 C3329 C 0.53438 0.76881 0.14717
 C3330 C 0.55165 0.76920 0.15801
 C3331 C 0.58194 0.75247 0.16971
 N3332 N 0.58771 0.76853 0.18066
 N3333 N 0.60552 0.76929 0.18871
 C3334 C 0.61837 0.75412 0.18599
 N3335 N 0.61257 0.73807 0.17506
 N3336 N 0.59474 0.73726 0.16712
 C3337 C 0.63834 0.75500 0.19459
 C3338 C 0.65334 0.74208 0.18768
 C3339 C 0.67211 0.74264 0.19588
 C3340 C 0.67626 0.75595 0.21138
 C3341 C 0.66131 0.76897 0.21824
 C3342 C 0.64260 0.76860 0.20983
 H3343 H 0.56247 0.71992 0.15422
 H3344 H 0.53205 0.71898 0.13641
 H3345 H 0.52647 0.78253 0.14573
 H3346 H 0.55675 0.78325 0.16435
 H3347 H 0.65060 0.73152 0.17587
 H3348 H 0.68326 0.73236 0.19031
 H3349 H 0.66408 0.77946 0.23011
 H3350 H 0.63137 0.77874 0.21549
 C3351 C 0.05963 0.24677 0.65771
 C3352 C 0.05205 0.22868 0.65000
 C3353 C 0.03439 0.22809 0.63978
 C3354 C 0.02433 0.24581 0.63605
 C3355 C 0.03095 0.26346 0.64562
 C3356 C 0.04849 0.26402 0.65602
 C3357 C 0.07928 0.24768 0.66697
 N3358 N 0.08501 0.26382 0.67782
 N3359 N 0.10297 0.26486 0.68555
 C3360 C 0.11603 0.24990 0.68260
 N3361 N 0.11028 0.23377 0.67176
 N3362 N 0.09229 0.23267 0.66413
 C3363 C 0.13609 0.25108 0.69103
 C3364 C 0.15121 0.23823 0.68425
 C3365 C 0.17000 0.23905 0.69246
 C3366 C 0.17401 0.25255 0.70784
 C3367 C 0.15897 0.26555 0.71449
 C3368 C 0.14027 0.26492 0.70609
 H3369 H 0.05979 0.21490 0.65181
 H3370 H 0.02885 0.21365 0.63476
 H3371 H 0.02289 0.27712 0.64436
 H3372 H 0.05360 0.27811 0.66227
 H3373 H 0.14853 0.22749 0.67258
 H3374 H 0.18123 0.22878 0.68706
 H3375 H 0.16162 0.27620 0.72625
 H3376 H 0.12897 0.27503 0.71165
 C3377 C 0.95260 0.24926 0.66523
 C3378 C 0.96345 0.23167 0.66372
 C3379 C 0.98103 0.23111 0.65121
 C3380 C 0.98777 0.24787 0.63928
 C3381 C 0.97835 0.26614 0.64312
 C3382 C 0.96077 0.26670 0.65551
 C3383 C 0.93235 0.24924 0.67572
 N3384 N 0.91993 0.26441 0.67260
 N3385 N 0.90115 0.26385 0.68072
 C3386 C 0.89399 0.24811 0.69236
 N3387 N 0.90647 0.23302 0.69570
 N3388 N 0.92524 0.23352 0.68748
 C3389 C 0.87286 0.24726 0.70077
 C3390 C 0.86662 0.23399 0.71651
 C3391 C 0.84668 0.23336 0.72446
 C3392 C 0.83249 0.24577 0.71665
 C3393 C 0.83867 0.25883 0.70073
 C3394 C 0.85866 0.25966 0.69298
 H3395 H 0.95792 0.21810 0.67153
 H3396 H 0.98874 0.21718 0.64990
 H3397 H 0.98414 0.28005 0.63618
 H3398 H 0.95332 0.28076 0.65712
 H3399 H 0.87720 0.22425 0.72284
 H3400 H 0.84236 0.22307 0.73668
 H3401 H 0.82813 0.26864 0.69445
 H3402 H 0.86295 0.26996 0.68076
 C3403 C 0.45599 0.75380 0.16604
 C3404 C 0.46696 0.73631 0.16436
 C3405 C 0.48458 0.73600 0.15188
 C3406 C 0.49128 0.75293 0.14018
 C3407 C 0.48166 0.77108 0.14413
 C3408 C 0.46403 0.77139 0.15648
 C3409 C 0.43576 0.75355 0.17660
 N3410 N 0.42325 0.76871 0.17375
 N3411 N 0.40450 0.76795 0.18193
 C3412 C 0.39745 0.75202 0.19336
 N3413 N 0.41002 0.73694 0.19644
 N3414 N 0.42877 0.73765 0.18816
 C3415 C 0.37632 0.75092 0.20177
 C3416 C 0.37012 0.73733 0.21724
 C3417 C 0.35014 0.73640 0.22511
 C3418 C 0.33588 0.74883 0.21746
 C3419 C 0.34205 0.76226 0.20185
 C3420 C 0.36206 0.76339 0.19418
 H3421 H 0.46153 0.72263 0.17202
 H3422 H 0.49241 0.72214 0.15048
 H3423 H 0.48738 0.78509 0.13736
 H3424 H 0.45647 0.78538 0.15821
 H3425 H 0.38074 0.72753 0.22341
 H3426 H 0.34584 0.72585 0.23711
 H3427 H 0.33146 0.77212 0.19570
 H3428 H 0.36631 0.77394 0.18218
 C3429 C 0.43509 0.25157 0.34255
 C3430 C 0.45380 0.25539 0.33197
 C3431 C 0.47183 0.25409 0.34157
 C3432 C 0.47159 0.24854 0.36192
 C3433 C 0.45267 0.24545 0.37244
 C3434 C 0.43482 0.24666 0.36291
 C3435 C 0.41579 0.25286 0.33278
 N3436 N 0.39808 0.24808 0.34321
 N3437 N 0.38063 0.24912 0.33472
 C3438 C 0.38008 0.25503 0.31539
 N3439 N 0.39779 0.25987 0.30490
 N3440 N 0.41529 0.25880 0.31341
 C3441 C 0.36053 0.25581 0.30600
 C3442 C 0.35958 0.26286 0.28633
 C3443 C 0.34116 0.26296 0.27740
 C3444 C 0.32326 0.25592 0.28791
 C3445 C 0.32419 0.24918 0.30770
 C3446 C 0.34257 0.24916 0.31663
 H3447 H 0.45452 0.25959 0.31633
 H3448 H 0.48580 0.25797 0.33308
 H3449 H 0.45175 0.24202 0.38827
 H3450 H 0.42075 0.24393 0.37168
 H3451 H 0.37309 0.26816 0.27773
 H3452 H 0.34102 0.26825 0.26213
 H3453 H 0.31073 0.24371 0.31628
 H3454 H 0.34270 0.24367 0.33184
 C3455 C 0.93500 0.75917 0.84583
 C3456 C 0.95364 0.76319 0.83521
 C3457 C 0.97171 0.76223 0.84479
 C3458 C 0.97157 0.75679 0.86517
 C3459 C 0.95270 0.75361 0.87575
 C3460 C 0.93480 0.75452 0.86624
 C3461 C 0.91570 0.75988 0.83598
 N3462 N 0.89804 0.75490 0.84642
 N3463 N 0.88062 0.75525 0.83779
 C3464 C 0.88005 0.76064 0.81831
 N3465 N 0.89771 0.76569 0.80783
 N3466 N 0.91518 0.76532 0.81648
 C3467 C 0.86058 0.76052 0.80872
 C3468 C 0.85960 0.76709 0.78889
 C3469 C 0.84128 0.76627 0.77974
 C3470 C 0.82354 0.75875 0.79019
 C3471 C 0.82448 0.75251 0.81013
 C3472 C 0.84275 0.75342 0.81929
 H3473 H 0.95430 0.76722 0.81953
 H3474 H 0.98561 0.76620 0.83625
 H3475 H 0.95185 0.75026 0.89161
 H3476 H 0.92077 0.75166 0.87504
 H3477 H 0.87301 0.77272 0.78034
 H3478 H 0.84113 0.77121 0.76436
 H3479 H 0.81112 0.74671 0.81866
 H3480 H 0.84290 0.74827 0.83461
   
