data_POSCAR
  _audit_creation_date              2014-09-24
  _audit_creation_method            'ToBaCCo'
  _symmetry_space_group_name_H-M    'P1'
  _symmetry_Int_Tables_number       1
  _symmetry_cell_setting            triclinic
  loop_
  _symmetry_equiv_pos_as_xyz
 x,y,z
_cell_length_a 55.4923
_cell_length_b 55.5292
_cell_length_c 55.4561
_cell_angle_alpha 89.821900
_cell_angle_beta 90.156800
_cell_angle_gamma 89.854100
loop_
  _atom_site_label
  _atom_site_type_symbol
  _atom_site_fract_x
  _atom_site_fract_y
  _atom_site_fract_z
C1 C 0.24319 0.97052 0.00278
 C2 C 0.25038 0.97033 -0.02179
 C3 C 0.25487 0.99279 -0.03306
 C4 C 0.25136 1.01512 -0.02144
 C5 C 0.24495 1.01480 0.00329
 C6 C 0.24054 0.99267 0.01464
 H7 H 0.23638 0.99260 0.03375
 H8 H 0.25980 0.99298 -0.05191
 C9 C 0.74088 0.47197 0.50479
 C10 C 0.74724 0.47235 0.48008
 C11 C 0.75140 0.49480 0.46895
 C12 C 0.74967 0.51670 0.48152
 C13 C 0.74395 0.51614 0.50634
 C14 C 0.73923 0.49385 0.51732
 H15 H 0.73545 0.49339 0.53649
 H16 H 0.75525 0.49534 0.44981
 C17 C 0.73480 0.98230 0.96939
 C18 C 0.72623 1.00643 0.96923
 C19 C 0.72186 1.01747 0.99172
 C20 C 0.72761 1.00658 1.01402
 C21 C 0.73581 0.98235 1.01386
 C22 C 0.73924 0.97079 0.99160
 H23 H 0.74479 0.95204 0.99151
 H24 H 0.71565 1.03594 0.99187
 C25 C 0.23926 0.50574 0.46772
 C26 C 0.24748 0.48158 0.46802
 C27 C 0.24984 0.46976 0.49042
 C28 C 0.24460 0.48117 0.51240
 C29 C 0.23701 0.50550 0.51202
 C30 C 0.23402 0.51710 0.48970
 H31 H 0.22882 0.53594 0.48952
 H32 H 0.25514 0.45096 0.49072
 C33 C 0.96816 0.23845 0.01476
 C34 C 0.96833 0.22927 -0.00913
 C35 C 0.99088 0.22448 -0.01989
 C36 C 1.01297 0.23133 -0.00935
 C37 C 1.01264 0.23981 0.01476
 C38 C 0.99033 0.24328 0.02621
 H39 H 0.99030 0.24896 0.04489
 H40 H 0.99116 0.21767 -0.03814
 C41 C 0.47493 0.74398 0.52507
 C42 C 0.47364 0.74488 0.49962
 C43 C 0.49487 0.74784 0.48629
 C44 C 0.51765 0.74890 0.49722
 C45 C 0.51930 0.74619 0.52252
 C46 C 0.49792 0.74421 0.53595
 H47 H 0.49932 0.74277 0.55539
 H48 H 0.49358 0.74902 0.46679
 C49 C 0.00939 0.75239 -0.00968
 C50 C -0.01527 0.75999 -0.01074
 C51 C -0.02635 0.76762 0.01092
 C52 C -0.01450 0.76724 0.03334
 C53 C 0.00972 0.75979 0.03413
 C54 C 0.02093 0.75190 0.01304
 H55 H 0.03982 0.74696 0.01439
 H56 H -0.04521 0.77266 0.01072
 C57 C 0.50423 0.26211 0.48233
 C58 C 0.47939 0.25655 0.48195
 C59 C 0.46710 0.25441 0.50401
 C60 C 0.47859 0.25790 0.52643
 C61 C 0.50328 0.26423 0.52661
 C62 C 0.51549 0.26642 0.50457
 H63 H 0.53468 0.27008 0.50484
 H64 H 0.44796 0.25061 0.50366
 C65 C 0.98593 -0.00665 0.23230
 C66 C 0.98657 0.01756 0.24031
 C67 C 1.00899 0.02869 0.24379
 C68 C 1.03098 0.01684 0.23930
 C69 C 1.03056 -0.00710 0.23033
 C70 C 1.00786 -0.01763 0.22568
 H71 H 1.00733 -0.03595 0.21913
 H72 H 1.00928 0.04743 0.24923
 C73 C 0.48611 0.49253 0.76148
 C74 C 0.48541 0.51688 0.75399
 C75 C 0.50724 0.52876 0.74921
 C76 C 0.52982 0.51734 0.75186
 C77 C 0.53039 0.49304 0.75969
 C78 C 0.50855 0.48126 0.76458
 H79 H 0.50896 0.46238 0.76960
 H80 H 0.50662 0.54760 0.74408
 C81 C 1.01776 1.02778 0.75819
 C82 C 0.99321 1.02679 0.76554
 C83 C 0.98316 1.00389 0.77023
 C84 C 0.99570 0.98236 0.76621
 C85 C 1.02005 0.98337 0.75902
 C86 C 1.03059 1.00603 0.75515
 H87 H 1.04953 1.00679 0.75045
 H88 H 0.96435 1.00244 0.77519
 C89 C 0.52034 0.48360 0.24660
 C90 C 0.49493 0.48533 0.24623
 C91 C 0.48427 0.50825 0.24570
 C92 C 0.49788 0.52950 0.24636
 C93 C 0.52321 0.52789 0.24878
 C94 C 0.53394 0.50486 0.24832
 H95 H 0.55340 0.50337 0.24925
 H96 H 0.46479 0.50965 0.24451
 O97 O 0.26278 0.18888 0.19959
 O98 O 0.29029 0.18287 0.23268
 O99 O 0.20007 0.21793 0.23398
 O100 O 0.19287 0.24754 0.25894
 O101 O 0.22835 0.25001 0.16968
 O102 O 0.26254 0.27767 0.16224
 O103 O 0.26417 0.28639 0.29366
 O104 O 0.23542 0.25452 0.30064
 O105 O 0.32514 0.25387 0.26510
 O106 O 0.33246 0.22576 0.23142
 O107 O 0.29481 0.31464 0.23263
 O108 O 0.26586 0.32033 0.20373
 O109 O 0.26243 0.31472 0.26396
 O110 O 0.23202 0.31770 0.23114
 O111 O 0.32397 0.28571 0.23144
 O112 O 0.33194 0.25084 0.20510
 O113 O 0.29633 0.25339 0.29420
 O114 O 0.26672 0.22693 0.30265
 O115 O 0.26344 0.21746 0.17010
 O116 O 0.28846 0.25113 0.16214
 O117 O 0.19981 0.25126 0.19908
 O118 O 0.19594 0.28087 0.23188
 O119 O 0.22966 0.18939 0.23310
 O120 O 0.26476 0.18243 0.25958
 Zr121 Zr 0.26222 0.20868 0.23191
 O122 O 0.28453 0.22984 0.25404
 Zr123 Zr 0.21938 0.25055 0.23166
 O124 O 0.24011 0.27351 0.25367
 Zr125 Zr 0.26132 0.25025 0.18879
 O126 O 0.28362 0.27314 0.20908
 Zr127 Zr 0.26369 0.25324 0.27515
 O128 O 0.24104 0.22980 0.25527
 Zr129 Zr 0.30549 0.25276 0.23247
 O130 O 0.28513 0.22953 0.21008
 Zr131 Zr 0.26263 0.29470 0.23189
 O132 O 0.23990 0.27369 0.20947
 O133 O 0.23942 0.22814 0.20943
 O134 O 0.28570 0.27555 0.25469
 C135 C 0.26350 0.19549 0.17738
 C136 C 0.20745 0.19591 0.23421
 C137 C 0.20635 0.25101 0.17687
 C138 C 0.26326 0.30836 0.28622
 C139 C 0.31837 0.25368 0.28725
 C140 C 0.31696 0.30776 0.23203
 H141 H 0.29445 0.21912 0.26433
 H142 H 0.29320 0.28322 0.19795
 H143 H 0.22912 0.21760 0.19942
 H144 H 0.22932 0.28362 0.26360
 H145 H 0.22410 0.24143 0.29640
 H146 H 0.19642 0.25995 0.27120
 H147 H 0.32812 0.26337 0.19296
 H148 H 0.30178 0.24084 0.16816
 H149 H 0.25654 0.21325 0.29766
 H150 H 0.25080 0.18476 0.27039
 H151 H 0.25266 0.31707 0.19220
 H152 H 0.24826 0.28808 0.16466
 H153 H 0.30267 0.18852 0.22117
 H154 H 0.32896 0.21400 0.24437
 H155 H 0.17936 0.27531 0.22821
 H156 H 0.23757 0.33439 0.23415
 O157 O 0.74961 0.82889 0.23097
 O158 O 0.72306 0.83518 0.26490
 O159 O 0.81352 0.80064 0.26549
 O160 O 0.81917 0.77233 0.29400
 O161 O 0.78633 0.76713 0.20311
 O162 O 0.75311 0.73938 0.19590
 O163 O 0.75053 0.73244 0.32688
 O164 O 0.77834 0.76529 0.33338
 O165 O 0.68877 0.76463 0.29734
 O166 O 0.68204 0.79323 0.26273
 O167 O 0.71843 0.70415 0.26484
 O168 O 0.75393 0.69814 0.23680
 O169 O 0.75136 0.70388 0.29757
 O170 O 0.77811 0.69664 0.26689
 O171 O 0.68930 0.73303 0.26349
 O172 O 0.68153 0.76733 0.23757
 O173 O 0.71755 0.76304 0.32657
 O174 O 0.74555 0.79138 0.33502
 O175 O 0.75200 0.79984 0.20218
 O176 O 0.72633 0.76634 0.19448
 O177 O 0.81452 0.76682 0.23301
 O178 O 0.81979 0.73925 0.26631
 O179 O 0.78395 0.82923 0.26510
 O180 O 0.74915 0.83660 0.29077
 Zr181 Zr 0.75142 0.80970 0.26392
 O182 O 0.72919 0.78857 0.28628
 Zr183 Zr 0.79450 0.76800 0.26509
 O184 O 0.77377 0.74477 0.28675
 Zr185 Zr 0.75311 0.76739 0.22164
 O186 O 0.73022 0.74488 0.24178
 Zr187 Zr 0.75003 0.76523 0.30774
 O188 O 0.77252 0.78891 0.28793
 Zr189 Zr 0.70835 0.76560 0.26473
 O190 O 0.72894 0.78839 0.24209
 Zr191 Zr 0.75112 0.72350 0.26514
 O192 O 0.77435 0.74440 0.24320
 O193 O 0.77450 0.79001 0.24216
 O194 O 0.72796 0.74277 0.28741
 C195 C 0.75025 0.82188 0.20887
 C196 C 0.80618 0.82263 0.26550
 C197 C 0.80827 0.76674 0.21071
 C198 C 0.75107 0.71046 0.31975
 C199 C 0.69556 0.76327 0.31950
 C200 C 0.69628 0.71098 0.26384
 H201 H 0.71920 0.79921 0.29647
 H202 H 0.72052 0.73506 0.23055
 H203 H 0.78470 0.80043 0.23192
 H204 H 0.78460 0.73469 0.29678
 H205 H 0.78851 0.77948 0.32980
 H206 H 0.81646 0.75900 0.30556
 H207 H 0.68630 0.75609 0.22462
 H208 H 0.71320 0.77717 0.19984
 H209 H 0.75409 0.80593 0.32944
 H210 H 0.76261 0.83385 0.30221
 H211 H 0.73982 0.70024 0.22606
 H212 H 0.76526 0.72745 0.20136
 H213 H 0.71074 0.82962 0.25325
 H214 H 0.68432 0.80393 0.27677
 H215 H 0.83617 0.74602 0.26407
 H216 H 0.79289 0.70399 0.26023
 O217 O 0.74923 0.18330 0.77769
 O218 O 0.72541 0.17556 0.74421
 O219 O 0.81253 0.21586 0.74615
 O220 O 0.82090 0.24605 0.72392
 O221 O 0.77941 0.24780 0.80999
 O222 O 0.74694 0.26873 0.81894
 O223 O 0.74945 0.27937 0.68328
 O224 O 0.77485 0.24808 0.67595
 O225 O 0.68646 0.24661 0.71291
 O226 O 0.67696 0.22271 0.74491
 O227 O 0.71619 0.30968 0.74359
 O228 O 0.74533 0.31607 0.77245
 O229 O 0.74669 0.30869 0.71170
 O230 O 0.77798 0.31340 0.74431
 O231 O 0.68693 0.28103 0.74494
 O232 O 0.68098 0.24431 0.77400
 O233 O 0.71508 0.24913 0.68375
 O234 O 0.74976 0.21847 0.67818
 O235 O 0.74643 0.21128 0.80744
 O236 O 0.71773 0.24683 0.81231
 O237 O 0.80969 0.24692 0.78242
 O238 O 0.81319 0.27876 0.74904
 O239 O 0.78466 0.18581 0.74592
 O240 O 0.75080 0.17959 0.71672
 Zr241 Zr 0.75082 0.20378 0.74612
 O242 O 0.72728 0.22429 0.72435
 Zr243 Zr 0.79179 0.24714 0.74852
 O244 O 0.77123 0.26842 0.72450
 Zr245 Zr 0.74804 0.24501 0.78928
 O246 O 0.72679 0.26859 0.76825
 Zr247 Zr 0.74816 0.24737 0.70304
 O248 O 0.77193 0.22584 0.72394
 Zr249 Zr 0.70574 0.24757 0.74520
 O250 O 0.72607 0.22365 0.76718
 Zr251 Zr 0.74799 0.28979 0.74500
 O252 O 0.76951 0.26944 0.76938
 O253 O 0.77175 0.22373 0.76978
 O254 O 0.72550 0.26993 0.72254
 C255 C 0.74696 0.18936 0.79982
 C256 C 0.80654 0.19359 0.74562
 C257 C 0.80175 0.24775 0.80423
 C258 C 0.74799 0.30146 0.68969
 C259 C 0.69302 0.24801 0.69085
 C260 C 0.69410 0.30310 0.74400
 H261 H 0.71727 0.21333 0.71454
 H262 H 0.71692 0.27884 0.77897
 H263 H 0.78194 0.21341 0.78026
 H264 H 0.78206 0.27842 0.71449
 H265 H 0.78919 0.23994 0.68288
 H266 H 0.81611 0.25577 0.70972
 H267 H 0.68079 0.25976 0.78283
 H268 H 0.70800 0.23220 0.80935
 H269 H 0.73415 0.20992 0.67848
 H270 H 0.76438 0.18424 0.70616
 H271 H 0.75845 0.31260 0.78409
 H272 H 0.74641 0.28515 0.81204
 H273 H 0.71124 0.18093 0.75359
 H274 H 0.68348 0.20747 0.73841
 H275 H 0.82915 0.27464 0.75601
 H276 H 0.77197 0.32973 0.74015
 O277 O 0.23700 0.79339 0.78628
 O278 O 0.26312 0.80018 0.75215
 O279 O 0.17247 0.76599 0.75216
 O280 O 0.16533 0.73728 0.72544
 O281 O 0.20161 0.73107 0.81447
 O282 O 0.23510 0.70390 0.82102
 O283 O 0.23359 0.69879 0.68931
 O284 O 0.20595 0.73181 0.68399
 O285 O 0.29638 0.73066 0.71784
 O286 O 0.30449 0.75715 0.75295
 O287 O 0.26685 0.66835 0.75162
 O288 O 0.23444 0.66059 0.77710
 O289 O 0.23590 0.66981 0.71830
 O290 O 0.20365 0.66653 0.75260
 O291 O 0.29592 0.69713 0.74933
 O292 O 0.30516 0.73039 0.77731
 O293 O 0.26720 0.72974 0.68898
 O294 O 0.23850 0.75790 0.68173
 O295 O 0.23616 0.76409 0.81507
 O296 O 0.26218 0.73034 0.82125
 O297 O 0.17257 0.73297 0.78543
 O298 O 0.16786 0.70353 0.75281
 O299 O 0.20221 0.79423 0.75188
 O300 O 0.23718 0.80236 0.72689
 Zr301 Zr 0.23483 0.77476 0.75317
 O302 O 0.25644 0.75390 0.73008
 Zr303 Zr 0.19176 0.73333 0.75284
 O304 O 0.21185 0.71046 0.73008
 Zr305 Zr 0.23432 0.73201 0.79522
 O306 O 0.25628 0.70948 0.77418
 Zr307 Zr 0.23503 0.73120 0.70875
 O308 O 0.21310 0.75449 0.72954
 Zr309 Zr 0.27761 0.73025 0.75081
 O310 O 0.25790 0.75303 0.77417
 Zr311 Zr 0.23473 0.68865 0.75113
 O312 O 0.21255 0.70946 0.77415
 O313 O 0.21232 0.75501 0.77542
 O314 O 0.25731 0.70816 0.72838
 C315 C 0.23744 0.78619 0.80837
 C316 C 0.17994 0.78789 0.75148
 C317 C 0.17948 0.73172 0.80750
 C318 C 0.23471 0.67671 0.69622
 C319 C 0.28933 0.73011 0.69575
 C320 C 0.28894 0.67510 0.75018
 H321 H 0.26623 0.76473 0.71987
 H322 H 0.26622 0.69927 0.78495
 H323 H 0.20233 0.76549 0.78580
 H324 H 0.20083 0.70058 0.72016
 H325 H 0.19539 0.74542 0.68864
 H326 H 0.16816 0.72448 0.71340
 H327 H 0.30139 0.71771 0.78927
 H328 H 0.27535 0.74065 0.81513
 H329 H 0.22918 0.77199 0.68729
 H330 H 0.22401 0.79975 0.71514
 H331 H 0.24411 0.66599 0.79106
 H332 H 0.22291 0.69197 0.81587
 H333 H 0.27561 0.79437 0.76357
 H334 H 0.30123 0.76907 0.74005
 H335 H 0.15134 0.70957 0.75604
 H336 H 0.20692 0.65152 0.74353
 O337 O 0.24605 0.32654 0.72856
 O338 O 0.21965 0.33329 0.76228
 O339 O 0.30986 0.29867 0.76502
 O340 O 0.31604 0.26957 0.79178
 O341 O 0.28255 0.26303 0.70139
 O342 O 0.24837 0.23691 0.69417
 O343 O 0.24674 0.23111 0.82541
 O344 O 0.27510 0.26363 0.83137
 O345 O 0.18538 0.26244 0.79582
 O346 O 0.17847 0.29137 0.76119
 O347 O 0.21456 0.20219 0.76284
 O348 O 0.25059 0.19608 0.73550
 O349 O 0.24707 0.20236 0.79626
 O350 O 0.27398 0.19443 0.76604
 O351 O 0.18553 0.23117 0.76323
 O352 O 0.17785 0.26504 0.73601
 O353 O 0.21413 0.26303 0.82511
 O354 O 0.24284 0.29023 0.83305
 O355 O 0.24870 0.29725 0.70004
 O356 O 0.22255 0.26428 0.69269
 O357 O 0.31095 0.26565 0.73096
 O358 O 0.31598 0.23702 0.76377
 O359 O 0.28041 0.32724 0.76226
 O360 O 0.24576 0.33479 0.78829
 Zr361 Zr 0.24791 0.30770 0.76162
 O362 O 0.22570 0.28690 0.78430
 Zr363 Zr 0.29093 0.26598 0.76313
 O364 O 0.27010 0.24300 0.78502
 Zr365 Zr 0.24935 0.26497 0.71984
 O366 O 0.22638 0.24273 0.74021
 Zr367 Zr 0.24656 0.26376 0.80597
 O368 O 0.26902 0.28714 0.78580
 Zr369 Zr 0.20472 0.26369 0.76314
 O370 O 0.22529 0.28619 0.74017
 Zr371 Zr 0.24732 0.22157 0.76367
 O372 O 0.27063 0.24218 0.74155
 O373 O 0.27096 0.28780 0.73999
 O374 O 0.22438 0.24110 0.78595
 C375 C 0.24690 0.31936 0.70655
 C376 C 0.30256 0.32066 0.76425
 C377 C 0.30455 0.26374 0.70877
 C378 C 0.24697 0.20907 0.81839
 C379 C 0.19214 0.26224 0.81801
 C380 C 0.19241 0.20910 0.76295
 H381 H 0.21577 0.29769 0.79439
 H382 H 0.21661 0.23281 0.72914
 H383 H 0.28127 0.29810 0.72973
 H384 H 0.28087 0.23291 0.79511
 H385 H 0.28554 0.27752 0.82743
 H386 H 0.31313 0.25630 0.80335
 H387 H 0.18224 0.25316 0.72350
 H388 H 0.20927 0.27472 0.69840
 H389 H 0.25159 0.30457 0.82726
 H390 H 0.25941 0.33227 0.79955
 H391 H 0.23647 0.19791 0.72473
 H392 H 0.26020 0.22465 0.69956
 H393 H 0.20710 0.32739 0.75106
 H394 H 0.18052 0.30184 0.77544
 H395 H 0.33238 0.24362 0.76122
 H396 H 0.28904 0.20170 0.75996
 O397 O 0.76752 0.68434 0.70704
 O398 O 0.79481 0.67763 0.74084
 O399 O 0.70467 0.71354 0.73955
 O400 O 0.69721 0.74284 0.76535
 O401 O 0.73555 0.74760 0.67727
 O402 O 0.77091 0.77355 0.67130
 O403 O 0.76527 0.78021 0.80304
 O404 O 0.73797 0.74726 0.80841
 O405 O 0.82898 0.74642 0.77585
 O406 O 0.83695 0.71947 0.74164
 O407 O 0.80068 0.80892 0.74392
 O408 O 0.77262 0.81538 0.71362
 O409 O 0.76813 0.80897 0.77388
 O410 O 0.73817 0.81319 0.74079
 O411 O 0.82949 0.77962 0.74328
 O412 O 0.83788 0.74538 0.71626
 O413 O 0.79928 0.74898 0.80394
 O414 O 0.77019 0.72091 0.81127
 O415 O 0.76956 0.71352 0.67819
 O416 O 0.79610 0.74658 0.67202
 O417 O 0.70608 0.74654 0.70572
 O418 O 0.70131 0.77634 0.73840
 O419 O 0.73386 0.68464 0.74125
 O420 O 0.76879 0.67608 0.76644
 Zr421 Zr 0.76675 0.70346 0.73987
 O422 O 0.78845 0.72401 0.76321
 Zr423 Zr 0.72451 0.74587 0.73887
 O424 O 0.74467 0.76829 0.76192
 Zr425 Zr 0.76783 0.74596 0.69749
 O426 O 0.78975 0.76813 0.71895
 Zr427 Zr 0.76718 0.74741 0.78395
 O428 O 0.74508 0.72447 0.76288
 Zr429 Zr 0.81044 0.74692 0.74266
 O430 O 0.79058 0.72442 0.71915
 Zr431 Zr 0.76828 0.78954 0.74143
 O432 O 0.74600 0.76925 0.71789
 O433 O 0.74502 0.72362 0.71696
 O434 O 0.79021 0.76963 0.76462
 C435 C 0.76892 0.69141 0.68497
 C436 C 0.71170 0.69146 0.74093
 C437 C 0.71333 0.74756 0.68376
 C438 C 0.76626 0.80228 0.79597
 C439 C 0.82153 0.74786 0.79771
 C440 C 0.82273 0.80175 0.74423
 H441 H 0.79790 0.71308 0.77373
 H442 H 0.79988 0.77829 0.70840
 H443 H 0.73483 0.71338 0.70653
 H444 H 0.73356 0.77837 0.77152
 H445 H 0.72711 0.73407 0.80340
 H446 H 0.70058 0.75501 0.77789
 H447 H 0.83456 0.75813 0.70420
 H448 H 0.80880 0.73567 0.67828
 H449 H 0.76070 0.70695 0.80576
 H450 H 0.75566 0.67904 0.77809
 H451 H 0.75902 0.81319 0.70228
 H452 H 0.75739 0.78488 0.67390
 H453 H 0.80697 0.68286 0.72890
 H454 H 0.83261 0.70724 0.75388
 H455 H 0.68483 0.77086 0.73422
 H456 H 0.74411 0.82972 0.74392
 O457 O 0.25866 0.69119 0.28329
 O458 O 0.23422 0.68345 0.24989
 O459 O 0.32123 0.72420 0.25481
 O460 O 0.32904 0.75370 0.23030
 O461 O 0.28648 0.75629 0.31624
 O462 O 0.25325 0.77627 0.32473
 O463 O 0.25886 0.78766 0.18938
 O464 O 0.28493 0.75673 0.18247
 O465 O 0.19573 0.75325 0.21731
 O466 O 0.18579 0.72992 0.24971
 O467 O 0.22411 0.81747 0.25092
 O468 O 0.25355 0.82395 0.27857
 O469 O 0.25442 0.81681 0.21778
 O470 O 0.28594 0.82149 0.25062
 O471 O 0.19532 0.78851 0.24767
 O472 O 0.18867 0.75272 0.27815
 O473 O 0.22484 0.75667 0.18873
 O474 O 0.25999 0.72708 0.18348
 O475 O 0.25437 0.71894 0.31310
 O476 O 0.22458 0.75374 0.31720
 O477 O 0.31733 0.75584 0.28927
 O478 O 0.32161 0.78691 0.25629
 O479 O 0.29359 0.69420 0.25071
 O480 O 0.25954 0.68729 0.22254
 Zr481 Zr 0.25958 0.71173 0.25173
 O482 O 0.23640 0.73213 0.22953
 Zr483 Zr 0.30013 0.75537 0.25512
 O484 O 0.27988 0.77670 0.23088
 Zr485 Zr 0.25554 0.75273 0.29499
 O486 O 0.23452 0.77620 0.27364
 Zr487 Zr 0.25751 0.75552 0.20880
 O488 O 0.28097 0.73399 0.23006
 Zr489 Zr 0.21422 0.75516 0.24996
 O490 O 0.23423 0.73131 0.27232
 Zr491 Zr 0.25603 0.79776 0.25103
 O492 O 0.27721 0.77738 0.27563
 O493 O 0.27984 0.73178 0.27587
 O494 O 0.23424 0.77784 0.22789
 C495 C 0.25596 0.69710 0.30543
 C496 C 0.31540 0.70200 0.25241
 C497 C 0.30893 0.75669 0.31088
 C498 C 0.25657 0.80968 0.19579
 C499 C 0.20268 0.75482 0.19539
 C500 C 0.20218 0.81068 0.24882
 H501 H 0.22673 0.72106 0.21951
 H502 H 0.22430 0.78626 0.28418
 H503 H 0.29005 0.72165 0.28651
 H504 H 0.29079 0.78688 0.22114
 H505 H 0.29913 0.74860 0.18967
 H506 H 0.32532 0.76510 0.21706
 H507 H 0.18771 0.76862 0.28611
 H508 H 0.21514 0.73906 0.31369
 H509 H 0.24486 0.71771 0.18407
 H510 H 0.27257 0.69240 0.21151
 H511 H 0.26632 0.82006 0.29047
 H512 H 0.25241 0.79272 0.31789
 H513 H 0.22030 0.68852 0.25980
 H514 H 0.19261 0.71470 0.24346
 H515 H 0.33792 0.78234 0.26210
 H516 H 0.27994 0.83772 0.24607
 O517 O 0.73700 0.29693 0.28385
 O518 O 0.76242 0.30409 0.24948
 O519 O 0.67318 0.26618 0.25098
 O520 O 0.66716 0.23708 0.22458
 O521 O 0.70409 0.23479 0.31358
 O522 O 0.73811 0.20793 0.32025
 O523 O 0.73639 0.20032 0.18881
 O524 O 0.70782 0.23247 0.18293
 O525 O 0.79847 0.23483 0.21618
 O526 O 0.80556 0.26263 0.25070
 O527 O 0.77126 0.17239 0.25019
 O528 O 0.74034 0.16365 0.27694
 O529 O 0.73928 0.17189 0.21827
 O530 O 0.70819 0.16834 0.25371
 O531 O 0.79949 0.20210 0.24998
 O532 O 0.80756 0.23666 0.27561
 O533 O 0.76900 0.23186 0.18778
 O534 O 0.73961 0.25938 0.18011
 O535 O 0.73736 0.26812 0.31313
 O536 O 0.76464 0.23525 0.31990
 O537 O 0.67495 0.23304 0.28466
 O538 O 0.67103 0.20368 0.25212
 O539 O 0.70184 0.29552 0.24977
 O540 O 0.73643 0.30445 0.22414
 Zr541 Zr 0.73530 0.27747 0.25116
 O542 O 0.75762 0.25698 0.22837
 Zr543 Zr 0.69382 0.23435 0.25189
 O544 O 0.71463 0.21189 0.22940
 Zr545 Zr 0.73662 0.23559 0.29400
 O546 O 0.75930 0.21350 0.27325
 Zr547 Zr 0.73695 0.23309 0.20764
 O548 O 0.71423 0.25591 0.22810
 Zr549 Zr 0.77985 0.23456 0.24940
 O550 O 0.75933 0.25704 0.27242
 Zr551 Zr 0.73845 0.19141 0.25070
 O552 O 0.71565 0.21176 0.27353
 O553 O 0.71364 0.25729 0.27387
 O554 O 0.76024 0.21129 0.22750
 C555 C 0.73774 0.29014 0.30606
 C556 C 0.67980 0.28834 0.24972
 C557 C 0.68195 0.23361 0.30673
 C558 C 0.73786 0.17839 0.19609
 C559 C 0.79117 0.23328 0.19420
 C560 C 0.79317 0.17984 0.25008
 H561 H 0.76694 0.26793 0.21785
 H562 H 0.76965 0.20388 0.28418
 H563 H 0.70332 0.26760 0.28409
 H564 H 0.70389 0.20146 0.21976
 H565 H 0.69691 0.24588 0.18735
 H566 H 0.67054 0.22440 0.21255
 H567 H 0.80360 0.22519 0.28867
 H568 H 0.77706 0.24659 0.31400
 H569 H 0.73009 0.27338 0.18553
 H570 H 0.72301 0.30132 0.21281
 H571 H 0.74883 0.17021 0.29115
 H572 H 0.72602 0.19575 0.31546
 H573 H 0.77539 0.29884 0.26062
 H574 H 0.80189 0.27397 0.23739
 H575 H 0.65430 0.20912 0.25534
 H576 H 0.71159 0.15332 0.24471
 C577 C 0.24920 0.07230 0.05183
 N578 N 0.26525 0.07046 0.03350
 N579 N 0.26351 0.05263 0.01756
 C580 C 0.24537 0.03630 0.01907
 N581 N 0.22933 0.03827 0.03741
 N582 N 0.23120 0.05592 0.05348
 C583 C 0.25189 0.09085 0.07036
 N584 N 0.24066 0.08834 0.09193
 N585 N 0.24348 0.10476 0.10913
 C586 C 0.25747 0.12440 0.10532
 N587 N 0.26860 0.12702 0.08369
 N588 N 0.26600 0.11043 0.06656
 C589 C 0.26014 0.14260 0.12419
 N590 N 0.26799 0.16508 0.11875
 N591 N 0.26941 0.18188 0.13579
 C592 C 0.26333 0.17668 0.15893
 N593 N 0.25576 0.15410 0.16442
 N594 N 0.25409 0.13739 0.14733
 C595 C 0.74953 0.57309 0.55541
 N596 N 0.76369 0.57267 0.53547
 N597 N 0.76136 0.55512 0.51925
 C598 C 0.74456 0.53758 0.52221
 N599 N 0.73025 0.53834 0.54201
 N600 N 0.73268 0.55571 0.55828
 C601 C 0.75322 0.59096 0.57448
 N602 N 0.74350 0.58730 0.59661
 N603 N 0.74724 0.60294 0.61435
 C604 C 0.76074 0.62292 0.61058
 N605 N 0.77039 0.62669 0.58839
 N606 N 0.76684 0.61089 0.57068
 C607 C 0.76427 0.64032 0.63009
 N608 N 0.77227 0.66290 0.62530
 N609 N 0.77423 0.67904 0.64292
 C610 C 0.76854 0.67310 0.66599
 N611 N 0.76087 0.65042 0.67082
 N612 N 0.75869 0.63435 0.65317
 C613 C 0.74267 0.93817 0.07511
 N614 N 0.75829 0.93614 0.05644
 N615 N 0.75637 0.95054 0.03728
 C616 C 0.73875 0.96752 0.03600
 N617 N 0.72285 0.96922 0.05453
 N618 N 0.72490 0.95497 0.07382
 C619 C 0.74452 0.92178 0.09588
 N620 N 0.73233 0.92625 0.11661
 N621 N 0.73374 0.91098 0.13518
 C622 C 0.74723 0.89060 0.13357
 N623 N 0.75938 0.88617 0.11284
 N624 N 0.75815 0.90152 0.09439
 C625 C 0.74818 0.87311 0.15347
 N626 N 0.75624 0.85042 0.14936
 N627 N 0.75682 0.83422 0.16708
 C628 C 0.74959 0.84013 0.18966
 N629 N 0.74169 0.86290 0.19388
 N630 N 0.74087 0.87908 0.17605
 C631 C 0.24751 0.43720 0.57409
 N632 N 0.26255 0.43338 0.55526
 N633 N 0.26195 0.44776 0.53604
 C634 C 0.24625 0.46653 0.53481
 N635 N 0.23108 0.47025 0.55365
 N636 N 0.23180 0.45595 0.57301
 C637 C 0.24766 0.42048 0.59463
 N638 N 0.23589 0.42574 0.61542
 N639 N 0.23581 0.41008 0.63372
 C640 C 0.24730 0.38855 0.63174
 N641 N 0.25901 0.38334 0.61095
 N642 N 0.25927 0.39904 0.59279
 C643 C 0.24688 0.37081 0.65139
 N644 N 0.25353 0.34771 0.64705
 N645 N 0.25329 0.33137 0.66464
 C646 C 0.24659 0.33754 0.68730
 N647 N 0.24000 0.36069 0.69173
 N648 N 0.24002 0.37703 0.67403
 C649 C 0.72338 0.05368 0.91159
 N650 N 0.73437 0.03190 0.90899
 N651 N 0.73415 0.01578 0.92697
 C652 C 0.72311 0.02087 0.94825
 N653 N 0.71129 0.04228 0.95007
 N654 N 0.71141 0.05827 0.93225
 C655 C 0.72621 0.07324 0.89390
 N656 N 0.71839 0.09571 0.89957
 N657 N 0.72220 0.11422 0.88478
 C658 C 0.73399 0.11098 0.86368
 N659 N 0.74167 0.08846 0.85781
 N660 N 0.73798 0.06992 0.87273
 C661 C 0.73822 0.13155 0.84750
 N662 N 0.74648 0.12797 0.82481
 N663 N 0.74961 0.14654 0.80992
 C664 C 0.74485 0.16942 0.81717
 N665 N 0.73685 0.17306 0.83998
 N666 N 0.73356 0.15444 0.85485
 C667 C 0.23995 0.55631 0.41184
 N668 N 0.25693 0.53861 0.41260
 N669 N 0.25599 0.52137 0.42940
 C670 C 0.23785 0.52104 0.44582
 N671 N 0.22056 0.53835 0.44446
 N672 N 0.22157 0.55561 0.42784
 C673 C 0.24243 0.57718 0.39571
 N674 N 0.22946 0.59751 0.39993
 N675 N 0.23238 0.61705 0.38627
 C676 C 0.24835 0.61695 0.36780
 N677 N 0.26123 0.59657 0.36346
 N678 N 0.25847 0.57709 0.37729
 C679 C 0.25120 0.63827 0.35235
 N680 N 0.26220 0.63623 0.33067
 N681 N 0.26398 0.65519 0.31607
 C682 C 0.25513 0.67700 0.32268
 N683 N 0.24440 0.67921 0.34454
 N684 N 0.24240 0.66012 0.35908
 C685 C 0.25111 0.91096 0.93316
 N686 N 0.26091 0.93216 0.92630
 N687 N 0.26121 0.95079 0.94122
 C688 C 0.25176 0.94929 0.96376
 N689 N 0.24227 0.92778 0.97079
 N690 N 0.24196 0.90897 0.95580
 C691 C 0.24946 0.89139 0.91543
 N692 N 0.24120 0.86916 0.92141
 N693 N 0.23929 0.85204 0.90466
 C694 C 0.24539 0.85664 0.88135
 N695 N 0.25363 0.87884 0.87548
 N696 N 0.25566 0.89584 0.89219
 C697 C 0.24304 0.83820 0.86253
 N698 N 0.24598 0.84429 0.83898
 N699 N 0.24404 0.82778 0.82172
 C700 C 0.23921 0.80450 0.82738
 N701 N 0.23629 0.79839 0.85094
 N702 N 0.23810 0.81495 0.86821
 C703 C 0.74774 0.41354 0.43260
 N704 N 0.76175 0.43308 0.42861
 N705 N 0.76218 0.45114 0.44427
 C706 C 0.74859 0.45055 0.46460
 N707 N 0.73470 0.43082 0.46875
 N708 N 0.73438 0.41259 0.45310
 C709 C 0.74626 0.39464 0.41415
 N710 N 0.73549 0.37318 0.41873
 N711 N 0.73396 0.35647 0.40156
 C712 C 0.74289 0.36073 0.37915
 N713 N 0.75356 0.38220 0.37459
 N714 N 0.75528 0.39879 0.39178
 C715 C 0.74116 0.34247 0.36009
 N716 N 0.74569 0.34839 0.33674
 N717 N 0.74438 0.33182 0.31943
 C718 C 0.73870 0.30868 0.32490
 N719 N 0.73422 0.30278 0.34825
 N720 N 0.73532 0.31938 0.36551
 C721 C 0.07353 0.24679 0.05938
 N722 N 0.05447 0.26196 0.06165
 N723 N 0.03546 0.26009 0.04707
 C724 C 0.03472 0.24296 0.02964
 N725 N 0.05369 0.22756 0.02763
 N726 N 0.07282 0.22957 0.04207
 C727 C 0.09407 0.24843 0.07605
 N728 N 0.11509 0.23676 0.07140
 N729 N 0.13344 0.23788 0.08693
 C730 C 0.13135 0.25052 0.10775
 N731 N 0.11033 0.26215 0.11237
 N732 N 0.09208 0.26123 0.09676
 C733 C 0.15111 0.25107 0.12541
 N734 N 0.14683 0.25817 0.14840
 N735 N 0.16448 0.25819 0.16471
 C736 C 0.18715 0.25136 0.15859
 N737 N 0.19152 0.24443 0.13554
 N738 N 0.17378 0.24418 0.11926
 C739 C 0.58243 0.74465 0.56427
 N740 N 0.56354 0.73012 0.56938
 N741 N 0.54394 0.73031 0.55559
 C742 C 0.54233 0.74505 0.53609
 N743 N 0.56128 0.75963 0.53088
 N744 N 0.58106 0.75935 0.54467
 C745 C 0.60308 0.74511 0.58086
 N746 N 0.62399 0.75649 0.57520
 N747 N 0.64222 0.75700 0.59096
 C748 C 0.64003 0.74634 0.61295
 N749 N 0.61915 0.73503 0.61850
 N750 N 0.60109 0.73434 0.60274
 C751 C 0.65941 0.74721 0.63099
 N752 N 0.65444 0.74153 0.65425
 N753 N 0.67165 0.74191 0.67095
 C754 C 0.69460 0.74777 0.66503
 N755 N 0.69968 0.75342 0.64172
 N756 N 0.68234 0.75326 0.62499
 C757 C 0.05560 0.74148 0.93302
 N758 N 0.05989 0.73122 0.95477
 N759 N 0.04454 0.73426 0.97285
 C760 C 0.02413 0.74762 0.97007
 N761 N 0.02001 0.75805 0.94821
 N762 N 0.03533 0.75492 0.92998
 C763 C 0.07337 0.73891 0.91369
 N764 N 0.06862 0.74673 0.89095
 N765 N 0.08526 0.74481 0.87376
 C766 C 0.10725 0.73518 0.87878
 N767 N 0.11195 0.72736 0.90150
 N768 N 0.09529 0.72913 0.91861
 C769 C 0.12589 0.73370 0.86017
 N770 N 0.14899 0.72820 0.86622
 N771 N 0.16610 0.72741 0.84945
 C772 C 0.16066 0.73192 0.82599
 N773 N 0.13753 0.73726 0.81993
 N774 N 0.12045 0.73822 0.83672
 C775 C 0.55297 0.25588 0.42516
 N776 N 0.55597 0.27290 0.44235
 N777 N 0.53977 0.27561 0.45976
 C778 C 0.51990 0.26140 0.46073
 N779 N 0.51682 0.24445 0.44337
 N780 N 0.53297 0.24186 0.42578
 C781 C 0.57199 0.25179 0.40732
 N782 N 0.56807 0.23788 0.38761
 N783 N 0.58574 0.23387 0.37187
 C784 C 0.60800 0.24334 0.37549
 N785 N 0.61191 0.25714 0.39524
 N786 N 0.59421 0.26133 0.41083
 C787 C 0.62744 0.23933 0.35810
 N788 N 0.65058 0.24476 0.36391
 N789 N 0.66813 0.24220 0.34778
 C790 C 0.66313 0.23425 0.32521
 N791 N 0.64001 0.22869 0.31944
 N792 N 0.62249 0.23104 0.33564
 C793 C 0.93938 0.77688 0.09225
 N794 N 0.93541 0.78865 0.07117
 N795 N 0.95096 0.78674 0.05306
 C796 C 0.97113 0.77298 0.05519
 N797 N 0.97542 0.76170 0.07658
 N798 N 0.95989 0.76368 0.09480
 C799 C 0.92052 0.77656 0.11080
 N800 N 0.92446 0.76631 0.13273
 N801 N 0.90667 0.76473 0.14877
 C802 C 0.88424 0.77305 0.14335
 N803 N 0.88035 0.78334 0.12146
 N804 N 0.89816 0.78509 0.10552
 C805 C 0.86441 0.77080 0.16071
 N806 N 0.84128 0.77500 0.15375
 N807 N 0.82328 0.77321 0.16951
 C808 C 0.82778 0.76725 0.19286
 N809 N 0.85091 0.76304 0.19979
 N810 N 0.86888 0.76464 0.18399
 C811 C 0.43209 0.25523 0.58604
 N812 N 0.42804 0.24161 0.56623
 N813 N 0.44342 0.24187 0.54790
 C814 C 0.46352 0.25576 0.54849
 N815 N 0.46778 0.26921 0.56852
 N816 N 0.45239 0.26887 0.58701
 C817 C 0.41377 0.25610 0.60516
 N818 N 0.41807 0.26715 0.62656
 N819 N 0.40090 0.26831 0.64333
 C820 C 0.37876 0.25869 0.63919
 N821 N 0.37452 0.24769 0.61781
 N822 N 0.39171 0.24637 0.60116
 C823 C 0.35952 0.26023 0.65733
 N824 N 0.33643 0.25478 0.65129
 N825 N 0.31889 0.25606 0.66760
 C826 C 0.32381 0.26266 0.69063
 N827 N 0.34692 0.26806 0.69669
 N828 N 0.36444 0.26697 0.68032
 C829 C 0.91203 0.22935 0.94205
 N830 N 0.90981 0.24148 0.96322
 N831 N 0.92728 0.24044 0.97985
 C832 C 0.94762 0.22722 0.97596
 N833 N 0.94909 0.21449 0.95510
 N834 N 0.93178 0.21550 0.93858
 C835 C 0.89493 0.23258 0.92198
 N836 N 0.90088 0.22424 0.89978
 N837 N 0.88641 0.22788 0.88095
 C838 C 0.86534 0.23996 0.88358
 N839 N 0.85923 0.24822 0.90582
 N840 N 0.87385 0.24474 0.92468
 C841 C 0.84930 0.24346 0.86271
 N842 N 0.82622 0.25087 0.86583
 N843 N 0.81135 0.25278 0.84703
 C844 C 0.81903 0.24761 0.82437
 N845 N 0.84222 0.24053 0.82118
 N846 N 0.85706 0.23844 0.84003
 C847 C 0.41635 0.74362 0.45113
 N848 N 0.41624 0.75970 0.46958
 N849 N 0.43357 0.75922 0.48632
 C850 C 0.45136 0.74238 0.48536
 N851 N 0.45102 0.72602 0.46724
 N852 N 0.43385 0.72659 0.45051
 C853 C 0.39972 0.74594 0.43064
 N854 N 0.40487 0.73456 0.40964
 N855 N 0.39085 0.73745 0.39034
 C856 C 0.37107 0.75177 0.39135
 N857 N 0.36575 0.76305 0.41240
 N858 N 0.37995 0.76035 0.43168
 C859 C 0.35547 0.75449 0.37011
 N860 N 0.33265 0.76292 0.37244
 N861 N 0.31807 0.76411 0.35337
 C862 C 0.32585 0.75725 0.33122
 N863 N 0.34881 0.74917 0.32880
 N864 N 0.36333 0.74773 0.34794
 C865 C 0.08942 0.06437 0.24246
 N866 N 0.07181 0.06500 0.25933
 N867 N 0.05407 0.04895 0.25902
 C868 C 0.05312 0.03160 0.24182
 N869 N 0.07092 0.03083 0.22503
 N870 N 0.08885 0.04680 0.22547
 C871 C 0.10756 0.08358 0.24169
 N872 N 0.12780 0.08132 0.22818
 N873 N 0.14371 0.09925 0.22703
 C874 C 0.13977 0.12019 0.23903
 N875 N 0.11950 0.12245 0.25246
 N876 N 0.10375 0.10444 0.25383
 C877 C 0.15716 0.14004 0.23757
 N878 N 0.15084 0.16274 0.24419
 N879 N 0.16670 0.18070 0.24291
 C880 C 0.18953 0.17652 0.23520
 N881 N 0.19582 0.15381 0.22865
 N882 N 0.17991 0.13594 0.22968
 C883 C 0.58888 0.56380 0.74373
 N884 N 0.56834 0.56713 0.73088
 N885 N 0.55019 0.55167 0.73276
 C886 C 0.55169 0.53220 0.74759
 N887 N 0.57244 0.52865 0.76024
 N888 N 0.59075 0.54410 0.75825
 C889 C 0.60784 0.58228 0.74292
 N890 N 0.62983 0.57847 0.75309
 N891 N 0.64649 0.59576 0.75279
 C892 C 0.64168 0.61755 0.74257
 N893 N 0.61970 0.62131 0.73245
 N894 N 0.60315 0.60399 0.73257
 C895 C 0.65982 0.63683 0.74245
 N896 N 0.65354 0.65975 0.73645
 N897 N 0.66995 0.67725 0.73620
 C898 C 0.69331 0.67243 0.74177
 N899 N 0.69958 0.64949 0.74773
 N900 N 0.68314 0.63204 0.74817
 C901 C 0.94292 0.08177 0.76290
 N902 N 0.93874 0.06132 0.77546
 N903 N 0.95552 0.04434 0.77712
 C904 C 0.97735 0.04684 0.76634
 N905 N 0.98181 0.06777 0.75428
 N906 N 0.96493 0.08493 0.75261
 C907 C 0.92299 0.09890 0.75938
 N908 N 0.92630 0.12075 0.74886
 N909 N 0.90764 0.13561 0.74546
 C910 C 0.88503 0.12901 0.75218
 N911 N 0.88178 0.10716 0.76258
 N912 N 0.90040 0.09243 0.76613
 C913 C 0.86443 0.14538 0.74898
 N914 N 0.84157 0.13758 0.75298
 N915 N 0.82292 0.15268 0.75124
 C916 C 0.82651 0.17618 0.74554
 N917 N 0.84935 0.18390 0.74139
 N918 N 0.86795 0.16878 0.74296
 C919 C 0.45128 0.58851 0.24392
 N920 N 0.45099 0.57156 0.22643
 N921 N 0.46704 0.55376 0.22651
 C922 C 0.48409 0.55217 0.24402
 N923 N 0.48470 0.56937 0.26140
 N924 N 0.46866 0.58736 0.26124
 C925 C 0.43156 0.60616 0.24508
 N926 N 0.43269 0.62558 0.25984
 N927 N 0.41411 0.64080 0.26130
 C928 C 0.39366 0.63693 0.24834
 N929 N 0.39256 0.61749 0.23366
 N930 N 0.41118 0.60245 0.23201
 C931 C 0.37309 0.65352 0.24997
 N932 N 0.35097 0.64692 0.24176
 N933 N 0.33238 0.66214 0.24285
 C934 C 0.33535 0.68459 0.25199
 N935 N 0.35746 0.69114 0.26019
 N936 N 0.37596 0.67585 0.25933
 C937 C 0.06494 0.92255 0.75350
 N938 N 0.06954 0.94278 0.74055
 N939 N 0.05507 0.96187 0.74207
 C940 C 0.03543 0.96154 0.75664
 N941 N 0.03105 0.94136 0.76983
 N942 N 0.04542 0.92217 0.76818
 C943 C 0.08129 0.90179 0.75215
 N944 N 0.07512 0.88021 0.76190
 N945 N 0.09029 0.86158 0.76101
 C946 C 0.11223 0.86395 0.75048
 N947 N 0.11836 0.88553 0.74074
 N948 N 0.10313 0.90407 0.74146
 C949 C 0.12947 0.84388 0.75022
 N950 N 0.15288 0.84797 0.74459
 N951 N 0.16885 0.83005 0.74490
 C952 C 0.16198 0.80731 0.75065
 N953 N 0.13850 0.80314 0.75611
 N954 N 0.12255 0.82114 0.75600
 C955 C 0.56174 0.42037 0.24383
 N956 N 0.56810 0.44032 0.23127
 N957 N 0.55446 0.46001 0.23180
 C958 C 0.53387 0.46063 0.24491
 N959 N 0.52740 0.44063 0.25753
 N960 N 0.54106 0.42079 0.25692
 C961 C 0.57802 0.39947 0.24402
 N962 N 0.57171 0.37818 0.25437
 N963 N 0.58723 0.35976 0.25487
 C964 C 0.60960 0.36209 0.24519
 N965 N 0.61577 0.38334 0.23486
 N966 N 0.60027 0.40162 0.23421
 C967 C 0.62740 0.34251 0.24633
 N968 N 0.65079 0.34722 0.24109
 N969 N 0.66734 0.32989 0.24221
 C970 C 0.66114 0.30710 0.24842
 N971 N 0.63770 0.30227 0.25356
 N972 N 0.62112 0.31971 0.25263
 C973 C 0.92779 0.94748 0.23908
 N974 N 0.92714 0.96962 0.24938
 N975 N 0.94545 0.98487 0.24652
 C976 C 0.96502 0.97874 0.23308
 N977 N 0.96519 0.95666 0.22255
 N978 N 0.94704 0.94139 0.22547
 C979 C 0.90907 0.92954 0.24377
 N980 N 0.91315 0.90619 0.23792
 N981 N 0.89682 0.88939 0.24274
 C982 C 0.87573 0.89532 0.25349
 N983 N 0.87151 0.91871 0.25926
 N984 N 0.88799 0.93554 0.25462
 C985 C 0.85783 0.87658 0.25825
 N986 N 0.83473 0.88234 0.26385
 N987 N 0.81831 0.86511 0.26675
 C988 C 0.82449 0.84154 0.26440
 N989 N 0.84766 0.83582 0.25915
 N990 N 0.86401 0.85303 0.25607
 C991 C 0.42694 0.44605 0.76718
 N992 N 0.42665 0.46433 0.75085
 N993 N 0.44510 0.47959 0.74942
 C994 C 0.46434 0.47738 0.76450
 N995 N 0.46444 0.45914 0.78088
 N996 N 0.44613 0.44379 0.78219
 C997 C 0.40762 0.42809 0.76774
 N998 N 0.41100 0.40692 0.77960
 N999 N 0.39403 0.39002 0.77937
 C1000 C 0.37297 0.39375 0.76743
 N1001 N 0.36947 0.41501 0.75574
 N1002 N 0.38656 0.43185 0.75578
 C1003 C 0.35457 0.37486 0.76681
 N1004 N 0.33177 0.37988 0.75941
 N1005 N 0.31516 0.36262 0.75875
 C1006 C 0.32081 0.33969 0.76523
 N1007 N 0.34364 0.33465 0.77253
 N1008 N 0.36019 0.35196 0.77341
 C1009 C 0.07044 0.23699 0.94364
 N1010 N 0.07144 0.24777 0.96557
 N1011 N 0.05336 0.24530 0.98119
 C1012 C 0.03367 0.23180 0.97566
 N1013 N 0.03314 0.22080 0.95378
 N1014 N 0.05106 0.22332 0.93815
 C1015 C 0.08904 0.24108 0.92535
 N1016 N 0.08496 0.23427 0.90222
 N1017 N 0.10123 0.23851 0.88516
 C1018 C 0.12225 0.24964 0.89061
 N1019 N 0.12645 0.25638 0.91379
 N1020 N 0.11006 0.25229 0.93085
 C1021 C 0.14017 0.25396 0.87171
 N1022 N 0.16296 0.26066 0.87746
 N1023 N 0.17941 0.26366 0.86027
 C1024 C 0.17361 0.26031 0.83671
 N1025 N 0.15074 0.25387 0.83094
 N1026 N 0.13434 0.25069 0.84815
 C1027 C 0.57412 0.75556 0.44770
 N1028 N 0.57684 0.74124 0.46745
 N1029 N 0.55928 0.73950 0.48375
 C1030 C 0.53853 0.75229 0.48102
 N1031 N 0.53604 0.76672 0.46136
 N1032 N 0.55345 0.76833 0.44504
 C1033 C 0.59249 0.75658 0.42878
 N1034 N 0.58715 0.76689 0.40718
 N1035 N 0.60343 0.76756 0.38961
 C1036 C 0.62571 0.75806 0.39306
 N1037 N 0.63112 0.74782 0.41470
 N1038 N 0.61475 0.74698 0.43223
 C1039 C 0.64369 0.75909 0.37377
 N1040 N 0.66713 0.75400 0.37853
 N1041 N 0.68356 0.75535 0.36114
 C1042 C 0.67714 0.76165 0.33833
 N1043 N 0.65365 0.76658 0.33350
 N1044 N 0.63723 0.76541 0.35096
 C1045 C 0.93908 0.75497 0.93025
 N1046 N 0.93374 0.76944 0.94909
 N1047 N 0.94872 0.77120 0.96773
 C1048 C 0.96979 0.75863 0.96848
 N1049 N 0.97484 0.74378 0.94967
 N1050 N 0.95992 0.74212 0.93082
 C1051 C 0.92208 0.75318 0.91003
 N1052 N 0.92837 0.74258 0.88890
 N1053 N 0.91266 0.74146 0.87067
 C1054 C 0.89011 0.75074 0.87304
 N1055 N 0.88386 0.76119 0.89419
 N1056 N 0.89958 0.76248 0.91229
 C1057 C 0.87251 0.74963 0.85329
 N1058 N 0.84906 0.75507 0.85755
 N1059 N 0.83288 0.75438 0.83982
 C1060 C 0.83956 0.74842 0.81709
 N1061 N 0.86305 0.74302 0.81276
 N1062 N 0.87924 0.74354 0.83058
 C1063 C 0.43651 0.25169 0.41961
 N1064 N 0.43114 0.23882 0.43970
 N1065 N 0.44518 0.23992 0.45913
 C1066 C 0.46519 0.25395 0.45934
 N1067 N 0.47055 0.26688 0.43920
 N1068 N 0.45655 0.26567 0.41964
 C1069 C 0.41998 0.25132 0.39887
 N1070 N 0.42605 0.26145 0.37740
 N1071 N 0.41045 0.26156 0.35903
 C1072 C 0.38820 0.25173 0.36159
 N1073 N 0.38222 0.24162 0.38305
 N1074 N 0.39783 0.24133 0.40129
 C1075 C 0.37040 0.25241 0.34195
 N1076 N 0.34700 0.24733 0.34670
 N1077 N 0.33054 0.24791 0.32923
 C1078 C 0.33686 0.25342 0.30625
 N1079 N 0.36031 0.25844 0.30139
 N1080 N 0.37679 0.25806 0.31897
 C1081 C 0.06241 0.76325 0.08744
 N1082 N 0.04451 0.74666 0.08909
 N1083 N 0.02653 0.74644 0.07308
 C1084 C 0.02556 0.76315 0.05517
 N1085 N 0.04329 0.77989 0.05379
 N1086 N 0.06131 0.78002 0.06966
 C1087 C 0.08365 0.76193 0.10325
 N1088 N 0.10379 0.77478 0.09799
 N1089 N 0.12351 0.77282 0.11164
 C1090 C 0.12377 0.75794 0.13109
 N1091 N 0.10360 0.74518 0.13640
 N1092 N 0.08396 0.74700 0.12265
 C1093 C 0.14505 0.75617 0.14680
 N1094 N 0.14304 0.74545 0.16867
 N1095 N 0.16173 0.74465 0.18367
 C1096 C 0.18329 0.75423 0.17735
 N1097 N 0.18553 0.76468 0.15529
 N1098 N 0.16667 0.76569 0.14029
 C1099 C 0.55334 0.26482 0.58285
 N1100 N 0.53502 0.24860 0.58304
 N1101 N 0.51786 0.24933 0.56613
 C1102 C 0.51824 0.26652 0.54863
 N1103 N 0.53617 0.28312 0.54902
 N1104 N 0.55334 0.28232 0.56578
 C1105 C 0.57413 0.26225 0.59913
 N1106 N 0.59483 0.27442 0.59450
 N1107 N 0.61429 0.27125 0.60828
 C1108 C 0.61375 0.25582 0.62727
 N1109 N 0.59301 0.24375 0.63201
 N1110 N 0.57360 0.24676 0.61809
 C1111 C 0.63495 0.25270 0.64291
 N1112 N 0.63254 0.24197 0.66474
 N1113 N 0.65132 0.24005 0.67958
 C1114 C 0.67333 0.24848 0.67310
 N1115 N 0.67591 0.25892 0.65108
 N1116 N 0.65700 0.26105 0.63627
 C1117 C 0.90992 0.24059 0.06283
 N1118 N 0.91027 0.22418 0.04470
 N1119 N 0.92815 0.22408 0.02863
 C1120 C 0.94615 0.24061 0.02987
 N1121 N 0.94544 0.25722 0.04781
 N1122 N 0.92773 0.25721 0.06394
 C1123 C 0.89171 0.23953 0.08205
 N1124 N 0.89542 0.25149 0.10305
 N1125 N 0.87958 0.24998 0.12099
 C1126 C 0.85932 0.23657 0.11857
 N1127 N 0.85549 0.22472 0.09750
 N1128 N 0.87147 0.22604 0.07961
 C1129 C 0.84183 0.23510 0.13841
 N1130 N 0.81916 0.22690 0.13439
 N1131 N 0.80314 0.22618 0.15223
 C1132 C 0.80925 0.23335 0.17484
 N1133 N 0.83200 0.24132 0.17893
 N1134 N 0.84796 0.24228 0.16101
 C1135 C 0.41618 0.73914 0.57267
 N1136 N 0.41336 0.73271 0.54918
 N1137 N 0.43176 0.73438 0.53378
 C1138 C 0.45359 0.74265 0.54127
 N1139 N 0.45612 0.74919 0.56471
 N1140 N 0.43788 0.74745 0.58006
 C1141 C 0.39662 0.73690 0.59034
 N1142 N 0.40139 0.74086 0.61400
 N1143 N 0.38411 0.73902 0.63046
 C1144 C 0.36131 0.73323 0.62391
 N1145 N 0.35642 0.72926 0.60020
 N1146 N 0.37381 0.73100 0.58369
 C1147 C 0.34244 0.73169 0.64238
 N1148 N 0.31893 0.72870 0.63628
 N1149 N 0.30198 0.72802 0.65328
 C1150 C 0.30795 0.73021 0.67696
 N1151 N 0.33147 0.73303 0.68301
 N1152 N 0.34837 0.73380 0.66605
 C1153 C 0.25328 0.07615 0.93548
 N1154 N 0.26246 0.05494 0.92771
 N1155 N 0.26226 0.03560 0.94187
 C1156 C 0.25291 0.03647 0.96449
 N1157 N 0.24368 0.05785 0.97219
 N1158 N 0.24394 0.07733 0.95804
 C1159 C 0.25268 0.09688 0.91902
 N1160 N 0.24538 0.11902 0.92645
 N1161 N 0.24449 0.13744 0.91094
 C1162 C 0.25071 0.13426 0.88748
 N1163 N 0.25799 0.11214 0.88015
 N1164 N 0.25901 0.09384 0.89563
 C1165 C 0.24940 0.15402 0.86990
 N1166 N 0.25236 0.14923 0.84613
 N1167 N 0.25138 0.16682 0.82984
 C1168 C 0.24753 0.18994 0.83669
 N1169 N 0.24458 0.19482 0.86050
 N1170 N 0.24542 0.17714 0.87684
 C1171 C 0.75494 0.57887 0.43860
 N1172 N 0.76806 0.55890 0.43352
 N1173 N 0.76692 0.53956 0.44768
 C1174 C 0.75261 0.53934 0.46750
 N1175 N 0.73949 0.55939 0.47262
 N1176 N 0.74074 0.57885 0.45851
 C1177 C 0.75517 0.59940 0.42185
 N1178 N 0.74473 0.62076 0.42767
 N1179 N 0.74438 0.63892 0.41187
 C1180 C 0.75425 0.63626 0.38963
 N1181 N 0.76467 0.61493 0.38389
 N1182 N 0.76520 0.59688 0.39972
 C1183 C 0.75331 0.65576 0.37171
 N1184 N 0.75846 0.65107 0.34829
 N1185 N 0.75758 0.66851 0.33179
 C1186 C 0.75170 0.69136 0.33811
 N1187 N 0.74661 0.69612 0.36157
 N1188 N 0.74729 0.67860 0.37808
 C1189 C 0.72785 0.05251 0.07264
 N1190 N 0.71517 0.05786 0.05245
 N1191 N 0.71457 0.04260 0.03409
 C1192 C 0.72658 0.02123 0.03493
 N1193 N 0.73914 0.01583 0.05538
 N1194 N 0.73971 0.03111 0.07392
 C1195 C 0.72958 0.07054 0.09182
 N1196 N 0.73986 0.06540 0.11350
 N1197 N 0.74163 0.08237 0.13039
 C1198 C 0.73341 0.10507 0.12606
 N1199 N 0.72321 0.11012 0.10439
 N1200 N 0.72129 0.09317 0.08763
 C1201 C 0.73531 0.12403 0.14428
 N1202 N 0.73053 0.14726 0.13820
 N1203 N 0.73167 0.16462 0.15465
 C1204 C 0.73750 0.15936 0.17784
 N1205 N 0.74234 0.13612 0.18395
 N1206 N 0.74136 0.11876 0.16744
 C1207 C 0.23172 0.55160 0.57149
 N1208 N 0.21666 0.55405 0.55235
 N1209 N 0.21776 0.53873 0.53399
 C1210 C 0.23395 0.52035 0.53399
 N1211 N 0.24902 0.51790 0.55321
 N1212 N 0.24781 0.53313 0.57171
 C1213 C 0.23153 0.56964 0.59075
 N1214 N 0.24353 0.56580 0.61178
 N1215 N 0.24390 0.58270 0.62880
 C1216 C 0.23254 0.60412 0.62525
 N1217 N 0.22058 0.60794 0.60421
 N1218 N 0.22002 0.59098 0.58731
 C1219 C 0.23330 0.62299 0.64368
 N1220 N 0.22682 0.64594 0.63810
 N1221 N 0.22749 0.66314 0.65477
 C1222 C 0.23448 0.65795 0.67768
 N1223 N 0.24090 0.63498 0.68327
 N1224 N 0.24045 0.61783 0.66654
 C1225 C 0.74246 0.93287 0.91317
 N1226 N 0.75670 0.95274 0.91395
 N1227 N 0.75369 0.96925 0.93115
 C1228 C 0.73598 0.96674 0.94784
 N1229 N 0.72176 0.94690 0.94693
 N1230 N 0.72488 0.93035 0.92992
 C1231 C 0.74669 0.91355 0.89555
 N1232 N 0.73664 0.89154 0.89896
 N1233 N 0.74073 0.87368 0.88351
 C1234 C 0.75492 0.87719 0.86394
 N1235 N 0.76491 0.89925 0.86042
 N1236 N 0.76101 0.91707 0.87603
 C1237 C 0.75893 0.85752 0.84667
 N1238 N 0.76788 0.86215 0.82438
 N1239 N 0.77053 0.84446 0.80841
 C1240 C 0.76461 0.82143 0.81419
 N1241 N 0.75594 0.81674 0.83658
 N1242 N 0.75307 0.83448 0.85248
 C1243 C 0.25823 0.43634 0.40847
 N1244 N 0.24278 0.45532 0.40672
 N1245 N 0.23993 0.47044 0.42520
 C1246 C 0.25261 0.46725 0.44600
 N1247 N 0.26835 0.44853 0.44739
 N1248 N 0.27110 0.43340 0.42906
 C1249 C 0.25993 0.41808 0.38938
 N1250 N 0.27110 0.39677 0.39403
 N1251 N 0.27188 0.37952 0.37744
 C1252 C 0.26164 0.38295 0.35546
 N1253 N 0.25063 0.40434 0.35067
 N1254 N 0.24966 0.42156 0.36738
 C1255 C 0.26220 0.36360 0.33741
 N1256 N 0.25630 0.36812 0.31406
 N1257 N 0.25679 0.35051 0.29779
 C1258 C 0.26297 0.32770 0.30428
 N1259 N 0.26877 0.32316 0.32765
 N1260 N 0.26849 0.34081 0.34388
 C1261 C 0.24241 0.91576 0.05444
 N1262 N 0.25974 0.91604 0.03717
 N1263 N 0.25919 0.93244 0.01954
 C1264 C 0.24104 0.94888 0.01830
 N1265 N 0.22345 0.94811 0.03527
 N1266 N 0.22408 0.93187 0.05295
 C1267 C 0.24453 0.89993 0.07561
 N1268 N 0.23109 0.90422 0.09559
 N1269 N 0.23382 0.89078 0.11537
 C1270 C 0.25007 0.87249 0.11584
 N1271 N 0.26340 0.86810 0.09581
 N1272 N 0.26083 0.88168 0.07612
 C1273 C 0.25274 0.85711 0.13729
 N1274 N 0.26445 0.83576 0.13553
 N1275 N 0.26605 0.82109 0.15447
 C1276 C 0.25634 0.82731 0.17602
 N1277 N 0.24491 0.84887 0.17797
 N1278 N 0.24308 0.86349 0.15888
 C1279 C 0.73718 0.41425 0.55310
 N1280 N 0.75351 0.41387 0.53487
 N1281 N 0.75385 0.43142 0.51836
 C1282 C 0.73765 0.44979 0.51932
 N1283 N 0.72097 0.44968 0.53720
 N1284 N 0.72071 0.43229 0.55372
 C1285 C 0.73853 0.39697 0.57318
 N1286 N 0.72659 0.40155 0.59403
 N1287 N 0.72868 0.38679 0.61290
 C1288 C 0.74273 0.36683 0.61159
 N1289 N 0.75454 0.36212 0.59068
 N1290 N 0.75263 0.37702 0.57186
 C1291 C 0.74483 0.35037 0.63228
 N1292 N 0.75402 0.32795 0.62925
 N1293 N 0.75528 0.31265 0.64772
 C1294 C 0.74770 0.31924 0.67002
 N1295 N 0.73875 0.34179 0.67318
 N1296 N 0.73727 0.35705 0.65460
 C1297 C 0.06376 0.08752 0.75532
 N1298 N 0.04548 0.08689 0.77158
 N1299 N 0.02997 0.06854 0.77185
 C1300 C 0.03193 0.05033 0.75562
 N1301 N 0.04999 0.05131 0.73915
 N1302 N 0.06556 0.06949 0.73900
 C1303 C 0.08250 0.10621 0.75631
 N1304 N 0.10381 0.10271 0.74484
 N1305 N 0.12136 0.11896 0.74633
 C1306 C 0.11822 0.13945 0.75921
 N1307 N 0.09683 0.14308 0.77056
 N1308 N 0.07934 0.12668 0.76928
 C1309 C 0.13765 0.15739 0.76070
 N1310 N 0.13294 0.18021 0.76803
 N1311 N 0.15045 0.19657 0.76883
 C1312 C 0.17338 0.19069 0.76261
 N1313 N 0.17816 0.16780 0.75551
 N1314 N 0.16059 0.15148 0.75446
 C1315 C 0.57152 0.58575 0.25538
 N1316 N 0.54974 0.58925 0.24461
 N1317 N 0.53404 0.57115 0.24271
 C1318 C 0.53950 0.54895 0.25164
 N1319 N 0.56122 0.54572 0.26255
 N1320 N 0.57688 0.56368 0.26436
 C1321 C 0.58961 0.60498 0.25684
 N1322 N 0.61224 0.59969 0.26460
 N1323 N 0.62906 0.61668 0.26576
 C1324 C 0.62387 0.63969 0.25930
 N1325 N 0.60120 0.64508 0.25160
 N1326 N 0.58437 0.62800 0.25032
 C1327 C 0.64264 0.65828 0.26055
 N1328 N 0.63709 0.68186 0.25714
 N1329 N 0.65420 0.69861 0.25833
 C1330 C 0.67748 0.69242 0.26284
 N1331 N 0.68303 0.66882 0.26619
 N1332 N 0.66591 0.65208 0.26514
 C1333 C 0.08712 0.94436 0.22962
 N1334 N 0.08957 0.96574 0.24127
 N1335 N 0.07191 0.98214 0.24060
 C1336 C 0.05114 0.97783 0.22822
 N1337 N 0.04934 0.95669 0.21603
 N1338 N 0.06685 0.94037 0.21669
 C1339 C 0.10483 0.92479 0.23229
 N1340 N 0.09943 0.90247 0.22392
 N1341 N 0.11458 0.88412 0.22715
 C1342 C 0.13578 0.88740 0.23887
 N1343 N 0.14130 0.90975 0.24715
 N1344 N 0.12604 0.92811 0.24404
 C1345 C 0.15256 0.86715 0.24227
 N1346 N 0.17523 0.87114 0.25042
 N1347 N 0.19075 0.85298 0.25281
 C1348 C 0.18417 0.83007 0.24737
 N1349 N 0.16138 0.82598 0.23944
 N1350 N 0.14587 0.84422 0.23689
 C1351 C 0.58642 0.44280 0.75834
 N1352 N 0.58554 0.46066 0.74152
 N1353 N 0.56874 0.47787 0.74274
 C1354 C 0.55245 0.47800 0.76101
 N1355 N 0.55396 0.46054 0.77815
 N1356 N 0.57059 0.44332 0.77687
 C1357 C 0.60248 0.42192 0.75553
 N1358 N 0.59824 0.40144 0.76828
 N1359 N 0.61188 0.38194 0.76517
 C1360 C 0.63037 0.38221 0.74923
 N1361 N 0.63472 0.40273 0.73655
 N1362 N 0.62090 0.42218 0.73949
 C1363 C 0.64600 0.36102 0.74644
 N1364 N 0.66791 0.36333 0.73597
 N1365 N 0.68282 0.34458 0.73471
 C1366 C 0.67632 0.32272 0.74355
 N1367 N 0.65421 0.32023 0.75366
 N1368 N 0.63935 0.33910 0.75516
 C1369 C 0.92617 0.06287 0.24619
 N1370 N 0.92679 0.04531 0.22924
 N1371 N 0.94579 0.03070 0.22755
 C1372 C 0.96470 0.03279 0.24303
 N1373 N 0.96407 0.05049 0.25987
 N1374 N 0.94520 0.06525 0.26141
 C1375 C 0.90573 0.07962 0.24755
 N1376 N 0.90786 0.10059 0.25987
 N1377 N 0.88964 0.11620 0.26061
 C1378 C 0.86851 0.11132 0.24927
 N1379 N 0.86627 0.09025 0.23711
 N1380 N 0.88461 0.07472 0.23617
 C1381 C 0.84872 0.12889 0.24974
 N1382 N 0.82595 0.12246 0.24349
 N1383 N 0.80813 0.13861 0.24381
 C1384 C 0.81253 0.16180 0.25013
 N1385 N 0.83531 0.16820 0.25629
 N1386 N 0.85305 0.15202 0.25622
 C1387 C 0.42263 0.55905 0.74928
 N1388 N 0.42412 0.54084 0.76562
 N1389 N 0.44388 0.52718 0.76697
 C1390 C 0.46275 0.53101 0.75186
 N1391 N 0.46116 0.54927 0.73559
 N1392 N 0.44153 0.56302 0.73434
 C1393 C 0.40158 0.57507 0.74839
 N1394 N 0.40275 0.59604 0.73584
 N1395 N 0.38418 0.61124 0.73559
 C1396 C 0.36364 0.60596 0.74769
 N1397 N 0.36231 0.58486 0.76008
 N1398 N 0.38101 0.56971 0.76050
 C1399 C 0.34378 0.62346 0.74802
 N1400 N 0.32141 0.61727 0.75575
 N1401 N 0.30371 0.63358 0.75622
 C1402 C 0.30789 0.65666 0.74923
 N1403 N 0.33025 0.66277 0.74156
 N1404 N 0.34782 0.64646 0.74086
 C1405 C 0.95020 0.92232 0.76482
 N1406 N 0.94785 0.93934 0.78212
 N1407 N 0.96318 0.95768 0.78330
 C1408 C 0.98147 0.95979 0.76721
 N1409 N 0.98392 0.94261 0.74997
 N1410 N 0.96868 0.92410 0.74891
 C1411 C 0.93181 0.90357 0.76224
 N1412 N 0.93561 0.88405 0.74805
 N1413 N 0.91832 0.86771 0.74502
 C1414 C 0.89653 0.87051 0.75577
 N1415 N 0.89275 0.89003 0.76991
 N1416 N 0.91011 0.90622 0.77315
 C1417 C 0.87728 0.85283 0.75217
 N1418 N 0.85410 0.85844 0.75762
 N1419 N 0.83660 0.84233 0.75464
 C1420 C 0.84171 0.81996 0.74628
 N1421 N 0.86489 0.81434 0.74085
 N1422 N 0.88235 0.83053 0.74358
 C1423 C 0.44499 0.42896 0.24287
 N1424 N 0.44082 0.44871 0.25651
 N1425 N 0.45718 0.46606 0.25805
 C1426 C 0.47840 0.46444 0.24603
 N1427 N 0.48264 0.44460 0.23237
 N1428 N 0.46627 0.42708 0.23093
 C1429 C 0.42611 0.41067 0.24052
 N1430 N 0.43059 0.38905 0.23007
 N1431 N 0.41312 0.37273 0.22806
 C1432 C 0.39054 0.37757 0.23619
 N1433 N 0.38609 0.39922 0.24651
 N1434 N 0.40357 0.41543 0.24869
 C1435 C 0.37129 0.35963 0.23432
 N1436 N 0.34807 0.36578 0.23902
 N1437 N 0.33062 0.34938 0.23793
 C1438 C 0.33583 0.32619 0.23228
 N1439 N 0.35905 0.32006 0.22755
 N1440 N 0.37646 0.33649 0.22846
   
