data_POSCAR
  _audit_creation_date              2014-09-24
  _audit_creation_method            'ToBaCCo'
  _symmetry_space_group_name_H-M    'P1'
  _symmetry_Int_Tables_number       1
  _symmetry_cell_setting            triclinic
  loop_
  _symmetry_equiv_pos_as_xyz
 x,y,z
_cell_length_a 53.1841
_cell_length_b 55.0980
_cell_length_c 57.3293
_cell_angle_alpha 90.186100
_cell_angle_beta 89.991200
_cell_angle_gamma 90.182600
loop_
  _atom_site_label
  _atom_site_type_symbol
  _atom_site_fract_x
  _atom_site_fract_y
  _atom_site_fract_z
C1 C 0.29433 0.32445 0.01029
 C2 C 0.29946 0.32932 -0.01356
 C3 C 0.31731 0.31475 -0.02511
 C4 C 0.32979 0.29543 -0.01402
 C5 C 0.32384 0.29045 0.00966
 C6 C 0.30598 0.30475 0.02128
 H7 H 0.30267 0.30175 0.03972
 H8 H 0.32025 0.31734 -0.04363
 C9 C 0.70494 0.67553 0.01316
 C10 C 0.70451 0.67275 -0.01130
 C11 C 0.68825 0.68716 -0.02455
 C12 C 0.67223 0.70445 -0.01414
 C13 C 0.67327 0.70741 0.01055
 C14 C 0.68985 0.69319 0.02373
 H15 H 0.68968 0.69466 0.04260
 H16 H 0.68878 0.68531 -0.04337
 C17 C 0.71485 0.32158 0.99433
 C18 C 0.71480 0.32296 1.01908
 C19 C 0.70074 0.30570 1.03166
 C20 C 0.68544 0.28841 1.02036
 C21 C 0.68537 0.28733 0.99565
 C22 C 0.70032 0.30378 0.98312
 H23 H 0.70051 0.30285 0.96422
 H24 H 0.70034 0.30667 1.05055
 C25 C 0.28555 0.67722 0.98969
 C26 C 0.28409 0.67975 1.01441
 C27 C 0.29987 0.69715 1.02529
 C28 C 0.31863 0.70981 1.01284
 C29 C 0.32004 0.70668 0.98829
 C30 C 0.30325 0.69087 0.97721
 H31 H 0.30369 0.68944 0.95834
 H32 H 0.29983 0.69867 1.04414
 C33 C 0.01154 0.30250 0.33400
 C34 C -0.01514 0.30291 0.33463
 C35 C -0.02806 0.31951 0.32048
 C36 C -0.01522 0.33562 0.30578
 C37 C 0.01131 0.33497 0.30504
 C38 C 0.02432 0.31842 0.31900
 H39 H 0.04471 0.31821 0.31843
 H40 H -0.04843 0.32004 0.32105
 C41 C 0.01188 0.69534 0.66656
 C42 C -0.01486 0.69697 0.66656
 C43 C -0.02839 0.68220 0.68226
 C44 C -0.01658 0.66582 0.69756
 C45 C 0.01010 0.66405 0.69692
 C46 C 0.02374 0.67895 0.68163
 H47 H 0.04407 0.67758 0.68128
 H48 H -0.04871 0.68328 0.68247
 C49 C 0.99616 0.70906 0.32489
 C50 C 1.02264 0.70830 0.32510
 C51 C 1.03521 0.69349 0.30896
 C52 C 1.02203 0.67880 0.29279
 C53 C 0.99520 0.68033 0.29236
 C54 C 0.98283 0.69549 0.30838
 H55 H 0.96247 0.69650 0.30823
 H56 H 1.05552 0.69251 0.31006
 C57 C 0.98545 0.28991 0.67693
 C58 C 1.01219 0.29056 0.67628
 C59 C 1.02481 0.30532 0.69267
 C60 C 1.01180 0.31921 0.70927
 C61 C 0.98517 0.31868 0.70954
 C62 C 0.97246 0.30363 0.69365
 H63 H 0.95207 0.30374 0.69328
 H64 H 1.04518 0.30541 0.69321
 C65 C 0.32577 0.01261 0.29932
 C66 C 0.32638 -0.01327 0.29901
 C67 C 0.31139 -0.02588 0.31536
 C68 C 0.29602 -0.01393 0.33179
 C69 C 0.29539 0.01182 0.33144
 C70 C 0.31002 0.02454 0.31526
 H71 H 0.30955 0.04423 0.31546
 H72 H 0.31192 -0.04553 0.31554
 C73 C 0.67880 0.00802 0.70525
 C74 C 0.67750 -0.01768 0.70443
 C75 C 0.69348 -0.03036 0.68919
 C76 C 0.70945 -0.01803 0.67369
 C77 C 0.70861 0.00767 0.67275
 C78 C 0.69395 0.02031 0.68908
 H79 H 0.69393 0.03998 0.68892
 H80 H 0.69317 -0.05003 0.68908
 C81 C 0.32730 0.99429 0.70461
 C82 C 0.32805 1.02014 0.70465
 C83 C 0.31369 1.03263 0.68786
 C84 C 0.29766 1.02049 0.67203
 C85 C 0.29644 0.99472 0.67298
 C86 C 0.31105 0.98216 0.68922
 H87 H 0.31104 0.96247 0.68874
 H88 H 0.31341 1.05229 0.68835
 C89 C 0.67181 0.98565 0.29765
 C90 C 0.67212 1.01133 0.29836
 C91 C 0.68673 1.02321 0.31536
 C92 C 0.70062 1.01037 0.33229
 C93 C 0.70024 0.98449 0.33126
 C94 C 0.68599 0.97274 0.31399
 H95 H 0.68587 0.95306 0.31332
 H96 H 0.68610 1.04286 0.31600
 O97 O 0.88695 0.84972 0.47454
 O98 O 0.85096 0.87810 0.52253
 O99 O 0.88753 0.84624 0.51963
 O100 O 0.85188 0.88209 0.47709
 O101 O 0.82394 0.85256 0.47414
 O102 O 0.85838 0.81764 0.51854
 O103 O 0.82222 0.84934 0.51937
 O104 O 0.85926 0.81979 0.47341
 Cu105 Cu 0.87213 0.86703 0.49880
 Cu106 Cu 0.83807 0.83195 0.49615
 C107 C 0.87933 0.82967 0.46603
 C108 C 0.83021 0.86868 0.52894
 C109 C 0.87916 0.82579 0.52625
 C110 C 0.83203 0.87334 0.46804
 O111 O 0.14472 0.11393 0.52210
 O112 O 0.11004 0.14779 0.47709
 O113 O 0.14472 0.11482 0.47653
 O114 O 0.10984 0.14708 0.52256
 O115 O 0.13887 0.17576 0.52299
 O116 O 0.17443 0.14288 0.47785
 O117 O 0.13947 0.17609 0.47759
 O118 O 0.17366 0.14268 0.52303
 Cu119 Cu 0.12441 0.12803 0.49954
 Cu120 Cu 0.15950 0.16224 0.50040
 C121 C 0.16511 0.12252 0.53028
 C122 C 0.11889 0.16773 0.46958
 C123 C 0.16560 0.12329 0.46943
 C124 C 0.11833 0.16700 0.53060
 O125 O 0.11400 0.85191 0.52792
 O126 O 0.14776 0.88744 0.48343
 O127 O 0.11440 0.85281 0.48238
 O128 O 0.14761 0.88616 0.52895
 O129 O 0.17832 0.85931 0.52766
 O130 O 0.14434 0.82520 0.48220
 O131 O 0.17769 0.85984 0.48245
 O132 O 0.14440 0.82477 0.52761
 Cu133 Cu 0.12791 0.87231 0.50573
 Cu134 Cu 0.16419 0.83951 0.50497
 C135 C 0.12345 0.83229 0.53544
 C136 C 0.16846 0.87970 0.47526
 C137 C 0.12367 0.83326 0.47435
 C138 C 0.16876 0.87853 0.53609
 O139 O 0.87417 0.15408 0.52524
 O140 O 0.83992 0.12404 0.47730
 O141 O 0.87722 0.15560 0.47997
 O142 O 0.83793 0.12284 0.52229
 O143 O 0.81141 0.15359 0.52307
 O144 O 0.84901 0.18486 0.47830
 O145 O 0.81216 0.15374 0.47733
 O146 O 0.84794 0.18502 0.52350
 Cu147 Cu 0.86011 0.13614 0.50108
 Cu148 Cu 0.82731 0.17227 0.50045
 C149 C 0.86698 0.17476 0.53243
 C150 C 0.81993 0.13355 0.46943
 C151 C 0.86986 0.17583 0.47195
 C152 C 0.81822 0.13281 0.53023
 O153 O 0.47378 0.87944 0.84133
 O154 O 0.52113 0.84901 0.87766
 O155 O 0.52232 0.87801 0.84177
 O156 O 0.47217 0.85019 0.87717
 O157 O 0.47175 0.81853 0.85352
 O158 O 0.52185 0.84622 0.81822
 O159 O 0.52034 0.81742 0.85392
 O160 O 0.47260 0.84764 0.81781
 Cu161 Cu 0.49739 0.86732 0.86189
 Cu162 Cu 0.49652 0.82933 0.83342
 C163 C 0.46519 0.86879 0.82333
 C164 C 0.52880 0.82797 0.87204
 C165 C 0.53063 0.86685 0.82396
 C166 C 0.46356 0.82945 0.87151
 O167 O 0.47227 0.11198 0.14663
 O168 O 0.52368 0.14228 0.11482
 O169 O 0.52138 0.10930 0.14718
 O170 O 0.47469 0.14626 0.11523
 O171 O 0.47755 0.17445 0.14255
 O172 O 0.52288 0.13739 0.17464
 O173 O 0.52592 0.17024 0.14238
 O174 O 0.47418 0.14016 0.17397
 Cu175 Cu 0.49772 0.12463 0.12822
 Cu176 Cu 0.50025 0.15833 0.16114
 C177 C 0.46453 0.12077 0.16582
 C178 C 0.53362 0.16143 0.12315
 C179 C 0.53010 0.11715 0.16646
 C180 C 0.46854 0.16692 0.12335
 O181 O 0.53146 0.11851 0.84637
 O182 O 0.48155 0.14812 0.88088
 O183 O 0.48240 0.12008 0.84438
 O184 O 0.52999 0.14682 0.88348
 O185 O 0.53346 0.17837 0.86003
 O186 O 0.48443 0.15245 0.82190
 O187 O 0.48475 0.18051 0.85853
 O188 O 0.53311 0.15037 0.82323
 Cu189 Cu 0.50624 0.13008 0.86600
 Cu190 Cu 0.50924 0.16862 0.83864
 C191 C 0.54050 0.12925 0.82863
 C192 C 0.47486 0.16957 0.87573
 C193 C 0.47509 0.13177 0.82656
 C194 C 0.53960 0.16731 0.87858
 O195 O 0.47153 0.85743 0.11325
 O196 O 0.52165 0.89018 0.14468
 O197 O 0.52115 0.85722 0.11176
 O198 O 0.47371 0.89045 0.14592
 O199 O 0.47391 0.86130 0.17227
 O200 O 0.52132 0.82808 0.13811
 O201 O 0.52269 0.86100 0.17098
 O202 O 0.47274 0.82821 0.13950
 Cu203 Cu 0.49696 0.87655 0.12600
 Cu204 Cu 0.49773 0.84172 0.15784
 C205 C 0.46359 0.83724 0.12104
 C206 C 0.53027 0.88144 0.16351
 C207 C 0.52934 0.83700 0.11911
 C208 C 0.46615 0.88179 0.16519
 O209 O 0.84698 0.47426 0.87918
 O210 O 0.88032 0.52337 0.84837
 O211 O 0.84460 0.52148 0.87951
 O212 O 0.88265 0.47637 0.84779
 O213 O 0.85354 0.47427 0.82039
 O214 O 0.81633 0.52038 0.85137
 O215 O 0.85216 0.52158 0.82018
 O216 O 0.81815 0.47351 0.85152
 Cu217 Cu 0.86649 0.49899 0.86653
 Cu218 Cu 0.83224 0.49737 0.83302
 C219 C 0.82670 0.46567 0.87074
 C220 C 0.87208 0.53069 0.82884
 C221 C 0.82388 0.52857 0.87089
 C222 C 0.87453 0.46759 0.82869
 O223 O 0.14670 0.47173 0.11818
 O224 O 0.11272 0.51930 0.15045
 O225 O 0.14505 0.51896 0.11574
 O226 O 0.11483 0.47229 0.15207
 O227 O 0.14577 0.47543 0.17761
 O228 O 0.17602 0.52211 0.14121
 O229 O 0.14423 0.52236 0.17535
 O230 O 0.17824 0.47479 0.14306
 Cu231 Cu 0.12671 0.49543 0.13153
 Cu232 Cu 0.16427 0.49885 0.16178
 C233 C 0.16824 0.46506 0.12518
 C234 C 0.12255 0.52880 0.16852
 C235 C 0.16567 0.52851 0.12226
 C236 C 0.12508 0.46600 0.17110
 O237 O 0.85204 0.52923 0.12270
 O238 O 0.88540 0.48330 0.15720
 O239 O 0.85350 0.48155 0.12298
 O240 O 0.88331 0.53048 0.15746
 O241 O 0.85166 0.52916 0.18231
 O242 O 0.82157 0.48099 0.14761
 O243 O 0.85380 0.48207 0.18212
 O244 O 0.82024 0.52797 0.14743
 Cu245 Cu 0.87168 0.50624 0.13753
 Cu246 Cu 0.83365 0.50491 0.16736
 C247 C 0.83050 0.53651 0.12920
 C248 C 0.87540 0.47490 0.17562
 C249 C 0.83241 0.47299 0.12944
 C250 C 0.87258 0.53809 0.17589
 O251 O 0.12329 0.47374 0.84027
 O252 O 0.15328 0.52425 0.87255
 O253 O 0.12228 0.52076 0.83712
 O254 O 0.15374 0.47710 0.87580
 O255 O 0.18586 0.47551 0.85150
 O256 O 0.15521 0.52048 0.81367
 O257 O 0.18582 0.52231 0.84876
 O258 O 0.15533 0.47329 0.81584
 Cu259 Cu 0.13488 0.49911 0.85885
 Cu260 Cu 0.17376 0.49771 0.83000
 C261 C 0.13413 0.46509 0.82233
 C262 C 0.17491 0.53168 0.86628
 C263 C 0.13341 0.52814 0.81886
 C264 C 0.17524 0.46887 0.87030
 C265 C 0.29031 0.36569 0.02798
 C266 C 0.27779 0.38248 0.04205
 C267 C 0.25541 0.37607 0.05330
 C268 C 0.24594 0.35232 0.05083
 C269 C 0.25880 0.33531 0.03716
 C270 C 0.28082 0.34204 0.02531
 N271 N 0.24271 0.39400 0.06701
 N272 N 0.21973 0.39183 0.07282
 C273 C 0.20725 0.40987 0.08659
 C274 C 0.18096 0.41056 0.08666
 C275 C 0.16826 0.42857 0.09916
 C276 C 0.18172 0.44584 0.11230
 C277 C 0.20810 0.44473 0.11273
 C278 C 0.22080 0.42705 0.09977
 H279 H 0.30746 0.37108 0.01918
 H280 H 0.28532 0.40067 0.04391
 H281 H 0.22877 0.34693 0.05957
 H282 H 0.25134 0.31708 0.03541
 H283 H 0.17032 0.39739 0.07663
 H284 H 0.14791 0.42892 0.09866
 H285 H 0.21890 0.45785 0.12269
 H286 H 0.24115 0.42674 0.10010
 C287 C 0.70931 0.63429 0.03012
 C288 C 0.72193 0.61749 0.04399
 C289 C 0.74405 0.62410 0.05562
 C290 C 0.75314 0.64802 0.05374
 C291 C 0.74014 0.66504 0.04030
 C292 C 0.71838 0.65812 0.02814
 N293 N 0.75678 0.60623 0.06925
 N294 N 0.77978 0.60840 0.07499
 C295 C 0.79213 0.59048 0.08889
 C296 C 0.81841 0.58946 0.08886
 C297 C 0.83093 0.57172 0.10177
 C298 C 0.81729 0.55512 0.11542
 C299 C 0.79093 0.55650 0.11582
 C300 C 0.77841 0.57387 0.10246
 H301 H 0.69245 0.62875 0.02091
 H302 H 0.71471 0.59916 0.04539
 H303 H 0.77010 0.65355 0.06278
 H304 H 0.74728 0.68342 0.03897
 H305 H 0.82918 0.60220 0.07852
 H306 H 0.85128 0.57115 0.10130
 H307 H 0.77998 0.54389 0.12617
 H308 H 0.75807 0.57444 0.10288
 C309 C 0.75705 0.33937 0.98426
 C310 C 0.77212 0.35477 0.97084
 C311 C 0.76171 0.36793 0.95240
 C312 C 0.73596 0.36540 0.94737
 C313 C 0.72084 0.35017 0.96089
 C314 C 0.73118 0.33723 0.97962
 N315 N 0.77746 0.38411 0.93939
 N316 N 0.76942 0.39521 0.92147
 C317 C 0.78462 0.41200 0.90865
 C318 C 0.80868 0.41899 0.91634
 C319 C 0.82254 0.43626 0.90389
 C320 C 0.81262 0.44670 0.88353
 C321 C 0.78869 0.43931 0.87577
 C322 C 0.77484 0.42219 0.88830
 H323 H 0.76551 0.32927 0.99839
 H324 H 0.79194 0.35652 0.97485
 H325 H 0.72745 0.37543 0.93323
 H326 H 0.70095 0.34881 0.95701
 H327 H 0.81661 0.41139 0.93208
 H328 H 0.84091 0.44155 0.91030
 H329 H 0.78048 0.44703 0.86019
 H330 H 0.75630 0.41697 0.88225
 C331 C 0.24213 0.66269 0.97842
 C332 C 0.22644 0.64738 0.96531
 C333 C 0.23674 0.63109 0.94914
 C334 C 0.26298 0.63015 0.94631
 C335 C 0.27860 0.64516 0.95952
 C336 C 0.26839 0.66151 0.97576
 N337 N 0.22051 0.61541 0.93593
 N338 N 0.22924 0.60272 0.91923
 C339 C 0.21448 0.58609 0.90576
 C340 C 0.22587 0.57468 0.88673
 C341 C 0.21279 0.55740 0.87369
 C342 C 0.18797 0.55103 0.87958
 C343 C 0.17636 0.56275 0.89857
 C344 C 0.18952 0.58024 0.91157
 H345 H 0.23386 0.67533 0.99069
 H346 H 0.20627 0.64829 0.96767
 H347 H 0.27147 0.61763 0.93407
 H348 H 0.29877 0.64381 0.95727
 H349 H 0.24513 0.57903 0.88216
 H350 H 0.22233 0.54874 0.85922
 H351 H 0.15727 0.55823 0.90352
 H352 H 0.18041 0.58883 0.92631
 C353 C 0.04534 0.29686 0.36364
 C354 C 0.05923 0.28239 0.37880
 C355 C 0.05475 0.25742 0.38002
 C356 C 0.03652 0.24684 0.36537
 C357 C 0.02278 0.26131 0.34993
 C358 C 0.02677 0.28653 0.34927
 N359 N 0.06879 0.24347 0.39651
 N360 N 0.06416 0.22123 0.40068
 C361 C 0.07843 0.20790 0.41751
 C362 C 0.07091 0.18433 0.42335
 C363 C 0.08404 0.17120 0.44025
 C364 C 0.10511 0.18142 0.45147
 C365 C 0.11281 0.20498 0.44532
 C366 C 0.09956 0.21814 0.42858
 H367 H 0.04875 0.31625 0.36344
 H368 H 0.07326 0.29072 0.38997
 H369 H 0.03288 0.22751 0.36590
 H370 H 0.00882 0.25290 0.33874
 H371 H 0.05467 0.17623 0.41496
 H372 H 0.07769 0.15306 0.44453
 H373 H 0.12893 0.21338 0.45363
 H374 H 0.10580 0.23631 0.42434
 C375 C 0.04648 0.70057 0.63740
 C376 C 0.06128 0.71507 0.62289
 C377 C 0.05818 0.74026 0.62267
 C378 C 0.04056 0.75099 0.63778
 C379 C 0.02595 0.73651 0.65257
 C380 C 0.02837 0.71111 0.65209
 N381 N 0.07274 0.75434 0.60659
 N382 N 0.06870 0.77679 0.60311
 C383 C 0.08314 0.79057 0.58668
 C384 C 0.07574 0.81429 0.58147
 C385 C 0.08886 0.82790 0.56488
 C386 C 0.10985 0.81805 0.55334
 C387 C 0.11751 0.79436 0.55890
 C388 C 0.10421 0.78069 0.57533
 H389 H 0.04874 0.68105 0.63678
 H390 H 0.07484 0.70661 0.61138
 H391 H 0.03799 0.77047 0.63806
 H392 H 0.01240 0.74504 0.66404
 H393 H 0.05955 0.82212 0.59009
 H394 H 0.08255 0.84613 0.56107
 H395 H 0.13357 0.78625 0.55031
 H396 H 0.11035 0.76240 0.57909
 C397 C 0.98002 0.71280 0.36550
 C398 C 0.96656 0.72523 0.38268
 C399 C 0.95531 0.74754 0.37766
 C400 C 0.95721 0.75715 0.35503
 C401 C 0.97018 0.74442 0.33767
 C402 C 0.98188 0.72233 0.34292
 N403 N 0.94161 0.75974 0.39567
 N404 N 0.93653 0.78227 0.39472
 C405 C 0.92210 0.79392 0.41260
 C406 C 0.92330 0.81919 0.41501
 C407 C 0.90962 0.83091 0.43258
 C408 C 0.89399 0.81750 0.44756
 C409 C 0.89249 0.79219 0.44483
 C410 C 0.90661 0.78046 0.42766
 H411 H 0.98891 0.69571 0.36973
 H412 H 0.96510 0.71762 0.40001
 H413 H 0.94841 0.77425 0.35074
 H414 H 0.97143 0.75191 0.32026
 H415 H 0.93510 0.82976 0.40346
 H416 H 0.91099 0.85046 0.43426
 H417 H 0.88065 0.78143 0.45620
 H418 H 0.90523 0.76093 0.42599
 C419 C 0.97140 0.28691 0.63546
 C420 C 0.95739 0.27566 0.61785
 C421 C 0.94253 0.25533 0.62286
 C422 C 0.94112 0.24678 0.64590
 C423 C 0.95462 0.25841 0.66364
 C424 C 0.97025 0.27822 0.65841
 N425 N 0.92904 0.24373 0.60431
 N426 N 0.92163 0.22180 0.60574
 C427 C 0.90774 0.21038 0.58735
 C428 C 0.90700 0.18503 0.58611
 C429 C 0.89399 0.17338 0.56807
 C430 C 0.88091 0.18701 0.55136
 C431 C 0.88124 0.21246 0.55290
 C432 C 0.89479 0.22408 0.57060
 H433 H 0.98318 0.30235 0.63122
 H434 H 0.95848 0.28248 0.60019
 H435 H 0.92949 0.23126 0.65017
 H436 H 0.95342 0.25164 0.68132
 H437 H 0.91685 0.17429 0.59898
 H438 H 0.89387 0.15374 0.56734
 H439 H 0.87133 0.22336 0.54019
 H440 H 0.89496 0.24372 0.57135
 C441 C 0.35686 0.04593 0.29288
 C442 C 0.37185 0.06023 0.27841
 C443 C 0.37121 0.05706 0.25422
 C444 C 0.35474 0.03975 0.24449
 C445 C 0.33941 0.02558 0.25899
 C446 C 0.34077 0.02821 0.28337
 N447 N 0.38794 0.07132 0.24021
 N448 N 0.39091 0.06784 0.21843
 C449 C 0.40832 0.08213 0.20512
 C450 C 0.41351 0.07551 0.18204
 C451 C 0.43152 0.08825 0.16910
 C452 C 0.44449 0.10805 0.17902
 C453 C 0.43874 0.11505 0.20201
 C454 C 0.42091 0.10217 0.21497
 H455 H 0.35817 0.04833 0.31161
 H456 H 0.38442 0.07353 0.28610
 H457 H 0.35382 0.03711 0.22579
 H458 H 0.32687 0.01228 0.25128
 H459 H 0.40395 0.06013 0.17422
 H460 H 0.43545 0.08245 0.15141
 H461 H 0.44839 0.13019 0.21017
 H462 H 0.41718 0.10773 0.23276
 C463 C 0.66543 0.01648 0.74654
 C464 C 0.65106 0.02939 0.76278
 C465 C 0.63601 0.04876 0.75560
 C466 C 0.63556 0.05520 0.73188
 C467 C 0.64967 0.04213 0.71560
 C468 C 0.66454 0.02248 0.72273
 N469 N 0.62088 0.06120 0.77249
 N470 N 0.60900 0.08048 0.76740
 C471 C 0.59302 0.09277 0.78366
 C472 C 0.58670 0.08265 0.80537
 C473 C 0.56988 0.09463 0.82023
 C474 C 0.55931 0.11697 0.81368
 C475 C 0.56616 0.12717 0.79213
 C476 C 0.58275 0.11509 0.77726
 H477 H 0.67703 0.00163 0.75251
 H478 H 0.65161 0.02427 0.78099
 H479 H 0.62398 0.07004 0.72587
 H480 H 0.64857 0.04704 0.69736
 H481 H 0.59436 0.06534 0.81065
 H482 H 0.56498 0.08632 0.83671
 H483 H 0.55831 0.14429 0.78650
 H484 H 0.58743 0.12302 0.76055
 C485 C 0.37143 0.98477 0.71722
 C486 C 0.38848 0.97136 0.73040
 C487 C 0.38024 0.95166 0.74371
 C488 C 0.35459 0.94546 0.74377
 C489 C 0.33738 0.95926 0.73103
 C490 C 0.34560 0.97927 0.71788
 N491 N 0.39814 0.93882 0.75758
 N492 N 0.39400 0.91754 0.76527
 C493 C 0.41185 0.90555 0.77992
 C494 C 0.41140 0.88020 0.78152
 C495 C 0.42893 0.86811 0.79546
 C496 C 0.44665 0.88134 0.80855
 C497 C 0.44671 0.90679 0.80728
 C498 C 0.42965 0.91879 0.79288
 H499 H 0.37834 0.99970 0.70676
 H500 H 0.40822 0.97624 0.73017
 H501 H 0.34782 0.93035 0.75407
 H502 H 0.31760 0.95459 0.73175
 H503 H 0.39770 0.86981 0.77169
 H504 H 0.42844 0.84848 0.79626
 H505 H 0.46025 0.91739 0.81714
 H506 H 0.43017 0.93842 0.79207
 C507 C 0.66806 0.95293 0.26745
 C508 C 0.65397 0.93919 0.25162
 C509 C 0.62850 0.94419 0.24815
 C510 C 0.61696 0.96268 0.26121
 C511 C 0.63086 0.97595 0.27758
 C512 C 0.65668 0.97155 0.28050
 N513 N 0.61455 0.92991 0.23175
 N514 N 0.59472 0.93796 0.22213
 C515 C 0.57999 0.92343 0.20654
 C516 C 0.56331 0.93489 0.19132
 C517 C 0.54787 0.92118 0.17659
 C518 C 0.54842 0.89570 0.17737
 C519 C 0.56525 0.88418 0.19260
 C520 C 0.58115 0.89795 0.20690
 H521 H 0.68789 0.94907 0.26949
 H522 H 0.66300 0.92485 0.24177
 H523 H 0.59714 0.96649 0.25909
 H524 H 0.62144 0.98964 0.28794
 H525 H 0.56218 0.95451 0.19099
 H526 H 0.53486 0.93049 0.16520
 H527 H 0.56595 0.86456 0.19354
 H528 H 0.59379 0.88873 0.21870
 C529 C 0.36331 0.29326 0.95656
 C530 C 0.38035 0.27996 0.94320
 C531 C 0.38206 0.25484 0.94570
 C532 C 0.36645 0.24298 0.96181
 C533 C 0.34927 0.25624 0.97518
 C534 C 0.34750 0.28170 0.97293
 N535 N 0.39955 0.24193 0.93137
 N536 N 0.40307 0.21917 0.93303
 C537 C 0.42064 0.20686 0.91824
 C538 C 0.42559 0.18226 0.92203
 C539 C 0.44307 0.16997 0.90812
 C540 C 0.45575 0.18215 0.89005
 C541 C 0.45044 0.20678 0.88610
 C542 C 0.43312 0.21903 0.90008
 H543 H 0.36308 0.31279 0.95445
 H544 H 0.39235 0.28930 0.93086
 H545 H 0.36720 0.22346 0.96377
 H546 H 0.33662 0.24630 0.98642
 H547 H 0.41606 0.17266 0.93593
 H548 H 0.44673 0.15100 0.91158
 H549 H 0.45989 0.21670 0.87237
 H550 H 0.42956 0.23804 0.89672
 C551 C 0.64406 0.70685 0.95197
 C552 C 0.62772 0.71987 0.93770
 C553 C 0.62269 0.74427 0.94228
 C554 C 0.63445 0.75574 0.96127
 C555 C 0.65089 0.74278 0.97557
 C556 C 0.65573 0.71795 0.97141
 N557 N 0.60561 0.75687 0.92734
 N558 N 0.59943 0.77890 0.93071
 C559 C 0.58219 0.79107 0.91556
 C560 C 0.57508 0.81491 0.92074
 C561 C 0.55785 0.82705 0.90653
 C562 C 0.54752 0.81547 0.88682
 C563 C 0.55493 0.79160 0.88155
 C564 C 0.57206 0.77949 0.89579
 H565 H 0.64677 0.68777 0.94818
 H566 H 0.61872 0.71083 0.92310
 H567 H 0.63117 0.77476 0.96492
 H568 H 0.66056 0.75257 0.98927
 H569 H 0.58276 0.82403 0.93592
 H570 H 0.55255 0.84543 0.91106
 H571 H 0.54733 0.78217 0.86651
 H572 H 0.57729 0.76107 0.89138
 C573 C 0.36253 0.72102 0.02060
 C574 C 0.38036 0.73437 0.03310
 C575 C 0.37281 0.75094 0.05018
 C576 C 0.34715 0.75346 0.05532
 C577 C 0.32926 0.73949 0.04337
 C578 C 0.33665 0.72355 0.02536
 N579 N 0.39162 0.76448 0.06246
 N580 N 0.38725 0.78526 0.07129
 C581 C 0.40625 0.79809 0.08405
 C582 C 0.40569 0.82348 0.08493
 C583 C 0.42457 0.83636 0.09669
 C584 C 0.44376 0.82389 0.10841
 C585 C 0.44393 0.79841 0.10800
 C586 C 0.42552 0.78560 0.09565
 H587 H 0.36909 0.70810 0.00772
 H588 H 0.40015 0.73199 0.02930
 H589 H 0.34101 0.76595 0.06876
 H590 H 0.30956 0.74185 0.04760
 H591 H 0.39088 0.83328 0.07610
 H592 H 0.42400 0.85601 0.09691
 H593 H 0.45858 0.78843 0.11687
 H594 H 0.42616 0.76597 0.09535
 C595 C 0.65268 0.28445 0.05128
 C596 C 0.63591 0.27075 0.06456
 C597 C 0.63444 0.24559 0.06166
 C598 C 0.65053 0.23406 0.04564
 C599 C 0.66767 0.24777 0.03253
 C600 C 0.66856 0.27317 0.03495
 N601 N 0.61617 0.23249 0.07500
 N602 N 0.61102 0.21021 0.07149
 C603 C 0.59229 0.19791 0.08508
 C604 C 0.58461 0.17455 0.07853
 C605 C 0.56560 0.16258 0.09092
 C606 C 0.55415 0.17374 0.11029
 C607 C 0.56226 0.19702 0.11708
 C608 C 0.58106 0.20904 0.10456
 H609 H 0.65292 0.30399 0.05342
 H610 H 0.62363 0.27981 0.07685
 H611 H 0.64983 0.21457 0.04325
 H612 H 0.67997 0.23863 0.02031
 H613 H 0.59310 0.16576 0.06357
 H614 H 0.55985 0.14462 0.08530
 H615 H 0.55383 0.20613 0.13190
 H616 H 0.58670 0.22706 0.11006
 C617 C 0.29337 0.05527 0.64551
 C618 C 0.27942 0.06863 0.62938
 C619 C 0.25493 0.06164 0.62357
 C620 C 0.24422 0.04133 0.63450
 C621 C 0.25807 0.02801 0.65069
 C622 C 0.28314 0.03435 0.65611
 N623 N 0.24141 0.07540 0.60655
 N624 N 0.21958 0.06926 0.59953
 C625 C 0.20617 0.08299 0.58241
 C626 C 0.18277 0.07455 0.57465
 C627 C 0.16935 0.08736 0.55773
 C628 C 0.17914 0.10897 0.54834
 C629 C 0.20260 0.11747 0.55629
 C630 C 0.21602 0.10460 0.57314
 H631 H 0.31257 0.06085 0.64889
 H632 H 0.28787 0.08431 0.62112
 H633 H 0.22508 0.03587 0.63068
 H634 H 0.24868 0.01326 0.65956
 H635 H 0.17498 0.05792 0.58167
 H636 H 0.15133 0.08033 0.55201
 H637 H 0.21068 0.13404 0.54942
 H638 H 0.23407 0.11152 0.57887
 C639 C 0.71449 0.01562 0.37322
 C640 C 0.72818 0.02837 0.39010
 C641 C 0.74046 0.05000 0.38443
 C642 C 0.73888 0.05888 0.36158
 C643 C 0.72568 0.04589 0.34452
 C644 C 0.71363 0.02370 0.34987
 N645 N 0.75475 0.06235 0.40202
 N646 N 0.76126 0.08449 0.40000
 C647 C 0.77627 0.09646 0.41732
 C648 C 0.77622 0.12183 0.41849
 C649 C 0.79035 0.13397 0.43551
 C650 C 0.80535 0.12085 0.45118
 C651 C 0.80586 0.09540 0.44962
 C652 C 0.79122 0.08327 0.43299
 H653 H 0.70409 -0.00024 0.37874
 H654 H 0.72889 0.02155 0.40778
 H655 H 0.74837 0.07554 0.35677
 H656 H 0.72591 0.05284 0.32687
 H657 H 0.76488 0.13219 0.40643
 H658 H 0.78973 0.15360 0.43630
 H659 H 0.81719 0.08487 0.46156
 H660 H 0.79172 0.06364 0.43224
 C661 C 0.75252 0.97374 0.65762
 C662 C 0.76854 0.96148 0.64230
 C663 C 0.75930 0.94281 0.62806
 C664 C 0.73379 0.93619 0.62964
 C665 C 0.71771 0.94853 0.64487
 C666 C 0.72684 0.96770 0.65872
 N667 N 0.77595 0.93137 0.61174
 N668 N 0.76885 0.91372 0.59894
 C669 C 0.78497 0.90250 0.58207
 C670 C 0.77607 0.88225 0.56985
 C671 C 0.79088 0.87115 0.55279
 C672 C 0.81496 0.88026 0.54750
 C673 C 0.82396 0.90059 0.55988
 C674 C 0.80911 0.91161 0.57708
 H675 H 0.76005 0.98825 0.66836
 H676 H 0.78816 0.96671 0.64132
 H677 H 0.72617 0.92181 0.61881
 H678 H 0.69799 0.94360 0.64535
 H679 H 0.75748 0.87511 0.57349
 H680 H 0.78333 0.85557 0.54358
 H681 H 0.84241 0.90803 0.55624
 H682 H 0.81637 0.92733 0.58627
 C683 C 0.29286 0.95122 0.35838
 C684 C 0.27953 0.93757 0.37477
 C685 C 0.25515 0.94412 0.38122
 C686 C 0.24394 0.96437 0.37074
 C687 C 0.25719 0.97803 0.35427
 C688 C 0.28211 0.97202 0.34810
 N689 N 0.24226 0.92990 0.39839
 N690 N 0.22046 0.93538 0.40585
 C691 C 0.20775 0.92111 0.42309
 C692 C 0.18422 0.92868 0.43119
 C693 C 0.17141 0.91527 0.44815
 C694 C 0.18195 0.89392 0.45725
 C695 C 0.20556 0.88630 0.44900
 C696 C 0.21837 0.89978 0.43211
 H697 H 0.31202 0.94597 0.35454
 H698 H 0.28837 0.92196 0.38271
 H699 H 0.22489 0.96953 0.37511
 H700 H 0.24745 0.99273 0.34577
 H701 H 0.17583 0.94508 0.42439
 H702 H 0.15326 0.92163 0.45410
 H703 H 0.21421 0.86996 0.45565
 H704 H 0.23654 0.89352 0.42612
 C705 C 0.02223 0.33314 0.75004
 C706 C 0.03553 0.34831 0.76531
 C707 C 0.05380 0.36432 0.75676
 C708 C 0.05878 0.36489 0.73269
 C709 C 0.04531 0.34998 0.71741
 C710 C 0.02670 0.33418 0.72589
 N711 N 0.06654 0.38032 0.77261
 N712 N 0.08509 0.39322 0.76600
 C713 C 0.09760 0.41015 0.78104
 C714 C 0.11939 0.42161 0.77295
 C715 C 0.13153 0.43910 0.78659
 C716 C 0.12186 0.44565 0.80854
 C717 C 0.10006 0.43394 0.81676
 C718 C 0.08806 0.41623 0.80315
 H719 H 0.00822 0.32084 0.75701
 H720 H 0.03154 0.34767 0.78382
 H721 H 0.07274 0.37717 0.72561
 H722 H 0.04904 0.35116 0.69888
 H723 H 0.12684 0.41712 0.75590
 H724 H 0.14822 0.44782 0.77971
 H725 H 0.09219 0.43857 0.83361
 H726 H 0.07115 0.40766 0.80970
 C727 C 0.05942 0.66945 0.26906
 C728 C 0.07300 0.65364 0.25474
 C729 C 0.06342 0.63071 0.24920
 C730 C 0.04043 0.62330 0.25887
 C731 C 0.02709 0.63884 0.27362
 C732 C 0.03588 0.66255 0.27841
 N733 N 0.07755 0.61506 0.23417
 N734 N 0.06746 0.59699 0.22388
 C735 C 0.08166 0.58078 0.20947
 C736 C 0.06887 0.56476 0.19461
 C737 C 0.08219 0.54827 0.18078
 C738 C 0.10855 0.54721 0.18202
 C739 C 0.12136 0.56332 0.19695
 C740 C 0.10805 0.58013 0.21042
 H741 H 0.06703 0.68745 0.27204
 H742 H 0.09084 0.65948 0.24752
 H743 H 0.03304 0.60532 0.25541
 H744 H 0.01022 0.63187 0.28177
 H745 H 0.04853 0.56505 0.19380
 H746 H 0.07183 0.53595 0.16955
 H747 H 0.14167 0.56292 0.19822
 H748 H 0.11832 0.59225 0.22189
 C749 C 0.95215 0.36805 0.30212
 C750 C 0.93806 0.38424 0.28874
 C751 C 0.94162 0.38561 0.26460
 C752 C 0.95933 0.37032 0.25385
 C753 C 0.97325 0.35396 0.26718
 C754 C 0.97000 0.35288 0.29148
 N755 N 0.92704 0.40256 0.25143
 N756 N 0.93107 0.40635 0.22986
 C757 C 0.91653 0.42320 0.21656
 C758 C 0.92412 0.42866 0.19382
 C759 C 0.91071 0.44539 0.18048
 C760 C 0.88921 0.45679 0.18963
 C761 C 0.88138 0.45099 0.21238
 C762 C 0.89499 0.43443 0.22579
 H763 H 0.94926 0.36747 0.32081
 H764 H 0.92443 0.39587 0.29722
 H765 H 0.96226 0.37087 0.23517
 H766 H 0.98640 0.34201 0.25851
 H767 H 0.94064 0.42008 0.18650
 H768 H 0.91717 0.44939 0.16299
 H769 H 0.86494 0.45950 0.21992
 H770 H 0.88870 0.43041 0.24333
 C771 C 0.94533 0.64168 0.70483
 C772 C 0.93061 0.62718 0.71937
 C773 C 0.93812 0.62252 0.74224
 C774 C 0.96040 0.63305 0.75073
 C775 C 0.97517 0.64768 0.73623
 C776 C 0.96819 0.65180 0.71281
 N777 N 0.92303 0.60658 0.75613
 N778 N 0.92901 0.60048 0.77678
 C779 C 0.91387 0.58394 0.79002
 C780 C 0.92193 0.57691 0.81221
 C781 C 0.90817 0.55988 0.82504
 C782 C 0.88602 0.54963 0.81584
 C783 C 0.87772 0.55710 0.79372
 C784 C 0.89151 0.57407 0.78092
 H785 H 0.93929 0.64393 0.68693
 H786 H 0.91347 0.61912 0.71263
 H787 H 0.96642 0.62995 0.76851
 H788 H 0.99184 0.65607 0.74352
 H789 H 0.93913 0.58437 0.81941
 H790 H 0.91507 0.55453 0.84203
 H791 H 0.86074 0.54958 0.78614
 H792 H 0.88484 0.57923 0.76380
 C793 C 0.74703 0.65492 0.98047
 C794 C 0.76253 0.63877 0.96836
 C795 C 0.75236 0.62291 0.95173
 C796 C 0.72630 0.62304 0.94760
 C797 C 0.71075 0.63898 0.95990
 C798 C 0.72097 0.65509 0.97643
 N799 N 0.76883 0.60707 0.93914
 N800 N 0.76123 0.59451 0.92184
 C801 C 0.77747 0.57849 0.90920
 C802 C 0.76830 0.56706 0.88911
 C803 C 0.78350 0.55112 0.87646
 C804 C 0.80817 0.54617 0.88385
 C805 C 0.81737 0.55774 0.90404
 C806 C 0.80219 0.57384 0.91658
 H807 H 0.75545 0.66757 0.99268
 H808 H 0.78258 0.63892 0.97163
 H809 H 0.71797 0.61087 0.93490
 H810 H 0.69072 0.63878 0.95650
 H811 H 0.74928 0.57049 0.88328
 H812 H 0.77581 0.54244 0.86105
 H813 H 0.83628 0.55431 0.91018
 H814 H 0.80968 0.58246 0.93210
 C815 C 0.29956 0.36082 0.95605
 C816 C 0.28690 0.37773 0.94234
 C817 C 0.26129 0.38198 0.94565
 C818 C 0.24840 0.36937 0.96324
 C819 C 0.26101 0.35239 0.97701
 C820 C 0.28685 0.34768 0.97362
 N821 N 0.24877 0.39857 0.93041
 N822 N 0.22555 0.40367 0.93242
 C823 C 0.21327 0.41991 0.91664
 C824 C 0.18824 0.42635 0.92077
 C825 C 0.17578 0.44218 0.90569
 C826 C 0.18817 0.45169 0.88604
 C827 C 0.21326 0.44500 0.88182
 C828 C 0.22573 0.42932 0.89700
 H829 H 0.31950 0.35841 0.95310
 H830 H 0.29707 0.38744 0.92890
 H831 H 0.22847 0.37216 0.96596
 H832 H 0.25005 0.34200 0.98935
 H833 H 0.17840 0.41917 0.93580
 H834 H 0.15645 0.44696 0.90941
 H835 H 0.22336 0.45205 0.86689
 H836 H 0.24506 0.42453 0.89335
 C837 C 0.25769 0.67297 0.04926
 C838 C 0.24346 0.65755 0.06346
 C839 C 0.23994 0.63321 0.05729
 C840 C 0.25142 0.62421 0.03704
 C841 C 0.26615 0.63939 0.02315
 C842 C 0.26906 0.66427 0.02858
 N843 N 0.22548 0.61769 0.07216
 N844 N 0.21587 0.59799 0.06460
 C845 C 0.20254 0.58156 0.07945
 C846 C 0.18667 0.56414 0.06939
 C847 C 0.17413 0.54723 0.08336
 C848 C 0.17789 0.54710 0.10762
 C849 C 0.19390 0.56456 0.11769
 C850 C 0.20594 0.58184 0.10375
 H851 H 0.25913 0.69190 0.05422
 H852 H 0.23484 0.66466 0.07916
 H853 H 0.24964 0.60524 0.03234
 H854 H 0.27605 0.63120 0.00868
 H855 H 0.18404 0.56366 0.05066
 H856 H 0.16201 0.53387 0.07516
 H857 H 0.19705 0.56488 0.13636
 H858 H 0.21833 0.59501 0.11186
 C859 C 0.72477 0.36619 0.02413
 C860 C 0.73681 0.38488 0.03632
 C861 C 0.75195 0.37969 0.05557
 C862 C 0.75421 0.35560 0.06315
 C863 C 0.74144 0.33692 0.05148
 C864 C 0.72709 0.34187 0.03138
 N865 N 0.76427 0.39921 0.06751
 N866 N 0.78512 0.39634 0.07801
 C867 C 0.79676 0.41583 0.09062
 C868 C 0.82292 0.41612 0.09333
 C869 C 0.83468 0.43508 0.10548
 C870 C 0.82026 0.45353 0.11579
 C871 C 0.79399 0.45299 0.11339
 C872 C 0.78234 0.43447 0.10062
 H873 H 0.71299 0.37090 0.00944
 H874 H 0.73459 0.40345 0.03058
 H875 H 0.76555 0.35131 0.07826
 H876 H 0.74364 0.31848 0.05763
 H877 H 0.83422 0.40179 0.08577
 H878 H 0.85496 0.43505 0.10728
 H879 H 0.78252 0.46705 0.12120
 H880 H 0.76207 0.43445 0.09890
 C881 C 0.94939 0.72412 0.65903
 C882 C 0.93544 0.73879 0.64406
 C883 C 0.94329 0.74248 0.62112
 C884 C 0.96500 0.73080 0.61299
 C885 C 0.97865 0.71557 0.62775
 C886 C 0.97144 0.71232 0.65125
 N887 N 0.92859 0.75773 0.60632
 N888 N 0.93773 0.76761 0.58817
 C889 C 0.92269 0.78229 0.57312
 C890 C 0.93455 0.79870 0.55812
 C891 C 0.92033 0.81329 0.54325
 C892 C 0.89400 0.81114 0.54272
 C893 C 0.88212 0.79444 0.55758
 C894 C 0.89633 0.78031 0.57287
 H895 H 0.94320 0.72273 0.67696
 H896 H 0.91869 0.74769 0.65050
 H897 H 0.97101 0.73294 0.59507
 H898 H 0.99432 0.70572 0.62038
 H899 H 0.95485 0.80032 0.55811
 H900 H 0.92994 0.82588 0.53181
 H901 H 0.86185 0.79245 0.55747
 H902 H 0.88680 0.76758 0.58420
 C903 C 0.94956 0.27343 0.34040
 C904 C 0.93486 0.25846 0.35454
 C905 C 0.94044 0.25599 0.37823
 C906 C 0.96057 0.26919 0.38788
 C907 C 0.97484 0.28475 0.37388
 C908 C 0.96978 0.28666 0.34988
 N909 N 0.92494 0.24059 0.39225
 N910 N 0.93272 0.23151 0.41129
 C911 C 0.91669 0.21698 0.42567
 C912 C 0.92746 0.20128 0.44197
 C913 C 0.91220 0.18725 0.45655
 C914 C 0.88590 0.18931 0.45546
 C915 C 0.87512 0.20516 0.43918
 C916 C 0.89039 0.21869 0.42419
 H917 H 0.94517 0.27466 0.32199
 H918 H 0.91926 0.24850 0.34697
 H919 H 0.96487 0.26787 0.40629
 H920 H 0.98979 0.29531 0.38180
 H921 H 0.94772 0.19989 0.44332
 H922 H 0.92095 0.17532 0.46912
 H923 H 0.85490 0.20706 0.43803
 H924 H 0.88168 0.23088 0.41184
 C925 C 0.04846 0.28710 0.64983
 C926 C 0.06231 0.27417 0.63325
 C927 C 0.05483 0.25089 0.62641
 C928 C 0.03349 0.24037 0.63669
 C929 C 0.01964 0.25322 0.65333
 C930 C 0.02652 0.27706 0.65986
 N931 N 0.06917 0.23840 0.60898
 N932 N 0.06282 0.21758 0.60127
 C933 C 0.07711 0.20520 0.58374
 C934 C 0.06859 0.18269 0.57553
 C935 C 0.08195 0.17024 0.55827
 C936 C 0.10418 0.18012 0.54894
 C937 C 0.11275 0.20271 0.55730
 C938 C 0.09933 0.21516 0.57452
 H939 H 0.05444 0.30540 0.65401
 H940 H 0.07878 0.28245 0.62547
 H941 H 0.02761 0.22217 0.63203
 H942 H 0.00408 0.24403 0.66164
 H943 H 0.05148 0.17484 0.58250
 H944 H 0.07485 0.15287 0.55224
 H945 H 0.12980 0.21082 0.55048
 H946 H 0.10632 0.23254 0.58059
 C947 C 0.05445 0.70996 0.35728
 C948 C 0.06759 0.72271 0.37455
 C949 C 0.06389 0.74767 0.37754
 C950 C 0.04733 0.75995 0.36260
 C951 C 0.03441 0.74727 0.34516
 C952 C 0.03749 0.72209 0.34264
 N953 N 0.07700 0.76004 0.39591
 N954 N 0.07223 0.78196 0.40134
 C955 C 0.08534 0.79440 0.41967
 C956 C 0.07742 0.81762 0.42623
 C957 C 0.08972 0.83022 0.44412
 C958 C 0.11038 0.81982 0.45562
 C959 C 0.11837 0.79651 0.44892
 C960 C 0.10591 0.78385 0.43116
 H961 H 0.05713 0.69056 0.35562
 H962 H 0.08038 0.71307 0.38589
 H963 H 0.04438 0.77930 0.36438
 H964 H 0.02190 0.75709 0.33370
 H965 H 0.06160 0.82594 0.41749
 H966 H 0.08317 0.84818 0.44882
 H967 H 0.13420 0.78798 0.45745
 H968 H 0.11242 0.76592 0.42636
 C969 C 0.66549 0.94805 0.73119
 C970 C 0.64754 0.93552 0.74440
 C971 C 0.62247 0.94350 0.74489
 C972 C 0.61549 0.96364 0.73167
 C973 C 0.63322 0.97577 0.71805
 C974 C 0.65854 0.96851 0.71812
 N975 N 0.60385 0.93194 0.75906
 N976 N 0.60641 0.91050 0.76686
 C977 C 0.58768 0.89981 0.78157
 C978 C 0.58607 0.87452 0.78319
 C979 C 0.56738 0.86370 0.79687
 C980 C 0.55050 0.87812 0.80965
 C981 C 0.55257 0.90350 0.80847
 C982 C 0.57082 0.91427 0.79434
 H983 H 0.68485 0.94204 0.73148
 H984 H 0.65332 0.92002 0.75461
 H985 H 0.59619 0.96985 0.73182
 H986 H 0.62720 0.99102 0.70760
 H987 H 0.59902 0.86319 0.77350
 H988 H 0.56624 0.84409 0.79762
 H989 H 0.53975 0.91501 0.81812
 H990 H 0.57189 0.93388 0.79350
 C991 C 0.33215 0.95112 0.27366
 C992 C 0.34676 0.93721 0.25848
 C993 C 0.37087 0.94486 0.25226
 C994 C 0.38064 0.96631 0.26198
 C995 C 0.36630 0.97996 0.27767
 C996 C 0.34149 0.97297 0.28337
 N997 N 0.38519 0.93031 0.23642
 N998 N 0.40365 0.93893 0.22501
 C999 C 0.41837 0.92418 0.20965
 C1000 C 0.43369 0.93546 0.19306
 C1001 C 0.44861 0.92159 0.17808
 C1002 C 0.44889 0.89616 0.17988
 C1003 C 0.43356 0.88483 0.19659
 C1004 C 0.41819 0.89872 0.21122
 H1005 H 0.31314 0.94503 0.27712
 H1006 H 0.33907 0.92065 0.25114
 H1007 H 0.39957 0.97218 0.25788
 H1008 H 0.37510 0.99551 0.28586
 H1009 H 0.43404 0.95507 0.19175
 H1010 H 0.46047 0.93080 0.16553
 H1011 H 0.43348 0.86526 0.19836
 H1012 H 0.40659 0.88963 0.22404
 C1013 C 0.63980 0.04342 0.29219
 C1014 C 0.62381 0.05672 0.27784
 C1015 C 0.62387 0.05307 0.25370
 C1016 C 0.64081 0.03639 0.24385
 C1017 C 0.65718 0.02330 0.25820
 C1018 C 0.65641 0.02634 0.28257
 N1019 N 0.60636 0.06645 0.23987
 N1020 N 0.60236 0.06214 0.21835
 C1021 C 0.58447 0.07611 0.20539
 C1022 C 0.57814 0.06910 0.18262
 C1023 C 0.56033 0.08226 0.16987
 C1024 C 0.54877 0.10282 0.17970
 C1025 C 0.55534 0.10986 0.20249
 C1026 C 0.57291 0.09663 0.21523
 H1027 H 0.63880 0.04606 0.31089
 H1028 H 0.61089 0.06959 0.28560
 H1029 H 0.64134 0.03346 0.22517
 H1030 H 0.67010 0.01049 0.25037
 H1031 H 0.58689 0.05332 0.17481
 H1032 H 0.55572 0.07643 0.15232
 H1033 H 0.54679 0.12557 0.21061
 H1034 H 0.57747 0.10250 0.23277
 C1035 C 0.34414 0.02608 0.74464
 C1036 C 0.35946 0.03853 0.76047
 C1037 C 0.37291 0.05908 0.75351
 C1038 C 0.37030 0.06756 0.73057
 C1039 C 0.35504 0.05511 0.71465
 C1040 C 0.34227 0.03367 0.72121
 N1041 N 0.38969 0.07042 0.76980
 N1042 N 0.40219 0.08946 0.76483
 C1043 C 0.41966 0.10017 0.78091
 C1044 C 0.43175 0.12183 0.77484
 C1045 C 0.44955 0.13230 0.78977
 C1046 C 0.45570 0.12111 0.81103
 C1047 C 0.44338 0.09942 0.81715
 C1048 C 0.42548 0.08906 0.80226
 H1049 H 0.33357 0.01059 0.75089
 H1050 H 0.36102 0.03201 0.77821
 H1051 H 0.38052 0.08346 0.72477
 H1052 H 0.35442 0.06161 0.69686
 H1053 H 0.42749 0.13053 0.75840
 H1054 H 0.45872 0.14899 0.78453
 H1055 H 0.44763 0.09037 0.83342
 H1056 H 0.41644 0.07225 0.80733
 C1057 C 0.62918 0.71472 0.02363
 C1058 C 0.61140 0.72814 0.03608
 C1059 C 0.61858 0.74913 0.04820
 C1060 C 0.64398 0.75630 0.04825
 C1061 C 0.66191 0.74250 0.03630
 C1062 C 0.65452 0.72186 0.02360
 N1063 N 0.59988 0.76249 0.06074
 N1064 N 0.60281 0.78472 0.06620
 C1065 C 0.58425 0.79756 0.07943
 C1066 C 0.58362 0.82294 0.07853
 C1067 C 0.56550 0.83586 0.09114
 C1068 C 0.54823 0.82352 0.10541
 C1069 C 0.54918 0.79808 0.10660
 C1070 C 0.56685 0.78517 0.09352
 H1071 H 0.62325 0.69867 0.01412
 H1072 H 0.59192 0.72236 0.03607
 H1073 H 0.64996 0.77231 0.05777
 H1074 H 0.68144 0.74811 0.03658
 H1075 H 0.59700 0.83269 0.06780
 H1076 H 0.56523 0.85548 0.09005
 H1077 H 0.53603 0.78815 0.11742
 H1078 H 0.56714 0.76557 0.09463
 C1079 C 0.32775 0.25282 0.03388
 C1080 C 0.34235 0.23647 0.04666
 C1081 C 0.36799 0.24098 0.05032
 C1082 C 0.37899 0.26196 0.04078
 C1083 C 0.36456 0.27800 0.02760
 C1084 C 0.33888 0.27349 0.02396
 N1085 N 0.38258 0.22409 0.06358
 N1086 N 0.40350 0.23031 0.07260
 C1087 C 0.41901 0.21387 0.08539
 C1088 C 0.43738 0.22345 0.10025
 C1089 C 0.45313 0.20810 0.11284
 C1090 C 0.45124 0.18279 0.11028
 C1091 C 0.43302 0.17311 0.09508
 C1092 C 0.41678 0.18855 0.08291
 H1093 H 0.30794 0.24912 0.03126
 H1094 H 0.33365 0.22038 0.05392
 H1095 H 0.39879 0.26578 0.04326
 H1096 H 0.37340 0.29394 0.02017
 H1097 H 0.43937 0.24292 0.10218
 H1098 H 0.46715 0.21606 0.12427
 H1099 H 0.43120 0.15366 0.09282
 H1100 H 0.40283 0.18079 0.07131
 C1101 C 0.68086 0.25619 0.96407
 C1102 C 0.66619 0.24128 0.94976
 C1103 C 0.64030 0.23929 0.95345
 C1104 C 0.62908 0.25253 0.97166
 C1105 C 0.64365 0.26802 0.98561
 C1106 C 0.66975 0.26988 0.98204
 N1107 N 0.62565 0.22487 0.93768
 N1108 N 0.60417 0.21641 0.94316
 C1109 C 0.58914 0.20322 0.92670
 C1110 C 0.57046 0.18744 0.93482
 C1111 C 0.55495 0.17500 0.91909
 C1112 C 0.55743 0.17880 0.89497
 C1113 C 0.57615 0.19468 0.88683
 C1114 C 0.59211 0.20657 0.90255
 H1115 H 0.70090 0.25736 0.96088
 H1116 H 0.67501 0.23128 0.93569
 H1117 H 0.60898 0.25156 0.97454
 H1118 H 0.63448 0.27888 0.99886
 H1119 H 0.56790 0.18481 0.95338
 H1120 H 0.54048 0.16304 0.92580
 H1121 H 0.57837 0.19794 0.86832
 H1122 H 0.60628 0.21889 0.89591
 C1123 C 0.35261 0.70858 0.95686
 C1124 C 0.36895 0.72155 0.94247
 C1125 C 0.37063 0.74682 0.94423
 C1126 C 0.35557 0.75915 0.96054
 C1127 C 0.33902 0.74618 0.97486
 C1128 C 0.33757 0.72075 0.97326
 N1129 N 0.38771 0.75935 0.92917
 N1130 N 0.39184 0.78207 0.93064
 C1131 C 0.40911 0.79396 0.91523
 C1132 C 0.41547 0.81829 0.91924
 C1133 C 0.43298 0.83002 0.90492
 C1134 C 0.44422 0.81759 0.88617
 C1135 C 0.43738 0.79331 0.88193
 C1136 C 0.42007 0.78158 0.89634
 H1137 H 0.35182 0.68899 0.95533
 H1138 H 0.38046 0.71189 0.92995
 H1139 H 0.35647 0.77872 0.96211
 H1140 H 0.32732 0.75597 0.98713
 H1141 H 0.40712 0.82805 0.93370
 H1142 H 0.43782 0.84875 0.90860
 H1143 H 0.44570 0.78320 0.86767
 H1144 H 0.41539 0.76279 0.89279
 C1145 C 0.70357 0.95022 0.35953
 C1146 C 0.71740 0.93577 0.37478
 C1147 C 0.74320 0.93967 0.37770
 C1148 C 0.75527 0.95790 0.36468
 C1149 C 0.74149 0.97221 0.34918
 C1150 C 0.71541 0.96879 0.34684
 N1151 N 0.75648 0.92512 0.39423
 N1152 N 0.77920 0.92939 0.39988
 C1153 C 0.79220 0.91484 0.41663
 C1154 C 0.81615 0.92206 0.42399
 C1155 C 0.82909 0.90861 0.44074
 C1156 C 0.81832 0.88750 0.45026
 C1157 C 0.79436 0.88012 0.44263
 C1158 C 0.78135 0.89372 0.42602
 H1159 H 0.68351 0.94722 0.35794
 H1160 H 0.70793 0.92174 0.38466
 H1161 H 0.77527 0.96111 0.36653
 H1162 H 0.75104 0.98618 0.33928
 H1163 H 0.82471 0.93829 0.41687
 H1164 H 0.84756 0.91472 0.44617
 H1165 H 0.78556 0.86396 0.44963
 H1166 H 0.76285 0.88774 0.42056
 C1167 C 0.29098 0.98050 0.63183
 C1168 C 0.27827 0.96676 0.61500
 C1169 C 0.25728 0.95280 0.62121
 C1170 C 0.24955 0.95209 0.64465
 C1171 C 0.26267 0.96532 0.66159
 C1172 C 0.28314 0.97999 0.65519
 N1173 N 0.24423 0.93944 0.60349
 N1174 N 0.22148 0.93272 0.60603
 C1175 C 0.20863 0.91889 0.58852
 C1176 C 0.18232 0.91891 0.58811
 C1177 C 0.16929 0.90597 0.57090
 C1178 C 0.18245 0.89220 0.55426
 C1179 C 0.20884 0.89176 0.55501
 C1180 C 0.22187 0.90524 0.57184
 H1181 H 0.30692 0.99153 0.62668
 H1182 H 0.28447 0.96732 0.59702
 H1183 H 0.23356 0.94117 0.64984
 H1184 H 0.25653 0.96461 0.67959
 H1185 H 0.17193 0.92930 0.60093
 H1186 H 0.14893 0.90647 0.57076
 H1187 H 0.21941 0.88134 0.54233
 H1188 H 0.24222 0.90481 0.57198
 C1189 C 0.29028 0.02587 0.37266
 C1190 C 0.27749 0.03924 0.38966
 C1191 C 0.25620 0.05273 0.38369
 C1192 C 0.24827 0.05344 0.36032
 C1193 C 0.26145 0.04060 0.34320
 C1194 C 0.28218 0.02632 0.34938
 N1195 N 0.24292 0.06553 0.40159
 N1196 N 0.21996 0.07143 0.39921
 C1197 C 0.20673 0.08466 0.41685
 C1198 C 0.18044 0.08369 0.41727
 C1199 C 0.16702 0.09605 0.43455
 C1200 C 0.17975 0.11017 0.45126
 C1201 C 0.20611 0.11155 0.45051
 C1202 C 0.21955 0.09866 0.43360
 H1203 H 0.30643 0.01512 0.37761
 H1204 H 0.28384 0.03869 0.40759
 H1205 H 0.23203 0.06401 0.35531
 H1206 H 0.25512 0.04124 0.32526
 H1207 H 0.17037 0.07303 0.40438
 H1208 H 0.14669 0.09483 0.43469
 H1209 H 0.21634 0.12228 0.46325
 H1210 H 0.23987 0.09980 0.43345
 C1211 C 0.71893 0.01453 0.63055
 C1212 C 0.73095 0.02753 0.61291
 C1213 C 0.74475 0.04844 0.61825
 C1214 C 0.74682 0.05609 0.64157
 C1215 C 0.73537 0.04268 0.65934
 C1216 C 0.72141 0.02167 0.65402
 N1217 N 0.75696 0.06123 0.59976
 N1218 N 0.76340 0.08341 0.60162
 C1219 C 0.77656 0.09554 0.58325
 C1220 C 0.77657 0.12093 0.58248
 C1221 C 0.78956 0.13316 0.56483
 C1222 C 0.80331 0.12008 0.54809
 C1223 C 0.80340 0.09461 0.54899
 C1224 C 0.78992 0.08242 0.56627
 H1225 H 0.70764 -0.00112 0.62585
 H1226 H 0.72917 0.02154 0.59498
 H1227 H 0.75763 0.07212 0.64605
 H1228 H 0.73757 0.04861 0.67726
 H1229 H 0.76641 0.13123 0.59553
 H1230 H 0.78938 0.15281 0.56459
 H1231 H 0.81384 0.08413 0.53626
 H1232 H 0.79033 0.06278 0.56664
 C1233 C 0.98403 0.66854 0.25113
 C1234 C 0.97028 0.65420 0.23544
 C1235 C 0.95134 0.63864 0.24351
 C1236 C 0.94586 0.63798 0.26750
 C1237 C 0.95972 0.65207 0.28318
 C1238 C 0.97929 0.66707 0.27521
 N1239 N 0.93872 0.62288 0.22735
 N1240 N 0.92036 0.60957 0.23370
 C1241 C 0.90813 0.59274 0.21835
 C1242 C 0.91765 0.58742 0.19605
 C1243 C 0.90601 0.56976 0.18212
 C1244 C 0.88459 0.55730 0.19019
 C1245 C 0.87496 0.56305 0.21237
 C1246 C 0.88673 0.58052 0.22631
 H1247 H 0.99884 0.68022 0.24460
 H1248 H 0.97466 0.65492 0.21701
 H1249 H 0.93133 0.62610 0.27421
 H1250 H 0.95574 0.65066 0.30165
 H1251 H 0.93428 0.59657 0.18958
 H1252 H 0.91384 0.56578 0.16510
 H1253 H 0.85854 0.55376 0.21914
 H1254 H 0.87930 0.58440 0.24351
 C1255 C 0.94969 0.32547 0.73770
 C1256 C 0.93517 0.34072 0.75181
 C1257 C 0.94106 0.36541 0.75373
 C1258 C 0.96124 0.37492 0.74083
 C1259 C 0.97531 0.35985 0.72622
 C1260 C 0.97004 0.33485 0.72489
 N1261 N 0.92595 0.38065 0.76830
 N1262 N 0.93432 0.40063 0.77641
 C1263 C 0.91899 0.41656 0.79007
 C1264 C 0.93060 0.43391 0.80436
 C1265 C 0.91612 0.45014 0.81744
 C1266 C 0.88976 0.44966 0.81584
 C1267 C 0.87814 0.43233 0.80137
 C1268 C 0.89263 0.41570 0.78878
 H1269 H 0.94509 0.30632 0.73684
 H1270 H 0.91951 0.33323 0.76152
 H1271 H 0.96578 0.39407 0.74169
 H1272 H 0.99028 0.36774 0.71591
 H1273 H 0.95091 0.43482 0.80539
 H1274 H 0.92552 0.46345 0.82834
 H1275 H 0.85785 0.43160 0.79988
 H1276 H 0.88329 0.40256 0.77766
 C1277 C 0.01743 0.62087 0.70939
 C1278 C 0.03020 0.60377 0.72284
 C1279 C 0.05074 0.61078 0.73657
 C1280 C 0.05841 0.63520 0.73678
 C1281 C 0.04525 0.65243 0.72380
 C1282 C 0.02441 0.64550 0.71023
 N1283 N 0.06300 0.59299 0.75069
 N1284 N 0.08509 0.59626 0.75866
 C1285 C 0.09685 0.57892 0.77363
 C1286 C 0.12307 0.57890 0.77564
 C1287 C 0.13504 0.56217 0.79015
 C1288 C 0.12083 0.54570 0.80342
 C1289 C 0.09449 0.54604 0.80171
 C1290 C 0.08258 0.56233 0.78671
 H1291 H 0.00180 0.61498 0.69865
 H1292 H 0.02418 0.58498 0.72248
 H1293 H 0.07415 0.64103 0.74739
 H1294 H 0.05105 0.67128 0.72467
 H1295 H 0.13425 0.59170 0.76574
 H1296 H 0.15537 0.56234 0.79127
 H1297 H 0.08314 0.53346 0.81171
 H1298 H 0.06226 0.56222 0.78559
 C1299 C 0.02732 0.37671 0.29686
 C1300 C 0.04126 0.39288 0.28324
 C1301 C 0.05353 0.38475 0.26308
 C1302 C 0.05223 0.36006 0.25692
 C1303 C 0.03879 0.34378 0.27084
 C1304 C 0.02600 0.35209 0.29069
 N1305 N 0.06716 0.40183 0.24916
 N1306 N 0.07266 0.39745 0.22796
 C1307 C 0.08658 0.41432 0.21407
 C1308 C 0.08482 0.41287 0.18977
 C1309 C 0.09739 0.42968 0.17575
 C1310 C 0.11255 0.44777 0.18588
 C1311 C 0.11496 0.44875 0.21027
 C1312 C 0.10182 0.43232 0.22430
 H1313 H 0.01763 0.38332 0.31222
 H1314 H 0.04219 0.41185 0.28817
 H1315 H 0.06175 0.35336 0.24152
 H1316 H 0.03797 0.32479 0.26595
 H1317 H 0.07321 0.39900 0.18171
 H1318 H 0.09535 0.42850 0.15698
 H1319 H 0.12647 0.46261 0.21847
 H1320 H 0.10360 0.43361 0.24308
   
