data_POSCAR
  _audit_creation_date              2014-09-24
  _audit_creation_method            'ToBaCCo'
  _symmetry_space_group_name_H-M    'P1'
  _symmetry_Int_Tables_number       1
  _symmetry_cell_setting            triclinic
  loop_
  _symmetry_equiv_pos_as_xyz
 x,y,z
_cell_length_a 49.8846
_cell_length_b 42.7099
_cell_length_c 50.7441
_cell_angle_alpha 89.810700
_cell_angle_beta 90.027600
_cell_angle_gamma 90.130300
loop_
  _atom_site_label
  _atom_site_type_symbol
  _atom_site_fract_x
  _atom_site_fract_y
  _atom_site_fract_z
C1 C 0.28421 0.30604 0.01192
 C2 C 0.28458 0.30989 -0.01601
 C3 C 0.30403 0.29319 -0.03046
 C4 C 0.32349 0.27407 -0.01830
 C5 C 0.32240 0.27020 0.00947
 C6 C 0.30262 0.28567 0.02393
 H7 H 0.30242 0.28302 0.04521
 H8 H 0.30468 0.29598 -0.05166
 C9 C 0.71665 0.69173 0.01580
 C10 C 0.71378 0.68639 -0.01160
 C11 C 0.69280 0.70109 -0.02525
 C12 C 0.67442 0.72110 -0.01265
 C13 C 0.67794 0.72696 0.01471
 C14 C 0.69899 0.71242 0.02838
 H15 H 0.70087 0.71613 0.04944
 H16 H 0.69104 0.69699 -0.04625
 C17 C 0.72107 0.30650 0.98608
 C18 C 0.72081 0.30571 1.01422
 C19 C 0.70077 0.28771 1.02686
 C20 C 0.68143 0.27105 1.01259
 C21 C 0.68196 0.27179 0.98485
 C22 C 0.70191 0.28914 0.97199
 H23 H 0.70153 0.29054 0.95065
 H24 H 0.70018 0.28619 1.04818
 C25 C 0.27757 0.69885 0.98780
 C26 C 0.28091 0.69356 1.01526
 C27 C 0.30178 0.70955 1.02835
 C28 C 0.31933 0.73022 1.01511
 C29 C 0.31541 0.73517 0.98766
 C30 C 0.29425 0.72016 0.97467
 H31 H 0.29242 0.72269 0.95345
 H32 H 0.30345 0.70724 1.04955
 C33 C 0.01266 0.27476 0.32247
 C34 C -0.01545 0.27807 0.32297
 C35 C -0.02799 0.29660 0.30373
 C36 C -0.01309 0.31286 0.28453
 C37 C 0.01527 0.30986 0.28441
 C38 C 0.02757 0.29027 0.30309
 H39 H 0.04923 0.28803 0.30325
 H40 H -0.04959 0.29931 0.30435
 C41 C 0.01467 0.72637 0.67918
 C42 C -0.01359 0.72320 0.67715
 C43 C -0.02702 0.70530 0.69642
 C44 C -0.01348 0.68933 0.71678
 C45 C 0.01502 0.69165 0.71782
 C46 C 0.02840 0.71101 0.69959
 H47 H 0.05013 0.71198 0.69980
 H48 H -0.04874 0.70512 0.69625
 C49 C 0.99037 0.71442 0.32532
 C50 C 1.01859 0.71488 0.32448
 C51 C 1.03217 0.69669 0.30585
 C52 C 1.01825 0.67714 0.28801
 C53 C 0.98960 0.67812 0.28818
 C54 C 0.97631 0.69659 0.30686
 H55 H 0.95457 0.69723 0.30700
 H56 H 1.05386 0.69611 0.30689
 C57 C 0.98644 0.28294 0.67619
 C58 C 1.01490 0.28391 0.67461
 C59 C 1.02895 0.30095 0.69393
 C60 C 1.01577 0.31825 0.71343
 C61 C 0.98738 0.31870 0.71389
 C62 C 0.97318 0.30010 0.69582
 H63 H 0.95145 0.30076 0.69574
 H64 H 1.05068 0.30053 0.69410
 C65 C 0.33486 0.01758 0.30135
 C66 C 0.33317 -0.01569 0.29963
 C67 C 0.31481 -0.03150 0.31610
 C68 C 0.29727 -0.01551 0.33309
 C69 C 0.29922 0.01773 0.33468
 C70 C 0.31777 0.03357 0.31864
 H71 H 0.31992 0.05873 0.32063
 H72 H 0.31251 -0.05661 0.31401
 C73 C 0.66549 0.00860 0.69827
 C74 C 0.66632 -0.02461 0.69767
 C75 C 0.68232 -0.03964 0.67885
 C76 C 0.69857 -0.02250 0.66139
 C77 C 0.69930 0.01061 0.66341
 C78 C 0.68231 0.02566 0.68131
 H79 H 0.68228 0.05102 0.68208
 H80 H 0.68212 -0.06499 0.67783
 C81 C 0.33370 0.98496 0.69957
 C82 C 0.33263 1.01825 0.70115
 C83 C 0.31551 1.03451 0.68379
 C84 C 0.29791 1.01877 0.66656
 C85 C 0.29916 0.98547 0.66520
 C86 C 0.31703 0.96934 0.68166
 H87 H 0.31874 0.94414 0.67977
 H88 H 0.31393 1.05973 0.68558
 C89 C 0.66554 0.98661 0.30132
 C90 C 0.66842 1.01958 0.30019
 C91 C 0.68656 1.03445 0.31723
 C92 C 0.70227 1.01752 0.33553
 C93 C 0.70062 0.98410 0.33509
 C94 C 0.68214 0.96941 0.31825
 H95 H 0.68052 0.94409 0.31847
 H96 H 0.68726 1.05979 0.31695
 O97 O 0.83929 0.88532 0.52123
 O98 O 0.88341 0.84763 0.47288
 O99 O 0.84136 0.88307 0.47035
 O100 O 0.88164 0.84884 0.52437
 O101 O 0.85593 0.80678 0.52366
 O102 O 0.81453 0.84194 0.47181
 O103 O 0.85692 0.80620 0.47258
 O104 O 0.81413 0.84269 0.52299
 Cu105 Cu 0.86415 0.87037 0.49731
 Cu106 Cu 0.83279 0.82019 0.49775
 C107 C 0.81919 0.87050 0.53024
 C108 C 0.87757 0.82061 0.46421
 C109 C 0.82077 0.86845 0.46217
 C110 C 0.87576 0.82170 0.53304
 O111 O 0.15826 0.11395 0.52816
 O112 O 0.11896 0.14703 0.47380
 O113 O 0.16153 0.11167 0.47717
 O114 O 0.11743 0.15138 0.52524
 O115 O 0.14517 0.19166 0.52523
 O116 O 0.18646 0.15441 0.47460
 O117 O 0.14403 0.18969 0.47434
 O118 O 0.18613 0.15406 0.52626
 Cu119 Cu 0.13634 0.12688 0.50111
 Cu120 Cu 0.16818 0.17655 0.50002
 C121 C 0.17905 0.12802 0.53638
 C122 C 0.12443 0.17416 0.46506
 C123 C 0.18129 0.12662 0.46748
 C124 C 0.12410 0.17832 0.53369
 O125 O 0.15840 0.88929 0.47314
 O126 O 0.11967 0.85341 0.52714
 O127 O 0.16211 0.88959 0.52394
 O128 O 0.11730 0.85264 0.47523
 O129 O 0.14385 0.81130 0.47418
 O130 O 0.18707 0.84690 0.52454
 O131 O 0.14478 0.81096 0.52484
 O132 O 0.18541 0.84846 0.47291
 Cu133 Cu 0.13661 0.87534 0.50013
 Cu134 Cu 0.16802 0.82532 0.49905
 C135 C 0.17863 0.87512 0.46388
 C136 C 0.12534 0.82589 0.53487
 C137 C 0.18216 0.87441 0.53255
 C138 C 0.12320 0.82580 0.46620
 O139 O 0.87960 0.15415 0.52772
 O140 O 0.83785 0.11487 0.47772
 O141 O 0.87904 0.15299 0.47601
 O142 O 0.83946 0.11594 0.52865
 O143 O 0.81119 0.15560 0.52771
 O144 O 0.85207 0.19387 0.47641
 O145 O 0.81131 0.15620 0.47617
 O146 O 0.85199 0.19455 0.52726
 Cu147 Cu 0.86185 0.13050 0.50245
 Cu148 Cu 0.82879 0.17906 0.50195
 C149 C 0.87279 0.18099 0.53605
 C150 C 0.81754 0.12896 0.46839
 C151 C 0.87249 0.17985 0.46734
 C152 C 0.81844 0.12927 0.53705
 O153 O 0.47606 0.88779 0.83545
 O154 O 0.52320 0.84851 0.88082
 O155 O 0.52768 0.88330 0.83908
 O156 O 0.47089 0.85423 0.87823
 O157 O 0.47111 0.81011 0.85561
 O158 O 0.52439 0.84225 0.81296
 O159 O 0.52283 0.80702 0.85504
 O160 O 0.47205 0.84385 0.81289
 Cu161 Cu 0.49957 0.87270 0.86094
 Cu162 Cu 0.49745 0.82155 0.83161
 C163 C 0.46577 0.87224 0.81668
 C164 C 0.53143 0.82112 0.87535
 C165 C 0.53542 0.86812 0.81904
 C166 C 0.46166 0.82701 0.87392
 O167 O 0.52587 0.14474 0.11771
 O168 O 0.47648 0.10971 0.16287
 O169 O 0.47318 0.14331 0.11929
 O170 O 0.52806 0.11191 0.16040
 O171 O 0.52651 0.15444 0.18494
 O172 O 0.47478 0.18760 0.14160
 O173 O 0.47424 0.15411 0.18499
 O174 O 0.52645 0.18769 0.14179
 Cu175 Cu 0.50066 0.12312 0.13756
 Cu176 Cu 0.50036 0.17528 0.16573
 C177 C 0.53501 0.17196 0.12233
 C178 C 0.46715 0.12580 0.18173
 C179 C 0.46521 0.17119 0.12304
 C180 C 0.53641 0.12772 0.17993
 O181 O 0.52671 0.10724 0.83787
 O182 O 0.47708 0.14717 0.87960
 O183 O 0.47488 0.10972 0.83964
 O184 O 0.52948 0.14514 0.87841
 O185 O 0.52874 0.18664 0.85240
 O186 O 0.47659 0.14947 0.81181
 O187 O 0.47689 0.18709 0.85190
 O188 O 0.52897 0.14905 0.81217
 Cu189 Cu 0.50212 0.12326 0.86165
 Cu190 Cu 0.50291 0.17210 0.82932
 C191 C 0.53633 0.12146 0.81800
 C192 C 0.46816 0.17379 0.87262
 C193 C 0.46650 0.12345 0.81898
 C194 C 0.53809 0.17224 0.87230
 O195 O 0.47470 0.85788 0.11747
 O196 O 0.52352 0.89510 0.16183
 O197 O 0.52730 0.86044 0.11944
 O198 O 0.47200 0.89207 0.15954
 O199 O 0.47403 0.85037 0.18523
 O200 O 0.52593 0.81655 0.14256
 O201 O 0.52630 0.85128 0.18494
 O202 O 0.47404 0.81600 0.14300
 Cu203 Cu 0.49945 0.88057 0.13694
 Cu204 Cu 0.50022 0.82927 0.16641
 C205 C 0.46554 0.83085 0.12294
 C206 C 0.53315 0.87956 0.18095
 C207 C 0.53561 0.83281 0.12387
 C208 C 0.46390 0.87683 0.17957
 O209 O 0.85573 0.47063 0.89163
 O210 O 0.89010 0.53467 0.85627
 O211 O 0.85267 0.53075 0.89241
 O212 O 0.89295 0.47405 0.85487
 O213 O 0.86091 0.47092 0.82487
 O214 O 0.82250 0.53087 0.86049
 O215 O 0.85991 0.53169 0.82459
 O216 O 0.82423 0.46983 0.86096
 Cu217 Cu 0.87604 0.50261 0.87689
 Cu218 Cu 0.83874 0.50076 0.83964
 C219 C 0.83391 0.45982 0.88251
 C220 C 0.88113 0.54371 0.83408
 C221 C 0.83073 0.54046 0.88273
 C222 C 0.88374 0.46285 0.83353
 O223 O 0.11229 0.52410 0.14749
 O224 O 0.14958 0.46496 0.10988
 O225 O 0.11431 0.46384 0.14734
 O226 O 0.14854 0.52639 0.10963
 O227 O 0.18131 0.52655 0.13882
 O228 O 0.14618 0.46669 0.17742
 O229 O 0.18161 0.46595 0.13986
 O230 O 0.14555 0.52732 0.17614
 Cu231 Cu 0.12800 0.49492 0.12544
 Cu232 Cu 0.16693 0.49680 0.16098
 C233 C 0.12237 0.53540 0.16840
 C234 C 0.17183 0.45500 0.11867
 C235 C 0.12432 0.45499 0.16916
 C236 C 0.17104 0.53677 0.11762
 O237 O 0.85518 0.53015 0.10759
 O238 O 0.89350 0.47056 0.14444
 O239 O 0.85656 0.46861 0.10741
 O240 O 0.89146 0.53099 0.14445
 O241 O 0.86036 0.52790 0.17527
 O242 O 0.82445 0.46826 0.13727
 O243 O 0.86076 0.46731 0.17368
 O244 O 0.82397 0.52899 0.13836
 Cu245 Cu 0.87727 0.50014 0.12278
 Cu246 Cu 0.83918 0.49803 0.15912
 C247 C 0.83312 0.54002 0.11688
 C248 C 0.88363 0.45894 0.16537
 C249 C 0.83437 0.45793 0.11599
 C250 C 0.88206 0.53957 0.16655
 O251 O 0.11379 0.47063 0.85379
 O252 O 0.14754 0.53495 0.88902
 O253 O 0.11201 0.53114 0.85145
 O254 O 0.15006 0.47398 0.89119
 O255 O 0.18024 0.47105 0.85945
 O256 O 0.14603 0.53451 0.82367
 O257 O 0.18162 0.53173 0.86134
 O258 O 0.14434 0.47373 0.82246
 Cu259 Cu 0.12763 0.50261 0.87445
 Cu260 Cu 0.16633 0.50282 0.83873
 C261 C 0.12285 0.46194 0.83159
 C262 C 0.17068 0.54363 0.88153
 C263 C 0.12280 0.54285 0.83100
 C264 C 0.17138 0.46232 0.88174
 C265 C 0.23210 0.36227 0.05992
 C266 C 0.25997 0.36093 0.06503
 C267 C 0.27647 0.34164 0.04982
 C268 C 0.26571 0.32323 0.02959
 C269 C 0.23788 0.32274 0.02574
 C270 C 0.22123 0.34222 0.04057
 C271 C 0.21561 0.38528 0.07517
 C272 C 0.18828 0.39082 0.06990
 C273 C 0.17408 0.41337 0.08407
 C274 C 0.18667 0.43071 0.10401
 C275 C 0.21379 0.42517 0.10954
 C276 C 0.22838 0.40309 0.09508
 C277 C 0.27135 0.37917 0.08500
 C278 C 0.25581 0.39947 0.09996
 H279 H 0.29264 0.37782 0.08909
 H280 H 0.26558 0.41314 0.11516
 H281 H 0.29797 0.34178 0.05307
 H282 H 0.22919 0.30810 0.01057
 H283 H 0.15316 0.41723 0.07939
 H284 H 0.22381 0.43872 0.12468
 H285 H 0.20003 0.34147 0.03644
 H286 H 0.17763 0.37843 0.05463
 C287 C 0.77071 0.63361 0.06045
 C288 C 0.74335 0.63607 0.06755
 C289 C 0.72629 0.65602 0.05343
 C290 C 0.73597 0.67395 0.03230
 C291 C 0.76339 0.67311 0.02630
 C292 C 0.78058 0.65302 0.04006
 C293 C 0.78775 0.61019 0.07487
 C294 C 0.81457 0.60384 0.06798
 C295 C 0.82929 0.58112 0.08161
 C296 C 0.81775 0.56437 0.10258
 C297 C 0.79112 0.57065 0.10964
 C298 C 0.77601 0.59296 0.09581
 C299 C 0.73302 0.61830 0.08844
 C300 C 0.74908 0.59750 0.10247
 H301 H 0.71213 0.62043 0.09399
 H302 H 0.74010 0.58426 0.11846
 H303 H 0.70512 0.65680 0.05829
 H304 H 0.77132 0.68728 0.01036
 H305 H 0.84979 0.57670 0.07571
 H306 H 0.78186 0.55762 0.12561
 H307 H 0.80138 0.65283 0.03430
 H308 H 0.82441 0.61580 0.05191
 C309 C 0.77111 0.36901 0.94054
 C310 C 0.75638 0.38038 0.96232
 C311 C 0.73944 0.36018 0.97649
 C312 C 0.73835 0.32814 0.97052
 C313 C 0.75347 0.31675 0.94936
 C314 C 0.76957 0.33687 0.93446
 C315 C 0.78802 0.39166 0.92519
 C316 C 0.80083 0.38367 0.90136
 C317 C 0.81595 0.40587 0.88754
 C318 C 0.81907 0.43613 0.89749
 C319 C 0.80651 0.44445 0.92107
 C320 C 0.79046 0.42271 0.93463
 C321 C 0.75906 0.41162 0.97019
 C322 C 0.77621 0.43215 0.95699
 H323 H 0.74807 0.42021 0.98710
 H324 H 0.77787 0.45601 0.96406
 H325 H 0.72753 0.36923 0.99261
 H326 H 0.75295 0.29208 0.94449
 H327 H 0.82525 0.39943 0.86905
 H328 H 0.80844 0.46823 0.92829
 H329 H 0.78099 0.32674 0.91860
 H330 H 0.79892 0.36071 0.89277
 C331 C 0.23020 0.63599 0.94084
 C332 C 0.25451 0.62591 0.95245
 C333 C 0.26953 0.64655 0.96801
 C334 C 0.26135 0.67762 0.97121
 C335 C 0.23835 0.68833 0.95824
 C336 C 0.22266 0.66765 0.94349
 C337 C 0.21400 0.61265 0.92562
 C338 C 0.18780 0.61881 0.91654
 C339 C 0.17353 0.59614 0.90249
 C340 C 0.18533 0.56729 0.89670
 C341 C 0.21116 0.56070 0.90588
 C342 C 0.22522 0.58275 0.92096
 C343 C 0.26399 0.59555 0.94802
 C344 C 0.25000 0.57471 0.93199
 H345 H 0.28278 0.58798 0.95663
 H346 H 0.25842 0.55167 0.92872
 H347 H 0.28785 0.63865 0.97741
 H348 H 0.23221 0.71253 0.96012
 H349 H 0.15340 0.60130 0.89575
 H350 H 0.21992 0.53796 0.90195
 H351 H 0.20496 0.67689 0.93405
 H352 H 0.17788 0.64072 0.92049
 C353 C 0.05851 0.22833 0.38260
 C354 C 0.05357 0.26093 0.38400
 C355 C 0.03770 0.27558 0.36477
 C356 C 0.02747 0.25844 0.34357
 C357 C 0.03330 0.22654 0.34145
 C358 C 0.04833 0.21146 0.36091
 C359 C 0.07519 0.21350 0.40378
 C360 C 0.07909 0.18090 0.40567
 C361 C 0.09499 0.16825 0.42567
 C362 C 0.10770 0.18776 0.44399
 C363 C 0.10376 0.22019 0.44250
 C364 C 0.08715 0.23310 0.42295
 C365 C 0.06516 0.27884 0.40409
 C366 C 0.08202 0.26533 0.42284
 H367 H 0.06158 0.30383 0.40502
 H368 H 0.09089 0.28029 0.43770
 H369 H 0.03384 0.30053 0.36584
 H370 H 0.02630 0.21334 0.32460
 H371 H 0.09760 0.14310 0.42664
 H372 H 0.11304 0.23531 0.45703
 H373 H 0.05229 0.18686 0.35828
 H374 H 0.06977 0.16476 0.39215
 C375 C 0.06165 0.76625 0.61635
 C376 C 0.05806 0.78293 0.64016
 C377 C 0.04359 0.76931 0.66103
 C378 C 0.03104 0.74020 0.65778
 C379 C 0.03373 0.72422 0.63391
 C380 C 0.04899 0.73692 0.61345
 C381 C 0.07818 0.78098 0.59498
 C382 C 0.08598 0.76469 0.57213
 C383 C 0.10148 0.77938 0.55281
 C384 C 0.10908 0.81078 0.55551
 C385 C 0.10165 0.82723 0.57821
 C386 C 0.08697 0.81227 0.59829
 C387 C 0.06822 0.81339 0.64265
 C388 C 0.08174 0.82804 0.62191
 H389 H 0.06516 0.82636 0.66071
 H390 H 0.08875 0.85185 0.62463
 H391 H 0.04110 0.78183 0.67942
 H392 H 0.02396 0.70178 0.63116
 H393 H 0.10730 0.76628 0.53549
 H394 H 0.10812 0.85132 0.58059
 H395 H 0.05018 0.72375 0.59539
 H396 H 0.08075 0.74046 0.56905
 C397 C 0.94450 0.76273 0.38450
 C398 C 0.94144 0.73008 0.38078
 C399 C 0.95685 0.71457 0.36178
 C400 C 0.97492 0.73119 0.34584
 C401 C 0.97727 0.76365 0.34885
 C402 C 0.96247 0.77926 0.36809
 C403 C 0.92789 0.77832 0.40526
 C404 C 0.93063 0.81023 0.41169
 C405 C 0.91441 0.82376 0.43092
 C406 C 0.89494 0.80593 0.44416
 C407 C 0.89232 0.77402 0.43819
 C408 C 0.90881 0.76006 0.41916
 C409 C 0.92269 0.71319 0.39568
 C410 C 0.90647 0.72794 0.41419
 H411 H 0.92024 0.68823 0.39270
 H412 H 0.89200 0.71390 0.42496
 H413 H 0.95468 0.68950 0.35918
 H414 H 0.99024 0.77708 0.33599
 H415 H 0.91699 0.84839 0.43527
 H416 H 0.87762 0.75989 0.44858
 H417 H 0.96503 0.80428 0.36941
 H418 H 0.94527 0.82512 0.40227
 C419 C 0.93795 0.24237 0.61505
 C420 C 0.94185 0.22623 0.63917
 C421 C 0.95680 0.24017 0.65946
 C422 C 0.96965 0.26894 0.65530
 C423 C 0.96670 0.28439 0.63113
 C424 C 0.95087 0.27144 0.61125
 C425 C 0.92090 0.22731 0.59433
 C426 C 0.91265 0.24316 0.57131
 C427 C 0.89674 0.22808 0.55258
 C428 C 0.88925 0.19674 0.55606
 C429 C 0.89703 0.18079 0.57897
 C430 C 0.91207 0.19615 0.59848
 C431 C 0.93155 0.19594 0.64253
 C432 C 0.91762 0.18090 0.62234
 H433 H 0.93487 0.18338 0.66083
 H434 H 0.91056 0.15720 0.62570
 H435 H 0.95948 0.22809 0.67811
 H436 H 0.97668 0.30659 0.62770
 H437 H 0.89057 0.24078 0.53509
 H438 H 0.89059 0.15677 0.58196
 H439 H 0.94944 0.28416 0.59290
 H440 H 0.91786 0.26732 0.56767
 C441 C 0.39468 0.06651 0.25578
 C442 C 0.36815 0.07804 0.25687
 C443 C 0.34884 0.06249 0.27229
 C444 C 0.35587 0.03616 0.28741
 C445 C 0.38285 0.02704 0.28852
 C446 C 0.40198 0.04166 0.27261
 C447 C 0.41392 0.08151 0.23692
 C448 C 0.43903 0.06833 0.23090
 C449 C 0.45603 0.08274 0.21268
 C450 C 0.44869 0.11092 0.20055
 C451 C 0.42371 0.12424 0.20618
 C452 C 0.40591 0.10914 0.22359
 C453 C 0.36115 0.10495 0.24259
 C454 C 0.37987 0.12072 0.22694
 H455 H 0.34096 0.11418 0.24377
 H456 H 0.37356 0.14165 0.21654
 H457 H 0.32818 0.07032 0.27199
 H458 H 0.38893 0.00767 0.30097
 H459 H 0.47518 0.07205 0.20828
 H460 H 0.41778 0.14565 0.19623
 H461 H 0.42233 0.03323 0.27373
 H462 H 0.44559 0.04654 0.23956
 C463 C 0.61247 0.05917 0.75022
 C464 C 0.60306 0.03277 0.73618
 C465 C 0.62001 0.01740 0.71839
 C466 C 0.64706 0.02614 0.71598
 C467 C 0.65659 0.05159 0.73069
 C468 C 0.63953 0.06810 0.74742
 C469 C 0.59334 0.07592 0.76797
 C470 C 0.59941 0.10494 0.77976
 C471 C 0.58075 0.11977 0.79595
 C472 C 0.55600 0.10564 0.80124
 C473 C 0.54960 0.07694 0.78956
 C474 C 0.56773 0.06249 0.77233
 C475 C 0.57709 0.02135 0.74053
 C476 C 0.56007 0.03537 0.75879
 H477 H 0.57004 0.00078 0.73013
 H478 H 0.54035 0.02529 0.76185
 H479 H 0.61225 -0.00187 0.70681
 H480 H 0.67745 0.05855 0.72949
 H481 H 0.58572 0.14221 0.80459
 H482 H 0.53008 0.06652 0.79313
 H483 H 0.64802 0.08725 0.75846
 H484 H 0.61818 0.11684 0.77624
 C485 C 0.38931 0.93186 0.74708
 C486 C 0.39805 0.95885 0.73329
 C487 C 0.38044 0.97458 0.71626
 C488 C 0.35334 0.96576 0.71473
 C489 C 0.34464 0.93924 0.72869
 C490 C 0.36239 0.92228 0.74446
 C491 C 0.40881 0.91549 0.76481
 C492 C 0.40326 0.88634 0.77674
 C493 C 0.42198 0.87225 0.79342
 C494 C 0.44629 0.88722 0.79902
 C495 C 0.45228 0.91595 0.78701
 C496 C 0.43406 0.92972 0.76935
 C497 C 0.42384 0.97085 0.73756
 C498 C 0.44119 0.95709 0.75576
 H499 H 0.43039 0.99183 0.72732
 H500 H 0.46066 0.96776 0.75892
 H501 H 0.38744 0.99482 0.70527
 H502 H 0.32380 0.93208 0.72793
 H503 H 0.41732 0.84978 0.80229
 H504 H 0.47147 0.92704 0.79080
 H505 H 0.35443 0.90251 0.75519
 H506 H 0.38482 0.87384 0.77311
 C507 C 0.60631 0.94029 0.25316
 C508 C 0.63260 0.92814 0.25496
 C509 C 0.65182 0.94325 0.27071
 C510 C 0.64487 0.96960 0.28570
 C511 C 0.61811 0.97964 0.28578
 C512 C 0.59914 0.96558 0.26942
 C513 C 0.58703 0.92518 0.23449
 C514 C 0.56212 0.93861 0.22799
 C515 C 0.54491 0.92379 0.21027
 C516 C 0.55186 0.89500 0.19913
 C517 C 0.57670 0.88152 0.20514
 C518 C 0.59471 0.89696 0.22204
 C519 C 0.63937 0.90080 0.24132
 C520 C 0.62056 0.88501 0.22585
 H521 H 0.65937 0.89113 0.24300
 H522 H 0.62662 0.86364 0.21608
 H523 H 0.67227 0.93473 0.27110
 H524 H 0.61196 0.99891 0.29819
 H525 H 0.52588 0.93462 0.20552
 H526 H 0.58234 0.85964 0.19591
 H527 H 0.57895 0.97455 0.26999
 H528 H 0.55584 0.96082 0.23594
 C529 C 0.38506 0.23423 0.93428
 C530 C 0.37363 0.21678 0.95518
 C531 C 0.35307 0.22976 0.97053
 C532 C 0.34385 0.26044 0.96594
 C533 C 0.35526 0.27745 0.94491
 C534 C 0.37549 0.26467 0.92940
 C535 C 0.40677 0.21944 0.91817
 C536 C 0.41911 0.23472 0.89671
 C537 C 0.43904 0.21987 0.88214
 C538 C 0.44732 0.18944 0.88856
 C539 C 0.43527 0.17402 0.90999
 C540 C 0.41506 0.18870 0.92471
 C541 C 0.38268 0.18641 0.96061
 C542 C 0.40301 0.17271 0.94577
 H543 H 0.37398 0.17303 0.97667
 H544 H 0.40932 0.14917 0.95079
 H545 H 0.34355 0.21532 0.98539
 H546 H 0.34932 0.30137 0.94091
 H547 H 0.44798 0.23236 0.86573
 H548 H 0.44141 0.15043 0.91510
 H549 H 0.38348 0.27923 0.91389
 H550 H 0.41366 0.25808 0.89069
 C551 C 0.61164 0.76006 0.94064
 C552 C 0.62425 0.77833 0.96027
 C553 C 0.64489 0.76547 0.97572
 C554 C 0.65317 0.73422 0.97232
 C555 C 0.64034 0.71629 0.95276
 C556 C 0.61993 0.72887 0.93729
 C557 C 0.59032 0.77493 0.92397
 C558 C 0.57714 0.75891 0.90347
 C559 C 0.55799 0.77397 0.88800
 C560 C 0.55127 0.80536 0.89253
 C561 C 0.56397 0.82147 0.91316
 C562 C 0.58350 0.80658 0.92875
 C563 C 0.61646 0.80949 0.96414
 C564 C 0.59647 0.82326 0.94879
 H565 H 0.62603 0.82350 0.97925
 H566 H 0.59126 0.84747 0.95251
 H567 H 0.65539 0.78051 0.98939
 H568 H 0.64553 0.69194 0.94980
 H569 H 0.54846 0.76089 0.87232
 H570 H 0.55900 0.84576 0.91683
 H571 H 0.61095 0.71363 0.92287
 H572 H 0.58141 0.73484 0.89883
 C573 C 0.38157 0.77545 0.05853
 C574 C 0.37411 0.74424 0.06441
 C575 C 0.35364 0.72951 0.05001
 C576 C 0.34011 0.74529 0.02951
 C577 C 0.34728 0.77660 0.02431
 C578 C 0.36770 0.79138 0.03840
 C579 C 0.40359 0.79029 0.07436
 C580 C 0.41294 0.82099 0.06969
 C581 C 0.43317 0.83391 0.08529
 C582 C 0.44465 0.81666 0.10597
 C583 C 0.43577 0.78590 0.11053
 C584 C 0.41551 0.77262 0.09489
 C585 C 0.38703 0.72787 0.08472
 C586 C 0.40716 0.74181 0.09972
 H587 H 0.38133 0.70395 0.08925
 H588 H 0.41636 0.72822 0.11535
 H589 H 0.34890 0.70524 0.05433
 H590 H 0.33630 0.79041 0.01008
 H591 H 0.43968 0.85766 0.08125
 H592 H 0.44460 0.77222 0.12632
 H593 H 0.37193 0.81546 0.03350
 H594 H 0.40494 0.83545 0.05413
 C595 C 0.61905 0.22543 0.05700
 C596 C 0.61941 0.25843 0.05417
 C597 C 0.63947 0.27298 0.03905
 C598 C 0.65974 0.25520 0.02733
 C599 C 0.66014 0.22275 0.03109
 C600 C 0.63987 0.20789 0.04545
 C601 C 0.59708 0.21079 0.07305
 C602 C 0.59355 0.17813 0.07523
 C603 C 0.57312 0.16565 0.09091
 C604 C 0.55592 0.18536 0.10503
 C605 C 0.55889 0.21790 0.10257
 C606 C 0.57895 0.23070 0.08635
 C607 C 0.60021 0.27675 0.06700
 C608 C 0.58072 0.26323 0.08314
 H609 H 0.60058 0.30202 0.06498
 H610 H 0.56665 0.27847 0.09305
 H611 H 0.63967 0.29823 0.03673
 H612 H 0.67636 0.20890 0.02313
 H613 H 0.57107 0.14045 0.09237
 H614 H 0.54531 0.23328 0.11301
 H615 H 0.64123 0.18284 0.04780
 H616 H 0.60620 0.16184 0.06487
 C617 C 0.24314 0.06814 0.61770
 C618 C 0.26927 0.08004 0.62192
 C619 C 0.28690 0.06445 0.63910
 C620 C 0.27914 0.03652 0.65184
 C621 C 0.25244 0.02639 0.64914
 C622 C 0.23475 0.04177 0.63226
 C623 C 0.22571 0.08388 0.59759
 C624 C 0.20024 0.07233 0.59054
 C625 C 0.18520 0.08697 0.57093
 C626 C 0.19500 0.11360 0.55780
 C627 C 0.22021 0.12559 0.56488
 C628 C 0.23571 0.11075 0.58441
 C629 C 0.27787 0.10696 0.60849
 C630 C 0.26137 0.12214 0.59031
 H631 H 0.29780 0.11628 0.61188
 H632 H 0.26906 0.14272 0.58029
 H633 H 0.30728 0.07302 0.64111
 H634 H 0.24517 0.00624 0.66002
 H635 H 0.16582 0.07718 0.56593
 H636 H 0.22808 0.14603 0.55476
 H637 H 0.21472 0.03242 0.63080
 H638 H 0.19170 0.05171 0.59955
 C639 C 0.75102 0.06787 0.39030
 C640 C 0.73877 0.03933 0.39773
 C641 C 0.72157 0.02384 0.38017
 C642 C 0.71825 0.03440 0.35399
 C643 C 0.73110 0.06257 0.34667
 C644 C 0.74703 0.07911 0.36451
 C645 C 0.76826 0.08442 0.41006
 C646 C 0.77826 0.11496 0.40601
 C647 C 0.79412 0.12944 0.42514
 C648 C 0.80089 0.11354 0.44835
 C649 C 0.79094 0.08329 0.45275
 C650 C 0.77401 0.06904 0.43417
 C651 C 0.74430 0.02595 0.42239
 C652 C 0.76216 0.04004 0.43990
 H653 H 0.73526 0.00379 0.42794
 H654 H 0.76625 0.02842 0.45849
 H655 H 0.71067 0.00352 0.38717
 H656 H 0.72986 0.07144 0.32670
 H657 H 0.80142 0.15301 0.42167
 H658 H 0.79561 0.07136 0.47109
 H659 H 0.75673 0.10013 0.35746
 H660 H 0.77362 0.12825 0.38848
 C661 C 0.74684 0.93128 0.60278
 C662 C 0.74527 0.91899 0.62866
 C663 C 0.72945 0.93403 0.64768
 C664 C 0.71416 0.96045 0.64096
 C665 C 0.71385 0.97065 0.61464
 C666 C 0.73026 0.95663 0.59586
 C667 C 0.76564 0.91625 0.58368
 C668 C 0.77198 0.92976 0.55909
 C669 C 0.78978 0.91496 0.54201
 C670 C 0.80114 0.88613 0.54881
 C671 C 0.79535 0.87260 0.57333
 C672 C 0.77838 0.88799 0.59117
 C673 C 0.75924 0.89162 0.63523
 C674 C 0.77480 0.87593 0.61664
 H675 H 0.75774 0.88188 0.65493
 H676 H 0.78483 0.85454 0.62254
 H677 H 0.72929 0.92540 0.66779
 H678 H 0.70118 0.98996 0.60866
 H679 H 0.79438 0.92580 0.52320
 H680 H 0.80475 0.85065 0.57880
 H681 H 0.72947 0.96569 0.57600
 H682 H 0.76382 0.95200 0.55295
 C683 C 0.24224 0.93559 0.38228
 C684 C 0.26808 0.92327 0.37755
 C685 C 0.28572 0.93875 0.36030
 C686 C 0.27825 0.96691 0.34779
 C687 C 0.25172 0.97741 0.35086
 C688 C 0.23405 0.96220 0.36796
 C689 C 0.22490 0.91994 0.40258
 C690 C 0.19986 0.93196 0.41036
 C691 C 0.18492 0.91722 0.43006
 C692 C 0.19440 0.89001 0.44250
 C693 C 0.21921 0.87767 0.43474
 C694 C 0.23462 0.89260 0.41519
 C695 C 0.27642 0.89599 0.39054
 C696 C 0.25994 0.88079 0.40873
 H697 H 0.29612 0.88634 0.38674
 H698 H 0.26742 0.85987 0.41836
 H699 H 0.30594 0.92988 0.35806
 H700 H 0.24462 0.99776 0.34017
 H701 H 0.16585 0.92730 0.43565
 H702 H 0.22688 0.85682 0.44436
 H703 H 0.21418 0.97183 0.36979
 H704 H 0.19163 0.95301 0.40184
 C705 C 0.06241 0.37428 0.76733
 C706 C 0.06789 0.37471 0.73996
 C707 C 0.05281 0.35610 0.72274
 C708 C 0.03243 0.33647 0.73228
 C709 C 0.02781 0.33488 0.75951
 C710 C 0.04246 0.35368 0.77686
 C711 C 0.07809 0.39587 0.78483
 C712 C 0.07287 0.39918 0.81199
 C713 C 0.08756 0.42038 0.82722
 C714 C 0.10799 0.43854 0.81585
 C715 C 0.11351 0.43517 0.78891
 C716 C 0.09854 0.41447 0.77333
 C717 C 0.08830 0.39380 0.72985
 C718 C 0.10352 0.41296 0.74622
 H719 H 0.09261 0.39392 0.70892
 H720 H 0.11911 0.42728 0.73742
 H721 H 0.05656 0.35736 0.70171
 H722 H 0.01252 0.31938 0.76732
 H723 H 0.08284 0.42263 0.84796
 H724 H 0.12901 0.44940 0.77982
 H725 H 0.03786 0.35174 0.79756
 H726 H 0.05726 0.38605 0.82176
 C727 C 0.06131 0.61520 0.23775
 C728 C 0.07258 0.64433 0.24488
 C729 C 0.05824 0.66483 0.26126
 C730 C 0.03305 0.65624 0.27179
 C731 C 0.02360 0.62573 0.26668
 C732 C 0.03713 0.60581 0.24957
 C733 C 0.07623 0.59493 0.21882
 C734 C 0.06473 0.56816 0.20724
 C735 C 0.07963 0.54957 0.19011
 C736 C 0.10641 0.55690 0.18456
 C737 C 0.11787 0.58401 0.19531
 C738 C 0.10265 0.60362 0.21169
 C739 C 0.09830 0.65249 0.23603
 C740 C 0.11336 0.63209 0.22050
 H741 H 0.10721 0.67461 0.24176
 H742 H 0.13343 0.63907 0.21475
 H743 H 0.06652 0.68785 0.26508
 H744 H 0.00592 0.61667 0.27642
 H745 H 0.07044 0.52883 0.18177
 H746 H 0.13841 0.59008 0.19049
 H747 H 0.02877 0.58279 0.24643
 H748 H 0.04420 0.56143 0.21095
 C749 C 0.94248 0.37187 0.23087
 C750 C 0.96552 0.38366 0.24378
 C751 C 0.97943 0.36481 0.26189
 C752 C 0.97205 0.33338 0.26582
 C753 C 0.94988 0.32142 0.25213
 C754 C 0.93514 0.34038 0.23502
 C755 C 0.92708 0.39340 0.21311
 C756 C 0.90178 0.38555 0.20258
 C757 C 0.88781 0.40685 0.18684
 C758 C 0.89904 0.43598 0.18066
 C759 C 0.92420 0.44409 0.19084
 C760 C 0.93790 0.42342 0.20768
 C761 C 0.97479 0.41394 0.23817
 C762 C 0.96167 0.43308 0.21996
 H763 H 0.99272 0.42279 0.24767
 H764 H 0.96983 0.45617 0.21604
 H765 H 0.99624 0.37450 0.27270
 H766 H 0.94394 0.29718 0.25467
 H767 H 0.86814 0.40059 0.17943
 H768 H 0.93245 0.46710 0.18667
 H769 H 0.91840 0.32982 0.22492
 H770 H 0.89212 0.36350 0.20691
 C771 C 0.94142 0.63280 0.77042
 C772 C 0.93376 0.63542 0.74367
 C773 C 0.94855 0.65436 0.72635
 C774 C 0.97117 0.67131 0.73500
 C775 C 0.97788 0.66971 0.76193
 C776 C 0.96341 0.65063 0.77933
 C777 C 0.92575 0.61099 0.78791
 C778 C 0.93259 0.60509 0.81443
 C779 C 0.91787 0.58367 0.82954
 C780 C 0.89585 0.56776 0.81869
 C781 C 0.88866 0.57388 0.79245
 C782 C 0.90352 0.59493 0.77699
 C783 C 0.91153 0.61889 0.73416
 C784 C 0.89659 0.59932 0.75051
 H785 H 0.90557 0.62106 0.71369
 H786 H 0.87959 0.58699 0.74215
 H787 H 0.94302 0.65457 0.70568
 H788 H 0.99419 0.68360 0.76978
 H789 H 0.92392 0.57934 0.84972
 H790 H 0.87184 0.56157 0.78372
 H791 H 0.96970 0.65032 0.79966
 H792 H 0.94948 0.61634 0.82375
 C793 C 0.76516 0.62663 0.94219
 C794 C 0.75435 0.61557 0.96628
 C795 C 0.73702 0.63465 0.98098
 C796 C 0.73192 0.66562 0.97309
 C797 C 0.74372 0.67692 0.94983
 C798 C 0.75994 0.65771 0.93446
 C799 C 0.78217 0.60495 0.92624
 C800 C 0.79048 0.61196 0.90030
 C801 C 0.80613 0.59081 0.88614
 C802 C 0.81438 0.56268 0.89772
 C803 C 0.80609 0.55525 0.92337
 C804 C 0.78937 0.57572 0.93738
 C805 C 0.76137 0.58586 0.97577
 C806 C 0.77911 0.56672 0.96198
 H807 H 0.75348 0.57754 0.99443
 H808 H 0.78431 0.54417 0.97037
 H809 H 0.72776 0.62550 0.99872
 H810 H 0.74031 0.70083 0.94350
 H811 H 0.81209 0.59657 0.86617
 H812 H 0.81188 0.53299 0.93199
 H813 H 0.76858 0.66777 0.91687
 H814 H 0.78461 0.63329 0.89045
 C815 C 0.23394 0.37129 0.93993
 C816 C 0.24320 0.38020 0.96514
 C817 C 0.26043 0.36038 0.97938
 C818 C 0.26714 0.33037 0.96992
 C819 C 0.25679 0.32138 0.94520
 C820 C 0.24062 0.34143 0.93044
 C821 C 0.21720 0.39398 0.92453
 C822 C 0.21040 0.38927 0.89786
 C823 C 0.19540 0.41152 0.88411
 C824 C 0.18628 0.43854 0.89675
 C825 C 0.19282 0.44355 0.92327
 C826 C 0.20891 0.42196 0.93698
 C827 C 0.23500 0.40870 0.97609
 C828 C 0.21763 0.42873 0.96260
 H829 H 0.24172 0.41537 0.99561
 H830 H 0.21157 0.45028 0.97208
 H831 H 0.26917 0.36900 0.99748
 H832 H 0.26062 0.29825 0.93736
 H833 H 0.19080 0.40758 0.86352
 H834 H 0.18640 0.46494 0.93282
 H835 H 0.23313 0.33285 0.91186
 H836 H 0.21705 0.36900 0.88708
 C837 C 0.23125 0.62950 0.05779
 C838 C 0.25871 0.63284 0.06420
 C839 C 0.27487 0.65409 0.05022
 C840 C 0.26423 0.67263 0.02972
 C841 C 0.23661 0.67010 0.02438
 C842 C 0.22043 0.64880 0.03797
 C843 C 0.21489 0.60584 0.07273
 C844 C 0.18778 0.59931 0.06692
 C845 C 0.17351 0.57690 0.08142
 C846 C 0.18584 0.56062 0.10215
 C847 C 0.21285 0.56684 0.10794
 C848 C 0.22745 0.58892 0.09331
 C849 C 0.26997 0.61500 0.08456
 C850 C 0.25462 0.59376 0.09898
 H851 H 0.29098 0.61764 0.08956
 H852 H 0.26425 0.58067 0.11466
 H853 H 0.29609 0.65518 0.05476
 H854 H 0.22706 0.68549 0.01028
 H855 H 0.15274 0.57241 0.07645
 H856 H 0.22275 0.55409 0.12368
 H857 H 0.19943 0.64819 0.03292
 H858 H 0.17729 0.61100 0.05113
 C859 C 0.77365 0.36385 0.05846
 C860 C 0.74695 0.35875 0.06686
 C861 C 0.73004 0.33862 0.05272
 C862 C 0.73906 0.32322 0.02989
 C863 C 0.76624 0.32659 0.02286
 C864 C 0.78321 0.34675 0.03674
 C865 C 0.79036 0.38742 0.07305
 C866 C 0.81645 0.39619 0.06515
 C867 C 0.83081 0.41898 0.07907
 C868 C 0.81960 0.43347 0.10124
 C869 C 0.79370 0.42476 0.10925
 C870 C 0.77899 0.40229 0.09527
 C871 C 0.73700 0.37420 0.08907
 C872 C 0.75277 0.39523 0.10314
 H873 H 0.71662 0.37008 0.09564
 H874 H 0.74409 0.40664 0.12016
 H875 H 0.70924 0.33668 0.05869
 H876 H 0.77450 0.31360 0.00649
 H877 H 0.85073 0.42532 0.07240
 H878 H 0.78465 0.43593 0.12621
 H879 H 0.80369 0.34867 0.03010
 H880 H 0.82596 0.38607 0.04811
 C881 C 0.93915 0.76246 0.61534
 C882 C 0.96064 0.77981 0.62617
 C883 C 0.97628 0.76692 0.64655
 C884 C 0.97116 0.73655 0.65631
 C885 C 0.94968 0.71961 0.64530
 C886 C 0.93404 0.73220 0.62518
 C887 C 0.92255 0.77721 0.59404
 C888 C 0.90051 0.76193 0.58240
 C889 C 0.88553 0.77658 0.56278
 C890 C 0.89200 0.80688 0.55409
 C891 C 0.91394 0.82241 0.56554
 C892 C 0.92918 0.80784 0.58544
 C893 C 0.96622 0.81004 0.61679
 C894 C 0.95088 0.82371 0.59683
 H895 H 0.98273 0.82336 0.62501
 H896 H 0.95603 0.84714 0.59029
 H897 H 0.99150 0.78134 0.65565
 H898 H 0.94530 0.69593 0.65171
 H899 H 0.86875 0.76395 0.55436
 H900 H 0.91914 0.84585 0.55903
 H901 H 0.91814 0.71767 0.61763
 H902 H 0.89436 0.73868 0.58810
 C903 C 0.93614 0.23917 0.38533
 C904 C 0.95215 0.21937 0.36951
 C905 C 0.96750 0.23205 0.34889
 C906 C 0.96800 0.26441 0.34436
 C907 C 0.95246 0.28405 0.36021
 C908 C 0.93669 0.27168 0.38043
 C909 C 0.91945 0.22460 0.40668
 C910 C 0.90155 0.24196 0.42234
 C911 C 0.88634 0.22731 0.44189
 C912 C 0.88871 0.19506 0.44654
 C913 C 0.90640 0.17750 0.43102
 C914 C 0.92146 0.19191 0.41096
 C915 C 0.95291 0.18711 0.37449
 C916 C 0.93816 0.17374 0.39497
 H917 H 0.96533 0.17199 0.36251
 H918 H 0.93960 0.14869 0.39815
 H919 H 0.97894 0.21671 0.33622
 H920 H 0.95268 0.30914 0.35700
 H921 H 0.87279 0.24138 0.45356
 H922 H 0.90810 0.15247 0.43422
 H923 H 0.92533 0.28801 0.39208
 H924 H 0.89877 0.26679 0.41970
 C925 C 0.06098 0.24209 0.61337
 C926 C 0.03885 0.22583 0.62425
 C927 C 0.02356 0.23958 0.64442
 C928 C 0.02975 0.26967 0.65400
 C929 C 0.05192 0.28546 0.64303
 C930 C 0.06717 0.27207 0.62307
 C931 C 0.07719 0.22641 0.59235
 C932 C 0.09963 0.24070 0.58050
 C933 C 0.11450 0.22499 0.56149
 C934 C 0.10749 0.19461 0.55358
 C935 C 0.08492 0.18023 0.56498
 C936 C 0.06980 0.19587 0.58430
 C937 C 0.03238 0.19575 0.61524
 C938 C 0.04751 0.18111 0.59571
 H939 H 0.01540 0.18326 0.62350
 H940 H 0.04174 0.15777 0.58955
 H941 H 0.00784 0.22593 0.65358
 H942 H 0.05718 0.30890 0.64934
 H943 H 0.13170 0.23681 0.55299
 H944 H 0.07926 0.15678 0.55903
 H945 H 0.08370 0.28572 0.61559
 H946 H 0.10622 0.26394 0.58563
 C947 C 0.06244 0.76519 0.38365
 C948 C 0.05460 0.73371 0.38803
 C949 C 0.04010 0.71754 0.36865
 C950 C 0.03435 0.73185 0.34448
 C951 C 0.04355 0.76223 0.33942
 C952 C 0.05719 0.77894 0.35889
 C953 C 0.07687 0.78207 0.40526
 C954 C 0.08241 0.81445 0.40434
 C955 C 0.09670 0.82887 0.42467
 C956 C 0.10616 0.81123 0.44601
 C957 C 0.10000 0.77927 0.44760
 C958 C 0.08482 0.76479 0.42778
 C959 C 0.06183 0.71839 0.41141
 C960 C 0.07726 0.73334 0.43055
 H961 H 0.05606 0.69420 0.41466
 H962 H 0.08296 0.72025 0.44800
 H963 H 0.03348 0.69369 0.37218
 H964 H 0.03965 0.77322 0.32054
 H965 H 0.10109 0.85368 0.42333
 H966 H 0.10676 0.76579 0.46449
 H967 H 0.06379 0.80234 0.35408
 H968 H 0.07574 0.82900 0.38820
 C969 C 0.61709 0.92447 0.75268
 C970 C 0.61619 0.91720 0.72549
 C971 C 0.63306 0.93302 0.70772
 C972 C 0.65099 0.95595 0.71671
 C973 C 0.65325 0.96144 0.74382
 C974 C 0.63646 0.94605 0.76163
 C975 C 0.59710 0.90920 0.77065
 C976 C 0.59441 0.91745 0.79737
 C977 C 0.57463 0.90371 0.81301
 C978 C 0.55720 0.88112 0.80258
 C979 C 0.55996 0.87229 0.77612
 C980 C 0.57937 0.88660 0.75999
 C981 C 0.59818 0.89459 0.71617
 C982 C 0.58045 0.87927 0.73312
 H983 H 0.59770 0.88875 0.69541
 H984 H 0.56684 0.86205 0.72491
 H985 H 0.63154 0.92839 0.68677
 H986 H 0.66753 0.97846 0.75115
 H987 H 0.57287 0.91094 0.83337
 H988 H 0.54629 0.85520 0.76779
 H989 H 0.63881 0.95163 0.78220
 H990 H 0.60692 0.93499 0.80645
 C991 C 0.38430 0.93286 0.24838
 C992 C 0.37234 0.96106 0.23970
 C993 C 0.35437 0.97707 0.25610
 C994 C 0.34900 0.96649 0.28190
 C995 C 0.36016 0.93775 0.28992
 C996 C 0.37752 0.92123 0.27352
 C997 C 0.40412 0.91705 0.23064
 C998 C 0.41711 0.88887 0.23741
 C999 C 0.43614 0.87570 0.22063
 C1000 C 0.44280 0.89022 0.19668
 C1001 C 0.42959 0.91796 0.18949
 C1002 C 0.41035 0.93138 0.20619
 C1003 C 0.37884 0.97357 0.21496
 C1004 C 0.39754 0.95915 0.19864
 H1005 H 0.36971 0.99521 0.20832
 H1006 H 0.40220 0.97006 0.17987
 H1007 H 0.34470 0.99805 0.24873
 H1008 H 0.35671 0.92866 0.30959
 H1009 H 0.44594 0.85424 0.22667
 H1010 H 0.43440 0.92931 0.17094
 H1011 H 0.38591 0.89985 0.28124
 H1012 H 0.41305 0.87668 0.25561
 C1013 C 0.61627 0.07267 0.24918
 C1014 C 0.63168 0.04771 0.23895
 C1015 C 0.65000 0.03188 0.25521
 C1016 C 0.65207 0.03924 0.28207
 C1017 C 0.63704 0.06419 0.29209
 C1018 C 0.61949 0.08084 0.27589
 C1019 C 0.59638 0.08840 0.23138
 C1020 C 0.58092 0.11431 0.23927
 C1021 C 0.56185 0.12730 0.22236
 C1022 C 0.55755 0.11474 0.19721
 C1023 C 0.57333 0.08947 0.18888
 C1024 C 0.59282 0.07647 0.20562
 C1025 C 0.62796 0.03786 0.21291
 C1026 C 0.60870 0.05165 0.19671
 H1027 H 0.63963 0.01862 0.20513
 H1028 H 0.60617 0.04270 0.17690
 H1029 H 0.66178 0.01278 0.24730
 H1030 H 0.63820 0.07013 0.31280
 H1031 H 0.55007 0.14692 0.22922
 H1032 H 0.57048 0.07991 0.16931
 H1033 H 0.60804 0.09930 0.28491
 H1034 H 0.58319 0.12491 0.25840
 C1035 C 0.38314 0.06548 0.75553
 C1036 C 0.37888 0.07801 0.73003
 C1037 C 0.36110 0.06319 0.71256
 C1038 C 0.34768 0.03545 0.71990
 C1039 C 0.35026 0.02487 0.74606
 C1040 C 0.36782 0.03944 0.76356
 C1041 C 0.40401 0.08035 0.77274
 C1042 C 0.41138 0.06800 0.79749
 C1043 C 0.43154 0.08211 0.81241
 C1044 C 0.44486 0.10894 0.80316
 C1045 C 0.43759 0.12151 0.77858
 C1046 C 0.41758 0.10725 0.76324
 C1047 C 0.39287 0.10481 0.72187
 C1048 C 0.41158 0.11931 0.73823
 H1049 H 0.38945 0.11461 0.70243
 H1050 H 0.42196 0.13990 0.73093
 H1051 H 0.35918 0.07215 0.69263
 H1052 H 0.33882 0.00490 0.75301
 H1053 H 0.43676 0.07186 0.83127
 H1054 H 0.44789 0.14207 0.77110
 H1055 H 0.36922 0.02976 0.78316
 H1056 H 0.40217 0.04721 0.80553
 C1057 C 0.61884 0.77558 0.06073
 C1058 C 0.61349 0.74526 0.05076
 C1059 C 0.63268 0.72990 0.03531
 C1060 C 0.65772 0.74369 0.03064
 C1061 C 0.66370 0.77284 0.04176
 C1062 C 0.64437 0.78889 0.05634
 C1063 C 0.59741 0.79161 0.07635
 C1064 C 0.59926 0.82315 0.08435
 C1065 C 0.57887 0.83678 0.09931
 C1066 C 0.55653 0.81911 0.10706
 C1067 C 0.55418 0.78798 0.09873
 C1068 C 0.57402 0.77442 0.08288
 C1069 C 0.58935 0.73011 0.05688
 C1070 C 0.57035 0.74406 0.07316
 H1071 H 0.58536 0.70678 0.04949
 H1072 H 0.55227 0.73107 0.07785
 H1073 H 0.62844 0.70690 0.02730
 H1074 H 0.68320 0.78342 0.03867
 H1075 H 0.58082 0.86098 0.10536
 H1076 H 0.53653 0.77454 0.10415
 H1077 H 0.64990 0.81135 0.06438
 H1078 H 0.61614 0.83770 0.07902
 C1079 C 0.38568 0.22867 0.05527
 C1080 C 0.36100 0.21269 0.05213
 C1081 C 0.34017 0.22656 0.03756
 C1082 C 0.34424 0.25528 0.02471
 C1083 C 0.36908 0.27034 0.02675
 C1084 C 0.38958 0.25733 0.04192
 C1085 C 0.40674 0.21416 0.07243
 C1086 C 0.43019 0.23024 0.07994
 C1087 C 0.44897 0.21605 0.09644
 C1088 C 0.44517 0.18531 0.10537
 C1089 C 0.42195 0.16896 0.09808
 C1090 C 0.40232 0.18354 0.08235
 C1091 C 0.35750 0.18282 0.06313
 C1092 C 0.37798 0.16822 0.07733
 H1093 H 0.33878 0.17033 0.06039
 H1094 H 0.37441 0.14493 0.08513
 H1095 H 0.32101 0.21475 0.03560
 H1096 H 0.37248 0.29244 0.01675
 H1097 H 0.46671 0.22909 0.10210
 H1098 H 0.41869 0.14544 0.10554
 H1099 H 0.40835 0.26986 0.04272
 H1100 H 0.43410 0.25403 0.07383
 C1101 C 0.61950 0.23207 0.93680
 C1102 C 0.63674 0.21228 0.95146
 C1103 C 0.65734 0.22525 0.96687
 C1104 C 0.66033 0.25777 0.96878
 C1105 C 0.64294 0.27735 0.95474
 C1106 C 0.62278 0.26477 0.93892
 C1107 C 0.59842 0.21730 0.91981
 C1108 C 0.58180 0.23479 0.90283
 C1109 C 0.56248 0.21999 0.88736
 C1110 C 0.55898 0.18744 0.88854
 C1111 C 0.57554 0.16972 0.90522
 C1112 C 0.59547 0.18432 0.92048
 C1113 C 0.63316 0.17975 0.95083
 C1114 C 0.61271 0.16611 0.93600
 H1115 H 0.64620 0.16461 0.96223
 H1116 H 0.61061 0.14085 0.93640
 H1117 H 0.67119 0.21005 0.97718
 H1118 H 0.64503 0.30256 0.95606
 H1119 H 0.55000 0.23420 0.87460
 H1120 H 0.57326 0.14448 0.90595
 H1121 H 0.60990 0.28104 0.92874
 H1122 H 0.58354 0.25987 0.90097
 C1123 C 0.37582 0.77742 0.93860
 C1124 C 0.38024 0.74791 0.95061
 C1125 C 0.36065 0.73482 0.96713
 C1126 C 0.33611 0.74999 0.97088
 C1127 C 0.33098 0.77819 0.95772
 C1128 C 0.35074 0.79207 0.94203
 C1129 C 0.39775 0.79120 0.92204
 C1130 C 0.39696 0.82210 0.91221
 C1131 C 0.41796 0.83382 0.89684
 C1132 C 0.43981 0.81480 0.89045
 C1133 C 0.44103 0.78421 0.90037
 C1134 C 0.42059 0.77263 0.91673
 C1135 C 0.40381 0.73127 0.94549
 C1136 C 0.42324 0.74301 0.92835
 H1137 H 0.40703 0.70850 0.95442
 H1138 H 0.44088 0.72896 0.92459
 H1139 H 0.36416 0.71244 0.97666
 H1140 H 0.31180 0.78970 0.96001
 H1141 H 0.41693 0.85765 0.88955
 H1142 H 0.45834 0.76980 0.89600
 H1143 H 0.34589 0.81388 0.93239
 H1144 H 0.38056 0.83768 0.91655
 C1145 C 0.75122 0.92804 0.38537
 C1146 C 0.76254 0.95180 0.36931
 C1147 C 0.74631 0.96851 0.35158
 C1148 C 0.71850 0.96349 0.35094
 C1149 C 0.70736 0.93983 0.36673
 C1150 C 0.72346 0.92218 0.38360
 C1151 C 0.76908 0.91115 0.40441
 C1152 C 0.76013 0.88587 0.42000
 C1153 C 0.77716 0.87177 0.43829
 C1154 C 0.80350 0.88256 0.44167
 C1155 C 0.81290 0.90714 0.42571
 C1156 C 0.79603 0.92118 0.40690
 C1157 C 0.78969 0.95966 0.37188
 C1158 C 0.80596 0.94506 0.39059
 H1159 H 0.79832 0.97802 0.35976
 H1160 H 0.82667 0.95253 0.39226
 H1161 H 0.75504 0.98665 0.33927
 H1162 H 0.68593 0.93569 0.36668
 H1163 H 0.76946 0.85269 0.45022
 H1164 H 0.83339 0.91528 0.42784
 H1165 H 0.71360 0.90487 0.39571
 H1166 H 0.74009 0.87656 0.41841
 C1167 C 0.25163 0.93311 0.60930
 C1168 C 0.26563 0.96034 0.60120
 C1169 C 0.28254 0.97598 0.61894
 C1170 C 0.28378 0.96674 0.64551
 C1171 C 0.26953 0.94004 0.65360
 C1172 C 0.25387 0.92323 0.63573
 C1173 C 0.23408 0.91683 0.58966
 C1174 C 0.22203 0.88751 0.59463
 C1175 C 0.20542 0.87359 0.57583
 C1176 C 0.20001 0.88890 0.55201
 C1177 C 0.21222 0.91776 0.54658
 C1178 C 0.22983 0.93136 0.56488
 C1179 C 0.26172 0.97260 0.57585
 C1180 C 0.24362 0.95891 0.55835
 H1181 H 0.27214 0.99371 0.56975
 H1182 H 0.24071 0.96978 0.53923
 H1183 H 0.29376 0.99634 0.61241
 H1184 H 0.27003 0.93255 0.67400
 H1185 H 0.19638 0.85103 0.58005
 H1186 H 0.20856 0.92913 0.52777
 H1187 H 0.24293 0.90327 0.64319
 H1188 H 0.22549 0.87478 0.61272
 C1189 C 0.25103 0.06905 0.39046
 C1190 C 0.26519 0.04199 0.39852
 C1191 C 0.28254 0.02694 0.38089
 C1192 C 0.28401 0.03649 0.35440
 C1193 C 0.26981 0.06316 0.34638
 C1194 C 0.25371 0.07945 0.36419
 C1195 C 0.23296 0.08466 0.40998
 C1196 C 0.22062 0.11377 0.40509
 C1197 C 0.20387 0.12728 0.42390
 C1198 C 0.19852 0.11178 0.44767
 C1199 C 0.21078 0.08298 0.45293
 C1200 C 0.22856 0.06978 0.43461
 C1201 C 0.26097 0.02926 0.42366
 C1202 C 0.24251 0.04237 0.44105
 H1203 H 0.27148 0.00823 0.42969
 H1204 H 0.23947 0.03118 0.46002
 H1205 H 0.29376 0.00662 0.38737
 H1206 H 0.27057 0.07092 0.32605
 H1207 H 0.19484 0.14983 0.41980
 H1208 H 0.20722 0.07147 0.47170
 H1209 H 0.24278 0.09937 0.35676
 H1210 H 0.22408 0.12672 0.38712
 C1211 C 0.75342 0.06379 0.61450
 C1212 C 0.72591 0.07177 0.61566
 C1213 C 0.70847 0.05481 0.63210
 C1214 C 0.71807 0.03000 0.64758
 C1215 C 0.74554 0.02326 0.64751
 C1216 C 0.76302 0.03979 0.63112
 C1217 C 0.77102 0.08108 0.59542
 C1218 C 0.79807 0.07315 0.59121
 C1219 C 0.81337 0.08911 0.57250
 C1220 C 0.80227 0.11361 0.55764
 C1221 C 0.77546 0.12206 0.56192
 C1222 C 0.75969 0.10570 0.58035
 C1223 C 0.71594 0.09640 0.60025
 C1224 C 0.73254 0.11323 0.58320
 H1225 H 0.69494 0.10271 0.60132
 H1226 H 0.72383 0.13202 0.57165
 H1227 H 0.68726 0.06031 0.63234
 H1228 H 0.75340 0.00469 0.65986
 H1229 H 0.83401 0.08213 0.56958
 H1230 H 0.76661 0.14071 0.55030
 H1231 H 0.78388 0.03328 0.63172
 H1232 H 0.80770 0.05432 0.60174
 C1233 C 0.94219 0.62533 0.23276
 C1234 C 0.93650 0.62414 0.26008
 C1235 C 0.95177 0.64184 0.27781
 C1236 C 0.97257 0.66122 0.26881
 C1237 C 0.97726 0.66380 0.24165
 C1238 C 0.96240 0.64593 0.22380
 C1239 C 0.92650 0.60440 0.21472
 C1240 C 0.93208 0.60159 0.18758
 C1241 C 0.91748 0.58083 0.17186
 C1242 C 0.89677 0.56266 0.18271
 C1243 C 0.89086 0.56558 0.20961
 C1244 C 0.90577 0.58579 0.22568
 C1245 C 0.91577 0.60513 0.26964
 C1246 C 0.90049 0.58669 0.25276
 H1247 H 0.91128 0.60448 0.29053
 H1248 H 0.88467 0.57235 0.26114
 H1249 H 0.94792 0.63998 0.29879
 H1250 H 0.99287 0.67920 0.23432
 H1251 H 0.92249 0.57890 0.15117
 H1252 H 0.87517 0.55130 0.21830
 H1253 H 0.96709 0.64851 0.20316
 H1254 H 0.94794 0.61473 0.17823
 C1255 C 0.94475 0.38177 0.76530
 C1256 C 0.93564 0.35063 0.76204
 C1257 C 0.94977 0.32999 0.74559
 C1258 C 0.97217 0.34044 0.73125
 C1259 C 0.97955 0.37213 0.73279
 C1260 C 0.96641 0.39240 0.74992
 C1261 C 0.93013 0.40257 0.78410
 C1262 C 0.93997 0.43215 0.79172
 C1263 C 0.92518 0.45113 0.80865
 C1264 C 0.90014 0.44128 0.81794
 C1265 C 0.89049 0.41151 0.81127
 C1266 C 0.90573 0.39170 0.79507
 C1267 C 0.91212 0.34063 0.77465
 C1268 C 0.89704 0.36104 0.79015
 H1269 H 0.90486 0.31693 0.77191
 H1270 H 0.87858 0.35247 0.79886
 H1271 H 0.94332 0.30583 0.74387
 H1272 H 0.99573 0.38126 0.72079
 H1273 H 0.93293 0.47401 0.81388
 H1274 H 0.87134 0.40369 0.81898
 H1275 H 0.97309 0.41644 0.75041
 H1276 H 0.95910 0.44087 0.78496
 C1277 C 0.06342 0.63100 0.76682
 C1278 C 0.04149 0.61883 0.75240
 C1279 C 0.02662 0.63844 0.73572
 C1280 C 0.03178 0.67075 0.73467
 C1281 C 0.05313 0.68295 0.74944
 C1282 C 0.06889 0.66336 0.76520
 C1283 C 0.07941 0.60894 0.78364
 C1284 C 0.10357 0.61765 0.79614
 C1285 C 0.11777 0.59605 0.81147
 C1286 C 0.10787 0.56569 0.81515
 C1287 C 0.08405 0.55663 0.80275
 C1288 C 0.07018 0.57771 0.78646
 C1289 C 0.03403 0.58737 0.75525
 C1290 C 0.04765 0.56746 0.77243
 H1291 H 0.01699 0.57816 0.74448
 H1292 H 0.04078 0.54346 0.77433
 H1293 H 0.01049 0.62866 0.72400
 H1294 H 0.05746 0.70781 0.74898
 H1295 H 0.13641 0.60312 0.82070
 H1296 H 0.07684 0.53280 0.80511
 H1297 H 0.08485 0.67406 0.77638
 H1298 H 0.11204 0.64076 0.79390
 C1299 C 0.06567 0.36813 0.23571
 C1300 C 0.04475 0.35050 0.22404
 C1301 C 0.02907 0.33023 0.23962
 C1302 C 0.03298 0.32871 0.26699
 C1303 C 0.05350 0.34653 0.27844
 C1304 C 0.06972 0.36582 0.26310
 C1305 C 0.08196 0.38947 0.21860
 C1306 C 0.10432 0.40617 0.22809
 C1307 C 0.11820 0.42684 0.21178
 C1308 C 0.11022 0.43152 0.18557
 C1309 C 0.08850 0.41423 0.17560
 C1310 C 0.07455 0.39299 0.19183
 C1311 C 0.03908 0.35406 0.19715
 C1312 C 0.05336 0.37524 0.18149
 H1313 H 0.02292 0.34081 0.18821
 H1314 H 0.04781 0.37765 0.16094
 H1315 H 0.01324 0.31648 0.23064
 H1316 H 0.05662 0.34607 0.29957
 H1317 H 0.13502 0.43963 0.21994
 H1318 H 0.08243 0.41729 0.15524
 H1319 H 0.08478 0.37932 0.27324
 H1320 H 0.11151 0.40365 0.24801
   
