data_POSCAR
  _audit_creation_date              2014-09-24
  _audit_creation_method            'ToBaCCo'
  _symmetry_space_group_name_H-M    'P1'
  _symmetry_Int_Tables_number       1
  _symmetry_cell_setting            triclinic
  loop_
  _symmetry_equiv_pos_as_xyz
 x,y,z
_cell_length_a 41.6191
_cell_length_b 42.3833
_cell_length_c 48.0247
_cell_angle_alpha 90.016500
_cell_angle_beta 90.330900
_cell_angle_gamma 89.134400
loop_
  _atom_site_label
  _atom_site_type_symbol
  _atom_site_fract_x
  _atom_site_fract_y
  _atom_site_fract_z
C1 C 0.40351 -0.02838 0.25405
 C2 C 0.42060 -0.00454 0.24069
 C3 C 0.43192 -0.00919 0.21371
 C4 C 0.42709 -0.03789 0.20007
 C5 C 0.40951 -0.06170 0.21335
 C6 C 0.39666 -0.05683 0.24033
 C7 C 0.42767 0.02482 0.25555
 C8 C 0.44653 0.02344 0.27964
 C9 C 0.45176 0.05047 0.29578
 C10 C 0.43643 0.07915 0.28752
 C11 C 0.41844 0.08113 0.26247
 C12 C 0.41438 0.05364 0.24660
 H13 H 0.39584 -0.02475 0.27537
 H14 H 0.44513 0.00935 0.20350
 H15 H 0.45586 0.00069 0.28652
 H16 H 0.39994 0.05441 0.22775
 H17 H 0.40505 -0.08350 0.20227
 H18 H 0.43884 0.10004 0.30032
 C19 C 0.07715 -0.05766 0.73847
 C20 C 0.06240 -0.02872 0.74521
 C21 C 0.04451 -0.02584 0.76950
 C22 C 0.04321 -0.05063 0.78850
 C23 C 0.05846 -0.07968 0.78218
 C24 C 0.07580 -0.08329 0.75711
 C25 C 0.06993 0.00036 0.73019
 C26 C 0.05512 0.00740 0.70475
 C27 C 0.05941 0.03693 0.69191
 C28 C 0.08012 0.05887 0.70495
 C29 C 0.09463 0.05202 0.73095
 C30 C 0.08951 0.02263 0.74319
 H31 H 0.09163 -0.05954 0.71984
 H32 H 0.03393 -0.00310 0.77490
 H33 H 0.04039 -0.01037 0.69493
 H34 H 0.10034 0.01723 0.76325
 H35 H 0.05859 -0.09856 0.79738
 H36 H 0.08414 0.08164 0.69544
 C37 C 0.57795 0.44652 0.24568
 C38 C 0.56600 0.47429 0.25795
 C39 C 0.54937 0.47279 0.28313
 C40 C 0.54165 0.44350 0.29496
 C41 C 0.55192 0.41571 0.28095
 C42 C 0.57308 0.41731 0.25836
 C43 C 0.57099 0.50481 0.24418
 C44 C 0.56230 0.50800 0.21620
 C45 C 0.56822 0.53583 0.20177
 C46 C 0.58264 0.56120 0.21570
 C47 C 0.59141 0.55831 0.24402
 C48 C 0.58539 0.53006 0.25818
 H49 H 0.59299 0.44784 0.22737
 H50 H 0.54220 0.49464 0.29316
 H51 H 0.55174 0.48825 0.20528
 H52 H 0.59290 0.52739 0.27971
 H53 H 0.54535 0.39267 0.28850
 H54 H 0.58838 0.58241 0.20429
 C55 C 0.91061 0.47896 0.75878
 C56 C 0.92718 0.50203 0.74381
 C57 C 0.93392 0.49725 0.71568
 C58 C 0.92434 0.46984 0.70211
 C59 C 0.90742 0.44681 0.71691
 C60 C 0.90053 0.45129 0.74542
 C61 C 0.93741 0.53164 0.75692
 C62 C 0.95810 0.53105 0.77990
 C63 C 0.97023 0.55918 0.79132
 C64 C 0.95820 0.58821 0.78044
 C65 C 0.93662 0.58905 0.75769
 C66 C 0.92734 0.56052 0.74557
 H67 H 0.90514 0.48273 0.78057
 H68 H 0.94679 0.51506 0.70419
 H69 H 0.96428 0.50837 0.78903
 H70 H 0.91112 0.56073 0.72782
 H71 H 0.89956 0.42567 0.70634
 H72 H 0.96548 0.61035 0.78949
 C73 C 0.27709 0.33134 1.03786
 C74 C 0.28373 0.34270 1.01102
 C75 C 0.31193 0.35977 1.00649
 C76 C 0.33352 0.36556 1.02848
 C77 C 0.32737 0.35266 1.05476
 C78 C 0.29828 0.33707 1.06037
 C79 C 0.25917 0.34090 0.98859
 C80 C 0.23488 0.36415 0.98699
 C81 C 0.21272 0.36436 0.96487
 C82 C 0.21551 0.34166 0.94370
 C83 C 0.23977 0.31808 0.94478
 C84 C 0.26077 0.31727 0.96805
 H85 H 0.25434 0.31997 1.04142
 H86 H 0.31626 0.36996 0.98618
 H87 H 0.23319 0.38212 1.00301
 H88 H 0.27900 0.29884 0.96979
 H89 H 0.34485 0.35612 1.07125
 H90 H 0.19880 0.34250 0.92633
 C91 C 0.72116 0.16183 1.03963
 C92 C 0.71679 0.14793 1.01341
 C93 C 0.69130 0.12721 1.00911
 C94 C 0.67080 0.11947 1.03115
 C95 C 0.67581 0.13308 1.05741
 C96 C 0.70140 0.15392 1.06231
 C97 C 0.74105 0.15244 0.99150
 C98 C 0.76837 0.13263 0.99104
 C99 C 0.79205 0.13628 0.97062
 C100 C 0.78794 0.15998 0.95042
 C101 C 0.76101 0.18044 0.95097
 C102 C 0.73737 0.17630 0.97142
 H103 H 0.74011 0.17886 1.04217
 H104 H 0.68801 0.11636 0.98887
 H105 H 0.77120 0.11431 1.00666
 H106 H 0.71630 0.19163 0.97175
 H107 H 0.66059 0.12586 1.07443
 H108 H 0.80562 0.16239 0.93410
 C109 C 0.22158 0.66152 0.53753
 C110 C 0.21674 0.64561 0.51233
 C111 C 0.18912 0.62730 0.50867
 C112 C 0.16694 0.62383 0.53048
 C113 C 0.17196 0.64024 0.55549
 C114 C 0.19910 0.65918 0.55908
 C115 C 0.24095 0.64732 0.49003
 C116 C 0.26711 0.62603 0.48953
 C117 C 0.28914 0.62629 0.46737
 C118 C 0.28342 0.64702 0.44496
 C119 C 0.25779 0.66915 0.44556
 C120 C 0.23740 0.66978 0.46882
 H121 H 0.24307 0.67527 0.54057
 H122 H 0.18537 0.61504 0.48914
 H123 H 0.27031 0.60931 0.50643
 H124 H 0.21818 0.68724 0.47016
 H125 H 0.15518 0.63765 0.57250
 H126 H 0.29913 0.64600 0.42706
 C127 C 0.77666 0.83803 0.53996
 C128 C 0.77725 0.84911 0.51231
 C129 C 0.80218 0.86890 0.50383
 C130 C 0.82670 0.87757 0.52252
 C131 C 0.82716 0.86404 0.54920
 C132 C 0.80154 0.84583 0.55861
 C133 C 0.75058 0.84298 0.49258
 C134 C 0.72252 0.86168 0.49368
 C135 C 0.69927 0.86001 0.47242
 C136 C 0.70465 0.84002 0.44958
 C137 C 0.73258 0.82098 0.44810
 C138 C 0.75496 0.82190 0.47027
 H139 H 0.75663 0.82419 0.54706
 H140 H 0.80210 0.87802 0.48273
 H141 H 0.71923 0.87831 0.51061
 H142 H 0.77655 0.80732 0.46955
 H143 H 0.84599 0.87020 0.56385
 H144 H 0.68721 0.83966 0.43274
 C145 C -0.03947 0.25179 0.32252
 C146 C -0.00726 0.24398 0.32792
 C147 C 0.00089 0.21365 0.33705
 C148 C -0.02298 0.19301 0.34623
 C149 C -0.05537 0.20259 0.34321
 C150 C -0.06386 0.23165 0.33114
 C151 C 0.01513 0.26941 0.33460
 C152 C 0.00474 0.29231 0.35362
 C153 C 0.02588 0.31434 0.36469
 C154 C 0.05848 0.31186 0.35816
 C155 C 0.06965 0.28748 0.34094
 C156 C 0.04778 0.26720 0.32803
 H157 H -0.04558 0.27543 0.31540
 H158 H 0.02606 0.20760 0.33983
 H159 H -0.01974 0.29186 0.36118
 H160 H 0.05641 0.24850 0.31446
 H161 H -0.07432 0.18812 0.35130
 H162 H 0.07542 0.32791 0.36758
 C163 C -0.05116 0.74240 0.13695
 C164 C -0.02526 0.75552 0.12293
 C165 C -0.03035 0.77328 0.09892
 C166 C -0.06121 0.77717 0.08808
 C167 C -0.08711 0.76388 0.10162
 C168 C -0.08255 0.74702 0.12657
 C169 C 0.00747 0.74558 0.12910
 C170 C 0.01961 0.72070 0.11338
 C171 C 0.05234 0.71318 0.11378
 C172 C 0.07272 0.73001 0.13129
 C173 C 0.06051 0.75488 0.14762
 C174 C 0.02788 0.76338 0.14587
 H175 H -0.04678 0.72957 0.15616
 H176 H -0.01007 0.78367 0.08840
 H177 H 0.00348 0.70789 0.09972
 H178 H 0.01861 0.78367 0.15716
 H179 H -0.11106 0.76759 0.09308
 H180 H 0.09829 0.72468 0.13144
 C181 C 0.47240 0.24392 0.64559
 C182 C 0.48620 0.26195 0.62446
 C183 C 0.46731 0.28278 0.60885
 C184 C 0.43460 0.28622 0.61451
 C185 C 0.42067 0.26877 0.63550
 C186 C 0.43952 0.24737 0.65091
 C187 C 0.52005 0.25822 0.61767
 C188 C 0.52901 0.23739 0.59654
 C189 C 0.56142 0.22997 0.59235
 C190 C 0.58495 0.24472 0.60838
 C191 C 0.57580 0.26473 0.63022
 C192 C 0.54337 0.27255 0.63414
 H193 H 0.48698 0.22741 0.65762
 H194 H 0.47810 0.29651 0.59238
 H195 H 0.51065 0.22491 0.58500
 H196 H 0.53620 0.28731 0.65155
 H197 H 0.39527 0.27180 0.63986
 H198 H 0.60987 0.23728 0.60634
 C199 C 0.46118 0.73793 0.82730
 C200 C 0.49298 0.73144 0.83553
 C201 C 0.49942 0.70778 0.85515
 C202 C 0.47424 0.69332 0.86933
 C203 C 0.44257 0.70066 0.86149
 C204 C 0.43583 0.72270 0.84055
 C205 C 0.51688 0.75621 0.83341
 C206 C 0.51177 0.78240 0.85055
 C207 C 0.53703 0.80202 0.85745
 C208 C 0.56700 0.79744 0.84536
 C209 C 0.57215 0.77189 0.82745
 C210 C 0.54733 0.75069 0.82183
 H211 H 0.45620 0.75638 0.81220
 H212 H 0.52415 0.70268 0.86104
 H213 H 0.48900 0.78545 0.86120
 H214 H 0.55200 0.72961 0.80965
 H215 H 0.42275 0.69034 0.87268
 H216 H 0.58668 0.81274 0.85093
 C217 C -0.26729 0.65358 0.99949
 C218 C -0.24241 0.67020 1.01261
 C219 C -0.24717 0.68289 1.03919
 C220 C -0.27687 0.67974 1.05247
 C221 C -0.30142 0.66258 1.03937
 C222 C -0.29674 0.64855 1.01293
 C223 C -0.21272 0.67649 0.99701
 C224 C -0.21553 0.69259 0.97178
 C225 C -0.18948 0.69508 0.95356
 C226 C -0.15907 0.68350 0.96267
 C227 C -0.15531 0.66837 0.98882
 C228 C -0.18257 0.66479 1.00576
 H229 H -0.26379 0.64512 0.97840
 H230 H -0.22814 0.69599 1.04920
 H231 H -0.23866 0.70295 0.96619
 H232 H -0.18050 0.65219 1.02534
 H233 H -0.32388 0.65948 1.05028
 H234 H -0.13863 0.68462 0.94887
 C235 C -0.32141 0.32376 0.51000
 C236 C -0.29089 0.31461 0.50039
 C237 C -0.28802 0.29851 0.47528
 C238 C -0.31466 0.29396 0.45814
 C239 C -0.34536 0.30369 0.46736
 C240 C -0.34940 0.31848 0.49378
 C241 C -0.26125 0.32378 0.51509
 C242 C -0.25659 0.31620 0.54316
 C243 C -0.22728 0.32253 0.55657
 C244 C -0.20266 0.33711 0.54113
 C245 C -0.20828 0.34750 0.51365
 C246 C -0.23719 0.33968 0.50052
 H247 H -0.32305 0.33536 0.53004
 H248 H -0.26438 0.29124 0.46808
 H249 H -0.27574 0.30489 0.55442
 H250 H -0.24133 0.34680 0.47910
 H251 H -0.36548 0.30171 0.45311
 H252 H -0.17962 0.34166 0.55080
 C253 C 0.18503 -0.17328 0.00265
 C254 C 0.21469 -0.18675 -0.00469
 C255 C 0.21718 -0.20491 -0.02878
 C256 C 0.19133 -0.20736 -0.04749
 C257 C 0.16118 -0.19446 -0.03959
 C258 C 0.15811 -0.17718 -0.01460
 C259 C 0.24408 -0.18006 0.01126
 C260 C 0.24560 -0.18665 0.03969
 C261 C 0.27428 -0.18269 0.05501
 C262 C 0.30137 -0.17093 0.04053
 C263 C 0.29900 -0.16130 0.01247
 C264 C 0.27069 -0.16735 -0.00224
 H265 H 0.18328 -0.15837 0.02094
 H266 H 0.24006 -0.21626 -0.03347
 H267 H 0.22397 -0.19467 0.04971
 H268 H 0.26906 -0.16121 -0.02411
 H269 H 0.14086 -0.19541 -0.05376
 H270 H 0.32447 -0.16917 0.05080
 C271 C 0.22994 1.16016 0.49455
 C272 C 0.25534 1.17577 0.50790
 C273 C 0.25296 1.18353 0.53604
 C274 C 0.22568 1.17585 0.55119
 C275 C 0.20053 1.15953 0.53811
 C276 C 0.20261 1.15135 0.50965
 C277 C 0.28511 1.18319 0.49300
 C278 C 0.28410 1.20280 0.46972
 C279 C 0.31215 1.20953 0.45454
 C280 C 0.34149 1.19508 0.46347
 C281 C 0.34299 1.17636 0.48785
 C282 C 0.31455 1.17102 0.50251
 H283 H 0.23184 1.15404 0.47270
 H284 H 0.27256 1.19559 0.54630
 H285 H 0.26119 1.21355 0.46411
 H286 H 0.31508 1.15632 0.52100
 H287 H 0.17964 1.15301 0.55004
 H288 H 0.36285 1.19701 0.45086
 C289 C 0.08873 0.51731 0.21474
 C290 C 0.09718 0.52433 0.24251
 C291 C 0.11025 0.55412 0.24879
 C292 C 0.11512 0.57663 0.22760
 C293 C 0.10679 0.56884 0.20014
 C294 C 0.09350 0.53958 0.19352
 C295 C 0.09548 0.49960 0.26449
 C296 C 0.11814 0.47471 0.26474
 C297 C 0.11900 0.45268 0.28659
 C298 C 0.09694 0.45573 0.30857
 C299 C 0.07374 0.48039 0.30880
 C300 C 0.07272 0.50167 0.28604
 H301 H 0.07940 0.49430 0.20957
 H302 H 0.11747 0.55937 0.26998
 H303 H 0.13572 0.47293 0.24822
 H304 H 0.05472 0.52040 0.28541
 H305 H 0.11158 0.58538 0.18351
 H306 H 0.09832 0.43921 0.32576
 C307 C -0.09096 0.97859 0.20564
 C308 C -0.10446 0.97544 0.23236
 C309 C -0.12268 0.94861 0.23847
 C310 C -0.12665 0.92437 0.21862
 C311 C -0.11364 0.92851 0.19194
 C312 C -0.09535 0.95508 0.18504
 C313 C -0.10095 1.00068 0.25374
 C314 C -0.12371 1.02551 0.25495
 C315 C -0.12334 1.04800 0.27677
 C316 C -0.09770 1.04631 0.29616
 C317 C -0.07440 1.02189 0.29520
 C318 C -0.07655 0.99881 0.27415
 H319 H -0.07823 0.99995 0.20065
 H320 H -0.13297 0.94630 0.25904
 H321 H -0.14198 1.02705 0.23881
 H322 H -0.05947 0.97927 0.27383
 H323 H -0.11778 0.91060 0.17625
 H324 H -0.09701 1.06266 0.31341
 C325 C 0.40953 0.47511 -0.28559
 C326 C 0.39792 0.47044 -0.25836
 C327 C 0.38144 0.44251 -0.25216
 C328 C 0.37601 0.41985 -0.27306
 C329 C 0.38816 0.42477 -0.29985
 C330 C 0.40520 0.45214 -0.30662
 C331 C 0.39979 0.49650 -0.23757
 C332 C 0.37929 0.52300 -0.24061
 C333 C 0.38175 0.54916 -0.22266
 C334 C 0.40445 0.54799 -0.20088
 C335 C 0.42406 0.52113 -0.19644
 C336 C 0.42176 0.49539 -0.21505
 H337 H 0.42067 0.49732 -0.29063
 H338 H 0.37151 0.43915 -0.23159
 H339 H 0.36195 0.52359 -0.25755
 H340 H 0.43666 0.47452 -0.21185
 H341 H 0.38418 0.40685 -0.31558
 H342 H 0.40573 0.56749 -0.18630
 C343 C 0.59464 0.02150 -0.28548
 C344 C 0.60621 0.02665 -0.25821
 C345 C 0.62286 0.05466 -0.25226
 C346 C 0.62799 0.07733 -0.27322
 C347 C 0.61707 0.07127 -0.30029
 C348 C 0.60099 0.04326 -0.30696
 C349 C 0.60469 0.00120 -0.23685
 C350 C 0.62832 -0.02282 -0.23680
 C351 C 0.62957 -0.04557 -0.21553
 C352 C 0.60682 -0.04411 -0.19401
 C353 C 0.58268 -0.02036 -0.19347
 C354 C 0.58130 0.00168 -0.21570
 H355 H 0.58266 -0.00038 -0.29030
 H356 H 0.63239 0.05851 -0.23151
 H357 H 0.64631 -0.02338 -0.25304
 H358 H 0.56254 0.01966 -0.21624
 H359 H 0.62100 0.08874 -0.31638
 H360 H 0.60838 -0.06130 -0.17733
 C361 C -0.00456 0.21751 0.92796
 C362 C -0.01018 0.24782 0.91759
 C363 C -0.04022 0.25598 0.90668
 C364 C -0.06519 0.23426 0.90611
 C365 C -0.05966 0.20396 0.91710
 C366 C -0.02893 0.19532 0.92686
 C367 C 0.01662 0.26818 0.91097
 C368 C 0.04021 0.25677 0.89296
 C369 C 0.06337 0.27691 0.88231
 C370 C 0.06139 0.30918 0.88834
 C371 C 0.03669 0.32100 0.90526
 C372 C 0.01522 0.30021 0.91757
 H373 H 0.01950 0.21039 0.93438
 H374 H -0.04290 0.27824 0.89574
 H375 H 0.03968 0.23236 0.88621
 H376 H -0.00369 0.30915 0.93102
 H377 H -0.07812 0.18627 0.91563
 H378 H 0.07848 0.32520 0.87927
 C379 C 0.47957 0.20289 0.09154
 C380 C 0.49438 0.22914 0.10338
 C381 C 0.51730 0.22494 0.12432
 C382 C 0.52666 0.19471 0.13290
 C383 C 0.51334 0.16844 0.12005
 C384 C 0.48905 0.17240 0.09992
 C385 C 0.48310 0.26125 0.09759
 C386 C 0.45310 0.27018 0.10766
 C387 C 0.44434 0.30209 0.10993
 C388 C 0.46547 0.32513 0.10103
 C389 C 0.49562 0.31622 0.09039
 C390 C 0.50442 0.28428 0.08859
 H391 H 0.46090 0.20618 0.07594
 H392 H 0.52757 0.24542 0.13438
 H393 H 0.43774 0.25224 0.11632
 H394 H 0.52821 0.27751 0.08146
 H395 H 0.52202 0.14500 0.12555
 H396 H 0.45879 0.34986 0.10294
 C397 C 0.00437 0.72116 0.58472
 C398 C 0.02637 0.74096 0.59810
 C399 C 0.05477 0.72828 0.60909
 C400 C 0.06014 0.69571 0.60930
 C401 C 0.03888 0.67599 0.59561
 C402 C 0.01075 0.68858 0.58359
 C403 C 0.01580 0.77149 0.60924
 C404 C 0.00773 0.77302 0.63746
 C405 C -0.00481 0.80087 0.64939
 C406 C -0.00507 0.82826 0.63285
 C407 C 0.00398 0.82708 0.60473
 C408 C 0.01408 0.79850 0.59281
 H409 H -0.01862 0.73050 0.57758
 H410 H 0.07030 0.74334 0.62134
 H411 H 0.01048 0.75178 0.64986
 H412 H 0.02055 0.79734 0.57100
 H413 H 0.04274 0.65063 0.59648
 H414 H -0.01504 0.85021 0.64066
 C415 C 0.49378 0.69694 0.41916
 C416 C 0.48418 0.72807 0.41318
 C417 C 0.45423 0.73395 0.40105
 C418 C 0.43351 0.70915 0.39512
 C419 C 0.44294 0.67815 0.40139
 C420 C 0.47342 0.67189 0.41282
 C421 C 0.50736 0.75373 0.41434
 C422 C 0.53618 0.74976 0.40012
 C423 C 0.55782 0.77448 0.39778
 C424 C 0.54999 0.80389 0.40933
 C425 C 0.52071 0.80832 0.42315
 C426 C 0.49935 0.78325 0.42569
 H427 H 0.51753 0.69214 0.42769
 H428 H 0.44788 0.75773 0.39448
 H429 H 0.54095 0.72768 0.38939
 H430 H 0.47646 0.78689 0.43595
 H431 H 0.42698 0.65888 0.39661
 H432 H 0.56629 0.82343 0.40711
 Zr433 Zr -0.01228 -0.05894 1.02106
 O434 O 0.02255 -0.05538 1.05320
 O435 O -0.03230 -0.10275 1.02997
 O436 O -0.03268 -0.05380 1.06123
 O437 O 0.04177 -0.08415 0.97096
 O438 O -0.07225 -0.01640 1.05549
 O439 O 0.02781 -0.09031 1.01643
 O440 O -0.07222 -0.10901 0.99759
 O441 O -0.06143 -0.05195 1.01275
 O442 O -0.02100 -0.07766 0.98150
 O443 O -0.02033 -0.00986 1.02356
 O444 O 0.01889 -0.03504 0.99404
 Zr445 Zr -0.04869 0.00320 0.94621
 Zr446 Zr -0.06896 -0.00301 1.01331
 Zr447 Zr 0.00775 -0.05258 0.95441
 Zr448 Zr -0.06931 -0.06894 0.97242
 O449 O 0.05459 -0.03852 0.94337
 O450 O -0.11706 -0.07146 0.98738
 O451 O -0.04068 -0.04589 0.94326
 O452 O -0.07944 -0.02059 0.97349
 O453 O -0.04023 0.02229 0.98583
 O454 O 0.00018 -0.00387 0.95482
 C455 C -0.05553 -0.11790 1.01870
 C456 C 0.04595 -0.09621 0.99523
 C457 C -0.05570 -0.03597 1.07047
 O458 O -0.11712 -0.01496 1.02171
 O459 O -0.09980 0.03258 0.99739
 O460 O -0.08608 0.03716 0.95154
 C461 C -0.10293 0.04493 0.97303
 O462 O 0.04316 0.00778 1.02683
 Zr463 Zr 0.00821 0.01351 0.99470
 O464 O -0.03053 0.04779 0.93757
 O465 O -0.06476 0.03752 1.03872
 O466 O 0.00156 0.05134 1.02311
 O467 O 0.05467 0.01971 0.97780
 O468 O 0.00644 0.05587 0.97197
 C469 C -0.01014 0.06484 0.95066
 O470 O -0.08479 -0.00047 0.91519
 O471 O 0.00557 -0.09518 0.93147
 O472 O -0.02931 -0.00388 0.90562
 O473 O 0.00773 -0.04362 0.91183
 O474 O -0.06223 -0.10907 0.94665
 O475 O -0.10005 -0.06572 0.93701
 C476 C -0.00785 -0.02378 0.89668
 H477 H -0.01571 -0.10046 0.98024
 H478 H -0.10227 -0.01695 0.96838
 H479 H 0.01413 0.00667 0.94116
 H480 H -0.01532 -0.00180 1.04241
 H481 H -0.12527 -0.09263 0.98263
 H482 H -0.12541 0.00082 1.03521
 H483 H -0.08588 0.04092 1.04775
 H484 H 0.01924 0.06637 1.02018
 H485 H -0.08058 -0.12331 0.94956
 H486 H 0.02679 -0.09839 0.92255
 H487 H 0.06299 -0.05438 0.92999
 H488 H 0.06160 0.04125 0.98285
 H489 H -0.11535 -0.08338 0.93724
 H490 H -0.08361 0.01872 0.90342
 H491 H 0.02145 -0.07487 1.06461
 H492 H 0.05564 0.02739 1.02869
 Zr493 Zr 0.47943 0.43189 0.53026
 O494 O 0.51608 0.43754 0.56058
 O495 O 0.45542 0.39278 0.54585
 O496 O 0.46163 0.44360 0.57005
 O497 O 0.52889 0.39537 0.48160
 O498 O 0.42408 0.48238 0.56169
 O499 O 0.51710 0.39728 0.52788
 O500 O 0.41180 0.38708 0.51741
 O501 O 0.43058 0.44187 0.52288
 O502 O 0.46675 0.40794 0.49390
 O503 O 0.47536 0.48136 0.52753
 O504 O 0.51076 0.44893 0.49968
 Zr505 Zr 0.44391 0.48555 0.45012
 Zr506 Zr 0.42687 0.49070 0.51824
 Zr507 Zr 0.49587 0.42660 0.46304
 Zr508 Zr 0.41889 0.41983 0.48540
 O509 O 0.54295 0.43373 0.44803
 O510 O 0.37083 0.42287 0.49963
 O511 O 0.44763 0.43593 0.45274
 O512 O 0.41298 0.46851 0.48106
 O513 O 0.45596 0.50938 0.48700
 O514 O 0.49246 0.47546 0.45795
 C515 C 0.42863 0.38005 0.53903
 C516 C 0.53361 0.38699 0.50692
 C517 C 0.43978 0.46342 0.57801
 O518 O 0.37831 0.48412 0.52935
 O519 O 0.39761 0.52567 0.49941
 O520 O 0.40879 0.52231 0.45290
 C521 C 0.39353 0.53417 0.47390
 O522 O 0.54021 0.49368 0.52642
 Zr523 Zr 0.50402 0.49781 0.49516
 O524 O 0.46515 0.52701 0.43592
 O525 O 0.43581 0.53374 0.53897
 O526 O 0.50212 0.53973 0.51926
 O527 O 0.54985 0.49754 0.47606
 O528 O 0.50449 0.53655 0.46794
 C529 C 0.48750 0.54399 0.44644
 O530 O 0.40621 0.48077 0.42069
 O531 O 0.48788 0.38108 0.44653
 O532 O 0.46025 0.47087 0.40992
 O533 O 0.49428 0.42989 0.41988
 O534 O 0.42207 0.37543 0.46534
 O535 O 0.38439 0.41896 0.45267
 C536 C 0.47950 0.44803 0.40259
 H537 H 0.46989 0.38481 0.49569
 H538 H 0.39020 0.47310 0.47633
 H539 H 0.50648 0.48266 0.44270
 H540 H 0.48194 0.49149 0.54520
 H541 H 0.36091 0.40202 0.49649
 H542 H 0.37206 0.50211 0.54145
 H543 H 0.41555 0.53989 0.54839
 H544 H 0.52085 0.55261 0.51408
 H545 H 0.40070 0.36569 0.46714
 H546 H 0.50856 0.37348 0.43868
 H547 H 0.54867 0.41524 0.43630
 H548 H 0.55888 0.51887 0.47849
 H549 H 0.39632 0.41776 0.43491
 H550 H 0.40840 0.49806 0.40692
 H551 H 0.51445 0.41985 0.57403
 H552 H 0.55437 0.51222 0.52561
 Zr553 Zr 0.51224 1.05854 0.53218
 O554 O 0.47823 1.05452 0.56456
 O555 O 0.53446 1.10077 0.54311
 O556 O 0.53429 1.05125 0.57180
 O557 O 0.45851 1.08806 0.48274
 O558 O 0.57157 1.01222 0.56405
 O559 O 0.47356 1.09191 0.52842
 O560 O 0.57400 1.10704 0.51083
 O561 O 0.56079 1.04922 0.52353
 O562 O 0.52157 1.07872 0.49340
 O563 O 0.51732 1.00907 0.53275
 O564 O 0.47948 1.03784 0.50409
 Zr565 Zr 0.54387 0.99801 0.45473
 Zr566 Zr 0.56527 1.00000 0.52200
 Zr567 Zr 0.49137 1.05644 0.46518
 Zr568 Zr 0.56925 1.06792 0.48410
 O569 O 0.44419 1.04476 0.45258
 O570 O 0.61685 1.06677 0.50012
 O571 O 0.53920 1.04764 0.45393
 O572 O 0.57627 1.01890 0.48292
 O573 O 0.53472 0.97799 0.49378
 O574 O 0.49557 1.00736 0.46355
 C575 C 0.55832 1.11549 0.53262
 C576 C 0.45535 1.09917 0.50737
 C577 C 0.55752 1.03269 0.57975
 O578 O 0.61494 1.00650 0.52920
 O579 O 0.59213 0.96223 0.50523
 O580 O 0.57941 0.96181 0.45893
 C581 C 0.59471 0.95095 0.48046
 O582 O 0.45067 0.99830 0.53290
 Zr583 Zr 0.48694 0.98884 0.50293
 O584 O 0.52419 0.95392 0.44555
 O585 O 0.55779 0.95992 0.54725
 O586 O 0.48777 0.95218 0.53295
 O587 O 0.44153 0.98332 0.48336
 O588 O 0.48966 0.94546 0.48146
 C589 C 0.50586 0.93623 0.46012
 O590 O 0.57978 1.00179 0.42396
 O591 O 0.49450 1.10061 0.44478
 O592 O 0.52328 1.00742 0.41439
 O593 O 0.49261 1.05126 0.42222
 O594 O 0.56392 1.10907 0.45928
 O595 O 0.60071 1.06533 0.44944
 C596 C 0.50460 1.03035 0.40590
 H597 H 0.51748 1.10179 0.49304
 H598 H 0.59878 1.01403 0.47770
 H599 H 0.48118 0.99809 0.44935
 H600 H 0.51227 1.00076 0.55145
 H601 H 0.62622 1.08781 0.49695
 H602 H 0.62188 0.99034 0.54298
 H603 H 0.57884 0.95424 0.55577
 H604 H 0.46955 0.93817 0.52864
 H605 H 0.58247 1.12279 0.46328
 H606 H 0.47354 1.10482 0.43548
 H607 H 0.43646 1.06185 0.44005
 H608 H 0.43385 0.96206 0.48836
 H609 H 0.61654 1.08248 0.45077
 H610 H 0.57869 0.98246 0.41237
 H611 H 0.48019 1.07359 0.57640
 H612 H 0.43559 0.98047 0.53359
 Zr613 Zr 0.02132 0.55823 1.02702
 O614 O -0.01512 0.54727 1.05589
 O615 O 0.03971 0.59964 1.04407
 O616 O 0.04050 0.54839 1.06717
 O617 O -0.02890 0.59254 0.97690
 O618 O 0.08071 0.51241 1.05921
 O619 O -0.01952 0.58919 1.02372
 O620 O 0.08315 0.61111 1.01714
 O621 O 0.07101 0.55282 1.02151
 O622 O 0.03302 0.58419 0.99160
 O623 O 0.02988 0.50934 1.02329
 O624 O -0.00692 0.53946 0.99455
 Zr625 Zr 0.06532 0.51121 0.94757
 Zr626 Zr 0.07927 0.50449 1.01586
 Zr627 Zr 0.00712 0.56423 0.95898
 Zr628 Zr 0.08217 0.57737 0.98527
 O629 O -0.03875 0.55274 0.94299
 O630 O 0.12883 0.57696 1.00330
 O631 O 0.05654 0.56013 0.95089
 O632 O 0.09317 0.52940 0.98026
 O633 O 0.05356 0.48485 0.98291
 O634 O 0.01568 0.51613 0.95315
 C635 C 0.06450 0.61589 1.03789
 C636 C -0.03573 0.59916 1.00227
 C637 C 0.06419 0.53060 1.07539
 O638 O 0.12784 0.51234 1.02659
 O639 O 0.10858 0.46939 0.99753
 O640 O 0.10208 0.47614 0.95064
 C641 C 0.11464 0.46215 0.97205
 O642 O -0.03365 0.49079 1.01831
 Zr643 Zr 0.00449 0.49144 0.98909
 O644 O 0.04931 0.46918 0.93048
 O645 O 0.07260 0.46147 1.03728
 O646 O 0.00973 0.44905 1.01223
 O647 O -0.04006 0.48751 0.96782
 O648 O 0.01005 0.45393 0.96052
 C649 C 0.02884 0.44949 0.93963
 O650 O 0.10432 0.52160 0.92117
 O651 O 0.01129 0.61017 0.94224
 O652 O 0.04946 0.52484 0.90719
 O653 O 0.01012 0.56114 0.91565
 O654 O 0.07650 0.62236 0.96639
 O655 O 0.11525 0.58120 0.95194
 C656 C 0.02751 0.54458 0.89895
 H657 H 0.02750 0.60690 0.99347
 H658 H 0.11636 0.52645 0.97641
 H659 H 0.00313 0.50803 0.93717
 H660 H 0.02359 0.49828 1.04053
 H661 H 0.13712 0.59873 1.00230
 H662 H 0.13471 0.49456 1.03875
 H663 H 0.09334 0.45599 1.04644
 H664 H -0.00676 0.43428 1.00536
 H665 H 0.09447 0.63560 0.97292
 H666 H -0.00896 0.61483 0.93199
 H667 H -0.04593 0.57059 0.93102
 H668 H -0.04659 0.46517 0.96914
 H669 H 0.12995 0.59887 0.95567
 H670 H 0.10511 0.50499 0.90662
 H671 H -0.01592 0.56465 1.06974
 H672 H -0.04510 0.47055 1.01678
 Zr673 Zr -0.04907 0.46516 0.45712
 O674 O -0.08343 0.47981 0.42701
 O675 O -0.03451 0.42199 0.44125
 O676 O -0.02642 0.47146 0.41753
 O677 O -0.10497 0.43997 0.50558
 O678 O 0.01634 0.50262 0.42779
 O679 O -0.09101 0.43658 0.45966
 O680 O 0.00278 0.40337 0.47213
 O681 O 0.00045 0.46326 0.46544
 O682 O -0.04275 0.43953 0.49411
 O683 O -0.03467 0.51243 0.46016
 O684 O -0.07714 0.48876 0.48739
 Zr685 Zr -0.00513 0.50996 0.53778
 Zr686 Zr 0.01427 0.51007 0.47079
 Zr687 Zr -0.06780 0.46440 0.52475
 Zr688 Zr 0.00603 0.43900 0.50297
 O689 O -0.11250 0.48341 0.53796
 O690 O 0.05291 0.43115 0.48711
 O691 O -0.01885 0.46223 0.53520
 O692 O 0.02221 0.48527 0.50786
 O693 O -0.01136 0.53552 0.50081
 O694 O -0.05450 0.51130 0.52956
 C695 C -0.01415 0.40117 0.44963
 C696 C -0.10932 0.43014 0.48063
 C697 C -0.00108 0.48707 0.41057
 O698 O 0.05995 0.49063 0.46108
 O699 O 0.04979 0.53773 0.48974
 O700 O 0.03607 0.53873 0.53567
 C701 C 0.05440 0.54608 0.51517
 O702 O -0.09603 0.53747 0.45980
 Zr703 Zr -0.06059 0.53496 0.49181
 O704 O -0.01908 0.55513 0.55175
 O705 O 0.01880 0.55305 0.44900
 O706 O -0.05262 0.57550 0.46705
 O707 O -0.10518 0.54514 0.51127
 O708 O -0.05258 0.57392 0.51757
 C709 C -0.03612 0.57705 0.54002
 O710 O 0.03126 0.49870 0.56731
 O711 O -0.07060 0.41901 0.54293
 O712 O -0.02360 0.49844 0.57761
 O713 O -0.06618 0.46680 0.56830
 O714 O -0.00647 0.39691 0.52390
 O715 O 0.03725 0.43135 0.53758
 C716 C -0.04697 0.48066 0.58515
 H717 H -0.05039 0.41758 0.49280
 H718 H 0.04522 0.48460 0.51313
 H719 H -0.06681 0.52158 0.54473
 H720 H -0.03828 0.52378 0.44238
 H721 H 0.05760 0.40820 0.48833
 H722 H 0.07097 0.50648 0.44950
 H723 H 0.00889 0.56959 0.46086
 H724 H -0.06925 0.59152 0.47192
 H725 H 0.00896 0.38021 0.51799
 H726 H -0.09198 0.41758 0.55181
 H727 H -0.12262 0.46715 0.54970
 H728 H -0.10975 0.56796 0.50861
 H729 H 0.04936 0.41128 0.53499
 H730 H 0.03127 0.51577 0.58148
 H731 H -0.08519 0.46228 0.41342
 H732 H -0.10897 0.55712 0.46186
 Zr733 Zr 0.46576 -0.05196 -0.04346
 O734 O 0.43027 -0.03896 -0.07319
 O735 O 0.48138 -0.09497 -0.05955
 O736 O 0.48683 -0.04231 -0.08334
 O737 O 0.41446 -0.08378 0.00615
 O738 O 0.52647 -0.00734 -0.07327
 O739 O 0.42426 -0.08121 -0.04061
 O740 O 0.52529 -0.10785 -0.03310
 O741 O 0.51548 -0.05000 -0.03641
 O742 O 0.47560 -0.07843 -0.00746
 O743 O 0.47635 -0.00372 -0.03933
 O744 O 0.43736 -0.03165 -0.01164
 Zr745 Zr 0.50891 -0.00686 0.03749
 Zr746 Zr 0.52561 -0.00243 -0.02999
 Zr747 Zr 0.44997 -0.05677 0.02469
 Zr748 Zr 0.52455 -0.07512 0.00022
 O749 O 0.40391 -0.04262 0.03895
 O750 O 0.57203 -0.07877 -0.01542
 O751 O 0.49913 -0.05548 0.03400
 O752 O 0.53698 -0.02793 0.00603
 O753 O 0.49934 0.01981 0.00156
 O754 O 0.45946 -0.00915 0.03024
 C755 C 0.50636 -0.11203 -0.05411
 C756 C 0.40805 -0.09062 -0.01921
 C757 C 0.51006 -0.02384 -0.09052
 O758 O 0.57197 -0.01835 -0.04180
 O759 O 0.55967 0.02681 -0.01096
 O760 O 0.54754 0.02506 0.03532
 C761 C 0.56454 0.03444 0.01461
 O762 O 0.41366 0.01713 -0.03753
 Zr763 Zr 0.45014 0.01564 -0.00637
 O764 O 0.49233 0.03630 0.05348
 O765 O 0.52604 0.04179 -0.05029
 O766 O 0.45535 0.05787 -0.02947
 O767 O 0.40504 0.02141 0.01350
 O768 O 0.45488 0.05329 0.02166
 C769 C 0.47199 0.05664 0.04375
 O770 O 0.54669 -0.01831 0.06558
 O771 O 0.45277 -0.10266 0.04202
 O772 O 0.49109 -0.01850 0.07750
 O773 O 0.45180 -0.05399 0.06831
 O774 O 0.51596 -0.11956 0.01871
 O775 O 0.55623 -0.08091 0.03483
 C776 C 0.46890 -0.03762 0.08517
 H777 H 0.46952 -0.10083 -0.00939
 H778 H 0.56013 -0.02701 0.01068
 H779 H 0.44656 -0.00033 0.04572
 H780 H 0.47114 0.00801 -0.05664
 H781 H 0.57869 -0.10131 -0.01451
 H782 H 0.58150 -0.00111 -0.05282
 H783 H 0.51638 0.05725 -0.03723
 H784 H 0.43818 0.07280 -0.02347
 H785 H 0.53489 -0.13318 0.01474
 H786 H 0.43215 -0.10627 0.05166
 H787 H 0.39588 -0.05993 0.05079
 H788 H 0.39859 0.04392 0.01166
 H789 H 0.57050 -0.09950 0.03191
 H790 H 0.54697 -0.00155 0.08001
 H791 H 0.42944 -0.05636 -0.08698
 H792 H 0.40074 0.03681 -0.03559
 Zr793 Zr 0.53921 0.53774 -0.04297
 O794 O 0.57351 0.52443 -0.07325
 O795 O 0.52351 0.58134 -0.05791
 O796 O 0.51605 0.53164 -0.08239
 O797 O 0.59236 0.56735 0.00622
 O798 O 0.47571 0.49738 -0.07292
 O799 O 0.58041 0.56719 -0.04029
 O800 O 0.48153 0.59407 -0.02929
 O801 O 0.48981 0.53576 -0.03497
 O802 O 0.53092 0.56279 -0.00605
 O803 O 0.52823 0.48951 -0.04034
 O804 O 0.56851 0.51569 -0.01247
 Zr805 Zr 0.49842 0.48995 0.03727
 Zr806 Zr 0.47935 0.48800 -0.03013
 Zr807 Zr 0.55759 0.53961 0.02469
 Zr808 Zr 0.48225 0.55957 0.00237
 O809 O 0.60435 0.52488 0.03700
 O810 O 0.43462 0.56326 -0.01332
 O811 O 0.50879 0.53847 0.03496
 O812 O 0.46953 0.51230 0.00687
 O813 O 0.50631 0.46440 0.00049
 O814 O 0.54764 0.49198 0.02912
 C815 C 0.49963 0.59871 -0.05048
 C816 C 0.59746 0.57567 -0.01897
 C817 C 0.49126 0.51529 -0.08956
 O818 O 0.43167 0.50185 -0.04047
 O819 O 0.44616 0.45769 -0.01137
 O820 O 0.45942 0.45821 0.03484
 C821 C 0.44188 0.44930 0.01407
 O822 O 0.58999 0.46574 -0.04050
 Zr823 Zr 0.55521 0.46832 -0.00830
 O824 O 0.51567 0.44659 0.05208
 O825 O 0.48202 0.44439 -0.05147
 O826 O 0.54590 0.42693 -0.03164
 O827 O 0.60169 0.46177 0.00929
 O828 O 0.55256 0.43044 0.01986
 C829 C 0.53609 0.42662 0.04211
 O830 O 0.46197 0.50077 0.06650
 O831 O 0.55567 0.58462 0.04376
 O832 O 0.51730 0.50084 0.07728
 O833 O 0.55740 0.53538 0.06813
 O834 O 0.49132 0.60345 0.02196
 O835 O 0.45162 0.56522 0.03731
 C836 C 0.54037 0.51908 0.08486
 H837 H 0.53706 0.58521 -0.00725
 H838 H 0.44656 0.51134 0.01189
 H839 H 0.56119 0.48268 0.04411
 H840 H 0.53258 0.47871 -0.05824
 H841 H 0.42781 0.58571 -0.01193
 H842 H 0.42270 0.48507 -0.05248
 H843 H 0.46083 0.44147 -0.06055
 H844 H 0.56255 0.41096 -0.02654
 H845 H 0.47421 0.61848 0.01587
 H846 H 0.57688 0.58799 0.05269
 H847 H 0.61306 0.54173 0.04909
 H848 H 0.60775 0.43922 0.00696
 H849 H 0.43782 0.58422 0.03463
 H850 H 0.46192 0.48346 0.08041
 H851 H 0.57460 0.54220 -0.08662
 H852 H 0.60077 0.44476 -0.04014
 Zr853 Zr 0.03571 1.04304 0.45050
 O854 O 0.07374 1.02405 0.42640
 O855 O 0.02476 1.08459 0.42908
 O856 O 0.01889 1.03260 0.40936
 O857 O 0.08319 1.07565 0.50273
 O858 O -0.02618 1.00423 0.41678
 O859 O 0.07839 1.07015 0.45555
 O860 O -0.02179 1.10162 0.44961
 O861 O -0.01455 1.04510 0.45248
 O862 O 0.02349 1.07355 0.48321
 O863 O 0.02073 0.99625 0.45626
 O864 O 0.05792 1.02349 0.48633
 Zr865 Zr -0.02106 1.00951 0.52877
 Zr866 Zr -0.02936 0.99927 0.46012
 Zr867 Zr 0.04326 1.05322 0.51907
 Zr868 Zr -0.02635 1.07422 0.48589
 O869 O 0.08578 1.03701 0.53920
 O870 O -0.07210 1.07876 0.46647
 O871 O -0.00674 1.05660 0.52333
 O872 O -0.04334 1.02876 0.49309
 O873 O -0.00963 0.97877 0.49600
 O874 O 0.02899 1.00720 0.52670
 C875 C -0.00043 1.10228 0.43038
 C876 C 0.09281 1.08021 0.47780
 C877 C -0.00637 1.01807 0.40052
 O878 O -0.07444 1.01426 0.44384
 O879 O -0.06586 0.97169 0.47695
 O880 O -0.06046 0.97878 0.52388
 C881 C -0.07406 0.96661 0.50224
 O882 O 0.08124 0.96991 0.46808
 Zr883 Zr 0.04018 0.97790 0.49336
 O884 O -0.01076 0.96816 0.55059
 O885 O -0.02613 0.95365 0.44234
 O886 O 0.03278 0.93506 0.47161
 O887 O 0.08095 0.96842 0.51886
 O888 O 0.02586 0.94364 0.52281
 C889 C 0.00620 0.94410 0.54355
 O890 O -0.06099 1.02756 0.55103
 O891 O 0.04265 1.10071 0.53276
 O892 O -0.00654 1.02257 0.56971
 O893 O 0.03538 1.05517 0.56213
 O894 O -0.01628 1.12049 0.49995
 O895 O -0.06038 1.08705 0.51687
 C896 C 0.01595 1.04095 0.57845
 H897 H 0.03151 1.09516 0.48027
 H898 H -0.06698 1.02945 0.49529
 H899 H 0.03911 0.99887 0.54394
 H900 H 0.02716 0.98295 0.44021
 H901 H -0.07707 1.10161 0.46461
 H902 H -0.08258 0.99680 0.43216
 H903 H -0.04587 0.95084 0.43103
 H904 H 0.04611 0.91856 0.48091
 H905 H -0.03138 1.13505 0.49015
 H906 H 0.06208 1.10356 0.54449
 H907 H 0.09380 1.05477 0.55060
 H908 H 0.08424 0.94522 0.51917
 H909 H -0.07149 1.10696 0.51144
 H910 H -0.06631 1.01151 0.56522
 H911 H 0.07794 1.03956 0.41145
 H912 H 0.08979 0.94829 0.47136
 Zr913 Zr 0.68743 0.24621 0.22178
 O914 O 0.69670 0.28034 0.19076
 O915 O 0.64291 0.23026 0.20874
 O916 O 0.69427 0.22570 0.18189
 O917 O 0.65897 0.29849 0.27142
 O918 O 0.73253 0.18731 0.18900
 O919 O 0.65722 0.28698 0.22501
 O920 O 0.63435 0.18636 0.23467
 O921 O 0.69243 0.19753 0.22848
 O922 O 0.66326 0.23647 0.25877
 O923 O 0.73709 0.23668 0.22285
 O924 O 0.70940 0.27475 0.25213
 Zr925 Zr 0.74163 0.20527 0.29991
 Zr926 Zr 0.74180 0.18843 0.23204
 Zr927 Zr 0.68675 0.26219 0.28937
 Zr928 Zr 0.67001 0.18843 0.26625
 O929 O 0.69517 0.30680 0.30741
 O930 O 0.66814 0.14160 0.25076
 O931 O 0.69140 0.21408 0.29883
 O932 O 0.71907 0.17725 0.26947
 O933 O 0.76564 0.21459 0.26257
 O934 O 0.73618 0.25377 0.29246
 C935 C 0.62725 0.20524 0.21446
 C936 C 0.65016 0.30437 0.24627
 C937 C 0.71322 0.20335 0.17328
 O938 O 0.72895 0.14220 0.22015
 O939 O 0.77442 0.15542 0.24947
 O940 O 0.77502 0.16689 0.29596
 C941 C 0.78405 0.15044 0.27461
 O942 O 0.76196 0.29716 0.22293
 Zr943 Zr 0.75836 0.26263 0.25469
 O944 O 0.78687 0.22124 0.31279
 O945 O 0.78616 0.19219 0.21113
 O946 O 0.79991 0.25525 0.23017
 O947 O 0.76450 0.30816 0.27195
 O948 O 0.79773 0.26027 0.28186
 C949 C 0.80507 0.24262 0.30269
 O950 O 0.73343 0.16918 0.32938
 O951 O 0.64090 0.25689 0.30736
 O952 O 0.73164 0.22362 0.34037
 O953 O 0.69276 0.26127 0.33245
 O954 O 0.62565 0.19600 0.28681
 O955 O 0.66795 0.15777 0.30123
 C956 C 0.71150 0.24526 0.34850
 H957 H 0.64018 0.24242 0.25790
 H958 H 0.72140 0.15457 0.27401
 H959 H 0.74570 0.26696 0.30723
 H960 H 0.74725 0.24199 0.20489
 H961 H 0.64574 0.13435 0.25279
 H962 H 0.74625 0.13400 0.20789
 H963 H 0.78977 0.17196 0.20120
 H964 H 0.81465 0.27285 0.23420
 H965 H 0.61232 0.17731 0.28318
 H966 H 0.63572 0.27723 0.31659
 H967 H 0.71149 0.31689 0.29563
 H968 H 0.78655 0.31483 0.26729
 H969 H 0.64982 0.14312 0.29900
 H970 H 0.75184 0.16918 0.34262
 H971 H 0.67790 0.28084 0.17795
 H972 H 0.74133 0.30910 0.22249
 Zr973 Zr 0.82708 0.76361 0.72250
 O974 O 0.81877 0.73115 0.68980
 O975 O 0.87206 0.78051 0.71199
 O976 O 0.82208 0.78601 0.68321
 O977 O 0.85192 0.70702 0.77052
 O978 O 0.78634 0.82628 0.69135
 O979 O 0.85750 0.72293 0.72537
 O980 O 0.88489 0.81585 0.74580
 O981 O 0.82351 0.81182 0.73198
 O982 O 0.84864 0.76927 0.76157
 O983 O 0.77768 0.77450 0.72168
 O984 O 0.80256 0.73322 0.74958
 Zr985 Zr 0.76962 0.79954 0.80010
 Zr986 Zr 0.77408 0.82199 0.73360
 Zr987 Zr 0.82274 0.74162 0.78896
 Zr988 Zr 0.84361 0.81676 0.77163
 O989 O 0.80625 0.69620 0.79959
 O990 O 0.84773 0.86318 0.75582
 O991 O 0.81941 0.78907 0.80105
 O992 O 0.79470 0.82941 0.77294
 O993 O 0.74817 0.79396 0.76089
 O994 O 0.77356 0.75165 0.79007
 C995 C 0.89142 0.79989 0.72364
 C996 C 0.86321 0.70387 0.74588
 C997 C 0.80524 0.81029 0.67537
 O998 O 0.78727 0.86940 0.72705
 O999 O 0.73914 0.85248 0.75116
 O1000 O 0.73715 0.83851 0.79701
 C1001 C 0.72830 0.85580 0.77608
 O1002 O 0.75764 0.71236 0.71811
 Zr1003 Zr 0.75388 0.74643 0.75045
 O1004 O 0.72285 0.78455 0.80899
 O1005 O 0.73187 0.82095 0.70885
 O1006 O 0.71533 0.75467 0.72215
 O1007 O 0.74440 0.70136 0.76745
 O1008 O 0.71113 0.75148 0.77285
 C1009 C 0.70359 0.76745 0.79459
 O1010 O 0.77782 0.83245 0.83241
 O1011 O 0.86734 0.74047 0.81043
 O1012 O 0.77618 0.77761 0.83968
 O1013 O 0.81574 0.74079 0.83195
 O1014 O 0.88488 0.80776 0.79666
 O1015 O 0.84401 0.84660 0.80723
 C1016 C 0.79599 0.75561 0.84779
 H1017 H 0.87154 0.76263 0.76206
 H1018 H 0.79241 0.85175 0.77873
 H1019 H 0.76243 0.73810 0.80362
 H1020 H 0.76848 0.77093 0.70291
 H1021 H 0.86965 0.87033 0.76039
 H1022 H 0.77140 0.87855 0.71375
 H1023 H 0.72908 0.84223 0.70055
 H1024 H 0.69930 0.73797 0.72517
 H1025 H 0.90014 0.82511 0.79346
 H1026 H 0.86977 0.71919 0.81882
 H1027 H 0.82260 0.68659 0.81220
 H1028 H 0.72194 0.69624 0.76245
 H1029 H 0.86184 0.86169 0.80571
 H1030 H 0.75848 0.83256 0.84440
 H1031 H 0.83816 0.73091 0.67787
 H1032 H 0.73739 0.70047 0.71678
 Zr1033 Zr 0.22136 0.20039 0.79518
 O1034 O 0.23484 0.16501 0.82419
 O1035 O 0.17761 0.21487 0.81110
 O1036 O 0.22791 0.22067 0.83562
 O1037 O 0.19510 0.14818 0.74421
 O1038 O 0.26017 0.26272 0.82724
 O1039 O 0.19074 0.16044 0.79041
 O1040 O 0.15979 0.25200 0.78048
 O1041 O 0.22027 0.24941 0.78851
 O1042 O 0.19631 0.20824 0.75771
 O1043 O 0.26977 0.21413 0.79369
 O1044 O 0.24610 0.17329 0.76499
 Zr1045 Zr 0.26950 0.24545 0.71689
 Zr1046 Zr 0.26828 0.26251 0.78438
 Zr1047 Zr 0.22255 0.18399 0.72739
 Zr1048 Zr 0.19671 0.25634 0.75058
 O1049 O 0.24437 0.14063 0.71571
 O1050 O 0.18922 0.30188 0.76769
 O1051 O 0.22065 0.23244 0.71811
 O1052 O 0.24395 0.27180 0.74691
 O1053 O 0.29472 0.23800 0.75425
 O1054 O 0.27049 0.19673 0.72383
 C1055 C 0.15678 0.23510 0.80263
 C1056 C 0.18381 0.14365 0.76860
 C1057 C 0.24415 0.24498 0.84361
 O1058 O 0.24872 0.30726 0.79490
 O1059 O 0.29750 0.29767 0.76751
 O1060 O 0.29652 0.28741 0.72092
 C1061 C 0.30464 0.30423 0.74220
 O1062 O 0.29436 0.15334 0.79283
 Zr1063 Zr 0.29343 0.18941 0.76209
 O1064 O 0.31622 0.23214 0.70477
 O1065 O 0.31147 0.26613 0.80740
 O1066 O 0.33362 0.19710 0.78847
 O1067 O 0.30494 0.14615 0.74200
 O1068 O 0.33395 0.19695 0.73766
 C1069 C 0.33785 0.21434 0.71622
 O1070 O 0.26152 0.28012 0.68577
 O1071 O 0.17852 0.17627 0.70652
 O1072 O 0.25813 0.22820 0.67641
 O1073 O 0.22544 0.18651 0.68410
 O1074 O 0.15427 0.24720 0.72763
 O1075 O 0.18653 0.29062 0.71953
 C1076 C 0.24007 0.20552 0.66797
 H1077 H 0.17373 0.20132 0.75788
 H1078 H 0.24335 0.29458 0.74238
 H1079 H 0.28131 0.18506 0.70857
 H1080 H 0.28089 0.20984 0.81160
 H1081 H 0.16597 0.30694 0.76582
 H1082 H 0.26439 0.31724 0.80765
 H1083 H 0.32864 0.25682 0.79568
 H1084 H 0.35031 0.18105 0.78382
 H1085 H 0.13757 0.26237 0.73415
 H1086 H 0.16918 0.19741 0.70259
 H1087 H 0.22916 0.13041 0.70270
 H1088 H 0.32778 0.14108 0.74623
 H1089 H 0.20070 0.28556 0.70361
 H1090 H 0.28057 0.27996 0.67338
 H1091 H 0.21664 0.16309 0.83729
 H1092 H 0.31532 0.14200 0.79236
 Zr1093 Zr 0.27917 0.78789 0.29963
 O1094 O 0.26524 0.82340 0.32826
 O1095 O 0.32286 0.77355 0.31680
 O1096 O 0.26864 0.76755 0.33922
 O1097 O 0.31395 0.83536 0.24974
 O1098 O 0.23163 0.72983 0.32929
 O1099 O 0.31005 0.82769 0.29667
 O1100 O 0.32798 0.72495 0.29805
 O1101 O 0.27546 0.73887 0.29436
 O1102 O 0.30772 0.77573 0.26536
 O1103 O 0.22991 0.77869 0.29425
 O1104 O 0.26067 0.81500 0.26623
 Zr1105 Zr 0.23482 0.74369 0.21827
 Zr1106 Zr 0.22717 0.73006 0.28604
 Zr1107 Zr 0.28734 0.79969 0.23165
 Zr1108 Zr 0.30250 0.72754 0.25956
 O1109 O 0.28318 0.84434 0.21238
 O1110 O 0.30239 0.67963 0.27209
 O1111 O 0.28454 0.75127 0.22389
 O1112 O 0.25437 0.71661 0.25131
 O1113 O 0.20660 0.75535 0.25295
 O1114 O 0.23859 0.79240 0.22427
 C1115 C 0.33518 0.74588 0.31657
 C1116 C 0.32075 0.84233 0.27497
 C1117 C 0.24943 0.74515 0.34633
 O1118 O 0.24072 0.68410 0.29927
 O1119 O 0.19700 0.69666 0.26757
 O1120 O 0.20247 0.70519 0.22094
 C1121 C 0.19090 0.69011 0.24198
 O1122 O 0.21114 0.84493 0.28480
 Zr1123 Zr 0.21242 0.80374 0.25975
 O1124 O 0.19110 0.76075 0.20147
 O1125 O 0.18162 0.73281 0.30518
 O1126 O 0.17026 0.80221 0.28416
 O1127 O 0.20567 0.84635 0.23721
 O1128 O 0.17386 0.79825 0.23229
 C1129 C 0.17009 0.78055 0.21097
 O1130 O 0.24395 0.70692 0.18937
 O1131 O 0.33406 0.78841 0.21727
 O1132 O 0.25152 0.75903 0.17846
 O1133 O 0.28504 0.79921 0.18846
 O1134 O 0.35096 0.73318 0.24753
 O1135 O 0.31863 0.69723 0.22735
 C1136 C 0.27106 0.78107 0.17110
 H1137 H 0.33057 0.78124 0.26803
 H1138 H 0.25283 0.69378 0.24730
 H1139 H 0.23064 0.80480 0.20811
 H1140 H 0.21771 0.78445 0.31118
 H1141 H 0.32516 0.67300 0.27464
 H1142 H 0.22282 0.67611 0.31070
 H1143 H 0.16652 0.74148 0.29103
 H1144 H 0.15661 0.82042 0.27832
 H1145 H 0.36380 0.71701 0.25776
 H1146 H 0.34477 0.80870 0.21371
 H1147 H 0.26394 0.85458 0.22061
 H1148 H 0.18328 0.85380 0.24038
 H1149 H 0.29922 0.69129 0.21668
 H1150 H 0.22651 0.70783 0.17518
 H1151 H 0.28267 0.82474 0.34234
 H1152 H 0.21162 0.83801 0.30447
 Zr1153 Zr 0.19272 0.74712 0.71932
 O1154 O 0.20341 0.78497 0.69233
 O1155 O 0.15136 0.72955 0.70056
 O1156 O 0.20310 0.73080 0.67865
 O1157 O 0.15699 0.79271 0.77106
 O1158 O 0.24040 0.69147 0.68526
 O1159 O 0.16063 0.78645 0.72396
 O1160 O 0.14499 0.68214 0.72208
 O1161 O 0.19942 0.69818 0.72279
 O1162 O 0.16591 0.73278 0.75367
 O1163 O 0.24265 0.73925 0.72277
 O1164 O 0.21105 0.77304 0.75310
 Zr1165 Zr 0.24174 0.70002 0.79693
 Zr1166 Zr 0.24855 0.69045 0.72839
 Zr1167 Zr 0.18584 0.75630 0.78766
 Zr1168 Zr 0.17433 0.68439 0.75793
 O1169 O 0.19602 0.80025 0.80654
 O1170 O 0.17482 0.63788 0.74166
 O1171 O 0.19160 0.70751 0.79363
 O1172 O 0.22336 0.67435 0.76317
 O1173 O 0.26836 0.71411 0.76232
 O1174 O 0.23519 0.74885 0.79309
 C1175 C 0.13906 0.70202 0.70243
 C1176 C 0.15057 0.80112 0.74595
 C1177 C 0.22147 0.70817 0.66976
 O1178 O 0.23983 0.64417 0.71389
 O1179 O 0.28300 0.65898 0.74504
 O1180 O 0.27702 0.66354 0.79215
 C1181 C 0.29012 0.65131 0.77021
 O1182 O 0.25884 0.80156 0.73019
 Zr1183 Zr 0.26023 0.76254 0.75799
 O1184 O 0.28492 0.71549 0.81393
 O1185 O 0.29290 0.69894 0.70864
 O1186 O 0.30328 0.76024 0.73462
 O1187 O 0.26352 0.80501 0.78110
 O1188 O 0.29897 0.75669 0.78614
 C1189 C 0.30438 0.73688 0.80600
 O1190 O 0.23147 0.66101 0.82271
 O1191 O 0.13898 0.74970 0.80325
 O1192 O 0.22964 0.71488 0.83782
 O1193 O 0.18851 0.75040 0.83085
 O1194 O 0.12724 0.68895 0.77400
 O1195 O 0.16806 0.64872 0.78835
 C1196 C 0.20821 0.73490 0.84650
 H1197 H 0.14274 0.73786 0.75139
 H1198 H 0.22653 0.65139 0.76605
 H1199 H 0.24330 0.76069 0.80936
 H1200 H 0.25378 0.74661 0.70586
 H1201 H 0.15244 0.63014 0.74210
 H1202 H 0.25800 0.63819 0.70161
 H1203 H 0.29837 0.67969 0.69785
 H1204 H 0.31768 0.77672 0.74198
 H1205 H 0.11605 0.66933 0.76880
 H1206 H 0.13348 0.76874 0.81431
 H1207 H 0.17732 0.80610 0.81826
 H1208 H 0.28570 0.81275 0.77889
 H1209 H 0.16446 0.65934 0.80647
 H1210 H 0.24881 0.65967 0.83694
 H1211 H 0.18585 0.78627 0.67828
 H1212 H 0.27913 0.81333 0.73175
 Zr1213 Zr 0.30169 0.25031 0.21974
 O1214 O 0.28383 0.21340 0.19465
 O1215 O 0.34317 0.26194 0.19827
 O1216 O 0.28898 0.26813 0.17974
 O1217 O 0.34162 0.20524 0.27001
 O1218 O 0.25790 0.31185 0.18812
 O1219 O 0.33151 0.20900 0.22329
 O1220 O 0.35200 0.31119 0.21472
 O1221 O 0.29898 0.29959 0.22249
 O1222 O 0.33328 0.26374 0.25149
 O1223 O 0.25310 0.26232 0.22652
 O1224 O 0.28585 0.22677 0.25557
 Zr1225 Zr 0.26572 0.30306 0.29929
 Zr1226 Zr 0.25146 0.31162 0.23149
 Zr1227 Zr 0.31596 0.24293 0.28767
 Zr1228 Zr 0.32948 0.31261 0.25443
 O1229 O 0.30507 0.20003 0.30787
 O1230 O 0.32936 0.35890 0.23766
 O1231 O 0.31469 0.29211 0.29220
 O1232 O 0.28202 0.32656 0.26358
 O1233 O 0.23430 0.29003 0.26722
 O1234 O 0.26804 0.25386 0.29640
 C1235 C 0.35565 0.28919 0.19625
 C1236 C 0.34464 0.19556 0.24486
 C1237 C 0.27437 0.29375 0.17193
 O1238 O 0.25924 0.35822 0.21742
 O1239 O 0.21991 0.34426 0.25075
 O1240 O 0.23243 0.34143 0.29698
 C1241 C 0.21664 0.35341 0.27619
 O1242 O 0.23388 0.20120 0.23704
 Zr1243 Zr 0.23832 0.24108 0.26353
 O1244 O 0.22289 0.29221 0.31931
 O1245 O 0.20562 0.30463 0.21347
 O1246 O 0.19302 0.24554 0.24334
 O1247 O 0.23415 0.19980 0.28812
 O1248 O 0.20354 0.25086 0.29401
 C1249 C 0.20133 0.27198 0.31314
 O1250 O 0.28289 0.34133 0.32312
 O1251 O 0.36456 0.24750 0.30003
 O1252 O 0.28020 0.28781 0.33956
 O1253 O 0.31839 0.24983 0.33088
 O1254 O 0.37883 0.30498 0.26389
 O1255 O 0.34290 0.34464 0.28635
 C1256 C 0.30128 0.26690 0.34736
 H1257 H 0.35569 0.25694 0.24772
 H1258 H 0.28075 0.34970 0.26630
 H1259 H 0.26080 0.24311 0.31350
 H1260 H 0.23971 0.25547 0.21058
 H1261 H 0.35201 0.36432 0.23393
 H1262 H 0.24055 0.36435 0.20562
 H1263 H 0.19996 0.32434 0.20340
 H1264 H 0.17837 0.23042 0.25230
 H1265 H 0.39093 0.32044 0.25278
 H1266 H 0.37030 0.22839 0.31096
 H1267 H 0.32454 0.19334 0.31843
 H1268 H 0.21112 0.19419 0.28829
 H1269 H 0.36198 0.35655 0.28042
 H1270 H 0.26748 0.34471 0.33855
 H1271 H 0.29958 0.20997 0.17950
 H1272 H 0.21312 0.19087 0.24054
 Zr1273 Zr 0.71328 0.71527 0.29489
 O1274 O 0.73227 0.67858 0.32023
 O1275 O 0.67315 0.72882 0.31730
 O1276 O 0.72568 0.73314 0.33483
 O1277 O 0.67697 0.66646 0.24631
 O1278 O 0.75558 0.77629 0.32479
 O1279 O 0.68336 0.67487 0.29303
 O1280 O 0.65068 0.76834 0.29159
 O1281 O 0.71134 0.76452 0.29069
 O1282 O 0.68150 0.72542 0.26191
 O1283 O 0.76098 0.72894 0.28788
 O1284 O 0.73173 0.69027 0.26039
 Zr1285 Zr 0.74674 0.76478 0.21370
 Zr1286 Zr 0.75813 0.77776 0.28121
 Zr1287 Zr 0.70124 0.70315 0.22711
 Zr1288 Zr 0.68126 0.77395 0.25684
 O1289 O 0.71762 0.65944 0.21085
 O1290 O 0.67736 0.81857 0.27647
 O1291 O 0.69848 0.75204 0.22025
 O1292 O 0.72761 0.78947 0.24786
 O1293 O 0.77855 0.75514 0.24666
 O1294 O 0.74811 0.71578 0.21858
 C1295 C 0.65151 0.74991 0.31298
 C1296 C 0.67210 0.65952 0.27190
 C1297 C 0.74197 0.75760 0.34204
 O1298 O 0.74218 0.82258 0.29530
 O1299 O 0.78505 0.81302 0.26206
 O1300 O 0.77905 0.80322 0.21559
 C1301 C 0.79085 0.81878 0.23636
 O1302 O 0.78601 0.67039 0.28260
 Zr1303 Zr 0.77832 0.70624 0.25218
 O1304 O 0.78789 0.75079 0.19255
 O1305 O 0.80455 0.77891 0.29922
 O1306 O 0.82417 0.71407 0.27010
 O1307 O 0.78352 0.66228 0.23159
 O1308 O 0.81164 0.71297 0.21967
 C1309 C 0.81069 0.73098 0.19806
 O1310 O 0.72990 0.80273 0.18871
 O1311 O 0.65344 0.69999 0.21237
 O1312 O 0.73283 0.74830 0.17378
 O1313 O 0.70017 0.70707 0.18342
 O1314 O 0.63481 0.76574 0.24041
 O1315 O 0.66654 0.81025 0.22899
 C1316 C 0.71484 0.72517 0.16629
 H1317 H 0.65929 0.71835 0.26518
 H1318 H 0.72706 0.81247 0.24424
 H1319 H 0.75583 0.70410 0.20202
 H1320 H 0.77501 0.72378 0.30401
 H1321 H 0.65413 0.82381 0.27790
 H1322 H 0.75993 0.83131 0.30664
 H1323 H 0.81970 0.77153 0.28471
 H1324 H 0.83924 0.69820 0.26214
 H1325 H 0.62011 0.78158 0.24894
 H1326 H 0.64713 0.72139 0.20594
 H1327 H 0.69950 0.65073 0.19994
 H1328 H 0.80609 0.65518 0.23425
 H1329 H 0.67005 0.80210 0.20991
 H1330 H 0.74564 0.80524 0.17347
 H1331 H 0.71686 0.67563 0.33566
 H1332 H 0.80759 0.66066 0.28030
 Zr1333 Zr 0.77957 0.29657 0.80252
 O1334 O 0.76060 0.33291 0.82804
 O1335 O 0.82067 0.28393 0.82455
 O1336 O 0.76815 0.27803 0.84237
 O1337 O 0.81308 0.34630 0.75340
 O1338 O 0.74102 0.23332 0.83213
 O1339 O 0.80911 0.33741 0.80018
 O1340 O 0.84219 0.24397 0.79880
 O1341 O 0.78200 0.24734 0.79790
 O1342 O 0.81039 0.28691 0.76918
 O1343 O 0.73202 0.28208 0.79583
 O1344 O 0.75935 0.32126 0.76843
 Zr1345 Zr 0.74476 0.24643 0.72077
 Zr1346 Zr 0.73523 0.23333 0.78874
 Zr1347 Zr 0.78903 0.30903 0.73489
 Zr1348 Zr 0.81130 0.23841 0.76388
 O1349 O 0.77078 0.35234 0.71903
 O1350 O 0.81556 0.19365 0.78323
 O1351 O 0.79276 0.26026 0.72760
 O1352 O 0.76508 0.22220 0.75500
 O1353 O 0.71377 0.25539 0.75425
 O1354 O 0.74233 0.29539 0.72610
 C1355 C 0.84193 0.26249 0.82016
 C1356 C 0.81928 0.35304 0.77884
 C1357 C 0.75425 0.25225 0.84956
 O1358 O 0.74997 0.18767 0.80192
 O1359 O 0.70708 0.19874 0.76958
 O1360 O 0.71436 0.20639 0.72302
 C1361 C 0.70181 0.19178 0.74392
 O1362 O 0.70413 0.34101 0.78936
 Zr1363 Zr 0.71305 0.30415 0.76028
 O1364 O 0.70177 0.25881 0.70052
 O1365 O 0.68929 0.23525 0.80733
 O1366 O 0.66923 0.29331 0.78019
 O1367 O 0.70456 0.34739 0.73906
 O1368 O 0.67870 0.29596 0.72894
 C1369 C 0.67887 0.27777 0.70755
 O1370 O 0.76105 0.20907 0.69496
 O1371 O 0.83667 0.31311 0.72047
 O1372 O 0.76043 0.26282 0.68105
 O1373 O 0.78971 0.30590 0.69156
 O1374 O 0.85734 0.24733 0.74733
 O1375 O 0.82662 0.20269 0.73583
 C1376 C 0.77774 0.28670 0.67396
 H1377 H 0.83257 0.29429 0.77219
 H1378 H 0.76594 0.19920 0.75142
 H1379 H 0.73394 0.30670 0.70949
 H1380 H 0.71851 0.28709 0.81219
 H1381 H 0.83883 0.18856 0.78479
 H1382 H 0.73251 0.17928 0.81362
 H1383 H 0.68646 0.21488 0.81708
 H1384 H 0.65236 0.30760 0.77244
 H1385 H 0.87255 0.23213 0.75624
 H1386 H 0.84316 0.29199 0.71352
 H1387 H 0.78822 0.36173 0.70792
 H1388 H 0.68108 0.35165 0.73923
 H1389 H 0.82070 0.21005 0.71690
 H1390 H 0.74515 0.20710 0.67960
 H1391 H 0.77636 0.33601 0.84333
 H1392 H 0.68186 0.34913 0.78689
 C1393 C 0.46568 1.05248 0.37164
 C1394 C 0.45379 1.05949 0.34530
 C1395 C 0.46855 1.04739 0.32148
 C1396 C 0.49791 1.02973 0.32477
 C1397 C 0.51067 1.02315 0.35197
 C1398 C 0.49395 1.03418 0.37597
 C1399 C 0.54026 1.00679 0.35379
 N1400 N 0.55597 0.99780 0.33039
 N1401 N 0.54444 1.00442 0.30515
 C1402 C 0.51626 1.02030 0.30154
 H1403 H 0.45184 1.06152 0.38899
 H1404 H 0.43135 1.07271 0.34385
 H1405 H 0.55166 1.00149 0.37332
 H1406 H 0.50896 1.02615 0.28052
 C1407 C 0.00202 0.57653 0.86177
 C1408 C -0.01238 0.58058 0.83592
 C1409 C -0.00866 0.55794 0.81485
 C1410 C 0.01429 0.53299 0.81948
 C1411 C 0.02744 0.52751 0.84665
 C1412 C 0.02001 0.54916 0.86858
 C1413 C 0.04742 0.50058 0.85032
 N1414 N 0.05587 0.48255 0.82816
 N1415 N 0.04580 0.48935 0.80251
 C1416 C 0.02570 0.51408 0.79740
 H1417 H -0.00301 0.59449 0.87726
 H1418 H -0.02884 0.60043 0.83375
 H1419 H 0.05707 0.49340 0.87010
 H1420 H 0.01917 0.51904 0.77600
 C1421 C -0.01377 -0.04542 0.84933
 C1422 C 0.00028 -0.05454 0.82414
 C1423 C 0.03043 -0.04322 0.81652
 C1424 C 0.04632 -0.02161 0.83430
 C1425 C 0.03167 -0.01183 0.85947
 C1426 C 0.00166 -0.02426 0.86724
 C1427 C 0.04805 0.00960 0.87662
 N1428 N 0.07726 0.02026 0.86902
 N1429 N 0.09128 0.01076 0.84556
 C1430 C 0.07693 -0.00986 0.82803
 H1431 H -0.03615 -0.05605 0.85549
 H1432 H -0.01233 -0.07067 0.81057
 H1433 H 0.03779 0.01811 0.89589
 H1434 H 0.08980 -0.01714 0.80956
 C1435 C 0.48402 0.46717 0.35328
 C1436 C 0.50012 0.46613 0.32776
 C1437 C 0.52353 0.44247 0.32199
 C1438 C 0.52822 0.41809 0.34200
 C1439 C 0.50691 0.41596 0.36468
 C1440 C 0.48803 0.44274 0.37265
 C1441 C 0.50615 0.38721 0.37921
 N1442 N 0.52963 0.36518 0.37530
 N1443 N 0.55344 0.36999 0.35750
 C1444 C 0.55386 0.39599 0.34107
 H1445 H 0.46913 0.48759 0.35814
 H1446 H 0.49493 0.48477 0.31296
 H1447 H 0.48689 0.38214 0.39339
 H1448 H 0.57438 0.39917 0.32777
 C1449 C 0.52379 0.52906 0.13368
 C1450 C 0.53075 0.53542 0.16159
 C1451 C 0.56261 0.53566 0.17134
 C1452 C 0.58795 0.52867 0.15268
 C1453 C 0.58081 0.52109 0.12456
 C1454 C 0.54845 0.52209 0.11484
 C1455 C 0.60634 0.51125 0.10737
 N1456 N 0.63689 0.51064 0.11731
 N1457 N 0.64368 0.51876 0.14344
 C1458 C 0.62032 0.52756 0.16150
 H1459 H 0.49898 0.52985 0.12669
 H1460 H 0.51106 0.53955 0.17587
 H1461 H 0.60224 0.50296 0.08644
 H1462 H 0.62735 0.53340 0.18258
 C1463 C 0.05323 1.05568 0.61686
 C1464 C 0.06386 1.05543 0.64437
 C1465 C 0.04483 1.04318 0.66562
 C1466 C 0.01239 1.03531 0.65903
 C1467 C 0.00114 1.03646 0.63087
 C1468 C 0.02260 1.04468 0.60914
 C1469 C -0.03160 1.03063 0.62583
 N1470 N -0.05137 1.02352 0.64717
 N1471 N -0.04092 1.02243 0.67337
 C1472 C -0.00996 1.02846 0.68006
 H1473 H 0.07020 1.06319 0.60129
 H1474 H 0.08843 1.06225 0.64848
 H1475 H -0.04227 1.03313 0.60553
 H1476 H -0.00346 1.02889 0.70187
 C1477 C -0.08463 0.47917 0.62478
 C1478 C -0.09207 0.47494 0.65279
 C1479 C -0.06809 0.46686 0.67215
 C1480 C -0.03619 0.46171 0.66285
 C1481 C -0.02863 0.46564 0.63426
 C1482 C -0.05295 0.47561 0.61524
 C1483 C 0.00295 0.45867 0.62572
 N1484 N 0.02551 0.44967 0.64472
 N1485 N 0.01859 0.44686 0.67163
 C1486 C -0.01147 0.45252 0.68134
 H1487 H -0.10370 0.48613 0.61049
 H1488 H -0.11648 0.47943 0.65965
 H1489 H 0.00983 0.45965 0.60413
 H1490 H -0.01589 0.44930 0.70333
 C1491 C 0.42764 -0.04117 0.12185
 C1492 C 0.41737 -0.04215 0.14938
 C1493 C 0.43952 -0.04177 0.17135
 C1494 C 0.47286 -0.04181 0.16532
 C1495 C 0.48342 -0.04137 0.13719
 C1496 C 0.46047 -0.04001 0.11520
 C1497 C 0.51665 -0.04325 0.13220
 N1498 N 0.53770 -0.04428 0.15385
 N1499 N 0.52781 -0.04395 0.18017
 C1500 C 0.49615 -0.04288 0.18664
 H1501 H 0.40957 -0.04042 0.10552
 H1502 H 0.39182 -0.04193 0.15361
 H1503 H 0.52615 -0.04474 0.11142
 H1504 H 0.48950 -0.04340 0.20837
 C1505 C 0.41843 0.39755 0.02723
 C1506 C 0.39235 0.37725 0.02995
 C1507 C 0.36066 0.38797 0.02512
 C1508 C 0.35530 0.42034 0.01863
 C1509 C 0.38181 0.44079 0.01545
 C1510 C 0.41366 0.42917 0.01948
 C1511 C 0.37546 0.47268 0.00898
 N1512 N 0.34474 0.48334 0.00626
 N1513 N 0.31991 0.46435 0.00970
 C1514 C 0.32409 0.43336 0.01592
 H1515 H 0.44258 0.38831 0.03053
 H1516 H 0.39694 0.35284 0.03557
 H1517 H 0.39455 0.48939 0.00647
 H1518 H 0.30290 0.41945 0.01908
 C1519 C -0.09344 0.91468 0.51686
 C1520 C -0.11754 0.89304 0.52175
 C1521 C -0.14997 0.90023 0.51565
 C1522 C -0.15787 0.93080 0.50475
 C1523 C -0.13299 0.95280 0.49989
 C1524 C -0.10075 0.94470 0.50654
 C1525 C -0.14131 0.98283 0.48940
 N1526 N -0.17257 0.99069 0.48487
 N1527 N -0.19603 0.97073 0.49047
 C1528 C -0.18986 0.94136 0.50053
 H1529 H -0.06870 0.90780 0.52099
 H1530 H -0.11060 0.87006 0.52987
 H1531 H -0.12332 1.00029 0.48512
 H1532 H -0.21021 0.92712 0.50575
 C1533 C -0.16023 0.05976 0.96818
 C1534 C -0.18550 0.08177 0.96807
 C1535 C -0.17970 0.11425 0.96987
 C1536 C -0.14743 0.12460 0.97161
 C1537 C -0.12171 0.10210 0.97137
 C1538 C -0.12829 0.06947 0.96982
 C1539 C -0.09012 0.11301 0.97358
 N1540 N -0.08468 0.14435 0.97603
 N1541 N -0.10870 0.16544 0.97662
 C1542 C -0.13982 0.15666 0.97469
 H1543 H -0.16567 0.03485 0.96739
 H1544 H -0.20991 0.07333 0.96682
 H1545 H -0.06976 0.09688 0.97359
 H1546 H -0.15821 0.17481 0.97602
 C1547 C 0.33622 0.54942 0.47246
 C1548 C 0.31118 0.57163 0.47141
 C1549 C 0.31717 0.60376 0.46716
 C1550 C 0.34955 0.61339 0.46343
 C1551 C 0.37496 0.59047 0.46382
 C1552 C 0.36816 0.55836 0.46878
 C1553 C 0.40662 0.60066 0.46021
 N1554 N 0.41252 0.63179 0.45685
 N1555 N 0.38895 0.65337 0.45711
 C1556 C 0.35779 0.64532 0.46050
 H1557 H 0.33064 0.52499 0.47665
 H1558 H 0.28682 0.56364 0.47428
 H1559 H 0.42669 0.58418 0.46019
 H1560 H 0.34000 0.66408 0.46132
 C1561 C 0.08067 0.59612 0.52886
 C1562 C 0.10782 0.61489 0.53199
 C1563 C 0.13890 0.60246 0.52762
 C1564 C 0.14252 0.56990 0.52111
 C1565 C 0.11488 0.55102 0.51739
 C1566 C 0.08373 0.56440 0.52099
 C1567 C 0.11941 0.51892 0.51075
 N1568 N 0.14951 0.50659 0.50843
 N1569 N 0.17540 0.52410 0.51246
 C1570 C 0.17297 0.55519 0.51888
 H1571 H 0.05705 0.60667 0.53181
 H1572 H 0.10451 0.63955 0.53737
 H1573 H 0.09936 0.50336 0.50780
 H1574 H 0.19490 0.56785 0.52259
 C1575 C 0.58730 0.08532 0.03006
 C1576 C 0.61292 0.10592 0.03340
 C1577 C 0.64458 0.09630 0.02735
 C1578 C 0.65051 0.06474 0.01869
 C1579 C 0.62438 0.04398 0.01483
 C1580 C 0.59253 0.05457 0.02030
 C1581 C 0.63114 0.01284 0.00625
 N1582 N 0.66195 0.00320 0.00212
 N1583 N 0.68648 0.02249 0.00617
 C1584 C 0.68187 0.05279 0.01446
 H1585 H 0.56312 0.09371 0.03440
 H1586 H 0.60796 0.12979 0.04042
 H1587 H 0.61234 -0.00411 0.00319
 H1588 H 0.70283 0.06698 0.01804
 C1589 C 0.64016 0.92577 0.45504
 C1590 C 0.66580 0.90418 0.45343
 C1591 C 0.66995 0.88041 0.47350
 C1592 C 0.64658 0.87709 0.49455
 C1593 C 0.62041 0.89891 0.49614
 C1594 C 0.61790 0.92425 0.47678
 C1595 C 0.59725 0.89419 0.51688
 N1596 N 0.60046 0.86973 0.53492
 N1597 N 0.62514 0.84947 0.53354
 C1598 C 0.64823 0.85223 0.51396
 H1599 H 0.63865 0.94475 0.43996
 H1600 H 0.68326 0.90678 0.43698
 H1601 H 0.57624 0.90921 0.51858
 H1602 H 0.66739 0.83473 0.51353
 C1603 C 0.16626 0.44076 0.95358
 C1604 C 0.19022 0.41728 0.95228
 C1605 C 0.18578 0.38772 0.96468
 C1606 C 0.15621 0.38135 0.97780
 C1607 C 0.13195 0.40519 0.97925
 C1608 C 0.13739 0.43540 0.96759
 C1609 C 0.10274 0.39779 0.99218
 N1610 N 0.09848 0.36866 1.00309
 N1611 N 0.12141 0.34644 1.00200
 C1612 C 0.15010 0.35178 0.98978
 H1613 H 0.17083 0.46369 0.94460
 H1614 H 0.21270 0.42245 0.94212
 H1615 H 0.08305 0.41466 0.99329
 H1616 H 0.16778 0.33281 0.98939
 C1617 C 0.02139 0.35839 0.43248
 C1618 C 0.03206 0.33924 0.41091
 C1619 C 0.01434 0.33682 0.38608
 C1620 C -0.01572 0.35281 0.38370
 C1621 C -0.02839 0.36889 0.40702
 C1622 C -0.00826 0.37434 0.43056
 C1623 C -0.06078 0.37912 0.40569
 N1624 N -0.07740 0.37729 0.38141
 N1625 N -0.06400 0.36556 0.35847
 C1626 C -0.03366 0.35351 0.35871
 H1627 H 0.03704 0.36154 0.45033
 H1628 H 0.05462 0.32650 0.41361
 H1629 H -0.07332 0.38788 0.42381
 H1630 H -0.02392 0.34457 0.33940
 C1631 C 0.50470 -0.12985 -0.10263
 C1632 C 0.51369 -0.14925 -0.12441
 C1633 C 0.53262 -0.17598 -0.11946
 C1634 C 0.54216 -0.18397 -0.09198
 C1635 C 0.53253 -0.16438 -0.06951
 C1636 C 0.51448 -0.13635 -0.07511
 C1637 C 0.53994 -0.17460 -0.04233
 N1638 N 0.55728 -0.20155 -0.03820
 N1639 N 0.56724 -0.21935 -0.05938
 C1640 C 0.56004 -0.21166 -0.08609
 H1641 H 0.48991 -0.10936 -0.10754
 H1642 H 0.50531 -0.14370 -0.14528
 H1643 H 0.53114 -0.16233 -0.02431
 H1644 H 0.56811 -0.22744 -0.10239
 C1645 C -0.08316 -0.14727 1.05428
 C1646 C -0.08503 -0.17359 1.07116
 C1647 C -0.06658 -0.20063 1.06522
 C1648 C -0.04897 -0.20268 1.04018
 C1649 C -0.04736 -0.17596 1.02286
 C1650 C -0.06324 -0.14786 1.03106
 C1651 C -0.02894 -0.17793 0.99846
 N1652 N -0.01329 -0.20526 0.99204
 N1653 N -0.01480 -0.23055 1.00843
 C1654 C -0.03211 -0.23022 1.03229
 H1655 H -0.09540 -0.12565 1.06048
 H1656 H -0.09854 -0.17176 1.09034
 H1657 H -0.02691 -0.15807 0.98448
 H1658 H -0.03283 -0.25149 1.04471
 C1659 C 0.41871 0.36408 0.58678
 C1660 C 0.41848 0.34048 0.60666
 C1661 C 0.41602 0.30911 0.59833
 C1662 C 0.40745 0.30176 0.57072
 C1663 C 0.40803 0.32559 0.55024
 C1664 C 0.41648 0.35653 0.55840
 C1665 C 0.40225 0.31685 0.52243
 N1666 N 0.39518 0.28653 0.51612
 N1667 N 0.39428 0.26424 0.53562
 C1668 C 0.40063 0.27073 0.56269
 H1669 H 0.42417 0.38789 0.59337
 H1670 H 0.42481 0.34627 0.62797
 H1671 H 0.40297 0.33356 0.50567
 H1672 H 0.39999 0.25178 0.57778
 C1673 C 0.56326 1.17319 0.53300
 C1674 C 0.56392 1.20142 0.54779
 C1675 C 0.56923 1.20128 0.57661
 C1676 C 0.57613 1.17250 0.59063
 C1677 C 0.57589 1.14404 0.57545
 C1678 C 0.56777 1.14444 0.54686
 C1679 C 0.58286 1.11573 0.58954
 N1680 N 0.58875 1.11591 0.61732
 N1681 N 0.58794 1.14258 0.63193
 C1682 C 0.58162 1.17081 0.61964
 H1683 H 0.55679 1.17365 0.51111
 H1684 H 0.55817 1.22330 0.53706
 H1685 H 0.58384 1.09359 0.57854
 H1686 H 0.58090 1.19141 0.63281
 C1687 C 0.05803 0.67156 1.04745
 C1688 C 0.05458 0.69559 1.06663
 C1689 C 0.06400 0.69123 1.09457
 C1690 C 0.08050 0.66301 1.10252
 C1691 C 0.08410 0.63860 1.08266
 C1692 C 0.07105 0.64264 1.05569
 C1693 C 0.09943 0.61029 1.09071
 N1694 N 0.10998 0.60654 1.11727
 N1695 N 0.10575 0.62903 1.13630
 C1696 C 0.09109 0.65693 1.12995
 H1697 H 0.04811 0.67471 1.02669
 H1698 H 0.04260 0.71725 1.05999
 H1699 H 0.10319 0.59128 1.07601
 H1700 H 0.08771 0.67375 1.14648
 C1701 C 0.46800 0.62135 -0.08817
 C1702 C 0.46213 0.64427 -0.10809
 C1703 C 0.48010 0.67214 -0.10866
 C1704 C 0.50328 0.67749 -0.08718
 C1705 C 0.50987 0.65340 -0.06748
 C1706 C 0.49210 0.62538 -0.06835
 C1707 C 0.53350 0.65843 -0.04696
 N1708 N 0.54832 0.68662 -0.04543
 N1709 N 0.54087 0.71005 -0.06287
 C1710 C 0.51864 0.70665 -0.08338
 H1711 H 0.45450 0.59967 -0.08892
 H1712 H 0.44444 0.63929 -0.12409
 H1713 H 0.53979 0.64048 -0.03179
 H1714 H 0.51268 0.72710 -0.09589
 C1715 C 0.01572 1.14786 0.40331
 C1716 C 0.01123 1.16924 0.38184
 C1717 C -0.01483 1.16661 0.36301
 C1718 C -0.03458 1.13949 0.36485
 C1719 C -0.03115 1.11894 0.38788
 C1720 C -0.00604 1.12376 0.40727
 C1721 C -0.05226 1.09341 0.39014
 N1722 N -0.07424 1.08812 0.36982
 N1723 N -0.07617 1.10630 0.34728
 C1724 C -0.05672 1.13133 0.34382
 H1725 H 0.03550 1.15105 0.41778
 H1726 H 0.02694 1.18932 0.38190
 H1727 H -0.05107 1.07719 0.40749
 H1728 H -0.05846 1.14439 0.32452
 C1729 C 0.82391 0.74763 0.89263
 C1730 C 0.82881 0.73075 0.91729
 C1731 C 0.80583 0.70943 0.92701
 C1732 C 0.77774 0.70448 0.91021
 C1733 C 0.77223 0.72295 0.88587
 C1734 C 0.79573 0.74434 0.87687
 C1735 C 0.74414 0.71789 0.87012
 N1736 N 0.72379 0.69470 0.87738
 N1737 N 0.72989 0.67594 0.89902
 C1738 C 0.75628 0.67964 0.91530
 H1739 H 0.84275 0.76291 0.88537
 H1740 H 0.85050 0.73514 0.92917
 H1741 H 0.73833 0.73190 0.85194
 H1742 H 0.76066 0.66238 0.93146
 C1743 C 0.27876 0.24016 0.38745
 C1744 C 0.28189 0.22502 0.41296
 C1745 C 0.30966 0.22814 0.42978
 C1746 C 0.33384 0.24929 0.42042
 C1747 C 0.33118 0.26334 0.39351
 C1748 C 0.30348 0.25844 0.37703
 C1749 C 0.35599 0.28274 0.38424
 N1750 N 0.38089 0.28938 0.40148
 N1751 N 0.38242 0.27808 0.42732
 C1752 C 0.35963 0.25870 0.43746
 H1753 H 0.25765 0.23568 0.37479
 H1754 H 0.26298 0.20893 0.41840
 H1755 H 0.35535 0.29333 0.36374
 H1756 H 0.36137 0.25184 0.45902
 C1757 C 0.68919 0.23920 0.39589
 C1758 C 0.68031 0.25254 0.42146
 C1759 C 0.69149 0.28228 0.42943
 C1760 C 0.71222 0.29874 0.41127
 C1761 C 0.72224 0.28459 0.38599
 C1762 C 0.71012 0.25489 0.37798
 C1763 C 0.74378 0.30107 0.36904
 N1764 N 0.75366 0.33019 0.37657
 N1765 N 0.74337 0.34400 0.39983
 C1766 C 0.72291 0.32941 0.41732
 H1767 H 0.67883 0.21698 0.38963
 H1768 H 0.66468 0.23957 0.43515
 H1769 H 0.75305 0.29094 0.35003
 H1770 H 0.71492 0.34212 0.43560
 C1771 C 0.17896 0.74113 0.89067
 C1772 C 0.17354 0.75753 0.91544
 C1773 C 0.19644 0.77847 0.92611
 C1774 C 0.22496 0.78359 0.91031
 C1775 C 0.23135 0.76512 0.88629
 C1776 C 0.20775 0.74435 0.87602
 C1777 C 0.26039 0.76982 0.87204
 N1778 N 0.28046 0.79300 0.88008
 N1779 N 0.27324 0.81213 0.90114
 C1780 C 0.24605 0.80862 0.91613
 H1781 H 0.16012 0.72637 0.88241
 H1782 H 0.15144 0.75328 0.92656
 H1783 H 0.26731 0.75550 0.85449
 H1784 H 0.24077 0.82612 0.93184
 C1785 C 0.25670 0.77363 0.12095
 C1786 C 0.25695 0.78303 0.09313
 C1787 C 0.27537 0.80877 0.08385
 C1788 C 0.29488 0.82424 0.10401
 C1789 C 0.29840 0.81133 0.13122
 C1790 C 0.27664 0.78781 0.14073
 C1791 C 0.32358 0.82301 0.14785
 N1792 N 0.33917 0.84946 0.14027
 N1793 N 0.33159 0.86482 0.11696
 C1794 C 0.30964 0.85340 0.09880
 H1795 H 0.24051 0.75510 0.12699
 H1796 H 0.24253 0.76944 0.07881
 H1797 H 0.33185 0.81097 0.16628
 H1798 H 0.30367 0.86752 0.08074
 C1799 C 0.76776 0.27514 0.62355
 C1800 C 0.76609 0.28408 0.59559
 C1801 C 0.77698 0.31365 0.58663
 C1802 C 0.79157 0.33371 0.60652
 C1803 C 0.79757 0.32262 0.63406
 C1804 C 0.78254 0.29430 0.64357
 C1805 C 0.81840 0.34074 0.65076
 N1806 N 0.82749 0.36978 0.64238
 N1807 N 0.81771 0.38191 0.61822
 C1808 C 0.79987 0.36499 0.60010
 H1809 H 0.75687 0.25313 0.62954
 H1810 H 0.75522 0.26797 0.58092
 H1811 H 0.82893 0.33194 0.66974
 H1812 H 0.79219 0.37636 0.58104
 C1813 C 0.23866 0.16857 0.62828
 C1814 C 0.23349 0.16092 0.60042
 C1815 C 0.22509 0.18427 0.58106
 C1816 C 0.22100 0.21589 0.59013
 C1817 C 0.22575 0.22367 0.61863
 C1818 C 0.23559 0.19983 0.63774
 C1819 C 0.21952 0.25495 0.62702
 N1820 N 0.21053 0.27701 0.60794
 N1821 N 0.20698 0.26986 0.58111
 C1822 C 0.21183 0.24007 0.57156
 H1823 H 0.24556 0.14986 0.64259
 H1824 H 0.23717 0.13672 0.59371
 H1825 H 0.22109 0.26202 0.64853
 H1826 H 0.20801 0.23546 0.54964
 C1827 C 0.71211 0.68371 0.13012
 C1828 C 0.71440 0.67261 0.10292
 C1829 C 0.71823 0.69340 0.08068
 C1830 C 0.71801 0.72636 0.08594
 C1831 C 0.71505 0.73783 0.11374
 C1832 C 0.71323 0.71615 0.13624
 C1833 C 0.71299 0.77065 0.11776
 N1834 N 0.71499 0.79047 0.09571
 N1835 N 0.71849 0.77972 0.06982
 C1836 C 0.71989 0.74840 0.06418
 H1837 H 0.71061 0.66644 0.14666
 H1838 H 0.71424 0.64738 0.09930
 H1839 H 0.70876 0.78083 0.13802
 H1840 H 0.72192 0.74106 0.04268
 C1841 C 0.18062 0.63320 0.24867
 C1842 C 0.16198 0.60615 0.24634
 C1843 C 0.13189 0.60712 0.23302
 C1844 C 0.12022 0.63662 0.22263
 C1845 C 0.13986 0.66384 0.22398
 C1846 C 0.17037 0.66211 0.23714
 C1847 C 0.12774 0.69223 0.21283
 N1848 N 0.09761 0.69358 0.20200
 N1849 N 0.07878 0.66848 0.20162
 C1850 C 0.08900 0.64012 0.21156
 H1851 H 0.20363 0.63143 0.25926
 H1852 H 0.17155 0.58406 0.25443
 H1853 H 0.14182 0.71339 0.21288
 H1854 H 0.07239 0.62076 0.21118
 C1855 C 0.69055 0.14104 0.71978
 C1856 C 0.67356 0.11302 0.71663
 C1857 C 0.64579 0.10715 0.73221
 C1858 C 0.63439 0.13085 0.75068
 C1859 C 0.65160 0.15947 0.75385
 C1860 C 0.68045 0.16433 0.73866
 C1861 C 0.63859 0.18279 0.77155
 N1862 N 0.61085 0.17760 0.78535
 N1863 N 0.59494 0.15078 0.78249
 C1864 C 0.60562 0.12736 0.76554
 H1865 H 0.71236 0.14410 0.70795
 H1866 H 0.68237 0.09551 0.70199
 H1867 H 0.64951 0.20552 0.77394
 H1868 H 0.59122 0.10647 0.76365
 C1869 C 0.83812 0.12780 0.28650
 C1870 C 0.86062 0.10287 0.28676
 C1871 C 0.85205 0.07183 0.27923
 C1872 C 0.81877 0.06601 0.27404
 C1873 C 0.79620 0.09163 0.27301
 C1874 C 0.80615 0.12285 0.27873
 C1875 C 0.76379 0.08502 0.26721
 N1876 N 0.75433 0.05480 0.26402
 N1877 N 0.77498 0.03070 0.26654
 C1878 C 0.80660 0.03519 0.27182
 H1879 H 0.84613 0.15146 0.29111
 H1880 H 0.88541 0.10853 0.29122
 H1881 H 0.74569 0.10347 0.26592
 H1882 H 0.82157 0.01449 0.27512
 C1883 C 0.30488 0.59492 0.77538
 C1884 C 0.32711 0.56990 0.77536
 C1885 C 0.36037 0.57533 0.77481
 C1886 C 0.37104 0.60702 0.77240
 C1887 C 0.34816 0.63230 0.77096
 C1888 C 0.31495 0.62620 0.77351
 C1889 C 0.35929 0.66298 0.76623
 N1890 N 0.39120 0.66811 0.76372
 N1891 N 0.41268 0.64458 0.76515
 C1892 C 0.40375 0.61429 0.76917
 H1893 H 0.27948 0.58979 0.77628
 H1894 H 0.31820 0.54607 0.77697
 H1895 H 0.34290 0.68295 0.76453
 H1896 H 0.42228 0.59617 0.76902
 C1897 C 0.35103 0.33907 0.75188
 C1898 C 0.36773 0.36730 0.74903
 C1899 C 0.35587 0.39162 0.73187
 C1900 C 0.32605 0.38759 0.71791
 C1901 C 0.30909 0.35889 0.72076
 C1902 C 0.32208 0.33412 0.73747
 C1903 C 0.27899 0.35650 0.70747
 N1904 N 0.26719 0.38081 0.69197
 N1905 N 0.28323 0.40753 0.68908
 C1906 C 0.31211 0.41181 0.70157
 H1907 H 0.36095 0.32075 0.76526
 H1908 H 0.39045 0.36993 0.75984
 H1909 H 0.26438 0.33585 0.70956
 H1910 H 0.32360 0.43432 0.69897
 C1911 C 0.80428 0.87534 0.24018
 C1912 C 0.82495 0.90078 0.23725
 C1913 C 0.85515 0.89705 0.22452
 C1914 C 0.86538 0.86589 0.21680
 C1915 C 0.84424 0.84006 0.22003
 C1916 C 0.81307 0.84509 0.23092
 C1917 C 0.85568 0.80954 0.21369
 N1918 N 0.88620 0.80509 0.20469
 N1919 N 0.90623 0.82905 0.20206
 C1920 C 0.89708 0.85910 0.20810
 H1921 H 0.78098 0.87937 0.24960
 H1922 H 0.81638 0.92391 0.24369
 H1923 H 0.84088 0.78907 0.21643
 H1924 H 0.91508 0.87712 0.20694
 C1925 C 0.67840 0.88353 0.76061
 C1926 C 0.65475 0.90714 0.76249
 C1927 C 0.65505 0.92924 0.78418
 C1928 C 0.68016 0.92751 0.80429
 C1929 C 0.70451 0.90358 0.80226
 C1930 C 0.70339 0.88107 0.78031
 C1931 C 0.72997 0.90406 0.82164
 N1932 N 0.73044 0.92621 0.84201
 N1933 N 0.70744 0.94822 0.84413
 C1934 C 0.68247 0.94976 0.82592
 H1935 H 0.67716 0.86695 0.74348
 H1936 H 0.63595 0.90818 0.74680
 H1937 H 0.74991 0.88759 0.82054
 H1938 H 0.66495 0.96863 0.82835
 C1939 C 0.16266 0.37709 0.26713
 C1940 C 0.13905 0.40067 0.26965
 C1941 C 0.14392 0.42703 0.28662
 C1942 C 0.17328 0.42943 0.30154
 C1943 C 0.19765 0.40562 0.29871
 C1944 C 0.19220 0.37897 0.28135
 C1945 C 0.22713 0.41023 0.31249
 N1946 N 0.23136 0.43609 0.32866
 N1947 N 0.20831 0.45791 0.33177
 C1948 C 0.17951 0.45554 0.31869
 H1949 H 0.15783 0.35714 0.25370
 H1950 H 0.11686 0.39853 0.25793
 H1951 H 0.24713 0.39401 0.31025
 H1952 H 0.16183 0.47418 0.32169
 C1953 C 0.11106 0.26900 0.81672
 C1954 C 0.09011 0.28020 0.83686
 C1955 C 0.08722 0.26457 0.86237
 C1956 C 0.10454 0.23601 0.86705
 C1957 C 0.12311 0.22275 0.84533
 C1958 C 0.12878 0.24099 0.82091
 C1959 C 0.13523 0.19173 0.84913
 N1960 N 0.13248 0.17722 0.87412
 N1961 N 0.11808 0.19132 0.89552
 C1962 C 0.10419 0.22028 0.89290
 H1963 H 0.11415 0.28310 0.79815
 H1964 H 0.07636 0.30157 0.83257
 H1965 H 0.14599 0.17833 0.83245
 H1966 H 0.09307 0.23066 0.91107
 C1967 C 0.61057 0.78352 0.33586
 C1968 C 0.58979 0.79082 0.35748
 C1969 C 0.58605 0.76995 0.37971
 C1970 C 0.60444 0.74163 0.38059
 C1971 C 0.62274 0.73239 0.35719
 C1972 C 0.62712 0.75442 0.33504
 C1973 C 0.63496 0.70108 0.35684
 N1974 N 0.63268 0.68256 0.37974
 N1975 N 0.61835 0.69275 0.40281
 C1976 C 0.60414 0.72165 0.40401
 H1977 H 0.61338 0.80083 0.31950
 H1978 H 0.57564 0.81245 0.35626
 H1979 H 0.64518 0.69037 0.33853
 H1980 H 0.59239 0.72871 0.42312
 C1981 C 0.60370 0.21115 0.16810
 C1982 C 0.58060 0.20730 0.14793
 C1983 C 0.55235 0.19164 0.15385
 C1984 C 0.54821 0.17752 0.18031
 C1985 C 0.57266 0.18039 0.20100
 C1986 C 0.60062 0.19811 0.19484
 C1987 C 0.56715 0.16663 0.22719
 N1988 N 0.53960 0.15094 0.23203
 N1989 N 0.51677 0.14851 0.21269
 C1990 C 0.51993 0.16161 0.18718
 H1991 H 0.62402 0.22543 0.16258
 H1992 H 0.58410 0.21823 0.12778
 H1993 H 0.58390 0.16821 0.24409
 H1994 H 0.50021 0.15954 0.17268
 C1995 C 0.13227 0.69721 0.65226
 C1996 C 0.11417 0.69269 0.62847
 C1997 C 0.08232 0.68350 0.63063
 C1998 C 0.06997 0.67407 0.65674
 C1999 C 0.08855 0.67868 0.68120
 C2000 C 0.11939 0.69194 0.67873
 C2001 C 0.07485 0.67208 0.70714
 N2002 N 0.04490 0.66037 0.70848
 N2003 N 0.02719 0.65548 0.68473
 C2004 C 0.03853 0.66250 0.65827
 H2005 H 0.15583 0.70704 0.64999
 H2006 H 0.12373 0.70016 0.60861
 H2007 H 0.08734 0.67644 0.72642
 H2008 H 0.02069 0.65386 0.67203
 C2009 C 0.93384 0.77324 0.69740
 C2010 C 0.96004 0.77241 0.68006
 C2011 C 0.97757 0.79979 0.67466
 C2012 C 0.97171 0.82657 0.69202
 C2013 C 0.94396 0.82784 0.70929
 C2014 C 0.92371 0.80114 0.71061
 C2015 C 0.93771 0.85593 0.72402
 N2016 N 0.95908 0.87976 0.72340
 N2017 N 0.98616 0.87759 0.70888
 C2018 C 0.99330 0.85175 0.69336
 H2019 H 0.91982 0.75197 0.69861
 H2020 H 0.96336 0.75083 0.66835
 H2021 H 0.91650 0.85935 0.73631
 H2022 H 1.01593 0.85088 0.68239
 C2023 C 0.39949 0.31823 0.17397
 C2024 C 0.42017 0.32437 0.15208
 C2025 C 0.41553 0.30999 0.12623
 C2026 C 0.38744 0.29291 0.12125
 C2027 C 0.36856 0.28317 0.14394
 C2028 C 0.37478 0.29621 0.17103
 C2029 C 0.34522 0.26018 0.13812
 N2030 N 0.33945 0.25076 0.11158
 N2031 N 0.35578 0.26210 0.09019
 C2032 C 0.37976 0.28279 0.09417
 H2033 H 0.40451 0.32890 0.19400
 H2034 H 0.44160 0.33786 0.15616
 H2035 H 0.33195 0.24854 0.15384
 H2036 H 0.39312 0.29088 0.07632
 C2037 C 0.37838 0.71072 0.33378
 C2038 C 0.40110 0.70056 0.35305
 C2039 C 0.40430 0.71587 0.37861
 C2040 C 0.38305 0.74088 0.38560
 C2041 C 0.36084 0.75274 0.36550
 C2042 C 0.35844 0.73708 0.33899
 C2043 C 0.34192 0.77933 0.37343
 N2044 N 0.34433 0.79155 0.39943
 N2045 N 0.36431 0.77939 0.41837
 C2046 C 0.38358 0.75437 0.41240
 H2047 H 0.37732 0.69834 0.31407
 H2048 H 0.41740 0.68148 0.34735
 H2049 H 0.32435 0.79042 0.36027
 H2050 H 0.39898 0.74507 0.42876
 C2051 C 0.87897 0.22666 0.84533
 C2052 C 0.89923 0.21889 0.86736
 C2053 C 0.90680 0.24119 0.88781
 C2054 C 0.89275 0.27182 0.88622
 C2055 C 0.87441 0.28069 0.86247
 C2056 C 0.86640 0.25735 0.84227
 C2057 C 0.86541 0.31281 0.85983
 N2058 N 0.87147 0.33336 0.88079
 N2059 N 0.88626 0.32423 0.90411
 C2060 C 0.89700 0.29416 0.90758
 H2061 H 0.87318 0.20832 0.83049
 H2062 H 0.91006 0.19550 0.86767
 H2063 H 0.85435 0.32225 0.84125
 H2064 H 0.90882 0.28793 0.92698
 C2065 C 0.54874 1.03049 0.63103
 C2066 C 0.55971 1.03107 0.65865
 C2067 C 0.59199 1.03746 0.66501
 C2068 C 0.61407 1.04068 0.64264
 C2069 C 0.60293 1.03989 0.61463
 C2070 C 0.56985 1.03510 0.60879
 C2071 C 0.62543 1.04460 0.59325
 N2072 N 0.65698 1.04797 0.59948
 N2073 N 0.66768 1.04693 0.62561
 C2074 C 0.64744 1.04319 0.64731
 H2075 H 0.52355 1.02622 0.62696
 H2076 H 0.54238 1.02830 0.67520
 H2077 H 0.61831 1.04616 0.57166
 H2078 H 0.65779 1.04167 0.66797
 C2079 C 0.04841 0.53212 1.12542
 C2080 C 0.05525 0.53290 1.15397
 C2081 C 0.08704 0.53237 1.16370
 C2082 C 0.11240 0.53024 1.14423
 C2083 C 0.10562 0.53060 1.11519
 C2084 C 0.07312 0.53108 1.10559
 C2085 C 0.13188 0.53231 1.09690
 N2086 N 0.16240 0.53123 1.10691
 N2087 N 0.16862 0.52906 1.13404
 C2088 C 0.14471 0.52863 1.15303
 H2089 H 0.02350 0.53268 1.11873
 H2090 H 0.03559 0.53502 1.16856
 H2091 H 0.12868 0.53578 1.07490
 H2092 H 0.15116 0.52711 1.17485
 C2093 C -0.09525 -0.04641 1.10739
 C2094 C -0.10477 -0.04861 1.13508
 C2095 C -0.08364 -0.04185 1.15733
 C2096 C -0.05151 -0.03325 1.15066
 C2097 C -0.04199 -0.03084 1.12220
 C2098 C -0.06402 -0.03788 1.10048
 C2099 C -0.01051 -0.02135 1.11640
 N2100 N 0.01061 -0.01651 1.13749
 N2101 N 0.00239 -0.02057 1.16397
 C2102 C -0.02770 -0.02901 1.17126
 H2103 H -0.11252 -0.05160 1.09111
 H2104 H -0.12948 -0.05482 1.13905
 H2105 H -0.00243 -0.01775 1.09531
 H2106 H -0.03231 -0.03296 1.19305
 C2107 C 0.40110 0.45415 0.61582
 C2108 C 0.39310 0.45054 0.64378
 C2109 C 0.41520 0.45695 0.66539
 C2110 C 0.44657 0.46705 0.65782
 C2111 C 0.45457 0.47067 0.62913
 C2112 C 0.43173 0.46373 0.60808
 C2113 C 0.48554 0.48088 0.62235
 N2114 N 0.50754 0.48572 0.64274
 N2115 N 0.50071 0.48085 0.66943
 C2116 C 0.47125 0.47143 0.67762
 H2117 H 0.38340 0.44854 0.60001
 H2118 H 0.36891 0.44321 0.64851
 H2119 H 0.49249 0.48504 0.60101
 H2120 H 0.46786 0.46679 0.69948
 C2121 C 0.44361 0.52226 -0.11965
 C2122 C 0.42735 0.52285 -0.14502
 C2123 C 0.44374 0.51934 -0.17026
 C2124 C 0.47774 0.51565 -0.16951
 C2125 C 0.49447 0.51483 -0.14339
 C2126 C 0.47711 0.51815 -0.11814
 C2127 C 0.52792 0.51004 -0.14364
 N2128 N 0.54363 0.50741 -0.16823
 N2129 N 0.52814 0.50907 -0.19255
 C2130 C 0.49579 0.51313 -0.19403
 H2131 H 0.42965 0.52492 -0.10078
 H2132 H 0.40146 0.52594 -0.14493
 H2133 H 0.54177 0.50822 -0.12461
 H2134 H 0.48453 0.51442 -0.21435
 C2135 C -0.03582 0.99241 0.36167
 C2136 C -0.05289 0.99334 0.33660
 C2137 C -0.05036 1.01889 0.31845
 C2138 C -0.02736 1.04235 0.32455
 C2139 C -0.00939 1.04135 0.35009
 C2140 C -0.01538 1.01704 0.36996
 C2141 C 0.01326 1.06520 0.35462
 N2142 N 0.01747 1.08805 0.33527
 N2143 N 0.00054 1.08896 0.31168
 C2144 C -0.02175 1.06698 0.30572
 H2145 H -0.04026 0.97282 0.37554
 H2146 H -0.06985 0.97481 0.33220
 H2147 H 0.02818 1.06604 0.37290
 H2148 H -0.03460 1.06871 0.28612
 C2149 C 0.01568 0.45879 0.36700
 C2150 C 0.03516 0.45727 0.34321
 C2151 C 0.05124 0.48403 0.33317
 C2152 C 0.04588 0.51332 0.34706
 C2153 C 0.02405 0.51518 0.36973
 C2154 C 0.01064 0.48738 0.38112
 C2155 C 0.01685 0.54510 0.38098
 N2156 N 0.03268 0.57084 0.37203
 N2157 N 0.05523 0.56867 0.35258
 C2158 C 0.06261 0.54086 0.34004
 H2159 H 0.00597 0.43716 0.37526
 H2160 H 0.03860 0.43464 0.33310
 H2161 H -0.00142 0.54822 0.39670
 H2162 H 0.08189 0.54068 0.32514
 C2163 C 0.52697 -0.04829 -0.13588
 C2164 C 0.54557 -0.04719 -0.16013
 C2165 C 0.55962 -0.01896 -0.16929
 C2166 C 0.55246 0.00920 -0.15419
 C2167 C 0.53131 0.00830 -0.13096
 C2168 C 0.52047 -0.02100 -0.12033
 C2169 C 0.52222 0.03704 -0.11841
 N2170 N 0.53570 0.06434 -0.12669
 N2171 N 0.55767 0.06483 -0.14669
 C2172 C 0.56675 0.03827 -0.16047
 H2173 H 0.51933 -0.07094 -0.12840
 H2174 H 0.55025 -0.06905 -0.17118
 H2175 H 0.50430 0.03800 -0.10220
 H2176 H 0.58546 0.04032 -0.17575
 C2177 C 0.62075 0.62708 -0.00995
 C2178 C 0.64675 0.64364 0.00071
 C2179 C 0.67829 0.63114 -0.00014
 C2180 C 0.68320 0.60120 -0.01353
 C2181 C 0.65639 0.58477 -0.02478
 C2182 C 0.62489 0.59714 -0.02176
 C2183 C 0.66157 0.55511 -0.03717
 N2184 N 0.69147 0.54209 -0.03753
 N2185 N 0.71635 0.55651 -0.02591
 C2186 C 0.71322 0.58522 -0.01364
 H2187 H 0.59674 0.63661 -0.00676
 H2188 H 0.64190 0.66643 0.01016
 H2189 H 0.64202 0.54223 -0.04653
 H2190 H 0.73414 0.59448 -0.00337
 C2191 C 0.11935 1.13111 0.48397
 C2192 C 0.14583 1.14787 0.49364
 C2193 C 0.17625 1.13342 0.49592
 C2194 C 0.18020 1.10176 0.48661
 C2195 C 0.15315 1.08478 0.47667
 C2196 C 0.12229 1.09928 0.47619
 C2197 C 0.15761 1.05310 0.46880
 N2198 N 0.18720 1.03941 0.47060
 N2199 N 0.21248 1.05516 0.48005
 C2200 C 0.20998 1.08572 0.48826
 H2201 H 0.09583 1.14239 0.48462
 H2202 H 0.14226 1.17199 0.50059
 H2203 H 0.13783 1.03922 0.46110
 H2204 H 0.23126 1.09700 0.49620
 C2205 C 0.10269 -0.10672 0.98481
 C2206 C 0.12927 -0.12647 0.98135
 C2207 C 0.12897 -0.15764 0.99071
 C2208 C 0.10170 -0.16868 1.00508
 C2209 C 0.07436 -0.14844 1.00871
 C2210 C 0.07467 -0.11728 0.99780
 C2211 C 0.04753 -0.16060 1.02246
 N2212 N 0.04837 -0.19060 1.03231
 N2213 N 0.07404 -0.20938 1.02908
 C2214 C 0.10069 -0.19948 1.01574
 H2215 H 0.10369 -0.08301 0.97641
 H2216 H 0.15016 -0.11749 0.97075
 H2217 H 0.02594 -0.14667 1.02559
 H2218 H 0.12085 -0.21571 1.01358
 C2219 C 0.59015 0.37728 0.52006
 C2220 C 0.61908 0.36091 0.51581
 C2221 C 0.62013 0.33118 0.50239
 C2222 C 0.59010 0.31655 0.49652
 C2223 C 0.56075 0.33379 0.50022
 C2224 C 0.56101 0.36479 0.51117
 C2225 C 0.53173 0.31924 0.49309
 N2226 N 0.53188 0.28880 0.48441
 N2227 N 0.55908 0.27204 0.48239
 C2228 C 0.58805 0.28471 0.48835
 H2229 H 0.59089 0.40115 0.52812
 H2230 H 0.64087 0.37337 0.52079
 H2231 H 0.50887 0.33154 0.49508
 H2232 H 0.60907 0.26949 0.48735
 C2233 C -0.13065 0.37642 0.48217
 C2234 C -0.15432 0.35663 0.49275
 C2235 C -0.18503 0.36846 0.49931
 C2236 C -0.19246 0.40063 0.49333
 C2237 C -0.16840 0.42054 0.48239
 C2238 C -0.13689 0.40870 0.47790
 C2239 C -0.17614 0.45247 0.47759
 N2240 N -0.20599 0.46374 0.48345
 N2241 N -0.22845 0.44529 0.49406
 C2242 C -0.22269 0.41427 0.49937
 H2243 H -0.10645 0.36706 0.47977
 H2244 H -0.14816 0.33219 0.49710
 H2245 H -0.15868 0.46846 0.46909
 H2246 H -0.24175 0.40082 0.50852
 C2247 C 0.38242 -0.14202 -0.01341
 C2248 C 0.35603 -0.15847 -0.00326
 C2249 C 0.32563 -0.14391 -0.00131
 C2250 C 0.32161 -0.11252 -0.01152
 C2251 C 0.34843 -0.09617 -0.02235
 C2252 C 0.37933 -0.11053 -0.02221
 C2253 C 0.34391 -0.06490 -0.03146
 N2254 N 0.31453 -0.05085 -0.02970
 N2255 N 0.28952 -0.06583 -0.01911
 C2256 C 0.29207 -0.09598 -0.00978
 H2257 H 0.40602 -0.15310 -0.01215
 H2258 H 0.35970 -0.18232 0.00435
 H2259 H 0.36352 -0.05159 -0.04003
 H2260 H 0.27104 -0.10636 -0.00074
 C2261 C 0.39735 1.10796 0.50870
 C2262 C 0.37049 1.12638 0.50189
 C2263 C 0.37297 1.15888 0.49666
 C2264 C 0.40354 1.17307 0.49993
 C2265 C 0.43105 1.15404 0.50653
 C2266 C 0.42787 1.12117 0.51042
 C2267 C 0.46114 1.16850 0.50838
 N2268 N 0.46336 1.20010 0.50468
 N2269 N 0.43756 1.21806 0.49921
 C2270 C 0.40780 1.20566 0.49683
 H2271 H 0.39459 1.08267 0.51071
 H2272 H 0.34766 1.11470 0.49945
 H2273 H 0.48278 1.15502 0.51309
 H2274 H 0.38774 1.22146 0.49298
 C2275 C -0.09445 0.60451 1.00877
 C2276 C -0.12337 0.62109 1.00442
 C2277 C -0.12378 0.65322 0.99705
 C2278 C -0.09401 0.66921 0.99609
 C2279 C -0.06458 0.65215 1.00013
 C2280 C -0.06482 0.61939 1.00594
 C2281 C -0.03559 0.66847 0.99781
 N2282 N -0.03609 0.69987 0.99245
 N2283 N -0.06359 0.71601 0.98935
 C2284 C -0.09250 0.70185 0.99117
 H2285 H -0.09520 0.57933 1.01258
 H2286 H -0.14562 0.60821 1.00534
 H2287 H -0.01258 0.65661 1.00056
 H2288 H -0.11397 0.71633 0.98902
 C2289 C -0.02543 0.63315 0.53375
 C2290 C -0.01445 0.66154 0.54434
 C2291 C -0.01297 0.66624 0.57308
 C2292 C -0.02666 0.64393 0.59126
 C2293 C -0.03707 0.61477 0.58060
 C2294 C -0.03453 0.60885 0.55177
 C2295 C -0.04909 0.59235 0.59927
 N2296 N -0.05059 0.59914 0.62686
 N2297 N -0.04086 0.62673 0.63691
 C2298 C -0.02893 0.64935 0.62005
 H2299 H -0.02364 0.62898 0.51154
 H2300 H -0.00398 0.67846 0.53026
 H2301 H -0.05769 0.56976 0.59215
 H2302 H -0.02165 0.67151 0.62912
 C2303 C 0.47612 0.11393 0.04331
 C2304 C 0.47993 0.14246 0.05695
 C2305 C 0.47632 0.14438 0.08586
 C2306 C 0.46557 0.11781 0.10090
 C2307 C 0.46250 0.08857 0.08712
 C2308 C 0.46913 0.08667 0.05835
 C2309 C 0.45278 0.06225 0.10262
 N2310 N 0.44619 0.06545 0.13011
 N2311 N 0.44860 0.09314 0.14303
 C2312 C 0.45796 0.11943 0.12936
 H2313 H 0.48098 0.11266 0.02118
 H2314 H 0.48807 0.16258 0.04514
 H2315 H 0.44985 0.03934 0.09306
 H2316 H 0.45883 0.14145 0.14069
 C2317 C -0.00582 0.12059 0.96350
 C2318 C -0.01204 0.15222 0.95804
 C2319 C -0.02045 0.16200 0.93120
 C2320 C -0.01926 0.14025 0.90881
 C2321 C -0.01266 0.10803 0.91432
 C2322 C -0.00780 0.09803 0.94219
 C2323 C -0.01064 0.08704 0.89165
 N2324 N -0.01550 0.09779 0.86535
 N2325 N -0.02201 0.12808 0.86018
 C2326 C -0.02394 0.14969 0.88095
 H2327 H -0.00181 0.11350 0.98492
 H2328 H -0.01182 0.16897 0.97509
 H2329 H -0.00440 0.06240 0.89443
 H2330 H -0.02857 0.17405 0.87540
 C2331 C 0.49651 0.60031 0.45395
 C2332 C 0.49231 0.63152 0.44598
 C2333 C 0.48363 0.63909 0.41862
 C2334 C 0.48262 0.61495 0.39818
 C2335 C 0.48680 0.58304 0.40633
 C2336 C 0.49191 0.57575 0.43481
 C2337 C 0.48609 0.55959 0.38561
 N2338 N 0.48117 0.56777 0.35861
 N2339 N 0.47714 0.59777 0.35094
 C2340 C 0.47781 0.62163 0.36975
 H2341 H 0.50073 0.59535 0.47581
 H2342 H 0.49366 0.64974 0.46176
 H2343 H 0.49026 0.53495 0.39045
 H2344 H 0.47518 0.64558 0.36223
 C2345 C 0.50188 0.89489 0.42429
 C2346 C 0.50559 0.86390 0.41528
 C2347 C 0.51244 0.83968 0.43427
 C2348 C 0.51473 0.84644 0.46298
 C2349 C 0.51156 0.87808 0.47224
 C2350 C 0.50508 0.90253 0.45253
 C2351 C 0.51689 0.88410 0.50073
 N2352 N 0.52329 0.86002 0.51858
 N2353 N 0.52546 0.83027 0.50989
 C2354 C 0.52169 0.82268 0.48269
 H2355 H 0.49749 0.91325 0.40896
 H2356 H 0.50410 0.85887 0.39319
 H2357 H 0.51705 0.90761 0.50906
 H2358 H 0.52441 0.79818 0.47676
 C2359 C 0.05882 0.40196 0.92787
 C2360 C 0.06079 0.37061 0.92015
 C2361 C 0.03358 0.35508 0.91033
 C2362 C 0.00416 0.37210 0.90671
 C2363 C 0.00196 0.40385 0.91567
 C2364 C 0.02944 0.41834 0.92686
 C2365 C -0.02743 0.42023 0.91243
 N2366 N -0.05282 0.40566 0.90049
 N2367 N -0.05065 0.37598 0.89149
 C2368 C -0.02304 0.35877 0.89402
 H2369 H 0.08012 0.41309 0.93603
 H2370 H 0.08350 0.35808 0.92279
 H2371 H -0.03024 0.44460 0.91875
 H2372 H -0.02250 0.33513 0.88562
 C2373 C 0.53530 0.36906 0.04028
 C2374 C 0.52461 0.34143 0.05238
 C2375 C 0.51737 0.34073 0.08077
 C2376 C 0.52588 0.36632 0.09806
 C2377 C 0.53679 0.39435 0.08579
 C2378 C 0.53876 0.39629 0.05647
 C2379 C 0.54443 0.41986 0.10323
 N2380 N 0.54118 0.41709 0.13121
 N2381 N 0.53073 0.39062 0.14281
 C2382 C 0.52291 0.36514 0.12719
 H2383 H 0.53710 0.37013 0.01779
 H2384 H 0.51870 0.32171 0.03904
 H2385 H 0.55345 0.44171 0.09488
 H2386 H 0.51486 0.34408 0.13762
 C2387 C 0.03066 0.89490 0.56130
 C2388 C 0.03013 0.86625 0.57515
 C2389 C 0.00207 0.85600 0.58779
 C2390 C -0.02633 0.87468 0.58611
 C2391 C -0.02549 0.90503 0.57369
 C2392 C 0.00343 0.91485 0.56031
 C2393 C -0.05396 0.92362 0.57494
 N2394 N -0.08115 0.91179 0.58598
 N2395 N -0.08219 0.88262 0.59600
 C2396 C -0.05581 0.86361 0.59625
 H2397 H 0.05296 0.90176 0.55164
 H2398 H 0.05204 0.85216 0.57641
 H2399 H -0.05578 0.94724 0.56728
 H2400 H -0.05824 0.83992 0.60423
 C2401 C 0.27071 0.28779 0.12015
 C2402 C 0.27584 0.29884 0.09306
 C2403 C 0.29024 0.32828 0.08812
 C2404 C 0.29736 0.34764 0.11166
 C2405 C 0.29415 0.33545 0.13901
 C2406 C 0.27991 0.30562 0.14329
 C2407 C 0.30543 0.35379 0.16142
 N2408 N 0.31546 0.38360 0.15701
 N2409 N 0.31497 0.39636 0.13172
 C2410 C 0.30581 0.37965 0.10904
 H2411 H 0.25998 0.26491 0.12306
 H2412 H 0.26985 0.28339 0.07590
 H2413 H 0.30641 0.34481 0.18241
 H2414 H 0.30467 0.39185 0.08932
 C2415 C 0.80426 0.79728 0.62479
 C2416 C 0.80147 0.80580 0.59672
 C2417 C 0.80035 0.83762 0.58874
 C2418 C 0.80195 0.86128 0.60965
 C2419 C 0.80659 0.85263 0.63793
 C2420 C 0.80654 0.82030 0.64572
 C2421 C 0.81182 0.87682 0.65747
 N2422 N 0.80974 0.90748 0.64954
 N2423 N 0.80309 0.91561 0.62335
 C2424 C 0.79904 0.89364 0.60319
 H2425 H 0.80412 0.77248 0.63025
 H2426 H 0.80057 0.78743 0.58106
 H2427 H 0.81826 0.87174 0.67881
 H2428 H 0.79344 0.90171 0.58234
 C2429 C 0.21747 0.66548 0.63540
 C2430 C 0.21100 0.65358 0.60907
 C2431 C 0.20559 0.67381 0.58650
 C2432 C 0.20710 0.70689 0.59061
 C2433 C 0.21406 0.71912 0.61753
 C2434 C 0.21867 0.69811 0.64027
 C2435 C 0.21659 0.75197 0.62054
 N2436 N 0.21118 0.77118 0.59837
 N2437 N 0.20359 0.75976 0.57339
 C2438 C 0.20134 0.72831 0.56875
 H2439 H 0.22050 0.64887 0.65240
 H2440 H 0.21006 0.62823 0.60628
 H2441 H 0.22339 0.76259 0.64010
 H2442 H 0.19500 0.72039 0.54806
 C2443 C 0.68205 0.18885 0.13143
 C2444 C 0.67917 0.17590 0.10496
 C2445 C 0.70636 0.16680 0.08936
 C2446 C 0.73738 0.17122 0.10166
 C2447 C 0.74007 0.18649 0.12799
 C2448 C 0.71207 0.19423 0.14342
 C2449 C 0.77096 0.19306 0.13830
 N2450 N 0.79731 0.18210 0.12475
 N2451 N 0.79481 0.16498 0.10164
 C2452 C 0.76589 0.15879 0.08989
 H2453 H 0.66048 0.19362 0.14303
 H2454 H 0.65512 0.17342 0.09657
 H2455 H 0.77442 0.20691 0.15693
 H2456 H 0.76563 0.14346 0.07195
 C2457 C 0.72923 0.22029 0.88645
 C2458 C 0.73099 0.20213 0.91055
 C2459 C 0.75693 0.20478 0.92887
 C2460 C 0.77968 0.22875 0.92430
 C2461 C 0.77799 0.24761 0.89969
 C2462 C 0.75349 0.24174 0.87944
 C2463 C 0.80120 0.27116 0.89653
 N2464 N 0.82390 0.27548 0.91647
 N2465 N 0.82542 0.25776 0.93930
 C2466 C 0.80414 0.23454 0.94387
 H2467 H 0.70949 0.21594 0.87222
 H2468 H 0.71293 0.18442 0.91399
 H2469 H 0.80145 0.28699 0.87912
 H2470 H 0.80611 0.22127 0.96304
 C2471 C 0.27826 0.72725 0.38881
 C2472 C 0.28030 0.70761 0.41204
 C2473 C 0.25317 0.69199 0.42208
 C2474 C 0.22286 0.69833 0.40917
 C2475 C 0.22061 0.72059 0.38708
 C2476 C 0.24889 0.73347 0.37554
 C2477 C 0.18997 0.72845 0.37642
 N2478 N 0.16376 0.71309 0.38560
 N2479 N 0.16617 0.69036 0.40463
 C2480 C 0.19476 0.68221 0.41647
 H2481 H 0.30017 0.73555 0.37989
 H2482 H 0.30371 0.70342 0.42145
 H2483 H 0.18667 0.74678 0.36096
 H2484 H 0.19511 0.66282 0.43100
 C2485 C 0.71594 0.76519 0.38813
 C2486 C 0.71347 0.78166 0.41328
 C2487 C 0.73836 0.80113 0.42278
 C2488 C 0.76728 0.80213 0.40718
 C2489 C 0.77056 0.78340 0.38278
 C2490 C 0.74380 0.76684 0.37197
 C2491 C 0.80061 0.78235 0.36953
 N2492 N 0.82464 0.80110 0.37846
 N2493 N 0.82066 0.82078 0.39979
 C2494 C 0.79280 0.82217 0.41427
 H2495 H 0.69516 0.75268 0.38048
 H2496 H 0.69126 0.78029 0.42484
 H2497 H 0.80530 0.76643 0.35241
 H2498 H 0.79096 0.83927 0.43082
 C2499 C 0.21595 0.26094 0.88725
 C2500 C 0.21515 0.28007 0.91107
 C2501 C 0.24301 0.29486 0.92125
 C2502 C 0.27278 0.28806 0.90790
 C2503 C 0.27379 0.26655 0.88520
 C2504 C 0.24491 0.25495 0.87338
 C2505 C 0.30392 0.25809 0.87411
 N2506 N 0.33085 0.27232 0.88341
 N2507 N 0.32964 0.29448 0.90301
 C2508 C 0.30160 0.30310 0.91531
 H2509 H 0.19354 0.25253 0.87861
 H2510 H 0.19217 0.28457 0.92090
 H2511 H 0.30622 0.24020 0.85814
 H2512 H 0.30231 0.32202 0.93028
 C2513 C 0.82915 0.40992 0.77580
 C2514 C 0.84905 0.43352 0.76560
 C2515 C 0.88179 0.42750 0.76094
 C2516 C 0.89525 0.39811 0.76931
 C2517 C 0.87507 0.37421 0.77987
 C2518 C 0.84147 0.37971 0.78196
 C2519 C 0.88904 0.34478 0.78660
 N2520 N 0.92113 0.34000 0.78359
 N2521 N 0.94010 0.36254 0.77400
 C2522 C 0.92826 0.39138 0.76668
 H2523 H 0.80346 0.41438 0.77637
 H2524 H 0.83838 0.45596 0.75947
 H2525 H 0.87478 0.32567 0.79444
 H2526 H 0.94472 0.40880 0.75895
 C2527 C 0.37336 0.86365 0.26505
 C2528 C 0.39043 0.88828 0.25329
 C2529 C 0.37851 0.91949 0.25376
 C2530 C 0.34860 0.92559 0.26757
 C2531 C 0.33144 0.90015 0.27964
 C2532 C 0.34323 0.86885 0.27722
 C2533 C 0.30160 0.90647 0.29213
 N2534 N 0.28921 0.93619 0.29205
 N2535 N 0.30438 0.95982 0.27983
 C2536 C 0.33324 0.95552 0.26730
 H2537 H 0.38243 0.83975 0.26227
 H2538 H 0.41316 0.88269 0.24342
 H2539 H 0.28804 0.88795 0.30190
 H2540 H 0.34312 0.97543 0.25653
 C2541 C 0.09847 0.83075 0.74426
 C2542 C 0.08056 0.85865 0.74833
 C2543 C 0.09579 0.88774 0.75190
 C2544 C 0.12990 0.88860 0.75079
 C2545 C 0.14793 0.86038 0.74601
 C2546 C 0.13212 0.83117 0.74319
 C2547 C 0.18166 0.86210 0.74517
 N2548 N 0.19627 0.89008 0.74933
 N2549 N 0.17947 0.91640 0.75447
 C2550 C 0.14692 0.91661 0.75551
 H2551 H 0.08603 0.80853 0.74299
 H2552 H 0.05460 0.85745 0.74925
 H2553 H 0.19655 0.84145 0.74125
 H2554 H 0.13482 0.93861 0.76043
 C2555 C 0.59886 0.33409 0.23820
 C2556 C 0.58007 0.36141 0.24230
 C2557 C 0.59406 0.38969 0.25115
 C2558 C 0.62800 0.39058 0.25498
 C2559 C 0.64700 0.36319 0.24977
 C2560 C 0.63219 0.33446 0.24248
 C2561 C 0.68057 0.36498 0.25307
 N2562 N 0.69400 0.39205 0.26212
 N2563 N 0.67613 0.41737 0.26824
 C2564 C 0.64372 0.41753 0.26522
 H2565 H 0.58710 0.31215 0.23321
 H2566 H 0.55427 0.36019 0.23958
 H2567 H 0.69625 0.34507 0.24851
 H2568 H 0.63080 0.43862 0.27135
 C2569 C 0.66317 0.60251 0.27035
 C2570 C 0.64327 0.57813 0.26170
 C2571 C 0.61021 0.58336 0.25785
 C2572 C 0.59655 0.61288 0.26547
 C2573 C 0.61677 0.63753 0.27464
 C2574 C 0.65050 0.63268 0.27580
 C2575 C 0.60258 0.66687 0.28123
 N2576 N 0.57026 0.67092 0.27916
 N2577 N 0.55128 0.64773 0.27068
 C2578 C 0.56331 0.61889 0.26368
 H2579 H 0.68894 0.59852 0.27044
 H2580 H 0.65405 0.55558 0.25613
 H2581 H 0.61688 0.68642 0.28835
 H2582 H 0.54683 0.60088 0.25692
 C2583 C 0.16942 0.08817 0.76178
 C2584 C 0.14795 0.06669 0.75027
 C2585 C 0.11563 0.07507 0.74559
 C2586 C 0.10427 0.10482 0.75522
 C2587 C 0.12617 0.12669 0.76699
 C2588 C 0.15931 0.11870 0.76936
 C2589 C 0.11427 0.15655 0.77493
 N2590 N 0.08251 0.16354 0.77220
 N2591 N 0.06190 0.14281 0.76181
 C2592 C 0.07167 0.11374 0.75324
 H2593 H 0.19472 0.08179 0.76265
 H2594 H 0.15705 0.04386 0.74353
 H2595 H 0.12984 0.17422 0.78357
 H2596 H 0.05385 0.09784 0.74508
 C2597 C 0.35045 0.13755 0.24255
 C2598 C 0.36826 0.11009 0.24840
 C2599 C 0.40150 0.11105 0.25379
 C2600 C 0.41722 0.14044 0.25129
 C2601 C 0.39896 0.16839 0.24559
 C2602 C 0.36521 0.16698 0.24177
 C2603 C 0.41510 0.19724 0.24428
 N2604 N 0.44740 0.19792 0.24791
 N2605 N 0.46460 0.17171 0.25268
 C2606 C 0.45070 0.14303 0.25430
 H2607 H 0.32458 0.13605 0.24045
 H2608 H 0.35562 0.08802 0.25007
 H2609 H 0.40237 0.21917 0.24005
 H2610 H 0.46605 0.12258 0.25762
 C2611 C 0.86861 0.64648 0.74298
 C2612 C 0.88636 0.61875 0.74671
 C2613 C 0.92005 0.61904 0.74896
 C2614 C 0.93600 0.64818 0.74541
 C2615 C 0.91769 0.67666 0.74289
 C2616 C 0.88373 0.67565 0.74182
 C2617 C 0.93407 0.70537 0.74247
 N2618 N 0.96665 0.70538 0.74252
 N2619 N 0.98384 0.67862 0.74324
 C2620 C 0.96966 0.65005 0.74458
 H2621 H 0.84260 0.64535 0.74291
 H2622 H 0.87335 0.59704 0.74947
 H2623 H 0.92125 0.72772 0.74217
 H2624 H 0.98481 0.62911 0.74478
 C2625 C 0.84134 0.75875 0.16286
 C2626 C 0.86697 0.76283 0.14552
 C2627 C 0.89062 0.73927 0.14248
 C2628 C 0.88667 0.70978 0.15604
 C2629 C 0.85977 0.70537 0.17371
 C2630 C 0.83775 0.73089 0.17817
 C2631 C 0.85514 0.67512 0.18487
 N2632 N 0.87630 0.65134 0.17937
 N2633 N 0.90150 0.65550 0.16293
 C2634 C 0.90718 0.68370 0.15081
 H2635 H 0.82487 0.77862 0.16508
 H2636 H 0.86922 0.78576 0.13577
 H2637 H 0.83431 0.66952 0.19680
 H2638 H 0.92703 0.68506 0.13650
 C2639 C 0.37556 0.19935 0.67957
 C2640 C 0.40240 0.20633 0.66386
 C2641 C 0.42354 0.22971 0.67275
 C2642 C 0.42026 0.24314 0.69949
 C2643 C 0.39309 0.23595 0.71555
 C2644 C 0.36991 0.21530 0.70454
 C2645 C 0.38903 0.25131 0.74130
 N2646 N 0.41119 0.27223 0.75022
 N2647 N 0.43684 0.27904 0.73501
 C2648 C 0.44202 0.26537 0.70986
 H2649 H 0.35780 0.18348 0.67114
 H2650 H 0.40455 0.19630 0.64317
 H2651 H 0.36849 0.24691 0.75435
 H2652 H 0.46313 0.27182 0.69825
 C2653 C 0.35073 0.70606 0.82160
 C2654 C 0.38296 0.70268 0.82793
 C2655 C 0.40187 0.72905 0.83318
 C2656 C 0.38732 0.75960 0.83311
 C2657 C 0.35447 0.76308 0.82541
 C2658 C 0.33653 0.73597 0.81872
 C2659 C 0.34038 0.79341 0.82593
 N2660 N 0.35814 0.81853 0.83368
 N2661 N 0.38887 0.81528 0.84118
 C2662 C 0.40398 0.78670 0.84138
 H2663 H 0.33719 0.68494 0.81741
 H2664 H 0.39333 0.67907 0.82846
 H2665 H 0.31524 0.79728 0.82118
 H2666 H 0.42859 0.78549 0.84856
 C2667 C 0.86175 0.25454 0.29491
 C2668 C 0.89397 0.25229 0.30183
 C2669 C 0.90366 0.24053 0.32784
 C2670 C 0.87997 0.23585 0.34872
 C2671 C 0.84689 0.23856 0.34167
 C2672 C 0.83794 0.24588 0.31389
 C2673 C 0.82408 0.23499 0.36293
 N2674 N 0.83390 0.22913 0.38941
 N2675 N 0.86492 0.22702 0.39615
 C2676 C 0.88823 0.23052 0.37685
 H2677 H 0.85566 0.26105 0.27370
 H2678 H 0.91133 0.25682 0.28563
 H2679 H 0.79862 0.23802 0.35914
 H2680 H 0.91297 0.23005 0.38385
 C2681 C 0.15474 0.30494 0.32321
 C2682 C 0.12222 0.30835 0.32838
 C2683 C 0.10444 0.28268 0.33757
 C2684 C 0.12025 0.25353 0.34363
 C2685 C 0.15328 0.24987 0.33751
 C2686 C 0.17014 0.27561 0.32646
 C2687 C 0.16850 0.22070 0.34305
 N2688 N 0.15158 0.19692 0.35447
 N2689 N 0.12061 0.20048 0.36078
 C2690 C 0.10442 0.22797 0.35592
 H2691 H 0.16743 0.32483 0.31468
 H2692 H 0.11059 0.33091 0.32414
 H2693 H 0.19379 0.21686 0.33898
 H2694 H 0.07956 0.22965 0.36217
 C2695 C 0.66006 0.75350 0.82663
 C2696 C 0.62774 0.75316 0.83379
 C2697 C 0.60449 0.76711 0.81634
 C2698 C 0.61364 0.78140 0.79112
 C2699 C 0.64645 0.78197 0.78389
 C2700 C 0.66962 0.76784 0.80191
 C2701 C 0.65505 0.79773 0.75925
 N2702 N 0.63202 0.81134 0.74296
 N2703 N 0.60105 0.81047 0.74968
 C2704 C 0.59107 0.79605 0.77323
 H2705 H 0.67769 0.74274 0.84049
 H2706 H 0.62086 0.74291 0.85351
 H2707 H 0.67981 0.79976 0.75296
 H2708 H 0.56564 0.79618 0.77776
 C2709 C 0.65134 0.29234 0.66413
 C2710 C 0.62603 0.28934 0.64539
 C2711 C 0.59938 0.27122 0.65220
 C2712 C 0.59771 0.25631 0.67864
 C2713 C 0.62305 0.26023 0.69792
 C2714 C 0.65017 0.27771 0.69015
 C2715 C 0.62111 0.24531 0.72402
 N2716 N 0.59555 0.22715 0.73003
 N2717 N 0.57205 0.22266 0.71162
 C2718 C 0.57234 0.23634 0.68612
 H2719 H 0.67235 0.30542 0.65804
 H2720 H 0.62775 0.30021 0.62504
 H2721 H 0.63972 0.24780 0.73963
 H2722 H 0.55290 0.23104 0.67201
 C2723 C 0.13816 0.78862 0.16862
 C2724 C 0.11041 0.78385 0.15323
 C2725 C 0.08303 0.77155 0.16585
 C2726 C 0.08206 0.76805 0.19514
 C2727 C 0.11026 0.77333 0.21094
 C2728 C 0.13882 0.78205 0.19707
 C2729 C 0.10950 0.76713 0.23977
 N2730 N 0.08213 0.75705 0.25178
 N2731 N 0.05557 0.75226 0.23692
 C2732 C 0.05466 0.75712 0.20905
 H2733 H 0.15981 0.79561 0.15797
 H2734 H 0.11129 0.78674 0.13082
 H2735 H 0.13040 0.76953 0.25288
 H2736 H 0.03256 0.75215 0.19821
   
