data_POSCAR
  _audit_creation_date              2014-09-24
  _audit_creation_method            'ToBaCCo'
  _symmetry_space_group_name_H-M    'P1'
  _symmetry_Int_Tables_number       1
  _symmetry_cell_setting            triclinic
  loop_
  _symmetry_equiv_pos_as_xyz
 x,y,z
_cell_length_a 70.3540
_cell_length_b 70.9179
_cell_length_c 71.3050
_cell_angle_alpha 89.871900
_cell_angle_beta 90.004800
_cell_angle_gamma 90.044300
loop_
  _atom_site_label
  _atom_site_type_symbol
  _atom_site_fract_x
  _atom_site_fract_y
  _atom_site_fract_z
N1 N 0.17628 0.22264 0.22533
 N2 N 0.18141 0.20791 0.23532
 C3 C 0.16907 0.20564 0.24958
 C4 C 0.15548 0.21975 0.24853
 C5 C 0.16058 0.23028 0.23292
 H6 H 0.16999 0.19463 0.26004
 H7 H 0.15327 0.24245 0.22732
 Cu8 Cu 0.20369 0.19308 0.22872
 Cu9 Cu 0.19017 0.23069 0.20311
 Cu10 Cu 0.22928 0.20401 0.19030
 N11 N 0.22539 0.17797 0.22098
 N12 N 0.23526 0.18228 0.20593
 C13 C 0.24921 0.16952 0.20366
 C14 C 0.24808 0.15645 0.21809
 C15 C 0.23277 0.16231 0.22882
 H16 H 0.25947 0.16984 0.19239
 H17 H 0.22723 0.15552 0.24126
 N18 N 0.22098 0.22650 0.17627
 N19 N 0.20602 0.23659 0.18109
 C20 C 0.20388 0.25079 0.16869
 C21 C 0.21820 0.24963 0.15543
 C22 C 0.22878 0.23405 0.16073
 H23 H 0.19279 0.26129 0.16937
 H24 H 0.24110 0.22845 0.15363
 H25 H 0.20056 0.20424 0.19651
 H26 H 0.21622 0.21979 0.21094
 N27 N 0.67664 0.72288 0.72551
 N28 N 0.68185 0.70814 0.73544
 C29 C 0.66954 0.70578 0.74972
 C30 C 0.65590 0.71984 0.74873
 C31 C 0.66092 0.73044 0.73315
 H32 H 0.67053 0.69475 0.76015
 H33 H 0.65355 0.74259 0.72760
 Cu34 Cu 0.70416 0.69342 0.72877
 Cu35 Cu 0.69046 0.73103 0.70327
 Cu36 Cu 0.72965 0.70453 0.69034
 N37 N 0.72592 0.67843 0.72098
 N38 N 0.73575 0.68280 0.70592
 C39 C 0.74976 0.67010 0.70364
 C40 C 0.74870 0.65701 0.71806
 C41 C 0.73337 0.66279 0.72880
 H42 H 0.76001 0.67047 0.69236
 H43 H 0.72788 0.65598 0.74124
 N44 N 0.72122 0.72701 0.67637
 N45 N 0.70624 0.73704 0.68124
 C46 C 0.70401 0.75126 0.66888
 C47 C 0.71831 0.75019 0.65558
 C48 C 0.72896 0.73463 0.66082
 H49 H 0.69288 0.76172 0.66961
 H50 H 0.74129 0.72910 0.65368
 H51 H 0.70094 0.70465 0.69658
 H52 H 0.71657 0.72021 0.71103
 N53 N 0.32105 0.77563 0.72685
 N54 N 0.31652 0.79110 0.73590
 C55 C 0.32866 0.79346 0.75030
 C56 C 0.34154 0.77868 0.75029
 C57 C 0.33619 0.76761 0.73519
 H58 H 0.32823 0.80513 0.76000
 H59 H 0.34310 0.75495 0.73027
 Cu60 Cu 0.29555 0.80688 0.72757
 Cu61 Cu 0.30771 0.76760 0.70430
 Cu62 Cu 0.27100 0.79626 0.68859
 N63 N 0.27426 0.82226 0.71929
 N64 N 0.26494 0.81824 0.70385
 C65 C 0.25106 0.83104 0.70130
 C66 C 0.25158 0.84387 0.71602
 C67 C 0.26659 0.83773 0.72714
 H68 H 0.24121 0.83075 0.68969
 H69 H 0.27164 0.84398 0.74001
 N70 N 0.27920 0.77329 0.67528
 N71 N 0.29261 0.76199 0.68171
 C72 C 0.29434 0.74717 0.67007
 C73 C 0.28155 0.74933 0.65551
 C74 C 0.27222 0.76606 0.65922
 H75 H 0.30440 0.73578 0.67181
 H76 H 0.26094 0.77229 0.65099
 H77 H 0.29933 0.79426 0.69601
 H78 H 0.28202 0.78044 0.71034
 N79 N 0.82364 0.27790 0.22418
 N80 N 0.81871 0.29315 0.23339
 C81 C 0.83126 0.29611 0.24735
 C82 C 0.84485 0.28187 0.24696
 C83 C 0.83944 0.27061 0.23194
 H84 H 0.83028 0.30758 0.25722
 H85 H 0.84633 0.25798 0.22695
 Cu86 Cu 0.79577 0.30691 0.22663
 Cu87 Cu 0.80909 0.26836 0.20291
 Cu88 Cu 0.76770 0.29242 0.19150
 N89 N 0.77280 0.32066 0.21997
 N90 N 0.76147 0.31435 0.20671
 C91 C 0.74630 0.32580 0.20528
 C92 C 0.74828 0.34016 0.21821
 C93 C 0.76528 0.33650 0.22727
 H94 H 0.73490 0.32407 0.19526
 H95 H 0.77153 0.34466 0.23849
 N96 N 0.77656 0.27003 0.17773
 N97 N 0.79241 0.26100 0.18190
 C98 C 0.79492 0.24691 0.16951
 C99 C 0.77994 0.24706 0.15690
 C100 C 0.76858 0.26191 0.16261
 H101 H 0.80682 0.23729 0.16962
 H102 H 0.75569 0.26677 0.15594
 H103 H 0.79682 0.29367 0.19516
 H104 H 0.78323 0.27855 0.21187
 N105 N 0.82237 0.72223 0.27528
 N106 N 0.81712 0.70733 0.26565
 C107 C 0.82952 0.70463 0.25151
 C108 C 0.84327 0.71864 0.25228
 C109 C 0.83822 0.72953 0.26759
 H110 H 0.82843 0.69352 0.24123
 H111 H 0.84555 0.74183 0.27285
 Cu112 Cu 0.79429 0.69333 0.27235
 Cu113 Cu 0.80822 0.73121 0.29699
 Cu114 Cu 0.76736 0.70655 0.30890
 N115 N 0.77164 0.67924 0.27948
 N116 N 0.76090 0.68485 0.29348
 C117 C 0.74608 0.67299 0.29531
 C118 C 0.74766 0.65907 0.28183
 C119 C 0.76409 0.66347 0.27205
 H120 H 0.73521 0.67413 0.30596
 H121 H 0.76999 0.65583 0.26032
 N122 N 0.77632 0.72880 0.32284
 N123 N 0.79197 0.73808 0.31844
 C124 C 0.79451 0.75215 0.33084
 C125 C 0.77975 0.75175 0.34369
 C126 C 0.76849 0.73675 0.33813
 H127 H 0.80623 0.76200 0.33051
 H128 H 0.75573 0.73174 0.34493
 H129 H 0.79634 0.70552 0.30420
 H130 H 0.78212 0.72112 0.28844
 N131 N 0.32310 0.22275 -0.22594
 N132 N 0.31832 0.20760 -0.23540
 C133 C 0.33068 0.20520 -0.24961
 C134 C 0.34400 0.21969 -0.24915
 C135 C 0.33859 0.23056 -0.23384
 H136 H 0.32990 0.19376 -0.25955
 H137 H 0.34544 0.24313 -0.22861
 Cu138 Cu 0.29637 0.19252 -0.22819
 Cu139 Cu 0.30913 0.23101 -0.20385
 Cu140 Cu 0.27006 0.20422 -0.19064
 N141 N 0.27437 0.17766 -0.22073
 N142 N 0.26420 0.18227 -0.20598
 C143 C 0.25005 0.16967 -0.20383
 C144 C 0.25135 0.15642 -0.21802
 C145 C 0.26698 0.16199 -0.22849
 H146 H 0.23951 0.17024 -0.19282
 H147 H 0.27270 0.15501 -0.24070
 N148 N 0.27830 0.22692 -0.17694
 N149 N 0.29321 0.23706 -0.18192
 C150 C 0.29536 0.25134 -0.16969
 C151 C 0.28110 0.25020 -0.15634
 C152 C 0.27054 0.23454 -0.16144
 H153 H 0.30644 0.26186 -0.17049
 H154 H 0.25829 0.22890 -0.15420
 H155 H 0.29886 0.20474 -0.19635
 H156 H 0.28327 0.21957 -0.21157
 N157 N 0.67618 0.27711 -0.22610
 N158 N 0.68080 0.29246 -0.23537
 C159 C 0.66848 0.29490 -0.24962
 C160 C 0.65534 0.28024 -0.24935
 C161 C 0.66082 0.26922 -0.23413
 H162 H 0.66916 0.30648 -0.25945
 H163 H 0.65412 0.25649 -0.22905
 Cu164 Cu 0.70250 0.30777 -0.22796
 Cu165 Cu 0.69019 0.26868 -0.20406
 Cu166 Cu 0.72928 0.29532 -0.19087
 N167 N 0.72481 0.32226 -0.22069
 N168 N 0.73514 0.31736 -0.20613
 C169 C 0.74946 0.32977 -0.20406
 C170 C 0.74811 0.34321 -0.21813
 C171 C 0.73228 0.33794 -0.22844
 H172 H 0.76014 0.32895 -0.19320
 H173 H 0.72649 0.34513 -0.24053
 N174 N 0.72106 0.27256 -0.17721
 N175 N 0.70614 0.26246 -0.18217
 C176 C 0.70402 0.24811 -0.16994
 C177 C 0.71832 0.24917 -0.15664
 C178 C 0.72886 0.26486 -0.16174
 H179 H 0.69292 0.23761 -0.17072
 H180 H 0.74112 0.27046 -0.15452
 H181 H 0.70041 0.29484 -0.19629
 H182 H 0.71587 0.28041 -0.21197
 N183 N 0.17753 0.77572 0.27265
 N184 N 0.18198 0.79125 0.26356
 C185 C 0.16981 0.79356 0.24917
 C186 C 0.15700 0.77869 0.24923
 C187 C 0.16242 0.76763 0.26435
 H188 H 0.17018 0.80525 0.23943
 H189 H 0.15557 0.75492 0.26932
 Cu190 Cu 0.20291 0.80714 0.27183
 Cu191 Cu 0.19094 0.76770 0.29519
 Cu192 Cu 0.22759 0.79646 0.31076
 N193 N 0.22424 0.82254 0.28003
 N194 N 0.23358 0.81848 0.29546
 C195 C 0.24748 0.83127 0.29798
 C196 C 0.24697 0.84414 0.28324
 C197 C 0.23193 0.83804 0.27214
 H198 H 0.25734 0.83092 0.30958
 H199 H 0.22689 0.84432 0.25927
 N200 N 0.21948 0.77346 0.32414
 N201 N 0.20609 0.76210 0.31777
 C202 C 0.20446 0.74725 0.32947
 C203 C 0.21729 0.74945 0.34398
 C204 C 0.22654 0.76624 0.34019
 H205 H 0.19444 0.73581 0.32778
 H206 H 0.23783 0.77250 0.34835
 H207 H 0.19924 0.79437 0.30340
 H208 H 0.21655 0.78068 0.28902
 N209 N 0.47342 0.42703 0.47543
 N210 N 0.45759 0.43130 0.48424
 C211 C 0.45453 0.41852 0.49792
 C212 C 0.46925 0.40552 0.49769
 C213 C 0.48094 0.41142 0.48317
 H214 H 0.44268 0.41886 0.50755
 H215 H 0.49398 0.40488 0.47854
 Cu216 Cu 0.44307 0.45358 0.47723
 Cu217 Cu 0.48332 0.44212 0.45472
 Cu218 Cu 0.45773 0.48215 0.44261
 N219 N 0.42856 0.47587 0.47021
 N220 N 0.43484 0.48733 0.45708
 C221 C 0.42287 0.50203 0.45545
 C222 C 0.40819 0.49960 0.46811
 C223 C 0.41221 0.48281 0.47722
 H224 H 0.42458 0.51352 0.44559
 H225 H 0.40403 0.47640 0.48838
 N226 N 0.48116 0.47444 0.42960
 N227 N 0.49093 0.45923 0.43419
 C228 C 0.50586 0.45762 0.42246
 C229 C 0.50543 0.47246 0.40981
 C230 C 0.48957 0.48283 0.41481
 H231 H 0.51604 0.44622 0.42280
 H232 H 0.48446 0.49554 0.40813
 H233 H 0.47164 0.46727 0.46342
 H234 H 0.45758 0.45320 0.44622
 N235 N -0.02762 -0.07435 0.97518
 N236 N -0.04276 -0.06942 0.98477
 C237 C -0.04521 -0.08161 0.99907
 C238 C -0.03080 -0.09493 0.99845
 C239 C -0.01989 -0.08980 0.98308
 H240 H -0.05655 -0.08079 1.00924
 H241 H -0.00741 -0.09692 0.97783
 Cu242 Cu -0.05785 -0.04760 0.97751
 Cu243 Cu -0.01918 -0.06058 0.95302
 Cu244 Cu -0.04555 -0.02135 0.94012
 N245 N -0.07229 -0.02532 0.97034
 N246 N -0.06745 -0.01521 0.95563
 C247 C -0.07982 -0.00090 0.95360
 C248 C -0.09319 -0.00202 0.96781
 C249 C -0.08792 -0.01772 0.97820
 H250 H -0.07903 0.00961 0.94262
 H251 H -0.09508 -0.02334 0.99040
 N252 N -0.02294 -0.02983 0.92621
 N253 N -0.01295 -0.04481 0.93104
 C254 C 0.00135 -0.04704 0.91869
 C255 C 0.00037 -0.03276 0.90544
 C256 C -0.01522 -0.02212 0.91071
 H257 H 0.01180 -0.05818 0.91937
 H258 H -0.02073 -0.00981 0.90360
 H259 H -0.03033 -0.03488 0.96099
 H260 H -0.04549 -0.04999 0.94564
 N261 N 1.02754 0.57325 0.97553
 N262 N 1.04274 0.56843 0.98512
 C263 C 1.04504 0.58060 0.99942
 C264 C 1.03049 0.59376 0.99878
 C265 C 1.01965 0.58859 0.98340
 H266 H 1.05638 0.57986 1.00961
 H267 H 1.00710 0.59559 0.97813
 Cu268 Cu 1.05803 0.54676 0.97790
 Cu269 Cu 1.01921 0.55947 0.95340
 Cu270 Cu 1.04584 0.52047 0.94061
 N271 N 1.07260 0.52457 0.97079
 N272 N 1.06778 0.51445 0.95613
 C273 C 1.08022 0.50020 0.95412
 C274 C 1.09362 0.50138 0.96831
 C275 C 1.08827 0.51704 0.97865
 H276 H 1.07946 0.48970 0.94319
 H277 H 1.09543 0.52268 0.99082
 N278 N 1.02317 0.52881 0.92667
 N279 N 1.01310 0.54372 0.93147
 C280 C 0.99878 0.54590 0.91912
 C281 C 0.99984 0.53166 0.90590
 C282 C 1.01549 0.52109 0.91119
 H283 H 0.98826 0.55698 0.91977
 H284 H 1.02107 0.50883 0.90410
 H285 H 1.03058 0.53385 0.96147
 H286 H 1.04560 0.54909 0.94604
 N287 N 0.52672 0.07422 0.47547
 N288 N 0.54177 0.06924 0.48520
 C289 C 0.54417 0.08148 0.49943
 C290 C 0.52984 0.09485 0.49860
 C291 C 0.51902 0.08974 0.48318
 H292 H 0.55543 0.08062 0.50970
 H293 H 0.50660 0.09689 0.47779
 Cu294 Cu 0.55675 0.04728 0.47827
 Cu295 Cu 0.51835 0.06039 0.45337
 Cu296 Cu 0.54490 0.02127 0.44072
 N297 N 0.57150 0.02526 0.47104
 N298 N 0.56681 0.01524 0.45627
 C299 C 0.57934 0.00107 0.45420
 C300 C 0.59266 0.00220 0.46846
 C301 C 0.58719 0.01775 0.47891
 H302 H 0.57868 -0.00935 0.44319
 H303 H 0.59426 0.02333 0.49115
 N304 N 0.52227 0.02962 0.42675
 N305 N 0.51221 0.04457 0.43148
 C306 C 0.49788 0.04670 0.41912
 C307 C 0.49893 0.03238 0.40598
 C308 C 0.51458 0.02183 0.41130
 H309 H 0.48737 0.05778 0.41973
 H310 H 0.52014 0.00953 0.40429
 H311 H 0.52942 0.03466 0.46142
 H312 H 0.54475 0.04988 0.44629
 N313 N -0.02764 0.07462 0.52407
 N314 N -0.04271 0.06963 0.51439
 C315 C -0.04519 0.08192 0.50017
 C316 C -0.03087 0.09534 0.50094
 C317 C -0.01999 0.09019 0.51632
 H318 H -0.05649 0.08108 0.48994
 H319 H -0.00758 0.09737 0.52167
 Cu320 Cu -0.05766 0.04762 0.52140
 Cu321 Cu -0.01920 0.06075 0.54618
 Cu322 Cu -0.04570 0.02154 0.55897
 N323 N -0.07237 0.02554 0.52870
 N324 N -0.06764 0.01549 0.54348
 C325 C -0.08015 0.00130 0.54560
 C326 C -0.09350 0.00243 0.53137
 C327 C -0.08807 0.01802 0.52088
 H328 H -0.07946 -0.00915 0.55664
 H329 H -0.09516 0.02361 0.50864
 N330 N -0.02304 0.02991 0.57287
 N331 N -0.01299 0.04488 0.56808
 C332 C 0.00135 0.04702 0.58041
 C333 C 0.00033 0.03267 0.59360
 C334 C -0.01532 0.02211 0.58833
 H335 H 0.01186 0.05812 0.57977
 H336 H -0.02087 0.00979 0.59539
 H337 H -0.03027 0.03502 0.53820
 H338 H -0.04558 0.05017 0.55334
 N339 N 0.47383 0.57263 0.02351
 N340 N 0.45859 0.56778 0.01403
 C341 C 0.45583 0.58031 0.00007
 C342 C 0.47015 0.59372 0.00081
 C343 C 0.48131 0.58834 0.01590
 H344 H 0.44436 0.57961 -0.00998
 H345 H 0.49384 0.59542 0.02114
 Cu346 Cu 0.44387 0.54554 0.02082
 Cu347 Cu 0.48281 0.55834 0.04509
 Cu348 Cu 0.45623 0.51940 0.05836
 N349 N 0.42893 0.52382 0.02870
 N350 N 0.43374 0.51377 0.04345
 C351 C 0.42106 0.49975 0.04580
 C352 C 0.40754 0.50099 0.03172
 C353 C 0.41303 0.51648 0.02113
 H354 H 0.42181 0.48927 0.05680
 H355 H 0.40589 0.52208 0.00891
 N356 N 0.47946 0.52736 0.07163
 N357 N 0.48960 0.54215 0.06653
 C358 C 0.50457 0.54385 0.07817
 C359 C 0.50389 0.52942 0.09130
 C360 C 0.48772 0.51926 0.08666
 H361 H 0.51521 0.55478 0.07709
 H362 H 0.48229 0.50689 0.09371
 H363 H 0.47137 0.53266 0.03730
 H364 H 0.45639 0.54798 0.05261
 N365 N 0.52684 -0.07399 0.02464
 N366 N 0.54188 -0.06895 0.01491
 C367 C 0.54427 -0.08113 0.00065
 C368 C 0.52994 -0.09454 0.00144
 C369 C 0.51913 -0.08949 0.01689
 H370 H 0.55551 -0.08023 -0.00964
 H371 H 0.50673 -0.09669 0.02226
 Cu372 Cu 0.55686 -0.04699 0.02190
 Cu373 Cu 0.51851 -0.06025 0.04680
 Cu374 Cu 0.54508 -0.02111 0.05956
 N375 N 0.57161 -0.02497 0.02917
 N376 N 0.56696 -0.01499 0.04398
 C377 C 0.57950 -0.00082 0.04604
 C378 C 0.59277 -0.00190 0.03173
 C379 C 0.58727 -0.01742 0.02128
 H380 H 0.57889 0.00957 0.05708
 H381 H 0.59430 -0.02297 0.00900
 N382 N 0.52246 -0.02957 0.07354
 N383 N 0.51240 -0.04452 0.06875
 C384 C 0.49809 -0.04674 0.08112
 C385 C 0.49914 -0.03249 0.09433
 C386 C 0.51478 -0.02187 0.08903
 H387 H 0.48759 -0.05784 0.08046
 H388 H 0.52033 -0.00958 0.09610
 H389 H 0.52956 -0.03445 0.03885
 H390 H 0.54492 -0.04969 0.05390
 N391 N 1.02819 0.42613 0.52490
 N392 N 1.04352 0.43091 0.51549
 C393 C 1.04615 0.41852 0.50143
 C394 C 1.03167 0.40525 0.50204
 C395 C 1.02056 0.41058 0.51718
 H396 H 1.05754 0.41931 0.49128
 H397 H 1.00786 0.40368 0.52225
 Cu398 Cu 1.05797 0.45329 0.52228
 Cu399 Cu 1.01904 0.44052 0.54634
 Cu400 Cu 1.04429 0.48090 0.55795
 N401 N 1.07244 0.47563 0.52918
 N402 N 1.06648 0.48676 0.54268
 C403 C 1.07840 0.50152 0.54421
 C404 C 1.09272 0.49946 0.53110
 C405 C 1.08853 0.48284 0.52182
 H406 H 1.07698 0.51274 0.55435
 H407 H 1.09646 0.47668 0.51039
 N408 N 1.02155 0.47246 0.57177
 N409 N 1.01208 0.45698 0.56752
 C410 C 0.99783 0.45468 0.57992
 C411 C 0.99832 0.46942 0.59263
 C412 C 1.01355 0.48042 0.58697
 H413 H 0.98784 0.44311 0.57973
 H414 H 1.01874 0.49304 0.59371
 H415 H 1.02980 0.46610 0.53753
 H416 H 1.04492 0.45206 0.55390
 C417 C 0.37329 -0.00069 0.25019
 C418 C 0.12610 -0.00067 0.74936
 C419 C 0.62671 0.49914 0.24966
 C420 C 0.87408 0.49997 0.74993
 C421 C 0.25043 0.37500 -0.00034
 C422 C 0.74992 0.12405 -0.00057
 C423 C 0.25055 0.62455 0.49971
 C424 C 0.74961 0.87609 0.50007
 C425 C -0.00089 0.25126 0.37474
 C426 C -0.00112 0.74907 0.12460
 C427 C 0.49956 0.25025 0.62464
 C428 C 0.49959 0.75018 0.87527
 C429 C 0.10784 0.22882 0.28550
 C430 C 0.11760 0.21153 0.28555
 C431 C 0.13305 0.20860 0.27359
 C432 C 0.13908 0.22287 0.26123
 C433 C 0.12929 0.24014 0.26114
 C434 C 0.11388 0.24309 0.27315
 C435 C 0.09153 0.23196 0.29830
 N436 N 0.08281 0.24902 0.29916
 N437 N 0.06826 0.25187 0.31076
 C438 C 0.06177 0.23776 0.32198
 N439 N 0.07047 0.22069 0.32109
 N440 N 0.08503 0.21785 0.30951
 C441 C 0.04573 0.24096 0.33509
 C442 C 0.03836 0.22604 0.34584
 C443 C 0.02351 0.22907 0.35848
 C444 C 0.01591 0.24729 0.36124
 C445 C 0.02273 0.26195 0.34960
 C446 C 0.03755 0.25891 0.33694
 H447 H 0.11334 0.20021 0.29487
 H448 H 0.14011 0.19506 0.27395
 H449 H 0.13361 0.25151 0.25194
 H450 H 0.10671 0.25659 0.27273
 H451 H 0.04395 0.21190 0.34439
 H452 H 0.01790 0.21689 0.36573
 H453 H 0.01666 0.27595 0.35055
 H454 H 0.04261 0.27068 0.32863
 C455 C 0.60832 0.72856 0.78586
 C456 C 0.61813 0.71130 0.78580
 C457 C 0.63356 0.70848 0.77378
 C458 C 0.63952 0.72283 0.76148
 C459 C 0.62967 0.74007 0.76150
 C460 C 0.61428 0.74291 0.77357
 C461 C 0.59204 0.73158 0.79872
 N462 N 0.58327 0.74861 0.79969
 N463 N 0.56874 0.75135 0.81134
 C464 C 0.56233 0.73716 0.82251
 N465 N 0.57107 0.72012 0.82151
 N466 N 0.58562 0.71739 0.80988
 C467 C 0.54630 0.74024 0.83566
 C468 C 0.53897 0.72525 0.84632
 C469 C 0.52410 0.72816 0.85896
 C470 C 0.51645 0.74635 0.86182
 C471 C 0.52324 0.76109 0.85027
 C472 C 0.53808 0.75816 0.83760
 H473 H 0.61394 0.69992 0.79506
 H474 H 0.64066 0.69496 0.77405
 H475 H 0.63393 0.75150 0.75235
 H476 H 0.60707 0.75639 0.77324
 H477 H 0.54460 0.71113 0.84479
 H478 H 0.51850 0.71593 0.86614
 H479 H 0.51712 0.77506 0.85127
 H480 H 0.54311 0.76999 0.82936
 C481 C 0.38938 0.77035 0.78724
 C482 C 0.38289 0.75563 0.77571
 C483 C 0.36735 0.75831 0.76378
 C484 C 0.35788 0.77575 0.76313
 C485 C 0.36431 0.79042 0.77474
 C486 C 0.37988 0.78777 0.78662
 C487 C 0.40592 0.76757 0.79983
 N488 N 0.41266 0.78199 0.81042
 N489 N 0.42748 0.77950 0.82179
 C490 C 0.43620 0.76246 0.82306
 N491 N 0.42947 0.74803 0.81245
 N492 N 0.41467 0.75053 0.80107
 C493 C 0.45250 0.75962 0.83594
 C494 C 0.46088 0.74177 0.83796
 C495 C 0.47589 0.73903 0.85048
 C496 C 0.48269 0.75388 0.86182
 C497 C 0.47492 0.77201 0.85883
 C498 C 0.45988 0.77474 0.84632
 H499 H 0.38984 0.74201 0.77584
 H500 H 0.36272 0.74662 0.75519
 H501 H 0.35752 0.80410 0.77454
 H502 H 0.38447 0.79942 0.79530
 H503 H 0.45583 0.72985 0.82992
 H504 H 0.48209 0.72510 0.85158
 H505 H 0.48052 0.78431 0.86583
 H506 H 0.45414 0.78881 0.84472
 C507 C -0.10867 0.27357 0.28422
 C508 C -0.11255 0.26049 0.26997
 C509 C -0.12772 0.26328 0.25763
 C510 C -0.13961 0.27920 0.25925
 C511 C -0.13559 0.29232 0.27356
 C512 C -0.12032 0.28956 0.28581
 C513 C -0.09265 0.27048 0.29740
 N514 N -0.08737 0.28412 0.30971
 N515 N -0.07304 0.28130 0.32160
 C516 C -0.06340 0.26471 0.32173
 N517 N -0.06870 0.25107 0.30944
 N518 N -0.08299 0.25391 0.29752
 C519 C -0.04755 0.26151 0.33508
 C520 C -0.03930 0.24359 0.33697
 C521 C -0.02455 0.24055 0.34973
 C522 C -0.01780 0.25520 0.36135
 C523 C -0.02555 0.27339 0.35863
 C524 C -0.04039 0.27639 0.34595
 H525 H -0.10383 0.24803 0.26831
 H526 H -0.13006 0.25273 0.24697
 H527 H -0.14411 0.30484 0.27543
 H528 H -0.11776 0.29992 0.29665
 H529 H -0.04426 0.23184 0.32863
 H530 H -0.01842 0.22658 0.35068
 H531 H -0.02002 0.28556 0.36589
 H532 H -0.04606 0.29050 0.34447
 C533 C -0.10945 0.72720 0.21464
 C534 C -0.11926 0.70992 0.21496
 C535 C -0.13458 0.70714 0.22716
 C536 C -0.14042 0.72154 0.23938
 C537 C -0.13056 0.73879 0.23910
 C538 C -0.11529 0.74159 0.22687
 C539 C -0.09330 0.73023 0.20159
 N540 N -0.08456 0.74729 0.20045
 N541 N -0.07014 0.75005 0.18866
 C542 C -0.06380 0.73588 0.17752
 N543 N -0.07252 0.71881 0.17868
 N544 N -0.08696 0.71605 0.19046
 C545 C -0.04784 0.73900 0.16426
 C546 C -0.04052 0.72403 0.15363
 C547 C -0.02566 0.72699 0.14096
 C548 C -0.01802 0.74519 0.13803
 C549 C -0.02484 0.75992 0.14949
 C550 C -0.03966 0.75695 0.16220
 H551 H -0.11515 0.69851 0.20575
 H552 H -0.14170 0.69362 0.22707
 H553 H -0.13472 0.75027 0.24817
 H554 H -0.10809 0.75509 0.22701
 H555 H -0.04612 0.70990 0.15524
 H556 H -0.02005 0.71478 0.13383
 H557 H -0.01875 0.77391 0.14843
 H558 H -0.04469 0.76877 0.17040
 C559 C 0.39074 0.22850 0.71405
 C560 C 0.38668 0.24150 0.72832
 C561 C 0.37135 0.23860 0.74046
 C562 C 0.35952 0.22264 0.73862
 C563 C 0.36366 0.20968 0.72421
 C564 C 0.37907 0.21255 0.71217
 C565 C 0.40702 0.23154 0.70117
 N566 N 0.41238 0.21791 0.68892
 N567 N 0.42693 0.22065 0.67729
 C568 C 0.43674 0.23715 0.67737
 N569 N 0.43139 0.25079 0.68963
 N570 N 0.41686 0.24803 0.70130
 C571 C 0.45279 0.24025 0.66424
 C572 C 0.46130 0.25808 0.66252
 C573 C 0.47613 0.26103 0.64983
 C574 C 0.48269 0.24638 0.63810
 C575 C 0.47475 0.22826 0.64073
 C576 C 0.45983 0.22535 0.65335
 H577 H 0.39540 0.25394 0.73019
 H578 H 0.36887 0.24906 0.75118
 H579 H 0.35517 0.19716 0.72212
 H580 H 0.38176 0.20225 0.70130
 H581 H 0.45645 0.26983 0.67092
 H582 H 0.48243 0.27494 0.64895
 H583 H 0.48013 0.21607 0.63341
 H584 H 0.45398 0.21128 0.65472
 C585 C 0.60870 0.27150 0.71373
 C586 C 0.61289 0.25833 0.72787
 C587 C 0.62820 0.26120 0.74004
 C588 C 0.63987 0.27730 0.73835
 C589 C 0.63563 0.29040 0.72405
 C590 C 0.62025 0.28756 0.71198
 C591 C 0.59242 0.26851 0.70086
 N592 N 0.58696 0.28225 0.68870
 N593 N 0.57237 0.27958 0.67711
 C594 C 0.56261 0.26304 0.67715
 N595 N 0.56806 0.24930 0.68930
 N596 N 0.58263 0.25199 0.70093
 C597 C 0.54650 0.26003 0.66407
 C598 C 0.53797 0.24222 0.66238
 C599 C 0.52307 0.23935 0.64975
 C600 C 0.51647 0.25405 0.63805
 C601 C 0.52445 0.27215 0.64065
 C602 C 0.53942 0.27499 0.65321
 H603 H 0.60428 0.24579 0.72963
 H604 H 0.63077 0.25062 0.75067
 H605 H 0.64401 0.30302 0.72206
 H606 H 0.61747 0.29798 0.70120
 H607 H 0.54283 0.23042 0.67075
 H608 H 0.51675 0.22544 0.64890
 H609 H 0.51906 0.28438 0.63335
 H610 H 0.54529 0.28904 0.65456
 C611 C 0.10910 0.77006 0.21242
 C612 C 0.11568 0.75540 0.22402
 C613 C 0.13124 0.75818 0.23589
 C614 C 0.14064 0.77567 0.23642
 C615 C 0.13413 0.79029 0.22475
 C616 C 0.11854 0.78754 0.21291
 C617 C 0.09253 0.76717 0.19988
 N618 N 0.08571 0.78153 0.18921
 N619 N 0.07087 0.77893 0.17790
 C620 C 0.06222 0.76184 0.17676
 N621 N 0.06903 0.74747 0.18745
 N622 N 0.08385 0.75008 0.19878
 C623 C 0.04590 0.75888 0.16392
 C624 C 0.03757 0.74099 0.16204
 C625 C 0.02257 0.73812 0.14954
 C626 C 0.01573 0.75290 0.13808
 C627 C 0.02342 0.77108 0.14095
 C628 C 0.03845 0.77393 0.15344
 H629 H 0.10879 0.74174 0.22397
 H630 H 0.13593 0.74652 0.24453
 H631 H 0.14087 0.80400 0.22486
 H632 H 0.11388 0.79915 0.20417
 H633 H 0.04267 0.72911 0.17017
 H634 H 0.01642 0.72416 0.14854
 H635 H 0.01778 0.78334 0.13386
 H636 H 0.04415 0.78804 0.15494
 C637 C 0.28424 0.10819 0.22728
 C638 C 0.27226 0.11479 0.24161
 C639 C 0.26050 0.13039 0.23862
 C640 C 0.26048 0.13981 0.22125
 C641 C 0.27245 0.13320 0.20693
 C642 C 0.28416 0.11757 0.20989
 C643 C 0.29683 0.09172 0.23045
 N644 N 0.30781 0.08487 0.21636
 N645 N 0.31927 0.07020 0.21923
 C646 C 0.32025 0.06175 0.23632
 N647 N 0.30925 0.06858 0.25040
 N648 N 0.29777 0.08324 0.24753
 C649 C 0.33330 0.04565 0.23957
 C650 C 0.33518 0.03763 0.25749
 C651 C 0.34790 0.02284 0.26061
 C652 C 0.35959 0.01592 0.24607
 C653 C 0.35673 0.02333 0.22787
 C654 C 0.34402 0.03814 0.22476
 H655 H 0.27197 0.10793 0.25518
 H656 H 0.25161 0.13515 0.25004
 H657 H 0.27271 0.13995 0.19331
 H658 H 0.29318 0.11288 0.19852
 H659 H 0.32688 0.04280 0.26918
 H660 H 0.34889 0.01692 0.27459
 H661 H 0.36397 0.01762 0.21580
 H662 H 0.34253 0.04361 0.21065
 C663 C 0.78502 0.60889 0.72724
 C664 C 0.78490 0.61825 0.70985
 C665 C 0.77314 0.63385 0.70688
 C666 C 0.76117 0.64044 0.72122
 C667 C 0.76124 0.63103 0.73859
 C668 C 0.77305 0.61546 0.74158
 C669 C 0.79764 0.59244 0.73041
 N670 N 0.79866 0.58400 0.74750
 N671 N 0.81016 0.56935 0.75037
 C672 C 0.82110 0.56249 0.73625
 N673 N 0.82004 0.57090 0.71915
 N674 N 0.80857 0.58555 0.71629
 C675 C 0.83415 0.54639 0.73948
 C676 C 0.84475 0.53881 0.72462
 C677 C 0.85744 0.52399 0.72769
 C678 C 0.86042 0.51663 0.74589
 C679 C 0.84885 0.52361 0.76049
 C680 C 0.83613 0.53842 0.75741
 H681 H 0.79392 0.61358 0.69847
 H682 H 0.77336 0.64059 0.69327
 H683 H 0.75234 0.63577 0.75002
 H684 H 0.77278 0.60861 0.75516
 H685 H 0.84316 0.54423 0.71050
 H686 H 0.86458 0.51822 0.71559
 H687 H 0.84991 0.51771 0.77447
 H688 H 0.82792 0.54363 0.76913
 C689 C 0.78486 0.39105 0.77263
 C690 C 0.78506 0.38136 0.78985
 C691 C 0.77318 0.36585 0.79282
 C692 C 0.76074 0.35967 0.77868
 C693 C 0.76050 0.36939 0.76147
 C694 C 0.77244 0.38487 0.75847
 C695 C 0.79759 0.40744 0.76946
 N696 N 0.79839 0.41609 0.75246
 N697 N 0.80995 0.43070 0.74960
 C698 C 0.82117 0.43733 0.76363
 N699 N 0.82033 0.42870 0.78064
 N700 N 0.80879 0.41408 0.78349
 C701 C 0.83425 0.45342 0.76040
 C702 C 0.84494 0.46095 0.77523
 C703 C 0.85760 0.47582 0.77216
 C704 C 0.86049 0.48325 0.75398
 C705 C 0.84886 0.47628 0.73940
 C706 C 0.83616 0.46145 0.74249
 H707 H 0.79444 0.38573 0.80108
 H708 H 0.77365 0.35885 0.80630
 H709 H 0.75124 0.36496 0.75020
 H710 H 0.77192 0.39198 0.74503
 H711 H 0.84342 0.45547 0.78934
 H712 H 0.86480 0.48156 0.78425
 H713 H 0.84986 0.48222 0.72543
 H714 H 0.82789 0.45626 0.73078
 C715 C 0.28362 -0.10906 0.27389
 C716 C 0.28542 -0.12015 0.29013
 C717 C 0.27339 -0.13554 0.29321
 C718 C 0.25910 -0.14027 0.28016
 C719 C 0.25732 -0.12900 0.26392
 C720 C 0.26944 -0.11368 0.26082
 C721 C 0.29652 -0.09284 0.27058
 N722 N 0.29642 -0.08350 0.25392
 N723 N 0.30810 -0.06902 0.25091
 C724 C 0.32035 -0.06321 0.26445
 N725 N 0.32041 -0.07251 0.28112
 N726 N 0.30876 -0.08703 0.28411
 C727 C 0.33350 -0.04721 0.26107
 C728 C 0.34443 -0.03977 0.27577
 C729 C 0.35709 -0.02492 0.27258
 C730 C 0.35974 -0.01743 0.25438
 C731 C 0.34793 -0.02437 0.23993
 C732 C 0.33520 -0.03914 0.24315
 H733 H 0.29622 -0.11702 0.30049
 H734 H 0.27542 -0.14358 0.30594
 H735 H 0.24668 -0.13192 0.25339
 H736 H 0.26764 -0.10542 0.24816
 H737 H 0.34306 -0.04527 0.28989
 H738 H 0.36443 -0.01923 0.28460
 H739 H 0.34879 -0.01842 0.22595
 H740 H 0.32677 -0.04429 0.23154
 C741 C 0.21513 -0.10926 0.72539
 C742 C 0.21326 -0.12028 0.70915
 C743 C 0.22521 -0.13570 0.70606
 C744 C 0.23950 -0.14052 0.71910
 C745 C 0.24134 -0.12933 0.73533
 C746 C 0.22930 -0.11399 0.73844
 C747 C 0.20234 -0.09300 0.72873
 N748 N 0.20254 -0.08374 0.74539
 N749 N 0.19096 -0.06921 0.74843
 C750 C 0.17873 -0.06326 0.73492
 N751 N 0.17856 -0.07249 0.71824
 N752 N 0.19010 -0.08706 0.71522
 C753 C 0.16569 -0.04722 0.73834
 C754 C 0.15477 -0.03966 0.72367
 C755 C 0.14220 -0.02478 0.72690
 C756 C 0.13962 -0.01738 0.74512
 C757 C 0.15143 -0.02442 0.75953
 C758 C 0.16408 -0.03923 0.75626
 H759 H 0.20247 -0.11707 0.69880
 H760 H 0.22314 -0.14370 0.69334
 H761 H 0.25197 -0.13232 0.74586
 H762 H 0.23117 -0.10579 0.75110
 H763 H 0.15608 -0.04509 0.70955
 H764 H 0.13486 -0.01900 0.71490
 H765 H 0.15064 -0.01854 0.77351
 H766 H 0.17252 -0.04447 0.76785
 C767 C 0.71026 0.38683 0.22648
 C768 C 0.70326 0.36926 0.22062
 C769 C 0.71564 0.35411 0.21786
 C770 C 0.73519 0.35614 0.22131
 C771 C 0.74215 0.37361 0.22748
 C772 C 0.72983 0.38888 0.22984
 C773 C 0.69726 0.40299 0.22898
 N774 N 0.70380 0.42094 0.22740
 N775 N 0.69213 0.43554 0.22965
 C776 C 0.67348 0.43278 0.23371
 N777 N 0.66693 0.41483 0.23535
 N778 N 0.67857 0.40022 0.23292
 C779 C 0.66077 0.44906 0.23680
 C780 C 0.64453 0.44736 0.24810
 C781 C 0.63340 0.46315 0.25218
 C782 C 0.63842 0.48119 0.24531
 C783 C 0.65364 0.48228 0.23244
 C784 C 0.66498 0.46660 0.22870
 H785 H 0.68824 0.36730 0.21789
 H786 H 0.70988 0.34075 0.21321
 H787 H 0.75718 0.37558 0.23012
 H788 H 0.73561 0.40224 0.23447
 H789 H 0.64063 0.43386 0.25412
 H790 H 0.62085 0.46107 0.26067
 H791 H 0.65717 0.49554 0.22574
 H792 H 0.67705 0.46821 0.21940
 C793 C 0.71054 0.61146 0.27387
 C794 C 0.72958 0.61075 0.26793
 C795 C 0.74156 0.62629 0.27030
 C796 C 0.73484 0.64278 0.27890
 C797 C 0.71582 0.64350 0.28487
 C798 C 0.70375 0.62805 0.28226
 C799 C 0.69791 0.59494 0.27138
 N800 N 0.67871 0.59675 0.27243
 N801 N 0.66740 0.58186 0.26999
 C802 C 0.67484 0.56454 0.26656
 N803 N 0.69403 0.56274 0.26561
 N804 N 0.70532 0.57762 0.26792
 C805 C 0.66239 0.54799 0.26345
 C806 C 0.66989 0.52970 0.26447
 C807 C 0.65854 0.51405 0.26056
 C808 C 0.63953 0.51622 0.25455
 C809 C 0.63172 0.53456 0.25509
 C810 C 0.64304 0.55023 0.25923
 H811 H 0.73523 0.59820 0.26135
 H812 H 0.75617 0.62524 0.26568
 H813 H 0.71018 0.65607 0.29141
 H814 H 0.68917 0.62903 0.28701
 H815 H 0.68457 0.52742 0.26844
 H816 H 0.66485 0.50028 0.26237
 H817 H 0.61686 0.53680 0.25184
 H818 H 0.63669 0.56413 0.25877
 C819 C 0.21500 0.10831 0.77263
 C820 C 0.22728 0.11477 0.75846
 C821 C 0.23908 0.13034 0.76150
 C822 C 0.23884 0.13987 0.77876
 C823 C 0.22655 0.13342 0.79292
 C824 C 0.21480 0.11782 0.78991
 C825 C 0.20241 0.09184 0.76940
 N826 N 0.19128 0.08498 0.78340
 N827 N 0.17985 0.07029 0.78048
 C828 C 0.17905 0.06183 0.76343
 N829 N 0.19021 0.06867 0.74943
 N830 N 0.20166 0.08335 0.75236
 C831 C 0.16604 0.04571 0.76012
 C832 C 0.16423 0.03776 0.74219
 C833 C 0.15153 0.02296 0.73902
 C834 C 0.13981 0.01593 0.75352
 C835 C 0.14263 0.02324 0.77173
 C836 C 0.15530 0.03807 0.77489
 H837 H 0.22781 0.10781 0.74497
 H838 H 0.24823 0.13497 0.75020
 H839 H 0.22607 0.14027 0.80645
 H840 H 0.20552 0.11324 0.80116
 H841 H 0.17256 0.04302 0.73053
 H842 H 0.15058 0.01711 0.72503
 H843 H 0.13537 0.01745 0.78378
 H844 H 0.15675 0.04346 0.78901
 C845 C 0.22748 0.28619 0.10785
 C846 C 0.24192 0.27402 0.11415
 C847 C 0.23891 0.26216 0.12955
 C848 C 0.22141 0.26221 0.13907
 C849 C 0.20699 0.27440 0.13279
 C850 C 0.20998 0.28621 0.11736
 C851 C 0.23067 0.29883 0.09155
 N852 N 0.21643 0.30988 0.08488
 N853 N 0.21931 0.32134 0.07033
 C854 C 0.23656 0.32225 0.06182
 N855 N 0.25080 0.31118 0.06847
 N856 N 0.24792 0.29970 0.08302
 C857 C 0.23982 0.33526 0.04582
 C858 C 0.25795 0.33712 0.03780
 C859 C 0.26108 0.34977 0.02309
 C860 C 0.24633 0.36141 0.01623
 C861 C 0.22792 0.35858 0.02364
 C862 C 0.22481 0.34595 0.03839
 H863 H 0.25559 0.27365 0.10719
 H864 H 0.25040 0.25311 0.13407
 H865 H 0.19328 0.27472 0.13964
 H866 H 0.19853 0.29538 0.11290
 H867 H 0.26980 0.32884 0.04291
 H868 H 0.27522 0.35074 0.01715
 H869 H 0.21568 0.36580 0.01799
 H870 H 0.21052 0.34447 0.04385
 C871 C 0.72735 0.78697 0.60814
 C872 C 0.74185 0.77485 0.61437
 C873 C 0.73892 0.76291 0.62972
 C874 C 0.72143 0.76284 0.63926
 C875 C 0.70694 0.77496 0.63304
 C876 C 0.70985 0.78685 0.61765
 C877 C 0.73045 0.79969 0.59189
 N878 N 0.71613 0.81069 0.58527
 N879 N 0.71893 0.82222 0.57076
 C880 C 0.73617 0.82326 0.56224
 N881 N 0.75049 0.81225 0.56885
 N882 N 0.74768 0.80070 0.58335
 C883 C 0.73934 0.83634 0.54628
 C884 C 0.75745 0.83834 0.53826
 C885 C 0.76047 0.85102 0.52355
 C886 C 0.74563 0.86253 0.51668
 C887 C 0.72725 0.85957 0.52411
 C888 C 0.72424 0.84691 0.53885
 H889 H 0.75552 0.77458 0.60740
 H890 H 0.75047 0.75390 0.63420
 H891 H 0.69323 0.77519 0.63990
 H892 H 0.69835 0.79598 0.61325
 H893 H 0.76936 0.83016 0.54337
 H894 H 0.77460 0.85210 0.51761
 H895 H 0.71495 0.86669 0.51845
 H896 H 0.70997 0.84532 0.54432
 C897 C 0.77123 0.78820 0.39132
 C898 C 0.78885 0.78770 0.38205
 C899 C 0.79160 0.77595 0.36657
 C900 C 0.77681 0.76436 0.36002
 C901 C 0.75919 0.76487 0.36930
 C902 C 0.75642 0.77665 0.38475
 C903 C 0.76828 0.80071 0.40770
 N904 N 0.75103 0.80183 0.41618
 N905 N 0.74834 0.81317 0.43081
 C906 C 0.76280 0.82386 0.43761
 N907 N 0.78006 0.82272 0.42915
 N908 N 0.78274 0.81139 0.41452
 C909 C 0.75973 0.83673 0.45369
 C910 C 0.77488 0.84721 0.46115
 C911 C 0.77192 0.85972 0.47597
 C912 C 0.75355 0.86262 0.48344
 C913 C 0.73868 0.85118 0.47656
 C914 C 0.74165 0.83865 0.46177
 H915 H 0.80058 0.79639 0.38672
 H916 H 0.80541 0.77584 0.35991
 H917 H 0.74740 0.75630 0.36459
 H918 H 0.74265 0.77669 0.39152
 H919 H 0.78913 0.84567 0.45563
 H920 H 0.78424 0.86679 0.48164
 H921 H 0.72457 0.85220 0.48253
 H922 H 0.72970 0.83053 0.45665
 C923 C 0.27219 0.28677 -0.10887
 C924 C 0.28962 0.28681 -0.11851
 C925 C 0.29247 0.27501 -0.13392
 C926 C 0.27800 0.26281 -0.14004
 C927 C 0.26058 0.26274 -0.13038
 C928 C 0.25770 0.27460 -0.11501
 C929 C 0.26916 0.29937 -0.09256
 N930 N 0.25198 0.30027 -0.08392
 N931 N 0.24925 0.31170 -0.06936
 C932 C 0.26359 0.32269 -0.06279
 N933 N 0.28078 0.32175 -0.07140
 N934 N 0.28351 0.31035 -0.08597
 C935 C 0.26051 0.33562 -0.04675
 C936 C 0.27565 0.34610 -0.03929
 C937 C 0.27272 0.35862 -0.02448
 C938 C 0.25435 0.36155 -0.01700
 C939 C 0.23946 0.35013 -0.02390
 C940 C 0.24242 0.33758 -0.03868
 H941 H 0.30111 0.29599 -0.11418
 H942 H 0.30614 0.27535 -0.14087
 H943 H 0.24905 0.25367 -0.13477
 H944 H 0.24408 0.27421 -0.10793
 H945 H 0.28991 0.34454 -0.04480
 H946 H 0.28505 0.36568 -0.01881
 H947 H 0.22535 0.35118 -0.01793
 H948 H 0.23047 0.32946 -0.04380
 C949 C 0.72744 0.21249 -0.10914
 C950 C 0.70997 0.21244 -0.11872
 C951 C 0.70705 0.22427 -0.13415
 C952 C 0.72148 0.23650 -0.14034
 C953 C 0.73894 0.23656 -0.13076
 C954 C 0.74190 0.22467 -0.11536
 C955 C 0.73055 0.19988 -0.09280
 N956 N 0.74776 0.19903 -0.08420
 N957 N 0.75058 0.18760 -0.06962
 C958 C 0.73630 0.17655 -0.06297
 N959 N 0.71908 0.17743 -0.07154
 N960 N 0.71627 0.18884 -0.08614
 C961 C 0.73949 0.16361 -0.04691
 C962 C 0.72442 0.15301 -0.03942
 C963 C 0.72747 0.14044 -0.02461
 C964 C 0.74588 0.13758 -0.01719
 C965 C 0.76068 0.14913 -0.02410
 C966 C 0.75761 0.16173 -0.03887
 H967 H 0.69851 0.20324 -0.11433
 H968 H 0.69336 0.22393 -0.14106
 H969 H 0.75046 0.24564 -0.13520
 H970 H 0.75554 0.22507 -0.10834
 H971 H 0.71015 0.15451 -0.04490
 H972 H 0.71520 0.13330 -0.01892
 H973 H 0.77481 0.14815 -0.01816
 H974 H 0.76950 0.16994 -0.04403
 C975 C 0.22652 0.71206 0.39064
 C976 C 0.22964 0.73153 0.39254
 C977 C 0.22683 0.74367 0.37731
 C978 C 0.22045 0.73661 0.36003
 C979 C 0.21711 0.71718 0.35820
 C980 C 0.22031 0.70499 0.37330
 C981 C 0.22983 0.69916 0.40663
 N982 N 0.23410 0.68074 0.40366
 N983 N 0.23728 0.66914 0.41803
 C984 C 0.23613 0.67544 0.43596
 N985 N 0.23174 0.69384 0.43895
 N986 N 0.22874 0.70549 0.42456
 C987 C 0.23974 0.66256 0.45189
 C988 C 0.23169 0.66601 0.46951
 C989 C 0.23501 0.65369 0.48447
 C990 C 0.24681 0.63763 0.48246
 C991 C 0.25507 0.63459 0.46461
 C992 C 0.25136 0.64670 0.44958
 H993 H 0.23450 0.73735 0.40572
 H994 H 0.22939 0.75861 0.37914
 H995 H 0.21231 0.71135 0.34500
 H996 H 0.21774 0.69005 0.37146
 H997 H 0.22257 0.67810 0.47169
 H998 H 0.22820 0.65666 0.49775
 H999 H 0.26454 0.62301 0.46185
 H1000 H 0.25793 0.64382 0.43615
 C1001 C 0.27302 0.71192 0.60887
 C1002 C 0.26977 0.73137 0.60688
 C1003 C 0.27231 0.74351 0.62211
 C1004 C 0.27856 0.73649 0.63947
 C1005 C 0.28200 0.71708 0.64140
 C1006 C 0.27906 0.70488 0.62631
 C1007 C 0.27004 0.69900 0.59288
 N1008 N 0.26591 0.68053 0.59587
 N1009 N 0.26304 0.66891 0.58150
 C1010 C 0.26437 0.67523 0.56356
 N1011 N 0.26862 0.69368 0.56056
 N1012 N 0.27131 0.70536 0.57494
 C1013 C 0.26104 0.66233 0.54764
 C1014 C 0.26924 0.66586 0.53008
 C1015 C 0.26608 0.65357 0.51511
 C1016 C 0.25428 0.63748 0.51704
 C1017 C 0.24593 0.63432 0.53484
 C1018 C 0.24948 0.64639 0.54989
 H1019 H 0.26503 0.73717 0.59362
 H1020 H 0.26967 0.75843 0.62021
 H1021 H 0.28669 0.71126 0.65467
 H1022 H 0.28173 0.68997 0.62822
 H1023 H 0.27833 0.67801 0.52796
 H1024 H 0.27297 0.65663 0.50187
 H1025 H 0.23647 0.62269 0.53753
 H1026 H 0.24281 0.64343 0.56326
 C1027 C 0.77145 0.21102 0.10895
 C1028 C 0.78912 0.21159 0.11814
 C1029 C 0.79184 0.22317 0.13375
 C1030 C 0.77698 0.23452 0.14051
 C1031 C 0.75930 0.23391 0.13134
 C1032 C 0.75656 0.22229 0.11577
 C1033 C 0.76854 0.19873 0.09239
 N1034 N 0.75129 0.19762 0.08392
 N1035 N 0.74863 0.18647 0.06913
 C1036 C 0.76313 0.17598 0.06216
 N1037 N 0.78041 0.17712 0.07060
 N1038 N 0.78305 0.18825 0.08540
 C1039 C 0.76009 0.16328 0.04593
 C1040 C 0.77524 0.15289 0.03839
 C1041 C 0.77228 0.14046 0.02350
 C1042 C 0.75391 0.13755 0.01604
 C1043 C 0.73905 0.14897 0.02295
 C1044 C 0.74201 0.16141 0.03781
 H1045 H 0.80091 0.20309 0.11328
 H1046 H 0.80569 0.22336 0.14032
 H1047 H 0.74746 0.24228 0.13622
 H1048 H 0.74275 0.22219 0.10907
 H1049 H 0.78949 0.15440 0.04394
 H1050 H 0.78460 0.13341 0.01781
 H1051 H 0.72493 0.14795 0.01698
 H1052 H 0.73007 0.16949 0.04298
 C1053 C 0.47772 0.35820 0.53495
 C1054 C 0.49247 0.36450 0.52321
 C1055 C 0.48969 0.37977 0.51110
 C1056 C 0.47211 0.38917 0.51044
 C1057 C 0.45735 0.38284 0.52216
 C1058 C 0.46011 0.36753 0.53425
 C1059 C 0.48073 0.34207 0.54790
 N1060 N 0.46637 0.33559 0.55890
 N1061 N 0.46912 0.32118 0.57061
 C1062 C 0.48635 0.31263 0.57184
 N1063 N 0.50070 0.31910 0.56083
 N1064 N 0.49795 0.33350 0.54911
 C1065 C 0.48946 0.29673 0.58504
 C1066 C 0.50747 0.28841 0.58684
 C1067 C 0.51044 0.27366 0.59951
 C1068 C 0.49566 0.26703 0.61120
 C1069 C 0.47737 0.27483 0.60854
 C1070 C 0.47441 0.28961 0.59588
 H1071 H 0.50623 0.35767 0.52338
 H1072 H 0.50146 0.38429 0.50243
 H1073 H 0.44357 0.38958 0.52197
 H1074 H 0.44842 0.36306 0.54308
 H1075 H 0.51934 0.29328 0.57847
 H1076 H 0.52448 0.26746 0.60039
 H1077 H 0.46509 0.26941 0.61587
 H1078 H 0.46022 0.29533 0.59449
 C1079 C -0.02225 0.85776 0.03566
 C1080 C -0.00763 0.86384 0.02364
 C1081 C -0.01040 0.87916 0.01158
 C1082 C -0.02784 0.88883 0.01129
 C1083 C -0.04244 0.88277 0.02334
 C1084 C -0.03969 0.86741 0.03536
 C1085 C -0.01932 0.84149 0.04846
 N1086 N -0.03373 0.83499 0.05939
 N1087 N -0.03109 0.82043 0.07094
 C1088 C -0.01393 0.81174 0.07206
 N1089 N 0.00048 0.81823 0.06111
 N1090 N -0.00217 0.83277 0.04955
 C1091 C -0.01094 0.79568 0.08510
 C1092 C 0.00709 0.78745 0.08709
 C1093 C 0.00996 0.77262 0.09969
 C1094 C -0.00495 0.76583 0.11113
 C1095 C -0.02326 0.77348 0.10821
 C1096 C -0.02611 0.78835 0.09563
 H1097 H 0.00600 0.85676 0.02352
 H1098 H 0.00123 0.88350 0.00264
 H1099 H -0.05611 0.88974 0.02342
 H1100 H -0.05127 0.86313 0.04441
 H1101 H 0.01906 0.79248 0.07895
 H1102 H 0.02403 0.76652 0.10075
 H1103 H -0.03561 0.76791 0.11531
 H1104 H -0.04032 0.79399 0.09406
 C1105 C 0.02127 0.64084 0.03592
 C1106 C 0.03882 0.63138 0.03568
 C1107 C 0.04179 0.61609 0.02370
 C1108 C 0.02730 0.60992 0.01160
 C1109 C 0.00975 0.61938 0.01182
 C1110 C 0.00676 0.63463 0.02385
 C1111 C 0.01811 0.65703 0.04867
 N1112 N 0.00086 0.66556 0.04969
 N1113 N -0.00199 0.68005 0.06121
 C1114 C 0.01231 0.68666 0.07220
 N1115 N 0.02957 0.67814 0.07116
 N1116 N 0.03240 0.66365 0.05965
 C1117 C 0.00912 0.70264 0.08521
 C1118 C 0.02420 0.71006 0.09577
 C1119 C 0.02119 0.72486 0.10831
 C1120 C 0.00282 0.73235 0.11118
 C1121 C -0.01201 0.72550 0.09971
 C1122 C -0.00898 0.71073 0.08713
 H1123 H 0.05032 0.63576 0.04478
 H1124 H 0.05554 0.60928 0.02383
 H1125 H -0.00180 0.61495 0.00284
 H1126 H -0.00695 0.64156 0.02367
 H1127 H 0.03847 0.70455 0.09424
 H1128 H 0.03350 0.73051 0.11540
 H1129 H -0.02612 0.73150 0.10070
 H1130 H -0.02088 0.70563 0.07895
 C1131 C 0.52110 0.14211 0.53563
 C1132 C 0.50658 0.13612 0.52347
 C1133 C 0.50942 0.12083 0.51145
 C1134 C 0.52682 0.11111 0.51134
 C1135 C 0.54133 0.11709 0.52351
 C1136 C 0.53851 0.13241 0.53548
 C1137 C 0.51809 0.15830 0.54842
 N1138 N 0.53240 0.16464 0.55954
 N1139 N 0.52969 0.17912 0.57111
 C1140 C 0.51255 0.18788 0.57207
 N1141 N 0.49825 0.18154 0.56094
 N1142 N 0.50096 0.16708 0.54935
 C1143 C 0.50950 0.20383 0.58514
 C1144 C 0.49151 0.21219 0.58693
 C1145 C 0.48859 0.22695 0.59954
 C1146 C 0.50341 0.23353 0.61119
 C1147 C 0.52168 0.22572 0.60850
 C1148 C 0.52458 0.21094 0.59591
 H1149 H 0.49297 0.14324 0.52321
 H1150 H 0.49785 0.11656 0.50240
 H1151 H 0.55498 0.11008 0.52372
 H1152 H 0.55003 0.13662 0.54464
 H1153 H 0.47961 0.20733 0.57861
 H1154 H 0.47456 0.23315 0.60044
 H1155 H 0.53400 0.23112 0.61578
 H1156 H 0.53877 0.20519 0.59452
 C1157 C -0.02236 0.14279 0.46388
 C1158 C -0.03977 0.13305 0.46411
 C1159 C -0.04251 0.11766 0.47609
 C1160 C -0.02794 0.11166 0.48819
 C1161 C -0.01054 0.12142 0.48800
 C1162 C -0.00777 0.13678 0.47597
 C1163 C -0.01941 0.15905 0.45108
 N1164 N -0.00227 0.16782 0.45005
 N1165 N 0.00041 0.18234 0.43846
 C1166 C -0.01395 0.18874 0.42741
 N1167 N -0.03110 0.17999 0.42847
 N1168 N -0.03377 0.16546 0.44005
 C1169 C -0.01091 0.20475 0.41432
 C1170 C -0.02602 0.21198 0.40365
 C1171 C -0.02311 0.22682 0.39104
 C1172 C -0.00480 0.23454 0.38824
 C1173 C 0.01005 0.22782 0.39978
 C1174 C 0.00712 0.21302 0.41241
 H1175 H -0.05132 0.13728 0.45500
 H1176 H -0.05616 0.11063 0.47594
 H1177 H 0.00107 0.11713 0.49699
 H1178 H 0.00583 0.14392 0.47617
 H1179 H -0.04023 0.20630 0.40514
 H1180 H -0.03542 0.23231 0.38383
 H1181 H 0.02413 0.23394 0.39878
 H1182 H 0.01905 0.20806 0.42064
 C1183 C 0.47841 0.64151 0.96415
 C1184 C 0.46098 0.63180 0.96442
 C1185 C 0.45830 0.61631 0.97629
 C1186 C 0.47297 0.61018 0.98822
 C1187 C 0.49037 0.61992 0.98798
 C1188 C 0.49307 0.63537 0.97608
 C1189 C 0.48132 0.65785 0.95146
 N1190 N 0.49848 0.66657 0.95037
 N1191 N 0.50114 0.68115 0.93886
 C1192 C 0.48673 0.68766 0.92794
 N1193 N 0.46955 0.67897 0.92906
 N1194 N 0.46690 0.66438 0.94056
 C1195 C 0.48975 0.70371 0.91491
 C1196 C 0.47457 0.71104 0.90440
 C1197 C 0.47744 0.72587 0.89179
 C1198 C 0.49577 0.73348 0.88881
 C1199 C 0.51068 0.72673 0.90025
 C1200 C 0.50779 0.71193 0.91289
 H1201 H 0.44936 0.63614 0.95544
 H1202 H 0.44465 0.60929 0.97618
 H1203 H 0.50206 0.61554 0.99683
 H1204 H 0.50669 0.64249 0.97624
 H1205 H 0.46034 0.70542 0.90601
 H1206 H 0.46509 0.73144 0.88472
 H1207 H 0.52476 0.73281 0.89916
 H1208 H 0.51976 0.70690 0.92103
 C1209 C 0.52116 0.85834 0.96426
 C1210 C 0.53861 0.86801 0.96449
 C1211 C 0.54144 0.88329 0.97651
 C1212 C 0.52691 0.88925 0.98866
 C1213 C 0.50948 0.87956 0.98846
 C1214 C 0.50663 0.86431 0.97639
 C1215 C 0.51815 0.84218 0.95142
 N1216 N 0.50097 0.83349 0.95036
 N1217 N 0.49824 0.81905 0.93874
 C1218 C 0.51259 0.81265 0.92771
 N1219 N 0.52977 0.82133 0.92880
 N1220 N 0.53249 0.83578 0.94040
 C1221 C 0.50951 0.79671 0.91462
 C1222 C 0.52465 0.78943 0.90406
 C1223 C 0.52175 0.77462 0.89149
 C1224 C 0.50342 0.76697 0.88862
 C1225 C 0.48854 0.77374 0.90006
 C1226 C 0.49146 0.78851 0.91265
 H1227 H 0.55014 0.86380 0.95535
 H1228 H 0.55511 0.89028 0.97636
 H1229 H 0.49790 0.88383 0.99749
 H1230 H 0.49300 0.85721 0.97659
 H1231 H 0.53888 0.79505 0.90561
 H1232 H 0.53409 0.76906 0.88440
 H1233 H 0.47446 0.76764 0.89904
 H1234 H 0.47952 0.79351 0.92081
 C1235 C 0.02238 0.35854 0.46444
 C1236 C 0.00790 0.36461 0.47658
 C1237 C 0.01093 0.37970 0.48879
 C1238 C 0.02851 0.38915 0.48914
 C1239 C 0.04299 0.38308 0.47699
 C1240 C 0.03997 0.36795 0.46481
 C1241 C 0.01911 0.34256 0.45143
 N1242 N 0.03332 0.33611 0.44026
 N1243 N 0.03037 0.32181 0.42854
 C1244 C 0.01308 0.31333 0.42747
 N1245 N -0.00113 0.31977 0.43864
 N1246 N 0.00183 0.33407 0.45038
 C1247 C 0.00975 0.29752 0.41427
 C1248 C -0.00837 0.28942 0.41245
 C1249 C -0.01152 0.27474 0.39980
 C1250 C 0.00319 0.26798 0.38814
 C1251 C 0.02158 0.27554 0.39083
 C1252 C 0.02472 0.29025 0.40346
 H1253 H -0.00584 0.35773 0.47667
 H1254 H -0.00062 0.38405 0.49780
 H1255 H 0.05675 0.38988 0.47695
 H1256 H 0.05146 0.36366 0.45566
 H1257 H -0.02018 0.29441 0.42080
 H1258 H -0.02563 0.26871 0.39891
 H1259 H 0.03381 0.26999 0.38356
 H1260 H 0.03899 0.29579 0.40488
 C1261 C 0.36090 0.53686 0.47716
 C1262 C 0.35896 0.51739 0.48030
 C1263 C 0.37440 0.50528 0.47760
 C1264 C 0.39192 0.51237 0.47130
 C1265 C 0.39379 0.53180 0.46798
 C1266 C 0.37850 0.54396 0.47107
 C1267 C 0.34472 0.54977 0.48028
 N1268 N 0.34779 0.56820 0.48441
 N1269 N 0.33325 0.57986 0.48732
 C1270 C 0.31506 0.57359 0.48603
 N1271 N 0.31198 0.55518 0.48179
 N1272 N 0.32652 0.54347 0.47906
 C1273 C 0.29897 0.58656 0.48935
 C1274 C 0.28117 0.58317 0.48123
 C1275 C 0.26606 0.59553 0.48434
 C1276 C 0.26806 0.61156 0.49601
 C1277 C 0.28610 0.61458 0.50428
 C1278 C 0.30130 0.60243 0.50078
 H1279 H 0.34558 0.51155 0.48509
 H1280 H 0.37255 0.49033 0.48017
 H1281 H 0.40717 0.53767 0.46325
 H1282 H 0.38038 0.55889 0.46848
 H1283 H 0.27898 0.57107 0.47223
 H1284 H 0.25262 0.59258 0.47752
 H1285 H 0.28888 0.62615 0.51364
 H1286 H 0.31487 0.60527 0.50739
 C1287 C 0.85903 0.03489 -0.02291
 C1288 C 0.86527 0.02260 -0.00869
 C1289 C 0.88073 0.01060 -0.01170
 C1290 C 0.89037 0.01066 -0.02897
 C1291 C 0.88413 0.02297 -0.04317
 C1292 C 0.86865 0.03490 -0.04019
 C1293 C 0.84267 0.04767 -0.01976
 N1294 N 0.83601 0.05878 -0.03383
 N1295 N 0.82139 0.07035 -0.03101
 C1296 C 0.81280 0.07133 -0.01398
 N1297 N 0.81945 0.06020 0.00010
 N1298 N 0.83405 0.04861 -0.00273
 C1299 C 0.79670 0.08443 -0.01080
 C1300 C 0.78864 0.08639 0.00709
 C1301 C 0.77376 0.09904 0.01011
 C1302 C 0.76677 0.11057 -0.00451
 C1303 C 0.77425 0.10768 -0.02267
 C1304 C 0.78916 0.09505 -0.02568
 H1305 H 0.85822 0.02222 0.00480
 H1306 H 0.88521 0.00144 -0.00038
 H1307 H 0.89106 0.02330 -0.05671
 H1308 H 0.86424 0.04417 -0.05147
 H1309 H 0.79383 0.07817 0.01884
 H1310 H 0.76778 0.10006 0.02407
 H1311 H 0.76849 0.11482 -0.03480
 H1312 H 0.79466 0.09350 -0.03977
 C1313 C 0.64076 0.03480 0.02226
 C1314 C 0.63434 0.02266 0.00805
 C1315 C 0.61882 0.01073 0.01112
 C1316 C 0.60930 0.01070 0.02845
 C1317 C 0.61572 0.02285 0.04265
 C1318 C 0.63128 0.03473 0.03961
 C1319 C 0.65718 0.04754 0.01902
 N1320 N 0.66398 0.05854 0.03308
 N1321 N 0.67863 0.07009 0.03018
 C1322 C 0.68711 0.07115 0.01310
 N1323 N 0.68032 0.06014 -0.00096
 N1324 N 0.66568 0.04856 0.00194
 C1325 C 0.70322 0.08425 0.00984
 C1326 C 0.71123 0.08628 -0.00808
 C1327 C 0.72610 0.09898 -0.01116
 C1328 C 0.73311 0.11048 0.00343
 C1329 C 0.72571 0.10748 0.02162
 C1330 C 0.71082 0.09481 0.02469
 H1331 H 0.64129 0.02235 -0.00550
 H1332 H 0.61419 0.00169 -0.00020
 H1333 H 0.60889 0.02312 0.05624
 H1334 H 0.63583 0.04388 0.05089
 H1335 H 0.70599 0.07810 -0.01980
 H1336 H 0.73203 0.10006 -0.02514
 H1337 H 0.73151 0.11458 0.03373
 H1338 H 0.70538 0.09320 0.03880
 C1339 C 0.13999 0.53682 0.52197
 C1340 C 0.12251 0.54382 0.52841
 C1341 C 0.10721 0.53164 0.53151
 C1342 C 0.10896 0.51228 0.52782
 C1343 C 0.12635 0.50529 0.52113
 C1344 C 0.14180 0.51742 0.51844
 C1345 C 0.15620 0.54972 0.51889
 N1346 N 0.17438 0.54335 0.51991
 N1347 N 0.18896 0.55505 0.51722
 C1348 C 0.18593 0.57354 0.51323
 N1349 N 0.16776 0.57989 0.51213
 N1350 N 0.15319 0.56824 0.51500
 C1351 C 0.20206 0.58650 0.50994
 C1352 C 0.19975 0.60247 0.49858
 C1353 C 0.21498 0.61463 0.49511
 C1354 C 0.23302 0.61152 0.50335
 C1355 C 0.23500 0.59538 0.51495
 C1356 C 0.21986 0.58301 0.51802
 H1357 H 0.12074 0.55870 0.53130
 H1358 H 0.09392 0.53742 0.53654
 H1359 H 0.12810 0.49040 0.51829
 H1360 H 0.15509 0.51165 0.51337
 H1361 H 0.18618 0.60539 0.49201
 H1362 H 0.21221 0.62628 0.48581
 H1363 H 0.24843 0.59236 0.52174
 H1364 H 0.22202 0.57083 0.52696
 C1365 C 0.14154 0.46459 -0.02244
 C1366 C 0.13189 0.46461 -0.03970
 C1367 C 0.11636 0.47652 -0.04266
 C1368 C 0.11012 0.48876 -0.02847
 C1369 C 0.11981 0.48881 -0.01123
 C1370 C 0.13531 0.47684 -0.00823
 C1371 C 0.15792 0.45182 -0.01931
 N1372 N 0.16656 0.45078 -0.00229
 N1373 N 0.18117 0.43917 0.00051
 C1374 C 0.18779 0.42811 -0.01359
 N1375 N 0.17917 0.42919 -0.03060
 N1376 N 0.16456 0.44078 -0.03340
 C1377 C 0.20387 0.41496 -0.01045
 C1378 C 0.21133 0.40439 -0.02535
 C1379 C 0.22619 0.39168 -0.02239
 C1380 C 0.23368 0.38863 -0.00425
 C1381 C 0.22678 0.40012 0.01041
 C1382 C 0.21196 0.41287 0.00743
 H1383 H 0.13628 0.45539 -0.05097
 H1384 H 0.10941 0.47620 -0.05619
 H1385 H 0.11533 0.49793 0.00008
 H1386 H 0.14239 0.47719 0.00525
 H1387 H 0.20582 0.40605 -0.03944
 H1388 H 0.23188 0.38457 -0.03453
 H1389 H 0.23278 0.39898 0.02435
 H1390 H 0.20683 0.42104 0.01919
 C1391 C 0.64060 0.96548 0.47778
 C1392 C 0.63107 0.96559 0.46045
 C1393 C 0.61554 0.97749 0.45746
 C1394 C 0.60918 0.98962 0.47169
 C1395 C 0.61875 0.98958 0.48900
 C1396 C 0.63425 0.97762 0.49202
 C1397 C 0.65697 0.95271 0.48094
 N1398 N 0.66552 0.95163 0.49800
 N1399 N 0.68013 0.94001 0.50084
 C1400 C 0.68683 0.92901 0.48673
 N1401 N 0.67830 0.93013 0.46968
 N1402 N 0.66369 0.94172 0.46685
 C1403 C 0.70291 0.91588 0.48991
 C1404 C 0.71043 0.90534 0.47502
 C1405 C 0.72531 0.89266 0.47800
 C1406 C 0.73278 0.88963 0.49616
 C1407 C 0.72581 0.90109 0.51081
 C1408 C 0.71096 0.91379 0.50780
 H1409 H 0.63556 0.95645 0.44915
 H1410 H 0.60868 0.97724 0.44389
 H1411 H 0.61417 0.99861 0.50033
 H1412 H 0.64124 0.97790 0.50555
 H1413 H 0.70495 0.90699 0.46092
 H1414 H 0.73106 0.88559 0.46587
 H1415 H 0.73180 0.89997 0.52476
 H1416 H 0.70578 0.92195 0.51956
 C1417 C 0.85858 0.96562 0.52221
 C1418 C 0.86814 0.96571 0.53952
 C1419 C 0.88366 0.97763 0.54247
 C1420 C 0.88998 0.98982 0.52820
 C1421 C 0.88038 0.98980 0.51091
 C1422 C 0.86488 0.97782 0.50794
 C1423 C 0.84221 0.95281 0.51909
 N1424 N 0.83362 0.95178 0.50206
 N1425 N 0.81904 0.94013 0.49925
 C1426 C 0.81239 0.92904 0.51336
 N1427 N 0.82096 0.93011 0.53039
 N1428 N 0.83555 0.94173 0.53320
 C1429 C 0.79633 0.91588 0.51020
 C1430 C 0.78884 0.90523 0.52510
 C1431 C 0.77396 0.89254 0.52212
 C1432 C 0.76645 0.88961 0.50398
 C1433 C 0.77339 0.90115 0.48933
 C1434 C 0.78825 0.91387 0.49232
 H1435 H 0.86367 0.95652 0.55085
 H1436 H 0.89055 0.97737 0.55602
 H1437 H 0.88492 0.99888 0.49955
 H1438 H 0.85786 0.97812 0.49443
 H1439 H 0.79435 0.90681 0.53919
 H1440 H 0.76823 0.88538 0.53426
 H1441 H 0.76739 0.90011 0.47538
 H1442 H 0.79340 0.92210 0.48057
 C1443 C 0.35955 0.46424 0.02255
 C1444 C 0.36584 0.47650 0.00832
 C1445 C 0.38134 0.48847 0.01132
 C1446 C 0.39097 0.48843 0.02859
 C1447 C 0.38465 0.47620 0.04283
 C1448 C 0.36912 0.46428 0.03985
 C1449 C 0.34319 0.45143 0.01934
 N1450 N 0.33651 0.44026 0.03336
 N1451 N 0.32192 0.42865 0.03046
 C1452 C 0.31339 0.42768 0.01340
 N1453 N 0.32006 0.43885 -0.00063
 N1454 N 0.33464 0.45049 0.00228
 C1455 C 0.29731 0.41454 0.01013
 C1456 C 0.28927 0.41266 -0.00779
 C1457 C 0.27438 0.40001 -0.01089
 C1458 C 0.26735 0.38841 0.00368
 C1459 C 0.27483 0.39121 0.02186
 C1460 C 0.28976 0.40383 0.02494
 H1461 H 0.35882 0.47685 -0.00519
 H1462 H 0.38587 0.49756 -0.00003
 H1463 H 0.39158 0.47589 0.05637
 H1464 H 0.36466 0.45504 0.05114
 H1465 H 0.29447 0.42095 -0.01948
 H1466 H 0.26840 0.39907 -0.02485
 H1467 H 0.26906 0.38401 0.03394
 H1468 H 0.29524 0.40531 0.03905
 C1469 C 0.54333 0.48266 0.36334
 C1470 C 0.52546 0.49147 0.36416
 C1471 C 0.51327 0.48826 0.37928
 C1472 C 0.51859 0.47609 0.39395
 C1473 C 0.53648 0.46732 0.39319
 C1474 C 0.54874 0.47061 0.37809
 C1475 C 0.55606 0.48586 0.34706
 N1476 N 0.57393 0.47861 0.34671
 N1477 N 0.58519 0.48128 0.33191
 C1478 C 0.57904 0.49129 0.31681
 N1479 N 0.56119 0.49857 0.31720
 N1480 N 0.54997 0.49593 0.33200
 C1481 C 0.59128 0.49384 0.30006
 C1482 C 0.58394 0.50220 0.28374
 C1483 C 0.59512 0.50398 0.26767
 C1484 C 0.61390 0.49697 0.26719
 C1485 C 0.62157 0.48988 0.28409
 C1486 C 0.61033 0.48797 0.30015
 H1487 H 0.52081 0.50083 0.35306
 H1488 H 0.49954 0.49512 0.37926
 H1489 H 0.54112 0.45799 0.40431
 H1490 H 0.56240 0.46359 0.37792
 H1491 H 0.56947 0.50737 0.28330
 H1492 H 0.58893 0.51109 0.25571
 H1493 H 0.63630 0.48550 0.28474
 H1494 H 0.61662 0.48193 0.31265
 C1495 C 0.03721 -0.02365 0.85790
 C1496 C 0.02508 -0.00927 0.86422
 C1497 C 0.01315 -0.01223 0.87962
 C1498 C 0.01309 -0.02962 0.88912
 C1499 C 0.02525 -0.04399 0.88283
 C1500 C 0.03714 -0.04106 0.86738
 C1501 C 0.04990 -0.02050 0.84157
 N1502 N 0.06097 -0.03465 0.83486
 N1503 N 0.07245 -0.03179 0.82027
 C1504 C 0.07335 -0.01465 0.81175
 N1505 N 0.06227 -0.00051 0.81845
 N1506 N 0.05077 -0.00338 0.83303
 C1507 C 0.08638 -0.01139 0.79571
 C1508 C 0.08819 0.00662 0.78768
 C1509 C 0.10084 0.00976 0.77291
 C1510 C 0.11250 -0.00484 0.76597
 C1511 C 0.10973 -0.02313 0.77340
 C1512 C 0.09710 -0.02626 0.78821
 H1513 H 0.02477 0.00432 0.85728
 H1514 H 0.00413 -0.00076 0.88415
 H1515 H 0.02549 -0.05762 0.88966
 H1516 H 0.04629 -0.05246 0.86291
 H1517 H 0.07989 0.01836 0.79285
 H1518 H 0.10178 0.02381 0.76700
 H1519 H 0.11697 -0.03525 0.76772
 H1520 H 0.09565 -0.04044 0.79369
 C1521 C 0.03715 0.02320 0.64108
 C1522 C 0.02494 0.00890 0.63469
 C1523 C 0.01302 0.01197 0.61931
 C1524 C 0.01305 0.02941 0.60989
 C1525 C 0.02530 0.04370 0.61625
 C1526 C 0.03718 0.04065 0.63167
 C1527 C 0.04981 0.01993 0.65740
 N1528 N 0.06099 0.03398 0.66416
 N1529 N 0.07244 0.03100 0.67874
 C1530 C 0.07323 0.01384 0.68719
 N1531 N 0.06203 -0.00021 0.68045
 N1532 N 0.05056 0.00277 0.66589
 C1533 C 0.08624 0.01044 0.70321
 C1534 C 0.08790 -0.00759 0.71121
 C1535 C 0.10058 -0.01086 0.72593
 C1536 C 0.11244 0.00363 0.73283
 C1537 C 0.10978 0.02196 0.72546
 C1538 C 0.09713 0.02522 0.71070
 H1539 H 0.02456 -0.00472 0.64157
 H1540 H 0.00394 0.00057 0.61474
 H1541 H 0.02562 0.05736 0.60947
 H1542 H 0.04640 0.05199 0.63620
 H1543 H 0.07947 -0.01925 0.70606
 H1544 H 0.10141 -0.02492 0.73182
 H1545 H 0.11715 0.03403 0.73114
 H1546 H 0.09580 0.03942 0.70526
 C1547 C 0.54311 0.51878 0.13673
 C1548 C 0.52810 0.50623 0.13305
 C1549 C 0.51545 0.50965 0.11832
 C1550 C 0.51745 0.52571 0.10688
 C1551 C 0.53254 0.53821 0.11054
 C1552 C 0.54521 0.53478 0.12526
 C1553 C 0.55633 0.51530 0.15258
 N1554 N 0.57113 0.52714 0.15596
 N1555 N 0.58276 0.52419 0.17042
 C1556 C 0.58010 0.50927 0.18211
 N1557 N 0.56535 0.49740 0.17868
 N1558 N 0.55373 0.50034 0.16423
 C1559 C 0.59261 0.50632 0.19860
 C1560 C 0.58893 0.49164 0.21133
 C1561 C 0.60007 0.48941 0.22736
 C1562 C 0.61493 0.50211 0.23155
 C1563 C 0.61942 0.51596 0.21799
 C1564 C 0.60822 0.51822 0.20193
 H1565 H 0.52606 0.49374 0.14158
 H1566 H 0.50413 0.49960 0.11598
 H1567 H 0.53461 0.55076 0.10216
 H1568 H 0.55658 0.54477 0.12770
 H1569 H 0.57729 0.48192 0.20903
 H1570 H 0.59679 0.47792 0.23685
 H1571 H 0.63164 0.52505 0.21955
 H1572 H 0.61183 0.52933 0.19212
 C1573 C 0.46228 -0.02340 0.14180
 C1574 C 0.46232 -0.04079 0.13238
 C1575 C 0.47422 -0.04371 0.11696
 C1576 C 0.48643 -0.02935 0.11064
 C1577 C 0.48641 -0.01197 0.12008
 C1578 C 0.47446 -0.00902 0.13545
 C1579 C 0.44957 -0.02026 0.15810
 N1580 N 0.44869 -0.00314 0.16657
 N1581 N 0.43717 -0.00029 0.18112
 C1582 C 0.42607 -0.01445 0.18785
 N1583 N 0.42699 -0.03158 0.17941
 N1584 N 0.43848 -0.03442 0.16485
 C1585 C 0.41303 -0.01122 0.20387
 C1586 C 0.40232 -0.02613 0.21141
 C1587 C 0.38968 -0.02305 0.22620
 C1588 C 0.38687 -0.00478 0.23357
 C1589 C 0.39852 0.00987 0.22659
 C1590 C 0.41118 0.00677 0.21183
 H1591 H 0.45313 -0.05218 0.13688
 H1592 H 0.47395 -0.05733 0.11017
 H1593 H 0.49547 -0.00052 0.11553
 H1594 H 0.47479 0.00456 0.14235
 H1595 H 0.40378 -0.04030 0.20599
 H1596 H 0.38245 -0.03520 0.23193
 H1597 H 0.39756 0.02391 0.23245
 H1598 H 0.41947 0.01854 0.20663
 C1599 C 0.96200 0.47817 0.64057
 C1600 C 0.96234 0.46067 0.63136
 C1601 C 0.97403 0.45786 0.61577
 C1602 C 0.98572 0.47247 0.60904
 C1603 C 0.98535 0.48998 0.61824
 C1604 C 0.97362 0.49280 0.63380
 C1605 C 0.94956 0.48115 0.65709
 N1606 N 0.94853 0.49829 0.66551
 N1607 N 0.93724 0.50099 0.68026
 C1608 C 0.92652 0.48667 0.68725
 N1609 N 0.92759 0.46953 0.67886
 N1610 N 0.93886 0.46683 0.66411
 C1611 C 0.91368 0.48976 0.70345
 C1612 C 0.90316 0.47476 0.71106
 C1613 C 0.89061 0.47774 0.72594
 C1614 C 0.88769 0.49599 0.73331
 C1615 C 0.89923 0.51071 0.72631
 C1616 C 0.91179 0.50772 0.71146
 H1617 H 0.95358 0.44907 0.63619
 H1618 H 0.97403 0.44414 0.60918
 H1619 H 0.99400 0.50162 0.61338
 H1620 H 0.97370 0.50648 0.64051
 H1621 H 0.90468 0.46060 0.70561
 H1622 H 0.88349 0.46553 0.73171
 H1623 H 0.89821 0.52474 0.73221
 H1624 H 0.91996 0.51956 0.70622
 C1625 C 0.96306 0.52256 0.85836
 C1626 C 0.97521 0.50818 0.86473
 C1627 C 0.98713 0.51114 0.88013
 C1628 C 0.98715 0.52851 0.88958
 C1629 C 0.97497 0.54287 0.88323
 C1630 C 0.96310 0.53995 0.86779
 C1631 C 0.95040 0.51944 0.84202
 N1632 N 0.93935 0.53361 0.83526
 N1633 N 0.92789 0.53078 0.82066
 C1634 C 0.92696 0.51366 0.81220
 N1635 N 0.93802 0.49950 0.81895
 N1636 N 0.94951 0.50233 0.83353
 C1637 C 0.91394 0.51045 0.79616
 C1638 C 0.91205 0.49246 0.78820
 C1639 C 0.89936 0.48938 0.77346
 C1640 C 0.88773 0.50403 0.76651
 C1641 C 0.89062 0.52231 0.77384
 C1642 C 0.90328 0.52538 0.78862
 H1643 H 0.97554 0.49461 0.85783
 H1644 H 0.99617 0.49968 0.88471
 H1645 H 0.97470 0.55649 0.89003
 H1646 H 0.95393 0.55135 0.86327
 H1647 H 0.92031 0.48068 0.79339
 H1648 H 0.89836 0.47534 0.76758
 H1649 H 0.88343 0.53447 0.76810
 H1650 H 0.90480 0.53955 0.79403
 C1651 C 0.46215 0.02293 0.35849
 C1652 C 0.47436 0.00863 0.36493
 C1653 C 0.48627 0.01170 0.38032
 C1654 C 0.48623 0.02912 0.38968
 C1655 C 0.47398 0.04340 0.38328
 C1656 C 0.46212 0.04036 0.36785
 C1657 C 0.44951 0.01966 0.34217
 N1658 N 0.43836 0.03373 0.33536
 N1659 N 0.42692 0.03077 0.32078
 C1660 C 0.42613 0.01362 0.31237
 N1661 N 0.43729 -0.00044 0.31916
 N1662 N 0.44875 0.00252 0.33374
 C1663 C 0.41313 0.01026 0.29634
 C1664 C 0.41141 -0.00776 0.28840
 C1665 C 0.39874 -0.01099 0.27367
 C1666 C 0.38694 0.00353 0.26672
 C1667 C 0.38967 0.02185 0.27403
 C1668 C 0.40231 0.02506 0.28879
 H1669 H 0.47475 -0.00498 0.35810
 H1670 H 0.49535 0.00030 0.38493
 H1671 H 0.47366 0.05705 0.39002
 H1672 H 0.45290 0.05170 0.36329
 H1673 H 0.41981 -0.01945 0.29360
 H1674 H 0.39787 -0.02505 0.26782
 H1675 H 0.38235 0.03394 0.26830
 H1676 H 0.40369 0.03926 0.29418
   
