data_POSCAR
  _audit_creation_date              2014-09-24
  _audit_creation_method            'ToBaCCo'
  _symmetry_space_group_name_H-M    'P1'
  _symmetry_Int_Tables_number       1
  _symmetry_cell_setting            triclinic
  loop_
  _symmetry_equiv_pos_as_xyz
 x,y,z
_cell_length_a 48.8271
_cell_length_b 47.8839
_cell_length_c 47.6982
_cell_angle_alpha 90.213600
_cell_angle_beta 90.200900
_cell_angle_gamma 90.162600
loop_
  _atom_site_label
  _atom_site_type_symbol
  _atom_site_fract_x
  _atom_site_fract_y
  _atom_site_fract_z
N1 N 0.38077 0.29767 0.33008
 N2 N 0.38214 0.31466 0.30850
 C3 C 0.40520 0.30913 0.29405
 C4 C 0.41898 0.28782 0.30760
 C5 C 0.40305 0.28123 0.33042
 H6 H 0.41165 0.31989 0.27529
 H7 H 0.40703 0.26506 0.34565
 Cu8 Cu 0.35392 0.34274 0.30202
 Cu9 Cu 0.34923 0.29612 0.35481
 Cu10 Cu 0.29829 0.34443 0.34273
 N11 N 0.32509 0.37046 0.29636
 N12 N 0.30263 0.36994 0.31150
 C13 C 0.28664 0.39162 0.30435
 C14 C 0.29989 0.40677 0.28383
 C15 C 0.32427 0.39284 0.27928
 H16 H 0.26767 0.39701 0.31463
 H17 H 0.34049 0.39910 0.26524
 N18 N 0.29522 0.31537 0.37154
 N19 N 0.31537 0.29790 0.37710
 C20 C 0.30824 0.28193 0.39909
 C21 C 0.28232 0.28970 0.40760
 C22 C 0.27459 0.31074 0.38961
 H23 H 0.32083 0.26573 0.40811
 H24 H 0.25559 0.32226 0.39022
 H25 H 0.32204 0.31236 0.32635
 H26 H 0.33980 0.33733 0.35062
 N27 N 0.37568 0.79583 -0.17514
 N28 N 0.37611 0.81327 -0.19637
 C29 C 0.39699 0.80653 -0.21342
 C30 C 0.41075 0.78400 -0.20189
 C31 C 0.39672 0.77786 -0.17756
 H32 H 0.40240 0.81792 -0.23209
 H33 H 0.40128 0.76125 -0.16296
 Cu34 Cu 0.35060 0.84433 -0.19830
 Cu35 Cu 0.34737 0.79735 -0.14640
 Cu36 Cu 0.30064 0.85176 -0.15088
 N37 N 0.32508 0.87537 -0.20024
 N38 N 0.30488 0.87744 -0.18217
 C39 C 0.28981 0.90009 -0.18828
 C40 C 0.30148 0.91324 -0.21117
 C41 C 0.32384 0.89703 -0.21815
 H42 H 0.27218 0.90685 -0.17642
 H43 H 0.33804 0.90077 -0.23506
 N44 N 0.29987 0.82368 -0.12080
 N45 N 0.31716 0.80255 -0.11952
 C46 C 0.31097 0.78681 -0.09706
 C47 C 0.28899 0.79886 -0.08346
 C48 C 0.28261 0.82224 -0.09888
 H49 H 0.32205 0.76840 -0.09060
 H50 H 0.26652 0.83704 -0.09439
 H51 H 0.31821 0.81757 -0.17030
 H52 H 0.34120 0.83994 -0.14836
 N53 N 0.87483 0.30119 -0.19188
 N54 N 0.86902 0.31840 -0.21247
 C55 C 0.88731 0.31493 -0.23319
 C56 C 0.90565 0.29465 -0.22512
 C57 C 0.89717 0.28626 -0.19878
 H58 H 0.88765 0.32669 -0.25250
 H59 H 0.90644 0.27050 -0.18565
 Cu60 Cu 0.83883 0.34451 -0.21048
 Cu61 Cu 0.85274 0.29930 -0.15799
 Cu62 Cu 0.80650 0.35287 -0.14900
 N63 N 0.81443 0.37569 -0.20372
 N64 N 0.80217 0.37936 -0.17951
 C65 C 0.78771 0.40326 -0.18033
 C66 C 0.79099 0.41505 -0.20654
 C67 C 0.80805 0.39692 -0.22090
 H68 H 0.77574 0.41150 -0.16316
 H69 H 0.81593 0.39928 -0.24191
 N70 N 0.80984 0.32171 -0.12243
 N71 N 0.82811 0.30165 -0.12540
 C72 C 0.82563 0.28362 -0.10391
 C73 C 0.80446 0.29251 -0.08702
 C74 C 0.79489 0.31671 -0.09933
 H75 H 0.83774 0.26495 -0.10117
 H76 H 0.77834 0.32973 -0.09196
 H77 H 0.81779 0.31810 -0.17307
 H78 H 0.84660 0.34118 -0.16054
 N79 N 0.87149 0.79890 0.31630
 N80 N 0.87315 0.82011 0.29894
 C81 C 0.89660 0.81838 0.28436
 C82 C 0.91010 0.79453 0.29237
 C83 C 0.89366 0.78246 0.31270
 H84 H 0.90327 0.83313 0.26867
 H85 H 0.89781 0.76363 0.32443
 Cu86 Cu 0.84394 0.84714 0.29525
 Cu87 Cu 0.84096 0.79542 0.34282
 Cu88 Cu 0.79595 0.85153 0.34483
 N89 N 0.81500 0.87469 0.29310
 N90 N 0.79585 0.87585 0.31232
 C91 C 0.77825 0.89645 0.30596
 C92 C 0.78713 0.90921 0.28172
 C93 C 0.81055 0.89486 0.27401
 H94 H 0.76069 0.90226 0.31844
 H95 H 0.82340 0.89877 0.25605
 N96 N 0.79891 0.82420 0.37520
 N97 N 0.81454 0.80176 0.37387
 C98 C 0.81050 0.78650 0.39729
 C99 C 0.79176 0.80041 0.41406
 C100 C 0.78507 0.82417 0.39951
 H101 H 0.82091 0.76720 0.40214
 H102 H 0.77068 0.84001 0.40604
 H103 H 0.81146 0.81890 0.32209
 H104 H 0.83693 0.83795 0.34449
 N105 N 0.63530 0.70988 0.31525
 N106 N 0.63033 0.68959 0.29728
 C107 C 0.60723 0.69528 0.28303
 C108 C 0.59729 0.72059 0.29259
 C109 C 0.61571 0.72942 0.31281
 H110 H 0.59846 0.68205 0.26691
 H111 H 0.61463 0.74832 0.32524
 Cu112 Cu 0.65490 0.65814 0.29369
 Cu113 Cu 0.66631 0.70858 0.34097
 Cu114 Cu 0.69149 0.64170 0.35058
 N115 N 0.68098 0.62779 0.29306
 N116 N 0.69568 0.62165 0.31533
 C117 C 0.71183 0.59974 0.30944
 C118 C 0.70682 0.59172 0.28209
 C119 C 0.68712 0.60991 0.27222
 H120 H 0.72572 0.58999 0.32415
 H121 H 0.67795 0.61010 0.25156
 N122 N 0.69574 0.67149 0.37858
 N123 N 0.68791 0.69743 0.37392
 C124 C 0.69522 0.71340 0.39593
 C125 C 0.70814 0.69659 0.41541
 C126 C 0.70798 0.67013 0.40387
 H127 H 0.69076 0.73542 0.39793
 H128 H 0.71669 0.65146 0.41290
 H129 H 0.69018 0.67555 0.32576
 H130 H 0.65730 0.66745 0.34392
 N131 N 0.62446 0.19203 -0.18376
 N132 N 0.62370 0.16746 -0.19621
 C133 C 0.60105 0.16564 -0.21226
 C134 C 0.58702 0.19049 -0.21022
 C135 C 0.60238 0.20685 -0.19190
 H136 H 0.59546 0.14777 -0.22500
 H137 H 0.59761 0.22771 -0.18470
 Cu138 Cu 0.65294 0.14042 -0.19222
 Cu139 Cu 0.65357 0.20217 -0.15708
 Cu140 Cu 0.70905 0.15758 -0.15582
 N141 N 0.68734 0.12081 -0.19754
 N142 N 0.70954 0.12835 -0.18382
 C143 C 0.73009 0.11091 -0.19031
 C144 C 0.72022 0.09119 -0.20891
 C145 C 0.69296 0.09816 -0.21330
 H146 H 0.75041 0.11174 -0.18122
 H147 H 0.67811 0.08732 -0.22624
 N148 N 0.70718 0.19129 -0.13271
 N149 N 0.68560 0.20781 -0.13176
 C150 C 0.68969 0.22703 -0.11129
 C151 C 0.71524 0.22229 -0.09938
 C152 C 0.72569 0.19978 -0.11364
 H153 H 0.67512 0.24289 -0.10524
 H154 H 0.74495 0.18953 -0.10936
 H155 H 0.68164 0.18016 -0.18014
 H156 H 0.66690 0.16301 -0.14839
 N157 N 0.12292 0.69869 -0.17332
 N158 N 0.12526 0.68506 -0.19717
 C159 C 0.10483 0.69331 -0.21447
 C160 C 0.08901 0.71278 -0.20016
 C161 C 0.10099 0.71542 -0.17422
 H162 H 0.10093 0.68487 -0.23517
 H163 H 0.09411 0.72846 -0.15707
 Cu164 Cu 0.15305 0.65559 -0.20040
 Cu165 Cu 0.14757 0.69374 -0.14210
 Cu166 Cu 0.20413 0.65182 -0.15244
 N167 N 0.18211 0.62756 -0.20343
 N168 N 0.20124 0.62577 -0.18398
 C169 C 0.21750 0.60384 -0.18966
 C170 C 0.20826 0.59119 -0.21404
 C171 C 0.18591 0.60691 -0.22238
 H172 H 0.23486 0.59763 -0.17702
 H173 H 0.17300 0.60305 -0.24046
 N174 N 0.20188 0.67963 -0.12184
 N175 N 0.18020 0.69565 -0.11845
 C176 C 0.18498 0.71394 -0.09760
 C177 C 0.21060 0.70885 -0.08684
 C178 C 0.22089 0.68687 -0.10251
 H179 H 0.17092 0.73003 -0.09087
 H180 H 0.24096 0.67756 -0.10055
 H181 H 0.18031 0.68335 -0.16870
 H182 H 0.16357 0.65313 -0.15055
 N183 N 0.11584 0.19124 0.31478
 N184 N 0.11897 0.17104 0.29635
 C185 C 0.09726 0.17076 0.27881
 C186 C 0.07991 0.19221 0.28642
 C187 C 0.09231 0.20479 0.30934
 H188 H 0.09443 0.15631 0.26155
 H189 H 0.08457 0.22218 0.32144
 Cu190 Cu 0.15153 0.14767 0.29638
 Cu191 Cu 0.14190 0.19774 0.34508
 Cu192 Cu 0.19616 0.15168 0.35044
 N193 N 0.18022 0.12007 0.30169
 N194 N 0.19709 0.12120 0.32322
 C195 C 0.21384 0.09889 0.32238
 C196 C 0.20736 0.08323 0.29888
 C197 C 0.18592 0.09725 0.28621
 H198 H 0.22966 0.09441 0.33763
 H199 H 0.17486 0.09091 0.26756
 N200 N 0.19150 0.18393 0.37591
 N201 N 0.17032 0.20095 0.37431
 C202 C 0.17161 0.21937 0.39569
 C203 C 0.19487 0.21400 0.41120
 C204 C 0.20708 0.19143 0.39810
 H205 H 0.15658 0.23534 0.40000
 H206 H 0.22529 0.18059 0.40495
 H207 H 0.17632 0.18091 0.32615
 H208 H 0.15432 0.15636 0.34661
 N209 N 0.62028 0.30282 0.68552
 N210 N 0.62472 0.31923 0.70720
 C211 C 0.60660 0.31324 0.72750
 C212 C 0.58976 0.29207 0.71794
 C213 C 0.59898 0.28591 0.69115
 H214 H 0.60532 0.32387 0.74749
 H215 H 0.59084 0.27054 0.67668
 Cu216 Cu 0.65261 0.34787 0.70608
 Cu217 Cu 0.64167 0.30582 0.65121
 Cu218 Cu 0.70302 0.34214 0.65924
 N219 N 0.67822 0.37808 0.70005
 N220 N 0.69911 0.37530 0.68295
 C221 C 0.71512 0.39820 0.68500
 C222 C 0.70311 0.41635 0.70401
 C223 C 0.67972 0.40302 0.71297
 H224 H 0.73382 0.40146 0.67335
 H225 H 0.66538 0.41055 0.72847
 N226 N 0.69581 0.31595 0.62797
 N227 N 0.67200 0.30328 0.62421
 C228 C 0.67280 0.28846 0.60018
 C229 C 0.69833 0.29182 0.58831
 C230 C 0.71244 0.30940 0.60647
 H231 H 0.65610 0.27597 0.59196
 H232 H 0.73296 0.31754 0.60389
 H233 H 0.67481 0.31327 0.67585
 H234 H 0.66194 0.34410 0.65607
 N235 N 0.63021 0.79050 1.18406
 N236 N 0.62696 0.81262 1.20012
 C237 C 0.60547 0.80831 1.21728
 C238 C 0.59481 0.78207 1.21150
 C239 C 0.61105 0.77137 1.19048
 H240 H 0.59808 0.82313 1.23261
 H241 H 0.60859 0.75138 1.18011
 Cu242 Cu 0.65155 0.84449 1.19667
 Cu243 Cu 0.65750 0.78874 1.15439
 Cu244 Cu 0.70041 0.84619 1.14747
 N245 N 0.67627 0.87629 1.19361
 N246 N 0.69604 0.87619 1.17494
 C247 C 0.71157 0.89921 1.17845
 C248 C 0.70080 0.91465 1.20034
 C249 C 0.67830 0.89966 1.20935
 H250 H 0.72935 0.90433 1.16600
 H251 H 0.66506 0.90497 1.22669
 N252 N 0.70154 0.81364 1.12192
 N253 N 0.68614 0.79122 1.12546
 C254 C 0.69209 0.77242 1.10531
 C255 C 0.71172 0.78374 1.08799
 C256 C 0.71736 0.80986 1.09912
 H257 H 0.68239 0.75222 1.10287
 H258 H 0.73207 0.82484 1.09132
 H259 H 0.68544 0.81536 1.17325
 H260 H 0.66062 0.83132 1.14822
 N261 N 0.12683 0.28554 1.19316
 N262 N 0.12090 0.30819 1.20752
 C263 C 0.09766 0.30365 1.22207
 C264 C 0.08889 0.27664 1.21643
 C265 C 0.10795 0.26578 1.19827
 H266 H 0.08785 0.31882 1.23552
 H267 H 0.10736 0.24535 1.18855
 Cu268 Cu 0.14406 0.34134 1.20535
 Cu269 Cu 0.15593 0.28439 1.16580
 Cu270 Cu 0.19913 0.34144 1.16215
 N271 N 0.17230 0.37011 1.20744
 N272 N 0.19319 0.37052 1.19011
 C273 C 0.20932 0.39256 1.19630
 C274 C 0.19798 0.40663 1.21883
 C275 C 0.17460 0.39176 1.22542
 H276 H 0.22826 0.39746 1.18571
 H277 H 0.16045 0.39630 1.24222
 N278 N 0.20178 0.30919 1.13645
 N279 N 0.18608 0.28689 1.13902
 C280 C 0.19257 0.26833 1.11894
 C281 C 0.21314 0.27945 1.10281
 C282 C 0.21866 0.30543 1.11443
 H283 H 0.18240 0.24853 1.11548
 H284 H 0.23356 0.32051 1.10725
 H285 H 0.18104 0.31249 1.18761
 H286 H 0.15939 0.32723 1.15874
 N287 N 0.13108 0.80214 0.67543
 N288 N 0.13083 0.81998 0.69647
 C289 C 0.10989 0.81362 0.71362
 C290 C 0.09634 0.79051 0.70267
 C291 C 0.11037 0.78379 0.67847
 H292 H 0.10505 0.82493 0.73262
 H293 H 0.10572 0.76695 0.66402
 Cu294 Cu 0.15773 0.85010 0.69937
 Cu295 Cu 0.15788 0.80488 0.64533
 Cu296 Cu 0.21768 0.83641 0.66808
 N297 N 0.18978 0.87385 0.70534
 N298 N 0.21333 0.86750 0.69369
 C299 C 0.23239 0.88618 0.70158
 C300 C 0.22018 0.90564 0.71875
 C301 C 0.19303 0.89725 0.72087
 H302 H 0.25347 0.88607 0.69464
 H303 H 0.17696 0.90727 0.73275
 N304 N 0.21554 0.81335 0.63406
 N305 N 0.19259 0.80199 0.62473
 C306 C 0.19742 0.78965 0.59983
 C307 C 0.22476 0.79379 0.59320
 C308 C 0.23555 0.80881 0.61533
 H309 H 0.18203 0.77905 0.58734
 H310 H 0.25627 0.81667 0.61723
 H311 H 0.18328 0.81214 0.67740
 H312 H 0.17866 0.84271 0.65358
 N313 N 0.36611 0.70429 0.68554
 N314 N 0.36564 0.68524 0.70534
 C315 C 0.38719 0.68927 0.72256
 C316 C 0.40213 0.71178 0.71282
 C317 C 0.38812 0.72095 0.68933
 H318 H 0.39187 0.67657 0.74066
 H319 H 0.39329 0.73854 0.67618
 Cu320 Cu 0.33714 0.65659 0.70649
 Cu321 Cu 0.33748 0.70590 0.65698
 Cu322 Cu 0.31129 0.64001 0.64321
 N323 N 0.31431 0.62355 0.70105
 N324 N 0.30519 0.61665 0.67598
 C325 C 0.29222 0.59188 0.67742
 C326 C 0.29277 0.58298 0.70492
 C327 C 0.30699 0.60359 0.71944
 H328 H 0.28316 0.58105 0.65972
 H329 H 0.31255 0.60351 0.74141
 N330 N 0.30874 0.67132 0.61645
 N331 N 0.31731 0.69682 0.62247
 C332 C 0.31051 0.71403 0.60135
 C333 C 0.29705 0.69853 0.58097
 C334 C 0.29644 0.67156 0.59112
 H335 H 0.31526 0.73610 0.60082
 H336 H 0.28692 0.65364 0.58119
 H337 H 0.30893 0.67450 0.66824
 H338 H 0.34403 0.66463 0.65642
 N339 N 0.37411 0.20287 1.19702
 N340 N 0.37092 0.18441 1.21707
 C341 C 0.39140 0.18739 1.23584
 C342 C 0.40846 0.20850 1.22679
 C343 C 0.39690 0.21798 1.20212
 H344 H 0.39422 0.17473 1.25433
 H345 H 0.40441 0.23470 1.18900
 Cu346 Cu 0.34176 0.15674 1.21522
 Cu347 Cu 0.34820 0.20616 1.16617
 Cu348 Cu 0.29666 0.15615 1.16160
 N349 N 0.31249 0.12928 1.21299
 N350 N 0.29591 0.12793 1.19123
 C351 C 0.27912 0.10570 1.19418
 C352 C 0.28553 0.09270 1.21926
 C353 C 0.30659 0.10828 1.23065
 H354 H 0.26325 0.09968 1.17946
 H355 H 0.31718 0.10410 1.25012
 N356 N 0.30090 0.18685 1.13417
 N357 N 0.32012 0.20620 1.13654
 C358 C 0.31684 0.22511 1.11602
 C359 C 0.29478 0.21727 1.09974
 C360 C 0.28505 0.19289 1.11175
 H361 H 0.32952 0.24341 1.11305
 H362 H 0.26737 0.18092 1.10510
 H363 H 0.31467 0.18724 1.18532
 H364 H 0.33793 0.16410 1.16476
 N365 N 0.86628 0.70604 1.18391
 N366 N 0.87220 0.68276 1.19715
 C367 C 0.89436 0.68688 1.21346
 C368 C 0.90274 0.71428 1.21037
 C369 C 0.88436 0.72593 1.19167
 H370 H 0.90349 0.67117 1.22673
 H371 H 0.88450 0.74710 1.18383
 Cu372 Cu 0.85019 0.64936 1.19291
 Cu373 Cu 0.83605 0.70831 1.15708
 Cu374 Cu 0.80615 0.64499 1.13949
 N375 N 0.82185 0.62093 1.19188
 N376 N 0.80388 0.61991 1.17132
 C377 C 0.78658 0.59849 1.17563
 C378 C 0.79431 0.58533 1.20017
 C379 C 0.81686 0.59992 1.20985
 H380 H 0.77020 0.59243 1.16152
 H381 H 0.82869 0.59560 1.22854
 N382 N 0.80261 0.67831 1.11620
 N383 N 0.81285 0.70288 1.12331
 C384 C 0.80715 0.72128 1.10274
 C385 C 0.79287 0.70731 1.08176
 C386 C 0.79039 0.68022 1.09101
 H387 H 0.81405 0.74276 1.10242
 H388 H 0.78076 0.66302 1.07997
 H389 H 0.81287 0.67398 1.16954
 H390 H 0.84280 0.66793 1.14596
 N391 N 0.87153 0.20250 0.68544
 N392 N 0.87078 0.18313 0.70490
 C393 C 0.89188 0.18722 0.72278
 C394 C 0.90666 0.21016 0.71383
 C395 C 0.89315 0.21936 0.69010
 H396 H 0.89628 0.17449 0.74092
 H397 H 0.89825 0.23735 0.67750
 Cu398 Cu 0.84231 0.15444 0.70482
 Cu399 Cu 0.84364 0.20585 0.65647
 Cu400 Cu 0.78989 0.15882 0.65913
 N401 N 0.81211 0.12762 0.70517
 N402 N 0.79137 0.13024 0.68774
 C403 C 0.77339 0.10943 0.69203
 C404 C 0.78338 0.09265 0.71305
 C405 C 0.80802 0.10476 0.72112
 H406 H 0.75466 0.10626 0.68027
 H407 H 0.82188 0.09745 0.73720
 N408 N 0.79201 0.18887 0.63140
 N409 N 0.81314 0.20597 0.62935
 C410 C 0.80918 0.22299 0.60725
 C411 C 0.78426 0.21623 0.59508
 C412 C 0.77393 0.19471 0.61093
 H413 H 0.82312 0.23928 0.60074
 H414 H 0.75480 0.18383 0.60737
 H415 H 0.81345 0.18814 0.68064
 H416 H 0.83184 0.16445 0.65581
 N417 N 0.29647 0.36663 0.68827
 N418 N 0.31827 0.37158 0.70383
 C419 C 0.31320 0.39356 0.72079
 C420 C 0.28676 0.40273 0.71563
 C421 C 0.27674 0.38505 0.69505
 H422 H 0.32760 0.40214 0.73581
 H423 H 0.25681 0.38612 0.68514
 Cu424 Cu 0.35137 0.34891 0.70075
 Cu425 Cu 0.29623 0.33855 0.65848
 Cu426 Cu 0.35113 0.29353 0.65694
 N427 N 0.37924 0.31970 0.70286
 N428 N 0.37827 0.29762 0.68643
 C429 C 0.39955 0.28081 0.69228
 C430 C 0.41489 0.29309 0.71337
 C431 C 0.40154 0.31783 0.71953
 H432 H 0.40413 0.26162 0.68126
 H433 H 0.40771 0.33332 0.73487
 N434 N 0.32183 0.29248 0.62875
 N435 N 0.30024 0.30896 0.62975
 C436 C 0.28417 0.30352 0.60730
 C437 C 0.29655 0.28284 0.59141
 C438 C 0.32034 0.27647 0.60555
 H439 H 0.26559 0.31464 0.60216
 H440 H 0.33568 0.26157 0.59903
 H441 H 0.32145 0.31315 0.68150
 H442 H 0.33785 0.33499 0.65352
 N443 N 0.30678 0.87364 0.18453
 N444 N 0.32931 0.87777 0.19921
 C445 C 0.32724 0.90192 0.21352
 C446 C 0.30187 0.91325 0.20799
 C447 C 0.28927 0.89474 0.18960
 H448 H 0.34289 0.91052 0.22717
 H449 H 0.26931 0.89688 0.17996
 Cu450 Cu 0.35880 0.85073 0.19926
 Cu451 Cu 0.30272 0.84180 0.15895
 Cu452 Cu 0.36377 0.80838 0.14413
 N453 N 0.38366 0.81907 0.19962
 N454 N 0.38524 0.80230 0.17782
 C455 C 0.40393 0.78242 0.18289
 C456 C 0.41477 0.78704 0.20920
 C457 C 0.40152 0.81053 0.21936
 H458 H 0.40967 0.76617 0.16824
 H459 H 0.40470 0.82069 0.23941
 N460 N 0.33199 0.80661 0.11935
 N461 N 0.30794 0.81738 0.12574
 C462 C 0.28991 0.81052 0.10530
 C463 C 0.30366 0.79498 0.08523
 C464 C 0.33020 0.79309 0.09473
 H465 H 0.26870 0.81696 0.10470
 H466 H 0.34687 0.78207 0.08477
 H467 H 0.33387 0.81544 0.17226
 H468 H 0.34305 0.84659 0.15079
 N469 N 0.79633 0.37719 0.18415
 N470 N 0.81973 0.38208 0.19692
 C471 C 0.81806 0.40656 0.21085
 C472 C 0.79217 0.41735 0.20654
 C473 C 0.77895 0.39816 0.18953
 H474 H 0.83452 0.41606 0.22279
 H475 H 0.75875 0.40005 0.18041
 Cu476 Cu 0.85026 0.35652 0.19293
 Cu477 Cu 0.79140 0.34678 0.15787
 Cu478 Cu 0.84299 0.29777 0.15353
 N479 N 0.87551 0.32550 0.19587
 N480 N 0.87265 0.30238 0.18113
 C481 C 0.89310 0.28472 0.18803
 C482 C 0.90954 0.29773 0.20801
 C483 C 0.89780 0.32348 0.21234
 H484 H 0.89610 0.26430 0.17880
 H485 H 0.90499 0.33956 0.22658
 N486 N 0.81029 0.29734 0.12854
 N487 N 0.78995 0.31511 0.13200
 C488 C 0.77070 0.31040 0.11237
 C489 C 0.77931 0.28906 0.09529
 C490 C 0.80456 0.28101 0.10604
 H491 H 0.75237 0.32269 0.10951
 H492 H 0.81786 0.26493 0.09788
 H493 H 0.81822 0.32012 0.17936
 H494 H 0.83267 0.33897 0.14833
 N495 N 0.79648 0.86624 0.68812
 N496 N 0.81689 0.86997 0.70583
 C497 C 0.81109 0.89185 0.72266
 C498 C 0.78568 0.90217 0.71490
 C499 C 0.77697 0.88530 0.69320
 H500 H 0.82470 0.90024 0.73853
 H501 H 0.75849 0.88781 0.68091
 Cu502 Cu 0.84983 0.84732 0.70283
 Cu503 Cu 0.79821 0.84057 0.65655
 Cu504 Cu 0.85891 0.80414 0.64818
 N505 N 0.88257 0.82433 0.69983
 N506 N 0.88651 0.80898 0.67727
 C507 C 0.91091 0.79626 0.67917
 C508 C 0.92273 0.80352 0.70440
 C509 C 0.90427 0.82139 0.71716
 H510 H 0.91915 0.78202 0.66372
 H511 H 0.90667 0.83168 0.73725
 N512 N 0.82822 0.80163 0.62149
 N513 N 0.80456 0.81424 0.62556
 C514 C 0.78745 0.80766 0.60434
 C515 C 0.80111 0.79013 0.58609
 C516 C 0.82685 0.78681 0.59749
 H517 H 0.76691 0.81567 0.60192
 H518 H 0.84328 0.77440 0.58888
 H519 H 0.82608 0.81300 0.67376
 H520 H 0.84016 0.84266 0.65290
 N521 N 0.69649 0.62518 0.68502
 N522 N 0.67824 0.62729 0.70508
 C523 C 0.67946 0.60437 0.72134
 C524 C 0.70006 0.58744 0.71122
 C525 C 0.71043 0.60123 0.68816
 H526 H 0.66695 0.60069 0.73964
 H527 H 0.72681 0.59429 0.67462
 Cu528 Cu 0.65623 0.66075 0.70886
 Cu529 Cu 0.70099 0.65371 0.65657
 Cu530 Cu 0.65326 0.70741 0.65654
 N531 N 0.62690 0.68781 0.70658
 N532 N 0.62503 0.70562 0.68572
 C533 C 0.60241 0.72136 0.68940
 C534 C 0.58966 0.71280 0.71392
 C535 C 0.60581 0.69160 0.72419
 H536 H 0.59601 0.73797 0.67557
 H537 H 0.60227 0.67965 0.74304
 N538 N 0.68029 0.70189 0.62592
 N539 N 0.69772 0.68082 0.62586
 C540 C 0.71252 0.68149 0.60215
 C541 C 0.70463 0.70435 0.58675
 C542 C 0.68415 0.71698 0.60235
 H543 H 0.72823 0.66664 0.59655
 H544 H 0.67267 0.73541 0.59670
 H545 H 0.68499 0.68831 0.67673
 H546 H 0.66012 0.66505 0.65841
 N547 N 0.70042 0.12487 0.18227
 N548 N 0.67913 0.12395 0.19902
 C549 C 0.68024 0.10028 0.21424
 C550 C 0.70366 0.08596 0.20678
 C551 C 0.71596 0.10215 0.18646
 H552 H 0.66518 0.09385 0.22949
 H553 H 0.73428 0.09724 0.17479
 Cu554 Cu 0.65204 0.15372 0.19896
 Cu555 Cu 0.70511 0.15351 0.15402
 Cu556 Cu 0.65418 0.20336 0.14900
 N557 N 0.62433 0.18278 0.19654
 N558 N 0.62460 0.20125 0.17621
 C559 C 0.60256 0.21791 0.17863
 C560 C 0.58798 0.20974 0.20193
 C561 C 0.60230 0.18736 0.21285
 H562 H 0.59766 0.23498 0.16472
 H563 H 0.59673 0.17503 0.23091
 N564 N 0.68601 0.20217 0.12370
 N565 N 0.70598 0.18387 0.12647
 C566 C 0.72488 0.18851 0.10652
 C567 C 0.71630 0.21056 0.09026
 C568 C 0.69162 0.21886 0.10176
 H569 H 0.74323 0.17631 0.10345
 H570 H 0.67873 0.23577 0.09471
 H571 H 0.68327 0.18479 0.17409
 H572 H 0.66361 0.16130 0.14988
 N573 N 0.19938 0.62199 0.17821
 N574 N 0.18328 0.62109 0.20022
 C575 C 0.18976 0.59845 0.21559
 C576 C 0.21078 0.58446 0.20214
 C577 C 0.21620 0.59981 0.17846
 H578 H 0.17941 0.59210 0.23454
 H579 H 0.23145 0.59524 0.16273
 Cu580 Cu 0.15427 0.64855 0.20566
 Cu581 Cu 0.19845 0.65243 0.15171
 Cu582 Cu 0.14599 0.70018 0.15787
 N583 N 0.12251 0.67321 0.20592
 N584 N 0.11980 0.69374 0.18789
 C585 C 0.09647 0.70764 0.19338
 C586 C 0.08375 0.69497 0.21591
 C587 C 0.10072 0.67311 0.22322
 H588 H 0.08901 0.72524 0.18148
 H589 H 0.09746 0.65835 0.23999
 N590 N 0.17463 0.70291 0.12889
 N591 N 0.19464 0.68458 0.12683
 C592 C 0.21096 0.69166 0.10537
 C593 C 0.20074 0.71559 0.09317
 C594 C 0.17761 0.72212 0.10848
 H595 H 0.22869 0.67992 0.09882
 H596 H 0.16393 0.73945 0.10483
 H597 H 0.17928 0.68208 0.17695
 H598 H 0.15636 0.65863 0.15575
 N599 N 0.19551 0.12335 0.68738
 N600 N 0.17372 0.12302 0.70350
 C601 C 0.17517 0.10102 0.72089
 C602 C 0.19932 0.08714 0.71577
 C603 C 0.21180 0.10177 0.69432
 H604 H 0.15998 0.09559 0.73640
 H605 H 0.23087 0.09669 0.68408
 Cu606 Cu 0.14611 0.15193 0.70128
 Cu607 Cu 0.20013 0.15085 0.65772
 Cu608 Cu 0.14956 0.20135 0.65143
 N609 N 0.11895 0.18120 0.69835
 N610 N 0.12017 0.20043 0.67878
 C611 C 0.09959 0.21872 0.68254
 C612 C 0.08488 0.21041 0.70581
 C613 C 0.09764 0.18660 0.71523
 H614 H 0.09612 0.23705 0.66986
 H615 H 0.09205 0.17450 0.73343
 N616 N 0.18101 0.19884 0.62593
 N617 N 0.20076 0.18029 0.62892
 C618 C 0.21975 0.18465 0.60899
 C619 C 0.21137 0.20672 0.59261
 C620 C 0.18677 0.21529 0.60387
 H621 H 0.23818 0.17248 0.60624
 H622 H 0.17428 0.23250 0.59678
 H623 H 0.17834 0.18253 0.67706
 H624 H 0.15895 0.15926 0.65248
 N625 N 0.29927 0.62744 0.30722
 N626 N 0.32072 0.62695 0.29059
 C627 C 0.31952 0.60374 0.27455
 C628 C 0.29632 0.58880 0.28180
 C629 C 0.28389 0.60450 0.30256
 H630 H 0.33424 0.59820 0.25859
 H631 H 0.26464 0.60012 0.31283
 Cu632 Cu 0.34750 0.65741 0.29092
 Cu633 Cu 0.29178 0.65905 0.33196
 Cu634 Cu 0.35011 0.69658 0.34912
 N635 N 0.37550 0.68632 0.29595
 N636 N 0.37565 0.70199 0.31865
 C637 C 0.39633 0.72048 0.31728
 C638 C 0.41010 0.71618 0.29252
 C639 C 0.39646 0.69425 0.27936
 H640 H 0.40119 0.73573 0.33335
 H641 H 0.40123 0.68504 0.25924
 N642 N 0.31642 0.69814 0.37123
 N643 N 0.29368 0.68492 0.36414
 C644 C 0.27387 0.69178 0.38250
 C645 C 0.28482 0.71014 0.40202
 C646 C 0.31182 0.71373 0.39420
 H647 H 0.25312 0.68384 0.38190
 H648 H 0.32691 0.72716 0.40401
 H649 H 0.32054 0.68934 0.31977
 H650 H 0.33202 0.65786 0.33954
 N651 N 0.29486 0.13302 0.82013
 N652 N 0.31654 0.12870 0.80442
 C653 C 0.31184 0.10630 0.78782
 C654 C 0.28574 0.09639 0.79343
 C655 C 0.27560 0.11387 0.81388
 H656 H 0.32615 0.09811 0.77263
 H657 H 0.25574 0.11247 0.82375
 Cu658 Cu 0.34858 0.15311 0.80658
 Cu659 Cu 0.29320 0.16232 0.84827
 Cu660 Cu 0.34384 0.21212 0.84533
 N661 N 0.37468 0.18385 0.80290
 N662 N 0.37170 0.20720 0.81713
 C663 C 0.39169 0.22516 0.81020
 C664 C 0.40836 0.21239 0.79090
 C665 C 0.39707 0.18611 0.78656
 H666 H 0.39433 0.24585 0.81897
 H667 H 0.40432 0.17009 0.77240
 N668 N 0.31424 0.21343 0.87278
 N669 N 0.29535 0.19382 0.87471
 C670 C 0.27937 0.19933 0.89702
 C671 C 0.28880 0.22366 0.90950
 C672 C 0.31071 0.23211 0.89355
 H673 H 0.26240 0.18650 0.90379
 H674 H 0.32371 0.25002 0.89752
 H675 H 0.31610 0.18769 0.82273
 H676 H 0.33462 0.17019 0.85250
 N677 N 0.81318 0.62247 0.81269
 N678 N 0.83779 0.61803 0.80254
 C679 C 0.83745 0.59463 0.78685
 C680 C 0.81118 0.58399 0.78695
 C681 C 0.79623 0.60212 0.80358
 H682 H 0.85496 0.58606 0.77602
 H683 H 0.77490 0.60019 0.80933
 Cu684 Cu 0.86789 0.64346 0.80985
 Cu685 Cu 0.80596 0.65273 0.83908
 Cu686 Cu 0.85641 0.70322 0.84533
 N687 N 0.89228 0.67527 0.80684
 N688 N 0.88751 0.69898 0.81990
 C689 C 0.90715 0.71754 0.81292
 C690 C 0.92510 0.70456 0.79456
 C691 C 0.91509 0.67779 0.79134
 H692 H 0.90841 0.73870 0.82084
 H693 H 0.92360 0.66145 0.77832
 N694 N 0.82288 0.70325 0.86847
 N695 N 0.80309 0.68466 0.86510
 C696 C 0.78324 0.68973 0.88397
 C697 C 0.79107 0.71221 0.90030
 C698 C 0.81629 0.72040 0.88988
 H699 H 0.76494 0.67723 0.88655
 H700 H 0.82898 0.73735 0.89750
 H701 H 0.83338 0.67858 0.81857
 H702 H 0.84582 0.66159 0.85166
 N703 N 0.79183 0.12610 0.31285
 N704 N 0.81401 0.12413 0.29743
 C705 C 0.81092 0.10297 0.27902
 C706 C 0.78537 0.09114 0.28320
 C707 C 0.77378 0.10639 0.30468
 H708 H 0.82610 0.09676 0.26378
 H709 H 0.75397 0.10290 0.31416
 Cu710 Cu 0.84487 0.14934 0.30269
 Cu711 Cu 0.78931 0.15228 0.34395
 Cu712 Cu 0.83591 0.20660 0.34306
 N713 N 0.86878 0.18165 0.29991
 N714 N 0.86454 0.20432 0.31490
 C715 C 0.88341 0.22365 0.30816
 C716 C 0.90048 0.21244 0.28809
 C717 C 0.89065 0.18571 0.28327
 H718 H 0.88495 0.24422 0.31749
 H719 H 0.89855 0.17049 0.26859
 N720 N 0.80550 0.20460 0.37005
 N721 N 0.78728 0.18418 0.36996
 C722 C 0.76957 0.18825 0.39116
 C723 C 0.77736 0.21203 0.40556
 C724 C 0.80013 0.22198 0.39158
 H725 H 0.75285 0.17440 0.39645
 H726 H 0.81210 0.24028 0.39691
 H727 H 0.81002 0.18094 0.32013
 H728 H 0.83003 0.16464 0.34927
 N729 N 0.70421 0.37578 0.30934
 N730 N 0.68138 0.37790 0.29485
 C731 C 0.68343 0.39966 0.27717
 C732 C 0.70894 0.41173 0.28098
 C733 C 0.72162 0.39603 0.30138
 H734 H 0.66770 0.40610 0.26259
 H735 H 0.74184 0.39942 0.31008
 Cu736 Cu 0.65201 0.35129 0.30052
 Cu737 Cu 0.70917 0.34801 0.33859
 Cu738 Cu 0.65631 0.29990 0.34766
 N739 N 0.62303 0.32391 0.30402
 N740 N 0.62530 0.30289 0.32154
 C741 C 0.60339 0.28593 0.31837
 C742 C 0.58656 0.29730 0.29799
 C743 C 0.59950 0.32136 0.28950
 H744 H 0.59980 0.26706 0.33022
 H745 H 0.59248 0.33553 0.27342
 N746 N 0.68961 0.30096 0.37158
 N747 N 0.71001 0.31861 0.36723
 C748 C 0.72939 0.31473 0.38690
 C749 C 0.72071 0.29409 0.40477
 C750 C 0.69543 0.28563 0.39452
 H751 H 0.74805 0.32679 0.38889
 H752 H 0.68219 0.26980 0.40328
 H753 H 0.68385 0.31799 0.32080
 H754 H 0.66813 0.34130 0.34765
 N755 N 0.70796 0.86076 0.80802
 N756 N 0.68660 0.86890 0.79339
 C757 C 0.69257 0.89320 0.78068
 C758 C 0.71920 0.90052 0.78782
 C759 C 0.72838 0.87937 0.80495
 H760 H 0.67850 0.90468 0.76755
 H761 H 0.74822 0.87794 0.81503
 Cu762 Cu 0.65321 0.84678 0.79255
 Cu763 Cu 0.70704 0.82726 0.83072
 Cu764 Cu 0.64207 0.80140 0.84466
 N765 N 0.62421 0.81906 0.79004
 N766 N 0.61911 0.80173 0.81073
 C767 C 0.59699 0.78612 0.80398
 C768 C 0.58809 0.79404 0.77749
 C769 C 0.60589 0.81486 0.76933
 H770 H 0.58823 0.77020 0.81727
 H771 H 0.60522 0.82647 0.74993
 N772 N 0.67401 0.79468 0.86942
 N773 N 0.69890 0.80323 0.86287
 C774 C 0.71626 0.79674 0.88373
 C775 C 0.70167 0.78356 0.90465
 C776 C 0.67492 0.78252 0.89488
 H777 H 0.73756 0.80292 0.88434
 H778 H 0.65732 0.77431 0.90587
 H779 H 0.67189 0.80612 0.81680
 H780 H 0.66733 0.83679 0.84053
 N781 N 0.19920 0.37108 0.82029
 N782 N 0.17874 0.37170 0.80228
 C783 C 0.18117 0.39462 0.78618
 C784 C 0.20462 0.40879 0.79409
 C785 C 0.21565 0.39328 0.81580
 H786 H 0.16686 0.40079 0.77001
 H787 H 0.23359 0.39844 0.82815
 Cu788 Cu 0.15055 0.34278 0.80157
 Cu789 Cu 0.20141 0.34298 0.84986
 Cu790 Cu 0.14977 0.29319 0.85110
 N791 N 0.12176 0.31445 0.80281
 N792 N 0.12114 0.29577 0.82291
 C793 C 0.09858 0.27979 0.81997
 C794 C 0.08451 0.28859 0.79654
 C795 C 0.09973 0.31066 0.78607
 H796 H 0.09283 0.26291 0.83377
 H797 H 0.09470 0.32341 0.76811
 N798 N 0.18032 0.29362 0.87800
 N799 N 0.19979 0.31281 0.87810
 C800 C 0.21691 0.30781 0.89981
 C801 C 0.20771 0.28424 0.91370
 C802 C 0.18471 0.27576 0.89922
 H803 H 0.23481 0.32017 0.90498
 H804 H 0.17195 0.25797 0.90414
 H805 H 0.18080 0.31219 0.82826
 H806 H 0.15994 0.33547 0.85125
 N807 N 0.19438 0.87078 0.31220
 N808 N 0.17190 0.87217 0.29697
 C809 C 0.17200 0.89591 0.28204
 C810 C 0.19603 0.91002 0.28770
 C811 C 0.20996 0.89347 0.30685
 H812 H 0.15583 0.90236 0.26794
 H813 H 0.22941 0.89803 0.31682
 Cu814 Cu 0.14465 0.84267 0.29725
 Cu815 Cu 0.19985 0.84020 0.33915
 Cu816 Cu 0.13673 0.81407 0.36007
 N817 N 0.11394 0.81821 0.30493
 N818 N 0.11035 0.80791 0.33014
 C819 C 0.08702 0.79297 0.33057
 C820 C 0.07575 0.79342 0.30403
 C821 C 0.09329 0.80971 0.28818
 H822 H 0.07919 0.78205 0.34868
 H823 H 0.09105 0.81530 0.26634
 N824 N 0.17042 0.80982 0.38225
 N825 N 0.19488 0.81807 0.37384
 C826 C 0.21373 0.80937 0.39265
 C827 C 0.20019 0.79499 0.41373
 C828 C 0.17292 0.79587 0.40647
 H829 H 0.23548 0.81341 0.39120
 H830 H 0.15615 0.78632 0.41770
 H831 H 0.16734 0.81207 0.33081
 H832 H 0.16034 0.84734 0.34578
 C833 C 0.25113 1.02183 0.23107
 C834 C 0.23309 1.02208 0.25419
 C835 C 0.22620 0.99678 0.26730
 C836 C 0.23682 0.97126 0.25761
 C837 C 0.25463 0.97108 0.23440
 C838 C 0.26154 0.99635 0.22131
 H839 H 0.27517 0.99617 0.20340
 H840 H 0.21229 0.99691 0.28496
 C841 C 0.26650 0.52377 0.75199
 C842 C 0.24568 0.52194 0.77243
 C843 C 0.23707 0.49557 0.78177
 C844 C 0.24899 0.47088 0.77147
 C845 C 0.27040 0.47270 0.75166
 C846 C 0.27879 0.49906 0.74213
 H847 H 0.29545 0.50034 0.72721
 H848 H 0.22135 0.49427 0.79772
 C849 C 0.77422 -0.02716 0.23863
 C850 C 0.74944 -0.02660 0.22337
 C851 C 0.73729 -0.00074 0.21725
 C852 C 0.74972 0.02437 0.22595
 C853 C 0.77433 0.02353 0.24161
 C854 C 0.78655 -0.00219 0.24732
 H855 H 0.80526 -0.00286 0.25963
 H856 H 0.71899 -0.00007 0.20435
 C857 C 0.76953 0.47590 0.74911
 C858 C 0.74893 0.47638 0.72834
 C859 C 0.73702 0.50195 0.72083
 C860 C 0.74599 0.52702 0.73309
 C861 C 0.76673 0.52659 0.75372
 C862 C 0.77801 0.50090 0.76185
 H863 H 0.79349 0.50029 0.77818
 H864 H 0.72148 0.50246 0.70456
 C865 C 0.25724 0.46987 0.26160
 C866 C 0.23876 0.47208 0.23895
 C867 C 0.23013 0.49847 0.23007
 C868 C 0.23903 0.52282 0.24392
 C869 C 0.25788 0.52065 0.26632
 C870 C 0.26681 0.49421 0.27498
 H871 H 0.28098 0.49255 0.29244
 H872 H 0.21554 0.49992 0.21295
 C873 C 0.76719 1.02300 0.74885
 C874 C 0.73954 1.02279 0.75788
 C875 C 0.72613 0.99727 0.76183
 C876 C 0.73980 0.97190 0.75829
 C877 C 0.76752 0.97200 0.74945
 C878 C 0.78102 0.99759 0.74557
 H879 H 0.80202 0.99769 0.73823
 H880 H 0.70502 0.99718 0.76889
 C881 C 0.74364 0.52823 0.22050
 C882 C 0.71872 0.52903 0.23523
 C883 C 0.70617 0.50420 0.24367
 C884 C 0.71862 0.47847 0.23855
 C885 C 0.74353 0.47745 0.22358
 C886 C 0.75585 0.50239 0.21471
 H887 H 0.77441 0.50166 0.20233
 H888 H 0.68742 0.50503 0.25578
 C889 C 0.26131 -0.02387 0.76629
 C890 C 0.23683 -0.02283 0.75045
 C891 C 0.22799 0.00276 0.73968
 C892 C 0.24333 0.02732 0.74390
 C893 C 0.26791 0.02616 0.75964
 C894 C 0.27684 0.00051 0.77028
 H895 H 0.29527 -0.00023 0.78301
 H896 H 0.20965 0.00328 0.72681
 C897 C 0.24838 0.26548 1.03272
 C898 C 0.25840 0.23772 1.03150
 C899 C 0.26166 0.22476 1.00539
 C900 C 0.25627 0.23913 0.98047
 C901 C 0.24621 0.26684 0.98161
 C902 C 0.24311 0.27990 1.00773
 H903 H 0.23488 0.30090 1.00867
 H904 H 0.26968 0.20368 1.00439
 C905 C 0.24423 0.76240 0.52215
 C906 C 0.26758 0.74505 0.52299
 C907 C 0.28021 0.73740 0.49775
 C908 C 0.27001 0.74650 0.47184
 C909 C 0.24702 0.76437 0.47096
 C910 C 0.23424 0.77178 0.49631
 H911 H 0.21682 0.78576 0.49621
 H912 H 0.29813 0.72406 0.49824
 C913 C 0.26392 0.75439 -0.02211
 C914 C 0.24888 0.72925 -0.02051
 C915 C 0.23923 0.72001 0.00544
 C916 C 0.24407 0.73551 0.02990
 C917 C 0.25951 0.76039 0.02864
 C918 C 0.26899 0.76977 0.00250
 H919 H 0.28115 0.78871 0.00146
 H920 H 0.22757 0.70073 0.00657
 C921 C 0.26097 0.25649 0.47689
 C922 C 0.23655 0.24079 0.47416
 C923 C 0.22094 0.23515 0.49816
 C924 C 0.22967 0.24412 0.52472
 C925 C 0.25400 0.25992 0.52747
 C926 C 0.26953 0.26571 0.50345
 H927 H 0.28791 0.27835 0.50525
 H928 H 0.20269 0.22229 0.49642
 C929 C 0.74754 0.77127 1.01774
 C930 C 0.76988 0.75276 1.02026
 C931 C 0.78246 0.74247 0.99590
 C932 C 0.77254 0.74925 0.96919
 C933 C 0.74913 0.76642 0.96667
 C934 C 0.73728 0.77773 0.99103
 H935 H 0.72020 0.79203 0.98920
 H936 H 0.80026 0.72909 0.99777
 C937 C 0.74366 0.26720 0.52724
 C938 C 0.76916 0.25335 0.52608
 C939 C 0.78015 0.24577 0.50010
 C940 C 0.76555 0.25016 0.47520
 C941 C 0.73964 0.26340 0.47624
 C942 C 0.72896 0.27164 0.50225
 H943 H 0.70971 0.28284 0.50282
 H944 H 0.79970 0.23508 0.49936
 C945 C 0.75718 0.26808 -0.02798
 C946 C 0.73062 0.25624 -0.02843
 C947 C 0.71858 0.24787 -0.00322
 C948 C 0.73293 0.24955 0.02226
 C949 C 0.75997 0.26058 0.02264
 C950 C 0.77180 0.26947 -0.00258
 H951 H 0.79194 0.27907 -0.00214
 H952 H 0.69822 0.23874 -0.00360
 C953 C 0.76131 0.75936 0.47522
 C954 C 0.73891 0.74072 0.47450
 C955 C 0.72520 0.73402 0.49946
 C956 C 0.73299 0.74624 0.52508
 C957 C 0.75542 0.76491 0.52580
 C958 C 0.76938 0.77122 0.50087
 H959 H 0.78660 0.78555 0.50138
 H960 H 0.70760 0.72018 0.49882
 C961 C 1.01823 0.23384 0.25976
 C962 C 1.01740 0.25855 0.24364
 C963 C 0.99243 0.26749 0.23225
 C964 C 0.96812 0.25229 0.23652
 C965 C 0.96899 0.22779 0.25298
 C966 C 0.99407 0.21849 0.26385
 H967 H 0.99449 0.20008 0.27702
 H968 H 0.99217 0.28593 0.21912
 C969 C 0.52684 0.23009 0.75639
 C970 C 0.52501 0.25099 0.73564
 C971 C 0.49935 0.25937 0.72564
 C972 C 0.47523 0.24705 0.73553
 C973 C 0.47700 0.22482 0.75487
 C974 C 0.50271 0.21666 0.76519
 H975 H 0.50376 0.20051 0.78101
 H976 H 0.49817 0.27528 0.70955
 C977 C -0.02548 0.26386 0.75318
 C978 C -0.02677 0.25091 0.72645
 C979 C -0.00265 0.24713 0.71117
 C980 C 0.02274 0.25496 0.72236
 C981 C 0.02419 0.26815 0.74881
 C982 C -0.00001 0.27218 0.76411
 H983 H 0.00080 0.28286 0.78418
 H984 H -0.00346 0.23648 0.69106
 C985 C 0.47864 0.25780 0.26540
 C986 C 0.47909 0.23945 0.24218
 C987 C 0.50393 0.22765 0.23361
 C988 C 0.52838 0.23320 0.24825
 C989 C 0.52792 0.25132 0.27166
 C990 C 0.50306 0.26345 0.27995
 H991 H 0.50291 0.27803 0.29740
 H992 H 0.50413 0.21347 0.21582
 C993 C 1.03115 0.74857 0.75944
 C994 C 1.03104 0.77335 0.74349
 C995 C 1.00632 0.78740 0.73891
 C996 C 0.98156 0.77739 0.74995
 C997 C 0.98162 0.75322 0.76681
 C998 C 1.00644 0.73896 0.77112
 H999 H 1.00665 0.72038 0.78400
 H1000 H 1.00631 0.80635 0.72652
 C1001 C 0.52783 0.73825 0.26006
 C1002 C 0.52792 0.76614 0.25022
 C1003 C 0.50299 0.78005 0.24671
 C1004 C 0.47803 0.76614 0.25059
 C1005 C 0.47792 0.73787 0.25916
 C1006 C 0.50287 0.72424 0.26362
 H1007 H 0.50283 0.70282 0.27098
 H1008 H 0.50298 0.80134 0.23900
 C1009 C -0.02972 0.75067 0.26571
 C1010 C -0.02849 0.72842 0.24622
 C1011 C -0.00318 0.72057 0.23482
 C1012 C 0.02082 0.73547 0.24128
 C1013 C 0.01964 0.75790 0.26049
 C1014 C -0.00554 0.76505 0.27272
 H1015 H -0.00633 0.78206 0.28774
 H1016 H -0.00238 0.70362 0.21970
 C1017 C 0.46990 0.76243 0.75252
 C1018 C 0.47063 0.74892 0.72621
 C1019 C 0.49598 0.74279 0.71397
 C1020 C 0.52064 0.74822 0.72827
 C1021 C 0.51980 0.76051 0.75542
 C1022 C 0.49437 0.76733 0.76720
 H1023 H 0.49373 0.77798 0.78730
 H1024 H 0.49647 0.73257 0.69365
 C1025 C 0.44490 0.27432 0.29986
 C1026 C 0.45323 0.27262 0.27327
 H1027 H 0.45652 0.26402 0.31621
 H1028 H 0.44029 0.28063 0.25666
 C1029 C 0.43430 0.77067 0.78829
 C1030 C 0.44426 0.77522 0.76259
 H1031 H 0.44437 0.75565 0.80177
 H1032 H 0.43307 0.78791 0.74774
 C1033 C -0.07073 0.28519 0.75843
 C1034 C -0.05016 0.27062 0.76964
 H1035 H -0.06955 0.29173 0.73674
 H1036 H -0.04999 0.26610 0.79186
 C1037 C -0.06324 0.78554 0.28132
 C1038 C -0.05588 0.75876 0.27924
 H1039 H -0.05015 0.80153 0.27246
 H1040 H -0.07007 0.74251 0.28551
 C1041 C 0.57243 0.73538 0.28382
 C1042 C 0.55315 0.72334 0.26784
 H1043 H 0.56957 0.75653 0.29140
 H1044 H 0.55477 0.70151 0.26211
 C1045 C 0.56088 0.19703 0.77572
 C1046 C 0.55345 0.22321 0.76984
 H1047 H 0.54802 0.17976 0.76903
 H1048 H 0.56747 0.24011 0.77463
 C1049 C 1.06323 0.72635 0.79183
 C1050 C 1.05690 0.73337 0.76556
 H1051 H 1.04976 0.73268 0.80871
 H1052 H 1.07137 0.72944 0.74887
 C1053 C 1.05382 0.19971 0.27280
 C1054 C 1.04357 0.22552 0.27460
 H1055 H 1.04362 0.18419 0.25985
 H1056 H 1.05506 0.24169 0.28544
 C1057 C 0.56646 0.27999 0.73320
 C1058 C 0.54933 0.26181 0.72115
 H1059 H 0.56287 0.28679 0.75457
 H1060 H 0.55170 0.25611 0.69933
 C1061 C 0.57081 0.76798 0.22358
 C1062 C 0.55316 0.78057 0.24087
 H1063 H 0.56692 0.74668 0.21689
 H1064 H 0.55561 0.80250 0.24590
 C1065 C 1.06429 0.26178 0.22593
 C1066 C 1.04246 0.27458 0.23679
 H1067 H 1.06354 0.23944 0.22223
 H1068 H 1.04187 0.29716 0.23809
 C1069 C 1.07199 0.77594 0.71363
 C1070 C 1.05647 0.78692 0.73384
 H1071 H 1.06611 0.75622 0.70411
 H1072 H 1.06095 0.80757 0.74198
 C1073 C 0.42712 0.72331 0.72586
 C1074 C 0.44520 0.73926 0.71211
 H1075 H 0.43138 0.71739 0.74735
 H1076 H 0.44257 0.74322 0.68992
 C1077 C 0.43346 0.21830 0.24098
 C1078 C 0.45376 0.23114 0.22734
 H1079 H 0.43579 0.21374 0.26311
 H1080 H 0.45287 0.23346 0.20478
 C1081 C -0.07359 0.72831 0.22344
 C1082 C -0.05329 0.71410 0.23575
 H1083 H -0.07215 0.75083 0.22166
 H1084 H -0.05332 0.69149 0.23541
 C1085 C -0.06872 0.22216 0.72724
 C1086 C -0.05248 0.24029 0.71391
 H1087 H -0.06325 0.21510 0.74807
 H1088 H -0.05657 0.24554 0.69224
 C1089 C 0.29161 0.43385 0.27195
 C1090 C 0.26554 0.44230 0.27234
 H1091 H 0.30715 0.44697 0.26254
 H1092 H 0.24961 0.42845 0.27982
 C1093 C 0.29338 -0.06218 0.77554
 C1094 C 0.26951 -0.04962 0.78092
 H1095 H 0.30660 -0.05354 0.75953
 H1096 H 0.25471 -0.05903 0.79488
 C1097 C 0.77973 0.44023 0.78438
 C1098 C 0.78208 0.44938 0.75799
 H1099 H 0.76812 0.45252 0.79931
 H1100 H 0.79196 0.43682 0.74209
 C1101 C 0.77507 -0.06759 0.26922
 C1102 C 0.78650 -0.05353 0.24807
 H1103 H 0.75613 -0.05983 0.27815
 H1104 H 0.80630 -0.05929 0.23977
 C1105 C 0.28215 0.55607 0.71520
 C1106 C 0.27694 0.55122 0.74228
 H1107 H 0.27772 0.54001 0.69977
 H1108 H 0.27927 0.56794 0.75747
 C1109 C 0.27332 1.06774 0.23214
 C1110 C 0.26046 1.04785 0.21737
 H1111 H 0.27663 1.06474 0.25441
 H1112 H 0.25939 1.04922 0.19473
 C1113 C 0.78233 0.56012 0.21254
 C1114 C 0.75581 0.55406 0.20926
 H1115 H 0.79530 0.54671 0.22509
 H1116 H 0.74237 0.56879 0.19893
 C1117 C 0.76975 1.06727 0.72331
 C1118 C 0.78163 1.04891 0.74050
 H1119 H 0.74927 1.06310 0.71550
 H1120 H 0.80285 1.05159 0.74661
 C1121 C 0.71924 0.56788 0.26770
 C1122 C 0.70740 0.55542 0.24570
 H1123 H 0.73764 0.55897 0.27675
 H1124 H 0.68782 0.56244 0.23771
 C1125 C 0.73500 1.06834 0.78125
 C1126 C 0.72410 1.04836 0.76497
 H1127 H 0.75603 1.06629 0.78827
 H1128 H 0.70265 1.04904 0.75919
 C1129 C 0.21963 0.56626 0.77186
 C1130 C 0.23390 0.54702 0.78601
 H1131 H 0.21560 0.56329 0.74969
 H1132 H 0.23590 0.54872 0.80858
 C1133 C 0.22015 1.05678 0.29010
 C1134 C 0.21984 1.04830 0.26335
 H1135 H 0.23099 1.04463 0.30569
 H1136 H 0.21117 1.06168 0.24736
 C1137 C 0.71286 0.44364 0.71407
 C1138 C 0.73941 0.45027 0.71483
 H1139 H 0.69801 0.45764 0.72337
 H1140 H 0.75450 0.43522 0.70793
 C1141 C 0.71132 -0.05899 0.21227
 C1142 C 0.73799 -0.05270 0.21140
 H1143 H 0.69721 -0.04529 0.22309
 H1144 H 0.75226 -0.06775 0.20284
 C1145 C 0.20859 0.43140 0.23382
 C1146 C 0.22881 0.44722 0.22364
 H1147 H 0.19921 0.43705 0.25360
 H1148 H 0.23759 0.44282 0.20331
 C1149 C 0.23426 -0.06984 0.73056
 C1150 C 0.22138 -0.04832 0.74250
 H1151 H 0.25623 -0.06875 0.72754
 H1152 H 0.19921 -0.04795 0.74333
 C1153 C 0.26609 0.27882 0.43106
 C1154 C 0.27740 0.26489 0.45238
 H1155 H 0.24445 0.28379 0.43160
 H1156 H 0.29939 0.26215 0.45337
 C1157 C 0.27589 0.78998 -0.05725
 C1158 C 0.27630 0.76339 -0.04887
 H1159 H 0.26499 0.80549 -0.04505
 H1160 H 0.28508 0.74754 -0.06235
 C1161 C 0.79424 0.27869 -0.06158
 C1162 C 0.76831 0.28178 -0.05327
 H1163 H 0.80783 0.26483 -0.05030
 H1164 H 0.75418 0.29360 -0.06613
 C1165 C 0.78055 0.79275 0.44161
 C1166 C 0.77651 0.76628 0.44926
 H1167 H 0.77280 0.80944 0.45476
 H1168 H 0.78168 0.74952 0.43491
 C1169 C 0.70749 0.27977 0.56144
 C1170 C 0.73389 0.27926 0.55410
 H1171 H 0.69219 0.27034 0.54787
 H1172 H 0.74922 0.28691 0.56871
 C1173 C 0.72390 0.77021 1.06326
 C1174 C 0.73504 0.78492 1.04241
 H1175 H 0.72300 0.74763 1.06179
 H1176 H 0.73376 0.80750 1.04255
 C1177 C 0.22456 0.26600 1.07774
 C1178 C 0.24054 0.27919 1.05935
 H1179 H 0.21806 0.24474 1.07343
 H1180 H 0.24523 0.30114 1.06215
 C1181 C 0.23981 0.78560 0.56784
 C1182 C 0.22871 0.76998 0.54754
 H1183 H 0.26075 0.79286 0.56582
 H1184 H 0.20735 0.76396 0.54847
 C1185 C 0.28542 0.70821 0.55417
 C1186 C 0.27920 0.73504 0.54986
 H1187 H 0.28096 0.69281 0.53808
 H1188 H 0.28206 0.74989 0.56673
 C1189 C 0.28423 0.23293 1.07550
 C1190 C 0.26690 0.22193 1.05671
 H1191 H 0.29199 0.25391 1.07238
 H1192 H 0.26090 0.20021 1.05829
 C1193 C 0.78388 0.71733 1.05413
 C1194 C 0.78063 0.74432 1.04802
 H1195 H 0.77850 0.70168 1.03855
 H1196 H 0.78374 0.76010 1.06406
 C1197 C 0.77063 0.22853 0.57061
 C1198 C 0.78366 0.24415 0.55167
 H1199 H 0.74927 0.22321 0.56726
 H1200 H 0.80556 0.24749 0.55327
 C1201 C 0.71954 0.70490 0.44272
 C1202 C 0.72774 0.73112 0.44735
 H1203 H 0.72212 0.68917 0.45878
 H1204 H 0.72718 0.74607 0.43035
 C1205 C 0.72904 0.23552 -0.07530
 C1206 C 0.71604 0.24941 -0.05497
 H1207 H 0.75056 0.23070 -0.07262
 H1208 H 0.69400 0.25174 -0.05592
 C1209 C 0.22344 0.72483 -0.06405
 C1210 C 0.24078 0.71342 -0.04578
 H1211 H 0.21625 0.74596 -0.06048
 H1212 H 0.24591 0.69146 -0.04727
 C1213 C 0.20291 0.22792 0.43756
 C1214 C 0.22871 0.22782 0.44702
 H1215 H 0.18727 0.23900 0.44917
 H1216 H 0.24475 0.21878 0.43425
 C1217 C 0.27203 0.42652 0.72833
 C1218 C 0.28508 0.44779 0.74092
 H1219 H 0.24998 0.42730 0.72586
 H1220 H 0.30726 0.44835 0.74109
 C1221 C 0.29149 0.93996 0.21884
 C1222 C 0.26480 0.94449 0.22261
 H1223 H 0.30623 0.95572 0.22526
 H1224 H 0.25018 0.92785 0.21867
 C1225 C 0.78172 0.44457 0.21598
 C1226 C 0.75499 0.45039 0.21472
 H1227 H 0.79604 0.45975 0.22444
 H1228 H 0.74055 0.43440 0.20826
 C1229 C 0.77114 0.92710 0.72484
 C1230 C 0.78245 0.94623 0.74179
 H1231 H 0.75064 0.93041 0.71677
 H1232 H 0.80370 0.94436 0.74807
 C1233 C 0.70947 0.56082 0.72299
 C1234 C 0.73585 0.55367 0.72181
 H1235 H 0.69491 0.54753 0.73370
 H1236 H 0.75079 0.56815 0.71341
 C1237 C 0.71293 0.05871 0.21736
 C1238 C 0.73923 0.05129 0.21556
 H1239 H 0.69829 0.04507 0.22749
 H1240 H 0.75414 0.06604 0.20762
 C1241 C 0.22378 0.55792 0.20976
 C1242 C 0.22680 0.55004 0.23640
 H1243 H 0.23200 0.54506 0.19306
 H1244 H 0.22088 0.56411 0.25315
 C1245 C 0.20839 0.06145 0.72969
 C1246 C 0.23459 0.05348 0.73012
 H1247 H 0.19315 0.04929 0.74074
 H1248 H 0.25017 0.06687 0.72117
 C1249 C 0.28617 0.56299 0.26832
 C1250 C 0.26850 0.54573 0.28091
 H1251 H 0.29367 0.55787 0.24758
 H1252 H 0.26217 0.54949 0.30232
 C1253 C 0.27097 0.07239 0.78133
 C1254 C 0.28339 0.05157 0.76769
 H1255 H 0.24921 0.07087 0.78558
 H1256 H 0.30548 0.05150 0.76563
 C1257 C 0.80210 0.55804 0.77316
 C1258 C 0.77572 0.55272 0.76771
 H1259 H 0.81766 0.54341 0.76644
 H1260 H 0.76041 0.56838 0.77234
 C1261 C 0.77279 0.06700 0.26895
 C1262 C 0.78723 0.04894 0.25349
 H1263 H 0.75120 0.06317 0.27253
 H1264 H 0.80925 0.05115 0.25191
 C1265 C 0.72081 0.43611 0.26695
 C1266 C 0.70606 0.45332 0.25092
 H1267 H 0.74229 0.44054 0.27074
 H1268 H 0.68413 0.45053 0.24891
 C1269 C 0.73487 0.92562 0.78023
 C1270 C 0.72427 0.94615 0.76475
 H1271 H 0.75561 0.92745 0.78819
 H1272 H 0.70299 0.94526 0.75836
 C1273 C 0.21392 0.43586 0.78297
 C1274 C 0.24024 0.44367 0.78317
 H1275 H 0.19880 0.44927 0.77325
 H1276 H 0.25580 0.42935 0.79052
 C1277 C 0.20373 0.93731 0.27594
 C1278 C 0.22976 0.94495 0.27218
 H1279 H 0.18746 0.95059 0.26817
 H1280 H 0.24610 0.93059 0.27739
 C1281 C 0.44109 0.28331 0.72518
 C1282 C 0.44864 0.25646 0.72404
 H1283 H 0.45426 0.29846 0.73550
 H1284 H 0.43461 0.24081 0.71592
 C1285 C 0.43692 0.77078 0.22197
 C1286 C 0.45286 0.78097 0.24237
 H1287 H 0.44184 0.75080 0.21251
 H1288 H 0.44982 0.80203 0.25009
 C1289 C 0.93507 0.28809 0.22133
 C1290 C 0.94234 0.26123 0.22259
 H1291 H 0.94778 0.30373 0.23150
 H1292 H 0.92858 0.24531 0.21452
 C1293 C 0.94934 0.79340 0.71445
 C1294 C 0.95568 0.79107 0.74161
 H1295 H 0.96341 0.78537 0.69886
 H1296 H 0.94087 0.79671 0.75748
 C1297 C 0.56024 0.28715 0.28699
 C1298 C 0.55353 0.26011 0.28583
 H1299 H 0.54679 0.30241 0.27743
 H1300 H 0.56792 0.24442 0.29285
 C1301 C 0.56457 0.78378 0.76088
 C1302 C 0.54465 0.76802 0.77174
 H1303 H 0.56289 0.79072 0.73935
 H1304 H 0.54499 0.76301 0.79386
 C1305 C 0.05824 0.27726 0.78626
 C1306 C 0.05061 0.27936 0.75942
 H1307 H 0.04549 0.26591 0.80088
 H1308 H 0.06456 0.28852 0.74439
 C1309 C 0.05044 0.77915 0.29535
 C1310 C 0.04464 0.77356 0.26851
 H1311 H 0.03690 0.77173 0.31169
 H1312 H 0.05922 0.77898 0.25236
 C1313 C 0.56465 0.72336 0.72749
 C1314 C 0.54648 0.73967 0.71449
 H1315 H 0.56050 0.71640 0.74865
 H1316 H 0.54922 0.74477 0.69258
 C1317 C 0.56221 0.22208 0.21190
 C1318 C 0.55421 0.22032 0.23862
 H1319 H 0.55006 0.23394 0.19710
 H1320 H 0.56741 0.21056 0.25400
 C1321 C 0.05747 0.70231 0.22917
 C1322 C 0.04677 0.72792 0.22724
 H1323 H 0.04729 0.68667 0.24179
 H1324 H 0.05789 0.74421 0.21641
 C1325 C 0.06141 0.22379 0.71936
 C1326 C 0.04753 0.24496 0.70812
 H1327 H 0.05463 0.21517 0.73914
 H1328 H 0.05258 0.25294 0.68760
 C1329 C 0.43412 0.73225 0.28332
 C1330 C 0.45238 0.72232 0.26509
 H1331 H 0.43795 0.75217 0.29350
 H1332 H 0.45019 0.70129 0.25691
 C1333 C 0.43259 0.22532 0.77825
 C1334 C 0.45238 0.21068 0.76587
 H1335 H 0.43483 0.24776 0.78044
 H1336 H 0.45173 0.18806 0.76587
 C1337 C 0.95014 0.71553 0.78136
 C1338 C 0.95605 0.74279 0.78002
 H1339 H 0.96371 0.70053 0.77160
 H1340 H 0.94151 0.75785 0.78799
 C1341 C 0.92417 0.22662 0.27556
 C1342 C 0.94387 0.21301 0.26174
 H1343 H 0.92633 0.24885 0.27938
 H1344 H 0.94327 0.19046 0.26002
 C1345 C 0.28818 0.27131 0.56402
 C1346 C 0.26225 0.27186 0.55498
 H1347 H 0.30367 0.26109 0.55144
 H1348 H 0.24638 0.27993 0.56858
 C1349 C 0.29363 0.78285 0.05882
 C1350 C 0.26754 0.77550 0.05454
 H1351 H 0.30885 0.77768 0.04316
 H1352 H 0.25268 0.77809 0.07115
 C1353 C 0.76424 0.27974 0.07017
 C1354 C 0.77558 0.26576 0.04892
 H1355 H 0.74323 0.28674 0.06820
 H1356 H 0.79726 0.26105 0.04940
 C1357 C 0.79134 0.77812 0.55950
 C1358 C 0.76482 0.77748 0.55250
 H1359 H 0.80637 0.76878 0.54571
 H1360 H 0.74960 0.78497 0.56713
 C1361 C 0.27047 0.72285 0.42597
 C1362 C 0.28395 0.73644 0.44637
 H1363 H 0.24852 0.71987 0.42752
 H1364 H 0.30609 0.73750 0.44613
 C1365 C 0.27921 0.23768 0.93501
 C1366 C 0.26321 0.22512 0.95382
 H1367 H 0.28689 0.25854 0.93922
 H1368 H 0.25749 0.20340 0.95110
 C1369 C 0.77570 0.72373 0.92423
 C1370 C 0.78780 0.73863 0.94458
 H1371 H 0.75409 0.71875 0.92579
 H1372 H 0.80983 0.74140 0.94446
 C1373 C 0.76452 0.22314 0.43114
 C1374 C 0.77796 0.24011 0.44881
 H1375 H 0.74399 0.21620 0.43620
 H1376 H 0.79932 0.24500 0.44517
 C1377 C 0.73571 0.28480 0.42980
 C1378 C 0.72398 0.27068 0.45068
 H1379 H 0.75698 0.29110 0.43169
 H1380 H 0.70216 0.26655 0.45026
 C1381 C 0.71175 0.77516 0.93258
 C1382 C 0.73855 0.77464 0.93878
 H1383 H 0.69687 0.76902 0.94820
 H1384 H 0.75344 0.77908 0.92265
 C1385 C 0.21915 0.26997 0.93834
 C1386 C 0.23678 0.28193 0.95627
 H1387 H 0.21171 0.24906 0.94258
 H1388 H 0.24247 0.30365 0.95377
 C1389 C 0.21082 0.78169 0.43932
 C1390 C 0.23738 0.77688 0.44418
 H1391 H 0.19577 0.77499 0.45451
 H1392 H 0.25231 0.78168 0.42815
 C1393 C 0.71636 0.71240 0.55952
 C1394 C 0.71792 0.73888 0.55096
 H1395 H 0.72623 0.69623 0.54725
 H1396 H 0.71027 0.75548 0.56425
 C1397 C 0.73072 0.22175 0.06566
 C1398 C 0.71879 0.23924 0.04760
 H1399 H 0.75142 0.21463 0.06184
 H1400 H 0.69740 0.24456 0.05009
 C1401 C 0.21118 0.73018 0.06821
 C1402 C 0.23521 0.72350 0.05667
 H1403 H 0.19859 0.74619 0.05871
 H1404 H 0.24814 0.70762 0.06579
 C1405 C 0.22625 0.21838 0.56863
 C1406 C 0.21423 0.23448 0.54937
 H1407 H 0.24755 0.21264 0.56613
 H1408 H 0.19243 0.23840 0.55016
   
