data_POSCAR
  _audit_creation_date              2014-09-24
  _audit_creation_method            'ToBaCCo'
  _symmetry_space_group_name_H-M    'P1'
  _symmetry_Int_Tables_number       1
  _symmetry_cell_setting            triclinic
  loop_
  _symmetry_equiv_pos_as_xyz
 x,y,z
_cell_length_a 55.1446
_cell_length_b 54.9552
_cell_length_c 54.7891
_cell_angle_alpha 86.502000
_cell_angle_beta 86.637900
_cell_angle_gamma 87.027300
loop_
  _atom_site_label
  _atom_site_type_symbol
  _atom_site_fract_x
  _atom_site_fract_y
  _atom_site_fract_z
C1 C 0.79315 0.63812 1.00481
 C2 C 0.80004 0.61991 0.98518
 C3 C 0.78148 0.60569 0.98056
 C4 C 0.75789 0.61075 0.99612
 C5 C 0.77055 0.65264 0.99566
 C6 C 0.75214 0.63814 0.99114
 C7 C 0.78389 0.62272 1.02734
 C8 C 0.76538 0.60847 1.02275
 H9 H 0.81699 0.62019 0.97402
 H10 H 0.74289 0.59893 0.99250
 H11 H 0.76959 0.67232 0.99210
 H12 H 0.78992 0.62451 1.04565
 C13 C 0.79406 0.36683 0.47671
 C14 C 0.79860 0.38318 0.49747
 C15 C 0.77849 0.39679 0.50499
 C16 C 0.75569 0.39293 0.49115
 C17 C 0.77268 0.35149 0.48640
 C18 C 0.75263 0.36527 0.49391
 C19 C 0.78375 0.38410 0.45641
 C20 C 0.76365 0.39768 0.46402
 H21 H 0.81593 0.38347 0.50591
 H22 H 0.73937 0.40413 0.49732
 H23 H 0.77320 0.33168 0.48687
 H24 H 0.79066 0.38432 0.43741
 C25 C 0.29216 -0.13718 -0.02074
 C26 C 0.29634 -0.12349 0.00045
 C27 C 0.27544 -0.10880 0.00830
 C28 C 0.25443 -0.11054 -0.00645
 C29 C 0.27096 -0.15143 -0.01373
 C30 C 0.25013 -0.13658 -0.00586
 C31 C 0.28420 -0.11909 -0.03958
 C32 C 0.26330 -0.10438 -0.03161
 H33 H 0.31345 -0.12417 0.00947
 H34 H 0.23827 -0.09902 -0.00023
 H35 H 0.27052 -0.17106 -0.01517
 H36 H 0.29140 -0.11855 -0.05851
 C37 C 0.29541 0.13918 0.50441
 C38 C 0.30156 0.12015 0.48538
 C39 C 0.28241 0.10648 0.48123
 C40 C 0.25902 0.11288 0.49660
 C41 C 0.27334 0.15424 0.49479
 C42 C 0.25434 0.14032 0.49071
 C43 C 0.28559 0.12477 0.52735
 C44 C 0.26654 0.11107 0.52322
 H45 H 0.31855 0.11944 0.47428
 H46 H 0.24351 0.10155 0.49337
 H47 H 0.27324 0.17379 0.49037
 H48 H 0.29218 0.12635 0.54548
 C49 C 0.13412 0.51029 0.29038
 C50 C 0.11534 0.49098 0.29683
 C51 C 0.10175 0.48653 0.27770
 C52 C 0.10794 0.50198 0.25406
 C53 C 0.14917 0.50090 0.26806
 C54 C 0.13529 0.49655 0.24909
 C55 C 0.11961 0.53290 0.28055
 C56 C 0.10597 0.52853 0.26152
 H57 H 0.11502 0.47968 0.31382
 H58 H 0.09663 0.49857 0.23858
 H59 H 0.16861 0.49650 0.26793
 H60 H 0.12123 0.55105 0.28696
 C61 C -0.13483 -0.02230 0.29376
 C62 C -0.11892 -0.00131 0.29892
 C63 C -0.10482 0.00653 0.27898
 C64 C -0.10787 -0.00729 0.25585
 C65 C -0.14961 -0.01253 0.27199
 C66 C -0.13534 -0.00470 0.25211
 C67 C -0.11817 -0.04122 0.28419
 C68 C -0.10339 -0.03291 0.26334
 H69 H -0.11894 0.00672 0.31656
 H70 H -0.09629 -0.00076 0.23970
 H71 H -0.16932 -0.01236 0.27208
 H72 H -0.11850 -0.06032 0.29062
 C73 C 0.36257 0.47599 0.79154
 C74 C 0.37808 0.49734 0.79631
 C75 C 0.39200 0.50519 0.77628
 C76 C 0.38923 0.49107 0.75332
 C77 C 0.34773 0.48490 0.76962
 C78 C 0.36178 0.49272 0.74964
 C79 C 0.38061 0.45627 0.78171
 C80 C 0.39450 0.46422 0.76168
 H81 H 0.37813 0.50545 0.81391
 H82 H 0.40065 0.49755 0.73706
 H83 H 0.32807 0.48429 0.76961
 H84 H 0.38119 0.43738 0.78887
 C85 C 0.63373 1.00663 0.79408
 C86 C 0.61551 0.98671 0.80059
 C87 C 0.60158 0.98240 0.78164
 C88 C 0.60699 0.99853 0.75821
 C89 C 0.64857 0.99779 0.77133
 C90 C 0.63436 0.99353 0.75254
 C91 C 0.61940 1.02798 0.78548
 C92 C 0.60476 1.02351 0.76577
 H93 H 0.61567 0.97519 0.81742
 H94 H 0.59542 0.99509 0.74293
 H95 H 0.66808 0.99372 0.77074
 H96 H 0.62143 1.04618 0.79161
 C97 C -0.02240 0.28973 -0.13731
 C98 C -0.00193 0.29388 -0.12050
 C99 C 0.00436 0.27375 -0.10605
 C100 C -0.01031 0.25135 -0.10956
 C101 C -0.01335 0.26765 -0.15176
 C102 C -0.00706 0.24760 -0.13712
 C103 C -0.04339 0.28052 -0.12019
 C104 C -0.03699 0.26043 -0.10573
 H105 H 0.00718 0.31095 -0.12050
 H106 H -0.00515 0.23501 -0.09767
 H107 H -0.01201 0.26785 -0.17164
 H108 H -0.06191 0.28827 -0.12052
 C109 C 0.50319 0.29352 0.13568
 C110 C 0.48353 0.29957 0.11733
 C111 C 0.47923 0.28050 0.10363
 C112 C 0.49513 0.25730 0.10930
 C113 C 0.49455 0.27084 0.15089
 C114 C 0.49037 0.25191 0.13690
 C115 C 0.52566 0.28449 0.12043
 C116 C 0.52140 0.26548 0.10671
 H117 H 0.47207 0.31628 0.11726
 H118 H 0.49177 0.24189 0.09789
 H119 H 0.49097 0.27021 0.17063
 H120 H 0.54373 0.29103 0.12204
 C121 C 1.00799 0.79605 0.63545
 C122 C 0.98885 0.80231 0.61857
 C123 C 0.98406 0.78258 0.60383
 C124 C 0.99944 0.76056 0.60870
 C125 C 1.00017 0.77430 0.64989
 C126 C 0.99549 0.75467 0.63493
 C127 C 1.02918 0.78800 0.62035
 C128 C 1.02441 0.76835 0.60559
 H129 H 0.97702 0.81875 0.61942
 H130 H 0.99588 0.74536 0.59701
 H131 H 0.99657 0.77348 0.66964
 H132 H 1.04742 0.79410 0.62213
 C133 C 0.47978 0.79021 0.36766
 C134 C 0.50073 0.79440 0.38383
 C135 C 0.50750 0.77423 0.39800
 C136 C 0.49278 0.75176 0.39485
 C137 C 0.48845 0.76824 0.35289
 C138 C 0.49520 0.74814 0.36724
 C139 C 0.45929 0.78083 0.38531
 C140 C 0.46615 0.76068 0.39947
 H141 H 0.50983 0.81149 0.38358
 H142 H 0.49834 0.73540 0.40653
 H143 H 0.48895 0.76846 0.33303
 H144 H 0.44064 0.78826 0.38527
 C145 C 0.39025 -0.00629 0.26178
 H146 H 0.38903 0.01141 0.26952
 C147 C 0.40405 -0.02550 0.27280
 H148 H 0.41362 -0.02260 0.28900
 C149 C 0.37834 -0.03210 0.23189
 H150 H 0.36780 -0.03481 0.21638
 C151 C 0.39190 -0.05179 0.24236
 H152 H 0.39193 -0.06952 0.23473
 N153 N 0.37774 -0.00989 0.24171
 C154 C 0.36302 0.06239 0.20667
 H155 H 0.34354 0.06203 0.20536
 C156 C 0.37527 0.08303 0.19790
 H157 H 0.36524 0.09867 0.18982
 C158 C 0.39993 0.04256 0.21899
 H159 H 0.40949 0.02671 0.22708
 C160 C 0.41290 0.06283 0.21042
 H161 H 0.43239 0.06262 0.21211
 Zn162 Zn 0.35709 0.01616 0.22976
 N163 N 0.37537 0.04288 0.21736
 C164 C 0.33640 0.04843 0.26448
 N165 N 0.33627 0.02539 0.25668
 C166 C 0.32394 0.00768 0.26983
 C167 C 0.31168 0.01269 0.29217
 C168 C 0.32431 0.05421 0.28662
 C169 C 0.35292 0.00112 0.18294
 C170 C 0.34187 -0.00758 0.16318
 C171 C 0.30334 -0.00564 0.18661
 C172 C 0.31515 0.00309 0.20600
 N173 N 0.33959 0.00588 0.20393
 H174 H 0.34684 0.06207 0.25424
 H175 H 0.32465 -0.01063 0.26353
 H176 H 0.30277 -0.00174 0.30304
 H177 H 0.32533 0.07234 0.29313
 H178 H 0.37228 0.00369 0.18177
 H179 H 0.35274 -0.01177 0.14671
 H180 H 0.28398 -0.00829 0.18846
 H181 H 0.30487 0.00729 0.22275
 C182 C 0.40040 0.08331 0.19998
 C183 C 0.40471 -0.04848 0.26308
 C184 C 0.31692 -0.01121 0.16510
 C185 C 0.31224 0.03608 0.30080
 C186 C 0.08018 1.03488 0.78631
 H187 H 0.07880 1.01674 0.79497
 C188 C 0.06720 1.05467 0.79652
 H189 H 0.05564 1.05179 0.81301
 C190 C 0.09786 1.06109 0.75493
 H191 H 0.11035 1.06369 0.73918
 C192 C 0.08522 1.08133 0.76452
 H193 H 0.08781 1.09937 0.75594
 N194 N 0.09518 1.03842 0.76591
 C195 C 0.10869 0.96764 0.73459
 H196 H 0.12835 0.96733 0.73330
 C197 C 0.09659 0.94856 0.72591
 H198 H 0.10695 0.93342 0.71795
 C199 C 0.07115 0.98796 0.74625
 H200 H 0.06136 1.00351 0.75391
 C201 C 0.05829 0.96919 0.73770
 H202 H 0.03858 0.97021 0.73892
 Zn203 Zn 0.11480 1.01160 0.75483
 N204 N 0.09591 0.98673 0.74467
 C205 C 0.13128 0.97613 0.79064
 N206 N 0.13351 0.99946 0.78121
 C207 C 0.14798 1.01499 0.79135
 C208 C 0.16131 1.00705 0.81151
 C209 C 0.14425 0.96748 0.81076
 C210 C 0.12349 1.02902 0.70656
 C211 C 0.13692 1.03642 0.68526
 C212 C 0.17378 1.02801 0.70672
 C213 C 0.15964 1.02075 0.72767
 N214 N 0.13494 1.02164 0.72727
 H215 H 0.11917 0.96428 0.78284
 H216 H 0.14904 1.03359 0.78382
 H217 H 0.17283 1.01947 0.81946
 H218 H 0.14235 0.94890 0.81816
 H219 H 0.10386 1.02920 0.70667
 H220 H 0.12763 1.04245 0.66892
 H221 H 0.19342 1.02741 0.70716
 H222 H 0.16842 1.01433 0.74412
 C223 C 0.07119 0.94933 0.72747
 C224 C 0.06992 1.07812 0.78560
 C225 C 0.16227 1.03597 0.68538
 C226 C 0.15939 0.98307 0.82128
 C227 C 0.57452 0.53533 0.28483
 H228 H 0.57345 0.51715 0.29345
 C229 C 0.56172 0.55499 0.29546
 H230 H 0.55063 0.55198 0.31224
 C231 C 0.59136 0.56180 0.25318
 H232 H 0.60349 0.56455 0.23718
 C233 C 0.57888 0.58192 0.26318
 H234 H 0.58128 0.60002 0.25468
 N235 N 0.58907 0.53907 0.26413
 C236 C 0.60289 0.46857 0.23235
 H237 H 0.62254 0.46854 0.23062
 C238 C 0.59086 0.44928 0.22401
 H239 H 0.60125 0.43427 0.21585
 C240 C 0.56533 0.48834 0.24486
 H241 H 0.55551 0.50374 0.25277
 C242 C 0.55253 0.46935 0.23667
 H243 H 0.53284 0.47006 0.23838
 Zn244 Zn 0.60884 0.51249 0.25271
 N245 N 0.59008 0.48746 0.24273
 C246 C 0.62643 0.47699 0.28802
 N247 N 0.62794 0.50048 0.27884
 C248 C 0.64211 0.51630 0.28896
 C249 C 0.65588 0.50851 0.30884
 C250 C 0.63989 0.46847 0.30786
 C251 C 0.61729 0.53032 0.20437
 C252 C 0.63073 0.53767 0.18306
 C253 C 0.66760 0.52881 0.20439
 C254 C 0.65346 0.52163 0.22535
 N255 N 0.62875 0.52275 0.22503
 H256 H 0.61460 0.46487 0.28020
 H257 H 0.64262 0.53499 0.28159
 H258 H 0.66719 0.52116 0.31675
 H259 H 0.63862 0.44974 0.31503
 H260 H 0.59765 0.53065 0.20453
 H261 H 0.62145 0.54381 0.16674
 H262 H 0.68724 0.52795 0.20476
 H263 H 0.66225 0.51503 0.24173
 C264 C 0.56549 0.44964 0.22621
 C265 C 0.56414 0.57852 0.28463
 C266 C 0.65610 0.53695 0.18309
 C267 C 0.65474 0.48436 0.31834
 C268 C 0.89479 0.49695 0.75882
 H269 H 0.89391 0.51442 0.76701
 C270 C 0.90823 0.47722 0.76942
 H271 H 0.91784 0.47949 0.78576
 C272 C 0.88231 0.47220 0.72831
 H273 H 0.87164 0.47008 0.71273
 C274 C 0.89551 0.45202 0.73832
 H275 H 0.89513 0.43452 0.73028
 N276 N 0.88213 0.49411 0.73868
 C277 C 0.86742 0.56702 0.70493
 H278 H 0.84795 0.56662 0.70366
 C279 C 0.87961 0.58771 0.69619
 H280 H 0.86952 0.60335 0.68819
 C281 C 0.90442 0.54717 0.71699
 H282 H 0.91403 0.53128 0.72495
 C283 C 0.91733 0.56751 0.70845
 H284 H 0.93683 0.56731 0.71001
 Zn285 Zn 0.86157 0.52059 0.72740
 N286 N 0.87986 0.54745 0.71543
 C287 C 0.84097 0.55223 0.76278
 N288 N 0.84088 0.52934 0.75459
 C289 C 0.82847 0.51147 0.76739
 C290 C 0.81599 0.51616 0.78970
 C291 C 0.82870 0.55769 0.78491
 C292 C 0.85689 0.50693 0.68012
 C293 C 0.84560 0.49884 0.66021
 C294 C 0.80734 0.50006 0.68413
 C295 C 0.81937 0.50821 0.70366
 N296 N 0.84380 0.51106 0.70141
 H297 H 0.85142 0.56602 0.75277
 H298 H 0.82915 0.49328 0.76076
 H299 H 0.80691 0.50162 0.80022
 H300 H 0.82959 0.57572 0.79170
 H301 H 0.87625 0.50953 0.67883
 H302 H 0.85629 0.49514 0.64350
 H303 H 0.78799 0.49733 0.68612
 H304 H 0.80928 0.51189 0.72064
 C305 C 0.90475 0.58801 0.69813
 C306 C 0.90839 0.45451 0.75918
 C307 C 0.82067 0.49514 0.66230
 C308 C 0.81645 0.53941 0.79868
 C309 C 0.25815 0.38505 -0.00318
 H310 H 0.26600 0.38404 0.01452
 C311 C 0.26917 0.39849 -0.02286
 H312 H 0.28547 0.40803 -0.02032
 C313 C 0.22803 0.37288 -0.02850
 H314 H 0.21243 0.36234 -0.03083
 C315 C 0.23850 0.38609 -0.04866
 H316 H 0.23077 0.38587 -0.06637
 N317 N 0.23798 0.37258 -0.00631
 C318 C 0.20381 0.35871 0.06683
 H319 H 0.20240 0.33913 0.06697
 C320 C 0.19518 0.37134 0.08718
 H321 H 0.18712 0.36150 0.10312
 C322 C 0.21608 0.39551 0.04592
 H323 H 0.22404 0.40489 0.02974
 C324 C 0.20767 0.40884 0.06589
 H325 H 0.20935 0.42843 0.06512
 Zn326 Zn 0.22610 0.35219 0.02036
 N327 N 0.21434 0.37084 0.04689
 C328 C 0.26101 0.33167 0.05255
 N329 N 0.25273 0.33128 0.02966
 C330 C 0.26532 0.31877 0.01191
 C331 C 0.28761 0.30665 0.01667
 C332 C 0.28313 0.31974 0.05808
 C333 C 0.17929 0.34815 0.00600
 C334 C 0.15935 0.33715 -0.00229
 C335 C 0.18215 0.29836 -0.00012
 C336 C 0.20174 0.31012 0.00821
 N337 N 0.20006 0.33467 0.01068
 H338 H 0.25117 0.34225 0.06621
 H339 H 0.25863 0.31927 -0.00629
 H340 H 0.29804 0.29762 0.00216
 H341 H 0.29006 0.32099 0.07604
 H342 H 0.17845 0.36759 0.00831
 H343 H 0.14305 0.34813 -0.00641
 H344 H 0.18368 0.27891 -0.00253
 H345 H 0.21832 0.29973 0.01234
 C346 C 0.19728 0.39660 0.08675
 C347 C 0.25934 0.39885 -0.04583
 C348 C 0.16086 0.31209 -0.00560
 C349 C 0.29677 0.30756 0.03984
 C350 C 0.78245 0.07533 1.03806
 H351 H 0.79090 0.07420 1.01982
 C352 C 0.79310 0.06266 1.05793
 H353 H 0.80972 0.05157 1.05500
 C354 C 0.75128 0.09231 1.06450
 H355 H 0.73548 0.10449 1.06715
 C356 C 0.76131 0.07995 1.08481
 H357 H 0.75301 0.08245 1.10296
 N358 N 0.76199 0.08991 1.04169
 C359 C 0.73020 0.10432 0.97094
 H360 H 0.72858 0.12402 0.97106
 C361 C 0.72180 0.09260 0.95147
 H362 H 0.71370 0.10329 0.93649
 C363 C 0.74258 0.06633 0.99044
 H364 H 0.75050 0.05623 1.00580
 C365 C 0.73432 0.05383 0.97125
 H366 H 0.73597 0.03408 0.97176
 Zn367 Zn 0.75068 0.10978 1.01487
 N368 N 0.74055 0.09116 0.98978
 C369 C 0.78574 0.12747 0.97913
 N370 N 0.77670 0.12904 1.00267
 C371 C 0.78685 0.14338 1.01832
 C372 C 0.80660 0.15729 1.01028
 C373 C 0.80545 0.14105 0.97038
 C374 C 0.70278 0.11812 1.03272
 C375 C 0.68163 0.13156 1.03981
 C376 C 0.70293 0.16862 1.03042
 C377 C 0.72372 0.15448 1.02353
 N378 N 0.72333 0.12968 1.02501
 H379 H 0.77793 0.11549 0.96715
 H380 H 0.77960 0.14392 1.03707
 H381 H 0.81454 0.16873 1.02280
 H382 H 0.81253 0.13971 0.95161
 H383 H 0.70288 0.09840 1.03333
 H384 H 0.66539 0.12220 1.04603
 H385 H 0.70335 0.18835 1.02922
 H386 H 0.74002 0.16335 1.01679
 C387 C 0.72390 0.06716 0.95158
 C388 C 0.78255 0.06522 1.08154
 C389 C 0.68173 0.15703 1.03865
 C390 C 0.81593 0.15611 0.98608
 C391 C 0.28144 0.57505 0.53605
 H392 H 0.29006 0.57431 0.51784
 C393 C 0.29156 0.56143 0.55566
 H394 H 0.30793 0.55002 0.55257
 C395 C 0.25032 0.59181 0.56269
 H396 H 0.23473 0.60422 0.56554
 C397 C 0.25981 0.57849 0.58275
 H398 H 0.25129 0.58047 0.60089
 N399 N 0.26125 0.58994 0.53990
 C400 C 0.23039 0.60650 0.46905
 H401 H 0.22927 0.62619 0.46941
 C402 C 0.22187 0.59529 0.44932
 H403 H 0.21418 0.60635 0.43436
 C404 C 0.24160 0.56801 0.48826
 H405 H 0.24909 0.55752 0.50361
 C406 C 0.23320 0.55601 0.46880
 H407 H 0.23433 0.53626 0.46911
 Zn408 Zn 0.25058 0.61068 0.51343
 N409 N 0.24022 0.59284 0.48787
 C410 C 0.28648 0.62798 0.47840
 N411 N 0.27717 0.62946 0.50186
 C412 C 0.28752 0.64319 0.51791
 C413 C 0.30779 0.65656 0.51038
 C414 C 0.30672 0.64102 0.47016
 C415 C 0.20273 0.61961 0.53101
 C416 C 0.18179 0.63324 0.53833
 C417 C 0.20388 0.66999 0.53021
 C418 C 0.22445 0.65566 0.52306
 N419 N 0.22356 0.63091 0.52381
 H420 H 0.27850 0.61644 0.46611
 H421 H 0.28005 0.64364 0.53659
 H422 H 0.31590 0.66752 0.52322
 H423 H 0.31402 0.63974 0.45146
 H424 H 0.20244 0.59993 0.53105
 H425 H 0.16532 0.62408 0.54415
 H426 H 0.20468 0.68968 0.52962
 H427 H 0.24098 0.66433 0.51674
 C428 C 0.22331 0.56985 0.44916
 C429 C 0.28074 0.56337 0.57924
 C430 C 0.18239 0.65865 0.53795
 C431 C 0.31744 0.65544 0.48628
 C432 C 0.76223 0.88602 0.49959
 H433 H 0.76996 0.88526 0.51734
 C434 C 0.77313 0.89956 0.47989
 H435 H 0.78923 0.90941 0.48246
 C436 C 0.73250 0.87322 0.47416
 H437 H 0.71709 0.86243 0.47180
 C438 C 0.74284 0.88651 0.45400
 H439 H 0.73520 0.88610 0.43627
 N440 N 0.74229 0.87320 0.49641
 C441 C 0.70719 0.85944 0.56910
 H442 H 0.70596 0.83985 0.56923
 C443 C 0.69795 0.87205 0.58925
 H444 H 0.68963 0.86217 0.60501
 C445 C 0.71951 0.89632 0.54839
 H446 H 0.72771 0.90573 0.53235
 C447 C 0.71049 0.90964 0.56817
 H448 H 0.71194 0.92926 0.56740
 Zn449 Zn 0.73030 0.85288 0.52309
 N450 N 0.71802 0.87162 0.54936
 C451 C 0.76476 0.83265 0.55595
 N452 N 0.75687 0.83211 0.53292
 C453 C 0.76974 0.81941 0.51548
 C454 C 0.79190 0.80726 0.52072
 C455 C 0.78675 0.82070 0.56196
 C456 C 0.68369 0.84860 0.50840
 C457 C 0.66386 0.83753 0.49997
 C458 C 0.68679 0.79883 0.50219
 C459 C 0.70627 0.81066 0.51067
 N460 N 0.70447 0.83519 0.51320
 H461 H 0.75471 0.84336 0.56937
 H462 H 0.76337 0.81977 0.49715
 H463 H 0.80256 0.79811 0.50644
 H464 H 0.79338 0.82212 0.58002
 H465 H 0.68274 0.86804 0.51073
 H466 H 0.64755 0.84847 0.49576
 H467 H 0.68842 0.77939 0.49973
 H468 H 0.72287 0.80032 0.51487
 C469 C 0.69976 0.89735 0.58882
 C470 C 0.76342 0.89965 0.45687
 C471 C 0.66548 0.81249 0.49661
 C472 C 0.80066 0.80831 0.54406
 C473 C -0.00090 0.26463 0.38690
 H474 H 0.01657 0.27285 0.38507
 C475 C -0.02024 0.27577 0.40037
 H476 H -0.01766 0.29256 0.40906
 C477 C -0.02608 0.23348 0.37667
 H478 H -0.02852 0.21743 0.36683
 C479 C -0.04587 0.24403 0.38994
 H480 H -0.06341 0.23594 0.39044
 N481 N -0.00415 0.24393 0.37530
 C482 C 0.06800 0.20999 0.35981
 H483 H 0.06724 0.20801 0.34034
 C484 C 0.08870 0.20161 0.37186
 H485 H 0.10400 0.19316 0.36168
 C486 C 0.04897 0.22337 0.39693
 H487 H 0.03338 0.23167 0.40666
 C488 C 0.06934 0.21523 0.40969
 H489 H 0.06946 0.21741 0.42920
 Zn490 Zn 0.02171 0.23200 0.35436
 N491 N 0.04881 0.22093 0.37236
 C492 C 0.05295 0.26689 0.33152
 N493 N 0.03013 0.25845 0.33228
 C494 C 0.01200 0.27086 0.32021
 C495 C 0.01630 0.29318 0.30746
 C496 C 0.05803 0.28904 0.31892
 C497 C 0.00794 0.18454 0.35246
 C498 C -0.00035 0.16398 0.34251
 C499 C -0.00029 0.18604 0.30295
 C500 C 0.00809 0.20628 0.31367
 N501 N 0.01164 0.20524 0.33811
 H502 H 0.06695 0.25720 0.34174
 H503 H -0.00612 0.26405 0.32162
 H504 H 0.00150 0.30352 0.29888
 H505 H 0.07596 0.29614 0.31934
 H506 H 0.01107 0.18422 0.37178
 H507 H -0.00367 0.14773 0.35420
 H508 H -0.00355 0.18704 0.28360
 H509 H 0.01140 0.22285 0.30258
 C510 C 0.08941 0.20439 0.39699
 C511 C -0.04298 0.26549 0.40168
 C512 C -0.00471 0.16479 0.31760
 C513 C 0.03942 0.30255 0.30724
 C514 C 1.03469 0.79009 0.07147
 H515 H 1.01682 0.79907 0.07038
 C516 C 1.05452 0.79965 0.05770
 H517 H 1.05196 0.81599 0.04586
 C518 C 1.06020 0.75847 0.08907
 H519 H 1.06254 0.74286 0.10180
 C520 C 1.08044 0.76738 0.07562
 H521 H 1.09822 0.75843 0.07786
 N522 N 1.03786 0.76986 0.08680
 C523 C 0.96692 0.73930 0.10226
 H524 H 0.96694 0.73810 0.12204
 C525 C 0.94747 0.73079 0.09067
 H526 H 0.93240 0.72303 0.10154
 C527 C 0.98672 0.75062 0.06393
 H528 H 1.00220 0.75811 0.05364
 C529 C 0.96757 0.74223 0.05155
 H530 H 0.96824 0.74337 0.03172
 Zn531 Zn 1.01111 0.75929 0.10722
 N532 N 0.98591 0.74916 0.08886
 C533 C 0.97629 0.79512 0.12390
 N534 N 0.99950 0.78582 0.12590
 C535 C 1.01506 0.79593 0.14034
 C536 C 1.00720 0.81579 0.15404
 C537 C 0.96772 0.81493 0.13724
 C538 C 1.02751 0.71105 0.11629
 C539 C 1.03444 0.68982 0.12993
 C540 C 1.02688 0.71158 0.16685
 C541 C 1.02008 0.73246 0.15250
 N542 N 1.02077 0.73188 0.12766
 H543 H 0.96440 0.78738 0.11179
 H544 H 1.03357 0.78851 0.14122
 H545 H 1.01960 0.82363 0.16566
 H546 H 0.94918 0.82212 0.13563
 H547 H 1.02752 0.71102 0.09654
 H548 H 1.03993 0.67337 0.12070
 H549 H 1.02642 0.71217 0.18660
 H550 H 1.01414 0.74900 0.16123
 C551 C 0.94778 0.73227 0.06512
 C552 C 1.07762 0.78825 0.05995
 C553 C 1.03418 0.69011 0.15543
 C554 C 0.98328 0.82530 0.15249
 C555 C 0.53896 0.28563 0.57609
 H556 H 0.52106 0.29443 0.57455
 C557 C 0.55907 0.29576 0.56330
 H558 H 0.55669 0.31232 0.55174
 C559 C 0.56427 0.25403 0.59400
 H560 H 0.56639 0.23824 0.60654
 C561 C 0.58480 0.26353 0.58157
 H562 H 0.60259 0.25484 0.58438
 N563 N 0.54190 0.26516 0.59112
 C564 C 0.47077 0.23424 0.60418
 H565 H 0.47038 0.23263 0.62398
 C566 C 0.45158 0.22607 0.59194
 H567 H 0.43630 0.21815 0.60232
 C568 C 0.49131 0.24635 0.56646
 H569 H 0.50696 0.25404 0.55667
 C570 C 0.47243 0.23831 0.55345
 H571 H 0.47348 0.23993 0.53362
 Zn572 Zn 0.51472 0.25412 0.61063
 N573 N 0.48999 0.24435 0.59140
 C574 C 0.47960 0.28976 0.62724
 N575 N 0.50271 0.28030 0.62957
 C576 C 0.51809 0.29021 0.64436
 C577 C 0.51020 0.31015 0.65792
 C578 C 0.47100 0.30967 0.64044
 C579 C 0.53131 0.20583 0.61928
 C580 C 0.53814 0.18447 0.63280
 C581 C 0.52937 0.20563 0.66994
 C582 C 0.52269 0.22663 0.65572
 N583 N 0.52404 0.22642 0.63084
 H584 H 0.46785 0.28215 0.61490
 H585 H 0.53652 0.28264 0.64550
 H586 H 0.52250 0.31791 0.66971
 H587 H 0.45258 0.31708 0.63848
 H588 H 0.53185 0.20608 0.59950
 H589 H 0.54407 0.16822 0.62343
 H590 H 0.52838 0.20592 0.68973
 H591 H 0.51635 0.24298 0.66458
 C592 C 0.45238 0.22814 0.56638
 C593 C 0.58221 0.28468 0.56625
 C594 C 0.53722 0.18440 0.65835
 C595 C 0.48643 0.31994 0.65591
 C596 C 0.49495 0.76048 0.88997
 H597 H 0.51245 0.76865 0.88862
 C598 C 0.47549 0.77129 0.90355
 H599 H 0.47800 0.78775 0.91283
 C600 C 0.46986 0.72979 0.87849
 H601 H 0.46751 0.71405 0.86815
 C602 C 0.44994 0.74001 0.89185
 H603 H 0.43241 0.73196 0.89193
 N604 N 0.49181 0.74014 0.87776
 C605 C 0.56418 0.70646 0.86302
 H606 H 0.56383 0.70498 0.84344
 C607 C 0.58468 0.69792 0.87531
 H608 H 0.60025 0.68988 0.86521
 C609 C 0.54435 0.71882 0.90016
 H610 H 0.52853 0.72681 0.90979
 C611 C 0.56449 0.71048 0.91318
 H612 H 0.56423 0.71221 0.93279
 Zn613 Zn 0.51800 0.72848 0.85708
 N614 N 0.54471 0.71700 0.87547
 C615 C 0.54966 0.76365 0.83554
 N616 N 0.52688 0.75522 0.83560
 C617 C 0.50908 0.76773 0.82314
 C618 C 0.51369 0.79010 0.81062
 C619 C 0.55504 0.78584 0.82319
 C620 C 0.50410 0.68120 0.85403
 C621 C 0.49591 0.66090 0.84352
 C622 C 0.49693 0.68358 0.80427
 C623 C 0.50519 0.70355 0.81556
 N624 N 0.50821 0.70208 0.84010
 H625 H 0.56339 0.75389 0.84607
 H626 H 0.49097 0.76093 0.82401
 H627 H 0.49915 0.80048 0.80166
 H628 H 0.57294 0.79289 0.82411
 H629 H 0.50683 0.68054 0.87346
 H630 H 0.49228 0.64451 0.85488
 H631 H 0.49409 0.68493 0.78483
 H632 H 0.50884 0.72023 0.80481
 C633 C 0.58488 0.70010 0.90059
 C634 C 0.45276 0.76104 0.90432
 C635 C 0.49208 0.66216 0.81848
 C636 C 0.53678 0.79941 0.81105
 C637 C 0.43820 -0.10759 0.29842
 C638 C 0.45291 -0.10463 0.31827
 C639 C 0.46246 -0.12549 0.33180
 C640 C 0.45723 -0.14916 0.32540
 C641 C 0.44305 -0.15213 0.30516
 C642 C 0.43350 -0.13128 0.29164
 C643 C 0.41920 -0.13469 0.27160
 C644 C 0.41450 -0.15804 0.26510
 C645 C 0.42385 -0.17843 0.27832
 C646 C 0.43797 -0.17562 0.29815
 C647 C 0.47696 -0.12209 0.35168
 C648 C 0.48192 -0.09875 0.35799
 C649 C 0.47259 -0.07835 0.34475
 C650 C 0.45822 -0.08115 0.32511
 C651 C 0.46572 -0.17042 0.34009
 C652 C 0.47229 -0.18816 0.35245
 C653 C 0.42709 -0.08636 0.28561
 C654 C 0.41724 -0.06895 0.27519
 H655 H 0.41155 -0.11940 0.26072
 H656 H 0.40353 -0.16032 0.24972
 H657 H 0.42016 -0.19654 0.27320
 H658 H 0.44488 -0.19204 0.30784
 H659 H 0.48466 -0.13741 0.36250
 H660 H 0.49308 -0.09647 0.37323
 H661 H 0.47650 -0.06025 0.34972
 H662 H 0.45139 -0.06474 0.31534
 C663 C 0.93969 0.39354 0.79352
 C664 C 0.95667 0.39537 0.81164
 C665 C 0.96533 0.37400 0.82502
 C666 C 0.95696 0.35094 0.82017
 C667 C 0.94049 0.34904 0.80158
 C668 C 0.93184 0.37040 0.78820
 C669 C 0.91525 0.36806 0.76981
 C670 C 0.90744 0.34527 0.76479
 C671 C 0.91589 0.32439 0.77788
 C672 C 0.93222 0.32614 0.79609
 C673 C 0.98216 0.37630 0.84318
 C674 C 0.99022 0.39906 0.84798
 C675 C 0.98175 0.41995 0.83490
 C676 C 0.96515 0.41823 0.81693
 C677 C 0.96466 0.32931 0.83481
 C678 C 0.97067 0.31140 0.84724
 C679 C 0.92948 0.41546 0.78105
 C680 C 0.92028 0.43343 0.77094
 H681 H 0.90820 0.38376 0.75909
 H682 H 0.89476 0.34382 0.75066
 H683 H 0.90976 0.30673 0.77391
 H684 H 0.93832 0.30937 0.80574
 H685 H 0.98930 0.36057 0.85380
 H686 H 1.00310 0.40049 0.86193
 H687 H 0.98807 0.43758 0.83870
 H688 H 0.95912 0.43498 0.80720
 C689 C 0.03883 1.13897 0.81659
 C690 C 0.05350 1.15282 0.83034
 C691 C 0.04380 1.17487 0.84011
 C692 C 0.01949 1.18296 0.83606
 C693 C 0.00469 1.16891 0.82267
 C694 C 0.01439 1.14684 0.81291
 C695 C -0.00071 1.13314 0.79951
 C696 C -0.02473 1.14101 0.79588
 C697 C -0.03422 1.16259 0.80543
 C698 C -0.01976 1.17645 0.81868
 C699 C 0.05883 1.18844 0.85374
 C700 C 0.08277 1.18045 0.85760
 C701 C 0.09227 1.15889 0.84803
 C702 C 0.07789 1.14517 0.83455
 C703 C 0.00984 1.20584 0.84546
 C704 C 0.00205 1.22488 0.85331
 C705 C 0.04912 1.11700 0.80576
 C706 C 0.05823 1.09906 0.79663
 H707 H 0.00584 1.11622 0.79177
 H708 H -0.03604 1.13031 0.78560
 H709 H -0.05289 1.16862 0.80256
 H710 H -0.02796 1.19309 0.82577
 H711 H 0.05227 1.20531 0.86159
 H712 H 0.09401 1.19104 0.86808
 H713 H 0.11088 1.15276 0.85107
 H714 H 0.08610 1.12851 0.82752
 C715 C 0.53612 0.63975 0.31711
 C716 C 0.51230 0.64172 0.32817
 C717 C 0.50380 0.66374 0.33887
 C718 C 0.51918 0.68363 0.33841
 C719 C 0.54309 0.68157 0.32759
 C720 C 0.55159 0.65957 0.31690
 C721 C 0.57557 0.65797 0.30615
 C722 C 0.59071 0.67750 0.30601
 C723 C 0.58240 0.69900 0.31647
 C724 C 0.55888 0.70113 0.32715
 C725 C 0.47991 0.66531 0.34980
 C726 C 0.46484 0.64569 0.35012
 C727 C 0.47316 0.62416 0.33969
 C728 C 0.49662 0.62209 0.32881
 C729 C 0.51042 0.70633 0.34882
 C730 C 0.50342 0.72534 0.35727
 C731 C 0.54489 0.61746 0.30587
 C732 C 0.55310 0.59941 0.29629
 H733 H 0.58290 0.64164 0.29777
 H734 H 0.60900 0.67593 0.29774
 H735 H 0.59424 0.71413 0.31632
 H736 H 0.55327 0.71823 0.33506
 H737 H 0.47264 0.68166 0.35820
 H738 H 0.44659 0.64721 0.35850
 H739 H 0.46138 0.60897 0.34001
 H740 H 0.50230 0.60498 0.32094
 C741 C 0.53416 0.39163 0.19950
 C742 C 0.54508 0.36810 0.20451
 C743 C 0.53731 0.34780 0.19267
 C744 C 0.51868 0.35116 0.17591
 C745 C 0.50705 0.37449 0.17170
 C746 C 0.51482 0.39480 0.18355
 C747 C 0.50313 0.41801 0.17886
 C748 C 0.48427 0.42106 0.16293
 C749 C 0.47667 0.40121 0.15134
 C750 C 0.48788 0.37814 0.15560
 C751 C 0.54869 0.32449 0.19774
 C752 C 0.56722 0.32134 0.21404
 C753 C 0.57483 0.34119 0.22561
 C754 C 0.56396 0.36434 0.22097
 C755 C 0.51242 0.33087 0.16212
 C756 C 0.50793 0.31400 0.15036
 C757 C 0.54393 0.41267 0.20954
 C758 C 0.55313 0.42979 0.21739
 H759 H 0.50837 0.43397 0.18752
 H760 H 0.47550 0.43894 0.15957
 H761 H 0.46200 0.40368 0.13899
 H762 H 0.48131 0.36323 0.14621
 H763 H 0.54336 0.30848 0.18923
 H764 H 0.57571 0.30339 0.21771
 H765 H 0.58923 0.33864 0.23826
 H766 H 0.57046 0.37920 0.23048
 C767 C 0.03948 0.89218 0.69949
 C768 C 0.02119 0.89591 0.68239
 C769 C 0.01329 0.87579 0.67032
 C770 C 0.02375 0.85209 0.67546
 C771 C 0.04134 0.84822 0.69328
 C772 C 0.04923 0.86833 0.70534
 C773 C 0.06705 0.86405 0.72288
 C774 C 0.07680 0.84058 0.72835
 C775 C 0.06908 0.82092 0.71654
 C776 C 0.05156 0.82458 0.69920
 C777 C -0.00481 0.87998 0.65308
 C778 C -0.01486 0.90339 0.64792
 C779 C -0.00715 0.92307 0.65972
 C780 C 0.01068 0.91947 0.67677
 C781 C 0.01740 0.83192 0.66155
 C782 C 0.01276 0.81521 0.64962
 C783 C 0.04944 0.91293 0.70993
 C784 C 0.05875 0.92978 0.71816
 H785 H 0.07359 0.87874 0.73260
 H786 H 0.09041 0.83763 0.74182
 H787 H 0.07671 0.80272 0.72085
 H788 H 0.04610 0.80871 0.69055
 H789 H -0.01143 0.86524 0.64348
 H790 H -0.02870 0.90628 0.63469
 H791 H -0.01502 0.94121 0.65565
 H792 H 0.01606 0.93532 0.68554
 C793 C 0.93986 0.64992 0.67520
 C794 C 0.92610 0.67234 0.67272
 C795 C 0.93789 0.69411 0.66503
 C796 C 0.96336 0.69334 0.65980
 C797 C 0.97713 0.67093 0.66224
 C798 C 0.96534 0.64916 0.67000
 C799 C 0.97948 0.62698 0.67233
 C800 C 1.00455 0.62634 0.66713
 C801 C 1.01606 0.64763 0.65951
 C802 C 1.00260 0.66972 0.65704
 C803 C 0.92376 0.71631 0.66270
 C804 C 0.89870 0.71697 0.66782
 C805 C 0.88715 0.69566 0.67526
 C806 C 0.90060 0.67355 0.67773
 C807 C 0.97528 0.71549 0.65141
 C808 C 0.98492 0.73390 0.64400
 C809 C 0.92778 0.62771 0.68319
 C810 C 0.91746 0.60948 0.68992
 H811 H 0.97134 0.60994 0.67817
 H812 H 1.01509 0.60922 0.66902
 H813 H 1.03553 0.64703 0.65550
 H814 H 1.01238 0.68579 0.65105
 H815 H 0.93190 0.73336 0.65688
 H816 H 0.88817 0.73408 0.66588
 H817 H 0.86766 0.69625 0.67914
 H818 H 0.89078 0.65748 0.68357
 C819 C 0.43553 0.14530 0.17758
 C820 C 0.46100 0.14466 0.17230
 C821 C 0.47267 0.16652 0.16460
 C822 C 0.45881 0.18888 0.16238
 C823 C 0.43336 0.18954 0.16770
 C824 C 0.42168 0.16768 0.17531
 C825 C 0.39619 0.16879 0.18044
 C826 C 0.38265 0.19085 0.17815
 C827 C 0.39408 0.21222 0.17075
 C828 C 0.41913 0.21168 0.16552
 C829 C 0.49812 0.16541 0.15922
 C830 C 0.51167 0.14335 0.16150
 C831 C 0.50027 0.12200 0.16914
 C832 C 0.47523 0.12253 0.17449
 C833 C 0.47056 0.21115 0.15408
 C834 C 0.47985 0.22974 0.14667
 C835 C 0.42351 0.12302 0.18535
 C836 C 0.41316 0.10477 0.19192
 H837 H 0.38645 0.15265 0.18626
 H838 H 0.36318 0.19135 0.18214
 H839 H 0.38348 0.22931 0.16892
 H840 H 0.42716 0.22879 0.15972
 H841 H 0.50779 0.18154 0.15321
 H842 H 0.53111 0.14283 0.15735
 H843 H 0.51089 0.10492 0.17092
 H844 H 0.46718 0.10545 0.18033
 C845 C 0.29464 0.43163 -0.10591
 C846 C 0.28888 0.42553 -0.12957
 C847 C 0.30223 0.43527 -0.15059
 C848 C 0.32126 0.45104 -0.14782
 C849 C 0.32674 0.45748 -0.12419
 C850 C 0.31340 0.44774 -0.10317
 C851 C 0.31932 0.45430 -0.07974
 C852 C 0.33789 0.47006 -0.07714
 C853 C 0.35092 0.47960 -0.09770
 C854 C 0.34550 0.47344 -0.12100
 C855 C 0.29624 0.42879 -0.17404
 C856 C 0.27761 0.41313 -0.17664
 C857 C 0.26456 0.40360 -0.15610
 C858 C 0.27004 0.40967 -0.13279
 C859 C 0.33558 0.46013 -0.16920
 C860 C 0.34766 0.46742 -0.18693
 C861 C 0.28183 0.42067 -0.08443
 C862 C 0.27142 0.41104 -0.06674
 H863 H 0.30967 0.44736 -0.06320
 H864 H 0.34218 0.47489 -0.05908
 H865 H 0.36532 0.49184 -0.09559
 H866 H 0.35613 0.48135 -0.13644
 H867 H 0.30585 0.43577 -0.19057
 H868 H 0.27327 0.40836 -0.19471
 H869 H 0.25010 0.39143 -0.15822
 H870 H 0.25935 0.40182 -0.11737
 C871 C 0.79790 0.93299 0.39660
 C872 C 0.79217 0.92666 0.37301
 C873 C 0.80520 0.93662 0.35189
 C874 C 0.82390 0.95282 0.35449
 C875 C 0.82928 0.95956 0.37804
 C876 C 0.81625 0.94960 0.39917
 C877 C 0.82208 0.95646 0.42253
 C878 C 0.84023 0.97273 0.42495
 C879 C 0.85294 0.98250 0.40430
 C880 C 0.84762 0.97604 0.38106
 C881 C 0.79922 0.92995 0.32851
 C882 C 0.78091 0.91386 0.32606
 C883 C 0.76820 0.90408 0.34671
 C884 C 0.77369 0.91035 0.36996
 C885 C 0.83808 0.96193 0.33302
 C886 C 0.85014 0.96918 0.31525
 C887 C 0.78544 0.92183 0.41820
 C888 C 0.77529 0.91203 0.43595
 H889 H 0.81267 0.94937 0.43913
 H890 H 0.84444 0.97780 0.44296
 H891 H 0.86701 0.99514 0.40628
 H892 H 0.85799 0.98414 0.36554
 H893 H 0.80857 0.93710 0.31190
 H894 H 0.77657 0.90896 0.30804
 H895 H 0.75400 0.89158 0.34471
 H896 H 0.76327 0.90229 0.38546
 C897 C 0.81527 0.03738 1.14308
 C898 C 0.82491 0.01304 1.14571
 C899 C 0.83554 0.00444 1.16785
 C900 C 0.83642 0.02024 1.18723
 C901 C 0.82712 0.04469 1.18445
 C902 C 0.81652 0.05329 1.16232
 C903 C 0.80731 0.07781 1.16001
 C904 C 0.80857 0.09338 1.17900
 C905 C 0.81894 0.08496 1.20063
 C906 C 0.82813 0.06092 1.20343
 C907 C 0.84505 -0.01996 1.17006
 C908 C 0.84404 -0.03545 1.15097
 C909 C 0.83364 -0.02705 1.12934
 C910 C 0.82415 -0.00309 1.12663
 C911 C 0.84657 0.01131 1.21013
 C912 C 0.85483 0.00402 1.22926
 C913 C 0.80391 0.04618 1.12074
 C914 C 0.79425 0.05433 1.10260
 H915 H 0.79909 0.08525 1.14354
 H916 H 0.80147 0.11208 1.17690
 H917 H 0.81988 0.09712 1.21533
 H918 H 0.83606 0.05524 1.22060
 H919 H 0.85339 -0.02731 1.18651
 H920 H 0.85138 -0.05408 1.15298
 H921 H 0.83293 -0.03915 1.11456
 H922 H 0.81627 0.00264 1.10946
 C923 C 0.31182 0.53122 0.63994
 C924 C 0.33736 0.53079 0.64171
 C925 C 0.34781 0.52211 0.66390
 C926 C 0.33266 0.51399 0.68420
 C927 C 0.30719 0.51373 0.68219
 C928 C 0.29674 0.52238 0.66000
 C929 C 0.27122 0.52211 0.65848
 C930 C 0.25644 0.51348 0.67830
 C931 C 0.26666 0.50500 0.70000
 C932 C 0.29173 0.50510 0.70204
 C933 C 0.37338 0.52193 0.66527
 C934 C 0.38819 0.53010 0.64529
 C935 C 0.37797 0.53863 0.62360
 C936 C 0.35286 0.53902 0.62173
 C937 C 0.34316 0.50639 0.70729
 C938 C 0.35172 0.50020 0.72657
 C939 C 0.30097 0.54176 0.61795
 C940 C 0.29180 0.55120 0.60007
 H941 H 0.26242 0.52847 0.64197
 H942 H 0.23696 0.51337 0.67681
 H943 H 0.25511 0.49831 0.71535
 H944 H 0.29882 0.49828 0.71928
 H945 H 0.38217 0.51542 0.68174
 H946 H 0.40771 0.52982 0.64664
 H947 H 0.38956 0.54497 0.60813
 H948 H 0.34576 0.54575 0.60446
 C949 C 0.19647 0.54128 0.38962
 C950 C 0.18479 0.51887 0.39101
 C951 C 0.17326 0.51145 0.37033
 C952 C 0.17350 0.52649 0.34841
 C953 C 0.18589 0.54851 0.34676
 C954 C 0.19742 0.55592 0.36742
 C955 C 0.20952 0.57813 0.36539
 C956 C 0.21019 0.59258 0.34358
 C957 C 0.19890 0.58533 0.32339
 C958 C 0.18685 0.56357 0.32485
 C959 C 0.16148 0.48908 0.37221
 C960 C 0.16115 0.47443 0.39390
 C961 C 0.17244 0.48168 0.41411
 C962 C 0.18414 0.50365 0.41279
 C963 C 0.16014 0.51997 0.32791
 C964 C 0.14863 0.51525 0.31093
 C965 C 0.20648 0.55000 0.41122
 C966 C 0.21437 0.55837 0.42880
 H967 H 0.21863 0.58454 0.38057
 H968 H 0.21954 0.60949 0.34235
 H969 H 0.19946 0.59662 0.30649
 H970 H 0.17838 0.55870 0.30863
 H971 H 0.15249 0.48266 0.35695
 H972 H 0.15209 0.45735 0.39502
 H973 H 0.17214 0.47023 0.43090
 H974 H 0.19271 0.50851 0.42897
 C975 C 0.69734 0.03758 0.89247
 C976 C 0.68553 0.01522 0.89409
 C977 C 0.67381 0.00773 0.87356
 C978 C 0.67402 0.02262 0.85154
 C979 C 0.68660 0.04453 0.84963
 C980 C 0.69831 0.05202 0.87015
 C981 C 0.71058 0.07412 0.86786
 C982 C 0.71126 0.08839 0.84594
 C983 C 0.69978 0.08107 0.82589
 C984 C 0.68756 0.05942 0.82761
 C985 C 0.66188 -0.01454 0.87569
 C986 C 0.66159 -0.02904 0.89747
 C987 C 0.67309 -0.02173 0.91753
 C988 C 0.68493 0.00015 0.91597
 C989 C 0.66036 0.01612 0.83124
 C990 C 0.64858 0.01146 0.81443
 C991 C 0.70731 0.04653 0.91398
 C992 C 0.71512 0.05520 0.93145
 H993 H 0.71984 0.08058 0.88291
 H994 H 0.72074 0.10522 0.84451
 H995 H 0.70034 0.09223 0.80890
 H996 H 0.67895 0.05448 0.81149
 H997 H 0.65272 -0.02100 0.86056
 H998 H 0.65241 -0.04605 0.89878
 H999 H 0.67283 -0.03308 0.93440
 H1000 H 0.69366 0.00508 0.93203
 C1001 C 0.67501 0.93412 0.64889
 C1002 C 0.67080 0.92083 0.67159
 C1003 C 0.66272 0.93334 0.69275
 C1004 C 0.65890 0.95905 0.69108
 C1005 C 0.66279 0.97231 0.66833
 C1006 C 0.67093 0.95981 0.64718
 C1007 C 0.67477 0.97345 0.62465
 C1008 C 0.67060 0.99872 0.62305
 C1009 C 0.66255 1.01093 0.64372
 C1010 C 0.65868 0.99797 0.66615
 C1011 C 0.65859 0.91968 0.71523
 C1012 C 0.66237 0.89438 0.71677
 C1013 C 0.67026 0.88214 0.69609
 C1014 C 0.67448 0.89512 0.67371
 C1015 C 0.65073 0.97177 0.71273
 C1016 C 0.64361 0.98195 0.73083
 C1017 C 0.68363 0.92134 0.62737
 C1018 C 0.69091 0.91054 0.60968
 H1019 H 0.68098 0.96477 0.60806
 H1020 H 0.67360 1.00887 0.60567
 H1021 H 0.65929 1.03055 0.64238
 H1022 H 0.65240 1.00827 0.68172
 H1023 H 0.65232 0.92835 0.73181
 H1024 H 0.65905 0.88422 0.73410
 H1025 H 0.67312 0.86248 0.69737
 H1026 H 0.68059 0.88477 0.65814
 C1027 C 0.17467 0.43430 0.14686
 C1028 C 0.17010 0.42151 0.16976
 C1029 C 0.16279 0.43459 0.19077
 C1030 C 0.16003 0.46039 0.18872
 C1031 C 0.16450 0.47318 0.16581
 C1032 C 0.17183 0.46009 0.14481
 C1033 C 0.17610 0.47327 0.12208
 C1034 C 0.17322 0.49865 0.12017
 C1035 C 0.16608 0.51144 0.14071
 C1036 C 0.16174 0.49895 0.16332
 C1037 C 0.15835 0.42142 0.21347
 C1038 C 0.16102 0.39603 0.21537
 C1039 C 0.16807 0.38323 0.19481
 C1040 C 0.17260 0.39572 0.17223
 C1041 C 0.15198 0.47366 0.21006
 C1042 C 0.14478 0.48435 0.22783
 C1043 C 0.18247 0.42096 0.12547
 C1044 C 0.18912 0.40987 0.10777
 H1045 H 0.18166 0.46414 0.10557
 H1046 H 0.17654 0.50844 0.10264
 H1047 H 0.16387 0.53115 0.13913
 H1048 H 0.15622 0.50970 0.17878
 H1049 H 0.15273 0.43054 0.22997
 H1050 H 0.15747 0.38625 0.23286
 H1051 H 0.17002 0.36350 0.19637
 H1052 H 0.17804 0.38495 0.15677
 C1053 C -0.10292 0.30164 0.43226
 C1054 C -0.10832 0.30112 0.45787
 C1055 C -0.12946 0.31403 0.46739
 C1056 C -0.14505 0.32738 0.45125
 C1057 C -0.13968 0.32786 0.42563
 C1058 C -0.11856 0.31496 0.41612
 C1059 C -0.11356 0.31575 0.39044
 C1060 C -0.12899 0.32888 0.37463
 C1061 C -0.14965 0.34148 0.38394
 C1062 C -0.15503 0.34104 0.40912
 C1063 C -0.13449 0.31325 0.49304
 C1064 C -0.11906 0.30010 0.50885
 C1065 C -0.09839 0.28749 0.49954
 C1066 C -0.09299 0.28794 0.47435
 C1067 C -0.16649 0.34085 0.46087
 C1068 C -0.18431 0.35237 0.46833
 C1069 C -0.08138 0.28850 0.42238
 C1070 C -0.06372 0.27784 0.41341
 H1071 H -0.09770 0.30627 0.38229
 H1072 H -0.12488 0.32928 0.35505
 H1073 H -0.16160 0.35164 0.37158
 H1074 H -0.17133 0.35113 0.41546
 H1075 H -0.15035 0.32278 0.50114
 H1076 H -0.12318 0.29968 0.52843
 H1077 H -0.08647 0.27731 0.51190
 H1078 H -0.07669 0.27786 0.46797
 C1079 C 0.39277 0.79557 0.93664
 C1080 C 0.39456 0.81004 0.95691
 C1081 C 0.37364 0.82330 0.96642
 C1082 C 0.35109 0.82201 0.95558
 C1083 C 0.34919 0.80711 0.93566
 C1084 C 0.37009 0.79384 0.92616
 C1085 C 0.36777 0.77917 0.90614
 C1086 C 0.34544 0.77764 0.89582
 C1087 C 0.32500 0.79061 0.90511
 C1088 C 0.32675 0.80521 0.92479
 C1089 C 0.37588 0.83774 0.98662
 C1090 C 0.39815 0.83901 0.99714
 C1091 C 0.41860 0.82605 0.98784
 C1092 C 0.41694 0.81171 0.96794
 C1093 C 0.32999 0.83644 0.96449
 C1094 C 0.31242 0.84861 0.97151
 C1095 C 0.41433 0.78306 0.92601
 C1096 C 0.43200 0.77289 0.91651
 H1097 H 0.38314 0.76870 0.89828
 H1098 H 0.34400 0.76631 0.88052
 H1099 H 0.30770 0.78935 0.89703
 H1100 H 0.31032 0.81493 0.93139
 H1101 H 0.36048 0.84813 0.99451
 H1102 H 0.39954 0.85011 1.01261
 H1103 H 0.43586 0.82710 0.99608
 H1104 H 0.43333 0.80194 0.96135
 C1105 C 1.13973 0.81622 0.02759
 C1106 C 1.16113 0.80082 0.02707
 C1107 C 1.18382 0.81054 0.01908
 C1108 C 1.18497 0.83559 0.01162
 C1109 C 1.16344 0.85078 0.01121
 C1110 C 1.14074 0.84106 0.01924
 C1111 C 1.11948 0.85662 0.01888
 C1112 C 1.12061 0.88109 0.01077
 C1113 C 1.14280 0.89060 0.00292
 C1114 C 1.16404 0.87570 0.00310
 C1115 C 1.20500 0.79483 0.01895
 C1116 C 1.20379 0.77021 0.02644
 C1117 C 1.18159 0.76070 0.03422
 C1118 C 1.16045 0.77574 0.03459
 C1119 C 1.20837 0.84581 0.00503
 C1120 C 1.22793 0.85413 -0.00013
 C1121 C 1.11704 0.80675 0.03796
 C1122 C 1.09873 0.79851 0.04748
 H1123 H 1.10180 0.85002 0.02476
 H1124 H 1.10416 0.89273 0.01056
 H1125 H 1.14357 0.90961 -0.00339
 H1126 H 1.18086 0.88390 -0.00326
 H1127 H 1.22269 0.80137 0.01300
 H1128 H 1.22016 0.75845 0.02617
 H1129 H 1.18073 0.74156 0.04000
 H1130 H 1.14361 0.76746 0.04073
 C1131 C 0.64449 0.31497 0.53699
 C1132 C 0.66564 0.31080 0.55043
 C1133 C 0.68777 0.32115 0.54153
 C1134 C 0.68867 0.33555 0.51920
 C1135 C 0.66755 0.33968 0.50572
 C1136 C 0.64539 0.32936 0.51465
 C1137 C 0.62453 0.33373 0.50087
 C1138 C 0.62554 0.34784 0.47885
 C1139 C 0.64721 0.35788 0.47009
 C1140 C 0.66803 0.35396 0.48332
 C1141 C 0.70864 0.31678 0.55533
 C1142 C 0.70768 0.30255 0.57728
 C1143 C 0.68605 0.29240 0.58596
 C1144 C 0.66522 0.29641 0.57278
 C1145 C 0.71132 0.34607 0.51015
 C1146 C 0.73017 0.35477 0.50275
 C1147 C 0.62188 0.30454 0.54635
 C1148 C 0.60352 0.29562 0.55493
 H1149 H 0.60726 0.32628 0.50694
 H1150 H 0.60942 0.35097 0.46851
 H1151 H 0.64792 0.36874 0.45292
 H1152 H 0.68444 0.36221 0.47578
 H1153 H 0.72590 0.32428 0.54934
 H1154 H 0.72382 0.29938 0.58758
 H1155 H 0.68540 0.28134 0.60301
 H1156 H 0.64884 0.28810 0.58032
 C1157 C 0.39431 0.20214 0.53470
 C1158 C 0.37080 0.20801 0.54518
 C1159 C 0.35033 0.19639 0.53755
 C1160 C 0.35349 0.17899 0.51947
 C1161 C 0.37682 0.17398 0.50817
 C1162 C 0.39730 0.18561 0.51581
 C1163 C 0.42048 0.18015 0.50443
 C1164 C 0.42334 0.16370 0.48597
 C1165 C 0.40332 0.15232 0.47851
 C1166 C 0.38028 0.15731 0.48944
 C1167 C 0.32706 0.20231 0.54851
 C1168 C 0.32408 0.21930 0.56645
 C1169 C 0.34409 0.23070 0.57389
 C1170 C 0.36723 0.22517 0.56346
 C1171 C 0.33297 0.16543 0.51342
 C1172 C 0.31598 0.15379 0.50904
 C1173 C 0.41544 0.21190 0.54453
 C1174 C 0.43258 0.21954 0.55383
 H1175 H 0.43657 0.18862 0.50958
 H1176 H 0.44119 0.15978 0.47741
 H1177 H 0.40564 0.13957 0.46416
 H1178 H 0.36524 0.14806 0.48299
 H1179 H 0.31093 0.19397 0.54329
 H1180 H 0.30614 0.22366 0.57460
 H1181 H 0.34168 0.24391 0.58781
 H1182 H 0.38222 0.23458 0.56980
 C1183 C 0.88966 0.70444 0.03524
 C1184 C 0.86670 0.70729 0.04800
 C1185 C 0.84657 0.69495 0.04060
 C1186 C 0.84954 0.67988 0.02050
 C1187 C 0.87222 0.67787 0.00709
 C1188 C 0.89236 0.69021 0.01449
 C1189 C 0.91492 0.68777 0.00096
 C1190 C 0.91751 0.67358 -0.01935
 C1191 C 0.89782 0.66150 -0.02657
 C1192 C 0.87540 0.66354 -0.01356
 C1193 C 0.82386 0.69785 0.05380
 C1194 C 0.82109 0.71254 0.07372
 C1195 C 0.84076 0.72462 0.08094
 C1196 C 0.86335 0.72208 0.06831
 C1197 C 0.82958 0.66559 0.01437
 C1198 C 0.81308 0.65337 0.00983
 C1199 C 0.91070 0.71492 0.04446
 C1200 C 0.92786 0.72310 0.05323
 H1201 H 0.93072 0.69689 0.00586
 H1202 H 0.93488 0.67194 -0.02953
 H1203 H 0.89993 0.65050 -0.04236
 H1204 H 0.86059 0.65385 -0.01990
 H1205 H 0.80800 0.68887 0.04884
 H1206 H 0.80358 0.71457 0.08359
 H1207 H 0.83852 0.73603 0.09642
 H1208 H 0.87808 0.73191 0.07459
 C1209 C 0.64633 0.67765 0.93576
 C1210 C 0.64561 0.67259 0.96144
 C1211 C 0.66729 0.66498 0.97314
 C1212 C 0.68956 0.66254 0.95907
 C1213 C 0.69029 0.66753 0.93339
 C1214 C 0.66861 0.67512 0.92170
 C1215 C 0.66977 0.67997 0.89598
 C1216 C 0.69172 0.67738 0.88223
 C1217 C 0.71293 0.66998 0.89367
 C1218 C 0.71232 0.66505 0.91894
 C1219 C 0.66612 0.65991 0.99881
 C1220 C 0.64413 0.66234 1.01255
 C1221 C 0.62293 0.66981 1.00112
 C1222 C 0.62355 0.67491 0.97586
 C1223 C 0.71167 0.65446 0.97089
 C1224 C 0.73011 0.64735 0.98034
 C1225 C 0.62424 0.68547 0.92374
 C1226 C 0.60614 0.69206 0.91339
 H1227 H 0.65377 0.68578 0.88624
 H1228 H 0.69227 0.68113 0.86258
 H1229 H 0.72993 0.66794 0.88290
 H1230 H 0.72930 0.65927 0.92697
 H1231 H 0.68213 0.65404 1.00853
 H1232 H 0.64355 0.65842 1.03217
 H1233 H 0.60590 0.67165 1.01188
 H1234 H 0.60658 0.68065 0.96780
 C1235 C 0.15066 0.18168 0.43240
 C1236 C 0.15057 0.18126 0.45828
 C1237 C 0.17192 0.17333 0.47041
 C1238 C 0.19324 0.16593 0.45658
 C1239 C 0.19335 0.16637 0.43071
 C1240 C 0.17200 0.17428 0.41858
 C1241 C 0.17253 0.17455 0.39269
 C1242 C 0.19356 0.16723 0.37918
 C1243 C 0.21444 0.15949 0.39104
 C1244 C 0.21443 0.15899 0.41650
 C1245 C 0.17137 0.17296 0.49629
 C1246 C 0.15033 0.18022 0.50981
 C1247 C 0.12946 0.18800 0.49795
 C1248 C 0.12948 0.18856 0.47248
 C1249 C 0.21492 0.15743 0.46897
 C1250 C 0.23290 0.14997 0.47906
 C1251 C 0.12883 0.18967 0.42001
 C1252 C 0.11078 0.19633 0.40961
 H1253 H 0.15674 0.18040 0.38263
 H1254 H 0.19365 0.16755 0.35940
 H1255 H 0.23070 0.15372 0.38047
 H1256 H 0.23110 0.15274 0.42488
 H1257 H 0.18715 0.16706 0.50634
 H1258 H 0.15022 0.17980 0.52959
 H1259 H 0.11316 0.19362 0.50853
 H1260 H 0.11280 0.19476 0.46409
 C1261 C 0.55854 0.12242 0.69845
 C1262 C 0.55685 0.12190 0.72437
 C1263 C 0.56537 0.10078 0.73821
 C1264 C 0.57554 0.08032 0.72605
 C1265 C 0.57693 0.08070 0.70015
 C1266 C 0.56837 0.10180 0.68631
 C1267 C 0.57003 0.10178 0.66043
 C1268 C 0.57993 0.08153 0.64857
 C1269 C 0.58836 0.06092 0.66211
 C1270 C 0.58691 0.06040 0.68761
 C1271 C 0.56366 0.10075 0.76409
 C1272 C 0.55379 0.12100 0.77597
 C1273 C 0.54545 0.14164 0.76244
 C1274 C 0.54690 0.14219 0.73693
 C1275 C 0.58543 0.05930 0.74019
 C1276 C 0.59418 0.04226 0.75211
 C1277 C 0.55071 0.14435 0.68432
 C1278 C 0.54444 0.16262 0.67255
 H1279 H 0.56371 0.11738 0.64910
 H1280 H 0.58108 0.08183 0.62877
 H1281 H 0.59606 0.04524 0.65282
 H1282 H 0.59367 0.04394 0.69736
 H1283 H 0.56990 0.08512 0.77542
 H1284 H 0.55263 0.12066 0.79578
 H1285 H 0.53780 0.15732 0.77176
 H1286 H 0.54016 0.15866 0.72722
 C1287 C 1.05611 0.62826 0.19538
 C1288 C 1.05687 0.62832 0.22116
 C1289 C 1.06584 0.60719 0.23469
 C1290 C 1.07399 0.58611 0.22236
 C1291 C 1.07279 0.58588 0.19664
 C1292 C 1.06381 0.60701 0.18311
 C1293 C 1.06292 0.60638 0.15739
 C1294 C 1.07070 0.58549 0.14538
 C1295 C 1.07951 0.56485 0.15862
 C1296 C 1.08059 0.56494 0.18396
 C1297 C 1.06659 0.60776 0.26044
 C1298 C 1.05870 0.62859 0.27247
 C1299 C 1.04992 0.64924 0.25924
 C1300 C 1.04898 0.64922 0.23388
 C1301 C 1.08454 0.56510 0.23603
 C1302 C 1.09392 0.54812 0.24754
 C1303 C 1.04799 0.65020 0.18144
 C1304 C 1.04155 0.66844 0.16971
 H1305 H 1.05620 0.62198 0.14630
 H1306 H 1.06989 0.58533 0.12570
 H1307 H 1.08554 0.54867 0.14920
 H1308 H 1.08754 0.54843 0.19346
 H1309 H 1.07324 0.59214 0.27153
 H1310 H 1.05940 0.62870 0.29217
 H1311 H 1.04381 0.66538 0.26867
 H1312 H 1.04200 0.66573 0.22439
 C1313 C 0.95650 0.88219 0.19260
 C1314 C 0.94132 0.90083 0.18162
 C1315 C 0.93004 0.91933 0.19606
 C1316 C 0.93401 0.91906 0.22137
 C1317 C 0.94978 0.90087 0.23218
 C1318 C 0.96108 0.88239 0.21775
 C1319 C 0.97665 0.86430 0.22899
 C1320 C 0.98094 0.86448 0.25380
 C1321 C 0.96988 0.88255 0.26791
 C1322 C 0.95445 0.90058 0.25733
 C1323 C 0.91480 0.93768 0.18473
 C1324 C 0.91090 0.93780 0.15983
 C1325 C 0.92191 0.91970 0.14571
 C1326 C 0.93694 0.90137 0.15639
 C1327 C 0.92108 0.93684 0.23647
 C1328 C 0.90985 0.95121 0.24908
 C1329 C 0.96661 0.86232 0.17830
 C1330 C 0.97452 0.84554 0.16653
 H1331 H 0.98571 0.84990 0.21876
 H1332 H 0.99292 0.85052 0.26210
 H1333 H 0.97327 0.88261 0.28717
 H1334 H 0.94631 0.91428 0.26905
 H1335 H 0.90585 0.95217 0.19495
 H1336 H 0.89930 0.95204 0.15143
 H1337 H 0.91881 0.91988 0.12637
 H1338 H 0.94515 0.88772 0.14465
 C1339 C 0.45954 0.37797 0.69433
 C1340 C 0.46241 0.37822 0.71982
 C1341 C 0.45057 0.39704 0.73344
 C1342 C 0.43597 0.41551 0.72148
 C1343 C 0.43389 0.41582 0.69583
 C1344 C 0.44571 0.39699 0.68221
 C1345 C 0.44317 0.39754 0.65662
 C1346 C 0.42937 0.41620 0.64482
 C1347 C 0.41781 0.43461 0.65815
 C1348 C 0.41997 0.43451 0.68338
 C1349 C 0.45347 0.39675 0.75896
 C1350 C 0.46773 0.37843 0.77067
 C1351 C 0.47934 0.36004 0.75734
 C1352 C 0.47676 0.35983 0.73220
 C1353 C 0.42206 0.43337 0.73570
 C1354 C 0.40986 0.44771 0.74755
 C1355 C 0.46982 0.35762 0.68079
 C1356 C 0.47773 0.34050 0.66952
 H1357 H 0.45185 0.38365 0.64546
 H1358 H 0.42765 0.41636 0.62523
 H1359 H 0.40712 0.44906 0.64891
 H1360 H 0.41069 0.44926 0.69295
 H1361 H 0.44485 0.41071 0.77009
 H1362 H 0.46979 0.37852 0.79019
 H1363 H 0.49041 0.34586 0.76652
 H1364 H 0.48617 0.34518 0.72261
 C1365 C 0.46260 0.60236 0.79321
 C1366 C 0.44810 0.60373 0.77265
 C1367 C 0.43500 0.58324 0.76731
 C1368 C 0.43653 0.56155 0.78257
 C1369 C 0.45199 0.55979 0.80240
 C1370 C 0.46508 0.58026 0.80773
 C1371 C 0.48019 0.57815 0.82785
 C1372 C 0.48232 0.55646 0.84228
 C1373 C 0.46950 0.53646 0.83708
 C1374 C 0.45448 0.53800 0.81741
 C1375 C 0.42038 0.58512 0.74685
 C1376 C 0.41877 0.60661 0.73203
 C1377 C 0.43158 0.62664 0.73725
 C1378 C 0.44608 0.62532 0.75733
 C1379 C 0.42113 0.54156 0.77895
 C1380 C 0.40801 0.52497 0.77712
 C1381 C 0.47366 0.62401 0.80055
 C1382 C 0.48233 0.64165 0.80798
 H1383 H 0.49060 0.59318 0.83258
 H1384 H 0.49398 0.55517 0.85757
 H1385 H 0.47120 0.51965 0.84835
 H1386 H 0.44494 0.52192 0.81406
 H1387 H 0.41015 0.56999 0.74205
 H1388 H 0.40754 0.60773 0.71641
 H1389 H 0.43028 0.64328 0.72566
 H1390 H 0.45578 0.64132 0.76064
 C1391 C -0.03442 0.10438 0.29389
 C1392 C -0.05004 0.10567 0.27421
 C1393 C -0.06312 0.08500 0.26944
 C1394 C -0.06049 0.06320 0.28440
 C1395 C -0.04397 0.06155 0.30332
 C1396 C -0.03089 0.08220 0.30808
 C1397 C -0.01471 0.08020 0.32732
 C1398 C -0.01156 0.05843 0.34145
 C1399 C -0.02437 0.03825 0.33680
 C1400 C -0.04041 0.03968 0.31799
 C1401 C -0.07888 0.08679 0.24987
 C1402 C -0.08161 0.10839 0.23538
 C1403 C -0.06882 0.12860 0.24004
 C1404 C -0.05320 0.12736 0.25923
 C1405 C -0.07578 0.04300 0.28138
 C1406 C -0.08885 0.02632 0.27981
 C1407 C -0.02329 0.12617 0.30073
 C1408 C -0.01455 0.14400 0.30769
 H1409 H -0.00428 0.09538 0.33160
 H1410 H 0.00089 0.05722 0.35608
 H1411 H -0.02187 0.02138 0.34782
 H1412 H -0.04991 0.02346 0.31503
 H1413 H -0.08916 0.07152 0.24552
 H1414 H -0.09372 0.10944 0.22045
 H1415 H -0.07099 0.14532 0.22872
 H1416 H -0.04357 0.14352 0.26212
 C1417 C 0.05222 0.37361 0.28631
 C1418 C 0.04381 0.39117 0.30313
 C1419 C 0.05155 0.41546 0.29981
 C1420 C 0.06761 0.42206 0.27969
 C1421 C 0.07471 0.40496 0.26199
 C1422 C 0.06702 0.38063 0.26534
 C1423 C 0.07467 0.36372 0.24766
 C1424 C 0.08934 0.37073 0.22710
 C1425 C 0.09677 0.39455 0.22376
 C1426 C 0.08971 0.41153 0.24102
 C1427 C 0.04326 0.43259 0.31708
 C1428 C 0.02768 0.42592 0.33704
 C1429 C 0.02008 0.40216 0.34029
 C1430 C 0.02803 0.38490 0.32361
 C1431 C 0.07843 0.44565 0.27835
 C1432 C 0.08844 0.46467 0.27786
 C1433 C 0.04718 0.34812 0.29179
 C1434 C 0.04344 0.32714 0.29792
 H1435 H 0.06923 0.34503 0.24944
 H1436 H 0.09493 0.35761 0.21366
 H1437 H 0.10803 0.39993 0.20769
 H1438 H 0.09593 0.42985 0.23764
 H1439 H 0.04861 0.45132 0.31527
 H1440 H 0.02145 0.43926 0.35003
 H1441 H 0.00796 0.39706 0.35581
 H1442 H 0.02155 0.36667 0.32689
 C1443 C 0.55057 0.87020 0.78993
 C1444 C 0.56615 0.87674 0.76939
 C1445 C 0.57427 0.90092 0.76604
 C1446 C 0.56681 0.91832 0.78333
 C1447 C 0.54996 0.91222 0.80294
 C1448 C 0.54179 0.88809 0.80624
 C1449 C 0.52520 0.88231 0.82621
 C1450 C 0.51688 0.89990 0.84239
 C1451 C 0.52490 0.92351 0.83915
 C1452 C 0.54128 0.92969 0.81970
 C1453 C 0.59003 0.90701 0.74551
 C1454 C 0.59743 0.88973 0.72866
 C1455 C 0.58958 0.86606 0.73200
 C1456 C 0.57415 0.85952 0.75213
 C1457 C 0.57798 0.94172 0.78213
 C1458 C 0.58818 0.96061 0.78174
 C1459 C 0.54514 0.84483 0.79556
 C1460 C 0.54111 0.82393 0.80175
 H1461 H 0.51837 0.86422 0.82944
 H1462 H 0.50414 0.89519 0.85751
 H1463 H 0.51838 0.93712 0.85176
 H1464 H 0.54693 0.94832 0.81787
 H1465 H 0.59659 0.92521 0.74214
 H1466 H 0.60928 0.89475 0.71291
 H1467 H 0.59543 0.85271 0.71888
 H1468 H 0.56840 0.84093 0.75393
 C1469 C 0.69626 0.55923 0.12124
 C1470 C 0.72150 0.55299 0.11894
 C1471 C 0.73561 0.56175 0.09800
 C1472 C 0.72441 0.57671 0.07950
 C1473 C 0.69908 0.58250 0.08153
 C1474 C 0.68496 0.57375 0.10247
 C1475 C 0.65970 0.57993 0.10417
 C1476 C 0.64870 0.59431 0.08569
 C1477 C 0.66250 0.60285 0.06520
 C1478 C 0.68741 0.59709 0.06305
 C1479 C 0.76083 0.55540 0.09616
 C1480 C 0.77181 0.54078 0.11449
 C1481 C 0.75801 0.53223 0.13497
 C1482 C 0.73315 0.53821 0.13728
 C1483 C 0.73906 0.58706 0.05896
 C1484 C 0.75115 0.59637 0.04225
 C1485 C 0.68204 0.55111 0.14311
 C1486 C 0.67025 0.54457 0.16134
 H1487 H 0.64819 0.57370 0.11974
 H1488 H 0.62936 0.59885 0.08727
 H1489 H 0.65387 0.61399 0.05088
 H1490 H 0.69736 0.60414 0.04675
 H1491 H 0.77231 0.56159 0.08055
 H1492 H 0.79111 0.53608 0.11278
 H1493 H 0.76662 0.52088 0.14916
 H1494 H 0.72319 0.53110 0.15355
 C1495 C 0.20132 1.05937 0.62323
 C1496 C 0.22701 1.05629 0.62145
 C1497 C 0.24029 1.06562 0.60021
 C1498 C 0.22782 1.07802 0.58090
 C1499 C 0.20211 1.08066 0.58246
 C1500 C 0.18882 1.07131 0.60369
 C1501 C 0.16313 1.07433 0.60490
 C1502 C 0.15094 1.08624 0.58568
 C1503 C 0.16394 1.09537 0.56492
 C1504 C 0.18923 1.09267 0.56323
 C1505 C 0.26596 1.06244 0.59889
 C1506 C 0.27816 1.05037 0.61801
 C1507 C 0.26518 1.04128 0.63880
 C1508 C 0.23989 1.04415 0.64060
 C1509 C 0.24146 1.08898 0.55996
 C1510 C 0.25284 1.09869 0.54296
 C1511 C 0.18778 1.05072 0.64533
 C1512 C 0.17632 1.04385 0.66364
 H1513 H 0.15221 1.06753 0.62066
 H1514 H 0.13129 1.08839 0.58692
 H1515 H 0.15438 1.10460 0.55004
 H1516 H 0.19854 1.10005 0.54668
 H1517 H 0.27686 1.06917 0.58308
 H1518 H 0.29780 1.04807 0.61669
 H1519 H 0.27474 1.03194 0.65362
 H1520 H 0.23058 1.03674 0.65713
 C1521 C 0.19700 0.95661 0.88027
 C1522 C 0.18538 0.94112 0.89846
 C1523 C 0.19883 0.92990 0.91781
 C1524 C 0.22381 0.93424 0.91885
 C1525 C 0.23523 0.95038 0.90116
 C1526 C 0.22178 0.96160 0.88180
 C1527 C 0.23364 0.97749 0.86419
 C1528 C 0.25809 0.98217 0.86567
 C1529 C 0.27125 0.97119 0.88460
 C1530 C 0.26004 0.95545 0.90219
 C1531 C 0.18689 0.91429 0.93565
 C1532 C 0.16236 0.90987 0.93437
 C1533 C 0.14919 0.92085 0.91545
 C1534 C 0.16047 0.93631 0.89765
 C1535 C 0.23804 0.92108 0.93729
 C1536 C 0.24990 0.90947 0.95212
 C1537 C 0.18374 0.96660 0.85953
 C1538 C 0.17271 0.97439 0.84213
 H1539 H 0.22416 0.98648 0.84915
 H1540 H 0.26688 0.99438 0.85206
 H1541 H 0.29024 0.97488 0.88567
 H1542 H 0.27101 0.94739 0.91660
 H1543 H 0.19634 0.90539 0.95076
 H1544 H 0.15352 0.89783 0.94811
 H1545 H 0.13014 0.91736 0.91455
 H1546 H 0.14946 0.94445 0.88331
 C1547 C 0.69461 0.45835 0.37591
 C1548 C 0.68288 0.44690 0.39692
 C1549 C 0.69693 0.43594 0.41596
 C1550 C 0.72260 0.43645 0.41383
 C1551 C 0.73429 0.44854 0.39318
 C1552 C 0.72025 0.45954 0.37416
 C1553 C 0.73235 0.47136 0.35360
 C1554 C 0.75760 0.47229 0.35188
 C1555 C 0.77133 0.46153 0.37047
 C1556 C 0.75991 0.44975 0.39092
 C1557 C 0.68482 0.42448 0.43673
 C1558 C 0.65955 0.42393 0.43867
 C1559 C 0.64581 0.43458 0.42002
 C1560 C 0.65725 0.44594 0.39933
 C1561 C 0.73705 0.42349 0.43223
 C1562 C 0.74914 0.41210 0.44701
 C1563 C 0.68043 0.46812 0.35573
 C1564 C 0.66872 0.47578 0.33876
 H1565 H 0.72245 0.48003 0.33868
 H1566 H 0.76656 0.48143 0.33604
 H1567 H 0.79094 0.46230 0.36906
 H1568 H 0.77137 0.44170 0.40494
 H1569 H 0.69473 0.41595 0.45172
 H1570 H 0.65057 0.41521 0.45474
 H1571 H 0.62618 0.43406 0.42160
 H1572 H 0.64579 0.45401 0.38533
 C1573 C 0.79232 0.46516 0.60434
 C1574 C 0.78050 0.44284 0.60778
 C1575 C 0.77518 0.42999 0.58714
 C1576 C 0.78174 0.43954 0.56322
 C1577 C 0.79216 0.46258 0.55976
 C1578 C 0.79748 0.47543 0.58039
 C1579 C 0.80828 0.49825 0.57649
 C1580 C 0.81359 0.50814 0.55286
 C1581 C 0.80835 0.49559 0.53269
 C1582 C 0.79778 0.47304 0.53598
 C1583 C 0.76368 0.40755 0.59102
 C1584 C 0.75755 0.39809 0.61463
 C1585 C 0.76277 0.41065 0.63481
 C1586 C 0.77414 0.43277 0.63153
 C1587 C 0.77950 0.42488 0.54238
 C1588 C 0.77859 0.41229 0.52523
 C1589 C 0.80098 0.47647 0.62524
 C1590 C 0.80933 0.48530 0.64233
 H1591 H 0.81260 0.50874 0.59162
 H1592 H 0.82180 0.52565 0.55020
 H1593 H 0.81249 0.50335 0.51438
 H1594 H 0.79396 0.46399 0.51974
 H1595 H 0.75918 0.39717 0.57588
 H1596 H 0.74869 0.38092 0.61727
 H1597 H 0.75796 0.40323 0.65311
 H1598 H 0.77776 0.44193 0.64778
 C1599 C 0.28922 -0.04205 0.10727
 C1600 C 0.27785 -0.06462 0.11068
 C1601 C 0.27267 -0.07750 0.09003
 C1602 C 0.27889 -0.06774 0.06610
 C1603 C 0.28900 -0.04454 0.06268
 C1604 C 0.29417 -0.03165 0.08333
 C1605 C 0.30461 -0.00864 0.07946
 C1606 C 0.30976 0.00136 0.05586
 C1607 C 0.30472 -0.01126 0.03566
 C1608 C 0.29447 -0.03396 0.03892
 C1609 C 0.26162 -0.10020 0.09388
 C1610 C 0.25581 -0.10986 0.11749
 C1611 C 0.26088 -0.09725 0.13769
 C1612 C 0.27180 -0.07489 0.13443
 C1613 C 0.27653 -0.08225 0.04517
 C1614 C 0.27557 -0.09458 0.02782
 C1615 C 0.29763 -0.03055 0.12818
 C1616 C 0.30579 -0.02146 0.14523
 H1617 H 0.30878 0.00189 0.09460
 H1618 H 0.31770 0.01900 0.05323
 H1619 H 0.30876 -0.00342 0.01736
 H1620 H 0.29081 -0.04305 0.02265
 H1621 H 0.25728 -0.11064 0.07873
 H1622 H 0.24733 -0.12723 0.12012
 H1623 H 0.25632 -0.10483 0.15598
 H1624 H 0.27533 -0.06570 0.15069
 C1625 C 0.29141 0.05147 0.37124
 C1626 C 0.30831 0.04440 0.38916
 C1627 C 0.30489 0.05324 0.41301
 C1628 C 0.28459 0.06908 0.41879
 C1629 C 0.26682 0.07477 0.40143
 C1630 C 0.27026 0.06595 0.37754
 C1631 C 0.25247 0.07218 0.36035
 C1632 C 0.23173 0.08654 0.36665
 C1633 C 0.22833 0.09510 0.39003
 C1634 C 0.24567 0.08945 0.40726
 C1635 C 0.32222 0.04626 0.43050
 C1636 C 0.34236 0.03093 0.42459
 C1637 C 0.34573 0.02230 0.40125
 C1638 C 0.32898 0.02891 0.38366
 C1639 C 0.28315 0.08116 0.44169
 C1640 C 0.28261 0.09215 0.46009
 C1641 C 0.29694 0.04543 0.34602
 C1642 C 0.30305 0.04092 0.32523
 H1643 H 0.25432 0.06583 0.34199
 H1644 H 0.21820 0.09100 0.35334
 H1645 H 0.21213 0.10614 0.39485
 H1646 H 0.24223 0.09650 0.42523
 H1647 H 0.32031 0.05244 0.44892
 H1648 H 0.35540 0.02570 0.43821
 H1649 H 0.36142 0.01041 0.39674
 H1650 H 0.33233 0.02163 0.36580
 C1651 C 0.79332 0.55407 0.86878
 C1652 C 0.77358 0.57080 0.87398
 C1653 C 0.76943 0.57912 0.89800
 C1654 C 0.78509 0.57069 0.91661
 C1655 C 0.80386 0.55280 0.91179
 C1656 C 0.80798 0.54443 0.88780
 C1657 C 0.82708 0.52678 0.88332
 C1658 C 0.84166 0.51763 0.90203
 C1659 C 0.83765 0.52585 0.92549
 C1660 C 0.81901 0.54326 0.93041
 C1661 C 0.74976 0.59608 0.90273
 C1662 C 0.73456 0.60449 0.88427
 C1663 C 0.73867 0.59640 0.86076
 C1664 C 0.75797 0.57978 0.85555
 C1665 C 0.78320 0.58188 0.93999
 C1666 C 0.78223 0.59215 0.95885
 C1667 C 0.79990 0.54828 0.84367
 C1668 C 0.80669 0.54399 0.82298
 H1669 H 0.83085 0.51976 0.86539
 H1670 H 0.85615 0.50408 0.89830
 H1671 H 0.84904 0.51870 0.93996
 H1672 H 0.81652 0.54904 0.94896
 H1673 H 0.74581 0.60285 0.92075
 H1674 H 0.71948 0.61729 0.88823
 H1675 H 0.72681 0.60301 0.84648
 H1676 H 0.76040 0.57391 0.83703
 C1677 C 0.12143 0.69937 0.55954
 C1678 C 0.10173 0.68787 0.57244
 C1679 C 0.08098 0.70212 0.58079
 C1680 C 0.08007 0.72777 0.57620
 C1681 C 0.09956 0.73922 0.56290
 C1682 C 0.12031 0.72498 0.55455
 C1683 C 0.13964 0.73686 0.54143
 C1684 C 0.13848 0.76209 0.53668
 C1685 C 0.11818 0.77601 0.54483
 C1686 C 0.09890 0.76481 0.55781
 C1687 C 0.06156 0.69025 0.59378
 C1688 C 0.06259 0.66501 0.59835
 C1689 C 0.08288 0.65107 0.59019
 C1690 C 0.10228 0.66227 0.57739
 C1691 C 0.05958 0.74245 0.58605
 C1692 C 0.04289 0.75462 0.59486
 C1693 C 0.14300 0.68495 0.55174
 C1694 C 0.16097 0.67300 0.54540
 H1695 H 0.15581 0.72682 0.53470
 H1696 H 0.15342 0.77088 0.52661
 H1697 H 0.11737 0.79559 0.54109
 H1698 H 0.08348 0.77640 0.56374
 H1699 H 0.04538 0.70030 0.60047
 H1700 H 0.04755 0.65623 0.60825
 H1701 H 0.08359 0.63147 0.59379
 H1702 H 0.11766 0.65065 0.57140
 C1703 C 0.62007 0.19701 1.05957
 C1704 C 0.60102 0.18540 1.07347
 C1705 C 0.58008 0.19938 1.08179
 C1706 C 0.57831 0.22487 1.07615
 C1707 C 0.59706 0.23638 1.06174
 C1708 C 0.61801 0.22241 1.05343
 C1709 C 0.63659 0.23435 1.03916
 C1710 C 0.63449 0.25936 1.03323
 C1711 C 0.61400 0.27302 1.04136
 C1712 C 0.59546 0.26176 1.05548
 C1713 C 0.56133 0.18740 1.09577
 C1714 C 0.56319 0.16231 1.10132
 C1715 C 0.58367 0.14864 1.09318
 C1716 C 0.60244 0.15995 1.07943
 C1717 C 0.55773 0.23938 1.08608
 C1718 C 0.54097 0.25136 1.09503
 C1719 C 0.64191 0.18291 1.05195
 C1720 C 0.66008 0.17117 1.04582
 H1721 H 0.65287 0.22450 1.03241
 H1722 H 0.64885 0.26819 1.02226
 H1723 H 0.61245 0.29244 1.03669
 H1724 H 0.57985 0.27314 1.06134
 H1725 H 0.54502 0.19724 1.10247
 H1726 H 0.54865 0.15344 1.11196
 H1727 H 0.58503 0.12916 1.09753
 H1728 H 0.61799 0.14854 1.07350
 C1729 C 0.87363 0.19528 0.95876
 C1730 C 0.89422 0.18281 0.94785
 C1731 C 0.91329 0.19626 0.93594
 C1732 C 0.91166 0.22209 0.93504
 C1733 C 0.89145 0.23454 0.94663
 C1734 C 0.87238 0.22108 0.95856
 C1735 C 0.85228 0.23392 0.96989
 C1736 C 0.85105 0.25934 0.96943
 C1737 C 0.86968 0.27249 0.95773
 C1738 C 0.88969 0.26033 0.94642
 C1739 C 0.93357 0.18341 0.92492
 C1740 C 0.93499 0.15799 0.92571
 C1741 C 0.91636 0.14483 0.93740
 C1742 C 0.89616 0.15699 0.94836
 C1743 C 0.93023 0.23581 0.92129
 C1744 C 0.94535 0.24709 0.90929
 C1745 C 0.85331 0.18160 0.96919
 C1746 C 0.83630 0.17009 0.97723
 H1747 H 0.83737 0.22448 0.97925
 H1748 H 0.83556 0.26887 0.97821
 H1749 H 0.86863 0.29223 0.95742
 H1750 H 0.90375 0.27136 0.93760
 H1751 H 0.94854 0.19284 0.91566
 H1752 H 0.95064 0.14845 0.91722
 H1753 H 0.91757 0.12508 0.93799
 H1754 H 0.88215 0.14596 0.95727
 C1755 C 0.37651 0.69349 0.46070
 C1756 C 0.39517 0.68173 0.44620
 C1757 C 0.41457 0.69532 0.43516
 C1758 C 0.41514 0.72059 0.43866
 C1759 C 0.39696 0.73216 0.45386
 C1760 C 0.37758 0.71856 0.46493
 C1761 C 0.35950 0.73055 0.47991
 C1762 C 0.36055 0.75528 0.48385
 C1763 C 0.37950 0.76858 0.47301
 C1764 C 0.39753 0.75726 0.45815
 C1765 C 0.43294 0.68323 0.42060
 C1766 C 0.43221 0.65838 0.41710
 C1767 C 0.41323 0.64509 0.42787
 C1768 C 0.39485 0.65653 0.44224
 C1769 C 0.43371 0.73488 0.42563
 C1770 C 0.44873 0.74670 0.41410
 C1771 C 0.35576 0.68004 0.47044
 C1772 C 0.33834 0.66888 0.47796
 H1773 H 0.34444 0.72095 0.48877
 H1774 H 0.34659 0.76416 0.49539
 H1775 H 0.38023 0.78778 0.47614
 H1776 H 0.41194 0.76835 0.45017
 H1777 H 0.44810 0.69278 0.41187
 H1778 H 0.44648 0.64939 0.40602
 H1779 H 0.41274 0.62579 0.42510
 H1780 H 0.38049 0.64541 0.45027
 C1781 C 0.60727 0.78536 0.46623
 C1782 C 0.58365 0.79066 0.47670
 C1783 C 0.56291 0.78606 0.46378
 C1784 C 0.56593 0.77616 0.44048
 C1785 C 0.58950 0.76950 0.43068
 C1786 C 0.61024 0.77411 0.44361
 C1787 C 0.63364 0.76763 0.43330
 C1788 C 0.63647 0.75684 0.41087
 C1789 C 0.61619 0.75235 0.39822
 C1790 C 0.59293 0.75860 0.40791
 C1791 C 0.53948 0.79187 0.47443
 C1792 C 0.53662 0.80189 0.49724
 C1793 C 0.55690 0.80639 0.50989
 C1794 C 0.58019 0.80090 0.49981
 C1795 C 0.54501 0.77445 0.42590
 C1796 C 0.52780 0.77393 0.41340
 C1797 C 0.62833 0.79342 0.47763
 C1798 C 0.64551 0.80140 0.48658
 H1799 H 0.64995 0.77070 0.44253
 H1800 H 0.65450 0.75194 0.40328
 H1801 H 0.61848 0.74397 0.38081
 H1802 H 0.57769 0.75469 0.39744
 H1803 H 0.52316 0.78864 0.46531
 H1804 H 0.51856 0.80618 0.50515
 H1805 H 0.55458 0.81415 0.52761
 H1806 H 0.59541 0.80464 0.51037
 C1807 C 0.10215 0.28512 -0.03527
 C1808 C 0.10491 0.27007 -0.05541
 C1809 C 0.08433 0.26536 -0.06855
 C1810 C 0.06116 0.27577 -0.06145
 C1811 C 0.05816 0.28947 -0.04033
 C1812 C 0.07872 0.29414 -0.02719
 C1813 C 0.07533 0.30819 -0.00633
 C1814 C 0.05227 0.31729 0.00135
 C1815 C 0.03216 0.31273 -0.01152
 C1816 C 0.03497 0.29901 -0.03216
 C1817 C 0.08756 0.25054 -0.08883
 C1818 C 0.11048 0.24058 -0.09589
 C1819 C 0.13060 0.24518 -0.08304
 C1820 C 0.12796 0.25979 -0.06303
 C1821 C 0.04082 0.27396 -0.07681
 C1822 C 0.02410 0.27343 -0.08994
 C1823 C 0.12344 0.29308 -0.02416
 C1824 C 0.14075 0.30103 -0.01543
 H1825 H 0.09041 0.31214 0.00433
 H1826 H 0.04999 0.32793 0.01739
 H1827 H 0.01428 0.31984 -0.00548
 H1828 H 0.01877 0.29586 -0.04152
 H1829 H 0.07242 0.24638 -0.09933
 H1830 H 0.11263 0.22922 -0.11141
 H1831 H 0.14835 0.23738 -0.08858
 H1832 H 0.14411 0.26280 -0.05353
 C1833 C 0.36720 0.28710 0.05364
 C1834 C 0.38543 0.30241 0.04323
 C1835 C 0.40950 0.29940 0.05126
 C1836 C 0.41519 0.28103 0.06954
 C1837 C 0.39740 0.26461 0.07866
 C1838 C 0.37328 0.26771 0.07074
 C1839 C 0.35566 0.25141 0.08045
 C1840 C 0.36175 0.23241 0.09736
 C1841 C 0.38537 0.22927 0.10499
 C1842 C 0.40305 0.24520 0.09591
 C1843 C 0.42732 0.31522 0.04096
 C1844 C 0.42156 0.33341 0.02309
 C1845 C 0.39804 0.33631 0.01517
 C1846 C 0.38009 0.32108 0.02510
 C1847 C 0.43860 0.28030 0.08040
 C1848 C 0.45748 0.28025 0.09039
 C1849 C 0.34199 0.29264 0.04824
 C1850 C 0.32119 0.29862 0.04423
 H1851 H 0.33709 0.25306 0.07493
 H1852 H 0.34809 0.22001 0.10452
 H1853 H 0.39004 0.21437 0.11796
 H1854 H 0.42119 0.24201 0.10235
 H1855 H 0.44588 0.31359 0.04648
 H1856 H 0.43543 0.34528 0.01533
 H1857 H 0.39367 0.35043 0.00124
 H1858 H 0.36208 0.32400 0.01830
 C1859 C 0.87130 0.78908 0.55809
 C1860 C 0.88861 0.80617 0.54935
 C1861 C 0.91285 0.80337 0.55690
 C1862 C 0.91967 0.78345 0.57307
 C1863 C 0.90280 0.76555 0.58060
 C1864 C 0.87850 0.76840 0.57311
 C1865 C 0.86184 0.75047 0.58112
 C1866 C 0.86905 0.73015 0.59592
 C1867 C 0.89284 0.72730 0.60314
 C1868 C 0.90957 0.74481 0.59574
 C1869 C 0.92973 0.82091 0.54827
 C1870 C 0.92287 0.84060 0.53250
 C1871 C 0.89917 0.84331 0.52505
 C1872 C 0.88216 0.82638 0.53334
 C1873 C 0.94341 0.78240 0.58329
 C1874 C 0.96273 0.78226 0.59251
 C1875 C 0.84591 0.79389 0.55293
 C1876 C 0.82506 0.79954 0.54882
 H1877 H 0.84319 0.75188 0.57585
 H1878 H 0.85613 0.71650 0.60176
 H1879 H 0.89837 0.71140 0.61449
 H1880 H 0.92787 0.74182 0.60182
 H1881 H 0.94840 0.81952 0.55348
 H1882 H 0.93602 0.85380 0.52602
 H1883 H 0.89394 0.85862 0.51278
 H1884 H 0.86398 0.82925 0.52696
   
