data_POSCAR
  _audit_creation_date              2014-09-24
  _audit_creation_method            'ToBaCCo'
  _symmetry_space_group_name_H-M    'P1'
  _symmetry_Int_Tables_number       1
  _symmetry_cell_setting            triclinic
  loop_
  _symmetry_equiv_pos_as_xyz
 x,y,z
_cell_length_a 49.2706
_cell_length_b 52.3646
_cell_length_c 61.0895
_cell_angle_alpha 89.819100
_cell_angle_beta 89.919200
_cell_angle_gamma 90.037200
loop_
  _atom_site_label
  _atom_site_type_symbol
  _atom_site_fract_x
  _atom_site_fract_y
  _atom_site_fract_z
Zr1 Zr 0.24821 0.24815 0.28775
 O2 O 0.26877 0.26779 0.31305
 O3 O 0.22146 0.22485 0.30569
 O4 O 0.22164 0.27207 0.30540
 O5 O 0.29737 0.20184 0.28005
 O6 O 0.20171 0.29677 0.27913
 O7 O 0.27375 0.22380 0.30604
 O8 O 0.19629 0.20554 0.27922
 O9 O 0.21290 0.25046 0.26885
 O10 O 0.24721 0.21494 0.26889
 O11 O 0.25212 0.28205 0.26942
 O12 O 0.28496 0.24796 0.26988
 Zr13 Zr 0.25169 0.25025 0.21158
 Zr14 Zr 0.21772 0.28316 0.24935
 Zr15 Zr 0.28236 0.21547 0.24992
 Zr16 Zr 0.21295 0.21791 0.24926
 O17 O 0.32529 0.21661 0.24960
 O18 O 0.17088 0.22634 0.24848
 O19 O 0.24799 0.21605 0.22966
 O20 O 0.21532 0.25059 0.22961
 O21 O 0.25284 0.28385 0.23004
 O22 O 0.28679 0.24811 0.23065
 C23 C 0.20243 0.20974 0.29936
 C24 C 0.29161 0.20722 0.30010
 C25 C 0.20550 0.29004 0.29920
 O26 O 0.17490 0.28217 0.24705
 O27 O 0.20606 0.29969 0.21928
 O28 O 0.22836 0.27642 0.19337
 C29 C 0.21194 0.29426 0.19927
 O30 O 0.30556 0.29315 0.27940
 Zr31 Zr 0.28704 0.28074 0.24989
 O32 O 0.27854 0.27300 0.19349
 O33 O 0.22341 0.32314 0.25132
 O34 O 0.28256 0.32098 0.25113
 O35 O 0.32948 0.27419 0.24850
 O36 O 0.30090 0.29571 0.21967
 C37 C 0.29566 0.29007 0.19958
 O38 O 0.22949 0.23190 0.18646
 O39 O 0.27697 0.17537 0.25064
 O40 O 0.27589 0.22447 0.19373
 O41 O 0.29516 0.19941 0.22006
 O42 O 0.21562 0.17749 0.25015
 O43 O 0.19758 0.20228 0.21969
 C44 C 0.29100 0.20574 0.19994
 H45 H 0.24658 0.19911 0.27777
 H46 H 0.19933 0.25123 0.21984
 H47 H 0.30362 0.24714 0.22182
 H48 H 0.25303 0.29712 0.27914
 H49 H 0.16098 0.21040 0.25210
 H50 H 0.16860 0.30012 0.24768
 H51 H 0.20518 0.33104 0.25029
 H52 H 0.30038 0.32862 0.24738
 H53 H 0.19721 0.17078 0.25332
 H54 H 0.29533 0.16769 0.25130
 H55 H 0.33159 0.19866 0.24905
 H56 H 0.33830 0.29074 0.24506
 H57 H 0.18136 0.19175 0.22295
 H58 H 0.23690 0.23798 0.17226
 H59 H 0.26141 0.26142 0.32718
 H60 H 0.31856 0.30708 0.27612
 Zr61 Zr 0.75064 0.75131 0.28811
 O62 O 0.73095 0.73235 0.31438
 O63 O 0.77728 0.77572 0.30487
 O64 O 0.77777 0.72826 0.30622
 O65 O 0.70038 0.79654 0.27950
 O66 O 0.79808 0.70345 0.28035
 O67 O 0.72469 0.77572 0.30585
 O68 O 0.80158 0.79447 0.27742
 O69 O 0.78568 0.74911 0.26879
 O70 O 0.75054 0.78382 0.26816
 O71 O 0.74725 0.71671 0.27090
 O72 O 0.71362 0.75011 0.27071
 Zr73 Zr 0.74590 0.74615 0.21203
 Zr74 Zr 0.78133 0.71567 0.25042
 Zr75 Zr 0.71512 0.78189 0.24965
 Zr76 Zr 0.78448 0.78087 0.24812
 O77 O 0.67223 0.77985 0.24990
 O78 O 0.82673 0.77334 0.24681
 O79 O 0.74912 0.78112 0.22892
 O80 O 0.78255 0.74745 0.22956
 O81 O 0.74591 0.71332 0.23164
 O82 O 0.71111 0.74843 0.23153
 C83 C 0.79599 0.79082 0.29778
 C84 C 0.70652 0.79187 0.29962
 C85 C 0.79433 0.71050 0.30030
 O86 O 0.82412 0.71755 0.24790
 O87 O 0.79377 0.69891 0.22078
 O88 O 0.76921 0.71934 0.19442
 C89 C 0.78700 0.70284 0.20069
 O90 O 0.69436 0.70485 0.28204
 Zr91 Zr 0.71195 0.71657 0.25184
 O92 O 0.71902 0.72237 0.19513
 O93 O 0.77663 0.67564 0.25337
 O94 O 0.71736 0.67648 0.25427
 O95 O 0.66936 0.72227 0.25096
 O96 O 0.69771 0.70023 0.22238
 C97 C 0.70234 0.70527 0.20205
 O98 O 0.76738 0.76369 0.18595
 O99 O 0.71960 0.82209 0.24900
 O100 O 0.72099 0.77090 0.19368
 O101 O 0.70175 0.79674 0.21940
 O102 O 0.78070 0.82121 0.24788
 O103 O 0.79887 0.79588 0.21789
 C104 C 0.70581 0.78975 0.19945
 H105 H 0.75099 0.79996 0.27654
 H106 H 0.79839 0.74682 0.21958
 H107 H 0.69411 0.74879 0.22291
 H108 H 0.74686 0.70196 0.28107
 H109 H 0.83632 0.78960 0.24980
 H110 H 0.83093 0.69979 0.24900
 H111 H 0.79506 0.66813 0.25250
 H112 H 0.69963 0.66837 0.25108
 H113 H 0.79895 0.82847 0.25068
 H114 H 0.70108 0.82944 0.24958
 H115 H 0.66551 0.79763 0.24876
 H116 H 0.66082 0.70543 0.24824
 H117 H 0.81476 0.80702 0.22060
 H118 H 0.75980 0.75689 0.17209
 H119 H 0.73839 0.73944 0.32817
 H120 H 0.68159 0.69058 0.27941
 Zr121 Zr 0.75185 0.24747 -0.28868
 O122 O 0.73263 0.26688 -0.31488
 O123 O 0.77764 0.22225 -0.30547
 O124 O 0.77966 0.26977 -0.30692
 O125 O 0.69902 0.20501 -0.28002
 O126 O 0.80090 0.29389 -0.28109
 O127 O 0.72548 0.22347 -0.30635
 O128 O 0.80095 0.20257 -0.27802
 O129 O 0.78695 0.24857 -0.26946
 O130 O 0.75043 0.21502 -0.26869
 O131 O 0.74966 0.28217 -0.27147
 O132 O 0.71488 0.24996 -0.27120
 Zr133 Zr 0.74730 0.25284 -0.21259
 Zr134 Zr 0.78378 0.28216 -0.25112
 Zr135 Zr 0.71509 0.21818 -0.25015
 Zr136 Zr 0.78449 0.21690 -0.24874
 O137 O 0.67229 0.22149 -0.24970
 O138 O 0.82701 0.22303 -0.24760
 O139 O 0.74913 0.21781 -0.22950
 O140 O 0.78387 0.25040 -0.23021
 O141 O 0.74849 0.28564 -0.23222
 O142 O 0.71240 0.25168 -0.23197
 C143 C 0.79559 0.20642 -0.29837
 C144 C 0.70588 0.20883 -0.30014
 C145 C 0.79679 0.28707 -0.30105
 O146 O 0.82646 0.27887 -0.24861
 O147 O 0.79659 0.29875 -0.22157
 O148 O 0.77132 0.27918 -0.19511
 C149 C 0.78954 0.29525 -0.20148
 O150 O 0.69735 0.29616 -0.28237
 Zr151 Zr 0.71441 0.28350 -0.25229
 O152 O 0.72112 0.27719 -0.19561
 O153 O 0.78068 0.32231 -0.25419
 O154 O 0.72143 0.32339 -0.25445
 O155 O 0.67165 0.27895 -0.25158
 O156 O 0.70051 0.30000 -0.22275
 C157 C 0.70488 0.29466 -0.20244
 O158 O 0.76835 0.23486 -0.18657
 O159 O 0.71790 0.17785 -0.25012
 O160 O 0.72177 0.22865 -0.19418
 O161 O 0.70161 0.20342 -0.21986
 O162 O 0.77917 0.17670 -0.24835
 O163 O 0.79832 0.20156 -0.21849
 C164 C 0.70606 0.21018 -0.19991
 H165 H 0.75021 0.19887 -0.27707
 H166 H 0.79972 0.25059 -0.22027
 H167 H 0.69541 0.25177 -0.22329
 H168 H 0.74980 0.29692 -0.28165
 H169 H 0.83595 0.20644 -0.25057
 H170 H 0.83394 0.29640 -0.24975
 H171 H 0.79938 0.32921 -0.25330
 H172 H 0.70405 0.33208 -0.25116
 H173 H 0.79714 0.16884 -0.25112
 H174 H 0.69908 0.17120 -0.25062
 H175 H 0.66495 0.20390 -0.24874
 H176 H 0.66363 0.29596 -0.24866
 H177 H 0.81380 0.18994 -0.22120
 H178 H 0.76098 0.24185 -0.17270
 H179 H 0.73983 0.25959 -0.32869
 H180 H 0.68509 0.31077 -0.27959
 Zr181 Zr 0.24691 0.75196 -0.28735
 O182 O 0.26777 0.73331 -0.31308
 O183 O 0.21963 0.77499 -0.30494
 O184 O 0.22100 0.72769 -0.30528
 O185 O 0.29455 0.79953 -0.27906
 O186 O 0.20195 0.70187 -0.27932
 O187 O 0.27226 0.77695 -0.30524
 O188 O 0.19380 0.79299 -0.27827
 O189 O 0.21168 0.74824 -0.26846
 O190 O 0.24482 0.78480 -0.26808
 O191 O 0.25194 0.71787 -0.26951
 O192 O 0.28359 0.75295 -0.26952
 Zr193 Zr 0.25033 0.74844 -0.21116
 Zr194 Zr 0.21759 0.71535 -0.24941
 Zr195 Zr 0.27987 0.78494 -0.24910
 Zr196 Zr 0.21065 0.78041 -0.24846
 O197 O 0.32282 0.78520 -0.24879
 O198 O 0.16887 0.77066 -0.24794
 O199 O 0.24553 0.78286 -0.22879
 O200 O 0.21406 0.74745 -0.22923
 O201 O 0.25268 0.71530 -0.23015
 O202 O 0.28536 0.75209 -0.23026
 C203 C 0.20009 0.78954 -0.29854
 C204 C 0.28957 0.79408 -0.29925
 C205 C 0.20543 0.70914 -0.29930
 O206 O 0.17476 0.71492 -0.24697
 O207 O 0.20650 0.69789 -0.21958
 O208 O 0.22730 0.72155 -0.19332
 C209 C 0.21157 0.70317 -0.19937
 O210 O 0.30551 0.70832 -0.27972
 Zr211 Zr 0.28678 0.71992 -0.25001
 O212 O 0.27732 0.72539 -0.19346
 O213 O 0.22460 0.67561 -0.25202
 O214 O 0.28364 0.67957 -0.25136
 O215 O 0.32896 0.72797 -0.24906
 O216 O 0.30177 0.70541 -0.22007
 C217 C 0.29570 0.70968 -0.19988
 O218 O 0.22779 0.76583 -0.18570
 O219 O 0.27309 0.82484 -0.24924
 O220 O 0.27395 0.77447 -0.19300
 O221 O 0.29206 0.80079 -0.21903
 O222 O 0.21212 0.82089 -0.24863
 O223 O 0.19449 0.79495 -0.21873
 C224 C 0.28831 0.79387 -0.19900
 H225 H 0.24378 0.80075 -0.27677
 H226 H 0.19804 0.74615 -0.21950
 H227 H 0.30215 0.75339 -0.22145
 H228 H 0.25333 0.70301 -0.27943
 H229 H 0.15847 0.78636 -0.25137
 H230 H 0.16908 0.69679 -0.24782
 H231 H 0.20664 0.66714 -0.25103
 H232 H 0.30174 0.67247 -0.24775
 H233 H 0.19357 0.82717 -0.25182
 H234 H 0.29118 0.83311 -0.24987
 H235 H 0.32848 0.80333 -0.24803
 H236 H 0.33849 0.71171 -0.24589
 H237 H 0.17798 0.80507 -0.22189
 H238 H 0.23536 0.75960 -0.17161
 H239 H 0.26026 0.73987 -0.32707
 H240 H 0.31885 0.69465 -0.27662
 Zr241 Zr 1.25112 1.25170 0.78907
 O242 O 1.23061 1.23311 0.81513
 O243 O 1.27846 1.27490 0.80616
 O244 O 1.27757 1.22816 0.80729
 O245 O 1.20224 1.29818 0.78021
 O246 O 1.29767 1.20308 0.78150
 O247 O 1.22574 1.27673 0.80669
 O248 O 1.30328 1.29377 0.77904
 O249 O 1.28623 1.24862 0.76996
 O250 O 1.25216 1.28429 0.76922
 O251 O 1.24694 1.21720 0.77191
 O252 O 1.21423 1.25165 0.77153
 Zr253 Zr 1.24683 1.24673 0.71299
 Zr254 Zr 1.28108 1.21532 0.75153
 Zr255 Zr 1.21689 1.28331 0.75043
 Zr256 Zr 1.28621 1.28050 0.74944
 O257 O 1.17396 1.28249 0.75035
 O258 O 1.32823 1.27181 0.74855
 O259 O 1.25106 1.28160 0.72994
 O260 O 1.28338 1.24713 0.73076
 O261 O 1.24570 1.21399 0.73269
 O262 O 1.21199 1.24992 0.73233
 C263 C 1.29756 1.28968 0.79934
 C264 C 1.20802 1.29327 0.80036
 C265 C 1.29396 1.21027 0.80142
 O266 O 1.32387 1.21598 0.74862
 O267 O 1.29239 1.19756 0.72199
 O268 O 1.27012 1.21990 0.69543
 C269 C 1.28647 1.20220 0.70183
 O270 O 1.19360 1.20734 0.78302
 Zr271 Zr 1.21176 1.21815 0.75280
 O272 O 1.22003 1.22261 0.69613
 O273 O 1.27522 1.17547 0.75498
 O274 O 1.21574 1.17794 0.75551
 O275 O 1.16935 1.22491 0.75153
 O276 O 1.19742 1.20194 0.72350
 C277 C 1.20278 1.20602 0.70316
 O278 O 1.26859 1.26403 0.68694
 O279 O 1.22265 1.32337 0.74985
 O280 O 1.22242 1.27186 0.69453
 O281 O 1.20417 1.29849 0.72011
 O282 O 1.28347 1.32092 0.74908
 O283 O 1.30160 1.29511 0.71939
 C284 C 1.20790 1.29121 0.70019
 H285 H 1.25302 1.30036 0.77768
 H286 H 1.29928 1.24607 0.72087
 H287 H 1.19509 1.25059 0.72360
 H288 H 1.24609 1.20249 0.78211
 H289 H 1.33825 1.28779 0.75173
 H290 H 1.33012 1.19806 0.74990
 H291 H 1.29341 1.16746 0.75412
 H292 H 1.19772 1.17035 0.75244
 H293 H 1.30183 1.32775 0.75216
 H294 H 1.20437 1.33122 0.75037
 H295 H 1.16782 1.30047 0.74927
 H296 H 1.16035 1.20825 0.74900
 H297 H 1.31771 1.30589 0.72230
 H298 H 1.26098 1.25734 0.67306
 H299 H 1.23811 1.23995 0.82900
 H300 H 1.18037 1.19343 0.78048
 Zr301 Zr 0.74610 0.74672 0.78884
 O302 O 0.76653 0.76619 0.81432
 O303 O 0.71887 0.72399 0.80661
 O304 O 0.71953 0.77070 0.80637
 O305 O 0.79530 0.70041 0.78131
 O306 O 0.69966 0.79529 0.78001
 O307 O 0.77138 0.72227 0.80720
 O308 O 0.69435 0.70387 0.78013
 O309 O 0.71099 0.74910 0.76972
 O310 O 0.74525 0.71352 0.76994
 O311 O 0.75018 0.78069 0.77072
 O312 O 0.78304 0.74636 0.77131
 Zr313 Zr 0.75055 0.74928 0.71269
 Zr314 Zr 0.71606 0.78186 0.75034
 Zr315 Zr 0.78055 0.71406 0.75112
 Zr316 Zr 0.71119 0.71657 0.75013
 O317 O 0.82349 0.71495 0.75099
 O318 O 0.66915 0.72512 0.74925
 O319 O 0.74641 0.71495 0.73063
 O320 O 0.71395 0.74935 0.73050
 O321 O 0.75150 0.78265 0.73143
 O322 O 0.78535 0.74686 0.73209
 C323 C 0.70005 0.70871 0.80028
 C324 C 0.78937 0.70579 0.80132
 C325 C 0.70335 0.78859 0.80009
 O326 O 0.67327 0.78088 0.74764
 O327 O 0.70474 0.79859 0.72026
 O328 O 0.72719 0.77540 0.69440
 C329 C 0.71077 0.79325 0.70026
 O330 O 0.80335 0.79124 0.78151
 Zr331 Zr 0.78539 0.77925 0.75164
 O332 O 0.77730 0.77297 0.69510
 O333 O 0.72176 0.82183 0.75247
 O334 O 0.78121 0.81952 0.75298
 O335 O 0.82783 0.77257 0.75072
 O336 O 0.79997 0.79431 0.72189
 C337 C 0.79468 0.78962 0.70168
 O338 O 0.72890 0.73106 0.68718
 O339 O 0.77494 0.67399 0.75169
 O340 O 0.77511 0.72365 0.69491
 O341 O 0.79360 0.69810 0.72125
 O342 O 0.71410 0.67617 0.75072
 O343 O 0.69576 0.70111 0.72052
 C344 C 0.78988 0.70467 0.70113
 H345 H 0.74449 0.69771 0.77884
 H346 H 0.69806 0.75005 0.72061
 H347 H 0.80229 0.74596 0.72339
 H348 H 0.75099 0.79573 0.78049
 H349 H 0.65920 0.70922 0.75290
 H350 H 0.66696 0.79883 0.74834
 H351 H 0.70354 0.82974 0.75140
 H352 H 0.79921 0.82707 0.74967
 H353 H 0.69577 0.66934 0.75399
 H354 H 0.79325 0.66622 0.75250
 H355 H 0.82968 0.69696 0.75049
 H356 H 0.83681 0.78916 0.74770
 H357 H 0.67962 0.69046 0.72377
 H358 H 0.73652 0.73732 0.67310
 H359 H 0.75899 0.75982 0.82839
 H360 H 0.81643 0.80519 0.77854
 Zr361 Zr 1.25121 0.74844 0.20988
 O362 O 1.23069 0.76785 0.18433
 O363 O 1.27704 0.72440 0.19220
 O364 O 1.27814 0.77121 0.19136
 O365 O 1.19998 0.70450 0.21910
 O366 O 1.29932 0.79591 0.21687
 O367 O 1.22505 0.72404 0.19247
 O368 O 1.30263 0.70546 0.21870
 O369 O 1.28685 0.75022 0.22837
 O370 O 1.25139 0.71567 0.22947
 O371 O 1.24873 0.78291 0.22729
 O372 O 1.21469 0.74965 0.22794
 Zr373 Zr 1.24865 0.75292 0.28597
 Zr374 Zr 1.28338 0.78349 0.24709
 Zr375 Zr 1.21653 0.71773 0.24878
 Zr376 Zr 1.28601 0.71820 0.24870
 O377 O 1.17366 0.71980 0.25006
 O378 O 1.32835 0.72538 0.24962
 O379 O 1.25119 0.71810 0.26872
 O380 O 1.28483 0.75145 0.26766
 O381 O 1.24845 0.78584 0.26648
 O382 O 1.21331 0.75106 0.26719
 C383 C 1.29629 0.70958 0.19852
 C384 C 1.20608 0.70882 0.19890
 C385 C 1.29494 0.78886 0.19700
 O386 O 1.32619 0.78122 0.24880
 O387 O 1.29656 0.80004 0.27659
 O388 O 1.27267 0.77937 0.30329
 C389 C 1.29021 0.79602 0.29678
 O390 O 1.19563 0.79486 0.21710
 Zr391 Zr 1.21393 0.78301 0.24694
 O392 O 1.22297 0.77752 0.30344
 O393 O 1.27903 0.82358 0.24448
 O394 O 1.21943 0.82310 0.24448
 O395 O 1.17133 0.77755 0.24877
 O396 O 1.20081 0.79935 0.27657
 C397 C 1.20629 0.79477 0.29680
 O398 O 1.27055 0.73491 0.31152
 O399 O 1.22065 0.67751 0.24850
 O400 O 1.22381 0.72829 0.30468
 O401 O 1.20419 0.70244 0.27918
 O402 O 1.28190 0.67789 0.24824
 O403 O 1.30091 0.70246 0.27846
 C404 C 1.20859 0.70937 0.29909
 H405 H 1.25146 0.69968 0.22087
 H406 H 1.30092 0.75189 0.27734
 H407 H 1.19659 0.75082 0.27620
 H408 H 1.24819 0.79774 0.21720
 H409 H 1.33771 0.70914 0.24615
 H410 H 1.33314 0.79894 0.24767
 H411 H 1.29756 0.83093 0.24500
 H412 H 1.20178 0.83125 0.24791
 H413 H 1.29999 0.67065 0.24482
 H414 H 1.20205 0.67033 0.24823
 H415 H 1.16690 0.70199 0.25091
 H416 H 1.16300 0.79444 0.25165
 H417 H 1.31642 0.69103 0.27529
 H418 H 1.26344 0.74169 0.32555
 H419 H 1.23766 0.76096 0.17028
 H420 H 1.18289 0.80907 0.22001
 Zr421 Zr 0.74662 1.25067 0.21168
 O422 O 0.76669 1.23129 0.18593
 O423 O 0.71905 1.27336 0.19423
 O424 O 0.71991 1.22660 0.19441
 O425 O 0.79577 1.29730 0.21869
 O426 O 0.70040 1.20193 0.22094
 O427 O 0.77175 1.27510 0.19309
 O428 O 0.69487 1.29332 0.22103
 O429 O 0.71177 1.24820 0.23117
 O430 O 0.74598 1.28386 0.23060
 O431 O 0.75100 1.21670 0.22974
 O432 O 0.78379 1.25109 0.22882
 Zr433 Zr 0.75207 1.24808 0.28778
 Zr434 Zr 0.71714 1.21543 0.25046
 Zr435 Zr 0.78155 1.28340 0.24903
 Zr436 Zr 0.71221 1.28071 0.25079
 O437 O 0.82448 1.28253 0.24862
 O438 O 0.67018 1.27211 0.25221
 O439 O 0.74768 1.28241 0.26990
 O440 O 0.71525 1.24792 0.27035
 O441 O 0.75280 1.21472 0.26901
 O442 O 0.78662 1.25059 0.26802
 C443 C 0.70025 1.28854 0.20081
 C444 C 0.78965 1.29176 0.19875
 C445 C 0.70385 1.20865 0.20082
 O446 O 0.67438 1.21631 0.25356
 O447 O 0.70615 1.19871 0.28065
 O448 O 0.72885 1.22197 0.30630
 C449 C 0.71235 1.20410 0.30060
 O450 O 0.80413 1.20641 0.21840
 Zr451 Zr 0.78645 1.21820 0.24847
 O452 O 0.77901 1.22441 0.30508
 O453 O 0.72289 1.17548 0.24830
 O454 O 0.78233 1.17793 0.24699
 O455 O 0.82890 1.22494 0.24911
 O456 O 0.80122 1.20295 0.27807
 C457 C 0.79615 1.20763 0.29834
 O458 O 0.73078 1.26626 0.31354
 O459 O 0.77589 1.32346 0.24861
 O460 O 0.77681 1.27379 0.30530
 O461 O 0.79497 1.29937 0.27877
 O462 O 0.71506 1.32112 0.25013
 O463 O 0.69726 1.29614 0.28061
 C464 C 0.79148 1.29281 0.29894
 H465 H 0.74506 1.29967 0.22171
 H466 H 0.69948 1.24720 0.28040
 H467 H 0.80366 1.25150 0.27656
 H468 H 0.75172 1.20168 0.21995
 H469 H 0.66017 1.28801 0.24872
 H470 H 0.66808 1.19835 0.25292
 H471 H 0.70470 1.16751 0.24954
 H472 H 0.80038 1.17041 0.25010
 H473 H 0.69666 1.32790 0.24712
 H474 H 0.79418 1.33127 0.24763
 H475 H 0.83069 1.30052 0.24912
 H476 H 0.83789 1.20835 0.25202
 H477 H 0.68109 1.30678 0.27757
 H478 H 0.73858 1.25999 0.32753
 H479 H 0.75897 1.23769 0.17195
 H480 H 0.81732 1.19253 0.22121
 N481 N 0.54943 1.02560 0.02390
 N482 N 0.56815 1.04272 0.02879
 N483 N 0.52975 0.97162 0.03789
 N484 N 0.53488 0.95406 0.05286
 N485 N 0.54901 0.97205 0.02300
 N486 N 0.56785 0.95493 0.02758
 N487 N 0.53018 1.02541 0.03879
 N488 N 0.53512 1.04257 0.05405
 C489 C 0.55876 1.05338 0.04752
 C490 C 0.55857 0.94360 0.04611
 N491 N 0.45226 0.97278 0.02257
 N492 N 0.43351 0.95535 0.02658
 N493 N 0.47180 1.02581 0.03855
 N494 N 0.46674 1.04279 0.05392
 N495 N 0.45281 1.02633 0.02349
 N496 N 0.43416 1.04353 0.02837
 N497 N 0.47129 0.97204 0.03759
 N498 N 0.46610 0.95396 0.05210
 Mn499 Mn 0.50075 0.99870 0.03840
 C500 C 0.44258 0.94355 0.04493
 C501 C 0.44334 1.05388 0.04727
 N502 N 0.54933 0.97322 -0.02430
 N503 N 0.56776 0.95574 -0.02892
 N504 N 0.53083 1.02735 -0.03852
 N505 N 0.53623 1.04504 -0.05333
 N506 N 0.54983 1.02678 -0.02348
 N507 N 0.56882 1.04389 -0.02781
 N508 N 0.53029 0.97357 -0.03932
 N509 N 0.53512 0.95619 -0.05442
 Mn510 Mn 0.54967 0.99942 -0.00022
 C511 C 0.55844 0.94506 -0.04763
 C512 C 0.55986 1.05537 -0.04635
 N513 N 0.45321 1.02762 -0.02386
 N514 N 0.43499 1.04548 -0.02809
 N515 N 0.47183 0.97410 -0.03959
 N516 N 0.46661 0.95712 -0.05494
 N517 N 0.45259 0.97403 -0.02470
 N518 N 0.43367 0.95713 -0.02962
 N519 N 0.47250 1.02788 -0.03871
 N520 N 0.46811 1.04606 -0.05326
 Mn521 Mn 0.45244 1.00021 -0.00062
 Mn522 Mn 0.50136 1.00072 -0.03923
 Cl523 Cl 0.50106 0.99976 -0.00042
 C524 C 0.44477 1.05703 -0.04636
 C525 C 0.44287 0.94649 -0.04841
 N526 N 1.04991 0.52659 0.52354
 N527 N 1.06871 0.54365 0.52843
 N528 N 1.03094 0.47258 0.53797
 N529 N 1.03642 0.45536 0.55315
 N530 N 1.05010 0.47300 0.52301
 N531 N 1.06926 0.45625 0.52777
 N532 N 1.03072 0.52641 0.53848
 N533 N 1.03582 0.54349 0.55378
 C534 C 1.05946 0.55429 0.54721
 C535 C 1.06025 0.44511 0.54648
 N536 N 0.95325 0.47258 0.52304
 N537 N 0.93488 0.45483 0.52740
 N538 N 0.97221 0.52612 0.53850
 N539 N 0.96680 0.54284 0.55401
 N540 N 0.95302 0.52621 0.52359
 N541 N 0.93391 0.54286 0.52874
 N542 N 0.97252 0.47231 0.53789
 N543 N 0.96798 0.45424 0.55253
 Mn544 Mn 1.00158 0.49936 0.53838
 C545 C 0.94456 0.44333 0.54573
 C546 C 0.94299 0.55336 0.54762
 N547 N 1.05012 0.47376 0.47560
 N548 N 1.06891 0.45667 0.47080
 N549 N 1.03092 0.52768 0.46117
 N550 N 1.03642 0.54491 0.44597
 N551 N 1.05003 0.52735 0.47613
 N552 N 1.06915 0.54418 0.47137
 N553 N 1.03098 0.47385 0.46066
 N554 N 1.03609 0.45665 0.44545
 Mn555 Mn 1.05029 0.50018 0.49957
 C556 C 1.05969 0.44590 0.45207
 C557 C 1.06019 0.55527 0.45265
 N558 N 0.95314 0.52712 0.47610
 N559 N 0.93456 0.54460 0.47167
 N560 N 0.97249 0.47374 0.46063
 N561 N 0.96725 0.45697 0.44512
 N562 N 0.95326 0.47349 0.47554
 N563 N 0.93430 0.45668 0.47041
 N564 N 0.97245 0.52755 0.46126
 N565 N 0.96771 0.54545 0.44653
 Mn566 Mn 0.95288 0.49985 0.49957
 Mn567 Mn 1.00170 0.50071 0.46076
 Cl568 Cl 1.00161 0.50003 0.49957
 C569 C 0.94414 0.55611 0.45329
 C570 C 0.94351 0.44625 0.45152
 N571 N 1.04726 0.52520 0.02527
 N572 N 1.06530 0.54289 0.03030
 N573 N 1.02887 0.47027 0.03808
 N574 N 1.03483 0.45287 0.05299
 N575 N 1.04816 0.47167 0.02326
 N576 N 1.06782 0.45539 0.02782
 N577 N 1.02826 0.52388 0.04033
 N578 N 1.03285 0.54062 0.05598
 C579 C 1.05590 0.55251 0.04943
 C580 C 1.05902 0.44350 0.04623
 N581 N 0.95131 0.47074 0.02276
 N582 N 0.93212 0.45379 0.02693
 N583 N 0.96975 0.52331 0.04010
 N584 N 0.96403 0.53937 0.05605
 N585 N 0.95103 0.52428 0.02484
 N586 N 0.93207 0.54104 0.03004
 N587 N 0.97035 0.46969 0.03777
 N588 N 0.96471 0.45186 0.05240
 Mn589 Mn 0.99931 0.49675 0.03925
 C590 C 0.94096 0.44188 0.04529
 C591 C 0.94062 0.55052 0.04947
 N592 N 1.04852 0.47430 -0.02399
 N593 N 1.06750 0.45753 -0.02904
 N594 N 1.02903 0.52852 -0.03706
 N595 N 1.03482 0.54591 -0.05203
 N596 N 1.04804 0.52774 -0.02203
 N597 N 1.06747 0.54433 -0.02660
 N598 N 1.02954 0.47475 -0.03905
 N599 N 1.03497 0.45812 -0.05465
 Mn600 Mn 1.04824 0.49975 0.00064
 C601 C 1.05860 0.44735 -0.04808
 C602 C 1.05869 0.55585 -0.04516
 N603 N 0.95141 0.52695 -0.02246
 N604 N 0.93251 0.54419 -0.02660
 N605 N 0.97096 0.47444 -0.03943
 N606 N 0.96557 0.45851 -0.05553
 N607 N 0.95187 0.47339 -0.02443
 N608 N 0.93301 0.45668 -0.02995
 N609 N 0.97073 0.52806 -0.03726
 N610 N 0.96569 0.54623 -0.05167
 Mn611 Mn 0.95115 0.49886 0.00018
 Mn612 Mn 1.00006 0.50143 -0.03838
 Cl613 Cl 0.99969 0.49919 0.00042
 C614 C 0.94193 0.55632 -0.04472
 C615 C 0.94201 0.44730 -0.04929
 N616 N 0.54754 1.02525 0.52513
 N617 N 0.56581 1.04272 0.53023
 N618 N 0.52915 0.97050 0.53839
 N619 N 0.53509 0.95331 0.55349
 N620 N 0.54844 0.97167 0.52356
 N621 N 0.56811 0.95546 0.52832
 N622 N 0.52845 1.02417 0.54013
 N623 N 0.53322 1.04084 0.55580
 C624 C 0.55645 1.05248 0.54934
 C625 C 0.55929 0.94383 0.54685
 N626 N 0.45149 0.97054 0.52314
 N627 N 0.43229 0.95370 0.52771
 N628 N 0.46995 1.02357 0.53980
 N629 N 0.46418 1.03979 0.55563
 N630 N 0.45097 1.02402 0.52472
 N631 N 0.43166 1.04037 0.53005
 N632 N 0.47066 0.96980 0.53805
 N633 N 0.46521 0.95221 0.55294
 Mn634 Mn 0.49954 0.99699 0.53926
 C635 C 0.44139 0.94211 0.54616
 C636 C 0.44038 1.05034 0.54924
 N637 N 0.54880 0.97375 0.47621
 N638 N 0.56786 0.95704 0.47117
 N639 N 0.52928 1.02784 0.46273
 N640 N 0.53530 1.04490 0.44751
 N641 N 0.54822 1.02724 0.47782
 N642 N 0.56774 1.04368 0.47311
 N643 N 0.52978 0.97405 0.46117
 N644 N 0.53526 0.95735 0.44563
 Mn645 Mn 0.54848 0.99949 0.50069
 C646 C 0.55895 0.94670 0.45217
 C647 C 0.55917 1.05488 0.45434
 N648 N 0.45143 1.02624 0.47728
 N649 N 0.43239 1.04328 0.47284
 N650 N 0.47123 0.97365 0.46077
 N651 N 0.46573 0.95788 0.44458
 N652 N 0.45208 0.97263 0.47574
 N653 N 0.43308 0.95611 0.47007
 N654 N 0.47085 1.02729 0.46255
 N655 N 0.46573 1.04520 0.44791
 Mn656 Mn 0.45124 0.99836 0.50021
 Mn657 Mn 0.50028 1.00071 0.46164
 Cl658 Cl 0.49988 0.99888 0.50045
 C659 C 0.44183 1.05521 0.45462
 C660 C 0.44207 0.94679 0.45069
 N661 N 1.04836 1.02679 0.47822
 N662 N 1.06734 1.03271 0.46380
 N663 N 1.02843 1.04301 0.52415
 N664 N 1.03338 1.06046 0.53913
 N665 N 1.04751 1.02553 0.52414
 N666 N 1.06598 1.03065 0.53913
 N667 N 1.02919 1.04419 0.47832
 N668 N 1.03459 1.06239 0.46402
 C669 C 1.05829 1.05485 0.45491
 C670 C 1.05671 1.05237 0.54851
 N671 N 0.95121 1.02500 0.52311
 N672 N 0.93233 1.02991 0.53789
 N673 N 0.97085 1.04382 0.47768
 N674 N 0.96566 1.06190 0.46322
 N675 N 0.95198 1.02612 0.47720
 N676 N 0.93343 1.03169 0.46237
 N677 N 0.97020 1.04258 0.52352
 N678 N 0.96488 1.05981 0.53856
 Mn679 Mn 0.99966 1.04361 0.50091
 C680 C 0.94135 1.05158 0.54755
 C681 C 0.94241 1.05396 0.45362
 N682 N 1.04789 0.97046 0.52320
 N683 N 1.06636 0.96477 0.53808
 N684 N 1.02989 0.95409 0.47676
 N685 N 1.03555 0.93684 0.46177
 N686 N 1.04875 0.97178 0.47728
 N687 N 1.06778 0.96703 0.46262
 N688 N 1.02903 0.95277 0.52259
 N689 N 1.03412 0.93460 0.53697
 Mn690 Mn 1.04843 0.99864 0.50072
 C691 C 1.05731 0.94245 0.54668
 C692 C 1.05910 0.94529 0.45292
 N693 N 0.95235 0.97106 0.47627
 N694 N 0.93390 0.96587 0.46127
 N695 N 0.97075 0.95244 0.52200
 N696 N 0.96553 0.93438 0.53647
 N697 N 0.95161 0.96987 0.52217
 N698 N 0.93280 0.96407 0.53677
 N699 N 0.97159 0.95372 0.47616
 N700 N 0.96680 0.93635 0.46110
 Mn701 Mn 0.95147 0.99801 0.49969
 Mn702 Mn 1.00031 0.95305 0.49937
 Cl703 Cl 0.99997 0.99833 0.50017
 C704 C 0.94339 0.94428 0.45178
 C705 C 0.94193 0.94199 0.54571
 N706 N 0.54806 0.52365 0.02485
 N707 N 0.56682 0.54066 0.02986
 N708 N 0.52756 0.46977 0.03832
 N709 N 0.53189 0.45160 0.05289
 N710 N 0.54704 0.47018 0.02364
 N711 N 0.56530 0.45243 0.02796
 N712 N 0.52870 0.52348 0.03964
 N713 N 0.53359 0.54056 0.05496
 C714 C 0.55732 0.55126 0.04855
 C715 C 0.55536 0.44077 0.04610
 N716 N 0.45022 0.47219 0.02277
 N717 N 0.43122 0.45495 0.02663
 N718 N 0.47049 0.52455 0.03914
 N719 N 0.46613 0.54185 0.05435
 N720 N 0.45175 0.52576 0.02392
 N721 N 0.43405 0.54396 0.02843
 N722 N 0.46927 0.47097 0.03774
 N723 N 0.46392 0.45275 0.05204
 Mn724 Mn 0.49900 0.49716 0.03892
 C725 C 0.44026 0.44277 0.04481
 C726 C 0.44347 0.55397 0.04741
 N727 N 0.54786 0.47177 -0.02352
 N728 N 0.56646 0.45457 -0.02842
 N729 N 0.52988 0.52604 -0.03751
 N730 N 0.53484 0.54441 -0.05175
 N731 N 0.54882 0.52525 -0.02243
 N732 N 0.56744 0.54289 -0.02620
 N733 N 0.52886 0.47234 -0.03855
 N734 N 0.53385 0.45539 -0.05394
 Mn735 Mn 0.54825 0.49773 0.00064
 C736 C 0.55721 0.44426 -0.04730
 C737 C 0.55821 0.55488 -0.04442
 N738 N 0.45245 0.52724 -0.02339
 N739 N 0.43421 0.54491 -0.02811
 N740 N 0.47064 0.47341 -0.03903
 N741 N 0.46643 0.45550 -0.05374
 N742 N 0.45102 0.47364 -0.02447
 N743 N 0.43272 0.45599 -0.02903
 N744 N 0.47178 0.52703 -0.03819
 N745 N 0.46733 0.54455 -0.05327
 Mn746 Mn 0.45101 0.49975 -0.00029
 Mn747 Mn 0.50029 0.49968 -0.03851
 Cl748 Cl 0.49963 0.49859 0.00020
 C749 C 0.44401 0.55578 -0.04669
 C750 C 0.44281 0.44469 -0.04725
 C751 C 0.33467 1.16300 0.15113
 C752 C 0.32413 1.18731 0.14618
 C753 C 0.30939 1.20098 0.16184
 C754 C 0.30514 1.19076 0.18288
 C755 C 0.31531 1.16634 0.18772
 C756 C 0.32972 1.15257 0.17201
 C757 C 0.35122 1.14872 0.13483
 C758 C 0.37340 1.13387 0.14171
 C759 C 0.38870 1.12000 0.12664
 C760 C 0.38252 1.12084 0.10418
 C761 C 0.36057 1.13598 0.09722
 C762 C 0.34505 1.14969 0.11237
 C763 C 0.39857 1.10542 0.08832
 C764 C 0.38589 1.09344 0.07045
 C765 C 0.40067 1.07742 0.05655
 C766 C 0.42831 1.07281 0.06041
 C767 C 0.44120 1.08533 0.07780
 C768 C 0.42656 1.10161 0.09149
 H769 H 0.32783 1.19608 0.13039
 H770 H 0.30197 1.21983 0.15767
 H771 H 0.31212 1.15782 0.20370
 H772 H 0.33693 1.13367 0.17624
 H773 H 0.37909 1.13301 0.15881
 H774 H 0.40513 1.10824 0.13270
 H775 H 0.35540 1.13733 0.08004
 H776 H 0.32797 1.16073 0.10649
 H777 H 0.36434 1.09567 0.06762
 H778 H 0.39022 1.06791 0.04329
 H779 H 0.46258 1.08232 0.08099
 H780 H 0.43717 1.11101 0.10472
 C781 C 0.83351 0.66154 0.65232
 C782 C 0.82889 0.65140 0.67336
 C783 C 0.81456 0.66531 0.68906
 C784 C 0.80411 0.68960 0.68409
 C785 C 0.80807 0.69953 0.66291
 C786 C 0.82271 0.68573 0.64724
 C787 C 0.84993 0.64708 0.63599
 C788 C 0.84357 0.64780 0.61354
 C789 C 0.85902 0.63402 0.59836
 C790 C 0.88114 0.61905 0.60525
 C791 C 0.88747 0.61839 0.62769
 C792 C 0.87223 0.63231 0.64280
 C793 C 0.89734 0.60377 0.58932
 C794 C 0.92539 0.60024 0.59242
 C795 C 0.94026 0.58433 0.57855
 C796 C 0.92757 0.57183 0.56104
 C797 C 0.89982 0.57608 0.55731
 C798 C 0.88482 0.59176 0.57137
 H799 H 0.83629 0.63261 0.67773
 H800 H 0.81163 0.65696 0.70514
 H801 H 0.80043 0.71827 0.65859
 H802 H 0.82613 0.69430 0.63133
 H803 H 0.82640 0.65875 0.60769
 H804 H 0.85370 0.63524 0.58121
 H805 H 0.90403 0.60677 0.63373
 H806 H 0.87809 0.63160 0.65986
 H807 H 0.93591 0.60966 0.60568
 H808 H 0.96170 0.58161 0.58168
 H809 H 0.88950 0.56659 0.54397
 H810 H 0.86324 0.59376 0.56858
 C811 C 0.66436 0.83188 0.14906
 C812 C 0.67231 0.80650 0.14544
 C813 C 0.68615 0.79287 0.16170
 C814 C 0.69177 0.80425 0.18202
 C815 C 0.68360 0.82960 0.18564
 C816 C 0.67025 0.84334 0.16925
 C817 C 0.64969 0.84642 0.13196
 C818 C 0.65826 0.87110 0.12613
 C819 C 0.64383 0.88530 0.11063
 C820 C 0.62031 0.87524 0.10096
 C821 C 0.61185 0.85047 0.10666
 C822 C 0.62658 0.83608 0.12188
 C823 C 0.60411 0.89107 0.08570
 C824 C 0.57607 0.89400 0.08895
 C825 C 0.56113 0.91071 0.07576
 C826 C 0.57389 0.92444 0.05885
 C827 C 0.60173 0.92077 0.05506
 C828 C 0.61676 0.90440 0.06850
 H829 H 0.66804 0.79732 0.12996
 H830 H 0.69208 0.77332 0.15850
 H831 H 0.68772 0.83888 0.20110
 H832 H 0.66412 0.86284 0.17245
 H833 H 0.67610 0.87941 0.13362
 H834 H 0.65062 0.90443 0.10663
 H835 H 0.59381 0.84231 0.09936
 H836 H 0.61953 0.81713 0.12623
 H837 H 0.56591 0.88405 0.10220
 H838 H 0.53967 0.91316 0.07899
 H839 H 0.61207 0.93115 0.04215
 H840 H 0.63834 0.90232 0.06562
 C841 C 1.16698 0.33392 0.64972
 C842 C 1.17321 0.34534 0.66987
 C843 C 1.18644 0.33144 0.68625
 C844 C 1.19418 0.30595 0.68268
 C845 C 1.18830 0.29464 0.66238
 C846 C 1.17458 0.30842 0.64614
 C847 C 1.15224 0.34857 0.63268
 C848 C 1.12908 0.33827 0.62262
 C849 C 1.11428 0.35271 0.60746
 C850 C 1.12269 0.37751 0.60177
 C851 C 1.14625 0.38753 0.61143
 C852 C 1.16074 0.37329 0.62688
 C853 C 1.10641 0.39335 0.58652
 C854 C 1.11897 0.40682 0.56935
 C855 C 1.10378 0.42296 0.55579
 C856 C 1.07585 0.42629 0.55943
 C857 C 1.06322 0.41250 0.57637
 C858 C 1.07831 0.39601 0.58967
 H859 H 1.16738 0.36491 0.67308
 H860 H 1.19076 0.34071 0.70168
 H861 H 1.19388 0.27500 0.65919
 H862 H 1.17008 0.29925 0.63070
 H863 H 1.12204 0.31931 0.62693
 H864 H 1.09624 0.34454 0.60018
 H865 H 1.15302 0.40668 0.60745
 H866 H 1.17861 0.38158 0.63434
 H867 H 1.14059 0.40496 0.56652
 H868 H 1.11404 0.43340 0.54287
 H869 H 1.04170 0.41469 0.57951
 H870 H 1.06819 0.38598 0.60289
 C871 C 0.66501 1.16806 -0.14915
 C872 C 0.67018 1.15678 -0.16955
 C873 C 0.68330 1.17056 -0.18608
 C874 C 0.69197 1.19575 -0.18240
 C875 C 0.68701 1.20697 -0.16189
 C876 C 0.67339 1.19332 -0.14549
 C877 C 0.65067 1.15346 -0.13187
 C878 C 0.62793 1.16386 -0.12127
 C879 C 0.61341 1.14938 -0.10593
 C880 C 0.62172 1.12446 -0.10063
 C881 C 0.64492 1.11436 -0.11079
 C882 C 0.65912 1.12864 -0.12640
 C883 C 0.60555 1.10847 -0.08542
 C884 C 0.61825 1.09467 -0.06855
 C885 C 0.60319 1.07812 -0.05523
 C886 C 0.57528 1.07473 -0.05885
 C887 C 0.56249 1.08893 -0.07541
 C888 C 0.57745 1.10581 -0.08846
 H889 H 0.66370 1.13739 -0.17279
 H890 H 0.68692 1.16139 -0.20168
 H891 H 0.69335 1.22640 -0.15864
 H892 H 0.66967 1.20237 -0.12985
 H893 H 0.62097 1.18291 -0.12531
 H894 H 0.59561 1.15757 -0.09826
 H895 H 0.65158 1.09511 -0.10711
 H896 H 0.67669 1.12029 -0.13430
 H897 H 0.63988 1.09652 -0.06584
 H898 H 0.61354 1.06736 -0.04258
 H899 H 0.54098 1.08670 -0.07850
 H900 H 0.56725 1.11611 -0.10146
 C901 C 1.16752 0.66678 0.34968
 C902 C 1.17346 0.65543 0.32944
 C903 C 1.18676 0.66931 0.31304
 C904 C 1.19486 0.69468 0.31667
 C905 C 1.18929 0.70592 0.33707
 C906 C 1.17548 0.69217 0.35334
 C907 C 1.15270 0.65214 0.36673
 C908 C 1.12955 0.66244 0.37683
 C909 C 1.11462 0.64795 0.39193
 C910 C 1.12291 0.62310 0.39752
 C911 C 1.14646 0.61308 0.38783
 C912 C 1.16108 0.62737 0.37244
 C913 C 1.10652 0.60721 0.41272
 C914 C 1.11899 0.59374 0.42990
 C915 C 1.10374 0.57754 0.44341
 C916 C 1.07583 0.57413 0.43971
 C917 C 1.06329 0.58793 0.42276
 C918 C 1.07844 0.60448 0.40951
 H919 H 1.16735 0.63594 0.32618
 H920 H 1.19083 0.66010 0.29753
 H921 H 1.19516 0.72549 0.34030
 H922 H 1.17119 0.70129 0.36886
 H923 H 1.12261 0.68144 0.37258
 H924 H 1.09658 0.65612 0.39923
 H925 H 1.15314 0.59390 0.39174
 H926 H 1.17893 0.61906 0.36494
 H927 H 1.14058 0.59565 0.43276
 H928 H 1.11393 0.56711 0.45633
 H929 H 1.04180 0.58568 0.41958
 H930 H 1.06840 0.61452 0.39629
 C931 C 0.33202 0.83687 -0.15040
 C932 C 0.32624 0.84750 -0.17105
 C933 C 0.31169 0.83368 -0.18661
 C934 C 0.30217 0.80898 -0.18187
 C935 C 0.30709 0.79860 -0.16100
 C936 C 0.32197 0.81234 -0.14547
 C937 C 0.34898 0.85117 -0.13441
 C938 C 0.34357 0.85002 -0.11182
 C939 C 0.35942 0.86385 -0.09698
 C940 C 0.38099 0.87926 -0.10440
 C941 C 0.38645 0.88023 -0.12698
 C942 C 0.37080 0.86627 -0.14174
 C943 C 0.39734 0.89484 -0.08887
 C944 C 0.42521 0.89892 -0.09260
 C945 C 0.44010 0.91527 -0.07914
 C946 C 0.42759 0.92764 -0.06147
 C947 C 0.40007 0.92283 -0.05713
 C948 C 0.38505 0.90671 -0.07075
 H949 H 0.33301 0.86657 -0.17524
 H950 H 0.30796 0.84236 -0.20244
 H951 H 0.30016 0.77954 -0.15689
 H952 H 0.32625 0.80345 -0.12983
 H953 H 0.32680 0.83875 -0.10559
 H954 H 0.35481 0.86239 -0.07969
 H955 H 0.40258 0.89216 -0.13338
 H956 H 0.37593 0.86727 -0.15896
 H957 H 0.43553 0.88963 -0.10605
 H958 H 0.46138 0.91843 -0.08273
 H959 H 0.38990 0.93219 -0.04363
 H960 H 0.36360 0.90428 -0.06751
 C961 C 0.83518 0.33639 0.34738
 C962 C 0.83047 0.34638 0.32631
 C963 C 0.81616 0.33231 0.31072
 C964 C 0.80582 0.30799 0.31584
 C965 C 0.80992 0.29818 0.33703
 C966 C 0.82454 0.31216 0.35258
 C967 C 0.85149 0.35109 0.36361
 C968 C 0.84514 0.35043 0.38608
 C969 C 0.86044 0.36447 0.40116
 C970 C 0.88240 0.37965 0.39416
 C971 C 0.88873 0.38023 0.37170
 C972 C 0.87363 0.36605 0.35669
 C973 C 0.89842 0.39522 0.41000
 C974 C 0.92642 0.39908 0.40682
 C975 C 0.94111 0.41522 0.42062
 C976 C 0.92828 0.42761 0.43814
 C977 C 0.90059 0.42305 0.44194
 C978 C 0.88576 0.40715 0.42795
 H979 H 0.83773 0.36519 0.32183
 H980 H 0.81312 0.34057 0.29463
 H981 H 0.80236 0.27943 0.34146
 H982 H 0.82803 0.30369 0.36851
 H983 H 0.82808 0.33935 0.39202
 H984 H 0.85512 0.36330 0.41833
 H985 H 0.90516 0.39199 0.36558
 H986 H 0.87949 0.36672 0.33962
 H987 H 0.93705 0.38975 0.39355
 H988 H 0.96252 0.41817 0.41743
 H989 H 0.89016 0.43245 0.45528
 H990 H 0.86421 0.40490 0.43080
 C991 C 1.17075 0.33696 0.14912
 C992 C 1.18098 0.31251 0.14469
 C993 C 1.19498 0.29889 0.16083
 C994 C 1.19850 0.30927 0.18184
 C995 C 1.18832 0.33380 0.18620
 C996 C 1.17480 0.34761 0.16992
 C997 C 1.15530 0.35113 0.13227
 C998 C 1.16183 0.37660 0.12733
 C999 C 1.14668 0.39024 0.11191
 C1000 C 1.12442 0.37878 0.10148
 C1001 C 1.11793 0.35327 0.10636
 C1002 C 1.13342 0.33948 0.12148
 C1003 C 1.10745 0.39379 0.08619
 C1004 C 1.07918 0.39479 0.08903
 C1005 C 1.06333 0.41057 0.07571
 C1006 C 1.07541 0.42525 0.05907
 C1007 C 1.10355 0.42350 0.05569
 C1008 C 1.11948 0.40810 0.06929
 H1009 H 1.17819 0.30399 0.12872
 H1010 H 1.20250 0.27998 0.15703
 H1011 H 1.19080 0.34232 0.20221
 H1012 H 1.16693 0.36639 0.17372
 H1013 H 1.17868 0.38592 0.13542
 H1014 H 1.15191 0.40995 0.10852
 H1015 H 1.10088 0.34406 0.09847
 H1016 H 1.12793 0.31989 0.12515
 H1017 H 1.06950 0.38403 0.10205
 H1018 H 1.04166 0.41157 0.07862
 H1019 H 1.11339 0.43468 0.04302
 H1020 H 1.14123 0.40749 0.06674
 C1021 C 0.67007 0.83645 0.65008
 C1022 C 0.68021 0.81197 0.64560
 C1023 C 0.69405 0.79818 0.66174
 C1024 C 0.69749 0.80841 0.68282
 C1025 C 0.68740 0.83297 0.68723
 C1026 C 0.67406 0.84695 0.67096
 C1027 C 0.65479 0.85083 0.63323
 C1028 C 0.66147 0.87632 0.62845
 C1029 C 0.64647 0.89014 0.61304
 C1030 C 0.62419 0.87888 0.60247
 C1031 C 0.61756 0.85337 0.60719
 C1032 C 0.63290 0.83938 0.62229
 C1033 C 0.60738 0.89408 0.58716
 C1034 C 0.57910 0.89516 0.58985
 C1035 C 0.56338 0.91100 0.57646
 C1036 C 0.57561 0.92565 0.55986
 C1037 C 0.60378 0.92388 0.55667
 C1038 C 0.61957 0.90843 0.57035
 H1039 H 0.67747 0.80357 0.62958
 H1040 H 0.70150 0.77927 0.65788
 H1041 H 0.68983 0.84138 0.70329
 H1042 H 0.66627 0.86574 0.67481
 H1043 H 0.67832 0.88550 0.63664
 H1044 H 0.65183 0.90986 0.60977
 H1045 H 0.60051 0.84429 0.59919
 H1046 H 0.62729 0.81979 0.62583
 H1047 H 0.56928 0.88438 0.60279
 H1048 H 0.54169 0.91201 0.57924
 H1049 H 0.61373 0.93504 0.54404
 H1050 H 0.64134 0.90777 0.56790
 C1051 C 1.17034 0.66086 -0.15111
 C1052 C 1.16877 0.65400 -0.17330
 C1053 C 1.18268 0.66788 -0.18932
 C1054 C 1.19921 0.68889 -0.18368
 C1055 C 1.20174 0.69498 -0.16124
 C1056 C 1.18729 0.68136 -0.14529
 C1057 C 1.15386 0.64703 -0.13431
 C1058 C 1.16347 0.64354 -0.11282
 C1059 C 1.14781 0.63056 -0.09720
 C1060 C 1.12228 0.62036 -0.10272
 C1061 C 1.11276 0.62385 -0.12422
 C1062 C 1.12814 0.63721 -0.13967
 C1063 C 1.10590 0.60554 -0.08647
 C1064 C 1.11859 0.59016 -0.07054
 C1065 C 1.10317 0.57487 -0.05638
 C1066 C 1.07479 0.57423 -0.05815
 C1067 C 1.06199 0.59002 -0.07356
 C1068 C 1.07733 0.60575 -0.08736
 H1069 H 1.15669 0.63782 -0.17843
 H1070 H 1.18030 0.66198 -0.20620
 H1071 H 1.21419 0.71083 -0.15590
 H1072 H 1.18887 0.68744 -0.12842
 H1073 H 1.18326 0.65053 -0.10807
 H1074 H 1.15574 0.62863 -0.08077
 H1075 H 1.09351 0.61592 -0.12935
 H1076 H 1.11967 0.63993 -0.15585
 H1077 H 1.14048 0.58912 -0.06947
 H1078 H 1.11352 0.56270 -0.04472
 H1079 H 1.04009 0.59005 -0.07507
 H1080 H 1.06670 0.61786 -0.09889
 C1081 C 0.67134 1.16130 0.35098
 C1082 C 0.67561 1.15057 0.33023
 C1083 C 0.68911 1.16439 0.31390
 C1084 C 0.69910 1.18904 0.31815
 C1085 C 0.69543 1.19949 0.33912
 C1086 C 0.68141 1.18586 0.35531
 C1087 C 0.65579 1.14712 0.36784
 C1088 C 0.63364 1.15863 0.37842
 C1089 C 0.61805 1.14479 0.39350
 C1090 C 0.62469 1.11938 0.39859
 C1091 C 0.64723 1.10807 0.38838
 C1092 C 0.66248 1.12174 0.37298
 C1093 C 0.60767 1.10434 0.41391
 C1094 C 0.61961 1.09045 0.43107
 C1095 C 0.60366 1.07512 0.44479
 C1096 C 0.57557 1.07300 0.44128
 C1097 C 0.56358 1.08721 0.42433
 C1098 C 0.57945 1.10294 0.41090
 H1099 H 0.66788 1.13171 0.32649
 H1100 H 0.69171 1.15582 0.29792
 H1101 H 0.70278 1.21848 0.34285
 H1102 H 0.67845 1.19445 0.37124
 H1103 H 0.62802 1.17813 0.37460
 H1104 H 0.60079 1.15390 0.40121
 H1105 H 0.65260 1.08844 0.39194
 H1106 H 0.67953 1.11251 0.36507
 H1107 H 0.64131 1.09135 0.43377
 H1108 H 0.61343 1.06430 0.45769
 H1109 H 0.54197 1.08593 0.42130
 H1110 H 0.56983 1.11338 0.39769
 C1111 C 0.83053 0.66072 0.15136
 C1112 C 0.80663 0.67390 0.14589
 C1113 C 0.79224 0.68743 0.16189
 C1114 C 0.80131 0.68773 0.18373
 C1115 C 0.82490 0.67403 0.18919
 C1116 C 0.83937 0.66080 0.17319
 C1117 C 0.84647 0.64697 0.13450
 C1118 C 0.87487 0.64925 0.13398
 C1119 C 0.89023 0.63518 0.11906
 C1120 C 0.87759 0.61828 0.10441
 C1121 C 0.84907 0.61655 0.10452
 C1122 C 0.83367 0.63084 0.11936
 C1123 C 0.89420 0.60179 0.08979
 C1124 C 0.88558 0.59601 0.06842
 C1125 C 0.90085 0.57966 0.05513
 C1126 C 0.92508 0.56884 0.06292
 C1127 C 0.93393 0.57493 0.08409
 C1128 C 0.91864 0.59112 0.09739
 H1129 H 0.79942 0.67418 0.12915
 H1130 H 0.77412 0.69773 0.15715
 H1131 H 0.83252 0.67384 0.20581
 H1132 H 0.85750 0.65049 0.17793
 H1133 H 0.88522 0.66191 0.14520
 H1134 H 0.91207 0.63746 0.11908
 H1135 H 0.83869 0.60352 0.09366
 H1136 H 0.81182 0.62860 0.11952
 H1137 H 0.86706 0.60416 0.06194
 H1138 H 0.89359 0.57536 0.03883
 H1139 H 0.95245 0.56678 0.09059
 H1140 H 0.92568 0.59475 0.11387
 C1141 C 0.32882 1.15740 0.65350
 C1142 C 0.31715 1.18105 0.64782
 C1143 C 0.30271 1.19527 0.66332
 C1144 C 0.29992 1.18636 0.68493
 C1145 C 0.31109 1.16255 0.69051
 C1146 C 0.32514 1.14817 0.67496
 C1147 C 0.34532 1.14271 0.63737
 C1148 C 0.36808 1.12865 0.64429
 C1149 C 0.38356 1.11471 0.62935
 C1150 C 0.37706 1.11473 0.60694
 C1151 C 0.35446 1.12898 0.59993
 C1152 C 0.33872 1.14268 0.61496
 C1153 C 0.39361 1.09959 0.59114
 C1154 C 0.38137 1.08731 0.57320
 C1155 C 0.39674 1.07198 0.55912
 C1156 C 0.42457 1.06831 0.56284
 C1157 C 0.43697 1.08096 0.58039
 C1158 C 0.42174 1.09658 0.59426
 H1159 H 0.31981 1.18898 0.63158
 H1160 H 0.29446 1.21363 0.65855
 H1161 H 0.30901 1.15499 0.70695
 H1162 H 0.33316 1.12977 0.67982
 H1163 H 0.37417 1.12853 0.66131
 H1164 H 0.40048 1.10365 0.63550
 H1165 H 0.34898 1.12973 0.58279
 H1166 H 0.32120 1.15303 0.60900
 H1167 H 0.35975 1.08884 0.57039
 H1168 H 0.38664 1.06234 0.54575
 H1169 H 0.45847 1.07865 0.58350
 H1170 H 0.43206 1.10622 0.60750
 C1171 C 0.83167 0.33997 -0.15306
 C1172 C 0.84088 0.33901 -0.17482
 C1173 C 0.82707 0.32465 -0.19043
 C1174 C 0.80377 0.31063 -0.18470
 C1175 C 0.79460 0.31136 -0.16289
 C1176 C 0.80838 0.32592 -0.14724
 C1177 C 0.84655 0.35554 -0.13667
 C1178 C 0.85027 0.34672 -0.11509
 C1179 C 0.86558 0.36093 -0.10015
 C1180 C 0.87763 0.38410 -0.10655
 C1181 C 0.87341 0.39317 -0.12792
 C1182 C 0.85796 0.37914 -0.14276
 C1183 C 0.89487 0.39881 -0.09123
 C1184 C 0.91962 0.40918 -0.09846
 C1185 C 0.93531 0.42427 -0.08457
 C1186 C 0.92647 0.42950 -0.06319
 C1187 C 0.90206 0.41861 -0.05572
 C1188 C 0.88646 0.40328 -0.06960
 H1189 H 0.85907 0.34911 -0.17978
 H1190 H 0.83492 0.32434 -0.20700
 H1191 H 0.77666 0.30084 -0.15795
 H1192 H 0.80060 0.32646 -0.13067
 H1193 H 0.84199 0.32851 -0.10994
 H1194 H 0.86864 0.35347 -0.08379
 H1195 H 0.88198 0.41125 -0.13314
 H1196 H 0.85495 0.38682 -0.15905
 H1197 H 0.92678 0.40570 -0.11496
 H1198 H 0.95407 0.43232 -0.09076
 H1199 H 0.89480 0.42231 -0.03929
 H1200 H 0.86741 0.39558 -0.06365
 C1201 C 0.33224 0.84068 0.34536
 C1202 C 0.34136 0.83998 0.32356
 C1203 C 0.32758 0.82568 0.30786
 C1204 C 0.30441 0.81146 0.31356
 C1205 C 0.29529 0.81198 0.33539
 C1206 C 0.30902 0.82649 0.35110
 C1207 C 0.34711 0.85611 0.36191
 C1208 C 0.35055 0.84717 0.38349
 C1209 C 0.36567 0.86128 0.39863
 C1210 C 0.37783 0.88448 0.39245
 C1211 C 0.37394 0.89365 0.37107
 C1212 C 0.35867 0.87972 0.35602
 C1213 C 0.39492 0.89906 0.40801
 C1214 C 0.41981 0.90937 0.40104
 C1215 C 0.43545 0.92422 0.41517
 C1216 C 0.42644 0.92928 0.43654
 C1217 C 0.40186 0.91849 0.44374
 C1218 C 0.38629 0.90339 0.42962
 H1219 H 0.35949 0.85020 0.31863
 H1220 H 0.33536 0.82552 0.29127
 H1221 H 0.27742 0.80134 0.34030
 H1222 H 0.30124 0.82685 0.36768
 H1223 H 0.34219 0.82895 0.38852
 H1224 H 0.36848 0.85372 0.41500
 H1225 H 0.38263 0.91173 0.36599
 H1226 H 0.35589 0.88751 0.33975
 H1227 H 0.42714 0.90602 0.38458
 H1228 H 0.45435 0.93219 0.40918
 H1229 H 0.39445 0.92207 0.46014
 H1230 H 0.36714 0.89573 0.43537
 C1231 C 1.16023 1.16526 0.34784
 C1232 C 1.15487 1.16187 0.32550
 C1233 C 1.16809 1.17677 0.30986
 C1234 C 1.18709 1.19538 0.31620
 C1235 C 1.19203 1.19917 0.33862
 C1236 C 1.17865 1.18428 0.35431
 C1237 C 1.14673 1.14874 0.36421
 C1238 C 1.13550 1.15923 0.38330
 C1239 C 1.12168 1.14367 0.39820
 C1240 C 1.11900 1.11735 0.39435
 C1241 C 1.13076 1.10679 0.37550
 C1242 C 1.14444 1.12235 0.36055
 C1243 C 1.10340 1.10105 0.40965
 C1244 C 1.11316 1.07689 0.41588
 C1245 C 1.09836 1.06164 0.43042
 C1246 C 1.07350 1.07027 0.43886
 C1247 C 1.06358 1.09426 0.43239
 C1248 C 1.07842 1.10953 0.41796
 H1249 H 1.14040 1.14765 0.32011
 H1250 H 1.16369 1.17337 0.29275
 H1251 H 1.20652 1.21336 0.34405
 H1252 H 1.18318 1.18719 0.37146
 H1253 H 1.13688 1.17953 0.38643
 H1254 H 1.11304 1.15222 0.41275
 H1255 H 1.12884 1.08659 0.37208
 H1256 H 1.15322 1.11375 0.34608
 H1257 H 1.13246 1.07000 0.40979
 H1258 H 1.10646 1.04324 0.43520
 H1259 H 1.04444 1.10135 0.43861
 H1260 H 1.07024 1.12789 0.41314
 C1261 C 0.65722 0.66842 -0.14911
 C1262 C 0.65908 0.65812 -0.17024
 C1263 C 0.67233 0.67156 -0.18690
 C1264 C 0.68441 0.69531 -0.18256
 C1265 C 0.68234 0.70568 -0.16142
 C1266 C 0.66860 0.69245 -0.14489
 C1267 C 0.64384 0.65385 -0.13144
 C1268 C 0.62315 0.66500 -0.11888
 C1269 C 0.60974 0.65072 -0.10281
 C1270 C 0.61727 0.62529 -0.09876
 C1271 C 0.63850 0.61440 -0.11090
 C1272 C 0.65152 0.62850 -0.12724
 C1273 C 0.60195 0.60946 -0.08299
 C1274 C 0.61558 0.59477 -0.06719
 C1275 C 0.60116 0.57784 -0.05378
 C1276 C 0.57302 0.57499 -0.05636
 C1277 C 0.55932 0.59025 -0.07170
 C1278 C 0.57364 0.60752 -0.08478
 H1279 H 0.65025 0.63965 -0.17384
 H1280 H 0.67374 0.66307 -0.20300
 H1281 H 0.69142 0.72397 -0.15765
 H1282 H 0.66742 0.70068 -0.12867
 H1283 H 0.61692 0.68453 -0.12193
 H1284 H 0.59339 0.65943 -0.09361
 H1285 H 0.64442 0.59473 -0.10818
 H1286 H 0.66758 0.61964 -0.13666
 H1287 H 0.63742 0.59608 -0.06553
 H1288 H 0.61215 0.56621 -0.04209
 H1289 H 0.53760 0.58843 -0.07392
 H1290 H 0.56277 0.61855 -0.09696
 C1291 C 0.83878 1.15990 0.65535
 C1292 C 0.81952 1.17775 0.64801
 C1293 C 0.80565 1.19316 0.66296
 C1294 C 0.81077 1.19095 0.68552
 C1295 C 0.83013 1.17311 0.69276
 C1296 C 0.84392 1.15777 0.67786
 C1297 C 0.85362 1.14348 0.63971
 C1298 C 0.88144 1.13876 0.64265
 C1299 C 0.89547 1.12296 0.62824
 C1300 C 0.88204 1.11159 0.61050
 C1301 C 0.85419 1.11622 0.60756
 C1302 C 0.84011 1.13206 0.62201
 C1303 C 0.89732 1.09559 0.59482
 C1304 C 0.88616 1.07285 0.58657
 C1305 C 0.90064 1.05814 0.57147
 C1306 C 0.92642 1.06602 0.56435
 C1307 C 0.93764 1.08857 0.57278
 C1308 C 0.92325 1.10321 0.58782
 H1309 H 0.81538 1.17996 0.63070
 H1310 H 0.79085 1.20669 0.65684
 H1311 H 0.83453 1.17075 0.71001
 H1312 H 0.85835 1.14392 0.68403
 H1313 H 0.89244 1.14749 0.65601
 H1314 H 0.91686 1.11953 0.63103
 H1315 H 0.84340 1.10791 0.59389
 H1316 H 0.81861 1.13516 0.61950
 H1317 H 0.86633 1.06640 0.59189
 H1318 H 0.89155 1.04081 0.56521
 H1319 H 0.95746 1.09515 0.56752
 H1320 H 0.93220 1.12081 0.59365
 C1321 C 0.34159 0.67040 0.14864
 C1322 C 0.35113 0.67106 0.17029
 C1323 C 0.33642 0.68372 0.18652
 C1324 C 0.31198 0.69619 0.18138
 C1325 C 0.30262 0.69573 0.15963
 C1326 C 0.31721 0.68286 0.14346
 C1327 C 0.35676 0.65623 0.13165
 C1328 C 0.34308 0.63973 0.11731
 C1329 C 0.35756 0.62510 0.10221
 C1330 C 0.38601 0.62680 0.10102
 C1331 C 0.39955 0.64400 0.11488
 C1332 C 0.38508 0.65846 0.13010
 C1333 C 0.40159 0.60958 0.08639
 C1334 C 0.42597 0.59857 0.09370
 C1335 C 0.43985 0.58105 0.08071
 C1336 C 0.42962 0.57397 0.06017
 C1337 C 0.40562 0.58535 0.05255
 C1338 C 0.39174 0.60303 0.06554
 H1339 H 0.36974 0.66136 0.17474
 H1340 H 0.34422 0.68377 0.20308
 H1341 H 0.28386 0.70512 0.15511
 H1342 H 0.30953 0.68277 0.12686
 H1343 H 0.32126 0.63749 0.11832
 H1344 H 0.34655 0.61177 0.09202
 H1345 H 0.42138 0.64613 0.11409
 H1346 H 0.39604 0.67136 0.14073
 H1347 H 0.43390 0.60283 0.10979
 H1348 H 0.45830 0.57256 0.08703
 H1349 H 0.39737 0.58031 0.03672
 H1350 H 0.37322 0.61145 0.05932
 C1351 C 1.15807 0.83250 0.65466
 C1352 C 1.15147 0.83443 0.67691
 C1353 C 1.16498 0.81964 0.69244
 C1354 C 1.18579 0.80257 0.68617
 C1355 C 1.19177 0.80024 0.66363
 C1356 C 1.17802 0.81500 0.64811
 C1357 C 1.14429 0.84902 0.63845
 C1358 C 1.13461 0.83884 0.61872
 C1359 C 1.12081 0.85436 0.60382
 C1360 C 1.11665 0.88038 0.60831
 C1361 C 1.12679 0.89065 0.62785
 C1362 C 1.14040 0.87509 0.64282
 C1363 C 1.10130 0.89662 0.59284
 C1364 C 1.11053 0.92124 0.58741
 C1365 C 1.09608 0.93636 0.57257
 C1366 C 1.07209 0.92716 0.56306
 C1367 C 1.06265 0.90272 0.56878
 C1368 C 1.07716 0.88757 0.58347
 H1369 H 1.13578 0.84745 0.68232
 H1370 H 1.15928 0.82209 0.70944
 H1371 H 1.20739 0.78734 0.65785
 H1372 H 1.18348 0.81321 0.63100
 H1373 H 1.13725 0.81878 0.61504
 H1374 H 1.11342 0.84605 0.58875
 H1375 H 1.12370 0.91060 0.63175
 H1376 H 1.14796 0.88346 0.65782
 H1377 H 1.12917 0.92859 0.59434
 H1378 H 1.10379 0.95513 0.56841
 H1379 H 1.04418 0.89516 0.56173
 H1380 H 1.06940 0.86882 0.58764
 C1381 C 0.65555 0.32847 0.15117
 C1382 C 0.65812 0.33884 0.17222
 C1383 C 0.67207 0.32553 0.18853
 C1384 C 0.68416 0.30186 0.18393
 C1385 C 0.68144 0.29145 0.16286
 C1386 C 0.66698 0.30453 0.14667
 C1387 C 0.64148 0.34297 0.13383
 C1388 C 0.62018 0.33183 0.12197
 C1389 C 0.60626 0.34605 0.10616
 C1390 C 0.61391 0.37136 0.10166
 C1391 C 0.63565 0.38225 0.11317
 C1392 C 0.64916 0.36824 0.12927
 C1393 C 0.59855 0.38698 0.08580
 C1394 C 0.61220 0.40087 0.06946
 C1395 C 0.59791 0.41754 0.05580
 C1396 C 0.56987 0.42094 0.05860
 C1397 C 0.55611 0.40650 0.07453
 C1398 C 0.57031 0.38946 0.08790
 H1399 H 0.64929 0.35725 0.17601
 H1400 H 0.67395 0.33406 0.20459
 H1401 H 0.69050 0.27321 0.15889
 H1402 H 0.66527 0.29628 0.13050
 H1403 H 0.61394 0.31237 0.12532
 H1404 H 0.58954 0.33733 0.09743
 H1405 H 0.64169 0.40182 0.11009
 H1406 H 0.66566 0.37709 0.13817
 H1407 H 0.63398 0.39912 0.06755
 H1408 H 0.60897 0.42850 0.04365
 H1409 H 0.53446 0.40876 0.07694
 H1410 H 0.55944 0.37903 0.10050
 C1411 C 0.84098 0.83554 0.34422
 C1412 C 0.84641 0.83747 0.32172
 C1413 C 0.83206 0.82269 0.30676
 C1414 C 0.81185 0.80561 0.31393
 C1415 C 0.80654 0.80349 0.33648
 C1416 C 0.82096 0.81835 0.35148
 C1417 C 0.85608 0.85167 0.35992
 C1418 C 0.84259 0.86355 0.37741
 C1419 C 0.85680 0.87929 0.39183
 C1420 C 0.88478 0.88339 0.38906
 C1421 C 0.89825 0.87146 0.37159
 C1422 C 0.88406 0.85575 0.35719
 C1423 C 0.90005 0.89961 0.40458
 C1424 C 0.92581 0.89199 0.41192
 C1425 C 0.94005 0.90684 0.42693
 C1426 C 0.92882 0.92960 0.43494
 C1427 C 0.90326 0.93749 0.42741
 C1428 C 0.88897 0.92260 0.41237
 H1429 H 0.86145 0.85081 0.31561
 H1430 H 0.83665 0.82491 0.28952
 H1431 H 0.79115 0.79050 0.34256
 H1432 H 0.81658 0.81628 0.36877
 H1433 H 0.82097 0.86095 0.37976
 H1434 H 0.84596 0.88800 0.40531
 H1435 H 0.91976 0.87445 0.36893
 H1436 H 0.89505 0.84665 0.34398
 H1437 H 0.93472 0.87422 0.40643
 H1438 H 0.95970 0.90025 0.43250
 H1439 H 0.89418 0.95499 0.43332
 H1440 H 0.86930 0.92909 0.40676
 C1441 C 0.34371 0.32991 -0.15194
 C1442 C 0.34246 0.33895 -0.17363
 C1443 C 0.32784 0.32567 -0.18950
 C1444 C 0.31375 0.30324 -0.18399
 C1445 C 0.31490 0.29416 -0.16234
 C1446 C 0.32986 0.30725 -0.14652
 C1447 C 0.35918 0.34425 -0.13507
 C1448 C 0.34970 0.34581 -0.11338
 C1449 C 0.36383 0.36006 -0.09778
 C1450 C 0.38762 0.37333 -0.10355
 C1451 C 0.39720 0.37153 -0.12519
 C1452 C 0.38331 0.35703 -0.14067
 C1453 C 0.40198 0.38975 -0.08743
 C1454 C 0.43038 0.39235 -0.08825
 C1455 C 0.44365 0.40976 -0.07474
 C1456 C 0.42892 0.42457 -0.05978
 C1457 C 0.40078 0.42111 -0.05803
 C1458 C 0.38738 0.40401 -0.07186
 H1459 H 0.35236 0.35660 -0.17831
 H1460 H 0.32710 0.33328 -0.20599
 H1461 H 0.30441 0.27679 -0.15766
 H1462 H 0.33075 0.29948 -0.13010
 H1463 H 0.33104 0.33645 -0.10851
 H1464 H 0.35604 0.36073 -0.08122
 H1465 H 0.41517 0.38180 -0.13040
 H1466 H 0.39150 0.35591 -0.15709
 H1467 H 0.44239 0.38119 -0.09956
 H1468 H 0.46546 0.41187 -0.07618
 H1469 H 0.38898 0.43243 -0.04666
 H1470 H 0.36548 0.40277 -0.07091
 C1471 C 1.16536 0.33607 -0.15050
 C1472 C 1.16955 0.34639 -0.17146
 C1473 C 1.18321 0.33237 -0.18746
 C1474 C 1.19347 0.30795 -0.18266
 C1475 C 1.18957 0.29775 -0.16157
 C1476 C 1.17535 0.31159 -0.14570
 C1477 C 1.15045 0.35088 -0.13381
 C1478 C 1.12789 0.34026 -0.12304
 C1479 C 1.11294 0.35483 -0.10813
 C1480 C 1.12070 0.38003 -0.10341
 C1481 C 1.14365 0.39041 -0.11379
 C1482 C 1.15824 0.37604 -0.12903
 C1483 C 1.10446 0.39586 -0.08825
 C1484 C 1.11710 0.40919 -0.07116
 C1485 C 1.10199 0.42528 -0.05760
 C1486 C 1.07408 0.42874 -0.06122
 C1487 C 1.06138 0.41515 -0.07813
 C1488 C 1.07640 0.39865 -0.09141
 H1489 H 1.16187 0.36519 -0.17554
 H1490 H 1.18603 0.34076 -0.20353
 H1491 H 1.19717 0.27894 -0.15745
 H1492 H 1.17240 0.30332 -0.12959
 H1493 H 1.12147 0.32093 -0.12659
 H1494 H 1.09533 0.34646 -0.10026
 H1495 H 1.14987 0.40986 -0.11051
 H1496 H 1.17563 0.38455 -0.13711
 H1497 H 1.13871 0.40723 -0.06840
 H1498 H 1.11228 0.43559 -0.04471
 H1499 H 1.03987 0.41746 -0.08122
 H1500 H 1.06628 0.38866 -0.10458
 C1501 C 0.66434 0.83476 0.34908
 C1502 C 0.66781 0.84482 0.32794
 C1503 C 0.68124 0.83073 0.31184
 C1504 C 0.69196 0.80650 0.31669
 C1505 C 0.68873 0.79654 0.33794
 C1506 C 0.67474 0.81043 0.35392
 C1507 C 0.64977 0.84970 0.36594
 C1508 C 0.62763 0.83907 0.37725
 C1509 C 0.61296 0.85374 0.39229
 C1510 C 0.62060 0.87908 0.39661
 C1511 C 0.64316 0.88948 0.38569
 C1512 C 0.65744 0.87500 0.37032
 C1513 C 0.60456 0.89504 0.41185
 C1514 C 0.61744 0.90879 0.42859
 C1515 C 0.60244 0.92493 0.44223
 C1516 C 0.57441 0.92805 0.43902
 C1517 C 0.56149 0.91406 0.42245
 C1518 C 0.57639 0.89750 0.40913
 H1519 H 0.65981 0.86349 0.32382
 H1520 H 0.68354 0.83895 0.29565
 H1521 H 0.69672 0.77789 0.34211
 H1522 H 0.67235 0.80236 0.37016
 H1523 H 0.62129 0.81963 0.37403
 H1524 H 0.59565 0.84534 0.40057
 H1525 H 0.64929 0.90903 0.38865
 H1526 H 0.67451 0.88354 0.36183
 H1527 H 0.63914 0.90710 0.43103
 H1528 H 0.61291 0.93555 0.45484
 H1529 H 0.53989 0.91609 0.41967
 H1530 H 0.56606 0.88721 0.39623
 C1531 C 0.83414 0.66564 -0.14876
 C1532 C 0.83236 0.65596 -0.17016
 C1533 C 0.81778 0.66897 -0.18626
 C1534 C 0.80422 0.69183 -0.18133
 C1535 C 0.80538 0.70127 -0.15983
 C1536 C 0.82031 0.68839 -0.14375
 C1537 C 0.85066 0.65212 -0.13195
 C1538 C 0.84227 0.65097 -0.10995
 C1539 C 0.85759 0.63756 -0.09442
 C1540 C 0.88156 0.62485 -0.10056
 C1541 C 0.89002 0.62627 -0.12253
 C1542 C 0.87492 0.63986 -0.13794
 C1543 C 0.89729 0.60936 -0.08449
 C1544 C 0.92572 0.60764 -0.08615
 C1545 C 0.94026 0.59093 -0.07275
 C1546 C 0.92681 0.57592 -0.05707
 C1547 C 0.89865 0.57857 -0.05448
 C1548 C 0.88399 0.59499 -0.06817
 H1549 H 0.84213 0.63817 -0.17450
 H1550 H 0.81699 0.66099 -0.20258
 H1551 H 0.79523 0.71891 -0.15555
 H1552 H 0.82147 0.69656 -0.12752
 H1553 H 0.82359 0.65999 -0.10477
 H1554 H 0.85061 0.63716 -0.07761
 H1555 H 0.90807 0.61639 -0.12801
 H1556 H 0.88233 0.64073 -0.15462
 H1557 H 0.93676 0.61892 -0.09808
 H1558 H 0.96203 0.58945 -0.07488
 H1559 H 0.88780 0.56711 -0.04255
 H1560 H 0.86212 0.59558 -0.06653
 C1561 C 0.33568 1.16596 0.34992
 C1562 C 0.33427 1.15679 0.32833
 C1563 C 0.32000 1.17021 0.31227
 C1564 C 0.30640 1.19300 0.31739
 C1565 C 0.30724 1.20196 0.33906
 C1566 C 0.32184 1.18866 0.35511
 C1567 C 0.35178 1.15190 0.36674
 C1568 C 0.34305 1.15040 0.38865
 C1569 C 0.35800 1.13658 0.40417
 C1570 C 0.38195 1.12376 0.39813
 C1571 C 0.39072 1.12547 0.37625
 C1572 C 0.37599 1.13948 0.36085
 C1573 C 0.39747 1.10806 0.41424
 C1574 C 0.42592 1.10624 0.41275
 C1575 C 0.44031 1.08955 0.42631
 C1576 C 0.42673 1.07465 0.44199
 C1577 C 0.39854 1.07733 0.44436
 C1578 C 0.38401 1.09373 0.43052
 H1579 H 0.34402 1.13906 0.32380
 H1580 H 0.31946 1.16257 0.29582
 H1581 H 0.29703 1.21950 0.34352
 H1582 H 0.32272 1.19646 0.37149
 H1583 H 0.32439 1.15952 0.39376
 H1584 H 0.35076 1.13597 0.42090
 H1585 H 0.40876 1.11554 0.37081
 H1586 H 0.38368 1.14056 0.34427
 H1587 H 0.43711 1.11747 0.40088
 H1588 H 0.46211 1.08807 0.42432
 H1589 H 0.38757 1.06595 0.45628
 H1590 H 0.36214 1.09439 0.43204
 C1591 C 1.16033 0.66856 0.14988
 C1592 C 1.18454 0.68117 0.14426
 C1593 C 1.19931 0.69444 0.16011
 C1594 C 1.19030 0.69513 0.18196
 C1595 C 1.16608 0.68247 0.18754
 C1596 C 1.15122 0.66943 0.17166
 C1597 C 1.14480 0.65407 0.13327
 C1598 C 1.11638 0.65582 0.13244
 C1599 C 1.10159 0.64104 0.11766
 C1600 C 1.11488 0.62402 0.10348
 C1601 C 1.14339 0.62275 0.10397
 C1602 C 1.15819 0.63767 0.11866
 C1603 C 1.09902 0.60684 0.08898
 C1604 C 1.10833 0.60078 0.06784
 C1605 C 1.09408 0.58347 0.05478
 C1606 C 1.07019 0.57195 0.06257
 C1607 C 1.06053 0.57841 0.08345
 C1608 C 1.07482 0.59559 0.09653
 H1609 H 1.19192 0.68093 0.12755
 H1610 H 1.21792 0.70395 0.15527
 H1611 H 1.15853 0.68264 0.20420
 H1612 H 1.13280 0.65961 0.17650
 H1613 H 1.10559 0.66862 0.14329
 H1614 H 1.07971 0.64288 0.11740
 H1615 H 1.15424 0.60958 0.09351
 H1616 H 1.18007 0.63575 0.11911
 H1617 H 1.12668 0.60939 0.06141
 H1618 H 1.10191 0.57892 0.03869
 H1619 H 1.04221 0.56976 0.08991
 H1620 H 1.06728 0.59948 0.11284
 C1621 C 0.66071 1.16837 0.65048
 C1622 C 0.65105 1.16978 0.67208
 C1623 C 0.66569 1.18293 0.68805
 C1624 C 0.69026 1.19516 0.68276
 C1625 C 0.69982 1.19394 0.66107
 C1626 C 0.68526 1.18057 0.64513
 C1627 C 0.64537 1.15375 0.63378
 C1628 C 0.65886 1.13705 0.61947
 C1629 C 0.64419 1.12206 0.60471
 C1630 C 0.61570 1.12356 0.60384
 C1631 C 0.60233 1.14087 0.61771
 C1632 C 0.61698 1.15571 0.63255
 C1633 C 0.59992 1.10636 0.58924
 C1634 C 0.57537 1.09554 0.59652
 C1635 C 0.56103 1.07849 0.58333
 C1636 C 0.57095 1.07172 0.56259
 C1637 C 0.59524 1.08277 0.55510
 C1638 C 0.60956 1.09994 0.56827
 H1639 H 0.63237 1.16030 0.67674
 H1640 H 0.65770 1.18349 0.70457
 H1641 H 0.71870 1.20309 0.65645
 H1642 H 0.69309 1.17992 0.62857
 H1643 H 0.68071 1.13495 0.62022
 H1644 H 0.65512 1.10869 0.59450
 H1645 H 0.58048 1.14291 0.61716
 H1646 H 0.60609 1.16875 0.64312
 H1647 H 0.56755 1.09969 0.61269
 H1648 H 0.54241 1.07022 0.58959
 H1649 H 0.60330 1.07796 0.53913
 H1650 H 0.62820 1.10819 0.56204
 C1651 C 0.83187 0.33262 0.14793
 C1652 C 0.82836 0.34356 0.16868
 C1653 C 0.81481 0.33018 0.18522
 C1654 C 0.80402 0.30580 0.18119
 C1655 C 0.80723 0.29499 0.16030
 C1656 C 0.82132 0.30819 0.14388
 C1657 C 0.84676 0.34672 0.13068
 C1658 C 0.86873 0.33534 0.11977
 C1659 C 0.88387 0.34931 0.10447
 C1660 C 0.87689 0.37468 0.09952
 C1661 C 0.85445 0.38579 0.11000
 C1662 C 0.83967 0.37201 0.12559
 C1663 C 0.89363 0.39004 0.08427
 C1664 C 0.88139 0.40422 0.06742
 C1665 C 0.89700 0.42029 0.05410
 C1666 C 0.92502 0.42285 0.05772
 C1667 C 0.93734 0.40824 0.07425
 C1668 C 0.92182 0.39179 0.08729
 H1669 H 0.83650 0.36233 0.17218
 H1670 H 0.81254 0.33903 0.20112
 H1671 H 0.79921 0.27619 0.15677
 H1672 H 0.82375 0.29945 0.12795
 H1673 H 0.87462 0.31590 0.12355
 H1674 H 0.90108 0.34037 0.09655
 H1675 H 0.84884 0.40539 0.10656
 H1676 H 0.82274 0.38111 0.13377
 H1677 H 0.85970 0.40306 0.06475
 H1678 H 0.88699 0.43139 0.04149
 H1679 H 0.95892 0.40984 0.07733
 H1680 H 0.93165 0.38115 0.10028
 C1681 C 0.33321 0.83397 0.65225
 C1682 C 0.31534 0.81412 0.64655
 C1683 C 0.30042 0.80109 0.66260
 C1684 C 0.30331 0.80714 0.68501
 C1685 C 0.32120 0.82718 0.69058
 C1686 C 0.33560 0.84049 0.67447
 C1687 C 0.34944 0.84779 0.63525
 C1688 C 0.37545 0.85722 0.64017
 C1689 C 0.39034 0.87101 0.62467
 C1690 C 0.38002 0.87533 0.60351
 C1691 C 0.35426 0.86536 0.59837
 C1692 C 0.33910 0.85197 0.61406
 C1693 C 0.39579 0.89078 0.58727
 C1694 C 0.38250 0.90661 0.57196
 C1695 C 0.39736 0.92245 0.55785
 C1696 C 0.42578 0.92324 0.55905
 C1697 C 0.43916 0.90705 0.57383
 C1698 C 0.42438 0.89077 0.58755
 H1699 H 0.31317 0.80824 0.62967
 H1700 H 0.28704 0.78588 0.65733
 H1701 H 0.32405 0.83296 0.70744
 H1702 H 0.34848 0.85612 0.67955
 H1703 H 0.38448 0.85398 0.65608
 H1704 H 0.40980 0.87870 0.62953
 H1705 H 0.34571 0.86787 0.58220
 H1706 H 0.31906 0.84530 0.60964
 H1707 H 0.36058 0.90754 0.57137
 H1708 H 0.38657 0.93492 0.54669
 H1709 H 0.46110 0.90713 0.57489
 H1710 H 0.43548 0.87836 0.59854
 C1711 C 0.34040 1.17089 -0.14913
 C1712 C 0.32797 1.19443 -0.14440
 C1713 C 0.31264 1.20720 -0.16033
 C1714 C 0.30962 1.19679 -0.18138
 C1715 C 0.32189 1.17320 -0.18602
 C1716 C 0.33690 1.16036 -0.17009
 C1717 C 0.35700 1.15718 -0.13247
 C1718 C 0.38027 1.14358 -0.13886
 C1719 C 0.39507 1.12939 -0.12365
 C1720 C 0.38731 1.12867 -0.10150
 C1721 C 0.36446 1.14285 -0.09494
 C1722 C 0.34944 1.15689 -0.11026
 C1723 C 0.40247 1.11233 -0.08567
 C1724 C 0.38875 1.09884 -0.06903
 C1725 C 0.40269 1.08161 -0.05557
 C1726 C 0.43054 1.07728 -0.05868
 C1727 C 0.44447 1.09139 -0.07470
 C1728 C 0.43066 1.10887 -0.08791
 H1729 H 0.33046 1.20321 -0.12851
 H1730 H 0.30353 1.22540 -0.15628
 H1731 H 0.31969 1.16446 -0.20196
 H1732 H 0.34556 1.14199 -0.17417
 H1733 H 0.38703 1.14374 -0.15573
 H1734 H 0.41225 1.11845 -0.12945
 H1735 H 0.35808 1.14303 -0.07798
 H1736 H 0.33154 1.16701 -0.10477
 H1737 H 0.36702 1.10076 -0.06696
 H1738 H 0.39147 1.07090 -0.04335
 H1739 H 0.46603 1.08864 -0.07725
 H1740 H 0.44207 1.11941 -0.10011
 C1741 C 0.84013 0.67025 0.34979
 C1742 C 0.83727 0.66030 0.32856
 C1743 C 0.82257 0.67347 0.31262
 C1744 C 0.80997 0.69685 0.31748
 C1745 C 0.81241 0.70673 0.33878
 C1746 C 0.82742 0.69361 0.35473
 C1747 C 0.85637 0.65613 0.36650
 C1748 C 0.84836 0.65536 0.38861
 C1749 C 0.86312 0.64105 0.40395
 C1750 C 0.88619 0.62708 0.39753
 C1751 C 0.89433 0.62820 0.37547
 C1752 C 0.87979 0.64264 0.36025
 C1753 C 0.90134 0.61073 0.41342
 C1754 C 0.92960 0.60755 0.41140
 C1755 C 0.94350 0.59027 0.42475
 C1756 C 0.92963 0.57606 0.44074
 C1757 C 0.90168 0.58005 0.44361
 C1758 C 0.88763 0.59708 0.43000
 H1759 H 0.84614 0.64208 0.32426
 H1760 H 0.82083 0.66511 0.29649
 H1761 H 0.80303 0.72474 0.34303
 H1762 H 0.82942 0.70198 0.37083
 H1763 H 0.83033 0.66534 0.39401
 H1764 H 0.85641 0.64093 0.42083
 H1765 H 0.91167 0.61743 0.36975
 H1766 H 0.88692 0.64314 0.34348
 H1767 H 0.94102 0.61820 0.39928
 H1768 H 0.96513 0.58780 0.42236
 H1769 H 0.89048 0.56926 0.45579
 H1770 H 0.86587 0.59878 0.43193
 C1771 C 0.66079 1.16658 0.15141
 C1772 C 0.66585 1.15564 0.17201
 C1773 C 0.67939 1.16950 0.18816
 C1774 C 0.68861 1.19444 0.18391
 C1775 C 0.68356 1.20538 0.16325
 C1776 C 0.66951 1.19166 0.14723
 C1777 C 0.64658 1.15168 0.13435
 C1778 C 0.62391 1.16186 0.12349
 C1779 C 0.60974 1.14719 0.10816
 C1780 C 0.61839 1.12233 0.10312
 C1781 C 0.64147 1.11243 0.11359
 C1782 C 0.65529 1.12689 0.12921
 C1783 C 0.60281 1.10625 0.08769
 C1784 C 0.61610 1.09290 0.07089
 C1785 C 0.60159 1.07640 0.05726
 C1786 C 0.57365 1.07257 0.06049
 C1787 C 0.56029 1.08627 0.07704
 C1788 C 0.57470 1.10313 0.09039
 H1789 H 0.65913 1.13638 0.17564
 H1790 H 0.68308 1.16051 0.20387
 H1791 H 0.69037 1.22456 0.15952
 H1792 H 0.66589 1.20044 0.13143
 H1793 H 0.61678 1.18090 0.12728
 H1794 H 0.59203 1.15522 0.10025
 H1795 H 0.64838 1.09324 0.11010
 H1796 H 0.67282 1.11872 0.13730
 H1797 H 0.63775 1.09511 0.06845
 H1798 H 0.61238 1.06603 0.04464
 H1799 H 0.53875 1.08370 0.07984
 H1800 H 0.56406 1.11309 0.10333
 C1801 C 1.16316 0.66719 0.65066
 C1802 C 1.17093 0.69267 0.64698
 C1803 C 1.18486 0.70633 0.66315
 C1804 C 1.19073 0.69490 0.68347
 C1805 C 1.18257 0.66953 0.68720
 C1806 C 1.16917 0.65576 0.67090
 C1807 C 1.14879 0.65243 0.63355
 C1808 C 1.15778 0.62788 0.62786
 C1809 C 1.14367 0.61343 0.61238
 C1810 C 1.12002 0.62307 0.60257
 C1811 C 1.11112 0.64771 0.60814
 C1812 C 1.12555 0.66237 0.62333
 C1813 C 1.10417 0.60696 0.58729
 C1814 C 1.07613 0.60362 0.59037
 C1815 C 1.06151 0.58681 0.57708
 C1816 C 1.07456 0.57337 0.56021
 C1817 C 1.10241 0.57738 0.55663
 C1818 C 1.11713 0.59383 0.57019
 H1819 H 1.16658 0.70186 0.63147
 H1820 H 1.19079 0.72589 0.65985
 H1821 H 1.18689 0.66016 0.70264
 H1822 H 1.16319 0.63621 0.67419
 H1823 H 1.17572 0.61986 0.63545
 H1824 H 1.15083 0.59442 0.60850
 H1825 H 1.09298 0.65558 0.60074
 H1826 H 1.11816 0.68120 0.62754
 H1827 H 1.06571 0.61337 0.60354
 H1828 H 1.04005 0.58410 0.58017
 H1829 H 1.11298 0.56723 0.54377
 H1830 H 1.13871 0.59620 0.56742
 C1831 C 0.66053 0.83058 -0.15031
 C1832 C 0.66569 0.84160 -0.17087
 C1833 C 0.67918 0.82776 -0.18707
 C1834 C 0.68826 0.80278 -0.18290
 C1835 C 0.68315 0.79178 -0.16227
 C1836 C 0.66912 0.80547 -0.14619
 C1837 C 0.64634 0.84547 -0.13324
 C1838 C 0.62335 0.83549 -0.12262
 C1839 C 0.60910 0.85027 -0.10741
 C1840 C 0.61799 0.87502 -0.10224
 C1841 C 0.64141 0.88470 -0.11245
 C1842 C 0.65531 0.87014 -0.12795
 C1843 C 0.60232 0.89128 -0.08701
 C1844 C 0.61546 0.90443 -0.07005
 C1845 C 0.60096 0.92123 -0.05668
 C1846 C 0.57320 0.92554 -0.06033
 C1847 C 0.55996 0.91201 -0.07702
 C1848 C 0.57435 0.89485 -0.09012
 H1849 H 0.65906 0.86089 -0.17445
 H1850 H 0.68293 0.83680 -0.20277
 H1851 H 0.68985 0.77255 -0.15861
 H1852 H 0.66541 0.79665 -0.13041
 H1853 H 0.61603 0.81655 -0.12654
 H1854 H 0.59112 0.84242 -0.09969
 H1855 H 0.64850 0.90381 -0.10886
 H1856 H 0.67308 0.87815 -0.13588
 H1857 H 0.63700 0.90187 -0.06731
 H1858 H 0.61165 0.93146 -0.04394
 H1859 H 0.53855 0.91494 -0.08013
 H1860 H 0.56384 0.88504 -0.10320
 C1861 C 1.16289 0.33218 0.34895
 C1862 C 1.16839 0.34329 0.32848
 C1863 C 1.18183 0.32942 0.31225
 C1864 C 1.19054 0.30429 0.31629
 C1865 C 1.18512 0.29318 0.33683
 C1866 C 1.17115 0.30692 0.35294
 C1867 C 1.14861 0.34708 0.36603
 C1868 C 1.12560 0.33709 0.37663
 C1869 C 1.11126 0.35185 0.39181
 C1870 C 1.12003 0.37665 0.39700
 C1871 C 1.14347 0.38635 0.38682
 C1872 C 1.15747 0.37180 0.37134
 C1873 C 1.10425 0.39287 0.41225
 C1874 C 1.11731 0.40625 0.42913
 C1875 C 1.10263 0.42282 0.44263
 C1876 C 1.07475 0.42670 0.43918
 C1877 C 1.06163 0.41299 0.42253
 C1878 C 1.07619 0.39606 0.40932
 H1879 H 1.16203 0.36267 0.32498
 H1880 H 1.18581 0.33854 0.29663
 H1881 H 1.19149 0.27381 0.34037
 H1882 H 1.16718 0.29799 0.36864
 H1883 H 1.11833 0.31812 0.37271
 H1884 H 1.09329 0.34395 0.39950
 H1885 H 1.15051 0.40548 0.39041
 H1886 H 1.17524 0.37985 0.36345
 H1887 H 1.13891 0.40400 0.43177
 H1888 H 1.11326 0.43319 0.45531
 H1889 H 1.04014 0.41559 0.41956
 H1890 H 1.06571 0.38609 0.39632
 C1891 C 0.33761 0.82918 0.14609
 C1892 C 0.33267 0.84078 0.16638
 C1893 C 0.31920 0.82747 0.18298
 C1894 C 0.30995 0.80242 0.17951
 C1895 C 0.31484 0.79079 0.15916
 C1896 C 0.32884 0.80398 0.14266
 C1897 C 0.35186 0.84357 0.12867
 C1898 C 0.37491 0.83335 0.11839
 C1899 C 0.38953 0.84792 0.10316
 C1900 C 0.38096 0.87271 0.09764
 C1901 C 0.35739 0.88255 0.10742
 C1902 C 0.34311 0.86820 0.12292
 C1903 C 0.39723 0.88894 0.08269
 C1904 C 0.38467 0.90265 0.06571
 C1905 C 0.39967 0.91970 0.05283
 C1906 C 0.42737 0.92368 0.05699
 C1907 C 0.44007 0.90951 0.07362
 C1908 C 0.42518 0.89213 0.08625
 H1909 H 0.33945 0.86012 0.16944
 H1910 H 0.31562 0.83697 0.19845
 H1911 H 0.30803 0.77146 0.15608
 H1912 H 0.33243 0.79471 0.12711
 H1913 H 0.38207 0.81444 0.12267
 H1914 H 0.40762 0.83993 0.09578
 H1915 H 0.35053 0.90169 0.10358
 H1916 H 0.32531 0.87640 0.13058
 H1917 H 0.36316 0.90039 0.06261
 H1918 H 0.38938 0.93039 0.04011
 H1919 H 0.46143 0.91217 0.07712
 H1920 H 0.43526 0.88192 0.09936
 C1921 C 0.84263 0.32718 0.64924
 C1922 C 0.82933 0.30411 0.64423
 C1923 C 0.81439 0.29099 0.66028
 C1924 C 0.81260 0.30054 0.68173
 C1925 C 0.82586 0.32359 0.68666
 C1926 C 0.84049 0.33677 0.67065
 C1927 C 0.85865 0.34141 0.63241
 C1928 C 0.88236 0.35460 0.63840
 C1929 C 0.89660 0.36931 0.62314
 C1930 C 0.88788 0.37099 0.60126
 C1931 C 0.86455 0.35725 0.59507
 C1932 C 0.85008 0.34270 0.61047
 C1933 C 0.90268 0.38769 0.58536
 C1934 C 0.88862 0.40165 0.56921
 C1935 C 0.90236 0.41902 0.55564
 C1936 C 0.93035 0.42305 0.55816
 C1937 C 0.94457 0.40855 0.57371
 C1938 C 0.93098 0.39092 0.58698
 H1939 H 0.83076 0.29600 0.62799
 H1940 H 0.80447 0.27325 0.65595
 H1941 H 0.82464 0.33173 0.70291
 H1942 H 0.84980 0.35477 0.67503
 H1943 H 0.88993 0.35370 0.65501
 H1944 H 0.91415 0.37988 0.62871
 H1945 H 0.85740 0.35778 0.57833
 H1946 H 0.83182 0.33297 0.60526
 H1947 H 0.86682 0.39994 0.56759
 H1948 H 0.89090 0.43003 0.54381
 H1949 H 0.96623 0.41105 0.57580
 H1950 H 0.94268 0.38004 0.59874
 C1951 C 1.16078 1.15956 0.65615
 C1952 C 1.17806 1.17930 0.64909
 C1953 C 1.19164 1.19453 0.66431
 C1954 C 1.18809 1.19037 0.68688
 C1955 C 1.17062 1.17070 0.69386
 C1956 C 1.15716 1.15547 0.67867
 C1957 C 1.14633 1.14333 0.64015
 C1958 C 1.14439 1.11682 0.64346
 C1959 C 1.12999 1.10159 0.62878
 C1960 C 1.11715 1.11261 0.61055
 C1961 C 1.11934 1.13907 0.60711
 C1962 C 1.13384 1.15428 0.62173
 C1963 C 1.10127 1.09661 0.59527
 C1964 C 1.07610 1.10518 0.58739
 C1965 C 1.06137 1.09049 0.57256
 C1966 C 1.07155 1.06697 0.56525
 C1967 C 1.09648 1.05814 0.57340
 C1968 C 1.11120 1.07282 0.58832
 H1969 H 1.18135 1.18272 0.63180
 H1970 H 1.20498 1.20948 0.65837
 H1971 H 1.16736 1.16695 0.71111
 H1972 H 1.14365 1.14063 0.68456
 H1973 H 1.15408 1.10785 0.65740
 H1974 H 1.12849 1.08127 0.63190
 H1975 H 1.10991 1.14801 0.59303
 H1976 H 1.13485 1.17468 0.61888
 H1977 H 1.06776 1.12324 0.59276
 H1978 H 1.04214 1.09771 0.56661
 H1979 H 1.10480 1.04009 0.56800
 H1980 H 1.13063 1.06585 0.59403
 C1981 C 0.65944 0.66238 0.15337
 C1982 C 0.66395 0.65190 0.17422
 C1983 C 0.67756 0.66598 0.19020
 C1984 C 0.68734 0.69058 0.18542
 C1985 C 0.68290 0.70098 0.16449
 C1986 C 0.66884 0.68709 0.14867
 C1987 C 0.64500 0.64751 0.13652
 C1988 C 0.62284 0.65816 0.12533
 C1989 C 0.60870 0.64379 0.10984
 C1990 C 0.61688 0.61875 0.10502
 C1991 C 0.63938 0.60830 0.11590
 C1992 C 0.65319 0.62250 0.13167
 C1993 C 0.60137 0.60310 0.08935
 C1994 C 0.61476 0.58978 0.07261
 C1995 C 0.60024 0.57364 0.05871
 C1996 C 0.57221 0.57020 0.06166
 C1997 C 0.55875 0.58391 0.07813
 C1998 C 0.57319 0.60041 0.09175
 H1999 H 0.65670 0.63291 0.17820
 H2000 H 0.68079 0.65749 0.20618
 H2001 H 0.69011 0.71996 0.16040
 H2002 H 0.66565 0.69546 0.13264
 H2003 H 0.61616 0.67741 0.12890
 H2004 H 0.59141 0.65219 0.10160
 H2005 H 0.64586 0.58894 0.11255
 H2006 H 0.67034 0.61401 0.14004
 H2007 H 0.63649 0.59172 0.07044
 H2008 H 0.61107 0.56323 0.04615
 H2009 H 0.53713 0.58160 0.08068
 H2010 H 0.56250 0.61039 0.10465
 C2011 C 1.16596 0.84112 0.34485
 C2012 C 1.16214 0.84569 0.32243
 C2013 C 1.17516 0.83057 0.30689
 C2014 C 1.19237 0.81055 0.31343
 C2015 C 1.19625 0.80601 0.33591
 C2016 C 1.18311 0.82112 0.35147
 C2017 C 1.15160 0.85696 0.36120
 C2018 C 1.13905 0.84552 0.37940
 C2019 C 1.12431 0.86031 0.39421
 C2020 C 1.12194 0.88682 0.39114
 C2021 C 1.13496 0.89833 0.37319
 C2022 C 1.14960 0.88353 0.35833
 C2023 C 1.10554 0.90231 0.40646
 C2024 C 1.11499 0.92609 0.41384
 C2025 C 1.09968 0.94035 0.42869
 C2026 C 1.07464 0.93109 0.43632
 C2027 C 1.06496 0.90757 0.42861
 C2028 C 1.08028 0.89330 0.41385
 H2029 H 1.14872 0.86074 0.31688
 H2030 H 1.17168 0.83463 0.28973
 H2031 H 1.20943 0.79080 0.34151
 H2032 H 1.18655 0.81734 0.36868
 H2033 H 1.14009 0.82507 0.38191
 H2034 H 1.11476 0.85100 0.40808
 H2035 H 1.13332 0.91870 0.37038
 H2036 H 1.15934 0.89285 0.34456
 H2037 H 1.13448 0.93339 0.40851
 H2038 H 1.10761 0.95842 0.43442
 H2039 H 1.04566 0.90003 0.43417
 H2040 H 1.07230 0.87524 0.40812
 C2041 C 0.66145 0.33673 -0.15350
 C2042 C 0.66639 0.34767 -0.17414
 C2043 C 0.68028 0.33392 -0.19020
 C2044 C 0.68991 0.30922 -0.18570
 C2045 C 0.68511 0.29841 -0.16496
 C2046 C 0.67079 0.31196 -0.14907
 C2047 C 0.64653 0.35110 -0.13659
 C2048 C 0.62425 0.33998 -0.12584
 C2049 C 0.60979 0.35377 -0.11015
 C2050 C 0.61775 0.37869 -0.10470
 C2051 C 0.64033 0.38963 -0.11518
 C2052 C 0.65447 0.37602 -0.13116
 C2053 C 0.60196 0.39371 -0.08875
 C2054 C 0.61506 0.40652 -0.07160
 C2055 C 0.60028 0.42216 -0.05745
 C2056 C 0.57229 0.42559 -0.06054
 C2057 C 0.55910 0.41231 -0.07739
 C2058 C 0.57379 0.39631 -0.09127
 H2059 H 0.65920 0.36673 -0.17789
 H2060 H 0.68378 0.34271 -0.20603
 H2061 H 0.69216 0.27934 -0.16109
 H2062 H 0.66728 0.30324 -0.13322
 H2063 H 0.61776 0.32080 -0.12988
 H2064 H 0.59244 0.34501 -0.10222
 H2065 H 0.64664 0.40892 -0.11134
 H2066 H 0.67171 0.38486 -0.13919
 H2067 H 0.63676 0.40463 -0.06933
 H2068 H 0.61089 0.43226 -0.04460
 H2069 H 0.53751 0.41462 -0.08005
 H2070 H 0.56333 0.38668 -0.10447
 C2071 C 0.83849 1.16206 0.34601
 C2072 C 0.84257 1.15811 0.32354
 C2073 C 0.82905 1.17310 0.30815
 C2074 C 0.81105 1.19240 0.31486
 C2075 C 0.80713 1.19652 0.33739
 C2076 C 0.82078 1.18152 0.35281
 C2077 C 0.85280 1.14587 0.36220
 C2078 C 0.86476 1.15675 0.38082
 C2079 C 0.87916 1.14155 0.39559
 C2080 C 0.88177 1.11515 0.39207
 C2081 C 0.86944 1.10421 0.37364
 C2082 C 0.85513 1.11942 0.35884
 C2083 C 0.89758 1.09912 0.40746
 C2084 C 0.88793 1.07500 0.41398
 C2085 C 0.90270 1.06010 0.42875
 C2086 C 0.92741 1.06902 0.43720
 C2087 C 0.93727 1.09294 0.43044
 C2088 C 0.92247 1.10786 0.41573
 H2089 H 0.85644 1.14353 0.31785
 H2090 H 0.83264 1.16941 0.29096
 H2091 H 0.79340 1.21119 0.34311
 H2092 H 0.81714 1.18484 0.37006
 H2093 H 0.86344 1.17711 0.38372
 H2094 H 0.88820 1.15042 0.40981
 H2095 H 0.87128 1.08395 0.37045
 H2096 H 0.84584 1.11049 0.34475
 H2097 H 0.86869 1.06789 0.40798
 H2098 H 0.89462 1.04174 0.43374
 H2099 H 0.95631 1.10025 0.43666
 H2100 H 0.93060 1.12619 0.41072
 C2101 C 0.33969 0.66752 -0.15088
 C2102 C 0.31527 0.67989 -0.14552
 C2103 C 0.30112 0.69385 -0.16136
 C2104 C 0.31100 0.69557 -0.18292
 C2105 C 0.33553 0.68342 -0.18821
 C2106 C 0.34978 0.66970 -0.17235
 C2107 C 0.35445 0.65200 -0.13436
 C2108 C 0.36728 0.62918 -0.14060
 C2109 C 0.38190 0.61486 -0.12541
 C2110 C 0.38385 0.62284 -0.10356
 C2111 C 0.37053 0.64527 -0.09707
 C2112 C 0.35606 0.65980 -0.11237
 C2113 C 0.40009 0.60772 -0.08784
 C2114 C 0.38960 0.60097 -0.06722
 C2115 C 0.40420 0.58464 -0.05338
 C2116 C 0.42955 0.57505 -0.05993
 C2117 C 0.44049 0.58280 -0.08012
 C2118 C 0.42588 0.59889 -0.09395
 H2119 H 0.30677 0.67833 -0.12922
 H2120 H 0.28217 0.70289 -0.15681
 H2121 H 0.34384 0.68462 -0.20460
 H2122 H 0.36883 0.66089 -0.17692
 H2123 H 0.36586 0.62225 -0.15724
 H2124 H 0.39155 0.59735 -0.13071
 H2125 H 0.37187 0.65184 -0.08032
 H2126 H 0.34663 0.67740 -0.10708
 H2127 H 0.36971 0.60753 -0.06219
 H2128 H 0.39535 0.57899 -0.03786
 H2129 H 0.46008 0.57588 -0.08554
 H2130 H 0.43458 0.60416 -0.10962
 C2131 C 0.83843 0.83384 0.65381
 C2132 C 0.81838 0.81644 0.64713
 C2133 C 0.80421 0.80188 0.66261
 C2134 C 0.80978 0.80455 0.68505
 C2135 C 0.82984 0.82202 0.69164
 C2136 C 0.84397 0.83647 0.67621
 C2137 C 0.85361 0.84934 0.63762
 C2138 C 0.88167 0.85309 0.64004
 C2139 C 0.89595 0.86837 0.62527
 C2140 C 0.88249 0.88023 0.60774
 C2141 C 0.85444 0.87638 0.60520
 C2142 C 0.84013 0.86102 0.61998
 C2143 C 0.89779 0.89638 0.59208
 C2144 C 0.88694 0.91961 0.58452
 C2145 C 0.90145 0.93471 0.56967
 C2146 C 0.92700 0.92679 0.56210
 C2147 C 0.93791 0.90370 0.56978
 C2148 C 0.92346 0.88864 0.58461
 H2149 H 0.81389 0.81390 0.62993
 H2150 H 0.78888 0.78861 0.65699
 H2151 H 0.83463 0.82467 0.70878
 H2152 H 0.85902 0.85001 0.68185
 H2153 H 0.89262 0.84410 0.65336
 H2154 H 0.91751 0.87118 0.62774
 H2155 H 0.84362 0.88506 0.59168
 H2156 H 0.81847 0.85863 0.61785
 H2157 H 0.86735 0.92618 0.59024
 H2158 H 0.89260 0.95246 0.56401
 H2159 H 0.95754 0.89710 0.56415
 H2160 H 0.93217 0.87070 0.58996
 C2161 C 0.33719 0.33121 0.14875
 C2162 C 0.33371 0.34220 0.16949
 C2163 C 0.32062 0.32866 0.18617
 C2164 C 0.31035 0.30408 0.18224
 C2165 C 0.31381 0.29313 0.16144
 C2166 C 0.32734 0.30650 0.14490
 C2167 C 0.35110 0.34556 0.13118
 C2168 C 0.37260 0.33441 0.11953
 C2169 C 0.38662 0.34848 0.10367
 C2170 C 0.37897 0.37372 0.09893
 C2171 C 0.35697 0.38460 0.11015
 C2172 C 0.34328 0.37070 0.12628
 C2173 C 0.39490 0.38933 0.08338
 C2174 C 0.38189 0.40381 0.06711
 C2175 C 0.39684 0.42039 0.05378
 C2176 C 0.42493 0.42309 0.05685
 C2177 C 0.43802 0.40806 0.07270
 C2178 C 0.42316 0.39116 0.08574
 H2179 H 0.34137 0.36119 0.17283
 H2180 H 0.31814 0.33758 0.20202
 H2181 H 0.30620 0.27415 0.15800
 H2182 H 0.32976 0.29772 0.12898
 H2183 H 0.37900 0.31506 0.12314
 H2184 H 0.40353 0.33975 0.09518
 H2185 H 0.35092 0.40413 0.10691
 H2186 H 0.32663 0.37957 0.13498
 H2187 H 0.36010 0.40258 0.06499
 H2188 H 0.38630 0.43183 0.04169
 H2189 H 0.45969 0.40976 0.07531
 H2190 H 0.43357 0.38030 0.09829
   
