data_POSCAR
  _audit_creation_date              2014-09-24
  _audit_creation_method            'ToBaCCo'
  _symmetry_space_group_name_H-M    'P1'
  _symmetry_Int_Tables_number       1
  _symmetry_cell_setting            triclinic
  loop_
  _symmetry_equiv_pos_as_xyz
 x,y,z
_cell_length_a 55.8782
_cell_length_b 56.3674
_cell_length_c 57.0489
_cell_angle_alpha 90.633100
_cell_angle_beta 88.924800
_cell_angle_gamma 88.011100
loop_
  _atom_site_label
  _atom_site_type_symbol
  _atom_site_fract_x
  _atom_site_fract_y
  _atom_site_fract_z
C1 C 0.19743 0.17523 0.22800
 C2 C 0.17715 0.17871 0.24258
 C3 C 0.16195 0.19892 0.24028
 C4 C 0.16747 0.21593 0.22334
 C5 C 0.18771 0.21266 0.20853
 C6 C 0.20273 0.19220 0.21087
 C7 C 0.21261 0.15512 0.23048
 C8 C 0.23296 0.15148 0.21581
 C9 C 0.23806 0.16848 0.19872
 C10 C 0.22316 0.18879 0.19621
 C11 C 0.22847 0.20577 0.17931
 C12 C 0.21376 0.22634 0.17695
 C13 C 0.19326 0.22952 0.19151
 H14 H 0.17349 0.16584 0.25604
 H15 H 0.15588 0.23161 0.22156
 H16 H 0.20874 0.14265 0.24422
 H17 H 0.25371 0.16592 0.18732
 H18 H 0.24392 0.20271 0.16778
 H19 H 0.18179 0.24529 0.18978
 C20 C 0.71246 0.68998 0.72215
 C21 C 0.69265 0.69493 0.73713
 C22 C 0.67643 0.71384 0.73247
 C23 C 0.67989 0.72753 0.71232
 C24 C 0.69943 0.72265 0.69707
 C25 C 0.71583 0.70388 0.70201
 C26 C 0.72907 0.67152 0.72707
 C27 C 0.74913 0.66688 0.71223
 C28 C 0.75204 0.68058 0.69196
 C29 C 0.73561 0.69904 0.68682
 C30 C 0.73878 0.71283 0.66675
 C31 C 0.72237 0.73146 0.66159
 C32 C 0.70281 0.73629 0.67697
 H33 H 0.69006 0.68432 0.75266
 H34 H 0.66716 0.74176 0.70826
 H35 H 0.72658 0.66100 0.74266
 H36 H 0.76689 0.67672 0.67989
 H37 H 0.75437 0.70933 0.65551
 H38 H 0.69009 0.75064 0.67320
 C39 C 0.29529 0.80794 0.73703
 C40 C 0.31615 0.80209 0.74944
 C41 C 0.33031 0.78170 0.74344
 C42 C 0.32315 0.76695 0.72498
 C43 C 0.30243 0.77256 0.71246
 C44 C 0.28840 0.79305 0.71853
 C45 C 0.28133 0.82848 0.74282
 C46 C 0.26033 0.83453 0.73033
 C47 C 0.25365 0.81905 0.71208
 C48 C 0.26747 0.79861 0.70609
 C49 C 0.26074 0.78378 0.68759
 C50 C 0.27475 0.76340 0.68135
 C51 C 0.29558 0.75796 0.69389
 H52 H 0.32151 0.81357 0.76363
 H53 H 0.33338 0.75081 0.72055
 H54 H 0.28701 0.83921 0.75732
 H55 H 0.23773 0.82294 0.70205
 H56 H 0.24493 0.78847 0.67771
 H57 H 0.30645 0.74224 0.68924
 C58 C 0.81242 0.31431 0.20840
 C59 C 0.83011 0.30755 0.22433
 C60 C 0.84569 0.28763 0.21993
 C61 C 0.84279 0.27451 0.19895
 C62 C 0.82498 0.28100 0.18300
 C63 C 0.80969 0.30092 0.18772
 C64 C 0.79730 0.33424 0.21298
 C65 C 0.77936 0.34099 0.19719
 C66 C 0.77634 0.32719 0.17683
 C67 C 0.79144 0.30725 0.17194
 C68 C 0.78856 0.29347 0.15160
 C69 C 0.80389 0.27366 0.14668
 C70 C 0.82201 0.26754 0.16251
 H71 H 0.83181 0.31817 0.24013
 H72 H 0.85360 0.25868 0.19501
 H73 H 0.79926 0.34423 0.22913
 H74 H 0.76240 0.33214 0.16467
 H75 H 0.77450 0.29823 0.13950
 H76 H 0.83347 0.25191 0.15922
 C77 C 0.79571 0.69163 0.27200
 C78 C 0.81611 0.69263 0.25724
 C79 C 0.83319 0.71034 0.26044
 C80 C 0.82916 0.72687 0.27903
 C81 C 0.80875 0.72625 0.29360
 C82 C 0.79199 0.70855 0.29019
 C83 C 0.77905 0.67379 0.26895
 C84 C 0.75892 0.67247 0.28401
 C85 C 0.75521 0.68969 0.30190
 C86 C 0.77157 0.70773 0.30507
 C87 C 0.76785 0.72499 0.32288
 C88 C 0.78430 0.74306 0.32605
 C89 C 0.80491 0.74323 0.31153
 H90 H 0.81857 0.67910 0.24380
 H91 H 0.84169 0.74078 0.28209
 H92 H 0.78199 0.66062 0.25511
 H93 H 0.73944 0.68926 0.31320
 H94 H 0.75202 0.72449 0.33411
 H95 H 0.81826 0.75640 0.31428
 C96 C 0.28310 0.19927 -0.21833
 C97 C 0.30121 0.20102 -0.23546
 C98 C 0.31812 0.21905 -0.23434
 C99 C 0.31601 0.23566 -0.21557
 C100 C 0.29815 0.23383 -0.19802
 C101 C 0.28157 0.21561 -0.19950
 C102 C 0.26639 0.18138 -0.21993
 C103 C 0.24804 0.17942 -0.20294
 C104 C 0.24679 0.19564 -0.18396
 C105 C 0.26338 0.21373 -0.18220
 C106 C 0.26211 0.22990 -0.16333
 C107 C 0.27881 0.24790 -0.16137
 C108 C 0.29667 0.24987 -0.17896
 H109 H 0.30120 0.18866 -0.25007
 H110 H 0.32865 0.24974 -0.21416
 H111 H 0.26757 0.16904 -0.23465
 H112 H 0.23323 0.19406 -0.17032
 H113 H 0.24828 0.22825 -0.14992
 H114 H 0.30926 0.26401 -0.17798
 C115 C 0.69771 0.30762 -0.24865
 C116 C 0.67954 0.30455 -0.26490
 C117 C 0.66290 0.28638 -0.26228
 C118 C 0.66503 0.27139 -0.24264
 C119 C 0.68337 0.27409 -0.22641
 C120 C 0.69976 0.29230 -0.22943
 C121 C 0.71373 0.32605 -0.25130
 C122 C 0.73172 0.32963 -0.23482
 C123 C 0.73404 0.31384 -0.21601
 C124 C 0.71818 0.29526 -0.21320
 C125 C 0.72032 0.27974 -0.19427
 C126 C 0.70409 0.26149 -0.19105
 C127 C 0.68561 0.25880 -0.20722
 H128 H 0.67812 0.31721 -0.27891
 H129 H 0.65263 0.25725 -0.24002
 H130 H 0.71224 0.33743 -0.26640
 H131 H 0.74793 0.31628 -0.20328
 H132 H 0.73450 0.28205 -0.18181
 H133 H 0.67326 0.24454 -0.20518
 C134 C 0.22868 0.79974 0.27646
 C135 C 0.20984 0.79542 0.26113
 C136 C 0.19427 0.77677 0.26532
 C137 C 0.19746 0.76265 0.28526
 C138 C 0.21601 0.76683 0.30078
 C139 C 0.23168 0.78543 0.29639
 C140 C 0.24447 0.81819 0.27225
 C141 C 0.26300 0.82307 0.28800
 C142 C 0.26573 0.80832 0.30775
 C143 C 0.25033 0.78969 0.31197
 C144 C 0.25338 0.77523 0.33165
 C145 C 0.23789 0.75659 0.33609
 C146 C 0.21909 0.75268 0.32066
 H147 H 0.20741 0.80640 0.24582
 H148 H 0.18522 0.74861 0.28897
 H149 H 0.24187 0.82908 0.25691
 H150 H 0.28033 0.81043 0.31965
 H151 H 0.26754 0.77884 0.34376
 H152 H 0.20705 0.73837 0.32395
 C153 C 0.44220 0.45556 0.46630
 C154 C 0.44763 0.43685 0.48148
 C155 C 0.46808 0.42194 0.47760
 C156 C 0.48315 0.42596 0.45804
 C157 C 0.47794 0.44465 0.44262
 C158 C 0.45737 0.45947 0.44680
 C159 C 0.42174 0.47034 0.47025
 C160 C 0.41608 0.48889 0.45482
 C161 C 0.43149 0.49286 0.43561
 C162 C 0.45194 0.47823 0.43146
 C163 C 0.46699 0.48213 0.41212
 C164 C 0.48726 0.46722 0.40742
 C165 C 0.49279 0.44867 0.42296
 H166 H 0.43593 0.43398 0.49648
 H167 H 0.49863 0.41431 0.45445
 H168 H 0.41001 0.46722 0.48518
 H169 H 0.42776 0.50753 0.42397
 H170 H 0.46293 0.49702 0.40086
 H171 H 0.50846 0.43717 0.41957
 C172 C -0.05214 -0.04675 0.98893
 C173 C -0.04598 -0.06456 1.00505
 C174 C -0.02526 -0.07916 1.00145
 C175 C -0.01109 -0.07628 0.98112
 C176 C -0.01706 -0.05876 0.96484
 C177 C -0.03751 -0.04377 0.96885
 C178 C -0.07255 -0.03177 0.99271
 C179 C -0.07860 -0.01352 0.97672
 C180 C -0.06341 -0.01080 0.95689
 C181 C -0.04321 -0.02576 0.95280
 C182 C -0.02865 -0.02297 0.93277
 C183 C -0.00858 -0.03817 0.92838
 C184 C -0.00281 -0.05594 0.94463
 H185 H -0.05705 -0.06681 1.02063
 H186 H 0.00448 -0.08791 0.97777
 H187 H -0.08306 -0.03428 1.00849
 H188 H -0.06736 0.00286 0.94416
 H189 H -0.03316 -0.00916 0.92035
 H190 H 0.01304 -0.06732 0.94183
 C191 C 1.05100 0.55232 0.98579
 C192 C 1.04860 0.57289 0.99996
 C193 C 1.03086 0.59080 0.99559
 C194 C 1.01530 0.58719 0.97668
 C195 C 1.01754 0.56684 0.96241
 C196 C 1.03537 0.54935 0.96699
 C197 C 1.06872 0.53463 0.99018
 C198 C 1.07084 0.51366 0.97628
 C199 C 1.05509 0.51133 0.95734
 C200 C 1.03750 0.52882 0.95275
 C201 C 1.02201 0.52601 0.93394
 C202 C 1.00422 0.54340 0.92914
 C203 C 1.00198 0.56372 0.94365
 H204 H 1.06083 0.57493 1.01432
 H205 H 1.00078 0.59961 0.97302
 H206 H 1.08056 0.53710 1.00478
 H207 H 1.05669 0.49641 0.94533
 H208 H 1.02392 0.51025 0.92290
 H209 H 0.98794 0.57699 0.94064
 C210 C 0.54833 0.04495 0.47422
 C211 C 0.54531 0.06457 0.48947
 C212 C 0.52643 0.08143 0.48651
 C213 C 0.51035 0.07827 0.46814
 C214 C 0.51318 0.05880 0.45267
 C215 C 0.53219 0.04204 0.45583
 C216 C 0.56726 0.02822 0.47711
 C217 C 0.57029 0.00821 0.46203
 C218 C 0.55399 0.00580 0.44356
 C219 C 0.53518 0.02247 0.44043
 C220 C 0.51947 0.01989 0.42181
 C221 C 0.50060 0.03652 0.41828
 C222 C 0.49751 0.05596 0.43391
 H223 H 0.55748 0.06646 0.50388
 H224 H 0.49582 0.09120 0.46568
 H225 H 0.57943 0.03074 0.49143
 H226 H 0.55611 -0.00842 0.43079
 H227 H 0.52194 0.00475 0.41002
 H228 H 0.48340 0.06924 0.43121
 C229 C -0.06209 0.04880 0.52600
 C230 C -0.05641 0.06812 0.51192
 C231 C -0.03747 0.08281 0.51764
 C232 C -0.02393 0.07758 0.53763
 C233 C -0.02952 0.05838 0.55196
 C234 C -0.04866 0.04392 0.54615
 C235 C -0.08104 0.03433 0.52020
 C236 C -0.08702 0.01507 0.53441
 C237 C -0.07333 0.01017 0.55437
 C238 C -0.05427 0.02451 0.56039
 C239 C -0.04075 0.01976 0.58042
 C240 C -0.02177 0.03431 0.58656
 C241 C -0.01622 0.05345 0.57203
 H242 H -0.06700 0.07187 0.49658
 H243 H -0.00879 0.08812 0.54199
 H244 H -0.09084 0.03793 0.50436
 H245 H -0.07773 -0.00465 0.56542
 H246 H -0.04488 0.00450 0.59092
 H247 H -0.00167 0.06479 0.57649
 C248 C 0.43043 0.54489 0.02669
 C249 C 0.43294 0.56293 0.01016
 C250 C 0.45337 0.57700 0.00971
 C251 C 0.47137 0.57221 0.02624
 C252 C 0.46891 0.55436 0.04298
 C253 C 0.44839 0.54059 0.04322
 C254 C 0.41020 0.53096 0.02670
 C255 C 0.40736 0.51289 0.04321
 C256 C 0.42541 0.50860 0.05969
 C257 C 0.44589 0.52245 0.05989
 C258 C 0.46393 0.51849 0.07641
 C259 C 0.48451 0.53225 0.07631
 C260 C 0.48670 0.55024 0.05956
 H261 H 0.41912 0.56513 -0.00270
 H262 H 0.48730 0.58265 0.02649
 H263 H 0.39684 0.53395 0.01343
 H264 H 0.42342 0.49463 0.07241
 H265 H 0.46205 0.50461 0.08925
 H266 H 0.50201 0.56149 0.05966
 C267 C 0.57159 -0.04402 0.00038
 C268 C 0.56909 -0.06320 -0.01518
 C269 C 0.55282 -0.08106 -0.01015
 C270 C 0.53940 -0.07963 0.01095
 C271 C 0.54193 -0.06073 0.02674
 C272 C 0.55800 -0.04276 0.02146
 C273 C 0.58757 -0.02613 -0.00480
 C274 C 0.59005 -0.00678 0.01065
 C275 C 0.57659 -0.00577 0.03178
 C276 C 0.56051 -0.02360 0.03726
 C277 C 0.54688 -0.02264 0.05826
 C278 C 0.53100 -0.04071 0.06372
 C279 C 0.52852 -0.05956 0.04770
 H280 H 0.58011 -0.06428 -0.03100
 H281 H 0.52678 -0.09323 0.01508
 H282 H 0.59837 -0.02755 -0.02076
 H283 H 0.57850 0.00900 0.04385
 H284 H 0.54880 -0.00796 0.07044
 H285 H 0.51578 -0.07318 0.05128
 C286 C 1.06256 0.44724 0.52624
 C287 C 1.05833 0.43019 0.50888
 C288 C 1.03936 0.41436 0.51125
 C289 C 1.02494 0.41605 0.53188
 C290 C 1.02897 0.43313 0.54932
 C291 C 1.04781 0.44885 0.54648
 C292 C 1.08152 0.46265 0.52361
 C293 C 1.08613 0.47967 0.54100
 C294 C 1.07098 0.48158 0.56095
 C295 C 1.05191 0.46620 0.56386
 C296 C 1.03697 0.46774 0.58392
 C297 C 1.01825 0.45194 0.58700
 C298 C 1.01433 0.43477 0.56954
 H299 H 1.07056 0.42919 0.49402
 H300 H 1.01024 0.40423 0.53444
 H301 H 1.09249 0.46156 0.50775
 H302 H 1.07428 0.49477 0.57437
 H303 H 1.04009 0.48102 0.59730
 H304 H 0.99956 0.42293 0.57141
 C305 C 0.42906 0.00585 0.20757
 H306 H 0.42842 0.02049 0.22001
 C307 C 0.44580 0.00539 0.18912
 H308 H 0.45821 0.01965 0.18772
 C309 C 0.41392 -0.03080 0.19492
 H310 H 0.40149 -0.04488 0.19732
 C311 C 0.43051 -0.03205 0.17626
 H312 H 0.43056 -0.04710 0.16428
 N313 N 0.41325 -0.01183 0.20986
 C314 C 0.35070 0.02101 0.24517
 H315 H 0.34859 0.00932 0.25992
 C316 C 0.33442 0.04003 0.24209
 H317 H 0.31983 0.04300 0.25466
 C318 C 0.37223 0.03121 0.21076
 H319 H 0.38665 0.02746 0.19828
 C320 C 0.35651 0.05051 0.20712
 H321 H 0.35906 0.06133 0.19177
 Zn322 Zn 0.39078 -0.00883 0.23500
 N323 N 0.36934 0.01718 0.22978
 C324 C 0.40406 0.01608 0.27623
 N325 N 0.40832 -0.00359 0.26254
 C326 C 0.42626 -0.01957 0.26740
 C327 C 0.44068 -0.01620 0.28677
 C328 C 0.41806 0.02016 0.29581
 C329 C 0.35629 -0.04094 0.22094
 C330 C 0.34083 -0.05980 0.22328
 C331 C 0.35896 -0.06906 0.26030
 C332 C 0.37386 -0.04992 0.25734
 N333 N 0.37234 -0.03632 0.23787
 H334 H 0.39005 0.02885 0.27184
 H335 H 0.42939 -0.03494 0.25609
 H336 H 0.45452 -0.02945 0.29045
 H337 H 0.41454 0.03602 0.30637
 H338 H 0.35509 -0.02953 0.20584
 H339 H 0.32784 -0.06237 0.20979
 H340 H 0.36059 -0.07948 0.27605
 H341 H 0.38631 -0.04572 0.27089
 C342 C 0.33746 0.05527 0.22305
 C343 C 0.44646 -0.01359 0.17294
 C344 C 0.34195 -0.07424 0.24326
 C345 C 0.43685 0.00405 0.30115
 C346 C 0.08167 0.00038 0.72189
 H347 H 0.07917 -0.01511 0.73257
 C348 C 0.06738 0.00429 0.70238
 H349 H 0.05395 -0.00837 0.69809
 C350 C 0.10235 0.03560 0.71455
 H351 H 0.11574 0.04796 0.71952
 C352 C 0.08852 0.04016 0.69485
 H353 H 0.09141 0.05618 0.68508
 N354 N 0.09903 0.01572 0.72733
 C355 C 0.15341 -0.02637 0.76387
 H356 H 0.15479 -0.01620 0.77995
 C357 C 0.16789 -0.04682 0.76013
 H358 H 0.18024 -0.05237 0.77357
 C359 C 0.13574 -0.03124 0.72680
 H360 H 0.12359 -0.02485 0.71360
 C361 C 0.14994 -0.05169 0.72228
 H362 H 0.14851 -0.06052 0.70547
 Zn363 Zn 0.11833 0.00869 0.75351
 N364 N 0.13740 -0.01926 0.74749
 C365 C 0.09886 -0.01563 0.79244
 N366 N 0.09769 0.00464 0.77976
 C367 C 0.08131 0.02235 0.78516
 C368 C 0.06574 0.02038 0.80444
 C369 C 0.08377 -0.01828 0.81193
 C370 C 0.15705 0.03688 0.74293
 C371 C 0.17376 0.05436 0.74631
 C372 C 0.15422 0.06456 0.78337
 C373 C 0.13791 0.04680 0.77931
 N374 N 0.13950 0.03351 0.75926
 H375 H 0.11150 -0.02981 0.78755
 H376 H 0.08038 0.03805 0.77444
 H377 H 0.05269 0.03463 0.80799
 H378 H 0.08535 -0.03445 0.82194
 H379 H 0.15800 0.02593 0.72722
 H380 H 0.18721 0.05699 0.73279
 H381 H 0.15273 0.07492 0.79946
 H382 H 0.12413 0.04358 0.79230
 C383 C 0.16607 -0.05999 0.73923
 C384 C 0.07100 0.02418 0.68831
 C385 C 0.17259 0.06839 0.76685
 C386 C 0.06707 -0.00004 0.81840
 C387 C 0.58489 0.49190 0.21797
 H388 H 0.58505 0.47773 0.23061
 C389 C 0.56661 0.49363 0.20167
 H390 H 0.55289 0.48053 0.20175
 C391 C 0.60311 0.52572 0.20222
 H392 H 0.61732 0.53822 0.20254
 C393 C 0.58533 0.52792 0.18538
 H394 H 0.58602 0.54219 0.17286
 N395 N 0.60271 0.50775 0.21791
 C396 C 0.66747 0.47277 0.24368
 H397 H 0.67127 0.48377 0.25872
 C398 C 0.68295 0.45367 0.23740
 H399 H 0.69859 0.45000 0.24786
 C400 C 0.64245 0.46435 0.21180
 H401 H 0.62683 0.46876 0.20164
 C402 C 0.65744 0.44512 0.20487
 H403 H 0.65316 0.43521 0.18925
 Zn404 Zn 0.62695 0.50346 0.24043
 N405 N 0.64748 0.47750 0.23110
 C406 C 0.61781 0.47755 0.28213
 N407 N 0.61157 0.49706 0.26948
 C408 C 0.59285 0.51173 0.27630
 C409 C 0.57940 0.50690 0.29644
 C410 C 0.60504 0.47222 0.30259
 C411 C 0.66122 0.53537 0.22506
 C412 C 0.67642 0.55450 0.22654
 C413 C 0.65941 0.56395 0.26486
 C414 C 0.64466 0.54455 0.26270
 N415 N 0.64571 0.53079 0.24295
 H416 H 0.63236 0.46576 0.27618
 H417 H 0.58804 0.52693 0.26574
 H418 H 0.56433 0.51860 0.30141
 H419 H 0.60993 0.45632 0.31210
 H420 H 0.66210 0.52384 0.20976
 H421 H 0.68901 0.55711 0.21228
 H422 H 0.65818 0.57465 0.28075
 H423 H 0.63254 0.54041 0.27692
 C424 C 0.67787 0.43934 0.21792
 C425 C 0.56673 0.51179 0.18502
 C426 C 0.67562 0.56925 0.24665
 C427 C 0.58541 0.48690 0.30985
 C428 C 0.91756 0.50435 0.73016
 H429 H 0.91744 0.51907 0.74250
 C430 C 0.93421 0.50324 0.71160
 H431 H 0.94704 0.51710 0.71013
 C432 C 0.90148 0.46796 0.71808
 H433 H 0.88889 0.45410 0.72081
 C434 C 0.91778 0.46616 0.69924
 H435 H 0.91729 0.45096 0.68750
 N436 N 0.90142 0.48704 0.73287
 C437 C 0.83939 0.51946 0.76982
 H438 H 0.83793 0.50782 0.78469
 C439 C 0.82246 0.53798 0.76693
 H440 H 0.80828 0.54068 0.77996
 C441 C 0.85998 0.53008 0.73501
 H442 H 0.87437 0.52676 0.72239
 C443 C 0.84355 0.54885 0.73151
 H444 H 0.84563 0.55986 0.71621
 Zn445 Zn 0.87953 0.49003 0.75854
 N446 N 0.85775 0.51596 0.75404
 C447 C 0.89371 0.51446 0.79955
 N448 N 0.89759 0.49483 0.78575
 C449 C 0.91534 0.47856 0.79037
 C450 C 0.92969 0.48136 0.80989
 C451 C 0.90770 0.51803 0.81922
 C452 C 0.84539 0.45814 0.74429
 C453 C 0.83073 0.43864 0.74578
 C454 C 0.84912 0.42836 0.78246
 C455 C 0.86331 0.44817 0.78035
 N456 N 0.86137 0.46245 0.76136
 H457 H 0.87992 0.52750 0.79527
 H458 H 0.91841 0.46341 0.77874
 H459 H 0.94395 0.46835 0.81294
 H460 H 0.90430 0.53371 0.83007
 H461 H 0.84392 0.47001 0.72958
 H462 H 0.81810 0.43551 0.73200
 H463 H 0.85065 0.41753 0.79794
 H464 H 0.87559 0.45225 0.79409
 C465 C 0.82440 0.55294 0.74749
 C466 C 0.93429 0.48407 0.69560
 C467 C 0.83257 0.42337 0.76498
 C468 C 0.92584 0.50125 0.82473
 C469 C 0.21312 0.41458 0.03212
 H470 H 0.22403 0.41386 0.04758
 C471 C 0.19524 0.43239 0.03014
 H472 H 0.19232 0.44500 0.04442
 C473 C 0.20353 0.39849 -0.00492
 H474 H 0.20695 0.38545 -0.01869
 C475 C 0.18548 0.41592 -0.00762
 H476 H 0.17517 0.41594 -0.02350
 N477 N 0.21674 0.39795 0.01484
 C478 C 0.24822 0.33471 0.04714
 H479 H 0.26418 0.33175 0.03632
 C480 C 0.24282 0.31878 0.06489
 H481 H 0.25478 0.30358 0.06763
 C482 C 0.21301 0.35785 0.05624
 H483 H 0.20128 0.37295 0.05269
 C484 C 0.20688 0.34234 0.07412
 H485 H 0.19076 0.34619 0.08446
 Zn486 Zn 0.24137 0.37432 0.01835
 N487 N 0.23348 0.35390 0.04329
 C488 C 0.28381 0.38464 0.04318
 N489 N 0.26996 0.39016 0.02450
 C490 C 0.27525 0.40844 0.01019
 C491 C 0.29509 0.42209 0.01445
 C492 C 0.30408 0.39763 0.04788
 C493 C 0.22695 0.34039 -0.01394
 C494 C 0.22803 0.32601 -0.03403
 C495 C 0.26596 0.34271 -0.04437
 C496 C 0.26421 0.35671 -0.02395
 N497 N 0.24474 0.35553 -0.00939
 H498 H 0.27902 0.37043 0.05470
 H499 H 0.26375 0.41265 -0.00435
 H500 H 0.29890 0.43671 0.00296
 H501 H 0.31467 0.39325 0.06303
 H502 H 0.21187 0.33950 -0.00184
 H503 H 0.21380 0.31383 -0.03679
 H504 H 0.28147 0.34414 -0.05586
 H505 H 0.27836 0.36857 -0.01986
 C506 C 0.22182 0.32238 0.07857
 C507 C 0.18109 0.43321 0.01002
 C508 C 0.24759 0.32726 -0.04983
 C509 C 0.30981 0.41673 0.03348
 C510 C 0.72030 0.10092 -0.02485
 H511 H 0.73049 0.09853 -0.04107
 C512 C 0.70171 0.08582 -0.01957
 H513 H 0.69768 0.07184 -0.03191
 C514 C 0.71383 0.12157 0.01122
 H515 H 0.71883 0.13527 0.02337
 C516 C 0.69516 0.10682 0.01725
 H517 H 0.68564 0.10990 0.03375
 N518 N 0.72593 0.11842 -0.00955
 C519 C 0.76471 0.17015 -0.05038
 H520 H 0.78015 0.17166 -0.03937
 C521 C 0.76244 0.18429 -0.07019
 H522 H 0.77615 0.19686 -0.07387
 C523 C 0.72760 0.15270 -0.05775
 H524 H 0.71389 0.14064 -0.05264
 C525 C 0.72464 0.16647 -0.07782
 H526 H 0.70871 0.16458 -0.08811
 Zn527 Zn 0.75258 0.13696 -0.01699
 N528 N 0.74757 0.15459 -0.04467
 C529 C 0.79169 0.11446 -0.04188
 N530 N 0.77957 0.11585 -0.02099
 C531 C 0.78585 0.10155 -0.00290
 C532 C 0.80564 0.08576 -0.00512
 C533 C 0.81144 0.09881 -0.04492
 C534 C 0.74027 0.17642 0.01135
 C535 C 0.74278 0.19341 0.02906
 C536 C 0.78125 0.17512 0.03786
 C537 C 0.77801 0.15853 0.01995
 N538 N 0.75757 0.15921 0.00740
 H539 H 0.78592 0.12531 -0.05634
 H540 H 0.77557 0.10259 0.01336
 H541 H 0.81055 0.07488 0.00967
 H542 H 0.82031 0.09784 -0.06192
 H543 H 0.72444 0.17689 0.00070
 H544 H 0.72885 0.20704 0.03158
 H545 H 0.79753 0.17401 0.04785
 H546 H 0.79190 0.14518 0.01613
 C547 C 0.74230 0.18239 -0.08444
 C548 C 0.68904 0.08846 0.00186
 C549 C 0.76338 0.19271 0.04286
 C550 C 0.81898 0.08442 -0.02625
 C551 C 0.21175 0.59149 0.50408
 H552 H 0.22249 0.58865 0.48825
 C553 C 0.19274 0.57684 0.50891
 H554 H 0.18881 0.56284 0.49656
 C555 C 0.20431 0.61291 0.53960
 H556 H 0.20925 0.62661 0.55177
 C557 C 0.18497 0.59875 0.54506
 H558 H 0.17530 0.60172 0.56150
 N559 N 0.21714 0.60914 0.51931
 C560 C 0.25578 0.66138 0.47909
 H561 H 0.27190 0.66235 0.48922
 C562 C 0.25255 0.67604 0.45975
 H563 H 0.26635 0.68828 0.45517
 C564 C 0.21818 0.64438 0.47312
 H565 H 0.20477 0.63208 0.47842
 C566 C 0.21425 0.65863 0.45359
 H567 H 0.19802 0.65651 0.44389
 Zn568 Zn 0.24444 0.62661 0.51176
 N569 N 0.23879 0.64582 0.48527
 C570 C 0.28306 0.60478 0.48522
 N571 N 0.26992 0.60430 0.50550
 C572 C 0.27432 0.58747 0.52191
 C573 C 0.29312 0.57073 0.51865
 C574 C 0.30204 0.58839 0.48124
 C575 C 0.23706 0.66499 0.54333
 C576 C 0.24266 0.68039 0.56164
 C577 C 0.27991 0.65806 0.56632
 C578 C 0.27362 0.64316 0.54795
 N579 N 0.25241 0.64669 0.53701
 H580 H 0.27897 0.61795 0.47215
 H581 H 0.26325 0.58719 0.53766
 H582 H 0.29605 0.55743 0.53191
 H583 H 0.31253 0.58934 0.46514
 H584 H 0.22046 0.66762 0.53410
 H585 H 0.23022 0.69486 0.56643
 H586 H 0.29661 0.65436 0.57509
 H587 H 0.28580 0.62880 0.54248
 C588 C 0.23154 0.67486 0.44668
 C589 C 0.17903 0.58037 0.52961
 C590 C 0.26442 0.67711 0.57332
 C591 C 0.30755 0.57127 0.49822
 C592 C 0.71920 0.91675 0.51308
 H593 H 0.73032 0.91664 0.52840
 C594 C 0.70071 0.93389 0.51107
 H595 H 0.69759 0.94656 0.52525
 C596 C 0.70954 0.89954 0.47655
 H597 H 0.71311 0.88622 0.46306
 C598 C 0.69092 0.91637 0.47378
 H599 H 0.68033 0.91570 0.45810
 N600 N 0.72299 0.89980 0.49614
 C601 C 0.75544 0.83849 0.53048
 H602 H 0.77089 0.83505 0.51908
 C603 C 0.75118 0.82369 0.54944
 H604 H 0.76358 0.80894 0.55261
 C605 C 0.72053 0.86194 0.54003
 H606 H 0.70836 0.87656 0.53605
 C607 C 0.71560 0.84762 0.55920
 H608 H 0.69952 0.85143 0.56962
 Zn609 Zn 0.74778 0.87661 0.50043
 N610 N 0.74044 0.85743 0.52640
 C611 C 0.78898 0.88869 0.52566
 N612 N 0.77643 0.89271 0.50580
 C613 C 0.78315 0.90941 0.49020
 C614 C 0.80326 0.92281 0.49429
 C615 C 0.80931 0.90151 0.53032
 C616 C 0.73293 0.84096 0.47038
 C617 C 0.73455 0.82426 0.45212
 C618 C 0.77315 0.83924 0.44125
 C619 C 0.77088 0.85554 0.45988
 N620 N 0.75095 0.85612 0.47395
 H621 H 0.78302 0.87592 0.53824
 H622 H 0.77261 0.91256 0.47475
 H623 H 0.80825 0.93617 0.48178
 H624 H 0.81863 0.89837 0.54651
 H625 H 0.71735 0.84172 0.48195
 H626 H 0.71987 0.81255 0.44951
 H627 H 0.78922 0.83888 0.43032
 H628 H 0.78516 0.86749 0.46321
 C629 C 0.73123 0.82837 0.56431
 C630 C 0.68617 0.93382 0.49121
 C631 C 0.75499 0.82310 0.43737
 C632 C 0.81667 0.91888 0.51454
 C633 C 0.00124 0.21356 0.41088
 H634 H 0.01694 0.22396 0.41330
 C635 C -0.00236 0.19367 0.42469
 H636 H 0.01076 0.18873 0.43766
 C637 C -0.03519 0.20774 0.39134
 H638 H -0.04826 0.21362 0.37878
 C639 C -0.03938 0.18759 0.40462
 H640 H -0.05575 0.17825 0.40209
 N641 N -0.01501 0.22013 0.39452
 C642 C 0.02309 0.26210 0.34324
 H643 H 0.01194 0.27818 0.34383
 C644 C 0.04241 0.26002 0.32741
 H645 H 0.04573 0.27456 0.31571
 C646 C 0.03119 0.22321 0.35707
 H647 H 0.02652 0.20879 0.36840
 C648 C 0.05066 0.22035 0.34147
 H649 H 0.06101 0.20374 0.34121
 Zn650 Zn -0.00925 0.24812 0.37768
 N651 N 0.01800 0.24394 0.35778
 C652 C 0.01635 0.28414 0.40012
 N653 N -0.00456 0.27252 0.39989
 C654 C -0.02226 0.27748 0.41607
 C655 C -0.01952 0.29513 0.43308
 C656 C 0.01986 0.30188 0.41680
 C657 C -0.03993 0.24088 0.34048
 C658 C -0.05779 0.24650 0.32451
 C659 C -0.06528 0.28383 0.34500
 C660 C -0.04733 0.27743 0.36066
 N661 N -0.03519 0.25620 0.35822
 H662 H 0.03044 0.27957 0.38750
 H663 H -0.03862 0.26778 0.41560
 H664 H -0.03415 0.29916 0.44531
 H665 H 0.03668 0.31087 0.41667
 H666 H -0.02958 0.22436 0.33862
 H667 H -0.06125 0.23399 0.31055
 H668 H -0.07407 0.30115 0.34695
 H669 H -0.04271 0.28975 0.37433
 C670 C 0.05660 0.23894 0.32645
 C671 C -0.02281 0.18032 0.42155
 C672 C -0.07078 0.26823 0.32661
 C673 C 0.00184 0.30758 0.43364
 C674 C 0.00388 0.72266 0.10698
 H675 H -0.01301 0.73264 0.10688
 C676 C 0.00772 0.70323 0.09185
 H677 H -0.00644 0.69830 0.08024
 C678 C 0.04280 0.71720 0.12222
 H679 H 0.05659 0.72295 0.13377
 C680 C 0.04738 0.69755 0.10742
 H681 H 0.06480 0.68857 0.10774
 N682 N 0.02120 0.72910 0.12195
 C683 C -0.01700 0.76611 0.17963
 H684 H -0.00784 0.78271 0.17975
 C685 C -0.03587 0.76267 0.19548
 H686 H -0.04121 0.77704 0.20735
 C687 C -0.02153 0.72790 0.16300
 H688 H -0.01585 0.71433 0.15039
 C689 C -0.04044 0.72365 0.17860
 H690 H -0.04912 0.70679 0.17772
 Zn691 Zn 0.01421 0.75587 0.14161
 N692 N -0.01053 0.74905 0.16350
 C693 C -0.01787 0.79214 0.12530
 N694 N 0.00409 0.78128 0.12209
 C695 C 0.01898 0.78763 0.10429
 C696 C 0.01217 0.80588 0.08917
 C697 C -0.02540 0.81049 0.11060
 C698 C 0.04974 0.74820 0.17487
 C699 C 0.06985 0.75299 0.18804
 C700 C 0.07276 0.79039 0.16812
 C701 C 0.05253 0.78487 0.15534
 N702 N 0.04163 0.76394 0.15873
 H703 H -0.02972 0.78659 0.13918
 H704 H 0.03619 0.77845 0.10184
 H705 H 0.02433 0.81062 0.07511
 H706 H -0.04270 0.81915 0.11400
 H707 H 0.04056 0.73181 0.17743
 H708 H 0.07596 0.74014 0.20077
 H709 H 0.08140 0.80686 0.16455
 H710 H 0.04566 0.79734 0.14269
 C711 C -0.04799 0.74119 0.19508
 C712 C 0.02962 0.69022 0.09206
 C713 C 0.08169 0.77435 0.18482
 C714 C -0.01035 0.81755 0.09212
 C715 C 0.46576 0.22389 0.58492
 H716 H 0.45038 0.23607 0.58465
 C717 C 0.46738 0.20459 0.56928
 H718 H 0.45315 0.20237 0.55695
 C719 C 0.50354 0.21317 0.60049
 H720 H 0.51789 0.21680 0.61227
 C721 C 0.50587 0.19367 0.58524
 H722 H 0.52189 0.18234 0.58586
 N723 N 0.48360 0.22769 0.60027
 C724 C 0.45398 0.26985 0.65924
 H725 H 0.46716 0.28345 0.65974
 C726 C 0.43626 0.26920 0.67678
 H727 H 0.43644 0.28231 0.69072
 C728 C 0.43927 0.23553 0.64096
 H729 H 0.44077 0.22218 0.62724
 C730 C 0.42109 0.23433 0.65803
 H731 H 0.40863 0.22009 0.65695
 Zn732 Zn 0.48116 0.25495 0.62013
 N733 N 0.45516 0.25322 0.64178
 C734 C 0.45744 0.29669 0.60393
 N735 N 0.47698 0.28187 0.60081
 C736 C 0.49307 0.28516 0.58305
 C737 C 0.48970 0.30388 0.56744
 C738 C 0.45341 0.31564 0.58879
 C739 C 0.51293 0.23966 0.65421
 C740 C 0.53238 0.24046 0.66915
 C741 C 0.54324 0.27736 0.65135
 C742 C 0.52362 0.27577 0.63664
 N743 N 0.50899 0.25707 0.63830
 H744 H 0.44472 0.29371 0.61799
 H745 H 0.50833 0.27296 0.58081
 H746 H 0.50253 0.30598 0.55322
 H747 H 0.43790 0.32732 0.59198
 H748 H 0.50085 0.22511 0.65529
 H749 H 0.53530 0.22602 0.68118
 H750 H 0.55452 0.29253 0.64991
 H751 H 0.51990 0.28966 0.62419
 C752 C 0.41933 0.25130 0.67635
 C753 C 0.48763 0.18903 0.56937
 C754 C 0.54774 0.25968 0.66807
 C755 C 0.46943 0.31924 0.56996
 C756 C 0.51569 0.70955 0.91004
 H757 H 0.53089 0.72088 0.91082
 C758 C 0.51330 0.69139 0.92621
 H759 H 0.52668 0.68943 0.93954
 C760 C 0.47929 0.69980 0.89226
 H761 H 0.46595 0.70335 0.87918
 C762 C 0.47630 0.68123 0.90796
 H763 H 0.46066 0.67053 0.90658
 N764 N 0.49888 0.71335 0.89346
 C765 C 0.53398 0.74640 0.83406
 H766 H 0.52360 0.76286 0.83263
 C767 C 0.55272 0.74103 0.81810
 H768 H 0.55661 0.75351 0.80437
 C769 C 0.54132 0.71011 0.85366
 H770 H 0.53687 0.69806 0.86751
 C771 C 0.56020 0.70407 0.83815
 H772 H 0.57028 0.68763 0.84083
 Zn773 Zn 0.50375 0.73912 0.87325
 N774 N 0.52885 0.73111 0.85157
 C775 C 0.53134 0.77819 0.88786
 N776 N 0.51189 0.76502 0.89245
 C777 C 0.49768 0.76939 0.91172
 C778 C 0.50268 0.78772 0.92726
 C779 C 0.53688 0.79690 0.90286
 C780 C 0.46820 0.73195 0.83968
 C781 C 0.44771 0.73760 0.82691
 C782 C 0.44294 0.77426 0.84909
 C783 C 0.46359 0.76802 0.86126
 N784 N 0.47560 0.74704 0.85661
 H785 H 0.54262 0.77423 0.87265
 H786 H 0.48239 0.75856 0.91497
 H787 H 0.49085 0.79112 0.94225
 H788 H 0.55237 0.80730 0.89898
 H789 H 0.47828 0.71554 0.83607
 H790 H 0.44200 0.72536 0.81353
 H791 H 0.43389 0.79119 0.85291
 H792 H 0.47004 0.78011 0.87432
 C793 C 0.56615 0.71960 0.82001
 C794 C 0.49350 0.67669 0.92521
 C795 C 0.43465 0.75889 0.83174
 C796 C 0.52256 0.80170 0.92295
 C797 C 0.11507 0.22890 0.27838
 C798 C 0.10222 0.20961 0.28652
 N799 N 0.10859 0.18732 0.27905
 C800 C 0.12746 0.18337 0.26398
 C801 C 0.14070 0.20262 0.25600
 N802 N 0.13395 0.22500 0.26334
 N803 N 0.10872 0.25117 0.28598
 C804 C 0.09003 0.25506 0.30132
 C805 C 0.07699 0.23575 0.30953
 N806 N 0.08361 0.21346 0.30184
 H807 H 0.13189 0.16540 0.25817
 H808 H 0.08581 0.27300 0.30734
 C809 C 0.62535 0.70486 0.77375
 C810 C 0.61700 0.72824 0.77827
 N811 N 0.62815 0.74650 0.76794
 C812 C 0.64726 0.74245 0.75316
 C813 C 0.65572 0.71900 0.74852
 N814 N 0.64451 0.70078 0.75911
 N815 N 0.61406 0.68661 0.78394
 C816 C 0.59490 0.69066 0.79866
 C817 C 0.58662 0.71415 0.80361
 N818 N 0.59795 0.73232 0.79304
 H819 H 0.65595 0.75742 0.74545
 H820 H 0.58612 0.67560 0.80607
 C821 C 0.37295 0.77701 0.79272
 C822 C 0.39228 0.76396 0.78240
 N823 N 0.39139 0.75731 0.75953
 C824 C 0.37192 0.76291 0.74651
 C825 C 0.35220 0.77567 0.75684
 N826 N 0.35343 0.78253 0.77977
 N827 N 0.37393 0.78382 0.81555
 C828 C 0.39345 0.77827 0.82854
 C829 C 0.41297 0.76520 0.81827
 N830 N 0.41174 0.75830 0.79537
 H831 H 0.37209 0.75769 0.72821
 H832 H 0.39352 0.78371 0.84678
 C833 C -0.12204 0.28635 0.27523
 C834 C -0.10362 0.26948 0.27049
 N835 N -0.10194 0.25887 0.24907
 C836 C -0.11797 0.26421 0.23211
 C837 C -0.13682 0.28121 0.23668
 N838 N -0.13798 0.29181 0.25834
 N839 N -0.12386 0.29688 0.29672
 C840 C -0.10787 0.29141 0.31369
 C841 C -0.08902 0.27466 0.30893
 N842 N -0.08759 0.26407 0.28732
 H843 H -0.11524 0.25557 0.21528
 H844 H -0.11022 0.29985 0.33071
 C845 C -0.10885 0.73065 0.23898
 C846 C -0.10539 0.71782 0.21803
 N847 N -0.12204 0.70227 0.21139
 C848 C -0.14211 0.69897 0.22472
 C849 C -0.14600 0.71211 0.24587
 N850 N -0.12890 0.72758 0.25216
 N851 N -0.09220 0.74610 0.24581
 C852 C -0.07230 0.74959 0.23240
 C853 C -0.06891 0.73721 0.21091
 N854 N -0.08562 0.72139 0.20447
 H855 H -0.15487 0.68675 0.21818
 H856 H -0.05928 0.76176 0.23869
 C857 C 0.36554 0.24456 0.72950
 C858 C 0.37189 0.22572 0.71420
 N859 N 0.36081 0.20485 0.71630
 C860 C 0.34337 0.20196 0.73282
 C861 C 0.33651 0.22093 0.74832
 N862 N 0.34824 0.24170 0.74619
 N863 N 0.37649 0.26553 0.72717
 C864 C 0.39366 0.26847 0.71030
 C865 C 0.40044 0.24942 0.69501
 N866 N 0.38911 0.22853 0.69750
 H867 H 0.33582 0.18465 0.73408
 H868 H 0.40148 0.28565 0.70881
 C869 C 0.60663 0.26639 0.71345
 C870 C 0.60609 0.27776 0.69179
 N871 N 0.62452 0.29134 0.68524
 C872 C 0.64341 0.29442 0.69949
 C873 C 0.64406 0.28336 0.72169
 N874 N 0.62548 0.26936 0.72772
 N875 N 0.58808 0.25294 0.72010
 C876 C 0.56898 0.25028 0.70599
 C877 C 0.56836 0.26157 0.68403
 N878 N 0.58709 0.27511 0.67765
 H879 H 0.65779 0.30489 0.69291
 H880 H 0.55432 0.23990 0.71222
 C881 C 0.14283 0.78745 0.22574
 C882 C 0.13564 0.76428 0.22126
 N883 N 0.14806 0.74564 0.23050
 C884 C 0.16721 0.74911 0.24431
 C885 C 0.17430 0.77235 0.24925
 N886 N 0.16196 0.79098 0.23956
 N887 N 0.13017 0.80605 0.21667
 C888 C 0.11064 0.80256 0.20331
 C889 C 0.10328 0.77929 0.19875
 N890 N 0.11616 0.76077 0.20799
 H891 H 0.17681 0.73385 0.25129
 H892 H 0.10074 0.81789 0.19689
 C893 C 0.28888 0.11371 0.21433
 C894 C 0.28121 0.09246 0.22400
 N895 N 0.25789 0.09053 0.23050
 C896 C 0.24187 0.10901 0.22798
 C897 C 0.24954 0.13058 0.21862
 N898 N 0.27296 0.13218 0.21191
 N899 N 0.31214 0.11560 0.20764
 C900 C 0.32814 0.09713 0.21010
 C901 C 0.32056 0.07572 0.21981
 N902 N 0.29718 0.07403 0.22661
 H903 H 0.22336 0.10661 0.23292
 H904 H 0.34664 0.09935 0.20493
 C905 C 0.77486 0.60989 0.73477
 C906 C 0.79889 0.61085 0.72746
 N907 N 0.80647 0.63014 0.71587
 C908 C 0.79103 0.64849 0.71096
 C909 C 0.76671 0.64749 0.71780
 N910 N 0.75936 0.62815 0.72979
 N911 N 0.76736 0.59057 0.74644
 C912 C 0.78281 0.57211 0.75111
 C913 C 0.80696 0.57291 0.74366
 N914 N 0.81427 0.59240 0.73197
 H915 H 0.79785 0.66376 0.70207
 H916 H 0.77610 0.55679 0.76002
 C917 C 0.78594 0.36582 0.77052
 C918 C 0.77887 0.38681 0.75924
 N919 N 0.75663 0.38898 0.75025
 C920 C 0.74111 0.37101 0.75186
 C921 C 0.74816 0.34968 0.76290
 N922 N 0.77050 0.34781 0.77209
 N923 N 0.80814 0.36379 0.77972
 C924 C 0.82357 0.38189 0.77825
 C925 C 0.81652 0.40307 0.76699
 N926 N 0.79426 0.40484 0.75769
 H927 H 0.72334 0.37367 0.74497
 H928 H 0.84123 0.37956 0.78548
 C929 C 0.29436 -0.13021 0.25676
 C930 C 0.30891 -0.12132 0.27423
 N931 N 0.30791 -0.13052 0.29602
 C932 C 0.29321 -0.14850 0.30119
 C933 C 0.27849 -0.15793 0.28366
 N934 N 0.27947 -0.14809 0.26186
 N935 N 0.29560 -0.12104 0.23488
 C936 C 0.31067 -0.10325 0.22973
 C937 C 0.32521 -0.09396 0.24738
 N938 N 0.32379 -0.10351 0.26920
 H939 H 0.29269 -0.15446 0.31908
 H940 H 0.31130 -0.09684 0.21199
 C941 C 0.21007 -0.12211 0.72777
 C942 C 0.21682 -0.10437 0.74335
 N943 N 0.23781 -0.10700 0.75473
 C944 C 0.25245 -0.12659 0.75126
 C945 C 0.24590 -0.14467 0.73538
 N946 N 0.22465 -0.14156 0.72417
 N947 N 0.18903 -0.11969 0.71644
 C948 C 0.17446 -0.10010 0.71982
 C949 C 0.18129 -0.08188 0.73518
 N950 N 0.20237 -0.08470 0.74671
 H951 H 0.26907 -0.12732 0.76054
 H952 H 0.15761 -0.09911 0.71083
 C953 C 0.72472 0.38064 0.20037
 C954 C 0.73294 0.40047 0.21244
 N955 N 0.75616 0.40086 0.21888
 C956 C 0.77154 0.38217 0.21401
 C957 C 0.76333 0.36202 0.20219
 N958 N 0.74004 0.36193 0.19551
 N959 N 0.70145 0.38022 0.19408
 C960 C 0.68598 0.39879 0.19926
 C961 C 0.69413 0.41883 0.21136
 N962 N 0.71753 0.41898 0.21766
 H963 H 0.79001 0.38321 0.21914
 H964 H 0.66745 0.39755 0.19442
 C965 C 0.72257 0.62648 0.25544
 C966 C 0.71110 0.61632 0.27474
 N967 N 0.71518 0.62467 0.29665
 C968 C 0.73023 0.64278 0.30016
 C969 C 0.74190 0.65305 0.28086
 N970 N 0.73774 0.64446 0.25892
 N971 N 0.71829 0.61824 0.23354
 C972 C 0.70323 0.60013 0.23001
 C973 C 0.69193 0.58948 0.24937
 N974 N 0.69618 0.59815 0.27128
 H975 H 0.73340 0.64871 0.31790
 H976 H 0.70000 0.59449 0.21223
 C977 C 0.22218 0.12236 0.77866
 C978 C 0.19880 0.12444 0.78794
 N979 N 0.19183 0.14422 0.80040
 C980 C 0.20719 0.16208 0.80400
 C981 C 0.23073 0.16012 0.79465
 N982 N 0.23747 0.14014 0.78218
 N983 N 0.22918 0.10270 0.76607
 C984 C 0.21376 0.08503 0.76211
 C985 C 0.19010 0.08710 0.77108
 N986 N 0.18334 0.10682 0.78399
 H987 H 0.20078 0.17780 0.81351
 H988 H 0.22010 0.06946 0.75231
 C989 C 0.20581 0.27310 0.13189
 C990 C 0.22953 0.27706 0.12499
 N991 N 0.24771 0.26487 0.13539
 C992 C 0.24325 0.24868 0.15225
 C993 C 0.21943 0.24430 0.15903
 N994 N 0.20130 0.25689 0.14869
 N995 N 0.18765 0.28530 0.12144
 C996 C 0.19213 0.30134 0.10440
 C997 C 0.21595 0.30541 0.09738
 N998 N 0.23404 0.29299 0.10795
 H999 H 0.25821 0.23957 0.16042
 H1000 H 0.17717 0.31035 0.09615
 C1001 C 0.72023 0.78403 0.62281
 C1002 C 0.73209 0.77531 0.60247
 N1003 N 0.74033 0.75239 0.60151
 C1004 C 0.73743 0.73779 0.62008
 C1005 C 0.72579 0.74653 0.64072
 N1006 N 0.71737 0.76952 0.64137
 N1007 N 0.71199 0.80694 0.62378
 C1008 C 0.71501 0.82159 0.60526
 C1009 C 0.72691 0.81294 0.58473
 N1010 N 0.73520 0.78991 0.58400
 H1011 H 0.74384 0.71952 0.61852
 H1012 H 0.70866 0.83988 0.60686
 C1013 C 0.76380 0.77212 0.38230
 C1014 C 0.77327 0.79474 0.38031
 N1015 N 0.78554 0.80040 0.36055
 C1016 C 0.78907 0.78437 0.34275
 C1017 C 0.78012 0.76137 0.34480
 N1018 N 0.76745 0.75600 0.36460
 N1019 N 0.75138 0.76654 0.40203
 C1020 C 0.74799 0.78257 0.41990
 C1021 C 0.75760 0.80529 0.41807
 N1022 N 0.77007 0.81069 0.39819
 H1023 H 0.79855 0.78975 0.32709
 H1024 H 0.73839 0.77737 0.43555
 C1025 C 0.25300 0.28412 -0.11149
 C1026 C 0.27344 0.29341 -0.10151
 N1027 N 0.29529 0.28821 -0.11146
 C1028 C 0.29763 0.27405 -0.13092
 C1029 C 0.27715 0.26445 -0.14089
 N1030 N 0.25532 0.26984 -0.13076
 N1031 N 0.23115 0.28939 -0.10168
 C1032 C 0.22876 0.30334 -0.08213
 C1033 C 0.24927 0.31236 -0.07160
 N1034 N 0.27114 0.30723 -0.08186
 H1035 H 0.31535 0.26987 -0.13807
 H1036 H 0.21096 0.30749 -0.07521
 C1037 C 0.73296 0.22569 -0.14432
 C1038 C 0.71323 0.21620 -0.13269
 N1039 N 0.69082 0.22129 -0.14043
 C1040 C 0.68724 0.23549 -0.15928
 C1041 C 0.70701 0.24524 -0.17092
 N1042 N 0.72941 0.24000 -0.16299
 N1043 N 0.75536 0.22052 -0.13674
 C1044 C 0.75899 0.20648 -0.11782
 C1045 C 0.73923 0.19727 -0.10565
 N1046 N 0.71678 0.20229 -0.11368
 H1047 H 0.66913 0.23954 -0.16471
 H1048 H 0.77717 0.20243 -0.11266
 C1049 C 0.22322 0.71866 0.38700
 C1050 C 0.24595 0.71292 0.39570
 N1051 N 0.26567 0.72140 0.38489
 C1052 C 0.26369 0.73549 0.36578
 C1053 C 0.24089 0.74139 0.35696
 N1054 N 0.22120 0.73264 0.36787
 N1055 N 0.20350 0.71032 0.39794
 C1056 C 0.20547 0.69632 0.41712
 C1057 C 0.22830 0.69020 0.42583
 N1058 N 0.24795 0.69889 0.41479
 H1059 H 0.27980 0.74163 0.35736
 H1060 H 0.18928 0.69049 0.42559
 C1061 C 0.28135 0.72269 0.62983
 C1062 C 0.25748 0.71901 0.62408
 N1063 N 0.23955 0.72990 0.63699
 C1064 C 0.24443 0.74437 0.65541
 C1065 C 0.26840 0.74808 0.66130
 N1066 N 0.28623 0.73701 0.64825
 N1067 N 0.29930 0.71195 0.61690
 C1068 C 0.29448 0.69742 0.59855
 C1069 C 0.27053 0.69325 0.59288
 N1070 N 0.25262 0.70442 0.60582
 H1071 H 0.22972 0.75246 0.66558
 H1072 H 0.30929 0.68954 0.58839
 C1073 C 0.77379 0.24074 0.09936
 C1074 C 0.79328 0.22940 0.08754
 N1075 N 0.81586 0.23326 0.09461
 C1076 C 0.81986 0.24774 0.11324
 C1077 C 0.80034 0.25883 0.12550
 N1078 N 0.77772 0.25517 0.11801
 N1079 N 0.75120 0.23662 0.09241
 C1080 C 0.74719 0.22162 0.07417
 C1081 C 0.76671 0.21007 0.06223
 N1082 N 0.78931 0.21440 0.06939
 H1083 H 0.83810 0.25057 0.11833
 H1084 H 0.72891 0.21835 0.06958
 C1085 C 0.45745 0.37453 0.52109
 C1086 C 0.48069 0.36570 0.52536
 N1087 N 0.49955 0.37512 0.51384
 C1088 C 0.49621 0.39299 0.49823
 C1089 C 0.47287 0.40198 0.49390
 N1090 N 0.45412 0.39237 0.50561
 N1091 N 0.43856 0.36517 0.53250
 C1092 C 0.44181 0.34744 0.54819
 C1093 C 0.46514 0.33863 0.55289
 N1094 N 0.48401 0.34800 0.54109
 H1095 H 0.51170 0.40038 0.48977
 H1096 H 0.42622 0.34012 0.55652
 C1097 C -0.03021 0.87291 0.04556
 C1098 C -0.00608 0.86714 0.04981
 N1099 N 0.01129 0.87923 0.03875
 C1100 C 0.00566 0.89671 0.02338
 C1101 C -0.01854 0.90241 0.01874
 N1102 N -0.03590 0.89039 0.03020
 N1103 N -0.04754 0.86065 0.05655
 C1104 C -0.04185 0.84289 0.07165
 C1105 C -0.01761 0.83703 0.07607
 N1106 N -0.00038 0.84943 0.06485
 H1107 H 0.01996 0.90618 0.01506
 H1108 H -0.05618 0.83321 0.07963
 C1109 C 0.03925 0.63111 0.04560
 C1110 C 0.02401 0.65040 0.04022
 N1111 N 0.01184 0.65022 0.01994
 C1112 C 0.01384 0.63143 0.00485
 C1113 C 0.02871 0.61139 0.01026
 N1114 N 0.04124 0.61220 0.03061
 N1115 N 0.05150 0.63141 0.06593
 C1116 C 0.04913 0.65019 0.08114
 C1117 C 0.03365 0.66961 0.07584
 N1118 N 0.02151 0.66905 0.05537
 H1119 H 0.00416 0.63288 -0.01125
 H1120 H 0.05878 0.64960 0.09738
 C1121 C 0.49699 0.13015 0.52244
 C1122 C 0.51665 0.14071 0.53265
 N1123 N 0.53911 0.13201 0.52759
 C1124 C 0.54284 0.11306 0.51285
 C1125 C 0.52316 0.10220 0.50264
 N1126 N 0.50066 0.11124 0.50768
 N1127 N 0.47453 0.13883 0.52763
 C1128 C 0.47082 0.15769 0.54253
 C1129 C 0.49053 0.16851 0.55278
 N1130 N 0.51299 0.15952 0.54748
 H1131 H 0.56101 0.10686 0.50891
 H1132 H 0.45263 0.16373 0.54658
 C1133 C -0.03521 0.12144 0.46515
 C1134 C -0.02331 0.14118 0.47356
 N1135 N -0.01616 0.14171 0.49614
 C1136 C -0.02027 0.12332 0.51074
 C1137 C -0.03206 0.10326 0.50237
 N1138 N -0.03926 0.10304 0.47966
 N1139 N -0.04269 0.12103 0.44266
 C1140 C -0.03892 0.13961 0.42819
 C1141 C -0.02707 0.15956 0.43657
 N1142 N -0.01945 0.15969 0.45913
 H1143 H -0.01484 0.12476 0.52876
 H1144 H -0.04486 0.13861 0.41028
 C1145 C 0.48270 0.62167 0.97420
 C1146 C 0.46379 0.63090 0.96100
 N1147 N 0.44161 0.62232 0.96401
 C1148 C 0.43743 0.60475 0.97956
 C1149 C 0.45641 0.59524 0.99309
 N1150 N 0.47856 0.60433 0.98989
 N1151 N 0.50497 0.62999 0.97099
 C1152 C 0.50918 0.64740 0.95529
 C1153 C 0.49011 0.65723 0.94226
 N1154 N 0.46786 0.64844 0.94548
 H1155 H 0.41925 0.59918 0.98164
 H1156 H 0.52732 0.65307 0.95294
 C1157 C 0.53718 0.85905 0.96837
 C1158 C 0.54186 0.86046 0.94422
 N1159 N 0.55036 0.88077 0.93523
 C1160 C 0.55439 0.89981 0.94932
 C1161 C 0.54970 0.89851 0.97364
 N1162 N 0.54118 0.87799 0.98241
 N1163 N 0.52837 0.83891 0.97740
 C1164 C 0.52376 0.82011 0.96329
 C1165 C 0.52811 0.82149 0.93896
 N1166 N 0.53729 0.84169 0.93009
 H1167 H 0.56055 0.91587 0.94139
 H1168 H 0.51695 0.80422 0.97107
 C1169 C 0.01411 0.36217 0.48334
 C1170 C 0.02569 0.36159 0.46141
 N1171 N 0.04127 0.37862 0.45591
 C1172 C 0.04609 0.39617 0.47145
 C1173 C 0.03481 0.39683 0.49394
 N1174 N 0.01887 0.37965 0.49893
 N1175 N -0.00147 0.34506 0.48886
 C1176 C -0.00601 0.32736 0.47332
 C1177 C 0.00561 0.32669 0.45115
 N1178 N 0.02124 0.34397 0.44591
 H1179 H 0.05819 0.40947 0.46565
 H1180 H -0.01814 0.31376 0.47853
 C1181 C 0.36722 0.52376 0.48601
 C1182 C 0.35473 0.53394 0.46734
 N1183 N 0.36201 0.52890 0.44498
 C1184 C 0.38145 0.51431 0.44040
 C1185 C 0.39436 0.50432 0.45907
 N1186 N 0.38667 0.50921 0.48149
 N1187 N 0.35996 0.52894 0.50837
 C1188 C 0.34075 0.54386 0.51293
 C1189 C 0.32811 0.55421 0.49423
 N1190 N 0.33561 0.54888 0.47186
 H1191 H 0.38655 0.51042 0.42235
 H1192 H 0.33588 0.54799 0.53098
 C1193 C 0.87947 0.03677 -0.03269
 C1194 C 0.86165 0.03338 -0.01567
 N1195 N 0.86373 0.01456 -0.00114
 C1196 C 0.88286 -0.00107 -0.00281
 C1197 C 0.90100 0.00210 -0.02008
 N1198 N 0.89842 0.02118 -0.03450
 N1199 N 0.87767 0.05568 -0.04711
 C1200 C 0.85863 0.07131 -0.04544
 C1201 C 0.84028 0.06785 -0.02863
 N1202 N 0.84250 0.04889 -0.01402
 H1203 H 0.88316 -0.01589 0.00896
 H1204 H 0.85824 0.08643 -0.05692
 C1205 C 0.63540 0.03943 0.01820
 C1206 C 0.64063 0.04542 -0.00508
 N1207 N 0.62877 0.03500 -0.02274
 C1208 C 0.61213 0.01856 -0.01822
 C1209 C 0.60717 0.01200 0.00510
 N1210 N 0.61887 0.02290 0.02276
 N1211 N 0.64735 0.04982 0.03584
 C1212 C 0.66437 0.06592 0.03126
 C1213 C 0.66984 0.07188 0.00787
 N1214 N 0.65769 0.06134 -0.00969
 H1215 H 0.60281 0.01084 -0.03274
 H1216 H 0.67391 0.07339 0.04574
 C1217 C 0.12275 0.53360 0.54343
 C1218 C 0.14349 0.52597 0.53090
 N1219 N 0.14560 0.50333 0.52270
 C1220 C 0.12771 0.48798 0.52611
 C1221 C 0.10649 0.49564 0.53810
 N1222 N 0.10473 0.51832 0.54672
 N1223 N 0.12080 0.55629 0.55167
 C1224 C 0.13864 0.57173 0.54787
 C1225 C 0.15938 0.56419 0.53505
 N1226 N 0.16115 0.54138 0.52695
 H1227 H 0.13017 0.46995 0.51960
 H1228 H 0.13634 0.58980 0.55431
 C1229 C 0.12493 0.48467 0.00002
 C1230 C 0.12469 0.46219 -0.01059
 N1231 N 0.10640 0.45665 -0.02460
 C1232 C 0.08842 0.47271 -0.02895
 C1233 C 0.08867 0.49585 -0.01894
 N1234 N 0.10700 0.50087 -0.00432
 N1235 N 0.14335 0.49009 0.01410
 C1236 C 0.16156 0.47399 0.01799
 C1237 C 0.16145 0.45135 0.00719
 N1238 N 0.14283 0.44619 -0.00682
 H1239 H 0.07400 0.46681 -0.03960
 H1240 H 0.17617 0.47910 0.02890
 C1241 C 0.62695 0.98218 0.48302
 C1242 C 0.62811 0.96013 0.47149
 N1243 N 0.61003 0.95395 0.45745
 C1244 C 0.59088 0.96894 0.45407
 C1245 C 0.58956 0.99153 0.46530
 N1246 N 0.60781 0.99721 0.47975
 N1247 N 0.64514 0.98835 0.49703
 C1248 C 0.66444 0.97336 0.50010
 C1249 C 0.66563 0.95103 0.48863
 N1250 N 0.64727 0.94516 0.47455
 H1251 H 0.57678 0.96258 0.44327
 H1252 H 0.67877 0.97913 0.51103
 C1253 C 0.87502 0.96221 0.53002
 C1254 C 0.85530 0.97117 0.51766
 N1255 N 0.85453 0.99423 0.51111
 C1256 C 0.87268 1.00876 0.51623
 C1257 C 0.89272 0.99984 0.52844
 N1258 N 0.89319 0.97667 0.53512
 N1259 N 0.87565 0.93919 0.53679
 C1260 C 0.85733 0.92476 0.53191
 C1261 C 0.83738 0.93372 0.51965
 N1262 N 0.83704 0.95679 0.51273
 H1263 H 0.87114 1.02717 0.51116
 H1264 H 0.85851 0.90644 0.53736
 C1265 C 0.36883 0.46027 0.04550
 C1266 C 0.34704 0.46983 0.03741
 N1267 N 0.34484 0.49332 0.03280
 C1268 C 0.36363 0.50768 0.03538
 C1269 C 0.38591 0.49809 0.04256
 N1270 N 0.38779 0.47455 0.04780
 N1271 N 0.37084 0.43673 0.05025
 C1272 C 0.35208 0.42229 0.04708
 C1273 C 0.33037 0.43177 0.03844
 N1274 N 0.32849 0.45542 0.03393
 H1275 H 0.36115 0.52639 0.03173
 H1276 H 0.35436 0.40355 0.05064
 C1277 C 0.54135 0.47054 0.36842
 C1278 C 0.53168 0.48087 0.34829
 N1279 N 0.50780 0.48569 0.34737
 C1280 C 0.49310 0.48102 0.36584
 C1281 C 0.50271 0.47130 0.38646
 N1282 N 0.52672 0.46604 0.38704
 N1283 N 0.56527 0.46548 0.36910
 C1284 C 0.57994 0.47032 0.35055
 C1285 C 0.57030 0.48095 0.33042
 N1286 N 0.54630 0.48592 0.32992
 H1287 H 0.47409 0.48474 0.36427
 H1288 H 0.59896 0.46634 0.35173
 C1289 C 0.02292 -0.00924 0.87890
 C1290 C 0.03425 -0.02870 0.86731
 N1291 N 0.03140 -0.05090 0.87564
 C1292 C 0.01779 -0.05452 0.89519
 C1293 C 0.00643 -0.03503 0.90702
 N1294 N 0.00925 -0.01282 0.89838
 N1295 N 0.02602 0.01295 0.87068
 C1296 C 0.03990 0.01661 0.85130
 C1297 C 0.05124 -0.00291 0.83940
 N1298 N 0.04804 -0.02510 0.84794
 H1299 H 0.01559 -0.07247 0.90116
 H1300 H 0.04233 0.03463 0.84572
 C1301 C 0.02921 0.03464 0.62768
 C1302 C 0.02004 0.02281 0.64717
 N1303 N -0.00257 0.01478 0.64669
 C1304 C -0.01644 0.01798 0.62755
 C1305 C -0.00729 0.02976 0.60780
 N1306 N 0.01542 0.03782 0.60858
 N1307 N 0.05174 0.04281 0.62816
 C1308 C 0.06554 0.03981 0.64734
 C1309 C 0.05642 0.02806 0.66710
 N1310 N 0.03381 0.01973 0.66634
 H1311 H -0.03454 0.01183 0.62811
 H1312 H 0.08358 0.04617 0.64689
 C1313 C 0.51384 0.51783 0.13283
 C1314 C 0.53769 0.52335 0.12798
 N1315 N 0.54402 0.53071 0.10627
 C1316 C 0.52750 0.53319 0.08921
 C1317 C 0.50332 0.52835 0.09409
 N1318 N 0.49723 0.52050 0.11586
 N1319 N 0.50761 0.51024 0.15453
 C1320 C 0.52418 0.50793 0.17163
 C1321 C 0.54812 0.51367 0.16690
 N1322 N 0.55417 0.52128 0.14507
 H1323 H 0.53333 0.53874 0.07201
 H1324 H 0.51857 0.50215 0.18883
 C1325 C 0.49412 -0.01650 0.11411
 C1326 C 0.48700 -0.03730 0.12514
 N1327 N 0.49511 -0.05871 0.11665
 C1328 C 0.50972 -0.06033 0.09735
 C1329 C 0.51641 -0.03955 0.08575
 N1330 N 0.50858 -0.01808 0.09470
 N1331 N 0.48597 0.00490 0.12264
 C1332 C 0.47096 0.00647 0.14169
 C1333 C 0.46357 -0.01438 0.15272
 N1334 N 0.47188 -0.03578 0.14402
 H1335 H 0.51604 -0.07770 0.09122
 H1336 H 0.46442 0.02381 0.14770
 C1337 C 0.98237 0.47811 0.63709
 C1338 C 0.97232 0.45799 0.64693
 N1339 N 0.97771 0.43624 0.63745
 C1340 C 0.99256 0.43370 0.61838
 C1341 C 1.00250 0.45387 0.60819
 N1342 N 0.99721 0.47562 0.61804
 N1343 N 0.97679 0.49986 0.64648
 C1344 C 0.96161 0.50244 0.66533
 C1345 C 0.95146 0.48226 0.67537
 N1346 N 0.95716 0.46052 0.66572
 H1347 H 0.99672 0.41607 0.61145
 H1348 H 0.95718 0.52012 0.67192
 C1349 C 0.96946 0.51290 0.88349
 C1350 C 0.95897 0.53200 0.87144
 N1351 N 0.96320 0.55454 0.87840
 C1352 C 0.97743 0.55888 0.89694
 C1353 C 0.98801 0.53975 0.90917
 N1354 N 0.98367 0.51719 0.90195
 N1355 N 0.96537 0.49035 0.87649
 C1356 C 0.95137 0.48600 0.85779
 C1357 C 0.94097 0.50511 0.84541
 N1358 N 0.94500 0.52769 0.85277
 H1359 H 0.98083 0.57708 0.90160
 H1360 H 0.94820 0.46779 0.85294
 C1361 C 0.48055 0.01707 0.35959
 C1362 C 0.45672 0.02562 0.35938
 N1363 N 0.44750 0.03793 0.37826
 C1364 C 0.46106 0.04206 0.39739
 C1365 C 0.48502 0.03342 0.39771
 N1366 N 0.49401 0.02112 0.37862
 N1367 N 0.48985 0.00473 0.34083
 C1368 C 0.47633 0.00033 0.32183
 C1369 C 0.45224 0.00857 0.32155
 N1370 N 0.44314 0.02123 0.34041
 H1371 H 0.45295 0.05148 0.41229
 H1372 H 0.48453 -0.00917 0.30703
   
