data_POSCAR
  _audit_creation_date              2014-09-24
  _audit_creation_method            'ToBaCCo'
  _symmetry_space_group_name_H-M    'P1'
  _symmetry_Int_Tables_number       1
  _symmetry_cell_setting            triclinic
  loop_
  _symmetry_equiv_pos_as_xyz
 x,y,z
_cell_length_a 51.9821
_cell_length_b 52.0483
_cell_length_c 54.9927
_cell_angle_alpha 88.902500
_cell_angle_beta 91.082500
_cell_angle_gamma 90.465500
loop_
  _atom_site_label
  _atom_site_type_symbol
  _atom_site_fract_x
  _atom_site_fract_y
  _atom_site_fract_z
C1 C 0.41291 0.01071 0.27685
 C2 C 0.39366 0.03296 0.27461
 C3 C 0.37812 0.03188 0.25427
 C4 C 0.38315 0.00861 0.23815
 C5 C 0.39642 -0.01366 0.27564
 C6 C 0.38076 -0.01486 0.25563
 C7 C 0.42769 0.01170 0.25301
 C8 C 0.41217 0.01081 0.23272
 H9 H 0.39311 0.04864 0.28735
 H10 H 0.37051 0.00754 0.22167
 H11 H 0.39621 -0.02823 0.29007
 H12 H 0.44834 0.01486 0.25221
 C13 C 0.08613 -0.00143 0.77415
 C14 C 0.10275 -0.02558 0.77218
 C15 C 0.11818 -0.02516 0.75225
 C16 C 0.11551 -0.00043 0.73626
 C17 C 0.10530 0.02099 0.77393
 C18 C 0.12074 0.02172 0.75421
 C19 C 0.07190 0.00062 0.75128
 C20 C 0.08795 0.00110 0.73045
 H21 H 0.10178 -0.04181 0.78486
 H22 H 0.12809 0.00013 0.72013
 H23 H 0.10621 0.03546 0.78794
 H24 H 0.05100 0.00024 0.74993
 C25 C 0.58868 0.49807 0.27491
 C26 C 0.60543 0.47406 0.27310
 C27 C 0.62091 0.47436 0.25325
 C28 C 0.61829 0.49889 0.23706
 C29 C 0.60754 0.52068 0.27437
 C30 C 0.62304 0.52132 0.25474
 C31 C 0.57380 0.49980 0.25067
 C32 C 0.58917 0.50013 0.23085
 H33 H 0.60439 0.45785 0.28581
 H34 H 0.63090 0.49936 0.22097
 H35 H 0.60825 0.53533 0.28821
 H36 H 0.55291 0.49964 0.24928
 C37 C 0.91295 0.51035 0.77635
 C38 C 0.89374 0.53263 0.77410
 C39 C 0.87811 0.53149 0.75383
 C40 C 0.88303 0.50814 0.73778
 C41 C 0.89642 0.48601 0.77529
 C42 C 0.88068 0.48474 0.75535
 C43 C 0.92764 0.51121 0.75245
 C44 C 0.91202 0.51026 0.73223
 H45 H 0.89327 0.54836 0.78679
 H46 H 0.87032 0.50701 0.72135
 H47 H 0.89625 0.47149 0.78979
 H48 H 0.94829 0.51434 0.75156
 C49 C 0.27844 0.37317 0.99306
 C50 C 0.27643 0.35388 1.01430
 C51 C 0.25479 0.33900 1.01359
 C52 C 0.23687 0.34464 0.99150
 C53 C 0.27597 0.35693 0.97010
 C54 C 0.25419 0.34204 0.96923
 C55 C 0.25338 0.38865 0.99355
 C56 C 0.23163 0.37369 0.99268
 H57 H 0.29035 0.35295 1.02929
 H58 H 0.21925 0.33241 0.99089
 H59 H 0.28969 0.35786 0.95544
 H60 H 0.25289 0.40948 0.99424
 C61 C 0.77227 0.12953 0.99988
 C62 C 0.77097 0.14885 0.97858
 C63 C 0.75005 0.16439 0.97874
 C64 C 0.73201 0.15909 1.00030
 C65 C 0.77094 0.14604 1.02271
 C66 C 0.74978 0.16151 1.02294
 C67 C 0.74798 0.11540 0.99894
 C68 C 0.72580 0.13168 0.99927
 H69 H 0.78546 0.15022 0.96460
 H70 H 0.71495 0.17184 1.00034
 H71 H 0.78473 0.14471 1.03777
 H72 H 0.74667 0.09455 0.99981
 C73 C 0.27346 0.63054 0.49948
 C74 C 0.27177 0.64941 0.47792
 C75 C 0.25088 0.66494 0.47807
 C76 C 0.23315 0.66017 0.49987
 C77 C 0.27221 0.64732 0.52209
 C78 C 0.25107 0.66275 0.52231
 C79 C 0.24777 0.61566 0.49898
 C80 C 0.22664 0.63120 0.49931
 H81 H 0.28611 0.65060 0.46379
 H82 H 0.21606 0.67287 0.49990
 H83 H 0.28602 0.64608 0.53714
 H84 H 0.24644 0.59482 0.49973
 C85 C 0.77839 0.87324 0.49346
 C86 C 0.77627 0.85388 0.51463
 C87 C 0.75463 0.83898 0.51376
 C88 C 0.73683 0.84469 0.49160
 C89 C 0.77607 0.85707 0.47044
 C90 C 0.75430 0.84218 0.46942
 C91 C 0.75332 0.88870 0.49387
 C92 C 0.73158 0.87374 0.49285
 H93 H 0.79010 0.85290 0.52969
 H94 H 0.71922 0.83246 0.49086
 H95 H 0.78990 0.85803 0.45587
 H96 H 0.75282 0.90953 0.49467
 C97 C -0.00398 0.27748 0.40623
 C98 C 0.01603 0.28447 0.38699
 C99 C 0.01754 0.26667 0.36925
 C100 C -0.00089 0.24375 0.37234
 C101 C -0.02799 0.27371 0.39291
 C102 C -0.02614 0.25512 0.37432
 C103 C 0.00392 0.25085 0.41597
 C104 C 0.00559 0.23327 0.39798
 H105 H 0.02951 0.30045 0.38861
 H106 H 0.00042 0.22923 0.35783
 H107 H -0.04519 0.28498 0.39564
 H108 H 0.00755 0.24628 0.43509
 C109 C -0.00155 0.76250 0.10305
 C110 C -0.01361 0.76797 0.12756
 C111 C -0.01206 0.74783 0.14360
 C112 C 0.00113 0.72416 0.13373
 C113 C 0.02600 0.75430 0.10916
 C114 C 0.02729 0.73419 0.12530
 C115 C -0.01519 0.73836 0.09382
 C116 C -0.01369 0.71830 0.11009
 H117 H -0.02497 0.78496 0.13088
 H118 H 0.00229 0.70767 0.14686
 H119 H 0.04282 0.76551 0.10393
 H120 H -0.02230 0.73633 0.07525
 C121 C 0.49792 0.26311 0.60409
 C122 C 0.48550 0.26848 0.62845
 C123 C 0.48699 0.24834 0.64449
 C124 C 0.50050 0.22477 0.63479
 C125 C 0.52546 0.25511 0.61052
 C126 C 0.52669 0.23501 0.62665
 C127 C 0.48460 0.23887 0.59470
 C128 C 0.48604 0.21881 0.61098
 H129 H 0.47396 0.28538 0.63163
 H130 H 0.50163 0.20830 0.64793
 H131 H 0.54228 0.26638 0.60538
 H132 H 0.47773 0.23679 0.57605
 C133 C 0.49696 0.77776 0.90844
 C134 C 0.51862 0.78371 0.89056
 C135 C 0.52007 0.76616 0.87261
 C136 C 0.50006 0.74444 0.87417
 C137 C 0.47248 0.77606 0.89256
 C138 C 0.47430 0.75854 0.87459
 C139 C 0.50172 0.75190 0.91759
 C140 C 0.50345 0.73370 0.89857
 H141 H 0.53261 0.79915 0.89290
 H142 H 0.50129 0.73019 0.85941
 H143 H 0.45567 0.78798 0.89487
 H144 H 0.50425 0.74688 0.93676
 C145 C -0.23932 0.66363 0.97350
 C146 C -0.21716 0.64426 0.97567
 C147 C -0.21831 0.62871 0.99599
 C148 C -0.24154 0.63386 1.01215
 C149 C -0.26381 0.64732 0.97473
 C150 C -0.26508 0.63165 0.99471
 C151 C -0.23818 0.67835 0.99736
 C152 C -0.23914 0.66282 1.01763
 H153 H -0.20149 0.64363 0.96290
 H154 H -0.24268 0.62122 1.02861
 H155 H -0.27840 0.64719 0.96029
 H156 H -0.23486 0.69896 0.99818
 C157 C -0.25170 0.33574 0.47631
 C158 C -0.27590 0.35232 0.47821
 C159 C -0.27548 0.36789 0.49803
 C160 C -0.25068 0.36538 0.51399
 C161 C -0.22928 0.35493 0.47636
 C162 C -0.22854 0.37050 0.49596
 C163 C -0.24958 0.32171 0.49928
 C164 C -0.24910 0.33790 0.52000
 H165 H -0.29217 0.35124 0.46556
 H166 H -0.25012 0.37806 0.53004
 H167 H -0.21483 0.35576 0.46231
 H168 H -0.24993 0.30085 0.50078
 C169 C 0.24856 -0.16268 -0.02425
 C170 C 0.22438 -0.14610 -0.02227
 C171 C 0.22474 -0.13074 -0.00232
 C172 C 0.24949 -0.13343 0.01370
 C173 C 0.27101 -0.14352 -0.02396
 C174 C 0.27171 -0.12816 -0.00421
 C175 C 0.25059 -0.17694 -0.00140
 C176 C 0.25102 -0.16096 0.01947
 H177 H 0.20814 -0.14707 -0.03496
 H178 H 0.25001 -0.12090 0.02986
 H179 H 0.28553 -0.14261 -0.03794
 H180 H 0.25025 -0.19782 -0.00009
 C181 C 0.26006 1.16334 0.47342
 C182 C 0.28248 1.14427 0.47562
 C183 C 0.28153 1.12873 0.49596
 C184 C 0.25822 1.13359 0.51211
 C185 C 0.23578 1.14670 0.47467
 C186 C 0.23472 1.13104 0.49468
 C187 C 0.26099 1.17810 0.49726
 C188 C 0.26023 1.16257 0.51755
 H189 H 0.29815 1.14380 0.46283
 H190 H 0.25725 1.12095 0.52859
 H191 H 0.22120 1.14635 0.46023
 H192 H 0.26403 1.19875 0.49807
 C193 C 0.12316 0.52871 0.25614
 C194 C 0.10378 0.52658 0.23497
 C195 C 0.08887 0.50497 0.23584
 C196 C 0.09458 0.48721 0.25801
 C197 C 0.10696 0.52639 0.27916
 C198 C 0.09205 0.50465 0.28018
 C199 C 0.13864 0.50367 0.25575
 C200 C 0.12366 0.48195 0.25677
 H201 H 0.10281 0.54039 0.21990
 H202 H 0.08233 0.46962 0.25875
 H203 H 0.10791 0.54020 0.29373
 H204 H 0.15950 0.50317 0.25496
 C205 C -0.12007 1.02167 0.25085
 C206 C -0.10063 1.02048 0.27207
 C207 C -0.08503 0.99962 0.27189
 C208 C -0.09040 0.98153 0.25041
 C209 C -0.10364 1.02032 0.22794
 C210 C -0.08811 0.99922 0.22771
 C211 C -0.13416 0.99739 0.25191
 C212 C -0.11782 0.97528 0.25156
 H213 H -0.09923 1.03498 0.28601
 H214 H -0.07760 0.96452 0.25037
 H215 H -0.10507 1.03404 0.21284
 H216 H -0.15503 0.99603 0.25106
 C217 C 0.37983 0.52379 -0.24993
 C218 C 0.39881 0.52218 -0.22844
 C219 C 0.41433 0.50131 -0.22857
 C220 C 0.40946 0.48351 -0.25027
 C221 C 0.39654 0.52244 -0.27260
 C222 C 0.41198 0.50131 -0.27278
 C223 C 0.36491 0.49815 -0.24928
 C224 C 0.38046 0.47703 -0.24959
 H225 H 0.40010 0.53658 -0.21439
 H226 H 0.42216 0.46643 -0.25028
 H227 H 0.39527 0.53617 -0.28770
 H228 H 0.34404 0.49684 -0.25000
 C229 C 0.62322 0.02833 -0.24322
 C230 C 0.60379 0.02625 -0.26434
 C231 C 0.58889 0.00463 -0.26349
 C232 C 0.59466 -0.01319 -0.24137
 C233 C 0.60709 0.02595 -0.22016
 C234 C 0.59219 0.00420 -0.21914
 C235 C 0.63872 0.00330 -0.24370
 C236 C 0.62375 -0.01843 -0.24268
 H237 H 0.60279 0.04008 -0.27939
 H238 H 0.58243 -0.03078 -0.24063
 H239 H 0.60810 0.03971 -0.20556
 H240 H 0.65957 0.00281 -0.24453
 C241 C 0.02664 0.24636 0.84206
 C242 C 0.03290 0.26793 0.85991
 C243 C 0.01541 0.26958 0.87792
 C244 C -0.00656 0.24983 0.87643
 C245 C 0.02472 0.22194 0.85794
 C246 C 0.00727 0.22395 0.87597
 C247 C 0.00078 0.25140 0.83298
 C248 C -0.01735 0.25334 0.85206
 H249 H 0.04846 0.28177 0.85749
 H250 H -0.02077 0.25123 0.89123
 H251 H 0.03647 0.20502 0.85561
 H252 H -0.00430 0.25391 0.81382
 C253 C 0.51335 0.24933 0.14619
 C254 C 0.51848 0.23648 0.12200
 C255 C 0.49819 0.23777 0.10609
 C256 C 0.47472 0.25152 0.11575
 C257 C 0.50539 0.27676 0.13940
 C258 C 0.48513 0.27779 0.12340
 C259 C 0.48912 0.23628 0.15597
 C260 C 0.46891 0.23751 0.13982
 H261 H 0.53537 0.22491 0.11883
 H262 H 0.45812 0.25247 0.10272
 H263 H 0.51676 0.29361 0.14419
 H264 H 0.48720 0.22965 0.17471
 C265 C 0.01296 0.74810 0.64566
 C266 C 0.01826 0.73577 0.62126
 C267 C -0.00203 0.73714 0.60534
 C268 C -0.02564 0.75048 0.61521
 C269 C 0.00474 0.77556 0.63932
 C270 C -0.01551 0.77669 0.62331
 C271 C -0.01117 0.73463 0.65520
 C272 C -0.03137 0.73597 0.63904
 H273 H 0.03520 0.72431 0.61798
 H274 H -0.04223 0.75152 0.60216
 H275 H 0.01593 0.79242 0.64442
 H276 H -0.01308 0.72774 0.67386
 C277 C 0.52876 0.74723 0.34287
 C278 C 0.53496 0.76853 0.36096
 C279 C 0.51742 0.77008 0.37888
 C280 C 0.49540 0.75049 0.37723
 C281 C 0.52641 0.72264 0.35837
 C282 C 0.50892 0.72453 0.37632
 C283 C 0.50153 0.75291 0.33333
 C284 C 0.48420 0.75466 0.35151
 H285 H 0.55049 0.78243 0.35865
 H286 H 0.48111 0.75180 0.39194
 H287 H 0.53800 0.70564 0.35586
 H288 H 0.49649 0.75556 0.31419
 Zr289 Zr 0.02104 -0.02128 1.03374
 O290 O 0.04781 -0.01060 1.06131
 O291 O 0.01502 -0.06040 1.04173
 O292 O 0.00485 -0.02355 1.06882
 O293 O 0.06685 -0.02918 0.98942
 O294 O -0.03276 -0.00139 1.06435
 O295 O 0.05761 -0.03820 1.02914
 O296 O -0.01549 -0.07261 1.01368
 O297 O -0.01855 -0.02585 1.02696
 O298 O 0.01707 -0.03678 0.99905
 O299 O 0.00527 0.01570 1.03632
 O300 O 0.03983 0.00491 1.01005
 Zr301 Zr -0.02140 0.02201 0.96931
 Zr302 Zr -0.03393 0.01116 1.02784
 Zr303 Zr 0.03389 -0.01030 0.97533
 Zr304 Zr -0.02223 -0.03993 0.99176
 O305 O 0.06713 0.01098 0.96561
 O306 O -0.05820 -0.05252 1.00536
 O307 O -0.00533 -0.01489 0.96631
 O308 O -0.03969 -0.00402 0.99315
 O309 O -0.01754 0.03805 1.00384
 O310 O 0.01816 0.02641 0.97617
 C311 C -0.00021 -0.07689 1.03184
 C312 C 0.07235 -0.03891 1.01055
 C313 C -0.01621 -0.01437 1.07699
 O314 O -0.06872 -0.00855 1.03542
 O315 O -0.06518 0.03321 1.01489
 O316 O -0.05697 0.04072 0.97470
 C317 C -0.07087 0.04274 0.99377
 O318 O 0.05039 0.04380 1.03912
 Zr319 Zr 0.02193 0.04100 1.01101
 O320 O -0.01561 0.06095 0.96095
 O321 O -0.03787 0.04315 1.05062
 O322 O 0.00926 0.06889 1.03562
 O323 O 0.05671 0.05559 0.99641
 O324 O 0.01260 0.07442 0.99052
 C325 C -0.00201 0.07816 0.97169
 O326 O -0.04972 0.01205 0.94286
 O327 O 0.04001 -0.04356 0.95470
 O328 O -0.00687 0.02105 0.93355
 O329 O 0.03030 -0.00189 0.93800
 O330 O -0.00978 -0.06951 0.96885
 O331 O -0.04754 -0.04310 0.96112
 C332 C 0.01328 0.01023 0.92517
 H333 H 0.02548 -0.05367 0.99766
 H334 H -0.05821 -0.00586 0.98898
 H335 H 0.02660 0.03785 0.96409
 H336 H 0.00799 0.02256 1.05285
 H337 H -0.06030 -0.07090 1.00132
 H338 H -0.07778 0.00164 1.04762
 H339 H -0.05464 0.04111 1.05876
 H340 H 0.01955 0.08474 1.03278
 H341 H -0.02106 -0.08467 0.97169
 H342 H 0.05675 -0.04117 0.94659
 H343 H 0.07623 0.00070 0.95352
 H344 H 0.05805 0.07397 1.00068
 H345 H -0.05618 -0.06012 0.96156
 H346 H -0.05316 0.02767 0.93271
 H347 H 0.05160 -0.02625 1.07129
 H348 H 0.05576 0.06198 1.04084
 Zr349 Zr 0.52152 0.47885 0.53372
 O350 O 0.54834 0.48947 0.56127
 O351 O 0.51523 0.43980 0.54186
 O352 O 0.50529 0.47685 0.56879
 O353 O 0.56733 0.47046 0.48949
 O354 O 0.46780 0.49919 0.56417
 O355 O 0.55798 0.46165 0.52923
 O356 O 0.48471 0.42764 0.51381
 O357 O 0.48192 0.47447 0.52689
 O358 O 0.51751 0.46321 0.49909
 O359 O 0.50596 0.51592 0.53614
 O360 O 0.54050 0.50483 0.50997
 Zr361 Zr 0.47942 0.52211 0.46907
 Zr362 Zr 0.46675 0.51157 0.52762
 Zr363 Zr 0.53452 0.48951 0.47530
 Zr364 Zr 0.47821 0.46027 0.49174
 O365 O 0.56791 0.51054 0.46560
 O366 O 0.44214 0.44794 0.50532
 O367 O 0.49529 0.48510 0.46623
 O368 O 0.46095 0.49629 0.49298
 O369 O 0.48332 0.53828 0.50355
 O370 O 0.51900 0.52631 0.47599
 C371 C 0.49992 0.42335 0.53202
 C372 C 0.57274 0.46077 0.51065
 C373 C 0.48428 0.48620 0.57688
 O374 O 0.43184 0.49209 0.53522
 O375 O 0.43565 0.53376 0.51454
 O376 O 0.44395 0.54105 0.47435
 C377 C 0.43004 0.54323 0.49339
 O378 O 0.55124 0.54377 0.53891
 Zr379 Zr 0.52280 0.54103 0.51077
 O380 O 0.48542 0.56100 0.46061
 O381 O 0.46294 0.54368 0.55026
 O382 O 0.51027 0.56908 0.53528
 O383 O 0.55767 0.55538 0.49616
 O384 O 0.51365 0.57443 0.49017
 C385 C 0.49908 0.57818 0.47132
 O386 O 0.45112 0.51218 0.44261
 O387 O 0.54044 0.45614 0.45477
 O388 O 0.49405 0.52101 0.43336
 O389 O 0.53108 0.49785 0.43796
 O390 O 0.49054 0.43051 0.46897
 O391 O 0.45294 0.45711 0.46108
 C392 C 0.51418 0.51006 0.42506
 H393 H 0.52582 0.44627 0.49777
 H394 H 0.44243 0.49453 0.48878
 H395 H 0.52753 0.53767 0.46389
 H396 H 0.50869 0.52284 0.55264
 H397 H 0.43994 0.42955 0.50135
 H398 H 0.42282 0.50238 0.54737
 H399 H 0.44615 0.54177 0.55839
 H400 H 0.52064 0.58486 0.53240
 H401 H 0.47917 0.41542 0.47186
 H402 H 0.55722 0.45839 0.44668
 H403 H 0.57697 0.50017 0.45355
 H404 H 0.55910 0.57378 0.50037
 H405 H 0.44421 0.44013 0.46155
 H406 H 0.44777 0.52778 0.43240
 H407 H 0.55202 0.47383 0.57131
 H408 H 0.55672 0.56193 0.54056
 Zr409 Zr 0.47378 1.00106 0.54192
 O410 O 0.44673 0.98326 0.56523
 O411 O 0.47714 1.03774 0.55636
 O412 O 0.48920 0.99745 0.57776
 O413 O 0.42974 1.01775 0.49626
 O414 O 0.52791 0.97790 0.57275
 O415 O 0.43708 1.01831 0.53737
 O416 O 0.50793 1.05702 0.53297
 O417 O 0.51333 1.00830 0.53876
 O418 O 0.47830 1.02375 0.51046
 O419 O 0.49113 0.96478 0.54022
 O420 O 0.45675 0.97989 0.51339
 Zr421 Zr 0.51983 0.97360 0.47504
 Zr422 Zr 0.53036 0.97228 0.53508
 Zr423 Zr 0.46336 1.00227 0.48192
 Zr424 Zr 0.51754 1.02983 0.50673
 O425 O 0.43096 0.98249 0.46750
 O426 O 0.55225 1.04025 0.52501
 O427 O 0.50257 1.01008 0.47656
 O428 O 0.53638 0.99473 0.50366
 O429 O 0.51563 0.95052 0.50638
 O430 O 0.48038 0.96644 0.47852
 C431 C 0.49164 1.05673 0.55028
 C432 C 0.42333 1.02310 0.51804
 C433 C 0.51065 0.98803 0.58588
 O434 O 0.56451 0.99069 0.54738
 O435 O 0.56255 0.95374 0.52082
 O436 O 0.55576 0.95507 0.47964
 C437 C 0.56909 0.94907 0.49890
 O438 O 0.44661 0.93581 0.53546
 Zr439 Zr 0.47615 0.94482 0.51041
 O440 O 0.51637 0.93663 0.46099
 O441 O 0.53460 0.93637 0.55333
 O442 O 0.48872 0.91273 0.53168
 O443 O 0.44288 0.93188 0.49121
 O444 O 0.48816 0.91639 0.48649
 C445 C 0.50362 0.91693 0.46855
 O446 O 0.54820 0.99036 0.45247
 O447 O 0.45705 1.03894 0.46567
 O448 O 0.50601 0.98052 0.43896
 O449 O 0.46793 1.00117 0.44412
 O450 O 0.50492 1.06345 0.48780
 O451 O 0.54401 1.04062 0.47930
 C452 C 0.48555 0.99195 0.43085
 H453 H 0.46937 1.04045 0.51096
 H454 H 0.55493 0.99795 0.50104
 H455 H 0.47281 0.95727 0.46446
 H456 H 0.48825 0.95462 0.55535
 H457 H 0.55348 1.05926 0.52452
 H458 H 0.57347 0.97837 0.55851
 H459 H 0.55109 0.93716 0.56265
 H460 H 0.47908 0.89745 0.52589
 H461 H 0.51519 1.07810 0.49408
 H462 H 0.44060 1.03790 0.45632
 H463 H 0.42182 0.99479 0.45650
 H464 H 0.44228 0.91289 0.49289
 H465 H 0.55201 1.05739 0.48331
 H466 H 0.55279 0.97736 0.44035
 H467 H 0.44183 0.99626 0.57723
 H468 H 0.44184 0.91742 0.53424
 Zr469 Zr -0.02648 0.50045 1.04143
 O470 O -0.05350 0.48262 1.06475
 O471 O -0.02317 0.53714 1.05584
 O472 O -0.01104 0.49692 1.07727
 O473 O -0.07054 0.51710 0.99578
 O474 O 0.02768 0.47738 1.07227
 O475 O -0.06318 0.51766 1.03688
 O476 O 0.00761 0.55644 1.03244
 O477 O 0.01307 0.50772 1.03826
 O478 O -0.02198 0.52313 1.00996
 O479 O -0.00910 0.46418 1.03975
 O480 O -0.04350 0.47925 1.01291
 Zr481 Zr 0.01959 0.47298 0.97457
 Zr482 Zr 0.03012 0.47171 1.03461
 Zr483 Zr -0.03691 0.50162 0.98143
 Zr484 Zr 0.01726 0.52924 1.00623
 O485 O -0.06928 0.48181 0.96701
 O486 O 0.05195 0.53969 1.02452
 O487 O 0.00231 0.50945 0.97607
 O488 O 0.03613 0.49415 1.00317
 O489 O 0.01541 0.44991 1.00591
 O490 O -0.01985 0.46581 0.97805
 C491 C -0.00869 0.55614 1.04975
 C492 C -0.07694 0.52245 1.01756
 C493 C 0.01042 0.48754 1.08539
 O494 O 0.06426 0.49015 1.04690
 O495 O 0.06234 0.45321 1.02036
 O496 O 0.05554 0.45449 0.97919
 C497 C 0.06889 0.44854 0.99845
 O498 O -0.05356 0.43516 1.03503
 Zr499 Zr -0.02407 0.44419 1.00995
 O500 O 0.01611 0.43602 0.96050
 O501 O 0.03438 0.43581 1.05288
 O502 O -0.01143 0.41212 1.03120
 O503 O -0.05736 0.43125 0.99080
 O504 O -0.01212 0.41579 0.98599
 C505 C 0.00332 0.41633 0.96804
 O506 O 0.04798 0.48973 0.95199
 O507 O -0.04325 0.53829 0.96518
 O508 O 0.00580 0.47993 0.93849
 O509 O -0.03231 0.50054 0.94363
 O510 O 0.00462 0.56283 0.98727
 O511 O 0.04373 0.54004 0.97880
 C512 C -0.01465 0.49136 0.93038
 H513 H -0.03092 0.53982 1.01045
 H514 H 0.05467 0.49738 1.00055
 H515 H -0.02743 0.45665 0.96399
 H516 H -0.01197 0.45403 1.05489
 H517 H 0.05316 0.55871 1.02402
 H518 H 0.07322 0.47784 1.05805
 H519 H 0.05086 0.43662 1.06220
 H520 H -0.02106 0.39683 1.02541
 H521 H 0.01487 0.57749 0.99355
 H522 H -0.05970 0.53723 0.95582
 H523 H -0.07843 0.49411 0.95600
 H524 H -0.05797 0.41226 0.99248
 H525 H 0.05172 0.55681 0.98281
 H526 H 0.05256 0.47672 0.93988
 H527 H -0.05841 0.49562 1.07675
 H528 H -0.05830 0.41675 1.03383
 Zr529 Zr -0.02565 0.48592 0.47129
 O530 O -0.05080 0.49245 0.44111
 O531 O -0.01882 0.44647 0.46882
 O532 O -0.00720 0.48132 0.43743
 O533 O -0.07418 0.48146 0.51393
 O534 O 0.02994 0.50477 0.44144
 O535 O -0.06243 0.46861 0.47624
 O536 O 0.00945 0.43766 0.50015
 O537 O 0.01351 0.48316 0.48085
 O538 O -0.02386 0.47423 0.50790
 O539 O -0.01002 0.52283 0.46498
 O540 O -0.04626 0.51370 0.49040
 Zr541 Zr 0.01197 0.53685 0.53213
 Zr542 Zr 0.02862 0.52036 0.47629
 Zr543 Zr -0.04238 0.50249 0.52714
 Zr544 Zr 0.01491 0.47284 0.51775
 O545 O -0.07639 0.52370 0.53210
 O546 O 0.05170 0.45996 0.50756
 O547 O -0.00378 0.49993 0.53884
 O548 O 0.03205 0.50900 0.51294
 O549 O 0.01027 0.54896 0.49559
 O550 O -0.02709 0.53937 0.52246
 C551 C -0.00454 0.43128 0.48174
 C552 C -0.07827 0.46943 0.49404
 C553 C 0.01424 0.49052 0.42935
 O554 O 0.06393 0.50086 0.47322
 O555 O 0.05886 0.54440 0.48822
 O556 O 0.04784 0.55575 0.52654
 C557 C 0.06305 0.55618 0.50824
 O558 O -0.05567 0.54831 0.45625
 Zr559 Zr -0.02872 0.54992 0.48575
 O560 O 0.00533 0.57640 0.53430
 O561 O 0.03394 0.55023 0.45018
 O562 O -0.01528 0.57525 0.45802
 O563 O -0.06432 0.56515 0.49671
 O564 O -0.02061 0.58567 0.50133
 C565 C -0.00726 0.59193 0.52018
 O566 O 0.03846 0.53102 0.56142
 O567 O -0.04951 0.47132 0.55147
 O568 O -0.00504 0.53892 0.56695
 O569 O -0.04159 0.51451 0.56329
 O570 O 0.00118 0.44575 0.54383
 O571 O 0.03857 0.47334 0.54970
 C572 C -0.02559 0.52826 0.57552
 H573 H -0.03225 0.45738 0.51102
 H574 H 0.05029 0.50811 0.51839
 H575 H -0.03638 0.55178 0.53245
 H576 H -0.01171 0.52798 0.44761
 H577 H 0.05367 0.44211 0.51387
 H578 H 0.07379 0.51008 0.46046
 H579 H 0.05125 0.54791 0.44331
 H580 H -0.02624 0.59074 0.45788
 H581 H 0.01259 0.43060 0.54361
 H582 H -0.06683 0.47392 0.55822
 H583 H -0.08624 0.51448 0.54487
 H584 H -0.06565 0.58279 0.48972
 H585 H 0.04730 0.45659 0.55181
 H586 H 0.04087 0.54776 0.56955
 H587 H -0.05368 0.47567 0.43320
 H588 H -0.06153 0.56590 0.45191
 Zr589 Zr 0.47522 -0.01369 -0.02768
 O590 O 0.45013 -0.00735 -0.05794
 O591 O 0.48202 -0.05319 -0.02989
 O592 O 0.49371 -0.01850 -0.06148
 O593 O 0.42658 -0.01786 0.01487
 O594 O 0.53084 0.00500 -0.05756
 O595 O 0.43840 -0.03093 -0.02272
 O596 O 0.51023 -0.06179 0.00155
 O597 O 0.51436 -0.01639 -0.01805
 O598 O 0.47693 -0.02516 0.00899
 O599 O 0.49085 0.02319 -0.03416
 O600 O 0.45457 0.01421 -0.00876
 Zr601 Zr 0.51273 0.03760 0.03294
 Zr602 Zr 0.52947 0.02078 -0.02278
 Zr603 Zr 0.45838 0.00322 0.02804
 Zr604 Zr 0.51569 -0.02649 0.01891
 O605 O 0.42437 0.02447 0.03285
 O606 O 0.55249 -0.03946 0.00881
 O607 O 0.49696 0.00072 0.03981
 O608 O 0.53285 0.00964 0.01392
 O609 O 0.51109 0.04951 -0.00366
 O610 O 0.47368 0.04007 0.02319
 C611 C 0.49625 -0.06829 -0.01683
 C612 C 0.42252 -0.02999 -0.00497
 C613 C 0.51515 -0.00933 -0.06959
 O614 O 0.56478 0.00125 -0.02570
 O615 O 0.55969 0.04490 -0.01094
 O616 O 0.54859 0.05650 0.02729
 C617 C 0.56384 0.05681 0.00902
 O618 O 0.44525 0.04868 -0.04313
 Zr619 Zr 0.47211 0.05041 -0.01356
 O620 O 0.50602 0.07715 0.03495
 O621 O 0.53485 0.05050 -0.04905
 O622 O 0.48567 0.07560 -0.04135
 O623 O 0.43647 0.06566 -0.00278
 O624 O 0.48013 0.08625 0.00191
 C625 C 0.49342 0.09260 0.02076
 O626 O 0.53920 0.03196 0.06228
 O627 O 0.45118 -0.02783 0.05250
 O628 O 0.49568 0.03981 0.06773
 O629 O 0.45912 0.01542 0.06412
 O630 O 0.50194 -0.05340 0.04514
 O631 O 0.53932 -0.02578 0.05087
 C632 C 0.47512 0.02920 0.07632
 H633 H 0.46853 -0.04199 0.01219
 H634 H 0.55108 0.00879 0.01940
 H635 H 0.46437 0.05252 0.03311
 H636 H 0.48918 0.02824 -0.05156
 H637 H 0.55445 -0.05726 0.01524
 H638 H 0.57466 0.01040 -0.03849
 H639 H 0.55217 0.04813 -0.05587
 H640 H 0.47471 0.09110 -0.04158
 H641 H 0.51336 -0.06855 0.04504
 H642 H 0.43385 -0.02518 0.05921
 H643 H 0.41449 0.01533 0.04564
 H644 H 0.43514 0.08327 -0.00985
 H645 H 0.54807 -0.04252 0.05307
 H646 H 0.54157 0.04875 0.07033
 H647 H 0.44726 -0.02419 -0.06576
 H648 H 0.43944 0.06625 -0.04757
 Zr649 Zr 0.53468 0.51347 -0.03703
 O650 O 0.56189 0.49623 -0.05965
 O651 O 0.53278 0.55084 -0.05178
 O652 O 0.52051 0.51083 -0.07335
 O653 O 0.57829 0.52612 0.00998
 O654 O 0.48049 0.49298 -0.06910
 O655 O 0.57218 0.52906 -0.03124
 O656 O 0.50224 0.56971 -0.02885
 O657 O 0.49544 0.52201 -0.03461
 O658 O 0.53053 0.53481 -0.00550
 O659 O 0.51534 0.47776 -0.03586
 O660 O 0.54961 0.49017 -0.00830
 Zr661 Zr 0.48522 0.48460 0.02863
 Zr662 Zr 0.47643 0.48654 -0.03161
 Zr663 Zr 0.54344 0.51128 0.02318
 Zr664 Zr 0.49152 0.54208 -0.00244
 O665 O 0.57464 0.48975 0.03782
 O666 O 0.45740 0.55475 -0.02053
 O667 O 0.50458 0.52039 0.02792
 O668 O 0.47063 0.50766 -0.00017
 O669 O 0.48906 0.46290 -0.00278
 O670 O 0.52432 0.47602 0.02586
 C671 C 0.51849 0.56973 -0.04615
 C672 C 0.58568 0.53218 -0.01153
 C673 C 0.49888 0.50224 -0.08190
 O674 O 0.44396 0.50720 -0.04467
 O675 O 0.44298 0.46845 -0.01847
 O676 O 0.44840 0.46748 0.02287
 C677 C 0.43552 0.46273 0.00313
 O678 O 0.55811 0.44660 -0.03012
 Zr679 Zr 0.52823 0.45571 -0.00596
 O680 O 0.48568 0.44699 0.04221
 O681 O 0.47043 0.45166 -0.05011
 O682 O 0.51458 0.42530 -0.02798
 O683 O 0.56000 0.44040 0.01411
 O684 O 0.51335 0.42668 0.01725
 C685 C 0.49724 0.42710 0.03470
 O686 O 0.45755 0.50179 0.05076
 O687 O 0.55080 0.54687 0.04006
 O688 O 0.49912 0.48802 0.06505
 O689 O 0.53837 0.50757 0.06082
 O690 O 0.50594 0.57450 0.01638
 O691 O 0.46552 0.55256 0.02498
 C692 C 0.52031 0.49771 0.07364
 H693 H 0.54030 0.55121 -0.00583
 H694 H 0.45219 0.51143 0.00203
 H695 H 0.53104 0.46570 0.03986
 H696 H 0.51813 0.46807 -0.05089
 H697 H 0.45714 0.57375 -0.01976
 H698 H 0.43449 0.49579 -0.05601
 H699 H 0.45430 0.45358 -0.05986
 H700 H 0.52300 0.40932 -0.02198
 H701 H 0.49650 0.58975 0.01001
 H702 H 0.56694 0.54488 0.04977
 H703 H 0.58411 0.50109 0.04923
 H704 H 0.55932 0.42148 0.01249
 H705 H 0.45885 0.57001 0.02134
 H706 H 0.45178 0.48839 0.06256
 H707 H 0.56766 0.50966 -0.07142
 H708 H 0.56179 0.42798 -0.02885
 Zr709 Zr 0.03531 1.01188 0.46348
 O710 O 0.06236 0.99407 0.44111
 O711 O 0.03398 1.04915 0.44848
 O712 O 0.02118 1.00912 0.42715
 O713 O 0.07891 1.02454 0.51050
 O714 O -0.01905 0.99176 0.43144
 O715 O 0.07293 1.02716 0.46924
 O716 O 0.00365 1.06863 0.47120
 O717 O -0.00383 1.02090 0.46571
 O718 O 0.03131 1.03354 0.49484
 O719 O 0.01557 0.97640 0.46488
 O720 O 0.04991 0.98867 0.49244
 Zr721 Zr -0.01464 0.98419 0.52923
 Zr722 Zr -0.02324 0.98567 0.46896
 Zr723 Zr 0.04389 1.01014 0.52373
 Zr724 Zr -0.00761 1.04131 0.49771
 O725 O 0.07482 0.98837 0.53857
 O726 O -0.04147 1.05420 0.47931
 O727 O 0.00513 1.01975 0.52828
 O728 O -0.02890 1.00715 0.50021
 O729 O -0.01096 0.96215 0.49801
 O730 O 0.02437 0.97511 0.52665
 C731 C 0.01999 1.06830 0.45398
 C732 C 0.08640 1.03037 0.48896
 C733 C -0.00053 1.00071 0.41861
 O734 O -0.05548 1.00656 0.45569
 O735 O -0.05689 0.96801 0.48216
 O736 O -0.05159 0.96737 0.52352
 C737 C -0.06445 0.96254 0.50377
 O738 O 0.05798 0.94479 0.47101
 Zr739 Zr 0.02813 0.95448 0.49500
 O740 O -0.01465 0.94669 0.54315
 O741 O -0.02957 0.95070 0.45069
 O742 O 0.01421 0.92402 0.47319
 O743 O 0.05965 0.93896 0.51527
 O744 O 0.01283 0.92584 0.51839
 C745 C -0.00331 0.92660 0.53580
 O746 O -0.04218 1.00192 0.55111
 O747 O 0.05160 1.04578 0.54039
 O748 O -0.00080 0.98780 0.56566
 O749 O 0.03870 1.00680 0.56138
 O750 O 0.00706 1.07373 0.51639
 O751 O -0.03365 1.05236 0.52489
 C752 C 0.02048 0.99730 0.57423
 H753 H 0.04125 1.04983 0.49444
 H754 H -0.04730 1.01114 0.50233
 H755 H 0.03093 0.96485 0.54074
 H756 H 0.01828 0.96654 0.44994
 H757 H -0.04150 1.07322 0.47990
 H758 H -0.06504 0.99515 0.44441
 H759 H -0.04566 0.95271 0.44090
 H760 H 0.02241 0.90799 0.47934
 H761 H -0.00217 1.08904 0.50987
 H762 H 0.06770 1.04369 0.55014
 H763 H 0.08440 0.99970 0.54991
 H764 H 0.05875 0.92003 0.51381
 H765 H -0.04015 1.06982 0.52104
 H766 H -0.04814 0.98870 0.56301
 H767 H 0.06833 1.00732 0.42924
 H768 H 0.06143 0.92614 0.47243
 Zr769 Zr 0.72982 0.27061 0.21696
 O770 O 0.74109 0.29737 0.18961
 O771 O 0.69068 0.26502 0.20856
 O772 O 0.72771 0.25459 0.18181
 O773 O 0.72176 0.31619 0.26139
 O774 O 0.74951 0.21681 0.18634
 O775 O 0.71310 0.30724 0.22154
 O776 O 0.67787 0.23452 0.23633
 O777 O 0.72482 0.23109 0.22353
 O778 O 0.71387 0.26661 0.25147
 O779 O 0.76673 0.25455 0.21466
 O780 O 0.75593 0.28904 0.24098
 Zr781 Zr 0.77206 0.22755 0.28163
 Zr782 Zr 0.76175 0.21540 0.22294
 Zr783 Zr 0.74027 0.28307 0.27552
 Zr784 Zr 0.71029 0.22736 0.25856
 O785 O 0.76173 0.31605 0.28554
 O786 O 0.69753 0.19163 0.24466
 O787 O 0.73522 0.24390 0.28434
 O788 O 0.74612 0.20962 0.25746
 O789 O 0.78855 0.23142 0.24728
 O790 O 0.77689 0.26705 0.27497
 C791 C 0.67392 0.24992 0.21821
 C792 C 0.71228 0.32187 0.24020
 C793 C 0.73677 0.23349 0.17366
 O794 O 0.74185 0.18082 0.21508
 O795 O 0.78350 0.18400 0.23598
 O796 O 0.79062 0.19194 0.27627
 C797 C 0.79279 0.17816 0.25715
 O798 O 0.79531 0.29937 0.21233
 Zr799 Zr 0.79192 0.27084 0.24030
 O800 O 0.81100 0.23294 0.29042
 O801 O 0.79396 0.21132 0.20041
 O802 O 0.82001 0.25804 0.21592
 O803 O 0.80669 0.30538 0.25517
 O804 O 0.82507 0.26111 0.26110
 C805 C 0.82848 0.24641 0.27991
 O806 O 0.76150 0.19922 0.30783
 O807 O 0.70680 0.28934 0.29587
 O808 O 0.77089 0.24193 0.31743
 O809 O 0.74829 0.27928 0.31290
 O810 O 0.68051 0.23994 0.28123
 O811 O 0.70653 0.20195 0.28904
 C812 C 0.76016 0.26214 0.32578
 H813 H 0.69701 0.27515 0.25273
 H814 H 0.74408 0.19112 0.26153
 H815 H 0.78829 0.27533 0.28718
 H816 H 0.77379 0.25727 0.19822
 H817 H 0.67905 0.18968 0.24848
 H818 H 0.75210 0.17175 0.20294
 H819 H 0.79187 0.19462 0.19220
 H820 H 0.83595 0.26814 0.21897
 H821 H 0.66526 0.22883 0.27817
 H822 H 0.70923 0.30601 0.30407
 H823 H 0.75139 0.32518 0.29757
 H824 H 0.82516 0.30656 0.25109
 H825 H 0.68942 0.19347 0.28838
 H826 H 0.77699 0.19559 0.31813
 H827 H 0.72557 0.30135 0.17949
 H828 H 0.81358 0.30455 0.21080
 Zr829 Zr 0.75062 0.72378 0.70825
 O830 O 0.73275 0.69681 0.68494
 O831 O 0.78737 0.72706 0.69382
 O832 O 0.74705 0.73921 0.67241
 O833 O 0.76728 0.67976 0.75390
 O834 O 0.72750 0.77788 0.67743
 O835 O 0.76781 0.68709 0.71280
 O836 O 0.80672 0.75779 0.71719
 O837 O 0.75792 0.76328 0.71140
 O838 O 0.77336 0.72826 0.73970
 O839 O 0.71432 0.74116 0.70997
 O840 O 0.72942 0.70680 0.73680
 Zr841 Zr 0.72320 0.76981 0.77513
 Zr842 Zr 0.72188 0.78033 0.71509
 Zr843 Zr 0.75185 0.71337 0.76826
 Zr844 Zr 0.77950 0.76746 0.74341
 O845 O 0.73201 0.68106 0.78272
 O846 O 0.78997 0.80208 0.72509
 O847 O 0.75971 0.75254 0.77359
 O848 O 0.74438 0.78632 0.74650
 O849 O 0.70007 0.76565 0.74381
 O850 O 0.71601 0.73042 0.77167
 C851 C 0.80641 0.74150 0.69990
 C852 C 0.77260 0.67334 0.73212
 C853 C 0.73765 0.76064 0.66430
 O854 O 0.74035 0.81441 0.70277
 O855 O 0.70339 0.81251 0.72935
 O856 O 0.70469 0.80572 0.77052
 C857 C 0.69872 0.81906 0.75126
 O858 O 0.68523 0.69678 0.71472
 Zr859 Zr 0.69433 0.72622 0.73979
 O860 O 0.68621 0.76634 0.78925
 O861 O 0.68592 0.78460 0.69685
 O862 O 0.66219 0.73888 0.71859
 O863 O 0.68138 0.69296 0.75896
 O864 O 0.66591 0.73814 0.76380
 C865 C 0.66649 0.75356 0.78176
 O866 O 0.74000 0.79817 0.79767
 O867 O 0.78858 0.70701 0.78446
 O868 O 0.73020 0.75605 0.81120
 O869 O 0.75081 0.71798 0.80606
 O870 O 0.81313 0.75481 0.76236
 O871 O 0.79035 0.79390 0.77081
 C872 C 0.74164 0.73562 0.81932
 H873 H 0.79006 0.71932 0.73920
 H874 H 0.74763 0.80484 0.74911
 H875 H 0.70684 0.72286 0.78574
 H876 H 0.70414 0.73830 0.69485
 H877 H 0.80901 0.80328 0.72557
 H878 H 0.72802 0.82337 0.69163
 H879 H 0.68673 0.80106 0.68753
 H880 H 0.64688 0.72927 0.72439
 H881 H 0.82782 0.76505 0.75607
 H882 H 0.78751 0.69059 0.79383
 H883 H 0.74433 0.67192 0.79372
 H884 H 0.66237 0.69236 0.75729
 H885 H 0.80714 0.80187 0.76678
 H886 H 0.72699 0.80275 0.80980
 H887 H 0.74576 0.69190 0.67294
 H888 H 0.66680 0.69206 0.71594
 Zr889 Zr 0.23540 0.22477 0.77814
 O890 O 0.24179 0.19972 0.80840
 O891 O 0.19583 0.23144 0.78033
 O892 O 0.23054 0.24321 0.81195
 O893 O 0.23143 0.17621 0.73559
 O894 O 0.25393 0.28037 0.80802
 O895 O 0.21825 0.18797 0.77317
 O896 O 0.18714 0.25956 0.74886
 O897 O 0.23256 0.26386 0.76850
 O898 O 0.22396 0.22645 0.74146
 O899 O 0.27227 0.24050 0.78463
 O900 O 0.26342 0.20424 0.75923
 Zr901 Zr 0.28670 0.26241 0.71754
 Zr902 Zr 0.26974 0.27906 0.77325
 Zr903 Zr 0.25245 0.20802 0.72243
 Zr904 Zr 0.22249 0.26516 0.73154
 O905 O 0.27385 0.17414 0.71764
 O906 O 0.20937 0.30185 0.74164
 O907 O 0.24982 0.24655 0.71065
 O908 O 0.25860 0.28241 0.73654
 O909 O 0.29858 0.26081 0.75415
 O910 O 0.28929 0.22342 0.72729
 C911 C 0.18066 0.24558 0.76724
 C912 C 0.21926 0.17212 0.75541
 C913 C 0.23966 0.26464 0.82007
 O914 O 0.25005 0.31426 0.77616
 O915 O 0.29378 0.30933 0.76141
 O916 O 0.30547 0.29829 0.72319
 C917 C 0.30571 0.31351 0.74146
 O918 O 0.29790 0.19501 0.79360
 Zr919 Zr 0.29960 0.22188 0.76406
 O920 O 0.32632 0.25588 0.71560
 O921 O 0.29946 0.28454 0.79951
 O922 O 0.32474 0.23544 0.79190
 O923 O 0.31504 0.18636 0.75325
 O924 O 0.33549 0.23007 0.74867
 C925 C 0.34183 0.24337 0.72982
 O926 O 0.28099 0.28883 0.68819
 O927 O 0.22142 0.20072 0.69795
 O928 O 0.28901 0.24542 0.68276
 O929 O 0.26469 0.20883 0.68634
 O930 O 0.19564 0.25134 0.70528
 O931 O 0.22315 0.28878 0.69958
 C932 C 0.27844 0.22486 0.67415
 H933 H 0.20714 0.21801 0.73825
 H934 H 0.25769 0.30061 0.73105
 H935 H 0.30181 0.21418 0.71738
 H936 H 0.27733 0.23884 0.80203
 H937 H 0.19154 0.30375 0.73521
 H938 H 0.25917 0.32416 0.78895
 H939 H 0.29704 0.30182 0.80633
 H940 H 0.34029 0.22454 0.79215
 H941 H 0.18042 0.26269 0.70537
 H942 H 0.22414 0.18343 0.69124
 H943 H 0.26475 0.16424 0.70484
 H944 H 0.33266 0.18509 0.76034
 H945 H 0.20637 0.29746 0.69738
 H946 H 0.29780 0.29126 0.68016
 H947 H 0.22493 0.19681 0.81621
 H948 H 0.31550 0.18923 0.79804
 Zr949 Zr 0.26247 0.78496 0.28621
 O950 O 0.24482 0.81197 0.30873
 O951 O 0.29978 0.78329 0.30121
 O952 O 0.25968 0.77070 0.32249
 O953 O 0.27531 0.82866 0.23935
 O954 O 0.24209 0.73063 0.31808
 O955 O 0.27793 0.82250 0.28058
 O956 O 0.31906 0.75295 0.27838
 O957 O 0.27129 0.74583 0.28381
 O958 O 0.28412 0.78099 0.25483
 O959 O 0.22684 0.76543 0.28478
 O960 O 0.23928 0.79978 0.25733
 Zr961 Zr 0.23442 0.73551 0.22030
 Zr962 Zr 0.23591 0.72664 0.28054
 Zr963 Zr 0.26072 0.79381 0.22600
 Zr964 Zr 0.29167 0.74209 0.25178
 O965 O 0.23909 0.82488 0.21129
 O966 O 0.30442 0.70807 0.26993
 O967 O 0.27013 0.75507 0.22128
 O968 O 0.25736 0.72102 0.24924
 O969 O 0.21240 0.73915 0.25156
 O970 O 0.22555 0.77450 0.22305
 C971 C 0.31884 0.76916 0.29569
 C972 C 0.28116 0.83603 0.26092
 C973 C 0.25117 0.74902 0.33097
 O974 O 0.25668 0.69429 0.29367
 O975 O 0.21808 0.69317 0.26724
 O976 O 0.21741 0.69863 0.22590
 C977 C 0.21255 0.68572 0.24561
 O978 O 0.19540 0.80795 0.27886
 Zr979 Zr 0.20493 0.77821 0.25473
 O980 O 0.19688 0.73577 0.20642
 O981 O 0.20088 0.72042 0.29882
 O982 O 0.17438 0.76433 0.27650
 O983 O 0.18956 0.80990 0.23462
 O984 O 0.17616 0.76324 0.23126
 C985 C 0.17683 0.74719 0.21379
 O986 O 0.25199 0.70802 0.19827
 O987 O 0.29645 0.80137 0.20935
 O988 O 0.23804 0.74950 0.18391
 O989 O 0.25730 0.78882 0.18833
 O990 O 0.32421 0.75672 0.23320
 O991 O 0.30256 0.71623 0.22442
 C992 C 0.24765 0.77075 0.17541
 H993 H 0.30048 0.79084 0.25527
 H994 H 0.26126 0.70264 0.24704
 H995 H 0.21529 0.78118 0.20900
 H996 H 0.21700 0.76813 0.29975
 H997 H 0.32346 0.70793 0.26930
 H998 H 0.24522 0.68475 0.30493
 H999 H 0.20282 0.70431 0.30856
 H1000 H 0.15836 0.77263 0.27039
 H1001 H 0.33949 0.74737 0.23966
 H1002 H 0.29443 0.81751 0.19966
 H1003 H 0.25048 0.83444 0.19997
 H1004 H 0.17060 0.80910 0.23610
 H1005 H 0.32004 0.70966 0.22817
 H1006 H 0.23871 0.70219 0.18637
 H1007 H 0.25813 0.81779 0.32060
 H1008 H 0.17673 0.81147 0.27749
 Zr1009 Zr 0.22919 0.77221 0.71597
 O1010 O 0.23996 0.79905 0.68851
 O1011 O 0.19011 0.76601 0.70770
 O1012 O 0.22726 0.75608 0.68085
 O1013 O 0.22071 0.81782 0.76029
 O1014 O 0.24957 0.71861 0.68544
 O1015 O 0.21201 0.80862 0.72051
 O1016 O 0.17781 0.73545 0.73564
 O1017 O 0.22473 0.73265 0.72269
 O1018 O 0.21342 0.76812 0.75055
 O1019 O 0.26630 0.75662 0.71360
 O1020 O 0.25515 0.79105 0.73984
 Zr1021 Zr 0.27225 0.72991 0.78063
 Zr1022 Zr 0.26186 0.71744 0.72202
 Zr1023 Zr 0.23970 0.78499 0.77446
 Zr1024 Zr 0.21039 0.72885 0.75779
 O1025 O 0.26076 0.81829 0.78430
 O1026 O 0.19804 0.69289 0.74411
 O1027 O 0.23520 0.74579 0.78342
 O1028 O 0.24643 0.71158 0.75661
 O1029 O 0.28855 0.73388 0.74620
 O1030 O 0.27653 0.76945 0.77382
 C1031 C 0.17359 0.75070 0.71746
 C1032 C 0.21108 0.82330 0.73912
 C1033 C 0.23661 0.73510 0.67273
 O1034 O 0.24232 0.68264 0.71427
 O1035 O 0.28395 0.68630 0.73509
 O1036 O 0.29113 0.69445 0.77533
 C1037 C 0.29333 0.68061 0.75626
 O1038 O 0.29426 0.80180 0.71102
 Zr1039 Zr 0.29138 0.77333 0.73909
 O1040 O 0.31117 0.73583 0.78920
 O1041 O 0.29409 0.71367 0.69947
 O1042 O 0.31954 0.76083 0.71464
 O1043 O 0.30573 0.80811 0.75380
 O1044 O 0.32474 0.76413 0.75977
 C1045 C 0.32842 0.74951 0.77860
 O1046 O 0.26219 0.70159 0.80701
 O1047 O 0.20623 0.79089 0.79492
 O1048 O 0.27105 0.74441 0.81637
 O1049 O 0.24793 0.78144 0.81183
 O1050 O 0.18053 0.74115 0.78050
 O1051 O 0.20709 0.70354 0.78839
 C1052 C 0.26010 0.76450 0.82471
 H1053 H 0.19646 0.77643 0.75184
 H1054 H 0.24463 0.69307 0.76075
 H1055 H 0.28787 0.77792 0.78597
 H1056 H 0.27328 0.75939 0.69713
 H1057 H 0.17961 0.69071 0.74802
 H1058 H 0.25266 0.67365 0.70214
 H1059 H 0.29219 0.69693 0.69130
 H1060 H 0.33535 0.77116 0.71758
 H1061 H 0.16541 0.72983 0.77755
 H1062 H 0.20847 0.80761 0.80305
 H1063 H 0.25035 0.82731 0.79634
 H1064 H 0.32417 0.80953 0.74964
 H1065 H 0.19007 0.69486 0.78786
 H1066 H 0.27777 0.69819 0.81724
 H1067 H 0.22435 0.80277 0.67843
 H1068 H 0.31246 0.80724 0.70941
 Zr1069 Zr 0.25063 0.22408 0.20835
 O1070 O 0.23312 0.19713 0.18478
 O1071 O 0.28754 0.22753 0.19431
 O1072 O 0.24738 0.23959 0.17252
 O1073 O 0.26676 0.17991 0.25404
 O1074 O 0.22772 0.27822 0.17745
 O1075 O 0.26785 0.18742 0.21297
 O1076 O 0.30655 0.25818 0.21801
 O1077 O 0.25784 0.26357 0.21171
 O1078 O 0.27297 0.22847 0.24007
 O1079 O 0.21427 0.24141 0.20973
 O1080 O 0.22908 0.20697 0.23660
 Zr1081 Zr 0.22229 0.26983 0.27507
 Zr1082 Zr 0.22172 0.28057 0.21506
 Zr1083 Zr 0.25110 0.21344 0.26832
 Zr1084 Zr 0.27900 0.26765 0.24398
 O1085 O 0.23109 0.18108 0.28246
 O1086 O 0.28966 0.30239 0.22595
 O1087 O 0.25884 0.25259 0.27388
 O1088 O 0.24382 0.28645 0.24674
 O1089 O 0.19957 0.26575 0.24348
 O1090 O 0.21518 0.23044 0.27141
 C1091 C 0.30647 0.24200 0.20063
 C1092 C 0.27240 0.17359 0.23230
 C1093 C 0.23800 0.26101 0.16437
 O1094 O 0.24035 0.31467 0.20300
 O1095 O 0.20308 0.31272 0.22921
 O1096 O 0.20387 0.30578 0.27037
 C1097 C 0.19816 0.31919 0.25109
 O1098 O 0.18526 0.19689 0.21407
 Zr1099 Zr 0.19392 0.22633 0.23927
 O1100 O 0.18505 0.26635 0.28866
 O1101 O 0.18595 0.28490 0.19651
 O1102 O 0.16205 0.23889 0.21765
 O1103 O 0.18073 0.19308 0.25829
 O1104 O 0.16512 0.23830 0.26282
 C1105 C 0.16541 0.25369 0.28080
 O1106 O 0.23874 0.29808 0.29794
 O1107 O 0.28764 0.20702 0.28490
 O1108 O 0.22889 0.25593 0.31117
 O1109 O 0.24964 0.21792 0.30611
 O1110 O 0.31243 0.25494 0.26322
 O1111 O 0.28947 0.29395 0.27163
 C1112 C 0.24031 0.23550 0.31933
 H1113 H 0.28969 0.21956 0.23971
 H1114 H 0.24702 0.30496 0.24945
 H1115 H 0.20583 0.22285 0.28536
 H1116 H 0.20428 0.23858 0.19450
 H1117 H 0.30870 0.30362 0.22667
 H1118 H 0.22814 0.32366 0.19177
 H1119 H 0.18686 0.30138 0.18723
 H1120 H 0.14669 0.22922 0.22323
 H1121 H 0.32718 0.26522 0.25714
 H1122 H 0.28647 0.19056 0.29420
 H1123 H 0.24328 0.17189 0.29356
 H1124 H 0.16174 0.19248 0.25640
 H1125 H 0.30631 0.30194 0.26784
 H1126 H 0.22555 0.30260 0.30992
 H1127 H 0.24629 0.19230 0.17291
 H1128 H 0.16685 0.19205 0.21512
 Zr1129 Zr 0.73719 0.72476 0.27826
 O1130 O 0.74359 0.69971 0.30853
 O1131 O 0.69763 0.73147 0.28047
 O1132 O 0.73228 0.74322 0.31205
 O1133 O 0.73319 0.67618 0.23573
 O1134 O 0.75571 0.78036 0.30813
 O1135 O 0.72002 0.68795 0.27330
 O1136 O 0.68897 0.75965 0.24904
 O1137 O 0.73439 0.76384 0.26862
 O1138 O 0.72572 0.72645 0.24158
 O1139 O 0.77407 0.74046 0.28476
 O1140 O 0.76519 0.70421 0.25934
 Zr1141 Zr 0.78849 0.76237 0.21765
 Zr1142 Zr 0.77157 0.77902 0.27337
 Zr1143 Zr 0.75420 0.70800 0.22255
 Zr1144 Zr 0.72430 0.76516 0.23166
 O1145 O 0.77559 0.67411 0.21772
 O1146 O 0.71123 0.80189 0.24172
 O1147 O 0.75160 0.74653 0.21077
 O1148 O 0.76043 0.78238 0.23666
 O1149 O 0.80038 0.76075 0.25426
 O1150 O 0.79106 0.72337 0.22740
 C1151 C 0.68249 0.74568 0.26743
 C1152 C 0.72103 0.67210 0.25555
 C1153 C 0.74139 0.76466 0.32016
 O1154 O 0.75193 0.81425 0.27627
 O1155 O 0.79566 0.80925 0.26154
 O1156 O 0.80732 0.79822 0.22331
 C1157 C 0.80760 0.81343 0.24159
 O1158 O 0.79967 0.69495 0.29370
 Zr1159 Zr 0.80138 0.72182 0.26416
 O1160 O 0.82811 0.75578 0.21568
 O1161 O 0.80128 0.78445 0.29966
 O1162 O 0.82653 0.73536 0.29200
 O1163 O 0.81679 0.68629 0.25335
 O1164 O 0.83727 0.72998 0.24876
 C1165 C 0.84361 0.74327 0.22991
 O1166 O 0.78282 0.78881 0.18832
 O1167 O 0.72314 0.70071 0.19810
 O1168 O 0.79072 0.74539 0.18284
 O1169 O 0.76638 0.70881 0.18645
 O1170 O 0.69739 0.75135 0.20545
 O1171 O 0.72498 0.78874 0.19968
 C1172 C 0.78012 0.72485 0.17424
 H1173 H 0.70890 0.71802 0.23839
 H1174 H 0.75954 0.80059 0.23118
 H1175 H 0.80356 0.71412 0.21747
 H1176 H 0.77912 0.73880 0.30216
 H1177 H 0.69340 0.80380 0.23529
 H1178 H 0.76106 0.82414 0.28906
 H1179 H 0.79887 0.80174 0.30648
 H1180 H 0.84208 0.72445 0.29224
 H1181 H 0.68219 0.76272 0.20555
 H1182 H 0.72584 0.68341 0.19139
 H1183 H 0.76646 0.66422 0.20493
 H1184 H 0.83442 0.68501 0.26043
 H1185 H 0.70820 0.79743 0.19746
 H1186 H 0.79963 0.79121 0.18028
 H1187 H 0.72673 0.69681 0.31634
 H1188 H 0.81727 0.68915 0.29814
 Zr1189 Zr 0.76241 0.28466 0.78708
 O1190 O 0.74488 0.31171 0.80963
 O1191 O 0.79974 0.28290 0.80204
 O1192 O 0.75961 0.27040 0.82337
 O1193 O 0.77520 0.32834 0.74019
 O1194 O 0.74194 0.23036 0.81897
 O1195 O 0.77791 0.32218 0.78142
 O1196 O 0.81892 0.25253 0.77916
 O1197 O 0.77115 0.24552 0.78466
 O1198 O 0.78400 0.28066 0.75566
 O1199 O 0.72675 0.26520 0.78569
 O1200 O 0.73920 0.29952 0.75823
 Zr1201 Zr 0.73415 0.23526 0.72119
 Zr1202 Zr 0.73574 0.22639 0.78143
 Zr1203 Zr 0.76057 0.29351 0.72686
 Zr1204 Zr 0.79147 0.24175 0.75259
 O1205 O 0.73897 0.32461 0.71217
 O1206 O 0.80420 0.20769 0.77070
 O1207 O 0.76990 0.25476 0.72213
 O1208 O 0.75712 0.22074 0.75010
 O1209 O 0.71219 0.23894 0.75249
 O1210 O 0.72536 0.27427 0.72397
 C1211 C 0.81876 0.26872 0.79649
 C1212 C 0.78111 0.33571 0.76174
 C1213 C 0.75105 0.24874 0.83185
 O1214 O 0.75650 0.19402 0.79456
 O1215 O 0.71787 0.19293 0.76814
 O1216 O 0.71714 0.19841 0.72681
 C1217 C 0.71232 0.18549 0.74651
 O1218 O 0.69538 0.30776 0.77984
 Zr1219 Zr 0.70481 0.27802 0.75568
 O1220 O 0.69657 0.23559 0.70738
 O1221 O 0.70071 0.22020 0.79973
 O1222 O 0.67427 0.26419 0.77750
 O1223 O 0.68947 0.30974 0.73560
 O1224 O 0.67597 0.26311 0.73226
 C1225 C 0.67657 0.24706 0.71480
 O1226 O 0.75163 0.20775 0.69912
 O1227 O 0.79629 0.30103 0.71018
 O1228 O 0.73775 0.24925 0.68480
 O1229 O 0.75709 0.28853 0.68919
 O1230 O 0.82401 0.25634 0.73397
 O1231 O 0.80227 0.21588 0.72520
 C1232 C 0.74739 0.27047 0.67629
 H1233 H 0.80038 0.29048 0.75609
 H1234 H 0.76099 0.20235 0.74789
 H1235 H 0.71509 0.28097 0.70993
 H1236 H 0.71693 0.26790 0.80067
 H1237 H 0.82324 0.20752 0.77004
 H1238 H 0.74503 0.18449 0.80582
 H1239 H 0.70265 0.20408 0.80946
 H1240 H 0.65826 0.27253 0.77142
 H1241 H 0.83928 0.24697 0.74041
 H1242 H 0.79429 0.31716 0.70049
 H1243 H 0.75036 0.33415 0.70083
 H1244 H 0.67051 0.30898 0.73711
 H1245 H 0.81976 0.20929 0.72891
 H1246 H 0.73832 0.20196 0.68723
 H1247 H 0.75823 0.31750 0.82149
 H1248 H 0.67672 0.31133 0.77849
 C1249 C 0.42932 1.01070 0.29897
 C1250 C 0.44182 1.00895 0.31767
 C1251 C 0.45514 1.00554 0.34019
 C1252 C 0.46512 1.00205 0.35998
 C1253 C 0.47488 0.99781 0.38393
 C1254 C 0.48115 0.99462 0.40503
 C1255 C -0.07057 0.51039 0.79843
 C1256 C -0.05806 0.50863 0.81713
 C1257 C -0.04479 0.50519 0.83966
 C1258 C -0.03487 0.50165 0.85947
 C1259 C -0.02520 0.49735 0.88344
 C1260 C -0.01900 0.49410 0.90455
 C1261 C 0.06981 -0.00090 0.79568
 C1262 C 0.05729 0.00104 0.81379
 C1263 C 0.04390 0.00427 0.83564
 C1264 C 0.03386 0.00714 0.85498
 C1265 C 0.02406 0.00994 0.87856
 C1266 C 0.01776 0.01110 0.89950
 C1267 C 0.57224 0.49869 0.29631
 C1268 C 0.55951 0.50068 0.31428
 C1269 C 0.54581 0.50398 0.33593
 C1270 C 0.53548 0.50691 0.35512
 C1271 C 0.52535 0.50974 0.37856
 C1272 C 0.51883 0.51092 0.39943
 C1273 C 0.57817 0.49940 0.20651
 C1274 C 0.56773 0.49863 0.18671
 C1275 C 0.55491 0.49771 0.16376
 C1276 C 0.54430 0.49708 0.14403
 C1277 C 0.53310 0.49667 0.12035
 C1278 C 0.52557 0.49679 0.09942
 C1279 C 0.07752 1.00006 0.70743
 C1280 C 0.06720 0.99907 0.68758
 C1281 C 0.05455 0.99796 0.66456
 C1282 C 0.04408 0.99718 0.64476
 C1283 C 0.03304 0.99662 0.62101
 C1284 C 0.02564 0.99659 0.60004
 C1285 C -0.07794 0.51509 0.70815
 C1286 C -0.06884 0.51939 0.68838
 C1287 C -0.05783 0.52424 0.66531
 C1288 C -0.04866 0.52769 0.64543
 C1289 C -0.03871 0.53037 0.62166
 C1290 C -0.03158 0.53080 0.60084
 C1291 C 0.42230 0.01576 0.20870
 C1292 C 0.43149 0.02017 0.18899
 C1293 C 0.44261 0.02513 0.16598
 C1294 C 0.45187 0.02865 0.14616
 C1295 C 0.46191 0.03137 0.12242
 C1296 C 0.46910 0.03180 0.10162
 C1297 C 0.30225 0.38884 -0.00531
 C1298 C 0.32212 0.40099 -0.00314
 C1299 C 0.34574 0.41465 -0.00018
 C1300 C 0.36609 0.42595 0.00218
 C1301 C 0.39018 0.43895 0.00421
 C1302 C 0.41085 0.44988 0.00472
 C1303 C -0.19782 0.88892 0.49522
 C1304 C -0.17797 0.90108 0.49747
 C1305 C -0.15436 0.91475 0.50049
 C1306 C -0.13402 0.92604 0.50286
 C1307 C -0.10991 0.93900 0.50490
 C1308 C -0.08920 0.94985 0.50540
 C1309 C -0.20437 0.11365 0.99892
 C1310 C -0.18445 0.10196 0.99732
 C1311 C -0.16055 0.08929 0.99504
 C1312 C -0.13993 0.07891 0.99325
 C1313 C -0.11562 0.06682 0.99184
 C1314 C -0.09500 0.05618 0.99178
 C1315 C 0.29684 0.61469 0.49854
 C1316 C 0.31675 0.60298 0.49693
 C1317 C 0.34061 0.59024 0.49462
 C1318 C 0.36118 0.57977 0.49281
 C1319 C 0.38542 0.56756 0.49138
 C1320 C 0.40599 0.55681 0.49134
 C1321 C 0.20068 0.62111 0.50185
 C1322 C 0.17911 0.61251 0.50414
 C1323 C 0.15392 0.60206 0.50674
 C1324 C 0.13261 0.59270 0.50857
 C1325 C 0.10783 0.58102 0.50993
 C1326 C 0.08707 0.57025 0.51000
 C1327 C 0.70131 0.12207 0.00200
 C1328 C 0.67978 0.11341 0.00449
 C1329 C 0.65463 0.10289 0.00725
 C1330 C 0.63334 0.09348 0.00917
 C1331 C 0.60859 0.08174 0.01060
 C1332 C 0.58785 0.07093 0.01073
 C1333 C 0.70593 0.88449 0.49269
 C1334 C 0.68463 0.89373 0.49264
 C1335 C 0.65977 0.90485 0.49280
 C1336 C 0.63871 0.91457 0.49327
 C1337 C 0.61417 0.92627 0.49436
 C1338 C 0.59346 0.93651 0.49595
 C1339 C 0.20598 0.38444 0.99249
 C1340 C 0.18465 0.39362 0.99240
 C1341 C 0.15975 0.40466 0.99251
 C1342 C 0.13865 0.41430 0.99292
 C1343 C 0.11406 0.42589 0.99396
 C1344 C 0.09330 0.43605 0.99551
 C1345 C -0.00540 0.29704 0.42463
 C1346 C -0.00592 0.31483 0.43806
 C1347 C -0.00592 0.33740 0.45137
 C1348 C -0.00558 0.35798 0.46067
 C1349 C -0.00501 0.38305 0.46929
 C1350 C -0.00463 0.40500 0.47535
 C1351 C 0.49551 -0.20290 -0.07297
 C1352 C 0.49494 -0.18514 -0.05950
 C1353 C 0.49488 -0.16252 -0.04628
 C1354 C 0.49518 -0.14185 -0.03715
 C1355 C 0.49573 -0.11668 -0.02880
 C1356 C 0.49612 -0.09464 -0.02299
 C1357 C -0.00262 -0.21532 1.08678
 C1358 C -0.00268 -0.19556 1.07538
 C1359 C -0.00207 -0.17125 1.06436
 C1360 C -0.00127 -0.14975 1.05643
 C1361 C -0.00036 -0.12426 1.04821
 C1362 C 0.00005 -0.10242 1.04116
 C1363 C 0.49691 0.28527 0.58779
 C1364 C 0.49688 0.30498 0.57632
 C1365 C 0.49755 0.32923 0.56515
 C1366 C 0.49843 0.35067 0.55708
 C1367 C 0.49945 0.37608 0.54868
 C1368 C 0.49999 0.39787 0.54147
 C1369 C 0.48168 1.19294 0.60380
 C1370 C 0.48006 1.17107 0.59762
 C1371 C 0.48036 1.14570 0.58985
 C1372 C 0.48212 1.12437 0.58238
 C1373 C 0.48536 1.10012 0.57249
 C1374 C 0.48843 1.07996 0.56292
 C1375 C -0.01832 0.69246 1.10296
 C1376 C -0.02013 0.67058 1.09684
 C1377 C -0.01997 0.64519 1.08914
 C1378 C -0.01827 0.62383 1.08172
 C1379 C -0.01505 0.59955 1.07189
 C1380 C -0.01195 0.57938 1.06236
 C1381 C 0.50882 0.70861 -0.09698
 C1382 C 0.51321 0.68643 -0.09260
 C1383 C 0.51746 0.66060 -0.08633
 C1384 C 0.51994 0.63873 -0.07956
 C1385 C 0.52121 0.61375 -0.06978
 C1386 C 0.52078 0.59310 -0.05978
 C1387 C 0.01195 1.20698 0.40276
 C1388 C 0.01659 1.18487 0.40725
 C1389 C 0.02078 1.15906 0.41361
 C1390 C 0.02298 1.13718 0.42045
 C1391 C 0.02373 1.11220 0.43029
 C1392 C 0.02280 1.09159 0.44032
 C1393 C 0.76073 0.68003 0.95137
 C1394 C 0.75898 0.69246 0.93264
 C1395 C 0.75554 0.70566 0.91008
 C1396 C 0.75199 0.71552 0.89024
 C1397 C 0.74767 0.72514 0.86626
 C1398 C 0.74441 0.73129 0.84514
 C1399 C 0.25988 0.17973 0.45129
 C1400 C 0.25793 0.19217 0.43257
 C1401 C 0.25429 0.20539 0.41004
 C1402 C 0.25061 0.21528 0.39023
 C1403 C 0.24620 0.22494 0.36628
 C1404 C 0.24294 0.23114 0.34517
 C1405 C 0.74882 0.31926 0.45491
 C1406 C 0.75073 0.30659 0.43690
 C1407 C 0.75395 0.29303 0.41517
 C1408 C 0.75683 0.28285 0.39590
 C1409 C 0.75966 0.27292 0.37237
 C1410 C 0.76089 0.26658 0.35145
 C1411 C 0.24911 0.82106 0.95420
 C1412 C 0.25102 0.80858 0.93607
 C1413 C 0.25419 0.79521 0.91422
 C1414 C 0.25701 0.78517 0.89488
 C1415 C 0.25976 0.77534 0.87130
 C1416 C 0.26091 0.76902 0.85037
 C1417 C 0.25003 0.82855 0.04246
 C1418 C 0.24909 0.81815 0.06228
 C1419 C 0.24804 0.80538 0.08526
 C1420 C 0.24732 0.79480 0.10500
 C1421 C 0.24683 0.78361 0.12870
 C1422 C 0.24686 0.77607 0.14963
 C1423 C 0.74989 0.32763 0.54308
 C1424 C 0.74893 0.31740 0.56297
 C1425 C 0.74785 0.30479 0.58602
 C1426 C 0.74710 0.29432 0.60581
 C1427 C 0.74659 0.28323 0.62955
 C1428 C 0.74661 0.27576 0.65050
 C1429 C 0.26517 0.17267 0.54157
 C1430 C 0.26955 0.18180 0.56131
 C1431 C 0.27448 0.19279 0.58436
 C1432 C 0.27797 0.20193 0.60423
 C1433 C 0.28066 0.21183 0.62802
 C1434 C 0.28106 0.21892 0.64884
 C1435 C 0.76596 0.67284 0.04165
 C1436 C 0.77049 0.68191 0.06139
 C1437 C 0.77560 0.69287 0.08443
 C1438 C 0.77925 0.70199 0.10429
 C1439 C 0.78210 0.71187 0.12808
 C1440 C 0.78264 0.71894 0.14891
 C1441 C 0.13885 0.55249 0.25435
 C1442 C 0.15100 0.57234 0.25205
 C1443 C 0.16465 0.59593 0.24897
 C1444 C 0.17594 0.61626 0.24653
 C1445 C 0.18890 0.64036 0.24445
 C1446 C 0.19978 0.66104 0.24393
 C1447 C 0.63889 0.05211 0.75502
 C1448 C 0.65100 0.07198 0.75276
 C1449 C 0.66460 0.09561 0.74973
 C1450 C 0.67584 0.11597 0.74735
 C1451 C 0.68874 0.14009 0.74532
 C1452 C 0.69958 0.16079 0.74483
 C1453 C 0.86396 0.04496 0.25182
 C1454 C 0.85219 0.06481 0.25346
 C1455 C 0.83941 0.08862 0.25579
 C1456 C 0.82896 0.10917 0.25762
 C1457 C 0.81681 0.13341 0.25907
 C1458 C 0.80617 0.15401 0.25914
 C1459 C 0.36402 0.54717 0.75099
 C1460 C 0.35238 0.56710 0.75261
 C1461 C 0.33978 0.59100 0.75495
 C1462 C 0.32945 0.61161 0.75679
 C1463 C 0.31740 0.63590 0.75824
 C1464 C 0.30679 0.65651 0.75830
 C1465 C 0.37035 0.45112 0.74791
 C1466 C 0.36177 0.42957 0.74563
 C1467 C 0.35137 0.40439 0.74303
 C1468 C 0.34207 0.38307 0.74120
 C1469 C 0.33045 0.35830 0.73982
 C1470 C 0.31973 0.33754 0.73973
 C1471 C 0.87260 0.95081 0.24880
 C1472 C 0.86398 0.92930 0.24627
 C1473 C 0.85352 0.90417 0.24347
 C1474 C 0.84416 0.88290 0.24151
 C1475 C 0.83246 0.85816 0.24004
 C1476 C 0.82168 0.83743 0.23990
 C1477 C 0.63451 0.95595 0.75746
 C1478 C 0.64371 0.93466 0.75750
 C1479 C 0.65477 0.90979 0.75734
 C1480 C 0.66443 0.88872 0.75688
 C1481 C 0.67604 0.86417 0.75580
 C1482 C 0.68622 0.84344 0.75422
 C1483 C 0.13439 0.45632 0.25698
 C1484 C 0.14353 0.43499 0.25707
 C1485 C 0.15449 0.41009 0.25696
 C1486 C 0.16406 0.38897 0.25655
 C1487 C 0.17558 0.36437 0.25552
 C1488 C 0.18570 0.34360 0.25399
 C1489 C 0.04593 0.24472 0.82341
 C1490 C 0.06367 0.24404 0.80990
 C1491 C 0.08629 0.24393 0.79663
 C1492 C 0.10699 0.24423 0.78750
 C1493 C 0.13220 0.24484 0.77916
 C1494 C 0.15427 0.24532 0.77336
 C1495 C 0.54809 0.74567 0.32428
 C1496 C 0.56579 0.74496 0.31074
 C1497 C 0.58834 0.74472 0.29737
 C1498 C 0.60896 0.74487 0.28810
 C1499 C 0.63410 0.74528 0.27959
 C1500 C 0.65613 0.74558 0.27366
 C1501 C 0.53566 0.24850 0.16235
 C1502 C 0.55546 0.24851 0.17373
 C1503 C 0.57976 0.24906 0.18483
 C1504 C 0.60124 0.24971 0.19290
 C1505 C 0.62668 0.25035 0.20135
 C1506 C 0.64847 0.25049 0.20864
 C1507 C 0.03526 0.74722 0.66183
 C1508 C 0.05507 0.74733 0.67319
 C1509 C 0.07939 0.74815 0.68425
 C1510 C 0.10087 0.74913 0.69228
 C1511 C 0.12631 0.75024 0.70068
 C1512 C 0.14811 0.75080 0.70792
 C1513 C 0.94280 0.73148 0.64638
 C1514 C 0.92094 0.72979 0.65264
 C1515 C 0.89554 0.73005 0.66045
 C1516 C 0.87418 0.73181 0.66792
 C1517 C 0.84988 0.73509 0.67777
 C1518 C 0.82968 0.73821 0.68730
 C1519 C 0.44307 0.23312 0.14720
 C1520 C 0.42123 0.23139 0.15350
 C1521 C 0.39584 0.23150 0.16136
 C1522 C 0.37447 0.23306 0.16885
 C1523 C 0.35013 0.23605 0.17869
 C1524 C 0.32986 0.23894 0.18816
 C1525 C 0.45769 0.76035 0.34692
 C1526 C 0.43547 0.76469 0.34255
 C1527 C 0.40959 0.76880 0.33626
 C1528 C 0.38771 0.77114 0.32944
 C1529 C 0.36273 0.77221 0.31956
 C1530 C 0.34212 0.77161 0.30946
 C1531 C 0.95755 0.25885 0.84768
 C1532 C 0.93535 0.26336 0.84332
 C1533 C 0.90951 0.26770 0.83704
 C1534 C 0.88765 0.27023 0.83023
 C1535 C 0.86267 0.27151 0.82035
 C1536 C 0.84206 0.27106 0.81026
 C1537 C 0.57174 0.99848 0.71642
 C1538 C 0.55858 0.99499 0.69842
 C1539 C 0.54463 0.99239 0.67621
 C1540 C 0.53414 0.99100 0.65647
 C1541 C 0.52367 0.98994 0.63254
 C1542 C 0.51655 0.98917 0.61152
 C1543 C 0.07173 0.49877 1.21576
 C1544 C 0.05855 0.49520 1.19779
 C1545 C 0.04457 0.49244 1.17562
 C1546 C 0.03404 0.49091 1.15592
 C1547 C 0.02352 0.48969 1.13201
 C1548 C 0.01636 0.48879 1.11101
 C1549 C -0.07316 -0.00694 1.20674
 C1550 C -0.06143 -0.01132 1.18855
 C1551 C -0.04869 -0.01537 1.16644
 C1552 C -0.03888 -0.01766 1.14688
 C1553 C -0.02889 -0.01870 1.12315
 C1554 C -0.02199 -0.01785 1.10230
 C1555 C 0.42698 0.49509 0.70632
 C1556 C 0.43877 0.49054 0.68821
 C1557 C 0.45159 0.48621 0.66620
 C1558 C 0.46146 0.48366 0.64670
 C1559 C 0.47152 0.48232 0.62304
 C1560 C 0.47846 0.48293 0.60220
 C1561 C 0.43373 0.49770 -0.20971
 C1562 C 0.44872 0.49690 -0.19268
 C1563 C 0.46447 0.49776 -0.17145
 C1564 C 0.47609 0.49929 -0.15232
 C1565 C 0.48721 0.50127 -0.12875
 C1566 C 0.49417 0.50238 -0.10773
 C1567 C -0.06559 0.99600 0.29072
 C1568 C -0.05060 0.99519 0.30776
 C1569 C -0.03486 0.99605 0.32900
 C1570 C -0.02326 0.99757 0.34816
 C1571 C -0.01215 0.99957 0.37174
 C1572 C -0.00520 1.00073 0.39277
 C1573 C 0.07687 0.49801 0.30130
 C1574 C 0.06478 0.49325 0.31947
 C1575 C 0.05134 0.48878 0.34144
 C1576 C 0.04071 0.48619 0.36075
 C1577 C 0.02948 0.48499 0.38411
 C1578 C 0.02140 0.48604 0.40457
 C1579 C 0.57713 -0.00248 -0.19796
 C1580 C 0.56515 -0.00720 -0.17971
 C1581 C 0.55188 -0.01158 -0.15764
 C1582 C 0.54138 -0.01406 -0.13826
 C1583 C 0.53029 -0.01512 -0.11484
 C1584 C 0.52229 -0.01394 -0.09435
 C1585 C 0.71417 0.61304 -0.00334
 C1586 C 0.69591 0.59850 -0.00405
 C1587 C 0.67374 0.58260 -0.00654
 C1588 C 0.65433 0.56989 -0.00913
 C1589 C 0.63095 0.55586 -0.01181
 C1590 C 0.61051 0.54461 -0.01285
 C1591 C 0.21423 1.11216 0.49668
 C1592 C 0.19617 1.09738 0.49605
 C1593 C 0.17420 1.08120 0.49366
 C1594 C 0.15491 1.06828 0.49116
 C1595 C 0.13164 1.05407 0.48858
 C1596 C 0.11124 1.04274 0.48760
 C1597 C 0.20275 -0.11511 1.00356
 C1598 C 0.18366 -0.10266 1.00735
 C1599 C 0.16064 -0.08859 1.01064
 C1600 C 0.14069 -0.07691 1.01247
 C1601 C 0.11698 -0.06347 1.01339
 C1602 C 0.09665 -0.05219 1.01294
 C1603 C 0.70258 0.38364 0.50381
 C1604 C 0.68356 0.39621 0.50756
 C1605 C 0.66065 0.41045 0.51083
 C1606 C 0.64079 0.42227 0.51265
 C1607 C 0.61718 0.43588 0.51357
 C1608 C 0.59693 0.44732 0.51310
 C1609 C -0.20742 0.38859 0.49888
 C1610 C -0.18861 0.40247 0.49893
 C1611 C -0.16579 0.41754 0.49726
 C1612 C -0.14597 0.42972 0.49529
 C1613 C -0.12242 0.44356 0.49320
 C1614 C -0.10222 0.45530 0.49252
 C1615 C 0.29292 -0.11023 -0.00101
 C1616 C 0.31182 -0.09647 -0.00074
 C1617 C 0.33474 -0.08152 -0.00218
 C1618 C 0.35465 -0.06945 -0.00399
 C1619 C 0.37828 -0.05571 -0.00592
 C1620 C 0.39852 -0.04405 -0.00652
 C1621 C 0.30181 1.11083 0.50255
 C1622 C 0.31912 1.09619 0.50771
 C1623 C 0.33992 1.07939 0.51308
 C1624 C 0.35817 1.06546 0.51673
 C1625 C 0.38022 1.04970 0.51952
 C1626 C 0.39961 1.03698 0.52012
 C1627 C -0.19820 0.61062 1.00256
 C1628 C -0.18099 0.59584 1.00766
 C1629 C -0.16025 0.57892 1.01292
 C1630 C -0.14205 0.56491 1.01646
 C1631 C -0.12003 0.54908 1.01914
 C1632 C -0.10066 0.53634 1.01967
 C1633 C -0.00348 0.72083 0.58480
 C1634 C -0.00449 0.70510 0.56923
 C1635 C -0.00541 0.68430 0.55358
 C1636 C -0.00598 0.66464 0.54266
 C1637 C -0.00648 0.64011 0.53280
 C1638 C -0.00683 0.61829 0.52633
 C1639 C 0.49669 0.22138 0.08561
 C1640 C 0.49568 0.20565 0.07004
 C1641 C 0.49482 0.18488 0.05434
 C1642 C 0.49432 0.16527 0.04335
 C1643 C 0.49396 0.14078 0.03340
 C1644 C 0.49372 0.11897 0.02688
 C1645 C 0.00353 0.20399 0.89380
 C1646 C 0.00107 0.18674 0.90834
 C1647 C -0.00098 0.16573 0.92449
 C1648 C -0.00203 0.14687 0.93728
 C1649 C -0.00251 0.12382 0.95081
 C1650 C -0.00245 0.10330 0.96107
 C1651 C 0.50503 0.70437 0.39391
 C1652 C 0.50247 0.68698 0.40827
 C1653 C 0.50034 0.66584 0.42426
 C1654 C 0.49925 0.64692 0.43696
 C1655 C 0.49871 0.62382 0.45043
 C1656 C 0.49872 0.60330 0.46067
 C1657 C 0.51691 0.79137 0.39483
 C1658 C 0.51593 0.80979 0.40747
 C1659 C 0.51417 0.83187 0.42140
 C1660 C 0.51219 0.85116 0.43270
 C1661 C 0.50943 0.87399 0.44535
 C1662 C 0.50682 0.89364 0.45595
 C1663 C 0.01506 0.29087 0.89388
 C1664 C 0.01430 0.30927 0.90656
 C1665 C 0.01288 0.33134 0.92055
 C1666 C 0.01120 0.35062 0.93192
 C1667 C 0.00876 0.37344 0.94466
 C1668 C 0.00638 0.39307 0.95535
 C1669 C 0.48027 0.30061 0.10942
 C1670 C 0.47853 0.31984 0.09730
 C1671 C 0.47926 0.34231 0.08308
 C1672 C 0.48192 0.36155 0.07117
 C1673 C 0.48679 0.38407 0.05781
 C1674 C 0.49163 0.40356 0.04694
 C1675 C -0.02061 0.79973 0.60975
 C1676 C -0.02251 0.81916 0.59795
 C1677 C -0.02189 0.84184 0.58403
 C1678 C -0.01923 0.86121 0.57230
 C1679 C -0.01425 0.88377 0.55905
 C1680 C -0.00923 0.90321 0.54816
 C1681 C 0.24871 0.32193 0.03376
 C1682 C 0.24527 0.30883 0.05180
 C1683 C 0.24269 0.29495 0.07404
 C1684 C 0.24128 0.28449 0.09379
 C1685 C 0.24018 0.27405 0.11773
 C1686 C 0.23931 0.26694 0.13875
 C1687 C 0.74845 0.82184 0.53385
 C1688 C 0.74492 0.80867 0.55183
 C1689 C 0.74225 0.79471 0.57402
 C1690 C 0.74080 0.78420 0.59373
 C1691 C 0.73967 0.77370 0.61765
 C1692 C 0.73884 0.76656 0.63867
 C1693 C 0.24495 0.67779 0.54322
 C1694 C 0.24052 0.68960 0.56134
 C1695 C 0.23634 0.70243 0.58337
 C1696 C 0.23391 0.71231 0.60288
 C1697 C 0.23267 0.72237 0.62656
 C1698 C 0.23333 0.72930 0.64740
 C1699 C 0.74370 0.17654 0.04387
 C1700 C 0.73943 0.18833 0.06205
 C1701 C 0.73554 0.20111 0.08416
 C1702 C 0.73338 0.21093 0.10373
 C1703 C 0.73246 0.22091 0.12746
 C1704 C 0.73334 0.22778 0.14832
 C1705 C 0.74638 0.18374 0.95984
 C1706 C 0.74555 0.19865 0.94276
 C1707 C 0.74639 0.21432 0.92147
 C1708 C 0.74792 0.22588 0.90229
 C1709 C 0.74992 0.23698 0.87870
 C1710 C 0.75109 0.24397 0.85768
 C1711 C 0.24713 0.68416 0.45907
 C1712 C 0.24620 0.69900 0.44193
 C1713 C 0.24691 0.71461 0.42061
 C1714 C 0.24831 0.72615 0.40141
 C1715 C 0.25018 0.73724 0.37781
 C1716 C 0.25126 0.74423 0.35679
 C1717 C 0.74771 0.82703 0.44829
 C1718 C 0.74306 0.81497 0.43009
 C1719 C 0.73877 0.80159 0.40807
 C1720 C 0.73638 0.79102 0.38873
 C1721 C 0.73542 0.77986 0.36535
 C1722 C 0.73669 0.77181 0.34489
 C1723 C 0.24738 0.32691 0.94815
 C1724 C 0.24250 0.31486 0.92999
 C1725 C 0.23792 0.30149 0.90802
 C1726 C 0.23527 0.29092 0.88869
 C1727 C 0.23403 0.27977 0.86532
 C1728 C 0.23510 0.27175 0.84484
 C1729 C 0.86198 0.46407 0.75348
 C1730 C 0.84740 0.44585 0.75424
 C1731 C 0.83147 0.42373 0.75679
 C1732 C 0.81874 0.40433 0.75942
 C1733 C 0.80472 0.38097 0.76211
 C1734 C 0.79349 0.36054 0.76313
 C1735 C 0.36210 0.96444 0.25358
 C1736 C 0.34753 0.94620 0.25417
 C1737 C 0.33158 0.92407 0.25650
 C1738 C 0.31883 0.90466 0.25894
 C1739 C 0.30478 0.88130 0.26145
 C1740 C 0.29353 0.86086 0.26236
 C1741 C 0.13393 0.95295 0.74638
 C1742 C 0.14649 0.93397 0.74254
 C1743 C 0.16074 0.91110 0.73918
 C1744 C 0.17257 0.89127 0.73728
 C1745 C 0.18619 0.86770 0.73629
 C1746 C 0.19763 0.84748 0.73671
 C1747 C 0.63650 0.45234 0.24745
 C1748 C 0.64891 0.43324 0.24365
 C1749 C 0.66294 0.41024 0.24031
 C1750 C 0.67457 0.39029 0.23842
 C1751 C 0.68794 0.36657 0.23741
 C1752 C 0.69914 0.34621 0.23782
 C1753 C 0.64096 0.54253 0.25156
 C1754 C 0.65470 0.56142 0.25130
 C1755 C 0.66963 0.58434 0.25276
 C1756 C 0.68168 0.60423 0.25457
 C1757 C 0.69539 0.62786 0.25650
 C1758 C 0.70701 0.64810 0.25711
 C1759 C 0.13875 0.04286 0.75110
 C1760 C 0.15258 0.06169 0.75090
 C1761 C 0.16761 0.08453 0.75243
 C1762 C 0.17973 0.10437 0.75429
 C1763 C 0.19352 0.12794 0.75629
 C1764 C 0.20519 0.14815 0.75693
 C1765 C 0.36015 0.05209 0.24763
 C1766 C 0.34549 0.06938 0.24249
 C1767 C 0.32869 0.09020 0.23718
 C1768 C 0.31477 0.10846 0.23359
 C1769 C 0.29902 0.13052 0.23085
 C1770 C 0.28630 0.14990 0.23026
 C1771 C 0.86014 0.55169 0.74720
 C1772 C 0.84548 0.56899 0.74207
 C1773 C 0.82869 0.58982 0.73679
 C1774 C 0.81478 0.60810 0.73323
 C1775 C 0.79908 0.63019 0.73054
 C1776 C 0.78641 0.64961 0.73001
 C1777 C 0.97197 0.74659 0.16440
 C1778 C 0.95649 0.74572 0.18022
 C1779 C 0.93590 0.74495 0.19617
 C1780 C 0.91636 0.74445 0.20730
 C1781 C 0.89186 0.74402 0.21732
 C1782 C 0.87003 0.74370 0.22383
 C1783 C 0.47076 0.24698 0.66511
 C1784 C 0.45509 0.24604 0.68075
 C1785 C 0.43432 0.24519 0.69650
 C1786 C 0.41468 0.24466 0.70747
 C1787 C 0.39012 0.24419 0.71735
 C1788 C 0.36826 0.24384 0.72378
 C1789 C 0.45426 0.75495 0.85679
 C1790 C 0.43697 0.75258 0.84227
 C1791 C 0.41592 0.75061 0.82612
 C1792 C 0.39706 0.74960 0.81329
 C1793 C 0.37402 0.74911 0.79970
 C1794 C 0.35352 0.74913 0.78935
 C1795 C 0.95458 0.25138 0.35781
 C1796 C 0.93712 0.24879 0.34350
 C1797 C 0.91595 0.24671 0.32751
 C1798 C 0.89704 0.24574 0.31475
 C1799 C 0.87400 0.24542 0.30116
 C1800 C 0.85353 0.24569 0.29076
 C1801 C 0.03862 0.26637 0.35300
 C1802 C 0.05704 0.26556 0.34031
 C1803 C 0.07929 0.26399 0.32653
 C1804 C 0.09880 0.26214 0.31550
 C1805 C 0.12194 0.25948 0.30327
 C1806 C 0.14186 0.25691 0.29303
 C1807 C 0.54129 0.76561 0.85654
 C1808 C 0.55963 0.76471 0.84375
 C1809 C 0.58163 0.76317 0.82963
 C1810 C 0.60085 0.76143 0.81815
 C1811 C 0.62362 0.75897 0.80528
 C1812 C 0.64323 0.75658 0.79451
 C1813 C 0.54975 0.23017 0.64031
 C1814 C 0.56915 0.22842 0.65222
 C1815 C 0.59177 0.22911 0.66626
 C1816 C 0.61109 0.23174 0.67809
 C1817 C 0.63364 0.23658 0.69146
 C1818 C 0.65310 0.24142 0.70241
 C1819 C 0.05039 0.72944 0.13892
 C1820 C 0.06978 0.72782 0.15085
 C1821 C 0.09234 0.72870 0.16496
 C1822 C 0.11158 0.73150 0.17688
 C1823 C 0.13402 0.73652 0.19034
 C1824 C 0.15341 0.74148 0.20136
   
