data_POSCAR
  _audit_creation_date              2014-09-24
  _audit_creation_method            'ToBaCCo'
  _symmetry_space_group_name_H-M    'P1'
  _symmetry_Int_Tables_number       1
  _symmetry_cell_setting            triclinic
  loop_
  _symmetry_equiv_pos_as_xyz
 x,y,z
_cell_length_a 67.7464
_cell_length_b 67.6612
_cell_length_c 67.5426
_cell_angle_alpha 89.919300
_cell_angle_beta 89.997400
_cell_angle_gamma 89.922900
loop_
  _atom_site_label
  _atom_site_type_symbol
  _atom_site_fract_x
  _atom_site_fract_y
  _atom_site_fract_z
N1 N 0.35936 1.34684 0.30502
 N2 N 0.34568 1.36067 0.30534
 C3 C 0.34887 1.37336 0.29026
 C4 C 0.36535 1.36700 0.28012
 C5 C 0.37171 1.35021 0.28976
 H6 H 0.34005 1.38630 0.28700
 H7 H 0.38443 1.34126 0.28610
 Cu8 Cu 0.32543 1.36086 0.32578
 Cu9 Cu 0.36058 1.32584 0.32473
 Cu10 Cu 0.32443 1.32593 0.36114
 N11 N 0.30507 1.36073 0.34612
 N12 N 0.30479 1.34696 0.35991
 C13 C 0.28953 1.35032 0.37223
 C14 C 0.27985 1.36704 0.36576
 C15 C 0.28997 1.37335 0.34921
 H16 H 0.28584 1.34136 0.38498
 H17 H 0.28664 1.38619 0.34024
 N18 N 0.34557 1.30592 0.35985
 N19 N 0.35932 1.30587 0.34597
 C20 C 0.37176 1.29067 0.34928
 C21 C 0.36548 1.28082 0.36598
 C22 C 0.34892 1.29074 0.37236
 H23 H 0.38454 1.28711 0.34038
 H24 H 0.34011 1.28725 0.38525
 H25 H 0.33078 1.32564 0.33124
 H26 H 0.34685 1.34131 0.34724
 N27 N 0.35881 0.84498 0.80451
 N28 N 0.34568 0.85930 0.80527
 C29 C 0.35007 0.87290 0.79136
 C30 C 0.36676 0.86664 0.78149
 C31 C 0.37194 0.84889 0.79007
 H32 H 0.34165 0.88618 0.78846
 H33 H 0.38418 0.83944 0.78602
 Cu34 Cu 0.32361 0.85852 0.82368
 Cu35 Cu 0.35741 0.82201 0.82170
 Cu36 Cu 0.32565 0.82611 0.86168
 N37 N 0.30493 0.85946 0.84552
 N38 N 0.30600 0.84702 0.86047
 C39 C 0.29152 0.85112 0.87348
 C40 C 0.28093 0.86696 0.86626
 C41 C 0.28972 0.87195 0.84854
 H42 H 0.28881 0.84314 0.88710
 H43 H 0.28540 0.88378 0.83866
 N44 N 0.34639 0.80581 0.86000
 N45 N 0.35817 0.80399 0.84454
 C46 C 0.37053 0.78866 0.84760
 C47 C 0.36619 0.78056 0.86580
 C48 C 0.35087 0.79165 0.87330
 H49 H 0.38190 0.78387 0.83744
 H50 H 0.34355 0.78949 0.88737
 H51 H 0.32818 0.82337 0.83171
 H52 H 0.34671 0.83980 0.84387
 N53 N 0.86075 1.34734 0.80553
 N54 N 0.84620 1.36026 0.80491
 C55 C 0.84905 1.37254 0.78944
 C56 C 0.86620 1.36688 0.78002
 C57 C 0.87330 1.35090 0.79049
 H58 H 0.83951 1.38475 0.78547
 H59 H 0.88668 1.34266 0.78754
 Cu60 Cu 0.82500 1.36005 0.82447
 Cu61 Cu 0.86277 1.32766 0.82641
 Cu62 Cu 0.82688 1.32766 0.86237
 N63 N 0.80548 1.36027 0.84572
 N64 N 0.80608 1.34735 0.86031
 C65 C 0.79107 1.35092 0.87287
 C66 C 0.78063 1.36691 0.86576
 C67 C 0.79006 1.37254 0.84856
 H68 H 0.78809 1.34269 0.88628
 H69 H 0.78610 1.38475 0.83899
 N70 N 0.84711 1.30684 0.86053
 N71 N 0.86090 1.30684 0.84671
 C72 C 0.87278 1.29109 0.84946
 C73 C 0.86607 1.28084 0.86575
 C74 C 0.84982 1.29109 0.87245
 H75 H 0.88549 1.28747 0.84049
 H76 H 0.84085 1.28747 0.88519
 H77 H 0.83301 1.32618 0.83252
 H78 H 0.84780 1.34439 0.84736
 N79 N 0.86000 0.84659 0.30493
 N80 N 0.84627 0.86037 0.30519
 C81 C 0.84946 0.87306 0.29011
 C82 C 0.86601 0.86677 0.28004
 C83 C 0.87239 0.85000 0.28972
 H84 H 0.84059 0.88596 0.28681
 H85 H 0.88516 0.84110 0.28611
 Cu86 Cu 0.82597 0.86050 0.32557
 Cu87 Cu 0.86116 0.82555 0.32461
 Cu88 Cu 0.82491 0.82554 0.36090
 N89 N 0.80558 0.86035 0.34587
 N90 N 0.80529 0.84659 0.35965
 C91 C 0.79006 0.85000 0.37200
 C92 C 0.78040 0.86674 0.36556
 C93 C 0.79051 0.87300 0.34899
 H94 H 0.78641 0.84111 0.38480
 H95 H 0.78722 0.88587 0.34006
 N96 N 0.84606 0.80553 0.35962
 N97 N 0.85985 0.80553 0.34578
 C98 C 0.87229 0.79032 0.34910
 C99 C 0.86596 0.78042 0.36575
 C100 C 0.84937 0.79032 0.37210
 H101 H 0.88510 0.78679 0.34024
 H102 H 0.84052 0.78679 0.38495
 H103 H 0.83134 0.82529 0.33102
 H104 H 0.84734 0.84096 0.34708
 N105 N 0.63921 0.65308 0.30657
 N106 N 0.65351 0.63991 0.30613
 C107 C 0.65119 0.62836 0.29007
 C108 C 0.63461 0.63471 0.28006
 C109 C 0.62729 0.65035 0.29086
 H110 H 0.66056 0.61602 0.28617
 H111 H 0.61404 0.65876 0.28780
 Cu112 Cu 0.67332 0.63844 0.32699
 Cu113 Cu 0.63638 0.67176 0.32818
 Cu114 Cu 0.67577 0.67537 0.36055
 N115 N 0.69438 0.63991 0.34654
 N116 N 0.69558 0.65461 0.35921
 C117 C 0.71138 0.65182 0.37099
 C118 C 0.72048 0.63451 0.36531
 C119 C 0.70941 0.62726 0.34983
 H120 H 0.71564 0.66136 0.38310
 H121 H 0.71198 0.61369 0.34180
 N122 N 0.65409 0.69473 0.35979
 N123 N 0.63886 0.69309 0.34771
 C124 C 0.62613 0.70798 0.35125
 C125 C 0.63374 0.71937 0.36630
 C126 C 0.65141 0.71067 0.37144
 H127 H 0.61230 0.71030 0.34359
 H128 H 0.66136 0.71542 0.38300
 H129 H 0.66662 0.67349 0.33120
 H130 H 0.65352 0.65809 0.35008
 N131 N 0.63947 0.15304 0.80551
 N132 N 0.65442 0.14066 0.80438
 C133 C 0.65153 0.12834 0.78898
 C134 C 0.63388 0.13336 0.78016
 C135 C 0.62655 0.14905 0.79089
 H136 H 0.66143 0.11657 0.78460
 H137 H 0.61292 0.15698 0.78825
 Cu138 Cu 0.67595 0.14127 0.82344
 Cu139 Cu 0.63812 0.17372 0.82544
 Cu140 Cu 0.67811 0.17787 0.85717
 N141 N 0.69501 0.14095 0.84501
 N142 N 0.69579 0.15526 0.85814
 C143 C 0.71040 0.15148 0.87112
 C144 C 0.71911 0.13383 0.86582
 C145 C 0.70909 0.12750 0.84923
 H146 H 0.71438 0.16085 0.88344
 H147 H 0.71190 0.11417 0.84088
 N148 N 0.65516 0.19570 0.85816
 N149 N 0.63969 0.19383 0.84642
 C150 C 0.62640 0.20795 0.85095
 C151 C 0.63393 0.21908 0.86624
 C152 C 0.65212 0.21102 0.87052
 H153 H 0.61238 0.21012 0.84361
 H154 H 0.66232 0.21592 0.88181
 H155 H 0.66808 0.17647 0.82787
 H156 H 0.65596 0.16014 0.84659
 N157 N 1.14122 0.65518 0.80422
 N158 N 1.15383 0.64043 0.80549
 C159 C 1.14969 0.62709 0.79129
 C160 C 1.13373 0.63399 0.78066
 C161 C 1.12869 0.65181 0.78913
 H162 H 1.15762 0.61343 0.78882
 H163 H 1.11682 0.66157 0.78471
 Cu164 Cu 1.17416 0.64024 0.82583
 Cu165 Cu 1.14210 0.67779 0.82202
 Cu166 Cu 1.17477 0.67460 0.86155
 N167 N 1.19454 0.64023 0.84608
 N168 N 1.19445 0.65358 0.86023
 C169 C 1.20956 0.65001 0.87269
 C170 C 1.21952 0.63358 0.86595
 C171 C 1.20970 0.62766 0.84910
 H172 H 1.21297 0.65863 0.88572
 H173 H 1.21327 0.61508 0.83990
 N174 N 1.15387 0.69481 0.85978
 N175 N 1.14167 0.69622 0.84458
 C176 C 1.12915 0.71138 0.84770
 C177 C 1.13382 0.71983 0.86563
 C178 C 1.14949 0.70910 0.87294
 H179 H 1.11739 0.71582 0.83781
 H180 H 1.15705 0.71151 0.88683
 H181 H 1.17133 0.67575 0.83161
 H182 H 1.15242 0.66102 0.84531
 N183 N 1.13886 0.15258 0.30668
 N184 N 1.15342 0.13972 0.30601
 C185 C 1.15100 0.12801 0.29007
 C186 C 1.13406 0.13392 0.28042
 C187 C 1.12666 0.14948 0.29126
 H188 H 1.16061 0.11592 0.28596
 H189 H 1.11327 0.15772 0.28835
 Cu190 Cu 1.17363 0.13900 0.32646
 Cu191 Cu 1.13624 0.17164 0.32801
 Cu192 Cu 1.17565 0.17529 0.36052
 N193 N 1.19439 0.13993 0.34632
 N194 N 1.19528 0.15433 0.35935
 C195 C 1.21081 0.15128 0.37142
 C196 C 1.22004 0.13412 0.36556
 C197 C 1.20937 0.12722 0.34964
 H198 H 1.21485 0.16062 0.38375
 H199 H 1.21218 0.11387 0.34132
 N200 N 1.15409 0.19480 0.35949
 N201 N 1.13888 0.19319 0.34736
 C202 C 1.12627 0.20823 0.35074
 C203 C 1.13395 0.21967 0.36570
 C204 C 1.15152 0.21087 0.37097
 H205 H 1.11246 0.21058 0.34306
 H206 H 1.16145 0.21561 0.38256
 H207 H 1.16639 0.17386 0.33118
 H208 H 1.15349 0.15799 0.34977
 N209 N 0.64020 1.34619 0.69443
 N210 N 0.65395 1.35991 0.69414
 C211 C 0.65077 1.37259 0.70918
 C212 C 0.63423 1.36637 0.71929
 C213 C 0.62785 1.34963 0.70966
 H214 H 0.65968 1.38542 0.71249
 H215 H 0.61513 1.34072 0.71337
 Cu216 Cu 0.67429 1.35989 0.67381
 Cu217 Cu 0.63902 1.32512 0.67483
 Cu218 Cu 0.67539 1.32493 0.63862
 N219 N 0.69468 1.35972 0.65354
 N220 N 0.69501 1.34592 0.63983
 C221 C 0.71025 1.34929 0.62749
 C222 C 0.71984 1.36606 0.63383
 C223 C 0.70969 1.37238 0.65034
 H224 H 0.71395 1.34036 0.61475
 H225 H 0.71291 1.38531 0.65917
 N226 N 0.65423 1.30500 0.63993
 N227 N 0.64037 1.30508 0.65371
 C228 C 0.62791 1.28993 0.65039
 C229 C 0.63430 1.27998 0.63382
 C230 C 0.65094 1.28980 0.62749
 H231 H 0.61504 1.28648 0.65920
 H232 H 0.65981 1.28622 0.61468
 H233 H 0.66883 1.32469 0.66847
 H234 H 0.65293 1.34044 0.65231
 N235 N 0.64010 0.84616 1.19425
 N236 N 0.65422 0.85948 1.19440
 C237 C 0.65102 0.87216 1.20944
 C238 C 0.63405 0.86636 1.21908
 C239 C 0.62745 0.84987 1.20917
 H240 H 0.66020 0.88471 1.21305
 H241 H 0.61439 0.84131 1.21249
 Cu242 Cu 0.67521 0.85930 1.17472
 Cu243 Cu 0.63895 0.82525 1.17457
 Cu244 Cu 0.67523 0.82511 1.13846
 N245 N 0.69497 0.85935 1.15382
 N246 N 0.69490 0.84597 1.13970
 C247 C 0.70985 0.84965 1.12709
 C248 C 0.71969 0.86616 1.13370
 C249 C 0.70998 0.87202 1.15064
 H250 H 0.71320 0.84108 1.11400
 H251 H 0.71349 0.88464 1.15979
 N252 N 0.65408 0.80522 1.13968
 N253 N 0.64024 0.80528 1.15345
 C254 C 0.62778 0.79014 1.15014
 C255 C 0.63415 0.78020 1.13355
 C256 C 0.65079 0.79002 1.12723
 H257 H 0.61493 0.78667 1.15897
 H258 H 0.65968 0.78645 1.11442
 H259 H 0.66883 0.82437 1.16838
 H260 H 0.65336 0.84106 1.15267
 N261 N 1.14022 1.34594 1.19434
 N262 N 1.15394 1.35969 1.19403
 C263 C 1.15078 1.37234 1.20910
 C264 C 1.13427 1.36609 1.21924
 C265 C 1.12789 1.34936 1.20959
 H266 H 1.15967 1.38519 1.21239
 H267 H 1.11515 1.34046 1.21328
 Cu268 Cu 1.17421 1.35980 1.17365
 Cu269 Cu 1.13905 1.32490 1.17473
 Cu270 Cu 1.17534 1.32480 1.13847
 N271 N 1.19459 1.35960 1.15338
 N272 N 1.19493 1.34581 1.13966
 C273 C 1.21016 1.34921 1.12731
 C274 C 1.21975 1.36596 1.13369
 C275 C 1.20961 1.37225 1.15021
 H276 H 1.21385 1.34030 1.11454
 H277 H 1.21285 1.38514 1.15907
 N278 N 1.15422 1.30484 1.13980
 N279 N 1.14039 1.30489 1.15361
 C280 C 1.12795 1.28973 1.15031
 C281 C 1.13430 1.27981 1.13371
 C282 C 1.15091 1.28965 1.12736
 H283 H 1.11510 1.28626 1.15915
 H284 H 1.15976 1.28610 1.11452
 H285 H 1.16888 1.32460 1.16836
 H286 H 1.15288 1.34028 1.15221
 N287 N 1.14008 0.84602 0.69439
 N288 N 1.15382 0.85974 0.69410
 C289 C 1.15065 0.87241 0.70916
 C290 C 1.13410 0.86620 0.71926
 C291 C 1.12772 0.84947 0.70961
 H292 H 1.15955 0.88524 0.71246
 H293 H 1.11497 0.84058 0.71328
 Cu294 Cu 1.17414 0.85981 0.67376
 Cu295 Cu 1.13894 0.82496 0.67479
 Cu296 Cu 1.17532 0.82480 0.63860
 N297 N 1.19456 0.85961 0.65350
 N298 N 1.19493 0.84582 0.63979
 C299 C 1.21014 0.84924 0.62743
 C300 C 1.21971 0.86602 0.63379
 C301 C 1.20955 0.87230 0.65031
 H302 H 1.21383 0.84034 0.61466
 H303 H 1.21275 0.88522 0.65915
 N304 N 1.15419 0.80484 0.63991
 N305 N 1.14033 0.80492 0.65368
 C306 C 1.12785 0.78979 0.65034
 C307 C 1.13422 0.77986 0.63375
 C308 C 1.15088 0.78966 0.62745
 H309 H 1.11496 0.78637 0.65913
 H310 H 1.15974 0.78611 0.61462
 H311 H 1.16877 0.82461 0.66847
 H312 H 1.15283 0.84029 0.65227
 N313 N 0.35950 0.65394 0.69460
 N314 N 0.34578 0.64020 0.69433
 C315 C 0.34900 0.62748 0.70937
 C316 C 0.36554 0.63371 0.71945
 C317 C 0.37189 0.65048 0.70980
 H318 H 0.34016 0.61459 0.71265
 H319 H 0.38465 0.65934 0.71344
 Cu320 Cu 0.32551 0.64011 0.67394
 Cu321 Cu 0.36066 0.67500 0.67494
 Cu322 Cu 0.32444 0.67502 0.63859
 N323 N 0.30518 0.64022 0.65361
 N324 N 0.30488 0.65397 0.63981
 C325 C 0.28971 0.65052 0.62741
 C326 C 0.28011 0.63376 0.63383
 C327 C 0.29019 0.62753 0.65044
 H328 H 0.28605 0.65940 0.61459
 H329 H 0.28694 0.61465 0.65935
 N330 N 0.34552 0.69503 0.63992
 N331 N 0.35931 0.69502 0.65377
 C332 C 0.37175 0.71017 0.65043
 C333 C 0.36544 0.72006 0.63376
 C334 C 0.34885 0.71020 0.62741
 H335 H 0.38459 0.71366 0.65927
 H336 H 0.34005 0.71370 0.61452
 H337 H 0.33086 0.67530 0.66847
 H338 H 0.34690 0.65959 0.65244
 N339 N 0.35931 0.15387 1.19444
 N340 N 0.34548 0.14024 1.19423
 C341 C 0.34874 0.12741 1.20917
 C342 C 0.36539 0.13349 1.21917
 C343 C 0.37177 0.15026 1.20954
 H344 H 0.33986 0.11454 1.21246
 H345 H 0.38461 0.15903 1.21313
 Cu346 Cu 0.32523 0.14019 1.17385
 Cu347 Cu 0.36044 0.17501 1.17488
 Cu348 Cu 0.32421 0.17510 1.13850
 N349 N 0.30491 0.14034 1.15353
 N350 N 0.30470 0.15399 1.13963
 C351 C 0.28962 0.15043 1.12716
 C352 C 0.28001 0.13369 1.13362
 C353 C 0.29000 0.12756 1.15030
 H354 H 0.28602 0.15924 1.11428
 H355 H 0.28673 0.11471 1.15925
 N356 N 0.34525 0.19516 1.13994
 N357 N 0.35902 0.19512 1.15380
 C358 C 0.37146 0.21029 1.15052
 C359 C 0.36517 0.22022 1.13387
 C360 C 0.34859 0.21037 1.12748
 H361 H 0.38431 0.21372 1.15936
 H362 H 0.33982 0.21388 1.11456
 H363 H 0.33068 0.17542 1.16834
 H364 H 0.34666 0.15966 1.15235
 N365 N 0.85952 0.65389 1.19442
 N366 N 0.84580 0.64014 1.19415
 C367 C 0.84905 0.62740 1.20917
 C368 C 0.86562 0.63360 1.21922
 C369 C 0.87195 0.65039 1.20958
 H370 H 0.84022 0.61450 1.21244
 H371 H 0.88473 0.65924 1.21319
 Cu372 Cu 0.82551 0.64009 1.17379
 Cu373 Cu 0.86066 0.67495 1.17479
 Cu374 Cu 0.82442 0.67501 1.13847
 N375 N 0.80515 0.64023 1.15349
 N376 N 0.80485 0.65397 1.13969
 C377 C 0.78967 0.65053 1.12730
 C378 C 0.78006 0.63378 1.13375
 C379 C 0.79015 0.62755 1.15034
 H380 H 0.78602 0.65940 1.11448
 H381 H 0.78690 0.61468 1.15926
 N382 N 0.84551 0.69500 1.13979
 N383 N 0.85929 0.69498 1.15364
 C384 C 0.87174 0.71014 1.15032
 C385 C 0.86543 0.72004 1.13366
 C386 C 0.84884 0.71018 1.12730
 H387 H 0.88457 0.71362 1.15917
 H388 H 0.84004 0.71370 1.11441
 H389 H 0.83086 0.67528 1.16834
 H390 H 0.84687 0.65957 1.15229
 N391 N 0.85937 0.15389 0.69444
 N392 N 0.84527 0.14054 0.69459
 C393 C 0.84851 0.12783 0.70963
 C394 C 0.86547 0.13363 0.71925
 C395 C 0.87203 0.15016 0.70934
 H396 H 0.83940 0.11521 0.71320
 H397 H 0.88512 0.15869 0.71261
 Cu398 Cu 0.82432 0.14070 0.67489
 Cu399 Cu 0.86056 0.17477 0.67470
 Cu400 Cu 0.82445 0.17481 0.63845
 N401 N 0.80465 0.14060 0.65390
 N402 N 0.80479 0.15394 0.63971
 C403 C 0.78990 0.15023 0.62705
 C404 C 0.78002 0.13374 0.63372
 C405 C 0.78965 0.12792 0.65073
 H406 H 0.78660 0.15877 0.61391
 H407 H 0.78610 0.11533 0.65993
 N408 N 0.84557 0.19472 0.63965
 N409 N 0.85934 0.19471 0.65350
 C410 C 0.87181 0.20985 0.65016
 C411 C 0.86552 0.21972 0.63348
 C412 C 0.84893 0.20987 0.62713
 H413 H 0.88462 0.21334 0.65904
 H414 H 0.84012 0.21338 0.61424
 H415 H 0.83070 0.17561 0.66838
 H416 H 0.84626 0.15889 0.65283
 N417 N 1.34662 0.35947 0.69462
 N418 N 1.36007 0.34542 0.69466
 C419 C 1.37276 0.34864 0.70968
 C420 C 1.36684 0.36551 0.71943
 C421 C 1.35026 0.37206 0.70959
 H422 H 1.38543 0.33954 0.71317
 H423 H 1.34164 0.38509 0.71297
 Cu424 Cu 1.35997 0.32453 0.67487
 Cu425 Cu 1.32569 0.36069 0.67495
 Cu426 Cu 1.32566 0.32448 0.63875
 N427 N 1.36005 0.30475 0.65396
 N428 N 1.34658 0.30479 0.63992
 C429 C 1.35019 0.28981 0.62731
 C430 C 1.36678 0.27999 0.63386
 C431 C 1.37275 0.28972 0.65074
 H432 H 1.34152 0.28643 0.61431
 H433 H 1.38541 0.28622 0.65984
 N434 N 1.30571 0.34564 0.64000
 N435 N 1.30573 0.35945 0.65380
 C436 C 1.29056 0.37193 0.65049
 C437 C 1.28066 0.36559 0.63388
 C438 C 1.29052 0.34896 0.62754
 H439 H 1.28706 0.38476 0.65934
 H440 H 1.28698 0.34011 0.61472
 H441 H 1.32500 0.33082 0.66869
 H442 H 1.34147 0.34645 0.65296
 N443 N 1.34647 0.85925 1.19532
 N444 N 1.36055 0.84584 1.19484
 C445 C 1.37321 0.84918 1.20988
 C446 C 1.36656 0.86549 1.22014
 C447 C 1.34965 0.87157 1.21061
 H448 H 1.38630 0.84058 1.21302
 H449 H 1.34052 0.88418 1.21428
 Cu450 Cu 1.36082 0.82556 1.17444
 Cu451 Cu 1.32550 0.86057 1.17565
 Cu452 Cu 1.32902 0.82768 1.13640
 N453 N 1.36078 0.80544 1.15387
 N454 N 1.34817 0.80638 1.13908
 C455 C 1.35143 0.79119 1.12666
 C456 C 1.36681 0.78017 1.13417
 C457 C 1.37251 0.78951 1.15138
 H458 H 1.34341 0.78858 1.11305
 H459 H 1.38441 0.78519 1.16115
 N460 N 1.30759 0.84732 1.13878
 N461 N 1.30603 0.85956 1.15394
 C462 C 1.28999 0.87107 1.15131
 C463 C 1.28114 0.86573 1.13377
 C464 C 1.29254 0.85067 1.12616
 H465 H 1.28521 0.88265 1.16125
 H466 H 1.29010 0.84289 1.11240
 H467 H 1.32628 0.83117 1.16650
 H468 H 1.34281 0.84912 1.15363
 N469 N 0.84620 0.35997 1.19530
 N470 N 0.85983 0.34607 1.19513
 C471 C 0.87249 0.34920 1.21019
 C472 C 0.86636 0.36586 1.22018
 C473 C 0.84970 0.37239 1.21046
 H474 H 0.88529 0.34021 1.21353
 H475 H 0.84094 0.38529 1.21398
 Cu476 Cu 0.85996 0.32568 1.17485
 Cu477 Cu 0.82529 0.36127 1.17555
 Cu478 Cu 0.82531 0.32507 1.13922
 N479 N 0.85980 0.30543 1.15442
 N480 N 0.84620 0.30532 1.14050
 C481 C 0.84967 0.29016 1.12808
 C482 C 0.86627 0.28035 1.13461
 C483 C 0.87240 0.29031 1.15130
 H484 H 0.84091 0.28665 1.11518
 H485 H 0.88516 0.28690 1.16031
 N486 N 0.80543 0.34630 1.14045
 N487 N 0.80540 0.36008 1.15430
 C488 C 0.79023 0.37256 1.15096
 C489 C 0.78039 0.36627 1.13429
 C490 C 0.79029 0.34966 1.12794
 H491 H 0.78667 0.38536 1.15985
 H492 H 0.78678 0.34083 1.11509
 H493 H 0.82487 0.33142 1.16913
 H494 H 0.84084 0.34734 1.15320
 N495 N 0.84664 0.86056 0.69399
 N496 N 0.86040 0.84682 0.69376
 C497 C 0.87249 0.84949 0.70938
 C498 C 0.86588 0.86573 0.71976
 C499 C 0.84951 0.87246 0.70969
 H500 H 0.88528 0.84054 0.71280
 H501 H 0.84064 0.88527 0.71327
 Cu502 Cu 0.86165 0.82696 0.67291
 Cu503 Cu 0.82699 0.86273 0.67316
 Cu504 Cu 0.82701 0.82674 0.63709
 N505 N 0.86036 0.80608 0.65308
 N506 N 0.84663 0.80588 0.63931
 C507 C 0.84948 0.79016 0.62744
 C508 C 0.86580 0.78005 0.63421
 C509 C 0.87241 0.79043 0.65045
 H510 H 0.84061 0.78659 0.61462
 H511 H 0.88517 0.78699 0.65944
 N512 N 0.80618 0.84698 0.63909
 N513 N 0.80617 0.86076 0.65293
 C514 C 0.79045 0.87268 0.65018
 C515 C 0.78024 0.86603 0.63388
 C516 C 0.79048 0.84976 0.62717
 H517 H 0.78687 0.88544 0.65912
 H518 H 0.78691 0.84087 0.61437
 H519 H 0.82679 0.83280 0.66707
 H520 H 0.84268 0.84878 0.65107
 N521 N 0.65394 0.63989 0.69444
 N522 N 0.64063 0.65406 0.69456
 C523 C 0.62797 0.65090 0.70962
 C524 C 0.63375 0.63393 0.71932
 C525 C 0.65023 0.62726 0.70941
 H526 H 0.61542 0.66013 0.71321
 H527 H 0.65878 0.61417 0.71276
 Cu528 Cu 0.64081 0.67506 0.67485
 Cu529 Cu 0.67486 0.63870 0.67476
 Cu530 Cu 0.67503 0.67506 0.63862
 N531 N 0.64077 0.69486 0.65393
 N532 N 0.65417 0.69479 0.63983
 C533 C 0.65050 0.70976 0.62719
 C534 C 0.63396 0.71962 0.63378
 C535 C 0.62809 0.70989 0.65071
 H536 H 0.65908 0.71312 0.61411
 H537 H 0.61545 0.71340 0.65984
 N538 N 0.69491 0.65385 0.63987
 N539 N 0.69483 0.63997 0.65363
 C540 C 0.70998 0.62747 0.65032
 C541 C 0.71993 0.63387 0.63374
 C542 C 0.71011 0.65056 0.62743
 H543 H 0.71344 0.61458 0.65915
 H544 H 0.71370 0.65948 0.61463
 H545 H 0.67571 0.66862 0.66853
 H546 H 0.65910 0.65317 0.65282
 N547 N 0.65386 1.13971 1.19515
 N548 N 0.64050 1.15385 1.19523
 C549 C 0.62779 1.15066 1.21025
 C550 C 0.63362 1.13370 1.21995
 C551 C 0.65015 1.12706 1.21011
 H552 H 0.61521 1.15986 1.21378
 H553 H 0.65873 1.11398 1.21347
 Cu554 Cu 0.64069 1.17483 1.17549
 Cu555 Cu 0.67479 1.13853 1.17548
 Cu556 Cu 0.67493 1.17484 1.13929
 N557 N 0.64064 1.19462 1.15457
 N558 N 0.65405 1.19456 1.14047
 C559 C 0.65039 1.20953 1.12783
 C560 C 0.63384 1.21938 1.13441
 C561 C 0.62796 1.20965 1.15134
 H562 H 0.65898 1.21289 1.11476
 H563 H 0.61532 1.21316 1.16046
 N564 N 0.69483 1.15365 1.14055
 N565 N 0.69478 1.13980 1.15436
 C566 C 0.70994 1.12731 1.15105
 C567 C 0.71986 1.13368 1.13444
 C568 C 0.71002 1.15034 1.12810
 H569 H 0.71342 1.11445 1.15991
 H570 H 0.71358 1.15923 1.11528
 H571 H 0.67560 1.16843 1.16921
 H572 H 0.65902 1.15293 1.15352
 N573 N 0.15363 0.64061 1.19482
 N574 N 0.14054 0.65500 1.19516
 C575 C 0.12707 0.65118 1.20935
 C576 C 0.13216 0.63353 1.21828
 C577 C 0.14905 0.62719 1.20883
 H578 H 0.11479 0.66070 1.21314
 H579 H 0.15763 0.61411 1.21218
 Cu580 Cu 0.14289 0.67777 1.17763
 Cu581 Cu 0.17632 0.64107 1.17719
 Cu582 Cu 0.17639 0.67737 1.14095
 N583 N 0.14059 0.69534 1.15486
 N584 N 0.15370 0.69502 1.14048
 C585 C 0.14915 0.70904 1.12706
 C586 C 0.13224 0.71848 1.13337
 C587 C 0.12712 0.70953 1.15102
 H588 H 0.15774 0.71239 1.11398
 H589 H 0.11481 0.71329 1.16051
 N590 N 0.19554 0.65542 1.14144
 N591 N 0.19551 0.64157 1.15526
 C592 C 0.21008 0.62855 1.15141
 C593 C 0.21961 0.63458 1.13444
 C594 C 0.21013 0.65158 1.12844
 H595 H 0.21345 0.61561 1.16020
 H596 H 0.21355 0.66039 1.11552
 H597 H 0.17799 0.67074 1.17064
 H598 H 0.16060 0.65576 1.15552
 N599 N 0.15332 1.14010 0.69470
 N600 N 0.13995 1.15423 0.69480
 C601 C 0.12732 1.15108 0.70991
 C602 C 0.13321 1.13414 0.71962
 C603 C 0.14969 1.12749 0.70971
 H604 H 0.11477 1.16030 0.71350
 H605 H 0.15831 1.11444 0.71307
 Cu606 Cu 0.14010 1.17519 0.67501
 Cu607 Cu 0.17424 1.13893 0.67500
 Cu608 Cu 0.17438 1.17528 0.63886
 N609 N 0.14006 1.19506 0.65410
 N610 N 0.15350 1.19501 0.64004
 C611 C 0.14989 1.21001 0.62741
 C612 C 0.13334 1.21986 0.63398
 C613 C 0.12739 1.21011 0.65089
 H614 H 0.15853 1.21338 0.61437
 H615 H 0.11474 1.21362 0.66001
 N616 N 0.19430 1.15409 0.64009
 N617 N 0.19422 1.14020 0.65386
 C618 C 0.20939 1.12773 0.65055
 C619 C 0.21935 1.13413 0.63398
 C620 C 0.20951 1.15081 0.62766
 H621 H 0.21286 1.11485 0.65940
 H622 H 0.21310 1.15974 0.61487
 H623 H 0.17503 1.16883 0.66878
 H624 H 0.15850 1.15333 0.65304
 N625 N 1.34572 0.64148 0.30532
 N626 N 1.35947 0.65519 0.30561
 C627 C 1.37227 0.65185 0.29071
 C628 C 1.36612 0.63523 0.28069
 C629 C 1.34929 0.62896 0.29026
 H630 H 1.38519 0.66067 0.28749
 H631 H 1.34051 0.61610 0.28673
 Cu632 Cu 1.35944 0.67587 0.32561
 Cu633 Cu 1.32482 0.64016 0.32505
 Cu634 Cu 1.32814 0.67309 0.36411
 N635 N 1.35960 0.69555 0.34662
 N636 N 1.34725 0.69441 0.36162
 C637 C 1.35082 0.70937 0.37425
 C638 C 1.36616 0.72038 0.36666
 C639 C 1.37146 0.71132 0.34918
 H640 H 1.34303 0.71186 0.38801
 H641 H 1.38322 0.71571 0.33928
 N642 N 1.30681 0.65347 0.36177
 N643 N 1.30537 0.64114 0.34669
 C644 C 1.28945 0.62954 0.34936
 C645 C 1.28054 0.63491 0.36687
 C646 C 1.29179 0.65008 0.37440
 H647 H 1.28483 0.61783 0.33952
 H648 H 1.28929 0.65791 0.38813
 H649 H 1.32512 0.66956 0.33395
 H650 H 1.34237 0.65197 0.34656
 N651 N 1.34554 1.14085 0.80499
 N652 N 1.35990 1.15388 0.80590
 C653 C 1.37262 1.15056 0.79093
 C654 C 1.36579 1.13464 0.78024
 C655 C 1.34864 1.12878 0.78947
 H656 H 1.38595 1.15889 0.78812
 H657 H 1.33934 1.11644 0.78542
 Cu658 Cu 1.36074 1.17374 0.82667
 Cu659 Cu 1.32455 1.13969 0.82462
 Cu660 Cu 1.32806 1.17223 0.86405
 N661 N 1.36000 1.19418 0.84691
 N662 N 1.34712 1.19352 0.86147
 C663 C 1.35021 1.20891 0.87370
 C664 C 1.36579 1.21971 0.86631
 C665 C 1.37172 1.21007 0.84935
 H666 H 1.34197 1.21182 0.88710
 H667 H 1.38383 1.21416 0.83976
 N668 N 1.30656 1.15288 0.86138
 N669 N 1.30501 1.14074 0.84616
 C670 C 1.28898 1.12925 0.84871
 C671 C 1.28012 1.13454 0.86627
 C672 C 1.29151 1.14951 0.87397
 H673 H 1.28429 1.11766 0.83878
 H674 H 1.28911 1.15719 0.88779
 H675 H 1.32592 1.16898 0.83381
 H676 H 1.34176 1.15048 0.84687
 N677 N 0.84608 0.64006 0.80554
 N678 N 0.85980 0.65381 0.80581
 C679 C 0.87248 0.65062 0.79077
 C680 C 0.86629 0.63405 0.78069
 C681 C 0.84955 0.62767 0.79034
 H682 H 0.88533 0.65951 0.78747
 H683 H 0.84069 0.61490 0.78669
 Cu684 Cu 0.85984 0.67414 0.82615
 Cu685 Cu 0.82503 0.63891 0.82516
 Cu686 Cu 0.82490 0.67526 0.86137
 N687 N 0.85968 0.69454 0.84643
 N688 N 0.84591 0.69487 0.86017
 C689 C 0.84933 0.71008 0.87254
 C690 C 0.86609 0.71968 0.86616
 C691 C 0.87235 0.70955 0.84961
 H692 H 0.84044 0.71375 0.88531
 H693 H 0.88525 0.71278 0.84074
 N694 N 0.80494 0.65413 0.86006
 N695 N 0.80500 0.64028 0.84627
 C696 C 0.78985 0.62782 0.84961
 C697 C 0.77992 0.63419 0.86621
 C698 C 0.78975 0.65083 0.87252
 H699 H 0.78640 0.61495 0.84080
 H700 H 0.78621 0.65968 0.88535
 H701 H 0.82468 0.66875 0.83152
 H702 H 0.84036 0.65276 0.84766
 N703 N 0.84587 1.14014 0.30543
 N704 N 0.85921 1.15426 0.30529
 C705 C 0.87192 1.15101 0.29029
 C706 C 0.86614 1.13404 0.28066
 C707 C 0.84961 1.12747 0.29055
 H708 H 0.88453 1.16014 0.28674
 H709 H 0.84109 1.11437 0.28727
 Cu710 Cu 0.85906 1.17522 0.32499
 Cu711 Cu 0.82500 1.13896 0.32514
 Cu712 Cu 0.82499 1.17513 0.36136
 N713 N 0.85916 1.19493 0.34595
 N714 N 0.84584 1.19481 0.36012
 C715 C 0.84955 1.20971 0.37277
 C716 C 0.86604 1.21958 0.36613
 C717 C 0.87184 1.20993 0.34913
 H718 H 0.84103 1.21301 0.38590
 H719 H 0.88442 1.21347 0.33995
 N720 N 0.80509 1.15399 0.36014
 N721 N 0.80509 1.14021 0.34631
 C722 C 0.78992 1.12777 0.34962
 C723 C 0.78004 1.13410 0.36625
 C724 C 0.78992 1.15069 0.37261
 H725 H 0.78640 1.11497 0.34074
 H726 H 0.78639 1.15954 0.38546
 H727 H 0.82418 1.16885 0.33143
 H728 H 0.84086 1.15326 0.34703
 N729 N 0.65415 0.35909 0.30483
 N730 N 0.63982 0.34600 0.30570
 C731 C 0.62709 0.34935 0.29072
 C732 C 0.63390 0.36534 0.28008
 C733 C 0.65103 0.37123 0.28933
 H734 H 0.61379 0.34098 0.28790
 H735 H 0.66029 0.38363 0.28534
 Cu736 Cu 0.63905 0.32605 0.32648
 Cu737 Cu 0.67512 0.36021 0.32451
 Cu738 Cu 0.67168 0.32750 0.36391
 N739 N 0.63972 0.30558 0.34678
 N740 N 0.65258 0.30621 0.36136
 C741 C 0.64946 0.29082 0.37362
 C742 C 0.63388 0.28004 0.36622
 C743 C 0.62797 0.28970 0.34923
 H744 H 0.65768 0.28790 0.38705
 H745 H 0.61587 0.28564 0.33962
 N746 N 0.69318 0.34689 0.36126
 N747 N 0.69469 0.35912 0.34607
 C748 C 0.71070 0.37064 0.34864
 C749 C 0.71959 0.36531 0.36620
 C750 C 0.70823 0.35026 0.37386
 H751 H 0.71536 0.38230 0.33873
 H752 H 0.71062 0.34253 0.38768
 H753 H 0.67383 0.33091 0.33371
 H754 H 0.65791 0.34929 0.34679
 N755 N 0.65391 0.86020 0.80580
 N756 N 0.64068 0.84599 0.80561
 C757 C 0.62805 0.84914 0.79051
 C758 C 0.63378 0.86615 0.78087
 C759 C 0.65019 0.87285 0.79085
 H760 H 0.61557 0.83989 0.78685
 H761 H 0.65868 0.88597 0.78754
 Cu762 Cu 0.64089 0.82495 0.82527
 Cu763 Cu 0.67478 0.86138 0.82550
 Cu764 Cu 0.67500 0.82502 0.86162
 N765 N 0.64085 0.80520 0.84624
 N766 N 0.65419 0.80529 0.86039
 C767 C 0.65052 0.79034 0.87303
 C768 C 0.63404 0.78046 0.86640
 C769 C 0.62820 0.79017 0.84942
 H770 H 0.65907 0.78700 0.88614
 H771 H 0.61561 0.78664 0.84025
 N772 N 0.69484 0.84622 0.86040
 N773 N 0.69473 0.86011 0.84664
 C774 C 0.70989 0.87256 0.84991
 C775 C 0.71989 0.86612 0.86646
 C776 C 0.71009 0.84945 0.87279
 H777 H 0.71337 0.88540 0.84104
 H778 H 0.71374 0.84048 0.88554
 H779 H 0.67574 0.83147 0.83170
 H780 H 0.65899 0.84688 0.84737
 N781 N 0.15343 0.35972 0.80652
 N782 N 0.14021 0.34551 0.80637
 C783 C 0.12771 0.34847 0.79112
 C784 C 0.13347 0.36544 0.78140
 C785 C 0.14978 0.37227 0.79147
 H786 H 0.11530 0.33916 0.78744
 H787 H 0.15827 0.38539 0.78814
 Cu788 Cu 0.14051 0.32510 0.82666
 Cu789 Cu 0.17452 0.36097 0.82618
 Cu790 Cu 0.17786 0.32136 0.85884
 N791 N 0.14057 0.30477 0.84705
 N792 N 0.15527 0.30350 0.85973
 C793 C 0.15187 0.28847 0.87236
 C794 C 0.13411 0.27999 0.86723
 C795 C 0.12727 0.29055 0.85116
 H796 H 0.16154 0.28413 0.88436
 H797 H 0.11368 0.28808 0.84316
 N798 N 0.19631 0.34389 0.85921
 N799 N 0.19482 0.35911 0.84701
 C800 C 0.20914 0.37222 0.85129
 C801 C 0.22001 0.36486 0.86688
 C802 C 0.21158 0.34695 0.87161
 H803 H 0.21149 0.38611 0.84372
 H804 H 0.21610 0.33703 0.88333
 H805 H 0.17583 0.33109 0.82961
 H806 H 0.16101 0.34459 0.84860
 N807 N 0.15482 0.85859 0.30533
 N808 N 0.14056 0.84544 0.30608
 C809 C 0.12705 0.84977 0.29209
 C810 C 0.13329 0.86645 0.28216
 C811 C 0.15094 0.87169 0.29081
 H812 H 0.11387 0.84127 0.28913
 H813 H 0.16039 0.88390 0.28670
 Cu814 Cu 0.14139 0.82334 0.32455
 Cu815 Cu 0.17772 0.85720 0.32253
 Cu816 Cu 0.17383 0.82526 0.36247
 N817 N 0.14053 0.80457 0.34638
 N818 N 0.15297 0.80558 0.36130
 C819 C 0.14895 0.79101 0.37429
 C820 C 0.13315 0.78045 0.36706
 C821 C 0.12810 0.78931 0.34938
 H822 H 0.15697 0.78825 0.38787
 H823 H 0.11629 0.78502 0.33950
 N824 N 0.19405 0.84605 0.36075
 N825 N 0.19578 0.85791 0.34530
 C826 C 0.21110 0.87023 0.34827
 C827 C 0.21931 0.86581 0.36639
 C828 C 0.20829 0.85046 0.37395
 H829 H 0.21584 0.88162 0.33809
 H830 H 0.21055 0.84305 0.38797
 H831 H 0.17648 0.82792 0.33252
 H832 H 0.16003 0.84641 0.34477
 O833 O 1.07148 1.01891 1.09843
 O834 O 1.09449 1.01904 1.12153
 C835 C 1.07848 1.02583 1.11443
 C836 C 1.06825 1.04238 1.12451
 C837 C 1.07583 1.05023 1.14220
 H838 H 1.08883 1.04378 1.14899
 O839 O 0.92888 0.98058 1.09868
 O840 O 0.90592 0.98057 1.12182
 C841 C 0.92193 0.97376 1.11475
 C842 C 0.93223 0.95733 1.12498
 C843 C 0.92483 0.94970 1.14286
 H844 H 0.91191 0.95626 1.14969
 O845 O 1.01910 1.09842 1.07125
 O846 O 1.01913 1.12150 1.09427
 C847 C 1.02586 1.11448 1.07819
 C848 C 1.04216 1.12473 1.06779
 C849 C 1.04971 1.14261 1.07512
 H850 H 1.04316 1.14946 1.08805
 O851 O 0.98118 0.90138 1.07160
 O852 O 0.98106 0.87826 1.09464
 C853 C 0.97435 0.88533 1.07854
 C854 C 0.95803 0.87517 1.06812
 C855 C 0.95048 0.85724 1.07540
 H856 H 0.95702 0.85032 1.08832
 O857 O 1.09819 1.07125 1.01919
 O858 O 1.12126 1.09422 1.01927
 C859 C 1.11422 1.07817 1.02604
 C860 C 1.12443 1.06776 1.04242
 C861 C 1.14223 1.07514 1.05009
 H862 H 1.14900 1.08814 1.04362
 O863 O 0.90176 0.92862 1.01948
 O864 O 0.87873 0.90561 1.01954
 C865 C 0.88574 0.92164 1.02632
 C866 C 0.87553 0.93198 1.04271
 C867 C 0.85761 0.92473 1.05025
 H868 H 0.85074 0.91185 1.04367
 O869 O 0.98077 1.07128 1.09855
 O870 O 0.98080 1.09427 1.12167
 C871 C 0.97404 1.07823 1.11466
 C872 C 0.95776 1.06787 1.12498
 C873 C 0.95027 1.07517 1.14295
 H874 H 0.95684 1.08806 1.14979
 O875 O 1.01959 0.92831 1.09890
 O876 O 1.01954 0.90529 1.12204
 C877 C 1.02631 0.92134 1.11502
 C878 C 1.04258 0.93172 1.12532
 C879 C 1.05007 0.92449 1.14333
 H880 H 1.04351 0.91160 1.15024
 O881 O 1.09858 0.98006 1.07166
 O882 O 1.12161 0.98011 1.09473
 C883 C 1.11460 0.97324 1.07871
 C884 C 1.12479 0.95675 1.06848
 C885 C 1.14249 0.94894 1.07604
 H886 H 1.14925 0.95537 1.08906
 O887 O 0.90181 1.01926 1.07158
 O888 O 0.87878 1.01928 1.09466
 C889 C 0.88577 1.02605 1.07856
 C890 C 0.87549 1.04240 1.06818
 C891 C 0.85762 1.04996 1.07555
 H892 H 0.85083 1.04342 1.08853
 O893 O 0.92836 1.09853 1.01919
 O894 O 0.90541 1.12167 1.01924
 C895 C 0.92142 1.11458 1.02603
 C896 C 0.93176 1.12472 1.04245
 C897 C 0.92444 1.14260 1.05011
 H898 H 0.91152 1.14948 1.04359
 O899 O 1.07159 0.90107 1.01954
 O900 O 1.09453 0.87793 1.01941
 C901 C 1.07855 0.88498 1.02630
 C902 C 1.06829 0.87475 1.04276
 C903 C 1.07559 0.85681 1.05034
 H904 H 1.08844 0.84991 1.04372
 O905 O 0.92881 1.01919 1.09874
 O906 O 0.90586 1.01921 1.12189
 C907 C 0.92187 1.02598 1.11483
 C908 C 0.93222 1.04231 1.12506
 C909 C 0.92495 1.04986 1.14302
 H910 H 0.91207 1.04332 1.14991
 O911 O 1.07150 0.98030 1.09876
 O912 O 1.09446 0.98040 1.12190
 C913 C 1.07844 0.97360 1.11491
 C914 C 1.06809 0.95732 1.12528
 C915 C 1.07533 0.94985 1.14330
 H916 H 1.08819 0.95644 1.15017
 O917 O 1.01972 0.90121 1.07185
 O918 O 1.01966 0.87810 1.09490
 C919 C 1.02648 0.88513 1.07884
 C920 C 1.04283 0.87485 1.06849
 C921 C 1.05038 0.85692 1.07583
 H922 H 1.04384 0.85009 1.08879
 O923 O 0.98055 1.09830 1.07135
 O924 O 0.98057 1.12135 1.09440
 C925 C 0.97375 1.11434 1.07835
 C926 C 0.95735 1.12459 1.06805
 C927 C 0.94980 1.14247 1.07544
 H928 H 0.95638 1.14927 1.08838
 O929 O 0.90151 1.07136 1.01919
 O930 O 0.87846 1.09441 1.01929
 C931 C 0.88550 1.07834 1.02606
 C932 C 0.87534 1.06797 1.04249
 C933 C 0.85747 1.07528 1.05011
 H934 H 0.85057 1.08818 1.04353
 O935 O 1.09863 0.92805 1.01953
 O936 O 1.12166 0.90499 1.01943
 C937 C 1.11465 0.92100 1.02632
 C938 C 1.12483 0.93120 1.04282
 C939 C 1.14253 0.92364 1.05062
 H940 H 1.14932 0.91066 1.04414
 O941 O 0.98103 0.92832 1.09878
 O942 O 0.98093 0.90528 1.12190
 C943 C 0.97417 0.92133 1.11483
 C944 C 0.95777 0.93168 1.12502
 C945 C 0.95010 0.92429 1.14289
 H946 H 0.95659 0.91133 1.14975
 O947 O 1.01934 1.07127 1.09828
 O948 O 1.01940 1.09428 1.12136
 C949 C 1.02621 1.07827 1.11430
 C950 C 1.04270 1.06802 1.12444
 C951 C 1.05054 1.07562 1.14213
 H952 H 1.04411 1.08866 1.14886
 O953 O 0.90178 0.98067 1.07167
 O954 O 0.87873 0.98065 1.09474
 C955 C 0.88575 0.97388 1.07866
 C956 C 0.87552 0.95755 1.06831
 C957 C 0.85761 0.95005 1.07561
 H958 H 0.85074 0.95664 1.08852
 O959 O 1.09844 1.01871 1.07131
 O960 O 1.12151 1.01880 1.09434
 C961 C 1.11445 1.02556 1.07826
 C962 C 1.12457 1.04200 1.06792
 C963 C 1.14238 1.04962 1.07532
 H964 H 1.14925 1.04304 1.08824
 O965 O 0.92896 0.90170 1.01938
 O966 O 0.90601 0.87862 1.01945
 C967 C 0.92205 0.88563 1.02619
 C968 C 0.93245 0.87533 1.04252
 C969 C 0.92516 0.85740 1.05004
 H970 H 0.91225 0.85060 1.04347
 O971 O 1.07121 1.09840 1.01908
 O972 O 1.09420 1.12144 1.01916
 C973 C 1.07815 1.11444 1.02589
 C974 C 1.06775 1.12469 1.04221
 C975 C 1.07506 1.14257 1.04979
 H976 H 1.08799 1.14940 1.04325
 Cu977 Cu 1.08270 0.99946 1.08273
 Cu978 Cu 1.11033 0.99959 1.11043
 Cu979 Cu 0.91762 0.99993 1.08286
 Cu980 Cu 0.89002 0.99993 1.11060
 Cu981 Cu 0.99993 1.08251 1.08255
 Cu982 Cu 0.99997 1.11016 1.11025
 Cu983 Cu 1.00040 0.91711 1.08298
 Cu984 Cu 1.00029 0.88941 1.11069
 C985 C 1.05155 1.05127 1.11585
 H986 H 1.04581 1.04551 1.10205
 C987 C 1.06703 1.06678 1.15093
 C988 C 0.94884 0.94834 1.11629
 H989 H 0.95445 0.95394 1.10235
 C990 C 0.93371 0.93326 1.15176
 C991 C 1.05116 1.11600 1.05119
 H992 H 1.04563 1.10204 1.04564
 C993 C 1.06609 1.15147 1.06617
 C994 C 0.94903 0.88400 1.05154
 H995 H 0.95454 0.89798 1.04603
 C996 C 0.93411 0.84843 1.06640
 C997 C 1.11581 1.05105 1.05132
 H998 H 1.10192 1.04546 1.04572
 C999 C 1.15115 1.06611 1.06645
 C1000 C 0.88426 0.94853 1.05172
 H1001 H 0.89823 0.95403 1.04620
 C1002 C 0.84870 0.93372 1.06662
 C1003 C 0.94876 1.05130 1.11627
 H1004 H 0.95425 1.04578 1.10226
 C1005 C 0.93394 1.06621 1.15190
 C1006 C 1.05157 0.94828 1.11653
 H1007 H 1.04609 0.95375 1.10248
 C1008 C 1.06636 0.93351 1.15227
 C1009 C 1.11619 0.94789 1.05174
 H1010 H 1.10240 0.95363 1.04600
 C1011 C 1.15129 0.93247 1.06715
 C1012 C 0.88413 1.05139 1.05150
 H1013 H 0.89807 1.04585 1.04592
 C1014 C 0.84867 1.06632 1.06657
 C1015 C 0.94835 1.11594 1.05142
 H1016 H 0.95388 1.10200 1.04582
 C1017 C 0.93342 1.15141 1.06654
 C1018 C 1.05177 0.88353 1.05182
 H1019 H 1.04623 0.89751 1.04626
 C1020 C 1.06668 0.84795 1.06681
 O1021 O 1.07136 0.98083 0.90138
 O1022 O 1.09436 0.98072 0.87828
 C1023 C 1.07832 0.97400 0.88532
 C1024 C 1.06798 0.95764 0.87510
 C1025 C 1.07537 0.95000 0.85724
 H1026 H 1.08830 0.95649 0.85040
 O1027 O 0.92861 1.01956 0.90158
 O1028 O 0.90567 1.01959 0.87842
 C1029 C 0.92170 1.02633 0.88546
 C1030 C 0.93210 1.04260 0.87514
 C1031 C 0.92483 1.05009 0.85714
 H1032 H 0.91193 1.04355 0.85031
 O1033 O 0.98077 1.09854 0.92836
 O1034 O 0.98067 1.12162 0.90527
 C1035 C 0.97390 1.11456 0.92134
 C1036 C 0.95745 1.12473 0.93164
 C1037 C 0.94972 1.14252 0.92415
 H1038 H 0.95622 1.14933 0.91116
 O1039 O 1.01927 0.90165 0.92862
 O1040 O 1.01927 0.87862 0.90555
 C1041 C 1.02603 0.88559 0.92163
 C1042 C 1.04232 0.87526 0.93201
 C1043 C 1.04973 0.85729 0.92472
 H1044 H 1.04312 0.85047 0.91181
 O1045 O 1.09843 0.92830 0.98083
 O1046 O 1.12148 0.90526 0.98067
 C1047 C 1.11443 0.92134 0.97394
 C1048 C 1.12461 0.93174 0.95753
 C1049 C 1.14253 0.92448 0.94996
 H1050 H 1.14941 0.91157 0.95651
 O1051 O 0.90121 1.07166 0.98054
 O1052 O 0.87814 1.09469 0.98059
 C1053 C 0.88514 1.07865 0.97379
 C1054 C 0.87486 1.06827 0.95747
 C1055 C 0.85675 1.07533 0.95014
 H1056 H 0.84979 1.08812 0.95681
 O1057 O 1.01945 1.07159 0.90126
 O1058 O 1.01941 1.09462 0.87812
 C1059 C 1.02624 1.07859 0.88518
 C1060 C 1.04267 1.06831 0.87497
 C1061 C 1.05034 1.07577 0.85713
 H1062 H 1.04381 1.08872 0.85030
 O1063 O 0.98069 0.92882 0.90158
 O1064 O 0.98067 0.90585 0.87844
 C1065 C 0.97386 0.92186 0.88552
 C1066 C 0.95741 0.93213 0.87535
 C1067 C 0.94963 0.92459 0.85762
 H1068 H 0.95611 0.91160 0.85085
 O1069 O 1.09849 1.01928 0.92845
 O1070 O 1.12155 1.01925 0.90541
 C1071 C 1.11453 1.02605 0.92146
 C1072 C 1.12472 1.04242 0.93178
 C1073 C 1.14248 1.05012 0.92432
 H1074 H 1.14930 1.04363 0.91134
 O1075 O 0.90151 0.98107 0.92873
 O1076 O 0.87849 0.98102 0.90564
 C1077 C 0.88550 0.97426 0.92173
 C1078 C 0.87533 0.95786 0.93209
 C1079 C 0.85754 0.95019 0.92468
 H1080 H 0.85070 0.95672 0.91171
 O1081 O 1.07136 1.09846 0.98043
 O1082 O 1.09434 1.12151 0.98049
 C1083 C 1.07834 1.11452 0.97365
 C1084 C 1.06804 1.12481 0.95724
 C1085 C 1.07536 1.14273 0.94970
 H1086 H 1.08825 1.14954 0.95630
 O1087 O 0.92870 0.90162 0.98072
 O1088 O 0.90575 0.87853 0.98077
 C1089 C 0.92175 0.88557 0.97393
 C1090 C 0.93205 0.87535 0.95752
 C1091 C 0.92471 0.85749 0.94992
 H1092 H 0.91180 0.85065 0.95647
 O1093 O 0.92846 0.98096 0.90158
 O1094 O 0.90551 0.98095 0.87842
 C1095 C 0.92151 0.97413 0.88552
 C1096 C 0.93179 0.95768 0.87536
 C1097 C 0.92426 0.94989 0.85763
 H1098 H 0.91124 0.95632 0.85086
 O1099 O 1.07152 1.01945 0.90129
 O1100 O 1.09452 1.01939 0.87818
 C1101 C 1.07852 1.02625 0.88522
 C1102 C 1.06826 1.04271 0.87498
 C1103 C 1.07570 1.05044 0.85715
 H1104 H 1.08866 1.04394 0.85034
 O1105 O 0.98074 0.90161 0.92855
 O1106 O 0.98072 0.87858 0.90547
 C1107 C 0.97395 0.88558 0.92155
 C1108 C 0.95761 0.87535 0.93190
 C1109 C 0.95003 0.85748 0.92454
 H1110 H 0.95657 0.85065 0.91160
 O1111 O 1.01936 1.09868 0.92828
 O1112 O 1.01930 1.12179 0.90522
 C1113 C 1.02612 1.11474 0.92128
 C1114 C 1.04248 1.12494 0.93162
 C1115 C 1.05005 1.14286 0.92431
 H1116 H 1.04350 1.14976 0.91139
 O1117 O 0.90175 0.92880 0.98082
 O1118 O 0.87873 0.90578 0.98085
 C1119 C 0.88571 0.92184 0.97405
 C1120 C 0.87545 0.93221 0.95768
 C1121 C 0.85766 0.92478 0.95002
 H1122 H 0.85091 0.91178 0.95653
 O1123 O 1.09836 1.07135 0.98052
 O1124 O 1.12142 1.09433 0.98057
 C1125 C 1.11441 1.07831 0.97376
 C1126 C 1.12465 1.06800 0.95737
 C1127 C 1.14241 1.07545 0.94968
 H1128 H 1.14918 1.08843 0.95617
 O1129 O 1.01927 0.92873 0.90147
 O1130 O 1.01928 0.90577 0.87833
 C1131 C 1.02606 0.92178 0.88538
 C1132 C 1.04242 0.93210 0.87513
 C1133 C 1.05006 0.92470 0.85727
 H1134 H 1.04355 0.91176 0.85045
 O1135 O 0.98089 1.07151 0.90127
 O1136 O 0.98079 1.09451 0.87810
 C1137 C 0.97407 1.07846 0.88518
 C1138 C 0.95772 1.06810 0.87498
 C1139 C 0.95020 1.07535 0.85699
 H1140 H 0.95677 1.08820 0.85004
 O1141 O 0.90133 1.01966 0.92847
 O1142 O 0.87830 1.01965 0.90539
 C1143 C 0.88527 1.02643 0.92147
 C1144 C 0.87494 1.04271 0.93186
 C1145 C 0.85683 1.04998 0.92477
 H1146 H 0.84991 1.04330 0.91196
 O1147 O 1.09835 0.98068 0.92852
 O1148 O 1.12143 0.98061 0.90550
 C1149 C 1.11438 0.97383 0.92156
 C1150 C 1.12458 0.95743 0.93194
 C1151 C 1.14251 0.94993 0.92465
 H1152 H 1.14939 0.95657 0.91177
 O1153 O 1.07141 0.90125 0.98087
 O1154 O 1.09437 0.87812 0.98070
 C1155 C 1.07832 0.88521 0.97399
 C1156 C 1.06789 0.87506 0.95762
 C1157 C 1.07506 0.85709 0.95008
 H1158 H 1.08791 0.85012 0.95665
 O1159 O 0.92850 1.09843 0.98050
 O1160 O 0.90552 1.12155 0.98050
 C1161 C 0.92153 1.11449 0.97368
 C1162 C 0.93184 1.12469 0.95724
 C1163 C 0.92438 1.14249 0.94949
 H1164 H 0.91140 1.14928 0.95598
 Cu1165 Cu 1.08262 1.00007 0.91721
 Cu1166 Cu 1.11028 0.99997 0.88952
 Cu1167 Cu 0.91727 1.00033 0.91740
 Cu1168 Cu 0.88969 1.00032 0.88964
 Cu1169 Cu 1.08248 1.08257 0.99980
 Cu1170 Cu 1.11013 1.11018 0.99989
 Cu1171 Cu 1.08272 0.91698 1.00021
 Cu1172 Cu 1.11032 0.88926 1.00002
 Cu1173 Cu 0.91719 1.08269 0.99984
 Cu1174 Cu 0.88958 1.11041 0.99991
 Cu1175 Cu 0.91759 0.91749 1.00009
 Cu1176 Cu 0.89000 0.88982 1.00016
 Cu1177 Cu 1.00013 1.08278 0.91710
 Cu1178 Cu 1.00003 1.11045 0.88936
 Cu1179 Cu 1.00000 0.91751 0.91736
 Cu1180 Cu 0.99999 0.88990 0.88961
 C1181 C 1.05137 0.94871 0.88383
 H1182 H 1.04578 0.95431 0.89776
 C1183 C 1.06646 0.93360 0.84839
 C1184 C 0.94869 1.05158 0.88383
 H1185 H 0.95420 1.04610 0.89786
 C1186 C 0.93383 1.06638 0.84813
 C1187 C 0.94852 1.11604 0.94833
 H1188 H 0.95420 1.10218 0.95402
 C1189 C 0.93327 1.15134 0.93303
 C1190 C 1.05138 0.88393 0.94861
 H1191 H 1.04595 0.89794 0.95413
 C1192 C 1.06602 0.84826 0.93371
 C1193 C 1.11584 0.94835 0.94852
 H1194 H 1.10186 0.95383 0.95404
 C1195 C 1.15142 0.93354 0.93360
 C1196 C 0.88373 1.05183 0.94834
 H1197 H 0.89784 1.04650 0.95370
 C1198 C 0.84777 1.06621 0.93387
 C1199 C 1.05161 1.05165 0.88366
 H1200 H 1.04598 1.04599 0.89756
 C1201 C 1.06678 1.06689 0.84827
 C1202 C 0.94850 0.94881 0.88401
 H1203 H 0.95419 0.95451 0.89785
 C1204 C 0.93313 0.93341 0.84883
 C1205 C 1.11603 1.05134 0.94845
 H1206 H 1.10217 1.04570 0.95409
 C1207 C 1.15127 1.06656 0.93323
 C1208 C 0.88405 0.94889 0.94874
 H1209 H 0.89792 0.95452 0.95436
 C1210 C 0.84877 0.93372 0.93359
 C1211 C 1.05147 1.11615 0.94822
 H1212 H 1.04593 1.10218 0.95376
 C1213 C 1.06641 1.15171 0.93332
 C1214 C 0.94864 0.88405 0.94853
 H1215 H 0.95419 0.89798 0.95410
 C1216 C 0.93365 0.84861 0.93350
 O1217 O 0.98080 0.42851 0.40117
 O1218 O 0.98091 0.40548 0.37809
 C1219 C 0.97405 0.42150 0.38510
 C1220 C 0.95764 0.43177 0.37483
 C1221 C 0.95004 0.42434 0.35698
 H1222 H 0.95662 0.41142 0.35016
 O1223 O 1.01961 0.57138 0.40084
 O1224 O 1.01949 0.59440 0.37770
 C1225 C 1.02634 0.57837 0.38473
 C1226 C 1.04273 0.56808 0.37447
 C1227 C 1.05028 0.57544 0.35654
 H1228 H 1.04367 0.58833 0.34966
 O1229 O 0.90154 0.48038 0.42817
 O1230 O 0.87853 0.48049 0.40509
 C1231 C 0.88552 0.47364 0.42115
 C1232 C 0.87530 0.45724 0.43147
 C1233 C 0.85755 0.44953 0.42399
 H1234 H 0.85077 0.45602 0.41097
 O1235 O 1.09861 0.51937 0.42822
 O1236 O 1.12168 0.51933 0.40519
 C1237 C 1.11465 0.52613 0.42124
 C1238 C 1.12485 0.54249 0.43160
 C1239 C 1.14266 0.55016 0.42420
 H1240 H 1.14948 0.54370 0.41121
 O1241 O 0.92869 0.40145 0.48041
 O1242 O 0.90578 0.37832 0.48046
 C1243 C 0.92178 0.38537 0.47364
 C1244 C 0.93216 0.37515 0.45728
 C1245 C 0.92492 0.35722 0.44973
 H1246 H 0.91203 0.35035 0.45629
 O1247 O 1.07150 0.59837 0.48035
 O1248 O 1.09445 0.62145 0.48039
 C1249 C 1.07847 0.61442 0.47353
 C1250 C 1.06821 0.62463 0.45705
 C1251 C 1.07555 0.64250 0.44941
 H1252 H 1.08843 0.64935 0.45599
 O1253 O 0.92875 0.51902 0.40129
 O1254 O 0.90580 0.51918 0.37814
 C1255 C 0.92182 0.52590 0.38521
 C1256 C 0.93219 0.54226 0.37498
 C1257 C 0.92489 0.54983 0.35704
 H1258 H 0.91199 0.54330 0.35018
 O1259 O 1.07151 0.48082 0.40124
 O1260 O 1.09450 0.48071 0.37813
 C1261 C 1.07847 0.47397 0.38519
 C1262 C 1.06814 0.45759 0.37500
 C1263 C 1.07554 0.44994 0.35715
 H1264 H 1.08847 0.45644 0.35031
 O1265 O 1.01940 0.40158 0.42845
 O1266 O 1.01953 0.37849 0.40543
 C1267 C 1.02625 0.38554 0.42150
 C1268 C 1.04263 0.37534 0.43188
 C1269 C 1.05028 0.35750 0.42449
 H1270 H 1.04378 0.35068 0.41153
 O1271 O 0.98105 0.59835 0.42809
 O1272 O 0.98092 0.62145 0.40502
 C1273 C 0.97420 0.61440 0.42112
 C1274 C 0.95785 0.62460 0.43151
 C1275 C 0.95025 0.64251 0.42417
 H1276 H 0.95676 0.64938 0.41122
 O1277 O 0.90183 0.57125 0.48042
 O1278 O 0.87875 0.59427 0.48035
 C1279 C 0.88576 0.57819 0.47363
 C1280 C 0.87547 0.56774 0.45737
 C1281 C 0.85747 0.57495 0.44993
 H1282 H 0.85062 0.58786 0.45651
 O1283 O 1.09868 0.42854 0.48060
 O1284 O 1.12173 0.40550 0.48056
 C1285 C 1.11469 0.42155 0.47375
 C1286 C 1.12487 0.43186 0.45729
 C1287 C 1.14265 0.42441 0.44958
 H1288 H 1.14946 0.41143 0.45609
 O1289 O 0.98103 0.57118 0.40113
 O1290 O 0.98088 0.59420 0.37798
 C1291 C 0.97416 0.57814 0.38507
 C1292 C 0.95778 0.56780 0.37490
 C1293 C 0.95021 0.57511 0.35695
 H1294 H 0.95676 0.58800 0.35004
 O1295 O 1.01938 0.42865 0.40132
 O1296 O 1.01952 0.40563 0.37823
 C1297 C 1.02624 0.42168 0.38527
 C1298 C 1.04261 0.43202 0.37504
 C1299 C 1.05026 0.42461 0.35719
 H1300 H 1.04377 0.41166 0.35038
 O1301 O 1.09863 0.48075 0.42824
 O1302 O 1.12170 0.48067 0.40520
 C1303 C 1.11466 0.47390 0.42127
 C1304 C 1.12484 0.45747 0.43163
 C1305 C 1.14263 0.44977 0.42419
 H1306 H 1.14942 0.45629 0.41120
 O1307 O 0.90165 0.51895 0.42833
 O1308 O 0.87860 0.51912 0.40527
 C1309 C 0.88561 0.52580 0.42138
 C1310 C 0.87538 0.54210 0.43182
 C1311 C 0.85739 0.54957 0.42463
 H1312 H 0.85048 0.54297 0.41176
 O1313 O 0.92892 0.59826 0.48039
 O1314 O 0.90592 0.62136 0.48032
 C1315 C 0.92196 0.61432 0.47355
 C1316 C 0.93230 0.62456 0.45716
 C1317 C 0.92495 0.64247 0.44957
 H1318 H 0.91204 0.64930 0.45613
 O1319 O 1.07158 0.40159 0.48068
 O1320 O 1.09457 0.37848 0.48063
 C1321 C 1.07854 0.38554 0.47386
 C1322 C 1.06820 0.37534 0.45748
 C1323 C 1.07561 0.35750 0.44984
 H1324 H 1.08856 0.35068 0.45636
 O1325 O 1.07174 0.51943 0.40093
 O1326 O 1.09474 0.51936 0.37782
 C1327 C 1.07872 0.52619 0.38482
 C1328 C 1.06838 0.54256 0.37452
 C1329 C 1.07570 0.55017 0.35659
 H1330 H 1.08863 0.54364 0.34975
 O1331 O 0.92861 0.48041 0.40111
 O1332 O 0.90566 0.48053 0.37795
 C1333 C 0.92166 0.47367 0.38501
 C1334 C 0.93199 0.45729 0.37478
 C1335 C 0.92462 0.44961 0.35693
 H1336 H 0.91166 0.45609 0.35009
 O1337 O 1.01961 0.59832 0.42803
 O1338 O 1.01952 0.62142 0.40496
 C1339 C 1.02636 0.61438 0.42102
 C1340 C 1.04272 0.62460 0.43135
 C1341 C 1.05031 0.64247 0.42395
 H1342 H 1.04379 0.64931 0.41098
 O1343 O 0.98085 0.40148 0.42835
 O1344 O 0.98096 0.37838 0.40534
 C1345 C 0.97413 0.38541 0.42138
 C1346 C 0.95778 0.37516 0.43172
 C1347 C 0.95030 0.35723 0.42441
 H1348 H 0.95691 0.35037 0.41151
 O1349 O 1.09854 0.57129 0.48048
 O1350 O 1.12156 0.59430 0.48052
 C1351 C 1.11458 0.57827 0.47370
 C1352 C 1.12482 0.56798 0.45729
 C1353 C 1.14263 0.57540 0.44966
 H1354 H 1.14942 0.58833 0.45622
 O1355 O 0.90153 0.42840 0.48039
 O1356 O 0.87855 0.40535 0.48044
 C1357 C 0.88552 0.42139 0.47360
 C1358 C 0.87530 0.43167 0.45715
 C1359 C 0.85755 0.42421 0.44944
 H1360 H 0.85078 0.41124 0.45597
 Cu1361 Cu 1.00009 0.41736 0.41712
 Cu1362 Cu 1.00025 0.38969 0.38946
 Cu1363 Cu 1.00034 0.58250 0.41683
 Cu1364 Cu 1.00018 0.61018 0.38909
 Cu1365 Cu 0.91743 0.49967 0.41704
 Cu1366 Cu 0.88984 0.49986 0.38928
 Cu1367 Cu 1.08282 0.50011 0.41696
 Cu1368 Cu 1.11047 0.50001 0.38927
 C1369 C 0.94864 0.44838 0.38350
 H1370 H 0.95421 0.45400 0.39743
 C1371 C 0.93360 0.43321 0.34808
 C1372 C 1.05176 0.55150 0.38322
 H1373 H 1.04622 0.54593 0.39720
 C1374 C 1.06670 0.56654 0.34764
 C1375 C 0.88394 0.44832 0.44818
 H1376 H 0.89779 0.45397 0.45385
 C1377 C 0.84873 0.43309 0.43293
 C1378 C 1.11616 0.55138 0.44828
 H1379 H 1.10227 0.54577 0.45388
 C1380 C 1.15149 0.56655 0.43318
 C1381 C 0.94872 0.38389 0.44829
 H1382 H 0.95420 0.39787 0.45381
 C1383 C 0.93395 0.34832 0.43337
 C1384 C 1.05166 0.61591 0.44803
 H1385 H 1.04609 0.60198 0.45364
 C1386 C 1.06665 0.65137 0.43294
 C1387 C 0.94878 0.55123 0.38371
 H1388 H 0.95431 0.54569 0.39770
 C1389 C 0.93384 0.56617 0.34809
 C1390 C 1.05154 0.44865 0.38373
 H1391 H 1.04594 0.45425 0.39766
 C1392 C 1.06665 0.43352 0.34831
 C1393 C 1.05157 0.38403 0.44852
 H1394 H 1.04596 0.39795 0.45411
 C1395 C 1.06670 0.34865 0.43342
 C1396 C 0.94889 0.61585 0.44815
 H1397 H 0.95446 0.60189 0.45370
 C1398 C 0.93387 0.65138 0.43315
 C1399 C 0.88421 0.55118 0.44833
 H1400 H 0.89826 0.54574 0.45374
 C1401 C 0.84852 0.56595 0.43362
 C1402 C 1.11619 0.44853 0.44832
 H1403 H 1.10231 0.45417 0.45396
 C1404 C 1.15147 0.43332 0.43309
 O1405 O 1.01947 0.42825 0.59849
 O1406 O 1.01945 0.40518 0.62159
 C1407 C 1.02626 0.42121 0.61456
 C1408 C 1.04267 0.43144 0.62479
 C1409 C 1.05035 0.42392 0.64259
 H1410 H 1.04384 0.41095 0.64939
 O1411 O 0.98082 0.57109 0.59853
 O1412 O 0.98077 0.59409 0.62164
 C1413 C 0.97401 0.57806 0.61460
 C1414 C 0.95764 0.56775 0.62483
 C1415 C 0.95001 0.57514 0.64270
 H1416 H 0.95655 0.58804 0.64955
 O1417 O 0.90177 0.51910 0.57130
 O1418 O 0.87869 0.51913 0.59432
 C1419 C 0.88572 0.52590 0.57825
 C1420 C 0.87550 0.54226 0.56785
 C1421 C 0.85760 0.54984 0.57515
 H1422 H 0.85074 0.54328 0.58808
 O1423 O 1.09859 0.48048 0.57157
 O1424 O 1.12165 0.48044 0.59461
 C1425 C 1.11465 0.47369 0.57854
 C1426 C 1.12490 0.45735 0.56817
 C1427 C 1.14273 0.44969 0.57556
 H1428 H 1.14955 0.45618 0.58853
 O1429 O 1.07173 0.40144 0.51935
 O1430 O 1.09471 0.37832 0.51933
 C1431 C 1.07869 0.38535 0.52615
 C1432 C 1.06836 0.37507 0.54254
 C1433 C 1.07569 0.35716 0.55014
 H1434 H 1.08863 0.35034 0.54362
 O1435 O 0.92883 0.59829 0.51908
 O1436 O 0.90583 0.62138 0.51905
 C1437 C 0.92183 0.61432 0.52590
 C1438 C 0.93205 0.62447 0.54240
 C1439 C 0.92449 0.64219 0.55019
 H1440 H 0.91151 0.64897 0.54371
 O1441 O 0.92880 0.48049 0.59844
 O1442 O 0.90580 0.48046 0.62155
 C1443 C 0.92183 0.47368 0.61452
 C1444 C 0.93215 0.45727 0.62476
 C1445 C 0.92474 0.44963 0.64263
 H1446 H 0.91182 0.45618 0.64946
 O1447 O 1.07143 0.51893 0.59875
 O1448 O 1.09440 0.51893 0.62188
 C1449 C 1.07836 0.52570 0.61484
 C1450 C 1.06799 0.54205 0.62507
 C1451 C 1.07526 0.54961 0.64302
 H1452 H 1.08816 0.54306 0.64991
 O1453 O 0.98093 0.40131 0.57131
 O1454 O 0.98088 0.37817 0.59434
 C1455 C 0.97414 0.38524 0.57826
 C1456 C 0.95783 0.37504 0.56785
 C1457 C 0.95033 0.35709 0.57513
 H1458 H 0.95688 0.35019 0.58805
 O1459 O 1.01935 0.59815 0.57141
 O1460 O 1.01933 0.62123 0.59443
 C1461 C 1.02611 0.61421 0.57836
 C1462 C 1.04241 0.62447 0.56796
 C1463 C 1.04993 0.64238 0.57528
 H1464 H 1.04340 0.64920 0.58824
 O1465 O 0.90166 0.42848 0.51906
 O1466 O 0.87866 0.40545 0.51916
 C1467 C 0.88565 0.42150 0.52592
 C1468 C 0.87545 0.43185 0.54231
 C1469 C 0.85756 0.42456 0.54990
 H1470 H 0.85070 0.41168 0.54332
 O1471 O 1.09839 0.57125 0.51916
 O1472 O 1.12142 0.59426 0.51923
 C1473 C 1.11439 0.57822 0.52602
 C1474 C 1.12457 0.56787 0.54247
 C1475 C 1.14243 0.57519 0.55007
 H1476 H 1.14928 0.58809 0.54348
 O1477 O 1.01937 0.57109 0.59858
 O1478 O 1.01935 0.59410 0.62167
 C1479 C 1.02613 0.57805 0.61466
 C1480 C 1.04244 0.56767 0.62497
 C1481 C 1.04995 0.57498 0.64291
 H1482 H 1.04339 0.58792 0.64973
 O1483 O 0.98089 0.42829 0.59850
 O1484 O 0.98083 0.40522 0.62160
 C1485 C 0.97407 0.42129 0.61456
 C1486 C 0.95769 0.43163 0.62478
 C1487 C 0.95002 0.42422 0.64264
 H1488 H 0.95652 0.41126 0.64949
 O1489 O 1.09837 0.51907 0.57155
 O1490 O 1.12143 0.51909 0.59460
 C1491 C 1.11438 0.52590 0.57853
 C1492 C 1.12455 0.54230 0.56816
 C1493 C 1.14241 0.54987 0.57551
 H1494 H 1.14925 0.54332 0.58846
 O1495 O 0.90175 0.48052 0.57136
 O1496 O 0.87867 0.48051 0.59438
 C1497 C 0.88570 0.47374 0.57832
 C1498 C 0.87548 0.45741 0.56794
 C1499 C 0.85759 0.44988 0.57527
 H1500 H 0.85073 0.45645 0.58819
 O1501 O 1.07134 0.59832 0.51904
 O1502 O 1.09429 0.62140 0.51911
 C1503 C 1.07826 0.61436 0.52587
 C1504 C 1.06790 0.62455 0.54226
 C1505 C 1.07517 0.64246 0.54983
 H1506 H 1.08804 0.64934 0.54324
 O1507 O 0.92875 0.40145 0.51906
 O1508 O 0.90584 0.37833 0.51914
 C1509 C 0.92187 0.38537 0.52588
 C1510 C 0.93227 0.37511 0.54222
 C1511 C 0.92503 0.35715 0.54974
 H1512 H 0.91215 0.35030 0.54316
 O1513 O 1.07153 0.48031 0.59861
 O1514 O 1.09450 0.48025 0.62174
 C1515 C 1.07852 0.47344 0.61467
 C1516 C 1.06826 0.45697 0.62484
 C1517 C 1.07570 0.44918 0.64264
 H1518 H 1.08866 0.45563 0.64947
 O1519 O 0.92871 0.51909 0.59849
 O1520 O 0.90571 0.51911 0.62159
 C1521 C 0.92173 0.52589 0.61456
 C1522 C 0.93204 0.54225 0.62480
 C1523 C 0.92464 0.54989 0.64267
 H1524 H 0.91169 0.54340 0.64949
 O1525 O 0.98079 0.59817 0.57142
 O1526 O 0.98073 0.62123 0.59446
 C1527 C 0.97396 0.61420 0.57841
 C1528 C 0.95755 0.62441 0.56809
 C1529 C 0.94975 0.64212 0.57563
 H1530 H 0.95617 0.64886 0.58867
 O1531 O 1.01949 0.40123 0.57142
 O1532 O 1.01948 0.37809 0.59444
 C1533 C 1.02629 0.38516 0.57839
 C1534 C 1.04270 0.37497 0.56807
 C1535 C 1.05027 0.35706 0.57542
 H1536 H 1.04369 0.35017 0.58832
 O1537 O 1.09869 0.42854 0.51929
 O1538 O 1.12174 0.40551 0.51929
 C1539 C 1.11472 0.42154 0.52609
 C1540 C 1.12493 0.43183 0.54251
 C1541 C 1.14276 0.42441 0.55015
 H1542 H 1.14959 0.41148 0.54360
 O1543 O 0.90184 0.57124 0.51906
 O1544 O 0.87877 0.59427 0.51902
 C1545 C 0.88579 0.57822 0.52583
 C1546 C 0.87554 0.56786 0.54220
 C1547 C 0.85765 0.57520 0.54975
 H1548 H 0.85081 0.58813 0.54316
 Cu1549 Cu 1.00019 0.41708 0.58263
 Cu1550 Cu 1.00015 0.38935 0.61031
 Cu1551 Cu 1.00009 0.58233 0.58268
 Cu1552 Cu 1.00005 0.60998 0.61036
 Cu1553 Cu 0.91744 0.41726 0.49972
 Cu1554 Cu 0.88990 0.38954 0.49982
 Cu1555 Cu 1.08287 0.41734 0.49999
 Cu1556 Cu 1.11050 0.38964 0.49995
 Cu1557 Cu 0.91766 0.58247 0.49973
 Cu1558 Cu 0.89002 0.61016 0.49967
 Cu1559 Cu 1.08264 0.58251 0.49975
 Cu1560 Cu 1.11024 0.61016 0.49982
 Cu1561 Cu 0.91756 0.49980 0.58260
 Cu1562 Cu 0.88990 0.49980 0.61028
 Cu1563 Cu 1.08268 0.49970 0.58282
 Cu1564 Cu 1.11031 0.49968 0.61053
 C1565 C 1.05161 0.44811 0.61613
 H1566 H 1.04597 0.45382 0.60225
 C1567 C 1.06679 0.43273 0.65147
 C1568 C 0.94867 0.55117 0.61610
 H1569 H 0.95426 0.54558 0.60216
 C1570 C 0.93358 0.56626 0.65156
 C1571 C 0.88424 0.55125 0.55123
 H1572 H 0.89819 0.54569 0.54571
 C1573 C 0.84874 0.56623 0.56615
 C1574 C 1.11623 0.44844 0.55150
 H1575 H 1.10233 0.45405 0.54589
 C1576 C 1.15160 0.43329 0.56660
 C1577 C 1.05172 0.38375 0.55150
 H1578 H 1.04617 0.39772 0.54594
 C1579 C 1.06670 0.34820 0.56651
 C1580 C 0.94871 0.61581 0.55134
 H1581 H 0.95442 0.60198 0.54564
 C1582 C 0.93329 0.65094 0.56674
 C1583 C 0.94876 0.44830 0.61606
 H1584 H 0.95437 0.45391 0.60213
 C1585 C 0.93362 0.43316 0.65149
 C1586 C 1.05144 0.55106 0.61628
 H1587 H 1.04594 0.54553 0.60229
 C1588 C 1.06628 0.56601 0.65188
 C1589 C 0.94882 0.38383 0.55125
 H1590 H 0.95430 0.39783 0.54575
 C1591 C 0.93400 0.34821 0.56613
 C1592 C 1.05137 0.61579 0.55131
 H1593 H 1.04587 0.60183 0.54577
 C1594 C 1.06624 0.65131 0.56626
 C1595 C 0.88419 0.44840 0.55133
 H1596 H 0.89815 0.45391 0.54579
 C1597 C 0.84870 0.43352 0.56631
 C1598 C 1.11585 0.55129 0.55151
 H1599 H 1.10192 0.54575 0.54595
 C1600 C 1.15129 0.56624 0.56651
 O1601 O 0.57122 1.01958 0.59874
 O1602 O 0.59422 1.01948 0.62184
 C1603 C 0.57821 1.02633 0.61482
 C1604 C 0.56792 1.04273 0.62510
 C1605 C 0.57522 1.05021 0.64306
 H1606 H 0.58808 1.04357 0.64994
 O1607 O 0.42849 0.98093 0.59870
 O1608 O 0.40555 0.98094 0.62187
 C1609 C 0.42157 0.97416 0.61482
 C1610 C 0.43196 0.95783 0.62509
 C1611 C 0.42482 0.95040 0.64316
 H1612 H 0.41201 0.95705 0.65011
 O1613 O 0.51915 1.09867 0.57135
 O1614 O 0.51915 1.12178 0.59434
 C1615 C 0.52589 1.11475 0.57826
 C1616 C 0.54216 1.12500 0.56781
 C1617 C 0.54974 1.14288 0.57512
 H1618 H 0.54324 1.14973 0.58809
 O1619 O 0.48050 0.90180 0.57144
 O1620 O 0.48052 0.87868 0.59448
 C1621 C 0.47374 0.88573 0.57841
 C1622 C 0.45746 0.87548 0.56801
 C1623 C 0.44996 0.85754 0.57532
 H1624 H 0.45649 0.85068 0.58828
 O1625 O 0.59815 1.07163 0.51919
 O1626 O 0.62123 1.09458 0.51920
 C1627 C 0.61418 1.07856 0.52601
 C1628 C 0.62439 1.06817 0.54241
 C1629 C 0.64233 1.07539 0.54992
 H1630 H 0.64920 1.08827 0.54333
 O1631 O 0.40145 0.92881 0.51923
 O1632 O 0.37843 0.90580 0.51938
 C1633 C 0.38546 0.92184 0.52613
 C1634 C 0.37530 0.93217 0.54257
 C1635 C 0.35742 0.92488 0.55018
 H1636 H 0.35055 0.91200 0.54362
 O1637 O 0.48076 1.07154 0.59856
 O1638 O 0.48067 1.09457 0.62163
 C1639 C 0.47394 1.07851 0.61462
 C1640 C 0.45760 1.06817 0.62486
 C1641 C 0.45002 1.07552 0.64276
 H1642 H 0.45656 1.08843 0.64960
 O1643 O 0.51903 0.92882 0.59853
 O1644 O 0.51909 0.90576 0.62164
 C1645 C 0.52584 0.92182 0.61461
 C1646 C 0.54216 0.93215 0.62487
 C1647 C 0.54976 0.92473 0.64276
 H1648 H 0.54325 0.91177 0.64957
 O1649 O 0.59809 0.98087 0.57159
 O1650 O 0.62117 0.98076 0.59461
 C1651 C 0.61411 0.97400 0.57856
 C1652 C 0.62428 0.95757 0.56822
 C1653 C 0.64209 0.94987 0.57564
 H1654 H 0.64891 0.95635 0.58861
 O1655 O 0.40141 1.01952 0.57157
 O1656 O 0.37837 1.01955 0.59464
 C1657 C 0.38537 1.02632 0.57855
 C1658 C 0.37513 1.04268 0.56817
 C1659 C 0.35725 1.05027 0.57551
 H1660 H 0.35043 1.04373 0.58847
 O1661 O 0.42847 1.09863 0.51937
 O1662 O 0.40544 1.12169 0.51930
 C1663 C 0.42146 1.11468 0.52614
 C1664 C 0.43177 1.12493 0.54253
 C1665 C 0.42443 1.14285 0.55007
 H1666 H 0.41152 1.14969 0.54349
 O1667 O 0.57111 0.90174 0.51918
 O1668 O 0.59407 0.87860 0.51923
 C1669 C 0.57804 0.88566 0.52599
 C1670 C 0.56769 0.87542 0.54237
 C1671 C 0.57498 0.85748 0.54994
 H1672 H 0.58786 0.85061 0.54336
 O1673 O 0.42858 1.01951 0.59854
 O1674 O 0.40562 1.01956 0.62169
 C1675 C 0.42164 1.02632 0.61462
 C1676 C 0.43200 1.04266 0.62485
 C1677 C 0.42467 1.05025 0.64276
 H1678 H 0.41175 1.04375 0.64961
 O1679 O 0.57103 0.98097 0.59865
 O1680 O 0.59404 0.98084 0.62174
 C1681 C 0.57800 0.97412 0.61471
 C1682 C 0.56767 0.95774 0.62494
 C1683 C 0.57503 0.95007 0.64282
 H1684 H 0.58794 0.95658 0.64969
 O1685 O 0.51905 0.90177 0.57146
 O1686 O 0.51909 0.87863 0.59449
 C1687 C 0.52585 0.88569 0.57842
 C1688 C 0.54217 0.87545 0.56803
 C1689 C 0.54970 0.85751 0.57535
 H1690 H 0.54316 0.85065 0.58829
 O1691 O 0.48060 1.09873 0.57155
 O1692 O 0.48055 1.12184 0.59454
 C1693 C 0.47376 1.11478 0.57850
 C1694 C 0.45736 1.12498 0.56813
 C1695 C 0.44978 1.14290 0.57542
 H1696 H 0.45634 1.14978 0.58832
 O1697 O 0.40140 1.07163 0.51935
 O1698 O 0.37830 1.09462 0.51927
 C1699 C 0.38533 1.07859 0.52611
 C1700 C 0.37510 1.06825 0.54250
 C1701 C 0.35722 1.07559 0.55008
 H1702 H 0.35037 1.08851 0.54349
 O1703 O 0.59810 0.92880 0.51925
 O1704 O 0.62113 0.90574 0.51931
 C1705 C 0.61410 0.92178 0.52611
 C1706 C 0.62428 0.93204 0.54257
 C1707 C 0.64209 0.92458 0.55024
 H1708 H 0.64890 0.91164 0.54369
 O1709 O 0.48050 0.92877 0.59862
 O1710 O 0.48053 0.90573 0.62175
 C1711 C 0.47375 0.92179 0.61473
 C1712 C 0.45748 0.93219 0.62504
 C1713 C 0.45010 0.92500 0.64311
 H1714 H 0.45671 0.91212 0.65002
 O1715 O 0.51931 1.07182 0.59873
 O1716 O 0.51928 1.09484 0.62181
 C1717 C 0.52609 1.07880 0.61481
 C1718 C 0.54244 1.06842 0.62509
 C1719 C 0.54999 1.07568 0.64305
 H1720 H 0.54347 1.08860 0.64992
 O1721 O 0.40155 0.98092 0.57153
 O1722 O 0.37852 0.98090 0.59461
 C1723 C 0.38554 0.97411 0.57854
 C1724 C 0.37533 0.95774 0.56820
 C1725 C 0.35745 0.95020 0.57555
 H1726 H 0.35061 0.95677 0.58848
 O1727 O 0.59811 1.01948 0.57149
 O1728 O 0.62120 1.01940 0.59450
 C1729 C 0.61417 1.02621 0.57843
 C1730 C 0.62440 1.04254 0.56803
 C1731 C 0.64234 1.04999 0.57529
 H1732 H 0.64922 1.04337 0.58818
 O1733 O 0.42849 0.90173 0.51909
 O1734 O 0.40556 0.87864 0.51921
 C1735 C 0.42159 0.88567 0.52594
 C1736 C 0.43197 0.87544 0.54232
 C1737 C 0.42473 0.85750 0.54987
 H1738 H 0.41187 0.85062 0.54327
 O1739 O 0.57105 1.09867 0.51900
 O1740 O 0.59406 1.12170 0.51901
 C1741 C 0.57801 1.11472 0.52577
 C1742 C 0.56766 1.12499 0.54212
 C1743 C 0.57499 1.14287 0.54968
 H1744 H 0.58790 1.14970 0.54311
 Cu1745 Cu 0.58231 1.00024 0.58281
 Cu1746 Cu 0.60998 1.00011 0.61049
 Cu1747 Cu 0.41730 1.00022 0.58277
 Cu1748 Cu 0.38970 1.00024 0.61052
 Cu1749 Cu 0.49997 1.08288 0.58275
 Cu1750 Cu 0.49991 1.11057 0.61039
 Cu1751 Cu 0.49976 0.91760 0.58270
 Cu1752 Cu 0.49981 0.88988 0.61041
 C1753 C 0.55140 1.05183 0.61634
 H1754 H 0.54589 1.04636 0.60233
 C1755 C 0.56633 1.06662 0.65198
 C1756 C 0.44843 0.94874 0.61626
 H1757 H 0.45384 0.95419 0.60219
 C1758 C 0.43385 0.93407 0.65212
 C1759 C 0.55109 1.11629 0.55116
 H1760 H 0.54554 1.10235 0.54562
 C1761 C 0.56608 1.15175 0.56611
 C1762 C 0.44848 0.88421 0.55137
 H1763 H 0.45395 0.89820 0.54584
 C1764 C 0.43367 0.84861 0.56630
 C1765 C 0.61565 1.05161 0.55145
 H1766 H 0.60166 1.04616 0.54595
 C1767 C 0.65125 1.06634 0.56628
 C1768 C 0.38404 0.94874 0.55158
 H1769 H 0.39798 0.95425 0.54601
 C1770 C 0.34855 0.93385 0.56659
 C1771 C 0.44861 1.05160 0.61612
 H1772 H 0.45415 1.04604 0.60215
 C1773 C 0.43363 1.06661 0.65164
 C1774 C 0.55108 0.94880 0.61619
 H1775 H 0.54551 0.95443 0.60224
 C1776 C 0.56612 0.93364 0.65167
 C1777 C 0.61560 0.94867 0.55155
 H1778 H 0.60172 0.95431 0.54593
 C1779 C 0.65093 0.93344 0.56670
 C1780 C 0.38383 1.05165 0.55153
 H1781 H 0.39777 1.04609 0.54598
 C1782 C 0.34836 1.06666 0.56651
 C1783 C 0.44836 1.11623 0.55155
 H1784 H 0.45392 1.10226 0.54604
 C1785 C 0.43339 1.15178 0.56644
 C1786 C 0.55114 0.88418 0.55140
 H1787 H 0.54563 0.89818 0.54587
 C1788 C 0.56603 0.84859 0.56635
 O1789 O 0.57111 0.98090 0.40121
 O1790 O 0.59409 0.98090 0.37808
 C1791 C 0.57807 0.97411 0.38513
 C1792 C 0.56777 0.95775 0.37490
 C1793 C 0.57515 0.95016 0.35701
 H1794 H 0.58807 0.95670 0.35018
 O1795 O 0.42852 1.01920 0.40139
 O1796 O 0.40552 1.01942 0.37828
 C1797 C 0.42155 1.02612 0.38535
 C1798 C 0.43186 1.04253 0.37518
 C1799 C 0.42451 1.05015 0.35728
 H1800 H 0.41164 1.04358 0.35040
 O1801 O 0.48061 1.09879 0.42848
 O1802 O 0.48048 1.12185 0.40537
 C1803 C 0.47376 1.11483 0.42147
 C1804 C 0.45739 1.12503 0.43182
 C1805 C 0.44974 1.14289 0.42442
 H1806 H 0.45625 1.14975 0.41146
 O1807 O 0.51894 0.90174 0.42823
 O1808 O 0.51906 0.87866 0.40522
 C1809 C 0.52581 0.88572 0.42128
 C1810 C 0.54225 0.87557 0.43163
 C1811 C 0.55001 0.85779 0.42418
 H1812 H 0.54353 0.85098 0.41121
 O1813 O 0.59825 0.92877 0.48056
 O1814 O 0.62130 0.90572 0.48059
 C1815 C 0.61429 0.92177 0.47376
 C1816 C 0.62450 0.93208 0.45733
 C1817 C 0.64234 0.92470 0.44970
 H1818 H 0.64919 0.91177 0.45626
 O1819 O 0.40165 1.07145 0.48068
 O1820 O 0.37854 1.09443 0.48058
 C1821 C 0.38560 1.07839 0.47384
 C1822 C 0.37540 1.06801 0.45747
 C1823 C 0.35750 1.07534 0.44991
 H1824 H 0.35065 1.08826 0.45645
 O1825 O 0.51906 1.07167 0.40127
 O1826 O 0.51895 1.09464 0.37807
 C1827 C 0.52578 1.07861 0.38513
 C1828 C 0.54213 1.06827 0.37487
 C1829 C 0.54971 1.07567 0.35697
 H1830 H 0.54315 1.08861 0.35013
 O1831 O 0.48043 0.92869 0.40086
 O1832 O 0.48048 0.90569 0.37776
 C1833 C 0.47367 0.92173 0.38477
 C1834 C 0.45728 0.93208 0.37453
 C1835 C 0.44959 0.92475 0.35667
 H1836 H 0.45612 0.91185 0.34976
 O1837 O 0.59815 1.01941 0.42832
 O1838 O 0.62121 1.01944 0.40527
 C1839 C 0.61420 1.02618 0.42136
 C1840 C 0.62445 1.04247 0.43176
 C1841 C 0.64234 1.05000 0.42445
 H1842 H 0.64917 1.04347 0.41149
 O1843 O 0.40131 0.98058 0.42827
 O1844 O 0.37824 0.98077 0.40523
 C1845 C 0.38524 0.97390 0.42128
 C1846 C 0.37496 0.95758 0.43165
 C1847 C 0.35712 0.94999 0.42428
 H1848 H 0.35033 0.95647 0.41126
 O1849 O 0.57131 1.09869 0.48031
 O1850 O 0.59433 1.12170 0.48028
 C1851 C 0.57834 1.11469 0.47343
 C1852 C 0.56813 1.12487 0.45690
 C1853 C 0.57569 1.14254 0.44902
 H1854 H 0.58871 1.14927 0.45544
 O1855 O 0.42829 0.90179 0.48039
 O1856 O 0.40534 0.87870 0.48048
 C1857 C 0.42131 0.88576 0.47358
 C1858 C 0.43155 0.87558 0.45708
 C1859 C 0.42412 0.85779 0.44938
 H1860 H 0.41119 0.85098 0.45591
 O1861 O 0.42838 0.98061 0.40118
 O1862 O 0.40538 0.98081 0.37808
 C1863 C 0.42139 0.97394 0.38507
 C1864 C 0.43167 0.95762 0.37471
 C1865 C 0.42420 0.95005 0.35686
 H1866 H 0.41120 0.95657 0.35012
 O1867 O 0.57114 1.01950 0.40118
 O1868 O 0.59412 1.01955 0.37805
 C1869 C 0.57809 1.02633 0.38510
 C1870 C 0.56774 1.04271 0.37486
 C1871 C 0.57509 1.05037 0.35697
 H1872 H 0.58803 1.04387 0.35013
 O1873 O 0.48034 0.90178 0.42813
 O1874 O 0.48041 0.87869 0.40512
 C1875 C 0.47355 0.88574 0.42115
 C1876 C 0.45711 0.87558 0.43144
 C1877 C 0.44943 0.85779 0.42399
 H1878 H 0.45594 0.85099 0.41101
 O1879 O 0.51921 1.09878 0.42826
 O1880 O 0.51911 1.12182 0.40513
 C1881 C 0.52600 1.11479 0.42117
 C1882 C 0.54250 1.12493 0.43134
 C1883 C 0.55031 1.14261 0.42370
 H1884 H 0.54383 1.14938 0.41068
 O1885 O 0.40118 0.92877 0.48057
 O1886 O 0.37815 0.90577 0.48067
 C1887 C 0.38513 0.92180 0.47383
 C1888 C 0.37488 0.93212 0.45742
 C1889 C 0.35703 0.92477 0.44983
 H1890 H 0.35018 0.91189 0.45646
 O1891 O 0.59818 1.07146 0.48055
 O1892 O 0.62128 1.09440 0.48052
 C1893 C 0.61425 1.07836 0.47377
 C1894 C 0.62449 1.06797 0.45743
 C1895 C 0.64239 1.07524 0.44988
 H1896 H 0.64925 1.08812 0.45647
 O1897 O 0.51899 0.92881 0.40112
 O1898 O 0.51910 0.90581 0.37802
 C1899 C 0.52584 0.92184 0.38507
 C1900 C 0.54223 0.93217 0.37487
 C1901 C 0.54987 0.92483 0.35698
 H1902 H 0.54337 0.91191 0.35013
 O1903 O 0.48051 1.07163 0.40149
 O1904 O 0.48037 1.09462 0.37831
 C1905 C 0.47365 1.07858 0.38542
 C1906 C 0.45730 1.06821 0.37523
 C1907 C 0.44967 1.07559 0.35733
 H1908 H 0.45612 1.08856 0.35049
 O1909 O 0.40151 1.01916 0.42846
 O1910 O 0.37844 1.01937 0.40543
 C1911 C 0.38550 1.02605 0.42151
 C1912 C 0.37534 1.04241 0.43190
 C1913 C 0.35745 1.04999 0.42459
 H1914 H 0.35057 1.04343 0.41168
 O1915 O 0.59818 0.98083 0.42827
 O1916 O 0.62123 0.98083 0.40522
 C1917 C 0.61421 0.97403 0.42129
 C1918 C 0.62445 0.95766 0.43166
 C1919 C 0.64230 0.95005 0.42428
 H1920 H 0.64911 0.95659 0.41131
 O1921 O 0.57112 0.90185 0.48051
 O1922 O 0.59410 0.87874 0.48053
 C1923 C 0.57810 0.88581 0.47370
 C1924 C 0.56783 0.87562 0.45725
 C1925 C 0.57534 0.85785 0.44954
 H1926 H 0.58832 0.85108 0.45606
 O1927 O 0.42848 1.09868 0.48068
 O1928 O 0.40544 1.12173 0.48058
 C1929 C 0.42149 1.11472 0.47382
 C1930 C 0.43180 1.12496 0.45742
 C1931 C 0.42440 1.14282 0.44978
 H1932 H 0.41145 1.14963 0.45630
 Cu1933 Cu 0.58234 1.00016 0.41705
 Cu1934 Cu 0.60997 1.00019 0.38933
 Cu1935 Cu 0.41723 0.99985 0.41714
 Cu1936 Cu 0.38958 1.00011 0.38943
 Cu1937 Cu 0.58236 1.08282 0.49977
 Cu1938 Cu 0.61003 1.11041 0.49976
 Cu1939 Cu 0.58235 0.91760 0.49987
 Cu1940 Cu 0.60996 0.88988 0.49992
 Cu1941 Cu 0.41731 1.08280 0.50004
 Cu1942 Cu 0.38961 1.11043 0.49992
 Cu1943 Cu 0.41715 0.91758 0.49981
 Cu1944 Cu 0.38957 0.88991 0.49996
 Cu1945 Cu 0.49986 1.08293 0.41720
 Cu1946 Cu 0.49970 1.11054 0.38940
 Cu1947 Cu 0.49966 0.91755 0.41688
 Cu1948 Cu 0.49978 0.88989 0.38923
 C1949 C 0.55117 0.94877 0.38361
 H1950 H 0.54559 0.95433 0.39756
 C1951 C 0.56626 0.93377 0.34811
 C1952 C 0.44841 1.05154 0.38394
 H1953 H 0.45399 1.04595 0.39789
 C1954 C 0.43336 1.06659 0.34842
 C1955 C 0.44843 1.11629 0.44846
 H1956 H 0.45402 1.10235 0.45405
 C1957 C 0.43332 1.15173 0.43335
 C1958 C 0.55115 0.88426 0.44831
 H1959 H 0.54546 0.89812 0.45396
 C1960 C 0.56648 0.84898 0.43308
 C1961 C 0.61578 0.94870 0.44832
 H1962 H 0.60186 0.95428 0.45391
 C1963 C 0.65119 0.93364 0.43324
 C1964 C 0.38411 1.05141 0.44848
 H1965 H 0.39807 1.04586 0.45400
 C1966 C 0.34859 1.06637 0.43354
 C1967 C 0.55112 1.05165 0.38359
 H1968 H 0.54557 1.04605 0.39754
 C1969 C 0.56612 1.06678 0.34808
 C1970 C 0.44834 0.94867 0.38331
 H1971 H 0.45398 0.95422 0.39723
 C1972 C 0.43312 0.93368 0.34789
 C1973 C 0.61574 1.05143 0.44840
 H1974 H 0.60178 1.04592 0.45393
 C1975 C 0.65125 1.06631 0.43346
 C1976 C 0.38361 0.94866 0.44836
 H1977 H 0.39753 0.95422 0.45392
 C1978 C 0.34821 0.93366 0.43333
 C1979 C 0.55140 1.11630 0.44807
 H1980 H 0.54567 1.10251 0.45385
 C1981 C 0.56683 1.15137 0.43249
 C1982 C 0.44817 0.88426 0.44811
 H1983 H 0.45379 0.89813 0.45374
 C1984 C 0.43301 0.84895 0.43291
 O1985 O 0.48091 0.42855 0.90156
 O1986 O 0.48091 0.40559 0.87842
 C1987 C 0.47414 0.42163 0.88547
 C1988 C 0.45779 0.43200 0.87522
 C1989 C 0.45030 0.42473 0.85725
 H1990 H 0.45694 0.41188 0.85035
 O1991 O 0.51904 0.57140 0.90173
 O1992 O 0.51899 0.59442 0.87857
 C1993 C 0.52581 0.57838 0.88563
 C1994 C 0.54219 0.56808 0.87539
 C1995 C 0.54977 0.57548 0.85750
 H1996 H 0.54320 0.58841 0.85065
 O1997 O 0.40138 0.48060 0.92867
 O1998 O 0.37834 0.48065 0.90560
 C1999 C 0.38532 0.47387 0.92170
 C2000 C 0.37504 0.45760 0.93214
 C2001 C 0.35709 0.45010 0.92492
 H2002 H 0.35024 0.45662 0.91196
 O2003 O 0.59836 0.51925 0.92874
 O2004 O 0.62140 0.51932 0.90568
 C2005 C 0.61438 0.52606 0.92176
 C2006 C 0.62459 0.54239 0.93213
 C2007 C 0.64246 0.54997 0.92480
 H2008 H 0.64931 0.54343 0.91187
 O2009 O 0.42855 0.40177 0.98080
 O2010 O 0.40558 0.37870 0.98088
 C2011 C 0.42156 0.38574 0.97400
 C2012 C 0.43178 0.37555 0.95751
 C2013 C 0.42423 0.35786 0.94973
 H2014 H 0.41122 0.35113 0.95620
 O2015 O 0.57119 0.59840 0.98082
 O2016 O 0.59415 0.62147 0.98080
 C2017 C 0.57814 0.61445 0.97400
 C2018 C 0.56780 0.62469 0.95759
 C2019 C 0.57512 0.64258 0.94997
 H2020 H 0.58804 0.64940 0.95650
 O2021 O 0.42859 0.51910 0.90162
 O2022 O 0.40564 0.51919 0.87847
 C2023 C 0.42166 0.52593 0.88553
 C2024 C 0.43198 0.54232 0.87531
 C2025 C 0.42468 0.54988 0.85737
 H2026 H 0.41183 0.54329 0.85046
 O2027 O 0.57135 0.48071 0.90164
 O2028 O 0.59431 0.48075 0.87850
 C2029 C 0.57832 0.47393 0.88556
 C2030 C 0.56806 0.45752 0.87534
 C2031 C 0.57546 0.44992 0.85746
 H2032 H 0.58834 0.45650 0.85060
 O2033 O 0.51931 0.40126 0.92874
 O2034 O 0.51932 0.37820 0.90570
 C2035 C 0.52607 0.38518 0.92179
 C2036 C 0.54238 0.37489 0.93218
 C2037 C 0.55000 0.35702 0.92482
 H2038 H 0.54350 0.35020 0.91186
 O2039 O 0.48050 0.59849 0.92887
 O2040 O 0.48045 0.62158 0.90579
 C2041 C 0.47372 0.61458 0.92190
 C2042 C 0.45746 0.62489 0.93233
 C2043 C 0.45003 0.64289 0.92506
 H2044 H 0.45661 0.64974 0.91213
 O2045 O 0.40152 0.57155 0.98093
 O2046 O 0.37844 0.59457 0.98076
 C2047 C 0.38553 0.57853 0.97401
 C2048 C 0.37541 0.56818 0.95758
 C2049 C 0.35755 0.57551 0.94992
 H2050 H 0.35068 0.58844 0.95643
 O2051 O 0.59825 0.42833 0.98076
 O2052 O 0.62132 0.40530 0.98081
 C2053 C 0.61428 0.42134 0.97396
 C2054 C 0.62449 0.43168 0.95755
 C2055 C 0.64232 0.42429 0.94989
 H2056 H 0.64913 0.41130 0.95639
 O2057 O 0.48048 0.57144 0.90175
 O2058 O 0.48041 0.59445 0.87860
 C2059 C 0.47368 0.57839 0.88566
 C2060 C 0.45739 0.56801 0.87540
 C2061 C 0.44983 0.57534 0.85745
 H2062 H 0.45631 0.58830 0.85061
 O2063 O 0.51946 0.42845 0.90169
 O2064 O 0.51951 0.40547 0.87858
 C2065 C 0.52628 0.42149 0.88563
 C2066 C 0.54264 0.43183 0.87540
 C2067 C 0.55029 0.42447 0.85752
 H2068 H 0.54383 0.41151 0.85070
 O2069 O 0.59835 0.48066 0.92874
 O2070 O 0.62139 0.48068 0.90567
 C2071 C 0.61437 0.47386 0.92173
 C2072 C 0.62456 0.45741 0.93203
 C2073 C 0.64240 0.44980 0.92464
 H2074 H 0.64927 0.45642 0.91174
 O2075 O 0.40166 0.51921 0.92878
 O2076 O 0.37863 0.51930 0.90571
 C2077 C 0.38566 0.52607 0.92177
 C2078 C 0.37547 0.54251 0.93206
 C2079 C 0.35761 0.55008 0.92466
 H2080 H 0.35078 0.54350 0.91175
 O2081 O 0.42843 0.59869 0.98115
 O2082 O 0.40545 0.62180 0.98102
 C2083 C 0.42152 0.61477 0.97432
 C2084 C 0.43194 0.62501 0.95799
 C2085 C 0.42475 0.64301 0.95047
 H2086 H 0.41190 0.64994 0.95706
 O2087 O 0.57127 0.40124 0.98091
 O2088 O 0.59426 0.37813 0.98099
 C2089 C 0.57823 0.38515 0.97418
 C2090 C 0.56791 0.37488 0.95783
 C2091 C 0.57529 0.35701 0.95023
 H2092 H 0.58821 0.35017 0.95680
 O2093 O 0.57127 0.51932 0.90169
 O2094 O 0.59424 0.51940 0.87855
 C2095 C 0.57821 0.52616 0.88561
 C2096 C 0.56784 0.54255 0.87539
 C2097 C 0.57518 0.55021 0.85750
 H2098 H 0.58812 0.54372 0.85065
 O2099 O 0.42858 0.48050 0.90168
 O2100 O 0.40563 0.48056 0.87853
 C2101 C 0.42165 0.47375 0.88558
 C2102 C 0.43206 0.45745 0.87529
 C2103 C 0.42480 0.44991 0.85733
 H2104 H 0.41185 0.45641 0.85049
 O2105 O 0.51905 0.59850 0.92874
 O2106 O 0.51902 0.62158 0.90565
 C2107 C 0.52583 0.61454 0.92172
 C2108 C 0.54220 0.62474 0.93202
 C2109 C 0.54976 0.64263 0.92464
 H2110 H 0.54318 0.64950 0.91171
 O2111 O 0.48075 0.40152 0.92869
 O2112 O 0.48070 0.37848 0.90563
 C2113 C 0.47388 0.38554 0.92167
 C2114 C 0.45738 0.37544 0.93192
 C2115 C 0.44958 0.35775 0.92439
 H2116 H 0.45605 0.35095 0.91139
 O2117 O 0.59823 0.57134 0.98090
 O2118 O 0.62127 0.59433 0.98089
 C2119 C 0.61428 0.57830 0.97411
 C2120 C 0.62453 0.56795 0.95775
 C2121 C 0.64240 0.57528 0.95018
 H2122 H 0.64922 0.58820 0.95674
 O2123 O 0.40143 0.42875 0.98097
 O2124 O 0.37840 0.40575 0.98110
 C2125 C 0.38536 0.42180 0.97426
 C2126 C 0.37505 0.43214 0.95792
 C2127 C 0.35709 0.42489 0.95049
 H2128 H 0.35024 0.41204 0.95717
 Cu2129 Cu 0.50012 0.41724 0.91748
 Cu2130 Cu 0.50012 0.38962 0.88977
 Cu2131 Cu 0.49976 0.58265 0.91758
 Cu2132 Cu 0.49970 0.61032 0.88983
 Cu2133 Cu 0.41735 0.49982 0.91750
 Cu2134 Cu 0.38975 0.49993 0.88976
 Cu2135 Cu 0.58253 0.49999 0.91751
 Cu2136 Cu 0.61015 0.50005 0.88978
 C2137 C 0.44870 0.44851 0.88400
 H2138 H 0.45420 0.45401 0.89800
 C2139 C 0.43388 0.43363 0.84837
 C2140 C 0.55122 0.55147 0.88412
 H2141 H 0.54567 0.54586 0.89807
 C2142 C 0.56619 0.56661 0.84861
 C2143 C 0.38378 0.44864 0.94878
 H2144 H 0.39777 0.45413 0.95424
 C2145 C 0.34817 0.43381 0.93406
 C2146 C 0.61585 0.55136 0.94875
 H2147 H 0.60191 0.54582 0.95429
 C2148 C 0.65131 0.56634 0.93378
 C2149 C 0.44849 0.38413 0.94861
 H2150 H 0.45421 0.39794 0.95431
 C2151 C 0.43307 0.34902 0.93323
 C2152 C 0.55121 0.61600 0.94864
 H2153 H 0.54567 0.60206 0.95423
 C2154 C 0.56614 0.65149 0.93357
 C2155 C 0.44848 0.55136 0.88411
 H2156 H 0.45401 0.54582 0.89811
 C2157 C 0.43355 0.56632 0.84850
 C2158 C 0.55151 0.44849 0.88409
 H2159 H 0.54591 0.45406 0.89802
 C2160 C 0.56663 0.43347 0.84862
 C2161 C 0.55130 0.38358 0.94883
 H2162 H 0.54572 0.39751 0.95440
 C2163 C 0.56640 0.34814 0.93379
 C2164 C 0.44845 0.61618 0.94894
 H2165 H 0.45388 0.60214 0.95444
 C2166 C 0.43375 0.65189 0.93408
 C2167 C 0.38416 0.55155 0.94866
 H2168 H 0.39809 0.54601 0.95426
 C2169 C 0.34871 0.56650 0.93354
 C2170 C 0.61583 0.44837 0.94862
 H2171 H 0.60192 0.45396 0.95422
 C2172 C 0.65121 0.43330 0.93351
 O2173 O 0.51918 0.42865 1.09924
 O2174 O 0.51914 0.40558 1.12233
 C2175 C 0.52595 0.42161 1.11531
 C2176 C 0.54235 0.43186 1.12555
 C2177 C 0.55001 0.42440 1.14340
 H2178 H 0.54347 0.41147 1.15025
 O2179 O 0.48055 0.57145 1.09896
 O2180 O 0.48062 0.59443 1.12208
 C2181 C 0.47383 0.57841 1.11507
 C2182 C 0.45750 0.56809 1.12536
 C2183 C 0.44999 0.57541 1.14331
 H2184 H 0.45659 0.58828 1.15017
 O2185 O 0.40132 0.51962 1.07191
 O2186 O 0.37826 0.51958 1.09495
 C2187 C 0.38525 0.52637 1.07887
 C2188 C 0.37494 0.54267 1.06844
 C2189 C 0.35697 0.55014 1.07567
 H2190 H 0.35013 0.54357 1.08861
 O2191 O 0.59816 0.48046 1.07174
 O2192 O 0.62126 0.48043 1.09475
 C2193 C 0.61423 0.47367 1.07869
 C2194 C 0.62447 0.45734 1.06829
 C2195 C 0.64237 0.44977 1.07561
 H2196 H 0.64920 0.45629 1.08856
 O2197 O 0.57124 0.40146 1.01957
 O2198 O 0.59423 0.37835 1.01970
 C2199 C 0.57821 0.38543 1.02647
 C2200 C 0.56789 0.37529 1.04293
 C2201 C 0.57515 0.35735 1.05053
 H2202 H 0.58800 0.35043 1.04395
 O2203 O 0.42823 0.59852 1.01980
 O2204 O 0.40520 0.62159 1.01972
 C2205 C 0.42119 0.61454 1.02660
 C2206 C 0.43139 0.62472 1.04309
 C2207 C 0.42384 0.64246 1.05083
 H2208 H 0.41085 0.64922 1.04433
 O2209 O 0.42847 0.48099 1.09899
 O2210 O 0.40548 0.48093 1.12211
 C2211 C 0.42151 0.47416 1.11506
 C2212 C 0.43182 0.45774 1.12529
 C2213 C 0.42443 0.45010 1.14317
 H2214 H 0.41152 0.45666 1.15001
 O2215 O 0.57113 0.51907 1.09882
 O2216 O 0.59416 0.51910 1.12189
 C2217 C 0.57813 0.52589 1.11486
 C2218 C 0.56784 0.54231 1.12505
 C2219 C 0.57535 0.55002 1.14283
 H2220 H 0.58831 0.54350 1.14962
 O2221 O 0.48074 0.40174 1.07192
 O2222 O 0.48068 0.37858 1.09493
 C2223 C 0.47398 0.38564 1.07883
 C2224 C 0.45777 0.37537 1.06833
 C2225 C 0.45038 0.35733 1.07550
 H2226 H 0.45695 0.35042 1.08841
 O2227 O 0.51892 0.59853 1.07164
 O2228 O 0.51900 0.62161 1.09467
 C2229 C 0.52572 0.61459 1.07858
 C2230 C 0.54203 0.62481 1.06816
 C2231 C 0.54957 0.64272 1.07545
 H2232 H 0.54302 0.64959 1.08836
 O2233 O 0.40170 0.42880 1.01962
 O2234 O 0.37870 0.40577 1.01977
 C2235 C 0.38571 0.42183 1.02650
 C2236 C 0.37549 0.43219 1.04288
 C2237 C 0.35761 0.42487 1.05045
 H2238 H 0.35080 0.41194 1.04391
 O2239 O 0.59814 0.57130 1.01955
 O2240 O 0.62118 0.59430 1.01958
 C2241 C 0.61417 0.57825 1.02637
 C2242 C 0.62440 0.56786 1.04274
 C2243 C 0.64230 0.57513 1.05029
 H2244 H 0.64913 0.58805 1.04372
 O2245 O 0.51909 0.57143 1.09878
 O2246 O 0.51920 0.59443 1.12188
 C2247 C 0.52594 0.57837 1.11483
 C2248 C 0.54233 0.56799 1.12503
 C2249 C 0.55009 0.57545 1.14281
 H2250 H 0.54365 0.58845 1.14960
 O2251 O 0.48060 0.42877 1.09906
 O2252 O 0.48051 0.40569 1.12214
 C2253 C 0.47375 0.42175 1.11510
 C2254 C 0.45735 0.43208 1.12531
 C2255 C 0.44970 0.42468 1.14319
 H2256 H 0.45619 0.41172 1.15003
 O2257 O 0.59822 0.51905 1.07179
 O2258 O 0.62133 0.51905 1.09479
 C2259 C 0.61427 0.52584 1.07872
 C2260 C 0.62446 0.54220 1.06833
 C2261 C 0.64236 0.54972 1.07563
 H2262 H 0.64924 0.54312 1.08854
 O2263 O 0.40153 0.48104 1.07183
 O2264 O 0.37846 0.48095 1.09486
 C2265 C 0.38551 0.47420 1.07880
 C2266 C 0.37537 0.45782 1.06844
 C2267 C 0.35749 0.45025 1.07575
 H2268 H 0.35060 0.45681 1.08866
 O2269 O 0.57109 0.59839 1.01947
 O2270 O 0.59405 0.62147 1.01949
 C2271 C 0.57801 0.61445 1.02625
 C2272 C 0.56762 0.62473 1.04257
 C2273 C 0.57491 0.64264 1.05010
 H2274 H 0.58782 0.64946 1.04354
 O2275 O 0.42875 0.40171 1.01948
 O2276 O 0.40583 0.37860 1.01959
 C2277 C 0.42187 0.38563 1.02630
 C2278 C 0.43231 0.37536 1.04262
 C2279 C 0.42517 0.35732 1.05003
 H2280 H 0.41236 0.35041 1.04337
 O2281 O 0.57131 0.48047 1.09906
 O2282 O 0.59434 0.48045 1.12214
 C2283 C 0.57831 0.47367 1.11515
 C2284 C 0.56800 0.45732 1.12545
 C2285 C 0.57542 0.44962 1.14331
 H2286 H 0.58840 0.45606 1.15009
 O2287 O 0.42842 0.51960 1.09898
 O2288 O 0.40544 0.51958 1.12211
 C2289 C 0.42146 0.52636 1.11507
 C2290 C 0.43183 0.54266 1.12535
 C2291 C 0.42456 0.55022 1.14330
 H2292 H 0.41164 0.54372 1.15016
 O2293 O 0.48033 0.59856 1.07188
 O2294 O 0.48037 0.62162 1.09492
 C2295 C 0.47350 0.61459 1.07891
 C2296 C 0.45700 0.62477 1.06867
 C2297 C 0.44922 0.64252 1.07615
 H2298 H 0.45572 0.64935 1.08911
 O2299 O 0.51927 0.40178 1.07201
 O2300 O 0.51923 0.37862 1.09503
 C2301 C 0.52604 0.38569 1.07898
 C2302 C 0.54238 0.37542 1.06862
 C2303 C 0.54988 0.35748 1.07596
 H2304 H 0.54332 0.35065 1.08890
 O2305 O 0.59828 0.42844 1.01942
 O2306 O 0.62135 0.40542 1.01952
 C2307 C 0.61432 0.42148 1.02625
 C2308 C 0.62453 0.43184 1.04261
 C2309 C 0.64244 0.42453 1.05017
 H2310 H 0.64932 0.41165 1.04357
 O2311 O 0.40117 0.57157 1.01960
 O2312 O 0.37806 0.59456 1.01947
 C2313 C 0.38508 0.57852 1.02632
 C2314 C 0.37483 0.56816 1.04269
 C2315 C 0.35686 0.57540 1.05016
 H2316 H 0.34995 0.58825 1.04350
 Cu2317 Cu 0.49995 0.41756 1.08327
 Cu2318 Cu 0.49987 0.38980 1.11093
 Cu2319 Cu 0.49972 0.58270 1.08301
 Cu2320 Cu 0.49981 0.61034 1.11070
 Cu2321 Cu 0.41741 0.41756 1.00021
 Cu2322 Cu 0.38982 0.38988 1.00036
 Cu2323 Cu 0.58246 0.41717 1.00014
 Cu2324 Cu 0.61010 0.38948 1.00026
 Cu2325 Cu 0.41714 0.58278 1.00038
 Cu2326 Cu 0.38947 0.61045 1.00022
 Cu2327 Cu 0.58236 0.58255 1.00018
 Cu2328 Cu 0.60997 0.61021 1.00020
 Cu2329 Cu 0.41724 0.50033 1.08312
 Cu2330 Cu 0.38960 0.50026 1.11083
 Cu2331 Cu 0.58240 0.49975 1.08305
 Cu2332 Cu 0.61009 0.49975 1.11071
 C2333 C 0.55133 0.44845 1.11681
 H2334 H 0.54571 0.45409 1.10289
 C2335 C 0.56646 0.43324 1.15224
 C2336 C 0.44844 0.55158 1.11661
 H2337 H 0.45393 0.54606 1.10260
 C2338 C 0.43360 0.56652 1.15222
 C2339 C 0.38364 0.55166 1.05181
 H2340 H 0.39765 0.54620 1.04635
 C2341 C 0.34798 0.56643 1.06657
 C2342 C 0.61577 0.44839 1.05165
 H2343 H 0.60181 0.45393 1.04611
 C2344 C 0.65129 0.43344 1.06660
 C2345 C 0.55137 0.38411 1.05197
 H2346 H 0.54587 0.39809 1.04640
 C2347 C 0.56619 0.34850 1.06696
 C2348 C 0.44808 0.61609 1.05200
 H2349 H 0.45377 0.60225 1.04633
 C2350 C 0.43270 0.65130 1.06729
 C2351 C 0.44842 0.44874 1.11659
 H2352 H 0.45401 0.45434 1.10264
 C2353 C 0.43331 0.43365 1.15206
 C2354 C 0.55120 0.55129 1.11637
 H2355 H 0.54554 0.54566 1.10248
 C2356 C 0.56656 0.56655 1.15162
 C2357 C 0.44876 0.38416 1.05174
 H2358 H 0.45415 0.39823 1.04632
 C2359 C 0.43415 0.34837 1.06640
 C2360 C 0.55103 0.61604 1.05158
 H2361 H 0.54551 0.60207 1.04607
 C2362 C 0.56595 0.65157 1.06646
 C2363 C 0.38415 0.44881 1.05186
 H2364 H 0.39809 0.45435 1.04632
 C2365 C 0.34867 0.43385 1.06681
 C2366 C 0.61570 0.55125 1.05175
 H2367 H 0.60174 0.54575 1.04623
 C2368 C 0.65122 0.56612 1.06666
 C2369 C 1.10890 1.10853 1.23193
 N2370 N 1.10352 1.08923 1.23234
 N2371 N 1.09512 1.08092 1.21658
 C2372 C 1.09184 1.09167 1.19993
 N2373 N 1.09723 1.11096 1.19952
 N2374 N 1.10562 1.11927 1.21528
 C2375 C 1.11787 1.11750 1.24892
 C2376 C 1.12532 1.12501 1.26325
 C2377 C 1.08294 1.08272 1.18289
 C2378 C 1.07558 1.07535 1.16843
 C2379 C 1.10735 0.60785 0.73323
 N2380 N 1.10389 0.61854 0.71659
 N2381 N 1.09553 0.61013 0.70086
 C2382 C 1.09037 0.59078 0.70130
 N2383 N 1.09381 0.58008 0.71794
 N2384 N 1.10218 0.58849 0.73368
 C2385 C 1.11656 0.61691 0.75004
 C2386 C 1.12437 0.62465 0.76405
 C2387 C 1.08168 0.58172 0.68420
 C2388 C 1.07456 0.57439 0.66960
 C2389 C 0.60852 1.10787 0.73316
 N2390 N 0.60271 1.08869 0.73377
 N2391 N 0.59416 1.08039 0.71807
 C2392 C 0.59112 1.09104 0.70130
 N2393 N 0.59693 1.11020 0.70071
 N2394 N 0.60549 1.11849 0.71640
 C2395 C 0.61768 1.11687 0.75006
 C2396 C 0.62533 1.12458 0.76421
 C2397 C 0.58211 1.08213 0.68426
 C2398 C 0.57476 1.07493 0.66970
 C2399 C 0.60919 0.60901 1.23185
 N2400 N 0.60446 0.58954 1.23229
 N2401 N 0.59589 0.58104 1.21672
 C2402 C 0.59178 0.59176 1.20025
 N2403 N 0.59651 0.61123 1.19981
 N2404 N 0.60507 0.61973 1.21538
 C2405 C 0.61830 0.61818 1.24867
 C2406 C 0.62583 0.62580 1.26291
 C2407 C 0.58271 0.58262 1.18339
 C2408 C 0.57523 0.57515 1.16904
 C2409 C 0.89172 0.89221 1.23319
 N2410 N 0.88730 0.91107 1.22795
 N2411 N 0.89586 0.91934 1.21223
 C2412 C 0.90911 0.90902 1.20128
 N2413 N 0.91353 0.89017 1.20653
 N2414 N 0.90497 0.88190 1.22225
 C2415 C 0.88239 0.88322 1.25001
 C2416 C 0.87463 0.87554 1.26412
 C2417 C 0.91801 0.91775 1.18409
 C2418 C 0.92530 0.92491 1.16947
 C2419 C 0.89157 0.39208 0.73286
 N2420 N 0.90677 0.38288 0.72358
 N2421 N 0.91529 0.39111 0.70782
 C2422 C 0.90889 0.40882 0.70088
 N2423 N 0.89369 0.41801 0.71015
 N2424 N 0.88516 0.40978 0.72591
 C2425 C 0.88236 0.38315 0.74978
 C2426 C 0.87469 0.37556 0.76399
 C2427 C 0.91784 0.41754 0.68372
 C2428 C 0.92517 0.42475 0.66914
 C2429 C 0.39330 0.89339 0.73441
 N2430 N 0.41072 0.88650 0.72730
 N2431 N 0.41901 0.89485 0.71147
 C2432 C 0.41015 0.91034 0.70230
 N2433 N 0.39274 0.91723 0.70943
 N2434 N 0.38445 0.90889 0.72525
 C2435 C 0.38411 0.88409 0.75114
 C2436 C 0.37625 0.87618 0.76505
 C2437 C 0.41875 0.91892 0.68489
 C2438 C 0.42576 0.92595 0.67007
 C2439 C 0.39113 0.39260 1.23339
 N2440 N 0.40748 0.38436 1.22524
 N2441 N 0.41607 0.39266 1.20955
 C2442 C 0.40859 0.40948 1.20156
 N2443 N 0.39225 0.41773 1.20972
 N2444 N 0.38366 0.40942 1.22540
 C2445 C 0.38178 0.38352 1.25016
 C2446 C 0.37399 0.37580 1.26423
 C2447 C 0.41756 0.41816 1.18438
 C2448 C 0.42489 0.42530 1.16976
 C2449 C 0.89192 1.10721 0.76658
 N2450 N 0.88383 1.09104 0.77523
 N2451 N 0.89241 1.08271 0.79091
 C2452 C 0.90935 1.09029 0.79841
 N2453 N 0.91746 1.10645 0.78975
 N2454 N 0.90888 1.11478 0.77406
 C2455 C 0.88254 1.11638 0.74989
 C2456 C 0.87470 1.12419 0.73590
 C2457 C 0.91827 1.08167 0.81564
 C2458 C 0.92552 1.07460 0.83032
 C2459 C 0.89193 0.60724 0.26665
 N2460 N 0.88342 0.59152 0.27573
 N2461 N 0.89198 0.58316 0.29141
 C2462 C 0.90932 0.59025 0.29847
 N2463 N 0.91785 0.60595 0.28937
 N2464 N 0.90929 0.61431 0.27369
 C2465 C 0.88260 0.61641 0.24994
 C2466 C 0.87480 0.62422 0.23592
 C2467 C 0.91824 0.58158 0.31567
 C2468 C 0.92551 0.57446 0.33032
 C2469 C 0.39149 1.10727 0.26678
 N2470 N 0.38244 1.09229 0.27657
 N2471 N 0.39094 1.08405 0.29234
 C2472 C 0.40876 1.09052 0.29878
 N2473 N 0.41781 1.10548 0.28899
 N2474 N 0.40931 1.11373 0.27322
 C2475 C 0.38223 1.11635 0.24998
 C2476 C 0.37449 1.12411 0.23591
 C2477 C 0.41769 1.08194 0.31602
 C2478 C 0.42498 1.07487 0.33068
 C2479 C 0.39173 0.60743 0.76702
 N2480 N 0.38329 0.59160 0.77597
 N2481 N 0.39182 0.58324 0.79167
 C2482 C 0.40905 0.59044 0.79888
 N2483 N 0.41749 0.60627 0.78992
 N2484 N 0.40897 0.61463 0.77422
 C2485 C 0.38244 0.61659 0.75027
 C2486 C 0.37467 0.62436 0.73621
 C2487 C 0.41795 0.58176 0.81609
 C2488 C 0.42521 0.57462 0.83074
 C2489 C 1.10831 0.89207 0.76721
 N2490 N 1.10291 0.91138 0.76679
 N2491 N 1.09444 0.91969 0.78253
 C2492 C 1.09108 0.90893 0.79915
 N2493 N 1.09647 0.88963 0.79956
 N2494 N 1.10495 0.88132 0.78383
 C2495 C 1.11745 0.88309 0.75030
 C2496 C 1.12510 0.87543 0.73613
 C2497 C 1.08218 0.91787 0.81621
 C2498 C 1.07488 0.92517 0.83075
 C2499 C 1.10856 0.39195 0.26721
 N2500 N 1.10268 0.41112 0.26659
 N2501 N 1.09420 0.41944 0.28233
 C2502 C 1.09134 0.40883 0.29914
 N2503 N 1.09723 0.38967 0.29975
 N2504 N 1.10570 0.38136 0.28402
 C2505 C 1.11767 0.38297 0.25030
 C2506 C 1.12529 0.37531 0.23612
 C2507 C 1.08242 0.41777 0.31618
 C2508 C 1.07510 0.42508 0.33070
 C2509 C 0.60812 0.89233 0.26690
 N2510 N 0.60212 0.91146 0.26625
 N2511 N 0.59364 0.91977 0.28198
 C2512 C 0.59089 0.90920 0.29883
 N2513 N 0.59688 0.89008 0.29947
 N2514 N 0.60536 0.88177 0.28375
 C2515 C 0.61729 0.88335 0.25001
 C2516 C 0.62497 0.87566 0.23588
 C2517 C 0.58197 0.91813 0.31589
 C2518 C 0.57468 0.92540 0.33044
 C2519 C 0.60853 0.39218 0.76733
 N2520 N 0.60581 0.38159 0.78417
 N2521 N 0.59735 0.38986 0.79992
 C2522 C 0.59132 0.40897 0.79932
 N2523 N 0.59404 0.41958 0.78248
 N2524 N 0.60250 0.41130 0.76672
 C2525 C 0.61764 0.38323 0.75039
 C2526 C 0.62525 0.37559 0.73619
 C2527 C 0.58239 0.41786 0.81639
 C2528 C 0.57508 0.42510 0.83095
 C2529 C 1.23241 1.10745 1.10783
 N2530 N 1.22397 1.11565 1.09156
 N2531 N 1.20826 1.10727 1.08320
 C2532 C 1.20052 1.09043 1.09084
 N2533 N 1.20896 1.08223 1.10711
 N2534 N 1.22467 1.09060 1.11547
 C2535 C 1.24919 1.11659 1.11694
 C2536 C 1.26326 1.12436 1.12458
 C2537 C 1.18337 1.08165 1.08207
 C2538 C 1.16879 1.07445 1.07484
 C2539 C 1.23259 0.60752 0.60787
 N2540 N 1.22391 0.61597 0.59186
 N2541 N 1.20823 0.60758 0.58345
 C2542 C 1.20078 0.59047 0.59077
 N2543 N 1.20947 0.58202 0.60677
 N2544 N 1.22515 0.59041 0.61519
 C2545 C 1.24933 0.61668 0.61705
 C2546 C 1.26337 0.62445 0.62475
 C2547 C 1.18360 0.58171 0.58201
 C2548 C 1.16899 0.57454 0.57483
 C2549 C 0.73270 1.10734 0.60758
 N2550 N 0.72524 1.09023 0.61488
 N2551 N 0.70956 1.08186 0.60644
 C2552 C 0.70090 1.09033 0.59043
 N2553 N 0.70838 1.10742 0.58311
 N2554 N 0.72406 1.11580 0.59155
 C2555 C 0.74939 1.11652 0.61682
 C2556 C 0.76337 1.12434 0.62457
 C2557 C 0.68369 1.08163 0.58169
 C2558 C 0.66903 1.07453 0.57454
 C2559 C 0.73254 0.60742 1.10794
 N2560 N 0.72302 0.59238 1.11717
 N2561 N 0.70735 0.58395 1.10880
 C2562 C 0.70073 0.59027 1.09092
 N2563 N 0.71026 0.60530 1.08168
 N2564 N 0.72593 0.61373 1.09006
 C2565 C 0.74928 0.61665 1.11705
 C2566 C 0.76332 0.62446 1.12470
 C2567 C 0.68356 0.58153 1.08215
 C2568 C 0.66894 0.57438 1.07496
 C2569 C 1.23321 0.89303 0.89218
 N2570 N 1.22346 0.90794 0.88296
 N2571 N 1.20767 0.91618 0.89137
 C2572 C 1.20118 0.90977 0.90926
 N2573 N 1.21094 0.89487 0.91848
 N2574 N 1.22673 0.88663 0.91008
 C2575 C 1.25005 0.88396 0.88302
 C2576 C 1.26415 0.87625 0.87534
 C2577 C 1.18390 0.91833 0.91808
 C2578 C 1.16921 0.92535 0.92529
 C2579 C 1.23262 0.39223 0.39087
 N2580 N 1.21418 0.38669 0.38541
 N2581 N 1.19841 0.39488 0.39389
 C2582 C 1.20060 0.40885 0.40811
 N2583 N 1.21904 0.41439 0.41357
 N2584 N 1.23481 0.40620 0.40508
 C2585 C 1.24959 0.38330 0.38179
 C2586 C 1.26381 0.37570 0.37421
 C2587 C 1.18356 0.41764 0.41719
 C2588 C 1.16906 0.42488 0.42459
 C2589 C 0.73263 0.89275 0.39147
 N2590 N 0.72304 0.90787 0.38242
 N2591 N 0.70730 0.91615 0.39088
 C2592 C 0.70069 0.90958 0.40867
 N2593 N 0.71029 0.89446 0.41773
 N2594 N 0.72603 0.88618 0.40926
 C2595 C 0.74945 0.88369 0.38227
 C2596 C 0.76356 0.87600 0.37459
 C2597 C 0.68350 0.91821 0.41757
 C2598 C 0.66888 0.92533 0.42486
 C2599 C 0.73260 0.39249 0.89160
 N2600 N 0.72479 0.40944 0.88425
 N2601 N 0.70902 0.41763 0.89274
 C2602 C 0.70061 0.40912 0.90886
 N2603 N 0.70841 0.39216 0.91620
 N2604 N 0.72418 0.38398 0.90771
 C2605 C 0.74952 0.38360 0.88240
 C2606 C 0.76371 0.37605 0.87473
 C2607 C 0.68344 0.41777 0.91779
 C2608 C 0.66886 0.42494 0.92509
 C2609 C 0.76711 0.89263 1.10771
 N2610 N 0.77515 0.88484 1.09106
 N2611 N 0.79086 0.89324 1.08270
 C2612 C 0.79900 0.90969 1.09072
 N2613 N 0.79095 0.91749 1.10736
 N2614 N 0.77524 0.90909 1.11572
 C2615 C 0.75038 0.88340 1.11688
 C2616 C 0.73637 0.87556 1.12458
 C2617 C 0.81624 0.91840 1.08202
 C2618 C 0.83092 0.92551 1.07488
 C2619 C 0.76740 0.39227 0.60784
 N2620 N 0.77564 0.40866 0.61588
 N2621 N 0.79131 0.41706 0.60745
 C2622 C 0.79921 0.40934 0.59069
 N2623 N 0.79096 0.39296 0.58264
 N2624 N 0.77529 0.38456 0.59108
 C2625 C 0.75066 0.38310 0.61703
 C2626 C 0.73661 0.37534 0.62474
 C2627 C 0.81638 0.41809 0.58189
 C2628 C 0.83099 0.42524 0.57466
 C2629 C 0.26718 0.89246 0.60785
 N2630 N 0.27509 0.88484 0.59106
 N2631 N 0.29076 0.89329 0.58268
 C2632 C 0.29899 0.90964 0.59082
 N2633 N 0.29108 0.91727 0.60760
 N2634 N 0.27540 0.90882 0.61598
 C2635 C 0.25046 0.88321 0.61701
 C2636 C 0.23644 0.87538 0.62470
 C2637 C 0.31619 0.91842 0.58208
 C2638 C 0.33082 0.92558 0.57491
 C2639 C 0.26745 0.39211 1.10793
 N2640 N 0.28079 0.38102 1.09790
 N2641 N 0.29649 0.38945 1.08955
 C2642 C 0.29931 0.40924 1.09096
 N2643 N 0.28596 0.42035 1.10098
 N2644 N 0.27026 0.41191 1.10933
 C2645 C 0.25064 0.38298 1.11703
 C2646 C 0.23655 0.37524 1.12466
 C2647 C 0.31641 0.41821 1.08228
 C2648 C 0.33099 0.42550 1.07512
 C2649 C 0.76569 1.10673 0.89287
 N2650 N 0.77317 1.11407 0.90997
 N2651 N 0.78886 1.10567 0.91843
 C2652 C 0.79754 1.08965 0.91007
 N2653 N 0.79003 1.08227 0.89299
 N2654 N 0.77434 1.09067 0.88453
 C2655 C 0.74917 1.11615 0.88344
 C2656 C 0.73541 1.12418 0.87543
 C2657 C 0.81492 1.08112 0.91875
 C2658 C 0.82976 1.07420 0.92579
 C2659 C 0.76791 0.60820 0.39159
 N2660 N 0.77944 0.61853 0.40429
 N2661 N 0.79494 0.60995 0.41292
 C2662 C 0.79934 0.59077 0.40913
 N2663 N 0.78780 0.58042 0.39645
 N2664 N 0.77230 0.58900 0.38782
 C2665 C 0.75128 0.61748 0.38223
 C2666 C 0.73728 0.62528 0.37445
 C2667 C 0.81635 0.58172 0.41801
 C2668 C 0.83086 0.57436 0.42526
 C2669 C 0.26750 1.10788 0.39177
 N2670 N 0.27514 1.11541 0.40871
 N2671 N 0.29076 1.10696 0.41723
 C2672 C 0.29918 1.09069 0.40908
 N2673 N 0.29153 1.08315 0.39215
 N2674 N 0.27591 1.09161 0.38363
 C2675 C 0.25081 1.11710 0.38250
 C2676 C 0.23679 1.12486 0.37473
 C2677 C 0.31631 1.08190 0.41795
 C2678 C 0.33090 1.07471 0.42520
 C2679 C 0.26724 0.60744 0.89183
 N2680 N 0.27585 0.59132 0.88358
 N2681 N 0.29158 0.58301 0.89204
 C2682 C 0.29915 0.59054 0.90901
 N2683 N 0.29054 0.60666 0.91726
 N2684 N 0.27481 0.61497 0.90880
 C2685 C 0.25044 0.61654 0.88263
 C2686 C 0.23634 0.62428 0.87496
 C2687 C 0.31636 0.58188 0.91787
 C2688 C 0.33099 0.57477 0.92514
 C2689 C 1.10796 1.23240 1.10766
 N2690 N 1.09271 1.22311 1.11675
 N2691 N 1.08416 1.20751 1.10833
 C2692 C 1.09058 1.20076 1.09056
 N2693 N 1.10581 1.21005 1.08147
 N2694 N 1.11437 1.22565 1.08988
 C2695 C 1.11727 1.24907 1.11680
 C2696 C 1.12508 1.26308 1.12452
 C2697 C 1.08170 1.18367 1.08176
 C2698 C 1.07444 1.16912 1.07453
 C2699 C 1.10788 0.73247 0.60763
 N2700 N 1.11432 0.72572 0.58986
 N2701 N 1.10580 0.71008 0.58146
 C2702 C 1.09058 0.70076 0.59056
 N2703 N 1.08414 0.70753 0.60831
 N2704 N 1.09265 0.72315 0.61671
 C2705 C 1.11718 0.74915 0.61679
 C2706 C 1.12499 0.76315 0.62453
 C2707 C 1.08176 0.68362 0.58178
 C2708 C 1.07455 0.66902 0.57459
 C2709 C 0.60799 1.23259 0.60770
 N2710 N 0.59272 1.22331 0.61674
 N2711 N 0.58417 1.20773 0.60829
 C2712 C 0.59061 1.20100 0.59053
 N2713 N 0.60588 1.21029 0.58147
 N2714 N 0.61443 1.22587 0.58993
 C2715 C 0.61730 1.24925 0.61688
 C2716 C 0.62509 1.26325 0.62462
 C2717 C 0.58174 1.18393 0.58169
 C2718 C 0.57447 1.16939 0.57446
 C2719 C 0.60790 0.73264 1.10767
 N2720 N 0.61454 0.72559 1.09010
 N2721 N 0.60598 0.70996 1.08175
 C2722 C 0.59049 0.70094 1.09069
 N2723 N 0.58384 0.70799 1.10826
 N2724 N 0.59240 0.72362 1.11661
 C2725 C 0.61720 0.74937 1.11674
 C2726 C 0.62497 0.76342 1.12440
 C2727 C 0.58158 0.68383 1.08195
 C2728 C 0.57430 0.66925 1.07478
 C2729 C 0.89157 1.23252 0.89124
 N2730 N 0.90088 1.21881 0.87996
 N2731 N 0.90933 1.20310 0.88835
 C2732 C 0.90875 1.20063 0.90827
 N2733 N 0.89945 1.21435 0.91956
 N2734 N 0.89101 1.23007 0.91116
 C2735 C 0.88248 1.24943 0.88219
 C2736 C 0.87492 1.26370 0.87464
 C2737 C 0.91756 1.18352 0.91723
 C2738 C 0.92483 1.16897 0.92455
 C2739 C 0.89206 0.73272 0.39187
 N2740 N 0.91118 0.72822 0.38795
 N2741 N 0.91965 0.71252 0.39635
 C2742 C 0.90925 0.70086 0.40893
 N2743 N 0.89014 0.70537 0.41285
 N2744 N 0.88167 0.72107 0.40446
 C2745 C 0.88287 0.74951 0.38267
 C2746 C 0.87513 0.76360 0.37495
 C2747 C 0.91820 0.68370 0.41764
 C2748 C 0.92549 0.66909 0.42481
 C2749 C 0.39145 1.23303 0.39202
 N2750 N 0.38029 1.21933 0.40149
 N2751 N 0.38874 1.20361 0.40988
 C2752 C 0.40859 1.20113 0.40907
 N2753 N 0.41975 1.21483 0.39962
 N2754 N 0.41131 1.23055 0.39123
 C2755 C 0.38233 1.24986 0.38285
 C2756 C 0.37463 1.26398 0.37514
 C2757 C 0.41758 1.18399 0.41779
 C2758 C 0.42490 1.16940 0.42497
 C2759 C 0.39250 0.73323 0.89231
 N2760 N 0.41215 0.72992 0.89036
 N2761 N 0.42052 0.71424 0.89892
 C2762 C 0.40948 0.70144 0.90971
 N2763 N 0.38984 0.70477 0.91166
 N2764 N 0.38147 0.72044 0.90310
 C2765 C 0.38341 0.74996 0.88293
 C2766 C 0.37562 0.76394 0.87507
 C2767 C 0.41834 0.68430 0.91852
 C2768 C 0.42552 0.66966 0.92575
 C2769 C 1.10696 0.76681 0.89207
 N2770 N 1.11369 0.77364 0.90969
 N2771 N 1.10528 0.78929 0.91818
 C2772 C 1.08987 0.79857 0.90933
 N2773 N 1.08312 0.79173 0.89172
 N2774 N 1.09153 0.77607 0.88322
 C2775 C 1.11628 0.75021 0.88275
 C2776 C 1.12423 0.73633 0.87492
 C2777 C 1.08122 0.81578 0.91816
 C2778 C 1.07417 0.83046 0.92539
 C2779 C 1.10829 0.26765 0.39152
 N2780 N 1.11524 0.27470 0.40896
 N2781 N 1.10682 0.29035 0.41746
 C2782 C 1.09118 0.29940 0.40877
 N2783 N 1.08422 0.29235 0.39133
 N2784 N 1.09264 0.27670 0.38284
 C2785 C 1.11737 0.25083 0.38236
 C2786 C 1.12497 0.23666 0.37471
 C2787 C 1.08237 0.31649 0.41769
 C2788 C 1.07512 0.33103 0.42499
 C2789 C 0.60804 0.76751 0.39183
 N2790 N 0.61472 0.77450 0.40941
 N2791 N 0.60632 0.79026 0.41772
 C2792 C 0.59097 0.79951 0.40871
 N2793 N 0.58428 0.79252 0.39114
 N2794 N 0.59268 0.77675 0.38283
 C2795 C 0.61713 0.75059 0.38284
 C2796 C 0.62474 0.73637 0.37528
 C2797 C 0.58216 0.81672 0.41748
 C2798 C 0.57492 0.83132 0.42469
 C2799 C 0.60801 0.26680 0.89240
 N2800 N 0.61478 0.27382 0.90993
 N2801 N 0.60637 0.28955 0.91830
 C2802 C 0.59091 0.29872 0.90940
 N2803 N 0.58415 0.29171 0.89186
 N2804 N 0.59256 0.27598 0.88350
 C2805 C 0.61715 0.24996 0.88330
 C2806 C 0.62482 0.23585 0.87557
 C2807 C 0.58208 0.31589 0.91820
 C2808 C 0.57482 0.33047 0.92542
 C2809 C 0.89187 0.76740 1.10753
 N2810 N 0.88227 0.77800 1.09346
 N2811 N 0.89088 0.79361 1.08507
 C2812 C 0.90936 0.79905 1.09049
 N2813 N 0.91898 0.78844 1.10455
 N2814 N 0.91036 0.77283 1.11293
 C2815 C 0.88252 0.75073 1.11670
 C2816 C 0.87468 0.73674 1.12443
 C2817 C 0.91840 0.81615 1.08182
 C2818 C 0.92573 0.83073 1.07470
 C2819 C 0.89190 0.26715 0.60736
 N2820 N 0.88273 0.27707 0.59251
 N2821 N 0.89132 0.29268 0.58411
 C2822 C 0.90935 0.29881 0.59029
 N2823 N 0.91852 0.28888 0.60513
 N2824 N 0.90993 0.27327 0.61353
 C2825 C 0.88257 0.25046 0.61653
 C2826 C 0.87476 0.23645 0.62426
 C2827 C 0.91835 0.31592 0.58159
 C2828 C 0.92565 0.33050 0.57444
 C2829 C 0.39181 0.76743 0.60755
 N2830 N 0.40950 0.77404 0.61420
 N2831 N 0.41805 0.78967 0.60579
 C2832 C 0.40919 0.79912 0.59046
 N2833 N 0.39151 0.79250 0.58380
 N2834 N 0.38296 0.77687 0.59220
 C2835 C 0.38250 0.75076 0.61675
 C2836 C 0.37468 0.73676 0.62451
 C2837 C 0.41811 0.81627 0.58176
 C2838 C 0.42537 0.83088 0.57461
 C2839 C 0.39204 0.26731 1.10764
 N2840 N 0.38596 0.27391 1.08967
 N2841 N 0.39466 0.28945 1.08125
 C2842 C 0.40973 0.29882 1.09052
 N2843 N 0.41582 0.29221 1.10848
 N2844 N 0.40712 0.27667 1.11690
 C2845 C 0.38251 0.25075 1.11683
 C2846 C 0.37454 0.23685 1.12460
 C2847 C 0.41866 0.31595 1.08177
 C2848 C 0.42589 0.33058 1.07464
 C2849 C 1.10769 1.10894 0.76674
 N2850 N 1.10335 1.08937 0.76670
 N2851 N 1.09511 1.08094 0.78252
 C2852 C 1.09095 1.09183 0.79885
 N2853 N 1.09527 1.11140 0.79887
 N2854 N 1.10351 1.11982 0.78305
 C2855 C 1.11675 1.11799 0.74979
 C2856 C 1.12445 1.12560 0.73560
 C2857 C 1.08230 1.08276 0.81600
 C2858 C 1.07515 1.07537 0.83060
 C2859 C 1.10679 0.60821 0.26547
 N2860 N 1.10283 0.61915 0.28181
 N2861 N 1.09478 0.61078 0.29775
 C2862 C 1.09044 0.59121 0.29785
 N2863 N 1.09441 0.58027 0.28151
 N2864 N 1.10246 0.58864 0.26556
 C2865 C 1.11568 0.61723 0.24839
 C2866 C 1.12330 0.62488 0.23417
 C2867 C 1.08195 0.58222 0.31514
 C2868 C 1.07493 0.57491 0.32984
 C2869 C 0.60764 1.10856 0.26680
 N2870 N 0.60408 1.11931 0.28335
 N2871 N 0.59564 1.11095 0.29909
 C2872 C 0.59049 1.09159 0.29875
 N2873 N 0.59404 1.08083 0.28219
 N2874 N 0.60248 1.08920 0.26645
 C2875 C 0.61690 1.11755 0.24994
 C2876 C 0.62474 1.12514 0.23583
 C2877 C 0.58169 1.08258 0.31584
 C2878 C 0.57448 1.07523 0.33041
 C2879 C 0.60743 0.60837 0.76718
 N2880 N 0.60385 0.61915 0.78371
 N2881 N 0.59548 0.61079 0.79948
 C2882 C 0.59042 0.59141 0.79920
 N2883 N 0.59398 0.58063 0.78267
 N2884 N 0.60236 0.58899 0.76689
 C2885 C 0.61663 0.61734 0.75028
 C2886 C 0.62442 0.62491 0.73614
 C2887 C 0.58168 0.58240 0.81633
 C2888 C 0.57452 0.57506 0.83092
 C2889 C 0.89149 0.89123 0.76796
 N2890 N 0.90649 0.88209 0.77764
 N2891 N 0.91487 0.89058 0.79332
 C2892 C 0.90853 0.90847 0.79976
 N2893 N 0.89353 0.91761 0.79007
 N2894 N 0.88515 0.90912 0.77440
 C2895 C 0.88246 0.88211 0.75108
 C2896 C 0.87488 0.87455 0.73684
 C2897 C 0.91735 0.91746 0.81682
 C2898 C 0.92463 0.92485 0.83130
 C2899 C 0.89234 0.39140 0.26677
 N2900 N 0.90789 0.38265 0.27592
 N2901 N 0.91630 0.39112 0.29159
 C2902 C 0.90942 0.40860 0.29859
 N2903 N 0.89388 0.41736 0.28943
 N2904 N 0.88547 0.40889 0.27375
 C2905 C 0.88310 0.38217 0.25004
 C2906 C 0.87526 0.37447 0.23601
 C2907 C 0.91815 0.41748 0.31577
 C2908 C 0.92529 0.42478 0.33038
 C2909 C 0.39192 0.89150 0.26678
 N2910 N 0.40769 0.88304 0.27583
 N2911 N 0.41602 0.89163 0.29147
 C2912 C 0.40886 0.90898 0.29852
 N2913 N 0.39310 0.91746 0.28948
 N2914 N 0.38477 0.90886 0.27383
 C2915 C 0.38286 0.88214 0.25005
 C2916 C 0.37524 0.87425 0.23600
 C2917 C 0.41753 0.91798 0.31565
 C2918 C 0.42470 0.92531 0.33022
 C2919 C 0.39306 0.39180 0.76689
 N2920 N 0.41036 0.38485 0.77424
 N2921 N 0.41866 0.39339 0.78994
 C2922 C 0.40993 0.40915 0.79872
 N2923 N 0.39264 0.41611 0.79136
 N2924 N 0.38434 0.40757 0.77567
 C2925 C 0.38396 0.38246 0.75015
 C2926 C 0.37620 0.37467 0.73613
 C2927 C 0.41858 0.41803 0.81594
 C2928 C 0.42566 0.42529 0.83059
 C2929 C 1.10710 0.89237 1.23436
 N2930 N 1.10161 0.91166 1.23465
 N2931 N 1.09335 0.91994 1.21875
 C2932 C 1.09033 0.90917 1.20209
 N2933 N 1.09581 0.88989 1.20183
 N2934 N 1.10407 0.88162 1.21772
 C2935 C 1.11619 0.88345 1.25137
 C2936 C 1.12393 0.87577 1.26550
 C2937 C 1.08169 0.91806 1.18484
 C2938 C 1.07459 0.92526 1.17013
 C2939 C 1.10750 0.39085 0.73321
 N2940 N 1.10189 0.41009 0.73362
 N2941 N 1.09369 0.41846 0.71773
 C2942 C 1.09087 0.40783 0.70096
 N2943 N 1.09647 0.38858 0.70056
 N2944 N 1.10466 0.38022 0.71644
 C2945 C 1.11654 0.38188 0.75021
 C2946 C 1.12424 0.37436 0.76445
 C2947 C 1.08225 0.41685 0.68376
 C2948 C 1.07513 0.42422 0.66915
 C2949 C 0.60753 0.89177 0.73298
 N2950 N 0.60459 0.88118 0.71621
 N2951 N 0.59620 0.88956 0.70044
 C2952 C 0.59050 0.90878 0.70098
 N2953 N 0.59344 0.91937 0.71775
 N2954 N 0.60183 0.91098 0.73352
 C2955 C 0.61671 0.88277 0.74988
 C2956 C 0.62448 0.87518 0.76403
 C2957 C 0.58172 0.91781 0.68389
 C2958 C 0.57450 0.92517 0.66933
 C2959 C 0.60814 0.39116 1.23339
 N2960 N 0.59127 0.38367 1.22563
 N2961 N 0.58281 0.39223 1.20999
 C2962 C 0.59094 0.40855 1.20166
 N2963 N 0.60780 0.41604 1.20943
 N2964 N 0.61626 0.40749 1.22506
 C2965 C 0.61735 0.38185 1.25014
 C2966 C 0.62511 0.37405 1.26420
 C2967 C 0.58210 0.41748 1.18452
 C2968 C 0.57485 0.42479 1.16992
 C2969 C 0.89277 1.10777 1.23340
 N2970 N 0.88584 1.09036 1.22632
 N2971 N 0.89426 1.08189 1.21064
 C2972 C 0.90988 1.09056 1.20159
 N2973 N 0.91683 1.10795 1.20868
 N2974 N 0.90841 1.11643 1.22436
 C2975 C 0.88349 1.11704 1.25008
 C2976 C 0.87561 1.12482 1.26404
 C2977 C 0.91858 1.08173 1.18436
 C2978 C 0.92570 1.07452 1.16969
 C2979 C 0.89248 0.60825 0.73289
 N2980 N 0.89377 0.58829 0.73160
 N2981 N 0.90210 0.57984 0.71586
 C2982 C 0.90940 0.59110 0.70094
 N2983 N 0.90811 0.61106 0.70224
 N2984 N 0.89978 0.61951 0.71797
 C2985 C 0.88333 0.61736 0.74974
 C2986 C 0.87558 0.62501 0.76386
 C2987 C 0.91807 0.58205 0.68382
 C2988 C 0.92523 0.57470 0.66923
 C2989 C 0.39213 1.10857 0.73273
 N2990 N 0.38847 1.08934 0.72842
 N2991 N 0.39694 1.08084 0.71278
 C2992 C 0.40935 1.09130 0.70101
 N2993 N 0.41301 1.11052 0.70533
 N2994 N 0.40454 1.11902 0.72097
 C2995 C 0.38287 1.11777 0.74944
 C2996 C 0.37507 1.12550 0.76348
 C2997 C 0.41810 1.08233 0.68391
 C2998 C 0.42529 1.07501 0.66933
 C2999 C 0.39256 0.60856 1.23354
 N3000 N 0.41034 0.61483 1.22680
 N3001 N 0.41870 0.60620 1.21117
 C3002 C 0.40955 0.59103 1.20183
 N3003 N 0.39178 0.58474 1.20859
 N3004 N 0.38341 0.59337 1.22422
 C3005 C 0.38339 0.61802 1.25017
 C3006 C 0.37557 0.62593 1.26410
 C3007 C 0.41825 0.58213 1.18465
 C3008 C 0.42536 0.57487 1.16999
 C3009 C 1.10783 1.23364 0.89291
 N3010 N 1.11446 1.22644 0.91044
 N3011 N 1.10598 1.21065 0.91864
 C3012 C 1.09060 1.20161 0.90955
 N3013 N 1.08395 1.20883 0.89203
 N3014 N 1.09243 1.22461 0.88384
 C3015 C 1.11723 1.25037 0.88386
 C3016 C 1.12517 1.26432 0.87611
 C3017 C 1.08182 1.18428 0.91810
 C3018 C 1.07466 1.16954 0.92512
 C3019 C 1.10764 0.73332 0.39210
 N3020 N 1.09246 0.72399 0.38295
 N3021 N 1.08414 0.70814 0.39118
 C3022 C 1.09074 0.70114 0.40881
 N3023 N 1.10591 0.71048 0.41796
 N3024 N 1.11422 0.72633 0.40973
 C3025 C 1.11674 0.75027 0.38313
 C3026 C 1.12443 0.76446 0.37557
 C3027 C 1.08205 0.68383 0.41748
 C3028 C 1.07492 0.66914 0.42462
 C3029 C 0.60876 1.23251 0.39093
 N3030 N 0.61495 1.22586 0.40883
 N3031 N 0.60651 1.21011 0.41714
 C3032 C 0.59158 1.20056 0.40781
 N3033 N 0.58539 1.20721 0.38990
 N3034 N 0.59383 1.22296 0.38159
 C3035 C 0.61783 1.24950 0.38200
 C3036 C 0.62540 1.26382 0.37454
 C3037 C 0.58267 1.18344 0.41664
 C3038 C 0.57534 1.16892 0.42394
 C3039 C 0.60750 0.73299 0.89232
 N3040 N 0.61400 0.72611 0.91003
 N3041 N 0.60556 0.71040 0.91839
 C3042 C 0.59033 0.70110 0.90930
 N3043 N 0.58381 0.70799 0.89160
 N3044 N 0.59226 0.72370 0.88324
 C3045 C 0.61678 0.74973 0.88320
 C3046 C 0.62464 0.76376 0.87552
 C3047 C 0.58157 0.68388 0.91804
 C3048 C 0.57441 0.66923 0.92523
 C3049 C 0.89230 1.23267 1.10852
 N3050 N 0.91126 1.22770 1.11270
 N3051 N 0.91957 1.21202 1.10416
 C3052 C 0.90920 1.20085 1.09115
 N3053 N 0.89025 1.20583 1.08697
 N3054 N 0.88194 1.22151 1.09551
 C3055 C 0.88326 1.24946 1.11780
 C3056 C 0.87556 1.26355 1.12554
 C3057 C 0.91797 1.18370 1.08227
 C3058 C 0.92513 1.16910 1.07497
 C3059 C 0.89139 0.73172 0.60890
 N3060 N 0.88170 0.71420 0.60824
 N3061 N 0.89006 0.69850 0.59978
 C3062 C 0.90834 0.69983 0.59171
 N3063 N 0.91803 0.71735 0.59237
 N3064 N 0.90967 0.73305 0.60083
 C3065 C 0.88236 0.74865 0.61793
 C3066 C 0.87478 0.76293 0.62543
 C3067 C 0.91733 0.68286 0.58271
 C3068 C 0.92472 0.66843 0.57532
 C3069 C 0.39228 1.23323 0.60813
 N3070 N 0.41212 1.23060 0.60880
 N3071 N 0.42040 1.21488 0.60027
 C3072 C 0.40909 1.20134 0.59079
 N3073 N 0.38925 1.20398 0.59012
 N3074 N 0.38097 1.21969 0.59864
 C3075 C 0.38329 1.25005 0.61744
 C3076 C 0.37559 1.26413 0.62521
 C3077 C 0.41790 1.18416 0.58197
 C3078 C 0.42508 1.16953 0.57476
 C3079 C 0.39148 0.73263 1.10911
 N3080 N 0.39575 0.71639 1.12009
 N3081 N 0.40399 0.70058 1.11171
 C3082 C 0.40824 0.70054 1.09209
 N3083 N 0.40398 0.71679 1.08109
 N3084 N 0.39574 0.73260 1.08948
 C3085 C 0.38263 0.74965 1.11817
 C3086 C 0.37521 0.76396 1.12577
 C3087 C 0.41697 0.68344 1.08309
 C3088 C 0.42421 0.66890 1.07575
 C3089 C 0.89232 0.76727 0.89209
 N3090 N 0.88368 0.77621 0.90784
 N3091 N 0.89208 0.79190 0.91625
 C3092 C 0.90938 0.79910 0.90919
 N3093 N 0.91803 0.79015 0.89346
 N3094 N 0.90963 0.77447 0.88505
 C3095 C 0.88316 0.75051 0.88291
 C3096 C 0.87540 0.73645 0.87523
 C3097 C 0.91816 0.81629 0.91796
 C3098 C 0.92534 0.83090 0.92515
 C3099 C 0.89268 0.26688 0.39214
 N3100 N 0.88634 0.27354 0.40998
 N3101 N 0.89480 0.28921 0.41835
 C3102 C 0.90987 0.29868 0.40916
 N3103 N 0.91623 0.29201 0.39134
 N3104 N 0.90777 0.27634 0.38296
 C3105 C 0.88337 0.25019 0.38298
 C3106 C 0.87549 0.23622 0.37528
 C3107 C 0.91860 0.31589 0.41791
 C3108 C 0.92573 0.33055 0.42508
 C3109 C 0.39169 0.76743 0.39171
 N3110 N 0.40668 0.77697 0.38245
 N3111 N 0.41507 0.79273 0.39076
 C3112 C 0.40873 0.79941 0.40859
 N3113 N 0.39375 0.78986 0.41786
 N3114 N 0.38537 0.77410 0.40955
 C3115 C 0.38254 0.75056 0.38269
 C3116 C 0.37484 0.73640 0.37513
 C3117 C 0.41748 0.81664 0.41733
 C3118 C 0.42466 0.83126 0.42453
 C3119 C 0.39128 0.26809 0.89149
 N3120 N 0.40170 0.26622 0.90854
 N3121 N 0.41007 0.28197 0.91687
 C3122 C 0.40827 0.30007 0.90838
 N3123 N 0.39784 0.30193 0.89134
 N3124 N 0.38948 0.28618 0.88301
 C3125 C 0.38226 0.25113 0.88254
 C3126 C 0.37471 0.23684 0.87508
 C3127 C 0.41718 0.31707 0.91735
 C3128 C 0.42453 0.33152 0.92471
 C3129 C 1.10680 0.76550 1.10784
 N3130 N 1.11381 0.77259 1.09041
 N3131 N 1.10571 0.78854 1.08210
 C3132 C 1.09035 0.79789 1.09096
 N3133 N 1.08335 0.79080 1.10839
 N3134 N 1.09145 0.77485 1.11670
 C3135 C 1.11573 0.74850 1.11696
 C3136 C 1.12337 0.73433 1.12468
 C3137 C 1.08187 0.81531 1.08223
 C3138 C 1.07487 0.83009 1.07507
 C3139 C 1.10757 0.26655 0.60826
 N3140 N 1.11420 0.27327 0.59054
 N3141 N 1.10588 0.28901 0.58205
 C3142 C 1.09068 0.29850 0.59102
 N3143 N 1.08404 0.29177 0.60873
 N3144 N 1.09235 0.27603 0.61722
 C3145 C 1.11672 0.24977 0.61754
 C3146 C 1.12450 0.23572 0.62530
 C3147 C 1.08205 0.31576 0.58213
 C3148 C 1.07496 0.33043 0.57486
 C3149 C 0.60738 0.76707 0.60773
 N3150 N 0.61391 0.77389 0.59001
 N3151 N 0.60546 0.78959 0.58160
 C3152 C 0.59021 0.79893 0.59065
 N3153 N 0.58367 0.79210 0.60835
 N3154 N 0.59212 0.77639 0.61676
 C3155 C 0.61667 0.75034 0.61691
 C3156 C 0.62454 0.73632 0.62462
 C3157 C 0.58146 0.81616 0.58186
 C3158 C 0.57431 0.83082 0.57467
 C3159 C 0.60733 0.26685 1.10831
 N3160 N 0.61437 0.27413 1.09098
 N3161 N 0.60596 0.28986 1.08257
 C3162 C 0.59024 0.29877 1.09123
 N3163 N 0.58319 0.29148 1.10855
 N3164 N 0.59159 0.27575 1.11696
 C3165 C 0.61658 0.25011 1.11751
 C3166 C 0.62443 0.23608 1.12524
 C3167 C 0.58153 0.31602 1.08246
 C3168 C 0.57441 0.33071 1.07528
 C3169 C 1.23213 1.10869 0.89177
 N3170 N 1.22446 1.11598 0.90882
 N3171 N 1.20881 1.10744 0.91717
 C3172 C 1.20039 1.09134 0.90875
 N3173 N 1.20807 1.08404 0.89171
 N3174 N 1.22371 1.09258 0.88336
 C3175 C 1.24895 1.11788 0.88277
 C3176 C 1.26313 1.12555 0.87522
 C3177 C 1.18333 1.08238 0.91754
 C3178 C 1.16883 1.07503 0.92478
 C3179 C 1.23252 0.60890 0.39221
 N3180 N 1.22304 0.59400 0.38276
 N3181 N 1.20737 0.58539 0.39099
 C3182 C 1.20073 0.59139 0.40895
 N3183 N 1.21021 0.60629 0.41841
 N3184 N 1.22588 0.61490 0.41017
 C3185 C 1.24937 0.61818 0.38332
 C3186 C 1.26355 0.62590 0.37583
 C3187 C 1.18363 0.58238 0.41764
 C3188 C 1.16910 0.57502 0.42481
 C3189 C 0.73240 1.10803 0.39218
 N3190 N 0.72491 1.09103 0.38470
 N3191 N 0.70926 1.08253 0.39308
 C3192 C 0.70065 1.09077 0.40921
 N3193 N 0.70814 1.10777 0.41670
 N3194 N 0.72380 1.11627 0.40832
 C3195 C 0.74916 1.11724 0.38307
 C3196 C 0.76324 1.12496 0.37539
 C3197 C 0.68352 1.08190 0.41796
 C3198 C 0.66894 1.07465 0.42513
 C3199 C 0.73246 0.60799 0.89237
 N3200 N 0.72380 0.61632 0.90843
 N3201 N 0.70816 0.60784 0.91686
 C3202 C 0.70073 0.59076 0.90950
 N3203 N 0.70939 0.58243 0.89344
 N3204 N 0.72503 0.59090 0.88502
 C3205 C 0.74916 0.61722 0.88317
 C3206 C 0.76319 0.62499 0.87542
 C3207 C 0.68359 0.58192 0.91826
 C3208 C 0.66900 0.57468 0.92545
 C3209 C 1.23261 0.89091 1.10846
 N3210 N 1.23390 0.90896 1.09981
 N3211 N 1.21806 0.91726 1.09154
 C3212 C 1.20046 0.90773 1.09167
 N3213 N 1.19917 0.88968 1.10033
 N3214 N 1.21501 0.88139 1.10859
 C3215 C 1.24965 0.88200 1.11739
 C3216 C 1.26398 0.87453 1.12488
 C3217 C 1.18336 0.91665 1.08288
 C3218 C 1.16884 0.92397 1.07562
 C3219 C 1.23291 0.39165 0.60795
 N3220 N 1.22521 0.40853 0.61554
 N3221 N 1.20950 0.41697 0.60717
 C3222 C 1.20103 0.40879 0.59095
 N3223 N 1.20872 0.39191 0.58335
 N3224 N 1.22444 0.38347 0.59172
 C3225 C 1.24971 0.38247 0.61707
 C3226 C 1.26383 0.37475 0.62474
 C3227 C 1.18386 0.41764 0.58219
 C3228 C 1.16927 0.42489 0.57498
 C3229 C 0.73205 0.89165 0.60831
 N3230 N 0.72432 0.90852 0.61589
 N3231 N 0.70864 0.91697 0.60747
 C3232 C 0.70024 0.90882 0.59119
 N3233 N 0.70797 0.89196 0.58361
 N3234 N 0.72365 0.88351 0.59203
 C3235 C 0.74892 0.88254 0.61739
 C3236 C 0.76315 0.87495 0.62497
 C3237 C 0.68311 0.91770 0.58236
 C3238 C 0.66856 0.92499 0.57511
 C3239 C 0.73265 0.39207 1.10810
 N3240 N 0.72857 0.41146 1.11113
 N3241 N 0.71286 0.41980 1.10266
 C3242 C 0.70078 0.40901 1.09087
 N3243 N 0.70487 0.38962 1.08783
 N3244 N 0.72058 0.38128 1.09630
 C3245 C 0.74946 0.38303 1.11735
 C3246 C 0.76357 0.37539 1.12511
 C3247 C 0.68361 0.41785 1.08211
 C3248 C 0.66900 0.42509 1.07492
 C3249 C 0.76747 1.10765 1.10832
 N3250 N 0.77514 1.11524 1.09139
 N3251 N 0.79080 1.10684 1.08291
 C3252 C 0.79925 1.09058 1.09108
 N3253 N 0.79157 1.08298 1.10801
 N3254 N 0.77591 1.09139 1.11649
 C3255 C 0.75072 1.11680 1.11754
 C3256 C 0.73665 1.12451 1.12527
 C3257 C 0.81639 1.08181 1.08222
 C3258 C 0.83098 1.07463 1.07496
 C3259 C 0.76756 0.60781 0.60768
 N3260 N 0.77538 0.61547 0.59085
 N3261 N 0.79103 0.60702 0.58240
 C3262 C 0.79932 0.59064 0.59051
 N3263 N 0.79150 0.58299 0.60733
 N3264 N 0.77584 0.59144 0.61578
 C3265 C 0.75080 0.61699 0.61686
 C3266 C 0.73673 0.62471 0.62458
 C3267 C 0.81645 0.58182 0.58168
 C3268 C 0.83104 0.57459 0.57447
 C3269 C 0.26711 1.10816 0.60802
 N3270 N 0.27543 1.09182 0.61616
 N3271 N 0.29111 1.08340 0.60774
 C3272 C 0.29892 1.09104 0.59090
 N3273 N 0.29059 1.10738 0.58275
 N3274 N 0.27491 1.11580 0.59118
 C3275 C 0.25031 1.11731 0.61717
 C3276 C 0.23620 1.12500 0.62485
 C3277 C 0.31608 1.08223 0.58208
 C3278 C 0.33067 1.07501 0.57486
 C3279 C 0.26648 0.60780 1.10769
 N3280 N 0.27393 0.59069 1.11505
 N3281 N 0.28959 0.58221 1.10662
 C3282 C 0.29824 0.59059 1.09057
 N3283 N 0.29077 0.60769 1.08319
 N3284 N 0.27512 0.61616 1.09162
 C3285 C 0.24988 0.61714 1.11701
 C3286 C 0.23604 0.62507 1.12494
 C3287 C 0.31548 0.58181 1.08188
 C3288 C 0.33017 0.57466 1.07478
 C3289 C 0.76788 0.89180 0.89207
 N3290 N 0.78499 0.88156 0.89402
 N3291 N 0.80070 0.88996 0.90237
 C3292 C 0.79977 0.90884 0.90903
 N3293 N 0.78266 0.91909 0.90707
 N3294 N 0.76694 0.91069 0.89872
 C3295 C 0.75099 0.88276 0.88305
 C3296 C 0.73681 0.87515 0.87547
 C3297 C 0.81676 0.91787 0.91786
 C3298 C 0.83122 0.92524 0.92514
 C3299 C 0.76772 0.39107 0.39160
 N3300 N 0.77685 0.40645 0.38255
 N3301 N 0.79253 0.41496 0.39085
 C3302 C 0.79953 0.40836 0.40848
 N3303 N 0.79041 0.39297 0.41753
 N3304 N 0.77473 0.38446 0.40922
 C3305 C 0.75083 0.38191 0.38265
 C3306 C 0.73661 0.37427 0.37513
 C3307 C 0.81663 0.41730 0.41725
 C3308 C 0.83114 0.42463 0.42449
 C3309 C 0.26705 0.89193 0.39209
 N3310 N 0.28357 0.88117 0.39567
 N3311 N 0.29930 0.88956 0.40398
 C3312 C 0.29898 0.90896 0.40898
 N3313 N 0.28246 0.91974 0.40540
 N3314 N 0.26672 0.91134 0.39708
 C3315 C 0.25016 0.88286 0.38307
 C3316 C 0.23606 0.87513 0.37547
 C3317 C 0.31603 0.91797 0.41775
 C3318 C 0.33056 0.92527 0.42496
 C3319 C 0.26707 0.39152 0.89328
 N3320 N 0.27488 0.38424 0.91028
 N3321 N 0.29046 0.39292 0.91860
 C3322 C 0.29867 0.40916 0.91018
 N3323 N 0.29085 0.41645 0.89319
 N3324 N 0.27528 0.40777 0.88487
 C3325 C 0.25047 0.38204 0.88415
 C3326 C 0.23657 0.37413 0.87634
 C3327 C 0.31581 0.41815 0.91881
 C3328 C 0.33042 0.42546 0.92586
   
