data_POSCAR
  _audit_creation_date              2014-09-24
  _audit_creation_method            'ToBaCCo'
  _symmetry_space_group_name_H-M    'P1'
  _symmetry_Int_Tables_number       1
  _symmetry_cell_setting            triclinic
  loop_
  _symmetry_equiv_pos_as_xyz
 x,y,z
_cell_length_a 54.2426
_cell_length_b 62.0969
_cell_length_c 61.3513
_cell_angle_alpha 89.910500
_cell_angle_beta 90.256900
_cell_angle_gamma 89.931600
loop_
  _atom_site_label
  _atom_site_type_symbol
  _atom_site_fract_x
  _atom_site_fract_y
  _atom_site_fract_z
O1 O 0.37069 0.33373 -0.02108
 O2 O 0.33681 0.36619 0.01905
 O3 O 0.36809 0.33412 0.02099
 O4 O 0.33917 0.36558 -0.02345
 O5 O 0.30880 0.34210 -0.02482
 O6 O 0.33692 0.31132 0.02006
 O7 O 0.30594 0.34314 0.01767
 O8 O 0.33993 0.31052 -0.02223
 Cu9 Cu 0.35673 0.35230 -0.00100
 Cu10 Cu 0.31978 0.32451 -0.00244
 C11 C 0.36119 0.31649 -0.02838
 C12 C 0.31560 0.36018 0.02529
 C13 C 0.35745 0.31728 0.02803
 C14 C 0.31907 0.35908 -0.03193
 O15 O 0.62989 0.66727 -0.01966
 O16 O 0.65692 0.63362 0.02379
 O17 O 0.62775 0.66721 0.02273
 O18 O 0.65931 0.63415 -0.01870
 O19 O 0.69182 0.65526 -0.01627
 O20 O 0.65988 0.68891 0.02389
 O21 O 0.68874 0.65562 0.02586
 O22 O 0.66247 0.68844 -0.01850
 Cu23 Cu 0.64023 0.64838 0.00191
 Cu24 Cu 0.67892 0.67423 0.00388
 C25 C 0.64162 0.68356 -0.02661
 C26 C 0.67744 0.63889 0.03231
 C27 C 0.63844 0.68382 0.03031
 C28 C 0.68112 0.63897 -0.02449
 O29 O 0.63173 0.33153 1.02443
 O30 O 0.66245 0.36414 0.98227
 O31 O 0.63230 0.33131 0.98195
 O32 O 0.66203 0.36409 1.02486
 O33 O 0.69407 0.34226 1.02448
 O34 O 0.66384 0.30888 0.98284
 O35 O 0.69368 0.34136 0.98229
 O36 O 0.66377 0.30965 1.02531
 Cu37 Cu 0.64395 0.35001 1.00333
 Cu38 Cu 0.68197 0.32328 1.00384
 C39 C 0.64256 0.31503 1.03215
 C40 C 0.68328 0.35824 0.97498
 C41 C 0.64303 0.31443 0.97509
 C42 C 0.68333 0.35890 1.03188
 O43 O 0.37318 0.66534 1.01733
 O44 O 0.34708 0.63023 0.97481
 O45 O 0.37512 0.66458 0.97526
 O46 O 0.34544 0.63113 1.01724
 O47 O 0.31184 0.65095 1.01461
 O48 O 0.34218 0.68546 0.97401
 O49 O 0.31457 0.65152 0.97235
 O50 O 0.33948 0.68528 1.01639
 Cu51 Cu 0.36351 0.64570 0.99630
 Cu52 Cu 0.32369 0.67036 0.99422
 C53 C 0.36076 0.68130 1.02414
 C54 C 0.32643 0.63500 0.96620
 C55 C 0.36383 0.68091 0.96766
 C56 C 0.32343 0.63516 1.02301
 O57 O -0.02241 0.37662 0.34890
 O58 O 0.02821 0.34713 0.37604
 O59 O 0.02532 0.37807 0.34686
 O60 O -0.01981 0.34558 0.37745
 O61 O -0.02009 0.32169 0.35093
 O62 O 0.02517 0.35375 0.32067
 O63 O 0.02785 0.32318 0.34953
 O64 O -0.02265 0.35249 0.32254
 Cu65 Cu 0.00295 0.36424 0.36500
 Cu66 Cu 0.00259 0.33536 0.33330
 C67 C -0.03117 0.36957 0.33104
 C68 C 0.03662 0.33004 0.36744
 C69 C 0.03280 0.37149 0.32842
 C70 C -0.02787 0.32810 0.36933
 O71 O 0.01955 0.65115 0.62251
 O72 O -0.02726 0.62076 0.65326
 O73 O -0.02818 0.65073 0.62341
 O74 O 0.02083 0.62092 0.65237
 O75 O 0.02123 0.64571 0.67806
 O76 O -0.02761 0.67551 0.64908
 O77 O -0.02681 0.64577 0.67875
 O78 O 0.02035 0.67575 0.64841
 Cu79 Cu -0.00377 0.63336 0.63535
 Cu80 Cu -0.00311 0.66314 0.66615
 C81 C 0.02781 0.66875 0.63015
 C82 C -0.03517 0.62818 0.67122
 C83 C -0.03627 0.66832 0.63122
 C84 C 0.02936 0.62817 0.67023
 O85 O 1.02918 0.62907 0.34166
 O86 O 0.98144 0.65687 0.37365
 O87 O 0.98124 0.62758 0.34278
 O88 O 1.02920 0.65853 0.37206
 O89 O 1.02717 0.68366 0.34672
 O90 O 0.97883 0.65339 0.31810
 O91 O 0.97928 0.68234 0.34860
 O92 O 1.02679 0.65452 0.31661
 Cu93 Cu 1.00544 0.64043 0.36004
 Cu94 Cu 1.00277 0.67100 0.33001
 C95 C 1.03617 0.63708 0.32365
 C96 C 0.97236 0.67446 0.36668
 C97 C 0.97187 0.63525 0.32539
 C98 C 1.03644 0.67647 0.36435
 O99 O 0.96979 0.34351 0.62532
 O100 O 1.01913 0.37430 0.65280
 O101 O 1.01750 0.34368 0.62366
 O102 O 0.97126 0.37460 0.65417
 O103 O 0.97115 0.34965 0.67982
 O104 O 1.02007 0.32035 0.65068
 O105 O 1.01884 0.35081 0.67982
 O106 O 0.97241 0.31869 0.65102
 Cu107 Cu 0.99426 0.36148 0.63636
 Cu108 Cu 0.99570 0.33246 0.66797
 C109 C 0.96323 0.32547 0.63322
 C110 C 1.02702 0.36798 0.67128
 C111 C 1.02678 0.32670 0.63190
 C112 C 0.96332 0.36746 0.67223
 O113 O 0.34228 -0.02109 0.37233
 O114 O 0.37403 0.02059 0.34001
 O115 O 0.34381 0.02092 0.37283
 O116 O 0.37295 -0.02132 0.33968
 O117 O 0.34146 -0.02044 0.31684
 O118 O 0.31221 0.02177 0.35006
 O119 O 0.34248 0.02165 0.31724
 O120 O 0.31078 -0.01978 0.34948
 Cu121 Cu 0.36143 -0.00036 0.35850
 Cu122 Cu 0.32364 0.00088 0.33105
 C123 C 0.32096 -0.02739 0.36651
 C124 C 0.36361 0.02831 0.32312
 C125 C 0.32298 0.02850 0.36717
 C126 C 0.36224 -0.02811 0.32258
 O127 O 0.66486 -0.01933 0.63288
 O128 O 0.63443 0.02220 0.66626
 O129 O 0.66412 0.02278 0.63278
 O130 O 0.63496 -0.01943 0.66612
 O131 O 0.66735 -0.01965 0.68802
 O132 O 0.69569 0.02345 0.65556
 O133 O 0.66637 0.02228 0.68867
 O134 O 0.69717 -0.01830 0.65483
 Cu135 Cu 0.64642 0.00152 0.64720
 Cu136 Cu 0.68485 0.00192 0.67401
 C137 C 0.68633 -0.02579 0.63810
 C138 C 0.64517 0.02921 0.68327
 C139 C 0.68483 0.03047 0.63859
 C140 C 0.64615 -0.02670 0.68281
 O141 O 0.33475 1.02125 0.63803
 O142 O 0.36691 0.97950 0.67019
 O143 O 0.33507 0.97924 0.63816
 O144 O 0.36645 1.02147 0.67023
 O145 O 0.33574 1.02125 0.69367
 O146 O 0.30466 0.97908 0.66190
 O147 O 0.33626 0.97934 0.69369
 O148 O 0.30426 1.02101 0.66168
 Cu149 Cu 0.35386 1.00040 0.65177
 Cu150 Cu 0.31718 1.00017 0.68008
 C151 C 0.31399 1.02829 0.64439
 C152 C 0.35702 0.97224 0.68744
 C153 C 0.31451 0.97187 0.64464
 C154 C 0.35641 1.02858 0.68747
 O155 O 0.62846 0.97783 0.33295
 O156 O 0.66185 1.01897 0.36438
 O157 O 0.63005 1.01938 0.33250
 O158 O 0.66076 0.97683 0.36475
 O159 O 0.69057 0.97543 0.34046
 O160 O 0.66100 1.01898 0.30927
 O161 O 0.69273 1.01719 0.34124
 O162 O 0.65861 0.97707 0.30893
 Cu163 Cu 0.64230 0.99832 0.35111
 Cu164 Cu 0.67877 0.99709 0.32260
 C165 C 0.63767 0.97062 0.31541
 C166 C 0.68307 1.02514 0.35828
 C167 C 0.64033 1.02645 0.31535
 C168 C 0.68086 0.96872 0.35798
 C169 C 0.80493 0.80954 0.51093
 C170 C 0.80679 0.80925 0.48880
 C171 C 0.82326 0.79389 0.47724
 C172 C 0.79317 0.82503 0.47505
 C173 C 0.79195 0.82722 0.52235
 C174 C 0.81753 0.79335 0.52489
 C175 C 0.84822 0.79180 0.48314
 C176 C 0.86357 0.77754 0.47198
 C177 C 0.85444 0.76560 0.45430
 C178 C 0.82966 0.76805 0.44807
 C179 C 0.81419 0.78203 0.45948
 C180 C 0.80614 0.83814 0.46045
 C181 C 0.79364 0.85306 0.44743
 C182 C 0.76783 0.85502 0.44856
 C183 C 0.75485 0.84174 0.46313
 C184 C 0.76740 0.82684 0.47621
 C185 C 0.77187 0.82264 0.53589
 C186 C 0.76020 0.83917 0.54736
 C187 C 0.76880 0.86045 0.54579
 C188 C 0.78894 0.86498 0.53221
 C189 C 0.80037 0.84850 0.52052
 C190 C 0.81335 0.77122 0.52213
 C191 C 0.82665 0.75618 0.53448
 C192 C 0.84436 0.76302 0.54981
 C193 C 0.84797 0.78525 0.55285
 C194 C 0.83457 0.80022 0.54065
 H195 H 0.85591 0.80136 0.49625
 H196 H 0.88274 0.77622 0.47682
 H197 H 0.82223 0.75899 0.43447
 H198 H 0.79509 0.78357 0.45448
 H199 H 0.82602 0.83700 0.45936
 H200 H 0.80423 0.86326 0.43664
 H201 H 0.75703 0.81660 0.48714
 H202 H 0.76530 0.80626 0.53758
 H203 H 0.74487 0.83527 0.55790
 H204 H 0.79583 0.88127 0.53069
 H205 H 0.81605 0.85225 0.51034
 H206 H 0.80002 0.76562 0.51023
 H207 H 0.82311 0.73921 0.53198
 H208 H 0.86174 0.79112 0.56419
 H209 H 0.83814 0.81723 0.54296
 H210 H 0.73495 0.84261 0.46414
 C211 C 0.19053 0.18896 0.51309
 C212 C 0.19386 0.18958 0.49110
 C213 C 0.18175 0.20593 0.47694
 C214 C 0.20851 0.17281 0.47984
 C215 C 0.20346 0.17273 0.52680
 C216 C 0.17348 0.20387 0.52460
 C217 C 0.16722 0.19906 0.45931
 C218 C 0.15470 0.21398 0.44636
 C219 C 0.15656 0.23615 0.45061
 C220 C 0.17159 0.24308 0.46798
 C221 C 0.18421 0.22809 0.48096
 C222 C 0.20069 0.15128 0.47985
 C223 C 0.21396 0.13570 0.46842
 C224 C 0.23535 0.14139 0.45695
 C225 C 0.24326 0.16292 0.45715
 C226 C 0.22978 0.17856 0.46832
 C227 C 0.22930 0.17165 0.52739
 C228 C 0.24121 0.15636 0.54047
 C229 C 0.22747 0.14193 0.55327
 C230 C 0.20158 0.14316 0.55267
 C231 C 0.18972 0.15849 0.53965
 C232 C 0.18159 0.21459 0.54345
 C233 C 0.16574 0.22828 0.55477
 C234 C 0.14154 0.23165 0.54733
 C235 C 0.13330 0.22083 0.52860
 C236 C 0.14900 0.20677 0.51754
 H237 H 0.16502 0.18206 0.45594
 H238 H 0.14299 0.20809 0.43333
 H239 H 0.17363 0.26007 0.47148
 H240 H 0.19567 0.23374 0.49427
 H241 H 0.18414 0.14665 0.48847
 H242 H 0.20757 0.11918 0.46856
 H243 H 0.23592 0.19515 0.46804
 H244 H 0.24022 0.18277 0.51784
 H245 H 0.26116 0.15608 0.54085
 H246 H 0.19045 0.13210 0.56208
 H247 H 0.16976 0.15909 0.53939
 H248 H 0.20028 0.21242 0.54935
 H249 H 0.17245 0.23647 0.56920
 H250 H 0.11457 0.22297 0.52280
 H251 H 0.14199 0.19810 0.50353
 H252 H 0.25956 0.16771 0.44824
 C253 C 0.19398 0.81151 0.49220
 C254 C 0.19155 0.81081 0.51428
 C255 C 0.17487 0.79525 0.52531
 C256 C 0.20478 0.82637 0.52850
 C257 C 0.20804 0.82894 0.48137
 C258 C 0.18105 0.79616 0.47758
 C259 C 0.15001 0.79327 0.51906
 C260 C 0.13460 0.77860 0.52963
 C261 C 0.14356 0.76614 0.54707
 C262 C 0.16821 0.76854 0.55371
 C263 C 0.18373 0.78292 0.54288
 C264 C 0.19131 0.83977 0.54245
 C265 C 0.20337 0.85482 0.55557
 C266 C 0.22922 0.85663 0.55520
 C267 C 0.24271 0.84294 0.54140
 C268 C 0.23059 0.82792 0.52820
 C269 C 0.22857 0.82389 0.46854
 C270 C 0.24114 0.84013 0.45737
 C271 C 0.23302 0.86159 0.45851
 C272 C 0.21249 0.86660 0.47145
 C273 C 0.20015 0.85042 0.48286
 C274 C 0.18425 0.77380 0.47964
 C275 C 0.17107 0.75969 0.46616
 C276 C 0.15454 0.76771 0.45035
 C277 C 0.15173 0.79014 0.44822
 C278 C 0.16495 0.80417 0.46157
 H279 H 0.14248 0.80315 0.50609
 H280 H 0.11554 0.77731 0.52449
 H281 H 0.17552 0.75909 0.56711
 H282 H 0.20275 0.78437 0.54815
 H283 H 0.17138 0.83882 0.54287
 H284 H 0.19240 0.86531 0.56575
 H285 H 0.24132 0.81747 0.51777
 H286 H 0.23474 0.80736 0.46710
 H287 H 0.25676 0.83585 0.44732
 H288 H 0.20595 0.88304 0.47264
 H289 H 0.18415 0.85453 0.49249
 H290 H 0.19683 0.76733 0.49174
 H291 H 0.17392 0.74252 0.46802
 H292 H 0.13885 0.79689 0.43653
 H293 H 0.16210 0.82136 0.45979
 H294 H 0.26264 0.84366 0.54099
 C295 C 0.80542 0.18859 0.48258
 C296 C 0.80587 0.18904 0.50469
 C297 C 0.82191 0.20424 0.51666
 C298 C 0.79245 0.17297 0.51800
 C299 C 0.79272 0.17116 0.47065
 C300 C 0.81988 0.20415 0.46947
 C301 C 0.84760 0.20173 0.51618
 C302 C 0.86268 0.21523 0.52856
 C303 C 0.85229 0.23161 0.54134
 C304 C 0.82661 0.23442 0.54141
 C305 C 0.81148 0.22061 0.52934
 C306 C 0.80566 0.15977 0.53248
 C307 C 0.79340 0.14492 0.54558
 C308 C 0.76758 0.14309 0.54468
 C309 C 0.75435 0.15623 0.53001
 C310 C 0.76670 0.17107 0.51679
 C311 C 0.77130 0.17561 0.45861
 C312 C 0.75952 0.15920 0.44700
 C313 C 0.76941 0.13829 0.44686
 C314 C 0.79095 0.13392 0.45884
 C315 C 0.80242 0.15022 0.47081
 C316 C 0.81595 0.22641 0.47137
 C317 C 0.83091 0.24093 0.46009
 C318 C 0.85002 0.23342 0.44664
 C319 C 0.85347 0.21108 0.44441
 C320 C 0.83847 0.19661 0.45563
 H321 H 0.85586 0.18903 0.50657
 H322 H 0.88246 0.21286 0.52827
 H323 H 0.81827 0.24686 0.55130
 H324 H 0.79165 0.22262 0.52992
 H325 H 0.82556 0.16088 0.53354
 H326 H 0.80418 0.13476 0.55636
 H327 H 0.75617 0.18132 0.50589
 H328 H 0.76370 0.19175 0.45830
 H329 H 0.74300 0.16290 0.43774
 H330 H 0.79880 0.11787 0.45899
 H331 H 0.81905 0.14662 0.47997
 H332 H 0.80148 0.23251 0.48179
 H333 H 0.82753 0.25802 0.46188
 H334 H 0.86823 0.20475 0.43447
 H335 H 0.84191 0.17950 0.45405
 H336 H 0.73444 0.15538 0.52910
 C337 C 0.51818 0.81968 0.81731
 C338 C 0.49302 0.81929 0.81787
 C339 C 0.47782 0.83336 0.80354
 C340 C 0.47931 0.80514 0.83321
 C341 C 0.53326 0.80472 0.83079
 C342 C 0.53196 0.83542 0.80371
 C343 C 0.46043 0.84724 0.81288
 C344 C 0.44645 0.86105 0.79980
 C345 C 0.44941 0.86114 0.77705
 C346 C 0.46654 0.84693 0.76766
 C347 C 0.48055 0.83308 0.78079
 C348 C 0.48453 0.80519 0.85568
 C349 C 0.47169 0.79159 0.86979
 C350 C 0.45289 0.77819 0.86178
 C351 C 0.44719 0.77860 0.83944
 C352 C 0.46033 0.79191 0.82528
 C353 C 0.53008 0.78233 0.82944
 C354 C 0.54340 0.76859 0.84322
 C355 C 0.56032 0.77701 0.85841
 C356 C 0.56401 0.79940 0.85918
 C357 C 0.55068 0.81310 0.84544
 C358 C 0.55095 0.82816 0.79008
 C359 C 0.56415 0.84270 0.77726
 C360 C 0.55847 0.86475 0.77774
 C361 C 0.53970 0.87209 0.79156
 C362 C 0.52682 0.85759 0.80470
 H363 H 0.45806 0.84768 0.83040
 H364 H 0.43366 0.87199 0.80756
 H365 H 0.46895 0.84639 0.75016
 H366 H 0.49359 0.82221 0.77325
 H367 H 0.49854 0.81576 0.86229
 H368 H 0.47612 0.79179 0.88701
 H369 H 0.45584 0.79175 0.80806
 H370 H 0.51704 0.77554 0.81794
 H371 H 0.54048 0.75139 0.84199
 H372 H 0.57669 0.80640 0.87085
 H373 H 0.55342 0.83033 0.84669
 H374 H 0.55540 0.81117 0.78921
 H375 H 0.57853 0.83670 0.76669
 H376 H 0.53529 0.88908 0.79244
 H377 H 0.51284 0.86368 0.81562
 H378 H 0.43280 0.76836 0.83291
 C379 C 0.50927 0.18180 0.18385
 C380 C 0.48410 0.18260 0.18401
 C381 C 0.46960 0.16944 0.19962
 C382 C 0.46989 0.19618 0.16834
 C383 C 0.52412 0.19629 0.16979
 C384 C 0.52331 0.16608 0.19744
 C385 C 0.45219 0.15466 0.19177
 C386 C 0.44013 0.14075 0.20611
 C387 C 0.44507 0.14152 0.22863
 C388 C 0.46178 0.15699 0.23653
 C389 C 0.47386 0.17087 0.22216
 C390 C 0.47478 0.19551 0.14586
 C391 C 0.46199 0.20896 0.13145
 C392 C 0.44349 0.22279 0.13913
 C393 C 0.43789 0.22285 0.16145
 C394 C 0.45104 0.20971 0.17594
 C395 C 0.52120 0.21875 0.17062
 C396 C 0.53496 0.23208 0.15690
 C397 C 0.55208 0.22319 0.14227
 C398 C 0.55524 0.20072 0.14181
 C399 C 0.54148 0.18744 0.15548
 C400 C 0.54296 0.17322 0.21053
 C401 C 0.55636 0.15865 0.22329
 C402 C 0.55023 0.13669 0.22331
 C403 C 0.53078 0.12948 0.21004
 C404 C 0.51769 0.14399 0.19696
 H405 H 0.44865 0.15333 0.17444
 H406 H 0.42757 0.12889 0.19946
 H407 H 0.46562 0.15827 0.25381
 H408 H 0.48695 0.18243 0.22856
 H409 H 0.48862 0.18468 0.13947
 H410 H 0.46630 0.20838 0.11424
 H411 H 0.44676 0.21034 0.19315
 H412 H 0.50822 0.22592 0.18184
 H413 H 0.53240 0.24935 0.15787
 H414 H 0.56804 0.19337 0.13055
 H415 H 0.54402 0.17015 0.15461
 H416 H 0.54777 0.19014 0.21100
 H417 H 0.57129 0.16455 0.23342
 H418 H 0.52601 0.11255 0.20954
 H419 H 0.50318 0.13797 0.18645
 H420 H 0.42368 0.23339 0.16773
 C421 C 0.49059 0.17938 0.82126
 C422 C 0.51575 0.17936 0.82041
 C423 C 0.52960 0.16410 0.80634
 C424 C 0.53075 0.19419 0.83409
 C425 C 0.47696 0.19275 0.83731
 C426 C 0.47542 0.16568 0.80657
 C427 C 0.52475 0.14187 0.80689
 C428 C 0.53762 0.12780 0.79331
 C429 C 0.55611 0.13562 0.77946
 C430 C 0.56151 0.15772 0.77941
 C431 C 0.54831 0.17184 0.79268
 C432 C 0.54854 0.18570 0.84836
 C433 C 0.56181 0.19923 0.86225
 C434 C 0.55773 0.22161 0.86202
 C435 C 0.54034 0.23015 0.84727
 C436 C 0.52706 0.21657 0.83335
 C437 C 0.45779 0.20628 0.83018
 C438 C 0.44528 0.21935 0.84499
 C439 C 0.45185 0.21920 0.86715
 C440 C 0.47061 0.20530 0.87438
 C441 C 0.48279 0.19193 0.85964
 C442 C 0.47810 0.16662 0.78382
 C443 C 0.46425 0.15304 0.77034
 C444 C 0.44728 0.13845 0.77936
 C445 C 0.44432 0.13791 0.80211
 C446 C 0.45816 0.15145 0.81554
 H447 H 0.51099 0.13540 0.81782
 H448 H 0.53345 0.11076 0.79386
 H449 H 0.57568 0.16409 0.76883
 H450 H 0.55252 0.18888 0.79215
 H451 H 0.55165 0.16848 0.84917
 H452 H 0.57484 0.19210 0.87358
 H453 H 0.51369 0.22347 0.82219
 H454 H 0.45282 0.20699 0.81308
 H455 H 0.43085 0.22996 0.83908
 H456 H 0.47568 0.20467 0.89146
 H457 H 0.49694 0.18109 0.86563
 H458 H 0.49101 0.17778 0.77655
 H459 H 0.46666 0.15408 0.75286
 H460 H 0.43164 0.12668 0.80959
 H461 H 0.45581 0.15048 0.83304
 H462 H 0.53709 0.24734 0.84643
 C463 C 0.48051 0.82034 0.17925
 C464 C 0.50568 0.82093 0.17902
 C465 C 0.51976 0.83663 0.19248
 C466 C 0.52036 0.80618 0.16506
 C467 C 0.46620 0.80716 0.16343
 C468 C 0.46615 0.83326 0.19514
 C469 C 0.51396 0.85869 0.19194
 C470 C 0.52649 0.87315 0.20539
 C471 C 0.54558 0.86593 0.21908
 C472 C 0.55214 0.84405 0.21893
 C473 C 0.53926 0.82950 0.20578
 C474 C 0.53794 0.81470 0.15076
 C475 C 0.55142 0.80115 0.13712
 C476 C 0.54772 0.77874 0.13761
 C477 C 0.53037 0.77019 0.15222
 C478 C 0.51692 0.78377 0.16591
 C479 C 0.44745 0.79346 0.17085
 C480 C 0.43454 0.78041 0.15620
 C481 C 0.44030 0.78077 0.13392
 C482 C 0.45855 0.79492 0.12641
 C483 C 0.47112 0.80825 0.14098
 C484 C 0.47049 0.83126 0.21762
 C485 C 0.45844 0.84479 0.23232
 C486 C 0.44172 0.86051 0.22482
 C487 C 0.43671 0.86186 0.20234
 C488 C 0.44871 0.84827 0.18766
 H489 H 0.49956 0.86469 0.18126
 H490 H 0.52143 0.89002 0.20499
 H491 H 0.56683 0.83816 0.22937
 H492 H 0.54422 0.81261 0.20627
 H493 H 0.54089 0.83193 0.14986
 H494 H 0.56442 0.80826 0.12588
 H495 H 0.50375 0.77684 0.17712
 H496 H 0.44317 0.79253 0.18806
 H497 H 0.42052 0.76960 0.16233
 H498 H 0.46299 0.79570 0.10923
 H499 H 0.48492 0.81922 0.13478
 H500 H 0.48359 0.81951 0.22372
 H501 H 0.46233 0.84303 0.24956
 H502 H 0.42416 0.87392 0.19599
 H503 H 0.44510 0.85002 0.17037
 H504 H 0.52741 0.75298 0.15323
 C505 C 0.80340 0.51156 0.81401
 C506 C 0.80558 0.48971 0.81436
 C507 C 0.79257 0.47655 0.83092
 C508 C 0.82161 0.47781 0.79886
 C509 C 0.81594 0.52504 0.79742
 C510 C 0.79015 0.52316 0.83149
 C511 C 0.80619 0.46308 0.84482
 C512 C 0.79424 0.45021 0.86015
 C513 C 0.76838 0.45037 0.86172
 C514 C 0.75477 0.46394 0.84775
 C515 C 0.76677 0.47690 0.83246
 C516 C 0.84648 0.48347 0.79603
 C517 C 0.86126 0.47210 0.78142
 C518 C 0.85167 0.45444 0.76991
 C519 C 0.82704 0.44840 0.77319
 C520 C 0.81213 0.46003 0.78749
 C521 C 0.81236 0.52152 0.77502
 C522 C 0.82593 0.53323 0.75970
 C523 C 0.84315 0.54879 0.76653
 C524 C 0.84603 0.55270 0.78897
 C525 C 0.83248 0.54104 0.80421
 C526 C 0.76877 0.53496 0.82659
 C527 C 0.75672 0.54654 0.84292
 C528 C 0.76625 0.54689 0.86424
 C529 C 0.78768 0.53506 0.86909
 C530 C 0.79945 0.52317 0.85287
 H531 H 0.82612 0.46264 0.84387
 H532 H 0.80530 0.44023 0.87089
 H533 H 0.73482 0.46419 0.84831
 H534 H 0.75594 0.48696 0.82161
 H535 H 0.85448 0.49663 0.80519
 H536 H 0.88034 0.47681 0.77942
 H537 H 0.79310 0.45522 0.78960
 H538 H 0.79942 0.50944 0.76944
 H539 H 0.82302 0.53008 0.74253
 H540 H 0.85939 0.56429 0.79482
 H541 H 0.83559 0.54396 0.82141
 H542 H 0.76148 0.53518 0.81013
 H543 H 0.74034 0.55569 0.83881
 H544 H 0.79530 0.53507 0.88544
 H545 H 0.81607 0.51427 0.85684
 H546 H 0.81927 0.43484 0.76447
 C547 C 0.19388 0.51323 0.18440
 C548 C 0.19102 0.49145 0.18459
 C549 C 0.20389 0.47765 0.16851
 C550 C 0.17462 0.48027 0.20033
 C551 C 0.18136 0.52753 0.20024
 C552 C 0.20852 0.52402 0.16725
 C553 C 0.19009 0.46479 0.15423
 C554 C 0.20189 0.45179 0.13894
 C555 C 0.22778 0.45120 0.13781
 C556 C 0.24157 0.46398 0.15234
 C557 C 0.22972 0.47707 0.16757
 C558 C 0.14988 0.48647 0.20297
 C559 C 0.13479 0.47566 0.21781
 C560 C 0.14397 0.45807 0.22977
 C561 C 0.16853 0.45159 0.22677
 C562 C 0.18371 0.46262 0.21223
 C563 C 0.18422 0.52469 0.22282
 C564 C 0.17123 0.53777 0.23738
 C565 C 0.15538 0.55402 0.22956
 C566 C 0.15308 0.55708 0.20694
 C567 C 0.16601 0.54404 0.19246
 C568 C 0.23028 0.53488 0.17283
 C569 C 0.24382 0.54563 0.15685
 C570 C 0.23544 0.54608 0.13516
 C571 C 0.21357 0.53526 0.12963
 C572 C 0.20028 0.52418 0.14555
 H573 H 0.17013 0.46506 0.15475
 H574 H 0.19072 0.44239 0.12781
 H575 H 0.26152 0.46361 0.15216
 H576 H 0.24066 0.48664 0.17873
 H577 H 0.14220 0.49958 0.19347
 H578 H 0.11579 0.48071 0.21960
 H579 H 0.20265 0.45743 0.21032
 H580 H 0.19629 0.51224 0.22914
 H581 H 0.17363 0.53522 0.25472
 H582 H 0.14075 0.56921 0.20038
 H583 H 0.16349 0.54647 0.17511
 H584 H 0.23675 0.53498 0.18956
 H585 H 0.26051 0.55403 0.16150
 H586 H 0.20683 0.53536 0.11298
 H587 H 0.18338 0.51600 0.14105
 H588 H 0.17602 0.43810 0.23585
 C589 C 0.80221 0.48863 0.19421
 C590 C 0.80359 0.51051 0.19417
 C591 C 0.78939 0.52347 0.17811
 C592 C 0.81998 0.52262 0.20934
 C593 C 0.81560 0.47522 0.21043
 C594 C 0.78892 0.47695 0.17670
 C595 C 0.80184 0.53716 0.16371
 C596 C 0.78872 0.54932 0.14841
 C597 C 0.76284 0.54822 0.14738
 C598 C 0.75040 0.53460 0.16201
 C599 C 0.76357 0.52236 0.17725
 C600 C 0.84517 0.51757 0.21130
 C601 C 0.86046 0.52957 0.22507
 C602 C 0.85101 0.54720 0.23669
 C603 C 0.82590 0.55237 0.23454
 C604 C 0.81054 0.54018 0.22102
 C605 C 0.81258 0.47842 0.23292
 C606 C 0.82647 0.46641 0.24789
 C607 C 0.84348 0.45091 0.24062
 C608 C 0.84594 0.44743 0.21810
 C609 C 0.83206 0.45937 0.20319
 C610 C 0.76785 0.46483 0.18159
 C611 C 0.75596 0.45301 0.16526
 C612 C 0.76539 0.45271 0.14398
 C613 C 0.78647 0.46489 0.13913
 C614 C 0.79803 0.47706 0.15534
 H615 H 0.82177 0.53818 0.16414
 H616 H 0.79890 0.55936 0.13717
 H617 H 0.73047 0.53364 0.16187
 H618 H 0.75363 0.51211 0.18849
 H619 H 0.85308 0.50454 0.20192
 H620 H 0.87985 0.52549 0.22616
 H621 H 0.79124 0.54449 0.21962
 H622 H 0.79969 0.49037 0.23883
 H623 H 0.82393 0.46926 0.26515
 H624 H 0.85915 0.43590 0.21192
 H625 H 0.83476 0.45670 0.18593
 H626 H 0.76071 0.46451 0.19804
 H627 H 0.73983 0.44359 0.16935
 H628 H 0.79400 0.46489 0.12281
 H629 H 0.81441 0.48620 0.15138
 H630 H 0.81814 0.56584 0.24338
 C631 C 0.19887 0.48652 0.80378
 C632 C 0.19993 0.50841 0.80462
 C633 C 0.21472 0.52007 0.82129
 C634 C 0.18490 0.52184 0.78950
 C635 C 0.18156 0.47551 0.78879
 C636 C 0.21299 0.47246 0.81894
 C637 C 0.21256 0.51525 0.84360
 C638 C 0.22628 0.52667 0.85904
 C639 C 0.24173 0.54357 0.85251
 C640 C 0.24347 0.54874 0.83030
 C641 C 0.23016 0.53702 0.81482
 C642 C 0.16717 0.53594 0.79796
 C643 C 0.15193 0.54780 0.78399
 C644 C 0.15427 0.54594 0.76124
 C645 C 0.17251 0.53217 0.75282
 C646 C 0.18773 0.52028 0.76683
 C647 C 0.19062 0.46316 0.77148
 C648 C 0.17431 0.45255 0.75745
 C649 C 0.14877 0.45377 0.76091
 C650 C 0.13977 0.46608 0.77834
 C651 C 0.15605 0.47698 0.79211
 C652 C 0.23881 0.47344 0.82037
 C653 C 0.25157 0.46026 0.83518
 C654 C 0.23869 0.44588 0.84877
 C655 C 0.21285 0.44499 0.84713
 C656 C 0.20020 0.45798 0.83229
 H657 H 0.20004 0.50284 0.84911
 H658 H 0.22435 0.52270 0.87615
 H659 H 0.25525 0.56178 0.82495
 H660 H 0.23187 0.54120 0.79774
 H661 H 0.16470 0.53732 0.81541
 H662 H 0.13787 0.55800 0.79102
 H663 H 0.20159 0.50972 0.76001
 H664 H 0.21029 0.46184 0.76881
 H665 H 0.18162 0.44298 0.74422
 H666 H 0.12013 0.46727 0.78125
 H667 H 0.14883 0.48636 0.80552
 H668 H 0.24903 0.48437 0.81005
 H669 H 0.27149 0.46116 0.83582
 H670 H 0.20226 0.43448 0.85762
 H671 H 0.18027 0.45709 0.83157
 H672 H 0.17505 0.53064 0.73540
 C673 C 0.27636 0.39727 0.07341
 C674 C 0.29801 0.40555 0.06370
 C675 C 0.31074 0.39338 0.04809
 C676 C 0.30207 0.37305 0.04165
 C677 C 0.28039 0.36505 0.05102
 C678 C 0.26771 0.37692 0.06670
 C679 C 0.26352 0.41065 0.09025
 C680 C 0.24239 0.40355 0.10144
 C681 C 0.23101 0.41666 0.11687
 C682 C 0.24028 0.43723 0.12158
 C683 C 0.26147 0.44437 0.11068
 C684 C 0.27318 0.43124 0.09522
 C685 C 0.30676 0.42597 0.06953
 C686 C 0.29451 0.43860 0.08482
 H687 H 0.32327 0.43236 0.06205
 H688 H 0.30196 0.45434 0.08866
 H689 H 0.32737 0.39983 0.04083
 H690 H 0.27323 0.34944 0.04634
 H691 H 0.21501 0.41054 0.12535
 H692 H 0.26871 0.46030 0.11400
 H693 H 0.25117 0.36988 0.07325
 H694 H 0.23442 0.38790 0.09867
 C695 C 0.71044 0.59911 0.08222
 C696 C 0.72010 0.61977 0.07754
 C697 C 0.70916 0.63264 0.06136
 C698 C 0.68843 0.62541 0.04974
 C699 C 0.67854 0.60514 0.05472
 C700 C 0.68937 0.59212 0.07070
 C701 C 0.72317 0.58562 0.09920
 C702 C 0.71570 0.56451 0.10448
 C703 C 0.72847 0.55251 0.12016
 C704 C 0.74895 0.56120 0.13106
 C705 C 0.75638 0.58227 0.12604
 C706 C 0.74386 0.59440 0.11016
 C707 C 0.74063 0.62749 0.08901
 C708 C 0.75215 0.61514 0.10506
 H709 H 0.74794 0.64336 0.08551
 H710 H 0.76799 0.62186 0.11345
 H711 H 0.71686 0.64837 0.05781
 H712 H 0.66250 0.59919 0.04606
 H713 H 0.72254 0.53618 0.12345
 H714 H 0.77196 0.58930 0.13455
 H715 H 0.68098 0.57668 0.07372
 H716 H 0.70028 0.55686 0.09654
 C717 C 0.72020 0.39542 0.92550
 C718 C 0.69924 0.40389 0.93619
 C719 C 0.68704 0.39161 0.95210
 C720 C 0.69568 0.37104 0.95787
 C721 C 0.71658 0.36281 0.94738
 C722 C 0.72866 0.37475 0.93140
 C723 C 0.73270 0.40901 0.90862
 C724 C 0.75318 0.40179 0.89662
 C725 C 0.76448 0.41517 0.88138
 C726 C 0.75577 0.43614 0.87765
 C727 C 0.73509 0.44338 0.88925
 C728 C 0.72347 0.42998 0.90456
 C729 C 0.69078 0.42464 0.93115
 C730 C 0.70274 0.43746 0.91580
 H731 H 0.67478 0.43116 0.93936
 H732 H 0.69559 0.45347 0.91265
 H733 H 0.67103 0.39822 0.96022
 H734 H 0.72368 0.34700 0.95151
 H735 H 0.78001 0.40896 0.87230
 H736 H 0.72824 0.45959 0.88662
 H737 H 0.74466 0.36752 0.92406
 H738 H 0.76076 0.38585 0.89863
 C739 C 0.29379 0.59431 0.91728
 C740 C 0.28826 0.61658 0.91792
 C741 C 0.29899 0.62971 0.93394
 C742 C 0.31589 0.62116 0.94900
 C743 C 0.32227 0.59933 0.94773
 C744 C 0.31128 0.58599 0.93216
 C745 C 0.28087 0.58064 0.90066
 C746 C 0.28305 0.55802 0.90008
 C747 C 0.27029 0.54601 0.88446
 C748 C 0.25538 0.55627 0.86890
 C749 C 0.25301 0.57873 0.86933
 C750 C 0.26521 0.59091 0.88530
 C751 C 0.27223 0.62568 0.90250
 C752 C 0.26130 0.61318 0.88629
 H753 H 0.26822 0.64278 0.90284
 H754 H 0.24918 0.62101 0.87463
 H755 H 0.29436 0.64670 0.93455
 H756 H 0.33541 0.59243 0.95911
 H757 H 0.27219 0.52864 0.88440
 H758 H 0.24105 0.58664 0.85757
 H759 H 0.31678 0.56930 0.93200
 H760 H 0.29418 0.54927 0.91171
 C761 C 0.09270 0.29237 0.39984
 C762 C 0.08027 0.30897 0.41116
 C763 C 0.06257 0.32168 0.40035
 C764 C 0.05651 0.31775 0.37844
 C765 C 0.06894 0.30136 0.36726
 C766 C 0.08684 0.28890 0.37772
 C767 C 0.11084 0.27867 0.41214
 C768 C 0.12436 0.26195 0.40228
 C769 C 0.13974 0.24870 0.41470
 C770 C 0.14217 0.25173 0.43726
 C771 C 0.12969 0.26898 0.44709
 C772 C 0.11411 0.28242 0.43473
 C773 C 0.08506 0.31238 0.43335
 C774 C 0.10145 0.29928 0.44491
 H775 H 0.07559 0.32509 0.44204
 H776 H 0.10409 0.30230 0.46216
 H777 H 0.05295 0.33421 0.40921
 H778 H 0.06469 0.29801 0.35033
 H779 H 0.14963 0.23585 0.40662
 H780 H 0.13137 0.27146 0.46452
 H781 H 0.09549 0.27640 0.36826
 H782 H 0.12318 0.25866 0.38507
 C783 C 0.07840 0.70744 0.59290
 C784 C 0.07649 0.71016 0.61574
 C785 C 0.06009 0.69739 0.62779
 C786 C 0.04588 0.68145 0.61754
 C787 C 0.04856 0.67816 0.59507
 C788 C 0.06451 0.69101 0.58286
 C789 C 0.09521 0.72217 0.58050
 C790 C 0.09684 0.72209 0.55756
 C791 C 0.11250 0.73639 0.54678
 C792 C 0.12710 0.75093 0.55856
 C793 C 0.12562 0.75118 0.58137
 C794 C 0.10956 0.73721 0.59236
 C795 C 0.09098 0.72555 0.62645
 C796 C 0.10741 0.73856 0.61505
 H797 H 0.08969 0.72749 0.64396
 H798 H 0.11830 0.75014 0.62412
 H799 H 0.05846 0.69983 0.64522
 H800 H 0.03788 0.66590 0.58678
 H801 H 0.11337 0.73598 0.52915
 H802 H 0.13654 0.76269 0.59052
 H803 H 0.06569 0.68780 0.56563
 H804 H 0.08599 0.71134 0.54763
 C805 C 0.92061 0.71011 0.40570
 C806 C 0.92223 0.71385 0.38298
 C807 C 0.93901 0.70207 0.37034
 C808 C 0.95393 0.68613 0.37988
 C809 C 0.95156 0.68181 0.40221
 C810 C 0.93521 0.69367 0.41500
 C811 C 0.90340 0.72386 0.41878
 C812 C 0.90198 0.72276 0.44171
 C813 C 0.88604 0.73627 0.45316
 C814 C 0.87094 0.75101 0.44207
 C815 C 0.87210 0.75221 0.41928
 C816 C 0.88845 0.73905 0.40763
 C817 C 0.90709 0.72929 0.37298
 C818 C 0.89033 0.74140 0.38499
 H819 H 0.90816 0.73201 0.35555
 H820 H 0.87897 0.75309 0.37647
 H821 H 0.94041 0.70528 0.35301
 H822 H 0.96277 0.66951 0.40994
 H823 H 0.88540 0.73513 0.47077
 H824 H 0.86078 0.76388 0.41068
 H825 H 0.93430 0.68970 0.43210
 H826 H 0.91325 0.71183 0.45113
 C827 C 0.91452 0.28432 0.59669
 C828 C 0.91458 0.30678 0.59275
 C829 C 0.93034 0.32027 0.60480
 C830 C 0.94552 0.31174 0.62128
 C831 C 0.94441 0.28964 0.62588
 C832 C 0.92921 0.27608 0.61375
 C833 C 0.89865 0.27028 0.58263
 C834 C 0.89943 0.24762 0.58366
 C835 C 0.88447 0.23521 0.57009
 C836 C 0.86819 0.24504 0.55536
 C837 C 0.86731 0.26757 0.55403
 C838 C 0.88279 0.28023 0.56722
 C839 C 0.89884 0.31562 0.57691
 C840 C 0.88294 0.30266 0.56472
 H841 H 0.89865 0.33284 0.57403
 H842 H 0.87095 0.31029 0.55281
 H843 H 0.93075 0.33741 0.60140
 H844 H 0.95581 0.28266 0.63860
 H845 H 0.88540 0.21782 0.57126
 H846 H 0.85501 0.27517 0.54234
 H847 H 0.92924 0.25923 0.61804
 H848 H 0.91169 0.23912 0.59456
 C849 C 0.40022 0.07733 0.28522
 C850 C 0.37556 0.07144 0.28047
 C851 C 0.36381 0.05546 0.29286
 C852 C 0.37614 0.04520 0.31017
 C853 C 0.40047 0.05124 0.31501
 C854 C 0.41239 0.06704 0.30273
 C855 C 0.41221 0.09422 0.27131
 C856 C 0.43685 0.10086 0.27427
 C857 C 0.44728 0.11634 0.26061
 C858 C 0.43349 0.12572 0.24367
 C859 C 0.40886 0.11939 0.24074
 C860 C 0.39822 0.10371 0.25427
 C861 C 0.36274 0.08152 0.26341
 C862 C 0.37379 0.09735 0.25066
 H863 H 0.34384 0.07707 0.25983
 H864 H 0.36307 0.10461 0.23762
 H865 H 0.34495 0.05106 0.28901
 H866 H 0.41043 0.04364 0.32829
 H867 H 0.46645 0.12063 0.26303
 H868 H 0.39790 0.12669 0.22788
 H869 H 0.43109 0.07093 0.30724
 H870 H 0.44850 0.09413 0.28683
 C871 C 0.60961 0.07604 0.72425
 C872 C 0.59546 0.06278 0.71023
 C873 C 0.60720 0.04791 0.69650
 C874 C 0.63291 0.04547 0.69705
 C875 C 0.64684 0.05826 0.71130
 C876 C 0.63543 0.07344 0.72464
 C877 C 0.59641 0.09191 0.73844
 C878 C 0.60885 0.10685 0.75181
 C879 C 0.59570 0.12111 0.76494
 C880 C 0.56989 0.12071 0.76523
 C881 C 0.55728 0.10612 0.75181
 C882 C 0.57030 0.09199 0.73821
 C883 C 0.56968 0.06411 0.71032
 C884 C 0.55736 0.07817 0.72424
 H885 H 0.55882 0.05387 0.69969
 H886 H 0.53738 0.07836 0.72391
 H887 H 0.59625 0.03781 0.68580
 H888 H 0.66671 0.05661 0.71208
 H889 H 0.60574 0.13231 0.77517
 H890 H 0.53728 0.10607 0.75169
 H891 H 0.64713 0.08271 0.73533
 H892 H 0.62868 0.10792 0.75228
 C893 C 0.39366 0.92326 0.72563
 C894 C 0.40613 0.93352 0.70825
 C895 C 0.39404 0.94931 0.69570
 C896 C 0.36969 0.95537 0.70040
 C897 C 0.35748 0.94529 0.71774
 C898 C 0.36921 0.92944 0.73015
 C899 C 0.40724 0.90655 0.73868
 C900 C 0.39630 0.89509 0.75595
 C901 C 0.40991 0.88018 0.76805
 C902 C 0.43478 0.87623 0.76332
 C903 C 0.44570 0.88717 0.74580
 C904 C 0.43215 0.90220 0.73347
 C905 C 0.43066 0.92817 0.70367
 C906 C 0.44344 0.91296 0.71610
 H907 H 0.44024 0.93604 0.69040
 H908 H 0.46248 0.90958 0.71204
 H909 H 0.40374 0.95708 0.68244
 H910 H 0.33869 0.94962 0.72175
 H911 H 0.40087 0.87163 0.78117
 H912 H 0.46496 0.88437 0.74207
 H913 H 0.35883 0.92241 0.74330
 H914 H 0.37728 0.89736 0.76044
 C915 C 0.59637 0.92572 0.27628
 C916 C 0.62230 0.92714 0.27418
 C917 C 0.63568 0.94186 0.28693
 C918 C 0.62369 0.95483 0.30230
 C919 C 0.59813 0.95280 0.30494
 C920 C 0.58460 0.93853 0.29207
 C921 C 0.58265 0.91045 0.26173
 C922 C 0.55670 0.90921 0.26119
 C923 C 0.54479 0.89482 0.24725
 C924 C 0.55840 0.88118 0.23369
 C925 C 0.58421 0.88231 0.23398
 C926 C 0.59638 0.89706 0.24758
 C927 C 0.63475 0.91373 0.25954
 C928 C 0.62210 0.89878 0.24678
 H929 H 0.65462 0.91467 0.25806
 H930 H 0.63261 0.88864 0.23584
 H931 H 0.65550 0.94306 0.28504
 H932 H 0.58847 0.96256 0.31678
 H933 H 0.52483 0.89417 0.24722
 H934 H 0.59475 0.87202 0.22320
 H935 H 0.56501 0.93772 0.29484
 H936 H 0.54525 0.91936 0.27119
 C937 C 0.40208 0.27659 0.92721
 C938 C 0.37606 0.27512 0.92821
 C939 C 0.36285 0.28811 0.94279
 C940 C 0.37510 0.30311 0.95602
 C941 C 0.40076 0.30511 0.95444
 C942 C 0.41414 0.29198 0.94031
 C943 C 0.41556 0.26185 0.91202
 C944 C 0.44151 0.26074 0.91115
 C945 C 0.45318 0.24674 0.89671
 C946 C 0.43933 0.23369 0.88266
 C947 C 0.41353 0.23449 0.88349
 C948 C 0.40159 0.24817 0.89827
 C949 C 0.36336 0.26089 0.91450
 C950 C 0.37582 0.24795 0.89961
 H951 H 0.34343 0.25990 0.91512
 H952 H 0.36513 0.23737 0.88921
 H953 H 0.34295 0.28672 0.94364
 H954 H 0.41062 0.31665 0.96442
 H955 H 0.47314 0.24630 0.89629
 H956 H 0.40278 0.22411 0.87290
 H957 H 0.43383 0.29425 0.93982
 H958 H 0.45312 0.27036 0.92159
 C959 C 0.61018 0.72318 0.92254
 C960 C 0.59622 0.70641 0.93209
 C961 C 0.60667 0.69341 0.94845
 C962 C 0.63088 0.69699 0.95579
 C963 C 0.64464 0.71366 0.94636
 C964 C 0.63451 0.72656 0.92994
 C965 C 0.59823 0.73682 0.90527
 C966 C 0.61061 0.75370 0.89453
 C967 C 0.59841 0.76641 0.87910
 C968 C 0.57358 0.76264 0.87388
 C969 C 0.56125 0.74555 0.88409
 C970 C 0.57334 0.73266 0.89965
 C971 C 0.57181 0.70288 0.92549
 C972 C 0.56057 0.71579 0.90971
 H973 H 0.56110 0.69006 0.93281
 H974 H 0.54155 0.71255 0.90536
 H975 H 0.59578 0.68065 0.95568
 H976 H 0.66335 0.71679 0.95169
 H977 H 0.60848 0.77924 0.87117
 H978 H 0.54199 0.74261 0.88036
 H979 H 0.64600 0.73915 0.92344
 H980 H 0.62966 0.75744 0.89782
 C981 C 0.39187 0.72363 0.07250
 C982 C 0.40730 0.71034 0.05969
 C983 C 0.39695 0.69621 0.04436
 C984 C 0.37137 0.69555 0.04099
 C985 C 0.35613 0.70904 0.05334
 C986 C 0.36618 0.72282 0.06899
 C987 C 0.40368 0.73834 0.08885
 C988 C 0.39000 0.75115 0.10342
 C989 C 0.40192 0.76478 0.11815
 C990 C 0.42768 0.76613 0.11856
 C991 C 0.44150 0.75326 0.10438
 C992 C 0.42976 0.73920 0.08980
 C993 C 0.43296 0.71153 0.06190
 C994 C 0.44396 0.72587 0.07641
 H995 H 0.44477 0.70145 0.05199
 H996 H 0.46391 0.72640 0.07729
 H997 H 0.40891 0.68610 0.03461
 H998 H 0.33633 0.70889 0.05096
 H999 H 0.39097 0.77454 0.12908
 H1000 H 0.46148 0.75396 0.10500
 H1001 H 0.35356 0.73289 0.07791
 H1002 H 0.37013 0.75079 0.10382
 C1003 C 0.60695 0.27600 0.08098
 C1004 C 0.59407 0.29316 0.07082
 C1005 C 0.60587 0.30600 0.05514
 C1006 C 0.63037 0.30187 0.04912
 C1007 C 0.64306 0.28484 0.05920
 C1008 C 0.63159 0.27210 0.07493
 C1009 C 0.59359 0.26252 0.09745
 C1010 C 0.60482 0.24524 0.10864
 C1011 C 0.59140 0.23278 0.12334
 C1012 C 0.56647 0.23717 0.12736
 C1013 C 0.55524 0.25464 0.11666
 C1014 C 0.56856 0.26730 0.10181
 C1015 C 0.56942 0.29726 0.07614
 C1016 C 0.55691 0.28455 0.09122
 H1017 H 0.55955 0.31038 0.06836
 H1018 H 0.53778 0.28826 0.09459
 H1019 H 0.59580 0.31905 0.04740
 H1020 H 0.66197 0.28128 0.05491
 H1021 H 0.60065 0.21966 0.13169
 H1022 H 0.53592 0.25809 0.11948
 H1023 H 0.64232 0.25921 0.08197
 H1024 H 0.62389 0.24100 0.10629
 C1025 C 0.27584 0.07738 0.60750
 C1026 C 0.29721 0.06742 0.59896
 C1027 C 0.30967 0.05155 0.61110
 C1028 C 0.30100 0.04513 0.63164
 C1029 C 0.27967 0.05488 0.63993
 C1030 C 0.26727 0.07078 0.62811
 C1031 C 0.26315 0.09434 0.59409
 C1032 C 0.24218 0.10561 0.60136
 C1033 C 0.23084 0.12106 0.58816
 C1034 C 0.24000 0.12573 0.56734
 C1035 C 0.26107 0.11478 0.56004
 C1036 C 0.27271 0.09927 0.57323
 C1037 C 0.30590 0.07322 0.57831
 C1038 C 0.29383 0.08869 0.56567
 H1039 H 0.32221 0.06557 0.57173
 H1040 H 0.30121 0.09250 0.54974
 H1041 H 0.32604 0.04404 0.60443
 H1042 H 0.27253 0.05025 0.65572
 H1043 H 0.21494 0.12957 0.59441
 H1044 H 0.26823 0.11810 0.54391
 H1045 H 0.25098 0.07758 0.63539
 H1046 H 0.23426 0.10286 0.61720
 C1047 C 0.72189 0.07229 0.39479
 C1048 C 0.69713 0.06727 0.39985
 C1049 C 0.68453 0.05136 0.38798
 C1050 C 0.69587 0.04080 0.37037
 C1051 C 0.72020 0.04642 0.36498
 C1052 C 0.73307 0.06180 0.37705
 C1053 C 0.73488 0.08895 0.40824
 C1054 C 0.76014 0.09369 0.40585
 C1055 C 0.77131 0.10954 0.41861
 C1056 C 0.75756 0.12118 0.43385
 C1057 C 0.73253 0.11642 0.43664
 C1058 C 0.72123 0.10015 0.42427
 C1059 C 0.68490 0.07845 0.41642
 C1060 C 0.69655 0.09481 0.42809
 H1061 H 0.66587 0.07475 0.42019
 H1062 H 0.68617 0.10321 0.44051
 H1063 H 0.66564 0.04758 0.39224
 H1064 H 0.72953 0.03879 0.35144
 H1065 H 0.79071 0.11296 0.41635
 H1066 H 0.72200 0.12514 0.44875
 H1067 H 0.75163 0.06544 0.37203
 H1068 H 0.77164 0.08525 0.39438
 C1069 C 0.72370 0.92685 0.59896
 C1070 C 0.69777 0.92917 0.59755
 C1071 C 0.68568 0.94486 0.61009
 C1072 C 0.69899 0.95792 0.62461
 C1073 C 0.72459 0.95521 0.62635
 C1074 C 0.73683 0.93999 0.61367
 C1075 C 0.73596 0.91019 0.58504
 C1076 C 0.76176 0.90761 0.58416
 C1077 C 0.77228 0.89164 0.57121
 C1078 C 0.75741 0.87775 0.55891
 C1079 C 0.73173 0.88034 0.55938
 C1080 C 0.72094 0.89660 0.57208
 C1081 C 0.68403 0.91560 0.58392
 C1082 C 0.69533 0.89947 0.57170
 H1083 H 0.66416 0.91726 0.58293
 H1084 H 0.68383 0.88920 0.56165
 H1085 H 0.66584 0.94661 0.60886
 H1086 H 0.73529 0.96504 0.63748
 H1087 H 0.79215 0.88989 0.57109
 H1088 H 0.72018 0.86985 0.54958
 H1089 H 0.75651 0.93864 0.61584
 H1090 H 0.77418 0.91778 0.59325
 C1091 C 0.28140 0.92623 0.40525
 C1092 C 0.30732 0.92810 0.40730
 C1093 C 0.32016 0.94339 0.39481
 C1094 C 0.30761 0.95648 0.37973
 C1095 C 0.28203 0.95414 0.37731
 C1096 C 0.26906 0.93932 0.38992
 C1097 C 0.26831 0.91007 0.41922
 C1098 C 0.24243 0.90806 0.41954
 C1099 C 0.23112 0.89254 0.43255
 C1100 C 0.24525 0.87853 0.44546
 C1101 C 0.27101 0.88059 0.44558
 C1102 C 0.28258 0.89642 0.43282
 C1103 C 0.32030 0.91450 0.42153
 C1104 C 0.30824 0.89879 0.43377
 H1105 H 0.34016 0.91581 0.42302
 H1106 H 0.31917 0.88847 0.44432
 H1107 H 0.33998 0.94486 0.39658
 H1108 H 0.27190 0.96399 0.36575
 H1109 H 0.21121 0.89120 0.43222
 H1110 H 0.28199 0.87002 0.45583
 H1111 H 0.24944 0.93826 0.38723
 H1112 H 0.23055 0.91835 0.40997
 C1113 C 0.08025 0.40560 0.70692
 C1114 C 0.06445 0.39106 0.71786
 C1115 C 0.04757 0.37861 0.70599
 C1116 C 0.04546 0.38084 0.68331
 C1117 C 0.06058 0.39566 0.67251
 C1118 C 0.07790 0.40781 0.68412
 C1119 C 0.09841 0.41824 0.72025
 C1120 C 0.11625 0.43191 0.71093
 C1121 C 0.13270 0.44335 0.72413
 C1122 C 0.13154 0.44163 0.74687
 C1123 C 0.11405 0.42796 0.75631
 C1124 C 0.09781 0.41604 0.74323
 C1125 C 0.06524 0.38927 0.74060
 C1126 C 0.08130 0.40173 0.75303
 H1127 H 0.05300 0.37825 0.74896
 H1128 H 0.08100 0.39994 0.77061
 H1129 H 0.03560 0.36749 0.71454
 H1130 H 0.05915 0.39775 0.65502
 H1131 H 0.14620 0.45378 0.71659
 H1132 H 0.11348 0.42627 0.77390
 H1133 H 0.08903 0.41899 0.67498
 H1134 H 0.11796 0.43385 0.69353
 C1135 C 0.09078 0.60462 0.28478
 C1136 C 0.07959 0.59391 0.30256
 C1137 C 0.06220 0.60471 0.31547
 C1138 C 0.05525 0.62598 0.31064
 C1139 C 0.06628 0.63650 0.29296
 C1140 C 0.08385 0.62605 0.28024
 C1141 C 0.10890 0.59240 0.27114
 C1142 C 0.12148 0.60176 0.25346
 C1143 C 0.13706 0.58941 0.24047
 C1144 C 0.14062 0.56742 0.24472
 C1145 C 0.12902 0.55814 0.26286
 C1146 C 0.11329 0.57045 0.27607
 C1147 C 0.08538 0.57236 0.30703
 C1148 C 0.10168 0.56082 0.29395
 H1149 H 0.07682 0.56414 0.32063
 H1150 H 0.10517 0.54406 0.29785
 H1151 H 0.05365 0.59635 0.32899
 H1152 H 0.06128 0.65291 0.28887
 H1153 H 0.14628 0.59710 0.22691
 H1154 H 0.13155 0.54115 0.26628
 H1155 H 0.09146 0.63496 0.26677
 H1156 H 0.11945 0.61853 0.24925
 C1157 C 0.91188 0.40482 0.29707
 C1158 C 0.91786 0.38349 0.29090
 C1159 C 0.93620 0.37205 0.30224
 C1160 C 0.94873 0.38143 0.31987
 C1161 C 0.94228 0.40231 0.32640
 C1162 C 0.92413 0.41390 0.31517
 C1163 C 0.89309 0.41686 0.28376
 C1164 C 0.88670 0.43851 0.28778
 C1165 C 0.87010 0.44934 0.27414
 C1166 C 0.85933 0.43886 0.25624
 C1167 C 0.86494 0.41710 0.25257
 C1168 C 0.88185 0.40616 0.26595
 C1169 C 0.90573 0.37374 0.27332
 C1170 C 0.88801 0.38479 0.26120
 H1171 H 0.91017 0.35734 0.26872
 H1172 H 0.87934 0.37659 0.24760
 H1173 H 0.94082 0.35581 0.29719
 H1174 H 0.95158 0.40990 0.34002
 H1175 H 0.86633 0.46619 0.27721
 H1176 H 0.85642 0.40872 0.23901
 H1177 H 0.92015 0.42995 0.32083
 H1178 H 0.89471 0.44755 0.30102
 C1179 C 0.91027 0.59325 0.70806
 C1180 C 0.91641 0.61473 0.71356
 C1181 C 0.93409 0.62598 0.70142
 C1182 C 0.94579 0.61628 0.68358
 C1183 C 0.93929 0.59518 0.67782
 C1184 C 0.92182 0.58377 0.68988
 C1185 C 0.89197 0.58155 0.72204
 C1186 C 0.88533 0.55987 0.71860
 C1187 C 0.86905 0.54945 0.73271
 C1188 C 0.85883 0.56037 0.75053
 C1189 C 0.86479 0.58214 0.75369
 C1190 C 0.88137 0.59268 0.73982
 C1191 C 0.90501 0.62486 0.73122
 C1192 C 0.88777 0.61412 0.74399
 H1193 H 0.90958 0.64136 0.73533
 H1194 H 0.87962 0.62264 0.75758
 H1195 H 0.93875 0.64236 0.70591
 H1196 H 0.94796 0.58734 0.66408
 H1197 H 0.86506 0.53258 0.73002
 H1198 H 0.85673 0.59086 0.76720
 H1199 H 0.91771 0.56757 0.68474
 H1200 H 0.89287 0.55052 0.70542
 C1201 C 0.71919 0.60076 0.92919
 C1202 C 0.69399 0.59687 0.93356
 C1203 C 0.68153 0.60932 0.94916
 C1204 C 0.69355 0.62630 0.96005
 C1205 C 0.71836 0.63051 0.95502
 C1206 C 0.73102 0.61790 0.93996
 C1207 C 0.73201 0.58676 0.91288
 C1208 C 0.75753 0.58809 0.90882
 C1209 C 0.76855 0.57491 0.89324
 C1210 C 0.75444 0.56024 0.88119
 C1211 C 0.72911 0.55849 0.88530
 C1212 C 0.71791 0.57134 0.90130
 C1213 C 0.68126 0.58087 0.92203
 C1214 C 0.69285 0.56865 0.90599
 H1215 H 0.66191 0.57797 0.92522
 H1216 H 0.68208 0.55670 0.89730
 H1217 H 0.66229 0.60598 0.95248
 H1218 H 0.72826 0.64352 0.96289
 H1219 H 0.78815 0.57643 0.89032
 H1220 H 0.71824 0.54685 0.87627
 H1221 H 0.74998 0.62205 0.93681
 H1222 H 0.76935 0.59905 0.91758
 C1223 C 0.28548 0.39333 0.91580
 C1224 C 0.30644 0.40189 0.92649
 C1225 C 0.31781 0.39035 0.94356
 C1226 C 0.30807 0.37058 0.95078
 C1227 C 0.28683 0.36252 0.94041
 C1228 C 0.27579 0.37361 0.92316
 C1229 C 0.27401 0.40599 0.89755
 C1230 C 0.25423 0.39814 0.88494
 C1231 C 0.24340 0.41090 0.86881
 C1232 C 0.25183 0.43189 0.86479
 C1233 C 0.27227 0.43952 0.87663
 C1234 C 0.28351 0.42668 0.89278
 C1235 C 0.31557 0.42213 0.92042
 C1236 C 0.30411 0.43440 0.90419
 H1237 H 0.33154 0.42879 0.92866
 H1238 H 0.31159 0.45015 0.90044
 H1239 H 0.33397 0.39706 0.95148
 H1240 H 0.27864 0.34743 0.94551
 H1241 H 0.22825 0.40426 0.85945
 H1242 H 0.27908 0.45567 0.87370
 H1243 H 0.25946 0.36658 0.91608
 H1244 H 0.24685 0.38218 0.88719
 C1245 C 0.28854 0.59578 0.07035
 C1246 C 0.27508 0.61197 0.05921
 C1247 C 0.28682 0.62514 0.04381
 C1248 C 0.31184 0.62209 0.03865
 C1249 C 0.32491 0.60553 0.04930
 C1250 C 0.31351 0.59266 0.06498
 C1251 C 0.27545 0.58251 0.08715
 C1252 C 0.28759 0.56719 0.10040
 C1253 C 0.27456 0.55539 0.11595
 C1254 C 0.24913 0.55835 0.11848
 C1255 C 0.23687 0.57355 0.10545
 C1256 C 0.24986 0.58586 0.09012
 C1257 C 0.24988 0.61475 0.06325
 C1258 C 0.23747 0.60176 0.07813
 H1259 H 0.23951 0.62703 0.05459
 H1260 H 0.21791 0.60444 0.08051
 H1261 H 0.27623 0.63759 0.03560
 H1262 H 0.34414 0.60255 0.04569
 H1263 H 0.28435 0.54377 0.12595
 H1264 H 0.21727 0.57618 0.10769
 H1265 H 0.32454 0.58023 0.07253
 H1266 H 0.30714 0.56427 0.09924
 C1267 C 0.71991 0.39746 0.07907
 C1268 C 0.69497 0.40156 0.07362
 C1269 C 0.68299 0.38895 0.05777
 C1270 C 0.69520 0.37159 0.04775
 C1271 C 0.71967 0.36710 0.05396
 C1272 C 0.73189 0.37988 0.06925
 C1273 C 0.73231 0.41175 0.09546
 C1274 C 0.75768 0.41037 0.10035
 C1275 C 0.76833 0.42390 0.11589
 C1276 C 0.75395 0.43895 0.12711
 C1277 C 0.72876 0.44074 0.12220
 C1278 C 0.71797 0.42757 0.10616
 C1279 C 0.68201 0.41795 0.08430
 C1280 C 0.69312 0.43039 0.10052
 H1281 H 0.66283 0.42100 0.08031
 H1282 H 0.68218 0.44264 0.10853
 H1283 H 0.66397 0.39250 0.05356
 H1284 H 0.72968 0.35378 0.04681
 H1285 H 0.78784 0.42239 0.11942
 H1286 H 0.71772 0.45267 0.13059
 H1287 H 0.75061 0.37553 0.07331
 H1288 H 0.76969 0.39913 0.09222
 C1289 C 0.90995 0.70453 0.59645
 C1290 C 0.91780 0.71109 0.61745
 C1291 C 0.93546 0.69896 0.62892
 C1292 C 0.94538 0.67998 0.62000
 C1293 C 0.93680 0.67312 0.59949
 C1294 C 0.91943 0.68521 0.58786
 C1295 C 0.89204 0.71861 0.58428
 C1296 C 0.88438 0.71439 0.56272
 C1297 C 0.86855 0.72854 0.55178
 C1298 C 0.85973 0.74719 0.56204
 C1299 C 0.86678 0.75122 0.58371
 C1300 C 0.88307 0.73734 0.59472
 C1301 C 0.90807 0.72976 0.62688
 C1302 C 0.89089 0.74247 0.61586
 H1303 H 0.91389 0.73467 0.64305
 H1304 H 0.88402 0.75682 0.62385
 H1305 H 0.94150 0.70444 0.64485
 H1306 H 0.94379 0.65850 0.59214
 H1307 H 0.86381 0.72516 0.53496
 H1308 H 0.85985 0.76538 0.59198
 H1309 H 0.91375 0.67915 0.57217
 H1310 H 0.89085 0.70055 0.55381
 C1311 C 0.91916 0.29075 0.40335
 C1312 C 0.92734 0.28445 0.38244
 C1313 C 0.94491 0.29684 0.37136
 C1314 C 0.95455 0.31578 0.38061
 C1315 C 0.94612 0.32213 0.40128
 C1316 C 0.92874 0.30981 0.41250
 C1317 C 0.90071 0.27676 0.41479
 C1318 C 0.89190 0.28118 0.43590
 C1319 C 0.87520 0.26731 0.44603
 C1320 C 0.86676 0.24872 0.43539
 C1321 C 0.87511 0.24440 0.41422
 C1322 C 0.89207 0.25809 0.40398
 C1323 C 0.91795 0.26582 0.37263
 C1324 C 0.90062 0.25298 0.38312
 H1325 H 0.92413 0.26105 0.35657
 H1326 H 0.89399 0.23870 0.37484
 H1327 H 0.95097 0.29165 0.35538
 H1328 H 0.95301 0.33664 0.40894
 H1329 H 0.86936 0.27090 0.46248
 H1330 H 0.86846 0.23026 0.40569
 H1331 H 0.92308 0.31554 0.42829
 H1332 H 0.89790 0.29506 0.44502
 C1333 C 0.07668 0.28906 0.59487
 C1334 C 0.07216 0.28398 0.61698
 C1335 C 0.05572 0.29654 0.62922
 C1336 C 0.04409 0.31468 0.61998
 C1337 C 0.04971 0.32027 0.59834
 C1338 C 0.06563 0.30762 0.58593
 C1339 C 0.09327 0.27454 0.58203
 C1340 C 0.09688 0.27685 0.55940
 C1341 C 0.11240 0.26279 0.54817
 C1342 C 0.12489 0.24630 0.55924
 C1343 C 0.12129 0.24371 0.58170
 C1344 C 0.10525 0.25740 0.59306
 C1345 C 0.08420 0.26649 0.62681
 C1346 C 0.10074 0.25374 0.61521
 H1347 H 0.08097 0.26271 0.64381
 H1348 H 0.10976 0.24052 0.62363
 H1349 H 0.05208 0.29214 0.64601
 H1350 H 0.04139 0.33426 0.59069
 H1351 H 0.11489 0.26494 0.53079
 H1352 H 0.13057 0.23068 0.59021
 H1353 H 0.06908 0.31271 0.56941
 H1354 H 0.08768 0.28919 0.55002
 C1355 C 0.09004 0.71401 0.39762
 C1356 C 0.08073 0.69499 0.40726
 C1357 C 0.06352 0.68222 0.39594
 C1358 C 0.05456 0.68856 0.37532
 C1359 C 0.06367 0.70767 0.36604
 C1360 C 0.08119 0.72012 0.37691
 C1361 C 0.10816 0.72731 0.41029
 C1362 C 0.11947 0.74583 0.40164
 C1363 C 0.13505 0.75842 0.41448
 C1364 C 0.13981 0.75300 0.43631
 C1365 C 0.12957 0.73397 0.44477
 C1366 C 0.11399 0.72106 0.43190
 C1367 C 0.08810 0.68916 0.42839
 C1368 C 0.10406 0.70208 0.44056
 H1369 H 0.08094 0.67464 0.43586
 H1370 H 0.10870 0.69713 0.45702
 H1371 H 0.05659 0.66768 0.40356
 H1372 H 0.05725 0.71317 0.35023
 H1373 H 0.14332 0.77259 0.40727
 H1374 H 0.13311 0.72952 0.46159
 H1375 H 0.08715 0.73469 0.36895
 H1376 H 0.11653 0.75094 0.38503
 C1377 C 0.61138 0.92564 0.72344
 C1378 C 0.59704 0.93896 0.70955
 C1379 C 0.60858 0.95408 0.69596
 C1380 C 0.63426 0.95671 0.69647
 C1381 C 0.64838 0.94385 0.71058
 C1382 C 0.63717 0.92842 0.72380
 C1383 C 0.59835 0.90951 0.73748
 C1384 C 0.61095 0.89449 0.75073
 C1385 C 0.59795 0.87992 0.76365
 C1386 C 0.57213 0.88009 0.76387
 C1387 C 0.55937 0.89478 0.75060
 C1388 C 0.57224 0.90922 0.73721
 C1389 C 0.57128 0.93745 0.70962
 C1390 C 0.55914 0.92312 0.72338
 H1391 H 0.56030 0.94775 0.69910
 H1392 H 0.53916 0.92277 0.72303
 H1393 H 0.59746 0.96422 0.68538
 H1394 H 0.66823 0.94566 0.71133
 H1395 H 0.60811 0.86863 0.77376
 H1396 H 0.53938 0.89465 0.75042
 H1397 H 0.64899 0.91909 0.73438
 H1398 H 0.63080 0.89360 0.75124
 C1399 C 0.39765 0.92333 0.28331
 C1400 C 0.37313 0.92981 0.27870
 C1401 C 0.36167 0.94561 0.29155
 C1402 C 0.37419 0.95503 0.30920
 C1403 C 0.39833 0.94830 0.31395
 C1404 C 0.40993 0.93272 0.30121
 C1405 C 0.40941 0.90679 0.26887
 C1406 C 0.43397 0.89982 0.27158
 C1407 C 0.44422 0.88469 0.25745
 C1408 C 0.43030 0.87599 0.24027
 C1409 C 0.40574 0.88270 0.23753
 C1410 C 0.39531 0.89807 0.25153
 C1411 C 0.36019 0.92052 0.26130
 C1412 C 0.37098 0.90491 0.24810
 H1413 H 0.34138 0.92539 0.25782
 H1414 H 0.36017 0.89825 0.23483
 H1415 H 0.34295 0.95054 0.28780
 H1416 H 0.40843 0.95523 0.32749
 H1417 H 0.46335 0.88016 0.25972
 H1418 H 0.39469 0.87596 0.22446
 H1419 H 0.42850 0.92830 0.30570
 H1420 H 0.44573 0.90602 0.28431
 C1421 C 0.60450 0.07500 0.27618
 C1422 C 0.59061 0.06191 0.29049
 C1423 C 0.60250 0.04649 0.30363
 C1424 C 0.62806 0.04333 0.30221
 C1425 C 0.64171 0.05598 0.28768
 C1426 C 0.63017 0.07169 0.27492
 C1427 C 0.59113 0.09143 0.26261
 C1428 C 0.60338 0.10623 0.24899
 C1429 C 0.59005 0.12101 0.23643
 C1430 C 0.56424 0.12128 0.23698
 C1431 C 0.55185 0.10686 0.25068
 C1432 C 0.56507 0.09220 0.26370
 C1433 C 0.56491 0.06393 0.29127
 C1434 C 0.55239 0.07853 0.27794
 H1435 H 0.55425 0.05382 0.30213
 H1436 H 0.53246 0.07925 0.27892
 H1437 H 0.59173 0.03653 0.31454
 H1438 H 0.66145 0.05377 0.28623
 H1439 H 0.59994 0.13208 0.22599
 H1440 H 0.53188 0.10732 0.25145
 H1441 H 0.64164 0.08082 0.26398
 H1442 H 0.62320 0.10677 0.24787
 C1443 C 0.39227 0.07731 0.72638
 C1444 C 0.40492 0.06747 0.70887
 C1445 C 0.39307 0.05181 0.69604
 C1446 C 0.36877 0.04549 0.70056
 C1447 C 0.35635 0.05524 0.71796
 C1448 C 0.36785 0.07094 0.73067
 C1449 C 0.40564 0.09379 0.73983
 C1450 C 0.39456 0.10473 0.75736
 C1451 C 0.40800 0.11940 0.76984
 C1452 C 0.43283 0.12364 0.76524
 C1453 C 0.44390 0.11322 0.74748
 C1454 C 0.43053 0.09841 0.73478
 C1455 C 0.42941 0.07308 0.70448
 C1456 C 0.44198 0.08811 0.71722
 H1457 H 0.43914 0.06554 0.69110
 H1458 H 0.46100 0.09169 0.71328
 H1459 H 0.40293 0.04432 0.68271
 H1460 H 0.33760 0.05072 0.72184
 H1461 H 0.39885 0.12754 0.78315
 H1462 H 0.46313 0.11623 0.74384
 H1463 H 0.35731 0.07769 0.74385
 H1464 H 0.37557 0.10221 0.76178
 C1465 C 0.60234 0.72433 0.07759
 C1466 C 0.58932 0.70725 0.06752
 C1467 C 0.60120 0.69392 0.05230
 C1468 C 0.62594 0.69748 0.04669
 C1469 C 0.63873 0.71446 0.05667
 C1470 C 0.62719 0.72768 0.07191
 C1471 C 0.58897 0.73830 0.09361
 C1472 C 0.60037 0.75551 0.10469
 C1473 C 0.58701 0.76836 0.11906
 C1474 C 0.56194 0.76445 0.12286
 C1475 C 0.55049 0.74710 0.11222
 C1476 C 0.56377 0.73404 0.09770
 C1477 C 0.56447 0.70372 0.07251
 C1478 C 0.55195 0.71688 0.08719
 H1479 H 0.55446 0.69068 0.06480
 H1480 H 0.53267 0.71357 0.09034
 H1481 H 0.59106 0.68092 0.04464
 H1482 H 0.65783 0.71761 0.05270
 H1483 H 0.59643 0.78137 0.12736
 H1484 H 0.53106 0.74402 0.11488
 H1485 H 0.63805 0.74047 0.07889
 H1486 H 0.61957 0.75938 0.10252
 C1487 C 0.39151 0.27780 0.07755
 C1488 C 0.40604 0.29147 0.06431
 C1489 C 0.39474 0.30484 0.04869
 C1490 C 0.36913 0.30425 0.04542
 C1491 C 0.35483 0.29042 0.05827
 C1492 C 0.36579 0.27748 0.07423
 C1493 C 0.40429 0.26380 0.09406
 C1494 C 0.39146 0.25071 0.10901
 C1495 C 0.40424 0.23763 0.12375
 C1496 C 0.43005 0.23709 0.12385
 C1497 C 0.44303 0.25031 0.10934
 C1498 C 0.43039 0.26385 0.09472
 C1499 C 0.43177 0.29128 0.06631
 C1500 C 0.44370 0.27754 0.08096
 H1501 H 0.44292 0.30164 0.05610
 H1502 H 0.46367 0.27774 0.08161
 H1503 H 0.40599 0.31521 0.03855
 H1504 H 0.33504 0.28962 0.05599
 H1505 H 0.39391 0.22760 0.13491
 H1506 H 0.46303 0.25025 0.10968
 H1507 H 0.35383 0.26708 0.08347
 H1508 H 0.37160 0.25041 0.10966
 C1509 C 0.60941 0.27495 0.92533
 C1510 C 0.59587 0.29184 0.93515
 C1511 C 0.60696 0.30483 0.95118
 C1512 C 0.63136 0.30105 0.95794
 C1513 C 0.64462 0.28419 0.94829
 C1514 C 0.63389 0.27135 0.93220
 C1515 C 0.59690 0.26140 0.90834
 C1516 C 0.60894 0.24456 0.89726
 C1517 C 0.59630 0.23199 0.88205
 C1518 C 0.57133 0.23581 0.87741
 C1519 C 0.55930 0.25288 0.88798
 C1520 C 0.57187 0.26568 0.90329
 C1521 C 0.57128 0.29548 0.92911
 C1522 C 0.55949 0.28260 0.91365
 H1523 H 0.56087 0.30838 0.93663
 H1524 H 0.54036 0.28595 0.90974
 H1525 H 0.59644 0.31771 0.95861
 H1526 H 0.66347 0.28088 0.95315
 H1527 H 0.60619 0.21923 0.87382
 H1528 H 0.53996 0.25591 0.88467
 H1529 H 0.64507 0.25862 0.92554
 H1530 H 0.62809 0.24077 0.90006
 C1531 C 0.39934 0.72250 0.92112
 C1532 C 0.41352 0.70864 0.93458
 C1533 C 0.40179 0.69476 0.94935
 C1534 C 0.37604 0.69490 0.95147
 C1535 C 0.36207 0.70894 0.93843
 C1536 C 0.37349 0.72249 0.92337
 C1537 C 0.41256 0.73690 0.90539
 C1538 C 0.40013 0.75029 0.89034
 C1539 C 0.41329 0.76355 0.87617
 C1540 C 0.43910 0.76395 0.87673
 C1541 C 0.45170 0.75056 0.89146
 C1542 C 0.43867 0.73687 0.90554
 C1543 C 0.43931 0.70900 0.93353
 C1544 C 0.45161 0.72300 0.91953
 H1545 H 0.45018 0.69849 0.94392
 H1546 H 0.47160 0.72285 0.91953
 H1547 H 0.41279 0.68421 0.95961
 H1548 H 0.34217 0.70941 0.93981
 H1549 H 0.40324 0.77376 0.86488
 H1550 H 0.47170 0.75053 0.89166
 H1551 H 0.36175 0.73298 0.91390
 H1552 H 0.38030 0.75069 0.88913
 C1553 C 0.71799 0.91867 0.39431
 C1554 C 0.69800 0.92999 0.40369
 C1555 C 0.68567 0.94607 0.39170
 C1556 C 0.69324 0.95138 0.37050
 C1557 C 0.71314 0.94020 0.36134
 C1558 C 0.72531 0.92406 0.37299
 C1559 C 0.73076 0.90171 0.40767
 C1560 C 0.75041 0.88921 0.39962
 C1561 C 0.76211 0.87401 0.41284
 C1562 C 0.75464 0.87079 0.43446
 C1563 C 0.73474 0.88285 0.44251
 C1564 C 0.72275 0.89816 0.42930
 C1565 C 0.69068 0.92541 0.42507
 C1566 C 0.70289 0.90996 0.43764
 H1567 H 0.67542 0.93409 0.43230
 H1568 H 0.69666 0.90719 0.45417
 H1569 H 0.67043 0.95470 0.39902
 H1570 H 0.71939 0.94393 0.34502
 H1571 H 0.77701 0.86459 0.40602
 H1572 H 0.72887 0.88062 0.45923
 H1573 H 0.74053 0.91620 0.36503
 H1574 H 0.75704 0.89085 0.38317
 C1575 C 0.27735 0.92176 0.60860
 C1576 C 0.29796 0.93243 0.59952
 C1577 C 0.31015 0.94863 0.61138
 C1578 C 0.30187 0.95470 0.63214
 C1579 C 0.28125 0.94427 0.64094
 C1580 C 0.26918 0.92802 0.62942
 C1581 C 0.26492 0.90449 0.59548
 C1582 C 0.24482 0.89245 0.60334
 C1583 C 0.23356 0.87685 0.59035
 C1584 C 0.24193 0.87279 0.56914
 C1585 C 0.26225 0.88442 0.56130
 C1586 C 0.27382 0.90009 0.57429
 C1587 C 0.30611 0.92705 0.57859
 C1588 C 0.29419 0.91136 0.56619
 H1589 H 0.32183 0.93524 0.57159
 H1590 H 0.30109 0.90795 0.55000
 H1591 H 0.32595 0.95668 0.60431
 H1592 H 0.27442 0.94861 0.65691
 H1593 H 0.21830 0.86780 0.59704
 H1594 H 0.26882 0.88157 0.54489
 H1595 H 0.25342 0.92072 0.63709
 H1596 H 0.23752 0.89473 0.61949
 C1597 C 0.28820 0.07709 0.40670
 C1598 C 0.27418 0.06488 0.39163
 C1599 C 0.28572 0.04931 0.37859
 C1600 C 0.31106 0.04521 0.38069
 C1601 C 0.32482 0.05695 0.39598
 C1602 C 0.31363 0.07274 0.40876
 C1603 C 0.27523 0.09388 0.41998
 C1604 C 0.28768 0.10786 0.43438
 C1605 C 0.27472 0.12326 0.44632
 C1606 C 0.24904 0.12498 0.44437
 C1607 C 0.23647 0.11124 0.43004
 C1608 C 0.24934 0.09597 0.41766
 C1609 C 0.24869 0.06804 0.38984
 C1610 C 0.23650 0.08306 0.40277
 H1611 H 0.23793 0.05860 0.37841
 H1612 H 0.21671 0.08476 0.40089
 H1613 H 0.27483 0.04010 0.36705
 H1614 H 0.34440 0.05402 0.39798
 H1615 H 0.28476 0.13376 0.45729
 H1616 H 0.21665 0.11281 0.42817
 H1617 H 0.32516 0.08120 0.42026
 H1618 H 0.30741 0.10731 0.43654
 C1619 C 0.71994 0.08030 0.60087
 C1620 C 0.69965 0.06884 0.59212
 C1621 C 0.68796 0.05284 0.60460
 C1622 C 0.69657 0.04771 0.62560
 C1623 C 0.71683 0.05896 0.63409
 C1624 C 0.72833 0.07505 0.62199
 C1625 C 0.73197 0.09719 0.58704
 C1626 C 0.75168 0.10996 0.59456
 C1627 C 0.76281 0.12497 0.58087
 C1628 C 0.75471 0.12771 0.55929
 C1629 C 0.73460 0.11551 0.55182
 C1630 C 0.72315 0.10039 0.56552
 C1631 C 0.69141 0.07314 0.57088
 C1632 C 0.70305 0.08843 0.55780
 H1633 H 0.67592 0.06434 0.56413
 H1634 H 0.69618 0.09094 0.54137
 H1635 H 0.67245 0.04411 0.59778
 H1636 H 0.72387 0.05534 0.65024
 H1637 H 0.77783 0.13458 0.58728
 H1638 H 0.72817 0.11743 0.53517
 H1639 H 0.74390 0.08297 0.62942
 H1640 H 0.75881 0.10870 0.61093
 C1641 C 0.91773 0.59977 0.28843
 C1642 C 0.93336 0.58896 0.30343
 C1643 C 0.95048 0.60067 0.31596
 C1644 C 0.95287 0.62302 0.31326
 C1645 C 0.93756 0.63362 0.29820
 C1646 C 0.92015 0.62224 0.28604
 C1647 C 0.89977 0.58670 0.27531
 C1648 C 0.88260 0.59604 0.26077
 C1649 C 0.86668 0.58316 0.24853
 C1650 C 0.86748 0.56067 0.25033
 C1651 C 0.88419 0.55119 0.26501
 C1652 C 0.90009 0.56401 0.27766
 C1653 C 0.93222 0.56651 0.30546
 C1654 C 0.91617 0.55429 0.29267
 H1655 H 0.94423 0.55819 0.31686
 H1656 H 0.91628 0.53694 0.29462
 H1657 H 0.96248 0.59228 0.32734
 H1658 H 0.93905 0.65085 0.29578
 H1659 H 0.85396 0.59082 0.23727
 H1660 H 0.88461 0.53381 0.26675
 H1661 H 0.90909 0.63132 0.27463
 H1662 H 0.88112 0.61322 0.25860
 C1663 C 0.91392 0.40595 0.71083
 C1664 C 0.91609 0.38354 0.71471
 C1665 C 0.93200 0.37099 0.70192
 C1666 C 0.94542 0.38034 0.68484
 C1667 C 0.94235 0.40234 0.68040
 C1668 C 0.92689 0.41502 0.69322
 C1669 C 0.89784 0.41899 0.72565
 C1670 C 0.89626 0.44163 0.72448
 C1671 C 0.88133 0.45306 0.73890
 C1672 C 0.86741 0.44223 0.75465
 C1673 C 0.86885 0.41972 0.75601
 C1674 C 0.88424 0.40809 0.74192
 C1675 C 0.90237 0.37379 0.73129
 C1676 C 0.88650 0.38575 0.74438
 H1677 H 0.90383 0.35660 0.73414
 H1678 H 0.87619 0.37742 0.75691
 H1679 H 0.93394 0.35392 0.70527
 H1680 H 0.95239 0.40994 0.66725
 H1681 H 0.88046 0.47045 0.73762
 H1682 H 0.85846 0.41132 0.76846
 H1683 H 0.92541 0.43185 0.68908
 H1684 H 0.90662 0.45085 0.71277
 C1685 C 0.08460 0.59219 0.70582
 C1686 C 0.07756 0.61305 0.71271
 C1687 C 0.05975 0.62473 0.70093
 C1688 C 0.04873 0.61603 0.68216
 C1689 C 0.05607 0.59552 0.67512
 C1690 C 0.07372 0.58373 0.68675
 C1691 C 0.10316 0.58001 0.71929
 C1692 C 0.11087 0.55891 0.71428
 C1693 C 0.12767 0.54806 0.72771
 C1694 C 0.13731 0.55793 0.74645
 C1695 C 0.13004 0.57907 0.75137
 C1696 C 0.11302 0.59007 0.73810
 C1697 C 0.08820 0.62213 0.73139
 C1698 C 0.10561 0.61092 0.74375
 H1699 H 0.08291 0.63814 0.73661
 H1700 H 0.11318 0.61864 0.75813
 H1701 H 0.05439 0.64062 0.70648
 H1702 H 0.04794 0.58841 0.66068
 H1703 H 0.13266 0.53166 0.72366
 H1704 H 0.13762 0.58701 0.76563
 H1705 H 0.07847 0.56803 0.68057
 H1706 H 0.10394 0.55035 0.70026
 C1707 C 0.08123 0.41030 0.28915
 C1708 C 0.07955 0.38780 0.28575
 C1709 C 0.06388 0.37527 0.29875
 C1710 C 0.05018 0.38468 0.31558
 C1711 C 0.05265 0.40680 0.31956
 C1712 C 0.06788 0.41950 0.30648
 C1713 C 0.09725 0.42324 0.27417
 C1714 C 0.09860 0.44591 0.27489
 C1715 C 0.11363 0.45719 0.26038
 C1716 C 0.12788 0.44616 0.24501
 C1717 C 0.12659 0.42364 0.24405
 C1718 C 0.11117 0.41217 0.25822
 C1719 C 0.09354 0.37790 0.26946
 C1720 C 0.10928 0.38977 0.25621
 H1721 H 0.09242 0.36064 0.26700
 H1722 H 0.11983 0.38132 0.24393
 H1723 H 0.06241 0.35811 0.29578
 H1724 H 0.04234 0.41441 0.33252
 H1725 H 0.11437 0.47459 0.26134
 H1726 H 0.13721 0.41508 0.23189
 H1727 H 0.06894 0.43644 0.31022
 H1728 H 0.08801 0.45524 0.28634
   
