data_POSCAR
  _audit_creation_date              2014-09-24
  _audit_creation_method            'ToBaCCo'
  _symmetry_space_group_name_H-M    'P1'
  _symmetry_Int_Tables_number       1
  _symmetry_cell_setting            triclinic
  loop_
  _symmetry_equiv_pos_as_xyz
 x,y,z
_cell_length_a 71.1566
_cell_length_b 71.1398
_cell_length_c 71.1509
_cell_angle_alpha 89.964600
_cell_angle_beta 90.011000
_cell_angle_gamma 90.049200
loop_
  _atom_site_label
  _atom_site_type_symbol
  _atom_site_fract_x
  _atom_site_fract_y
  _atom_site_fract_z
C1 C 0.09873 0.01636 0.22658
 H2 H 0.09826 0.02738 0.23705
 C3 C 0.08819 0.01804 0.21008
 H4 H 0.07947 0.03031 0.20785
 C5 C 0.11121 -0.01277 0.21628
 H6 H 0.12055 -0.02452 0.21848
 C7 C 0.10092 -0.01165 0.19962
 H8 H 0.10220 -0.02266 0.18918
 N9 N 0.10991 0.00110 0.22938
 C10 C 0.12058 -0.00228 0.28961
 H11 H 0.13576 -0.00308 0.28925
 C12 C 0.11114 -0.00331 0.30675
 H13 H 0.11905 -0.00485 0.31967
 C14 C 0.09170 0.00051 0.27317
 H15 H 0.08421 0.00176 0.26003
 C16 C 0.08168 -0.00047 0.29006
 H17 H 0.06648 0.00019 0.28992
 Zn18 Zn 0.12532 0.00053 0.25105
 N19 N 0.11082 -0.00021 0.27330
 C20 C 0.13901 0.03534 0.26473
 N21 N 0.14029 0.02252 0.25059
 C22 C 0.15108 0.02586 0.23515
 C23 C 0.16118 0.04265 0.23353
 C24 C 0.14888 0.05226 0.26368
 C25 C 0.13083 -0.03797 0.25298
 C26 C 0.14060 -0.05493 0.25354
 C27 C 0.16971 -0.03758 0.25055
 C28 C 0.15934 -0.02089 0.25005
 N29 N 0.14024 -0.02143 0.25108
 H30 H 0.12997 0.03270 0.27664
 H31 H 0.15154 0.01561 0.22393
 H32 H 0.16956 0.04532 0.22110
 H33 H 0.14758 0.06248 0.27489
 H34 H 0.11566 -0.03792 0.25404
 H35 H 0.13287 -0.06801 0.25497
 H36 H 0.18491 -0.03703 0.24966
 H37 H 0.16655 -0.00757 0.24896
 C38 C 0.09153 -0.00236 0.30698
 C39 C 0.08940 0.00393 0.19645
 C40 C 0.16022 -0.05477 0.25228
 C41 C 0.15997 0.05599 0.24791
 C42 C 0.40148 0.01448 0.77206
 H43 H 0.40214 0.02585 0.76197
 C44 C 0.41139 0.01578 0.78898
 H45 H 0.41983 0.02811 0.79191
 C46 C 0.38904 -0.01515 0.78102
 H47 H 0.37993 -0.02694 0.77814
 C48 C 0.39871 -0.01441 0.79806
 H49 H 0.39719 -0.02576 0.80811
 N50 N 0.39058 -0.00083 0.76841
 C51 C 0.38138 -0.00244 0.70785
 H52 H 0.36621 -0.00351 0.70788
 C53 C 0.39117 -0.00281 0.69090
 H54 H 0.38354 -0.00410 0.67778
 C55 C 0.40987 0.00035 0.72496
 H56 H 0.41708 0.00135 0.73829
 C57 C 0.42025 0.00003 0.70826
 H58 H 0.43544 0.00094 0.70872
 Zn59 Zn 0.37575 -0.00090 0.74632
 N60 N 0.39077 -0.00070 0.72441
 C61 C 0.36193 0.03409 0.73329
 N62 N 0.36045 0.02085 0.74704
 C63 C 0.34919 0.02357 0.76226
 C64 C 0.33878 0.04013 0.76403
 C65 C 0.35176 0.05081 0.73451
 C66 C 0.37091 -0.03939 0.74295
 C67 C 0.36145 -0.05652 0.74177
 C68 C 0.33202 -0.03986 0.74494
 C69 C 0.34206 -0.02298 0.74605
 N70 N 0.36118 -0.02310 0.74525
 H71 H 0.37133 0.03195 0.72158
 H72 H 0.34857 0.01299 0.77317
 H73 H 0.33001 0.04230 0.77628
 H74 H 0.35320 0.06136 0.72362
 H75 H 0.38609 -0.03902 0.74210
 H76 H 0.36934 -0.06943 0.74008
 H77 H 0.31682 -0.03974 0.74570
 H78 H 0.33459 -0.00985 0.74750
 C79 C 0.41076 -0.00153 0.69109
 C80 C 0.40988 0.00123 0.80213
 C81 C 0.34185 -0.05677 0.74283
 C82 C 0.34017 0.05390 0.75005
 C83 C 0.90095 0.51446 0.27263
 H84 H 0.90169 0.52588 0.26261
 C85 C 0.91096 0.51553 0.28951
 H86 H 0.91955 0.52776 0.29244
 C87 C 0.88825 0.48488 0.28141
 H88 H 0.87903 0.47320 0.27847
 C89 C 0.89802 0.48537 0.29841
 H90 H 0.89641 0.47393 0.30835
 N91 N 0.88989 0.49928 0.26891
 C92 C 0.88082 0.49815 0.20833
 H93 H 0.86564 0.49725 0.20828
 C94 C 0.89068 0.49777 0.19142
 H95 H 0.88311 0.49663 0.17826
 C96 C 0.90927 0.50052 0.22558
 H97 H 0.91642 0.50135 0.23894
 C98 C 0.91971 0.50018 0.20893
 H99 H 0.93490 0.50091 0.20947
 Zn100 Zn 0.87508 0.49951 0.24681
 N101 N 0.89016 0.49969 0.22495
 C102 C 0.86165 0.53473 0.23400
 N103 N 0.86002 0.52141 0.24765
 C104 C 0.84877 0.52413 0.26288
 C105 C 0.83853 0.54079 0.26476
 C106 C 0.85167 0.55155 0.23533
 C107 C 0.86981 0.46110 0.24323
 C108 C 0.86015 0.44410 0.24185
 C109 C 0.83090 0.46110 0.24489
 C110 C 0.84114 0.47784 0.24621
 N111 N 0.86026 0.47749 0.24556
 H112 H 0.87103 0.53257 0.22228
 H113 H 0.84803 0.51348 0.27371
 H114 H 0.82978 0.54297 0.27702
 H115 H 0.85323 0.56216 0.22452
 H116 H 0.88500 0.46128 0.24249
 H117 H 0.86790 0.43111 0.24012
 H118 H 0.81570 0.46141 0.24552
 H119 H 0.83382 0.49106 0.24768
 C120 C 0.91029 0.49882 0.19171
 C121 C 0.90938 0.50088 0.30256
 C122 C 0.84054 0.44409 0.24274
 C123 C 0.84010 0.55465 0.25089
 C124 C 0.59864 0.51722 0.72815
 H125 H 0.59794 0.52805 0.73880
 C126 C 0.58842 0.51917 0.71148
 H127 H 0.57970 0.53145 0.70930
 C128 C 0.61142 0.48832 0.71757
 H129 H 0.62077 0.47657 0.71973
 C130 C 0.60145 0.48971 0.70074
 H131 H 0.60297 0.47890 0.69013
 N132 N 0.60983 0.50195 0.73089
 C133 C 0.61980 0.49771 0.79119
 H134 H 0.63498 0.49708 0.79100
 C135 C 0.61017 0.49617 0.80819
 H136 H 0.61795 0.49444 0.82117
 C137 C 0.59107 0.50046 0.77447
 H138 H 0.58372 0.50185 0.76126
 C139 C 0.58087 0.49898 0.79122
 H140 H 0.56566 0.49941 0.79091
 Zn141 Zn 0.62495 0.50110 0.75275
 N142 N 0.61020 0.49997 0.77481
 C143 C 0.63846 0.53571 0.76707
 N144 N 0.63990 0.52309 0.75277
 C145 C 0.65087 0.52661 0.73750
 C146 C 0.66103 0.54338 0.73623
 C147 C 0.64839 0.55263 0.76636
 C148 C 0.63049 0.46260 0.75420
 C149 C 0.64029 0.44565 0.75473
 C150 C 0.66939 0.46306 0.75239
 C151 C 0.65902 0.47975 0.75191
 N152 N 0.63991 0.47918 0.75264
 H153 H 0.62929 0.53293 0.77883
 H154 H 0.65145 0.51650 0.72616
 H155 H 0.66957 0.54620 0.72394
 H156 H 0.64698 0.56270 0.77769
 H157 H 0.61531 0.46261 0.75504
 H158 H 0.63265 0.43252 0.75591
 H159 H 0.68460 0.46355 0.75177
 H160 H 0.66624 0.49308 0.75107
 C161 C 0.59055 0.49683 0.80821
 C162 C 0.58994 0.50531 0.69763
 C163 C 0.65990 0.44588 0.75379
 C164 C 0.65968 0.55654 0.75077
 C165 C 0.27066 0.09911 0.98692
 H166 H 0.26023 0.09852 0.97587
 C167 C 0.28716 0.08857 0.98543
 H168 H 0.28944 0.07972 0.97325
 C169 C 0.28086 0.11193 1.01596
 H170 H 0.27864 0.12141 1.02759
 C171 C 0.29751 0.10164 1.01502
 H172 H 0.30793 0.10306 1.02604
 N173 N 0.26782 0.11048 1.00203
 C174 C 0.20762 0.12127 1.00505
 H175 H 0.20795 0.13647 1.00548
 C176 C 0.19052 0.11180 1.00643
 H177 H 0.17758 0.11970 1.00782
 C178 C 0.22413 0.09237 1.00302
 H179 H 0.23728 0.08489 1.00197
 C180 C 0.20728 0.08233 1.00436
 H181 H 0.20746 0.06710 1.00416
 Zn182 Zn 0.24622 0.12596 1.00230
 N183 N 0.22395 0.11151 1.00323
 C184 C 0.23271 0.13926 0.96726
 N185 N 0.24683 0.14059 0.98011
 C186 C 0.26240 0.15117 0.97669
 C187 C 0.26420 0.16098 0.95976
 C188 C 0.23395 0.14884 0.95019
 C189 C 0.24419 0.13205 1.04068
 C190 C 0.24372 0.14206 1.05751
 C191 C 0.24709 0.17091 1.03977
 C192 C 0.24749 0.16030 1.02323
 N193 N 0.24624 0.14122 1.02402
 H194 H 0.22069 0.13040 0.96999
 H195 H 0.27358 0.15168 0.98699
 H196 H 0.27674 0.16918 0.95702
 H197 H 0.22277 0.14749 0.93993
 H198 H 0.24296 0.11690 1.04084
 H199 H 0.24218 0.13454 1.07068
 H200 H 0.24818 0.18609 1.03902
 H201 H 0.24872 0.16731 1.00982
 C202 C 0.19034 0.09216 1.00607
 C203 C 0.30073 0.08995 0.99958
 C204 C 0.24522 0.16167 1.05708
 C205 C 0.24988 0.15970 0.94636
 C206 C 0.72605 0.40016 0.98405
 H207 H 0.73632 0.40106 0.97287
 C208 C 0.70908 0.40994 0.98259
 H209 H 0.70628 0.41851 0.97032
 C210 C 0.71675 0.38731 1.01339
 H211 H 0.71953 0.37812 1.02513
 C212 C 0.69964 0.39684 1.01248
 H213 H 0.68943 0.39512 1.02365
 N214 N 0.72957 0.38914 0.99930
 C215 C 0.79021 0.38077 1.00190
 H216 H 0.79035 0.36560 1.00294
 C217 C 0.80705 0.39077 1.00250
 H218 H 0.82024 0.38330 1.00396
 C219 C 0.77282 0.40906 0.99888
 H220 H 0.75943 0.41610 0.99768
 C221 C 0.78941 0.41964 0.99943
 H222 H 0.78878 0.43482 0.99850
 Zn223 Zn 0.75186 0.37462 0.99959
 N224 N 0.77357 0.38996 0.99992
 C225 C 0.76569 0.36151 0.96469
 N226 N 0.75174 0.35958 0.97764
 C227 C 0.73679 0.34805 0.97447
 C228 C 0.73551 0.33784 0.95772
 C229 C 0.76497 0.35157 0.94781
 C230 C 0.75463 0.36929 1.03808
 C231 C 0.75583 0.35961 1.05508
 C232 C 0.75361 0.33034 1.03792
 C233 C 0.75246 0.34062 1.02119
 N234 N 0.75280 0.35975 1.02161
 H235 H 0.77719 0.37110 0.96717
 H236 H 0.72570 0.34707 0.98483
 H237 H 0.72348 0.32886 0.95519
 H238 H 0.77602 0.35337 0.93749
 H239 H 0.75514 0.38449 1.03794
 H240 H 0.75718 0.36743 1.06809
 H241 H 0.75325 0.31511 1.03745
 H242 H 0.75139 0.33332 1.00792
 C243 C 0.80666 0.41036 1.00120
 C244 C 0.69572 0.40816 0.99691
 C245 C 0.75527 0.33995 1.05503
 C246 C 0.74971 0.33972 0.94425
 C247 C 0.22850 0.90073 0.48463
 H248 H 0.23849 0.90167 0.47321
 C249 C 0.21161 0.91072 0.48374
 H250 H 0.20859 0.91948 0.47166
 C251 C 0.21982 0.88760 0.51403
 H252 H 0.22280 0.87822 0.52558
 C253 C 0.20280 0.89733 0.51370
 H254 H 0.19287 0.89557 0.52511
 N255 N 0.23229 0.88947 0.49964
 C256 C 0.29288 0.88068 0.50085
 H257 H 0.29299 0.86549 0.50160
 C258 C 0.30976 0.89062 0.50138
 H259 H 0.32295 0.88309 0.50248
 C260 C 0.27554 0.90907 0.49871
 H261 H 0.26215 0.91618 0.49789
 C262 C 0.29216 0.91959 0.49919
 H263 H 0.29156 0.93479 0.49860
 Zn264 Zn 0.25444 0.87477 0.49924
 N265 N 0.27624 0.88996 0.49935
 C266 C 0.26745 0.86203 0.46390
 N267 N 0.25374 0.86004 0.47709
 C268 C 0.23860 0.84872 0.47405
 C269 C 0.23689 0.83877 0.45719
 C270 C 0.26629 0.85234 0.44690
 C271 C 0.25808 0.86898 0.53755
 C272 C 0.25936 0.85912 0.55444
 C273 C 0.25614 0.83008 0.53710
 C274 C 0.25492 0.84052 0.52047
 N275 N 0.25569 0.85964 0.52105
 H276 H 0.27909 0.87146 0.46630
 H277 H 0.22771 0.84771 0.48461
 H278 H 0.22471 0.82996 0.45477
 H279 H 0.27716 0.85418 0.43639
 H280 H 0.25890 0.88417 0.53755
 H281 H 0.26111 0.86671 0.56752
 H282 H 0.25538 0.81488 0.53661
 H283 H 0.25339 0.83336 0.50717
 C284 C 0.30940 0.91024 0.50050
 C285 C 0.19862 0.90890 0.49839
 C286 C 0.25832 0.83951 0.55422
 C287 C 0.25084 0.84070 0.44347
 C288 C 0.77089 0.59788 0.48578
 H289 H 0.76033 0.59765 0.47484
 C290 C 0.78724 0.58719 0.48388
 H291 H 0.78928 0.57859 0.47149
 C292 C 0.78156 0.60998 0.51496
 H293 H 0.77957 0.61923 0.52681
 C294 C 0.79809 0.59952 0.51361
 H295 H 0.80865 0.60059 0.52454
 N296 N 0.76835 0.60897 0.50116
 C297 C 0.70831 0.62043 0.50479
 H298 H 0.70883 0.63562 0.50543
 C299 C 0.69110 0.61115 0.50614
 H300 H 0.67827 0.61918 0.50774
 C301 C 0.72445 0.59137 0.50224
 H302 H 0.73751 0.58375 0.50101
 C303 C 0.70749 0.58151 0.50355
 H304 H 0.70749 0.56629 0.50314
 Zn305 Zn 0.74695 0.62470 0.50189
 N306 N 0.72451 0.61050 0.50273
 C307 C 0.73337 0.63880 0.46717
 N308 N 0.74758 0.63970 0.47995
 C309 C 0.76327 0.65015 0.47663
 C310 C 0.76508 0.66029 0.45990
 C311 C 0.73461 0.64872 0.45028
 C312 C 0.74535 0.63027 0.54042
 C313 C 0.74496 0.64012 0.55735
 C314 C 0.74822 0.66912 0.53992
 C315 C 0.74855 0.65871 0.52326
 N316 N 0.74729 0.63962 0.52384
 H317 H 0.72126 0.63004 0.46980
 H318 H 0.77451 0.65031 0.48686
 H319 H 0.77770 0.66839 0.45725
 H320 H 0.72335 0.64773 0.44008
 H321 H 0.74409 0.61512 0.54042
 H322 H 0.74348 0.63254 0.57048
 H323 H 0.74926 0.68431 0.53942
 H324 H 0.74967 0.66588 0.50992
 C325 C 0.69069 0.59152 0.50552
 C326 C 0.80100 0.58812 0.49788
 C327 C 0.74643 0.65970 0.55710
 C328 C 0.75065 0.65946 0.44657
 C329 C 0.01608 0.22722 0.09822
 H330 H 0.02729 0.23747 0.09740
 C331 C 0.01755 0.21024 0.08844
 H332 H 0.02986 0.20742 0.07995
 C333 C -0.01334 0.21794 0.11088
 H334 H -0.02513 0.22073 0.12001
 C335 C -0.01243 0.20083 0.10134
 H336 H -0.02363 0.19063 0.10299
 N337 N 0.00078 0.23074 0.10915
 C338 C -0.00154 0.29138 0.11770
 H339 H -0.00254 0.29148 0.13287
 C340 C -0.00221 0.30825 0.10774
 H341 H -0.00367 0.32140 0.11530
 C342 C 0.00133 0.27405 0.08937
 H343 H 0.00245 0.26066 0.08229
 C344 C 0.00072 0.29065 0.07882
 H345 H 0.00153 0.29000 0.06363
 Zn346 Zn 0.00044 0.25301 0.12373
 N347 N 0.00037 0.27476 0.10846
 C348 C 0.03531 0.26658 0.13734
 N349 N 0.02220 0.25273 0.13907
 C350 C 0.02507 0.23773 0.15061
 C351 C 0.04165 0.23630 0.16106
 C352 C 0.05204 0.26570 0.14753
 C353 C -0.03807 0.25592 0.12847
 C354 C -0.05521 0.25715 0.13788
 C355 C -0.03855 0.25481 0.16740
 C356 C -0.02165 0.25363 0.15741
 N357 N -0.02177 0.25400 0.13828
 H358 H 0.03306 0.27810 0.12773
 H359 H 0.01460 0.22673 0.15143
 H360 H 0.04394 0.22423 0.17005
 H361 H 0.06248 0.27667 0.14589
 H362 H -0.03770 0.25646 0.11328
 H363 H -0.06812 0.25856 0.12993
 H364 H -0.03842 0.25442 0.18262
 H365 H -0.00852 0.25250 0.16494
 C366 C -0.00105 0.30790 0.08813
 C367 C 0.00320 0.19689 0.09012
 C368 C -0.05546 0.25654 0.15750
 C369 C 0.05529 0.25039 0.15941
 C370 C 0.01605 0.77202 0.40093
 H371 H 0.02723 0.76173 0.40138
 C372 C 0.01751 0.78857 0.41141
 H373 H 0.02979 0.79102 0.42008
 C374 C -0.01331 0.78181 0.38854
 H375 H -0.02506 0.77940 0.37926
 C376 C -0.01241 0.79851 0.39879
 H377 H -0.02359 0.80876 0.39753
 N378 N 0.00078 0.76894 0.38982
 C379 C -0.00182 0.70860 0.37954
 H380 H -0.00249 0.70881 0.36435
 C381 C -0.00296 0.69155 0.38916
 H382 H -0.00442 0.67855 0.38137
 C383 C 0.00050 0.72534 0.40829
 H384 H 0.00153 0.73856 0.41566
 C385 C -0.00060 0.70855 0.41847
 H386 H -0.00023 0.70885 0.43369
 Zn387 Zn 0.00040 0.74719 0.37452
 N388 N 0.00002 0.72502 0.38916
 C389 C 0.03526 0.73395 0.36050
 N390 N 0.02224 0.74791 0.35936
 C391 C 0.02521 0.76339 0.34850
 C392 C 0.04182 0.76523 0.33818
 C393 C 0.05203 0.73523 0.35040
 C394 C -0.03810 0.74467 0.36932
 C395 C -0.05516 0.74392 0.35970
 C396 C -0.03815 0.74719 0.33044
 C397 C -0.02136 0.74787 0.34066
 N398 N -0.02169 0.74681 0.35976
 H399 H 0.03290 0.72201 0.36958
 H400 H 0.01480 0.77446 0.34815
 H401 H 0.04419 0.77769 0.32974
 H402 H 0.06241 0.72416 0.35157
 H403 H -0.03789 0.74360 0.38448
 H404 H -0.06813 0.74233 0.36754
 H405 H -0.03776 0.74813 0.31523
 H406 H -0.00813 0.74916 0.33332
 C407 C -0.00235 0.69152 0.40879
 C408 C 0.00317 0.80195 0.41025
 C409 C -0.05521 0.74524 0.34008
 C410 C 0.05538 0.75105 0.33923
 C411 C 0.51690 0.27339 0.90057
 H412 H 0.52798 0.26300 0.90114
 C413 C 0.51861 0.29011 0.91076
 H414 H 0.53096 0.29259 0.91930
 C415 C 0.48758 0.28328 0.88818
 H416 H 0.47575 0.28084 0.87900
 C417 C 0.48872 0.30014 0.89813
 H418 H 0.47764 0.31049 0.89675
 N419 N 0.50154 0.27029 0.88959
 C420 C 0.49836 0.20986 0.88008
 H421 H 0.49766 0.20990 0.86490
 C422 C 0.49711 0.19293 0.88990
 H423 H 0.49553 0.17985 0.88227
 C424 C 0.50093 0.22691 0.90862
 H425 H 0.50211 0.24022 0.91584
 C426 C 0.49972 0.21025 0.91901
 H427 H 0.50015 0.21073 0.93422
 Zn428 Zn 0.50091 0.24836 0.87459
 N429 N 0.50037 0.22637 0.88950
 C430 C 0.53563 0.23464 0.86067
 N431 N 0.52272 0.24870 0.85940
 C432 C 0.52581 0.26405 0.84838
 C433 C 0.54243 0.26566 0.83804
 C434 C 0.55240 0.23569 0.85056
 C435 C 0.46237 0.24614 0.86944
 C436 C 0.44533 0.24532 0.85981
 C437 C 0.46236 0.24795 0.83053
 C438 C 0.47915 0.24872 0.84074
 N439 N 0.47881 0.24798 0.85986
 H440 H 0.53318 0.22282 0.86987
 H441 H 0.51549 0.27520 0.84793
 H442 H 0.54490 0.27802 0.82949
 H443 H 0.56270 0.22455 0.85184
 H444 H 0.46256 0.24531 0.88462
 H445 H 0.43230 0.24393 0.86758
 H446 H 0.46267 0.24859 0.81532
 H447 H 0.49239 0.24978 0.83338
 C448 C 0.49779 0.19313 0.90952
 C449 C 0.50440 0.30362 0.90943
 C450 C 0.44531 0.24627 0.84020
 C451 C 0.55588 0.25138 0.83924
 C452 C 0.51707 0.72740 0.59947
 H453 H 0.52831 0.73762 0.59865
 C454 C 0.51849 0.71043 0.58966
 H455 H 0.53078 0.70759 0.58115
 C456 C 0.48763 0.71819 0.61214
 H457 H 0.47587 0.72100 0.62128
 C458 C 0.48848 0.70110 0.60258
 H459 H 0.47726 0.69093 0.60422
 N460 N 0.50180 0.73096 0.61041
 C461 C 0.49957 0.79160 0.61889
 H462 H 0.49854 0.79174 0.63406
 C463 C 0.49901 0.80844 0.60888
 H464 H 0.49761 0.82163 0.61635
 C465 C 0.50243 0.77418 0.59061
 H466 H 0.50351 0.76078 0.58356
 C467 C 0.50192 0.79076 0.58002
 H468 H 0.50277 0.79012 0.56484
 Zn469 Zn 0.50151 0.75321 0.62499
 N470 N 0.50144 0.77494 0.60970
 C471 C 0.53637 0.76678 0.63862
 N472 N 0.52329 0.75290 0.64028
 C473 C 0.52618 0.73785 0.65174
 C474 C 0.54277 0.73639 0.66217
 C475 C 0.55310 0.76587 0.64880
 C476 C 0.46300 0.75615 0.62986
 C477 C 0.44588 0.75722 0.63933
 C478 C 0.46265 0.75469 0.66878
 C479 C 0.47952 0.75368 0.65872
 N480 N 0.47934 0.75420 0.63960
 H481 H 0.53409 0.77835 0.62907
 H482 H 0.51573 0.72682 0.65250
 H483 H 0.54509 0.72427 0.67110
 H484 H 0.56353 0.77687 0.64722
 H485 H 0.46331 0.75680 0.61467
 H486 H 0.43294 0.75863 0.63144
 H487 H 0.46283 0.75415 0.68399
 H488 H 0.49268 0.75252 0.66620
 C489 C 0.50023 0.80802 0.58929
 C490 C 0.50409 0.69713 0.59134
 C491 C 0.44570 0.75642 0.65895
 C492 C 0.55638 0.75051 0.66060
 C493 C 0.90355 0.98647 0.72596
 H494 H 0.90472 0.97528 0.73620
 C495 C 0.91356 0.98578 0.71001
 H496 H 0.92288 0.97405 0.70738
 C497 C 0.88906 1.01548 0.71724
 H498 H 0.87919 1.02670 0.71969
 C499 C 0.89983 1.01534 0.69957
 H500 H 0.89789 1.02668 0.68957
 N501 N 0.89105 1.00199 0.72949
 C502 C 0.88044 1.00602 0.79081
 H503 H 0.86536 1.00788 0.79033
 C504 C 0.88937 1.00586 0.80732
 H505 H 0.88151 1.00765 0.82023
 C506 C 0.90893 1.00150 0.77358
 H507 H 0.91640 0.99965 0.76051
 C508 C 0.91940 1.00123 0.79154
 H509 H 0.93448 0.99908 0.79139
 Zn510 Zn 0.87595 1.00205 0.75150
 N511 N 0.89070 1.00332 0.77360
 C512 C 0.86367 0.96751 0.76667
 N513 N 0.86166 0.97951 0.75189
 C514 C 0.85041 0.97511 0.73705
 C515 C 0.84040 0.95815 0.73688
 C516 C 0.85395 0.95050 0.76706
 C517 C 0.86931 1.04036 0.75357
 C518 C 0.85930 1.05717 0.75253
 C519 C 0.83084 1.03925 0.74761
 C520 C 0.84142 1.02271 0.74875
 N521 N 0.86036 1.02361 0.75133
 H522 H 0.87304 0.97092 0.77810
 H523 H 0.84935 0.98469 0.72528
 H524 H 0.83151 0.95469 0.72501
 H525 H 0.85573 0.94103 0.77887
 H526 H 0.88436 1.04064 0.75572
 H527 H 0.86663 1.07045 0.75394
 H528 H 0.81583 1.03851 0.74519
 H529 H 0.83454 1.00926 0.74728
 C530 C 0.90993 1.00306 0.80774
 C531 C 0.91155 1.00106 0.69603
 C532 C 0.83994 1.05662 0.74931
 C533 C 0.84222 0.94576 0.75206
 C534 C 0.40120 0.48670 0.22807
 H535 H 0.40202 0.47557 0.23841
 C536 C 0.41189 0.48564 0.21159
 H537 H 0.42107 0.47373 0.20925
 C538 C 0.38782 0.51554 0.21808
 H539 H 0.37813 0.52697 0.22035
 C540 C 0.39822 0.51503 0.20148
 H541 H 0.39664 0.52617 0.19121
 N542 N 0.38955 0.50158 0.23106
 C543 C 0.37922 0.50630 0.29136
 H544 H 0.36414 0.50815 0.29088
 C545 C 0.38852 0.50620 0.30861
 H546 H 0.38060 0.50803 0.32148
 C547 C 0.40792 0.50125 0.27517
 H548 H 0.41540 0.49929 0.26211
 C549 C 0.41779 0.50103 0.29218
 H550 H 0.43285 0.49882 0.29220
 Zn551 Zn 0.37429 0.50216 0.25293
 N552 N 0.38892 0.50347 0.27513
 C553 C 0.36144 0.46787 0.26828
 N554 N 0.35969 0.47982 0.25343
 C555 C 0.34856 0.47545 0.23849
 C556 C 0.33845 0.45856 0.23825
 C557 C 0.35160 0.45091 0.26861
 C558 C 0.36816 0.54062 0.25431
 C559 C 0.35832 0.55751 0.25315
 C560 C 0.32964 0.53985 0.24866
 C561 C 0.34004 0.52321 0.24992
 N562 N 0.35901 0.52393 0.25236
 H563 H 0.37073 0.47122 0.27979
 H564 H 0.34770 0.48500 0.22668
 H565 H 0.32970 0.45511 0.22629
 H566 H 0.35321 0.44146 0.28045
 H567 H 0.38322 0.54075 0.25639
 H568 H 0.36579 0.57073 0.25438
 H569 H 0.31459 0.53923 0.24640
 H570 H 0.33300 0.50981 0.24870
 C571 C 0.40793 0.50330 0.30905
 C572 C 0.41034 0.49996 0.19818
 C573 C 0.33892 0.55714 0.25011
 C574 C 0.34004 0.44619 0.25347
 C575 C 0.59942 0.98625 0.27357
 H576 H 0.59771 0.97462 0.26392
 C577 C 0.59014 0.98637 0.28996
 H578 H 0.58084 0.97485 0.29354
 C579 C 0.61452 1.01551 0.28025
 H580 H 0.62434 1.02654 0.27683
 C581 C 0.60456 1.01626 0.29838
 H582 H 0.60701 1.02803 0.30774
 N583 N 0.61184 1.00151 0.26874
 C584 C 0.61826 1.00198 0.20770
 H585 H 0.63338 1.00338 0.20700
 C586 C 0.60774 1.00109 0.19118
 H587 H 0.61477 1.00184 0.17769
 C588 C 0.59064 0.99900 0.22615
 H589 H 0.58405 0.99823 0.23980
 C590 C 0.57957 0.99804 0.20992
 H591 H 0.56448 0.99645 0.21110
 Zn592 Zn 0.62570 1.00050 0.24596
 N593 N 0.60966 1.00057 0.22472
 C594 C 0.63744 0.96515 0.23218
 N595 N 0.64009 0.97805 0.24606
 C596 C 0.65218 0.97469 0.26051
 C597 C 0.66247 0.95794 0.26114
 C598 C 0.64741 0.94828 0.23228
 C599 C 0.63214 1.03877 0.24191
 C600 C 0.64219 1.05560 0.24191
 C601 C 0.67089 1.03782 0.24571
 C602 C 0.66027 1.02126 0.24562
 N603 N 0.64120 1.02209 0.24417
 H604 H 0.62741 0.96773 0.22111
 H605 H 0.65375 0.98498 0.27159
 H606 H 0.67206 0.95534 0.27267
 H607 H 0.64515 0.93810 0.22118
 H608 H 0.61699 1.03898 0.24065
 H609 H 0.63474 1.06882 0.24060
 H610 H 0.68602 1.03709 0.24733
 H611 H 0.66723 1.00786 0.24709
 C612 C 0.58826 0.99889 0.19229
 C613 C 0.59287 1.00227 0.30309
 C614 C 0.66172 1.05515 0.24410
 C615 C 0.66003 0.94464 0.24686
 C616 C 0.09888 0.48612 0.77297
 H617 H 0.09730 0.47434 0.76349
 C618 C 0.08904 0.48641 0.79000
 H619 H 0.07977 0.47489 0.79363
 C620 C 0.11327 0.51531 0.78020
 H621 H 0.12302 0.52637 0.77664
 C622 C 0.10373 0.51616 0.79729
 H623 H 0.10602 0.52795 0.80665
 N624 N 0.11060 0.50054 0.76833
 C625 C 0.11731 0.50087 0.70730
 H626 H 0.13244 0.50231 0.70668
 C627 C 0.10690 0.49987 0.69072
 H628 H 0.11400 0.50060 0.67727
 C629 C 0.08960 0.49783 0.72559
 H630 H 0.08293 0.49705 0.73920
 C631 C 0.07863 0.49676 0.70930
 H632 H 0.06354 0.49510 0.71040
 Zn633 Zn 0.12456 0.49943 0.74562
 N634 N 0.10863 0.49946 0.72428
 C635 C 0.13631 0.46405 0.73195
 N636 N 0.13892 0.47695 0.74584
 C637 C 0.15091 0.47354 0.76036
 C638 C 0.16112 0.45674 0.76107
 C639 C 0.14620 0.44714 0.73212
 C640 C 0.13107 0.53767 0.74143
 C641 C 0.14113 0.55450 0.74146
 C642 C 0.16976 0.53673 0.74571
 C643 C 0.15913 0.52018 0.74558
 N644 N 0.14009 0.52099 0.74389
 H645 H 0.12635 0.46666 0.72082
 H646 H 0.15245 0.48382 0.77145
 H647 H 0.17062 0.45410 0.77266
 H648 H 0.14396 0.43697 0.72101
 H649 H 0.11593 0.53789 0.73999
 H650 H 0.13375 0.56773 0.74000
 H651 H 0.18486 0.53606 0.74753
 H652 H 0.16607 0.50679 0.74723
 C653 C 0.08742 0.49758 0.69172
 C654 C 0.09151 0.50160 0.80225
 C655 C 0.16061 0.55405 0.74389
 C656 C 0.15871 0.44344 0.74678
 C657 C 0.77105 0.90224 0.01642
 H658 H 0.76092 0.90306 0.02772
 C659 C 0.78754 0.91296 0.01719
 H660 H 0.79010 0.92214 0.02906
 C661 C 0.78051 0.88889 -0.01261
 H662 H 0.77803 0.87922 -0.02401
 C663 C 0.79710 0.89933 -0.01239
 H664 H 0.80716 0.89777 -0.02371
 N665 N 0.76779 0.89060 0.00158
 C666 C 0.70742 0.88040 -0.00234
 H667 H 0.70779 0.86531 -0.00413
 C668 C 0.69024 0.88979 -0.00212
 H669 H 0.67729 0.88193 -0.00380
 C670 C 0.72384 0.90906 0.00238
 H671 H 0.73696 0.91649 0.00413
 C672 C 0.70690 0.91902 0.00270
 H673 H 0.70699 0.93410 0.00478
 Zn674 Zn 0.74589 0.87536 0.00131
 N675 N 0.72374 0.89004 0.00026
 C676 C 0.73098 0.86256 0.03579
 N677 N 0.74566 0.86078 0.02365
 C678 C 0.76063 0.84962 0.02783
 C679 C 0.76104 0.83948 0.04470
 C680 C 0.73083 0.85270 0.05273
 C681 C 0.74390 0.86924 -0.03711
 C682 C 0.74500 0.85945 -0.05404
 C683 C 0.75001 0.83078 -0.03649
 C684 C 0.74880 0.84114 -0.01982
 N685 N 0.74615 0.86008 -0.02047
 H686 H 0.71946 0.87187 0.03258
 H687 H 0.77232 0.84876 0.01815
 H688 H 0.77303 0.83070 0.04800
 H689 H 0.71911 0.85431 0.06232
 H690 H 0.74168 0.88428 -0.03719
 H691 H 0.74358 0.86694 -0.06723
 H692 H 0.75248 0.81577 -0.03594
 H693 H 0.75027 0.83408 -0.00646
 C694 C 0.68995 0.90923 0.00065
 C695 C 0.80067 0.91145 0.00263
 C696 C 0.74830 0.84009 -0.05375
 C697 C 0.74598 0.84109 0.05725
 C698 C 0.27119 0.40115 0.51623
 H699 H 0.26096 0.40180 0.52746
 C700 C 0.28764 0.41189 0.51727
 H701 H 0.29007 0.42094 0.52926
 C702 C 0.28093 0.38814 0.48714
 H703 H 0.27857 0.37858 0.47562
 C704 C 0.29749 0.39862 0.48762
 H705 H 0.30765 0.39722 0.47636
 N706 N 0.26808 0.38966 0.50124
 C707 C 0.20776 0.37939 0.49685
 H708 H 0.20816 0.36431 0.49493
 C709 C 0.19055 0.38874 0.49707
 H710 H 0.17763 0.38087 0.49529
 C711 C 0.22409 0.40803 0.50188
 H712 H 0.23719 0.41547 0.50376
 C713 C 0.20713 0.41796 0.50222
 H714 H 0.20719 0.43302 0.50443
 Zn715 Zn 0.24622 0.37438 0.50068
 N716 N 0.22404 0.38903 0.49961
 C717 C 0.23110 0.36122 0.53494
 N718 N 0.24588 0.35961 0.52289
 C719 C 0.26085 0.34846 0.52707
 C720 C 0.26119 0.33816 0.54384
 C721 C 0.23087 0.35118 0.55178
 C722 C 0.24456 0.36849 0.46218
 C723 C 0.24559 0.35873 0.44522
 C724 C 0.25017 0.32995 0.46270
 C725 C 0.24904 0.34027 0.47940
 N726 N 0.24662 0.35925 0.47880
 H727 H 0.21957 0.37052 0.53175
 H728 H 0.27261 0.34773 0.51746
 H729 H 0.27318 0.32939 0.54713
 H730 H 0.21908 0.35266 0.56130
 H731 H 0.24249 0.38355 0.46214
 H732 H 0.24429 0.36628 0.43205
 H733 H 0.25243 0.31490 0.46322
 H734 H 0.25034 0.33316 0.49274
 C735 C 0.19021 0.40815 0.50002
 C736 C 0.30090 0.41057 0.50280
 C737 C 0.24862 0.33933 0.44547
 C738 C 0.24603 0.33958 0.55629
 C739 C 0.22499 0.59816 0.01220
 H740 H 0.23470 0.59650 0.02378
 C741 C 0.20804 0.58815 0.01207
 H742 H 0.20475 0.57869 0.02355
 C743 C 0.21711 0.61285 -0.01666
 H744 H 0.22040 0.62278 -0.02765
 C745 C 0.20008 0.60317 -0.01735
 H746 H 0.19054 0.60555 -0.02898
 N747 N 0.22928 0.61008 -0.00215
 C748 C 0.29025 0.61703 -0.00349
 H749 H 0.29079 0.63217 -0.00483
 C750 C 0.30688 0.60669 -0.00290
 H751 H 0.32029 0.61387 -0.00381
 C752 C 0.27213 0.58919 -0.00035
 H753 H 0.25856 0.58245 0.00060
 C754 C 0.28848 0.57830 0.00031
 H755 H 0.28747 0.56318 0.00187
 Zn756 Zn 0.25198 0.62411 -0.00139
 N757 N 0.27334 0.60824 -0.00184
 C758 C 0.26630 0.63591 0.03373
 N759 N 0.25217 0.63848 0.02108
 C760 C 0.23777 0.65055 0.02466
 C761 C 0.23748 0.66093 0.04136
 C762 C 0.26654 0.64598 0.05053
 C763 C 0.25541 0.63061 -0.03968
 C764 C 0.25525 0.64069 -0.05649
 C765 C 0.25170 0.66937 -0.03864
 C766 C 0.25193 0.65872 -0.02210
 N767 N 0.25335 0.63966 -0.02296
 H768 H 0.27733 0.62589 0.03099
 H769 H 0.22650 0.65205 0.01457
 H770 H 0.22600 0.67054 0.04413
 H771 H 0.27786 0.64382 0.06050
 H772 H 0.25666 0.61546 -0.03993
 H773 H 0.25643 0.63331 -0.06975
 H774 H 0.25013 0.68450 -0.03793
 H775 H 0.25063 0.66568 -0.00868
 C776 C 0.30600 0.58718 -0.00076
 C777 C 0.19549 0.59069 -0.00288
 C778 C 0.25313 0.66021 -0.05598
 C779 C 0.25204 0.65863 0.05438
 C780 C 0.72810 0.09992 0.51171
 H781 H 0.73772 0.09838 0.52338
 C782 C 0.71106 0.09008 0.51164
 H783 H 0.70756 0.08084 0.52323
 C784 C 0.72051 0.11423 0.48257
 H785 H 0.72394 0.12395 0.47144
 C786 C 0.70341 0.10468 0.48195
 H787 H 0.69391 0.10694 0.47026
 N788 N 0.73256 0.11160 0.49721
 C789 C 0.79357 0.11835 0.49622
 H790 H 0.79417 0.13347 0.49468
 C791 C 0.81015 0.10796 0.49715
 H792 H 0.82359 0.11507 0.49628
 C793 C 0.77530 0.09063 0.49958
 H794 H 0.76170 0.08396 0.50051
 C795 C 0.79160 0.07969 0.50059
 H796 H 0.79051 0.06460 0.50237
 Zn797 Zn 0.75529 0.12557 0.49801
 N798 N 0.77661 0.10965 0.49783
 C799 C 0.76934 0.13752 0.53319
 N800 N 0.75531 0.14004 0.52042
 C801 C 0.74080 0.15201 0.52391
 C802 C 0.74025 0.16228 0.54067
 C803 C 0.76932 0.14749 0.55006
 C804 C 0.75902 0.13190 0.45970
 C805 C 0.75875 0.14188 0.44283
 C806 C 0.75475 0.17060 0.46051
 C807 C 0.75511 0.16006 0.47711
 N808 N 0.75678 0.14101 0.47636
 H809 H 0.78046 0.12758 0.53052
 H810 H 0.72961 0.15346 0.51372
 H811 H 0.72866 0.17176 0.54338
 H812 H 0.78053 0.14533 0.56014
 H813 H 0.76044 0.11676 0.45954
 H814 H 0.76002 0.13443 0.42962
 H815 H 0.75294 0.18571 0.46113
 H816 H 0.75364 0.16707 0.49049
 C817 C 0.80917 0.08849 0.49958
 C818 C 0.69863 0.09250 0.49659
 C819 C 0.75632 0.16136 0.44322
 C820 C 0.75467 0.15998 0.55384
 C821 C 0.98787 0.72584 0.90220
 H822 H 0.97634 0.73559 0.90391
 C823 C 0.98783 0.70943 0.91148
 H824 H 0.97627 0.70594 0.92076
 C825 C 1.01705 0.71888 0.88713
 H826 H 1.02811 0.72222 0.87732
 C827 C 1.01762 0.70074 0.89710
 H828 H 1.02931 0.69127 0.89466
 N829 N 1.00316 0.73052 0.88979
 C830 C 1.00476 0.79252 0.88273
 H831 H 1.00639 0.79310 0.86762
 C832 C 1.00405 0.80840 0.89272
 H833 H 1.00514 0.82187 0.88568
 C834 C 1.00151 0.77330 0.91012
 H835 H 1.00038 0.75971 0.91677
 C836 C 1.00065 0.79051 0.92174
 H837 H 0.99880 0.78929 0.93681
 Zn838 Zn 1.00233 0.75332 0.87590
 N839 N 1.00298 0.77458 0.89190
 C840 C 0.96717 0.76786 0.86456
 N841 N 0.97965 0.75362 0.86187
 C842 C 0.97570 0.73913 0.85000
 C843 C 0.95875 0.73882 0.84002
 C844 C 0.95012 0.76809 0.85489
 C845 C 1.04054 0.75693 0.86874
 C846 C 1.05715 0.75669 0.85834
 C847 C 1.03875 0.75282 0.83005
 C848 C 1.02243 0.75314 0.84099
 N849 N 1.02365 0.75475 0.86002
 H850 H 0.97022 0.77898 0.87440
 H851 H 0.98567 0.72778 0.84840
 H852 H 0.95567 0.72724 0.83063
 H853 H 0.94027 0.77946 0.85719
 H854 H 1.04108 0.75831 0.88387
 H855 H 1.07055 0.75795 0.86547
 H856 H 1.03775 0.75107 0.81496
 H857 H 1.00888 0.75173 0.83431
 C858 C 1.00160 0.80736 0.91331
 C859 C 1.00359 0.69615 0.90877
 C860 C 1.05627 0.75436 0.83886
 C861 C 0.94587 0.75346 0.84251
 C862 C 0.48790 0.22673 0.40034
 H863 H 0.47623 0.23632 0.40206
 C864 C 0.48815 0.20969 0.41018
 H865 H 0.47670 0.20615 0.41958
 C866 C 0.51687 0.21927 0.38568
 H867 H 0.52787 0.22277 0.37585
 C868 C 0.51766 0.20216 0.39521
 H869 H 0.52936 0.19272 0.39282
 N870 N 0.50225 0.23127 0.38851
 C871 C 0.50329 0.29238 0.38251
 H872 H 0.50457 0.29322 0.36738
 C873 C 0.50255 0.30880 0.39318
 H874 H 0.50330 0.32236 0.38627
 C875 C 0.50039 0.27367 0.40997
 H876 H 0.49956 0.25997 0.41645
 C877 C 0.49958 0.28980 0.42119
 H878 H 0.49804 0.28847 0.43628
 Zn879 Zn 0.50130 0.25414 0.37477
 N880 N 0.50181 0.27527 0.39095
 C881 C 0.46597 0.26843 0.36352
 N882 N 0.47863 0.25437 0.36067
 C883 C 0.47486 0.23998 0.34864
 C884 C 0.45791 0.23956 0.33866
 C885 C 0.44893 0.26856 0.35384
 C886 C 0.53951 0.25790 0.36784
 C887 C 0.55621 0.25763 0.35758
 C888 C 0.53804 0.25374 0.32915
 C889 C 0.52162 0.25409 0.33996
 N890 N 0.52269 0.25571 0.35900
 H891 H 0.46888 0.27946 0.37351
 H892 H 0.48496 0.22875 0.34693
 H893 H 0.45497 0.22805 0.32914
 H894 H 0.43894 0.27978 0.35628
 H895 H 0.53994 0.25927 0.38298
 H896 H 0.56955 0.25887 0.36482
 H897 H 0.53715 0.25196 0.31405
 H898 H 0.50812 0.25266 0.33317
 C899 C 0.50044 0.30750 0.41266
 C900 C 0.50321 0.19732 0.40758
 C901 C 0.55549 0.25526 0.33810
 C902 C 0.44485 0.25402 0.34131
 C903 C 0.98676 0.27272 0.59799
 H904 H 0.97545 0.26258 0.59710
 C905 C 0.98597 0.28930 0.58741
 H906 H 0.97407 0.29188 0.57827
 C907 C 1.01577 0.28211 0.61144
 H908 H 1.02716 0.27957 0.62112
 C909 C 1.01556 0.29880 0.60115
 H910 H 1.02690 0.30884 0.60284
 N911 N 1.00158 0.26939 0.60964
 C912 C 1.00525 0.20897 0.61992
 H913 H 1.00703 0.20940 0.63501
 C914 C 1.00494 0.19173 0.61061
 H915 H 1.00655 0.17882 0.61854
 C916 C 1.00057 0.22527 0.59119
 H917 H 0.99885 0.23837 0.58371
 C918 C 1.00017 0.20827 0.58131
 H919 H 0.99807 0.20830 0.56623
 Zn920 Zn 1.00173 0.24746 0.62486
 N921 N 1.00271 0.22526 0.61021
 C922 C 0.96714 0.23263 0.63752
 N923 N 0.97933 0.24729 0.63937
 C924 C 0.97517 0.26224 0.65055
 C925 C 0.95828 0.26267 0.66064
 C926 C 0.95018 0.23250 0.64733
 C927 C 1.04014 0.24540 0.63119
 C928 C 1.05702 0.24630 0.64111
 C929 C 1.03931 0.25109 0.66971
 C930 C 1.02270 0.25009 0.65921
 N931 N 1.02345 0.24763 0.64025
 H932 H 0.97033 0.22113 0.62818
 H933 H 0.98488 0.27391 0.65148
 H934 H 0.95501 0.27464 0.66945
 H935 H 0.94056 0.22081 0.64565
 H936 H 1.04030 0.24331 0.61613
 H937 H 1.07022 0.24484 0.63365
 H938 H 1.03863 0.25338 0.68475
 H939 H 1.00931 0.25154 0.66619
 C940 C 1.00216 0.19136 0.59118
 C941 C 1.00052 0.30247 0.58906
 C942 C 1.05663 0.24937 0.66052
 C943 C 0.94568 0.24764 0.65897
 C944 C 0.48685 0.77348 0.09890
 H945 H 0.47558 0.76331 0.09791
 C946 C 0.48612 0.79006 0.08833
 H947 H 0.47431 0.79265 0.07907
 C948 C 0.51574 0.78293 0.11259
 H949 H 0.52707 0.78040 0.12234
 C950 C 0.51556 0.79962 0.10229
 H951 H 0.52685 0.80970 0.10402
 N952 N 0.50160 0.77017 0.11065
 C953 C 0.50559 0.70969 0.12037
 H954 H 0.50723 0.70993 0.13548
 C955 C 0.50550 0.69257 0.11083
 H956 H 0.50713 0.67957 0.11860
 C957 C 0.50106 0.72632 0.09181
 H958 H 0.49932 0.73950 0.08448
 C959 C 0.50087 0.70946 0.08171
 H960 H 0.49889 0.70967 0.06662
 Zn961 Zn 0.50174 0.74812 0.12571
 N962 N 0.50302 0.72608 0.11085
 C963 C 0.46713 0.73297 0.13789
 N964 N 0.47919 0.74769 0.13997
 C965 C 0.47479 0.76256 0.15117
 C966 C 0.45775 0.76286 0.16100
 C967 C 0.45003 0.73270 0.14745
 C968 C 0.54009 0.74619 0.13238
 C969 C 0.55687 0.74704 0.14246
 C970 C 0.53891 0.75157 0.17093
 C971 C 0.52239 0.75062 0.16028
 N972 N 0.52331 0.74830 0.14131
 H973 H 0.47052 0.72152 0.12856
 H974 H 0.48442 0.77429 0.15228
 H975 H 0.45427 0.77478 0.16980
 H976 H 0.44049 0.72096 0.14558
 H977 H 0.54039 0.74422 0.11731
 H978 H 0.57016 0.74569 0.13516
 H979 H 0.53813 0.75374 0.18598
 H980 H 0.50893 0.75198 0.16715
 C981 C 0.50289 0.69243 0.09137
 C982 C 0.50063 0.80324 0.09008
 C983 C 0.55629 0.74995 0.16187
 C984 C 0.44526 0.74777 0.15906
 O985 O -0.01286 0.98755 0.95020
 O986 O 0.01917 0.99644 0.95029
 O987 O -0.01595 0.94737 0.99556
 O988 O -0.01069 0.94670 1.02639
 O989 O -0.05723 0.99256 0.99139
 O990 O -0.05639 1.02495 0.99869
 O991 O 0.03222 0.99795 1.04510
 O992 O 0.03364 0.96801 1.03273
 O993 O 0.03874 1.03566 1.00004
 O994 O 0.02588 1.03843 0.97029
 O995 O -0.00548 1.04341 1.03794
 O996 O -0.03616 1.02893 1.04275
 O997 O 0.00650 1.01394 1.05551
 O998 O -0.02769 1.00556 1.05578
 O999 O 0.00977 1.05349 1.01169
 O1000 O 0.00013 1.05237 0.97768
 O1001 O 0.04893 1.01007 1.01635
 O1002 O 0.04820 0.97772 1.00385
 O1003 O -0.03842 1.00393 0.96042
 O1004 O -0.04170 1.03424 0.97521
 O1005 O -0.04709 0.96662 1.00715
 O1006 O -0.03130 0.96453 1.03812
 O1007 O -0.00158 0.95743 0.96875
 O1008 O 0.03033 0.97162 0.96914
 Zr1009 Zr 0.00454 0.98587 0.97408
 O1010 O 0.02249 1.00325 0.98995
 Zr1011 Zr -0.01838 0.97168 1.01228
 O1012 O -0.00079 0.98789 1.02971
 Zr1013 Zr -0.03302 1.00940 0.98903
 O1014 O -0.01655 1.02735 1.00586
 Zr1015 Zr 0.02554 0.99196 1.01702
 O1016 O 0.00878 0.97354 1.00070
 Zr1017 Zr 0.01041 1.02975 0.99411
 O1018 O -0.00667 1.01325 0.97617
 Zr1019 Zr -0.01199 1.01508 1.03235
 O1020 O -0.03069 0.99826 1.01635
 O1021 O -0.02222 0.98252 0.98549
 O1022 O 0.01469 1.01890 1.02097
 C1023 C -0.02881 0.99557 0.94762
 C1024 C -0.00897 0.94465 0.97913
 C1025 C -0.05991 0.97654 0.99925
 C1026 C 0.02284 1.00662 1.05783
 C1027 C 0.05139 1.02629 1.00884
 C1028 C 0.00290 1.05604 1.02815
 H1029 H 0.03474 1.00434 0.98344
 H1030 H -0.02289 1.03966 1.00688
 H1031 H -0.03041 0.97447 0.97764
 H1032 H 0.00057 0.98153 1.04199
 H1033 H 0.03073 0.95691 1.02484
 H1034 H 0.00100 0.94950 1.03336
 H1035 H -0.01085 1.05781 0.98425
 H1036 H -0.03156 1.03762 0.96630
 H1037 H 0.05916 0.97813 1.01245
 H1038 H 0.02900 0.96326 0.95807
 H1039 H -0.04001 1.03835 1.03327
 H1040 H -0.05842 1.02118 1.01193
 H1041 H 0.01861 0.98702 0.94002
 H1042 H 0.02190 1.03015 0.95986
 H1043 H -0.04104 0.97415 1.04056
 H1044 H -0.02156 0.99407 1.06065
 O1045 O 0.48649 0.48755 0.45194
 O1046 O 0.51849 0.49638 0.45165
 O1047 O 0.48387 0.44749 0.49749
 O1048 O 0.48948 0.44695 0.52827
 O1049 O 0.44254 0.49258 0.49348
 O1050 O 0.44340 0.52502 0.50081
 O1051 O 0.53257 0.49843 0.54629
 O1052 O 0.53379 0.46834 0.53412
 O1053 O 0.53856 0.53583 0.50102
 O1054 O 0.52535 0.53846 0.47139
 O1055 O 0.49469 0.54372 0.53936
 O1056 O 0.46408 0.52921 0.54455
 O1057 O 0.50694 0.51442 0.55690
 O1058 O 0.47276 0.50591 0.55762
 O1059 O 0.50973 0.55368 0.51294
 O1060 O 0.49971 0.55247 0.47906
 O1061 O 0.54895 0.51030 0.51729
 O1062 O 0.54807 0.47787 0.50503
 O1063 O 0.46103 0.50396 0.46236
 O1064 O 0.45781 0.53428 0.47711
 O1065 O 0.45286 0.46673 0.50927
 O1066 O 0.46892 0.46484 0.54013
 O1067 O 0.49791 0.45748 0.47048
 O1068 O 0.52986 0.47167 0.47053
 Zr1069 Zr 0.50411 0.48594 0.47566
 O1070 O 0.52222 0.50338 0.49126
 Zr1071 Zr 0.48160 0.47187 0.51414
 O1072 O 0.49937 0.48817 0.53133
 Zr1073 Zr 0.46669 0.50949 0.49090
 O1074 O 0.48332 0.52752 0.50747
 Zr1075 Zr 0.52555 0.49220 0.51834
 O1076 O 0.50864 0.47370 0.50227
 Zr1077 Zr 0.51016 0.52989 0.49543
 O1078 O 0.49290 0.51331 0.47776
 Zr1079 Zr 0.48817 0.51535 0.53397
 O1080 O 0.46931 0.49845 0.51824
 O1081 O 0.47748 0.48262 0.48735
 O1082 O 0.51472 0.51915 0.52229
 C1083 C 0.47051 0.49557 0.44950
 C1084 C 0.49064 0.44473 0.48098
 C1085 C 0.43996 0.47657 0.50139
 C1086 C 0.52334 0.50719 0.55906
 C1087 C 0.55131 0.52648 0.50969
 C1088 C 0.50301 0.55630 0.52945
 H1089 H 0.53439 0.50445 0.48461
 H1090 H 0.47700 0.53983 0.50852
 H1091 H 0.46922 0.47453 0.47960
 H1092 H 0.50086 0.48188 0.54363
 H1093 H 0.53080 0.45720 0.52634
 H1094 H 0.50116 0.44984 0.53522
 H1095 H 0.48881 0.55793 0.48573
 H1096 H 0.46787 0.53768 0.46813
 H1097 H 0.55911 0.47831 0.51353
 H1098 H 0.52841 0.46322 0.45956
 H1099 H 0.46010 0.53857 0.53507
 H1100 H 0.44147 0.52119 0.51405
 H1101 H 0.51786 0.48688 0.44146
 H1102 H 0.52124 0.53014 0.46104
 H1103 H 0.45921 0.47448 0.54263
 H1104 H 0.47900 0.49449 0.56251
 O1105 O 0.50676 -0.04006 0.53284
 O1106 O 0.53669 -0.02566 0.53571
 O1107 O 0.46850 0.00620 0.53950
 O1108 O 0.46252 0.03364 0.52555
 O1109 O 0.46137 -0.03316 0.49342
 O1110 O 0.47666 -0.03708 0.46406
 O1111 O 0.51672 0.05536 0.48856
 O1112 O 0.50631 0.05570 0.51910
 O1113 O 0.55663 0.01156 0.48472
 O1114 O 0.55767 -0.01944 0.49390
 O1115 O 0.51342 0.01492 0.44448
 O1116 O 0.48046 0.00724 0.44377
 O1117 O 0.50163 0.04467 0.46240
 O1118 O 0.47030 0.02893 0.45822
 O1119 O 0.53924 -0.00061 0.45518
 O1120 O 0.54231 -0.03191 0.47132
 O1121 O 0.54581 0.03780 0.49946
 O1122 O 0.53211 0.03782 0.53128
 O1123 O 0.49199 -0.05088 0.50654
 O1124 O 0.50078 -0.05055 0.47377
 O1125 O 0.45052 -0.00724 0.50868
 O1126 O 0.45166 0.02609 0.49873
 O1127 O 0.49381 -0.01018 0.55033
 O1128 O 0.52621 0.00287 0.54892
 Zr1129 Zr 0.51191 -0.01150 0.52695
 O1130 O 0.52997 0.00514 0.51043
 Zr1131 Zr 0.47404 0.01061 0.51077
 O1132 O 0.49071 0.02862 0.49424
 Zr1133 Zr 0.48998 -0.02728 0.48875
 O1134 O 0.50687 -0.01087 0.47083
 Zr1135 Zr 0.51764 0.03154 0.50595
 O1136 O 0.50009 0.01551 0.52392
 Zr1137 Zr 0.53313 -0.00635 0.48353
 O1138 O 0.51687 -0.02443 0.50074
 Zr1139 Zr 0.49538 0.01619 0.46789
 O1140 O 0.47704 -0.00114 0.48379
 O1141 O 0.48547 -0.01583 0.51518
 O1142 O 0.52207 0.02043 0.47917
 C1143 C 0.49917 -0.05311 0.52295
 C1144 C 0.47780 -0.00218 0.55252
 C1145 C 0.44829 -0.02348 0.50117
 C1146 C 0.50966 0.05761 0.47211
 C1147 C 0.55879 0.02811 0.49156
 C1148 C 0.52974 0.00760 0.44225
 H1149 H 0.54226 0.00625 0.51685
 H1150 H 0.50801 -0.01736 0.45861
 H1151 H 0.47735 -0.02386 0.52314
 H1152 H 0.48439 0.04095 0.49319
 H1153 H 0.50059 0.05140 0.53105
 H1154 H 0.47060 0.04461 0.52281
 H1155 H 0.53435 -0.03447 0.46022
 H1156 H 0.51332 -0.05327 0.47913
 H1157 H 0.53819 0.05029 0.52984
 H1158 H 0.52437 -0.00396 0.56092
 H1159 H 0.48486 -0.00556 0.44063
 H1160 H 0.46850 -0.02673 0.45961
 H1161 H 0.53460 -0.03111 0.54838
 H1162 H 0.55375 -0.02675 0.50506
 H1163 H 0.44827 0.01972 0.48683
 H1164 H 0.46753 0.03973 0.46652
 O1165 O -0.04116 0.46613 0.99382
 O1166 O -0.02687 0.46348 0.96382
 O1167 O 0.00514 0.45880 1.03193
 O1168 O 0.03264 0.47253 1.03804
 O1169 O -0.03386 0.50521 1.03950
 O1170 O -0.03767 0.53466 1.02439
 O1171 O 0.05452 0.50991 0.98408
 O1172 O 0.05468 0.47928 0.99429
 O1173 O 0.01069 0.51435 0.94425
 O1174 O -0.02037 0.50542 0.94317
 O1175 O 0.01443 0.55421 0.98780
 O1176 O 0.00675 0.55462 1.02084
 O1177 O 0.04403 0.53600 0.99940
 O1178 O 0.02845 0.54002 1.03076
 O1179 O -0.00120 0.54384 0.96189
 O1180 O -0.03263 0.52797 0.95872
 O1181 O 0.03684 0.49933 0.95493
 O1182 O 0.03667 0.46740 0.96840
 O1183 O -0.05176 0.49237 1.00882
 O1184 O -0.05124 0.52520 1.00022
 O1185 O -0.00806 0.48963 1.05022
 O1186 O 0.02533 0.49929 1.04910
 O1187 O -0.01135 0.44833 1.00652
 O1188 O 0.00159 0.44997 0.97412
 Zr1189 Zr -0.01258 0.47190 0.98866
 O1190 O 0.00414 0.48847 0.97072
 Zr1191 Zr 0.00970 0.48757 1.02664
 O1192 O 0.02780 0.50414 1.01010
 Zr1193 Zr -0.02805 0.51001 1.01091
 O1194 O -0.01154 0.52798 0.99415
 Zr1195 Zr 0.03059 0.49266 0.98307
 O1196 O 0.01447 0.47464 1.00047
 Zr1197 Zr -0.00716 0.51548 0.96778
 O1198 O -0.02533 0.49825 0.98391
 Zr1199 Zr 0.01555 0.53062 1.00565
 O1200 O -0.00185 0.51466 1.02387
 O1201 O -0.01678 0.48345 1.01521
 O1202 O 0.01966 0.51956 0.97886
 C1203 C -0.05413 0.47604 1.00152
 C1204 C -0.00330 0.44591 1.02249
 C1205 C -0.02421 0.49730 1.05252
 C1206 C 0.05688 0.52629 0.99126
 C1207 C 0.02718 0.50740 0.94202
 C1208 C 0.00712 0.55663 0.97149
 H1209 H 0.00518 0.48215 0.95838
 H1210 H -0.01794 0.54025 0.99311
 H1211 H -0.02483 0.47547 1.02328
 H1212 H 0.04014 0.50506 1.01641
 H1213 H 0.05033 0.46730 0.99990
 H1214 H 0.04361 0.47523 1.02995
 H1215 H -0.03510 0.53901 0.96679
 H1216 H -0.05401 0.51996 0.98764
 H1217 H 0.04915 0.46881 0.96234
 H1218 H -0.00533 0.43800 0.97585
 H1219 H -0.00596 0.55800 1.01634
 H1220 H -0.02727 0.53902 1.03254
 H1221 H -0.03241 0.45084 0.96580
 H1222 H -0.02779 0.49430 0.94701
 H1223 H 0.01910 0.51124 1.05255
 H1224 H 0.03917 0.53160 1.03347
 O1225 O -0.04757 0.53169 0.50121
 O1226 O -0.03408 0.53400 0.53157
 O1227 O -0.00026 0.53935 0.46442
 O1228 O 0.02725 0.52551 0.45870
 O1229 O -0.03942 0.49327 0.45531
 O1230 O -0.04354 0.46352 0.46986
 O1231 O 0.04761 0.48763 0.51290
 O1232 O 0.04813 0.51837 0.50304
 O1233 O 0.00282 0.48271 0.55152
 O1234 O -0.02827 0.49180 0.55187
 O1235 O 0.00761 0.44344 0.50765
 O1236 O 0.00068 0.44331 0.47450
 O1237 O 0.03746 0.46174 0.49698
 O1238 O 0.02256 0.45814 0.46512
 O1239 O -0.00862 0.45353 0.53328
 O1240 O -0.04016 0.46934 0.53578
 O1241 O 0.02927 0.49778 0.54164
 O1242 O 0.02953 0.52993 0.52862
 O1243 O -0.05795 0.50563 0.48572
 O1244 O -0.05773 0.47266 0.49382
 O1245 O -0.01329 0.50889 0.44543
 O1246 O 0.02006 0.49894 0.44724
 O1247 O -0.01736 0.54957 0.48949
 O1248 O -0.00527 0.54747 0.52223
 Zr1249 Zr -0.01917 0.52579 0.50704
 O1250 O -0.00299 0.50897 0.52521
 Zr1251 Zr 0.00397 0.51049 0.46943
 O1252 O 0.02159 0.49371 0.48625
 Zr1253 Zr -0.03424 0.48798 0.48395
 O1254 O -0.01822 0.46977 0.50091
 Zr1255 Zr 0.02373 0.50488 0.51347
 O1256 O 0.00813 0.52313 0.49586
 Zr1257 Zr -0.01446 0.48194 0.52753
 O1258 O -0.03214 0.49941 0.51115
 Zr1259 Zr 0.00914 0.46720 0.49007
 O1260 O -0.00776 0.48340 0.47159
 O1261 O -0.02276 0.51456 0.48027
 O1262 O 0.01261 0.47796 0.51707
 C1263 C -0.06041 0.52190 0.49313
 C1264 C -0.00888 0.55215 0.47377
 C1265 C -0.02945 0.50138 0.44265
 C1266 C 0.05011 0.47133 0.50560
 C1267 C 0.01930 0.48954 0.55421
 C1268 C -0.00002 0.44086 0.52379
 H1269 H -0.00223 0.51513 0.53766
 H1270 H -0.02467 0.45749 0.50166
 H1271 H -0.03058 0.52268 0.47211
 H1272 H 0.03409 0.49285 0.48024
 H1273 H 0.04396 0.53043 0.49747
 H1274 H 0.03795 0.52288 0.46716
 H1275 H -0.04239 0.45833 0.52759
 H1276 H -0.06074 0.47767 0.50644
 H1277 H 0.04183 0.52841 0.53499
 H1278 H -0.01203 0.55951 0.52042
 H1279 H -0.01222 0.44003 0.47851
 H1280 H -0.03295 0.45933 0.46187
 H1281 H -0.03946 0.54671 0.52959
 H1282 H -0.03562 0.50292 0.54792
 H1283 H 0.01378 0.48712 0.44342
 H1284 H 0.03346 0.46648 0.46286
 O1285 O 0.49883 1.04107 -0.03517
 O1286 O 0.52877 1.02672 -0.03759
 O1287 O 0.46066 0.99493 -0.04365
 O1288 O 0.45425 0.96727 -0.03031
 O1289 O 0.45251 1.03345 0.00304
 O1290 O 0.46705 1.03684 0.03277
 O1291 O 0.50782 0.94492 0.00763
 O1292 O 0.49796 0.94503 -0.02314
 O1293 O 0.54746 0.98871 0.01314
 O1294 O 0.54870 1.01987 0.00460
 O1295 O 0.50333 0.98439 0.05228
 O1296 O 0.47030 0.99213 0.05230
 O1297 O 0.49206 0.95508 0.03358
 O1298 O 0.46054 0.97061 0.03722
 O1299 O 0.52942 1.00007 0.04244
 O1300 O 0.53279 1.03182 0.02709
 O1301 O 0.53703 0.96272 -0.00236
 O1302 O 0.52398 0.96321 -0.03450
 O1303 O 0.48348 1.05143 -0.00903
 O1304 O 0.49144 1.05044 0.02397
 O1305 O 0.44193 1.00782 -0.01295
 O1306 O 0.44287 0.97427 -0.00363
 O1307 O 0.48624 1.01153 -0.05352
 O1308 O 0.51856 0.99845 -0.05158
 Zr1309 Zr 0.50376 1.01241 -0.02970
 O1310 O 0.52142 0.99550 -0.01306
 Zr1311 Zr 0.46550 0.99001 -0.01485
 O1312 O 0.48178 0.97168 0.00173
 Zr1313 Zr 0.48097 1.02749 0.00826
 O1314 O 0.49740 1.01074 0.02629
 Zr1315 Zr 0.50898 0.96901 -0.00937
 O1316 O 0.49186 0.98535 -0.02745
 Zr1317 Zr 0.52393 1.00651 0.01412
 O1318 O 0.50812 1.02488 -0.00314
 Zr1319 Zr 0.48583 0.98362 0.02842
 O1320 O 0.46789 1.00125 0.01241
 O1321 O 0.47706 1.01653 -0.01849
 O1322 O 0.51277 0.97964 0.01770
 C1323 C 0.49107 1.05396 -0.02521
 C1324 C 0.47030 1.00353 -0.05628
 C1325 C 0.43958 1.02392 -0.00516
 C1326 C 0.50045 0.94237 0.02390
 C1327 C 0.54980 0.97230 0.00604
 C1328 C 0.51965 0.99158 0.05498
 H1329 H 0.53386 0.99453 -0.01921
 H1330 H 0.49827 1.01698 0.03866
 H1331 H 0.46914 1.02471 -0.02649
 H1332 H 0.47546 0.95932 0.00241
 H1333 H 0.49252 0.94949 -0.03515
 H1334 H 0.46237 0.95631 -0.02775
 H1335 H 0.52469 1.03403 0.03816
 H1336 H 0.50412 1.05326 0.01898
 H1337 H 0.53005 0.95074 -0.03313
 H1338 H 0.51701 1.00550 -0.06350
 H1339 H 0.47475 1.00480 0.05590
 H1340 H 0.45886 1.02637 0.03690
 H1341 H 0.52700 1.03240 -0.05021
 H1342 H 0.54503 1.02741 -0.00648
 H1343 H 0.43922 0.98039 0.00832
 H1344 H 0.45804 0.95991 0.02870
 O1345 O 0.44709 0.50479 0.01591
 O1346 O 0.44765 0.47294 0.00648
 O1347 O 0.49217 0.50781 0.05638
 O1348 O 0.52302 0.50266 0.05714
 O1349 O 0.48777 0.54983 0.01203
 O1350 O 0.49522 0.54982 -0.02032
 O1351 O 0.54261 0.46120 0.00502
 O1352 O 0.53016 0.45899 0.03490
 O1353 O 0.49789 0.45499 -0.03298
 O1354 O 0.46797 0.46743 -0.03560
 O1355 O 0.53514 0.50001 -0.03963
 O1356 O 0.53959 0.53032 -0.02435
 O1357 O 0.55276 0.48739 -0.01042
 O1358 O 0.55264 0.52137 -0.00120
 O1359 O 0.50914 0.48462 -0.05016
 O1360 O 0.47501 0.49359 -0.04893
 O1361 O 0.51410 0.44438 -0.00751
 O1362 O 0.50149 0.44428 0.02483
 O1363 O 0.45711 0.53085 0.00015
 O1364 O 0.47201 0.53498 -0.03003
 O1365 O 0.50360 0.53939 0.03781
 O1366 O 0.53468 0.52392 0.03979
 O1367 O 0.46561 0.49323 0.04594
 O1368 O 0.46656 0.46156 0.03117
 Zr1369 Zr 0.47120 0.48770 0.01742
 O1370 O 0.48738 0.47035 -0.00026
 Zr1371 Zr 0.50904 0.51082 0.03223
 O1372 O 0.52678 0.49381 0.01576
 Zr1373 Zr 0.48580 0.52596 -0.00529
 O1374 O 0.50292 0.51013 -0.02347
 Zr1375 Zr 0.51443 0.46740 0.01107
 O1376 O 0.49781 0.48354 0.02977
 Zr1377 Zr 0.49152 0.48308 -0.02648
 O1378 O 0.47329 0.49953 -0.00972
 Zr1379 Zr 0.52941 0.50565 -0.01116
 O1380 O 0.51309 0.52377 0.00594
 O1381 O 0.48226 0.51454 0.02134
 O1382 O 0.51838 0.47891 -0.01561
 C1383 C 0.44438 0.52090 0.00821
 C1384 C 0.47580 0.50061 0.05888
 C1385 C 0.49555 0.55230 0.02811
 C1386 C 0.55524 0.47091 -0.00346
 C1387 C 0.50674 0.44222 -0.02383
 C1388 C 0.52549 0.49185 -0.05249
 H1389 H 0.48103 0.45804 -0.00164
 H1390 H 0.50392 0.51678 -0.03563
 H1391 H 0.47427 0.52248 0.02949
 H1392 H 0.53905 0.49246 0.02213
 H1393 H 0.52223 0.46160 0.04603
 H1394 H 0.53039 0.49131 0.05404
 H1395 H 0.48140 0.50483 -0.05407
 H1396 H 0.46318 0.52483 -0.03360
 H1397 H 0.51021 0.43343 0.02421
 H1398 H 0.45546 0.46257 0.03953
 H1399 H 0.53011 0.53430 -0.03371
 H1400 H 0.50839 0.55198 -0.01641
 H1401 H 0.43735 0.47315 0.01588
 H1402 H 0.45747 0.47098 -0.02723
 H1403 H 0.53711 0.53383 0.03032
 H1404 H 0.55756 0.51499 0.01014
 O1405 O 0.04492 -0.03900 0.50523
 O1406 O 0.03081 -0.04199 0.53529
 O1407 O -0.00149 -0.04635 0.46730
 O1408 O -0.02908 -0.03280 0.46138
 O1409 O 0.03718 0.00043 0.45989
 O1410 O 0.04091 0.02975 0.47518
 O1411 O -0.05095 0.00394 0.51585
 O1412 O -0.05098 -0.02661 0.50539
 O1413 O -0.00695 0.00853 0.55538
 O1414 O 0.02416 -0.00023 0.55626
 O1415 O -0.01122 0.04859 0.51209
 O1416 O -0.00374 0.04935 0.47908
 O1417 O -0.04071 0.03022 0.50062
 O1418 O -0.02532 0.03453 0.46910
 O1419 O 0.00463 0.03819 0.53786
 O1420 O 0.03621 0.02254 0.54077
 O1421 O -0.03305 -0.00668 0.54478
 O1422 O -0.03273 -0.03854 0.53111
 O1423 O 0.05530 -0.01256 0.49036
 O1424 O 0.05462 0.02021 0.49924
 O1425 O 0.01142 -0.01524 0.44917
 O1426 O -0.02207 -0.00587 0.45057
 O1427 O 0.01516 -0.05692 0.49255
 O1428 O 0.00238 -0.05563 0.52505
 Zr1429 Zr 0.01635 -0.03349 0.51059
 O1430 O -0.00037 -0.01717 0.52873
 Zr1431 Zr -0.00622 -0.01767 0.47282
 O1432 O -0.02435 -0.00141 0.48959
 Zr1433 Zr 0.03148 0.00492 0.48853
 O1434 O 0.01493 0.02263 0.50547
 Zr1435 Zr -0.02691 -0.01312 0.51656
 O1436 O -0.01077 -0.03086 0.49893
 Zr1437 Zr 0.01077 0.00991 0.53177
 O1438 O 0.02896 -0.00707 0.51546
 Zr1439 Zr -0.01224 0.02513 0.49413
 O1440 O 0.00519 0.00948 0.47572
 O1441 O 0.02034 -0.02168 0.48410
 O1442 O -0.01613 0.01383 0.52086
 C1443 C 0.05780 -0.02895 0.49754
 C1444 C 0.00707 -0.05925 0.47660
 C1445 C 0.02751 -0.00742 0.44685
 C1446 C -0.05344 0.02036 0.50882
 C1447 C -0.02339 0.00145 0.55766
 C1448 C -0.00386 0.05096 0.52838
 H1449 H -0.00130 -0.02359 0.54105
 H1450 H 0.02125 0.03496 0.50655
 H1451 H 0.02840 -0.02952 0.47592
 H1452 H -0.03674 -0.00056 0.48335
 H1453 H -0.04658 -0.03852 0.49969
 H1454 H -0.03999 -0.03042 0.46963
 H1455 H 0.03854 0.03369 0.53279
 H1456 H 0.05750 0.01485 0.51175
 H1457 H -0.04518 -0.03727 0.53726
 H1458 H 0.00935 -0.06754 0.52319
 H1459 H 0.00900 0.05276 0.48346
 H1460 H 0.03043 0.03413 0.46716
 H1461 H 0.03640 -0.05459 0.53320
 H1462 H 0.03161 -0.01127 0.55232
 H1463 H -0.01590 0.00611 0.44710
 H1464 H -0.03610 0.02614 0.46651
 O1465 O 0.74176 0.19636 0.26077
 O1466 O 0.77371 0.19700 0.25189
 O1467 O 0.73809 0.24161 0.30106
 O1468 O 0.74283 0.27251 0.30175
 O1469 O 0.69665 0.23685 0.25600
 O1470 O 0.69726 0.24421 0.22360
 O1471 O 0.78517 0.29209 0.25039
 O1472 O 0.78692 0.27969 0.28031
 O1473 O 0.79234 0.24723 0.21264
 O1474 O 0.77992 0.21724 0.20988
 O1475 O 0.74736 0.28434 0.20506
 O1476 O 0.71667 0.28858 0.21971
 O1477 O 0.75922 0.30208 0.23449
 O1478 O 0.72511 0.30178 0.24296
 O1479 O 0.76303 0.25840 0.19488
 O1480 O 0.75407 0.22424 0.19598
 O1481 O 0.80234 0.26364 0.23822
 O1482 O 0.80193 0.25109 0.27056
 O1483 O 0.71596 0.20621 0.24453
 O1484 O 0.71228 0.22099 0.21427
 O1485 O 0.70666 0.25271 0.28192
 O1486 O 0.72193 0.28391 0.28401
 O1487 O 0.75284 0.21506 0.29094
 O1488 O 0.78470 0.21607 0.27661
 Zr1489 Zr 0.75874 0.22056 0.26248
 O1490 O 0.77636 0.23678 0.24507
 Zr1491 Zr 0.73526 0.25833 0.27678
 O1492 O 0.75248 0.27610 0.26054
 Zr1493 Zr 0.72085 0.23492 0.23909
 O1494 O 0.73696 0.25206 0.22112
 Zr1495 Zr 0.77900 0.26388 0.25637
 O1496 O 0.76260 0.24722 0.27482
 Zr1497 Zr 0.76412 0.24079 0.21861
 O1498 O 0.74740 0.22253 0.23514
 Zr1499 Zr 0.74112 0.27860 0.23340
 O1500 O 0.72276 0.26225 0.25026
 O1501 O 0.73181 0.23149 0.26593
 O1502 O 0.76798 0.26771 0.22948
 C1503 C 0.72582 0.19354 0.25279
 C1504 C 0.74535 0.22530 0.30375
 C1505 C 0.69392 0.24465 0.27202
 C1506 C 0.77554 0.30467 0.24176
 C1507 C 0.80488 0.25620 0.22200
 C1508 C 0.75583 0.27473 0.19238
 H1509 H 0.78871 0.23049 0.24393
 H1510 H 0.73055 0.25300 0.20883
 H1511 H 0.72378 0.22348 0.27400
 H1512 H 0.75365 0.28840 0.26691
 H1513 H 0.78419 0.27175 0.29141
 H1514 H 0.75434 0.27974 0.29890
 H1515 H 0.74289 0.23056 0.19065
 H1516 H 0.72256 0.21229 0.21083
 H1517 H 0.81274 0.25989 0.27013
 H1518 H 0.78359 0.20503 0.28505
 H1519 H 0.71299 0.27911 0.21021
 H1520 H 0.69501 0.25740 0.22741
 H1521 H 0.77341 0.18676 0.26135
 H1522 H 0.77617 0.20674 0.21818
 H1523 H 0.71215 0.28624 0.27440
 H1524 H 0.73116 0.30669 0.25447
 O1525 O 0.75396 0.71579 0.70894
 O1526 O 0.78396 0.71277 0.72315
 O1527 O 0.71591 0.70891 0.75537
 O1528 O 0.71001 0.72274 0.78287
 O1529 O 0.70879 0.75521 0.71621
 O1530 O 0.72411 0.78465 0.71252
 O1531 O 0.76455 0.75932 0.80454
 O1532 O 0.75394 0.72882 0.80472
 O1533 O 0.80423 0.76349 0.76065
 O1534 O 0.80514 0.75441 0.72959
 O1535 O 0.76119 0.80378 0.76437
 O1536 O 0.72831 0.80470 0.75699
 O1537 O 0.74954 0.78563 0.79410
 O1538 O 0.71804 0.78995 0.77849
 O1539 O 0.78691 0.79310 0.74868
 O1540 O 0.78983 0.77716 0.71729
 O1541 O 0.79345 0.74853 0.78681
 O1542 O 0.77963 0.71670 0.78666
 O1543 O 0.73931 0.74224 0.69833
 O1544 O 0.74814 0.77501 0.69883
 O1545 O 0.69797 0.73981 0.74210
 O1546 O 0.69927 0.74965 0.77548
 O1547 O 0.74109 0.69813 0.73879
 O1548 O 0.77355 0.69935 0.75165
 Zr1549 Zr 0.75927 0.72147 0.73749
 O1550 O 0.77747 0.73781 0.75414
 Zr1551 Zr 0.72154 0.73761 0.75986
 O1552 O 0.73836 0.75395 0.77791
 Zr1553 Zr 0.73742 0.75985 0.72204
 O1554 O 0.75445 0.77760 0.73849
 Zr1555 Zr 0.76524 0.74213 0.78061
 O1556 O 0.74756 0.72433 0.76456
 Zr1557 Zr 0.78068 0.76480 0.74281
 O1558 O 0.76428 0.74777 0.72470
 Zr1559 Zr 0.74309 0.78038 0.76562
 O1560 O 0.72460 0.76467 0.74827
 O1561 O 0.73286 0.73335 0.73336
 O1562 O 0.76974 0.76898 0.76966
 C1563 C 0.74639 0.72580 0.69597
 C1564 C 0.72512 0.69592 0.74689
 C1565 C 0.69572 0.74738 0.72588
 C1566 C 0.75761 0.77579 0.80692
 C1567 C 0.80641 0.75653 0.77715
 C1568 C 0.77749 0.80601 0.75699
 H1569 H 0.78974 0.73135 0.75517
 H1570 H 0.75561 0.78987 0.73207
 H1571 H 0.72469 0.72545 0.72533
 H1572 H 0.73210 0.75493 0.79027
 H1573 H 0.74812 0.71694 0.80037
 H1574 H 0.71812 0.72539 0.79382
 H1575 H 0.78190 0.78831 0.71483
 H1576 H 0.76068 0.76969 0.69604
 H1577 H 0.78577 0.71803 0.79911
 H1578 H 0.77166 0.68741 0.74473
 H1579 H 0.73241 0.80772 0.74405
 H1580 H 0.71590 0.78894 0.72289
 H1581 H 0.78181 0.70015 0.71763
 H1582 H 0.80113 0.74338 0.72215
 H1583 H 0.69587 0.76156 0.76914
 H1584 H 0.71539 0.78169 0.78936
 O1585 O 0.24696 0.21323 0.79319
 O1586 O 0.21679 0.21074 0.77924
 O1587 O 0.28449 0.20616 0.74645
 O1588 O 0.29010 0.22003 0.71884
 O1589 O 0.29279 0.25214 0.78565
 O1590 O 0.27795 0.28164 0.78987
 O1591 O 0.23618 0.25784 0.69806
 O1592 O 0.24614 0.22713 0.69751
 O1593 O 0.19700 0.26219 0.74250
 O1594 O 0.19633 0.25281 0.77349
 O1595 O 0.24062 0.30177 0.73839
 O1596 O 0.27378 0.30205 0.74573
 O1597 O 0.25181 0.28378 0.70855
 O1598 O 0.28338 0.28757 0.72379
 O1599 O 0.21491 0.29137 0.75434
 O1600 O 0.21217 0.27529 0.78573
 O1601 O 0.20722 0.24740 0.71604
 O1602 O 0.22042 0.21532 0.71575
 O1603 O 0.26227 0.23930 0.80384
 O1604 O 0.25392 0.27220 0.80373
 O1605 O 0.30307 0.23678 0.75954
 O1606 O 0.30155 0.24670 0.72628
 O1607 O 0.25925 0.19565 0.76316
 O1608 O 0.22669 0.19751 0.75051
 Zr1609 Zr 0.24148 0.21925 0.76474
 O1610 O 0.22338 0.23605 0.74843
 Zr1611 Zr 0.27923 0.23496 0.74209
 O1612 O 0.26252 0.25177 0.72437
 Zr1613 Zr 0.26416 0.25714 0.78025
 O1614 O 0.24727 0.27533 0.76415
 Zr1615 Zr 0.23538 0.24042 0.72186
 O1616 O 0.25292 0.22217 0.73756
 Zr1617 Zr 0.22078 0.26296 0.76003
 O1618 O 0.23706 0.24550 0.77781
 Zr1619 Zr 0.25839 0.27816 0.73692
 O1620 O 0.27677 0.26197 0.75392
 O1621 O 0.26813 0.23067 0.76868
 O1622 O 0.23150 0.26722 0.73309
 C1623 C 0.25489 0.22298 0.80615
 C1624 C 0.27513 0.19325 0.75495
 C1625 C 0.30563 0.24426 0.77575
 C1626 C 0.24343 0.27420 0.69573
 C1627 C 0.19451 0.25548 0.72594
 C1628 C 0.22441 0.30417 0.74591
 H1629 H 0.21099 0.22979 0.74750
 H1630 H 0.24637 0.28756 0.77066
 H1631 H 0.27628 0.22261 0.77658
 H1632 H 0.26866 0.25276 0.71195
 H1633 H 0.25178 0.21511 0.70171
 H1634 H 0.28199 0.22304 0.70797
 H1635 H 0.22029 0.28633 0.78813
 H1636 H 0.24133 0.26702 0.80661
 H1637 H 0.21415 0.21690 0.70339
 H1638 H 0.22849 0.18545 0.75725
 H1639 H 0.26946 0.30533 0.75853
 H1640 H 0.28595 0.28605 0.77937
 H1641 H 0.21880 0.19802 0.78460
 H1642 H 0.20027 0.24168 0.78084
 H1643 H 0.30514 0.25860 0.73254
 H1644 H 0.28592 0.27922 0.71298
 O1645 O 0.25356 0.78733 0.29010
 O1646 O 0.28355 0.78957 0.27566
 O1647 O 0.21532 0.79496 0.24402
 O1648 O 0.20895 0.78126 0.21655
 O1649 O 0.20738 0.74880 0.28322
 O1650 O 0.22209 0.71915 0.28704
 O1651 O 0.26251 0.74312 0.19462
 O1652 O 0.25253 0.77384 0.19427
 O1653 O 0.30231 0.73847 0.23831
 O1654 O 0.30358 0.74734 0.26936
 O1655 O 0.25817 0.69906 0.23480
 O1656 O 0.22518 0.69905 0.24267
 O1657 O 0.24680 0.71728 0.20526
 O1658 O 0.21535 0.71377 0.22093
 O1659 O 0.28432 0.70917 0.25019
 O1660 O 0.28778 0.72498 0.28167
 O1661 O 0.29175 0.75359 0.21215
 O1662 O 0.27855 0.78562 0.21218
 O1663 O 0.23829 0.76129 0.30091
 O1664 O 0.24647 0.72834 0.30046
 O1665 O 0.19673 0.76438 0.25738
 O1666 O 0.19759 0.75461 0.22400
 O1667 O 0.24095 0.80517 0.26032
 O1668 O 0.27326 0.80316 0.24722
 Zr1669 Zr 0.25853 0.78142 0.26153
 O1670 O 0.27618 0.76460 0.24482
 Zr1671 Zr 0.22025 0.76613 0.23948
 O1672 O 0.23651 0.74934 0.22137
 Zr1673 Zr 0.23586 0.74361 0.27727
 O1674 O 0.25230 0.72541 0.26075
 Zr1675 Zr 0.26368 0.76049 0.21843
 O1676 O 0.24656 0.77876 0.23455
 Zr1677 Zr 0.27881 0.73758 0.25622
 O1678 O 0.26299 0.75506 0.27438
 Zr1679 Zr 0.24065 0.72285 0.23372
 O1680 O 0.22272 0.73905 0.25115
 O1681 O 0.23186 0.77018 0.26590
 O1682 O 0.26757 0.73359 0.22946
 C1683 C 0.24580 0.77757 0.30315
 C1684 C 0.22495 0.80774 0.25239
 C1685 C 0.19441 0.75682 0.27360
 C1686 C 0.25513 0.72680 0.19237
 C1687 C 0.30459 0.74540 0.22181
 C1688 C 0.27451 0.69648 0.24195
 H1689 H 0.28860 0.77079 0.24371
 H1690 H 0.25321 0.71313 0.26718
 H1691 H 0.22393 0.77826 0.27396
 H1692 H 0.23016 0.74846 0.20904
 H1693 H 0.24706 0.78589 0.19856
 H1694 H 0.21694 0.77843 0.20555
 H1695 H 0.27966 0.71396 0.28412
 H1696 H 0.25914 0.73343 0.30313
 H1697 H 0.28458 0.78413 0.19970
 H1698 H 0.27172 0.81517 0.25411
 H1699 H 0.22968 0.69566 0.25538
 H1700 H 0.21382 0.71488 0.27669
 H1701 H 0.28176 0.80225 0.28118
 H1702 H 0.29992 0.75854 0.27672
 H1703 H 0.19398 0.74274 0.23032
 H1704 H 0.21278 0.72215 0.21013
 O1705 O 0.24191 0.69568 0.76156
 O1706 O 0.27399 0.69600 0.75307
 O1707 O 0.23823 0.74100 0.80180
 O1708 O 0.24331 0.77184 0.80253
 O1709 O 0.19729 0.73657 0.75633
 O1710 O 0.19832 0.74399 0.72392
 O1711 O 0.28639 0.79099 0.75165
 O1712 O 0.28768 0.77855 0.78161
 O1713 O 0.29352 0.74607 0.71397
 O1714 O 0.28089 0.71616 0.71115
 O1715 O 0.24900 0.78355 0.70588
 O1716 O 0.21824 0.78815 0.72016
 O1717 O 0.26072 0.80120 0.73543
 O1718 O 0.22649 0.80122 0.74356
 O1719 O 0.26451 0.75744 0.69590
 O1720 O 0.25524 0.72338 0.69694
 O1721 O 0.30340 0.76239 0.73965
 O1722 O 0.30254 0.74983 0.77198
 O1723 O 0.21640 0.70578 0.74503
 O1724 O 0.21319 0.72060 0.71475
 O1725 O 0.20717 0.75236 0.78233
 O1726 O 0.22270 0.78345 0.78455
 O1727 O 0.25283 0.71428 0.79187
 O1728 O 0.28487 0.71496 0.77790
 Zr1729 Zr 0.25913 0.71971 0.76347
 O1730 O 0.27710 0.73575 0.74626
 Zr1731 Zr 0.23587 0.75772 0.77749
 O1732 O 0.25344 0.77532 0.76143
 Zr1733 Zr 0.22163 0.73443 0.73966
 O1734 O 0.23812 0.75140 0.72185
 Zr1735 Zr 0.27988 0.76283 0.75757
 O1736 O 0.26311 0.74634 0.77584
 Zr1737 Zr 0.26519 0.73986 0.71966
 O1738 O 0.24810 0.72178 0.73601
 Zr1739 Zr 0.24240 0.77791 0.73417
 O1740 O 0.22369 0.76175 0.75083
 O1741 O 0.23227 0.73092 0.76661
 O1742 O 0.26919 0.76675 0.73055
 C1743 C 0.22603 0.69302 0.75340
 C1744 C 0.24528 0.72461 0.80458
 C1745 C 0.19447 0.74438 0.77233
 C1746 C 0.27699 0.80364 0.74288
 C1747 C 0.30603 0.75495 0.72345
 C1748 C 0.25750 0.77384 0.69331
 H1749 H 0.28940 0.72934 0.74525
 H1750 H 0.23186 0.75239 0.70950
 H1751 H 0.22408 0.72298 0.77459
 H1752 H 0.25466 0.78761 0.76780
 H1753 H 0.28474 0.77062 0.79267
 H1754 H 0.25489 0.77901 0.79978
 H1755 H 0.24418 0.72978 0.69149
 H1756 H 0.22342 0.71179 0.71142
 H1757 H 0.31343 0.75853 0.77168
 H1758 H 0.28354 0.70393 0.78633
 H1759 H 0.21449 0.77865 0.71073
 H1760 H 0.19612 0.75717 0.72777
 H1761 H 0.27345 0.68575 0.76252
 H1762 H 0.27691 0.70568 0.71938
 H1763 H 0.21303 0.78584 0.77483
 H1764 H 0.23251 0.80612 0.75510
 O1765 O 0.25320 0.21638 0.20726
 O1766 O 0.28321 0.21336 0.22146
 O1767 O 0.21514 0.20855 0.25352
 O1768 O 0.20921 0.22193 0.28127
 O1769 O 0.20771 0.25537 0.21508
 O1770 O 0.22286 0.28497 0.21180
 O1771 O 0.26348 0.25870 0.30343
 O1772 O 0.25302 0.22811 0.30323
 O1773 O 0.30309 0.26372 0.25966
 O1774 O 0.30408 0.25505 0.22848
 O1775 O 0.25973 0.30363 0.26388
 O1776 O 0.22676 0.30432 0.25643
 O1777 O 0.24828 0.28503 0.29333
 O1778 O 0.21677 0.28935 0.27791
 O1779 O 0.28556 0.29336 0.24807
 O1780 O 0.28863 0.27787 0.21649
 O1781 O 0.29241 0.24829 0.28559
 O1782 O 0.27880 0.21638 0.28502
 O1783 O 0.23832 0.24285 0.19701
 O1784 O 0.24693 0.27565 0.19794
 O1785 O 0.19699 0.23952 0.24073
 O1786 O 0.19821 0.24888 0.27422
 O1787 O 0.24043 0.19822 0.23682
 O1788 O 0.27287 0.19949 0.24976
 Zr1789 Zr 0.25845 0.22169 0.23589
 O1790 O 0.27652 0.23794 0.25278
 Zr1791 Zr 0.22059 0.23722 0.25847
 O1792 O 0.23727 0.25346 0.27674
 Zr1793 Zr 0.23631 0.26012 0.22097
 O1794 O 0.25322 0.27776 0.23765
 Zr1795 Zr 0.26425 0.24180 0.27930
 O1796 O 0.24670 0.22409 0.26299
 Zr1797 Zr 0.27954 0.26509 0.24182
 O1798 O 0.26327 0.24821 0.22347
 Zr1799 Zr 0.24182 0.28008 0.26481
 O1800 O 0.22345 0.26447 0.24726
 O1801 O 0.23195 0.23343 0.23192
 O1802 O 0.26855 0.26883 0.26871
 C1803 C 0.24553 0.22651 0.19443
 C1804 C 0.22446 0.19576 0.24485
 C1805 C 0.19470 0.24732 0.22463
 C1806 C 0.25646 0.27510 0.30602
 C1807 C 0.30531 0.25654 0.27606
 C1808 C 0.27603 0.30609 0.25655
 H1809 H 0.28884 0.23155 0.25372
 H1810 H 0.25429 0.29013 0.23140
 H1811 H 0.22384 0.22560 0.22376
 H1812 H 0.23102 0.25423 0.28912
 H1813 H 0.24728 0.21625 0.29872
 H1814 H 0.21723 0.22460 0.29229
 H1815 H 0.28059 0.28896 0.21414
 H1816 H 0.25952 0.27046 0.19510
 H1817 H 0.28492 0.21759 0.29749
 H1818 H 0.27106 0.18762 0.24268
 H1819 H 0.23101 0.30768 0.24363
 H1820 H 0.21460 0.28906 0.22222
 H1821 H 0.28115 0.20080 0.21576
 H1822 H 0.30015 0.24411 0.22087
 H1823 H 0.19478 0.26089 0.26809
 H1824 H 0.21413 0.28085 0.28859
 O1825 O 0.78596 0.70741 0.24796
 O1826 O 0.78815 0.72172 0.21788
 O1827 O 0.79412 0.75352 0.28598
 O1828 O 0.78069 0.78112 0.29232
 O1829 O 0.74766 0.71470 0.29419
 O1830 O 0.71792 0.71111 0.27957
 O1831 O 0.74254 0.80325 0.23886
 O1832 O 0.77332 0.80333 0.24873
 O1833 O 0.73727 0.75956 0.19919
 O1834 O 0.74593 0.72844 0.19792
 O1835 O 0.69813 0.76345 0.24341
 O1836 O 0.69820 0.75564 0.27643
 O1837 O 0.71666 0.79287 0.25464
 O1838 O 0.71315 0.77727 0.28616
 O1839 O 0.70799 0.74789 0.21729
 O1840 O 0.72356 0.71629 0.21384
 O1841 O 0.75266 0.78561 0.20965
 O1842 O 0.78477 0.78529 0.22267
 O1843 O 0.75989 0.69686 0.26333
 O1844 O 0.72691 0.69755 0.25520
 O1845 O 0.76354 0.74042 0.30471
 O1846 O 0.75403 0.77389 0.30381
 O1847 O 0.80409 0.73709 0.26036
 O1848 O 0.80203 0.75010 0.22799
 Zr1849 Zr 0.78025 0.73601 0.24287
 O1850 O 0.76350 0.75284 0.22523
 Zr1851 Zr 0.76532 0.75828 0.28115
 O1852 O 0.74861 0.77650 0.26489
 Zr1853 Zr 0.74241 0.72065 0.26570
 O1854 O 0.72428 0.73728 0.24928
 Zr1855 Zr 0.75968 0.77929 0.23768
 O1856 O 0.77787 0.76304 0.25478
 Zr1857 Zr 0.73638 0.74167 0.22272
 O1858 O 0.75376 0.72338 0.23852
 Zr1859 Zr 0.72200 0.76437 0.26086
 O1860 O 0.73812 0.74684 0.27879
 O1861 O 0.76908 0.73181 0.26959
 O1862 O 0.73267 0.76848 0.23391
 C1863 C 0.77612 0.69446 0.25582
 C1864 C 0.80680 0.74504 0.27632
 C1865 C 0.75585 0.72427 0.30709
 C1866 C 0.72627 0.80566 0.24624
 C1867 C 0.74431 0.77602 0.19687
 C1868 C 0.69542 0.75627 0.22710
 H1869 H 0.76964 0.75388 0.21278
 H1870 H 0.71194 0.73096 0.24842
 H1871 H 0.77714 0.72370 0.27752
 H1872 H 0.74786 0.78885 0.27121
 H1873 H 0.78536 0.79894 0.25416
 H1874 H 0.77789 0.79213 0.28433
 H1875 H 0.71257 0.71391 0.22202
 H1876 H 0.73196 0.69479 0.24254
 H1877 H 0.78336 0.79778 0.21664
 H1878 H 0.81398 0.74312 0.22952
 H1879 H 0.69467 0.74296 0.27197
 H1880 H 0.71378 0.72151 0.28782
 H1881 H 0.80079 0.71611 0.21965
 H1882 H 0.75708 0.72100 0.20156
 H1883 H 0.74211 0.76769 0.30745
 H1884 H 0.72159 0.78805 0.28864
 O1885 O 0.70809 0.24806 0.78383
 O1886 O 0.72201 0.21789 0.78622
 O1887 O 0.75496 0.28552 0.79125
 O1888 O 0.78248 0.29143 0.77738
 O1889 O 0.71573 0.29407 0.74527
 O1890 O 0.71162 0.27944 0.71561
 O1891 O 0.80332 0.23749 0.73947
 O1892 O 0.80382 0.24728 0.77021
 O1893 O 0.75878 0.19833 0.73484
 O1894 O 0.72776 0.19767 0.74403
 O1895 O 0.76314 0.24217 0.69546
 O1896 O 0.75584 0.27529 0.69527
 O1897 O 0.79293 0.25330 0.71361
 O1898 O 0.77768 0.28492 0.70997
 O1899 O 0.74715 0.21640 0.70567
 O1900 O 0.71567 0.21362 0.72157
 O1901 O 0.78523 0.20846 0.74975
 O1902 O 0.78550 0.22154 0.78187
 O1903 O 0.69751 0.26347 0.75779
 O1904 O 0.69773 0.25533 0.72484
 O1905 O 0.74180 0.30427 0.76077
 O1906 O 0.77514 0.30279 0.75077
 O1907 O 0.73813 0.26027 0.80158
 O1908 O 0.75072 0.22770 0.79957
 Zr1909 Zr 0.73656 0.24262 0.77788
 O1910 O 0.75287 0.22461 0.76104
 Zr1911 Zr 0.75928 0.28045 0.76242
 O1912 O 0.77703 0.26381 0.74561
 Zr1913 Zr 0.72115 0.26549 0.74005
 O1914 O 0.73729 0.24870 0.72184
 Zr1915 Zr 0.77948 0.23661 0.75681
 O1916 O 0.76375 0.25408 0.77509
 Zr1917 Zr 0.74133 0.22215 0.73407
 O1918 O 0.72354 0.23834 0.75156
 Zr1919 Zr 0.76454 0.25983 0.71916
 O1920 O 0.74751 0.27813 0.73537
 O1921 O 0.73267 0.26933 0.76658
 O1922 O 0.76830 0.23287 0.72996
 C1923 C 0.69516 0.25601 0.77407
 C1924 C 0.74641 0.27611 0.80408
 C1925 C 0.72559 0.30686 0.75330
 C1926 C 0.80571 0.24485 0.72317
 C1927 C 0.77530 0.19579 0.74160
 C1928 C 0.75564 0.22596 0.69295
 H1929 H 0.75377 0.21218 0.76723
 H1930 H 0.73082 0.24786 0.70958
 H1931 H 0.72477 0.27741 0.77468
 H1932 H 0.78946 0.26996 0.74470
 H1933 H 0.79963 0.25285 0.78225
 H1934 H 0.79325 0.28309 0.77472
 H1935 H 0.71336 0.22175 0.71053
 H1936 H 0.69483 0.24270 0.72992
 H1937 H 0.79784 0.21527 0.78030
 H1938 H 0.74396 0.22945 0.81162
 H1939 H 0.74302 0.27105 0.69198
 H1940 H 0.72215 0.28747 0.71130
 H1941 H 0.71662 0.21984 0.79893
 H1942 H 0.72040 0.20155 0.75516
 H1943 H 0.76878 0.30657 0.73899
 H1944 H 0.78850 0.28738 0.71833
 C1945 C 0.07943 1.00563 1.17895
 C1946 C 0.07145 1.00674 1.16405
 C1947 C 0.06228 1.00764 1.14605
 C1948 C 0.05071 0.99282 1.14021
 C1949 C 0.04249 0.99319 1.12237
 C1950 C 0.04581 1.00838 1.11028
 C1951 C 0.05723 1.02331 1.11617
 C1952 C 0.06546 1.02293 1.13403
 C1953 C 0.03781 1.00833 1.09171
 C1954 C 0.03104 1.00782 1.07619
 H1955 H 0.04822 0.98088 1.14934
 H1956 H 0.03371 0.98155 1.11795
 H1957 H 0.05991 1.03511 1.10692
 H1958 H 0.07444 1.03444 1.13838
 C1959 C 0.58032 0.50730 0.67995
 C1960 C 0.57265 0.50864 0.66491
 C1961 C 0.56385 0.50984 0.64675
 C1962 C 0.54473 0.50561 0.64472
 C1963 C 0.53643 0.50585 0.62690
 C1964 C 0.54722 0.51032 0.61104
 C1965 C 0.56629 0.51479 0.61310
 C1966 C 0.57458 0.51455 0.63092
 C1967 C 0.53888 0.50967 0.59263
 C1968 C 0.53185 0.50874 0.57725
 H1969 H 0.53630 0.50188 0.65685
 H1970 H 0.52169 0.50232 0.62547
 H1971 H 0.57479 0.51821 0.60093
 H1972 H 0.58940 0.51778 0.63231
 C1973 C 0.42090 -0.00185 0.67360
 C1974 C 0.42876 -0.00209 0.65861
 C1975 C 0.43749 -0.00233 0.64037
 C1976 C 0.45633 -0.00767 0.63837
 C1977 C 0.46463 -0.00793 0.62055
 C1978 C 0.45411 -0.00286 0.60468
 C1979 C 0.43528 0.00246 0.60670
 C1980 C 0.42699 0.00272 0.62450
 C1981 C 0.46261 -0.00289 0.58634
 C1982 C 0.46959 -0.00270 0.57091
 H1983 H 0.46456 -0.01163 0.65056
 H1984 H 0.47922 -0.01205 0.61914
 H1985 H 0.42703 0.00643 0.59453
 H1986 H 0.41240 0.00685 0.62588
 C1987 C -0.07948 0.49847 1.17429
 C1988 C -0.07145 0.49820 1.15938
 C1989 C -0.06244 0.49796 1.14128
 C1990 C -0.05581 0.48102 1.13376
 C1991 C -0.04784 0.48069 1.11579
 C1992 C -0.04651 0.49730 1.10528
 C1993 C -0.05300 0.51426 1.11287
 C1994 C -0.06097 0.51458 1.13083
 C1995 C -0.03864 0.49699 1.08666
 C1996 C -0.03209 0.49698 1.07105
 H1997 H -0.05697 0.46806 1.14169
 H1998 H -0.04286 0.46750 1.11005
 H1999 H -0.05204 0.52718 1.10487
 H2000 H -0.06613 0.52774 1.13647
 C2001 C -0.08179 0.50192 0.31951
 C2002 C -0.07435 0.50260 0.33472
 C2003 C -0.06588 0.50306 0.35308
 C2004 C -0.06977 0.51791 0.36541
 C2005 C -0.06219 0.51791 0.38355
 C2006 C -0.05069 0.50304 0.38943
 C2007 C -0.04668 0.48827 0.37705
 C2008 C -0.05427 0.48828 0.35892
 C2009 C -0.04325 0.50273 0.40824
 C2010 C -0.03700 0.50223 0.42398
 H2011 H -0.07881 0.52937 0.36106
 H2012 H -0.06540 0.52939 0.39301
 H2013 H -0.03784 0.47670 0.38147
 H2014 H -0.05124 0.47668 0.34954
 C2015 C 0.41904 1.00258 -0.17989
 C2016 C 0.42629 1.00339 -0.16459
 C2017 C 0.43453 1.00399 -0.14613
 C2018 C 0.43281 1.02015 -0.13502
 C2019 C 0.44016 1.02040 -0.11677
 C2020 C 0.44923 1.00446 -0.10958
 C2021 C 0.45105 0.98836 -0.12074
 C2022 C 0.44371 0.98811 -0.13897
 C2023 C 0.45651 1.00450 -0.09071
 C2024 C 0.46271 1.00422 -0.07494
 H2025 H 0.42566 1.03248 -0.14038
 H2026 H 0.43866 1.03293 -0.10826
 H2027 H 0.45803 0.97595 -0.11532
 H2028 H 0.44505 0.97551 -0.14741
 C2029 C 0.58056 0.49526 -0.17428
 C2030 C 0.57272 0.49398 -0.15932
 C2031 C 0.56389 0.49258 -0.14118
 C2032 C 0.57162 0.48085 -0.12737
 C2033 C 0.56360 0.48010 -0.10944
 C2034 C 0.54782 0.49109 -0.10525
 C2035 C 0.53998 0.50267 -0.11913
 C2036 C 0.54800 0.50342 -0.13706
 C2037 C 0.53999 0.49092 -0.08661
 C2038 C 0.53342 0.49113 -0.07100
 H2039 H 0.58396 0.47246 -0.13039
 H2040 H 0.56980 0.47114 -0.09880
 H2041 H 0.52780 0.51127 -0.11602
 H2042 H 0.54196 0.51259 -0.14761
 C2043 C 0.08173 -0.00328 0.32463
 C2044 C 0.07404 -0.00396 0.33971
 C2045 C 0.06543 -0.00462 0.35798
 C2046 C 0.05403 -0.01986 0.36309
 C2047 C 0.04619 -0.02069 0.38111
 C2048 C 0.04975 -0.00630 0.39407
 C2049 C 0.06108 0.00897 0.38892
 C2050 C 0.06891 0.00980 0.37092
 C2051 C 0.04185 -0.00710 0.41266
 C2052 C 0.03530 -0.00745 0.42828
 H2053 H 0.05130 -0.03112 0.35321
 H2054 H 0.03743 -0.03255 0.38496
 H2055 H 0.06392 0.02018 0.39882
 H2056 H 0.07776 0.02161 0.36714
 C2057 C 0.17276 1.08229 1.00750
 C2058 C 0.15778 1.07447 1.00863
 C2059 C 0.13966 1.06558 1.00982
 C2060 C 0.12498 1.07448 1.01947
 C2061 C 0.10712 1.06629 1.01996
 C2062 C 0.10386 1.04917 1.01082
 C2063 C 0.11859 1.04016 1.00135
 C2064 C 0.13645 1.04835 1.00085
 C2065 C 0.08531 1.04113 1.01060
 C2066 C 0.06978 1.03440 1.01002
 H2067 H 0.12730 1.08784 1.02640
 H2068 H 0.09582 1.07340 1.02728
 H2069 H 0.11620 1.02693 0.99419
 H2070 H 0.14769 1.04139 0.99331
 C2071 C 0.67300 0.58184 0.50699
 C2072 C 0.65795 0.57416 0.50821
 C2073 C 0.63976 0.56544 0.50954
 C2074 C 0.62520 0.57453 0.51918
 C2075 C 0.60729 0.56645 0.51988
 C2076 C 0.60387 0.54925 0.51093
 C2077 C 0.61848 0.54006 0.50145
 C2078 C 0.63639 0.54814 0.50075
 C2079 C 0.58529 0.54128 0.51097
 C2080 C 0.56973 0.53458 0.51061
 H2081 H 0.62764 0.58793 0.52597
 H2082 H 0.59609 0.57369 0.52721
 H2083 H 0.61597 0.52677 0.49445
 H2084 H 0.64753 0.54103 0.49322
 C2085 C 0.67774 0.41729 -0.00459
 C2086 C 0.66247 0.42457 -0.00559
 C2087 C 0.64406 0.43290 -0.00644
 C2088 C 0.64133 0.45146 -0.00049
 C2089 C 0.62328 0.45925 -0.00056
 C2090 C 0.60789 0.44851 -0.00656
 C2091 C 0.61066 0.43000 -0.01269
 C2092 C 0.62870 0.42222 -0.01262
 C2093 C 0.58924 0.45630 -0.00588
 C2094 C 0.57367 0.46290 -0.00497
 H2095 H 0.65309 0.45983 0.00438
 H2096 H 0.62130 0.47356 0.00426
 H2097 H 0.59886 0.42155 -0.01731
 H2098 H 0.63065 0.40782 -0.01719
 C2099 C 0.18070 -0.08178 0.49750
 C2100 C 0.16546 -0.07440 0.49706
 C2101 C 0.14706 -0.06604 0.49690
 C2102 C 0.13654 -0.06530 0.51352
 C2103 C 0.11844 -0.05768 0.51339
 C2104 C 0.11076 -0.05076 0.49663
 C2105 C 0.12130 -0.05142 0.48001
 C2106 C 0.13942 -0.05906 0.48014
 C2107 C 0.09207 -0.04307 0.49659
 C2108 C 0.07640 -0.03664 0.49685
 H2109 H 0.14228 -0.07072 0.52655
 H2110 H 0.11042 -0.05724 0.52633
 H2111 H 0.11549 -0.04611 0.46697
 H2112 H 0.14741 -0.05962 0.46719
 C2113 C 0.32679 -0.07945 0.50098
 C2114 C 0.34167 -0.07135 0.50137
 C2115 C 0.35971 -0.06224 0.50178
 C2116 C 0.37125 -0.06399 0.51765
 C2117 C 0.38916 -0.05589 0.51774
 C2118 C 0.39562 -0.04604 0.50195
 C2119 C 0.38402 -0.04416 0.48615
 C2120 C 0.36611 -0.05226 0.48605
 C2121 C 0.41422 -0.03810 0.50185
 C2122 C 0.42980 -0.03147 0.50163
 H2123 H 0.36647 -0.07176 0.52985
 H2124 H 0.39802 -0.05744 0.53003
 H2125 H 0.38889 -0.03658 0.47386
 H2126 H 0.35734 -0.05090 0.47368
 C2127 C -0.17597 0.42072 1.00169
 C2128 C -0.16108 0.42881 1.00208
 C2129 C -0.14300 0.43786 1.00250
 C2130 C -0.13121 0.43557 1.01811
 C2131 C -0.11325 0.44357 1.01817
 C2132 C -0.10700 0.45389 1.00260
 C2133 C -0.11884 0.45633 0.98706
 C2134 C -0.13681 0.44833 0.98700
 C2135 C -0.08833 0.46169 1.00243
 C2136 C -0.07269 0.46820 1.00211
 H2137 H -0.13583 0.42742 1.03013
 H2138 H -0.10420 0.44157 1.03025
 H2139 H -0.11413 0.46427 0.97494
 H2140 H -0.14576 0.45011 0.97482
 C2141 C -0.18157 0.57811 0.49586
 C2142 C -0.16670 0.57013 0.49439
 C2143 C -0.14871 0.56105 0.49296
 C2144 C -0.13446 0.56912 0.48202
 C2145 C -0.11664 0.56086 0.48141
 C2146 C -0.11301 0.54450 0.49175
 C2147 C -0.12733 0.53629 0.50250
 C2148 C -0.14515 0.54455 0.50311
 C2149 C -0.09447 0.53647 0.49184
 C2150 C -0.07890 0.52981 0.49224
 H2151 H -0.13704 0.58192 0.47417
 H2152 H -0.10565 0.56736 0.47310
 H2153 H -0.12466 0.52367 0.51059
 H2154 H -0.15604 0.53823 0.51168
 C2155 C 0.31830 1.08010 -0.00198
 C2156 C 0.33331 1.07232 -0.00295
 C2157 C 0.35150 1.06356 -0.00367
 C2158 C 0.36470 1.06739 0.01043
 C2159 C 0.38252 1.05920 0.00974
 C2160 C 0.38725 1.04714 -0.00507
 C2161 C 0.37406 1.04325 -0.01918
 C2162 C 0.35620 1.05147 -0.01848
 C2163 C 0.40564 1.03878 -0.00563
 C2164 C 0.42112 1.03194 -0.00566
 H2165 H 0.36122 1.07675 0.02192
 H2166 H 0.39261 1.06229 0.02072
 H2167 H 0.37758 1.03393 -0.03068
 H2168 H 0.34611 1.04844 -0.02948
 C2169 C 0.00470 1.17889 1.08102
 C2170 C 0.00566 1.16359 1.07380
 C2171 C 0.00644 1.14513 1.06557
 C2172 C 0.01282 1.12985 1.07625
 C2173 C 0.01274 1.11174 1.06859
 C2174 C 0.00627 1.10884 1.05022
 C2175 C 0.00009 1.12415 1.03947
 C2176 C 0.00016 1.14225 1.04713
 C2177 C 0.00545 1.09013 1.04257
 C2178 C 0.00446 1.07451 1.03608
 H2179 H 0.01763 1.13190 1.09055
 H2180 H 0.01751 1.10001 1.07704
 H2181 H -0.00498 1.12205 1.02526
 H2182 H -0.00486 1.15395 1.03877
 C2183 C 0.50552 0.67915 0.58220
 C2184 C 0.50641 0.66386 0.57496
 C2185 C 0.50709 0.64541 0.56671
 C2186 C 0.51361 0.63013 0.57731
 C2187 C 0.51342 0.61202 0.56966
 C2188 C 0.50671 0.60912 0.55138
 C2189 C 0.50040 0.62442 0.54070
 C2190 C 0.50058 0.64253 0.54836
 C2191 C 0.50577 0.59041 0.54376
 C2192 C 0.50467 0.57478 0.53730
 H2193 H 0.51861 0.63219 0.59155
 H2194 H 0.51830 0.60029 0.57805
 H2195 H 0.49514 0.62233 0.52657
 H2196 H 0.49545 0.65423 0.54006
 C2197 C -0.00374 0.67400 0.41879
 C2198 C -0.00497 0.65905 0.42668
 C2199 C -0.00640 0.64095 0.43559
 C2200 C -0.02027 0.62821 0.42977
 C2201 C -0.02121 0.61030 0.43782
 C2202 C -0.00829 0.60505 0.45172
 C2203 C 0.00546 0.61785 0.45766
 C2204 C 0.00641 0.63576 0.44961
 C2205 C -0.00883 0.58641 0.45955
 C2206 C -0.00902 0.57076 0.46604
 H2207 H -0.03020 0.63206 0.41889
 H2208 H -0.03187 0.60050 0.43310
 H2209 H 0.01555 0.61391 0.46837
 H2210 H 0.01722 0.64548 0.45416
 C2211 C 0.49630 1.17573 -0.08027
 C2212 C 0.49501 1.16087 -0.07223
 C2213 C 0.49351 1.14284 -0.06318
 C2214 C 0.47902 1.13049 -0.06824
 C2215 C 0.47804 1.11259 -0.06015
 C2216 C 0.49155 1.10699 -0.04697
 C2217 C 0.50592 1.11942 -0.04176
 C2218 C 0.50690 1.13731 -0.04985
 C2219 C 0.49101 1.08832 -0.03920
 C2220 C 0.49085 1.07263 -0.03280
 H2221 H 0.46864 1.13460 -0.07859
 H2222 H 0.46690 1.10308 -0.06431
 H2223 H 0.51646 1.11520 -0.03161
 H2224 H 0.51820 1.14673 -0.04590
 C2225 C 0.50608 0.32135 -0.08100
 C2226 C 0.50706 0.33646 -0.07341
 C2227 C 0.50768 0.35473 -0.06480
 C2228 C 0.49358 0.36784 -0.06887
 C2229 C 0.49401 0.38564 -0.06061
 C2230 C 0.50855 0.39045 -0.04824
 C2231 C 0.52270 0.37737 -0.04418
 C2232 C 0.52228 0.35953 -0.05246
 C2233 C 0.50862 0.40871 -0.03955
 C2234 C 0.50810 0.42402 -0.03235
 H2235 H 0.48225 0.36429 -0.07840
 H2236 H 0.48298 0.39563 -0.06381
 H2237 H 0.53399 0.38094 -0.03460
 H2238 H 0.53326 0.34950 -0.04924
 C2239 C 0.00462 -0.18050 0.42018
 C2240 C 0.00551 -0.16556 0.42811
 C2241 C 0.00617 -0.14750 0.43718
 C2242 C 0.02348 -0.13900 0.44123
 C2243 C 0.02400 -0.12113 0.44944
 C2244 C 0.00721 -0.11172 0.45360
 C2245 C -0.01007 -0.12029 0.44965
 C2246 C -0.01059 -0.13813 0.44145
 C2247 C 0.00761 -0.09322 0.46174
 C2248 C 0.00757 -0.07769 0.46851
 H2249 H 0.03653 -0.14610 0.43793
 H2250 H 0.03744 -0.11463 0.45244
 H2251 H -0.02313 -0.11313 0.45279
 H2252 H -0.02405 -0.14454 0.43831
 C2253 C 0.49964 -0.17463 0.57892
 C2254 C 0.49914 -0.15977 0.57079
 C2255 C 0.49856 -0.14172 0.56167
 C2256 C 0.48333 -0.12964 0.56476
 C2257 C 0.48315 -0.11174 0.55665
 C2258 C 0.49822 -0.10583 0.54542
 C2259 C 0.51337 -0.11798 0.54220
 C2260 C 0.51355 -0.13589 0.55031
 C2261 C 0.49831 -0.08723 0.53750
 C2262 C 0.49858 -0.07163 0.53089
 H2263 H 0.47171 -0.13399 0.57360
 H2264 H 0.47138 -0.10245 0.55925
 H2265 H 0.52511 -0.11354 0.53356
 H2266 H 0.52544 -0.14508 0.54791
 C2267 C -0.00177 0.32434 1.07834
 C2268 C -0.00244 0.33920 1.07021
 C2269 C -0.00323 0.35724 1.06111
 C2270 C -0.01819 0.36948 1.06486
 C2271 C -0.01854 0.38740 1.05677
 C2272 C -0.00392 0.39315 1.04490
 C2273 C 0.01095 0.38085 1.04100
 C2274 C 0.01130 0.36293 1.04910
 C2275 C -0.00397 0.41178 1.03701
 C2276 C -0.00380 0.42739 1.03042
 H2277 H -0.02945 0.36525 1.07421
 H2278 H -0.03009 0.39680 1.05990
 H2279 H 0.02234 0.38518 1.03186
 H2280 H 0.02297 0.35362 1.04617
 C2281 C 0.75624 0.33077 0.07092
 C2282 C 0.75707 0.32275 0.08584
 C2283 C 0.75788 0.31372 0.10392
 C2284 C 0.74647 0.29813 0.10773
 C2285 C 0.74662 0.28995 0.12562
 C2286 C 0.75817 0.29735 0.13976
 C2287 C 0.76973 0.31281 0.13588
 C2288 C 0.76959 0.32099 0.11800
 C2289 C 0.75774 0.28938 0.15835
 C2290 C 0.75706 0.28273 0.17392
 H2291 H 0.73731 0.29245 0.09698
 H2292 H 0.73758 0.27802 0.12848
 H2293 H 0.77869 0.31867 0.14672
 H2294 H 0.77841 0.33309 0.11522
 C2295 C 0.25932 0.82929 0.57165
 C2296 C 0.26002 0.82129 0.58657
 C2297 C 0.26065 0.81230 0.60467
 C2298 C 0.27276 0.81915 0.61862
 C2299 C 0.27270 0.81108 0.63655
 C2300 C 0.26050 0.79615 0.64061
 C2301 C 0.24855 0.78917 0.62660
 C2302 C 0.24861 0.79723 0.60866
 C2303 C 0.25985 0.78832 0.65924
 C2304 C 0.25897 0.78176 0.67484
 H2305 H 0.28206 0.83086 0.61570
 H2306 H 0.28197 0.81661 0.64729
 H2307 H 0.23903 0.77765 0.62960
 H2308 H 0.23913 0.79190 0.59801
 C2309 C 0.74599 0.66994 0.57452
 C2310 C 0.74560 0.67802 0.58939
 C2311 C 0.74517 0.68714 0.60742
 C2312 C 0.76015 0.69861 0.61307
 C2313 C 0.76009 0.70677 0.63094
 C2314 C 0.74506 0.70348 0.64324
 C2315 C 0.72999 0.69216 0.63752
 C2316 C 0.73005 0.68400 0.61965
 C2317 C 0.74530 0.71141 0.66183
 C2318 C 0.74568 0.71798 0.67743
 H2319 H 0.77194 0.70106 0.60375
 H2320 H 0.77182 0.71548 0.63524
 H2321 H 0.71832 0.68950 0.64693
 H2322 H 0.71843 0.67509 0.61545
 C2323 C 0.24485 0.17114 0.07280
 C2324 C 0.24452 0.17939 0.08759
 C2325 C 0.24416 0.18862 0.10556
 C2326 C 0.26000 0.19841 0.11196
 C2327 C 0.26000 0.20649 0.12987
 C2328 C 0.24417 0.20479 0.14146
 C2329 C 0.22825 0.19517 0.13498
 C2330 C 0.22825 0.18709 0.11707
 C2331 C 0.24444 0.21253 0.16012
 C2332 C 0.24483 0.21892 0.17580
 H2333 H 0.27241 0.19958 0.10321
 H2334 H 0.27240 0.21387 0.13476
 H2335 H 0.21595 0.19375 0.14384
 H2336 H 0.21596 0.17947 0.11229
 C2337 C 0.25177 0.16880 0.92840
 C2338 C 0.25316 0.17604 0.91315
 C2339 C 0.25455 0.18430 0.89474
 C2340 C 0.25611 0.17270 0.87891
 C2341 C 0.25680 0.18061 0.86093
 C2342 C 0.25594 0.20016 0.85871
 C2343 C 0.25455 0.21177 0.87455
 C2344 C 0.25386 0.20386 0.89254
 C2345 C 0.25593 0.20823 0.84017
 C2346 C 0.25562 0.21496 0.82462
 H2347 H 0.25662 0.15756 0.88046
 H2348 H 0.25782 0.17150 0.84878
 H2349 H 0.25382 0.22690 0.87298
 H2350 H 0.25262 0.21295 0.90468
 C2351 C 0.75253 0.66895 0.42882
 C2352 C 0.75392 0.67655 0.41374
 C2353 C 0.75533 0.68526 0.39554
 C2354 C 0.76396 0.67566 0.38068
 C2355 C 0.76466 0.68377 0.36279
 C2356 C 0.75672 0.70151 0.35968
 C2357 C 0.74825 0.71120 0.37458
 C2358 C 0.74756 0.70309 0.39248
 C2359 C 0.75677 0.70955 0.34112
 C2360 C 0.75652 0.71626 0.32557
 H2361 H 0.76996 0.66184 0.38289
 H2362 H 0.77119 0.67613 0.35135
 H2363 H 0.74202 0.72491 0.37232
 H2364 H 0.74080 0.71061 0.40385
 C2365 C 0.24911 0.83142 0.42559
 C2366 C 0.24806 0.82413 0.41034
 C2367 C 0.24727 0.81592 0.39188
 C2368 C 0.26058 0.82117 0.37834
 C2369 C 0.25991 0.81337 0.36033
 C2370 C 0.24593 0.80028 0.35575
 C2371 C 0.23260 0.79502 0.36927
 C2372 C 0.23326 0.80284 0.38731
 C2373 C 0.24547 0.79220 0.33722
 C2374 C 0.24543 0.78550 0.32167
 H2375 H 0.27146 0.83129 0.38171
 H2376 H 0.27030 0.81752 0.35000
 H2377 H 0.22174 0.78490 0.36587
 H2378 H 0.22289 0.79870 0.39767
 C2379 C 0.74840 0.33018 0.92647
 C2380 C 0.74767 0.32266 0.91130
 C2381 C 0.74723 0.31416 0.89296
 C2382 C 0.73102 0.30496 0.88659
 C2383 C 0.73059 0.29712 0.86855
 C2384 C 0.74637 0.29848 0.85684
 C2385 C 0.76258 0.30763 0.86325
 C2386 C 0.76301 0.31546 0.88126
 C2387 C 0.74602 0.29055 0.83824
 C2388 C 0.74603 0.28396 0.82264
 H2389 H 0.71872 0.30392 0.89551
 H2390 H 0.71798 0.29007 0.86373
 H2391 H 0.77486 0.30877 0.85431
 H2392 H 0.77560 0.32259 0.88602
 C2393 C 0.83052 0.42657 0.24154
 C2394 C 0.82265 0.41159 0.24063
 C2395 C 0.81381 0.39342 0.23974
 C2396 C 0.79796 0.38956 0.25076
 C2397 C 0.78996 0.37160 0.25056
 C2398 C 0.79779 0.35743 0.23935
 C2399 C 0.81351 0.36135 0.22817
 C2400 C 0.82151 0.37931 0.22836
 C2401 C 0.78999 0.33877 0.23976
 C2402 C 0.78345 0.32316 0.24046
 H2403 H 0.79195 0.40034 0.25966
 H2404 H 0.77783 0.36869 0.25930
 H2405 H 0.81970 0.35049 0.21948
 H2406 H 0.83381 0.38214 0.21984
 C2407 C 0.33203 0.92558 0.74188
 C2408 C 0.32431 0.91051 0.74117
 C2409 C 0.31560 0.89226 0.74050
 C2410 C 0.32391 0.87780 0.73004
 C2411 C 0.31593 0.85983 0.72999
 C2412 C 0.29963 0.85624 0.74043
 C2413 C 0.29123 0.87075 0.75076
 C2414 C 0.29920 0.88872 0.75080
 C2415 C 0.29175 0.83762 0.74092
 C2416 C 0.28509 0.82205 0.74163
 H2417 H 0.33663 0.88038 0.72208
 H2418 H 0.32256 0.84871 0.72199
 H2419 H 0.27863 0.86811 0.75891
 H2420 H 0.29271 0.89978 0.75900
 C2421 C 0.16947 0.92938 0.25276
 C2422 C 0.17755 0.91449 0.25319
 C2423 C 0.18662 0.89644 0.25367
 C2424 C 0.18259 0.88379 0.26823
 C2425 C 0.19067 0.86589 0.26825
 C2426 C 0.20281 0.86055 0.25371
 C2427 C 0.20698 0.87326 0.23924
 C2428 C 0.19890 0.89117 0.23922
 C2429 C 0.21066 0.84193 0.25342
 C2430 C 0.21717 0.82630 0.25304
 H2431 H 0.17304 0.88770 0.27942
 H2432 H 0.18733 0.85616 0.27949
 H2433 H 0.21633 0.86926 0.22791
 H2434 H 0.20204 0.90081 0.22785
 C2435 C 0.67006 0.42843 0.75436
 C2436 C 0.67802 0.41349 0.75484
 C2437 C 0.68691 0.39536 0.75537
 C2438 C 0.67847 0.38063 0.76537
 C2439 C 0.68662 0.36275 0.76533
 C2440 C 0.70323 0.35954 0.75529
 C2441 C 0.71177 0.37430 0.74542
 C2442 C 0.70362 0.39219 0.74546
 C2443 C 0.71123 0.34099 0.75476
 C2444 C 0.71782 0.32541 0.75418
 H2445 H 0.66552 0.38291 0.77303
 H2446 H 0.67988 0.35143 0.77298
 H2447 H 0.72460 0.37195 0.73758
 H2448 H 0.71022 0.40347 0.73763
 C2449 C 0.66917 0.57434 0.74946
 C2450 C 0.67671 0.58950 0.74864
 C2451 C 0.68528 0.60781 0.74800
 C2452 C 0.69855 0.61217 0.73412
 C2453 C 0.70669 0.63008 0.73354
 C2454 C 0.70156 0.64367 0.74683
 C2455 C 0.68829 0.63929 0.76070
 C2456 C 0.68016 0.62141 0.76127
 C2457 C 0.70995 0.66207 0.74643
 C2458 C 0.71690 0.67752 0.74645
 H2459 H 0.70258 0.60176 0.72377
 H2460 H 0.71696 0.63332 0.72278
 H2461 H 0.68424 0.64968 0.77105
 H2462 H 0.66989 0.61819 0.77205
 C2463 C 0.16940 0.07381 0.24624
 C2464 C 0.17690 0.08897 0.24508
 C2465 C 0.18544 0.10727 0.24400
 C2466 C 0.17470 0.12280 0.23841
 C2467 C 0.18273 0.14074 0.23806
 C2468 C 0.20154 0.14324 0.24330
 C2469 C 0.21234 0.12769 0.24873
 C2470 C 0.20431 0.10974 0.24909
 C2471 C 0.20962 0.16178 0.24356
 C2472 C 0.21637 0.17732 0.24401
 H2473 H 0.16008 0.12107 0.23451
 H2474 H 0.17424 0.15267 0.23388
 H2475 H 0.22689 0.12946 0.25286
 H2476 H 0.21272 0.09785 0.25350
 C2477 C 0.33039 0.07150 0.75189
 C2478 C 0.32259 0.08648 0.75315
 C2479 C 0.31369 0.10460 0.75432
 C2480 C 0.29927 0.10932 0.74177
 C2481 C 0.29123 0.12724 0.74231
 C2482 C 0.29757 0.14052 0.75540
 C2483 C 0.31186 0.13574 0.76808
 C2484 C 0.31991 0.11782 0.76753
 C2485 C 0.28968 0.15914 0.75552
 C2486 C 0.28307 0.17474 0.75538
 H2487 H 0.29442 0.09924 0.73144
 H2488 H 0.28021 0.13080 0.73242
 H2489 H 0.31689 0.14591 0.77823
 H2490 H 0.33111 0.11434 0.77725
 C2491 C 0.83054 0.57235 0.25288
 C2492 C 0.82297 0.58744 0.25428
 C2493 C 0.81438 0.60569 0.25564
 C2494 C 0.82444 0.62073 0.26343
 C2495 C 0.81648 0.63868 0.26399
 C2496 C 0.79843 0.64169 0.25674
 C2497 C 0.78828 0.62661 0.24912
 C2498 C 0.79624 0.60865 0.24856
 C2499 C 0.79052 0.66030 0.25667
 C2500 C 0.78395 0.67591 0.25640
 H2501 H 0.83850 0.61862 0.26888
 H2502 H 0.82447 0.65024 0.26987
 H2503 H 0.77432 0.62878 0.24344
 H2504 H 0.78836 0.59715 0.24244
 C2505 C 0.92687 0.25760 0.16726
 C2506 C 0.91178 0.25837 0.17492
 C2507 C 0.89350 0.25910 0.18354
 C2508 C 0.89031 0.25014 0.20078
 C2509 C 0.87232 0.25017 0.20871
 C2510 C 0.85746 0.25915 0.19942
 C2511 C 0.86069 0.26828 0.18227
 C2512 C 0.87868 0.26825 0.17435
 C2513 C 0.83883 0.25855 0.20726
 C2514 C 0.82327 0.25769 0.21390
 H2515 H 0.90165 0.24296 0.20797
 H2516 H 0.86996 0.24302 0.22195
 H2517 H 0.84929 0.27523 0.17495
 H2518 H 0.88098 0.27517 0.16098
 C2519 C 0.42805 0.75725 0.66878
 C2520 C 0.41298 0.75782 0.67649
 C2521 C 0.39473 0.75833 0.68517
 C2522 C 0.39135 0.74824 0.70174
 C2523 C 0.37336 0.74808 0.70967
 C2524 C 0.35869 0.75800 0.70106
 C2525 C 0.36211 0.76823 0.68458
 C2526 C 0.38010 0.76839 0.67665
 C2527 C 0.34006 0.75729 0.70889
 C2528 C 0.32448 0.75640 0.71547
 H2529 H 0.40254 0.74035 0.70840
 H2530 H 0.37086 0.74008 0.72239
 H2531 H 0.35086 0.77592 0.67779
 H2532 H 0.38254 0.77618 0.66379
 C2533 C 0.42777 0.24543 0.83020
 C2534 C 0.41278 0.24473 0.82234
 C2535 C 0.39461 0.24395 0.81351
 C2536 C 0.38163 0.23016 0.81895
 C2537 C 0.36365 0.22986 0.81101
 C2538 C 0.35859 0.24336 0.79759
 C2539 C 0.37162 0.25704 0.79202
 C2540 C 0.38960 0.25734 0.79997
 C2541 C 0.33991 0.24342 0.78985
 C2542 C 0.32424 0.24368 0.78343
 H2543 H 0.38533 0.21979 0.82947
 H2544 H 0.35367 0.21924 0.81544
 H2545 H 0.36784 0.26756 0.78168
 H2546 H 0.39951 0.26811 0.79571
 C2547 C 0.92885 0.74465 0.33098
 C2548 C 0.91388 0.74412 0.32305
 C2549 C 0.89573 0.74357 0.31417
 C2550 C 0.88245 0.73013 0.31979
 C2551 C 0.86449 0.73010 0.31182
 C2552 C 0.85972 0.74351 0.29821
 C2553 C 0.87305 0.75683 0.29245
 C2554 C 0.89102 0.75687 0.30042
 C2555 C 0.84106 0.74385 0.29045
 C2556 C 0.82540 0.74430 0.28402
 H2557 H 0.88592 0.71984 0.33047
 H2558 H 0.85428 0.71975 0.31639
 H2559 H 0.86950 0.76728 0.28196
 H2560 H 0.90115 0.76736 0.29604
 C2561 C 0.07301 0.75298 0.32953
 C2562 C 0.08800 0.75442 0.32176
 C2563 C 0.10609 0.75588 0.31285
 C2564 C 0.12038 0.76654 0.32124
 C2565 C 0.13823 0.76731 0.31304
 C2566 C 0.14186 0.75742 0.29641
 C2567 C 0.12751 0.74692 0.28792
 C2568 C 0.10967 0.74615 0.29612
 C2569 C 0.16040 0.75760 0.28834
 C2570 C 0.17594 0.75742 0.28162
 H2571 H 0.11778 0.77406 0.33422
 H2572 H 0.14923 0.77543 0.31975
 H2573 H 0.13018 0.73918 0.27508
 H2574 H 0.09875 0.73781 0.28955
 C2575 C 0.57354 0.25309 0.82955
 C2576 C 0.58855 0.25436 0.82181
 C2577 C 0.60668 0.25563 0.81294
 C2578 C 0.62075 0.26691 0.82086
 C2579 C 0.63864 0.26753 0.81273
 C2580 C 0.64251 0.25686 0.79665
 C2581 C 0.62838 0.24573 0.78862
 C2582 C 0.61050 0.24512 0.79675
 C2583 C 0.66109 0.25692 0.78867
 C2584 C 0.67666 0.25668 0.78202
 H2585 H 0.61796 0.27505 0.83342
 H2586 H 0.64947 0.27615 0.81908
 H2587 H 0.63124 0.23740 0.77621
 H2588 H 0.59974 0.23630 0.79055
 C2589 C 0.57400 0.74899 0.67040
 C2590 C 0.58900 0.74798 0.67821
 C2591 C 0.60714 0.74707 0.68711
 C2592 C 0.61146 0.75923 0.70199
 C2593 C 0.62938 0.75894 0.71006
 C2594 C 0.64306 0.74651 0.70328
 C2595 C 0.63868 0.73424 0.68852
 C2596 C 0.62076 0.73452 0.68045
 C2597 C 0.66165 0.74662 0.71124
 C2598 C 0.67723 0.74689 0.71789
 H2599 H 0.60106 0.76904 0.70719
 H2600 H 0.63262 0.76851 0.72145
 H2601 H 0.64916 0.72459 0.68316
 H2602 H 0.61759 0.72512 0.66890
 C2603 C 0.07291 0.24889 0.16922
 C2604 C 0.08792 0.24791 0.17702
 C2605 C 0.10607 0.24704 0.18592
 C2606 C 0.11941 0.23390 0.17985
 C2607 C 0.13734 0.23362 0.18791
 C2608 C 0.14201 0.24650 0.20205
 C2609 C 0.12862 0.25953 0.20824
 C2610 C 0.11069 0.25981 0.20018
 C2611 C 0.16062 0.24658 0.20999
 C2612 C 0.17620 0.24683 0.21664
 H2613 H 0.11601 0.22402 0.16878
 H2614 H 0.14759 0.22350 0.18300
 H2615 H 0.13209 0.26956 0.21915
 H2616 H 0.10051 0.27008 0.20493
 C2617 C -0.08116 1.00177 0.82464
 C2618 C -0.07385 1.00046 0.83987
 C2619 C -0.06575 0.99879 0.85833
 C2620 C -0.07673 0.99207 0.87324
 C2621 C -0.06911 0.99078 0.89131
 C2622 C -0.05047 0.99621 0.89456
 C2623 C -0.03943 1.00281 0.87962
 C2624 C -0.04706 1.00409 0.86154
 C2625 C -0.04284 0.99551 0.91328
 C2626 C -0.03648 0.99529 0.92899
 H2627 H -0.09121 0.98795 0.87093
 H2628 H -0.07779 0.98572 0.90276
 H2629 H -0.02501 1.00710 0.88199
 H2630 H -0.03845 1.00933 0.85012
 C2631 C 0.41739 0.50201 0.32687
 C2632 C 0.42471 0.50071 0.34210
 C2633 C 0.43284 0.49905 0.36054
 C2634 C 0.42127 0.49511 0.37599
 C2635 C 0.42899 0.49373 0.39401
 C2636 C 0.44833 0.49627 0.39666
 C2637 C 0.45993 0.50010 0.38121
 C2638 C 0.45220 0.50148 0.36317
 C2639 C 0.45615 0.49551 0.41530
 C2640 C 0.46267 0.49527 0.43094
 H2641 H 0.40627 0.49321 0.37412
 H2642 H 0.41988 0.49083 0.40586
 H2643 H 0.47490 0.50216 0.38312
 H2644 H 0.46127 0.50454 0.35133
 C2645 C 0.58395 0.00259 0.32002
 C2646 C 0.57645 0.00332 0.33520
 C2647 C 0.56792 0.00459 0.35349
 C2648 C 0.57068 0.02070 0.36450
 C2649 C 0.56280 0.02183 0.38247
 C2650 C 0.55213 0.00685 0.38952
 C2651 C 0.54929 -0.00921 0.37847
 C2652 C 0.55717 -0.01035 0.36050
 C2653 C 0.54432 0.00776 0.40815
 C2654 C 0.53772 0.00804 0.42375
 H2655 H 0.57901 0.03232 0.35922
 H2656 H 0.56511 0.03430 0.39089
 H2657 H 0.54108 -0.02089 0.38380
 H2658 H 0.55498 -0.02288 0.35214
 C2659 C 0.08201 0.50224 0.82009
 C2660 C 0.07446 0.50320 0.83523
 C2661 C 0.06585 0.50468 0.85347
 C2662 C 0.07196 0.51850 0.86611
 C2663 C 0.06393 0.51974 0.88401
 C2664 C 0.04973 0.50717 0.88934
 C2665 C 0.04353 0.49343 0.87666
 C2666 C 0.05157 0.49219 0.85876
 C2667 C 0.04184 0.50798 0.90796
 C2668 C 0.03520 0.50810 0.92354
 H2669 H 0.08301 0.52822 0.86218
 H2670 H 0.06887 0.53038 0.89372
 H2671 H 0.03260 0.48360 0.88065
 H2672 H 0.04675 0.48144 0.84911
 C2673 C 0.07672 0.49559 0.67467
 C2674 C 0.06831 0.49378 0.66007
 C2675 C 0.05883 0.49161 0.64232
 C2676 C 0.04296 0.50247 0.63815
 C2677 C 0.03440 0.50105 0.62050
 C2678 C 0.04169 0.48876 0.60695
 C2679 C 0.05740 0.47770 0.61122
 C2680 C 0.06595 0.47912 0.62887
 C2681 C 0.03362 0.48825 0.58841
 C2682 C 0.02702 0.48843 0.57280
 H2683 H 0.03738 0.51223 0.64842
 H2684 H 0.02232 0.50974 0.61732
 H2685 H 0.06321 0.46822 0.60082
 H2686 H 0.07826 0.47071 0.63192
 C2687 C 0.57745 0.99707 0.17530
 C2688 C 0.56895 0.99541 0.16073
 C2689 C 0.55939 0.99343 0.14302
 C2690 C 0.56581 0.98031 0.12982
 C2691 C 0.55722 0.97902 0.11218
 C2692 C 0.54215 0.99085 0.10768
 C2693 C 0.53555 1.00379 0.12097
 C2694 C 0.54415 1.00508 0.13861
 C2695 C 0.53404 0.99039 0.08915
 C2696 C 0.52741 0.99056 0.07356
 H2697 H 0.57764 0.97128 0.13306
 H2698 H 0.56249 0.96904 0.10198
 H2699 H 0.52397 1.01307 0.11759
 H2700 H 0.53912 1.01532 0.14868
 C2701 C 0.42060 0.49913 0.18077
 C2702 C 0.42872 0.49893 0.16590
 C2703 C 0.43789 0.49914 0.14787
 C2704 C 0.43897 0.48267 0.13713
 C2705 C 0.44704 0.48312 0.11921
 C2706 C 0.45405 0.50005 0.11193
 C2707 C 0.45312 0.51648 0.12273
 C2708 C 0.44506 0.51603 0.14065
 C2709 C 0.46186 0.50056 0.09327
 C2710 C 0.46827 0.50077 0.07758
 H2711 H 0.43338 0.46956 0.14252
 H2712 H 0.44765 0.47034 0.11097
 H2713 H 0.45847 0.52964 0.11723
 H2714 H 0.44421 0.52886 0.14879
 C2715 C -0.07894 0.00050 0.67942
 C2716 C -0.07098 0.00048 0.66446
 C2717 C -0.06199 0.00093 0.64634
 C2718 C -0.05897 0.01817 0.63728
 C2719 C -0.05096 0.01865 0.61934
 C2720 C -0.04595 0.00187 0.61035
 C2721 C -0.04885 -0.01537 0.61946
 C2722 C -0.05687 -0.01584 0.63741
 C2723 C -0.03803 0.00225 0.59174
 C2724 C -0.03139 0.00218 0.57615
 H2725 H -0.06295 0.03123 0.64403
 H2726 H -0.04879 0.03205 0.61243
 H2727 H -0.04504 -0.02844 0.61264
 H2728 H -0.05921 -0.02926 0.64424
 C2729 C -0.18193 0.92176 1.00312
 C2730 C -0.16706 0.92989 1.00299
 C2731 C -0.14903 0.93906 1.00235
 C2732 C -0.13835 0.94107 1.01877
 C2733 C -0.12041 0.94908 1.01792
 C2734 C -0.11306 0.95509 1.00065
 C2735 C -0.12382 0.95325 0.98426
 C2736 C -0.14176 0.94524 0.98511
 C2737 C -0.09437 0.96280 0.99975
 C2738 C -0.07865 0.96911 0.99928
 H2739 H -0.14379 0.93626 1.03215
 H2740 H -0.11220 0.95042 1.03068
 H2741 H -0.11827 0.95782 0.97084
 H2742 H -0.14986 0.94366 0.97232
 C2743 C 0.31827 0.42092 0.50359
 C2744 C 0.33311 0.42913 0.50375
 C2745 C 0.35109 0.43841 0.50348
 C2746 C 0.36201 0.43932 0.51983
 C2747 C 0.37990 0.44747 0.51929
 C2748 C 0.38695 0.45473 0.50238
 C2749 C 0.37595 0.45398 0.48606
 C2750 C 0.35806 0.44583 0.48661
 C2751 C 0.40559 0.46259 0.50174
 C2752 C 0.42127 0.46902 0.50140
 H2753 H 0.35679 0.43354 0.53293
 H2754 H 0.38829 0.44796 0.53199
 H2755 H 0.38127 0.45953 0.47291
 H2756 H 0.34978 0.44512 0.47386
 C2757 C 0.32313 0.57657 0.00085
 C2758 C 0.33781 0.56826 0.00240
 C2759 C 0.35567 0.55898 0.00436
 C2760 C 0.36751 0.56356 0.01942
 C2761 C 0.38529 0.55532 0.02086
 C2762 C 0.39131 0.54246 0.00724
 C2763 C 0.37938 0.53769 -0.00770
 C2764 C 0.36159 0.54594 -0.00914
 C2765 C 0.40996 0.53470 0.00815
 C2766 C 0.42566 0.52835 0.00848
 H2767 H 0.36310 0.57369 0.02989
 H2768 H 0.39443 0.55916 0.03242
 H2769 H 0.38392 0.52781 -0.01835
 H2770 H 0.35259 0.54236 -0.02088
 C2771 C -0.17378 0.07782 0.50158
 C2772 C -0.15918 0.06944 0.50342
 C2773 C -0.14143 0.06001 0.50567
 C2774 C -0.12812 0.06706 0.51836
 C2775 C -0.11048 0.05853 0.51992
 C2776 C -0.10609 0.04290 0.50881
 C2777 C -0.11950 0.03569 0.49630
 C2778 C -0.13713 0.04422 0.49473
 C2779 C -0.08758 0.03480 0.50955
 C2780 C -0.07200 0.02817 0.50959
 H2781 H -0.13127 0.07931 0.52683
 H2782 H -0.10020 0.06429 0.52957
 H2783 H -0.11621 0.02366 0.48756
 H2784 H -0.14729 0.03869 0.48482
 C2785 C 0.68077 0.08300 0.49619
 C2786 C 0.66561 0.07546 0.49539
 C2787 C 0.64734 0.06685 0.49409
 C2788 C 0.63517 0.07186 0.47943
 C2789 C 0.61725 0.06384 0.47831
 C2790 C 0.61143 0.05076 0.49184
 C2791 C 0.62365 0.04567 0.50644
 C2792 C 0.64157 0.05370 0.50756
 C2793 C 0.59283 0.04284 0.49106
 C2794 C 0.57725 0.03617 0.49092
 H2795 H 0.63948 0.08205 0.46895
 H2796 H 0.60790 0.06792 0.46700
 H2797 H 0.61928 0.03561 0.51701
 H2798 H 0.65085 0.04975 0.51896
 C2799 C 0.17870 0.58148 0.99666
 C2800 C 0.16365 0.57373 0.99580
 C2801 C 0.14548 0.56492 0.99439
 C2802 C 0.13890 0.55332 1.00888
 C2803 C 0.12103 0.54521 1.00765
 C2804 C 0.10966 0.54867 0.99193
 C2805 C 0.11628 0.56018 0.97739
 C2806 C 0.13416 0.56828 0.97862
 C2807 C 0.09105 0.54076 0.99102
 C2808 C 0.07544 0.53417 0.99076
 H2809 H 0.14752 0.55066 1.02115
 H2810 H 0.11602 0.53637 1.01900
 H2811 H 0.10760 0.56299 0.96520
 H2812 H 0.13910 0.57727 0.96735
 C2813 C 0.17246 0.41771 0.50135
 C2814 C 0.15731 0.42518 0.50264
 C2815 C 0.13899 0.43356 0.50425
 C2816 C 0.13555 0.45143 0.49671
 C2817 C 0.11755 0.45925 0.49781
 C2818 C 0.10294 0.44924 0.50645
 C2819 C 0.10642 0.43145 0.51414
 C2820 C 0.12441 0.42364 0.51304
 C2821 C 0.08425 0.45695 0.50680
 C2822 C 0.06862 0.46345 0.50659
 H2823 H 0.14670 0.45921 0.48985
 H2824 H 0.11498 0.47298 0.49175
 H2825 H 0.09521 0.42356 0.52078
 H2826 H 0.12692 0.40979 0.51888
 C2827 C 0.67222 0.91884 0.00191
 C2828 C 0.65711 0.92638 0.00312
 C2829 C 0.63883 0.93487 0.00459
 C2830 C 0.63353 0.94916 -0.00787
 C2831 C 0.61549 0.95688 -0.00687
 C2832 C 0.60268 0.95034 0.00659
 C2833 C 0.60802 0.93617 0.01917
 C2834 C 0.62607 0.92845 0.01817
 C2835 C 0.58393 0.95789 0.00709
 C2836 C 0.56828 0.96434 0.00697
 H2837 H 0.64325 0.95418 -0.01846
 H2838 H 0.61148 0.96780 -0.01670
 H2839 H 0.59822 0.93099 0.02961
 H2840 H 0.63000 0.91736 0.02784
 C2841 C -0.00025 0.82356 0.92334
 C2842 C -0.00207 0.83819 0.93170
 C2843 C -0.00432 0.85597 0.94108
 C2844 C -0.01953 0.86761 0.93650
 C2845 C -0.02122 0.88534 0.94482
 C2846 C -0.00771 0.89150 0.95775
 C2847 C 0.00737 0.87976 0.96250
 C2848 C 0.00906 0.86203 0.95419
 C2849 C -0.00882 0.91015 0.96551
 C2850 C -0.00923 0.92587 0.97181
 H2851 H -0.02991 0.86310 0.92631
 H2852 H -0.03289 0.89434 0.94096
 H2853 H 0.01794 0.88442 0.97242
 H2854 H 0.02092 0.85318 0.95776
 C2855 C 0.49861 0.32439 0.42364
 C2856 C 0.49688 0.33884 0.43231
 C2857 C 0.49473 0.35642 0.44207
 C2858 C 0.47913 0.36785 0.43837
 C2859 C 0.47753 0.38545 0.44699
 C2860 C 0.49154 0.39169 0.45934
 C2861 C 0.50700 0.38014 0.46325
 C2862 C 0.50860 0.36254 0.45463
 C2863 C 0.49056 0.41026 0.46729
 C2864 C 0.49025 0.42595 0.47367
 H2865 H 0.46836 0.36329 0.42861
 H2866 H 0.46556 0.39429 0.44379
 H2867 H 0.51796 0.38487 0.47271
 H2868 H 0.52077 0.35386 0.45753
 C2869 C -0.00006 0.31907 0.57950
 C2870 C -0.00016 0.33402 0.57148
 C2871 C 0.00009 0.35211 0.56241
 C2872 C 0.01726 0.36110 0.55884
 C2873 C 0.01755 0.37903 0.55075
 C2874 C 0.00066 0.38806 0.54620
 C2875 C -0.01651 0.37901 0.54963
 C2876 C -0.01679 0.36108 0.55773
 C2877 C 0.00087 0.40668 0.53825
 C2878 C 0.00071 0.42230 0.53166
 H2879 H 0.03040 0.35433 0.56248
 H2880 H 0.03090 0.38589 0.54817
 H2881 H -0.02965 0.38587 0.54618
 H2882 H -0.03015 0.35431 0.56049
 C2883 C 0.50012 0.82074 0.07991
 C2884 C 0.50013 0.83566 0.07186
 C2885 C 0.50052 0.85372 0.06272
 C2886 C 0.51751 0.86358 0.06114
 C2887 C 0.51785 0.88146 0.05295
 C2888 C 0.50119 0.88957 0.04631
 C2889 C 0.48422 0.87965 0.04775
 C2890 C 0.48388 0.86177 0.05594
 C2891 C 0.50139 0.90818 0.03833
 C2892 C 0.50122 0.92380 0.03173
 H2893 H 0.53045 0.85752 0.06640
 H2894 H 0.53104 0.88900 0.05193
 H2895 H 0.47124 0.88580 0.04268
 H2896 H 0.47065 0.85431 0.05715
 C2897 C 0.50167 0.67476 0.08161
 C2898 C 0.50044 0.65969 0.07397
 C2899 C 0.49885 0.64144 0.06539
 C2900 C 0.51149 0.63595 0.05135
 C2901 C 0.51030 0.61795 0.04354
 C2902 C 0.49647 0.60535 0.04976
 C2903 C 0.48373 0.61089 0.06370
 C2904 C 0.48492 0.62890 0.07150
 C2905 C 0.49568 0.58663 0.04215
 C2906 C 0.49538 0.57093 0.03579
 H2907 H 0.52235 0.64551 0.04656
 H2908 H 0.52025 0.61379 0.03280
 H2909 H 0.47301 0.60126 0.06864
 H2910 H 0.47511 0.63298 0.08240
 C2911 C 0.00080 0.17356 0.58166
 C2912 C -0.00050 0.15837 0.57426
 C2913 C -0.00210 0.14000 0.56596
 C2914 C -0.01130 0.12557 0.57575
 C2915 C -0.01240 0.10753 0.56803
 C2916 C -0.00430 0.10383 0.55047
 C2917 C 0.00476 0.11829 0.54061
 C2918 C 0.00586 0.13634 0.54833
 C2919 C -0.00474 0.08511 0.54282
 C2920 C -0.00465 0.06946 0.53633
 H2921 H -0.01747 0.12823 0.58941
 H2922 H -0.01938 0.09644 0.57580
 H2923 H 0.01113 0.11557 0.52705
 H2924 H 0.01304 0.14737 0.54066
 C2925 C 0.50384 0.17951 0.41716
 C2926 C 0.50483 0.16441 0.42478
 C2927 C 0.50634 0.14620 0.43348
 C2928 C 0.52139 0.13436 0.42889
 C2929 C 0.52269 0.11647 0.43696
 C2930 C 0.50895 0.11035 0.44966
 C2931 C 0.49396 0.12223 0.45434
 C2932 C 0.49266 0.14012 0.44627
 C2933 C 0.50989 0.09174 0.45755
 C2934 C 0.51016 0.07613 0.46416
 H2935 H 0.53203 0.13891 0.41899
 H2936 H 0.53431 0.10738 0.43320
 H2937 H 0.48323 0.11762 0.46411
 H2938 H 0.48095 0.14914 0.44990
 C2939 C 0.00373 0.67919 0.91767
 C2940 C 0.00426 0.66399 0.92517
 C2941 C 0.00525 0.64566 0.93370
 C2942 C 0.02170 0.63496 0.93206
 C2943 C 0.02257 0.61694 0.93989
 C2944 C 0.00699 0.60953 0.94938
 C2945 C -0.00942 0.62028 0.95111
 C2946 C -0.01029 0.63831 0.94329
 C2947 C 0.00765 0.59084 0.95711
 C2948 C 0.00775 0.57519 0.96362
 H2949 H 0.03379 0.64050 0.92464
 H2950 H 0.03532 0.60875 0.93844
 H2951 H -0.02157 0.61468 0.95841
 H2952 H -0.02310 0.64643 0.94460
 C2953 C 0.25178 0.67054 0.92668
 C2954 C 0.25041 0.67862 0.91184
 C2955 C 0.24864 0.68764 0.89383
 C2956 C 0.23304 0.68381 0.88243
 C2957 C 0.23172 0.69178 0.86450
 C2958 C 0.24602 0.70362 0.85790
 C2959 C 0.26151 0.70763 0.86939
 C2960 C 0.26282 0.69965 0.88732
 C2961 C 0.24516 0.71114 0.83914
 C2962 C 0.24491 0.71731 0.82336
 H2963 H 0.22203 0.67447 0.88729
 H2964 H 0.21972 0.68853 0.85571
 H2965 H 0.27267 0.71672 0.86440
 H2966 H 0.27498 0.70265 0.89598
 C2967 C 0.75466 0.17155 0.42583
 C2968 C 0.75296 0.17951 0.41096
 C2969 C 0.75073 0.18841 0.39293
 C2970 C 0.73562 0.18338 0.38133
 C2971 C 0.73386 0.19131 0.36343
 C2972 C 0.74720 0.20432 0.35705
 C2973 C 0.76220 0.20951 0.36873
 C2974 C 0.76396 0.20157 0.38663
 C2975 C 0.74593 0.21184 0.33831
 C2976 C 0.74534 0.21802 0.32254
 H2977 H 0.72535 0.17315 0.38603
 H2978 H 0.72225 0.18715 0.35449
 H2979 H 0.77263 0.21951 0.36391
 H2980 H 0.77573 0.20551 0.39545
 C2981 C 0.25052 0.32933 0.42801
 C2982 C 0.25219 0.32152 0.41307
 C2983 C 0.25417 0.31276 0.39495
 C2984 C 0.26581 0.32096 0.38132
 C2985 C 0.26711 0.31300 0.36340
 C2986 C 0.25678 0.29681 0.35903
 C2987 C 0.24532 0.28849 0.37273
 C2988 C 0.24401 0.29645 0.39065
 C2989 C 0.25733 0.28915 0.34033
 C2990 C 0.25727 0.28276 0.32464
 H2991 H 0.27367 0.33362 0.38448
 H2992 H 0.27596 0.31960 0.35290
 H2993 H 0.23721 0.27601 0.36948
 H2994 H 0.23492 0.29004 0.40106
 C2995 C 0.75039 0.83010 0.92880
 C2996 C 0.75226 0.82232 0.91387
 C2997 C 0.75447 0.81363 0.89575
 C2998 C 0.74517 0.79677 0.89162
 C2999 C 0.74670 0.78884 0.87370
 C3000 C 0.75753 0.79773 0.85984
 C3001 C 0.76700 0.81448 0.86404
 C3002 C 0.76548 0.82241 0.88195
 C3003 C 0.75826 0.79004 0.84115
 C3004 C 0.75833 0.78359 0.82548
 H3005 H 0.73657 0.78991 0.90215
 H3006 H 0.73925 0.77592 0.87057
 H3007 H 0.77534 0.82151 0.85341
 H3008 H 0.77267 0.83549 0.88498
 C3009 C 0.74611 0.83139 0.07501
 C3010 C 0.74574 0.82371 0.09012
 C3011 C 0.74492 0.81498 0.10835
 C3012 C 0.72925 0.81788 0.11993
 C3013 C 0.72858 0.80981 0.13785
 C3014 C 0.74358 0.79880 0.14427
 C3015 C 0.75920 0.79581 0.13265
 C3016 C 0.75987 0.80388 0.11473
 C3017 C 0.74317 0.79082 0.16286
 C3018 C 0.74333 0.78411 0.17842
 H3019 H 0.71763 0.82648 0.11515
 H3020 H 0.71646 0.81225 0.14673
 H3021 H 0.77090 0.78735 0.13749
 H3022 H 0.77207 0.80158 0.10592
 C3023 C 0.24609 0.32972 0.57396
 C3024 C 0.24566 0.32191 0.58899
 C3025 C 0.24478 0.31302 0.60715
 C3026 C 0.26075 0.30439 0.61476
 C3027 C 0.25999 0.29631 0.63267
 C3028 C 0.24326 0.29684 0.64306
 C3029 C 0.22725 0.30536 0.63541
 C3030 C 0.22802 0.31344 0.61749
 C3031 C 0.24269 0.28888 0.66166
 C3032 C 0.24268 0.28221 0.67724
 H3033 H 0.27379 0.30404 0.60692
 H3034 H 0.27246 0.28977 0.63847
 H3035 H 0.21426 0.30588 0.64332
 H3036 H 0.21560 0.32014 0.61177
 C3037 C 0.75440 0.16994 0.57144
 C3038 C 0.75460 0.17787 0.58641
 C3039 C 0.75516 0.18692 0.60450
 C3040 C 0.73873 0.19434 0.61237
 C3041 C 0.73922 0.20255 0.63022
 C3042 C 0.75613 0.20337 0.64029
 C3043 C 0.77260 0.19605 0.63236
 C3044 C 0.77211 0.18785 0.61451
 C3045 C 0.75646 0.21140 0.65885
 C3046 C 0.75636 0.21806 0.67442
 H3047 H 0.72554 0.19365 0.60479
 H3048 H 0.72640 0.20814 0.63623
 H3049 H 0.78574 0.19658 0.64002
 H3050 H 0.78489 0.18209 0.60858
 C3051 C 0.25212 0.66882 0.07185
 C3052 C 0.25263 0.67698 0.08669
 C3053 C 0.25357 0.68632 0.10460
 C3054 C 0.27016 0.68559 0.11521
 C3055 C 0.27097 0.69415 0.13288
 C3056 C 0.25519 0.70348 0.14003
 C3057 C 0.23864 0.70433 0.12936
 C3058 C 0.23784 0.69577 0.11169
 C3059 C 0.25575 0.71181 0.15845
 C3060 C 0.25578 0.71869 0.17393
 H3061 H 0.28240 0.67827 0.10988
 H3062 H 0.28381 0.69336 0.14103
 H3063 H 0.22634 0.71147 0.13478
 H3064 H 0.22493 0.69638 0.10364
 C3065 C 0.17091 0.57141 0.74528
 C3066 C 0.17899 0.58624 0.74673
 C3067 C 0.18808 0.60421 0.74865
 C3068 C 0.19974 0.61102 0.73433
 C3069 C 0.20787 0.62887 0.73588
 C3070 C 0.20436 0.63998 0.75176
 C3071 C 0.19284 0.63309 0.76617
 C3072 C 0.18472 0.61525 0.76462
 C3073 C 0.21210 0.65863 0.75292
 C3074 C 0.21848 0.67433 0.75346
 H3075 H 0.20237 0.60265 0.72189
 H3076 H 0.21670 0.63408 0.72462
 H3077 H 0.18998 0.64158 0.77847
 H3078 H 0.17566 0.61015 0.77575
 C3079 C 0.67149 0.07157 0.24535
 C3080 C 0.67962 0.08638 0.24672
 C3081 C 0.68873 0.10436 0.24851
 C3082 C 0.69895 0.11184 0.23343
 C3083 C 0.70694 0.12975 0.23487
 C3084 C 0.70474 0.14026 0.25138
 C3085 C 0.69472 0.13268 0.26654
 C3086 C 0.68673 0.11477 0.26511
 C3087 C 0.71228 0.15900 0.25247
 C3088 C 0.71847 0.17477 0.25293
 H3089 H 0.70051 0.10395 0.22051
 H3090 H 0.71463 0.13550 0.22304
 H3091 H 0.69289 0.14070 0.27935
 H3092 H 0.67878 0.10915 0.27682
 C3093 C 0.82973 0.07395 0.74729
 C3094 C 0.82182 0.08882 0.74551
 C3095 C 0.81303 0.10691 0.74342
 C3096 C 0.79630 0.11095 0.75296
 C3097 C 0.78834 0.12888 0.75165
 C3098 C 0.79708 0.14283 0.74080
 C3099 C 0.81368 0.13871 0.73107
 C3100 C 0.82163 0.12078 0.73238
 C3101 C 0.78944 0.16154 0.74036
 C3102 C 0.78304 0.17723 0.74056
 H3103 H 0.78957 0.10036 0.76159
 H3104 H 0.77554 0.13195 0.75930
 H3105 H 0.82060 0.14941 0.72272
 H3106 H 0.83462 0.11782 0.72501
 C3107 C 0.32884 0.57455 0.24812
 C3108 C 0.32097 0.58945 0.24637
 C3109 C 0.31217 0.60754 0.24433
 C3110 C 0.29592 0.61187 0.25456
 C3111 C 0.28797 0.62979 0.25324
 C3112 C 0.29622 0.64347 0.24169
 C3113 C 0.31234 0.63907 0.23129
 C3114 C 0.32029 0.62114 0.23261
 C3115 C 0.28858 0.66218 0.24114
 C3116 C 0.28219 0.67787 0.24118
 H3117 H 0.28957 0.60148 0.26372
 H3118 H 0.27554 0.63307 0.26140
 H3119 H 0.31888 0.64955 0.22237
 H3120 H 0.33290 0.61797 0.22469
 C3121 C 0.33042 0.42839 0.25351
 C3122 C 0.32281 0.41325 0.25402
 C3123 C 0.31418 0.39496 0.25499
 C3124 C 0.30409 0.38792 0.23963
 C3125 C 0.29618 0.36993 0.24046
 C3126 C 0.29833 0.35891 0.25666
 C3127 C 0.30833 0.36599 0.27206
 C3128 C 0.31624 0.38398 0.27123
 C3129 C 0.29052 0.34024 0.25726
 C3130 C 0.28395 0.32461 0.25729
 H3131 H 0.30245 0.39626 0.22699
 H3132 H 0.28850 0.36457 0.22845
 H3133 H 0.31011 0.35758 0.28464
 H3134 H 0.32406 0.38928 0.28317
 C3135 C 0.83259 0.92796 0.75224
 C3136 C 0.82495 0.91283 0.75292
 C3137 C 0.81627 0.89459 0.75415
 C3138 C 0.81895 0.88351 0.77022
 C3139 C 0.81093 0.86558 0.77132
 C3140 C 0.80018 0.85866 0.75635
 C3141 C 0.79741 0.86979 0.74032
 C3142 C 0.80543 0.88772 0.73922
 C3143 C 0.79223 0.84007 0.75721
 C3144 C 0.78555 0.82449 0.75747
 H3145 H 0.82734 0.88867 0.78183
 H3146 H 0.81319 0.85709 0.78376
 H3147 H 0.78915 0.86457 0.72864
 H3148 H 0.80330 0.89614 0.72671
 C3149 C 0.67002 0.92706 0.24720
 C3150 C 0.67798 0.91211 0.24706
 C3151 C 0.68705 0.89404 0.24655
 C3152 C 0.68803 0.88402 0.22962
 C3153 C 0.69627 0.86618 0.22917
 C3154 C 0.70356 0.85827 0.24567
 C3155 C 0.70269 0.86834 0.26258
 C3156 C 0.69445 0.88618 0.26302
 C3157 C 0.71163 0.83973 0.24538
 C3158 C 0.71833 0.82417 0.24550
 H3159 H 0.68230 0.88994 0.21681
 H3160 H 0.69684 0.85852 0.21603
 H3161 H 0.70825 0.86234 0.27542
 H3162 H 0.69370 0.89376 0.27620
 C3163 C 0.16860 0.42580 0.74719
 C3164 C 0.17647 0.41080 0.74707
 C3165 C 0.18543 0.39267 0.74654
 C3166 C 0.18650 0.38276 0.72955
 C3167 C 0.19465 0.36488 0.72906
 C3168 C 0.20175 0.35682 0.74556
 C3169 C 0.20078 0.36678 0.76253
 C3170 C 0.19263 0.38466 0.76302
 C3171 C 0.20978 0.33825 0.74521
 C3172 C 0.21646 0.32268 0.74526
 H3173 H 0.18092 0.38879 0.71673
 H3174 H 0.19530 0.35730 0.71587
 H3175 H 0.20620 0.36067 0.77538
 H3176 H 0.19182 0.39216 0.77624
 C3177 C 0.07339 0.75282 0.82821
 C3178 C 0.08803 0.75127 0.81983
 C3179 C 0.10580 0.74924 0.81040
 C3180 C 0.11661 0.73302 0.81325
 C3181 C 0.13434 0.73141 0.80493
 C3182 C 0.14133 0.74601 0.79370
 C3183 C 0.13042 0.76212 0.79065
 C3184 C 0.11269 0.76374 0.79899
 C3185 C 0.15997 0.74485 0.78593
 C3186 C 0.17569 0.74432 0.77963
 H3187 H 0.11145 0.72176 0.82212
 H3188 H 0.14269 0.71893 0.80744
 H3189 H 0.13573 0.77353 0.78206
 H3190 H 0.10449 0.77636 0.79675
 C3191 C 0.57269 0.25362 0.32760
 C3192 C 0.58740 0.25196 0.31935
 C3193 C 0.60524 0.24980 0.31007
 C3194 C 0.61628 0.23388 0.31363
 C3195 C 0.63404 0.23216 0.30538
 C3196 C 0.64083 0.24635 0.29354
 C3197 C 0.62970 0.26216 0.28979
 C3198 C 0.61194 0.26389 0.29804
 C3199 C 0.65947 0.24510 0.28578
 C3200 C 0.67518 0.24455 0.27945
 H3201 H 0.61126 0.22294 0.32297
 H3202 H 0.64255 0.21991 0.30843
 H3203 H 0.63485 0.27325 0.28071
 H3204 H 0.60356 0.27629 0.29525
 C3205 C 0.57361 0.75163 0.17220
 C3206 C 0.58845 0.75312 0.18025
 C3207 C 0.60649 0.75487 0.18923
 C3208 C 0.61977 0.76761 0.18218
 C3209 C 0.63768 0.76868 0.19023
 C3210 C 0.64239 0.75700 0.20537
 C3211 C 0.62903 0.74443 0.21258
 C3212 C 0.61112 0.74336 0.20453
 C3213 C 0.66110 0.75737 0.21306
 C3214 C 0.67679 0.75719 0.21945
 H3215 H 0.61637 0.77652 0.17031
 H3216 H 0.64792 0.77840 0.18449
 H3217 H 0.63254 0.73528 0.22425
 H3218 H 0.60099 0.73341 0.21005
 C3219 C 0.07309 0.25103 0.67016
 C3220 C 0.08795 0.25258 0.67818
 C3221 C 0.10599 0.25439 0.68716
 C3222 C 0.10974 0.24477 0.70392
 C3223 C 0.12759 0.24587 0.71212
 C3224 C 0.14175 0.25660 0.70358
 C3225 C 0.13792 0.26640 0.68694
 C3226 C 0.12009 0.26530 0.67875
 C3227 C 0.16037 0.25689 0.71150
 C3228 C 0.17599 0.25660 0.71807
 H3229 H 0.09898 0.23624 0.71051
 H3230 H 0.13041 0.23817 0.72495
 H3231 H 0.14878 0.27467 0.68017
 H3232 H 0.11736 0.27275 0.66574
 C3233 C 0.92791 0.24777 0.66863
 C3234 C 0.91279 0.24737 0.67628
 C3235 C 0.89454 0.24649 0.68496
 C3236 C 0.88657 0.26262 0.69294
 C3237 C 0.86859 0.26182 0.70085
 C3238 C 0.85849 0.24489 0.70081
 C3239 C 0.86650 0.22873 0.69293
 C3240 C 0.88448 0.22954 0.68502
 C3241 C 0.83985 0.24425 0.70865
 C3242 C 0.82423 0.24418 0.71524
 H3243 H 0.89419 0.27582 0.69292
 H3244 H 0.86252 0.27440 0.70688
 H3245 H 0.85882 0.21558 0.69280
 H3246 H 0.89049 0.21699 0.67884
 C3247 C 0.42731 0.74780 0.16839
 C3248 C 0.41205 0.74737 0.17575
 C3249 C 0.39364 0.74650 0.18411
 C3250 C 0.38666 0.76181 0.19431
 C3251 C 0.36859 0.76106 0.20201
 C3252 C 0.35741 0.74502 0.19955
 C3253 C 0.36442 0.72967 0.18943
 C3254 C 0.38249 0.73041 0.18172
 C3255 C 0.33870 0.74448 0.20725
 C3256 C 0.32307 0.74454 0.21380
 H3257 H 0.39513 0.77433 0.19620
 H3258 H 0.36330 0.77303 0.20980
 H3259 H 0.35590 0.71720 0.18742
 H3260 H 0.38774 0.71850 0.17382
 C3261 C 0.42704 0.25385 0.33171
 C3262 C 0.41189 0.25409 0.32411
 C3263 C 0.39359 0.25467 0.31549
 C3264 C 0.37864 0.24468 0.32354
 C3265 C 0.36072 0.24561 0.31552
 C3266 C 0.35765 0.25655 0.29943
 C3267 C 0.37260 0.26653 0.29136
 C3268 C 0.39053 0.26561 0.29939
 C3269 C 0.33922 0.25721 0.29110
 C3270 C 0.32373 0.25726 0.28421
 H3271 H 0.38082 0.23625 0.33603
 H3272 H 0.34928 0.23779 0.32185
 H3273 H 0.37039 0.27500 0.27889
 H3274 H 0.40198 0.27346 0.29310
 C3275 C 0.92807 0.75341 0.83289
 C3276 C 0.91294 0.75374 0.82525
 C3277 C 0.89468 0.75441 0.81658
 C3278 C 0.89125 0.76669 0.80155
 C3279 C 0.87333 0.76766 0.79351
 C3280 C 0.85875 0.75639 0.80049
 C3281 C 0.86220 0.74410 0.81550
 C3282 C 0.88011 0.74312 0.82353
 C3283 C 0.84033 0.75713 0.79216
 C3284 C 0.82484 0.75722 0.78528
 H3285 H 0.90240 0.77553 0.79612
 H3286 H 0.87083 0.77718 0.78188
 H3287 H 0.85105 0.73528 0.82098
 H3288 H 0.88257 0.73364 0.83519
   
