data_POSCAR
  _audit_creation_date              2014-09-24
  _audit_creation_method            'ToBaCCo'
  _symmetry_space_group_name_H-M    'P1'
  _symmetry_Int_Tables_number       1
  _symmetry_cell_setting            triclinic
  loop_
  _symmetry_equiv_pos_as_xyz
 x,y,z
_cell_length_a 54.8223
_cell_length_b 54.7952
_cell_length_c 54.8011
_cell_angle_alpha 90.045000
_cell_angle_beta 90.058400
_cell_angle_gamma 90.006300
loop_
  _atom_site_label
  _atom_site_type_symbol
  _atom_site_fract_x
  _atom_site_fract_y
  _atom_site_fract_z
C1 C 0.30692 0.44367 0.91273
 C2 C 0.32753 0.45446 0.92335
 C3 C 0.33850 0.44417 0.94404
 C4 C 0.32836 0.42309 0.95440
 C5 C 0.30766 0.41211 0.94403
 C6 C 0.29695 0.42256 0.92323
 H7 H 0.33537 0.47049 0.91509
 H8 H 0.33704 0.41497 0.97017
 H9 H 0.28125 0.41393 0.91485
 C10 C 0.44438 0.83883 0.44291
 C11 C 0.45417 0.82759 0.42206
 C12 C 0.44317 0.80674 0.41208
 C13 C 0.42238 0.79691 0.42324
 C14 C 0.41242 0.80789 0.44408
 C15 C 0.42356 0.82875 0.45392
 H16 H 0.46999 0.83521 0.41306
 H17 H 0.41350 0.78105 0.41550
 H18 H 0.41575 0.83757 0.46978
 C19 C 0.94336 0.91321 0.80700
 C20 C 0.95396 0.92350 0.82797
 C21 C 0.94396 0.94459 0.83865
 C22 C 0.92337 0.95542 0.82792
 C23 C 0.91263 0.94524 0.80710
 C24 C 0.92277 0.92429 0.79660
 H25 H 0.96962 0.91472 0.83630
 H26 H 0.91522 0.97138 0.83605
 H27 H 0.91411 0.91637 0.78071
 C28 C 0.44547 -0.08614 0.30525
 C29 C 0.45518 -0.07515 0.32623
 C30 C 0.44424 -0.05428 0.33618
 C31 C 0.42369 -0.04418 0.32480
 C32 C 0.41384 -0.05503 0.30383
 C33 C 0.42489 -0.07591 0.29403
 H34 H 0.47078 -0.08313 0.33533
 H35 H 0.41482 -0.02834 0.33255
 H36 H 0.41718 -0.08473 0.27812
 C37 C 0.80576 0.30518 0.33608
 C38 C 0.82647 0.29501 0.32502
 C39 C 0.83672 0.30583 0.30430
 C40 C 0.82597 0.32675 0.29437
 C41 C 0.80534 0.33720 0.30522
 C42 C 0.79519 0.32626 0.32603
 H43 H 0.83515 0.27908 0.33278
 H44 H 0.83412 0.33527 0.27862
 H45 H 0.77949 0.33451 0.33476
 C46 C -0.19302 0.83788 0.80568
 C47 C -0.20424 0.82814 0.82660
 C48 C -0.19463 0.80730 0.83810
 C49 C -0.17381 0.79608 0.82831
 C50 C -0.16248 0.80558 0.80749
 C51 C -0.17221 0.82634 0.79617
 H52 H -0.22006 0.83725 0.83412
 H53 H -0.16615 0.78027 0.83734
 H54 H -0.16305 0.83369 0.78032
 C55 C 0.94533 0.33678 0.44434
 C56 C 0.92520 0.32572 0.45555
 C57 C 0.91463 0.30472 0.44552
 C58 C 0.92456 0.29448 0.42432
 C59 C 0.94473 0.30533 0.41292
 C60 C 0.95513 0.32641 0.42310
 H61 H 0.91732 0.33384 0.47166
 H62 H 0.91604 0.27850 0.41645
 H63 H 0.97044 0.33512 0.41412
 C64 C 0.44463 0.44206 0.83845
 C65 C 0.45500 0.42139 0.82735
 C66 C 0.44461 0.41131 0.80627
 C67 C 0.42391 0.42215 0.79599
 C68 C 0.41326 0.44273 0.80679
 C69 C 0.42376 0.45271 0.82795
 H70 H 0.47079 0.41257 0.83524
 H71 H 0.41573 0.41416 0.77995
 H72 H 0.41532 0.46841 0.83653
 C73 C 0.80501 0.91350 0.94496
 C74 C 0.82582 0.92432 0.95510
 C75 C 0.83642 0.94485 0.94414
 C76 C 0.82576 0.95474 0.92304
 C77 C 0.80482 0.94404 0.91282
 C78 C 0.79448 0.92352 0.92400
 H79 H 0.83413 0.91629 0.97103
 H80 H 0.83413 0.97033 0.91422
 H81 H 0.77863 0.91476 0.91612
 C82 C 0.30432 0.83751 0.30592
 C83 C 0.32526 0.82753 0.29505
 C84 C 0.33666 0.80699 0.30519
 C85 C 0.32682 0.79619 0.32616
 C86 C 0.30592 0.80596 0.33718
 C87 C 0.29467 0.82648 0.32692
 H88 H 0.33296 0.83623 0.27909
 H89 H 0.33591 0.78059 0.33416
 H90 H 0.27879 0.83407 0.33584
 C91 C 0.80616 0.41338 0.44517
 C92 C 0.82740 0.42384 0.45496
 C93 C 0.83789 0.44461 0.44415
 C94 C 0.82672 0.45490 0.42347
 C95 C 0.80555 0.44451 0.41357
 C96 C 0.79526 0.42395 0.42461
 H97 H 0.83607 0.41543 0.47064
 H98 H 0.83465 0.47057 0.41449
 H99 H 0.77916 0.41578 0.41676
 C100 C 0.94413 0.83884 -0.05502
 C101 C 0.92296 0.82831 -0.04512
 C102 C 0.91267 0.80735 -0.05569
 C103 C 0.92380 0.79682 -0.07621
 C104 C 0.94486 0.80720 -0.08626
 C105 C 0.95504 0.82800 -0.07549
 H106 H 0.91414 0.83673 -0.02955
 H107 H 0.91585 0.78096 -0.08488
 H108 H 0.97107 0.83606 -0.08353
 C109 C 0.30612 0.33667 0.80579
 C110 C 0.29526 0.32597 0.82629
 C111 C 0.30549 0.30523 0.83710
 C112 C 0.32654 0.29483 0.82702
 C113 C 0.33760 0.30527 0.80643
 C114 C 0.32723 0.32617 0.79582
 H115 H 0.27925 0.33417 0.83425
 H116 H 0.33453 0.27902 0.83572
 H117 H 0.33593 0.33460 0.78021
 C118 C 0.16512 0.55410 0.55418
 C119 C 0.17561 0.57487 0.54350
 C120 C 0.19682 0.58524 0.55340
 C121 C 0.20769 0.57453 0.57389
 C122 C 0.19733 0.55393 0.58483
 C123 C 0.17617 0.54363 0.57480
 H124 H 0.16687 0.58338 0.52793
 H125 H 0.22375 0.58268 0.58182
 H126 H 0.16802 0.52796 0.58361
 C127 C 0.58486 0.69553 0.05293
 C128 C 0.57437 0.70654 0.07351
 C129 C 0.55363 0.69646 0.08447
 C130 C 0.54305 0.67544 0.07448
 C131 C 0.55331 0.66424 0.05387
 C132 C 0.57415 0.67446 0.04309
 H133 H 0.58276 0.72249 0.08145
 H134 H 0.52729 0.66751 0.08331
 H135 H 0.58245 0.66560 0.02748
 C136 C 0.69628 0.19351 0.66354
 C137 C 0.70673 0.17292 0.67440
 C138 C 0.69624 0.16235 0.69520
 C139 C 0.67526 0.17298 0.70538
 C140 C 0.66471 0.19375 0.69474
 C141 C 0.67541 0.20401 0.67387
 H142 H 0.72260 0.16475 0.66616
 H143 H 0.66672 0.16472 0.72119
 H144 H 0.66724 0.21970 0.66513
 C145 C 1.08583 0.05417 0.19406
 C146 C 1.07599 0.07486 0.20540
 C147 C 1.05503 0.08604 0.19600
 C148 C 1.04367 0.07622 0.17529
 C149 C 1.05333 0.05552 0.16368
 C150 C 1.07436 0.04445 0.17332
 H151 H 1.08516 0.08255 0.22112
 H152 H 1.02774 0.08530 0.16798
 H153 H 1.08211 0.02873 0.16420
 C154 C 0.05385 0.16587 1.05292
 C155 C 0.04273 0.17567 1.07377
 C156 C 0.05249 0.19644 1.08524
 C157 C 0.07333 0.20757 1.07532
 C158 C 0.08453 0.19788 1.05446
 C159 C 0.07460 0.17717 1.04324
 H160 H 0.02697 0.16651 1.08132
 H161 H 0.08118 0.22330 1.08435
 H162 H 0.08361 0.16951 1.02743
 C163 C 0.16550 0.69654 0.69776
 C164 C 0.17639 0.67583 0.70798
 C165 C 0.19687 0.66514 0.69707
 C166 C 0.20678 0.67567 0.67595
 C167 C 0.19611 0.69654 0.66559
 C168 C 0.17552 0.70695 0.67670
 H169 H 0.16844 0.66761 0.72398
 H170 H 0.22235 0.66721 0.66717
 H171 H 0.16673 0.72270 0.66868
 C172 C 1.19464 0.16408 0.19606
 C173 C 1.20597 0.17412 0.17546
 C174 C 1.19668 0.19535 0.16461
 C175 C 1.17614 0.20671 0.17468
 C176 C 1.16465 0.19681 0.19523
 C177 C 1.17408 0.17562 0.20599
 H178 H 1.22155 0.16491 0.16756
 H179 H 1.16877 0.22280 0.16594
 H180 H 1.16487 0.16781 0.22160
 C181 C 0.66370 1.05434 0.55356
 C182 C 0.67485 1.04388 0.57405
 C183 C 0.69527 1.05479 0.58488
 C184 C 0.70493 1.07624 0.57473
 C185 C 0.69410 1.08692 0.55402
 C186 C 0.67354 1.07571 0.54349
 H187 H 0.66724 1.02762 0.58205
 H188 H 0.72050 1.08492 0.58333
 H189 H 0.66463 1.08381 0.52784
 C190 C 0.55404 0.55253 0.16531
 C191 C 0.54268 0.57331 0.17499
 C192 C 0.55221 0.58482 0.19579
 C193 C 0.57303 0.57520 0.20710
 C194 C 0.58453 0.55445 0.19756
 C195 C 0.57486 0.54307 0.17679
 H196 H 0.52692 0.58087 0.16579
 H197 H 0.58061 0.58443 0.22284
 H198 H 0.58409 0.52734 0.16922
 C199 C 0.66483 0.69622 0.19603
 C200 C 0.67508 0.70692 0.17514
 C201 C 0.69624 0.69711 0.16461
 C202 C 0.70731 0.67670 0.17529
 C203 C 0.69719 0.66579 0.19602
 C204 C 0.67609 0.67572 0.20646
 H205 H 0.66618 0.72242 0.16667
 H206 H 0.72331 0.66880 0.16704
 H207 H 0.66815 0.66691 0.22223
 C208 C 0.16289 0.05329 1.05564
 C209 C 0.17408 0.04379 1.07664
 C210 C 0.19480 0.05500 1.08656
 C211 C 0.20465 0.07565 1.07518
 C212 C 0.19371 0.08535 1.05422
 C213 C 0.17294 0.07402 1.04441
 H214 H 0.16644 0.02809 1.08585
 H215 H 0.22040 0.08471 1.08294
 H216 H 0.16411 0.08166 1.02847
 C217 C 0.58655 0.19656 0.55457
 C218 C 0.57520 0.20643 0.57524
 C219 C 0.55412 0.19561 0.58480
 C220 C 0.54418 0.17501 0.57333
 C221 C 0.55538 0.16502 0.55264
 C222 C 0.57647 0.17597 0.54321
 H223 H 0.58307 0.22203 0.58446
 H224 H 0.52821 0.16618 0.58083
 H225 H 0.58558 0.16812 0.52755
 C226 C 0.08563 0.55363 0.69576
 C227 C 0.07537 0.57459 0.70640
 C228 C 0.05426 0.58519 0.69645
 C229 C 0.04330 0.57447 0.67596
 C230 C 0.05343 0.55366 0.66516
 C231 C 0.07444 0.54320 0.67522
 H232 H 0.08421 0.58305 0.72195
 H233 H 0.02734 0.58273 0.66794
 H234 H 0.08236 0.52738 0.66647
 C235 C 0.66508 0.55384 0.05272
 C236 C 0.67609 0.57448 0.04251
 C237 C 0.69662 0.58510 0.05350
 C238 C 0.70638 0.57459 0.07473
 C239 C 0.69557 0.55378 0.08506
 C240 C 0.67500 0.54342 0.07385
 H241 H 0.66820 0.58271 0.02647
 H242 H 0.72195 0.58299 0.08357
 H243 H 0.66613 0.52771 0.08183
 C244 C 0.05437 0.69712 0.58580
 C245 C 0.07504 0.70728 0.57465
 C246 C 0.08501 0.69661 0.55369
 C247 C 0.07398 0.67587 0.54360
 C248 C 0.05334 0.66546 0.55455
 C249 C 0.04352 0.67625 0.57559
 H250 H 0.08393 0.72303 0.58258
 H251 H 0.08192 0.66743 0.52769
 H252 H 0.02787 0.66801 0.58441
 C253 C 0.55362 1.05441 0.66361
 C254 C 0.57445 1.04373 0.67411
 C255 C 0.58492 1.05363 0.69528
 C256 C 0.57427 1.07416 0.70617
 C257 C 0.55355 1.08514 0.69591
 C258 C 0.54320 1.07504 0.67476
 H259 H 0.58295 1.02810 0.66543
 H260 H 0.58257 1.08199 0.72221
 H261 H 0.52744 1.08383 0.66675
 C262 C 0.44400 0.33532 0.94526
 C263 C 0.45519 0.32540 0.92451
 C264 C 0.44552 0.30454 0.91326
 C265 C 0.42471 0.29342 0.92308
 C266 C 0.41340 0.30319 0.94381
 C267 C 0.42320 0.32404 0.95493
 H268 H 0.47097 0.33443 0.91682
 H269 H 0.41703 0.27761 0.91406
 H270 H 0.41413 0.33177 0.97067
 C271 C 0.94465 0.44444 0.33839
 C272 C 0.92362 0.45495 0.32827
 C273 C 0.91258 0.44470 0.30755
 C274 C 0.92286 0.42386 0.29680
 C275 C 0.94389 0.41318 0.30673
 C276 C 0.95478 0.42365 0.32740
 H277 H 0.91561 0.47077 0.33697
 H278 H 0.91416 0.41561 0.28106
 H279 H 0.97073 0.41521 0.33526
 C280 C 0.30531 0.94622 0.41451
 C281 C 0.29442 0.92536 0.42451
 C282 C 0.30457 0.91405 0.44509
 C283 C 0.32554 0.92393 0.45588
 C284 C 0.33659 0.94476 0.44604
 C285 C 0.32632 0.95595 0.42545
 H286 H 0.27849 0.91764 0.41574
 H287 H 0.33352 0.91486 0.47149
 H288 H 0.33519 0.97176 0.41765
 O289 O 0.18632 0.53149 0.74785
 O290 O 0.19446 0.52918 0.79057
 O291 O 0.24992 0.56461 0.71857
 O292 O 0.29014 0.55804 0.71907
 O293 O 0.21955 0.50127 0.68499
 O294 O 0.22180 0.45869 0.69338
 O295 O 0.31411 0.49774 0.78310
 O296 O 0.30766 0.53994 0.77887
 O297 O 0.25235 0.46726 0.81329
 O298 O 0.20901 0.46883 0.80510
 O299 O 0.28331 0.43632 0.75165
 O300 O 0.28198 0.44450 0.70818
 O301 O 0.31467 0.46866 0.75340
 O302 O 0.30620 0.47279 0.70746
 O303 O 0.25368 0.43587 0.78072
 O304 O 0.20782 0.44492 0.77660
 O305 O 0.28179 0.49657 0.81391
 O306 O 0.27760 0.54185 0.80598
 O307 O 0.18613 0.50183 0.71864
 O308 O 0.19531 0.45798 0.72159
 O309 O 0.24908 0.53056 0.68502
 O310 O 0.29345 0.52602 0.69492
 O311 O 0.22035 0.56473 0.74782
 O312 O 0.22278 0.55547 0.79154
 Zr313 Zr 0.22148 0.52943 0.76308
 O314 O 0.24237 0.50745 0.78663
 Zr315 Zr 0.26451 0.52922 0.72030
 O316 O 0.28787 0.50819 0.74251
 Zr317 Zr 0.22138 0.48639 0.72023
 O318 O 0.24323 0.46292 0.74140
 Zr319 Zr 0.27949 0.51359 0.77954
 O320 O 0.25863 0.53750 0.75750
 Zr321 Zr 0.23684 0.47036 0.77841
 O322 O 0.21311 0.49230 0.75725
 Zr323 Zr 0.28037 0.47115 0.73611
 O324 O 0.25853 0.49217 0.71214
 O325 O 0.22765 0.52322 0.72628
 O326 O 0.27387 0.47662 0.77307
 C327 C 0.17611 0.51943 0.73053
 C328 C 0.23252 0.57480 0.73047
 C329 C 0.23162 0.51858 0.67488
 C330 C 0.32420 0.48007 0.77155
 C331 C 0.27007 0.47867 0.82345
 C332 C 0.27167 0.42623 0.76922
 H333 H 0.23809 0.51112 0.80375
 H334 H 0.23950 0.44577 0.73723
 H335 H 0.21731 0.53371 0.71586
 H336 H 0.30510 0.51233 0.73918
 H337 H 0.30097 0.55443 0.77041
 H338 H 0.30401 0.55330 0.72959
 H339 H 0.21201 0.43251 0.76417
 H340 H 0.18612 0.46013 0.73698
 H341 H 0.26461 0.53778 0.81780
 H342 H 0.23848 0.56422 0.78985
 H343 H 0.26644 0.43535 0.70848
 H344 H 0.23821 0.45914 0.68587
 H345 H 0.18681 0.51282 0.79001
 H346 H 0.20912 0.48454 0.81399
 H347 H 0.28998 0.51151 0.68472
 H348 H 0.31861 0.48515 0.71185
 O349 O 0.31408 -0.00158 0.28146
 O350 O 0.30516 0.04153 0.27898
 O351 O 0.25113 -0.03123 0.31502
 O352 O 0.21043 -0.03046 0.30848
 O353 O 0.28119 -0.06470 0.25190
 O354 O 0.27821 -0.05613 0.20880
 O355 O 0.18566 0.03176 0.24756
 O356 O 0.19214 0.02710 0.29034
 O357 O 0.24687 0.06356 0.21837
 O358 O 0.29139 0.05527 0.22079
 O359 O 0.21751 0.00198 0.18653
 O360 O 0.22022 -0.04265 0.19511
 O361 O 0.18565 0.00205 0.21849
 O362 O 0.19424 -0.04267 0.22149
 O363 O 0.24683 0.03140 0.18645
 O364 O 0.29171 0.02871 0.19507
 O365 O 0.21741 0.06357 0.24763
 O366 O 0.22081 0.05567 0.29204
 O367 O 0.31431 -0.03079 0.25179
 O368 O 0.30531 -0.02836 0.20853
 O369 O 0.25177 -0.06484 0.28128
 O370 O 0.20787 -0.05601 0.27686
 O371 O 0.28046 -0.00171 0.31498
 O372 O 0.27762 0.04152 0.30617
 Zr373 Zr 0.27875 0.01343 0.27973
 O374 O 0.25728 0.03677 0.25810
 Zr375 Zr 0.23611 -0.02977 0.27968
 O376 O 0.21252 -0.00813 0.25832
 Zr377 Zr 0.27904 -0.02950 0.23671
 O378 O 0.25734 -0.00819 0.21327
 Zr379 Zr 0.22021 0.02899 0.26397
 O380 O 0.24164 0.00747 0.28787
 Zr381 Zr 0.26315 0.02891 0.22106
 O382 O 0.28705 0.00763 0.24264
 Zr383 Zr 0.22030 -0.01416 0.22122
 O384 O 0.24203 -0.03790 0.24259
 O385 O 0.27287 -0.02343 0.27355
 O386 O 0.22615 0.02291 0.22698
 C387 C 0.32430 -0.01886 0.26934
 C388 C 0.26857 -0.01919 0.32509
 C389 C 0.26931 -0.07483 0.26937
 C390 C 0.17579 0.01998 0.22987
 C391 C 0.22907 0.07345 0.22992
 C392 C 0.22906 0.01976 0.17662
 H393 H 0.26128 0.05392 0.26195
 H394 H 0.26123 -0.01216 0.19613
 H395 H 0.28337 -0.03372 0.28400
 H396 H 0.19532 -0.01180 0.26230
 H397 H 0.19929 0.01925 0.30497
 H398 H 0.19575 -0.02160 0.30286
 H399 H 0.28896 0.01481 0.18388
 H400 H 0.31349 -0.01231 0.20979
 H401 H 0.23499 0.06648 0.28935
 H402 H 0.26156 0.04025 0.31430
 H403 H 0.23452 -0.04035 0.18437
 H404 H 0.26210 -0.06422 0.20989
 H405 H 0.31314 0.04059 0.26281
 H406 H 0.28927 0.06585 0.23527
 H407 H 0.21072 -0.06524 0.26159
 H408 H 0.18330 -0.04003 0.23558
 O409 O 0.56420 0.71922 0.24711
 O410 O 0.55583 0.72165 0.29026
 O411 O 0.50039 0.68523 0.21864
 O412 O 0.45988 0.69192 0.21960
 O413 O 0.52990 0.74846 0.18422
 O414 O 0.52755 0.79156 0.19296
 O415 O 0.43614 0.75286 0.28208
 O416 O 0.44269 0.71006 0.27741
 O417 O 0.49754 0.78257 0.31287
 O418 O 0.54223 0.77974 0.30409
 O419 O 0.46761 0.81393 0.25169
 O420 O 0.46957 0.80523 0.20715
 O421 O 0.43576 0.78189 0.25238
 O422 O 0.44374 0.77868 0.20743
 O423 O 0.49742 0.81420 0.28064
 O424 O 0.54213 0.80558 0.27760
 O425 O 0.46817 0.75319 0.31333
 O426 O 0.47178 0.70864 0.30565
 O427 O 0.56389 0.74839 0.21745
 O428 O 0.55513 0.79167 0.22022
 O429 O 0.50084 0.71870 0.18471
 O430 O 0.45707 0.72344 0.19411
 O431 O 0.53045 0.68550 0.24744
 O432 O 0.52836 0.69447 0.29067
 Zr433 Zr 0.52902 0.72082 0.26253
 O434 O 0.50787 0.74251 0.28614
 Zr435 Zr 0.48568 0.72065 0.21996
 O436 O 0.46243 0.74209 0.24186
 Zr437 Zr 0.52867 0.76361 0.21949
 O438 O 0.50729 0.78713 0.24106
 Zr439 Zr 0.47069 0.73657 0.27887
 O440 O 0.49181 0.71262 0.25712
 Zr441 Zr 0.51360 0.77954 0.27812
 O442 O 0.53720 0.75790 0.25654
 Zr443 Zr 0.47016 0.77916 0.23563
 O444 O 0.49153 0.75771 0.21165
 O445 O 0.52257 0.72679 0.22573
 O446 O 0.47654 0.77354 0.27261
 C447 C 0.57416 0.73110 0.22951
 C448 C 0.51806 0.67522 0.23036
 C449 C 0.51800 0.73082 0.17435
 C450 C 0.42613 0.77054 0.27043
 C451 C 0.47978 0.77112 0.32295
 C452 C 0.47946 0.82396 0.26924
 H453 H 0.51209 0.73876 0.30325
 H454 H 0.51114 0.80426 0.23699
 H455 H 0.53289 0.71627 0.21532
 H456 H 0.44518 0.73808 0.23845
 H457 H 0.44979 0.69540 0.26957
 H458 H 0.44540 0.69753 0.22877
 H459 H 0.53947 0.81642 0.26342
 H460 H 0.56352 0.79042 0.23618
 H461 H 0.48590 0.71164 0.31648
 H462 H 0.51220 0.68645 0.28978
 H463 H 0.48398 0.81591 0.20914
 H464 H 0.51128 0.79057 0.18515
 H465 H 0.56359 0.73794 0.28939
 H466 H 0.53982 0.76569 0.31515
 H467 H 0.45990 0.73861 0.18472
 H468 H 0.43269 0.76473 0.21040
 O469 O 0.00303 0.68535 0.72048
 O470 O -0.04043 0.69386 0.72286
 O471 O 0.03121 0.74890 0.68626
 O472 O 0.02972 0.78971 0.69287
 O473 O 0.06572 0.72000 0.74961
 O474 O 0.05678 0.72249 0.79289
 O475 O -0.03189 0.81367 0.75399
 O476 O -0.02713 0.80696 0.71090
 O477 O -0.06317 0.75206 0.78300
 O478 O -0.05394 0.70709 0.78002
 O479 O -0.00213 0.78178 0.81496
 O480 O 0.04299 0.77942 0.80605
 O481 O -0.00241 0.81388 0.78328
 O482 O 0.04197 0.80625 0.78051
 O483 O -0.03131 0.75222 0.81495
 O484 O -0.02819 0.70779 0.80669
 O485 O -0.06340 0.78170 0.75390
 O486 O -0.05592 0.77846 0.70976
 O487 O 0.03273 0.68583 0.74964
 O488 O 0.02993 0.69451 0.79266
 O489 O 0.06511 0.74896 0.71976
 O490 O 0.05583 0.79243 0.72419
 O491 O 0.00246 0.71881 0.68657
 O492 O -0.04052 0.72090 0.69525
 Zr493 Zr -0.01258 0.72052 0.72184
 O494 O -0.03622 0.74185 0.74332
 Zr495 Zr 0.02983 0.76394 0.72163
 O496 O 0.00807 0.78723 0.74318
 Zr497 Zr 0.03044 0.72107 0.76472
 O498 O 0.00868 0.74232 0.78818
 Zr499 Zr -0.02891 0.77908 0.73751
 O500 O -0.00729 0.75777 0.71360
 Zr501 Zr -0.02835 0.73604 0.78035
 O502 O -0.00657 0.71243 0.75893
 Zr503 Zr 0.01417 0.77944 0.78029
 O504 O 0.03816 0.75820 0.75874
 O505 O 0.02418 0.72705 0.72787
 O506 O -0.02278 0.77313 0.77448
 C507 C 0.02070 0.67549 0.73238
 C508 C 0.01952 0.73114 0.67628
 C509 C 0.07553 0.73189 0.73196
 C510 C -0.02034 0.82362 0.77183
 C511 C -0.07316 0.76993 0.77161
 C512 C -0.01987 0.77011 0.82480
 H513 H -0.05331 0.73765 0.73947
 H514 H 0.01269 0.73845 0.80532
 H515 H 0.03464 0.71672 0.71742
 H516 H 0.01152 0.80449 0.73925
 H517 H -0.01963 0.79963 0.69619
 H518 H 0.02115 0.80445 0.69878
 H519 H -0.01368 0.71008 0.81718
 H520 H 0.01383 0.68639 0.79170
 H521 H -0.06602 0.76368 0.71197
 H522 H -0.03996 0.73720 0.68749
 H523 H 0.04016 0.76580 0.81754
 H524 H 0.06486 0.73859 0.79157
 H525 H -0.03910 0.68568 0.73890
 H526 H -0.06540 0.70991 0.76636
 H527 H 0.06476 0.79005 0.73972
 H528 H 0.03982 0.81653 0.76584
 O529 O 0.06460 0.03102 0.00263
 O530 O 0.05678 0.02802 -0.04031
 O531 O 0.00135 0.06587 0.03040
 O532 O -0.03909 0.05992 0.02974
 O533 O 0.03021 0.00273 0.06551
 O534 O 0.02703 -0.04016 0.05771
 O535 O -0.06348 -0.00106 -0.03332
 O536 O -0.05632 0.04120 -0.02952
 O537 O -0.00203 -0.03289 -0.06268
 O538 O 0.04163 -0.03152 -0.05392
 O539 O -0.03389 -0.06243 -0.00110
 O540 O -0.03255 -0.05360 0.04255
 O541 O -0.06473 -0.02960 -0.00316
 O542 O -0.05663 -0.02524 0.04255
 O543 O -0.00386 -0.06374 -0.02974
 O544 O 0.04182 -0.05552 -0.02563
 O545 O -0.03094 -0.00308 -0.06390
 O546 O -0.02624 0.04211 -0.05662
 O547 O 0.06394 0.00186 0.03228
 O548 O 0.05410 -0.04168 0.03002
 O549 O 0.00128 0.03260 0.06471
 O550 O -0.04294 0.02851 0.05465
 O551 O 0.03133 0.06497 0.00159
 O552 O 0.02919 0.05511 -0.04180
 Zr553 Zr 0.02959 0.02943 -0.01303
 O554 O 0.00845 0.00754 -0.03647
 Zr555 Zr -0.01387 0.03071 0.02932
 O556 O -0.03736 0.00962 0.00728
 Zr557 Zr 0.02845 -0.01287 0.03051
 O558 O 0.00654 -0.03631 0.00934
 Zr559 Zr -0.02863 0.01435 -0.02975
 O560 O -0.00748 0.03824 -0.00792
 Zr561 Zr 0.01336 -0.02948 -0.02772
 O562 O 0.03722 -0.00772 -0.00652
 Zr563 Zr -0.03050 -0.02746 0.01421
 O564 O -0.00865 -0.00631 0.03810
 O565 O 0.02292 0.02396 0.02380
 O566 O -0.02362 -0.02261 -0.02277
 C567 C 0.07437 0.01909 0.02028
 C568 C 0.01910 0.07556 0.01858
 C569 C 0.01844 0.02051 0.07520
 C570 C -0.07395 -0.01834 -0.02154
 C571 C -0.01948 -0.02132 -0.07313
 C572 C -0.02216 -0.07293 -0.01840
 H573 H 0.01292 0.01090 -0.05360
 H574 H 0.00997 -0.05345 0.01375
 H575 H 0.03334 0.03447 0.03414
 H576 H -0.05455 0.01407 0.01042
 H577 H -0.04937 0.05574 -0.02132
 H578 H -0.05311 0.05502 0.01948
 H579 H 0.03767 -0.06729 -0.01260
 H580 H 0.06318 -0.04024 0.01449
 H581 H -0.01299 0.03785 -0.06810
 H582 H 0.01345 0.06389 -0.04065
 H583 H -0.01737 -0.06333 0.04212
 H584 H 0.01062 -0.03906 0.06516
 H585 H 0.06419 0.01158 -0.03928
 H586 H 0.04116 -0.01636 -0.06369
 H587 H -0.03995 0.01392 0.06488
 H588 H -0.06843 -0.01229 0.03825
 O589 O 0.06366 0.53341 0.50196
 O590 O 0.05439 0.53186 0.45890
 O591 O -0.00003 0.56443 0.53317
 O592 O -0.04050 0.55687 0.53220
 O593 O 0.03194 0.50112 0.56445
 O594 O 0.03029 0.45828 0.55456
 O595 O -0.06431 0.49715 0.46882
 O596 O -0.05867 0.53997 0.47442
 O597 O -0.00259 0.47032 0.43556
 O598 O 0.04211 0.47383 0.44363
 O599 O -0.03019 0.43601 0.49638
 O600 O -0.02751 0.44357 0.54128
 O601 O -0.06312 0.46694 0.49730
 O602 O -0.05435 0.46905 0.54202
 O603 O -0.00143 0.43751 0.46648
 O604 O 0.04317 0.44713 0.46927
 O605 O -0.03316 0.49842 0.43674
 O606 O -0.03038 0.54287 0.44555
 O607 O 0.06491 0.50300 0.53032
 O608 O 0.05710 0.45958 0.52663
 O609 O 0.00169 0.52965 0.56562
 O610 O -0.04206 0.52449 0.55689
 O611 O 0.02886 0.56597 0.50329
 O612 O 0.02615 0.55822 0.45984
 Zr613 Zr 0.02820 0.53110 0.48717
 O614 O 0.00708 0.50954 0.46336
 Zr615 Zr -0.01408 0.52876 0.53061
 O616 O -0.03728 0.50735 0.50856
 Zr617 Zr 0.03003 0.48697 0.52880
 O618 O 0.00877 0.46354 0.50699
 Zr619 Zr -0.03008 0.51421 0.47158
 O620 O -0.00908 0.53808 0.49360
 Zr621 Zr 0.01402 0.47246 0.47008
 O622 O 0.03753 0.49408 0.49181
 Zr623 Zr -0.02842 0.47032 0.51344
 O624 O -0.00706 0.49162 0.53761
 O625 O 0.02281 0.52379 0.52388
 O626 O -0.02306 0.47725 0.47655
 C627 C 0.07439 0.52107 0.51879
 C628 C 0.01691 0.57531 0.52118
 C629 C 0.01958 0.51790 0.57517
 C630 C -0.07355 0.47874 0.47996
 C631 C -0.02106 0.48132 0.42629
 C632 C -0.01871 0.42689 0.47812
 H633 H 0.01079 0.51394 0.44629
 H634 H 0.01316 0.44640 0.51044
 H635 H 0.03310 0.53422 0.53441
 H636 H -0.05454 0.51077 0.51247
 H637 H -0.05172 0.55458 0.48249
 H638 H -0.05510 0.55109 0.52330
 H639 H 0.04091 0.43560 0.48296
 H640 H 0.06506 0.46150 0.51053
 H641 H -0.01652 0.54048 0.43427
 H642 H 0.00977 0.56568 0.46123
 H643 H -0.01303 0.43317 0.53850
 H644 H 0.01420 0.45861 0.56274
 H645 H 0.06274 0.51584 0.45923
 H646 H 0.03924 0.48829 0.43323
 H647 H -0.03885 0.50897 0.56554
 H648 H -0.06569 0.48292 0.53985
 O649 O 0.50261 0.06485 0.53084
 O650 O 0.45961 0.05611 0.52911
 O651 O 0.53269 0.00170 0.56408
 O652 O 0.53191 -0.03887 0.55754
 O653 O 0.56516 0.03191 0.50038
 O654 O 0.55607 0.02893 0.45757
 O655 O 0.46811 -0.06344 0.49743
 O656 O 0.47349 -0.05710 0.54004
 O657 O 0.43655 -0.00212 0.46842
 O658 O 0.44480 0.04213 0.47052
 O659 O 0.49768 -0.03183 0.43601
 O660 O 0.54209 -0.02966 0.44403
 O661 O 0.49740 -0.06361 0.46801
 O662 O 0.54255 -0.05520 0.47088
 O663 O 0.46834 -0.00243 0.43620
 O664 O 0.47148 0.04270 0.44495
 O665 O 0.43674 -0.03152 0.49777
 O666 O 0.44539 -0.02792 0.54232
 O667 O 0.53140 0.06503 0.50082
 O668 O 0.52813 0.05591 0.45747
 O669 O 0.56573 0.00238 0.52967
 O670 O 0.55653 -0.04170 0.52546
 O671 O 0.50321 0.03106 0.56443
 O672 O 0.45977 0.02844 0.55605
 Zr673 Zr 0.48755 0.02954 0.52934
 O674 O 0.46384 0.00820 0.50793
 Zr675 Zr 0.53060 -0.01323 0.52872
 O676 O 0.50850 -0.03680 0.50774
 Zr677 Zr 0.52978 0.02973 0.48575
 O678 O 0.50818 0.00798 0.46260
 Zr679 Zr 0.47151 -0.02890 0.51378
 O680 O 0.49351 -0.00761 0.53740
 Zr681 Zr 0.47125 0.01398 0.47077
 O682 O 0.49280 0.03784 0.49216
 Zr683 Zr 0.51407 -0.02910 0.47057
 O684 O 0.53817 -0.00732 0.49153
 O685 O 0.52428 0.02357 0.52268
 O686 O 0.47715 -0.02304 0.47672
 C687 C 0.51971 0.07506 0.51849
 C688 C 0.52077 0.01909 0.57436
 C689 C 0.57554 0.01996 0.51764
 C690 C 0.47950 -0.07335 0.47954
 C691 C 0.42674 -0.01988 0.48008
 C692 C 0.47985 -0.02022 0.42625
 H693 H 0.44677 0.01229 0.51196
 H694 H 0.51197 0.01183 0.44541
 H695 H 0.53473 0.03404 0.53302
 H696 H 0.51210 -0.05402 0.51171
 H697 H 0.48171 -0.05009 0.55454
 H698 H 0.52250 -0.05336 0.55229
 H699 H 0.48488 0.03958 0.43328
 H700 H 0.51230 0.06441 0.45921
 H701 H 0.43423 -0.01406 0.53938
 H702 H 0.46121 0.01243 0.56429
 H703 H 0.54021 -0.01496 0.43374
 H704 H 0.56402 0.01274 0.45845
 H705 H 0.46011 0.06391 0.51283
 H706 H 0.43481 0.04046 0.48544
 H707 H 0.56572 -0.03874 0.51021
 H708 H 0.53950 -0.06663 0.48451
 O709 O 0.50226 0.56355 0.03106
 O710 O 0.45906 0.55473 0.02909
 O711 O 0.53160 0.50019 0.06481
 O712 O 0.53074 0.45949 0.05812
 O713 O 0.56502 0.52973 0.00110
 O714 O 0.55566 0.52716 -0.04197
 O715 O 0.46822 0.43497 -0.00187
 O716 O 0.47340 0.44179 0.04090
 O717 O 0.43611 0.49631 -0.03078
 O718 O 0.44498 0.54132 -0.02826
 O719 O 0.49690 0.46692 -0.06351
 O720 O 0.54192 0.46955 -0.05530
 O721 O 0.49726 0.43498 -0.03155
 O722 O 0.54186 0.44321 -0.02932
 O723 O 0.46747 0.49622 -0.06326
 O724 O 0.47039 0.54074 -0.05513
 O725 O 0.43653 0.46653 -0.00182
 O726 O 0.44462 0.47035 0.04246
 O727 O 0.53152 0.56346 0.00151
 O728 O 0.52834 0.55468 -0.04163
 O729 O 0.56509 0.50074 0.03091
 O730 O 0.55618 0.45704 0.02643
 O731 O 0.50250 0.52993 0.06482
 O732 O 0.45933 0.52748 0.05644
 Zr733 Zr 0.48708 0.52824 0.02969
 O734 O 0.46339 0.50675 0.00842
 Zr735 Zr 0.52998 0.48529 0.02941
 O736 O 0.50810 0.46179 0.00818
 Zr737 Zr 0.52956 0.52819 -0.01363
 O738 O 0.50778 0.50665 -0.03687
 Zr739 Zr 0.47114 0.46964 0.01428
 O740 O 0.49292 0.49110 0.03791
 Zr741 Zr 0.47080 0.51258 -0.02870
 O742 O 0.49254 0.53642 -0.00745
 Zr743 Zr 0.51364 0.46957 -0.02901
 O744 O 0.53773 0.49113 -0.00779
 O745 O 0.52384 0.52213 0.02328
 O746 O 0.47673 0.47556 -0.02279
 C747 C 0.51962 0.57364 0.01896
 C748 C 0.51979 0.51775 0.07493
 C749 C 0.57518 0.51795 0.01864
 C750 C 0.47960 0.42510 -0.01980
 C751 C 0.42646 0.47829 -0.01936
 C752 C 0.47893 0.47841 -0.07322
 H753 H 0.44631 0.51081 0.01244
 H754 H 0.51153 0.51051 -0.05406
 H755 H 0.53430 0.53256 0.03366
 H756 H 0.51177 0.44458 0.01212
 H757 H 0.48117 0.44915 0.05548
 H758 H 0.52195 0.44478 0.05245
 H759 H 0.48475 0.53851 -0.06581
 H760 H 0.51220 0.56269 -0.04041
 H761 H 0.43380 0.48453 0.03977
 H762 H 0.46029 0.51126 0.06433
 H763 H 0.53913 0.48347 -0.06644
 H764 H 0.56367 0.51100 -0.04098
 H765 H 0.45995 0.56279 0.01295
 H766 H 0.43383 0.53856 -0.01435
 H767 H 0.56503 0.45968 0.01092
 H768 H 0.53972 0.43264 -0.01486
 O769 O 0.78357 0.31345 0.49910
 O770 O 0.78109 0.30457 0.54189
 O771 O 0.81556 0.25004 0.46866
 O772 O 0.80842 0.20960 0.46885
 O773 O 0.75267 0.28159 0.43586
 O774 O 0.70994 0.27952 0.44449
 O775 O 0.74793 0.18554 0.53237
 O776 O 0.79034 0.19132 0.52763
 O777 O 0.71916 0.24730 0.56393
 O778 O 0.72189 0.29135 0.55608
 O779 O 0.68694 0.21824 0.50231
 O780 O 0.69499 0.22008 0.45837
 O781 O 0.71863 0.18592 0.50290
 O782 O 0.72216 0.19484 0.45743
 O783 O 0.68730 0.24751 0.53181
 O784 O 0.69682 0.29265 0.52881
 O785 O 0.74806 0.21746 0.56385
 O786 O 0.79300 0.22062 0.55553
 O787 O 0.75369 0.31442 0.47013
 O788 O 0.70988 0.30592 0.47290
 O789 O 0.78157 0.25168 0.43528
 O790 O 0.77634 0.20742 0.44417
 O791 O 0.81620 0.27916 0.49842
 O792 O 0.80742 0.27613 0.54193
 Zr793 Zr 0.78106 0.27810 0.51381
 O794 O 0.75909 0.25705 0.53715
 Zr795 Zr 0.78002 0.23569 0.47030
 O796 O 0.75865 0.21231 0.49217
 Zr797 Zr 0.73782 0.27938 0.47115
 O798 O 0.71420 0.25773 0.49229
 Zr799 Zr 0.76452 0.21993 0.52928
 O800 O 0.78858 0.24090 0.50753
 Zr801 Zr 0.72211 0.26344 0.52935
 O802 O 0.74408 0.28711 0.50826
 Zr803 Zr 0.72166 0.22052 0.48632
 O804 O 0.74298 0.24226 0.46252
 O805 O 0.77455 0.27253 0.47694
 O806 O 0.72760 0.22634 0.52333
 C807 C 0.77154 0.32401 0.48198
 C808 C 0.82596 0.26724 0.48075
 C809 C 0.76984 0.26951 0.42549
 C810 C 0.73002 0.17588 0.52078
 C811 C 0.73048 0.22934 0.57374
 C812 C 0.67720 0.22991 0.52011
 H813 H 0.76303 0.26099 0.55430
 H814 H 0.69709 0.26184 0.48834
 H815 H 0.78510 0.28289 0.46664
 H816 H 0.76243 0.19505 0.48849
 H817 H 0.80489 0.19798 0.51926
 H818 H 0.80306 0.19527 0.47839
 H819 H 0.68502 0.28956 0.51548
 H820 H 0.71194 0.31456 0.48864
 H821 H 0.78975 0.23400 0.56719
 H822 H 0.81570 0.26018 0.54011
 H823 H 0.68565 0.23548 0.45950
 H824 H 0.71031 0.26325 0.43662
 H825 H 0.76494 0.31264 0.54129
 H826 H 0.73692 0.28969 0.56593
 H827 H 0.76145 0.21096 0.43459
 H828 H 0.73506 0.18273 0.46097
 O829 O 0.74914 0.68619 0.03202
 O830 O 0.79170 0.69590 0.03029
 O831 O 0.71688 0.74923 0.06334
 O832 O 0.71624 0.78946 0.05606
 O833 O 0.68588 0.71663 -0.00018
 O834 O 0.69548 0.71879 -0.04288
 O835 O 0.77970 0.81482 -0.00290
 O836 O 0.77467 0.80865 0.03955
 O837 O 0.81392 0.75406 -0.03098
 O838 O 0.80692 0.70964 -0.02876
 O839 O 0.75213 0.78149 -0.06472
 O840 O 0.70802 0.77812 -0.05749
 O841 O 0.75116 0.81360 -0.03311
 O842 O 0.70601 0.80357 -0.03048
 O843 O 0.78262 0.75333 -0.06372
 O844 O 0.78040 0.70794 -0.05455
 O845 O 0.81235 0.78425 -0.00246
 O846 O 0.80365 0.78046 0.04215
 O847 O 0.72084 0.68451 0.00153
 O848 O 0.72429 0.69284 -0.04209
 O849 O 0.68423 0.74671 0.02854
 O850 O 0.69226 0.79102 0.02359
 O851 O 0.74724 0.72081 0.06464
 O852 O 0.79086 0.72443 0.05647
 Zr853 Zr 0.76319 0.72186 0.02969
 O854 O 0.78649 0.74346 0.00815
 Zr855 Zr 0.71887 0.76331 0.02775
 O856 O 0.74051 0.78711 0.00675
 Zr857 Zr 0.72145 0.71952 -0.01436
 O858 O 0.74258 0.74161 -0.03765
 Zr859 Zr 0.77764 0.78037 0.01344
 O860 O 0.75598 0.75891 0.03708
 Zr861 Zr 0.77963 0.73698 -0.02904
 O862 O 0.75863 0.71279 -0.00744
 Zr863 Zr 0.73551 0.77863 -0.03034
 O864 O 0.71186 0.75643 -0.00939
 O865 O 0.72635 0.72659 0.02250
 O866 O 0.77253 0.77384 -0.02362
 C867 C 0.73251 0.67522 0.01966
 C868 C 0.72924 0.73249 0.07411
 C869 C 0.67497 0.72870 0.01669
 C870 C 0.76837 0.82408 -0.02115
 C871 C 0.82298 0.77250 -0.01970
 C872 C 0.77061 0.77060 -0.07405
 H873 H 0.80364 0.73996 0.01241
 H874 H 0.73911 0.73740 -0.05484
 H875 H 0.71607 0.71606 0.03292
 H876 H 0.73631 0.80426 0.01046
 H877 H 0.76654 0.80153 0.05401
 H878 H 0.72572 0.80392 0.05093
 H879 H 0.76731 0.71079 -0.06666
 H880 H 0.74043 0.68500 -0.04004
 H881 H 0.81557 0.76726 0.03913
 H882 H 0.78873 0.74043 0.06457
 H883 H 0.71007 0.76299 -0.06712
 H884 H 0.68715 0.73482 -0.04260
 H885 H 0.79171 0.68797 0.01405
 H886 H 0.81643 0.71153 -0.01353
 H887 H 0.68303 0.78729 0.00850
 H888 H 0.70892 0.81572 -0.01744
 O889 O 1.00221 0.18578 0.21847
 O890 O 0.95919 0.19391 0.22080
 O891 O 1.03084 0.24894 0.18420
 O892 O 1.02975 0.28957 0.19032
 O893 O 1.06491 0.21998 0.24770
 O894 O 1.05649 0.22296 0.29057
 O895 O 0.96661 0.31390 0.25098
 O896 O 0.97131 0.30715 0.20850
 O897 O 0.93645 0.25243 0.28132
 O898 O 0.94520 0.20837 0.27964
 O899 O 0.99769 0.28346 0.31241
 O900 O 1.04189 0.28179 0.30384
 O901 O 0.99641 0.31475 0.27994
 O902 O 1.04174 0.30684 0.27652
 O903 O 0.96880 0.25363 0.31299
 O904 O 0.97250 0.20833 0.30464
 O905 O 0.93578 0.28152 0.25167
 O906 O 0.94368 0.27746 0.20693
 O907 O 1.03157 0.18623 0.24798
 O908 O 1.02892 0.19572 0.29133
 O909 O 1.06460 0.24909 0.21800
 O910 O 1.05486 0.29305 0.22197
 O911 O 1.00178 0.21916 0.18457
 O912 O 0.95844 0.22140 0.19366
 Zr913 Zr 0.98675 0.22088 0.21988
 O914 O 0.96316 0.24209 0.24147
 Zr915 Zr 1.02926 0.26420 0.21941
 O916 O 1.00722 0.28768 0.24048
 Zr917 Zr 1.02974 0.22166 0.26280
 O918 O 1.00830 0.24339 0.28608
 Zr919 Zr 0.97024 0.27921 0.23507
 O920 O 0.99212 0.25800 0.21134
 Zr921 Zr 0.97132 0.23681 0.27857
 O922 O 0.99276 0.21301 0.25705
 Zr923 Zr 1.01353 0.28046 0.27763
 O924 O 1.03754 0.25876 0.25654
 O925 O 1.02352 0.22738 0.22590
 O926 O 0.97661 0.27384 0.27211
 C927 C 1.01968 0.17590 0.23060
 C928 C 1.01900 0.23128 0.17427
 C929 C 1.07487 0.23186 0.23016
 C930 C 0.97821 0.32414 0.26857
 C931 C 0.92625 0.26994 0.26964
 C932 C 0.98020 0.27172 0.32258
 H933 H 0.94607 0.23773 0.23777
 H934 H 1.01244 0.23979 0.30326
 H935 H 1.03395 0.21696 0.21552
 H936 H 1.01053 0.30490 0.23626
 H937 H 0.97941 0.30013 0.19395
 H938 H 1.02018 0.30395 0.19555
 H939 H 0.98591 0.21190 0.31619
 H940 H 1.01318 0.18698 0.28989
 H941 H 0.93258 0.26366 0.21038
 H942 H 0.95961 0.23728 0.18515
 H943 H 1.04050 0.26709 0.31420
 H944 H 1.06409 0.23933 0.28959
 H945 H 0.96006 0.18631 0.23716
 H946 H 0.93507 0.20960 0.26475
 H947 H 1.06438 0.29035 0.23709
 H948 H 1.03819 0.31821 0.26297
 O949 O 0.74746 1.06416 0.71928
 O950 O 0.79105 1.05563 0.72201
 O951 O 0.71985 1.00117 0.68382
 O952 O 0.72158 0.96000 0.68996
 O953 O 0.68454 1.02898 0.74700
 O954 O 0.69306 1.02589 0.79045
 O955 O 0.78266 0.93569 0.75165
 O956 O 0.77786 0.94262 0.70855
 O957 O 0.81328 0.99718 0.78129
 O958 O 0.80367 1.04240 0.77848
 O959 O 0.75233 0.96711 0.81266
 O960 O 0.70699 0.96938 0.80305
 O961 O 0.75298 0.93515 0.78067
 O962 O 0.70880 0.94227 0.77778
 O963 O 0.78128 0.99689 0.81310
 O964 O 0.77833 1.04092 0.80543
 O965 O 0.81391 0.96779 0.75190
 O966 O 0.80662 0.97129 0.70781
 O967 O 0.71739 1.06323 0.74800
 O968 O 0.71964 1.05413 0.79087
 O969 O 0.68553 1.00039 0.71676
 O970 O 0.69478 0.95705 0.72079
 O971 O 0.74842 1.03141 0.68492
 O972 O 0.79118 1.02911 0.69381
 Zr973 Zr 0.76313 1.02905 0.72025
 O974 O 0.78667 1.00756 0.74164
 Zr975 Zr 0.72087 0.98550 0.71899
 O976 O 0.74250 0.96208 0.74062
 Zr977 Zr 0.71966 1.02785 0.76261
 O978 O 0.74141 1.00658 0.78606
 Zr979 Zr 0.77948 0.97036 0.73536
 O980 O 0.75804 0.99188 0.71146
 Zr981 Zr 0.77846 1.01311 0.77860
 O982 O 0.75667 1.03680 0.75732
 Zr983 Zr 0.73619 0.96950 0.77779
 O984 O 0.71223 0.99074 0.75612
 O985 O 0.72633 1.02232 0.72579
 O986 O 0.77312 0.97603 0.77234
 C987 C 0.72960 1.07379 0.73104
 C988 C 0.73149 1.01920 0.67429
 C989 C 0.67492 1.01730 0.72904
 C990 C 0.77110 0.92560 0.76936
 C991 C 0.82345 0.97949 0.76978
 C992 C 0.76989 0.97892 0.82277
 H993 H 0.80377 1.01186 0.73797
 H994 H 0.73726 1.01031 0.80320
 H995 H 0.71593 1.03275 0.71537
 H996 H 0.73914 0.94483 0.73651
 H997 H 0.77054 0.95005 0.69380
 H998 H 0.72973 0.94507 0.69600
 H999 H 0.76328 1.03908 0.81520
 H1000 H 0.73571 1.06234 0.79024
 H1001 H 0.81654 0.98618 0.71012
 H1002 H 0.79075 1.01288 0.68587
 H1003 H 0.70991 0.98261 0.81499
 H1004 H 0.68492 1.00986 0.78866
 H1005 H 0.78925 1.06398 0.73793
 H1006 H 0.81570 1.03933 0.76539
 H1007 H 0.68601 0.95899 0.73645
 H1008 H 0.71059 0.93265 0.76261
 O1009 O 0.68534 0.53243 0.24918
 O1010 O 0.69451 0.53020 0.29237
 O1011 O 0.74889 0.56568 0.21975
 O1012 O 0.78958 0.55854 0.22033
 O1013 O 0.71843 0.50260 0.18593
 O1014 O 0.72078 0.45933 0.19501
 O1015 O 0.81364 0.49791 0.28241
 O1016 O 0.80742 0.54086 0.27733
 O1017 O 0.75229 0.46973 0.31466
 O1018 O 0.70705 0.47317 0.30588
 O1019 O 0.78061 0.43684 0.25360
 O1020 O 0.77788 0.44540 0.20843
 O1021 O 0.81313 0.46829 0.25325
 O1022 O 0.80493 0.47069 0.20886
 O1023 O 0.75146 0.43738 0.28315
 O1024 O 0.70736 0.44598 0.28068
 O1025 O 0.78226 0.49850 0.31427
 O1026 O 0.77914 0.54273 0.30632
 O1027 O 0.68498 0.50295 0.21979
 O1028 O 0.69334 0.45980 0.22229
 O1029 O 0.74780 0.53205 0.18590
 O1030 O 0.79140 0.52700 0.19453
 O1031 O 0.71920 0.56584 0.24888
 O1032 O 0.72195 0.55743 0.29191
 Zr1033 Zr 0.72072 0.53069 0.26411
 O1034 O 0.74211 0.50917 0.28762
 Zr1035 Zr 0.76342 0.53013 0.22097
 O1036 O 0.78677 0.50853 0.24264
 Zr1037 Zr 0.72009 0.48756 0.22131
 O1038 O 0.74138 0.46403 0.24299
 Zr1039 Zr 0.77924 0.51461 0.27968
 O1040 O 0.75792 0.53854 0.25813
 Zr1041 Zr 0.73575 0.47217 0.28006
 O1042 O 0.71209 0.49367 0.25843
 Zr1043 Zr 0.77851 0.47143 0.23700
 O1044 O 0.75717 0.49302 0.21306
 O1045 O 0.72657 0.52437 0.22725
 O1046 O 0.77280 0.47763 0.27397
 C1047 C 0.67504 0.52042 0.23185
 C1048 C 0.73142 0.57588 0.23162
 C1049 C 0.73038 0.52004 0.17578
 C1050 C 0.82321 0.47985 0.27096
 C1051 C 0.77042 0.48102 0.32431
 C1052 C 0.76903 0.42723 0.27154
 H1053 H 0.73821 0.51320 0.30474
 H1054 H 0.73726 0.44689 0.23917
 H1055 H 0.71618 0.53487 0.21690
 H1056 H 0.80401 0.51225 0.23891
 H1057 H 0.80021 0.55556 0.26968
 H1058 H 0.80433 0.55257 0.22885
 H1059 H 0.70902 0.43565 0.26596
 H1060 H 0.68549 0.46088 0.23852
 H1061 H 0.76482 0.54040 0.31701
 H1062 H 0.73826 0.56512 0.29092
 H1063 H 0.76401 0.43424 0.21137
 H1064 H 0.73681 0.46040 0.18677
 H1065 H 0.68614 0.51423 0.29131
 H1066 H 0.71046 0.48655 0.31751
 H1067 H 0.78864 0.51145 0.18574
 H1068 H 0.81534 0.48531 0.21070
 O1069 O 0.56437 0.21580 0.74821
 O1070 O 0.55543 0.21798 0.79129
 O1071 O 0.50072 0.18428 0.71769
 O1072 O 0.46021 0.19164 0.71864
 O1073 O 0.53217 0.24734 0.68548
 O1074 O 0.53057 0.29025 0.69488
 O1075 O 0.43658 0.25212 0.78151
 O1076 O 0.44223 0.20927 0.77638
 O1077 O 0.49849 0.27951 0.81417
 O1078 O 0.54293 0.27632 0.80596
 O1079 O 0.47009 0.31293 0.75296
 O1080 O 0.47265 0.30489 0.70818
 O1081 O 0.43741 0.28187 0.75255
 O1082 O 0.44599 0.27916 0.70776
 O1083 O 0.49900 0.31190 0.78279
 O1084 O 0.54383 0.30248 0.77975
 O1085 O 0.46809 0.25119 0.81346
 O1086 O 0.47073 0.20670 0.80506
 O1087 O 0.56537 0.24587 0.71948
 O1088 O 0.55747 0.28937 0.72276
 O1089 O 0.50210 0.21859 0.68474
 O1090 O 0.45836 0.22373 0.69359
 O1091 O 0.52976 0.18319 0.74750
 O1092 O 0.52721 0.19151 0.79087
 Zr1093 Zr 0.52904 0.21826 0.76315
 O1094 O 0.50799 0.24003 0.78676
 Zr1095 Zr 0.48651 0.21989 0.71982
 O1096 O 0.46335 0.24145 0.74171
 Zr1097 Zr 0.53048 0.26187 0.72098
 O1098 O 0.50922 0.28549 0.74255
 Zr1099 Zr 0.47081 0.23509 0.77875
 O1100 O 0.49175 0.21104 0.75693
 Zr1101 Zr 0.51474 0.27705 0.77954
 O1102 O 0.53822 0.25524 0.75803
 Zr1103 Zr 0.47202 0.27844 0.73632
 O1104 O 0.49336 0.25696 0.71234
 O1105 O 0.52340 0.22510 0.72637
 O1106 O 0.47764 0.27201 0.77328
 C1107 C 0.57494 0.22792 0.73115
 C1108 C 0.51779 0.17362 0.72974
 C1109 C 0.51985 0.23037 0.67498
 C1110 C 0.42718 0.27031 0.77014
 C1111 C 0.48021 0.26843 0.82370
 C1112 C 0.48156 0.32227 0.77112
 H1113 H 0.51184 0.23585 0.80386
 H1114 H 0.51351 0.30261 0.73887
 H1115 H 0.53365 0.21458 0.71591
 H1116 H 0.44608 0.23790 0.73791
 H1117 H 0.44911 0.19461 0.76836
 H1118 H 0.44564 0.19745 0.72753
 H1119 H 0.54118 0.31407 0.76617
 H1120 H 0.56555 0.28763 0.73883
 H1121 H 0.48476 0.20914 0.81615
 H1122 H 0.51091 0.18385 0.78952
 H1123 H 0.48710 0.31539 0.71078
 H1124 H 0.51440 0.28986 0.68683
 H1125 H 0.56380 0.23398 0.79063
 H1126 H 0.54053 0.26168 0.81622
 H1127 H 0.46151 0.23913 0.68470
 H1128 H 0.43462 0.26538 0.71026
 O1129 O 0.18493 0.72023 0.50196
 O1130 O 0.19350 0.72320 0.45874
 O1131 O 0.24815 0.68516 0.52986
 O1132 O 0.28890 0.69146 0.52926
 O1133 O 0.21941 0.74822 0.56538
 O1134 O 0.22240 0.79149 0.55717
 O1135 O 0.31333 0.75306 0.46757
 O1136 O 0.30653 0.71015 0.47206
 O1137 O 0.25221 0.78321 0.43704
 O1138 O 0.20730 0.78065 0.44604
 O1139 O 0.28237 0.81393 0.49853
 O1140 O 0.28007 0.80468 0.54325
 O1141 O 0.31394 0.78175 0.49764
 O1142 O 0.30607 0.77826 0.54239
 O1143 O 0.25257 0.81468 0.46958
 O1144 O 0.20809 0.80673 0.47229
 O1145 O 0.28128 0.75353 0.43632
 O1146 O 0.27757 0.70915 0.44361
 O1147 O 0.18552 0.74902 0.53203
 O1148 O 0.19472 0.79217 0.53001
 O1149 O 0.24814 0.71815 0.56452
 O1150 O 0.29182 0.72249 0.55538
 O1151 O 0.21801 0.68615 0.50115
 O1152 O 0.22048 0.69546 0.45824
 Zr1153 Zr 0.22012 0.72159 0.48663
 O1154 O 0.24159 0.74321 0.46335
 Zr1155 Zr 0.26337 0.72042 0.52929
 O1156 O 0.28690 0.74193 0.50775
 Zr1157 Zr 0.22089 0.76384 0.53029
 O1158 O 0.24246 0.78737 0.50894
 Zr1159 Zr 0.27870 0.73684 0.47068
 O1160 O 0.25723 0.71290 0.49202
 Zr1161 Zr 0.23613 0.78018 0.47179
 O1162 O 0.21230 0.75865 0.49316
 Zr1163 Zr 0.27951 0.77904 0.51432
 O1164 O 0.25795 0.75747 0.53804
 O1165 O 0.22657 0.72704 0.52354
 O1166 O 0.27314 0.77381 0.47729
 C1167 C 0.17511 0.73198 0.51972
 C1168 C 0.23031 0.67553 0.51802
 C1169 C 0.23111 0.73035 0.57506
 C1170 C 0.32346 0.77059 0.47939
 C1171 C 0.26979 0.77157 0.42683
 C1172 C 0.27061 0.82419 0.48106
 H1173 H 0.23736 0.73964 0.44619
 H1174 H 0.23876 0.80450 0.51319
 H1175 H 0.21613 0.71652 0.53381
 H1176 H 0.30411 0.73776 0.51115
 H1177 H 0.29925 0.69545 0.47962
 H1178 H 0.30356 0.69715 0.52042
 H1179 H 0.21044 0.81699 0.48696
 H1180 H 0.18644 0.79133 0.51396
 H1181 H 0.26320 0.71203 0.43309
 H1182 H 0.23656 0.68727 0.45902
 H1183 H 0.26607 0.81584 0.54102
 H1184 H 0.23859 0.79011 0.56505
 H1185 H 0.18558 0.73937 0.46015
 H1186 H 0.20989 0.76701 0.43450
 H1187 H 0.28938 0.73780 0.56466
 H1188 H 0.31668 0.76394 0.53956
 O1189 O 0.24748 0.18497 1.03156
 O1190 O 0.29082 0.19332 1.02883
 O1191 O 0.21894 0.24865 1.06468
 O1192 O 0.22039 0.28937 1.05783
 O1193 O 0.18485 0.21877 1.00173
 O1194 O 0.19366 0.22099 0.95852
 O1195 O 0.28241 0.31282 0.99675
 O1196 O 0.27765 0.30663 1.03969
 O1197 O 0.31369 0.25080 0.96826
 O1198 O 0.30449 0.20607 0.97129
 O1199 O 0.25258 0.28037 0.93590
 O1200 O 0.20768 0.27830 0.94463
 O1201 O 0.25302 0.31277 0.96737
 O1202 O 0.20838 0.30502 0.97030
 O1203 O 0.28187 0.25092 0.93622
 O1204 O 0.27857 0.20641 0.94483
 O1205 O 0.31385 0.28081 0.99702
 O1206 O 0.30613 0.27787 1.04137
 O1207 O 0.21821 0.18490 1.00195
 O1208 O 0.22078 0.19333 0.95873
 O1209 O 0.18520 0.24839 1.03097
 O1210 O 0.19459 0.29190 1.02631
 O1211 O 0.24809 0.21895 1.06481
 O1212 O 0.29112 0.22087 1.05601
 Zr1213 Zr 0.26306 0.22008 1.02954
 O1214 O 0.28670 0.24114 1.00787
 Zr1215 Zr 0.22051 0.26338 1.02924
 O1216 O 0.24237 0.28649 1.00761
 Zr1217 Zr 0.22012 0.22003 0.98658
 O1218 O 0.24182 0.24115 0.96299
 Zr1219 Zr 0.27933 0.27840 1.01341
 O1220 O 0.25763 0.25737 1.03745
 Zr1221 Zr 0.27883 0.23495 0.97089
 O1222 O 0.25713 0.21153 0.99253
 Zr1223 Zr 0.23633 0.27835 0.97057
 O1224 O 0.21230 0.25722 0.99217
 O1225 O 0.22629 0.22645 1.02337
 O1226 O 0.27327 0.27210 0.97648
 C1227 C 0.23002 0.17487 1.01954
 C1228 C 0.23083 0.23117 1.07486
 C1229 C 0.17489 0.23101 1.01907
 C1230 C 0.27093 0.32261 0.97882
 C1231 C 0.32365 0.26878 0.97951
 C1232 C 0.27039 0.26866 0.92620
 H1233 H 0.30378 0.23698 1.01179
 H1234 H 0.23783 0.23712 0.94587
 H1235 H 0.21582 0.21621 1.03390
 H1236 H 0.23890 0.30378 1.01142
 H1237 H 0.26993 0.29957 1.05441
 H1238 H 0.22916 0.30400 1.05194
 H1239 H 0.26432 0.20887 0.93402
 H1240 H 0.23685 0.18516 0.95985
 H1241 H 0.31667 0.26344 1.03889
 H1242 H 0.29041 0.23719 1.06375
 H1243 H 0.21015 0.26420 0.93364
 H1244 H 0.18571 0.23718 0.95955
 H1245 H 0.28951 0.18498 1.01285
 H1246 H 0.31559 0.20869 0.98528
 H1247 H 0.18563 0.28930 1.01083
 H1248 H 0.21088 0.31580 0.98457
 C1249 C 0.26526 0.37845 0.77872
 C1250 C 0.28760 0.36396 0.76909
 C1251 C 0.29618 0.36010 0.79556
 C1252 C 0.27393 0.37434 0.80528
 C1253 C 0.31132 0.38372 0.79456
 C1254 C 0.30266 0.38789 0.76801
 C1255 C 0.28043 0.40197 0.77779
 C1256 C 0.28905 0.39811 0.80418
 H1257 H 0.24622 0.37653 0.77206
 H1258 H 0.28709 0.34967 0.75474
 H1259 H 0.26167 0.36940 0.82059
 H1260 H 0.33035 0.38568 0.80123
 H1261 H 0.31442 0.39371 0.75259
 H1262 H 0.28959 0.41248 0.81844
 C1263 C 0.28690 -0.10244 0.30444
 C1264 C 0.27195 -0.12631 0.30623
 C1265 C 0.29416 -0.14051 0.29641
 C1266 C 0.30913 -0.11681 0.29475
 C1267 C 0.28517 -0.13720 0.26999
 C1268 C 0.26286 -0.12268 0.27968
 C1269 C 0.27790 -0.09911 0.27806
 C1270 C 0.30007 -0.11322 0.26826
 H1271 H 0.28758 -0.08784 0.31848
 H1272 H 0.25999 -0.13111 0.32181
 H1273 H 0.32823 -0.11447 0.30111
 H1274 H 0.28453 -0.15175 0.25590
 H1275 H 0.24376 -0.12484 0.27330
 H1276 H 0.31157 -0.10764 0.25256
 C1277 C 0.78182 0.87771 0.76350
 C1278 C 0.80818 0.87395 0.77305
 C1279 C 0.79791 0.85998 0.79522
 C1280 C 0.77168 0.86345 0.78577
 C1281 C 0.79621 0.88384 0.80996
 C1282 C 0.80632 0.89800 0.78776
 C1283 C 0.78015 0.90147 0.77830
 C1284 C 0.76990 0.88757 0.80044
 H1285 H 0.77575 0.87541 0.74431
 H1286 H 0.82392 0.86891 0.76138
 H1287 H 0.75747 0.84905 0.78501
 H1288 H 0.80229 0.88622 0.82915
 H1289 H 0.82037 0.91254 0.78850
 H1290 H 0.75409 0.89335 0.81170
 C1291 C 0.48658 0.87161 0.27923
 C1292 C 0.46460 0.88640 0.26926
 C1293 C 0.45568 0.89034 0.29560
 C1294 C 0.47756 0.87584 0.30568
 C1295 C 0.44023 0.86693 0.29424
 C1296 C 0.44921 0.86272 0.26783
 C1297 C 0.47107 0.84831 0.27791
 C1298 C 0.46215 0.85224 0.30420
 H1299 H 0.50573 0.87327 0.27288
 H1300 H 0.46555 0.90072 0.25498
 H1301 H 0.48946 0.88090 0.32126
 H1302 H 0.42109 0.86520 0.30060
 H1303 H 0.43760 0.85712 0.25220
 H1304 H 0.46118 0.83783 0.31837
 C1305 C -0.05538 0.85163 0.78975
 C1306 C -0.04536 0.86608 0.81184
 C1307 C -0.04679 0.88970 0.79674
 C1308 C -0.05693 0.87543 0.77468
 C1309 C -0.02051 0.88591 0.78763
 C1310 C -0.01899 0.86202 0.80266
 C1311 C -0.02916 0.84786 0.78061
 C1312 C -0.03054 0.87138 0.76547
 H1313 H -0.06953 0.83719 0.79055
 H1314 H -0.05160 0.86408 0.83100
 H1315 H -0.07256 0.88045 0.76282
 H1316 H -0.00623 0.90025 0.78684
 H1317 H -0.00331 0.85630 0.81414
 H1318 H -0.02432 0.87334 0.74630
 C1319 C -0.03907 -0.10096 -0.05355
 C1320 C -0.02400 -0.12476 -0.05436
 C1321 C -0.04654 -0.13892 -0.04520
 C1322 C -0.06164 -0.11525 -0.04451
 C1323 C -0.03861 -0.13512 -0.01851
 C1324 C -0.01598 -0.12071 -0.02757
 C1325 C -0.03108 -0.09714 -0.02694
 C1326 C -0.05359 -0.11112 -0.01773
 H1327 H -0.03922 -0.08657 -0.06778
 H1328 H -0.01125 -0.12955 -0.06932
 H1329 H -0.08048 -0.11315 -0.05164
 H1330 H -0.03847 -0.14942 -0.00417
 H1331 H 0.00287 -0.12271 -0.02044
 H1332 H -0.06568 -0.10525 -0.00259
 C1333 C -0.05351 0.39835 0.46114
 C1334 C -0.04414 0.38400 0.43873
 C1335 C -0.04461 0.36042 0.45398
 C1336 C -0.05407 0.37463 0.47635
 C1337 C -0.01803 0.36465 0.46203
 C1338 C -0.01748 0.38853 0.44689
 C1339 C -0.02700 0.40256 0.46925
 C1340 C -0.02741 0.37909 0.48451
 H1341 H -0.06796 0.41253 0.46080
 H1342 H -0.05119 0.38584 0.41982
 H1343 H -0.06909 0.36951 0.48889
 H1344 H -0.00353 0.35052 0.46234
 H1345 H -0.00236 0.39450 0.43483
 H1346 H -0.02037 0.37732 0.50343
 C1347 C 0.48568 -0.12103 0.46891
 C1348 C 0.46345 -0.13559 0.47867
 C1349 C 0.45442 -0.13902 0.45228
 C1350 C 0.47655 -0.12475 0.44240
 C1351 C 0.43938 -0.11536 0.45394
 C1352 C 0.44849 -0.11165 0.48042
 C1353 C 0.47060 -0.09748 0.47055
 C1354 C 0.46155 -0.10090 0.44421
 H1355 H 0.50481 -0.12313 0.47524
 H1356 H 0.46419 -0.15009 0.49279
 H1357 H 0.48849 -0.12956 0.42678
 H1358 H 0.42026 -0.11317 0.44760
 H1359 H 0.43700 -0.10607 0.49613
 H1360 H 0.46081 -0.08630 0.43022
 C1361 C 0.46969 0.37733 -0.01306
 C1362 C 0.44328 0.37305 -0.02223
 C1363 C 0.45347 0.35881 -0.04423
 C1364 C 0.47976 0.36281 -0.03518
 C1365 C 0.45469 0.38238 -0.05943
 C1366 C 0.44463 0.39681 -0.03738
 C1367 C 0.47087 0.40079 -0.02833
 C1368 C 0.48105 0.38664 -0.05032
 H1369 H 0.47602 0.37552 0.00610
 H1370 H 0.42772 0.36780 -0.01042
 H1371 H 0.49412 0.34856 -0.03435
 H1372 H 0.44835 0.38425 -0.07858
 H1373 H 0.43037 0.41115 -0.03823
 H1374 H 0.49665 0.39242 -0.06184
 C1375 C 0.80264 0.36234 0.48329
 C1376 C 0.81115 0.36636 0.45668
 C1377 C 0.79616 0.39008 0.45565
 C1378 C 0.78774 0.38637 0.48218
 C1379 C 0.77375 0.37595 0.44611
 C1380 C 0.78872 0.35211 0.44722
 C1381 C 0.78024 0.34838 0.47368
 C1382 C 0.76522 0.37198 0.47273
 H1383 H 0.81445 0.35652 0.49868
 H1384 H 0.83012 0.36416 0.44995
 H1385 H 0.78742 0.40072 0.49648
 H1386 H 0.76140 0.38089 0.43084
 H1387 H 0.78909 0.33773 0.43293
 H1388 H 0.74625 0.37406 0.47948
 C1389 C 0.80339 0.85220 -0.03791
 C1390 C 0.79403 0.86667 -0.06021
 C1391 C 0.79493 0.89020 -0.04489
 C1392 C 0.80440 0.87590 -0.02263
 C1393 C 0.76837 0.88635 -0.03671
 C1394 C 0.76738 0.86253 -0.05195
 C1395 C 0.77687 0.84835 -0.02970
 C1396 C 0.77773 0.87177 -0.01433
 H1397 H 0.81760 0.83779 -0.03838
 H1398 H 0.80095 0.86481 -0.07915
 H1399 H 0.81962 0.88100 -0.01028
 H1400 H 0.75408 0.90070 -0.03628
 H1401 H 0.75209 0.85678 -0.06394
 H1402 H 0.77083 0.87357 0.00462
 C1403 C 0.76827 0.30049 0.38731
 C1404 C 0.79470 0.30948 0.38324
 C1405 C 0.79585 0.29465 0.35941
 C1406 C 0.76949 0.28573 0.36320
 C1407 C 0.80584 0.27232 0.37333
 C1408 C 0.80458 0.28713 0.39731
 C1409 C 0.77828 0.27818 0.40111
 C1410 C 0.77937 0.26329 0.37739
 H1411 H 0.75272 0.31203 0.39324
 H1412 H 0.80113 0.32856 0.38554
 H1413 H 0.75513 0.28525 0.34893
 H1414 H 0.82130 0.26039 0.36806
 H1415 H 0.81892 0.28766 0.41163
 H1416 H 0.77293 0.24421 0.37522
 C1417 C 0.80174 0.77021 -0.11222
 C1418 C 0.78683 0.77148 -0.13623
 C1419 C 0.79526 0.79806 -0.13975
 C1420 C 0.81024 0.79687 -0.11601
 C1421 C 0.77285 0.80754 -0.12566
 C1422 C 0.76432 0.78083 -0.12184
 C1423 C 0.77937 0.77966 -0.09820
 C1424 C 0.78779 0.80620 -0.10172
 H1425 H 0.81358 0.75480 -0.10652
 H1426 H 0.78645 0.75725 -0.15065
 H1427 H 0.82919 0.80366 -0.11372
 H1428 H 0.76065 0.82287 -0.13074
 H1429 H 0.74537 0.77405 -0.12400
 H1430 H 0.78815 0.82027 -0.08716
 C1431 C 0.27988 0.48482 0.87121
 C1432 C 0.27015 0.46252 0.88569
 C1433 C 0.29656 0.45370 0.88938
 C1434 C 0.30637 0.47591 0.87513
 C1435 C 0.29522 0.43861 0.86572
 C1436 C 0.26873 0.44752 0.86173
 C1437 C 0.27861 0.46971 0.84766
 C1438 C 0.30493 0.46084 0.85134
 H1439 H 0.27342 0.50392 0.87322
 H1440 H 0.25593 0.46312 0.90008
 H1441 H 0.32183 0.48805 0.87996
 H1442 H 0.30169 0.41952 0.86365
 H1443 H 0.25316 0.43590 0.85597
 H1444 H 0.31905 0.46020 0.83688
 C1445 C 0.30351 -0.03655 0.35310
 C1446 C 0.30531 -0.02132 0.37680
 C1447 C 0.29533 -0.04328 0.39123
 C1448 C 0.29364 -0.05854 0.36770
 C1449 C 0.26899 -0.03420 0.38766
 C1450 C 0.27886 -0.01212 0.37293
 C1451 C 0.27721 -0.02746 0.34952
 C1452 C 0.26723 -0.04940 0.36386
 H1453 H 0.31760 -0.03750 0.33859
 H1454 H 0.32100 -0.00953 0.38176
 H1455 H 0.29988 -0.07771 0.36567
 H1456 H 0.25489 -0.03331 0.40214
 H1457 H 0.27260 0.00705 0.37483
 H1458 H 0.25149 -0.06091 0.35837
 C1459 C -0.01861 -0.05280 -0.11136
 C1460 C -0.04530 -0.06113 -0.11543
 C1461 C -0.04623 -0.04604 -0.13909
 C1462 C -0.01963 -0.03783 -0.13535
 C1463 C -0.05558 -0.02358 -0.12488
 C1464 C -0.05454 -0.03865 -0.10108
 C1465 C -0.02802 -0.03037 -0.09733
 C1466 C -0.02889 -0.01528 -0.12089
 H1467 H -0.00332 -0.06475 -0.10554
 H1468 H -0.05220 -0.08006 -0.11331
 H1469 H -0.00532 -0.03754 -0.14967
 H1470 H -0.07068 -0.01096 -0.12958
 H1471 H -0.06873 -0.03895 -0.08667
 H1472 H -0.02198 0.00365 -0.12290
 C1473 C -0.05238 0.48168 0.38818
 C1474 C -0.03752 0.48077 0.36414
 C1475 C -0.04551 0.45408 0.36049
 C1476 C -0.06046 0.45491 0.38423
 C1477 C -0.02291 0.44491 0.37453
 C1478 C -0.01482 0.47172 0.37847
 C1479 C -0.02981 0.47250 0.40210
 C1480 C -0.03782 0.44587 0.39844
 H1481 H -0.06444 0.49687 0.39402
 H1482 H -0.03744 0.49505 0.34979
 H1483 H -0.07930 0.44779 0.38643
 H1484 H -0.01034 0.42986 0.36953
 H1485 H 0.00402 0.47882 0.37636
 H1486 H -0.03792 0.43169 0.41288
 C1487 C 0.48126 -0.05054 0.38759
 C1488 C 0.45487 -0.05951 0.38321
 C1489 C 0.45371 -0.04408 0.35979
 C1490 C 0.48002 -0.03518 0.36391
 C1491 C 0.44357 -0.02217 0.37421
 C1492 C 0.44485 -0.03756 0.39783
 C1493 C 0.47112 -0.02864 0.40192
 C1494 C 0.47000 -0.01316 0.37861
 H1495 H 0.49682 -0.06217 0.39331
 H1496 H 0.44847 -0.07866 0.38490
 H1497 H 0.49439 -0.03427 0.34969
 H1498 H 0.42805 -0.01025 0.36905
 H1499 H 0.43056 -0.03849 0.41213
 H1500 H 0.47639 0.00600 0.37699
 C1501 C 0.48528 0.46821 -0.12091
 C1502 C 0.47637 0.44167 -0.12485
 C1503 C 0.45424 0.45149 -0.13922
 C1504 C 0.46306 0.47792 -0.13555
 C1505 C 0.43905 0.45289 -0.11565
 C1506 C 0.46122 0.44320 -0.10111
 C1507 C 0.47007 0.46957 -0.09743
 C1508 C 0.44797 0.47941 -0.11168
 H1509 H 0.50437 0.47466 -0.12284
 H1510 H 0.48853 0.42619 -0.12957
 H1511 H 0.46377 0.49216 -0.14993
 H1512 H 0.41996 0.44644 -0.11361
 H1513 H 0.46051 0.42910 -0.08661
 H1514 H 0.43633 0.49501 -0.10605
 C1515 C 0.48104 0.80206 0.36132
 C1516 C 0.45464 0.81124 0.36513
 C1517 C 0.45301 0.79617 0.38876
 C1518 C 0.47933 0.78707 0.38522
 C1519 C 0.44298 0.77410 0.37447
 C1520 C 0.44474 0.78913 0.35066
 C1521 C 0.47102 0.78001 0.34713
 C1522 C 0.46942 0.76488 0.37066
 H1523 H 0.49676 0.81352 0.35572
 H1524 H 0.44836 0.83039 0.36304
 H1525 H 0.49348 0.78628 0.39970
 H1526 H 0.42731 0.76234 0.37950
 H1527 H 0.43069 0.78994 0.33609
 H1528 H 0.47568 0.74572 0.37269
 C1529 C -0.01351 0.78036 0.87251
 C1530 C -0.02257 0.80686 0.87630
 C1531 C -0.04471 0.79698 0.89054
 C1532 C -0.03576 0.77059 0.88702
 C1533 C -0.05977 0.79544 0.86689
 C1534 C -0.03761 0.80521 0.85249
 C1535 C -0.02863 0.77888 0.84897
 C1536 C -0.05075 0.76897 0.86308
 H1537 H 0.00560 0.77400 0.87456
 H1538 H -0.01061 0.82244 0.88120
 H1539 H -0.03509 0.75645 0.90150
 H1540 H -0.07888 0.80183 0.86481
 H1541 H -0.03831 0.81925 0.83793
 H1542 H -0.06229 0.75330 0.85742
 C1543 C 0.39813 0.80579 0.28784
 C1544 C 0.37434 0.80710 0.27270
 C1545 C 0.36011 0.79727 0.29484
 C1546 C 0.38371 0.79609 0.31003
 C1547 C 0.36393 0.77083 0.28614
 C1548 C 0.37843 0.78054 0.26387
 C1549 C 0.40193 0.77940 0.27912
 C1550 C 0.38779 0.76957 0.30125
 H1551 H 0.41254 0.82000 0.28851
 H1552 H 0.36916 0.82255 0.26069
 H1553 H 0.38568 0.80267 0.32910
 H1554 H 0.34960 0.75653 0.28549
 H1555 H 0.37651 0.77397 0.24480
 H1556 H 0.39352 0.75408 0.31297
 C1557 C -0.10116 0.78770 0.80668
 C1558 C -0.11548 0.80979 0.79657
 C1559 C -0.13915 0.79477 0.79799
 C1560 C -0.12502 0.77271 0.80823
 C1561 C -0.13538 0.78555 0.77173
 C1562 C -0.11147 0.80052 0.77023
 C1563 C -0.09741 0.77848 0.78046
 C1564 C -0.12096 0.76338 0.78184
 H1565 H -0.08672 0.78852 0.82084
 H1566 H -0.11346 0.82897 0.80281
 H1567 H -0.13026 0.76103 0.82390
 H1568 H -0.14972 0.78474 0.75743
 H1569 H -0.10572 0.81194 0.75454
 H1570 H -0.12296 0.74420 0.77562
 C1571 C 0.85365 0.30218 0.46350
 C1572 C 0.87751 0.30379 0.47843
 C1573 C 0.89166 0.29421 0.45610
 C1574 C 0.86793 0.29269 0.44115
 C1575 C 0.88833 0.26771 0.46478
 C1576 C 0.87389 0.27718 0.48724
 C1577 C 0.85029 0.27572 0.47222
 C1578 C 0.86431 0.26612 0.44990
 H1579 H 0.83909 0.31626 0.46300
 H1580 H 0.88246 0.31928 0.49050
 H1581 H 0.86560 0.29924 0.42212
 H1582 H 0.90288 0.25363 0.46522
 H1583 H 0.87609 0.27062 0.50627
 H1584 H 0.85868 0.25053 0.43824
 C1585 C 0.86112 0.80387 -0.01848
 C1586 C 0.88511 0.78892 -0.01933
 C1587 C 0.88912 0.79729 -0.04583
 C1588 C 0.86543 0.81234 -0.04507
 C1589 C 0.87508 0.77490 -0.05551
 C1590 C 0.87081 0.76642 -0.02890
 C1591 C 0.84721 0.78149 -0.02819
 C1592 C 0.85122 0.78990 -0.05464
 H1593 H 0.85517 0.81574 -0.00318
 H1594 H 0.89931 0.78857 -0.00488
 H1595 H 0.86337 0.83130 -0.05189
 H1596 H 0.88035 0.76264 -0.07073
 H1597 H 0.87280 0.74745 -0.02210
 H1598 H 0.83694 0.79026 -0.06899
 C1599 C -0.10215 -0.05340 -0.03868
 C1600 C -0.12594 -0.05421 -0.02362
 C1601 C -0.14009 -0.04481 -0.04607
 C1602 C -0.11644 -0.04410 -0.06116
 C1603 C -0.13614 -0.01821 -0.03791
 C1604 C -0.12175 -0.02752 -0.01536
 C1605 C -0.09820 -0.02688 -0.03046
 C1606 C -0.11218 -0.01742 -0.05290
 H1607 H -0.08784 -0.06773 -0.03895
 H1608 H -0.13098 -0.06930 -0.01112
 H1609 H -0.11444 -0.05108 -0.08008
 H1610 H -0.15038 -0.00381 -0.03766
 H1611 H -0.12370 -0.02056 0.00356
 H1612 H -0.10629 -0.00221 -0.06489
 C1613 C -0.11180 0.44752 0.48092
 C1614 C -0.13574 0.46255 0.47998
 C1615 C -0.13970 0.45416 0.45345
 C1616 C -0.11606 0.43902 0.45430
 C1617 C -0.12557 0.47651 0.44384
 C1618 C -0.12134 0.48499 0.47047
 C1619 C -0.09779 0.46985 0.47128
 C1620 C -0.10175 0.46142 0.44482
 H1621 H -0.10592 0.43565 0.49624
 H1622 H -0.14995 0.46298 0.49439
 H1623 H -0.11399 0.42005 0.44749
 H1624 H -0.13057 0.48891 0.42864
 H1625 H -0.12328 0.50398 0.47729
 H1626 H -0.08742 0.46102 0.43055
 C1627 C 0.38792 -0.01809 0.44999
 C1628 C 0.38356 -0.04440 0.44073
 C1629 C 0.36020 -0.04575 0.45622
 C1630 C 0.36429 -0.01951 0.46540
 C1631 C 0.37472 -0.05609 0.47797
 C1632 C 0.39826 -0.05462 0.46253
 C1633 C 0.40234 -0.02844 0.47172
 C1634 C 0.37909 -0.02974 0.48727
 H1635 H 0.39356 -0.00239 0.43851
 H1636 H 0.38521 -0.05060 0.42151
 H1637 H 0.35005 -0.00516 0.46651
 H1638 H 0.36967 -0.07175 0.48976
 H1639 H 0.41259 -0.06887 0.46141
 H1640 H 0.37753 -0.02355 0.50650
 C1641 C 0.37873 0.48475 -0.02908
 C1642 C 0.37478 0.47634 -0.05578
 C1643 C 0.36061 0.45393 -0.04635
 C1644 C 0.36428 0.46225 -0.01977
 C1645 C 0.38426 0.43884 -0.04533
 C1646 C 0.39859 0.46127 -0.05463
 C1647 C 0.40227 0.46962 -0.02811
 C1648 C 0.38823 0.44725 -0.01866
 H1649 H 0.37673 0.50371 -0.02223
 H1650 H 0.36994 0.48879 -0.07098
 H1651 H 0.34992 0.46259 -0.00550
 H1652 H 0.38637 0.41989 -0.05220
 H1653 H 0.41305 0.46093 -0.06877
 H1654 H 0.39400 0.43535 -0.00332
 C1655 C 0.37194 0.47008 0.76559
 C1656 C 0.38635 0.47962 0.78805
 C1657 C 0.38994 0.45314 0.79669
 C1658 C 0.37576 0.44350 0.77433
 C1659 C 0.36623 0.45441 0.81164
 C1660 C 0.36235 0.48099 0.80292
 C1661 C 0.34833 0.47129 0.78057
 C1662 C 0.35191 0.44488 0.78926
 H1663 H 0.37406 0.47666 0.74656
 H1664 H 0.40077 0.49384 0.78763
 H1665 H 0.38065 0.42810 0.76213
 H1666 H 0.36407 0.44781 0.83067
 H1667 H 0.35660 0.49649 0.81463
 H1668 H 0.33741 0.43076 0.78970
 C1669 C 0.35252 -0.05364 0.28649
 C1670 C 0.37621 -0.05513 0.27129
 C1671 C 0.39055 -0.04517 0.29334
 C1672 C 0.36702 -0.04379 0.30858
 C1673 C 0.38679 -0.01879 0.28446
 C1674 C 0.37215 -0.02863 0.26228
 C1675 C 0.34875 -0.02730 0.27760
 C1676 C 0.36300 -0.01734 0.29964
 H1677 H 0.33811 -0.06786 0.28729
 H1678 H 0.38129 -0.07070 0.25938
 H1679 H 0.36503 -0.05019 0.32769
 H1680 H 0.40118 -0.00455 0.28371
 H1681 H 0.37399 -0.02222 0.24317
 H1682 H 0.35737 -0.00171 0.31124
 C1683 C 0.14720 0.53672 0.69606
 C1684 C 0.12347 0.52150 0.69506
 C1685 C 0.10930 0.54355 0.70533
 C1686 C 0.13287 0.55879 0.70623
 C1687 C 0.11365 0.53461 0.73160
 C1688 C 0.12809 0.51246 0.72144
 C1689 C 0.15154 0.52775 0.72228
 C1690 C 0.13749 0.54978 0.73257
 H1691 H 0.16127 0.53754 0.68152
 H1692 H 0.11821 0.50950 0.67962
 H1693 H 0.13474 0.57793 0.69986
 H1694 H 0.09961 0.53383 0.74616
 H1695 H 0.12636 0.49332 0.72783
 H1696 H 0.14344 0.56138 0.74810
 C1697 C 0.13712 0.05025 0.23114
 C1698 C 0.13286 0.05924 0.20474
 C1699 C 0.10942 0.04382 0.20344
 C1700 C 0.11343 0.03489 0.22977
 C1701 C 0.12384 0.02192 0.19332
 C1702 C 0.14749 0.03729 0.19475
 C1703 C 0.15147 0.02836 0.22104
 C1704 C 0.12814 0.01287 0.21977
 H1705 H 0.14276 0.06187 0.24675
 H1706 H 0.13463 0.07839 0.19838
 H1707 H 0.09916 0.03396 0.24409
 H1708 H 0.11867 0.01006 0.17774
 H1709 H 0.16184 0.03824 0.18052
 H1710 H 0.12646 -0.00628 0.22613
 C1711 C 0.61300 0.73302 0.19937
 C1712 C 0.63672 0.73208 0.21476
 C1713 C 0.64108 0.70576 0.20595
 C1714 C 0.61764 0.70662 0.19049
 C1715 C 0.62673 0.69560 0.22789
 C1716 C 0.62209 0.72204 0.23681
 C1717 C 0.59876 0.72285 0.22130
 C1718 C 0.60312 0.69657 0.21247
 H1719 H 0.60717 0.74849 0.18767
 H1720 H 0.65079 0.74663 0.21563
 H1721 H 0.61591 0.70015 0.17136
 H1722 H 0.63193 0.68020 0.23994
 H1723 H 0.62368 0.72852 0.25594
 H1724 H 0.58902 0.68204 0.21155
 C1725 C 0.11406 0.73371 0.70151
 C1726 C 0.13794 0.73284 0.71663
 C1727 C 0.14210 0.70643 0.70800
 C1728 C 0.11849 0.70723 0.69281
 C1729 C 0.12798 0.69650 0.73020
 C1730 C 0.12354 0.72302 0.73894
 C1731 C 0.10006 0.72376 0.72369
 C1732 C 0.10422 0.69740 0.71502
 H1733 H 0.10812 0.74911 0.68977
 H1734 H 0.15209 0.74733 0.71720
 H1735 H 0.11653 0.70061 0.67376
 H1736 H 0.13319 0.68120 0.74238
 H1737 H 0.12535 0.72966 0.75800
 H1738 H 0.09007 0.68291 0.71440
 C1739 C 0.64835 0.21264 0.55471
 C1740 C 0.62489 0.22827 0.55595
 C1741 C 0.61032 0.20663 0.54544
 C1742 C 0.63358 0.19095 0.54433
 C1743 C 0.61472 0.21574 0.51926
 C1744 C 0.62958 0.23750 0.52964
 C1745 C 0.65272 0.22176 0.52857
 C1746 C 0.63824 0.20013 0.51807
 H1747 H 0.66252 0.21140 0.56914
 H1748 H 0.61973 0.24010 0.57155
 H1749 H 0.63504 0.17172 0.55053
 H1750 H 0.60062 0.21695 0.50476
 H1751 H 0.62821 0.25673 0.52345
 H1752 H 0.64393 0.18858 0.50243
 C1753 C 0.63628 0.69781 0.01524
 C1754 C 0.63188 0.68968 0.04191
 C1755 C 0.60839 0.70506 0.04256
 C1756 C 0.61247 0.71310 0.01596
 C1757 C 0.62277 0.72736 0.05197
 C1758 C 0.64638 0.71200 0.05125
 C1759 C 0.65048 0.72011 0.02471
 C1760 C 0.62710 0.73551 0.02529
 H1761 H 0.64207 0.68574 0.00004
 H1762 H 0.63374 0.67075 0.04890
 H1763 H 0.59826 0.71348 0.00153
 H1764 H 0.61784 0.73995 0.06703
 H1765 H 0.66059 0.71156 0.06570
 H1766 H 0.62537 0.75443 0.01829
 C1767 C 0.10260 0.03659 0.05510
 C1768 C 0.12629 0.02136 0.05684
 C1769 C 0.14066 0.04325 0.04656
 C1770 C 0.11715 0.05851 0.04495
 C1771 C 0.13690 0.03394 0.02032
 C1772 C 0.12221 0.01194 0.03047
 C1773 C 0.09883 0.02727 0.02889
 C1774 C 0.11312 0.04913 0.01864
 H1775 H 0.08819 0.03764 0.06928
 H1776 H 0.13114 0.00955 0.07255
 H1777 H 0.11512 0.07774 0.05104
 H1778 H 0.15125 0.03291 0.00607
 H1779 H 0.12403 -0.00728 0.02434
 H1780 H 0.10753 0.06050 0.00284
 C1781 C 0.11327 0.55147 0.51724
 C1782 C 0.11793 0.55988 0.54380
 C1783 C 0.14135 0.54438 0.54443
 C1784 C 0.13696 0.53605 0.51795
 C1785 C 0.12695 0.52228 0.55418
 C1786 C 0.10337 0.53774 0.55344
 C1787 C 0.09900 0.52938 0.52700
 C1788 C 0.12230 0.51384 0.52759
 H1789 H 0.10745 0.56342 0.50196
 H1790 H 0.11623 0.57889 0.55060
 H1791 H 0.15104 0.53541 0.50342
 H1792 H 0.13214 0.50996 0.56937
 H1793 H 0.08927 0.53842 0.56797
 H1794 H 0.12387 0.49482 0.52076
 C1795 C 0.61381 0.05093 0.51639
 C1796 C 0.61788 0.05943 0.54301
 C1797 C 0.64161 0.04446 0.54396
 C1798 C 0.63785 0.03605 0.51741
 C1799 C 0.62759 0.02200 0.55351
 C1800 C 0.60372 0.03696 0.55244
 C1801 C 0.59993 0.02850 0.52596
 C1802 C 0.62354 0.01348 0.52685
 H1803 H 0.60792 0.06274 0.50103
 H1804 H 0.61562 0.07840 0.54980
 H1805 H 0.65214 0.03575 0.50308
 H1806 H 0.63250 0.00959 0.56872
 H1807 H 0.58940 0.03730 0.56676
 H1808 H 0.62560 -0.00548 0.52004
 C1809 C 0.62312 0.52728 0.01146
 C1810 C 0.62744 0.55382 0.02024
 C1811 C 0.64169 0.54394 0.04240
 C1812 C 0.63766 0.51752 0.03373
 C1813 C 0.61814 0.54297 0.05762
 C1814 C 0.60373 0.55274 0.03544
 C1815 C 0.59970 0.52637 0.02675
 C1816 C 0.61384 0.51648 0.04889
 H1817 H 0.62491 0.52067 -0.00761
 H1818 H 0.63258 0.56918 0.00811
 H1819 H 0.65189 0.50312 0.03312
 H1820 H 0.61620 0.54956 0.07668
 H1821 H 0.58949 0.56714 0.03610
 H1822 H 0.60805 0.50103 0.06063
 C1823 C 0.01166 0.03056 0.12317
 C1824 C 0.03380 0.02035 0.13763
 C1825 C 0.04310 0.04658 0.14146
 C1826 C 0.02106 0.05692 0.12732
 C1827 C 0.05813 0.04514 0.11780
 C1828 C 0.04877 0.01883 0.11371
 C1829 C 0.02676 0.02914 0.09964
 C1830 C 0.03607 0.05534 0.10348
 H1831 H -0.00753 0.02440 0.12513
 H1832 H 0.03294 0.00602 0.15190
 H1833 H 0.00929 0.07259 0.13237
 H1834 H 0.07732 0.05127 0.11565
 H1835 H 0.06013 0.00309 0.10794
 H1836 H 0.03695 0.06962 0.08914
 C1837 C 0.03621 0.55246 0.60386
 C1838 C 0.02099 0.55330 0.62756
 C1839 C 0.04325 0.54364 0.64177
 C1840 C 0.05849 0.54290 0.61822
 C1841 C 0.03493 0.51712 0.63765
 C1842 C 0.01255 0.52668 0.62315
 C1843 C 0.02786 0.52600 0.59972
 C1844 C 0.05010 0.51631 0.61381
 H1845 H 0.03672 0.56691 0.58966
 H1846 H 0.00868 0.56850 0.63275
 H1847 H 0.07746 0.54973 0.61632
 H1848 H 0.03448 0.50269 0.65185
 H1849 H -0.00642 0.51983 0.62490
 H1850 H 0.06201 0.50101 0.60794
 C1851 C 0.51354 0.02848 0.62219
 C1852 C 0.53561 0.01871 0.63703
 C1853 C 0.54427 0.04514 0.64110
 C1854 C 0.52229 0.05502 0.62654
 C1855 C 0.55978 0.04405 0.61772
 C1856 C 0.55104 0.01754 0.61335
 C1857 C 0.52909 0.02743 0.59892
 C1858 C 0.53777 0.05381 0.60300
 H1859 H 0.49446 0.02192 0.62379
 H1860 H 0.53477 0.00433 0.65126
 H1861 H 0.51001 0.07040 0.63128
 H1862 H 0.57887 0.05058 0.61593
 H1863 H 0.56280 0.00204 0.60773
 H1864 H 0.53864 0.06816 0.58873
 C1865 C 0.55422 0.53511 0.10386
 C1866 C 0.54384 0.55709 0.11816
 C1867 C 0.54487 0.54189 0.14175
 C1868 C 0.55538 0.51994 0.12763
 C1869 C 0.51870 0.53268 0.13740
 C1870 C 0.51760 0.54783 0.11358
 C1871 C 0.52808 0.52590 0.09953
 C1872 C 0.52908 0.51061 0.12298
 H1873 H 0.56874 0.53607 0.08978
 H1874 H 0.55003 0.57629 0.11629
 H1875 H 0.57095 0.50822 0.13309
 H1876 H 0.50417 0.53177 0.15146
 H1877 H 0.50198 0.55927 0.10764
 H1878 H 0.52286 0.49142 0.12470
 C1879 C 0.21457 0.55312 0.64620
 C1880 C 0.22973 0.55413 0.62247
 C1881 C 0.20759 0.54407 0.60828
 C1882 C 0.19241 0.54316 0.63187
 C1883 C 0.21637 0.51772 0.61241
 C1884 C 0.23862 0.52767 0.62689
 C1885 C 0.22338 0.52683 0.65034
 C1886 C 0.20126 0.51674 0.63628
 H1887 H 0.21387 0.56760 0.66038
 H1888 H 0.24182 0.56951 0.61732
 H1889 H 0.17333 0.54965 0.63380
 H1890 H 0.21701 0.50324 0.59826
 H1891 H 0.25770 0.52116 0.62510
 H1892 H 0.18960 0.50126 0.64217
 C1893 C 0.21156 0.05458 0.14820
 C1894 C 0.22693 0.05592 0.12459
 C1895 C 0.20509 0.04565 0.11015
 C1896 C 0.18967 0.04444 0.13357
 C1897 C 0.21411 0.01937 0.11426
 C1898 C 0.23607 0.02952 0.12898
 C1899 C 0.22058 0.02834 0.15228
 C1900 C 0.19876 0.01808 0.13794
 H1901 H 0.21054 0.06890 0.16250
 H1902 H 0.23876 0.07150 0.11942
 H1903 H 0.17050 0.05074 0.13527
 H1904 H 0.21510 0.00499 0.10003
 H1905 H 0.25524 0.02322 0.12736
 H1906 H 0.18720 0.00246 0.14364
 C1907 C 0.73729 0.21955 0.62135
 C1908 C 0.71532 0.22964 0.63606
 C1909 C 0.70627 0.20336 0.64001
 C1910 C 0.72814 0.19316 0.62555
 C1911 C 0.69087 0.20468 0.61655
 C1912 C 0.70000 0.23105 0.61233
 C1913 C 0.72185 0.22082 0.59801
 C1914 C 0.71277 0.19460 0.60194
 H1915 H 0.75647 0.22582 0.62305
 H1916 H 0.71629 0.24396 0.65037
 H1917 H 0.74011 0.17759 0.63041
 H1918 H 0.67169 0.19841 0.61476
 H1919 H 0.68849 0.24671 0.60664
 H1920 H 0.71177 0.18035 0.58757
 C1921 C 0.69857 0.73412 0.11271
 C1922 C 0.69052 0.70747 0.11743
 C1923 C 0.70583 0.70724 0.14099
 C1924 C 0.71379 0.73381 0.13657
 C1925 C 0.72820 0.69773 0.12683
 C1926 C 0.71291 0.69805 0.10314
 C1927 C 0.72092 0.72455 0.09871
 C1928 C 0.73626 0.72439 0.12215
 H1929 H 0.68644 0.74918 0.10667
 H1930 H 0.67164 0.70038 0.11561
 H1931 H 0.71406 0.74844 0.15059
 H1932 H 0.74086 0.68281 0.13199
 H1933 H 0.71258 0.68340 0.08912
 H1934 H 0.75515 0.73150 0.12384
 C1935 C 0.51629 0.70036 0.13573
 C1936 C 0.51738 0.71550 0.11187
 C1937 C 0.54376 0.70679 0.10787
 C1938 C 0.54275 0.69158 0.13145
 C1939 C 0.55370 0.72894 0.12210
 C1940 C 0.52721 0.73777 0.12640
 C1941 C 0.52625 0.72250 0.14985
 C1942 C 0.55259 0.71376 0.14584
 H1943 H 0.50082 0.68867 0.14153
 H1944 H 0.50299 0.71613 0.09763
 H1945 H 0.54929 0.67251 0.13342
 H1946 H 0.56909 0.74102 0.11696
 H1947 H 0.52065 0.75685 0.12458
 H1948 H 0.56699 0.71307 0.16009
 C1949 C 0.02854 0.73828 0.62824
 C1950 C 0.05497 0.72938 0.62365
 C1951 C 0.04483 0.70729 0.60944
 C1952 C 0.01851 0.71609 0.61374
 C1953 C 0.04400 0.69203 0.63299
 C1954 C 0.05404 0.71414 0.64737
 C1955 C 0.02777 0.72296 0.65167
 C1956 C 0.01762 0.70089 0.63755
 H1957 H 0.02204 0.75739 0.62653
 H1958 H 0.07035 0.74142 0.61837
 H1959 H 0.00397 0.71681 0.59965
 H1960 H 0.05048 0.67292 0.63483
 H1961 H 0.06857 0.71338 0.66148
 H1962 H 0.00217 0.68921 0.64344
 C1963 C 0.53495 0.64627 0.19583
 C1964 C 0.55697 0.63190 0.20597
 C1965 C 0.54167 0.60836 0.20504
 C1966 C 0.51968 0.62255 0.19478
 C1967 C 0.53279 0.61268 0.23133
 C1968 C 0.54803 0.63646 0.23233
 C1969 C 0.52606 0.65059 0.22209
 C1970 C 0.51067 0.62718 0.22119
 H1971 H 0.53580 0.66039 0.18132
 H1972 H 0.57609 0.63373 0.19957
 H1973 H 0.50780 0.61712 0.17930
 H1974 H 0.53197 0.59859 0.24584
 H1975 H 0.55966 0.64235 0.24785
 H1976 H 0.49155 0.62551 0.22762
 C1977 C 0.03766 0.64679 0.69775
 C1978 C 0.05984 0.63233 0.70747
 C1979 C 0.04453 0.60880 0.70661
 C1980 C 0.02237 0.62313 0.69680
 C1981 C 0.03602 0.61295 0.73305
 C1982 C 0.05125 0.63678 0.73399
 C1983 C 0.02910 0.65095 0.72413
 C1984 C 0.01376 0.62753 0.72334
 H1985 H 0.03830 0.66098 0.68330
 H1986 H 0.07887 0.63421 0.70083
 H1987 H 0.01004 0.61815 0.68153
 H1988 H 0.03543 0.59878 0.74750
 H1989 H 0.06307 0.64261 0.74938
 H1990 H -0.00528 0.62578 0.73000
 C1991 C 0.02887 0.12346 0.01110
 C1992 C 0.01839 0.13820 0.03291
 C1993 C 0.04449 0.14234 0.04240
 C1994 C 0.05510 0.12790 0.02071
 C1995 C 0.04305 0.11890 0.05779
 C1996 C 0.01687 0.11452 0.04825
 C1997 C 0.02746 0.10016 0.02658
 C1998 C 0.05354 0.10430 0.03608
 H1999 H 0.02289 0.12507 -0.00819
 H2000 H 0.00401 0.15241 0.03169
 H2001 H 0.07087 0.13304 0.00912
 H2002 H 0.04901 0.11714 0.07708
 H2003 H 0.00106 0.10885 0.05955
 H2004 H 0.06790 0.09006 0.03734
 C2005 C 0.05144 0.60389 0.53806
 C2006 C 0.05233 0.62750 0.52272
 C2007 C 0.04288 0.64193 0.54496
 C2008 C 0.04207 0.61843 0.56033
 C2009 C 0.01631 0.63791 0.53675
 C2010 C 0.02568 0.62323 0.51440
 C2011 C 0.02494 0.59985 0.52978
 C2012 C 0.01542 0.61409 0.55202
 H2013 H 0.06584 0.58964 0.53859
 H2014 H 0.06746 0.63237 0.51022
 H2015 H 0.04896 0.61656 0.57930
 H2016 H 0.00194 0.65217 0.53628
 H2017 H 0.01878 0.62498 0.49543
 H2018 H 0.00015 0.60836 0.56399
 C2019 C 0.51806 0.11392 0.54849
 C2020 C 0.54445 0.11813 0.55752
 C2021 C 0.54573 0.14161 0.54217
 C2022 C 0.51941 0.13765 0.53319
 C2023 C 0.55583 0.12721 0.52023
 C2024 C 0.55443 0.10356 0.53555
 C2025 C 0.52814 0.09960 0.52657
 C2026 C 0.52939 0.12294 0.51114
 H2027 H 0.50244 0.10828 0.56006
 H2028 H 0.55080 0.11628 0.57667
 H2029 H 0.50510 0.15195 0.53230
 H2030 H 0.57139 0.13235 0.50837
 H2031 H 0.56872 0.08923 0.53649
 H2032 H 0.52301 0.12464 0.49198
 C2033 C 0.53690 0.60253 0.05338
 C2034 C 0.55875 0.61713 0.04319
 C2035 C 0.54328 0.64055 0.04431
 C2036 C 0.52146 0.62611 0.05460
 C2037 C 0.53423 0.63627 0.01805
 C2038 C 0.54963 0.61258 0.01686
 C2039 C 0.52782 0.59825 0.02717
 C2040 C 0.51230 0.62155 0.02823
 H2041 H 0.53796 0.58837 0.06784
 H2042 H 0.57793 0.61543 0.04948
 H2043 H 0.50956 0.63122 0.07014
 H2044 H 0.53322 0.65041 0.00359
 H2045 H 0.56118 0.60683 0.00125
 H2046 H 0.49312 0.62312 0.02193
 C2047 C 0.71978 0.12824 0.51382
 C2048 C 0.72965 0.11340 0.53584
 C2049 C 0.70329 0.10949 0.54469
 C2050 C 0.69331 0.12407 0.52276
 C2051 C 0.70461 0.13291 0.56018
 C2052 C 0.73106 0.13711 0.55123
 C2053 C 0.72107 0.15157 0.52932
 C2054 C 0.69477 0.14767 0.53820
 H2055 H 0.72616 0.12653 0.49468
 H2056 H 0.74397 0.09911 0.53491
 H2057 H 0.67782 0.11939 0.51058
 H2058 H 0.69824 0.13474 0.57932
 H2059 H 0.74666 0.14266 0.56291
 H2060 H 0.68056 0.16207 0.53914
 C2061 C 0.69799 0.64643 0.03622
 C2062 C 0.69756 0.62260 0.02117
 C2063 C 0.70694 0.60859 0.04372
 C2064 C 0.70730 0.63231 0.05878
 C2065 C 0.73354 0.61281 0.03577
 C2066 C 0.72424 0.62707 0.01311
 C2067 C 0.72452 0.65067 0.02821
 C2068 C 0.73397 0.63684 0.05075
 H2069 H 0.68343 0.66052 0.03638
 H2070 H 0.68262 0.61739 0.00852
 H2071 H 0.70021 0.63437 0.07764
 H2072 H 0.74808 0.59872 0.03567
 H2073 H 0.73135 0.62514 -0.00575
 H2074 H 0.74905 0.64291 0.06284
 C2075 C 0.23443 0.61367 0.70024
 C2076 C 0.20799 0.61811 0.69139
 C2077 C 0.20699 0.64156 0.70682
 C2078 C 0.23334 0.63743 0.71559
 C2079 C 0.19700 0.62712 0.72881
 C2080 C 0.19810 0.60353 0.71339
 C2081 C 0.22439 0.59939 0.72221
 C2082 C 0.22345 0.62272 0.73768
 H2083 H 0.24992 0.60792 0.68854
 H2084 H 0.20151 0.61632 0.67227
 H2085 H 0.24776 0.65162 0.71640
 H2086 H 0.18162 0.63199 0.74101
 H2087 H 0.18367 0.58933 0.71252
 H2088 H 0.22995 0.62438 0.75680
 C2089 C 0.23106 0.11223 0.19982
 C2090 C 0.20480 0.11689 0.19060
 C2091 C 0.20373 0.14027 0.20616
 C2092 C 0.22991 0.13586 0.21531
 C2093 C 0.19325 0.12583 0.22787
 C2094 C 0.19444 0.10226 0.21236
 C2095 C 0.22058 0.09789 0.22152
 C2096 C 0.21954 0.12115 0.23713
 H2097 H 0.24668 0.10644 0.18831
 H2098 H 0.19859 0.11531 0.17138
 H2099 H 0.24443 0.14994 0.21646
 H2100 H 0.17766 0.13108 0.23966
 H2101 H 0.18001 0.08810 0.21119
 H2102 H 0.22576 0.12263 0.25636
 C2103 C 0.69875 1.11228 0.73230
 C2104 C 0.71383 1.13623 0.73153
 C2105 C 0.70567 1.14013 0.70493
 C2106 C 0.69050 1.11652 0.70563
 C2107 C 0.72809 1.12594 0.69552
 C2108 C 0.73633 1.12175 0.72222
 C2109 C 0.72114 1.09825 0.72284
 C2110 C 0.71293 1.10219 0.69632
 H2111 H 0.68677 1.10642 0.74753
 H2112 H 0.71412 1.15047 0.74594
 H2113 H 0.67158 1.11444 0.69867
 H2114 H 0.74075 1.13074 0.68049
 H2115 H 0.75525 1.12364 0.72920
 H2116 H 0.71260 1.08791 0.68194
 C2117 C 0.73859 0.62388 0.22237
 C2118 C 0.72969 0.62822 0.19589
 C2119 C 0.70757 0.64242 0.20590
 C2120 C 0.71635 0.63838 0.23226
 C2121 C 0.69238 0.61882 0.20688
 C2122 C 0.71451 0.60447 0.19698
 C2123 C 0.72333 0.60042 0.22329
 C2124 C 0.70123 0.61452 0.23332
 H2125 H 0.75768 0.62569 0.22890
 H2126 H 0.74175 0.63337 0.18049
 H2127 H 0.71702 0.65260 0.24669
 H2128 H 0.67329 0.61686 0.20038
 H2129 H 0.71380 0.59024 0.18255
 H2130 H 0.68957 0.60868 0.24880
 C2131 C 0.51643 0.13509 0.69887
 C2132 C 0.54306 0.13095 0.69049
 C2133 C 0.54398 0.10732 0.70563
 C2134 C 0.51742 0.11114 0.71392
 C2135 C 0.55349 0.12151 0.72802
 C2136 C 0.55246 0.14529 0.71290
 C2137 C 0.52597 0.14914 0.72123
 C2138 C 0.52683 0.12563 0.73641
 H2139 H 0.50110 0.14088 0.68696
 H2140 H 0.54989 0.13309 0.67154
 H2141 H 0.50308 0.09684 0.71428
 H2142 H 0.56867 0.11663 0.74049
 H2143 H 0.56679 0.15961 0.71249
 H2144 H 0.51998 0.12369 0.75536
 C2145 C 1.05435 0.14749 0.21322
 C2146 C 1.05598 0.12381 0.22848
 C2147 C 1.04558 0.10944 0.20664
 C2148 C 1.04407 0.13293 0.19135
 C2149 C 1.01940 0.11335 0.21595
 C2150 C 1.02966 0.12804 0.23791
 C2151 C 1.02819 0.15140 0.22252
 C2152 C 1.01781 0.13709 0.20071
 H2153 H 1.06861 0.16184 0.21214
 H2154 H 1.07172 0.11867 0.24013
 H2155 H 1.05014 0.13482 0.17212
 H2156 H 1.00511 0.09904 0.21699
 H2157 H 1.02357 0.12630 0.25714
 H2158 H 1.00203 0.14272 0.18932
 C2159 C 0.21378 0.64662 0.55243
 C2160 C 0.19142 0.63235 0.54285
 C2161 C 0.20664 0.60876 0.54329
 C2162 C 0.22899 0.62290 0.55295
 C2163 C 0.21481 0.61306 0.51678
 C2164 C 0.19967 0.63695 0.51627
 C2165 C 0.22201 0.65094 0.52598
 C2166 C 0.23726 0.62747 0.52634
 H2167 H 0.21339 0.66069 0.56702
 H2168 H 0.17248 0.63424 0.54977
 H2169 H 0.24150 0.61774 0.56800
 H2170 H 0.21514 0.59899 0.50221
 H2171 H 0.18768 0.64297 0.50109
 H2172 H 0.25620 0.62572 0.51940
 C2173 C 0.21996 0.12702 1.01258
 C2174 C 0.22980 0.11241 1.03476
 C2175 C 0.20345 0.10870 1.04367
 C2176 C 0.19348 0.12300 1.02162
 C2177 C 0.20489 0.13229 1.05888
 C2178 C 0.23132 0.13625 1.04991
 C2179 C 0.22137 0.15048 1.02787
 C2180 C 0.19504 0.14677 1.03680
 H2181 H 0.22634 0.12510 0.99346
 H2182 H 0.24402 0.09801 1.03399
 H2183 H 0.17788 0.11788 1.00976
 H2184 H 0.19853 0.13435 1.07801
 H2185 H 0.24696 0.14187 1.06150
 H2186 H 0.18084 0.16120 1.03761
 C2187 C 0.19659 0.71332 0.60395
 C2188 C 0.20649 0.69117 0.61834
 C2189 C 0.20576 0.70649 0.64189
 C2190 C 0.19577 0.72861 0.62766
 C2191 C 0.23213 0.71511 0.63757
 C2192 C 0.23294 0.69986 0.61374
 C2193 C 0.22292 0.72197 0.59963
 C2194 C 0.22224 0.73733 0.62307
 H2195 H 0.18205 0.71262 0.58985
 H2196 H 0.19988 0.67210 0.61649
 H2197 H 0.18047 0.74077 0.63291
 H2198 H 0.24669 0.71577 0.65165
 H2199 H 0.24831 0.68809 0.60783
 H2200 H 0.22887 0.75640 0.62479
 C2201 C 0.20103 0.23315 1.11392
 C2202 C 0.19162 0.20686 1.11790
 C2203 C 0.20713 0.20507 1.14126
 C2204 C 0.21647 0.23129 1.13754
 C2205 C 0.22877 0.19475 1.12663
 C2206 C 0.21330 0.19665 1.10310
 C2207 C 0.22266 0.22285 1.09937
 C2208 C 0.23825 0.22109 1.12260
 H2209 H 0.18967 0.24903 1.10850
 H2210 H 0.17237 0.20083 1.11609
 H2211 H 0.21771 0.24544 1.15200
 H2212 H 0.24041 0.17893 1.13153
 H2213 H 0.21201 0.18251 1.08863
 H2214 H 0.25750 0.22714 1.12426
 C2215 C 0.72108 0.51276 0.12782
 C2216 C 0.69474 0.52192 0.12320
 C2217 C 0.70508 0.54379 0.10883
 C2218 C 0.73131 0.53473 0.11317
 C2219 C 0.70614 0.55922 0.13229
 C2220 C 0.69591 0.53733 0.14682
 C2221 C 0.72209 0.52824 0.15116
 C2222 C 0.73244 0.55009 0.13690
 H2223 H 0.72735 0.49357 0.12621
 H2224 H 0.67921 0.51000 0.11804
 H2225 H 0.74581 0.53374 0.09909
 H2226 H 0.69989 0.57841 0.13403
 H2227 H 0.68142 0.53836 0.16093
 H2228 H 0.74804 0.56165 0.14271
 C2229 C 0.69678 1.03639 0.64592
 C2230 C 0.70624 1.05911 0.63216
 C2231 C 0.70562 1.04449 0.60817
 C2232 C 0.69607 1.02178 0.62182
 C2233 C 0.73214 1.03615 0.61213
 C2234 C 0.73284 1.05069 0.63641
 C2235 C 0.72323 1.02799 0.64989
 C2236 C 0.72269 1.01334 0.62603
 H2237 H 0.68228 1.03643 0.66007
 H2238 H 0.69936 1.07801 0.63458
 H2239 H 0.68099 1.00935 0.61653
 H2240 H 0.74663 1.03617 0.59800
 H2241 H 0.74806 1.06252 0.64263
 H2242 H 0.72958 0.99443 0.62372
 C2243 C 0.51278 0.22157 0.62692
 C2244 C 0.53509 0.23146 0.61259
 C2245 C 0.54368 0.20508 0.60828
 C2246 C 0.52149 0.19506 0.62230
 C2247 C 0.55887 0.20576 0.63190
 C2248 C 0.55021 0.23222 0.63648
 C2249 C 0.52804 0.22221 0.65042
 C2250 C 0.53665 0.19585 0.64610
 H2251 H 0.49374 0.22824 0.62515
 H2252 H 0.53453 0.24602 0.59853
 H2253 H 0.50942 0.17975 0.61681
 H2254 H 0.57790 0.19910 0.63383
 H2255 H 0.56198 0.24758 0.64250
 H2256 H 0.53726 0.18131 0.66019
 C2257 C 1.03621 0.19659 0.14568
 C2258 C 1.02081 0.19512 0.12205
 C2259 C 1.04266 0.20537 0.10763
 C2260 C 1.05809 0.20671 0.13108
 C2261 C 1.03358 0.23165 0.11165
 C2262 C 1.01162 0.22153 0.12639
 C2263 C 1.02712 0.22283 0.14971
 C2264 C 1.04894 0.23306 0.13537
 H2265 H 1.03727 0.18227 0.15997
 H2266 H 1.00888 0.17952 0.11712
 H2267 H 1.07727 0.20048 0.13296
 H2268 H 1.03255 0.24602 0.09741
 H2269 H 0.99244 0.22779 0.12471
 H2270 H 1.06046 0.24874 0.14102
 C2271 C 0.61359 0.19724 0.73253
 C2272 C 0.61770 0.18850 0.70599
 C2273 C 0.64124 0.20378 0.70482
 C2274 C 0.63742 0.21244 0.73128
 C2275 C 0.62688 0.22591 0.69507
 C2276 C 0.60319 0.21067 0.69634
 C2277 C 0.59936 0.21937 0.72275
 C2278 C 0.62279 0.23468 0.72162
 H2279 H 0.60793 0.18551 0.74803
 H2280 H 0.61571 0.16944 0.69942
 H2281 H 0.65176 0.21309 0.74557
 H2282 H 0.63188 0.23803 0.67966
 H2283 H 0.58882 0.20997 0.68205
 H2284 H 0.62466 0.25375 0.72822
 C2285 C 1.11335 0.20159 0.23216
 C2286 C 1.11765 0.19240 0.20584
 C2287 C 1.14129 0.20750 0.20471
 C2288 C 1.13724 0.21663 0.23095
 C2289 C 1.12722 0.22954 0.19438
 C2290 C 1.10340 0.21447 0.19563
 C2291 C 1.09936 0.22362 0.22184
 C2292 C 1.12286 0.23880 0.22075
 H2293 H 1.10746 0.19014 0.24778
 H2294 H 1.11564 0.17323 0.19957
 H2295 H 1.15144 0.21743 0.24539
 H2296 H 1.13255 0.24130 0.17880
 H2297 H 1.08919 0.21362 0.18120
 H2298 H 1.12473 0.25797 0.22704
 C2299 C 0.12713 0.72295 0.51257
 C2300 C 0.12267 0.69643 0.52128
 C2301 C 0.10848 0.70637 0.54344
 C2302 C 0.11264 0.73278 0.53484
 C2303 C 0.13204 0.70722 0.55871
 C2304 C 0.14639 0.69738 0.53653
 C2305 C 0.15056 0.72375 0.52791
 C2306 C 0.13648 0.73370 0.55005
 H2307 H 0.12537 0.72959 0.49352
 H2308 H 0.11743 0.68110 0.50913
 H2309 H 0.09849 0.74725 0.53423
 H2310 H 0.13395 0.70060 0.57776
 H2311 H 0.16056 0.68291 0.53719
 H2312 H 0.14235 0.74911 0.56183
 C2313 C 0.12715 0.23892 1.02877
 C2314 C 0.11219 0.21706 1.01870
 C2315 C 0.10810 0.20812 1.04499
 C2316 C 0.12275 0.22985 1.05519
 C2317 C 0.13138 0.19246 1.04371
 C2318 C 0.13572 0.20146 1.01734
 C2319 C 0.15029 0.22318 1.02751
 C2320 C 0.14620 0.21423 1.05379
 H2321 H 0.12568 0.25810 1.02244
 H2322 H 0.09793 0.21817 1.00435
 H2323 H 0.11771 0.24174 1.07079
 H2324 H 0.13300 0.17328 1.05001
 H2325 H 0.14123 0.18982 1.00170
 H2326 H 0.16050 0.21308 1.06811
 C2327 C 0.63622 0.51807 0.20205
 C2328 C 0.61252 0.51923 0.21736
 C2329 C 0.60814 0.54537 0.20809
 C2330 C 0.63159 0.54428 0.19272
 C2331 C 0.62241 0.55599 0.22989
 C2332 C 0.62710 0.52973 0.23928
 C2333 C 0.65043 0.52867 0.22383
 C2334 C 0.64605 0.55478 0.21455
 H2335 H 0.64207 0.50239 0.19062
 H2336 H 0.59846 0.50470 0.21844
 H2337 H 0.63332 0.55039 0.17349
 H2338 H 0.61704 0.57163 0.24158
 H2339 H 0.62553 0.52359 0.25851
 H2340 H 0.66014 0.56930 0.21344
 C2341 C 0.64635 1.05205 0.71236
 C2342 C 0.63201 1.04265 0.68995
 C2343 C 0.60841 1.04333 0.70512
 C2344 C 0.62262 1.05282 0.72752
 C2345 C 0.61246 1.01676 0.71330
 C2346 C 0.63637 1.01601 0.69821
 C2347 C 0.65042 1.02555 0.72059
 C2348 C 0.62693 1.02616 0.73580
 H2349 H 0.66056 1.06650 0.71201
 H2350 H 0.63400 1.04957 0.67102
 H2351 H 0.61759 1.06792 0.74002
 H2352 H 0.59827 1.00232 0.71360
 H2353 H 0.64223 1.00078 0.68621
 H2354 H 0.62507 1.01922 0.75473
 C2355 C 0.86153 0.44887 0.26974
 C2356 C 0.88543 0.46390 0.27126
 C2357 C 0.88914 0.45495 0.29763
 C2358 C 0.86551 0.43984 0.29619
 C2359 C 0.87489 0.47707 0.30759
 C2360 C 0.87093 0.48613 0.28111
 C2361 C 0.84740 0.47098 0.27973
 C2362 C 0.85110 0.46201 0.30603
 H2363 H 0.85583 0.43731 0.25410
 H2364 H 0.89981 0.46461 0.25704
 H2365 H 0.86346 0.42072 0.30256
 H2366 H 0.87992 0.48900 0.32317
 H2367 H 0.87292 0.50526 0.27476
 H2368 H 0.83662 0.46128 0.32014
 C2369 C 0.85123 0.96223 0.80510
 C2370 C 0.86590 0.94020 0.79539
 C2371 C 0.88936 0.95553 0.79696
 C2372 C 0.87486 0.97753 0.80679
 C2373 C 0.88579 0.96438 0.77055
 C2374 C 0.86206 0.94912 0.76890
 C2375 C 0.84766 0.97111 0.77876
 C2376 C 0.87101 0.98650 0.78027
 H2377 H 0.83665 0.96139 0.81911
 H2378 H 0.86404 0.92108 0.80180
 H2379 H 0.87966 0.98955 0.82237
 H2380 H 0.90028 0.96519 0.75645
 H2381 H 0.85656 0.93748 0.75325
 H2382 H 0.87283 1.00563 0.77388
 C2383 C 0.37944 0.26411 0.77990
 C2384 C 0.37533 0.27298 0.80642
 C2385 C 0.36113 0.29517 0.79655
 C2386 C 0.36499 0.28641 0.77013
 C2387 C 0.38476 0.31029 0.79542
 C2388 C 0.39914 0.28806 0.80518
 C2389 C 0.40298 0.27926 0.77882
 C2390 C 0.38890 0.30144 0.76892
 H2391 H 0.37747 0.24503 0.77337
 H2392 H 0.37022 0.26093 0.82185
 H2393 H 0.35069 0.28580 0.75579
 H2394 H 0.38678 0.32937 0.80196
 H2395 H 0.41352 0.28869 0.81942
 H2396 H 0.39470 0.31311 0.75342
 C2397 C 0.89808 0.30470 0.28720
 C2398 C 0.87436 0.30600 0.27199
 C2399 C 0.86010 0.29597 0.29404
 C2400 C 0.88366 0.29478 0.30929
 C2401 C 0.86401 0.26961 0.28517
 C2402 C 0.87854 0.27953 0.26300
 C2403 C 0.90198 0.27840 0.27830
 C2404 C 0.88785 0.26834 0.30033
 H2405 H 0.91244 0.31894 0.28798
 H2406 H 0.86929 0.32147 0.25997
 H2407 H 0.88556 0.30123 0.32840
 H2408 H 0.84972 0.25528 0.28441
 H2409 H 0.87672 0.27309 0.24388
 H2410 H 0.89364 0.25278 0.31193
 C2411 C 0.35106 0.80603 0.46185
 C2412 C 0.37493 0.80764 0.47685
 C2413 C 0.38914 0.79793 0.45462
 C2414 C 0.36546 0.79645 0.43957
 C2415 C 0.38565 0.77146 0.46337
 C2416 C 0.37116 0.78105 0.48571
 C2417 C 0.34759 0.77961 0.47060
 C2418 C 0.36171 0.76990 0.44839
 H2419 H 0.33650 0.82007 0.46125
 H2420 H 0.38002 0.82318 0.48880
 H2421 H 0.36331 0.80297 0.42052
 H2422 H 0.40013 0.75732 0.46394
 H2423 H 0.37327 0.77455 0.50478
 H2424 H 0.35609 0.75432 0.43671
 C2425 C 0.35198 0.28584 0.94442
 C2426 C 0.36641 0.30797 0.95433
 C2427 C 0.38995 0.29272 0.95328
 C2428 C 0.37572 0.27063 0.94324
 C2429 C 0.38593 0.28395 0.97964
 C2430 C 0.36214 0.29913 0.98077
 C2431 C 0.34798 0.27707 0.97074
 C2432 C 0.37141 0.26174 0.96973
 H2433 H 0.33765 0.28656 0.93013
 H2434 H 0.36457 0.32706 0.94781
 H2435 H 0.38100 0.25867 0.92778
 H2436 H 0.40017 0.28324 0.99404
 H2437 H 0.35636 0.31083 0.99626
 H2438 H 0.37318 0.24264 0.97623
 C2439 C 0.78763 0.44584 0.35234
 C2440 C 0.81006 0.45541 0.36654
 C2441 C 0.79512 0.45449 0.39027
 C2442 C 0.77272 0.44480 0.37624
 C2443 C 0.78663 0.48098 0.38644
 C2444 C 0.80149 0.48198 0.36243
 C2445 C 0.77912 0.47227 0.34852
 C2446 C 0.76412 0.47140 0.37214
 H2447 H 0.78800 0.43155 0.33798
 H2448 H 0.82904 0.44866 0.36446
 H2449 H 0.76053 0.42951 0.38146
 H2450 H 0.78629 0.49534 0.40072
 H2451 H 0.81329 0.49735 0.35652
 H2452 H 0.74514 0.47814 0.37418
 C2453 C 0.78781 0.94434 0.85127
 C2454 C 0.80976 0.95472 0.86566
 C2455 C 0.79459 0.95355 0.88923
 C2456 C 0.77266 0.94304 0.87501
 C2457 C 0.78530 0.97971 0.88506
 C2458 C 0.80041 0.98097 0.86122
 C2459 C 0.77850 0.97045 0.84713
 C2460 C 0.76327 0.96932 0.87058
 H2461 H 0.78875 0.92999 0.83703
 H2462 H 0.82897 0.94857 0.86384
 H2463 H 0.76088 0.92742 0.88016
 H2464 H 0.78436 0.99419 0.89921
 H2465 H 0.81179 0.99665 0.85533
 H2466 H 0.74406 0.97546 0.87235
 C2467 C 0.26835 0.80209 0.38817
 C2468 C 0.29476 0.81116 0.38412
 C2469 C 0.29624 0.79574 0.36068
 C2470 C 0.26991 0.78675 0.36446
 C2471 C 0.30629 0.77387 0.37518
 C2472 C 0.30470 0.78923 0.39880
 C2473 C 0.27842 0.78023 0.40257
 C2474 C 0.27986 0.76475 0.37924
 H2475 H 0.25268 0.81365 0.39373
 H2476 H 0.30108 0.83033 0.38596
 H2477 H 0.25569 0.78578 0.35006
 H2478 H 0.32192 0.76201 0.37019
 H2479 H 0.31880 0.79022 0.41330
 H2480 H 0.27354 0.74558 0.37749
 C2481 C 0.30130 0.26733 0.88794
 C2482 C 0.28630 0.26873 0.86400
 C2483 C 0.29514 0.29513 0.86034
 C2484 C 0.31022 0.29382 0.88399
 C2485 C 0.27297 0.30503 0.87454
 C2486 C 0.26402 0.27852 0.87847
 C2487 C 0.27915 0.27726 0.90201
 C2488 C 0.28802 0.30360 0.89835
 H2489 H 0.31289 0.25176 0.89370
 H2490 H 0.28567 0.25449 0.84960
 H2491 H 0.32930 0.30030 0.88605
 H2492 H 0.26095 0.32052 0.86954
 H2493 H 0.24493 0.27206 0.87646
 H2494 H 0.28868 0.31776 0.91282
 C2495 C 0.48694 0.27814 0.87152
 C2496 C 0.47823 0.30472 0.87575
 C2497 C 0.45602 0.29490 0.88987
 C2498 C 0.46461 0.26845 0.88593
 C2499 C 0.44088 0.29389 0.86623
 C2500 C 0.46314 0.30358 0.85192
 C2501 C 0.47173 0.27717 0.84799
 C2502 C 0.44953 0.26737 0.86203
 H2503 H 0.50597 0.27149 0.87343
 H2504 H 0.49027 0.32010 0.88110
 H2505 H 0.46515 0.25409 0.90019
 H2506 H 0.42186 0.30056 0.86426
 H2507 H 0.46258 0.31783 0.83756
 H2508 H 0.43776 0.25194 0.85619
 C2509 C 0.94529 0.28869 0.35121
 C2510 C 0.94454 0.27336 0.37488
 C2511 C 0.95435 0.29552 0.38919
 C2512 C 0.95499 0.31089 0.36570
 C2513 C 0.98079 0.28713 0.38490
 C2514 C 0.97109 0.26486 0.37033
 C2515 C 0.97169 0.28028 0.34695
 C2516 C 0.98152 0.30243 0.36114
 H2517 H 0.93085 0.28929 0.33702
 H2518 H 0.92932 0.26108 0.38008
 H2519 H 0.94821 0.32991 0.36398
 H2520 H 0.99532 0.28656 0.39901
 H2521 H 0.97787 0.24585 0.37198
 H2522 H 0.99680 0.31434 0.35526
 C2523 C 0.44651 0.35008 0.78855
 C2524 C 0.45600 0.36438 0.81094
 C2525 C 0.45482 0.38807 0.79593
 C2526 C 0.44522 0.37393 0.77357
 C2527 C 0.48132 0.38445 0.78743
 C2528 C 0.48258 0.36046 0.80235
 C2529 C 0.47296 0.34645 0.78001
 C2530 C 0.47183 0.37003 0.76495
 H2531 H 0.43238 0.33559 0.78897
 H2532 H 0.44929 0.36227 0.82993
 H2533 H 0.42987 0.37898 0.76138
 H2534 H 0.49554 0.39886 0.78704
 H2535 H 0.49802 0.35469 0.81413
 H2536 H 0.47852 0.37209 0.74596
 C2537 C 0.94699 0.36251 0.26804
 C2538 C 0.93852 0.36626 0.29472
 C2539 C 0.95371 0.38985 0.29610
 C2540 C 0.96208 0.38641 0.26951
 C2541 C 0.97600 0.37542 0.30543
 C2542 C 0.96085 0.35169 0.30395
 C2543 C 0.96927 0.34826 0.27743
 C2544 C 0.98447 0.37175 0.27874
 H2545 H 0.93511 0.35697 0.25258
 H2546 H 0.91955 0.36418 0.30147
 H2547 H 0.96251 0.40095 0.25542
 H2548 H 0.98835 0.38013 0.32077
 H2549 H 0.96037 0.33709 0.31796
 H2550 H 1.00345 0.37378 0.27201
 C2551 C 0.26371 0.87189 0.47156
 C2552 C 0.28594 0.88653 0.48123
 C2553 C 0.29441 0.89054 0.45477
 C2554 C 0.27230 0.87618 0.44498
 C2555 C 0.30977 0.86705 0.45573
 C2556 C 0.30123 0.86277 0.48228
 C2557 C 0.27914 0.84852 0.47249
 C2558 C 0.28762 0.85251 0.44607
 H2559 H 0.24469 0.87361 0.47826
 H2560 H 0.28530 0.90081 0.49560
 H2561 H 0.26016 0.88136 0.42963
 H2562 H 0.32879 0.86526 0.44903
 H2563 H 0.31308 0.85704 0.49768
 H2564 H 0.28829 0.83817 0.43177
 C2565 C 0.26977 0.36108 0.94803
 C2566 C 0.27141 0.38491 0.96318
 C2567 C 0.29773 0.38859 0.95413
 C2568 C 0.29617 0.36503 0.93889
 C2569 C 0.30776 0.37418 0.97612
 C2570 C 0.28134 0.37025 0.98528
 C2571 C 0.27982 0.34679 0.97000
 C2572 C 0.30608 0.35045 0.96092
 H2573 H 0.25406 0.35549 0.93650
 H2574 H 0.25722 0.39933 0.96404
 H2575 H 0.30243 0.36305 0.91973
 H2576 H 0.32340 0.37909 0.98801
 H2577 H 0.27509 0.37218 1.00444
 H2578 H 0.32017 0.33594 0.96005
 C2579 C 0.77846 0.37951 0.26480
 C2580 C 0.80497 0.37527 0.27355
 C2581 C 0.79514 0.36081 0.29560
 C2582 C 0.76872 0.36482 0.28695
 C2583 C 0.79410 0.38428 0.31100
 C2584 C 0.80383 0.39888 0.28892
 C2585 C 0.77749 0.40288 0.28022
 C2586 C 0.76760 0.38860 0.30226
 H2587 H 0.77189 0.37779 0.24571
 H2588 H 0.82030 0.37045 0.26126
 H2589 H 0.75436 0.35056 0.28621
 H2590 H 0.80068 0.38606 0.33009
 H2591 H 0.81812 0.41320 0.28969
 H2592 H 0.75214 0.39433 0.31402
   
