data_POSCAR
  _audit_creation_date              2014-09-24
  _audit_creation_method            'ToBaCCo'
  _symmetry_space_group_name_H-M    'P1'
  _symmetry_Int_Tables_number       1
  _symmetry_cell_setting            triclinic
  loop_
  _symmetry_equiv_pos_as_xyz
 x,y,z
_cell_length_a 54.5218
_cell_length_b 54.8912
_cell_length_c 50.9379
_cell_angle_alpha 89.540200
_cell_angle_beta 89.799400
_cell_angle_gamma 93.154100
loop_
  _atom_site_label
  _atom_site_type_symbol
  _atom_site_fract_x
  _atom_site_fract_y
  _atom_site_fract_z
C1 C 0.38262 0.01381 0.29429
 C2 C 0.36234 0.03099 0.28782
 C3 C 0.34846 0.02453 0.26674
 C4 C 0.35690 0.00179 0.25274
 C5 C 0.36952 -0.01161 0.29595
 C6 C 0.35616 -0.01784 0.27436
 C7 C 0.39808 0.01313 0.26882
 C8 C 0.38452 0.00692 0.24712
 H9 H 0.35888 0.04683 0.29958
 H10 H 0.34583 -0.00344 0.23519
 H11 H 0.37179 -0.02411 0.31222
 H12 H 0.41766 0.01718 0.26760
 C13 C 0.10311 -0.00230 0.77442
 C14 C 0.11383 -0.02640 0.76708
 C15 C 0.12804 -0.02526 0.74515
 C16 C 0.12988 0.00014 0.73209
 C17 C 0.12524 0.01608 0.77600
 C18 C 0.13914 0.01769 0.75372
 C19 C 0.08979 0.00448 0.75099
 C20 C 0.10442 0.00657 0.72746
 H21 H 0.11064 -0.04303 0.77846
 H22 H 0.14248 0.00065 0.71508
 H23 H 0.12745 0.02909 0.79182
 H24 H 0.06998 0.00421 0.75062
 C25 C 0.60529 0.50048 0.27812
 C26 C 0.61611 0.47643 0.27086
 C27 C 0.63060 0.47754 0.24916
 C28 C 0.63266 0.50283 0.23606
 C29 C 0.62730 0.51898 0.27975
 C30 C 0.64140 0.52056 0.25763
 C31 C 0.59155 0.50760 0.25309
 C32 C 0.60588 0.50937 0.23104
 H33 H 0.61286 0.45984 0.28230
 H34 H 0.64499 0.50355 0.21873
 H35 H 0.62918 0.53219 0.29540
 H36 H 0.57198 0.50964 0.25245
 C37 C 0.88467 0.51331 0.79405
 C38 C 0.86412 0.53018 0.78756
 C39 C 0.85024 0.52343 0.76658
 C40 C 0.85893 0.50075 0.75268
 C41 C 0.87192 0.48775 0.79588
 C42 C 0.85852 0.48125 0.77440
 C43 C 0.90006 0.51272 0.76853
 C44 C 0.88649 0.50621 0.74693
 H45 H 0.86041 0.54597 0.79930
 H46 H 0.84784 0.49530 0.73521
 H47 H 0.87437 0.47536 0.81222
 H48 H 0.91961 0.51696 0.76727
 C49 C 0.27503 0.40427 1.01464
 C50 C 0.26282 0.38229 1.02937
 C51 C 0.24102 0.37402 1.01894
 C52 C 0.23307 0.38836 0.99492
 C53 C 0.27648 0.39595 0.98603
 C54 C 0.25482 0.38724 0.97585
 C55 C 0.25535 0.42325 1.01467
 C56 C 0.23340 0.41486 1.00457
 H57 H 0.27130 0.37324 1.04570
 H58 H 0.21522 0.38127 0.98679
 H59 H 0.29364 0.39561 0.97526
 H60 H 0.25739 0.44083 1.02398
 C61 C 0.77294 0.09301 1.00906
 C62 C 0.76873 0.10850 0.98421
 C63 C 0.74898 0.12250 0.98587
 C64 C 0.73511 0.11960 1.01179
 C65 C 0.77358 0.11095 1.03192
 C66 C 0.75471 0.12593 1.03265
 C67 C 0.75002 0.07863 1.01306
 C68 C 0.72882 0.09322 1.01388
 H69 H 0.77986 0.10769 0.96661
 H70 H 0.71930 0.13134 1.01309
 H71 H 0.78862 0.11216 1.04576
 H72 H 0.74843 0.05905 1.01085
 C73 C 0.27633 0.59179 0.50311
 C74 C 0.27182 0.60803 0.47898
 C75 C 0.25166 0.62139 0.48116
 C76 C 0.23767 0.61734 0.50684
 C77 C 0.27621 0.60880 0.52679
 C78 C 0.25692 0.62324 0.52806
 C79 C 0.25239 0.57598 0.50626
 C80 C 0.23204 0.58942 0.50790
 H81 H 0.28299 0.60806 0.46135
 H82 H 0.22110 0.62811 0.50809
 H83 H 0.29117 0.60993 0.54072
 H84 H 0.25107 0.55640 0.50393
 C85 C 0.77251 0.90313 0.52175
 C86 C 0.76034 0.88091 0.53608
 C87 C 0.73851 0.87286 0.52558
 C88 C 0.73051 0.88758 0.50184
 C89 C 0.77388 0.89534 0.49295
 C90 C 0.75221 0.88679 0.48265
 C91 C 0.75280 0.92210 0.52230
 C92 C 0.73087 0.91389 0.51203
 H93 H 0.76866 0.87184 0.55250
 H94 H 0.71263 0.88066 0.49364
 H95 H 0.79101 0.89528 0.48209
 H96 H 0.75477 0.93944 0.53213
 C97 C 0.00436 0.27560 0.38175
 C98 C 0.02788 0.27418 0.36515
 C99 C 0.02727 0.25547 0.34739
 C100 C 0.00283 0.23946 0.34878
 C101 C -0.01497 0.27662 0.36222
 C102 C -0.01642 0.25661 0.34444
 C103 C 0.00100 0.25042 0.39476
 C104 C 0.00039 0.23123 0.37791
 H105 H 0.04321 0.28735 0.36683
 H106 H 0.00198 0.22430 0.33459
 H107 H -0.02738 0.29132 0.36119
 H108 H 0.00146 0.24823 0.41588
 C109 C 0.00946 0.77451 0.11912
 C110 C -0.01344 0.78008 0.13461
 C111 C -0.02269 0.76183 0.15079
 C112 C -0.00810 0.73839 0.14865
 C113 C 0.02754 0.76555 0.13949
 C114 C 0.01845 0.74708 0.15509
 C115 C 0.00187 0.75154 0.10367
 C116 C -0.00735 0.73244 0.11883
 H117 H -0.02183 0.79726 0.13171
 H118 H -0.01498 0.72291 0.16120
 H119 H 0.04674 0.77177 0.14009
 H120 H 0.00567 0.74981 0.08292
 C121 C 0.51259 0.27516 0.62072
 C122 C 0.48849 0.27824 0.63486
 C123 C 0.48005 0.25887 0.64991
 C124 C 0.49650 0.23667 0.64760
 C125 C 0.53032 0.26678 0.64179
 C126 C 0.52195 0.24708 0.65602
 C127 C 0.50755 0.25257 0.60391
 C128 C 0.49964 0.23193 0.61758
 H129 H 0.47891 0.29484 0.63248
 H130 H 0.49021 0.22052 0.65946
 H131 H 0.54900 0.27436 0.64372
 H132 H 0.51087 0.25301 0.58304
 C133 C 0.49939 0.77530 0.88415
 C134 C 0.52270 0.77548 0.86694
 C135 C 0.52367 0.75611 0.85020
 C136 C 0.50049 0.73857 0.85214
 C137 C 0.47859 0.77437 0.86385
 C138 C 0.47891 0.75510 0.84727
 C139 C 0.49792 0.75163 0.89703
 C140 C 0.49886 0.73114 0.87986
 H141 H 0.53637 0.79051 0.86703
 H142 H 0.50003 0.72336 0.83805
 H143 H 0.46511 0.78803 0.86208
 H144 H 0.49922 0.75009 0.91816
 C145 C -0.22866 0.64387 0.96338
 C146 C -0.20856 0.62679 0.97117
 C147 C -0.21501 0.61133 0.99125
 C148 C -0.24091 0.61426 1.00210
 C149 C -0.25139 0.62698 0.95805
 C150 C -0.25786 0.61165 0.97823
 C151 C -0.23462 0.65684 0.98929
 C152 C -0.24111 0.64134 1.00952
 H153 H -0.19030 0.62780 0.96262
 H154 H -0.24621 0.60125 1.01821
 H155 H -0.26315 0.62925 0.94120
 H156 H -0.23150 0.67621 0.99242
 C157 C -0.26800 0.35133 0.47849
 C158 C -0.28952 0.36768 0.48203
 C159 C -0.28747 0.38231 0.50352
 C160 C -0.26426 0.37835 0.52023
 C161 C -0.24529 0.36936 0.47863
 C162 C -0.24322 0.38337 0.50049
 C163 C -0.26712 0.33769 0.50277
 C164 C -0.26369 0.35203 0.52594
 H165 H -0.30337 0.37020 0.46731
 H166 H -0.26286 0.39067 0.53730
 H167 H -0.23155 0.37018 0.46318
 H168 H -0.27003 0.31804 0.50299
 C169 C 0.23232 -0.14733 -0.02397
 C170 C 0.21066 -0.13116 -0.02053
 C171 C 0.21248 -0.11655 0.00097
 C172 C 0.23565 -0.12032 0.01779
 C173 C 0.25491 -0.12913 -0.02374
 C174 C 0.25676 -0.11512 -0.00185
 C175 C 0.23325 -0.16097 0.00030
 C176 C 0.23640 -0.14661 0.02349
 H177 H 0.19691 -0.12865 -0.03537
 H178 H 0.23686 -0.10800 0.03486
 H179 H 0.26872 -0.12821 -0.03911
 H180 H 0.23057 -0.18064 0.00052
 C181 C 0.26863 1.14151 0.45906
 C182 C 0.28839 1.12377 0.46609
 C183 C 0.28185 1.10808 0.48594
 C184 C 0.25619 1.11144 0.49730
 C185 C 0.24546 1.12527 0.45372
 C186 C 0.23892 1.10968 0.47365
 C187 C 0.26338 1.15412 0.48536
 C188 C 0.25667 1.13840 0.50534
 H189 H 0.30656 1.12457 0.45735
 H190 H 0.25075 1.09817 0.51310
 H191 H 0.23357 1.12812 0.43710
 H192 H 0.26682 1.17343 0.48868
 C193 C 0.15959 0.51204 0.23618
 C194 C 0.14016 0.50502 0.21540
 C195 C 0.12588 0.48473 0.22151
 C196 C 0.13231 0.47295 0.24771
 C197 C 0.14526 0.51351 0.26208
 C198 C 0.13087 0.49328 0.26815
 C199 C 0.17418 0.48893 0.23908
 C200 C 0.15983 0.46831 0.24465
 H201 H 0.13870 0.51461 0.19684
 H202 H 0.12043 0.45642 0.25245
 H203 H 0.14695 0.52923 0.27481
 H204 H 0.19300 0.48787 0.23270
 C205 C -0.16768 1.04072 0.26347
 C206 C -0.15388 1.03919 0.28975
 C207 C -0.13889 1.02013 0.29144
 C208 C -0.13900 1.00463 0.26659
 C209 C -0.14766 1.04097 0.24227
 C210 C -0.13225 1.02259 0.24411
 C211 C -0.18060 1.01690 0.26058
 C212 C -0.16483 0.99682 0.26278
 H213 H -0.15684 1.05140 0.30590
 H214 H -0.12627 0.98967 0.26744
 H215 H -0.14671 1.05414 0.22629
 H216 H -0.20033 1.01412 0.25999
 C217 C 0.33131 0.53881 -0.23450
 C218 C 0.34545 0.53684 -0.20856
 C219 C 0.36024 0.51762 -0.20732
 C220 C 0.35986 0.50236 -0.23234
 C221 C 0.35094 0.53894 -0.25609
 C222 C 0.36636 0.52051 -0.25467
 C223 C 0.31750 0.51374 -0.23745
 C224 C 0.33254 0.49470 -0.23612
 H225 H 0.34292 0.54900 -0.19226
 H226 H 0.37184 0.48674 -0.23145
 H227 H 0.35177 0.55228 -0.27190
 H228 H 0.29779 0.51091 -0.23889
 C229 C 0.65973 0.01192 -0.26325
 C230 C 0.63997 0.00514 -0.28378
 C231 C 0.62546 -0.01492 -0.27741
 C232 C 0.63199 -0.02673 -0.25126
 C233 C 0.64570 0.01370 -0.23718
 C234 C 0.63106 -0.00630 -0.23088
 C235 C 0.67397 -0.01142 -0.26047
 C236 C 0.65939 -0.03181 -0.25462
 H237 H 0.63841 0.01474 -0.30232
 H238 H 0.61987 -0.04302 -0.24633
 H239 H 0.64771 0.02946 -0.22455
 H240 H 0.69273 -0.01274 -0.26694
 C241 C 0.02695 0.24099 0.86426
 C242 C 0.02752 0.26615 0.87749
 C243 C 0.00864 0.26901 0.89480
 C244 C -0.00923 0.24615 0.89700
 C245 C 0.02647 0.22314 0.88768
 C246 C 0.00749 0.22544 0.90461
 C247 C 0.00287 0.23798 0.85245
 C248 C -0.01737 0.24121 0.86992
 H249 H 0.04244 0.27980 0.87481
 H250 H -0.02410 0.24777 0.91161
 H251 H 0.04044 0.21024 0.89122
 H252 H 0.00093 0.23691 0.83136
 C253 C 0.53218 0.25242 0.12471
 C254 C 0.53637 0.22886 0.11005
 C255 C 0.51842 0.22159 0.09284
 C256 C 0.49796 0.23988 0.09069
 C257 C 0.52924 0.27123 0.10269
 C258 C 0.51150 0.26484 0.08494
 C259 C 0.50634 0.24868 0.13663
 C260 C 0.48819 0.24206 0.11916
 H261 H 0.55271 0.21889 0.11315
 H262 H 0.48381 0.23464 0.07594
 H263 H 0.53851 0.28911 0.10194
 H264 H 0.50290 0.25242 0.15708
 C265 C 0.02945 0.75080 0.62313
 C266 C 0.03377 0.72739 0.60829
 C267 C 0.01579 0.72003 0.59116
 C268 C -0.00485 0.73818 0.58920
 C269 C 0.02626 0.76971 0.60128
 C270 C 0.00847 0.76329 0.58357
 C271 C 0.00368 0.74680 0.63514
 C272 C -0.01449 0.74014 0.61773
 H273 H 0.05020 0.71753 0.61129
 H274 H -0.01908 0.73290 0.57454
 H275 H 0.03523 0.78773 0.60076
 H276 H 0.00026 0.75046 0.65563
 C277 C 0.52472 0.74038 0.36492
 C278 C 0.52550 0.76535 0.37845
 C279 C 0.50654 0.76837 0.39559
 C280 C 0.48834 0.74578 0.39753
 C281 C 0.52360 0.72224 0.38804
 C282 C 0.50464 0.72476 0.40492
 C283 C 0.49938 0.73795 0.35221
 C284 C 0.48016 0.74095 0.36884
 H285 H 0.54067 0.77875 0.37602
 H286 H 0.47297 0.74767 0.41155
 H287 H 0.53752 0.70935 0.39187
 H288 H 0.49727 0.73637 0.33116
 B289 B -0.00493 0.01553 1.04887
 B290 B -0.02377 0.00881 1.02372
 B291 B -0.00263 0.03253 1.02086
 B292 B 0.02300 0.02487 1.03694
 B293 B 0.01732 -0.00410 1.04888
 B294 B -0.01170 -0.01399 1.04043
 B295 B 0.01461 -0.00610 0.99550
 B296 B 0.03352 0.00079 1.02100
 B297 B 0.01232 -0.02275 1.02304
 B298 B -0.01338 -0.01509 1.00728
 B299 B -0.00797 0.01367 0.99551
 B300 B 0.02148 0.02336 1.00344
 B301 B 0.49770 0.51729 0.55257
 B302 B 0.47922 0.50996 0.52730
 B303 B 0.49983 0.53413 0.52442
 B304 B 0.52557 0.52720 0.54079
 B305 B 0.52046 0.49823 0.55291
 B306 B 0.49171 0.48761 0.54430
 B307 B 0.51817 0.49578 0.49952
 B308 B 0.53677 0.50325 0.52513
 B309 B 0.51607 0.47932 0.52718
 B310 B 0.49030 0.48624 0.51116
 B311 B 0.49515 0.51500 0.49920
 B312 B 0.52433 0.52541 0.50728
 B313 B 0.50446 0.97601 0.53586
 B314 B 0.52351 0.99076 0.51410
 B315 B 0.50146 0.97040 0.50364
 B316 B 0.47618 0.97274 0.52251
 B317 B 0.48275 0.99519 0.54486
 B318 B 0.51246 1.00604 0.53985
 B319 B 0.48611 1.01594 0.49593
 B320 B 0.46688 1.00115 0.51754
 B321 B 0.48901 1.02162 0.52813
 B322 B 0.51434 1.01911 0.50940
 B323 B 0.50744 0.99685 0.48709
 B324 B 0.47817 0.98590 0.49200
 B325 B 0.00727 0.47685 1.03390
 B326 B 0.02561 0.49131 1.01125
 B327 B 0.00245 0.47170 1.00186
 B328 B -0.02168 0.47463 1.02226
 B329 B -0.01323 0.49663 1.04448
 B330 B 0.01645 0.50658 1.03781
 B331 B -0.01180 0.51789 0.99572
 B332 B -0.03026 0.50346 1.01836
 B333 B -0.00702 0.52311 1.02789
 B334 B 0.01713 0.52010 1.00756
 B335 B 0.00845 0.49821 0.98535
 B336 B -0.02089 0.48810 0.99189
 B337 B 0.00576 0.49527 0.47246
 B338 B 0.02160 0.49496 0.50074
 B339 B 0.00122 0.51644 0.49572
 B340 B -0.02297 0.50366 0.47902
 B341 B -0.01737 0.47376 0.47432
 B342 B 0.01053 0.46862 0.48787
 B343 B -0.01985 0.48146 0.52741
 B344 B -0.03585 0.48178 0.49913
 B345 B -0.01539 0.46018 0.50410
 B346 B 0.00880 0.47307 0.52075
 B347 B 0.00314 0.50289 0.52554
 B348 B -0.02467 0.50827 0.51204
 B349 B 0.50518 -0.00260 -0.02714
 B350 B 0.52104 -0.00347 0.00109
 B351 B 0.50108 0.01848 -0.00364
 B352 B 0.47665 0.00634 -0.02043
 B353 B 0.48163 -0.02364 -0.02544
 B354 B 0.50940 -0.02952 -0.01200
 B355 B 0.47939 -0.01636 0.02775
 B356 B 0.46338 -0.01545 -0.00050
 B357 B 0.48334 -0.03754 0.00420
 B358 B 0.50784 -0.02532 0.02093
 B359 B 0.50281 0.00461 0.02603
 B360 B 0.47511 0.01069 0.01265
 B361 B 0.49273 0.48494 -0.02507
 B362 B 0.48401 0.49135 0.00574
 B363 B 0.50716 0.47274 0.00090
 B364 B 0.52375 0.48310 -0.02558
 B365 B 0.51044 0.50864 -0.03677
 B366 B 0.48560 0.51358 -0.01736
 B367 B 0.52658 0.51745 0.01324
 B368 B 0.53548 0.51130 -0.01748
 B369 B 0.51210 0.52961 -0.01265
 B370 B 0.49576 0.51926 0.01368
 B371 B 0.50906 0.49390 0.02489
 B372 B 0.53383 0.48878 0.00552
 B373 B -0.01065 0.98366 0.47510
 B374 B -0.01925 0.99037 0.50585
 B375 B 0.00392 0.97178 0.50109
 B376 B 0.02036 0.98191 0.47446
 B377 B 0.00692 1.00728 0.46303
 B378 B -0.01784 1.01236 0.48249
 B379 B 0.02329 1.01667 0.51283
 B380 B 0.03205 1.01020 0.48215
 B381 B 0.00865 1.02851 0.48686
 B382 B -0.00752 1.01839 0.51339
 B383 B 0.00589 0.99317 0.52484
 B384 B 0.03059 0.98793 0.50543
 B385 B 0.77434 0.27080 0.19870
 B386 B 0.76967 0.24738 0.22014
 B387 B 0.79113 0.26999 0.22660
 B388 B 0.78049 0.29669 0.21570
 B389 B 0.75209 0.29030 0.20311
 B390 B 0.74548 0.25951 0.20572
 B391 B 0.75048 0.27768 0.25512
 B392 B 0.75510 0.30114 0.23379
 B393 B 0.73376 0.27858 0.22725
 B394 B 0.74431 0.25200 0.23814
 B395 B 0.77277 0.25827 0.25078
 B396 B 0.77932 0.28910 0.24819
 B397 B 0.73120 0.74389 0.69865
 B398 B 0.74250 0.76417 0.72107
 B399 B 0.72125 0.74211 0.73024
 B400 B 0.72667 0.71640 0.71339
 B401 B 0.75209 0.72296 0.69429
 B402 B 0.76158 0.75281 0.69895
 B403 B 0.76584 0.72807 0.74536
 B404 B 0.75464 0.70822 0.72280
 B405 B 0.77599 0.73038 0.71422
 B406 B 0.77043 0.75580 0.73088
 B407 B 0.74530 0.74933 0.74992
 B408 B 0.73558 0.71960 0.74531
 B409 B 0.25584 0.26455 0.77321
 B410 B 0.25690 0.27908 0.74406
 B411 B 0.27669 0.25721 0.75027
 B412 B 0.26187 0.23509 0.76849
 B413 B 0.23253 0.24328 0.77308
 B414 B 0.22949 0.27066 0.75777
 B415 B 0.23998 0.23793 0.72018
 B416 B 0.23908 0.22324 0.74941
 B417 B 0.21919 0.24494 0.74325
 B418 B 0.23395 0.26731 0.72506
 B419 B 0.26340 0.25912 0.72041
 B420 B 0.26629 0.23156 0.73553
 B421 B 0.23230 0.73317 0.28109
 B422 B 0.23571 0.72424 0.24982
 B423 B 0.21781 0.74756 0.25656
 B424 B 0.23068 0.76394 0.28145
 B425 B 0.25712 0.75062 0.28969
 B426 B 0.26020 0.72586 0.27010
 B427 B 0.26136 0.76649 0.23856
 B428 B 0.25806 0.77543 0.26985
 B429 B 0.27598 0.75222 0.26325
 B430 B 0.26309 0.73573 0.23835
 B431 B 0.23661 0.74903 0.23012
 B432 B 0.23349 0.77379 0.24973
 B433 B 0.27138 0.76712 0.69735
 B434 B 0.26648 0.74420 0.71934
 B435 B 0.28821 0.76667 0.72523
 B436 B 0.27793 0.79331 0.71370
 B437 B 0.24941 0.78700 0.70130
 B438 B 0.24242 0.75631 0.70468
 B439 B 0.24779 0.77546 0.75361
 B440 B 0.25264 0.79845 0.73172
 B441 B 0.23101 0.77599 0.72576
 B442 B 0.24123 0.74948 0.73725
 B443 B 0.26975 0.75570 0.74968
 B444 B 0.27673 0.78640 0.74634
 B445 B 0.23334 0.24588 0.19300
 B446 B 0.24395 0.26616 0.21584
 B447 B 0.22184 0.24451 0.22393
 B448 B 0.22765 0.21854 0.20771
 B449 B 0.25396 0.22456 0.18998
 B450 B 0.26378 0.25428 0.19492
 B451 B 0.26532 0.22972 0.24171
 B452 B 0.25490 0.20992 0.21874
 B453 B 0.27698 0.23166 0.21111
 B454 B 0.27110 0.25725 0.22730
 B455 B 0.24488 0.25142 0.24499
 B456 B 0.23498 0.22178 0.24005
 B457 B 0.75434 0.76867 0.27683
 B458 B 0.75510 0.78343 0.24783
 B459 B 0.77543 0.76204 0.25387
 B460 B 0.76111 0.73946 0.27187
 B461 B 0.73152 0.74691 0.27647
 B462 B 0.72785 0.77429 0.26139
 B463 B 0.73928 0.74209 0.22355
 B464 B 0.73864 0.72722 0.25267
 B465 B 0.71822 0.74846 0.24660
 B466 B 0.73248 0.77128 0.22863
 B467 B 0.76216 0.76383 0.22399
 B468 B 0.76573 0.73629 0.23893
 B469 B 0.73531 0.23221 0.78319
 B470 B 0.73874 0.22311 0.75201
 B471 B 0.72086 0.24649 0.75856
 B472 B 0.73371 0.26298 0.78338
 B473 B 0.76011 0.24966 0.79173
 B474 B 0.76323 0.22482 0.77227
 B475 B 0.76442 0.26532 0.74051
 B476 B 0.76111 0.27437 0.77176
 B477 B 0.77901 0.25114 0.76529
 B478 B 0.76613 0.23453 0.74047
 B479 B 0.73967 0.24781 0.73215
 B480 B 0.73656 0.27268 0.75161
 C481 C 0.38863 1.02873 0.36680
 C482 C 0.41362 1.03619 0.36983
 C483 C 0.42910 1.03567 0.34740
 C484 C 0.41953 1.02860 0.32280
 C485 C 0.39462 1.02115 0.32020
 C486 C 0.37949 1.02130 0.34257
 C487 C 0.45418 1.04169 0.34982
 C488 C 0.46454 1.04625 0.37431
 C489 C 0.44998 1.04564 0.39732
 C490 C 0.42394 1.04256 0.39472
 C491 C 0.40917 1.04516 0.41726
 C492 C 0.41949 1.04677 0.44209
 C493 C 0.44476 1.04550 0.44525
 C494 C 0.46049 1.04634 0.42298
 C495 C 0.48599 1.04566 0.42746
 C496 C 0.49473 1.03964 0.45222
 C497 C 0.47842 1.03451 0.47324
 C498 C 0.45414 1.04107 0.47034
 H499 H 0.37580 1.02758 0.38296
 H500 H 0.43171 1.02871 0.30603
 H501 H 0.36018 1.01563 0.34121
 H502 H 0.46612 1.04185 0.33274
 H503 H 0.48415 1.04996 0.37460
 H504 H 0.38944 1.04554 0.41636
 H505 H 0.40743 1.04726 0.45902
 H506 H 0.49946 1.04747 0.41196
 H507 H 0.51413 1.03670 0.45409
 H508 H 0.44184 1.04046 0.48692
 C509 C -0.10965 0.52833 0.86647
 C510 C -0.08480 0.53629 0.86954
 C511 C -0.06924 0.53611 0.84715
 C512 C -0.07864 0.52884 0.82252
 C513 C -0.10343 0.52090 0.81990
 C514 C -0.11861 0.52076 0.84224
 C515 C -0.04426 0.54262 0.84966
 C516 C -0.03405 0.54743 0.87419
 C517 C -0.04869 0.54657 0.89716
 C518 C -0.07467 0.54283 0.89446
 C519 C -0.08960 0.54492 0.91697
 C520 C -0.07942 0.54649 0.94182
 C521 C -0.05409 0.54600 0.94503
 C522 C -0.03827 0.54761 0.92286
 C523 C -0.01272 0.54806 0.92753
 C524 C -0.00382 0.54245 0.95236
 C525 C -0.02006 0.53642 0.97324
 C526 C -0.04471 0.54164 0.97009
 H527 H -0.12252 0.52688 0.88258
 H528 H -0.06646 0.52919 0.80574
 H529 H -0.13782 0.51472 0.84087
 H530 H -0.03227 0.54300 0.83262
 H531 H -0.01450 0.55145 0.87455
 H532 H -0.10935 0.54483 0.91604
 H533 H -0.09158 0.54640 0.95873
 H534 H 0.00076 0.55061 0.91211
 H535 H 0.01573 0.54036 0.95438
 H536 H -0.05721 0.54015 0.98644
 C537 C 0.05413 0.00862 0.82646
 C538 C 0.06066 -0.00700 0.84723
 C539 C 0.08240 -0.01967 0.84443
 C540 C 0.09614 -0.01762 0.82115
 C541 C 0.08836 -0.00356 0.79986
 C542 C 0.06783 0.01038 0.80337
 C543 C 0.09054 -0.03409 0.86498
 C544 C 0.07783 -0.03578 0.88866
 C545 C 0.05612 -0.02340 0.89249
 C546 C 0.04698 -0.00948 0.87109
 C547 C 0.02456 0.00179 0.87429
 C548 C 0.01302 0.00207 0.89844
 C549 C 0.02297 -0.00941 0.92006
 C550 C 0.04375 -0.02350 0.91730
 C551 C 0.05159 -0.03627 0.93981
 C552 C 0.04096 -0.03264 0.96444
 C553 C 0.02284 -0.01574 0.96744
 C554 C 0.01273 -0.00581 0.94470
 H555 H 0.03891 0.02027 0.82759
 H556 H 0.11305 -0.02701 0.81970
 H557 H 0.06235 0.02306 0.78842
 H558 H 0.10720 -0.04382 0.86292
 H559 H 0.08573 -0.04671 0.90375
 H560 H 0.01552 0.01090 0.85856
 H561 H -0.00353 0.01202 0.90034
 H562 H 0.06632 -0.04855 0.93925
 H563 H 0.04820 -0.04187 0.98133
 H564 H -0.00244 0.00605 0.94593
 C565 C 0.55530 0.50896 0.32968
 C566 C 0.56303 0.49447 0.35089
 C567 C 0.58569 0.48331 0.34836
 C568 C 0.59932 0.48589 0.32505
 C569 C 0.59055 0.49891 0.30348
 C570 C 0.56889 0.51119 0.30654
 C571 C 0.59483 0.46990 0.36917
 C572 C 0.58224 0.46778 0.39288
 C573 C 0.55971 0.47876 0.39652
 C574 C 0.54960 0.49167 0.37489
 C575 C 0.52655 0.50173 0.37806
 C576 C 0.51520 0.50193 0.40231
 C577 C 0.52596 0.49145 0.42407
 C578 C 0.54745 0.47839 0.42139
 C579 C 0.55602 0.46634 0.44403
 C580 C 0.54541 0.46987 0.46868
 C581 C 0.52662 0.48607 0.47156
 C582 C 0.51578 0.49503 0.44874
 H583 H 0.53915 0.51937 0.33045
 H584 H 0.61688 0.47764 0.32370
 H585 H 0.56242 0.52305 0.29133
 H586 H 0.61219 0.46132 0.36729
 H587 H 0.59093 0.45777 0.40821
 H588 H 0.51689 0.51007 0.36226
 H589 H 0.49813 0.51104 0.40418
 H590 H 0.57124 0.45463 0.44351
 H591 H 0.55307 0.46111 0.48563
 H592 H 0.50002 0.50612 0.44987
 C593 C 0.56741 0.54016 0.17964
 C594 C 0.57870 0.53368 0.15585
 C595 C 0.60016 0.52029 0.15759
 C596 C 0.60861 0.51219 0.18193
 C597 C 0.59669 0.51793 0.20527
 C598 C 0.57639 0.53256 0.20382
 C599 C 0.61296 0.51460 0.13499
 C600 C 0.60432 0.52077 0.11045
 C601 C 0.58192 0.53227 0.10746
 C602 C 0.56907 0.53923 0.13050
 C603 C 0.54634 0.55012 0.12740
 C604 C 0.53544 0.55201 0.10288
 C605 C 0.54695 0.54363 0.08047
 C606 C 0.57099 0.53514 0.08225
 C607 C 0.58229 0.52795 0.05886
 C608 C 0.56881 0.52493 0.03598
 C609 C 0.54398 0.53051 0.03486
 C610 C 0.53382 0.54175 0.05673
 H611 H 0.55173 0.55125 0.18033
 H612 H 0.62421 0.50085 0.18237
 H613 H 0.56734 0.53843 0.22142
 H614 H 0.62969 0.50485 0.13624
 H615 H 0.61519 0.51511 0.09417
 H616 H 0.53576 0.55618 0.14375
 H617 H 0.51730 0.55907 0.10163
 H618 H 0.60106 0.52286 0.05784
 H619 H 0.57760 0.51596 0.01999
 H620 H 0.51481 0.54655 0.05631
 C621 C 0.06280 1.03418 0.67833
 C622 C 0.07588 1.03231 0.65455
 C623 C 0.09931 1.02243 0.65576
 C624 C 0.10854 1.01383 0.67958
 C625 C 0.09515 1.01513 0.70317
 C626 C 0.07228 1.02593 0.70199
 C627 C 0.11340 1.02074 0.63306
 C628 C 0.10399 1.02675 0.60879
 C629 C 0.07978 1.03433 0.60623
 C630 C 0.06609 1.03873 0.62953
 C631 C 0.04270 1.04836 0.62688
 C632 C 0.03183 1.05072 0.60241
 C633 C 0.04371 1.04339 0.57975
 C634 C 0.06823 1.03611 0.58121
 C635 C 0.07932 1.02847 0.55786
 C636 C 0.06562 1.02486 0.53520
 C637 C 0.04069 1.03009 0.53421
 C638 C 0.03045 1.04117 0.55614
 H639 H 0.04500 1.04170 0.67940
 H640 H 0.12594 1.00542 0.67893
 H641 H 0.06140 1.02868 0.71936
 H642 H 0.13174 1.01406 0.63394
 H643 H 0.11612 1.02478 0.59232
 H644 H 0.03193 1.05360 0.64345
 H645 H 0.01334 1.05698 0.60141
 H646 H 0.09790 1.02284 0.55691
 H647 H 0.07433 1.01563 0.51934
 H648 H 0.01127 1.04539 0.55593
 C649 C -0.10567 0.51546 0.67397
 C650 C -0.08676 0.49988 0.66736
 C651 C -0.07573 0.48707 0.68814
 C652 C -0.08389 0.48961 0.71430
 C653 C -0.10316 0.50464 0.72011
 C654 C -0.11367 0.51758 0.69979
 C655 C -0.05678 0.47175 0.68263
 C656 C -0.04835 0.46891 0.65701
 C657 C -0.05868 0.48125 0.63563
 C658 C -0.07838 0.49681 0.64094
 C659 C -0.08913 0.50883 0.61964
 C660 C -0.08040 0.50670 0.59429
 C661 C -0.06078 0.49235 0.58888
 C662 C -0.04985 0.47893 0.60914
 C663 C -0.03036 0.46416 0.60186
 C664 C -0.02161 0.46377 0.57585
 C665 C -0.03195 0.47799 0.55621
 C666 C -0.05183 0.49191 0.56313
 H667 H -0.11476 0.52641 0.65980
 H668 H -0.07569 0.47946 0.73004
 H669 H -0.12806 0.52971 0.70391
 H670 H -0.04827 0.46186 0.69836
 H671 H -0.03356 0.45689 0.65459
 H672 H -0.10440 0.52026 0.62174
 H673 H -0.08904 0.51668 0.57870
 H674 H -0.02120 0.45303 0.61585
 H675 H -0.00624 0.45283 0.57133
 H676 H -0.06037 0.50298 0.54842
 C677 C 0.39334 0.01740 0.17443
 C678 C 0.41186 0.00141 0.16765
 C679 C 0.42224 -0.01216 0.18824
 C680 C 0.41385 -0.00997 0.21437
 C681 C 0.39498 0.00551 0.22033
 C682 C 0.38512 0.01921 0.20021
 C683 C 0.44082 -0.02789 0.18259
 C684 C 0.44950 -0.03038 0.15701
 C685 C 0.43980 -0.01730 0.13580
 C686 C 0.42047 -0.00132 0.14125
 C687 C 0.41030 0.01142 0.12010
 C688 C 0.41924 0.00957 0.09480
 C689 C 0.43851 -0.00521 0.08927
 C690 C 0.44887 -0.01930 0.10936
 C691 C 0.46805 -0.03442 0.10195
 C692 C 0.47699 -0.03459 0.07600
 C693 C 0.46718 -0.01979 0.05653
 C694 C 0.44766 -0.00544 0.06359
 H695 H 0.38478 0.02895 0.16042
 H696 H 0.42157 -0.02068 0.22996
 H697 H 0.37111 0.03174 0.20449
 H698 H 0.44885 -0.03835 0.19818
 H699 H 0.46397 -0.04275 0.15447
 H700 H 0.39532 0.02320 0.12230
 H701 H 0.41104 0.02008 0.07935
 H702 H 0.47679 -0.04603 0.11581
 H703 H 0.49208 -0.04587 0.07138
 H704 H 0.43949 0.00607 0.04902
 C705 C 0.34278 0.39997 0.02879
 C706 C 0.35115 0.42459 0.03172
 C707 C 0.33333 0.44218 0.03470
 C708 C 0.30829 0.43568 0.03107
 C709 C 0.30056 0.41156 0.02480
 C710 C 0.31800 0.39371 0.02518
 C711 C 0.34070 0.46640 0.03991
 C712 C 0.36546 0.47388 0.04058
 C713 C 0.38381 0.45751 0.03490
 C714 C 0.37649 0.43244 0.03040
 C715 C 0.39443 0.41642 0.02245
 C716 C 0.41833 0.42486 0.01739
 C717 C 0.42558 0.44927 0.02119
 C718 C 0.40899 0.46567 0.03150
 C719 C 0.41819 0.48978 0.03671
 C720 C 0.44230 0.49752 0.02998
 C721 C 0.45792 0.48166 0.01755
 C722 C 0.44917 0.45749 0.01348
 H723 H 0.35492 0.38514 0.02862
 H724 H 0.29538 0.44987 0.03174
 H725 H 0.31255 0.37482 0.02118
 H726 H 0.32716 0.47989 0.04280
 H727 H 0.36956 0.49302 0.04392
 H728 H 0.39028 0.39747 0.01815
 H729 H 0.43121 0.41218 0.00996
 H730 H 0.40720 0.50308 0.04586
 H731 H 0.44828 0.51631 0.03366
 H732 H 0.45991 0.44515 0.00248
 C733 C -0.15961 0.89883 0.53476
 C734 C -0.15120 0.92351 0.53706
 C735 C -0.16897 0.94109 0.54049
 C736 C -0.19408 0.93451 0.53767
 C737 C -0.20193 0.91034 0.53181
 C738 C -0.18448 0.89249 0.53196
 C739 C -0.16151 0.96538 0.54517
 C740 C -0.13676 0.97293 0.54479
 C741 C -0.11857 0.95657 0.53850
 C742 C -0.12596 0.93142 0.53460
 C743 C -0.10827 0.91540 0.52600
 C744 C -0.08461 0.92388 0.51979
 C745 C -0.07731 0.94836 0.52305
 C746 C -0.09358 0.96478 0.53393
 C747 C -0.08430 0.98896 0.53858
 C748 C -0.06047 0.99672 0.53090
 C749 C -0.04520 0.98080 0.51804
 C750 C -0.05402 0.95660 0.51437
 H751 H -0.14743 0.88403 0.53438
 H752 H -0.20697 0.94871 0.53846
 H753 H -0.19000 0.87357 0.52823
 H754 H -0.17498 0.97885 0.54842
 H755 H -0.13262 0.99212 0.54775
 H756 H -0.11253 0.89639 0.52208
 H757 H -0.07197 0.91118 0.51192
 H758 H -0.09500 1.00230 0.54808
 H759 H -0.05440 1.01553 0.53432
 H760 H -0.04351 0.94419 0.50318
 C761 C -0.15844 0.08901 1.01131
 C762 C -0.15522 0.06414 1.01578
 C763 C -0.17545 0.04727 1.01213
 C764 C -0.19930 0.05579 1.00922
 C765 C -0.20254 0.08109 1.00777
 C766 C -0.18155 0.09715 1.00670
 C767 C -0.17145 0.02228 1.01172
 C768 C -0.14768 0.01409 1.01437
 C769 C -0.12758 0.03056 1.02004
 C770 C -0.13215 0.05567 1.02297
 C771 C -0.11395 0.07156 1.03407
 C772 C -0.09110 0.06352 1.04020
 C773 C -0.08518 0.03993 1.03383
 C774 C -0.10307 0.02313 1.02323
 C775 C -0.09523 0.00029 1.01491
 C776 C -0.07027 -0.00475 1.01565
 C777 C -0.05269 0.01233 1.02582
 C778 C -0.06093 0.03373 1.03663
 H779 H -0.14320 0.10247 1.01086
 H780 H -0.21492 0.04282 1.00841
 H781 H -0.18327 0.11660 1.00404
 H782 H -0.18663 0.00905 1.00863
 H783 H -0.14562 -0.00533 1.01331
 H784 H -0.11736 0.09016 1.03911
 H785 H -0.07754 0.07631 1.04868
 H786 H -0.10772 -0.01319 1.00609
 H787 H -0.06474 -0.02181 1.00760
 H788 H -0.04803 0.04705 1.04485
 C789 C 0.34489 0.58874 0.50693
 C790 C 0.34813 0.56392 0.51185
 C791 C 0.32820 0.54687 0.50740
 C792 C 0.30445 0.55518 0.50335
 C793 C 0.30104 0.58040 0.50171
 C794 C 0.32185 0.59667 0.50131
 C795 C 0.33234 0.52191 0.50761
 C796 C 0.35597 0.51389 0.51181
 C797 C 0.37564 0.53053 0.51841
 C798 C 0.37084 0.55566 0.52055
 C799 C 0.38836 0.57175 0.53249
 C800 C 0.41080 0.56382 0.54037
 C801 C 0.41712 0.54015 0.53486
 C802 C 0.39992 0.52322 0.52332
 C803 C 0.40830 0.50036 0.51576
 C804 C 0.43322 0.49553 0.51788
 C805 C 0.45016 0.51282 0.52883
 C806 C 0.44121 0.53407 0.53923
 H807 H 0.36002 0.60231 0.50712
 H808 H 0.28894 0.54209 0.50214
 H809 H 0.31996 0.61610 0.49868
 H810 H 0.31739 0.50857 0.50392
 H811 H 0.35815 0.49447 0.51126
 H812 H 0.38465 0.59042 0.53688
 H813 H 0.42384 0.57676 0.54947
 H814 H 0.39636 0.48677 0.50632
 H815 H 0.43927 0.47856 0.51014
 H816 H 0.45362 0.54754 0.54799
 C817 C 0.16723 0.57972 0.48321
 C818 C 0.15871 0.55788 0.49602
 C819 C 0.17485 0.54686 0.51376
 C820 C 0.19885 0.55698 0.51752
 C821 C 0.20688 0.57853 0.50446
 C822 C 0.19084 0.58975 0.48741
 C823 C 0.16686 0.52597 0.52780
 C824 C 0.14295 0.51611 0.52523
 C825 C 0.12616 0.52645 0.50789
 C826 C 0.13458 0.54704 0.49222
 C827 C 0.11865 0.55605 0.47311
 C828 C 0.09482 0.54642 0.47051
 C829 C 0.08580 0.52755 0.48685
 C830 C 0.10122 0.51705 0.50564
 C831 C 0.09067 0.49812 0.52186
 C832 C 0.06580 0.49061 0.51981
 C833 C 0.05058 0.50154 0.50150
 C834 C 0.06111 0.51962 0.48478
 H835 H 0.15601 0.58988 0.47020
 H836 H 0.21115 0.54836 0.53097
 H837 H 0.19664 0.60626 0.47683
 H838 H 0.17912 0.51736 0.54130
 H839 H 0.13825 0.50008 0.53692
 H840 H 0.12411 0.57045 0.45949
 H841 H 0.08317 0.55417 0.45576
 H842 H 0.10090 0.48925 0.53687
 H843 H 0.05843 0.47656 0.53312
 H844 H 0.04980 0.52882 0.47096
 C845 C 0.66371 0.08551 -0.00781
 C846 C 0.65673 0.06169 0.00098
 C847 C 0.67384 0.04906 0.01601
 C848 C 0.69776 0.05935 0.02000
 C849 C 0.70466 0.08297 0.01063
 C850 C 0.68704 0.09591 -0.00295
 C851 C 0.66682 0.02638 0.02715
 C852 C 0.64294 0.01634 0.02433
 C853 C 0.62547 0.02812 0.00908
 C854 C 0.63307 0.05038 -0.00408
 C855 C 0.61698 0.06045 -0.02232
 C856 C 0.59356 0.05018 -0.02616
 C857 C 0.58502 0.02987 -0.01157
 C858 C 0.60067 0.01846 0.00630
 C859 C 0.59044 -0.00149 0.02129
 C860 C 0.56555 -0.00902 0.01910
 C861 C 0.55014 0.00273 0.00163
 C862 C 0.56051 0.02156 -0.01426
 H863 H 0.65132 0.09690 -0.01804
 H864 H 0.71068 0.04925 0.03130
 H865 H 0.69135 0.11381 -0.01130
 H866 H 0.67976 0.01653 0.03869
 H867 H 0.63886 -0.00108 0.03373
 H868 H 0.62223 0.07603 -0.03451
 H869 H 0.58175 0.05866 -0.04024
 H870 H 0.60092 -0.01089 0.03571
 H871 H 0.55830 -0.02371 0.03168
 H872 H 0.54914 0.03121 -0.02762
 C873 C 0.68042 0.94948 0.54165
 C874 C 0.66313 0.94980 0.52100
 C875 C 0.66965 0.93931 0.49672
 C876 C 0.69187 0.92794 0.49392
 C877 C 0.70834 0.92727 0.51474
 C878 C 0.70264 0.93838 0.53848
 C879 C 0.65385 0.93987 0.47539
 C880 C 0.63157 0.95061 0.47744
 C881 C 0.62395 0.96096 0.50122
 C882 C 0.63963 0.95995 0.52359
 C883 C 0.63090 0.96832 0.54791
 C884 C 0.60755 0.97707 0.55035
 C885 C 0.59222 0.97842 0.52861
 C886 C 0.60059 0.97123 0.50361
 C887 C 0.58513 0.97455 0.48190
 C888 C 0.56138 0.98180 0.48534
 C889 C 0.55201 0.98615 0.51045
 C890 C 0.56823 0.98622 0.53178
 H891 H 0.67742 0.95770 0.56043
 H892 H 0.69643 0.91959 0.47544
 H893 H 0.71515 0.93793 0.55493
 H894 H 0.65871 0.93178 0.45686
 H895 H 0.62027 0.94961 0.46015
 H896 H 0.64135 0.96752 0.56577
 H897 H 0.60133 0.98258 0.56954
 H898 H 0.59079 0.97177 0.46192
 H899 H 0.55041 0.98373 0.46795
 H900 H 0.56182 0.99102 0.55114
 C901 C 0.18352 0.45136 1.03395
 C902 C 0.16553 0.45061 1.01395
 C903 C 0.17134 0.43908 0.99003
 C904 C 0.19364 0.42784 0.98700
 C905 C 0.21080 0.42822 1.00725
 C906 C 0.20572 0.44030 1.03059
 C907 C 0.15476 0.43850 0.96933
 C908 C 0.13236 0.44901 0.97171
 C909 C 0.12542 0.46030 0.99522
 C910 C 0.14202 0.46065 1.01691
 C911 C 0.13423 0.47029 1.04102
 C912 C 0.11098 0.47906 1.04394
 C913 C 0.09472 0.47908 1.02289
 C914 C 0.10196 0.47035 0.99807
 C915 C 0.08526 0.47193 0.97709
 C916 C 0.06168 0.47948 0.98124
 C917 C 0.05372 0.48587 1.00632
 C918 C 0.07096 0.48714 1.02672
 H919 H 0.18109 0.46034 1.05242
 H920 H 0.19767 0.41873 0.96879
 H921 H 0.21868 0.44065 1.04666
 H922 H 0.15910 0.42967 0.95104
 H923 H 0.12052 0.44718 0.95490
 H924 H 0.14541 0.47061 1.05841
 H925 H 0.10556 0.48566 1.06299
 H926 H 0.08977 0.46750 0.95716
 H927 H 0.04968 0.48007 0.96448
 H928 H 0.06552 0.49312 1.04602
 C929 C 0.02509 0.32298 0.43405
 C930 C 0.00257 0.33178 0.44281
 C931 C -0.01929 0.32165 0.43135
 C932 C -0.01842 0.30337 0.41228
 C933 C 0.00408 0.29577 0.40250
 C934 C 0.02576 0.30531 0.41436
 C935 C -0.04200 0.32999 0.43871
 C936 C -0.04343 0.34956 0.45563
 C937 C -0.02211 0.36114 0.46648
 C938 C 0.00098 0.35081 0.46179
 C939 C 0.02157 0.36009 0.47604
 C940 C 0.02004 0.38016 0.49249
 C941 C -0.00165 0.39252 0.49423
 C942 C -0.02300 0.38312 0.48125
 C943 C -0.04371 0.39741 0.48124
 C944 C -0.04235 0.42101 0.49115
 C945 C -0.02105 0.43089 0.50350
 C946 C -0.00143 0.41538 0.50676
 H947 H 0.04256 0.32986 0.44156
 H948 H -0.03553 0.29521 0.40483
 H949 H 0.04344 0.29897 0.40882
 H950 H -0.05886 0.32187 0.43056
 H951 H -0.06162 0.35509 0.46022
 H952 H 0.03916 0.35208 0.47494
 H953 H 0.03645 0.38699 0.50258
 H954 H -0.06031 0.39206 0.47084
 H955 H -0.05730 0.43201 0.48610
 H956 H 0.01548 0.42243 0.51573
 C957 C 0.51984 -0.17778 -0.06336
 C958 C 0.49764 -0.16739 -0.05613
 C959 C 0.47587 -0.17623 -0.06884
 C960 C 0.47650 -0.19469 -0.08777
 C961 C 0.49881 -0.20404 -0.09576
 C962 C 0.52032 -0.19580 -0.08264
 C963 C 0.45346 -0.16650 -0.06276
 C964 C 0.45239 -0.14689 -0.04583
 C965 C 0.47375 -0.13648 -0.03387
 C966 C 0.49635 -0.14807 -0.03743
 C967 C 0.51681 -0.13969 -0.02240
 C968 C 0.51577 -0.11934 -0.00629
 C969 C 0.49475 -0.10590 -0.00546
 C970 C 0.47343 -0.11442 -0.01913
 C971 C 0.45340 -0.09926 -0.01974
 C972 C 0.45546 -0.07572 -0.00973
 C973 C 0.47678 -0.06667 0.00322
 C974 C 0.49568 -0.08294 0.00692
 H975 H 0.53727 -0.17203 -0.05486
 H976 H 0.45937 -0.20177 -0.09613
 H977 H 0.53771 -0.20344 -0.08714
 H978 H 0.43662 -0.17364 -0.07180
 H979 H 0.43440 -0.14039 -0.04221
 H980 H 0.53396 -0.14856 -0.02268
 H981 H 0.53213 -0.11322 0.00435
 H982 H 0.43687 -0.10388 -0.03056
 H983 H 0.44110 -0.06414 -0.01519
 H984 H 0.51261 -0.07652 0.01632
 C985 C 0.03970 -0.16242 1.10496
 C986 C 0.03047 -0.15639 1.08001
 C987 C 0.01543 -0.17435 1.06696
 C988 C 0.01006 -0.19740 1.07868
 C989 C 0.01910 -0.20296 1.10373
 C990 C 0.03375 -0.18495 1.11663
 C991 C 0.00483 -0.16875 1.04290
 C992 C 0.00744 -0.14526 1.03236
 C993 C 0.02123 -0.12645 1.04533
 C994 C 0.03414 -0.13256 1.06867
 C995 C 0.04968 -0.11438 1.08043
 C996 C 0.05011 -0.09036 1.07188
 C997 C 0.03548 -0.08357 1.05100
 C998 C 0.02174 -0.10153 1.03655
 C999 C 0.00804 -0.09344 1.01490
 C1000 C 0.00652 -0.06855 1.00942
 C1001 C 0.01859 -0.05084 1.02522
 C1002 C 0.03374 -0.05872 1.04538
 H1003 H 0.05034 -0.14964 1.11683
 H1004 H -0.00236 -0.21044 1.06890
 H1005 H 0.03981 -0.18768 1.13658
 H1006 H -0.00643 -0.18242 1.03258
 H1007 H -0.00194 -0.14232 1.01414
 H1008 H 0.06159 -0.11805 1.09664
 H1009 H 0.06146 -0.07680 1.08229
 H1010 H -0.00250 -0.10578 1.00242
 H1011 H -0.00508 -0.06322 0.99339
 H1012 H 0.04301 -0.04557 1.05809
 C1013 C 0.53973 0.34016 0.61081
 C1014 C 0.53285 0.34606 0.58493
 C1015 C 0.51975 0.32781 0.57025
 C1016 C 0.51432 0.30446 0.58116
 C1017 C 0.52145 0.29883 0.60692
 C1018 C 0.53376 0.31726 0.62159
 C1019 C 0.51121 0.33332 0.54522
 C1020 C 0.51398 0.35694 0.53510
 C1021 C 0.52596 0.37596 0.54951
 C1022 C 0.53694 0.36999 0.57403
 C1023 C 0.55110 0.38834 0.58723
 C1024 C 0.55180 0.41237 0.57871
 C1025 C 0.53874 0.41899 0.55658
 C1026 C 0.52653 0.40090 0.54092
 C1027 C 0.51419 0.40885 0.51826
 C1028 C 0.51241 0.43369 0.51283
 C1029 C 0.52297 0.45147 0.52961
 C1030 C 0.53690 0.44380 0.55087
 H1031 H 0.54850 0.35324 0.62388
 H1032 H 0.50341 0.29120 0.56995
 H1033 H 0.53809 0.31439 0.64206
 H1034 H 0.50144 0.31942 0.53368
 H1035 H 0.50627 0.35978 0.51595
 H1036 H 0.56172 0.38474 0.60449
 H1037 H 0.56202 0.42606 0.59013
 H1038 H 0.50476 0.39641 0.50497
 H1039 H 0.50173 0.43891 0.49601
 H1040 H 0.54500 0.45703 0.56432
 C1041 C 0.50781 1.18160 0.56751
 C1042 C 0.49428 1.16132 0.57832
 C1043 C 0.48375 1.16393 0.60356
 C1044 C 0.48495 1.18689 0.61619
 C1045 C 0.49777 1.20728 0.60466
 C1046 C 0.50981 1.20379 0.58056
 C1047 C 0.47237 1.14351 0.61604
 C1048 C 0.47203 1.12053 0.60440
 C1049 C 0.48200 1.11726 0.57908
 C1050 C 0.49183 1.13833 0.56525
 C1051 C 0.49848 1.13589 0.53861
 C1052 C 0.49698 1.11336 0.52633
 C1053 C 0.48960 1.09222 0.54023
 C1054 C 0.48229 1.09376 0.56691
 C1055 C 0.47666 1.07161 0.58054
 C1056 C 0.47841 1.04907 0.56820
 C1057 C 0.48469 1.04759 0.54146
 C1058 C 0.49018 1.06949 0.52770
 H1059 H 0.51808 1.18056 0.54946
 H1060 H 0.47593 1.18867 0.63497
 H1061 H 0.52152 1.21799 0.57153
 H1062 H 0.46417 1.14517 0.63531
 H1063 H 0.46308 1.10566 0.61537
 H1064 H 0.50423 1.15135 0.52645
 H1065 H 0.50228 1.11243 0.50584
 H1066 H 0.47203 1.07109 0.60114
 H1067 H 0.47499 1.03267 0.57989
 H1068 H 0.49613 1.06894 0.50742
 C1069 C -0.02468 0.68326 1.06914
 C1070 C -0.01788 0.66160 1.08178
 C1071 C -0.01000 0.66349 1.10826
 C1072 C -0.00763 0.68639 1.12074
 C1073 C -0.01301 0.70784 1.10728
 C1074 C -0.02221 0.70582 1.08166
 C1075 C -0.00392 0.64259 1.12197
 C1076 C -0.00505 0.61987 1.10999
 C1077 C -0.01196 0.61704 1.08340
 C1078 C -0.01831 0.63830 1.06901
 C1079 C -0.02408 0.63568 1.04210
 C1080 C -0.02332 0.61330 1.02957
 C1081 C -0.01721 0.59240 1.04328
 C1082 C -0.01202 0.59382 1.07051
 C1083 C -0.00687 0.57188 1.08360
 C1084 C -0.00590 0.54993 1.07005
 C1085 C -0.01001 0.54866 1.04284
 C1086 C -0.01595 0.57015 1.02972
 H1087 H -0.03187 0.68352 1.04949
 H1088 H -0.00056 0.68756 1.14057
 H1089 H -0.02728 0.72192 1.07098
 H1090 H 0.00203 0.64382 1.14223
 H1091 H 0.00033 0.60489 1.12204
 H1092 H -0.02865 0.65081 1.02982
 H1093 H -0.02745 0.61240 1.00878
 H1094 H -0.00353 0.57093 1.10439
 H1095 H -0.00158 0.53383 1.08116
 H1096 H -0.01936 0.56990 1.00889
 C1097 C 0.51414 0.66537 -0.11619
 C1098 C 0.50787 0.65891 -0.08994
 C1099 C 0.49757 0.67694 -0.07429
 C1100 C 0.49406 0.70036 -0.08458
 C1101 C 0.50093 0.70688 -0.11056
 C1102 C 0.51076 0.68874 -0.12618
 C1103 C 0.49084 0.67163 -0.04832
 C1104 C 0.49421 0.64880 -0.03735
 C1105 C 0.50448 0.63013 -0.05198
 C1106 C 0.51141 0.63527 -0.07875
 C1107 C 0.52156 0.61659 -0.09347
 C1108 C 0.52435 0.59361 -0.08279
 C1109 C 0.51736 0.58820 -0.05697
 C1110 C 0.50772 0.60635 -0.04093
 C1111 C 0.50153 0.59969 -0.01463
 C1112 C 0.50381 0.57582 -0.00528
 C1113 C 0.51242 0.55775 -0.02168
 C1114 C 0.51960 0.56443 -0.04740
 H1115 H 0.52208 0.65294 -0.12961
 H1116 H 0.48540 0.71328 -0.07212
 H1117 H 0.51714 0.69252 -0.14596
 H1118 H 0.48288 0.68534 -0.03624
 H1119 H 0.48838 0.64633 -0.01724
 H1120 H 0.52742 0.61898 -0.11356
 H1121 H 0.53193 0.57980 -0.09505
 H1122 H 0.49459 0.61237 -0.00080
 H1123 H 0.49830 0.57144 0.01472
 H1124 H 0.52671 0.55094 -0.06040
 C1125 C 0.01388 1.16402 0.38248
 C1126 C 0.00563 1.15726 0.40808
 C1127 C -0.00585 1.17514 0.42297
 C1128 C -0.00865 1.19865 0.41255
 C1129 C 0.00055 1.20538 0.38751
 C1130 C 0.01143 1.18757 0.37257
 C1131 C -0.01416 1.16963 0.44839
 C1132 C -0.01097 1.14689 0.45969
 C1133 C 0.00051 1.12843 0.44586
 C1134 C 0.00855 1.13358 0.41943
 C1135 C 0.01914 1.11484 0.40519
 C1136 C 0.02164 1.09191 0.41613
 C1137 C 0.01405 1.08665 0.44179
 C1138 C 0.00380 1.10483 0.45732
 C1139 C -0.00275 1.09842 0.48360
 C1140 C -0.00028 1.07472 0.49337
 C1141 C 0.00883 1.05656 0.47743
 C1142 C 0.01633 1.06301 0.45175
 H1143 H 0.02290 1.15177 0.36970
 H1144 H -0.01782 1.21181 0.42428
 H1145 H 0.01889 1.19186 0.35336
 H1146 H -0.02306 1.18320 0.45985
 H1147 H -0.01803 1.14424 0.47934
 H1148 H 0.02541 1.11710 0.38523
 H1149 H 0.02958 1.07804 0.40422
 H1150 H -0.00994 1.11125 0.49711
 H1151 H -0.00603 1.07053 0.51334
 H1152 H 0.02378 1.04945 0.43908
 C1153 C 0.77573 0.69807 0.91520
 C1154 C 0.78567 0.68767 0.89244
 C1155 C 0.79183 0.66297 0.89390
 C1156 C 0.78803 0.64947 0.91722
 C1157 C 0.77793 0.65994 0.93960
 C1158 C 0.77172 0.68438 0.93813
 C1159 C 0.80081 0.65152 0.87178
 C1160 C 0.80236 0.66355 0.84769
 C1161 C 0.79530 0.68779 0.84490
 C1162 C 0.78810 0.70044 0.86792
 C1163 C 0.78270 0.72520 0.86546
 C1164 C 0.78113 0.73628 0.84105
 C1165 C 0.78529 0.72328 0.81824
 C1166 C 0.79380 0.69940 0.81974
 C1167 C 0.79916 0.68784 0.79579
 C1168 C 0.79296 0.69821 0.77173
 C1169 C 0.78102 0.72017 0.77073
 C1170 C 0.77949 0.73358 0.79398
 H1171 H 0.76972 0.71641 0.91566
 H1172 H 0.79210 0.63036 0.91766
 H1173 H 0.76272 0.69300 0.95422
 H1174 H 0.80584 0.63270 0.87286
 H1175 H 0.80864 0.65308 0.83145
 H1176 H 0.77901 0.73647 0.88207
 H1177 H 0.77557 0.75493 0.84000
 H1178 H 0.80721 0.67038 0.79494
 H1179 H 0.79677 0.68842 0.75401
 H1180 H 0.77192 0.75142 0.79368
 C1181 C 0.27120 0.19628 0.41179
 C1182 C 0.28206 0.18678 0.38904
 C1183 C 0.28945 0.16246 0.39021
 C1184 C 0.28597 0.14847 0.41324
 C1185 C 0.27509 0.15810 0.43566
 C1186 C 0.26755 0.18211 0.43443
 C1187 C 0.29935 0.15184 0.36806
 C1188 C 0.30079 0.16431 0.34423
 C1189 C 0.29263 0.18818 0.34171
 C1190 C 0.28428 0.20002 0.36478
 C1191 C 0.27762 0.22443 0.36263
 C1192 C 0.27611 0.23585 0.33839
 C1193 C 0.28161 0.22359 0.31547
 C1194 C 0.29123 0.20018 0.31674
 C1195 C 0.29787 0.18941 0.29275
 C1196 C 0.29210 0.20006 0.26870
 C1197 C 0.27934 0.22153 0.26771
 C1198 C 0.27617 0.23417 0.29123
 H1199 H 0.26421 0.21423 0.41244
 H1200 H 0.29088 0.12960 0.41335
 H1201 H 0.25779 0.18991 0.45052
 H1202 H 0.30529 0.13332 0.36891
 H1203 H 0.30788 0.15444 0.32794
 H1204 H 0.27293 0.23516 0.37933
 H1205 H 0.26965 0.25417 0.33755
 H1206 H 0.30668 0.17235 0.29179
 H1207 H 0.29684 0.19080 0.25090
 H1208 H 0.26776 0.25160 0.29107
 C1209 C 0.75650 0.30837 0.42813
 C1210 C 0.73871 0.30811 0.40808
 C1211 C 0.71615 0.31873 0.41335
 C1212 C 0.71309 0.33197 0.43656
 C1213 C 0.73235 0.33469 0.45479
 C1214 C 0.75337 0.32153 0.45088
 C1215 C 0.69717 0.31678 0.39502
 C1216 C 0.70061 0.30568 0.37091
 C1217 C 0.72362 0.29704 0.36385
 C1218 C 0.74301 0.29847 0.38274
 C1219 C 0.76670 0.29215 0.37506
 C1220 C 0.77167 0.28606 0.34945
 C1221 C 0.75310 0.28502 0.33079
 C1222 C 0.72855 0.28882 0.33791
 C1223 C 0.71027 0.28479 0.31847
 C1224 C 0.71672 0.27964 0.29251
 C1225 C 0.74149 0.27978 0.28494
 C1226 C 0.75935 0.28108 0.30474
 H1227 H 0.77315 0.29873 0.42683
 H1228 H 0.69592 0.34040 0.43979
 H1229 H 0.76794 0.32210 0.46533
 H1230 H 0.67965 0.32442 0.39909
 H1231 H 0.68538 0.30558 0.35745
 H1232 H 0.78236 0.29342 0.38790
 H1233 H 0.79044 0.28267 0.34406
 H1234 H 0.69094 0.28538 0.32282
 H1235 H 0.70228 0.27681 0.27822
 H1236 H 0.77858 0.27947 0.30000
 C1237 C 0.25668 0.80963 0.92564
 C1238 C 0.23842 0.80869 0.90604
 C1239 C 0.21583 0.81913 0.91161
 C1240 C 0.21307 0.83269 0.93463
 C1241 C 0.23268 0.83600 0.95236
 C1242 C 0.25384 0.82315 0.94819
 C1243 C 0.19649 0.81666 0.89375
 C1244 C 0.19956 0.80523 0.86977
 C1245 C 0.22251 0.79667 0.86238
 C1246 C 0.24225 0.79853 0.88085
 C1247 C 0.26580 0.79203 0.87287
 C1248 C 0.27031 0.78543 0.84733
 C1249 C 0.25144 0.78412 0.82904
 C1250 C 0.22700 0.78807 0.83649
 C1251 C 0.20844 0.78381 0.81739
 C1252 C 0.21449 0.77826 0.79140
 C1253 C 0.23915 0.77819 0.78348
 C1254 C 0.25727 0.77974 0.80299
 H1255 H 0.27345 0.80024 0.92416
 H1256 H 0.19578 0.84081 0.93817
 H1257 H 0.26868 0.82414 0.96231
 H1258 H 0.17896 0.82417 0.89809
 H1259 H 0.18405 0.80474 0.85668
 H1260 H 0.28168 0.79347 0.88537
 H1261 H 0.28898 0.78189 0.84169
 H1262 H 0.18917 0.78456 0.82200
 H1263 H 0.19986 0.77527 0.77735
 H1264 H 0.27644 0.77797 0.79805
 C1265 C 0.26167 0.80875 0.07102
 C1266 C 0.26226 0.82153 0.09487
 C1267 C 0.25373 0.84548 0.09465
 C1268 C 0.24505 0.85599 0.07132
 C1269 C 0.24436 0.84298 0.04756
 C1270 C 0.25305 0.81920 0.04810
 C1271 C 0.25363 0.85878 0.11785
 C1272 C 0.26041 0.84836 0.14150
 C1273 C 0.26771 0.82406 0.14294
 C1274 C 0.27008 0.81097 0.11905
 C1275 C 0.27966 0.78755 0.12026
 C1276 C 0.28419 0.77625 0.14414
 C1277 C 0.27919 0.78766 0.16776
 C1278 C 0.27167 0.81202 0.16749
 C1279 C 0.26637 0.82260 0.19181
 C1280 C 0.26573 0.80877 0.21477
 C1281 C 0.27164 0.78409 0.21503
 C1282 C 0.27988 0.77421 0.19145
 H1283 H 0.26747 0.79039 0.06931
 H1284 H 0.23819 0.87406 0.07226
 H1285 H 0.25425 0.80831 0.03066
 H1286 H 0.24770 0.87731 0.11785
 H1287 H 0.25963 0.85993 0.15841
 H1288 H 0.28362 0.77724 0.10301
 H1289 H 0.29057 0.75789 0.14409
 H1290 H 0.26048 0.84091 0.19363
 H1291 H 0.25822 0.81719 0.23188
 H1292 H 0.28428 0.75520 0.19093
 C1293 C 0.76181 0.30717 0.57310
 C1294 C 0.76307 0.32005 0.59689
 C1295 C 0.75479 0.34410 0.59679
 C1296 C 0.74577 0.35463 0.57362
 C1297 C 0.74450 0.34156 0.54991
 C1298 C 0.75287 0.31764 0.55035
 C1299 C 0.75531 0.35747 0.61995
 C1300 C 0.76248 0.34706 0.64347
 C1301 C 0.76958 0.32269 0.64480
 C1302 C 0.77131 0.30949 0.62089
 C1303 C 0.78073 0.28599 0.62193
 C1304 C 0.78570 0.27473 0.64573
 C1305 C 0.78130 0.28626 0.66943
 C1306 C 0.77397 0.31068 0.66927
 C1307 C 0.76925 0.32137 0.69369
 C1308 C 0.76892 0.30759 0.71668
 C1309 C 0.77463 0.28285 0.71687
 C1310 C 0.78237 0.27286 0.69313
 H1311 H 0.76733 0.28871 0.57134
 H1312 H 0.73917 0.37280 0.57466
 H1313 H 0.75358 0.30664 0.53294
 H1314 H 0.74957 0.37608 0.62004
 H1315 H 0.76217 0.35870 0.66036
 H1316 H 0.78422 0.27559 0.60462
 H1317 H 0.79192 0.25631 0.64556
 H1318 H 0.76353 0.33974 0.69560
 H1319 H 0.76171 0.31611 0.73388
 H1320 H 0.78659 0.25380 0.69254
 C1321 C 0.25514 0.13977 0.57962
 C1322 C 0.24593 0.16283 0.58496
 C1323 C 0.23811 0.17684 0.56338
 C1324 C 0.24141 0.16878 0.53750
 C1325 C 0.25194 0.14648 0.53258
 C1326 C 0.25801 0.13183 0.55395
 C1327 C 0.22731 0.19893 0.56773
 C1328 C 0.22451 0.20773 0.59305
 C1329 C 0.23319 0.19509 0.61510
 C1330 C 0.24447 0.17247 0.61088
 C1331 C 0.25500 0.16077 0.63253
 C1332 C 0.25508 0.17099 0.65727
 C1333 C 0.24412 0.19291 0.66171
 C1334 C 0.23210 0.20485 0.64109
 C1335 C 0.21997 0.22626 0.64743
 C1336 C 0.22120 0.23606 0.67277
 C1337 C 0.23466 0.22499 0.69253
 C1338 C 0.24580 0.20321 0.68668
 H1339 H 0.26012 0.12724 0.59482
 H1340 H 0.23570 0.17988 0.52117
 H1341 H 0.26556 0.11426 0.55102
 H1342 H 0.22105 0.20964 0.55133
 H1343 H 0.21636 0.22510 0.59462
 H1344 H 0.26444 0.14413 0.63085
 H1345 H 0.26411 0.16171 0.67311
 H1346 H 0.20940 0.23586 0.63327
 H1347 H 0.21216 0.25275 0.67660
 H1348 H 0.25622 0.19417 0.70159
 C1349 C 0.75904 0.64411 0.08365
 C1350 C 0.74826 0.66648 0.08884
 C1351 C 0.73932 0.67966 0.06717
 C1352 C 0.74263 0.67138 0.04137
 C1353 C 0.75437 0.64971 0.03664
 C1354 C 0.76201 0.63600 0.05806
 C1355 C 0.72737 0.70114 0.07134
 C1356 C 0.72449 0.71019 0.09654
 C1357 C 0.73405 0.69837 0.11868
 C1358 C 0.74636 0.67627 0.11468
 C1359 C 0.75726 0.66517 0.13649
 C1360 C 0.75681 0.67553 0.16113
 C1361 C 0.74505 0.69704 0.16531
 C1362 C 0.73269 0.70839 0.14455
 C1363 C 0.71997 0.72953 0.15066
 C1364 C 0.72086 0.73956 0.17592
 C1365 C 0.73449 0.72898 0.19586
 C1366 C 0.74628 0.70751 0.19021
 H1367 H 0.76535 0.63229 0.09887
 H1368 H 0.73598 0.68179 0.02494
 H1369 H 0.77089 0.61908 0.05514
 H1370 H 0.72029 0.71121 0.05488
 H1371 H 0.71538 0.72706 0.09794
 H1372 H 0.76723 0.64885 0.13509
 H1373 H 0.76608 0.66668 0.17710
 H1374 H 0.70925 0.73879 0.13635
 H1375 H 0.71138 0.75603 0.17958
 H1376 H 0.75686 0.69883 0.20525
 C1377 C 0.21028 0.56286 0.22337
 C1378 C 0.19617 0.58367 0.22155
 C1379 C 0.17024 0.58000 0.22312
 C1380 C 0.15922 0.55664 0.22645
 C1381 C 0.17329 0.53624 0.22956
 C1382 C 0.19901 0.53955 0.22764
 C1383 C 0.15529 0.59976 0.22241
 C1384 C 0.16558 0.62331 0.22304
 C1385 C 0.19125 0.62781 0.22370
 C1386 C 0.20675 0.60809 0.22005
 C1387 C 0.23208 0.61367 0.21569
 C1388 C 0.24190 0.63777 0.21663
 C1389 C 0.22720 0.65671 0.22401
 C1390 C 0.20181 0.65149 0.22849
 C1391 C 0.18823 0.66926 0.24054
 C1392 C 0.19930 0.69147 0.24746
 C1393 C 0.22368 0.69828 0.24031
 C1394 C 0.23770 0.68045 0.22855
 H1395 H 0.23010 0.56425 0.22296
 H1396 H 0.13936 0.55437 0.22795
 H1397 H 0.21072 0.52448 0.23007
 H1398 H 0.13545 0.59700 0.22267
 H1399 H 0.15306 0.63790 0.22279
 H1400 H 0.24457 0.59973 0.21105
 H1401 H 0.26139 0.64135 0.21311
 H1402 H 0.16959 0.66553 0.24729
 H1403 H 0.18873 0.70252 0.26012
 H1404 H 0.25706 0.68444 0.22465
 C1405 C 0.71109 0.06204 0.72378
 C1406 C 0.69730 0.08310 0.72235
 C1407 C 0.67135 0.07981 0.72399
 C1408 C 0.65999 0.05657 0.72707
 C1409 C 0.67374 0.03592 0.72996
 C1410 C 0.69948 0.03885 0.72788
 C1411 C 0.65673 0.09982 0.72373
 C1412 C 0.66739 0.12321 0.72479
 C1413 C 0.69311 0.12728 0.72539
 C1414 C 0.70826 0.10739 0.72122
 C1415 C 0.73363 0.11266 0.71676
 C1416 C 0.74381 0.13662 0.71804
 C1417 C 0.72945 0.15567 0.72592
 C1418 C 0.70406 0.15071 0.73060
 C1419 C 0.69085 0.16843 0.74323
 C1420 C 0.70224 0.19043 0.75031
 C1421 C 0.72655 0.19712 0.74279
 C1422 C 0.74026 0.17926 0.73065
 H1423 H 0.73090 0.06314 0.72327
 H1424 H 0.64012 0.05459 0.72867
 H1425 H 0.71096 0.02358 0.73011
 H1426 H 0.63686 0.09737 0.72405
 H1427 H 0.65513 0.13802 0.72493
 H1428 H 0.74586 0.09860 0.71175
 H1429 H 0.76329 0.13999 0.71437
 H1430 H 0.67225 0.16480 0.75017
 H1431 H 0.69191 0.20154 0.76315
 H1432 H 0.75960 0.18312 0.72648
 C1433 C 0.78180 0.08637 0.25200
 C1434 C 0.79634 0.10829 0.24806
 C1435 C 0.82203 0.10749 0.25150
 C1436 C 0.83232 0.08602 0.25957
 C1437 C 0.81823 0.06389 0.26111
 C1438 C 0.79266 0.06440 0.25790
 C1439 C 0.83762 0.12782 0.24584
 C1440 C 0.82837 0.14879 0.23558
 C1441 C 0.80292 0.15066 0.23212
 C1442 C 0.78652 0.13082 0.24022
 C1443 C 0.76111 0.13461 0.24113
 C1444 C 0.75230 0.15741 0.23527
 C1445 C 0.76827 0.17658 0.22649
 C1446 C 0.79340 0.17262 0.22275
 C1447 C 0.80823 0.19110 0.21031
 C1448 C 0.79954 0.21412 0.20624
 C1449 C 0.77611 0.21965 0.21491
 C1450 C 0.75979 0.20010 0.22283
 H1451 H 0.76218 0.08540 0.24910
 H1452 H 0.85204 0.08604 0.26249
 H1453 H 0.78085 0.04801 0.25942
 H1454 H 0.85730 0.12726 0.24859
 H1455 H 0.84150 0.16387 0.23181
 H1456 H 0.74782 0.12071 0.24803
 H1457 H 0.73290 0.16011 0.23782
 H1458 H 0.82685 0.18836 0.20417
 H1459 H 0.81242 0.22797 0.19888
 H1460 H 0.74094 0.20334 0.22789
 C1461 C 0.28046 0.58414 0.75559
 C1462 C 0.29477 0.60608 0.75089
 C1463 C 0.32057 0.60547 0.75356
 C1464 C 0.33122 0.58414 0.76153
 C1465 C 0.31727 0.56198 0.76365
 C1466 C 0.29162 0.56231 0.76135
 C1467 C 0.33588 0.62581 0.74715
 C1468 C 0.32623 0.64652 0.73672
 C1469 C 0.30067 0.64813 0.73387
 C1470 C 0.28461 0.62840 0.74291
 C1471 C 0.25920 0.63206 0.74446
 C1472 C 0.25009 0.65466 0.73820
 C1473 C 0.26569 0.67366 0.72835
 C1474 C 0.29077 0.66975 0.72408
 C1475 C 0.30515 0.68790 0.71060
 C1476 C 0.29617 0.71069 0.70586
 C1477 C 0.27289 0.71634 0.71490
 C1478 C 0.25694 0.69698 0.72406
 H1479 H 0.26076 0.58304 0.75335
 H1480 H 0.35102 0.58426 0.76380
 H1481 H 0.28001 0.54584 0.76346
 H1482 H 0.35564 0.62542 0.74935
 H1483 H 0.33914 0.66162 0.73228
 H1484 H 0.24619 0.61827 0.75213
 H1485 H 0.23073 0.65730 0.74121
 H1486 H 0.32365 0.68510 0.70410
 H1487 H 0.30877 0.72437 0.69767
 H1488 H 0.23821 0.70028 0.72956
 C1489 C 0.32718 0.42806 0.78206
 C1490 C 0.30948 0.41832 0.76418
 C1491 C 0.29832 0.43483 0.74694
 C1492 C 0.30534 0.45988 0.74725
 C1493 C 0.32360 0.46884 0.76444
 C1494 C 0.33411 0.45282 0.78202
 C1495 C 0.28046 0.42625 0.72926
 C1496 C 0.27348 0.40155 0.72806
 C1497 C 0.28428 0.38429 0.74446
 C1498 C 0.30263 0.39284 0.76278
 C1499 C 0.31380 0.37561 0.77890
 C1500 C 0.30728 0.35098 0.77738
 C1501 C 0.28938 0.34239 0.75986
 C1502 C 0.27750 0.35872 0.74314
 C1503 C 0.25937 0.34861 0.72589
 C1504 C 0.25326 0.32351 0.72570
 C1505 C 0.26506 0.30755 0.74248
 C1506 C 0.28330 0.31736 0.75925
 H1507 H 0.33616 0.41720 0.79641
 H1508 H 0.29711 0.47229 0.73362
 H1509 H 0.34777 0.45947 0.79602
 H1510 H 0.27182 0.43877 0.71609
 H1511 H 0.25962 0.39656 0.71378
 H1512 H 0.32792 0.38042 0.79290
 H1513 H 0.31639 0.33847 0.79020
 H1514 H 0.24932 0.35955 0.71248
 H1515 H 0.23900 0.31672 0.71249
 H1516 H 0.29302 0.30547 0.77214
 C1517 C 0.83179 0.93052 0.27890
 C1518 C 0.81044 0.92185 0.26557
 C1519 C 0.79716 0.93899 0.25125
 C1520 C 0.80482 0.96392 0.25111
 C1521 C 0.82647 0.97213 0.26400
 C1522 C 0.83956 0.95501 0.27808
 C1523 C 0.77663 0.93107 0.23671
 C1524 C 0.76936 0.90641 0.23545
 C1525 C 0.78202 0.88866 0.24936
 C1526 C 0.80224 0.89670 0.26555
 C1527 C 0.81355 0.87937 0.28140
 C1528 C 0.80627 0.85490 0.28055
 C1529 C 0.78757 0.84660 0.26383
 C1530 C 0.77509 0.86315 0.24794
 C1531 C 0.75646 0.85327 0.23113
 C1532 C 0.75043 0.82815 0.23064
 C1533 C 0.76275 0.81200 0.24673
 C1534 C 0.78134 0.82163 0.26318
 H1535 H 0.84337 0.91885 0.28979
 H1536 H 0.79456 0.97661 0.23971
 H1537 H 0.85558 0.96040 0.28955
 H1538 H 0.76631 0.94405 0.22575
 H1539 H 0.75343 0.90185 0.22365
 H1540 H 0.82789 0.88412 0.29520
 H1541 H 0.81554 0.84227 0.29307
 H1542 H 0.74637 0.86441 0.21795
 H1543 H 0.73592 0.82146 0.21768
 H1544 H 0.79133 0.80963 0.27567
 C1545 C 0.65916 0.90230 0.72487
 C1546 C 0.68323 0.89564 0.73081
 C1547 C 0.69972 0.91371 0.74163
 C1548 C 0.69187 0.93720 0.74698
 C1549 C 0.66773 0.94322 0.74134
 C1550 C 0.65168 0.92556 0.73004
 C1551 C 0.72394 0.90827 0.74689
 C1552 C 0.73222 0.88523 0.74175
 C1553 C 0.71638 0.86645 0.73152
 C1554 C 0.69139 0.87173 0.72626
 C1555 C 0.67514 0.85278 0.71718
 C1556 C 0.68279 0.82950 0.71357
 C1557 C 0.70696 0.82408 0.71856
 C1558 C 0.72434 0.84233 0.72708
 C1559 C 0.74869 0.83529 0.73125
 C1560 C 0.75483 0.81093 0.72827
 C1561 C 0.73699 0.79275 0.72107
 C1562 C 0.71337 0.80001 0.71589
 H1563 H 0.64563 0.89024 0.71564
 H1564 H 0.70456 0.95079 0.75551
 H1565 H 0.63331 0.92980 0.72430
 H1566 H 0.73670 0.92202 0.75504
 H1567 H 0.75113 0.88254 0.74649
 H1568 H 0.65601 0.85500 0.71330
 H1569 H 0.66947 0.81545 0.70703
 H1570 H 0.76334 0.84806 0.73708
 H1571 H 0.77351 0.80635 0.73231
 H1572 H 0.69903 0.78671 0.71170
 C1573 C 0.16131 0.40348 0.22093
 C1574 C 0.18561 0.39732 0.22649
 C1575 C 0.20103 0.41468 0.23993
 C1576 C 0.19253 0.43766 0.24635
 C1577 C 0.16855 0.44360 0.23997
 C1578 C 0.15309 0.42618 0.22744
 C1579 C 0.22481 0.40900 0.24686
 C1580 C 0.23351 0.38624 0.24125
 C1581 C 0.21887 0.36834 0.22787
 C1582 C 0.19486 0.37438 0.21955
 C1583 C 0.18085 0.35733 0.20442
 C1584 C 0.18908 0.33449 0.19929
 C1585 C 0.21160 0.32770 0.20885
 C1586 C 0.22714 0.34447 0.22279
 C1587 C 0.24979 0.33614 0.23184
 C1588 C 0.25580 0.31186 0.22834
 C1589 C 0.23958 0.29500 0.21563
 C1590 C 0.21800 0.30367 0.20537
 H1591 H 0.14797 0.39117 0.21174
 H1592 H 0.20456 0.45093 0.25633
 H1593 H 0.13461 0.43019 0.22186
 H1594 H 0.23675 0.42220 0.25706
 H1595 H 0.25197 0.38327 0.24751
 H1596 H 0.16335 0.36103 0.19603
 H1597 H 0.17740 0.32179 0.18809
 H1598 H 0.26288 0.34763 0.24249
 H1599 H 0.27283 0.30619 0.23664
 H1600 H 0.20468 0.29129 0.19693
 C1601 C 0.07479 0.20951 0.82307
 C1602 C 0.08680 0.22901 0.80902
 C1603 C 0.07678 0.25221 0.81056
 C1604 C 0.05746 0.25614 0.82830
 C1605 C 0.04749 0.23704 0.84438
 C1606 C 0.05536 0.21345 0.84003
 C1607 C 0.08635 0.27133 0.79465
 C1608 C 0.10625 0.26813 0.77797
 C1609 C 0.11819 0.24593 0.77758
 C1610 C 0.10849 0.22622 0.79377
 C1611 C 0.12180 0.20496 0.79582
 C1612 C 0.14449 0.20354 0.78379
 C1613 C 0.15430 0.22270 0.76825
 C1614 C 0.14064 0.24339 0.76333
 C1615 C 0.15083 0.26113 0.74546
 C1616 C 0.17484 0.25969 0.73572
 C1617 C 0.18966 0.24089 0.74393
 C1618 C 0.17856 0.22200 0.75938
 H1619 H 0.07964 0.19085 0.82091
 H1620 H 0.05027 0.27410 0.82957
 H1621 H 0.04650 0.19774 0.84979
 H1622 H 0.07853 0.28904 0.79528
 H1623 H 0.11290 0.28390 0.76677
 H1624 H 0.11607 0.18973 0.80829
 H1625 H 0.15477 0.18747 0.78728
 H1626 H 0.14089 0.27661 0.73924
 H1627 H 0.18246 0.27457 0.72362
 H1628 H 0.18929 0.20782 0.76730
 C1629 C 0.57359 0.70961 0.32449
 C1630 C 0.58517 0.72925 0.31030
 C1631 C 0.57441 0.75212 0.31133
 C1632 C 0.55478 0.75568 0.32878
 C1633 C 0.54530 0.73656 0.34512
 C1634 C 0.55389 0.71319 0.34122
 C1635 C 0.58358 0.77129 0.29528
 C1636 C 0.60386 0.76854 0.27900
 C1637 C 0.61652 0.74677 0.27916
 C1638 C 0.60719 0.72696 0.29544
 C1639 C 0.62114 0.70618 0.29801
 C1640 C 0.64409 0.70535 0.28644
 C1641 C 0.65357 0.72464 0.27086
 C1642 C 0.63933 0.74481 0.26540
 C1643 C 0.64928 0.76266 0.24753
 C1644 C 0.67352 0.76189 0.23830
 C1645 C 0.68879 0.74366 0.24699
 C1646 C 0.67803 0.72461 0.26248
 H1647 H 0.57903 0.69111 0.32268
 H1648 H 0.54705 0.77342 0.32977
 H1649 H 0.54543 0.69736 0.35111
 H1650 H 0.57519 0.78874 0.29552
 H1651 H 0.61017 0.78435 0.26768
 H1652 H 0.61567 0.69091 0.31054
 H1653 H 0.65483 0.68967 0.29032
 H1654 H 0.63895 0.77774 0.24093
 H1655 H 0.68088 0.77686 0.22615
 H1656 H 0.68911 0.71086 0.27074
 C1657 C 0.57667 0.24093 0.18079
 C1658 C 0.59349 0.26149 0.17986
 C1659 C 0.58792 0.28089 0.16271
 C1660 C 0.56754 0.27880 0.14583
 C1661 C 0.55217 0.25739 0.14539
 C1662 C 0.55645 0.23907 0.16399
 C1663 C 0.60313 0.30212 0.16186
 C1664 C 0.62465 0.30402 0.17629
 C1665 C 0.63221 0.28443 0.19193
 C1666 C 0.61595 0.26316 0.19455
 C1667 C 0.62324 0.24391 0.21086
 C1668 C 0.64622 0.24466 0.22272
 C1669 C 0.66294 0.26453 0.21888
 C1670 C 0.65592 0.28499 0.20407
 C1671 C 0.67356 0.30459 0.20066
 C1672 C 0.69749 0.30303 0.20961
 C1673 C 0.70489 0.28241 0.22339
 C1674 C 0.68708 0.26347 0.22858
 H1675 H 0.57882 0.22568 0.19384
 H1676 H 0.56443 0.29380 0.13270
 H1677 H 0.54455 0.22261 0.16475
 H1678 H 0.59864 0.31732 0.14936
 H1679 H 0.63525 0.32105 0.17420
 H1680 H 0.61183 0.22756 0.21432
 H1681 H 0.65126 0.22907 0.23432
 H1682 H 0.67001 0.32097 0.18993
 H1683 H 0.71056 0.31779 0.20428
 H1684 H 0.69233 0.24717 0.23880
 C1685 C 0.07382 0.73937 0.67934
 C1686 C 0.09075 0.75984 0.67832
 C1687 C 0.08539 0.77913 0.66093
 C1688 C 0.06505 0.77705 0.64400
 C1689 C 0.04948 0.75577 0.64376
 C1690 C 0.05365 0.73752 0.66248
 C1691 C 0.10077 0.80024 0.65989
 C1692 C 0.12227 0.80209 0.67437
 C1693 C 0.12961 0.78259 0.69026
 C1694 C 0.11315 0.76150 0.69313
 C1695 C 0.12015 0.74241 0.70983
 C1696 C 0.14309 0.74310 0.72181
 C1697 C 0.16004 0.76273 0.71766
 C1698 C 0.15330 0.78305 0.70244
 C1699 C 0.17119 0.80235 0.69864
 C1700 C 0.19508 0.80063 0.70763
 C1701 C 0.20220 0.78015 0.72186
 C1702 C 0.18414 0.76154 0.72746
 H1703 H 0.07587 0.72416 0.69248
 H1704 H 0.06214 0.79193 0.63064
 H1705 H 0.04166 0.72112 0.66331
 H1706 H 0.09644 0.81536 0.64721
 H1707 H 0.13300 0.81903 0.67214
 H1708 H 0.10854 0.72625 0.71356
 H1709 H 0.14791 0.72764 0.73373
 H1710 H 0.16788 0.81858 0.68751
 H1711 H 0.20834 0.81511 0.70197
 H1712 H 0.18917 0.74535 0.73801
 C1713 C 0.91535 0.73593 0.61546
 C1714 C 0.90870 0.73026 0.64182
 C1715 C 0.92798 0.72784 0.66007
 C1716 C 0.95268 0.73009 0.65189
 C1717 C 0.95910 0.73613 0.62576
 C1718 C 0.94004 0.73901 0.60773
 C1719 C 0.92260 0.72349 0.68655
 C1720 C 0.89851 0.72262 0.69564
 C1721 C 0.87863 0.72527 0.67837
 C1722 C 0.88370 0.72762 0.65086
 C1723 C 0.86362 0.72693 0.63339
 C1724 C 0.83947 0.72501 0.64254
 C1725 C 0.83429 0.72473 0.66942
 C1726 C 0.85381 0.72536 0.68771
 C1727 C 0.84773 0.72732 0.71459
 C1728 C 0.82337 0.72845 0.72284
 C1729 C 0.80385 0.72653 0.70496
 C1730 C 0.80969 0.72465 0.67810
 H1731 H 0.90187 0.73905 0.60056
 H1732 H 0.96689 0.72725 0.66620
 H1733 H 0.94404 0.74432 0.58762
 H1734 H 0.93724 0.72129 0.70058
 H1735 H 0.89593 0.71912 0.71635
 H1736 H 0.86604 0.72723 0.61237
 H1737 H 0.82466 0.72442 0.62837
 H1738 H 0.86153 0.72953 0.72962
 H1739 H 0.82017 0.73191 0.74333
 H1740 H 0.79513 0.72423 0.66366
 C1741 C 0.41807 0.23693 0.11603
 C1742 C 0.41114 0.23173 0.14239
 C1743 C 0.43019 0.23025 0.16108
 C1744 C 0.45499 0.23273 0.15326
 C1745 C 0.46170 0.23812 0.12704
 C1746 C 0.44282 0.24029 0.10864
 C1747 C 0.42443 0.22658 0.18759
 C1748 C 0.40017 0.22541 0.19622
 C1749 C 0.38051 0.22698 0.17845
 C1750 C 0.38604 0.22866 0.15098
 C1751 C 0.36632 0.22687 0.13309
 C1752 C 0.34204 0.22460 0.14172
 C1753 C 0.33634 0.22502 0.16846
 C1754 C 0.35547 0.22666 0.18721
 C1755 C 0.34873 0.22915 0.21386
 C1756 C 0.32411 0.23006 0.22142
 C1757 C 0.30506 0.22738 0.20304
 C1758 C 0.31157 0.22470 0.17647
 H1759 H 0.40474 0.23949 0.10081
 H1760 H 0.46904 0.23051 0.16791
 H1761 H 0.44694 0.24521 0.08846
 H1762 H 0.43890 0.22516 0.20198
 H1763 H 0.39730 0.22255 0.21699
 H1764 H 0.36915 0.22655 0.11214
 H1765 H 0.32753 0.22321 0.12723
 H1766 H 0.36216 0.23196 0.22918
 H1767 H 0.32029 0.23399 0.24170
 H1768 H 0.29738 0.22363 0.16162
 C1769 C 0.41523 0.76197 0.36117
 C1770 C 0.40715 0.75080 0.33746
 C1771 C 0.42344 0.73542 0.32478
 C1772 C 0.44660 0.73139 0.33569
 C1773 C 0.45455 0.74305 0.35892
 C1774 C 0.43846 0.75821 0.37153
 C1775 C 0.41670 0.72435 0.30109
 C1776 C 0.39418 0.72830 0.28944
 C1777 C 0.37714 0.74330 0.30126
 C1778 C 0.38364 0.75447 0.32587
 C1779 C 0.36628 0.76870 0.33828
 C1780 C 0.34335 0.77163 0.32746
 C1781 C 0.33673 0.76086 0.30365
 C1782 C 0.35355 0.74703 0.28975
 C1783 C 0.34570 0.73729 0.26518
 C1784 C 0.32177 0.74016 0.25579
 C1785 C 0.30485 0.75287 0.27041
 C1786 C 0.31292 0.76339 0.29420
 H1787 H 0.40435 0.77424 0.37201
 H1788 H 0.45856 0.71926 0.32578
 H1789 H 0.44404 0.76798 0.38907
 H1790 H 0.42909 0.71257 0.29127
 H1791 H 0.39047 0.71897 0.27124
 H1792 H 0.36957 0.77749 0.35684
 H1793 H 0.33051 0.78235 0.33806
 H1794 H 0.35749 0.72710 0.25290
 H1795 H 0.31629 0.73167 0.23746
 H1796 H 0.30032 0.77307 0.30624
 C1797 C 0.91699 0.25807 0.86481
 C1798 C 0.91013 0.24967 0.83949
 C1799 C 0.92757 0.23691 0.82524
 C1800 C 0.95102 0.23347 0.83576
 C1801 C 0.95812 0.24282 0.86056
 C1802 C 0.94036 0.25473 0.87500
 C1803 C 0.92164 0.22769 0.80043
 C1804 C 0.89876 0.23092 0.78928
 C1805 C 0.88072 0.24370 0.80248
 C1806 C 0.88661 0.25339 0.82796
 C1807 C 0.86881 0.26656 0.84105
 C1808 C 0.84587 0.26949 0.83026
 C1809 C 0.83961 0.25960 0.80593
 C1810 C 0.85686 0.24691 0.79132
 C1811 C 0.84917 0.23770 0.76647
 C1812 C 0.82508 0.24014 0.75733
 C1813 C 0.80788 0.25195 0.77247
 C1814 C 0.81574 0.26193 0.79660
 H1815 H 0.90485 0.26757 0.87733
 H1816 H 0.96351 0.22304 0.82443
 H1817 H 0.94450 0.26276 0.89387
 H1818 H 0.93490 0.21783 0.78941
 H1819 H 0.89576 0.22314 0.77014
 H1820 H 0.87192 0.27491 0.85987
 H1821 H 0.83273 0.27947 0.84132
 H1822 H 0.86114 0.22808 0.75383
 H1823 H 0.81974 0.23208 0.73873
 H1824 H 0.80295 0.27106 0.80894
 C1825 C 0.56441 0.96449 0.69368
 C1826 C 0.57092 0.95833 0.66766
 C1827 C 0.59629 0.95818 0.66142
 C1828 C 0.61404 0.96643 0.67968
 C1829 C 0.60700 0.97427 0.70451
 C1830 C 0.58229 0.97229 0.71179
 C1831 C 0.60379 0.95070 0.63670
 C1832 C 0.58669 0.94488 0.61727
 C1833 C 0.56134 0.94718 0.62162
 C1834 C 0.55327 0.95363 0.64733
 C1835 C 0.52807 0.95721 0.65126
 C1836 C 0.51195 0.95754 0.63027
 C1837 C 0.52008 0.95330 0.60484
 C1838 C 0.54415 0.94583 0.60047
 C1839 C 0.55033 0.93914 0.57458
 C1840 C 0.53520 0.94474 0.55348
 C1841 C 0.51411 0.95766 0.55772
 C1842 C 0.50512 0.95884 0.58354
 H1843 H 0.54570 0.96377 0.70059
 H1844 H 0.63337 0.96724 0.67445
 H1845 H 0.57673 0.97765 0.73126
 H1846 H 0.62316 0.95005 0.63203
 H1847 H 0.59404 0.94024 0.59840
 H1848 H 0.52050 0.96168 0.67004
 H1849 H 0.49323 0.96244 0.63382
 H1850 H 0.56726 0.93083 0.56992
 H1851 H 0.54154 0.94137 0.53376
 H1852 H 0.48772 0.96677 0.58740
 C1853 C 0.06583 0.46235 1.19162
 C1854 C 0.07279 0.45718 1.16547
 C1855 C 0.09825 0.45822 1.15942
 C1856 C 0.11553 0.46668 1.17806
 C1857 C 0.10798 0.47360 1.20304
 C1858 C 0.08327 0.47039 1.21009
 C1859 C 0.10626 0.45177 1.13453
 C1860 C 0.08953 0.44589 1.11477
 C1861 C 0.06403 0.44705 1.11900
 C1862 C 0.05548 0.45240 1.14485
 C1863 C 0.03007 0.45490 1.14868
 C1864 C 0.01410 0.45531 1.12755
 C1865 C 0.02265 0.45218 1.10206
 C1866 C 0.04706 0.44570 1.09766
 C1867 C 0.05372 0.43998 1.07163
 C1868 C 0.03858 0.44570 1.05059
 C1869 C 0.01709 0.45792 1.05507
 C1870 C 0.00772 0.45789 1.08081
 H1871 H 0.04707 0.46066 1.19837
 H1872 H 0.13490 0.46842 1.17298
 H1873 H 0.07733 0.47502 1.22967
 H1874 H 0.12572 0.45204 1.12999
 H1875 H 0.09722 0.44219 1.09578
 H1876 H 0.02215 0.45850 1.16755
 H1877 H -0.00484 0.45942 1.13108
 H1878 H 0.07094 0.43226 1.06689
 H1879 H 0.04502 0.44277 1.03082
 H1880 H -0.01003 0.46507 1.08474
 C1881 C -0.08605 -0.00525 1.19959
 C1882 C -0.07493 0.01545 1.18659
 C1883 C -0.08257 0.03873 1.19364
 C1884 C -0.10015 0.04097 1.21347
 C1885 C -0.11163 0.02019 1.22550
 C1886 C -0.10421 -0.00285 1.21854
 C1887 C -0.07334 0.05956 1.18019
 C1888 C -0.05794 0.05764 1.15858
 C1889 C -0.05039 0.03476 1.15032
 C1890 C -0.05764 0.01363 1.16578
 C1891 C -0.04768 -0.00877 1.15972
 C1892 C -0.03367 -0.01125 1.13740
 C1893 C -0.02906 0.00846 1.12037
 C1894 C -0.03641 0.03197 1.12680
 C1895 C -0.03025 0.05127 1.10878
 C1896 C -0.01895 0.04674 1.08461
 C1897 C -0.01408 0.02289 1.07750
 C1898 C -0.01785 0.00428 1.09642
 H1899 H -0.08218 -0.02368 1.19456
 H1900 H -0.10538 0.05900 1.21898
 H1901 H -0.11311 -0.01925 1.22687
 H1902 H -0.07895 0.07747 1.18571
 H1903 H -0.05225 0.07443 1.14867
 H1904 H -0.05043 -0.02484 1.17189
 H1905 H -0.02713 -0.02907 1.13294
 H1906 H -0.03465 0.06985 1.11237
 H1907 H -0.01502 0.06178 1.07112
 H1908 H -0.01294 -0.01417 1.09232
 C1909 C 0.41382 0.49395 0.70124
 C1910 C 0.42465 0.51495 0.68850
 C1911 C 0.41627 0.53796 0.69545
 C1912 C 0.39830 0.53968 0.71497
 C1913 C 0.38715 0.51861 0.72678
 C1914 C 0.39527 0.49583 0.71988
 C1915 C 0.42520 0.55904 0.68225
 C1916 C 0.44113 0.55762 0.66101
 C1917 C 0.44953 0.53502 0.65291
 C1918 C 0.44249 0.51368 0.66813
 C1919 C 0.45327 0.49163 0.66232
 C1920 C 0.46803 0.48967 0.64047
 C1921 C 0.47252 0.50953 0.62361
 C1922 C 0.46422 0.53274 0.62980
 C1923 C 0.47019 0.55221 0.61193
 C1924 C 0.48220 0.54808 0.58804
 C1925 C 0.48803 0.52444 0.58110
 C1926 C 0.48454 0.50577 0.60002
 H1927 H 0.41828 0.47568 0.69624
 H1928 H 0.39263 0.55755 0.72048
 H1929 H 0.38670 0.47921 0.72810
 H1930 H 0.41901 0.57675 0.68769
 H1931 H 0.44660 0.57457 0.65129
 H1932 H 0.45062 0.47546 0.67436
 H1933 H 0.47523 0.47210 0.63619
 H1934 H 0.46507 0.57060 0.61537
 H1935 H 0.48588 0.56320 0.57459
 H1936 H 0.49020 0.48754 0.59611
 C1937 C 0.37318 0.50436 -0.13587
 C1938 C 0.39565 0.49260 -0.13701
 C1939 C 0.40670 0.49000 -0.16198
 C1940 C 0.39529 0.49853 -0.18473
 C1941 C 0.37295 0.50999 -0.18318
 C1942 C 0.36211 0.51282 -0.15855
 C1943 C 0.42924 0.47926 -0.16407
 C1944 C 0.44177 0.47211 -0.14179
 C1945 C 0.43198 0.47510 -0.11641
 C1946 C 0.40799 0.48438 -0.11414
 C1947 C 0.39738 0.48577 -0.08895
 C1948 C 0.41090 0.48166 -0.06661
 C1949 C 0.43528 0.47549 -0.06848
 C1950 C 0.44580 0.47055 -0.09313
 C1951 C 0.47030 0.46308 -0.09327
 C1952 C 0.48454 0.46393 -0.07034
 C1953 C 0.47487 0.47228 -0.04668
 C1954 C 0.44966 0.47640 -0.04587
 H1955 H 0.36378 0.50775 -0.11776
 H1956 H 0.40409 0.49660 -0.20366
 H1957 H 0.34468 0.52121 -0.15675
 H1958 H 0.43765 0.47696 -0.18315
 H1959 H 0.45937 0.46465 -0.14509
 H1960 H 0.37875 0.49063 -0.08573
 H1961 H 0.40248 0.48441 -0.04761
 H1962 H 0.47946 0.45791 -0.11098
 H1963 H 0.50382 0.46030 -0.07185
 H1964 H 0.44152 0.48372 -0.02857
 C1965 C -0.12749 1.00635 0.36311
 C1966 C -0.10531 0.99406 0.36231
 C1967 C -0.09378 0.99164 0.33758
 C1968 C -0.10445 1.00079 0.31472
 C1969 C -0.12664 1.01254 0.31587
 C1970 C -0.13791 1.01531 0.34029
 C1971 C -0.07152 0.98035 0.33578
 C1972 C -0.05973 0.97241 0.35819
 C1973 C -0.06999 0.97518 0.38339
 C1974 C -0.09371 0.98510 0.38531
 C1975 C -0.10477 0.98634 0.41029
 C1976 C -0.09185 0.98145 0.43286
 C1977 C -0.06764 0.97466 0.43140
 C1978 C -0.05680 0.96984 0.40686
 C1979 C -0.03254 0.96174 0.40707
 C1980 C -0.01864 0.96218 0.43019
 C1981 C -0.02846 0.97067 0.45372
 C1982 C -0.05363 0.97494 0.45429
 H1983 H -0.13720 1.00965 0.38106
 H1984 H -0.09525 0.99896 0.29600
 H1985 H -0.15523 1.02396 0.34178
 H1986 H -0.06276 0.97818 0.31687
 H1987 H -0.04229 0.96453 0.35513
 H1988 H -0.12328 0.99171 0.41319
 H1989 H -0.10054 0.98414 0.45173
 H1990 H -0.02325 0.95648 0.38948
 H1991 H 0.00058 0.95825 0.42893
 H1992 H -0.06191 0.98208 0.47164
 C1993 C 0.09764 0.46624 0.32789
 C1994 C 0.08603 0.48641 0.33867
 C1995 C 0.08943 0.50916 0.32544
 C1996 C 0.10397 0.51136 0.30252
 C1997 C 0.11538 0.49112 0.29225
 C1998 C 0.11197 0.46864 0.30518
 C1999 C 0.07834 0.52961 0.33516
 C2000 C 0.06403 0.52813 0.35788
 C2001 C 0.06016 0.50598 0.37195
 C2002 C 0.07137 0.48478 0.36212
 C2003 C 0.06770 0.46262 0.37615
 C2004 C 0.05403 0.46115 0.39907
 C2005 C 0.04323 0.48157 0.40902
 C2006 C 0.04572 0.50425 0.39567
 C2007 C 0.03360 0.52403 0.40682
 C2008 C 0.02036 0.52131 0.43053
 C2009 C 0.01902 0.49899 0.44418
 C2010 C 0.03011 0.47914 0.43259
 H2011 H 0.09623 0.44824 0.33647
 H2012 H 0.10617 0.52884 0.29249
 H2013 H 0.12082 0.45280 0.29802
 H2014 H 0.08085 0.54706 0.32512
 H2015 H 0.05634 0.54481 0.36408
 H2016 H 0.07530 0.44587 0.37014
 H2017 H 0.05200 0.44371 0.40923
 H2018 H 0.03406 0.54185 0.39777
 H2019 H 0.01165 0.53690 0.43846
 H2020 H 0.02887 0.46133 0.44192
 C2021 C 0.59732 -0.03275 -0.17115
 C2022 C 0.58595 -0.01239 -0.16047
 C2023 C 0.58993 0.01036 -0.17357
 C2024 C 0.60462 0.01234 -0.19641
 C2025 C 0.61564 -0.00813 -0.20669
 C2026 C 0.61181 -0.03056 -0.19377
 C2027 C 0.57927 0.03103 -0.16380
 C2028 C 0.56481 0.02976 -0.14117
 C2029 C 0.56028 0.00759 -0.12730
 C2030 C 0.57097 -0.01385 -0.13725
 C2031 C 0.56638 -0.03611 -0.12361
 C2032 C 0.55243 -0.03743 -0.10088
 C2033 C 0.54228 -0.01676 -0.09071
 C2034 C 0.54564 0.00604 -0.10370
 C2035 C 0.53417 0.02611 -0.09232
 C2036 C 0.52073 0.02353 -0.06871
 C2037 C 0.51855 0.00105 -0.05539
 C2038 C 0.52892 -0.01906 -0.06727
 H2039 H 0.59565 -0.05072 -0.16252
 H2040 H 0.60719 0.02981 -0.20639
 H2041 H 0.62042 -0.04657 -0.20087
 H2042 H 0.58223 0.04849 -0.17372
 H2043 H 0.55747 0.04659 -0.13492
 H2044 H 0.57336 -0.05307 -0.12986
 H2045 H 0.54968 -0.05496 -0.09103
 H2046 H 0.53536 0.04407 -0.10108
 H2047 H 0.51258 0.03934 -0.06058
 H2048 H 0.52697 -0.03698 -0.05826
 C2049 C 0.67569 0.60142 -0.00415
 C2050 C 0.66777 0.58204 -0.02078
 C2051 C 0.68571 0.57040 -0.03560
 C2052 C 0.71026 0.57984 -0.03582
 C2053 C 0.71733 0.59989 -0.02017
 C2054 C 0.70012 0.61008 -0.00386
 C2055 C 0.67891 0.54956 -0.05005
 C2056 C 0.65473 0.53974 -0.04961
 C2057 C 0.63613 0.55133 -0.03590
 C2058 C 0.64268 0.57365 -0.02267
 C2059 C 0.62388 0.58739 -0.01236
 C2060 C 0.59966 0.57873 -0.01297
 C2061 C 0.59328 0.55582 -0.02324
 C2062 C 0.61117 0.54166 -0.03494
 C2063 C 0.60334 0.51807 -0.04393
 C2064 C 0.57902 0.50874 -0.04002
 C2065 C 0.56168 0.52279 -0.02763
 C2066 C 0.56910 0.54670 -0.02042
 H2067 H 0.66351 0.60994 0.00927
 H2068 H 0.72384 0.57169 -0.04807
 H2069 H 0.70548 0.62534 0.00864
 H2070 H 0.69251 0.54045 -0.06137
 H2071 H 0.65089 0.52347 -0.06094
 H2072 H 0.62731 0.60534 -0.00426
 H2073 H 0.58584 0.58982 -0.00451
 H2074 H 0.61591 0.50597 -0.05268
 H2075 H 0.57412 0.49014 -0.04569
 H2076 H 0.55680 0.55776 -0.00975
 C2077 C 0.17239 1.10082 0.49136
 C2078 C 0.16427 1.08093 0.47550
 C2079 C 0.18206 1.06875 0.46100
 C2080 C 0.20668 1.07797 0.46046
 C2081 C 0.21395 1.09842 0.47540
 C2082 C 0.19688 1.10931 0.49128
 C2083 C 0.17508 1.04757 0.44724
 C2084 C 0.15087 1.03790 0.44810
 C2085 C 0.13244 1.04989 0.46163
 C2086 C 0.13915 1.07253 0.47414
 C2087 C 0.12049 1.08650 0.48435
 C2088 C 0.09627 1.07777 0.48442
 C2089 C 0.08977 1.05463 0.47486
 C2090 C 0.10749 1.04025 0.46317
 C2091 C 0.09954 1.01651 0.45476
 C2092 C 0.07529 1.00726 0.45919
 C2093 C 0.05815 1.02151 0.47162
 C2094 C 0.06566 1.04552 0.47833
 H2095 H 0.16036 1.10986 0.50449
 H2096 H 0.22017 1.06931 0.44853
 H2097 H 0.20242 1.12489 0.50323
 H2098 H 0.18856 1.03809 0.43614
 H2099 H 0.14691 1.02135 0.43729
 H2100 H 0.12399 1.10464 0.49192
 H2101 H 0.08256 1.08902 0.49284
 H2102 H 0.11195 1.00425 0.44601
 H2103 H 0.07029 0.98859 0.45388
 H2104 H 0.05348 1.05673 0.48899
 C2105 C 0.17684 -0.06279 0.98005
 C2106 C 0.16293 -0.05810 1.00273
 C2107 C 0.16858 -0.07078 1.02621
 C2108 C 0.18583 -0.08899 1.02608
 C2109 C 0.19750 -0.09493 1.00273
 C2110 C 0.19369 -0.08093 0.98012
 C2111 C 0.15626 -0.06594 1.04941
 C2112 C 0.13765 -0.04967 1.04970
 C2113 C 0.13022 -0.03783 1.02652
 C2114 C 0.14312 -0.04202 1.00265
 C2115 C 0.13479 -0.03119 0.97923
 C2116 C 0.11368 -0.01808 0.97884
 C2117 C 0.10034 -0.01474 1.00177
 C2118 C 0.10921 -0.02335 1.02609
 C2119 C 0.09610 -0.01771 1.04895
 C2120 C 0.07321 -0.00782 1.04721
 C2121 C 0.06245 -0.00334 1.02270
 C2122 C 0.07747 -0.00403 1.00040
 H2123 H 0.17495 -0.05305 0.96180
 H2124 H 0.18917 -0.09940 1.04377
 H2125 H 0.20345 -0.08444 0.96210
 H2126 H 0.16062 -0.07532 1.06747
 H2127 H 0.12855 -0.04775 1.06831
 H2128 H 0.14344 -0.03353 0.96046
 H2129 H 0.10727 -0.01124 0.96019
 H2130 H 0.10267 -0.02128 1.06845
 H2131 H 0.06347 -0.00505 1.06539
 H2132 H 0.07083 0.00232 0.98170
 C2133 C 0.67764 0.43677 0.48291
 C2134 C 0.66441 0.44210 0.50587
 C2135 C 0.67002 0.42926 0.52926
 C2136 C 0.68672 0.41054 0.52889
 C2137 C 0.69782 0.40415 0.50536
 C2138 C 0.69392 0.41810 0.48273
 C2139 C 0.65822 0.43451 0.55266
 C2140 C 0.64009 0.45130 0.55325
 C2141 C 0.63272 0.46340 0.53021
 C2142 C 0.64526 0.45897 0.50617
 C2143 C 0.63727 0.47048 0.48299
 C2144 C 0.61668 0.48434 0.48291
 C2145 C 0.60348 0.48771 0.50593
 C2146 C 0.61209 0.47844 0.53009
 C2147 C 0.59902 0.48394 0.55303
 C2148 C 0.57632 0.49424 0.55145
 C2149 C 0.56576 0.49938 0.52701
 C2150 C 0.58089 0.49898 0.50476
 H2151 H 0.67563 0.44638 0.46460
 H2152 H 0.69010 0.40014 0.54657
 H2153 H 0.70321 0.41423 0.46453
 H2154 H 0.66257 0.42502 0.57066
 H2155 H 0.63138 0.45352 0.57202
 H2156 H 0.64584 0.46823 0.46416
 H2157 H 0.61049 0.49170 0.46442
 H2158 H 0.60537 0.47979 0.57248
 H2159 H 0.56652 0.49677 0.56964
 H2160 H 0.57436 0.50569 0.48616
 C2161 C -0.18739 0.41194 0.53386
 C2162 C -0.17539 0.42523 0.51310
 C2163 C -0.18820 0.42731 0.48909
 C2164 C -0.21085 0.41439 0.48538
 C2165 C -0.22140 0.39974 0.50552
 C2166 C -0.21001 0.39939 0.53001
 C2167 C -0.17800 0.44165 0.46867
 C2168 C -0.15488 0.45336 0.47113
 C2169 C -0.14060 0.45041 0.49389
 C2170 C -0.15096 0.43587 0.51509
 C2171 C -0.13605 0.43116 0.53693
 C2172 C -0.11168 0.43959 0.53771
 C2173 C -0.10138 0.45376 0.51728
 C2174 C -0.11581 0.46033 0.49560
 C2175 C -0.10445 0.47591 0.47625
 C2176 C -0.07952 0.48339 0.47784
 C2177 C -0.06497 0.47548 0.49856
 C2178 C -0.07636 0.46067 0.51817
 H2179 H -0.17975 0.41071 0.55327
 H2180 H -0.22005 0.41527 0.46658
 H2181 H -0.21805 0.38849 0.54598
 H2182 H -0.18788 0.44358 0.45040
 H2183 H -0.14819 0.46365 0.45424
 H2184 H -0.14227 0.41986 0.55328
 H2185 H -0.10068 0.43475 0.55447
 H2186 H -0.11431 0.48270 0.45968
 H2187 H -0.07156 0.49491 0.46233
 H2188 H -0.06555 0.45290 0.53348
 C2189 C 0.31190 -0.08601 0.03231
 C2190 C 0.32402 -0.07255 0.01175
 C2191 C 0.31155 -0.07063 -0.01247
 C2192 C 0.28912 -0.08386 -0.01658
 C2193 C 0.27844 -0.09862 0.00341
 C2194 C 0.28950 -0.09884 0.02809
 C2195 C 0.32185 -0.05612 -0.03270
 C2196 C 0.34477 -0.04407 -0.02982
 C2197 C 0.35876 -0.04686 -0.00682
 C2198 C 0.34828 -0.06158 0.01418
 C2199 C 0.36294 -0.06617 0.03625
 C2200 C 0.38721 -0.05748 0.03743
 C2201 C 0.39764 -0.04316 0.01718
 C2202 C 0.38342 -0.03665 -0.00468
 C2203 C 0.39489 -0.02089 -0.02381
 C2204 C 0.41978 -0.01331 -0.02190
 C2205 C 0.43417 -0.02128 -0.00107
 C2206 C 0.42262 -0.03616 0.01839
 H2207 H 0.31925 -0.08713 0.05185
 H2208 H 0.28017 -0.08308 -0.03552
 H2209 H 0.28137 -0.10982 0.04394
 H2210 H 0.31223 -0.05430 -0.05114
 H2211 H 0.35158 -0.03365 -0.04657
 H2212 H 0.35663 -0.07758 0.05247
 H2213 H 0.39805 -0.06227 0.05433
 H2214 H 0.38515 -0.01411 -0.04047
 H2215 H 0.42788 -0.00175 -0.03731
 H2216 H 0.43328 -0.04405 0.03373
 C2217 C 0.32905 1.08234 0.53030
 C2218 C 0.33799 1.06329 0.51494
 C2219 C 0.32597 1.05791 0.49081
 C2220 C 0.30684 1.07194 0.48204
 C2221 C 0.29922 1.09133 0.49698
 C2222 C 0.31007 1.09620 0.52126
 C2223 C 0.33369 1.03921 0.47502
 C2224 C 0.35386 1.02629 0.48192
 C2225 C 0.36732 1.03172 0.50498
 C2226 C 0.35904 1.05023 0.52201
 C2227 C 0.37278 1.05585 0.54486
 C2228 C 0.39485 1.04527 0.54981
 C2229 C 0.40385 1.02829 0.53259
 C2230 C 0.38965 1.02030 0.51074
 C2231 C 0.39899 1.00185 0.49497
 C2232 C 0.42272 0.99433 0.49862
 C2233 C 0.43796 1.00477 0.51819
 C2234 C 0.42754 1.02015 0.53641
 H2235 H 0.33669 1.08753 0.54902
 H2236 H 0.29835 1.06832 0.46313
 H2237 H 0.30467 1.11153 0.53274
 H2238 H 0.32443 1.03492 0.45669
 H2239 H 0.35897 1.01275 0.46806
 H2240 H 0.36749 1.06910 0.55896
 H2241 H 0.40537 1.05104 0.56691
 H2242 H 0.38882 0.99337 0.47909
 H2243 H 0.42943 0.98124 0.48495
 H2244 H 0.43817 1.02687 0.55285
 C2245 C -0.16461 0.58959 1.03405
 C2246 C -0.15764 0.56846 1.02069
 C2247 C -0.17216 0.56044 0.99900
 C2248 C -0.19178 0.57388 0.99034
 C2249 C -0.19735 0.59532 1.00298
 C2250 C -0.18409 0.60285 1.02511
 C2251 C -0.16648 0.53963 0.98534
 C2252 C -0.14592 0.52711 0.99175
 C2253 C -0.12998 0.53507 1.01213
 C2254 C -0.13621 0.55575 1.02726
 C2255 C -0.12020 0.56368 1.04760
 C2256 C -0.09797 0.55310 1.05169
 C2257 C -0.09097 0.53395 1.03605
 C2258 C -0.10731 0.52390 1.01691
 C2259 C -0.09973 0.50365 1.00260
 C2260 C -0.07592 0.49597 1.00479
 C2261 C -0.05882 0.50800 1.02145
 C2262 C -0.06719 0.52562 1.03858
 H2263 H -0.15503 0.59683 1.05095
 H2264 H -0.20217 0.56821 0.97310
 H2265 H -0.18814 0.61963 1.03486
 H2266 H -0.17770 0.53329 0.96896
 H2267 H -0.14261 0.51169 0.97959
 H2268 H -0.12386 0.57866 1.06026
 H2269 H -0.08576 0.56054 1.06673
 H2270 H -0.11138 0.49381 0.98883
 H2271 H -0.07065 0.48133 0.99221
 H2272 H -0.05494 0.53389 1.05297
 C2273 C 0.03037 0.65437 0.57954
 C2274 C 0.02081 0.64943 0.55437
 C2275 C 0.00676 0.66730 0.54224
 C2276 C 0.00489 0.69046 0.55397
 C2277 C 0.01597 0.69557 0.57841
 C2278 C 0.02769 0.67676 0.59133
 C2279 C -0.00540 0.66168 0.51870
 C2280 C -0.00459 0.63846 0.50765
 C2281 C 0.00965 0.62037 0.51898
 C2282 C 0.02386 0.62674 0.54165
 C2283 C 0.04098 0.61038 0.55086
 C2284 C 0.04220 0.58736 0.54029
 C2285 C 0.02619 0.57961 0.52042
 C2286 C 0.01004 0.59599 0.50892
 C2287 C -0.00595 0.58669 0.48906
 C2288 C -0.00714 0.56177 0.48269
 C2289 C 0.00794 0.54541 0.49539
 C2290 C 0.02535 0.55503 0.51331
 H2291 H 0.03921 0.64087 0.59112
 H2292 H -0.00494 0.70442 0.54399
 H2293 H 0.03484 0.67912 0.61099
 H2294 H -0.01624 0.67511 0.50914
 H2295 H -0.01488 0.63530 0.48985
 H2296 H 0.05400 0.61507 0.56616
 H2297 H 0.05516 0.57514 0.54853
 H2298 H -0.01888 0.59788 0.47938
 H2299 H -0.02102 0.55511 0.46898
 H2300 H 0.03688 0.54295 0.52395
 C2301 C 0.53241 0.15581 0.08100
 C2302 C 0.52279 0.15105 0.05581
 C2303 C 0.50907 0.16918 0.04367
 C2304 C 0.50747 0.19232 0.05549
 C2305 C 0.51851 0.19721 0.07998
 C2306 C 0.53002 0.17823 0.09284
 C2307 C 0.49693 0.16384 0.02006
 C2308 C 0.49741 0.14064 0.00893
 C2309 C 0.51126 0.12226 0.02027
 C2310 C 0.52546 0.12831 0.04305
 C2311 C 0.54218 0.11157 0.05234
 C2312 C 0.54294 0.08851 0.04175
 C2313 C 0.52692 0.08113 0.02175
 C2314 C 0.51123 0.09789 0.01014
 C2315 C 0.49526 0.08897 -0.00993
 C2316 C 0.49365 0.06409 -0.01643
 C2317 C 0.50825 0.04737 -0.00362
 C2318 C 0.52561 0.05657 0.01459
 H2319 H 0.54105 0.14217 0.09256
 H2320 H 0.49786 0.20644 0.04551
 H2321 H 0.53718 0.18047 0.11252
 H2322 H 0.48636 0.17749 0.01051
 H2323 H 0.48715 0.13773 -0.00893
 H2324 H 0.55519 0.11596 0.06772
 H2325 H 0.55558 0.07599 0.05006
 H2326 H 0.48268 0.10046 -0.01973
 H2327 H 0.47982 0.05776 -0.03036
 H2328 H 0.53677 0.04420 0.02531
 C2329 C 0.02361 0.18706 0.96330
 C2330 C 0.00298 0.17034 0.96552
 C2331 C -0.01756 0.17444 0.94926
 C2332 C -0.01694 0.19404 0.93113
 C2333 C 0.00436 0.20918 0.92794
 C2334 C 0.02431 0.20590 0.94461
 C2335 C -0.03815 0.15822 0.95022
 C2336 C -0.03811 0.13697 0.96525
 C2337 C -0.01744 0.13116 0.98024
 C2338 C 0.00262 0.14894 0.98199
 C2339 C 0.02186 0.14432 0.99959
 C2340 C 0.02246 0.12227 1.01331
 C2341 C 0.00438 0.10362 1.00949
 C2342 C -0.01588 0.10791 0.99299
 C2343 C -0.03279 0.08812 0.98818
 C2344 C -0.02912 0.06496 0.99823
 C2345 C -0.00927 0.06045 1.01488
 C2346 C 0.00716 0.08031 1.02086
 H2347 H 0.04007 0.18526 0.97463
 H2348 H -0.03231 0.19633 0.91804
 H2349 H 0.04099 0.21742 0.94242
 H2350 H -0.05417 0.16152 0.93844
 H2351 H -0.05470 0.12536 0.96476
 H2352 H 0.03682 0.15751 1.00320
 H2353 H 0.03786 0.11940 1.02617
 H2354 H -0.04809 0.08940 0.97500
 H2355 H -0.04146 0.05024 0.99153
 H2356 H 0.02313 0.07727 1.03280
 C2357 C 0.52152 0.68834 0.46473
 C2358 C 0.50134 0.67110 0.46721
 C2359 C 0.48072 0.67428 0.45076
 C2360 C 0.48087 0.69345 0.43214
 C2361 C 0.50178 0.70907 0.42869
 C2362 C 0.52176 0.70675 0.44558
 C2363 C 0.46056 0.65755 0.45202
 C2364 C 0.46118 0.63662 0.46748
 C2365 C 0.48205 0.63166 0.48258
 C2366 C 0.50158 0.65002 0.48410
 C2367 C 0.52092 0.64624 0.50185
 C2368 C 0.52216 0.62443 0.51592
 C2369 C 0.50467 0.60520 0.51228
 C2370 C 0.48433 0.60866 0.49561
 C2371 C 0.46813 0.58831 0.49083
 C2372 C 0.47255 0.56544 0.50111
 C2373 C 0.49240 0.56174 0.51805
 C2374 C 0.50815 0.58213 0.52395
 H2375 H 0.53799 0.68726 0.47621
 H2376 H 0.46549 0.69502 0.41890
 H2377 H 0.53814 0.71868 0.44318
 H2378 H 0.44445 0.66018 0.44013
 H2379 H 0.44490 0.62457 0.46723
 H2380 H 0.53548 0.65991 0.50530
 H2381 H 0.53761 0.62222 0.52889
 H2382 H 0.45291 0.58895 0.47746
 H2383 H 0.46079 0.55030 0.49434
 H2384 H 0.52416 0.57973 0.53605
 C2385 C 0.49480 0.81076 0.45267
 C2386 C 0.50355 0.83389 0.44279
 C2387 C 0.51252 0.83486 0.41661
 C2388 C 0.51307 0.81362 0.40143
 C2389 C 0.50477 0.79083 0.41162
 C2390 C 0.49542 0.78969 0.43730
 C2391 C 0.52112 0.85700 0.40558
 C2392 C 0.52070 0.87846 0.41968
 C2393 C 0.51158 0.87877 0.44566
 C2394 C 0.50355 0.85604 0.45774
 C2395 C 0.49600 0.85631 0.48432
 C2396 C 0.49574 0.87799 0.49840
 C2397 C 0.50249 0.90041 0.48655
 C2398 C 0.51032 0.90108 0.45995
 C2399 C 0.51576 0.92423 0.44840
 C2400 C 0.51354 0.94559 0.46252
 C2401 C 0.50640 0.94513 0.48906
 C2402 C 0.50083 0.92223 0.50091
 H2403 H 0.48730 0.80830 0.47216
 H2404 H 0.51988 0.81493 0.38142
 H2405 H 0.48905 0.77235 0.44585
 H2406 H 0.52829 0.85780 0.38568
 H2407 H 0.52812 0.89455 0.40962
 H2408 H 0.49036 0.83991 0.49497
 H2409 H 0.48978 0.87721 0.51872
 H2410 H 0.52080 0.92670 0.42807
 H2411 H 0.51666 0.96260 0.45190
 H2412 H 0.49436 0.92136 0.52105
 C2413 C -0.00261 0.31156 0.95184
 C2414 C 0.00481 0.33484 0.94133
 C2415 C 0.01260 0.33584 0.91472
 C2416 C 0.01356 0.31446 0.89981
 C2417 C 0.00658 0.29155 0.91062
 C2418 C -0.00177 0.29038 0.93668
 C2419 C 0.01958 0.35818 0.90300
 C2420 C 0.01863 0.37976 0.91685
 C2421 C 0.01078 0.37997 0.94330
 C2422 C 0.00459 0.35710 0.95607
 C2423 C -0.00124 0.35734 0.98314
 C2424 C -0.00146 0.37911 0.99710
 C2425 C 0.00345 0.40162 0.98463
 C2426 C 0.00924 0.40233 0.95746
 C2427 C 0.01247 0.42549 0.94530
 C2428 C 0.01058 0.44685 0.95951
 C2429 C 0.00598 0.44640 0.98668
 C2430 C 0.00213 0.42347 0.99903
 H2431 H -0.00931 0.30910 0.97166
 H2432 H 0.01959 0.31572 0.87951
 H2433 H -0.00717 0.27295 0.94565
 H2434 H 0.02582 0.35903 0.88277
 H2435 H 0.02481 0.39604 0.90630
 H2436 H -0.00533 0.34085 0.99428
 H2437 H -0.00590 0.37830 1.01786
 H2438 H 0.01554 0.42786 0.92452
 H2439 H 0.01225 0.46387 0.94865
 H2440 H -0.00260 0.42253 1.01970
 C2441 C 0.51357 0.30819 0.02722
 C2442 C 0.50106 0.32798 0.03755
 C2443 C 0.48858 0.32414 0.06191
 C2444 C 0.48937 0.30183 0.07545
 C2445 C 0.50354 0.28334 0.06605
 C2446 C 0.51513 0.28637 0.04158
 C2447 C 0.47662 0.34308 0.07355
 C2448 C 0.47866 0.36641 0.06293
 C2449 C 0.49241 0.37161 0.03984
 C2450 C 0.50185 0.35185 0.02566
 C2451 C 0.51202 0.35690 0.00047
 C2452 C 0.51371 0.38066 -0.00989
 C2453 C 0.50679 0.40047 0.00505
 C2454 C 0.49685 0.39603 0.03051
 C2455 C 0.49293 0.41626 0.04645
 C2456 C 0.49734 0.43986 0.03710
 C2457 C 0.50498 0.44470 0.01102
 C2458 C 0.51004 0.42468 -0.00489
 H2459 H 0.52381 0.30970 0.00907
 H2460 H 0.48088 0.29968 0.09470
 H2461 H 0.52667 0.27244 0.03433
 H2462 H 0.46645 0.34008 0.09173
 H2463 H 0.46893 0.38013 0.07308
 H2464 H 0.51830 0.34265 -0.01192
 H2465 H 0.52131 0.38364 -0.02941
 H2466 H 0.48729 0.41441 0.06672
 H2467 H 0.49367 0.45438 0.05054
 H2468 H 0.51670 0.42790 -0.02475
 C2469 C 0.00942 0.80698 0.52618
 C2470 C -0.00254 0.82687 0.53709
 C2471 C -0.01440 0.82300 0.56178
 C2472 C -0.01353 0.80058 0.57508
 C2473 C 0.00014 0.78195 0.56507
 C2474 C 0.01108 0.78502 0.54027
 C2475 C -0.02579 0.84202 0.57397
 C2476 C -0.02378 0.86541 0.56351
 C2477 C -0.01063 0.87062 0.54003
 C2478 C -0.00176 0.85084 0.52541
 C2479 C 0.00782 0.85593 0.49999
 C2480 C 0.00952 0.87973 0.48978
 C2481 C 0.00315 0.89953 0.50504
 C2482 C -0.00624 0.89508 0.53073
 C2483 C -0.00971 0.91531 0.54684
 C2484 C -0.00537 0.93893 0.53747
 C2485 C 0.00181 0.94377 0.51126
 C2486 C 0.00638 0.92375 0.49515
 H2487 H 0.01918 0.80849 0.50774
 H2488 H -0.02151 0.79840 0.59457
 H2489 H 0.02225 0.77100 0.53253
 H2490 H -0.03549 0.83901 0.59244
 H2491 H -0.03306 0.87917 0.57409
 H2492 H 0.01365 0.84169 0.48730
 H2493 H 0.01668 0.88274 0.47008
 H2494 H -0.01495 0.91345 0.56722
 H2495 H -0.00867 0.95348 0.55101
 H2496 H 0.01262 0.92697 0.47514
 C2497 C 0.23262 0.30766 0.03330
 C2498 C 0.21723 0.30759 0.05574
 C2499 C 0.20447 0.32887 0.06093
 C2500 C 0.21046 0.35053 0.04685
 C2501 C 0.22887 0.35095 0.02766
 C2502 C 0.23868 0.32926 0.01978
 C2503 C 0.18759 0.32895 0.08162
 C2504 C 0.18526 0.30939 0.09919
 C2505 C 0.20070 0.28969 0.09726
 C2506 C 0.21633 0.28836 0.07471
 C2507 C 0.23312 0.26971 0.07371
 C2508 C 0.23762 0.25584 0.09576
 C2509 C 0.22421 0.25880 0.11869
 C2510 C 0.20367 0.27331 0.11878
 C2511 C 0.18839 0.27202 0.14135
 C2512 C 0.19594 0.26020 0.16426
 C2513 C 0.21978 0.25190 0.16586
 C2514 C 0.23251 0.24898 0.14209
 H2515 H 0.24122 0.29165 0.02651
 H2516 H 0.20248 0.36743 0.05238
 H2517 H 0.25233 0.32936 0.00425
 H2518 H 0.17715 0.34485 0.08516
 H2519 H 0.17304 0.31133 0.11567
 H2520 H 0.24504 0.26707 0.05720
 H2521 H 0.25259 0.24363 0.09528
 H2522 H 0.17086 0.28025 0.14180
 H2523 H 0.18391 0.25946 0.18121
 H2524 H 0.24994 0.24044 0.14169
 C2525 C 0.72757 0.80670 0.53992
 C2526 C 0.71297 0.80722 0.56293
 C2527 C 0.70157 0.82915 0.56881
 C2528 C 0.70808 0.85061 0.55462
 C2529 C 0.72572 0.85025 0.53466
 C2530 C 0.73420 0.82812 0.52630
 C2531 C 0.68556 0.82998 0.59021
 C2532 C 0.68288 0.81044 0.60776
 C2533 C 0.69707 0.78988 0.60498
 C2534 C 0.71163 0.78783 0.58172
 C2535 C 0.72704 0.76807 0.57971
 C2536 C 0.73145 0.75363 0.60135
 C2537 C 0.71929 0.75722 0.62494
 C2538 C 0.69990 0.77315 0.62620
 C2539 C 0.68562 0.77264 0.64949
 C2540 C 0.69335 0.76016 0.67189
 C2541 C 0.71650 0.75023 0.67225
 C2542 C 0.72781 0.74655 0.64779
 H2543 H 0.73518 0.79032 0.53271
 H2544 H 0.70116 0.86788 0.56056
 H2545 H 0.74727 0.82767 0.51025
 H2546 H 0.67614 0.84642 0.59430
 H2547 H 0.67147 0.81293 0.62477
 H2548 H 0.73798 0.76479 0.56260
 H2549 H 0.74544 0.74040 0.59998
 H2550 H 0.66865 0.78182 0.65081
 H2551 H 0.68160 0.75920 0.68899
 H2552 H 0.74448 0.73679 0.64636
 C2553 C 0.23743 0.67902 0.56442
 C2554 C 0.26021 0.69014 0.57245
 C2555 C 0.28186 0.67833 0.56634
 C2556 C 0.28063 0.65703 0.55144
 C2557 C 0.25788 0.64588 0.54391
 C2558 C 0.23636 0.65713 0.55064
 C2559 C 0.30458 0.68748 0.57570
 C2560 C 0.30599 0.70702 0.59293
 C2561 C 0.28476 0.71889 0.60019
 C2562 C 0.26202 0.71170 0.58777
 C2563 C 0.24169 0.72602 0.59152
 C2564 C 0.24235 0.74433 0.61001
 C2565 C 0.26304 0.74843 0.62572
 C2566 C 0.28497 0.73676 0.62040
 C2567 C 0.30535 0.74207 0.63708
 C2568 C 0.30249 0.75505 0.66041
 C2569 C 0.27937 0.76268 0.66756
 C2570 C 0.26092 0.76222 0.64830
 H2571 H 0.22007 0.68621 0.56963
 H2572 H 0.29767 0.64925 0.54584
 H2573 H 0.21852 0.64890 0.54567
 H2574 H 0.32128 0.67869 0.57075
 H2575 H 0.32397 0.71249 0.60025
 H2576 H 0.22488 0.72320 0.58057
 H2577 H 0.22587 0.75406 0.61339
 H2578 H 0.32308 0.73486 0.63375
 H2579 H 0.31790 0.75746 0.67360
 H2580 H 0.24336 0.76980 0.65228
 C2581 C 0.73730 0.18349 0.06727
 C2582 C 0.76045 0.19413 0.07479
 C2583 C 0.78163 0.18155 0.06873
 C2584 C 0.77960 0.15992 0.05439
 C2585 C 0.75647 0.14916 0.04753
 C2586 C 0.73540 0.16124 0.05416
 C2587 C 0.80468 0.19023 0.07765
 C2588 C 0.80685 0.21002 0.09449
 C2589 C 0.78609 0.22264 0.10174
 C2590 C 0.76307 0.21595 0.08964
 C2591 C 0.74327 0.23098 0.09327
 C2592 C 0.74467 0.24957 0.11145
 C2593 C 0.76553 0.25321 0.12699
 C2594 C 0.78700 0.24077 0.12170
 C2595 C 0.80759 0.24557 0.13825
 C2596 C 0.80520 0.25871 0.16156
 C2597 C 0.78236 0.26700 0.16877
 C2598 C 0.76397 0.26724 0.14949
 H2599 H 0.72025 0.19133 0.07248
 H2600 H 0.79632 0.15153 0.04880
 H2601 H 0.71729 0.15336 0.04970
 H2602 H 0.82104 0.18084 0.07271
 H2603 H 0.82502 0.21509 0.10155
 H2604 H 0.72632 0.22849 0.08251
 H2605 H 0.72855 0.25988 0.11479
 H2606 H 0.82504 0.23780 0.13489
 H2607 H 0.82068 0.26075 0.17471
 H2608 H 0.74669 0.27536 0.15350
 C2609 C 0.72719 0.17586 0.94681
 C2610 C 0.72381 0.16569 0.92151
 C2611 C 0.72787 0.14050 0.91853
 C2612 C 0.73605 0.12665 0.93960
 C2613 C 0.74021 0.13729 0.96403
 C2614 C 0.73511 0.16171 0.96777
 C2615 C 0.72411 0.12925 0.89439
 C2616 C 0.71888 0.14290 0.87239
 C2617 C 0.71764 0.16847 0.87372
 C2618 C 0.71787 0.17976 0.89884
 C2619 C 0.71309 0.20478 0.90010
 C2620 C 0.71072 0.21875 0.87733
 C2621 C 0.71410 0.20858 0.85261
 C2622 C 0.71740 0.18321 0.85062
 C2623 C 0.72333 0.17394 0.82591
 C2624 C 0.72749 0.18935 0.80459
 C2625 C 0.72400 0.21450 0.80599
 C2626 C 0.71630 0.22382 0.83015
 H2627 H 0.72452 0.19477 0.95085
 H2628 H 0.73930 0.10749 0.93701
 H2629 H 0.73789 0.17003 0.98683
 H2630 H 0.72599 0.10980 0.89230
 H2631 H 0.71605 0.13292 0.85441
 H2632 H 0.71137 0.21415 0.91847
 H2633 H 0.70780 0.23804 0.87918
 H2634 H 0.72763 0.15522 0.82296
 H2635 H 0.73563 0.18130 0.78769
 H2636 H 0.71448 0.24328 0.83217
 C2637 C 0.22911 0.67537 0.44379
 C2638 C 0.22461 0.66546 0.41856
 C2639 C 0.22835 0.64026 0.41505
 C2640 C 0.23732 0.62617 0.43552
 C2641 C 0.24250 0.63655 0.45986
 C2642 C 0.23774 0.66096 0.46418
 C2643 C 0.22344 0.62924 0.39100
 C2644 C 0.21736 0.64312 0.36947
 C2645 C 0.21643 0.66870 0.37117
 C2646 C 0.21782 0.67976 0.39638
 C2647 C 0.21332 0.70482 0.39817
 C2648 C 0.21019 0.71903 0.37570
 C2649 C 0.21254 0.70904 0.35073
 C2650 C 0.21546 0.68365 0.34829
 C2651 C 0.22043 0.67453 0.32326
 C2652 C 0.22420 0.69012 0.30203
 C2653 C 0.22110 0.71532 0.30386
 C2654 C 0.21419 0.72448 0.32838
 H2655 H 0.22672 0.69426 0.44820
 H2656 H 0.24031 0.60700 0.43255
 H2657 H 0.24126 0.66904 0.48323
 H2658 H 0.22507 0.60978 0.38858
 H2659 H 0.21365 0.63331 0.35153
 H2660 H 0.21243 0.71405 0.41671
 H2661 H 0.20756 0.73833 0.37791
 H2662 H 0.22443 0.65579 0.31992
 H2663 H 0.23193 0.68212 0.28490
 H2664 H 0.21271 0.74395 0.33073
 C2665 C 0.73048 0.86692 0.41540
 C2666 C 0.74860 0.85081 0.40757
 C2667 C 0.76731 0.84591 0.42576
 C2668 C 0.76848 0.85789 0.45002
 C2669 C 0.75080 0.87434 0.45703
 C2670 C 0.73159 0.87835 0.43979
 C2671 C 0.78467 0.82900 0.41973
 C2672 C 0.78372 0.81648 0.39609
 C2673 C 0.76573 0.82097 0.37707
 C2674 C 0.74849 0.83911 0.38258
 C2675 C 0.73198 0.84538 0.36274
 C2676 C 0.73141 0.83360 0.33885
 C2677 C 0.74697 0.81487 0.33381
 C2678 C 0.76444 0.80816 0.35260
 C2679 C 0.77946 0.78868 0.34609
 C2680 C 0.77676 0.77634 0.32210
 C2681 C 0.75920 0.78307 0.30382
 C2682 C 0.74475 0.80272 0.30992
 H2683 H 0.71490 0.87071 0.40340
 H2684 H 0.78297 0.85405 0.46374
 H2685 H 0.71754 0.89065 0.44503
 H2686 H 0.79901 0.82517 0.43362
 H2687 H 0.79773 0.80368 0.39303
 H2688 H 0.71950 0.85979 0.36481
 H2689 H 0.71831 0.83902 0.32424
 H2690 H 0.79304 0.78217 0.35934
 H2691 H 0.78826 0.76134 0.31802
 H2692 H 0.73130 0.80881 0.29611
 C2693 C 0.23331 0.36619 0.90900
 C2694 C 0.25116 0.34955 0.90184
 C2695 C 0.26959 0.34468 0.92036
 C2696 C 0.27083 0.35725 0.94427
 C2697 C 0.25344 0.37423 0.95059
 C2698 C 0.23446 0.37818 0.93306
 C2699 C 0.28655 0.32718 0.91502
 C2700 C 0.28547 0.31407 0.89174
 C2701 C 0.26780 0.31857 0.87238
 C2702 C 0.25101 0.33730 0.87718
 C2703 C 0.23494 0.34362 0.85695
 C2704 C 0.23425 0.33130 0.83341
 C2705 C 0.24928 0.31200 0.82910
 C2706 C 0.26637 0.30522 0.84825
 C2707 C 0.28089 0.28518 0.84240
 C2708 C 0.27807 0.27240 0.81866
 C2709 C 0.26087 0.27923 0.80003
 C2710 C 0.24691 0.29939 0.80554
 H2711 H 0.21788 0.36995 0.89677
 H2712 H 0.28511 0.35348 0.95826
 H2713 H 0.22061 0.39086 0.93783
 H2714 H 0.30066 0.32334 0.92917
 H2715 H 0.29912 0.30081 0.88920
 H2716 H 0.22293 0.35849 0.85845
 H2717 H 0.22149 0.33679 0.81848
 H2718 H 0.29417 0.27861 0.85597
 H2719 H 0.28919 0.25701 0.81504
 H2720 H 0.23378 0.30562 0.79146
 C2721 C 0.84629 0.41710 0.75138
 C2722 C 0.82943 0.40738 0.77048
 C2723 C 0.81989 0.42355 0.78896
 C2724 C 0.82915 0.44790 0.78993
 C2725 C 0.84685 0.45672 0.77174
 C2726 C 0.85473 0.44150 0.75201
 C2727 C 0.80141 0.41524 0.80641
 C2728 C 0.79187 0.39119 0.80563
 C2729 C 0.80151 0.37421 0.78827
 C2730 C 0.82157 0.38222 0.77156
 C2731 C 0.83380 0.36473 0.75715
 C2732 C 0.82579 0.34042 0.75771
 C2733 C 0.80480 0.33275 0.77184
 C2734 C 0.79210 0.34938 0.78716
 C2735 C 0.77006 0.34057 0.79974
 C2736 C 0.76066 0.31652 0.79609
 C2737 C 0.77324 0.30038 0.78044
 C2738 C 0.79592 0.30860 0.76953
 H2739 H 0.85296 0.40639 0.73549
 H2740 H 0.82272 0.46002 0.80487
 H2741 H 0.86814 0.44831 0.73760
 H2742 H 0.79397 0.42754 0.82055
 H2743 H 0.77755 0.38612 0.81961
 H2744 H 0.85021 0.36922 0.74585
 H2745 H 0.83571 0.32759 0.74624
 H2746 H 0.75900 0.35220 0.81127
 H2747 H 0.74310 0.31088 0.80481
 H2748 H 0.80590 0.29683 0.75692
 C2749 C 0.34344 0.91835 0.25045
 C2750 C 0.32658 0.90847 0.26947
 C2751 C 0.31721 0.92447 0.28824
 C2752 C 0.32663 0.94875 0.28955
 C2753 C 0.34433 0.95771 0.27142
 C2754 C 0.35204 0.94269 0.25142
 C2755 C 0.29873 0.91603 0.30564
 C2756 C 0.28905 0.89205 0.30455
 C2757 C 0.29855 0.87522 0.28691
 C2758 C 0.31858 0.88334 0.27021
 C2759 C 0.33067 0.86597 0.25548
 C2760 C 0.32258 0.84167 0.25579
 C2761 C 0.30165 0.83391 0.26997
 C2762 C 0.28906 0.85043 0.28554
 C2763 C 0.26706 0.84154 0.29816
 C2764 C 0.25764 0.81751 0.29436
 C2765 C 0.27015 0.80146 0.27853
 C2766 C 0.29276 0.80978 0.26752
 H2767 H 0.34999 0.90780 0.23436
 H2768 H 0.32031 0.96072 0.30470
 H2769 H 0.36544 0.94959 0.23705
 H2770 H 0.29141 0.92820 0.32000
 H2771 H 0.27476 0.88688 0.31851
 H2772 H 0.34703 0.87052 0.24413
 H2773 H 0.33241 0.82893 0.24411
 H2774 H 0.25607 0.85309 0.30986
 H2775 H 0.24012 0.81180 0.30315
 H2776 H 0.30272 0.79805 0.25485
 C2777 C 0.14249 0.90945 0.73943
 C2778 C 0.16826 0.91130 0.73679
 C2779 C 0.17974 0.93413 0.72960
 C2780 C 0.16614 0.95522 0.73004
 C2781 C 0.14107 0.95333 0.73663
 C2782 C 0.12914 0.93021 0.73924
 C2783 C 0.20478 0.93567 0.72328
 C2784 C 0.21854 0.91494 0.72422
 C2785 C 0.20806 0.89237 0.73353
 C2786 C 0.18287 0.89115 0.74141
 C2787 C 0.17329 0.87044 0.75525
 C2788 C 0.18743 0.85078 0.75981
 C2789 C 0.21109 0.85051 0.74949
 C2790 C 0.22177 0.87100 0.73583
 C2791 C 0.24506 0.86860 0.72399
 C2792 C 0.25610 0.84607 0.72417
 C2793 C 0.24478 0.82569 0.73711
 C2794 C 0.22326 0.82897 0.75128
 H2795 H 0.13228 0.89216 0.74194
 H2796 H 0.17535 0.97305 0.72713
 H2797 H 0.10952 0.92828 0.74280
 H2798 H 0.21375 0.95299 0.71744
 H2799 H 0.23773 0.91733 0.71902
 H2800 H 0.15510 0.86939 0.76377
 H2801 H 0.17933 0.83517 0.77052
 H2802 H 0.25416 0.88324 0.71279
 H2803 H 0.27285 0.84437 0.71302
 H2804 H 0.21382 0.81374 0.76082
 C2805 C 0.64495 0.41221 0.24334
 C2806 C 0.67075 0.41399 0.24084
 C2807 C 0.68232 0.43688 0.23399
 C2808 C 0.66877 0.45799 0.23447
 C2809 C 0.64366 0.45611 0.24083
 C2810 C 0.63167 0.43300 0.24325
 C2811 C 0.70740 0.43845 0.22791
 C2812 C 0.72112 0.41769 0.22868
 C2813 C 0.71051 0.39501 0.23750
 C2814 C 0.68527 0.39372 0.24517
 C2815 C 0.67553 0.37275 0.25846
 C2816 C 0.68954 0.35292 0.26256
 C2817 C 0.71327 0.35278 0.25241
 C2818 C 0.72415 0.37356 0.23942
 C2819 C 0.74756 0.37140 0.22780
 C2820 C 0.75857 0.34887 0.22754
 C2821 C 0.74704 0.32820 0.23974
 C2822 C 0.72534 0.33115 0.25370
 H2823 H 0.63467 0.39493 0.24563
 H2824 H 0.67802 0.47582 0.23173
 H2825 H 0.61202 0.43110 0.24665
 H2826 H 0.71645 0.45582 0.22237
 H2827 H 0.74034 0.42015 0.22367
 H2828 H 0.65729 0.37159 0.26684
 H2829 H 0.68130 0.33709 0.27280
 H2830 H 0.75685 0.38627 0.21713
 H2831 H 0.77549 0.34745 0.21661
 H2832 H 0.71578 0.31570 0.26270
 C2833 C 0.66866 0.57661 0.22342
 C2834 C 0.68190 0.58862 0.24380
 C2835 C 0.68518 0.57560 0.26755
 C2836 C 0.67297 0.55268 0.27166
 C2837 C 0.65793 0.54219 0.25207
 C2838 C 0.65678 0.55386 0.22762
 C2839 C 0.69988 0.58591 0.28735
 C2840 C 0.71084 0.60925 0.28441
 C2841 C 0.70657 0.62361 0.26192
 C2842 C 0.69136 0.61326 0.24158
 C2843 C 0.68471 0.62832 0.22048
 C2844 C 0.69240 0.65272 0.21937
 C2845 C 0.70773 0.66287 0.23863
 C2846 C 0.71588 0.64840 0.25964
 C2847 C 0.73266 0.65956 0.27762
 C2848 C 0.74019 0.68424 0.27518
 C2849 C 0.73105 0.69871 0.25501
 C2850 C 0.71458 0.68769 0.23705
 H2851 H 0.66693 0.58438 0.20407
 H2852 H 0.67451 0.54334 0.29037
 H2853 H 0.64561 0.54608 0.21195
 H2854 H 0.70273 0.57595 0.30544
 H2855 H 0.72154 0.61605 0.30080
 H2856 H 0.67241 0.62213 0.20512
 H2857 H 0.68623 0.66378 0.20320
 H2858 H 0.74060 0.64964 0.29352
 H2859 H 0.75299 0.69198 0.28945
 H2860 H 0.70626 0.69855 0.22208
 C2861 C 0.16751 0.07339 0.71975
 C2862 C 0.18065 0.08525 0.74028
 C2863 C 0.18362 0.07216 0.76403
 C2864 C 0.17112 0.04935 0.76800
 C2865 C 0.15608 0.03907 0.74827
 C2866 C 0.15534 0.05077 0.72381
 C2867 C 0.19828 0.08229 0.78396
 C2868 C 0.20950 0.10554 0.78114
 C2869 C 0.20551 0.11999 0.75865
 C2870 C 0.19033 0.10983 0.73820
 C2871 C 0.18388 0.12502 0.71713
 C2872 C 0.19178 0.14936 0.71613
 C2873 C 0.20715 0.15932 0.73546
 C2874 C 0.21507 0.14471 0.75647
 C2875 C 0.23191 0.15566 0.77453
 C2876 C 0.23978 0.18026 0.77212
 C2877 C 0.23091 0.19486 0.75191
 C2878 C 0.21430 0.18407 0.73395
 H2879 H 0.16607 0.08120 0.70037
 H2880 H 0.17241 0.03997 0.78672
 H2881 H 0.14427 0.04315 0.70802
 H2882 H 0.20090 0.07226 0.80206
 H2883 H 0.22016 0.11221 0.79762
 H2884 H 0.17157 0.11898 0.70171
 H2885 H 0.18578 0.16054 0.69997
 H2886 H 0.23967 0.14561 0.79045
 H2887 H 0.25267 0.18782 0.78640
 H2888 H 0.20613 0.19506 0.71899
 C2889 C 0.29429 0.06299 0.27577
 C2890 C 0.29270 0.07428 0.25084
 C2891 C 0.30678 0.06508 0.23000
 C2892 C 0.32290 0.04643 0.23460
 C2893 C 0.32651 0.03788 0.26009
 C2894 C 0.31116 0.04529 0.28028
 C2895 C 0.30609 0.07573 0.20512
 C2896 C 0.29407 0.09708 0.20116
 C2897 C 0.28201 0.10835 0.22202
 C2898 C 0.27933 0.09560 0.24648
 C2899 C 0.26445 0.10531 0.26613
 C2900 C 0.25472 0.12801 0.26303
 C2901 C 0.25990 0.14206 0.24058
 C2902 C 0.27334 0.13232 0.21959
 C2903 C 0.27911 0.14765 0.19778
 C2904 C 0.27271 0.17182 0.19742
 C2905 C 0.26005 0.18163 0.21853
 C2906 C 0.25270 0.16621 0.23953
 H2907 H 0.28414 0.06858 0.29265
 H2908 H 0.33421 0.04029 0.21881
 H2909 H 0.31318 0.03831 0.30007
 H2910 H 0.31610 0.06830 0.18887
 H2911 H 0.29480 0.10454 0.18152
 H2912 H 0.26011 0.09586 0.28431
 H2913 H 0.24400 0.13510 0.27893
 H2914 H 0.28971 0.14196 0.18126
 H2915 H 0.27829 0.18293 0.18059
 H2916 H 0.24271 0.17341 0.25592
 C2917 C 0.79524 0.56053 0.77625
 C2918 C 0.79364 0.57237 0.75161
 C2919 C 0.80797 0.56383 0.73060
 C2920 C 0.82438 0.54537 0.73482
 C2921 C 0.82798 0.53633 0.76010
 C2922 C 0.81237 0.54302 0.78040
 C2923 C 0.80723 0.57500 0.70598
 C2924 C 0.79496 0.59625 0.70251
 C2925 C 0.78271 0.60693 0.72362
 C2926 C 0.78008 0.59364 0.74776
 C2927 C 0.76506 0.60279 0.76764
 C2928 C 0.75519 0.62547 0.76512
 C2929 C 0.76032 0.64004 0.74304
 C2930 C 0.77384 0.63086 0.72179
 C2931 C 0.77946 0.64668 0.70034
 C2932 C 0.77284 0.67078 0.70057
 C2933 C 0.76015 0.68004 0.72196
 C2934 C 0.75297 0.66415 0.74262
 H2935 H 0.78489 0.56557 0.79321
 H2936 H 0.83594 0.53985 0.71896
 H2937 H 0.81444 0.53565 0.80002
 H2938 H 0.81742 0.56805 0.68959
 H2939 H 0.79568 0.60414 0.68307
 H2940 H 0.76077 0.59291 0.78557
 H2941 H 0.74440 0.63213 0.78120
 H2942 H 0.79006 0.64142 0.68363
 H2943 H 0.77823 0.68226 0.68396
 H2944 H 0.74294 0.67091 0.75921
 C2945 C 0.92692 0.79338 0.18708
 C2946 C 0.91257 0.77386 0.19819
 C2947 C 0.92184 0.75029 0.19720
 C2948 C 0.94289 0.74612 0.18187
 C2949 C 0.95589 0.76557 0.16878
 C2950 C 0.94828 0.78934 0.17323
 C2951 C 0.90981 0.73117 0.21129
 C2952 C 0.88867 0.73502 0.22595
 C2953 C 0.87774 0.75779 0.22545
 C2954 C 0.88937 0.77714 0.21028
 C2955 C 0.87665 0.79853 0.20597
 C2956 C 0.85294 0.80055 0.21539
 C2957 C 0.84165 0.78210 0.23087
 C2958 C 0.85456 0.76132 0.23774
 C2959 C 0.84328 0.74463 0.25591
 C2960 C 0.81905 0.74707 0.26430
 C2961 C 0.80494 0.76566 0.25409
 C2962 C 0.81693 0.78360 0.23808
 H2963 H 0.92242 0.81214 0.18954
 H2964 H 0.94873 0.72770 0.18002
 H2965 H 0.95869 0.80536 0.16615
 H2966 H 0.91686 0.71310 0.21111
 H2967 H 0.88024 0.71937 0.23610
 H2968 H 0.88385 0.81326 0.19354
 H2969 H 0.84325 0.81664 0.21025
 H2970 H 0.85273 0.72936 0.26362
 H2971 H 0.81079 0.73300 0.27703
 H2972 H 0.80666 0.79776 0.22917
 C2973 C 0.43039 0.28836 0.68888
 C2974 C 0.41506 0.26841 0.69729
 C2975 C 0.42362 0.24468 0.69425
 C2976 C 0.44492 0.24115 0.67899
 C2977 C 0.45871 0.26132 0.66825
 C2978 C 0.45197 0.28484 0.67530
 C2979 C 0.41060 0.22490 0.70625
 C2980 C 0.38927 0.22834 0.72082
 C2981 C 0.37909 0.25146 0.72205
 C2982 C 0.39162 0.27146 0.70880
 C2983 C 0.37957 0.29340 0.70562
 C2984 C 0.35567 0.29544 0.71445
 C2985 C 0.34360 0.27641 0.72846
 C2986 C 0.35583 0.25491 0.73417
 C2987 C 0.34390 0.23760 0.75117
 C2988 C 0.31977 0.24041 0.75967
 C2989 C 0.30627 0.25992 0.75047
 C2990 C 0.31885 0.27819 0.73540
 H2991 H 0.42642 0.30695 0.69330
 H2992 H 0.45033 0.22282 0.67519
 H2993 H 0.46325 0.30101 0.67030
 H2994 H 0.41705 0.20665 0.70455
 H2995 H 0.38006 0.21227 0.72942
 H2996 H 0.38750 0.30866 0.69441
 H2997 H 0.34652 0.31206 0.71019
 H2998 H 0.35284 0.22165 0.75797
 H2999 H 0.31105 0.22599 0.77161
 H3000 H 0.30909 0.29295 0.72704
 C3001 C 0.42624 0.72523 0.80909
 C3002 C 0.41804 0.74487 0.79374
 C3003 C 0.43271 0.76701 0.79368
 C3004 C 0.45313 0.76994 0.81042
 C3005 C 0.45983 0.75083 0.82689
 C3006 C 0.44685 0.72824 0.82531
 C3007 C 0.42650 0.78637 0.77753
 C3008 C 0.40548 0.78468 0.76210
 C3009 C 0.38922 0.76376 0.76291
 C3010 C 0.39554 0.74359 0.77916
 C3011 C 0.37843 0.72343 0.78160
 C3012 C 0.35547 0.72352 0.76990
 C3013 C 0.34892 0.74322 0.75447
 C3014 C 0.36608 0.76298 0.74946
 C3015 C 0.35884 0.78150 0.73199
 C3016 C 0.33483 0.78145 0.72214
 C3017 C 0.31713 0.76305 0.72934
 C3018 C 0.32478 0.74371 0.74513
 H3019 H 0.41704 0.70735 0.80917
 H3020 H 0.46355 0.78733 0.81111
 H3021 H 0.45197 0.71314 0.83758
 H3022 H 0.43785 0.80322 0.77711
 H3023 H 0.40179 0.80068 0.75071
 H3024 H 0.38166 0.70777 0.79371
 H3025 H 0.34251 0.70813 0.77339
 H3026 H 0.37120 0.79650 0.72590
 H3027 H 0.32984 0.79663 0.70993
 H3028 H 0.31157 0.72943 0.75155
 C3029 C 0.93332 0.22839 0.30317
 C3030 C 0.92250 0.24914 0.29248
 C3031 C 0.93481 0.27217 0.29647
 C3032 C 0.95504 0.27448 0.31352
 C3033 C 0.96473 0.25388 0.32546
 C3034 C 0.95434 0.23074 0.31890
 C3035 C 0.92661 0.29284 0.28379
 C3036 C 0.90600 0.29127 0.26772
 C3037 C 0.89183 0.26914 0.26502
 C3038 C 0.89978 0.24791 0.27836
 C3039 C 0.88391 0.22671 0.27881
 C3040 C 0.86062 0.22665 0.26774
 C3041 C 0.85283 0.24713 0.25436
 C3042 C 0.86895 0.26800 0.25118
 C3043 C 0.86106 0.28714 0.23501
 C3044 C 0.83721 0.28650 0.22473
 C3045 C 0.82020 0.26706 0.23063
 C3046 C 0.82856 0.24725 0.24524
 H3047 H 0.92599 0.21009 0.29948
 H3048 H 0.96360 0.29246 0.31697
 H3049 H 0.96128 0.21435 0.32741
 H3050 H 0.93618 0.31049 0.28640
 H3051 H 0.90059 0.30813 0.25904
 H3052 H 0.88834 0.21039 0.28928
 H3053 H 0.84847 0.21043 0.26987
 H3054 H 0.87294 0.30290 0.23010
 H3055 H 0.83174 0.30205 0.21340
 H3056 H 0.81586 0.23226 0.25087
 C3057 C 0.07052 0.22623 0.29883
 C3058 C 0.08774 0.24567 0.29252
 C3059 C 0.08414 0.26859 0.30413
 C3060 C 0.06410 0.27175 0.32097
 C3061 C 0.04759 0.25213 0.32791
 C3062 C 0.05097 0.22945 0.31623
 C3063 C 0.10075 0.28833 0.29920
 C3064 C 0.12175 0.28554 0.28431
 C3065 C 0.12678 0.26286 0.27324
 C3066 C 0.10873 0.24308 0.27582
 C3067 C 0.11239 0.22155 0.26160
 C3068 C 0.13350 0.21908 0.24644
 C3069 C 0.15233 0.23743 0.24580
 C3070 C 0.14931 0.25937 0.25964
 C3071 C 0.16961 0.27637 0.26088
 C3072 C 0.19187 0.27173 0.24904
 C3073 C 0.19476 0.25069 0.23402
 C3074 C 0.17458 0.23359 0.23244
 H3075 H 0.07215 0.20808 0.29133
 H3076 H 0.06160 0.28975 0.32868
 H3077 H 0.03888 0.21379 0.32081
 H3078 H 0.09782 0.30608 0.30749
 H3079 H 0.13355 0.30174 0.28130
 H3080 H 0.09896 0.20639 0.26147
 H3081 H 0.13548 0.20223 0.23588
 H3082 H 0.16947 0.29267 0.27252
 H3083 H 0.20720 0.28444 0.25297
 H3084 H 0.17660 0.21664 0.22210
 C3085 C 0.56305 0.73525 0.79306
 C3086 C 0.58657 0.74611 0.79888
 C3087 C 0.58862 0.76061 0.82177
 C3088 C 0.56836 0.76322 0.83837
 C3089 C 0.54510 0.75254 0.83239
 C3090 C 0.54273 0.73858 0.80944
 C3091 C 0.61096 0.77251 0.82822
 C3092 C 0.63133 0.77093 0.81218
 C3093 C 0.63041 0.75684 0.78909
 C3094 C 0.60804 0.74333 0.78289
 C3095 C 0.60823 0.72710 0.76147
 C3096 C 0.62960 0.72403 0.74685
 C3097 C 0.65136 0.73776 0.75219
 C3098 C 0.65158 0.75508 0.77271
 C3099 C 0.67310 0.77006 0.77614
 C3100 C 0.69418 0.76642 0.76176
 C3101 C 0.69491 0.74811 0.74261
 C3102 C 0.67303 0.73410 0.73756
 H3103 H 0.55966 0.72459 0.77563
 H3104 H 0.57099 0.77357 0.85624
 H3105 H 0.52508 0.73045 0.80368
 H3106 H 0.61271 0.78339 0.84587
 H3107 H 0.64792 0.78030 0.81908
 H3108 H 0.59227 0.71578 0.75613
 H3109 H 0.62904 0.71083 0.73113
 H3110 H 0.67430 0.78497 0.78979
 H3111 H 0.71024 0.77805 0.76629
 H3112 H 0.67299 0.72002 0.72277
 C3113 C 0.57550 0.21324 0.67698
 C3114 C 0.58411 0.22768 0.69834
 C3115 C 0.56760 0.24341 0.71008
 C3116 C 0.54511 0.24756 0.69784
 C3117 C 0.53858 0.23562 0.67444
 C3118 C 0.55307 0.21737 0.66511
 C3119 C 0.57445 0.25619 0.73276
 C3120 C 0.59791 0.25471 0.74324
 C3121 C 0.61589 0.24151 0.73044
 C3122 C 0.60890 0.22813 0.70734
 C3123 C 0.62732 0.21753 0.69248
 C3124 C 0.65181 0.22064 0.69931
 C3125 C 0.65882 0.23317 0.72200
 C3126 C 0.64101 0.24257 0.73879
 C3127 C 0.64932 0.25281 0.76291
 C3128 C 0.67438 0.25388 0.76960
 C3129 C 0.69195 0.24564 0.75209
 C3130 C 0.68375 0.23614 0.72789
 H3131 H 0.58610 0.19926 0.66847
 H3132 H 0.53371 0.26162 0.70515
 H3133 H 0.54811 0.20784 0.64718
 H3134 H 0.56174 0.26792 0.74214
 H3135 H 0.60205 0.26559 0.76037
 H3136 H 0.62358 0.20807 0.67435
 H3137 H 0.66546 0.21306 0.68667
 H3138 H 0.63678 0.25940 0.77729
 H3139 H 0.67996 0.26127 0.78844
 H3140 H 0.69678 0.22956 0.71387
 C3141 C 0.07237 0.71368 0.17539
 C3142 C 0.08085 0.72797 0.19689
 C3143 C 0.06410 0.74319 0.20904
 C3144 C 0.04140 0.74706 0.19705
 C3145 C 0.03498 0.73539 0.17346
 C3146 C 0.04980 0.71757 0.16373
 C3147 C 0.07090 0.75577 0.23186
 C3148 C 0.09450 0.75459 0.24211
 C3149 C 0.11265 0.74193 0.22892
 C3150 C 0.10573 0.72879 0.20564
 C3151 C 0.12426 0.71881 0.19039
 C3152 C 0.14877 0.72222 0.19708
 C3153 C 0.15572 0.73442 0.21997
 C3154 C 0.13785 0.74326 0.23708
 C3155 C 0.14615 0.75321 0.26135
 C3156 C 0.17125 0.75445 0.26792
 C3157 C 0.18886 0.74671 0.25014
 C3158 C 0.18067 0.73759 0.22578
 H3159 H 0.08319 0.70004 0.16656
 H3160 H 0.02980 0.76083 0.20465
 H3161 H 0.04498 0.70827 0.14563
 H3162 H 0.05803 0.76711 0.24157
 H3163 H 0.09857 0.76527 0.25939
 H3164 H 0.12056 0.70963 0.17209
 H3165 H 0.16246 0.71508 0.18417
 H3166 H 0.13358 0.75938 0.27594
 H3167 H 0.17683 0.76153 0.28688
 H3168 H 0.19372 0.73136 0.21158
   
