data_POSCAR
  _audit_creation_date              2014-09-24
  _audit_creation_method            'ToBaCCo'
  _symmetry_space_group_name_H-M    'P1'
  _symmetry_Int_Tables_number       1
  _symmetry_cell_setting            triclinic
  loop_
  _symmetry_equiv_pos_as_xyz
 x,y,z
_cell_length_a 57.0344
_cell_length_b 56.5260
_cell_length_c 52.9199
_cell_angle_alpha 89.911100
_cell_angle_beta 90.593700
_cell_angle_gamma 89.081600
loop_
  _atom_site_label
  _atom_site_type_symbol
  _atom_site_fract_x
  _atom_site_fract_y
  _atom_site_fract_z
N1 N 0.37812 0.31095 0.32720
 N2 N 0.37964 0.32773 0.31012
 C3 C 0.39688 0.32198 0.29390
 C4 C 0.40638 0.30032 0.30118
 C5 C 0.39406 0.29385 0.32228
 H6 H 0.40075 0.33167 0.27685
 H7 H 0.39550 0.27714 0.33220
 Cu8 Cu 0.35649 0.35330 0.30780
 Cu9 Cu 0.35344 0.31045 0.35208
 Cu10 Cu 0.31011 0.35364 0.34723
 N11 N 0.33074 0.37608 0.30431
 N12 N 0.31340 0.37704 0.32048
 C13 C 0.29800 0.39407 0.31313
 C14 C 0.30596 0.40398 0.29097
 C15 C 0.32661 0.39200 0.28576
 H16 H 0.28135 0.39770 0.32205
 H17 H 0.33734 0.39415 0.26920
 N18 N 0.30994 0.32839 0.37307
 N19 N 0.32708 0.31259 0.37558
 C20 C 0.32137 0.29687 0.39356
 C21 C 0.29942 0.30284 0.40251
 C22 C 0.29262 0.32282 0.38908
 H23 H 0.33143 0.28106 0.39823
 H24 H 0.27578 0.33183 0.38999
 H25 H 0.32891 0.32746 0.32877
 H26 H 0.34535 0.34634 0.35167
 N27 N 0.38107 0.81746 -0.17992
 N28 N 0.37798 0.83396 -0.19720
 C29 C 0.39393 0.83075 -0.21553
 C30 C 0.40803 0.81153 -0.20907
 C31 C 0.39955 0.80363 -0.18615
 H32 H 0.39462 0.84093 -0.23282
 H33 H 0.40524 0.78809 -0.17570
 Cu34 Cu 0.35216 0.85675 -0.19496
 Cu35 Cu 0.35879 0.81304 -0.15282
 Cu36 Cu 0.31047 0.85094 -0.15098
 N37 N 0.32654 0.87963 -0.19215
 N38 N 0.30987 0.87690 -0.17546
 C39 C 0.29294 0.89340 -0.17956
 C40 C 0.29950 0.90722 -0.19993
 C41 C 0.32096 0.89810 -0.20724
 H42 H 0.27683 0.89465 -0.16904
 H43 H 0.33098 0.90367 -0.22339
 N44 N 0.31456 0.82347 -0.12799
 N45 N 0.33265 0.80866 -0.12939
 C46 C 0.32912 0.79019 -0.11389
 C47 C 0.30799 0.79359 -0.10196
 C48 C 0.29918 0.81490 -0.11119
 H49 H 0.34057 0.77482 -0.11206
 H50 H 0.28207 0.82256 -0.10750
 H51 H 0.33018 0.82723 -0.17227
 H52 H 0.34638 0.84723 -0.15045
 N53 N 0.87823 0.30778 -0.16720
 N54 N 0.88149 0.32616 -0.18194
 C55 C 0.89842 0.32082 -0.19869
 C56 C 0.90592 0.29775 -0.19428
 C57 C 0.89274 0.29004 -0.17422
 H58 H 0.90364 0.33221 -0.21401
 H59 H 0.89289 0.27245 -0.16612
 Cu60 Cu 0.86100 0.35393 -0.18007
 Cu61 Cu 0.85449 0.30777 -0.14096
 Cu62 Cu 0.80944 0.34866 -0.15044
 N63 N 0.83569 0.37699 -0.18491
 N64 N 0.81558 0.37471 -0.17331
 C65 C 0.80064 0.39191 -0.18112
 C66 C 0.81191 0.40556 -0.19892
 C67 C 0.83418 0.39566 -0.20073
 H68 H 0.78262 0.39350 -0.17517
 H69 H 0.84785 0.40098 -0.21347
 N70 N 0.80681 0.32126 -0.12771
 N71 N 0.82440 0.30636 -0.12310
 C72 C 0.81728 0.28971 -0.10676
 C73 C 0.79403 0.29430 -0.10111
 C74 C 0.78793 0.31431 -0.11472
 H75 H 0.82776 0.27461 -0.10065
 H76 H 0.77087 0.32294 -0.11530
 H77 H 0.83305 0.32485 -0.16623
 H78 H 0.84352 0.34326 -0.13932
 N79 N 0.86955 0.80697 0.32641
 N80 N 0.87515 0.82513 0.31227
 C81 C 0.89340 0.81903 0.29758
 C82 C 0.89934 0.79566 0.30266
 C83 C 0.88379 0.78853 0.32090
 H84 H 0.90059 0.83014 0.28302
 H85 H 0.88229 0.77095 0.32876
 Cu86 Cu 0.85570 0.85351 0.31163
 Cu87 Cu 0.84270 0.80800 0.34891
 Cu88 Cu 0.81868 0.86400 0.35912
 N89 N 0.83130 0.87770 0.30887
 N90 N 0.81787 0.88307 0.32815
 C91 C 0.80307 0.90084 0.32138
 C92 C 0.80706 0.90631 0.29620
 C93 C 0.82504 0.89123 0.28891
 H94 H 0.78938 0.90791 0.33331
 H95 H 0.83274 0.88992 0.27035
 N96 N 0.81324 0.83687 0.38184
 N97 N 0.82165 0.81542 0.37729
 C98 C 0.81301 0.80028 0.39436
 C99 C 0.79827 0.81275 0.41038
 C100 C 0.79897 0.83592 0.40197
 H101 H 0.81670 0.78146 0.39461
 H102 H 0.78867 0.85069 0.40898
 H103 H 0.82326 0.83686 0.33502
 H104 H 0.84914 0.84259 0.35578
 N105 N 0.61980 0.68596 0.32531
 N106 N 0.62202 0.67133 0.30614
 C107 C 0.60737 0.67825 0.28738
 C108 C 0.59491 0.69787 0.29546
 C109 C 0.60308 0.70228 0.31968
 H110 H 0.60649 0.67027 0.26884
 H111 H 0.59861 0.71726 0.33149
 Cu112 Cu 0.64529 0.64600 0.30687
 Cu113 Cu 0.64118 0.68466 0.35444
 Cu114 Cu 0.69115 0.64967 0.34546
 N115 N 0.66813 0.62027 0.30910
 N116 N 0.68608 0.62168 0.32479
 C117 C 0.70107 0.60356 0.32047
 C118 C 0.69206 0.59020 0.30087
 C119 C 0.67116 0.60128 0.29413
 H120 H 0.71823 0.60167 0.32918
 H121 H 0.66010 0.59693 0.27814
 N122 N 0.68896 0.67434 0.37147
 N123 N 0.66988 0.68729 0.37545
 C124 C 0.67477 0.70387 0.39296
 C125 C 0.69807 0.70108 0.40013
 C126 C 0.70642 0.68222 0.38627
 H127 H 0.66285 0.71793 0.39855
 H128 H 0.72431 0.67561 0.38602
 H129 H 0.66745 0.67492 0.33057
 H130 H 0.65648 0.65076 0.35115
 N131 N 0.62013 0.18042 -0.17721
 N132 N 0.61893 0.16176 -0.19193
 C133 C 0.60296 0.16593 -0.21039
 C134 C 0.59322 0.18813 -0.20656
 C135 C 0.60446 0.19685 -0.18534
 H136 H 0.59934 0.15409 -0.22594
 H137 H 0.60266 0.21450 -0.17765
 Cu138 Cu 0.63968 0.13474 -0.18658
 Cu139 Cu 0.64467 0.18364 -0.15157
 Cu140 Cu 0.68367 0.13608 -0.14427
 N141 N 0.66562 0.11231 -0.18821
 N142 N 0.68325 0.11330 -0.17207
 C143 C 0.69970 0.09716 -0.17863
 C144 C 0.69186 0.08552 -0.20017
 C145 C 0.67010 0.09547 -0.20551
 H146 H 0.71625 0.09463 -0.16877
 H147 H 0.65890 0.09159 -0.22157
 N148 N 0.68521 0.16507 -0.12346
 N149 N 0.67071 0.18330 -0.12677
 C150 C 0.67788 0.20131 -0.11217
 C151 C 0.69760 0.19407 -0.09885
 C152 C 0.70182 0.17096 -0.10635
 H153 H 0.67001 0.21884 -0.11200
 H154 H 0.71677 0.15992 -0.10116
 H155 H 0.66874 0.16056 -0.16812
 H156 H 0.64917 0.14840 -0.14356
 N157 N 0.12310 0.68943 -0.18151
 N158 N 0.12635 0.67648 -0.20182
 C159 C 0.10988 0.68221 -0.21923
 C160 C 0.09536 0.69944 -0.20926
 C161 C 0.10417 0.70365 -0.18523
 H162 H 0.10930 0.67544 -0.23832
 H163 H 0.09865 0.71758 -0.17251
 Cu164 Cu 0.15317 0.65528 -0.20524
 Cu165 Cu 0.14666 0.69041 -0.15458
 Cu166 Cu 0.19034 0.64722 -0.15581
 N167 N 0.17494 0.62867 -0.20347
 N168 N 0.18881 0.62484 -0.18384
 C169 C 0.20314 0.60626 -0.18887
 C170 C 0.19798 0.59833 -0.21301
 C171 C 0.18009 0.61293 -0.22167
 H172 H 0.21757 0.60038 -0.17689
 H173 H 0.17235 0.61287 -0.24041
 N174 N 0.18887 0.67198 -0.12953
 N175 N 0.17234 0.68861 -0.12941
 C176 C 0.17828 0.70535 -0.11258
 C177 C 0.19941 0.69896 -0.10144
 C178 C 0.20564 0.67763 -0.11250
 H179 H 0.16892 0.72195 -0.11001
 H180 H 0.22219 0.66824 -0.11015
 H181 H 0.17565 0.67662 -0.17365
 H182 H 0.15499 0.65483 -0.15953
 N183 N 0.12147 0.19100 0.32732
 N184 N 0.12031 0.17329 0.31132
 C185 C 0.10347 0.17803 0.29397
 C186 C 0.09327 0.19963 0.29982
 C187 C 0.10503 0.20737 0.32112
 H188 H 0.09981 0.16726 0.27756
 H189 H 0.10315 0.22446 0.33008
 Cu190 Cu 0.14264 0.14721 0.31339
 Cu191 Cu 0.14708 0.19368 0.35158
 Cu192 Cu 0.18457 0.14459 0.35798
 N193 N 0.16894 0.12533 0.31056
 N194 N 0.18460 0.12303 0.32885
 C195 C 0.20021 0.10591 0.32247
 C196 C 0.19416 0.09761 0.29866
 C197 C 0.17446 0.11053 0.29159
 H198 H 0.21558 0.10098 0.33354
 H199 H 0.16509 0.10954 0.27374
 N200 N 0.18769 0.17392 0.37841
 N201 N 0.17401 0.19277 0.37497
 C202 C 0.18265 0.21097 0.38825
 C203 C 0.20242 0.20326 0.40106
 C204 C 0.20519 0.17963 0.39456
 H205 H 0.17569 0.22888 0.38786
 H206 H 0.21977 0.16805 0.39969
 H207 H 0.17141 0.17082 0.33484
 H208 H 0.15039 0.15825 0.35774
 N209 N 0.62220 0.31273 0.68104
 N210 N 0.62561 0.32783 0.69952
 C211 C 0.61010 0.32373 0.71796
 C212 C 0.59599 0.30537 0.71053
 C213 C 0.60409 0.29876 0.68695
 H214 H 0.60978 0.33259 0.73605
 H215 H 0.59862 0.28361 0.67605
 Cu216 Cu 0.65113 0.35020 0.69901
 Cu217 Cu 0.64455 0.30941 0.65359
 Cu218 Cu 0.68864 0.35086 0.64997
 N219 N 0.67508 0.37401 0.69581
 N220 N 0.68925 0.37490 0.67640
 C221 C 0.70505 0.39207 0.68043
 C222 C 0.70043 0.40227 0.70367
 C223 C 0.68139 0.39043 0.71279
 H224 H 0.71989 0.39549 0.66847
 H225 H 0.67368 0.39273 0.73122
 N226 N 0.68520 0.32483 0.62540
 N227 N 0.66881 0.30870 0.62732
 C228 C 0.67367 0.29088 0.61125
 C229 C 0.69385 0.29611 0.59840
 C230 C 0.70068 0.31782 0.60770
 H231 H 0.66426 0.27445 0.61025
 H232 H 0.71694 0.32660 0.60371
 H233 H 0.67376 0.32452 0.67110
 H234 H 0.65338 0.34507 0.65348
 N235 N 0.61848 0.81995 1.18041
 N236 N 0.62218 0.83728 1.19643
 C237 C 0.60829 0.83452 1.21663
 C238 C 0.59476 0.81480 1.21264
 C239 C 0.60161 0.80600 1.18944
 H240 H 0.60849 0.84563 1.23326
 H241 H 0.59603 0.78971 1.18070
 Cu242 Cu 0.64540 0.86119 1.18962
 Cu243 Cu 0.63800 0.81495 1.15083
 Cu244 Cu 0.68909 0.84764 1.15011
 N245 N 0.67372 0.87979 1.18894
 N246 N 0.69105 0.87388 1.17390
 C247 C 0.70963 0.88742 1.17925
 C248 C 0.70357 0.90276 1.19847
 C249 C 0.68060 0.89749 1.20421
 H250 H 0.72666 0.88556 1.17063
 H251 H 0.67033 0.90473 1.21952
 N252 N 0.68362 0.82051 1.12750
 N253 N 0.66455 0.80759 1.12841
 C254 C 0.66735 0.78864 1.11323
 C255 C 0.68892 0.79008 1.10179
 C256 C 0.69874 0.81049 1.11118
 H257 H 0.65496 0.77446 1.11127
 H258 H 0.71625 0.81665 1.10761
 H259 H 0.66584 0.82775 1.17093
 H260 H 0.65342 0.84791 1.14616
 N261 N 0.12183 0.31726 1.17668
 N262 N 0.12498 0.33403 1.19353
 C263 C 0.10976 0.33110 1.21250
 C264 C 0.09610 0.31179 1.20706
 C265 C 0.10414 0.30343 1.18410
 H266 H 0.10944 0.34141 1.22969
 H267 H 0.09888 0.28741 1.17459
 Cu268 Cu 0.15024 0.35660 1.19054
 Cu269 Cu 0.14306 0.31261 1.14834
 Cu270 Cu 0.19430 0.34482 1.15136
 N271 N 0.17590 0.37868 1.18667
 N272 N 0.19326 0.37360 1.17135
 C273 C 0.21058 0.38909 1.17502
 C274 C 0.20378 0.40483 1.19350
 C275 C 0.18159 0.39783 1.20051
 H276 H 0.22764 0.38789 1.16633
 H277 H 0.17149 0.40468 1.21613
 N278 N 0.18942 0.31895 1.12726
 N279 N 0.17041 0.30593 1.12673
 C280 C 0.17377 0.28790 1.11039
 C281 C 0.19562 0.29026 1.09969
 C282 C 0.20498 0.31012 1.11073
 H283 H 0.16149 0.27384 1.10699
 H284 H 0.22244 0.31676 1.10796
 H285 H 0.17021 0.32345 1.17019
 H286 H 0.15888 0.34580 1.14688
 N287 N 0.11640 0.81118 0.66783
 N288 N 0.11309 0.82876 0.68369
 C289 C 0.09646 0.82292 0.70032
 C290 C 0.08904 0.80039 0.69455
 C291 C 0.10205 0.79345 0.67389
 H292 H 0.09152 0.83349 0.71650
 H293 H 0.10193 0.77634 0.66475
 Cu294 Cu 0.13326 0.85590 0.68339
 Cu295 Cu 0.14027 0.81221 0.64172
 Cu296 Cu 0.18500 0.85177 0.65407
 N297 N 0.15813 0.87760 0.69098
 N298 N 0.17810 0.87656 0.67880
 C299 C 0.19274 0.89257 0.68879
 C300 C 0.18141 0.90379 0.70855
 C301 C 0.15958 0.89374 0.70957
 H302 H 0.21088 0.89452 0.68354
 H303 H 0.14621 0.89707 0.72353
 N304 N 0.18796 0.82545 0.62962
 N305 N 0.17053 0.81115 0.62413
 C306 C 0.17801 0.79479 0.60745
 C307 C 0.20135 0.79881 0.60247
 C308 C 0.20711 0.81827 0.61685
 H309 H 0.16769 0.78015 0.60073
 H310 H 0.22421 0.82617 0.61838
 H311 H 0.16180 0.82734 0.66802
 H312 H 0.15131 0.84735 0.64221
 N313 N 0.38397 0.68575 0.67694
 N314 N 0.38430 0.66809 0.69312
 C315 C 0.39944 0.67279 0.71204
 C316 C 0.40959 0.69425 0.70704
 C317 C 0.39944 0.70204 0.68461
 H318 H 0.40226 0.66182 0.72860
 H319 H 0.40188 0.71898 0.67556
 Cu320 Cu 0.36368 0.64164 0.68856
 Cu321 Cu 0.36130 0.68749 0.64914
 Cu322 Cu 0.32026 0.64229 0.64557
 N323 N 0.33792 0.62006 0.69101
 N324 N 0.32120 0.61958 0.67374
 C325 C 0.30517 0.60359 0.68072
 C326 C 0.31220 0.59404 0.70379
 C327 C 0.33287 0.60505 0.70982
 H328 H 0.28878 0.60057 0.67086
 H329 H 0.34295 0.60306 0.72715
 N330 N 0.31859 0.67125 0.62424
 N331 N 0.33367 0.68867 0.62646
 C332 C 0.32597 0.70725 0.61258
 C333 C 0.30539 0.70115 0.60061
 C334 C 0.30116 0.67820 0.60831
 H335 H 0.33418 0.72435 0.61201
 H336 H 0.28566 0.66808 0.60418
 H337 H 0.33608 0.66773 0.66741
 H338 H 0.35474 0.65203 0.64403
 N339 N 0.37840 0.18316 1.17670
 N340 N 0.37716 0.16894 1.19631
 C341 C 0.39167 0.17649 1.21468
 C342 C 0.40312 0.19609 1.20586
 C343 C 0.39438 0.19990 1.18165
 H344 H 0.39348 0.16856 1.23323
 H345 H 0.39815 0.21458 1.16928
 Cu346 Cu 0.35661 0.14202 1.19593
 Cu347 Cu 0.35697 0.18026 1.14776
 Cu348 Cu 0.30991 0.14268 1.15746
 N349 N 0.33172 0.11959 1.20024
 N350 N 0.31393 0.11907 1.18426
 C351 C 0.29871 0.10267 1.19201
 C352 C 0.30729 0.09279 1.21426
 C353 C 0.32814 0.10408 1.21907
 H354 H 0.28179 0.09955 1.18333
 H355 H 0.33928 0.10193 1.23561
 N356 N 0.30975 0.16768 1.13137
 N357 N 0.32788 0.18131 1.12694
 C358 C 0.32163 0.19754 1.10929
 C359 C 0.29841 0.19402 1.10256
 C360 C 0.29150 0.17504 1.11690
 H361 H 0.33253 0.21196 1.10331
 H362 H 0.27405 0.16789 1.11756
 H363 H 0.33163 0.16891 1.17201
 H364 H 0.34472 0.14587 1.15114
 N365 N 0.87686 0.68397 1.17714
 N366 N 0.87697 0.66819 1.19543
 C367 C 0.89309 0.67406 1.21295
 C368 C 0.90405 0.69425 1.20506
 C369 C 0.89338 0.70015 1.18222
 H370 H 0.89571 0.66518 1.23090
 H371 H 0.89586 0.71620 1.17149
 Cu372 Cu 0.85455 0.64286 1.19678
 Cu373 Cu 0.85198 0.68508 1.15138
 Cu374 Cu 0.81025 0.64118 1.15472
 N375 N 0.83067 0.61888 1.19825
 N376 N 0.81399 0.61759 1.18104
 C377 C 0.79878 0.60081 1.18775
 C378 C 0.80624 0.59134 1.21057
 C379 C 0.82644 0.60320 1.21674
 H380 H 0.78240 0.59738 1.17808
 H381 H 0.83641 0.60156 1.23417
 N382 N 0.80905 0.66647 1.12944
 N383 N 0.82500 0.68305 1.12760
 C384 C 0.81735 0.69934 1.11058
 C385 C 0.79548 0.69266 1.10180
 C386 C 0.79083 0.67189 1.11410
 H387 H 0.82589 0.71587 1.10669
 H388 H 0.77454 0.66238 1.11323
 H389 H 0.82735 0.66874 1.17346
 H390 H 0.84541 0.64968 1.15215
 N391 N 0.87717 0.18787 0.67753
 N392 N 0.87703 0.17335 0.69697
 C393 C 0.89385 0.17946 0.71354
 C394 C 0.90526 0.19874 0.70415
 C395 C 0.89437 0.20370 0.68114
 H396 H 0.89657 0.17158 0.73199
 H397 H 0.89714 0.21902 0.66933
 Cu398 Cu 0.85290 0.15023 0.70167
 Cu399 Cu 0.85172 0.18810 0.65232
 Cu400 Cu 0.81090 0.14353 0.65766
 N401 N 0.83275 0.12306 0.70159
 N402 N 0.81674 0.11998 0.68392
 C403 C 0.80376 0.10117 0.69002
 C404 C 0.81202 0.09226 0.71288
 C405 C 0.83032 0.10657 0.71967
 H406 H 0.78805 0.09591 0.68004
 H407 H 0.83999 0.10598 0.73734
 N408 N 0.80813 0.16895 0.63238
 N409 N 0.82418 0.18530 0.62939
 C410 C 0.81628 0.20104 0.61195
 C411 C 0.79413 0.19438 0.60405
 C412 C 0.78949 0.17413 0.61745
 H413 H 0.82500 0.21723 0.60701
 H414 H 0.77321 0.16459 0.61724
 H415 H 0.82639 0.17293 0.67426
 H416 H 0.84611 0.15233 0.65634
 N417 N 0.31166 0.37989 0.66914
 N418 N 0.33009 0.38381 0.68356
 C419 C 0.32683 0.40425 0.69611
 C420 C 0.30499 0.41337 0.68960
 C421 C 0.29579 0.39747 0.67240
 H422 H 0.33854 0.41099 0.71049
 H423 H 0.27853 0.39804 0.66373
 Cu424 Cu 0.35446 0.35978 0.68797
 Cu425 Cu 0.30900 0.35103 0.64930
 Cu426 Cu 0.36226 0.32153 0.64057
 N427 N 0.37663 0.33354 0.69090
 N428 N 0.38075 0.31919 0.67186
 C429 C 0.39698 0.30285 0.67906
 C430 C 0.40288 0.30711 0.70408
 C431 C 0.38959 0.32658 0.71098
 H432 H 0.40286 0.28817 0.66752
 H433 H 0.38903 0.33473 0.72945
 N434 N 0.33503 0.31802 0.61762
 N435 N 0.31438 0.32801 0.62202
 C436 C 0.29859 0.31970 0.60533
 C437 C 0.30986 0.30368 0.58967
 C438 C 0.33297 0.30324 0.59781
 H439 H 0.28018 0.32459 0.60496
 H440 H 0.34685 0.29176 0.59096
 H441 H 0.33538 0.32860 0.66397
 H442 H 0.34386 0.35398 0.64361
 N443 N 0.31357 0.87958 0.17436
 N444 N 0.33236 0.88072 0.18886
 C445 C 0.32827 0.89582 0.20797
 C446 C 0.30588 0.90502 0.20504
 C447 C 0.29697 0.89444 0.18346
 H448 H 0.34029 0.89902 0.22350
 H449 H 0.27929 0.89615 0.17600
 Cu450 Cu 0.35930 0.86038 0.18309
 Cu451 Cu 0.31166 0.85674 0.14669
 Cu452 Cu 0.35852 0.81659 0.14073
 N453 N 0.38139 0.83421 0.18525
 N454 N 0.38146 0.81707 0.16848
 C455 C 0.39738 0.80041 0.17564
 C456 C 0.40735 0.80748 0.19834
 C457 C 0.39678 0.82890 0.20385
 H458 H 0.40010 0.78367 0.16615
 H459 H 0.39913 0.83921 0.22088
 N460 N 0.32929 0.81481 0.12033
 N461 N 0.31120 0.82941 0.12341
 C462 C 0.29293 0.82154 0.10965
 C463 C 0.29992 0.80133 0.09705
 C464 C 0.32308 0.79755 0.10416
 H465 H 0.27551 0.82939 0.10952
 H466 H 0.33400 0.78243 0.09937
 H467 H 0.33385 0.83185 0.16376
 H468 H 0.34676 0.85122 0.13937
 N469 N 0.81542 0.37870 0.17635
 N470 N 0.83439 0.37817 0.19069
 C471 C 0.83123 0.39273 0.21052
 C472 C 0.80932 0.40327 0.20807
 C473 C 0.79977 0.39404 0.18617
 H474 H 0.84359 0.39490 0.22596
 H475 H 0.78217 0.39700 0.17893
 Cu476 Cu 0.86049 0.35711 0.18304
 Cu477 Cu 0.81127 0.35752 0.14775
 Cu478 Cu 0.85451 0.31448 0.13949
 N479 N 0.88163 0.32993 0.18213
 N480 N 0.87869 0.31304 0.16542
 C481 C 0.89353 0.29499 0.17071
 C482 C 0.90652 0.30091 0.19178
 C483 C 0.89861 0.32325 0.19861
 H484 H 0.89391 0.27825 0.16083
 H485 H 0.90352 0.33307 0.21532
 N486 N 0.82512 0.31523 0.12004
 N487 N 0.80826 0.33108 0.12369
 C488 C 0.78929 0.32490 0.10999
 C489 C 0.79463 0.30436 0.09704
 C490 C 0.81750 0.29874 0.10378
 H491 H 0.77249 0.33403 0.11027
 H492 H 0.82732 0.28298 0.09864
 H493 H 0.83194 0.33150 0.16384
 H494 H 0.84581 0.35037 0.13949
 N495 N 0.81433 0.88195 0.66848
 N496 N 0.83132 0.88221 0.68546
 C497 C 0.82529 0.89708 0.70420
 C498 C 0.80357 0.90693 0.69845
 C499 C 0.79712 0.89707 0.67555
 H500 H 0.83552 0.89984 0.72124
 H501 H 0.78050 0.89934 0.66572
 Cu502 Cu 0.85913 0.86210 0.68233
 Cu503 Cu 0.81465 0.85946 0.64065
 Cu504 Cu 0.85252 0.81146 0.65028
 N505 N 0.88231 0.83667 0.68479
 N506 N 0.87917 0.81659 0.67284
 C507 C 0.89638 0.80121 0.67953
 C508 C 0.91109 0.81224 0.69668
 C509 C 0.90171 0.83479 0.69947
 H510 H 0.89764 0.78314 0.67295
 H511 H 0.90769 0.84824 0.71242
 N512 N 0.82485 0.81049 0.62768
 N513 N 0.81149 0.82924 0.62265
 C514 C 0.79434 0.82305 0.60638
 C515 C 0.79701 0.79921 0.60114
 C516 C 0.81638 0.79180 0.61499
 H517 H 0.78020 0.83466 0.60008
 H518 H 0.82353 0.77398 0.61596
 H519 H 0.82949 0.83601 0.66588
 H520 H 0.84930 0.84611 0.64033
 N521 N 0.68960 0.62149 0.67872
 N522 N 0.67360 0.62305 0.69625
 C523 C 0.67803 0.60646 0.71407
 C524 C 0.69769 0.59369 0.70707
 C525 C 0.70468 0.60363 0.68450
 H526 H 0.66861 0.60475 0.73153
 H527 H 0.72064 0.59958 0.67442
 Cu528 Cu 0.64971 0.64786 0.69542
 Cu529 Cu 0.69224 0.64567 0.65254
 Cu530 Cu 0.64855 0.68938 0.64995
 N531 N 0.62601 0.67280 0.69468
 N532 N 0.62480 0.68847 0.67640
 C533 C 0.60800 0.70475 0.68181
 C534 C 0.59838 0.69877 0.70484
 C535 C 0.61016 0.67850 0.71243
 H536 H 0.60457 0.72077 0.67112
 H537 H 0.60844 0.66957 0.73033
 N538 N 0.67461 0.68741 0.62556
 N539 N 0.69181 0.67154 0.62747
 C540 C 0.70909 0.67751 0.61162
 C541 C 0.70233 0.69780 0.59883
 C542 C 0.68036 0.70359 0.60801
 H543 H 0.72596 0.66860 0.61049
 H544 H 0.67042 0.71962 0.60395
 H545 H 0.67517 0.67345 0.67122
 H546 H 0.65699 0.65396 0.65077
 N547 N 0.67880 0.11642 0.16876
 N548 N 0.66338 0.11971 0.18676
 C549 C 0.66981 0.10692 0.20716
 C550 C 0.69013 0.09459 0.20161
 C551 C 0.69542 0.10087 0.17699
 H552 H 0.66075 0.10716 0.22502
 H553 H 0.71091 0.09582 0.16654
 Cu554 Cu 0.63688 0.14125 0.18270
 Cu555 Cu 0.67697 0.13506 0.13749
 Cu556 Cu 0.64532 0.18770 0.14520
 N557 N 0.61584 0.16836 0.18324
 N558 N 0.61886 0.18657 0.16822
 C559 C 0.60339 0.20385 0.17432
 C560 C 0.59022 0.19595 0.19440
 C561 C 0.59862 0.17344 0.19958
 H562 H 0.60310 0.22143 0.16623
 H563 H 0.59365 0.16224 0.21517
 N564 N 0.66829 0.18270 0.11800
 N565 N 0.67941 0.16234 0.11425
 C566 C 0.69419 0.16478 0.09474
 C567 C 0.69260 0.18787 0.08618
 C568 C 0.67592 0.19868 0.10123
 H569 H 0.70645 0.15129 0.08846
 H570 H 0.67031 0.21704 0.10049
 H571 H 0.66766 0.16183 0.16063
 H572 H 0.64394 0.15226 0.13864
 N573 N 0.18357 0.62519 0.17257
 N574 N 0.16763 0.62728 0.19026
 C575 C 0.17324 0.61275 0.20959
 C576 C 0.19341 0.60034 0.20350
 C577 C 0.19959 0.60860 0.17982
 H578 H 0.16356 0.61155 0.22701
 H579 H 0.21515 0.60387 0.16933
 Cu580 Cu 0.14075 0.64842 0.18630
 Cu581 Cu 0.18272 0.64598 0.14276
 Cu582 Cu 0.14539 0.69530 0.14852
 N583 N 0.11828 0.67445 0.18778
 N584 N 0.11972 0.69251 0.17224
 C585 C 0.10325 0.70881 0.17821
 C586 C 0.09110 0.70062 0.19884
 C587 C 0.10117 0.67884 0.20454
 H588 H 0.10154 0.72611 0.16958
 H589 H 0.09726 0.66771 0.22055
 N590 N 0.17226 0.69423 0.12554
 N591 N 0.18567 0.67522 0.12217
 C592 C 0.20288 0.68067 0.10592
 C593 C 0.20018 0.70427 0.09918
 C594 C 0.18080 0.71228 0.11206
 H595 H 0.21726 0.66894 0.10093
 H596 H 0.17400 0.73024 0.11227
 H597 H 0.16974 0.67210 0.16565
 H598 H 0.14863 0.65990 0.14220
 N599 N 0.18725 0.11966 0.67430
 N600 N 0.17096 0.12017 0.69171
 C601 C 0.17594 0.10352 0.70922
 C602 C 0.19623 0.09173 0.70222
 C603 C 0.20299 0.10239 0.67995
 H604 H 0.16611 0.10079 0.72632
 H605 H 0.21893 0.09895 0.66960
 Cu606 Cu 0.14565 0.14345 0.69017
 Cu607 Cu 0.18891 0.14394 0.64806
 Cu608 Cu 0.14541 0.18799 0.64891
 N609 N 0.12254 0.16889 0.69230
 N610 N 0.12165 0.18560 0.67500
 C611 C 0.10469 0.20142 0.68093
 C612 C 0.09471 0.19434 0.70335
 C613 C 0.10652 0.17374 0.71013
 H614 H 0.10122 0.21779 0.67086
 H615 H 0.10434 0.16368 0.72733
 N616 N 0.17114 0.18729 0.62429
 N617 N 0.18745 0.17043 0.62361
 C618 C 0.20398 0.17665 0.60693
 C619 C 0.19788 0.19855 0.59700
 C620 C 0.17701 0.20469 0.60829
 H621 H 0.22027 0.16706 0.60395
 H622 H 0.16774 0.22144 0.60631
 H623 H 0.17187 0.17000 0.66865
 H624 H 0.15385 0.15253 0.64608
 N625 N 0.31439 0.62198 0.32465
 N626 N 0.33006 0.62271 0.30662
 C627 C 0.32477 0.60655 0.28895
 C628 C 0.30480 0.59509 0.29619
 C629 C 0.29861 0.60525 0.31898
 H630 H 0.33375 0.60438 0.27120
 H631 H 0.28263 0.60230 0.32926
 Cu632 Cu 0.35458 0.64607 0.30620
 Cu633 Cu 0.31261 0.64621 0.35071
 Cu634 Cu 0.35467 0.68992 0.34902
 N635 N 0.37771 0.67086 0.30563
 N636 N 0.37842 0.68747 0.32298
 C637 C 0.39507 0.70309 0.31688
 C638 C 0.40518 0.69582 0.29449
 C639 C 0.39378 0.67539 0.28794
 H640 H 0.39811 0.71957 0.32664
 H641 H 0.39605 0.66547 0.27068
 N642 N 0.32928 0.68946 0.37392
 N643 N 0.31363 0.67253 0.37507
 C644 C 0.29716 0.67870 0.39202
 C645 C 0.30265 0.70064 0.40171
 C646 C 0.32304 0.70690 0.38988
 H647 H 0.28128 0.66903 0.39537
 H648 H 0.33174 0.72369 0.39152
 H649 H 0.32823 0.67227 0.32953
 H650 H 0.34771 0.65409 0.35084
 N651 N 0.31570 0.11745 0.82124
 N652 N 0.33411 0.11657 0.80651
 C653 C 0.33093 0.09989 0.78875
 C654 C 0.30964 0.08937 0.79299
 C655 C 0.30040 0.10091 0.81375
 H656 H 0.34262 0.09652 0.77314
 H657 H 0.28309 0.09873 0.82150
 Cu658 Cu 0.35928 0.13886 0.81044
 Cu659 Cu 0.31149 0.14242 0.84626
 Cu660 Cu 0.35865 0.18031 0.85523
 N661 N 0.37842 0.16678 0.80771
 N662 N 0.37933 0.18253 0.82594
 C663 C 0.39469 0.19941 0.81954
 C664 C 0.40335 0.19405 0.79579
 C665 C 0.39246 0.17340 0.78881
 H666 H 0.39829 0.21499 0.83069
 H667 H 0.39433 0.16408 0.77107
 N668 N 0.32947 0.18215 0.87524
 N669 N 0.31115 0.16871 0.87067
 C670 C 0.29279 0.17686 0.88406
 C671 C 0.29996 0.19596 0.89810
 C672 C 0.32333 0.19887 0.89218
 H673 H 0.27519 0.17006 0.88295
 H674 H 0.33442 0.21320 0.89818
 H675 H 0.33377 0.16740 0.83090
 H676 H 0.34615 0.14582 0.85419
 N677 N 0.81715 0.62018 0.82412
 N678 N 0.83412 0.62151 0.80755
 C679 C 0.83013 0.60629 0.78858
 C680 C 0.81002 0.59418 0.79387
 C681 C 0.80214 0.60334 0.81659
 H682 H 0.84053 0.60481 0.77165
 H683 H 0.78589 0.59929 0.82590
 Cu684 Cu 0.85900 0.64400 0.81146
 Cu685 Cu 0.81471 0.64272 0.85222
 Cu686 Cu 0.85545 0.68806 0.85284
 N687 N 0.88080 0.66975 0.81044
 N688 N 0.88011 0.68652 0.82759
 C689 C 0.89602 0.70299 0.82186
 C690 C 0.90697 0.69617 0.79976
 C691 C 0.89681 0.67511 0.79297
 H692 H 0.89798 0.71961 0.83168
 H693 H 0.89991 0.66518 0.77583
 N694 N 0.82905 0.68654 0.87650
 N695 N 0.81348 0.66944 0.87651
 C696 C 0.79655 0.67499 0.89324
 C697 C 0.80161 0.69677 0.90373
 C698 C 0.82218 0.70352 0.89269
 H699 H 0.78082 0.66494 0.89609
 H700 H 0.83064 0.72036 0.89512
 H701 H 0.83061 0.66916 0.83246
 H702 H 0.84899 0.65215 0.85556
 N703 N 0.81357 0.12445 0.32268
 N704 N 0.82912 0.12425 0.30448
 C705 C 0.82305 0.10806 0.28712
 C706 C 0.80289 0.09722 0.29501
 C707 C 0.79729 0.10798 0.31770
 H708 H 0.83188 0.10519 0.26937
 H709 H 0.78159 0.10543 0.32859
 Cu710 Cu 0.85424 0.14698 0.30410
 Cu711 Cu 0.81329 0.14911 0.34869
 Cu712 Cu 0.86080 0.18737 0.34913
 N713 N 0.87722 0.17176 0.30067
 N714 N 0.88063 0.18676 0.31926
 C715 C 0.89748 0.20193 0.31272
 C716 C 0.90463 0.19641 0.28850
 C717 C 0.89126 0.17735 0.28130
 H718 H 0.90289 0.21687 0.32399
 H719 H 0.89135 0.16863 0.26312
 N720 N 0.83426 0.19026 0.37269
 N721 N 0.81658 0.17543 0.37308
 C722 C 0.80057 0.18344 0.38971
 C723 C 0.80839 0.20446 0.39986
 C724 C 0.82968 0.20831 0.38858
 H725 H 0.78362 0.17567 0.39270
 H726 H 0.84045 0.22376 0.39082
 H727 H 0.83213 0.17467 0.32942
 H728 H 0.84850 0.15286 0.34956
 N729 N 0.68186 0.37895 0.32661
 N730 N 0.66582 0.37781 0.30869
 C731 C 0.67200 0.39162 0.28923
 C732 C 0.69278 0.40237 0.29560
 C733 C 0.69855 0.39408 0.31952
 H734 H 0.66240 0.39328 0.27156
 H735 H 0.71439 0.39753 0.33022
 Cu736 Cu 0.63904 0.35763 0.31236
 Cu737 Cu 0.68106 0.35837 0.35609
 Cu738 Cu 0.64347 0.31039 0.35052
 N739 N 0.61744 0.33192 0.30943
 N740 N 0.61876 0.31338 0.32447
 C741 C 0.60325 0.29721 0.31632
 C742 C 0.59203 0.30619 0.29490
 C743 C 0.60153 0.32811 0.29109
 H744 H 0.60175 0.27955 0.32395
 H745 H 0.59828 0.33973 0.27512
 N746 N 0.66969 0.31158 0.37550
 N747 N 0.68373 0.32989 0.37735
 C748 C 0.70147 0.32453 0.39337
 C749 C 0.69844 0.30194 0.40233
 C750 C 0.67806 0.29417 0.39077
 H751 H 0.71631 0.33573 0.39709
 H752 H 0.67093 0.27660 0.39197
 H753 H 0.66748 0.33232 0.33353
 H754 H 0.64670 0.34564 0.35655
 N755 N 0.68673 0.87880 0.82382
 N756 N 0.66613 0.88470 0.81421
 C757 C 0.66807 0.90490 0.80092
 C758 C 0.69118 0.91192 0.80230
 C759 C 0.70250 0.89493 0.81707
 H760 H 0.65418 0.91291 0.78960
 H761 H 0.72104 0.89341 0.82128
 Cu762 Cu 0.63996 0.86340 0.81694
 Cu763 Cu 0.69251 0.84881 0.84075
 Cu764 Cu 0.64292 0.81851 0.85847
 N765 N 0.61882 0.83691 0.81471
 N766 N 0.61923 0.81964 0.83141
 C767 C 0.60375 0.80310 0.82418
 C768 C 0.59354 0.81039 0.80154
 C769 C 0.60350 0.83184 0.79615
 H770 H 0.60161 0.78622 0.83348
 H771 H 0.60078 0.84234 0.77923
 N772 N 0.67402 0.81293 0.87421
 N773 N 0.69304 0.82341 0.86606
 C774 C 0.71192 0.81421 0.87812
 C775 C 0.70445 0.79737 0.89485
 C776 C 0.68029 0.79693 0.89203
 H777 H 0.72985 0.81928 0.87490
 H778 H 0.66838 0.78500 0.90114
 H779 H 0.66351 0.82921 0.83034
 H780 H 0.66005 0.85139 0.85613
 N781 N 0.18667 0.37949 0.82410
 N782 N 0.16927 0.37979 0.80763
 C783 C 0.17329 0.39623 0.78990
 C784 C 0.19413 0.40703 0.79563
 C785 C 0.20226 0.39606 0.81751
 H786 H 0.16274 0.39904 0.77301
 H787 H 0.21915 0.39844 0.82653
 Cu788 Cu 0.14435 0.35694 0.80813
 Cu789 Cu 0.18997 0.35446 0.84937
 Cu790 Cu 0.14837 0.31038 0.84781
 N791 N 0.12198 0.33152 0.80717
 N792 N 0.12302 0.31358 0.82299
 C793 C 0.10632 0.29798 0.81655
 C794 C 0.09449 0.30666 0.79543
 C795 C 0.10495 0.32781 0.78995
 H796 H 0.10420 0.28082 0.82521
 H797 H 0.10131 0.33892 0.77365
 N798 N 0.17516 0.31020 0.87169
 N799 N 0.19048 0.32744 0.87305
 C800 C 0.20746 0.32133 0.88989
 C801 C 0.20270 0.29908 0.89925
 C802 C 0.18220 0.29257 0.88730
 H803 H 0.22312 0.33135 0.89352
 H804 H 0.17376 0.27565 0.88894
 H805 H 0.17268 0.32963 0.82757
 H806 H 0.15489 0.34611 0.85152
 N807 N 0.18575 0.87808 0.33046
 N808 N 0.16721 0.88340 0.31650
 C809 C 0.17122 0.90346 0.30359
 C810 C 0.19356 0.91097 0.30954
 C811 C 0.20231 0.89441 0.32670
 H812 H 0.15937 0.91126 0.28970
 H813 H 0.21964 0.89378 0.33518
 Cu814 Cu 0.14082 0.86210 0.31426
 Cu815 Cu 0.18758 0.84925 0.35075
 Cu816 Cu 0.13562 0.81843 0.35658
 N817 N 0.11872 0.83659 0.30912
 N818 N 0.11582 0.82005 0.32626
 C819 C 0.09951 0.80481 0.31790
 C820 C 0.09218 0.81206 0.29404
 C821 C 0.10481 0.83216 0.28905
 H822 H 0.09458 0.78886 0.32769
 H823 H 0.10440 0.84240 0.27176
 N824 N 0.16324 0.81277 0.37865
 N825 N 0.18313 0.82415 0.37616
 C826 C 0.19899 0.81521 0.39279
 C827 C 0.18860 0.79719 0.40622
 C828 C 0.16599 0.79615 0.39673
 H829 H 0.21697 0.82082 0.39432
 H830 H 0.15283 0.78349 0.40187
 H831 H 0.16167 0.82871 0.33369
 H832 H 0.15259 0.85128 0.35748
 C833 C 0.25051 1.06064 0.25764
 C834 C 0.26524 1.04791 0.24153
 C835 C 0.26467 1.02318 0.24141
 C836 C 0.24917 1.01062 0.25712
 C837 C 0.23441 1.02405 0.27330
 C838 C 0.23505 1.04891 0.27354
 C839 C 0.24906 0.98385 0.25688
 C840 C 0.23929 0.97063 0.27690
 C841 C 0.24110 0.94579 0.27732
 C842 C 0.25360 0.93398 0.25852
 C843 C 0.26254 0.94643 0.23806
 C844 C 0.25943 0.97102 0.23676
 H845 H 0.25100 1.07981 0.25770
 H846 H 0.27709 1.01411 0.22944
 H847 H 0.22187 1.01561 0.28535
 H848 H 0.23069 0.97919 0.29257
 H849 H 0.25541 0.91486 0.25918
 H850 H 0.26567 0.97980 0.22006
 C851 C 0.25560 0.56207 0.74753
 C852 C 0.27019 0.54914 0.73141
 C853 C 0.26988 0.52435 0.73196
 C854 C 0.25472 0.51208 0.74834
 C855 C 0.24010 0.52578 0.76435
 C856 C 0.24056 0.55053 0.76399
 C857 C 0.25326 0.48542 0.74796
 C858 C 0.24220 0.47293 0.76770
 C859 C 0.23798 0.44864 0.76567
 C860 C 0.24636 0.43613 0.74478
 C861 C 0.25906 0.44753 0.72615
 C862 C 0.26205 0.47207 0.72737
 H863 H 0.25578 0.58125 0.74711
 H864 H 0.28195 0.51504 0.71980
 H865 H 0.22743 0.51766 0.77649
 H866 H 0.23624 0.48180 0.78456
 H867 H 0.24382 0.41719 0.74354
 H868 H 0.27074 0.48034 0.71173
 C869 C 0.74716 -0.06214 0.25624
 C870 C 0.76278 -0.04952 0.27137
 C871 C 0.76194 -0.02473 0.27122
 C872 C 0.74491 -0.01216 0.25664
 C873 C 0.72822 -0.02549 0.24296
 C874 C 0.72981 -0.05027 0.24200
 C875 C 0.74484 0.01450 0.25523
 C876 C 0.73385 0.02657 0.23470
 C877 C 0.73331 0.05134 0.23353
 C878 C 0.74572 0.06432 0.25154
 C879 C 0.75779 0.05289 0.27130
 C880 C 0.75634 0.02826 0.27385
 H881 H 0.74781 -0.08132 0.25652
 H882 H 0.77507 -0.01565 0.28219
 H883 H 0.71398 -0.01689 0.23272
 H884 H 0.72537 0.01705 0.21957
 H885 H 0.74609 0.08345 0.25011
 H886 H 0.76473 0.02014 0.29014
 C887 C 0.75760 0.43275 0.74756
 C888 C 0.76936 0.44484 0.76658
 C889 C 0.76949 0.46959 0.76645
 C890 C 0.75905 0.48270 0.74627
 C891 C 0.74839 0.46974 0.72636
 C892 C 0.74664 0.44505 0.72770
 C893 C 0.75826 0.50947 0.74668
 C894 C 0.74286 0.52252 0.73048
 C895 C 0.74151 0.54727 0.73152
 C896 C 0.75550 0.55943 0.74877
 C897 C 0.77087 0.54717 0.76498
 C898 C 0.77234 0.52243 0.76385
 H899 H 0.75665 0.41361 0.74843
 H900 H 0.77726 0.47810 0.78265
 H901 H 0.74057 0.47842 0.71012
 H902 H 0.73108 0.51389 0.71750
 H903 H 0.75440 0.57858 0.74960
 H904 H 0.78502 0.51381 0.77616
 C905 C 0.24696 0.43903 0.25120
 C906 C 0.26309 0.45114 0.26618
 C907 C 0.26238 0.47590 0.26671
 C908 C 0.24505 0.48893 0.25299
 C909 C 0.22805 0.47613 0.23924
 C910 C 0.22944 0.45137 0.23765
 C911 C 0.24515 0.51558 0.25260
 C912 C 0.23446 0.52860 0.23251
 C913 C 0.23476 0.55344 0.23228
 C914 C 0.24760 0.56535 0.25078
 C915 C 0.25899 0.55291 0.27028
 C916 C 0.25667 0.52836 0.27194
 H917 H 0.24742 0.41985 0.25094
 H918 H 0.27591 0.48464 0.27745
 H919 H 0.21381 0.48515 0.22940
 H920 H 0.22568 0.51977 0.21707
 H921 H 0.24873 0.58447 0.25003
 H922 H 0.26450 0.51949 0.28811
 C923 C 0.75679 1.05976 0.75621
 C924 C 0.76940 1.04715 0.73798
 C925 C 0.76524 1.02307 0.73447
 C926 C 0.74776 1.01139 0.74831
 C927 C 0.73398 1.02504 0.76514
 C928 C 0.73901 1.04889 0.76963
 C929 C 0.74526 0.98500 0.74651
 C930 C 0.73537 0.97205 0.76654
 C931 C 0.73572 0.94729 0.76633
 C932 C 0.74708 0.93512 0.74701
 C933 C 0.75678 0.94744 0.72686
 C934 C 0.75474 0.97215 0.72594
 H935 H 0.75999 1.07842 0.75917
 H936 H 0.77644 1.01364 0.72146
 H937 H 0.71961 1.01735 0.77528
 H938 H 0.72824 0.98076 0.78298
 H939 H 0.74829 0.91595 0.74757
 H940 H 0.76164 0.98104 0.70960
 C941 C 0.75029 0.56079 0.25668
 C942 C 0.76214 0.54872 0.23759
 C943 C 0.76121 0.52406 0.23633
 C944 C 0.75055 0.51081 0.25571
 C945 C 0.73936 0.52355 0.27538
 C946 C 0.73838 0.54829 0.27514
 C947 C 0.75119 0.48411 0.25540
 C948 C 0.73658 0.47079 0.27130
 C949 C 0.73715 0.44603 0.27091
 C950 C 0.75214 0.43406 0.25441
 C951 C 0.76666 0.44672 0.23841
 C952 C 0.76639 0.47146 0.23909
 H953 H 0.75017 0.57998 0.25705
 H954 H 0.76934 0.51571 0.22027
 H955 H 0.73105 0.51480 0.29094
 H956 H 0.72401 0.47915 0.28362
 H957 H 0.75233 0.41488 0.25383
 H958 H 0.77858 0.48031 0.22701
 C959 C 0.23342 -0.06520 0.75966
 C960 C 0.25078 -0.05465 0.77433
 C961 C 0.25621 -0.03079 0.77046
 C962 C 0.24364 -0.01677 0.75249
 C963 C 0.22682 -0.02835 0.73721
 C964 C 0.22210 -0.05239 0.74038
 C965 C 0.24818 0.00944 0.74956
 C966 C 0.23839 0.02270 0.72911
 C967 C 0.24131 0.04719 0.72748
 C968 C 0.25566 0.05862 0.74485
 C969 C 0.26614 0.04607 0.76480
 C970 C 0.26163 0.02192 0.76775
 H971 H 0.23012 -0.08392 0.76193
 H972 H 0.27049 -0.02376 0.78148
 H973 H 0.21696 -0.01922 0.72262
 H974 H 0.22782 0.01474 0.71456
 H975 H 0.25789 0.07759 0.74339
 H976 H 0.26874 0.01335 0.78443
 C977 C 0.25494 0.25082 1.06651
 C978 C 0.23995 0.26598 1.05275
 C979 C 0.24302 0.26865 1.02671
 C980 C 0.26163 0.25707 1.01400
 C981 C 0.27754 0.24320 1.02877
 C982 C 0.27381 0.23936 1.05464
 C983 C 0.26367 0.25859 0.98558
 C984 C 0.27720 0.24179 0.97199
 C985 C 0.27711 0.24153 0.94552
 C986 C 0.26279 0.25761 0.93212
 C987 C 0.24966 0.27480 0.94496
 C988 C 0.25093 0.27589 0.97141
 H989 H 0.25273 0.24910 1.08674
 H990 H 0.23033 0.27963 1.01675
 H991 H 0.29284 0.23499 1.02050
 H992 H 0.28730 0.22810 0.98153
 H993 H 0.26241 0.25727 0.91164
 H994 H 0.24130 0.29002 0.98051
 C995 C 0.24415 0.74093 0.56776
 C996 C 0.22692 0.75450 0.55507
 C997 C 0.22500 0.75319 0.52866
 C998 C 0.24120 0.73970 0.51442
 C999 C 0.25815 0.72589 0.52776
 C1000 C 0.25936 0.72609 0.55421
 C1001 C 0.24122 0.74088 0.48597
 C1002 C 0.25253 0.72306 0.47157
 C1003 C 0.25582 0.72590 0.44556
 C1004 C 0.24576 0.74547 0.43310
 C1005 C 0.23293 0.76239 0.44651
 C1006 C 0.23125 0.76055 0.47286
 H1007 H 0.24504 0.74114 0.58822
 H1008 H 0.21099 0.76314 0.51948
 H1009 H 0.27113 0.71538 0.51794
 H1010 H 0.25961 0.70721 0.48037
 H1011 H 0.24769 0.74738 0.41284
 H1012 H 0.22267 0.77488 0.48280
 C1013 C 0.25622 0.74354 -0.07031
 C1014 C 0.26765 0.76130 -0.05682
 C1015 C 0.26852 0.76033 -0.03039
 C1016 C 0.25988 0.74057 -0.01715
 C1017 C 0.24931 0.72234 -0.03137
 C1018 C 0.24641 0.72440 -0.05763
 C1019 C 0.26102 0.73957 0.01126
 C1020 C 0.24506 0.72586 0.02510
 C1021 C 0.24491 0.72632 0.05157
 C1022 C 0.26028 0.74119 0.06458
 C1023 C 0.27654 0.75466 0.05139
 C1024 C 0.27746 0.75309 0.02498
 H1025 H 0.25482 0.74470 -0.09073
 H1026 H 0.27616 0.77508 -0.02048
 H1027 H 0.24266 0.70672 -0.02230
 H1028 H 0.23198 0.71537 0.01562
 H1029 H 0.26011 0.74174 0.08505
 H1030 H 0.29079 0.76296 0.01536
 C1031 C 0.26213 0.24237 0.43547
 C1032 C 0.27796 0.25633 0.44899
 C1033 C 0.27962 0.25413 0.47537
 C1034 C 0.26426 0.23936 0.48878
 C1035 C 0.24877 0.22517 0.47451
 C1036 C 0.24797 0.22630 0.44810
 C1037 C 0.26300 0.23998 0.51724
 C1038 C 0.25138 0.22204 0.53070
 C1039 C 0.24584 0.22490 0.55622
 C1040 C 0.25394 0.24464 0.56937
 C1041 C 0.26758 0.26144 0.55728
 C1042 C 0.27157 0.25946 0.53120
 H1043 H 0.26146 0.24345 0.41502
 H1044 H 0.29261 0.26451 0.48512
 H1045 H 0.23634 0.21378 0.48351
 H1046 H 0.24564 0.20609 0.52148
 H1047 H 0.25019 0.24658 0.58932
 H1048 H 0.28047 0.27378 0.52205
 C1049 C 0.74842 0.74845 1.06849
 C1050 C 0.73061 0.76054 1.05528
 C1051 C 0.72856 0.75792 1.02906
 C1052 C 0.74506 0.74418 1.01537
 C1053 C 0.76389 0.73354 1.02903
 C1054 C 0.76512 0.73496 1.05542
 C1055 C 0.74303 0.74141 0.98712
 C1056 C 0.75513 0.72300 0.97433
 C1057 C 0.75510 0.72193 0.94788
 C1058 C 0.74148 0.73813 0.93388
 C1059 C 0.72819 0.75561 0.94609
 C1060 C 0.72935 0.75747 0.97243
 H1061 H 0.74990 0.75035 1.08883
 H1062 H 0.71386 0.76667 1.01982
 H1063 H 0.77770 0.72385 1.01955
 H1064 H 0.76515 0.70964 0.98453
 H1065 H 0.74096 0.73680 0.91345
 H1066 H 0.72001 0.77213 0.98094
 C1067 C 0.75236 0.25247 0.56705
 C1068 C 0.73825 0.26836 0.55317
 C1069 C 0.73830 0.26753 0.52668
 C1070 C 0.75110 0.24973 0.51366
 C1071 C 0.76564 0.23431 0.52825
 C1072 C 0.76666 0.23596 0.55464
 C1073 C 0.74915 0.24719 0.48528
 C1074 C 0.76563 0.23351 0.47145
 C1075 C 0.76362 0.23109 0.44517
 C1076 C 0.74582 0.24325 0.43202
 C1077 C 0.72915 0.25665 0.44515
 C1078 C 0.73039 0.25800 0.47156
 H1079 H 0.75296 0.25365 0.58750
 H1080 H 0.72802 0.28078 0.51665
 H1081 H 0.77600 0.22043 0.51966
 H1082 H 0.78032 0.22465 0.48055
 H1083 H 0.74443 0.24162 0.41164
 H1084 H 0.71655 0.26767 0.48099
 C1085 C 0.75578 0.23497 -0.06550
 C1086 C 0.76990 0.25106 -0.05261
 C1087 C 0.76998 0.25137 -0.02620
 C1088 C 0.75679 0.23507 -0.01210
 C1089 C 0.74399 0.21788 -0.02561
 C1090 C 0.74277 0.21835 -0.05212
 C1091 C 0.75528 0.23722 0.01622
 C1092 C 0.73623 0.22784 0.02974
 C1093 C 0.73366 0.23221 0.05574
 C1094 C 0.74925 0.24728 0.06802
 C1095 C 0.76849 0.25629 0.05523
 C1096 C 0.77208 0.25025 0.02994
 H1097 H 0.75545 0.23486 -0.08598
 H1098 H 0.77981 0.26516 -0.01708
 H1099 H 0.73435 0.20443 -0.01582
 H1100 H 0.72279 0.21786 0.02025
 H1101 H 0.74699 0.25123 0.08791
 H1102 H 0.78782 0.25649 0.02110
 C1103 C 0.74020 0.75855 0.43171
 C1104 C 0.75704 0.77136 0.44487
 C1105 C 0.75529 0.77384 0.47121
 C1106 C 0.73610 0.76420 0.48441
 C1107 C 0.71832 0.75307 0.47010
 C1108 C 0.72094 0.74918 0.44418
 C1109 C 0.73570 0.76363 0.51287
 C1110 C 0.72285 0.74626 0.52590
 C1111 C 0.72415 0.74418 0.55226
 C1112 C 0.73894 0.75903 0.56598
 C1113 C 0.75158 0.77662 0.55366
 C1114 C 0.74927 0.77939 0.52740
 H1115 H 0.74206 0.75591 0.41153
 H1116 H 0.76960 0.78214 0.48114
 H1117 H 0.70284 0.74630 0.47900
 H1118 H 0.71236 0.73353 0.51587
 H1119 H 0.73992 0.75750 0.58639
 H1120 H 0.75861 0.79359 0.51849
 C1121 C 1.06320 0.25893 0.25556
 C1122 C 1.05126 0.24684 0.27436
 C1123 C 1.02680 0.24828 0.27534
 C1124 C 1.01379 0.25977 0.25592
 C1125 C 1.02628 0.27104 0.23637
 C1126 C 1.05085 0.27157 0.23687
 C1127 C 0.98748 0.25924 0.25553
 C1128 C 0.97431 0.27662 0.24221
 C1129 C 0.95000 0.27475 0.23944
 C1130 C 0.93827 0.25645 0.25154
 C1131 C 0.95070 0.23988 0.26630
 C1132 C 0.97520 0.24106 0.26791
 H1133 H 1.08221 0.25823 0.25530
 H1134 H 1.01820 0.23979 0.29095
 H1135 H 1.01719 0.27953 0.22071
 H1136 H 0.98274 0.29153 0.23352
 H1137 H 0.91930 0.25575 0.25033
 H1138 H 0.98441 0.22731 0.27839
 C1139 C 0.56118 0.24804 0.75099
 C1140 C 0.54902 0.23299 0.76693
 C1141 C 0.52447 0.23366 0.76704
 C1142 C 0.51152 0.24956 0.75135
 C1143 C 0.52444 0.26485 0.73555
 C1144 C 0.54905 0.26405 0.73531
 C1145 C 0.48494 0.25009 0.75140
 C1146 C 0.47197 0.26185 0.73199
 C1147 C 0.44743 0.26319 0.73248
 C1148 C 0.43533 0.25079 0.75095
 C1149 C 0.44744 0.23804 0.76969
 C1150 C 0.47203 0.23870 0.77066
 H1151 H 0.58020 0.24740 0.75092
 H1152 H 0.51593 0.22115 0.77913
 H1153 H 0.51588 0.27804 0.72378
 H1154 H 0.48049 0.27044 0.71645
 H1155 H 0.41631 0.25101 0.75072
 H1156 H 0.48063 0.22982 0.78633
 C1157 C -0.06201 0.25956 0.74191
 C1158 C -0.04972 0.27529 0.75727
 C1159 C -0.02515 0.27559 0.75637
 C1160 C -0.01246 0.25888 0.74170
 C1161 C -0.02548 0.24346 0.72604
 C1162 C -0.05003 0.24405 0.72585
 C1163 C 0.01393 0.25671 0.74368
 C1164 C 0.02712 0.24429 0.72522
 C1165 C 0.05129 0.24037 0.72840
 C1166 C 0.06304 0.25081 0.74867
 C1167 C 0.05077 0.26420 0.76641
 C1168 C 0.02631 0.26629 0.76458
 H1169 H -0.08102 0.25968 0.74210
 H1170 H -0.01629 0.28860 0.76774
 H1171 H -0.01700 0.23008 0.71466
 H1172 H 0.01893 0.23711 0.70849
 H1173 H 0.08193 0.24877 0.75046
 H1174 H 0.01738 0.27564 0.77952
 C1175 C 0.43713 0.25776 0.24026
 C1176 C 0.44946 0.27516 0.25333
 C1177 C 0.47391 0.27591 0.25156
 C1178 C 0.48644 0.25825 0.23821
 C1179 C 0.47356 0.24111 0.22475
 C1180 C 0.44901 0.24102 0.22552
 C1181 C 0.51270 0.25705 0.23935
 C1182 C 0.52571 0.24626 0.21978
 C1183 C 0.55009 0.24350 0.22191
 C1184 C 0.56196 0.25324 0.24255
 C1185 C 0.54959 0.26487 0.26164
 C1186 C 0.52506 0.26595 0.26054
 H1187 H 0.41814 0.25763 0.24107
 H1188 H 0.48300 0.28997 0.26121
 H1189 H 0.48236 0.22715 0.21441
 H1190 H 0.51708 0.23944 0.20308
 H1191 H 0.58092 0.25171 0.24378
 H1192 H 0.51585 0.27397 0.27619
 C1193 C 1.05876 0.76001 0.75649
 C1194 C 1.04730 0.74398 0.77202
 C1195 C 1.02281 0.74500 0.77363
 C1196 C 1.00947 0.76234 0.76016
 C1197 C 1.02172 0.77919 0.74583
 C1198 C 1.04610 0.77743 0.74317
 C1199 C 0.98310 0.76146 0.75935
 C1200 C 0.97009 0.77146 0.73887
 C1201 C 0.94591 0.76773 0.73641
 C1202 C 0.93470 0.75329 0.75370
 C1203 C 0.94691 0.74385 0.77448
 C1204 C 0.97070 0.74880 0.77788
 H1205 H 1.07771 0.75927 0.75517
 H1206 H 1.01448 0.73141 0.78455
 H1207 H 1.01254 0.79336 0.73596
 H1208 H 0.97853 0.78122 0.72404
 H1209 H 0.91614 0.74989 0.75135
 H1210 H 0.97944 0.74187 0.79459
 C1211 C 0.56135 0.75986 0.25786
 C1212 C 0.54962 0.74341 0.27265
 C1213 C 0.52518 0.74190 0.27099
 C1214 C 0.51200 0.75689 0.25459
 C1215 C 0.52433 0.77359 0.24007
 C1216 C 0.54882 0.77489 0.24143
 C1217 C 0.48579 0.75462 0.25205
 C1218 C 0.47361 0.76369 0.23058
 C1219 C 0.44917 0.76254 0.22878
 C1220 C 0.43674 0.75028 0.24704
 C1221 C 0.44837 0.74005 0.26779
 C1222 C 0.47255 0.74327 0.27094
 H1223 H 0.58034 0.76047 0.25866
 H1224 H 0.51694 0.72817 0.28180
 H1225 H 0.51524 0.78595 0.22771
 H1226 H 0.48265 0.77219 0.21531
 H1227 H 0.41784 0.74904 0.24527
 H1228 H 0.48070 0.73652 0.28804
 C1229 C -0.06470 0.75497 0.24371
 C1230 C -0.05337 0.77217 0.25812
 C1231 C -0.02900 0.77446 0.25640
 C1232 C -0.01542 0.75851 0.24177
 C1233 C -0.02745 0.74133 0.22733
 C1234 C -0.05193 0.73983 0.22796
 C1235 C 0.01100 0.75932 0.24211
 C1236 C 0.02428 0.74854 0.22269
 C1237 C 0.04876 0.74721 0.22431
 C1238 C 0.06051 0.75886 0.24379
 C1239 C 0.04798 0.77094 0.26245
 C1240 C 0.02339 0.77016 0.26229
 H1241 H -0.08366 0.75389 0.24407
 H1242 H -0.02088 0.78860 0.26686
 H1243 H -0.01813 0.72844 0.21606
 H1244 H 0.01593 0.74052 0.20649
 H1245 H 0.07952 0.75829 0.24456
 H1246 H 0.01427 0.77818 0.27795
 C1247 C 0.44052 0.75325 0.74946
 C1248 C 0.45227 0.76858 0.76565
 C1249 C 0.47678 0.76919 0.76568
 C1250 C 0.49006 0.75406 0.74977
 C1251 C 0.47765 0.73865 0.73355
 C1252 C 0.45310 0.73837 0.73331
 C1253 C 0.51650 0.75419 0.75030
 C1254 C 0.52980 0.74441 0.73024
 C1255 C 0.55435 0.74349 0.73153
 C1256 C 0.56598 0.75461 0.75148
 C1257 C 0.55336 0.76527 0.77095
 C1258 C 0.52889 0.76397 0.77104
 H1259 H 0.42151 0.75288 0.74946
 H1260 H 0.48506 0.78187 0.77796
 H1261 H 0.48669 0.72616 0.72154
 H1262 H 0.52147 0.73693 0.71375
 H1263 H 0.58499 0.75482 0.75195
 H1264 H 0.51990 0.77108 0.78727
 C1265 C 0.42178 0.28452 0.28665
 C1266 C 0.43664 0.29224 0.26924
 H1267 H 0.42050 0.26567 0.29013
 H1268 H 0.43962 0.31098 0.26686
 C1269 C 0.42476 0.80071 0.77554
 C1270 C 0.43866 0.78289 0.78357
 H1271 H 0.42586 0.80652 0.75605
 H1272 H 0.43924 0.77765 0.80325
 C1273 C -0.07913 0.28268 0.78974
 C1274 C -0.06269 0.29121 0.77449
 H1275 H -0.08191 0.26377 0.79049
 H1276 H -0.05832 0.30978 0.77505
 C1277 C -0.08464 0.78007 0.28855
 C1278 C -0.06720 0.78823 0.27440
 H1279 H -0.08759 0.76120 0.28958
 H1280 H -0.06282 0.80681 0.27492
 C1281 C 0.57975 0.71304 0.27958
 C1282 C 0.56310 0.72713 0.28916
 H1283 H 0.58232 0.71254 0.25931
 H1284 H 0.55893 0.72637 0.30907
 C1285 C 0.57763 0.20132 0.77604
 C1286 C 0.56215 0.21736 0.78445
 H1287 H 0.57915 0.19807 0.75594
 H1288 H 0.55927 0.21938 0.80454
 C1289 C 1.07863 0.71412 0.77613
 C1290 C 1.06111 0.72637 0.78676
 H1291 H 1.08129 0.71539 0.75592
 H1292 H 1.05705 0.72376 0.80652
 C1293 C 1.07720 0.21344 0.28357
 C1294 C 1.06454 0.23176 0.29219
 H1295 H 1.07624 0.20883 0.26371
 H1296 H 1.06387 0.23567 0.31220
 C1297 C 0.58013 0.29235 0.72708
 C1298 C 0.56228 0.27960 0.71830
 H1299 H 0.58355 0.29301 0.74726
 H1300 H 0.55743 0.28035 0.69846
 C1301 C 0.57968 0.80315 0.23108
 C1302 C 0.56143 0.79021 0.22373
 H1303 H 0.58405 0.80472 0.25098
 H1304 H 0.55591 0.79029 0.20407
 C1305 C 1.08044 0.30005 0.22487
 C1306 C 1.06389 0.28488 0.21772
 H1307 H 1.08294 0.30380 0.24479
 H1308 H 1.05982 0.28229 0.19789
 C1309 C 1.07427 0.78507 0.70983
 C1310 C 1.05852 0.79355 0.72620
 H1311 H 1.07676 0.76611 0.70785
 H1312 H 1.05446 0.81233 0.72692
 C1313 C 0.42460 0.70768 0.72428
 C1314 C 0.44042 0.72283 0.71580
 H1315 H 0.42244 0.70520 0.74444
 H1316 H 0.44407 0.72399 0.69579
 C1317 C 0.41833 0.21151 0.22085
 C1318 C 0.43566 0.22375 0.21056
 H1319 H 0.41528 0.21267 0.24100
 H1320 H 0.44020 0.22103 0.19093
 C1321 C -0.08098 0.70909 0.22101
 C1322 C -0.06441 0.72291 0.21163
 H1323 H -0.08379 0.70866 0.24124
 H1324 H -0.06004 0.72196 0.19177
 C1325 C -0.07936 0.21383 0.71932
 C1326 C -0.06337 0.22796 0.70940
 H1327 H -0.08121 0.21310 0.73968
 H1328 H -0.05980 0.22749 0.68933
 C1329 C 0.29285 0.42003 0.27392
 C1330 C 0.27954 0.43778 0.28273
 H1331 H 0.29371 0.41683 0.25376
 H1332 H 0.28017 0.44224 0.30263
 C1333 C 0.28686 -0.07502 0.78727
 C1334 C 0.26443 -0.06961 0.79207
 H1335 H 0.29520 -0.06657 0.77137
 H1336 H 0.25495 -0.07899 0.80649
 C1337 C 0.80247 0.42347 0.78565
 C1338 C 0.78017 0.43106 0.78724
 H1339 H 0.81334 0.43037 0.77073
 H1340 H 0.76861 0.42438 0.80158
 C1341 C 0.79433 -0.07838 0.28026
 C1342 C 0.77874 -0.06243 0.28877
 H1343 H 0.79713 -0.07975 0.26007
 H1344 H 0.77704 -0.05905 0.30881
 C1345 C 0.29859 0.57956 0.72119
 C1346 C 0.28523 0.56174 0.71344
 H1347 H 0.29993 0.58351 0.74118
 H1348 H 0.28544 0.55620 0.69384
 C1349 C 0.29458 1.07774 0.23193
 C1350 C 0.28050 1.06058 0.22392
 H1351 H 0.29656 1.08112 0.25199
 H1352 H 0.28004 1.05579 0.20410
 C1353 C 0.79308 0.57608 0.22754
 C1354 C 0.77605 0.56198 0.21934
 H1355 H 0.79731 0.57674 0.24755
 H1356 H 0.77276 0.55961 0.19932
 C1357 C 0.79995 1.07611 0.72987
 C1358 C 0.78564 1.05949 0.72119
 H1359 H 0.80194 1.07882 0.75005
 H1360 H 0.78506 1.05545 0.70117
 C1361 C 0.70448 0.57242 0.28564
 C1362 C 0.72418 0.56148 0.29346
 H1363 H 0.69800 0.56936 0.26660
 H1364 H 0.73075 0.56351 0.31258
 C1365 C 0.70356 1.06886 0.78486
 C1366 C 0.72613 1.06292 0.78845
 H1367 H 0.69432 1.06177 0.76860
 H1368 H 0.73635 1.07109 0.80331
 C1369 C 0.21175 0.58209 0.77117
 C1370 C 0.22508 0.56451 0.78062
 H1371 H 0.21103 0.58490 0.75090
 H1372 H 0.22448 0.56016 0.80055
 C1373 C 0.20760 1.08165 0.28210
 C1374 C 0.21990 1.06289 0.29067
 H1375 H 0.20704 1.08534 0.26199
 H1376 H 0.21886 1.05772 0.31035
 C1377 C 0.71502 0.41801 0.71898
 C1378 C 0.73163 0.43199 0.70981
 H1379 H 0.71208 0.41776 0.73920
 H1380 H 0.73385 0.43414 0.68964
 C1381 C 0.71989 -0.08203 0.21242
 C1382 C 0.71282 -0.06383 0.22675
 H1383 H 0.73847 -0.08597 0.21072
 H1384 H 0.69451 -0.05844 0.22685
 C1385 C 0.21965 0.42100 0.20673
 C1386 C 0.21233 0.43813 0.22230
 H1387 H 0.23831 0.41821 0.20399
 H1388 H 0.19384 0.44245 0.22385
 C1389 C 0.19208 -0.08092 0.72770
 C1390 C 0.20775 -0.06474 0.72138
 H1391 H 0.18748 -0.08347 0.74733
 H1392 H 0.21081 -0.06096 0.70160
 C1393 C 0.28440 0.28830 0.41856
 C1394 C 0.29323 0.27278 0.43542
 H1395 H 0.26556 0.29006 0.41607
 H1396 H 0.31187 0.27226 0.43956
 C1397 C 0.29600 0.77560 -0.08702
 C1398 C 0.27911 0.78064 -0.07048
 H1399 H 0.30164 0.75735 -0.08951
 H1400 H 0.27456 0.79883 -0.06604
 C1401 C 0.77806 0.27943 -0.08663
 C1402 C 0.78544 0.26709 -0.06644
 H1403 H 0.75980 0.27900 -0.09242
 H1404 H 0.80312 0.26939 -0.05926
 C1405 C 0.78233 0.80327 0.42970
 C1406 C 0.77710 0.78029 0.43052
 H1407 H 0.77286 0.81571 0.44156
 H1408 H 0.78507 0.76817 0.41716
 C1409 C 0.70765 0.27930 0.58313
 C1410 C 0.72366 0.28609 0.56645
 H1411 H 0.70454 0.26059 0.58578
 H1412 H 0.72572 0.30465 0.56203
 C1413 C 0.70057 0.77201 1.08611
 C1414 C 0.71595 0.77811 1.06850
 H1415 H 0.69682 0.75353 1.08936
 H1416 H 0.71853 0.79660 1.06409
 C1417 C 0.20818 0.27354 1.08321
 C1418 C 0.22307 0.28148 1.06593
 H1419 H 0.20604 0.25472 1.08607
 H1420 H 0.22361 0.30027 1.06186
 C1421 C 0.21767 0.78393 0.58780
 C1422 C 0.21037 0.76965 0.56928
 H1423 H 0.23625 0.78515 0.59204
 H1424 H 0.19209 0.76994 0.56349
 C1425 C 0.28965 0.71735 0.58643
 C1426 C 0.27593 0.70992 0.56755
 H1427 H 0.28987 0.73598 0.59121
 H1428 H 0.27736 0.69176 0.56113
 C1429 C 0.28265 0.20916 1.08707
 C1430 C 0.29028 0.22398 1.06931
 H1431 H 0.26398 0.20761 1.09013
 H1432 H 0.30872 0.22408 1.06462
 C1433 C 0.77807 0.70659 1.08731
 C1434 C 0.78376 0.72201 1.06940
 H1435 H 0.75972 0.70330 1.09090
 H1436 H 0.80185 0.72389 1.06381
 C1437 C 0.77711 0.20808 0.58867
 C1438 C 0.78365 0.22118 0.56905
 H1439 H 0.75869 0.20696 0.59328
 H1440 H 0.80174 0.22065 0.56296
 C1441 C 0.71283 0.71672 0.41536
 C1442 C 0.70450 0.73379 0.43042
 H1443 H 0.73163 0.71394 0.41403
 H1444 H 0.68585 0.73565 0.43370
 C1445 C 0.71268 0.20962 -0.08378
 C1446 C 0.72758 0.20171 -0.06590
 H1447 H 0.71106 0.22849 -0.08726
 H1448 H 0.72787 0.18320 -0.06054
 C1449 C 0.21400 0.71469 -0.08596
 C1450 C 0.23218 0.70716 -0.07175
 H1451 H 0.20944 0.73339 -0.08619
 H1452 H 0.23587 0.68842 -0.06946
 C1453 C 0.21842 0.21855 0.41529
 C1454 C 0.23229 0.21043 0.43392
 H1455 H 0.21792 0.23732 0.41105
 H1456 H 0.23121 0.19212 0.43985
 C1457 C 0.29295 0.43293 0.70274
 C1458 C 0.26977 0.43299 0.70617
 H1459 H 0.30366 0.44532 0.71315
 H1460 H 0.25934 0.41901 0.69802
 C1461 C 0.29338 0.91938 0.22385
 C1462 C 0.27517 0.93358 0.21800
 H1463 H 0.29964 0.91845 0.24325
 H1464 H 0.26999 0.93638 0.19846
 C1465 C 0.79718 0.41796 0.22681
 C1466 C 0.78110 0.43413 0.21978
 H1467 H 0.80124 0.41521 0.24666
 H1468 H 0.77834 0.43825 0.19995
 C1469 C 0.78927 0.92139 0.71561
 C1470 C 0.77077 0.93449 0.70800
 H1471 H 0.79427 0.92131 0.73544
 H1472 H 0.76649 0.93645 0.68811
 C1473 C 0.71104 0.57725 0.72344
 C1474 C 0.72569 0.56072 0.71438
 H1475 H 0.70912 0.57916 0.74370
 H1476 H 0.72643 0.55730 0.69427
 C1477 C 0.70439 0.08108 0.22004
 C1478 C 0.71948 0.06380 0.21370
 H1479 H 0.70177 0.08512 0.23985
 H1480 H 0.72071 0.05796 0.19427
 C1481 C 0.20647 0.58442 0.22078
 C1482 C 0.22136 0.56736 0.21321
 H1483 H 0.20327 0.58657 0.24082
 H1484 H 0.22339 0.56341 0.19333
 C1485 C 0.20927 0.07439 0.71783
 C1486 C 0.22744 0.06154 0.70941
 H1487 H 0.20407 0.07261 0.73740
 H1488 H 0.23268 0.06221 0.68982
 C1489 C 0.29065 0.57991 0.27977
 C1490 C 0.27398 0.56571 0.28833
 H1491 H 0.29381 0.58085 0.25962
 H1492 H 0.27175 0.56300 0.30842
 C1493 C 0.29747 0.07331 0.77569
 C1494 C 0.28065 0.05881 0.78336
 H1495 H 0.30203 0.07393 0.75586
 H1496 H 0.27721 0.05658 0.80332
 C1497 C 0.79743 0.57902 0.77606
 C1498 C 0.78508 0.56042 0.78342
 H1499 H 0.79861 0.58320 0.75612
 H1500 H 0.78551 0.55477 0.80300
 C1501 C 0.78844 0.08156 0.27936
 C1502 C 0.77256 0.06682 0.28870
 H1503 H 0.79115 0.08213 0.25912
 H1504 H 0.77099 0.06436 0.30891
 C1505 C 0.70709 0.41679 0.27888
 C1506 C 0.72202 0.43269 0.28792
 H1507 H 0.70508 0.41451 0.25864
 H1508 H 0.72263 0.43660 0.30795
 C1509 C 0.70189 0.93057 0.78697
 C1510 C 0.72508 0.93362 0.78661
 H1511 H 0.69068 0.94042 0.77385
 H1512 H 0.73674 0.92316 0.79859
 C1513 C 0.20686 0.42226 0.77819
 C1514 C 0.22455 0.43613 0.78513
 H1515 H 0.20153 0.42168 0.75848
 H1516 H 0.22900 0.43851 0.80492
 C1517 C 0.20594 0.93036 0.29687
 C1518 C 0.22935 0.93140 0.29651
 H1519 H 0.19564 0.94228 0.28491
 H1520 H 0.23987 0.91816 0.30646
 C1521 C 0.41727 0.29258 0.72145
 C1522 C 0.43432 0.27781 0.71383
 H1523 H 0.41393 0.29452 0.74148
 H1524 H 0.43938 0.27728 0.69416
 C1525 C 0.42212 0.79375 0.21603
 C1526 C 0.43622 0.77588 0.20911
 H1527 H 0.42140 0.79870 0.23581
 H1528 H 0.43873 0.77158 0.18938
 C1529 C 0.92187 0.28467 0.20612
 C1530 C 0.93674 0.29202 0.22396
 H1531 H 0.92066 0.26593 0.20204
 H1532 H 0.93962 0.31072 0.22688
 C1533 C 0.93019 0.80153 0.71209
 C1534 C 0.93170 0.77813 0.71571
 H1535 H 0.94128 0.81315 0.72307
 H1536 H 0.91912 0.76669 0.70658
 C1537 C 0.57765 0.29372 0.27620
 C1538 C 0.56258 0.27679 0.28206
 H1539 H 0.57918 0.29918 0.25663
 H1540 H 0.55911 0.27245 0.30160
 C1541 C 0.57925 0.79674 0.78375
 C1542 C 0.56590 0.77867 0.79057
 H1543 H 0.57972 0.80191 0.76402
 H1544 H 0.56357 0.77427 0.81031
 C1545 C 0.07838 0.29428 0.77841
 C1546 C 0.06406 0.27718 0.78577
 H1547 H 0.07860 0.29936 0.75865
 H1548 H 0.06225 0.27264 0.80555
 C1549 C 0.07749 0.79941 0.27564
 C1550 C 0.06082 0.78419 0.28215
 H1551 H 0.08044 0.80297 0.25580
 H1552 H 0.05617 0.78191 0.30178
 C1553 C 0.58300 0.71289 0.72126
 C1554 C 0.56805 0.72971 0.71298
 H1555 H 0.58391 0.70901 0.74133
 H1556 H 0.56525 0.73266 0.69294
 C1557 C 0.57465 0.20978 0.21084
 C1558 C 0.56329 0.22945 0.20334
 H1559 H 0.57271 0.20365 0.23013
 H1560 H 0.56354 0.23512 0.18378
 C1561 C 0.07475 0.71402 0.21483
 C1562 C 0.06230 0.73273 0.20640
 H1563 H 0.07336 0.70869 0.23444
 H1564 H 0.06209 0.73747 0.18656
 C1565 C 0.07858 0.20790 0.71945
 C1566 C 0.06457 0.22534 0.71067
 H1567 H 0.07869 0.20375 0.73946
 H1568 H 0.06288 0.22864 0.69056
 C1569 C 0.42066 0.70912 0.27785
 C1570 C 0.43508 0.72594 0.28607
 H1571 H 0.41986 0.70507 0.25784
 H1572 H 0.43758 0.72894 0.30611
 C1573 C 0.41829 0.20825 0.77930
 C1574 C 0.43412 0.22366 0.78781
 H1575 H 0.41648 0.20546 0.75910
 H1576 H 0.43776 0.22522 0.80787
 C1577 C 0.92201 0.71038 0.78358
 C1578 C 0.93470 0.72836 0.79227
 H1579 H 0.92221 0.70618 0.76360
 H1580 H 0.93626 0.73166 0.81237
 C1581 C 0.91991 0.21040 0.27221
 C1582 C 0.93795 0.22253 0.28161
 H1583 H 0.91590 0.21115 0.25216
 H1584 H 0.94316 0.22021 0.30122
 C1585 C 0.29935 0.28775 0.57082
 C1586 C 0.27700 0.28109 0.57245
 H1587 H 0.31084 0.27932 0.55722
 H1588 H 0.26628 0.28782 0.58773
 C1589 C 0.28453 0.78558 0.08256
 C1590 C 0.29260 0.77047 0.06514
 H1591 H 0.26585 0.78688 0.08597
 H1592 H 0.31091 0.77060 0.05991
 C1593 C 0.77814 0.28989 0.08248
 C1594 C 0.78532 0.27164 0.06831
 H1595 H 0.75961 0.29430 0.08358
 H1596 H 0.80385 0.26830 0.06543
 C1597 C 0.78146 0.78395 0.58630
 C1598 C 0.76712 0.79239 0.56814
 H1599 H 0.78238 0.76509 0.58997
 H1600 H 0.76770 0.81089 0.56283
 C1601 C 0.28796 0.71648 0.41707
 C1602 C 0.27054 0.70885 0.43155
 H1603 H 0.29173 0.73522 0.41649
 H1604 H 0.26779 0.69009 0.43410
 C1605 C 0.28457 0.21184 0.91266
 C1606 C 0.29251 0.22470 0.93198
 H1607 H 0.26610 0.21256 0.90765
 H1608 H 0.31047 0.22241 0.93852
 C1609 C 0.78633 0.71246 0.91857
 C1610 C 0.77025 0.70471 0.93463
 H1611 H 0.78868 0.73135 0.91637
 H1612 H 0.76890 0.68602 0.93883
 C1613 C 0.79512 0.22136 0.41556
 C1614 C 0.77882 0.21419 0.43166
 H1615 H 0.79867 0.24006 0.41370
 H1616 H 0.77617 0.19548 0.43480
 C1617 C 0.71589 0.28836 0.41723
 C1618 C 0.71055 0.26953 0.43112
 H1619 H 0.73383 0.29444 0.41717
 H1620 H 0.69252 0.26409 0.43299
 C1621 C 0.71977 0.78172 0.91001
 C1622 C 0.71276 0.77190 0.93154
 H1623 H 0.73758 0.77883 0.90364
 H1624 H 0.69576 0.77659 0.93918
 C1625 C 0.21802 0.28340 0.91462
 C1626 C 0.23427 0.29145 0.93073
 H1627 H 0.21560 0.26449 0.91286
 H1628 H 0.23555 0.31022 0.93443
 C1629 C 0.19950 0.78035 0.42434
 C1630 C 0.22167 0.78208 0.43254
 H1631 H 0.18930 0.76525 0.43003
 H1632 H 0.23248 0.79663 0.42671
 C1633 C 0.71761 0.71274 0.58349
 C1634 C 0.70910 0.72722 0.56551
 H1635 H 0.73633 0.71189 0.58722
 H1636 H 0.69071 0.72661 0.56025
 C1637 C 0.70818 0.19912 0.06781
 C1638 C 0.71475 0.22161 0.07070
 H1639 H 0.71628 0.18809 0.05351
 H1640 H 0.70833 0.23160 0.08675
 C1641 C 0.21606 0.71922 0.08469
 C1642 C 0.22881 0.71093 0.06552
 H1643 H 0.21650 0.73789 0.08928
 H1644 H 0.22671 0.69284 0.05925
 C1645 C 0.21251 0.21473 0.58248
 C1646 C 0.23094 0.20751 0.56895
 H1647 H 0.20799 0.23342 0.58317
 H1648 H 0.23450 0.18882 0.56622
   
