data_POSCAR
  _audit_creation_date              2014-09-24
  _audit_creation_method            'ToBaCCo'
  _symmetry_space_group_name_H-M    'P1'
  _symmetry_Int_Tables_number       1
  _symmetry_cell_setting            triclinic
  loop_
  _symmetry_equiv_pos_as_xyz
 x,y,z
_cell_length_a 66.7531
_cell_length_b 66.7530
_cell_length_c 66.7248
_cell_angle_alpha 89.992500
_cell_angle_beta 89.992800
_cell_angle_gamma 89.991000
loop_
  _atom_site_label
  _atom_site_type_symbol
  _atom_site_fract_x
  _atom_site_fract_y
  _atom_site_fract_z
C1 C 0.34117 1.36775 0.34137
 C2 C 0.34974 1.37617 0.32410
 C3 C 0.36694 1.36765 0.31524
 C4 C 0.37553 1.35053 0.32420
 C5 C 0.36711 1.34198 0.34145
 C6 C 0.34986 1.35059 0.35007
 C7 C 0.32389 1.37616 0.34992
 C8 C 0.31501 1.36762 0.36712
 C9 C 0.32396 1.35050 0.37571
 C10 C 0.34122 1.34196 0.36730
 C11 C 0.34986 1.32477 0.37578
 C12 C 0.36702 1.31599 0.36724
 C13 C 0.37558 1.32479 0.35009
 H14 H 0.34283 1.38933 0.31755
 H15 H 0.38875 1.34367 0.31772
 H16 H 0.31734 1.38931 0.34301
 H17 H 0.31747 1.34363 0.38892
 H18 H 0.34308 1.31816 0.38898
 H19 H 0.38878 1.31819 0.34332
 C20 C 0.34112 0.86772 0.84194
 C21 C 0.34974 0.87615 0.82471
 C22 C 0.36691 0.86761 0.81594
 C23 C 0.37550 0.85050 0.82479
 C24 C 0.36705 0.84191 0.84201
 C25 C 0.34978 0.85052 0.85062
 C26 C 0.32384 0.87611 0.85048
 C27 C 0.31492 0.86754 0.86763
 C28 C 0.32384 0.85040 0.87621
 C29 C 0.34111 0.84186 0.86782
 C30 C 0.34972 0.82464 0.87627
 C31 C 0.36689 0.81586 0.86773
 C32 C 0.37549 0.82469 0.85061
 H33 H 0.34294 0.88932 0.81806
 H34 H 0.38871 0.84373 0.81821
 H35 H 0.31731 0.88929 0.84357
 H36 H 0.31731 0.84350 0.88940
 H37 H 0.34291 0.81800 0.88944
 H38 H 0.38870 0.81810 0.84385
 C39 C 0.84167 1.36770 0.84115
 C40 C 0.85019 1.37609 0.82386
 C41 C 0.86736 1.36754 0.81495
 C42 C 0.87596 1.35042 0.82389
 C43 C 0.86757 1.34188 0.84118
 C44 C 0.85037 1.35053 0.84984
 C45 C 0.82443 1.37612 0.84976
 C46 C 0.81567 1.36758 0.86695
 C47 C 0.82454 1.35050 0.87556
 C48 C 0.84177 1.34192 0.86712
 C49 C 0.85040 1.32473 0.87559
 C50 C 0.86752 1.31591 0.86700
 C51 C 0.87605 1.32469 0.84981
 H52 H 0.84327 1.38925 0.81732
 H53 H 0.88915 1.34353 0.81738
 H54 H 0.81776 1.38927 0.84295
 H55 H 0.81797 1.34373 0.88879
 H56 H 0.84364 1.31814 0.88881
 H57 H 0.88922 1.31806 0.84301
 C58 C 0.84199 0.86788 0.34141
 C59 C 0.85054 0.87630 0.32414
 C60 C 0.86769 0.86774 0.31522
 C61 C 0.87626 0.85058 0.32413
 C62 C 0.86785 0.84202 0.34140
 C63 C 0.85065 0.85068 0.35006
 C64 C 0.82476 0.87631 0.35001
 C65 C 0.81597 0.86775 0.36717
 C66 C 0.82479 0.85063 0.37576
 C67 C 0.84202 0.84204 0.36731
 C68 C 0.85061 0.82482 0.37575
 C69 C 0.86772 0.81599 0.36715
 C70 C 0.87628 0.82479 0.35000
 H71 H 0.84364 0.88948 0.31762
 H72 H 0.88944 0.84369 0.31760
 H73 H 0.81813 0.88949 0.34322
 H74 H 0.81819 0.84385 0.38895
 H75 H 0.84383 0.81822 0.38895
 H76 H 0.88945 0.81816 0.34320
 C77 C 0.65807 0.63222 0.34136
 C78 C 0.64951 0.62381 0.32410
 C79 C 0.63234 0.63237 0.31521
 C80 C 0.62377 0.64952 0.32414
 C81 C 0.63220 0.65807 0.34140
 C82 C 0.64941 0.64941 0.35004
 C83 C 0.67532 0.62380 0.34995
 C84 C 0.68412 0.63235 0.36710
 C85 C 0.67529 0.64946 0.37571
 C86 C 0.65805 0.65804 0.36729
 C87 C 0.64945 0.67526 0.37574
 C88 C 0.63232 0.68408 0.36717
 C89 C 0.62376 0.67529 0.35002
 H90 H 0.65641 0.61064 0.31757
 H91 H 0.61058 0.65641 0.31764
 H92 H 0.68195 0.61064 0.34314
 H93 H 0.68189 0.65624 0.38890
 H94 H 0.65624 0.68186 0.38893
 H95 H 0.61058 0.68191 0.34323
 C96 C 0.65902 0.13251 0.84170
 C97 C 0.65041 0.12408 0.82447
 C98 C 0.63322 0.13260 0.81572
 C99 C 0.62460 0.14968 0.82459
 C100 C 0.63304 0.15827 0.84181
 C101 C 0.65033 0.14968 0.85040
 C102 C 0.67632 0.12414 0.85023
 C103 C 0.68523 0.13270 0.86739
 C104 C 0.67628 0.14982 0.87599
 C105 C 0.65898 0.15834 0.86761
 C106 C 0.65034 0.17553 0.87608
 C107 C 0.63315 0.18428 0.86756
 C108 C 0.62457 0.17546 0.85044
 H109 H 0.65723 0.11094 0.81781
 H110 H 0.61137 0.15643 0.81803
 H111 H 0.68287 0.11098 0.84331
 H112 H 0.68279 0.15671 0.88918
 H113 H 0.65714 0.18217 0.88925
 H114 H 0.61134 0.18202 0.84369
 C115 C 1.15883 0.63228 0.84188
 C116 C 1.15022 0.62384 0.82465
 C117 C 1.13305 0.63238 0.81588
 C118 C 1.12446 0.64949 0.82471
 C119 C 1.13291 0.65809 0.84192
 C120 C 1.15017 0.64948 0.85054
 C121 C 1.17610 0.62389 0.85042
 C122 C 1.18503 0.63246 0.86757
 C123 C 1.17611 0.64961 0.87614
 C124 C 1.15884 0.65815 0.86774
 C125 C 1.15022 0.67538 0.87617
 C126 C 1.13305 0.68415 0.86763
 C127 C 1.12446 0.67531 0.85052
 H128 H 1.15702 0.61067 0.81802
 H129 H 1.11125 0.65626 0.81812
 H130 H 1.18262 0.61070 0.84352
 H131 H 1.18264 0.65652 0.88931
 H132 H 1.15702 0.68203 0.88934
 H133 H 1.11125 0.68189 0.84375
 C134 C 1.15911 0.13256 0.34096
 C135 C 1.15054 0.12415 0.32370
 C136 C 1.13334 0.13267 0.31483
 C137 C 1.12475 0.14979 0.32378
 C138 C 1.13318 0.15834 0.34103
 C139 C 1.15042 0.14972 0.34966
 C140 C 1.17638 0.12415 0.34953
 C141 C 1.18524 0.13268 0.36673
 C142 C 1.17629 0.14980 0.37532
 C143 C 1.15904 0.15834 0.36690
 C144 C 1.15040 0.17553 0.37538
 C145 C 1.13325 0.18432 0.36683
 C146 C 1.12470 0.17553 0.34967
 H147 H 1.15745 0.11099 0.31714
 H148 H 1.11154 0.15666 0.31730
 H149 H 1.18293 0.11099 0.34262
 H150 H 1.18277 0.15667 0.38854
 H151 H 1.15717 0.18213 0.38858
 H152 H 1.11150 0.18213 0.34290
 C153 C 0.65895 1.36764 0.65830
 C154 C 0.65033 1.37607 0.67553
 C155 C 0.63314 1.36755 0.68428
 C156 C 0.62453 1.35047 0.67542
 C157 C 0.63298 1.34187 0.65820
 C158 C 0.65026 1.35046 0.64961
 C159 C 0.67624 1.37601 0.64977
 C160 C 0.68516 1.36745 0.63262
 C161 C 0.67623 1.35032 0.62403
 C162 C 0.65894 1.34179 0.63241
 C163 C 0.65031 1.32459 0.62395
 C164 C 0.63312 1.31584 0.63247
 C165 C 0.62452 1.32467 0.64958
 H166 H 0.65713 1.38922 0.68218
 H167 H 0.61131 1.34371 0.68199
 H168 H 0.68277 1.38918 0.65669
 H169 H 0.68275 1.34342 0.61084
 H170 H 0.65711 1.31795 0.61078
 H171 H 0.61130 1.31811 0.65634
 C172 C 0.65811 0.86774 1.15878
 C173 C 0.64955 0.87616 1.17604
 C174 C 0.63239 0.86761 1.18495
 C175 C 0.62383 0.85045 1.17604
 C176 C 0.63224 0.84189 1.15878
 C177 C 0.64945 0.85054 1.15012
 C178 C 0.67534 0.87617 1.15018
 C179 C 0.68414 0.86761 1.13302
 C180 C 0.67532 0.85049 1.12444
 C181 C 0.65809 0.84190 1.13288
 C182 C 0.64950 0.82468 1.12444
 C183 C 0.63237 0.81587 1.13303
 C184 C 0.62381 0.82467 1.15018
 H185 H 0.65644 0.88934 1.18256
 H186 H 0.61064 0.84356 1.18256
 H187 H 0.68197 0.88934 1.15697
 H188 H 0.68192 0.84371 1.11124
 H189 H 0.65628 0.81808 1.11124
 H190 H 0.61064 0.81804 1.15697
 C191 C 1.15829 1.36820 1.15759
 C192 C 1.14967 1.37665 1.17481
 C193 C 1.13249 1.36812 1.18357
 C194 C 1.12389 1.35102 1.17473
 C195 C 1.13235 1.34242 1.15752
 C196 C 1.14963 1.35101 1.14892
 C197 C 1.17559 1.37657 1.14908
 C198 C 1.18454 1.36798 1.13195
 C199 C 1.17562 1.35084 1.12337
 C200 C 1.15832 1.34232 1.13174
 C201 C 1.14971 1.32510 1.12330
 C202 C 1.13253 1.31635 1.13183
 C203 C 1.12391 1.32520 1.14892
 H204 H 1.15648 1.38980 1.18146
 H205 H 1.11067 1.34426 1.18130
 H206 H 1.18211 1.38974 1.15599
 H207 H 1.18216 1.34392 1.11020
 H208 H 1.15653 1.31844 1.11015
 H209 H 1.11069 1.31863 1.15568
 C210 C 1.15880 0.86773 0.65807
 C211 C 1.15017 0.87618 0.67528
 C212 C 1.13299 0.86765 0.68405
 C213 C 1.12441 0.85054 0.67521
 C214 C 1.13287 0.84194 0.65800
 C215 C 1.15014 0.85054 0.64940
 C216 C 1.17608 0.87612 0.64954
 C217 C 1.18502 0.86754 0.63240
 C218 C 1.17611 0.85038 0.62383
 C219 C 1.15883 0.84186 0.63222
 C220 C 1.15022 0.82463 0.62378
 C221 C 1.13304 0.81587 0.63231
 C222 C 1.12443 0.82472 0.64941
 H223 H 1.15696 0.88935 0.68193
 H224 H 1.11119 0.84378 0.68179
 H225 H 1.18260 0.88930 0.65644
 H226 H 1.18266 0.84348 0.61066
 H227 H 1.15704 0.81798 0.61062
 H228 H 1.11121 0.81815 0.65617
 C229 C 0.34270 0.63141 0.65728
 C230 C 0.35127 0.62299 0.67453
 C231 C 0.36837 0.63158 0.68337
 C232 C 0.37695 0.64872 0.67457
 C233 C 0.36855 0.65730 0.65732
 C234 C 0.35135 0.64864 0.64864
 C235 C 0.32547 0.62299 0.64869
 C236 C 0.31666 0.63159 0.63156
 C237 C 0.32546 0.64872 0.62299
 C238 C 0.34270 0.65730 0.63142
 C239 C 0.35126 0.67456 0.62302
 C240 C 0.36837 0.68339 0.63163
 C241 C 0.37695 0.67456 0.64876
 H242 H 0.34448 0.60981 0.68114
 H243 H 0.39011 0.65552 0.68121
 H244 H 0.31886 0.60981 0.65548
 H245 H 0.31884 0.65553 0.60981
 H246 H 0.34446 0.68119 0.60984
 H247 H 0.39011 0.68119 0.65557
 C248 C 0.34210 0.13189 1.15848
 C249 C 0.35064 0.12349 1.17576
 C250 C 0.36779 0.13205 1.18468
 C251 C 0.37637 0.14918 1.17574
 C252 C 0.36798 0.15772 1.15846
 C253 C 0.35079 0.14907 1.14980
 C254 C 0.32487 0.12347 1.14987
 C255 C 0.31610 0.13202 1.13270
 C256 C 0.32495 0.14912 1.12409
 C257 C 0.34217 0.15769 1.13253
 C258 C 0.35078 0.17491 1.12408
 C259 C 0.36789 0.18373 1.13268
 C260 C 0.37643 0.17494 1.14985
 H261 H 0.34372 0.11033 1.18230
 H262 H 0.38955 0.15608 1.18227
 H263 H 0.31822 0.11031 1.15668
 H264 H 0.31837 0.15589 1.11088
 H265 H 0.34401 0.18150 1.11087
 H266 H 0.38960 0.18157 1.15665
 C267 C 0.84265 0.63147 1.15726
 C268 C 0.85126 0.62303 1.17448
 C269 C 0.86840 0.63160 1.18328
 C270 C 0.87698 0.64873 1.17445
 C271 C 0.86853 0.65733 1.15723
 C272 C 0.85129 0.64869 1.14860
 C273 C 0.82539 0.62307 1.14871
 C274 C 0.81653 0.63169 1.13162
 C275 C 0.82533 0.64882 1.12302
 C276 C 0.84260 0.65737 1.13141
 C277 C 0.85116 0.67463 1.12300
 C278 C 0.86830 0.68343 1.13156
 C279 C 0.87693 0.67458 1.14865
 H280 H 0.84447 0.60985 1.18111
 H281 H 0.89016 0.65552 1.18106
 H282 H 0.81877 0.60990 1.15552
 H283 H 0.81868 0.65564 1.10987
 H284 H 0.84433 0.68128 1.10985
 H285 H 0.89011 0.68119 1.15544
 C286 C 0.84043 0.13300 0.65948
 C287 C 0.84901 0.12458 0.67674
 C288 C 0.86622 0.13309 0.68559
 C289 C 0.87481 0.15020 0.67663
 C290 C 0.86638 0.15876 0.65938
 C291 C 0.84913 0.15015 0.65077
 C292 C 0.82316 0.12459 0.65091
 C293 C 0.81430 0.13312 0.63371
 C294 C 0.82325 0.15023 0.62511
 C295 C 0.84051 0.15877 0.63352
 C296 C 0.84915 0.17595 0.62503
 C297 C 0.86632 0.18472 0.63356
 C298 C 0.87487 0.17593 0.65072
 H299 H 0.84209 0.11143 0.68330
 H300 H 0.88803 0.15706 0.68310
 H301 H 0.81661 0.11144 0.65783
 H302 H 0.81677 0.15710 0.61189
 H303 H 0.84239 0.18255 0.61182
 H304 H 0.88808 0.18251 0.65748
 C305 C 1.36711 0.34052 0.65953
 C306 C 1.37551 0.34908 0.67682
 C307 C 1.36699 0.36628 0.68569
 C308 C 1.34988 0.37488 0.67673
 C309 C 1.34134 0.36647 0.65946
 C310 C 1.34997 0.34923 0.65083
 C311 C 1.37553 0.32326 0.65096
 C312 C 1.36702 0.31442 0.63374
 C313 C 1.34991 0.32338 0.62514
 C314 C 1.34136 0.34063 0.63357
 C315 C 1.32419 0.34929 0.62508
 C316 C 1.31540 0.36644 0.63363
 C317 C 1.32417 0.37497 0.65080
 H318 H 1.38866 0.34216 0.68338
 H319 H 1.34302 0.38809 0.68321
 H320 H 1.38868 0.31670 0.65788
 H321 H 1.34305 0.31692 0.61191
 H322 H 1.31760 0.34253 0.61186
 H323 H 1.31757 0.38817 0.65757
 C324 C 1.36785 0.84135 1.15795
 C325 C 1.37630 0.84999 1.17516
 C326 C 1.36780 0.86720 1.18389
 C327 C 1.35071 0.87581 1.17502
 C328 C 1.34210 0.86734 1.15783
 C329 C 1.35068 0.85004 1.14925
 C330 C 1.37620 0.82403 1.14945
 C331 C 1.36761 0.81509 1.13232
 C332 C 1.35048 0.82403 1.12373
 C333 C 1.34198 0.84135 1.13208
 C334 C 1.32477 0.84998 1.12362
 C335 C 1.31604 0.86718 1.13213
 C336 C 1.32490 0.87580 1.14921
 H337 H 1.38945 0.84317 1.18182
 H338 H 1.34397 0.88905 1.18157
 H339 H 1.38936 0.81750 1.15637
 H340 H 1.34356 0.81749 1.11057
 H341 H 1.31811 0.84316 1.11048
 H342 H 1.31835 0.88904 1.15596
 C343 C 0.86785 0.34133 1.15798
 C344 C 0.87632 0.34996 1.17518
 C345 C 0.86779 0.36714 1.18396
 C346 C 0.85066 0.37572 1.17515
 C347 C 0.84203 0.36725 1.15796
 C348 C 0.85063 0.34998 1.14934
 C349 C 0.87623 0.32405 1.14945
 C350 C 0.86763 0.31511 1.13233
 C351 C 0.85045 0.32400 1.12378
 C352 C 0.84192 0.34129 1.13218
 C353 C 0.82467 0.34989 1.12377
 C354 C 0.81592 0.36706 1.13232
 C355 C 0.82479 0.37568 1.14939
 H356 H 0.88950 0.34317 1.18180
 H357 H 0.84390 0.38893 1.18174
 H358 H 0.88943 0.31754 1.15633
 H359 H 0.84352 0.31746 1.11063
 H360 H 0.81800 0.34307 1.11063
 H361 H 0.81822 0.38889 1.15617
 C362 C 0.86837 0.84251 0.65748
 C363 C 0.87678 0.85109 0.67472
 C364 C 0.86819 0.86822 0.68353
 C365 C 0.85107 0.87681 0.67470
 C366 C 0.84250 0.86838 0.65746
 C367 C 0.85115 0.85116 0.64881
 C368 C 0.87678 0.82526 0.64891
 C369 C 0.86820 0.81643 0.63178
 C370 C 0.85108 0.82525 0.62319
 C371 C 0.84250 0.84250 0.63160
 C372 C 0.82526 0.85107 0.62317
 C373 C 0.81644 0.86820 0.63175
 C374 C 0.82526 0.87680 0.64887
 H375 H 0.88995 0.84430 0.68135
 H376 H 0.84427 0.88998 0.68132
 H377 H 0.88996 0.81864 0.65571
 H378 H 0.84428 0.81862 0.61002
 H379 H 0.81864 0.84427 0.61000
 H380 H 0.81863 0.88997 0.65567
 C381 C 0.63171 0.65762 0.65762
 C382 C 0.62329 0.64905 0.67487
 C383 C 0.63188 0.63193 0.68370
 C384 C 0.64901 0.62334 0.67489
 C385 C 0.65759 0.63175 0.65763
 C386 C 0.64894 0.64897 0.64897
 C387 C 0.62330 0.67486 0.64903
 C388 C 0.63189 0.68368 0.63190
 C389 C 0.64902 0.67486 0.62332
 C390 C 0.65759 0.65762 0.63175
 C391 C 0.67484 0.64904 0.62333
 C392 C 0.68366 0.63192 0.63193
 C393 C 0.67484 0.62333 0.64906
 H394 H 0.61012 0.65585 0.68149
 H395 H 0.65580 0.61017 0.68152
 H396 H 0.61012 0.68149 0.65583
 H397 H 0.65582 0.68148 0.61014
 H398 H 0.68146 0.65584 0.61015
 H399 H 0.68146 0.61016 0.65586
 C400 C 0.63203 1.15862 1.15786
 C401 C 0.62356 1.14998 1.17506
 C402 C 0.63210 1.13281 1.18383
 C403 C 0.64923 1.12424 1.17502
 C404 C 0.65785 1.13272 1.15782
 C405 C 0.64925 1.14999 1.14921
 C406 C 0.62364 1.17591 1.14934
 C407 C 0.63224 1.18487 1.13222
 C408 C 0.64941 1.17598 1.12367
 C409 C 0.65795 1.15869 1.13205
 C410 C 0.67520 1.15011 1.12363
 C411 C 0.68396 1.13293 1.13217
 C412 C 0.67509 1.12430 1.14924
 H413 H 0.61038 1.15677 1.18169
 H414 H 0.65599 1.11103 1.18160
 H415 H 0.61044 1.18241 1.15623
 H416 H 0.65634 1.18254 1.11051
 H417 H 0.68186 1.15694 1.11049
 H418 H 0.68167 1.11108 1.15601
 C419 C 0.13258 0.65926 1.15919
 C420 C 0.12415 0.65068 1.17645
 C421 C 0.13266 0.63345 1.18528
 C422 C 0.14976 0.62485 1.17631
 C423 C 0.15831 0.63329 1.15906
 C424 C 0.14972 0.65056 1.15047
 C425 C 0.12419 0.67655 1.15065
 C426 C 0.13272 0.68544 1.13345
 C427 C 0.14983 0.67648 1.12484
 C428 C 0.15836 0.65920 1.13324
 C429 C 0.17553 0.65055 1.12474
 C430 C 0.18429 0.63336 1.13326
 C431 C 0.17549 0.62480 1.15041
 H432 H 0.11101 0.65760 1.18302
 H433 H 0.15661 0.61161 1.18276
 H434 H 0.11104 0.68311 1.15757
 H435 H 0.15670 0.68297 1.11163
 H436 H 0.18215 0.65732 1.11155
 H437 H 0.18206 0.61157 1.15716
 C438 C 0.13179 1.15773 0.65839
 C439 C 0.12342 1.14920 0.67570
 C440 C 0.13200 1.13205 0.68461
 C441 C 0.14911 1.12345 0.67565
 C442 C 0.15763 1.13183 0.65836
 C443 C 0.14896 1.14903 0.64969
 C444 C 0.12336 1.17496 0.64979
 C445 C 0.13189 1.18372 0.63260
 C446 C 0.14897 1.17486 0.62397
 C447 C 0.15756 1.15763 0.63241
 C448 C 0.17476 1.14902 0.62394
 C449 C 0.18359 1.13191 0.63253
 C450 C 0.17483 1.12338 0.64972
 H451 H 0.11027 1.15612 0.68225
 H452 H 0.15602 1.11027 0.68217
 H453 H 0.11022 1.18162 0.65662
 H454 H 0.15573 1.18143 0.61075
 H455 H 0.18133 1.15578 0.61072
 H456 H 0.18147 1.11021 0.65652
 C457 C 1.36744 0.65924 0.34103
 C458 C 1.37586 0.65065 0.32377
 C459 C 1.36736 0.63342 0.31494
 C460 C 1.35026 0.62483 0.32392
 C461 C 1.34170 0.63327 0.34116
 C462 C 1.35029 0.65055 0.34975
 C463 C 1.37582 0.67653 0.34956
 C464 C 1.36729 0.68542 0.36675
 C465 C 1.35018 0.67647 0.37536
 C466 C 1.34165 0.65919 0.36698
 C467 C 1.32448 0.65054 0.37548
 C468 C 1.31572 0.63336 0.36696
 C469 C 1.32453 0.62479 0.34982
 H470 H 1.38900 0.65756 0.31720
 H471 H 1.34341 0.61159 0.31747
 H472 H 1.38897 0.68309 0.34263
 H473 H 1.34330 0.68297 0.38857
 H474 H 1.31786 0.65733 0.38867
 H475 H 1.31795 0.61157 0.34308
 C476 C 1.36781 1.15876 0.84200
 C477 C 1.37625 1.15017 0.82476
 C478 C 1.36772 1.13299 0.81599
 C479 C 1.35063 1.12438 0.82484
 C480 C 1.34204 1.13281 0.84207
 C481 C 1.35064 1.15007 0.85069
 C482 C 1.37619 1.17604 0.85054
 C483 C 1.36762 1.18495 0.86771
 C484 C 1.35049 1.17600 0.87629
 C485 C 1.34197 1.15872 0.86790
 C486 C 1.32476 1.15009 0.87635
 C487 C 1.31600 1.13291 0.86780
 C488 C 1.32484 1.12434 0.85069
 H489 H 1.38940 1.15698 0.81811
 H490 H 1.34388 1.11116 0.81826
 H491 H 1.38935 1.18259 0.84363
 H492 H 1.34359 1.18251 0.88948
 H493 H 1.31812 1.15688 0.88952
 H494 H 1.31827 1.11112 0.84392
 C495 C 0.86794 0.65786 0.84225
 C496 C 0.87637 0.64927 0.82501
 C497 C 0.86779 0.63214 0.81620
 C498 C 0.85066 0.62357 0.82502
 C499 C 0.84207 0.63199 0.84225
 C500 C 0.85072 0.64921 0.85091
 C501 C 0.87635 0.67511 0.85083
 C502 C 0.86776 0.68393 0.86795
 C503 C 0.85063 0.67512 0.87653
 C504 C 0.84205 0.65788 0.86812
 C505 C 0.82481 0.64930 0.87654
 C506 C 0.81600 0.63217 0.86796
 C507 C 0.82483 0.62358 0.85083
 H508 H 0.88955 0.65607 0.81839
 H509 H 0.84387 0.61039 0.81840
 H510 H 0.88953 0.68172 0.84403
 H511 H 0.84382 0.68175 0.88971
 H512 H 0.81818 0.65611 0.88971
 H513 H 0.81821 0.61040 0.84404
 C514 C 0.86807 1.15785 0.34166
 C515 C 0.87648 1.14931 0.32439
 C516 C 0.86790 1.13217 0.31546
 C517 C 0.85074 1.12361 0.32437
 C518 C 0.84219 1.13202 0.34164
 C519 C 0.85086 1.14920 0.35031
 C520 C 0.87650 1.17507 0.35028
 C521 C 0.86794 1.18386 0.36743
 C522 C 0.85082 1.17505 0.37601
 C523 C 0.84222 1.15783 0.36756
 C524 C 0.82498 1.14925 0.37599
 C525 C 0.81615 1.13215 0.36738
 C526 C 0.82495 1.12359 0.35023
 H527 H 0.88967 1.15620 0.31788
 H528 H 0.84384 1.11044 0.31783
 H529 H 0.88968 1.18170 0.34348
 H530 H 0.84403 1.18164 0.38921
 H531 H 0.81838 1.15603 0.38919
 H532 H 0.81831 1.11044 0.34342
 C533 C 0.63197 0.34225 0.34175
 C534 C 0.62355 0.35082 0.32449
 C535 C 0.63212 0.36796 0.31556
 C536 C 0.64928 0.37651 0.32447
 C537 C 0.65784 0.36809 0.34173
 C538 C 0.64918 0.35090 0.35040
 C539 C 0.62354 0.32503 0.35035
 C540 C 0.63211 0.31622 0.36750
 C541 C 0.64923 0.32503 0.37608
 C542 C 0.65782 0.34225 0.36763
 C543 C 0.67506 0.35083 0.37606
 C544 C 0.68389 0.36793 0.36746
 C545 C 0.67509 0.37651 0.35031
 H546 H 0.61036 0.34393 0.31798
 H547 H 0.65618 0.38969 0.31794
 H548 H 0.61036 0.31841 0.34356
 H549 H 0.65602 0.31842 0.38927
 H550 H 0.68167 0.34403 0.38925
 H551 H 0.68172 0.38967 0.34351
 C552 C 0.63174 0.84239 0.84242
 C553 C 0.62332 0.85098 0.82518
 C554 C 0.63191 0.86810 0.81636
 C555 C 0.64903 0.87668 0.82518
 C556 C 0.65762 0.86825 0.84242
 C557 C 0.64896 0.85103 0.85108
 C558 C 0.62332 0.82514 0.85100
 C559 C 0.63191 0.81631 0.86813
 C560 C 0.64904 0.82512 0.87671
 C561 C 0.65762 0.84236 0.86830
 C562 C 0.67487 0.85093 0.87671
 C563 C 0.68368 0.86806 0.86813
 C564 C 0.67486 0.87666 0.85100
 H565 H 0.61015 0.84418 0.81856
 H566 H 0.65583 0.88985 0.81856
 H567 H 0.61015 0.81853 0.84420
 H568 H 0.65584 0.81849 0.88988
 H569 H 0.68149 0.84413 0.88988
 H570 H 0.68148 0.88983 0.84420
 C571 C 0.13217 0.34121 0.84202
 C572 C 0.12374 0.34982 0.82478
 C573 C 0.13228 0.36700 0.81602
 C574 C 0.14936 0.37561 0.82488
 C575 C 0.15794 0.36716 0.84211
 C576 C 0.14934 0.34989 0.85071
 C577 C 0.12378 0.32392 0.85054
 C578 C 0.13234 0.31500 0.86770
 C579 C 0.14946 0.32393 0.87630
 C580 C 0.15799 0.34122 0.86792
 C581 C 0.17519 0.34984 0.87638
 C582 C 0.18396 0.36702 0.86785
 C583 C 0.17514 0.37561 0.85074
 H584 H 0.11059 0.34302 0.81812
 H585 H 0.15612 0.38883 0.81831
 H586 H 0.11062 0.31739 0.84362
 H587 H 0.15635 0.31741 0.88949
 H588 H 0.18182 0.34304 0.88956
 H589 H 0.18172 0.38883 0.84398
 C590 C 0.13264 0.84083 0.34095
 C591 C 0.12420 0.84941 0.32370
 C592 C 0.13270 0.86662 0.31484
 C593 C 0.14981 0.87522 0.32378
 C594 C 0.15839 0.86679 0.34103
 C595 C 0.14979 0.84953 0.34964
 C596 C 0.12425 0.82355 0.34951
 C597 C 0.13279 0.81467 0.36670
 C598 C 0.14991 0.82362 0.37528
 C599 C 0.15844 0.84089 0.36687
 C600 C 0.17562 0.84954 0.37535
 C601 C 0.18438 0.86671 0.36681
 C602 C 0.17557 0.87527 0.34966
 H603 H 0.11105 0.84249 0.31714
 H604 H 0.15666 0.88845 0.31731
 H605 H 0.11109 0.81700 0.34260
 H606 H 0.15679 0.81713 0.38849
 H607 H 0.18224 0.84276 0.38854
 H608 H 0.18214 0.88849 0.34290
 O609 O 0.98055 0.92781 0.90032
 O610 O 0.98050 0.90453 0.87687
 C611 C 0.97371 0.92083 0.88398
 C612 C 0.95740 0.93159 0.87345
 C613 C 0.95078 0.92518 0.85452
 H614 H 0.95812 0.91260 0.84736
 O615 O 1.01957 1.07230 0.90015
 O616 O 1.01964 1.09560 0.87672
 C617 C 1.02643 1.07929 0.88383
 C618 C 1.04278 1.06856 0.87331
 C619 C 1.04946 1.07502 0.85442
 H620 H 1.04213 1.08760 0.84726
 O621 O 0.90028 0.98069 0.92772
 O622 O 0.87684 0.98064 0.90443
 C623 C 0.88395 0.97385 0.92074
 C624 C 0.87341 0.95754 0.93150
 C625 C 0.85450 0.95091 0.92508
 H626 H 0.84735 0.95823 0.91249
 O627 O 1.09984 1.01954 0.92774
 O628 O 1.12330 1.01955 0.90447
 C629 C 1.11618 1.02636 0.92076
 C630 C 1.12670 1.04268 0.93151
 C631 C 1.14560 1.04936 0.92506
 H632 H 1.15275 1.04206 0.91246
 O633 O 0.92769 0.90046 0.98056
 O634 O 0.90439 0.87705 0.98054
 C635 C 0.92069 0.88414 0.97373
 C636 C 0.93142 0.87360 0.95739
 C637 C 0.92496 0.85470 0.95076
 H638 H 0.91237 0.84757 0.95809
 O639 O 1.07233 1.09972 0.98050
 O640 O 1.09564 1.12313 0.98049
 C641 C 1.07935 1.11604 0.97365
 C642 C 1.06866 1.12656 0.95728
 C643 C 1.07516 1.14543 0.95058
 H644 H 1.08776 1.15255 0.95791
 O645 O 0.92769 1.01974 0.90019
 O646 O 0.90438 1.01973 0.87678
 C647 C 0.92067 1.02656 0.88386
 C648 C 0.93136 1.04291 0.87331
 C649 C 0.92475 1.04968 0.85450
 H650 H 0.91209 1.04242 0.84743
 O651 O 1.07240 0.98050 0.90029
 O652 O 1.09571 0.98046 0.87687
 C653 C 1.07940 0.97366 0.88397
 C654 C 1.06868 0.95733 0.87343
 C655 C 1.07516 0.95066 0.85454
 H656 H 1.08776 0.95798 0.84741
 O657 O 1.01959 0.90029 0.92773
 O658 O 1.01958 0.87686 0.90443
 C659 C 1.02640 0.88395 0.92074
 C660 C 1.04272 0.87340 0.93148
 C661 C 1.04942 0.85452 0.92500
 H662 H 1.04214 0.84740 0.91236
 O663 O 0.98054 1.09978 0.92760
 O664 O 0.98056 1.12323 0.90432
 C665 C 0.97374 1.11613 0.92062
 C666 C 0.95743 1.12669 0.93136
 C667 C 0.95077 1.14557 0.92488
 H668 H 0.95808 1.15268 0.91225
 O669 O 0.90034 1.07253 0.98048
 O670 O 0.87694 1.09585 0.98047
 C671 C 0.88402 1.07955 0.97365
 C672 C 0.87348 1.06886 0.95729
 C673 C 0.85464 1.07539 0.95056
 H674 H 0.84752 1.08802 0.95785
 O675 O 1.09972 0.92762 0.98058
 O676 O 1.12315 0.90433 0.98057
 C677 C 1.11605 0.92062 0.97375
 C678 C 1.12658 0.93134 0.95739
 C679 C 1.14545 0.92483 0.95069
 H680 H 1.15256 0.91221 0.95799
 O681 O 0.98049 1.07243 0.90007
 O682 O 0.98050 1.09574 0.87665
 C683 C 0.97365 1.07945 0.88375
 C684 C 0.95726 1.06879 0.87325
 C685 C 0.95044 1.07536 0.85444
 H686 H 0.95770 1.08801 0.84731
 O687 O 1.01963 0.92773 0.90029
 O688 O 1.01962 0.90445 0.87685
 C689 C 1.02645 0.92073 0.88396
 C690 C 1.04280 0.93144 0.87342
 C691 C 1.04948 0.92498 0.85453
 H692 H 1.04217 0.91238 0.84739
 O693 O 1.09979 0.98046 0.92777
 O694 O 1.12325 0.98043 0.90448
 C695 C 1.11612 0.97361 0.92078
 C696 C 1.12662 0.95725 0.93150
 C697 C 1.14548 0.95053 0.92501
 H698 H 1.15262 0.95784 0.91240
 O699 O 0.90031 1.01977 0.92769
 O700 O 0.87687 1.01975 0.90441
 C701 C 0.88398 1.02659 0.92069
 C702 C 0.87347 1.04296 0.93140
 C703 C 0.85462 1.04969 0.92488
 H704 H 0.84750 1.04240 0.91226
 O705 O 0.92783 1.09991 0.98050
 O706 O 0.90456 1.12336 0.98048
 C707 C 0.92085 1.11624 0.97366
 C708 C 0.93158 1.12675 0.95730
 C709 C 0.92512 1.14563 0.95061
 H710 H 0.91253 1.15279 0.95793
 O711 O 1.07225 0.90022 0.98061
 O712 O 1.09555 0.87680 0.98061
 C713 C 1.07926 0.88390 0.97378
 C714 C 1.06855 0.87337 0.95743
 C715 C 1.07504 0.85450 0.95075
 H716 H 1.08763 0.84737 0.95808
 O717 O 1.07243 1.01957 0.90027
 O718 O 1.09574 1.01957 0.87685
 C719 C 1.07944 1.02639 0.88394
 C720 C 1.06871 1.04271 0.87337
 C721 C 1.07519 1.04937 0.85448
 H722 H 1.08781 1.04207 0.84736
 O723 O 0.92776 0.98066 0.90030
 O724 O 0.90446 0.98061 0.87687
 C725 C 0.92077 0.97381 0.88398
 C726 C 0.93151 0.95749 0.87344
 C727 C 0.92510 0.95087 0.85452
 H728 H 0.91252 0.95821 0.84736
 O729 O 1.01961 1.09974 0.92758
 O730 O 1.01968 1.12318 0.90429
 C731 C 1.02647 1.11606 0.92059
 C732 C 1.04281 1.12657 0.93133
 C733 C 1.04952 1.14543 0.92485
 H734 H 1.04223 1.15256 0.91222
 O735 O 0.98052 0.90037 0.92776
 O736 O 0.98046 0.87694 0.90446
 C737 C 0.97366 0.88406 0.92076
 C738 C 0.95732 0.87355 0.93150
 C739 C 0.95066 0.85466 0.92507
 H740 H 0.95798 0.84750 0.91248
 O741 O 1.09977 1.07229 0.98056
 O742 O 1.12321 1.09557 0.98056
 C743 C 1.11611 1.07927 0.97375
 C744 C 1.12667 1.06855 0.95743
 C745 C 1.14556 1.07502 0.95078
 H746 H 1.15268 1.08761 0.95812
 O747 O 0.90028 0.92793 0.98059
 O748 O 0.87685 0.90465 0.98057
 C749 C 0.88395 0.92094 0.97376
 C750 C 0.87341 0.93168 0.95743
 C751 C 0.85450 0.92525 0.95081
 H752 H 0.84736 0.91267 0.95816
 Cu753 Cu 1.00008 0.91639 0.91636
 Cu754 Cu 1.00003 0.88835 0.88831
 Cu755 Cu 1.00005 1.08372 0.91618
 Cu756 Cu 1.00010 1.11178 0.88814
 Cu757 Cu 0.91634 1.00022 0.91631
 Cu758 Cu 0.88829 1.00017 0.88827
 Cu759 Cu 1.08378 1.00002 0.91635
 Cu760 Cu 1.11185 1.00000 0.88832
 C761 C 0.94778 0.94787 0.88268
 H762 H 0.95264 0.95272 0.89739
 C763 C 0.93464 0.93473 0.84489
 C764 C 1.05238 1.05229 0.88256
 H765 H 1.04748 1.04740 0.89725
 C766 C 1.06566 1.06551 0.84484
 C767 C 0.88264 0.94795 0.94780
 H768 H 0.89734 0.95282 0.95266
 C769 C 0.84488 0.93477 0.93465
 C770 C 1.11747 1.05226 0.94781
 H771 H 1.10278 1.04736 0.95269
 C772 C 1.15518 1.06552 0.93461
 C773 C 0.94772 0.88280 0.94779
 H774 H 0.95261 0.89749 0.95266
 C775 C 0.93449 0.84507 0.93461
 C776 C 1.05236 1.11735 0.94767
 H777 H 1.04744 1.10269 0.95258
 C778 C 1.06568 1.15502 0.93438
 C779 C 0.94773 1.05244 0.88245
 H780 H 0.95272 1.04747 0.89708
 C781 C 0.93420 1.06590 0.84491
 C782 C 1.05238 0.94774 0.88264
 H783 H 1.04748 0.95264 0.89732
 C784 C 1.06565 0.93450 0.84493
 C785 C 1.05227 0.88259 0.94782
 H786 H 1.04736 0.89726 0.95272
 C787 C 1.06557 0.84492 0.93454
 C788 C 0.94786 1.11750 0.94770
 H789 H 0.95274 1.10283 0.95261
 C790 C 0.93462 1.15520 0.93441
 C791 C 0.88267 1.05252 0.94772
 H792 H 0.89732 1.04758 0.95266
 C793 C 0.84504 1.06590 0.93437
 C794 C 1.11740 0.94767 0.94782
 H795 H 1.10274 0.95260 0.95274
 C796 C 1.15506 0.93433 0.93451
 O797 O 1.01957 0.92771 1.10003
 O798 O 1.01952 0.90441 1.12345
 C799 C 1.02637 0.92070 1.11636
 C800 C 1.04272 0.93137 1.12691
 C801 C 1.04946 0.92481 1.14575
 H802 H 1.04216 0.91217 1.15284
 O803 O 0.98055 1.07242 1.10001
 O804 O 0.98053 1.09572 1.12343
 C805 C 0.97371 1.07942 1.11633
 C806 C 0.95737 1.06871 1.12687
 C807 C 0.95070 1.07517 1.14576
 H808 H 0.95802 1.08776 1.15291
 O809 O 0.90032 1.01973 1.07247
 O810 O 0.87688 1.01978 1.09576
 C811 C 0.88400 1.02658 1.07946
 C812 C 0.87348 1.04292 1.06871
 C813 C 0.85459 1.04961 1.07515
 H814 H 0.84744 1.04231 1.08776
 O815 O 1.09968 0.98043 1.07258
 O816 O 1.12315 0.98041 1.09583
 C817 C 1.11602 0.97360 1.07954
 C818 C 1.12655 0.95728 1.06878
 C819 C 1.14546 0.95062 1.07520
 H820 H 1.15261 0.95792 1.08780
 O821 O 1.07232 0.90018 1.01972
 O822 O 1.09562 0.87677 1.01975
 C823 C 1.07933 0.88387 1.02658
 C824 C 1.06864 0.87337 1.04297
 C825 C 1.07519 0.85455 1.04975
 H826 H 1.08782 0.84742 1.04248
 O827 O 0.92781 1.09990 1.01960
 O828 O 0.90454 1.12335 1.01962
 C829 C 0.92082 1.11622 1.02645
 C830 C 0.93153 1.12673 1.04282
 C831 C 0.92503 1.14559 1.04952
 H832 H 0.91244 1.15273 1.04219
 O833 O 0.92771 0.98062 1.09993
 O834 O 0.90441 0.98062 1.12336
 C835 C 0.92070 0.97379 1.11625
 C836 C 0.93140 0.95743 1.12678
 C837 C 0.92490 0.95074 1.14566
 H838 H 0.91230 0.95805 1.15279
 O839 O 1.07229 1.01953 1.10005
 O840 O 1.09562 1.01955 1.12344
 C841 C 1.07932 1.02638 1.11635
 C842 C 1.06865 1.04277 1.12687
 C843 C 1.07522 1.04951 1.14570
 H844 H 1.08784 1.04219 1.15281
 O845 O 0.98052 0.90035 1.07249
 O846 O 0.98044 0.87690 1.09577
 C847 C 0.97367 0.88403 1.07946
 C848 C 0.95736 0.87351 1.06868
 C849 C 0.95076 0.85457 1.07504
 H850 H 0.95810 0.84739 1.08761
 O851 O 1.01960 1.09982 1.07252
 O852 O 1.01962 1.12328 1.09578
 C853 C 1.02642 1.11616 1.07948
 C854 C 1.04273 1.12669 1.06870
 C855 C 1.04938 1.14560 1.07510
 H856 H 1.04207 1.15277 1.08769
 O857 O 0.90026 0.92788 1.01968
 O858 O 0.87684 0.90459 1.01970
 C859 C 0.88394 0.92089 1.02652
 C860 C 0.87341 0.93161 1.04287
 C861 C 0.85454 0.92513 1.04957
 H862 H 0.84741 0.91252 1.04226
 O863 O 1.09970 1.07229 1.01966
 O864 O 1.12314 1.09557 1.01969
 C865 C 1.11602 1.07928 1.02651
 C866 C 1.12654 1.06855 1.04285
 C867 C 1.14544 1.07499 1.04951
 H868 H 1.15259 1.08757 1.04218
 O869 O 1.01963 1.07243 1.10002
 O870 O 1.01966 1.09575 1.12343
 C871 C 1.02647 1.07944 1.11633
 C872 C 1.04283 1.06873 1.12686
 C873 C 1.04960 1.07527 1.14570
 H874 H 1.04236 1.08792 1.15281
 O875 O 0.98049 0.92778 1.09995
 O876 O 0.98040 0.90446 1.12337
 C877 C 0.97362 0.92078 1.11627
 C878 C 0.95727 0.93151 1.12679
 C879 C 0.95057 0.92503 1.14566
 H880 H 0.95787 0.91241 1.15279
 O881 O 1.09967 1.01950 1.07255
 O882 O 1.12314 1.01952 1.09581
 C883 C 1.11601 1.02633 1.07951
 C884 C 1.12653 1.04266 1.06876
 C885 C 1.14543 1.04930 1.07520
 H886 H 1.15257 1.04197 1.08780
 O887 O 0.90028 0.98066 1.07249
 O888 O 0.87683 0.98066 1.09578
 C889 C 0.88394 0.97384 1.07949
 C890 C 0.87341 0.95750 1.06876
 C891 C 0.85454 0.95082 1.07525
 H892 H 0.84741 0.95813 1.08786
 O893 O 1.07229 1.09976 1.01960
 O894 O 1.09560 1.12318 1.01962
 C895 C 1.07929 1.11609 1.02643
 C896 C 1.06857 1.12665 1.04275
 C897 C 1.07501 1.14556 1.04934
 H898 H 1.08758 1.15270 1.04197
 O899 O 0.92773 0.90047 1.01965
 O900 O 0.90443 0.87704 1.01966
 C901 C 0.92074 0.88413 1.02647
 C902 C 0.93148 0.87356 1.04277
 C903 C 0.92508 0.85462 1.04934
 H904 H 0.91252 0.84748 1.04197
 O905 O 1.07231 0.98044 1.10009
 O906 O 1.09564 0.98041 1.12349
 C907 C 1.07933 0.97360 1.11641
 C908 C 1.06863 0.95724 1.12694
 C909 C 1.07517 0.95046 1.14577
 H910 H 1.08781 0.95772 1.15290
 O911 O 0.92772 1.01970 1.09996
 O912 O 0.90442 1.01974 1.12339
 C913 C 0.92072 1.02653 1.11629
 C914 C 0.93146 1.04285 1.12684
 C915 C 0.92499 1.04951 1.14574
 H916 H 0.91238 1.04221 1.15287
 O917 O 0.98053 1.09983 1.07254
 O918 O 0.98051 1.12328 1.09582
 C919 C 0.97369 1.11617 1.07953
 C920 C 0.95736 1.12670 1.06878
 C921 C 0.95065 1.14557 1.07527
 H922 H 0.95793 1.15269 1.08790
 O923 O 1.01960 0.90030 1.07257
 O924 O 1.01955 0.87686 1.09586
 C925 C 1.02640 0.88396 1.07958
 C926 C 1.04276 0.87342 1.06888
 C927 C 1.04951 0.85460 1.07546
 H928 H 1.04223 0.84751 1.08811
 O929 O 1.09967 0.92769 1.01968
 O930 O 1.12311 0.90441 1.01970
 C931 C 1.11600 0.92071 1.02651
 C932 C 1.12653 0.93144 1.04284
 C933 C 1.14544 0.92499 1.04946
 H934 H 1.15258 0.91241 1.04210
 O935 O 0.90037 1.07247 1.01958
 O936 O 0.87697 1.09579 1.01960
 C937 C 0.88406 1.07948 1.02642
 C938 C 0.87351 1.06877 1.04276
 C939 C 0.85462 1.07525 1.04941
 H940 H 0.84750 1.08784 1.04206
 Cu941 Cu 1.00005 0.91637 1.08393
 Cu942 Cu 0.99996 0.88831 1.11196
 Cu943 Cu 1.00008 1.08379 1.08394
 Cu944 Cu 1.00008 1.11186 1.11196
 Cu945 Cu 0.91632 0.91652 1.00012
 Cu946 Cu 0.88828 0.88849 1.00012
 Cu947 Cu 1.08365 0.91626 1.00015
 Cu948 Cu 1.11171 0.88823 1.00016
 Cu949 Cu 0.91642 1.08387 1.00004
 Cu950 Cu 0.88841 1.11194 1.00005
 Cu951 Cu 1.08369 1.08369 1.00008
 Cu952 Cu 1.11174 1.11171 1.00009
 Cu953 Cu 0.91634 1.00018 1.08388
 Cu954 Cu 0.88828 1.00020 1.11192
 Cu955 Cu 1.08364 0.99997 1.08399
 Cu956 Cu 1.11173 0.99997 1.11199
 C957 C 1.05229 0.94771 1.11774
 H958 H 1.04734 0.95268 1.10310
 C959 C 1.06567 0.93425 1.15534
 C960 C 0.94777 1.05242 1.11764
 H961 H 0.95267 1.04753 1.10295
 C962 C 0.93452 1.06566 1.15536
 C963 C 0.88272 1.05248 1.05239
 H964 H 0.89740 1.04758 1.04751
 C965 C 0.84500 1.06576 1.06559
 C966 C 1.11731 0.94771 1.05247
 H967 H 1.10262 0.95259 1.04761
 C968 C 1.15506 0.93448 1.06562
 C969 C 1.05231 0.88258 1.05252
 H970 H 1.04735 0.89721 1.04754
 C971 C 1.06572 0.84500 1.06599
 C972 C 0.94781 1.11750 1.05244
 H973 H 0.95273 1.10284 1.04752
 C974 C 0.93450 1.15518 1.06573
 C975 C 0.94771 0.94783 1.11757
 H976 H 0.95263 0.95274 1.10290
 C977 C 0.93440 0.93455 1.15526
 C978 C 1.05234 1.05235 1.11768
 H979 H 1.04737 1.04740 1.10304
 C980 C 1.06579 1.06575 1.15528
 C981 C 0.94775 0.88278 1.05242
 H982 H 0.95259 0.89750 1.04760
 C983 C 0.93463 0.84496 1.06546
 C984 C 1.05230 1.11744 1.05240
 H985 H 1.04743 1.10274 1.04756
 C986 C 1.06550 1.15520 1.06550
 C987 C 0.88262 0.94792 1.05245
 H988 H 0.89729 0.95282 1.04754
 C989 C 0.84494 0.93464 1.06575
 C990 C 1.11731 1.05226 1.05246
 H991 H 1.10262 1.04738 1.04758
 C992 C 1.15505 1.06545 1.06567
 O993 O 1.07240 0.51941 0.59971
 O994 O 1.09569 0.51944 0.62315
 C995 C 1.07939 0.52625 0.61604
 C996 C 1.06867 0.54259 0.62657
 C997 C 1.07516 0.54926 0.64545
 H998 H 1.08776 0.54194 0.65258
 O999 O 0.92769 0.48035 0.59971
 O1000 O 0.90440 0.48037 0.62315
 C1001 C 0.92069 0.47353 0.61605
 C1002 C 0.93139 0.45718 0.62659
 C1003 C 0.92487 0.45047 0.64546
 H1004 H 0.91225 0.45778 0.65257
 O1005 O 1.01966 0.59971 0.57227
 O1006 O 1.01966 0.62313 0.59558
 C1007 C 1.02649 0.61603 0.57928
 C1008 C 1.04282 0.62658 0.56855
 C1009 C 1.04950 0.64545 0.57503
 H1010 H 1.04221 0.65258 0.58765
 O1011 O 0.98045 0.40013 0.57230
 O1012 O 0.98045 0.37670 0.59561
 C1013 C 0.97362 0.38380 0.57931
 C1014 C 0.95726 0.37328 0.56861
 C1015 C 0.95051 0.35445 0.57516
 H1016 H 0.95778 0.34734 0.58781
 O1017 O 1.09980 0.57228 0.51941
 O1018 O 1.12325 0.59555 0.51948
 C1019 C 1.11613 0.57924 0.52626
 C1020 C 1.12665 0.56847 0.54257
 C1021 C 1.14559 0.57484 0.54917
 H1022 H 1.15275 0.58741 0.54182
 O1023 O 0.90025 0.42758 0.51951
 O1024 O 0.87683 0.40429 0.51949
 C1025 C 0.88392 0.42058 0.52633
 C1026 C 0.87339 0.43128 0.54269
 C1027 C 0.85454 0.42477 0.54942
 H1028 H 0.84743 0.41214 0.54214
 O1029 O 0.98058 0.57223 0.59967
 O1030 O 0.98053 0.59551 0.62311
 C1031 C 0.97373 0.57921 0.61600
 C1032 C 0.95740 0.56848 0.62653
 C1033 C 0.95075 0.57492 0.64544
 H1034 H 0.95808 0.58750 0.65259
 O1035 O 1.01952 0.42760 0.59971
 O1036 O 1.01957 0.40430 0.62314
 C1037 C 1.02637 0.42060 0.61604
 C1038 C 1.04271 0.43132 0.62657
 C1039 C 1.04937 0.42484 0.64546
 H1040 H 1.04204 0.41225 0.65259
 O1041 O 1.09988 0.48032 0.57231
 O1042 O 1.12329 0.48032 0.59563
 C1043 C 1.11620 0.47349 0.57932
 C1044 C 1.12674 0.45715 0.56862
 C1045 C 1.14558 0.45041 0.57518
 H1046 H 1.15267 0.45770 0.58782
 O1047 O 0.90031 0.51942 0.57222
 O1048 O 0.87687 0.51949 0.59552
 C1049 C 0.88398 0.52628 0.57920
 C1050 C 0.87346 0.54260 0.56845
 C1051 C 0.85454 0.54923 0.57487
 H1052 H 0.84739 0.54189 0.58745
 O1053 O 0.92779 0.59969 0.51942
 O1054 O 0.90450 0.62312 0.51945
 C1055 C 0.92080 0.61601 0.52626
 C1056 C 0.93154 0.62654 0.54259
 C1057 C 0.92513 0.64546 0.54921
 H1058 H 0.91255 0.65262 0.54186
 O1059 O 1.07247 0.40022 0.51948
 O1060 O 1.09575 0.37677 0.51952
 C1061 C 1.07944 0.38388 0.52632
 C1062 C 1.06867 0.37335 0.54265
 C1063 C 1.07510 0.35445 0.54931
 H1064 H 1.08770 0.34729 0.54201
 O1065 O 0.92774 0.51942 0.59966
 O1066 O 0.90445 0.51949 0.62310
 C1067 C 0.92076 0.52628 0.61599
 C1068 C 0.93150 0.54260 0.62652
 C1069 C 0.92506 0.54924 0.64543
 H1070 H 0.91246 0.54192 0.65258
 O1071 O 1.07237 0.48033 0.59970
 O1072 O 1.09565 0.48033 0.62315
 C1073 C 1.07936 0.47351 0.61604
 C1074 C 1.06862 0.45718 0.62657
 C1075 C 1.07508 0.45049 0.64547
 H1076 H 1.08769 0.45779 0.65261
 O1077 O 1.01953 0.40020 0.57223
 O1078 O 1.01957 0.37677 0.59552
 C1079 C 1.02638 0.38388 0.57922
 C1080 C 1.04272 0.37336 0.56849
 C1081 C 1.04934 0.35445 0.57494
 H1082 H 1.04198 0.34731 0.58752
 O1083 O 0.98059 0.59968 0.57223
 O1084 O 0.98055 0.62310 0.59554
 C1085 C 0.97375 0.61600 0.57923
 C1086 C 0.95743 0.62654 0.56848
 C1087 C 0.95081 0.64546 0.57490
 H1088 H 0.95815 0.65261 0.58748
 O1089 O 0.90035 0.57226 0.51941
 O1090 O 0.87692 0.59555 0.51944
 C1091 C 0.88402 0.57925 0.52624
 C1092 C 0.87348 0.56850 0.54256
 C1093 C 0.85456 0.57493 0.54919
 H1094 H 0.84742 0.58752 0.54185
 O1095 O 1.09997 0.42758 0.51949
 O1096 O 1.12339 0.40427 0.51954
 C1097 C 1.11628 0.42057 0.52635
 C1098 C 1.12679 0.43127 0.54272
 C1099 C 1.14562 0.42474 0.54948
 H1100 H 1.15275 0.41211 0.54219
 O1101 O 0.98044 0.42758 0.59974
 O1102 O 0.98045 0.40428 0.62317
 C1103 C 0.97362 0.42057 0.61607
 C1104 C 0.95727 0.43128 0.62661
 C1105 C 0.95054 0.42477 0.64547
 H1106 H 0.95783 0.41215 0.65260
 O1107 O 1.01965 0.57225 0.59970
 O1108 O 1.01965 0.59553 0.62315
 C1109 C 1.02648 0.57924 0.61604
 C1110 C 1.04281 0.56851 0.62658
 C1111 C 1.04950 0.57498 0.64546
 H1112 H 1.04220 0.58759 0.65260
 O1113 O 0.90026 0.48035 0.57227
 O1114 O 0.87683 0.48037 0.59558
 C1115 C 0.88393 0.47353 0.57928
 C1116 C 0.87340 0.45718 0.56858
 C1117 C 0.85455 0.45046 0.57511
 H1118 H 0.84743 0.45775 0.58774
 O1119 O 1.09979 0.51940 0.57222
 O1120 O 1.12322 0.51943 0.59552
 C1121 C 1.11611 0.52623 0.57921
 C1122 C 1.12665 0.54255 0.56845
 C1123 C 1.14559 0.54913 0.57485
 H1124 H 1.15275 0.54177 0.58741
 O1125 O 0.92769 0.40015 0.51952
 O1126 O 0.90440 0.37672 0.51950
 C1127 C 0.92068 0.38382 0.52635
 C1128 C 0.93137 0.37329 0.54271
 C1129 C 0.92482 0.35446 0.54947
 H1130 H 0.91219 0.34736 0.54218
 O1131 O 1.07240 0.59976 0.51941
 O1132 O 1.09572 0.62317 0.51948
 C1133 C 1.07941 0.61607 0.52628
 C1134 C 1.06869 0.62659 0.54263
 C1135 C 1.07516 0.64546 0.54931
 H1136 H 1.08776 0.65259 0.54198
 Cu1137 Cu 1.08378 0.49986 0.58365
 Cu1138 Cu 1.11181 0.49988 0.61171
 Cu1139 Cu 0.91633 0.49988 0.58363
 Cu1140 Cu 0.88829 0.49994 0.61169
 Cu1141 Cu 1.00013 0.58363 0.58363
 Cu1142 Cu 1.00009 0.61166 0.61170
 Cu1143 Cu 0.99998 0.41621 0.58366
 Cu1144 Cu 1.00002 0.38816 0.61171
 C1145 C 1.05238 0.55219 0.61736
 H1146 H 1.04747 0.54729 0.60268
 C1147 C 1.06566 0.56544 0.65506
 C1148 C 0.94771 0.44761 0.61740
 H1149 H 0.95264 0.45253 0.60274
 C1150 C 0.93435 0.43428 0.65505
 C1151 C 1.05239 0.61737 0.55223
 H1152 H 1.04749 0.60270 0.54732
 C1153 C 1.06567 0.65505 0.56550
 C1154 C 0.94771 0.38247 0.55226
 H1155 H 0.95267 0.39711 0.54731
 C1156 C 0.93429 0.34489 0.56569
 C1157 C 1.11741 0.55220 0.55219
 H1158 H 1.10269 0.54737 0.54735
 C1159 C 1.15522 0.56526 0.56529
 C1160 C 0.88259 0.44761 0.55225
 H1161 H 0.89724 0.45254 0.54731
 C1162 C 0.84496 0.43426 0.56563
 C1163 C 0.94779 0.55219 0.61729
 H1164 H 0.95267 0.54732 0.60260
 C1165 C 0.93459 0.56539 0.65505
 C1166 C 1.05231 0.44761 0.61735
 H1167 H 1.04742 0.45251 0.60267
 C1168 C 1.06554 0.43433 0.65507
 C1169 C 1.11758 0.44760 0.55227
 H1170 H 1.10294 0.45254 0.54731
 C1171 C 1.15518 0.43422 0.56570
 C1172 C 0.88270 0.55222 0.55218
 H1173 H 0.89740 0.54735 0.54732
 C1174 C 0.84493 0.56538 0.56533
 C1175 C 0.94782 0.61731 0.55220
 H1176 H 0.95267 0.60260 0.54734
 C1177 C 0.93467 0.65508 0.56535
 C1178 C 1.05236 0.38259 0.55222
 H1179 H 1.04750 0.39728 0.54734
 C1180 C 1.06552 0.34483 0.56545
 O1181 O 1.07249 0.48051 0.40020
 O1182 O 1.09577 0.48047 0.37674
 C1183 C 1.07947 0.47367 0.38386
 C1184 C 1.06873 0.45735 0.37333
 C1185 C 1.07515 0.45074 0.35441
 H1186 H 1.08771 0.45809 0.34725
 O1187 O 0.92791 0.51946 0.40020
 O1188 O 0.90465 0.51948 0.37673
 C1189 C 0.92094 0.52629 0.38385
 C1190 C 0.93170 0.54259 0.37331
 C1191 C 0.92532 0.54917 0.35436
 H1192 H 0.91276 0.54181 0.34719
 O1193 O 0.98066 0.59977 0.42760
 O1194 O 0.98061 0.62317 0.40428
 C1195 C 0.97380 0.61607 0.42059
 C1196 C 0.95745 0.62660 0.43130
 C1197 C 0.95078 0.64548 0.42482
 H1198 H 0.95811 0.65262 0.41223
 O1199 O 1.01975 0.40016 0.42764
 O1200 O 1.01978 0.37675 0.40433
 C1201 C 1.02659 0.38384 0.42063
 C1202 C 1.04293 0.37331 0.43134
 C1203 C 1.04963 0.35445 0.42483
 H1204 H 1.04233 0.34733 0.41222
 O1205 O 1.09995 0.42763 0.48039
 O1206 O 1.12337 0.40433 0.48039
 C1207 C 1.11627 0.42062 0.47356
 C1208 C 1.12680 0.43134 0.45720
 C1209 C 1.14565 0.42483 0.45047
 H1210 H 1.15278 0.41221 0.45775
 O1211 O 0.90035 0.57229 0.48032
 O1212 O 0.87692 0.59559 0.48030
 C1213 C 0.88403 0.57929 0.47348
 C1214 C 0.87351 0.56857 0.45713
 C1215 C 0.85463 0.57504 0.45044
 H1216 H 0.84749 0.58765 0.45774
 O1217 O 1.01978 0.57236 0.40018
 O1218 O 1.01976 0.59563 0.37672
 C1219 C 1.02660 0.57935 0.38384
 C1220 C 1.04296 0.56866 0.37331
 C1221 C 1.04968 0.57521 0.35447
 H1222 H 1.04238 0.58784 0.34737
 O1223 O 0.98067 0.42762 0.40022
 O1224 O 0.98066 0.40434 0.37678
 C1225 C 0.97384 0.42063 0.38388
 C1226 C 0.95752 0.43135 0.37334
 C1227 C 0.95087 0.42488 0.35444
 H1228 H 0.95820 0.41229 0.34731
 O1229 O 1.09999 0.51956 0.42760
 O1230 O 1.12341 0.51956 0.40429
 C1231 C 1.11631 0.52638 0.42059
 C1232 C 1.12683 0.54273 0.43131
 C1233 C 1.14569 0.54945 0.42481
 H1234 H 1.15283 0.54215 0.41220
 O1235 O 0.90040 0.48041 0.42762
 O1236 O 0.87701 0.48040 0.40428
 C1237 C 0.88408 0.47359 0.42060
 C1238 C 0.87352 0.45727 0.43132
 C1239 C 0.85463 0.45064 0.42486
 H1240 H 0.84750 0.45798 0.41226
 O1241 O 1.07248 0.59984 0.48032
 O1242 O 1.09579 0.62324 0.48034
 C1243 C 1.07950 0.61616 0.47350
 C1244 C 1.06881 0.62670 0.45713
 C1245 C 1.07536 0.64553 0.45036
 H1246 H 1.08800 0.65264 0.45763
 O1247 O 0.92776 0.40020 0.48043
 O1248 O 0.90448 0.37676 0.48037
 C1249 C 0.92079 0.38387 0.47358
 C1250 C 0.93155 0.37335 0.45726
 C1251 C 0.92512 0.35445 0.45059
 H1252 H 0.91251 0.34731 0.45789
 O1253 O 0.92785 0.48039 0.40018
 O1254 O 0.90459 0.48038 0.37671
 C1255 C 0.92088 0.47356 0.38384
 C1256 C 0.93161 0.45723 0.37331
 C1257 C 0.92517 0.45055 0.35442
 H1258 H 0.91257 0.45786 0.34726
 O1259 O 1.07258 0.51959 0.40013
 O1260 O 1.09587 0.51959 0.37669
 C1261 C 1.07958 0.52642 0.38380
 C1262 C 1.06888 0.54279 0.37328
 C1263 C 1.07540 0.54955 0.35444
 H1264 H 1.08804 0.54229 0.34730
 O1265 O 0.98067 0.40021 0.42769
 O1266 O 0.98066 0.37679 0.40438
 C1267 C 0.97384 0.38389 0.42068
 C1268 C 0.95749 0.37335 0.43140
 C1269 C 0.95086 0.35446 0.42494
 H1270 H 0.95820 0.34732 0.41236
 O1271 O 1.01974 0.59983 0.42758
 O1272 O 1.01972 0.62324 0.40425
 C1273 C 1.02656 0.61615 0.42055
 C1274 C 1.04291 0.62669 0.43124
 C1275 C 1.04965 0.64552 0.42468
 H1276 H 1.04236 0.65262 0.41204
 O1277 O 0.90030 0.42761 0.48042
 O1278 O 0.87688 0.40432 0.48035
 C1279 C 0.88399 0.42063 0.47356
 C1280 C 0.87347 0.43137 0.45722
 C1281 C 0.85458 0.42495 0.45055
 H1282 H 0.84742 0.41236 0.45786
 O1283 O 1.09988 0.57236 0.48032
 O1284 O 1.12332 0.59563 0.48036
 C1285 C 1.11622 0.57935 0.47352
 C1286 C 1.12677 0.56864 0.45719
 C1287 C 1.14564 0.57515 0.45050
 H1288 H 1.15274 0.58777 0.45780
 O1289 O 1.01974 0.42766 0.40025
 O1290 O 1.01977 0.40438 0.37679
 C1291 C 1.02657 0.42068 0.38390
 C1292 C 1.04287 0.43144 0.37335
 C1293 C 1.04950 0.42502 0.35442
 H1294 H 1.04218 0.41244 0.34727
 O1295 O 0.98071 0.57230 0.40019
 O1296 O 0.98065 0.59556 0.37672
 C1297 C 0.97387 0.57926 0.38384
 C1298 C 0.95758 0.56849 0.37330
 C1299 C 0.95099 0.57487 0.35435
 H1300 H 0.95833 0.58743 0.34718
 O1301 O 0.90039 0.51949 0.42757
 O1302 O 0.87700 0.51952 0.40424
 C1303 C 0.88408 0.52633 0.42055
 C1304 C 0.87354 0.54267 0.43125
 C1305 C 0.85466 0.54934 0.42476
 H1306 H 0.84754 0.54202 0.41215
 O1307 O 1.09996 0.48047 0.42761
 O1308 O 1.12338 0.48043 0.40429
 C1309 C 1.11627 0.47362 0.42060
 C1310 C 1.12679 0.45726 0.43131
 C1311 C 1.14565 0.45054 0.42479
 H1312 H 1.15276 0.45785 0.41217
 O1313 O 1.07255 0.40016 0.48039
 O1314 O 1.09584 0.37672 0.48039
 C1315 C 1.07955 0.38383 0.47357
 C1316 C 1.06883 0.37330 0.45722
 C1317 C 1.07533 0.35444 0.45052
 H1318 H 1.08795 0.34732 0.45781
 O1319 O 0.92779 0.59972 0.48033
 O1320 O 0.90450 0.62315 0.48032
 C1321 C 0.92080 0.61605 0.47350
 C1322 C 0.93153 0.62659 0.45717
 C1323 C 0.92506 0.64547 0.45049
 H1324 H 0.91245 0.65260 0.45779
 Cu1325 Cu 1.08392 0.50004 0.41622
 Cu1326 Cu 1.11196 0.50001 0.38816
 Cu1327 Cu 0.91647 0.49994 0.41623
 Cu1328 Cu 0.88847 0.49995 0.38814
 Cu1329 Cu 1.08380 0.58373 0.49986
 Cu1330 Cu 1.11187 0.61175 0.49993
 Cu1331 Cu 1.08391 0.41623 0.49994
 Cu1332 Cu 1.11193 0.38817 0.49996
 Cu1333 Cu 0.91640 0.58365 0.49987
 Cu1334 Cu 0.88836 0.61170 0.49988
 Cu1335 Cu 0.91633 0.41622 0.49998
 Cu1336 Cu 0.88830 0.38818 0.49992
 Cu1337 Cu 1.00022 0.58373 0.41623
 Cu1338 Cu 1.00018 0.61175 0.38814
 Cu1339 Cu 1.00021 0.41624 0.41629
 Cu1340 Cu 1.00022 0.38822 0.38822
 C1341 C 1.05247 0.44772 0.38258
 H1342 H 1.04761 0.45258 0.39729
 C1343 C 1.06562 0.43459 0.34479
 C1344 C 0.94796 0.55223 0.38256
 H1345 H 0.95279 0.54740 0.39729
 C1346 C 0.93488 0.56529 0.34472
 C1347 C 0.94785 0.61738 0.44760
 H1348 H 0.95275 0.60270 0.45250
 C1349 C 0.93460 0.65508 0.43432
 C1350 C 1.05251 0.38251 0.44766
 H1351 H 1.04759 0.39717 0.45258
 C1352 C 1.06582 0.34485 0.43433
 C1353 C 1.11760 0.44768 0.44764
 H1354 H 1.10294 0.45260 0.45257
 C1355 C 1.15524 0.43434 0.43427
 C1356 C 0.88273 0.55226 0.44756
 H1357 H 0.89740 0.54737 0.45248
 C1358 C 0.84505 0.56551 0.43426
 C1359 C 1.05254 0.55233 0.38249
 H1360 H 1.04760 0.54737 0.39714
 C1361 C 1.06589 0.56576 0.34487
 C1362 C 0.94791 0.44765 0.38255
 H1363 H 0.95279 0.45254 0.39724
 C1364 C 0.93471 0.43439 0.34482
 C1365 C 1.11760 0.55231 0.44762
 H1366 H 1.10294 0.54738 0.45253
 C1367 C 1.15525 0.56565 0.43432
 C1368 C 0.88272 0.44766 0.44763
 H1369 H 0.89741 0.45252 0.45252
 C1370 C 0.84499 0.43450 0.43438
 C1371 C 1.05247 0.61751 0.44759
 H1372 H 1.04752 0.60288 0.45255
 C1373 C 1.06587 0.65510 0.43415
 C1374 C 0.94786 0.38257 0.44768
 H1375 H 0.95273 0.39726 0.45258
 C1376 C 0.93468 0.34485 0.43444
 O1377 O 0.48034 0.92780 0.40021
 O1378 O 0.48032 0.90454 0.37675
 C1379 C 0.47351 0.92083 0.38387
 C1380 C 0.45718 0.93156 0.37334
 C1381 C 0.45054 0.92511 0.35444
 H1382 H 0.45789 0.91253 0.34730
 O1383 O 0.51933 1.07244 0.40023
 O1384 O 0.51935 1.09574 0.37680
 C1385 C 0.52616 1.07943 0.38390
 C1386 C 0.54247 1.06870 0.37333
 C1387 C 0.54910 1.07516 0.35442
 H1388 H 0.54177 1.08776 0.34730
 O1389 O 0.40002 0.98056 0.42765
 O1390 O 0.37661 0.98055 0.40433
 C1391 C 0.38371 0.97373 0.42063
 C1392 C 0.37318 0.95737 0.43134
 C1393 C 0.35434 0.95065 0.42483
 H1394 H 0.34721 0.95794 0.41220
 O1395 O 0.59964 1.01962 0.42753
 O1396 O 0.62303 1.01966 0.40420
 C1397 C 0.61596 1.02645 0.42052
 C1398 C 0.62652 1.04276 0.43126
 C1399 C 0.64542 1.04939 0.42479
 H1400 H 0.65253 1.04207 0.41217
 O1401 O 0.42749 0.90027 0.48031
 O1402 O 0.40421 0.87684 0.48033
 C1403 C 0.42049 0.88395 0.47348
 C1404 C 0.43119 0.87343 0.45710
 C1405 C 0.42465 0.85460 0.45033
 H1406 H 0.41201 0.84749 0.45760
 O1407 O 0.57234 1.09979 0.48041
 O1408 O 0.59561 1.12323 0.48033
 C1409 C 0.57931 1.11611 0.47355
 C1410 C 0.56854 1.12665 0.45724
 C1411 C 0.57497 1.14555 0.45057
 H1412 H 0.58758 1.15268 0.45787
 O1413 O 0.42749 1.01964 0.40024
 O1414 O 0.40422 1.01967 0.37678
 C1415 C 0.42051 1.02648 0.38390
 C1416 C 0.43124 1.04283 0.37338
 C1417 C 0.42478 1.04949 0.35448
 H1418 H 0.41220 1.04216 0.34733
 O1419 O 0.57218 0.98056 0.40010
 O1420 O 0.59544 0.98056 0.37664
 C1421 C 0.57916 0.97373 0.38376
 C1422 C 0.56845 0.95738 0.37324
 C1423 C 0.57494 0.95068 0.35437
 H1424 H 0.58755 0.95799 0.34723
 O1425 O 0.51940 0.90031 0.42761
 O1426 O 0.51942 0.87690 0.40429
 C1427 C 0.52623 0.88399 0.42060
 C1428 C 0.54257 0.87345 0.43131
 C1429 C 0.54923 0.85456 0.42484
 H1430 H 0.54190 0.84743 0.41224
 O1431 O 0.48029 1.09992 0.42770
 O1432 O 0.48028 1.12335 0.40440
 C1433 C 0.47347 1.11625 0.42071
 C1434 C 0.45714 1.12679 0.43144
 C1435 C 0.45046 1.14568 0.42496
 H1436 H 0.45778 1.15281 0.41235
 O1437 O 0.40005 1.07252 0.48043
 O1438 O 0.37661 1.09580 0.48042
 C1439 C 0.38373 1.07952 0.47358
 C1440 C 0.37322 1.06881 0.45721
 C1441 C 0.35438 1.07534 0.45045
 H1442 H 0.34726 1.08798 0.45771
 O1443 O 0.59967 0.92776 0.48028
 O1444 O 0.62310 0.90447 0.48026
 C1445 C 0.61599 0.92076 0.47344
 C1446 C 0.62652 0.93149 0.45710
 C1447 C 0.64540 0.92503 0.45041
 H1448 H 0.65255 0.91243 0.45773
 O1449 O 0.48026 1.07246 0.40027
 O1450 O 0.48024 1.09576 0.37683
 C1451 C 0.47343 1.07946 0.38394
 C1452 C 0.45710 1.06874 0.37340
 C1453 C 0.45044 1.07520 0.35450
 H1454 H 0.45775 1.08781 0.34736
 O1455 O 0.51941 0.92773 0.40015
 O1456 O 0.51943 0.90446 0.37669
 C1457 C 0.52625 0.92075 0.38381
 C1458 C 0.54258 0.93147 0.37327
 C1459 C 0.54928 0.92498 0.35439
 H1460 H 0.54199 0.91236 0.34727
 O1461 O 0.59963 0.98055 0.42752
 O1462 O 0.62303 0.98055 0.40419
 C1463 C 0.61595 0.97373 0.42050
 C1464 C 0.62649 0.95739 0.43121
 C1465 C 0.64538 0.95073 0.42473
 H1466 H 0.65251 0.95806 0.41212
 O1467 O 0.40006 1.01965 0.42767
 O1468 O 0.37665 1.01968 0.40436
 C1469 C 0.38375 1.02650 0.42066
 C1470 C 0.37323 1.04287 0.43135
 C1471 C 0.35439 1.04961 0.42480
 H1472 H 0.34729 1.04230 0.41218
 O1473 O 0.42750 1.09993 0.48049
 O1474 O 0.40421 1.12336 0.48048
 C1475 C 0.42051 1.11626 0.47367
 C1476 C 0.43124 1.12680 0.45733
 C1477 C 0.42477 1.14568 0.45066
 H1478 H 0.41216 1.15281 0.45797
 O1479 O 0.57225 0.90032 0.48032
 O1480 O 0.59554 0.87689 0.48030
 C1481 C 0.57924 0.88399 0.47349
 C1482 C 0.56850 0.87345 0.45717
 C1483 C 0.57496 0.85457 0.45049
 H1484 H 0.58757 0.84743 0.45779
 O1485 O 0.57214 1.01964 0.40014
 O1486 O 0.59540 1.01968 0.37667
 C1487 C 0.57911 1.02648 0.38380
 C1488 C 0.56836 1.04281 0.37329
 C1489 C 0.57479 1.04948 0.35438
 H1490 H 0.58738 1.04216 0.34721
 O1491 O 0.42749 0.98057 0.40022
 O1492 O 0.40422 0.98056 0.37677
 C1493 C 0.42051 0.97374 0.38388
 C1494 C 0.43126 0.95742 0.37334
 C1495 C 0.42482 0.95076 0.35443
 H1496 H 0.41221 0.95806 0.34728
 O1497 O 0.51938 1.09984 0.42771
 O1498 O 0.51940 1.12328 0.40441
 C1499 C 0.52622 1.11616 0.42070
 C1500 C 0.54258 1.12667 0.43141
 C1501 C 0.54922 1.14557 0.42495
 H1502 H 0.54186 1.15273 0.41238
 O1503 O 0.48032 0.90028 0.42757
 O1504 O 0.48030 0.87689 0.40424
 C1505 C 0.47347 0.88397 0.42054
 C1506 C 0.45711 0.87345 0.43123
 C1507 C 0.45037 0.85462 0.42467
 H1508 H 0.45766 0.84752 0.41203
 O1509 O 0.59978 1.07235 0.48041
 O1510 O 0.62319 1.09565 0.48034
 C1511 C 0.61609 1.07934 0.47354
 C1512 C 0.62659 1.06861 0.45719
 C1513 C 0.64549 1.07504 0.45051
 H1514 H 0.65265 1.08762 0.45784
 O1515 O 0.40009 0.92773 0.48037
 O1516 O 0.37666 0.90444 0.48039
 C1517 C 0.38375 0.92074 0.47356
 C1518 C 0.37321 0.93146 0.45722
 C1519 C 0.35436 0.92494 0.45051
 H1520 H 0.34726 0.91231 0.45780
 Cu1521 Cu 0.49987 0.91636 0.41622
 Cu1522 Cu 0.49987 0.88835 0.38814
 Cu1523 Cu 0.49981 1.08383 0.41632
 Cu1524 Cu 0.49982 1.11188 0.38826
 Cu1525 Cu 0.41610 1.00010 0.41628
 Cu1526 Cu 0.38808 1.00012 0.38821
 Cu1527 Cu 0.58356 1.00009 0.41616
 Cu1528 Cu 0.61157 1.00012 0.38807
 C1529 C 0.44756 0.94784 0.38257
 H1530 H 0.45244 0.95273 0.39726
 C1531 C 0.43437 0.93461 0.34482
 C1532 C 0.55208 1.05240 0.38254
 H1533 H 0.54722 1.04751 0.39724
 C1534 C 0.56525 1.06564 0.34479
 C1535 C 0.38239 0.94780 0.44766
 H1536 H 0.39704 0.95273 0.45259
 C1537 C 0.34477 0.93444 0.43432
 C1538 C 0.61733 1.05235 0.44758
 H1539 H 0.60265 1.04748 0.45248
 C1540 C 0.65506 1.06552 0.43432
 C1541 C 0.44754 0.88262 0.44757
 H1542 H 0.45249 0.89726 0.45254
 C1543 C 0.43415 0.84504 0.43412
 C1544 C 0.55222 1.11743 0.44768
 H1545 H 0.54735 1.10275 0.45257
 C1546 C 0.56540 1.15517 0.43444
 C1547 C 0.44752 1.05243 0.38261
 H1548 H 0.45241 1.04753 0.39730
 C1549 C 0.43429 1.06567 0.34488
 C1550 C 0.55214 0.94780 0.38246
 H1551 H 0.54723 0.95272 0.39713
 C1552 C 0.56545 0.93449 0.34478
 C1553 C 0.55218 0.88267 0.44760
 H1554 H 0.54729 0.89735 0.45250
 C1555 C 0.56542 0.84496 0.43434
 C1556 C 0.44755 1.11758 0.44775
 H1557 H 0.45244 1.10291 0.45265
 C1558 C 0.43429 1.15528 0.43448
 C1559 C 0.38241 1.05245 0.44768
 H1560 H 0.39705 1.04751 0.45264
 C1561 C 0.34481 1.06583 0.43425
 C1562 C 0.61729 0.94779 0.44752
 H1563 H 0.60261 0.95268 0.45242
 C1564 C 0.65500 0.93457 0.43424
 O1565 O 0.51944 0.92784 0.59965
 O1566 O 0.51948 0.90454 0.62309
 C1567 C 0.52628 0.92085 0.61598
 C1568 C 0.54261 0.93158 0.62651
 C1569 C 0.54922 0.92516 0.64543
 H1570 H 0.54188 0.91259 0.65259
 O1571 O 0.48043 1.07242 0.59964
 O1572 O 0.48042 1.09569 0.62310
 C1573 C 0.47361 1.07940 0.61598
 C1574 C 0.45727 1.06867 0.62652
 C1575 C 0.45061 1.07515 0.64541
 H1576 H 0.45795 1.08774 0.65254
 O1577 O 0.40014 1.01959 0.57227
 O1578 O 0.37672 1.01961 0.59559
 C1579 C 0.38381 1.02641 0.57927
 C1580 C 0.37324 1.04272 0.56854
 C1581 C 0.35433 1.04931 0.57498
 H1582 H 0.34719 1.04195 0.58757
 O1583 O 0.59973 0.98061 0.57215
 O1584 O 0.62314 0.98054 0.59547
 C1585 C 0.61604 0.97376 0.57915
 C1586 C 0.62658 0.95744 0.56840
 C1587 C 0.64550 0.95082 0.57481
 H1588 H 0.65265 0.95816 0.58739
 O1589 O 0.57224 0.90037 0.51940
 O1590 O 0.59553 0.87693 0.51943
 C1591 C 0.57923 0.88404 0.52624
 C1592 C 0.56850 0.87351 0.54258
 C1593 C 0.57492 0.85459 0.54920
 H1594 H 0.58750 0.84744 0.54186
 O1595 O 0.42745 1.09991 0.51958
 O1596 O 0.40414 1.12333 0.51963
 C1597 C 0.42044 1.11622 0.52644
 C1598 C 0.43116 1.12673 0.54281
 C1599 C 0.42460 1.14554 0.54962
 H1600 H 0.41192 1.15264 0.54240
 O1601 O 0.42761 0.98055 0.59974
 O1602 O 0.40433 0.98054 0.62319
 C1603 C 0.42062 0.97372 0.61608
 C1604 C 0.43134 0.95739 0.62662
 C1605 C 0.42486 0.95071 0.64550
 H1606 H 0.41226 0.95803 0.65263
 O1607 O 0.57230 1.01968 0.59961
 O1608 O 0.59557 1.01965 0.62307
 C1609 C 0.57929 1.02649 0.61595
 C1610 C 0.56858 1.04283 0.62649
 C1611 C 0.57508 1.04951 0.64536
 H1612 H 0.58769 1.04219 0.65248
 O1613 O 0.48038 0.90037 0.57223
 O1614 O 0.48039 0.87693 0.59552
 C1615 C 0.47357 0.88404 0.57922
 C1616 C 0.45727 0.87348 0.56847
 C1617 C 0.45069 0.85454 0.57488
 H1618 H 0.45804 0.84739 0.58746
 O1619 O 0.51948 1.09991 0.57221
 O1620 O 0.51951 1.12332 0.59552
 C1621 C 0.52632 1.11622 0.57921
 C1622 C 0.54267 1.12674 0.56849
 C1623 C 0.54938 1.14561 0.57497
 H1624 H 0.54207 1.15276 0.58757
 O1625 O 0.40014 0.92771 0.51947
 O1626 O 0.37672 0.90441 0.51953
 C1627 C 0.38383 0.92071 0.52634
 C1628 C 0.37332 0.93142 0.54271
 C1629 C 0.35447 0.92491 0.54944
 H1630 H 0.34735 0.91230 0.54214
 O1631 O 0.59988 1.07245 0.51951
 O1632 O 0.62328 1.09576 0.51949
 C1633 C 0.61619 1.07947 0.52634
 C1634 C 0.62671 1.06879 0.54273
 C1635 C 0.64550 1.07537 0.54955
 H1636 H 0.65261 1.08803 0.54230
 O1637 O 0.51951 1.07248 0.59967
 O1638 O 0.51954 1.09576 0.62312
 C1639 C 0.52635 1.07947 0.61600
 C1640 C 0.54270 1.06874 0.62652
 C1641 C 0.54942 1.07522 0.64539
 H1642 H 0.54213 1.08784 0.65254
 O1643 O 0.48036 0.92776 0.59973
 O1644 O 0.48037 0.90446 0.62316
 C1645 C 0.47354 0.92076 0.61606
 C1646 C 0.45721 0.93148 0.62661
 C1647 C 0.45052 0.92499 0.64549
 H1648 H 0.45782 0.91238 0.65263
 O1649 O 0.59982 1.01969 0.57225
 O1650 O 0.62321 1.01966 0.59558
 C1651 C 0.61613 1.02651 0.57928
 C1652 C 0.62667 1.04288 0.56861
 C1653 C 0.64547 1.04966 0.57522
 H1654 H 0.65254 1.04238 0.58788
 O1655 O 0.40017 0.98051 0.57230
 O1656 O 0.37676 0.98049 0.59562
 C1657 C 0.38386 0.97367 0.57932
 C1658 C 0.37333 0.95731 0.56862
 C1659 C 0.35448 0.95059 0.57514
 H1660 H 0.34736 0.95789 0.58777
 O1661 O 0.57235 1.09980 0.51949
 O1662 O 0.59562 1.12324 0.51946
 C1663 C 0.57933 1.11614 0.52629
 C1664 C 0.56860 1.12669 0.54262
 C1665 C 0.57509 1.14556 0.54929
 H1666 H 0.58771 1.15266 0.54199
 O1667 O 0.42760 0.90030 0.51941
 O1668 O 0.40432 0.87686 0.51946
 C1669 C 0.42063 0.88397 0.52625
 C1670 C 0.43139 0.87344 0.54257
 C1671 C 0.42501 0.85451 0.54918
 H1672 H 0.41245 0.84734 0.54183
 O1673 O 0.57230 0.98061 0.59961
 O1674 O 0.59557 0.98054 0.62307
 C1675 C 0.57927 0.97376 0.61595
 C1676 C 0.56851 0.95745 0.62649
 C1677 C 0.57492 0.95083 0.64542
 H1678 H 0.58751 0.95815 0.65257
 O1679 O 0.42760 1.01963 0.59969
 O1680 O 0.40433 1.01966 0.62315
 C1681 C 0.42062 1.02647 0.61603
 C1682 C 0.43135 1.04281 0.62655
 C1683 C 0.42490 1.04950 0.64544
 H1684 H 0.41229 1.04221 0.65259
 O1685 O 0.48038 1.09991 0.57225
 O1686 O 0.48037 1.12331 0.59558
 C1687 C 0.47353 1.11621 0.57929
 C1688 C 0.45713 1.12673 0.56863
 C1689 C 0.45037 1.14553 0.57523
 H1690 H 0.45768 1.15263 0.58786
 O1691 O 0.51945 0.90037 0.57224
 O1692 O 0.51950 0.87694 0.59554
 C1693 C 0.52629 0.88405 0.57923
 C1694 C 0.54262 0.87351 0.56848
 C1695 C 0.54924 0.85460 0.57490
 H1696 H 0.54190 0.84744 0.58749
 O1697 O 0.59968 0.92779 0.51937
 O1698 O 0.62312 0.90450 0.51939
 C1699 C 0.61602 0.92080 0.52620
 C1700 C 0.62656 0.93154 0.54251
 C1701 C 0.64548 0.92513 0.54913
 H1702 H 0.65263 0.91255 0.54179
 O1703 O 0.40006 1.07243 0.51952
 O1704 O 0.37661 1.09571 0.51956
 C1705 C 0.38372 1.07940 0.52635
 C1706 C 0.37320 1.06863 0.54267
 C1707 C 0.35428 1.07503 0.54931
 H1708 H 0.34711 1.08761 0.54200
 Cu1709 Cu 0.49990 0.91642 0.58363
 Cu1710 Cu 0.49994 0.88837 0.61168
 Cu1711 Cu 0.49995 1.08385 0.58360
 Cu1712 Cu 0.49996 1.11187 0.61168
 Cu1713 Cu 0.41616 0.91634 0.49989
 Cu1714 Cu 0.38813 0.88829 0.49993
 Cu1715 Cu 0.58363 0.91640 0.49984
 Cu1716 Cu 0.61167 0.88835 0.49985
 Cu1717 Cu 0.41610 1.08387 0.50000
 Cu1718 Cu 0.38804 1.11190 0.50002
 Cu1719 Cu 0.58376 1.08375 0.49996
 Cu1720 Cu 0.61177 1.11182 0.49990
 Cu1721 Cu 0.41621 1.00007 0.58366
 Cu1722 Cu 0.38819 1.00008 0.61174
 Cu1723 Cu 0.58371 1.00015 0.58356
 Cu1724 Cu 0.61172 1.00009 0.61164
 C1725 C 0.55223 0.94785 0.61726
 H1726 H 0.54737 0.95271 0.60255
 C1727 C 0.56537 0.93470 0.65505
 C1728 C 0.44766 1.05238 0.61731
 H1729 H 0.45255 1.04748 0.60263
 C1730 C 0.43444 1.06566 0.65503
 C1731 C 0.38245 1.05235 0.55226
 H1732 H 0.39716 1.04751 0.54738
 C1733 C 0.34468 1.06545 0.56546
 C1734 C 0.61733 0.94783 0.55213
 H1735 H 0.60263 0.95268 0.54728
 C1736 C 0.65511 0.93468 0.56526
 C1737 C 0.55222 0.88275 0.55219
 H1738 H 0.54736 0.89745 0.54733
 C1739 C 0.56538 0.84497 0.56535
 C1740 C 0.44755 1.11755 0.55230
 H1741 H 0.45251 1.10293 0.54730
 C1742 C 0.43411 1.15510 0.56583
 C1743 C 0.44764 0.94779 0.61740
 H1744 H 0.45255 0.95270 0.60272
 C1745 C 0.43435 0.93452 0.65510
 C1746 C 0.55226 1.05242 0.61730
 H1747 H 0.54734 1.04752 0.60263
 C1748 C 0.56560 1.06570 0.65497
 C1749 C 0.44764 0.88270 0.55219
 H1750 H 0.45247 0.89742 0.54734
 C1751 C 0.43458 0.84489 0.56532
 C1752 C 0.55227 1.11751 0.55219
 H1753 H 0.54735 1.10284 0.54729
 C1754 C 0.56557 1.15518 0.56546
 C1755 C 0.38253 0.94774 0.55228
 H1756 H 0.39718 0.95266 0.54734
 C1757 C 0.34489 0.93440 0.56564
 C1758 C 0.61753 1.05243 0.55224
 H1759 H 0.60291 1.04745 0.54724
 C1760 C 0.65504 1.06590 0.56579
 O1761 O 0.48029 0.42753 0.90035
 O1762 O 0.48031 0.40421 0.87694
 C1763 C 0.47346 0.42050 0.88403
 C1764 C 0.45708 0.43117 0.87351
 C1765 C 0.45031 0.42458 0.85470
 H1766 H 0.45761 0.41194 0.84760
 O1767 O 0.51930 0.57229 0.90044
 O1768 O 0.51930 0.59557 0.87699
 C1769 C 0.52612 0.57928 0.88410
 C1770 C 0.54245 0.56855 0.87356
 C1771 C 0.54908 0.57497 0.85464
 H1772 H 0.54175 0.58756 0.84749
 O1773 O 0.40009 0.48028 0.92786
 O1774 O 0.37665 0.48027 0.90458
 C1775 C 0.38376 0.47346 0.92088
 C1776 C 0.37324 0.45713 0.93164
 C1777 C 0.35436 0.45044 0.92520
 H1778 H 0.34721 0.45774 0.91259
 O1779 O 0.59950 0.51950 0.92787
 O1780 O 0.62294 0.51954 0.90457
 C1781 C 0.61582 0.52635 0.92088
 C1782 C 0.62635 0.54268 0.93161
 C1783 C 0.64525 0.54933 0.92516
 H1784 H 0.65240 0.54199 0.91258
 O1785 O 0.42761 0.40012 0.98069
 O1786 O 0.40433 0.37668 0.98072
 C1787 C 0.42061 0.38379 0.97387
 C1788 C 0.43132 0.37326 0.95751
 C1789 C 0.42481 0.35440 0.95080
 H1790 H 0.41220 0.34727 0.95812
 O1791 O 0.57203 0.59975 0.98069
 O1792 O 0.59531 0.62318 0.98065
 C1793 C 0.57901 0.61608 0.97385
 C1794 C 0.56827 0.62661 0.95752
 C1795 C 0.57470 0.64552 0.95088
 H1796 H 0.58728 0.65266 0.95821
 O1797 O 0.42754 0.51932 0.90039
 O1798 O 0.40425 0.51934 0.87695
 C1799 C 0.42055 0.52615 0.88405
 C1800 C 0.43129 0.54248 0.87352
 C1801 C 0.42491 0.54907 0.85457
 H1802 H 0.41237 0.54170 0.84739
 O1803 O 0.57211 0.48041 0.90042
 O1804 O 0.59540 0.48042 0.87699
 C1805 C 0.57911 0.47359 0.88409
 C1806 C 0.56842 0.45725 0.87354
 C1807 C 0.57493 0.45058 0.85467
 H1808 H 0.58754 0.45791 0.84755
 O1809 O 0.51941 0.40016 0.92782
 O1810 O 0.51947 0.37672 0.90454
 C1811 C 0.52627 0.38384 0.92084
 C1812 C 0.54261 0.37333 0.93159
 C1813 C 0.54933 0.35446 0.92512
 H1814 H 0.54205 0.34732 0.91251
 O1815 O 0.48019 0.59970 0.92786
 O1816 O 0.48014 0.62312 0.90455
 C1817 C 0.47334 0.61602 0.92086
 C1818 C 0.45700 0.62654 0.93159
 C1819 C 0.45031 0.64542 0.92512
 H1820 H 0.45761 0.65256 0.91251
 O1821 O 0.40004 0.57216 0.98065
 O1822 O 0.37659 0.59544 0.98063
 C1823 C 0.38371 0.57915 0.97380
 C1824 C 0.37321 0.56844 0.95743
 C1825 C 0.35436 0.57496 0.95071
 H1826 H 0.34723 0.58757 0.95801
 O1827 O 0.59962 0.42766 0.98067
 O1828 O 0.62306 0.40437 0.98065
 C1829 C 0.61595 0.42066 0.97383
 C1830 C 0.62647 0.43138 0.95747
 C1831 C 0.64534 0.42489 0.95075
 H1832 H 0.65248 0.41228 0.95804
 O1833 O 0.48023 0.57222 0.90046
 O1834 O 0.48020 0.59549 0.87701
 C1835 C 0.47341 0.57919 0.88412
 C1836 C 0.45713 0.56841 0.87356
 C1837 C 0.45055 0.57480 0.85461
 H1838 H 0.45789 0.58738 0.84746
 O1839 O 0.51938 0.42758 0.90035
 O1840 O 0.51944 0.40427 0.87693
 C1841 C 0.52623 0.42058 0.88403
 C1842 C 0.54257 0.43132 0.87350
 C1843 C 0.54929 0.42485 0.85463
 H1844 H 0.54201 0.41224 0.84748
 O1845 O 0.59955 0.48042 0.92786
 O1846 O 0.62297 0.48043 0.90456
 C1847 C 0.61588 0.47361 0.92086
 C1848 C 0.62643 0.45727 0.93157
 C1849 C 0.64529 0.45060 0.92506
 H1850 H 0.65240 0.45791 0.91244
 O1851 O 0.40007 0.51936 0.92780
 O1852 O 0.37664 0.51939 0.90451
 C1853 C 0.38375 0.52621 0.92080
 C1854 C 0.37323 0.54256 0.93152
 C1855 C 0.35438 0.54929 0.92500
 H1856 H 0.34726 0.54200 0.91237
 O1857 O 0.42742 0.59964 0.98068
 O1858 O 0.40411 0.62305 0.98066
 C1859 C 0.42042 0.61597 0.97384
 C1860 C 0.43113 0.62651 0.95750
 C1861 C 0.42464 0.64539 0.95084
 H1862 H 0.41204 0.65251 0.95817
 O1863 O 0.57217 0.40024 0.98069
 O1864 O 0.59547 0.37682 0.98068
 C1865 C 0.57917 0.38392 0.97386
 C1866 C 0.56847 0.37337 0.95752
 C1867 C 0.57498 0.35450 0.95085
 H1868 H 0.58758 0.34739 0.95818
 O1869 O 0.57208 0.51948 0.90043
 O1870 O 0.59537 0.51953 0.87699
 C1871 C 0.57907 0.52633 0.88409
 C1872 C 0.56833 0.54265 0.87356
 C1873 C 0.57475 0.54928 0.85464
 H1874 H 0.58733 0.54194 0.84748
 O1875 O 0.42746 0.48024 0.90033
 O1876 O 0.40415 0.48022 0.87692
 C1877 C 0.42044 0.47339 0.88402
 C1878 C 0.43114 0.45702 0.87350
 C1879 C 0.42458 0.45022 0.85468
 H1880 H 0.41192 0.45746 0.84757
 O1881 O 0.51926 0.59972 0.92788
 O1882 O 0.51926 0.62314 0.90457
 C1883 C 0.52608 0.61605 0.92088
 C1884 C 0.54239 0.62660 0.93162
 C1885 C 0.54903 0.64551 0.92517
 H1886 H 0.54170 0.65265 0.91258
 O1887 O 0.48034 0.40013 0.92783
 O1888 O 0.48035 0.37668 0.90455
 C1889 C 0.47352 0.38379 0.92085
 C1890 C 0.45719 0.37326 0.93158
 C1891 C 0.45048 0.35440 0.92509
 H1892 H 0.45777 0.34728 0.91246
 O1893 O 0.59947 0.57232 0.98067
 O1894 O 0.62289 0.59561 0.98063
 C1895 C 0.61579 0.57931 0.97382
 C1896 C 0.62633 0.56858 0.95749
 C1897 C 0.64523 0.57502 0.95084
 H1898 H 0.65237 0.58762 0.95817
 O1899 O 0.40018 0.42756 0.98071
 O1900 O 0.37676 0.40426 0.98074
 C1901 C 0.38385 0.42055 0.97390
 C1902 C 0.37329 0.43126 0.95757
 C1903 C 0.35440 0.42478 0.95092
 H1904 H 0.34729 0.41219 0.95826
 Cu1905 Cu 0.49985 0.41619 0.91642
 Cu1906 Cu 0.49990 0.38812 0.88839
 Cu1907 Cu 0.49975 0.58365 0.91650
 Cu1908 Cu 0.49972 0.61168 0.88843
 Cu1909 Cu 0.41613 0.49980 0.91643
 Cu1910 Cu 0.38807 0.49981 0.88839
 Cu1911 Cu 0.58347 0.49995 0.91648
 Cu1912 Cu 0.61152 0.49999 0.88843
 C1913 C 0.44751 0.44751 0.88268
 H1914 H 0.45248 0.45250 0.89731
 C1915 C 0.43407 0.43400 0.84512
 C1916 C 0.55205 0.55226 0.88279
 H1917 H 0.54719 0.54739 0.89750
 C1918 C 0.56522 0.56543 0.84501
 C1919 C 0.38248 0.44756 0.94795
 H1920 H 0.39716 0.45246 0.95282
 C1921 C 0.34478 0.43428 0.93475
 C1922 C 0.61711 0.55229 0.94789
 H1923 H 0.60242 0.54741 0.95277
 C1924 C 0.65485 0.56548 0.93469
 C1925 C 0.44763 0.38246 0.94792
 H1926 H 0.45255 0.39712 0.95283
 C1927 C 0.43430 0.34481 0.93460
 C1928 C 0.55199 0.61738 0.94791
 H1929 H 0.54713 0.60269 0.95279
 C1930 C 0.56517 0.65513 0.93472
 C1931 C 0.44752 0.55213 0.88279
 H1932 H 0.45235 0.54729 0.89751
 C1933 C 0.43446 0.56521 0.84495
 C1934 C 0.55211 0.44764 0.88273
 H1935 H 0.54718 0.45254 0.89741
 C1936 C 0.56546 0.43439 0.84505
 C1937 C 0.55216 0.38256 0.94791
 H1938 H 0.54723 0.39723 0.95281
 C1939 C 0.56550 0.34489 0.93466
 C1940 C 0.44743 0.61731 0.94790
 H1941 H 0.45234 0.60264 0.95279
 C1942 C 0.43414 0.65501 0.93466
 C1943 C 0.38242 0.55212 0.94786
 H1944 H 0.39707 0.54719 0.95280
 C1945 C 0.34478 0.56547 0.93450
 C1946 C 0.61724 0.44769 0.94790
 H1947 H 0.60258 0.45259 0.95283
 C1948 C 0.65491 0.43442 0.93455
 O1949 O 0.51942 0.42771 1.10017
 O1950 O 0.51945 0.40441 1.12361
 C1951 C 0.52625 0.42072 1.11650
 C1952 C 0.54259 0.43144 1.12703
 C1953 C 0.54927 0.42499 1.14592
 H1954 H 0.54195 0.41239 1.15307
 O1955 O 0.48024 0.57228 1.10007
 O1956 O 0.48021 0.59559 1.12349
 C1957 C 0.47340 0.57929 1.11640
 C1958 C 0.45705 0.56859 1.12694
 C1959 C 0.45033 0.57515 1.14578
 H1960 H 0.45763 0.58778 1.15287
 O1961 O 0.40005 0.51948 1.07267
 O1962 O 0.37660 0.51948 1.09595
 C1963 C 0.38371 0.52630 1.07965
 C1964 C 0.37316 0.54262 1.06891
 C1965 C 0.35430 0.54934 1.07541
 H1966 H 0.34718 0.54207 1.08805
 O1967 O 0.59961 0.48044 1.07262
 O1968 O 0.62305 0.48043 1.09590
 C1969 C 0.61594 0.47361 1.07961
 C1970 C 0.62647 0.45728 1.06887
 C1971 C 0.64536 0.45059 1.07533
 H1972 H 0.65250 0.45788 1.08794
 O1973 O 0.57218 0.40026 1.01979
 O1974 O 0.59548 0.37684 1.01982
 C1975 C 0.57918 0.38395 1.02664
 C1976 C 0.56848 0.37343 1.04301
 C1977 C 0.57496 0.35455 1.04968
 H1978 H 0.58755 0.34741 1.04234
 O1979 O 0.42742 0.59962 1.01977
 O1980 O 0.40411 0.62303 1.01978
 C1981 C 0.42041 0.61594 1.02661
 C1982 C 0.43112 0.62648 1.04296
 C1983 C 0.42462 0.64535 1.04964
 H1984 H 0.41200 0.65247 1.04233
 O1985 O 0.42753 0.48044 1.10013
 O1986 O 0.40421 0.48040 1.12355
 C1987 C 0.42052 0.47360 1.11646
 C1988 C 0.43124 0.45725 1.12700
 C1989 C 0.42472 0.45055 1.14586
 H1990 H 0.41210 0.45785 1.15297
 O1991 O 0.57217 0.51953 1.10004
 O1992 O 0.59548 0.51959 1.12345
 C1993 C 0.57917 0.52639 1.11635
 C1994 C 0.56845 0.54274 1.12688
 C1995 C 0.57495 0.54944 1.14574
 H1996 H 0.58757 0.54215 1.15287
 O1997 O 0.48039 0.40027 1.07269
 O1998 O 0.48039 0.37682 1.09598
 C1999 C 0.47358 0.38393 1.07967
 C2000 C 0.45728 0.37337 1.06892
 C2001 C 0.45067 0.35445 1.07536
 H2002 H 0.45800 0.34732 1.08796
 O2003 O 0.51930 0.59973 1.07260
 O2004 O 0.51930 0.62317 1.09588
 C2005 C 0.52612 0.61607 1.07959
 C2006 C 0.54245 0.62660 1.06886
 C2007 C 0.54913 0.64548 1.07534
 H2008 H 0.54182 0.65260 1.08795
 O2009 O 0.40021 0.42758 1.01981
 O2010 O 0.37680 0.40428 1.01987
 C2011 C 0.38390 0.42059 1.02666
 C2012 C 0.37335 0.43132 1.04300
 C2013 C 0.35446 0.42486 1.04964
 H2014 H 0.34733 0.41226 1.04231
 O2015 O 0.59949 0.57231 1.01975
 O2016 O 0.62292 0.59559 1.01975
 C2017 C 0.61582 0.57929 1.02656
 C2018 C 0.62639 0.56854 1.04287
 C2019 C 0.64533 0.57494 1.04944
 H2020 H 0.65247 0.58752 1.04208
 O2021 O 0.51933 0.57229 1.10004
 O2022 O 0.51934 0.59560 1.12347
 C2023 C 0.52617 0.57930 1.11636
 C2024 C 0.54253 0.56860 1.12689
 C2025 C 0.54923 0.57511 1.14576
 H2026 H 0.54192 0.58771 1.15289
 O2027 O 0.48034 0.42767 1.10017
 O2028 O 0.48032 0.40436 1.12360
 C2029 C 0.47350 0.42066 1.11650
 C2030 C 0.45713 0.43136 1.12702
 C2031 C 0.45040 0.42485 1.14588
 H2032 H 0.45769 0.41224 1.15302
 O2033 O 0.59958 0.51951 1.07257
 O2034 O 0.62304 0.51955 1.09584
 C2035 C 0.61591 0.52634 1.07954
 C2036 C 0.62643 0.54265 1.06877
 C2037 C 0.64537 0.54926 1.07514
 H2038 H 0.65255 0.54191 1.08770
 O2039 O 0.40013 0.48041 1.07266
 O2040 O 0.37667 0.48036 1.09593
 C2041 C 0.38381 0.47356 1.07964
 C2042 C 0.37330 0.45721 1.06890
 C2043 C 0.35441 0.45054 1.07533
 H2044 H 0.34725 0.45786 1.08792
 O2045 O 0.57206 0.59975 1.01978
 O2046 O 0.59535 0.62318 1.01979
 C2047 C 0.57906 0.61608 1.02661
 C2048 C 0.56834 0.62661 1.04296
 C2049 C 0.57482 0.64548 1.04965
 H2050 H 0.58743 0.65261 1.04234
 O2051 O 0.42767 0.40016 1.01979
 O2052 O 0.40439 0.37672 1.01985
 C2053 C 0.42069 0.38383 1.02665
 C2054 C 0.43143 0.37332 1.04299
 C2055 C 0.42502 0.35441 1.04963
 H2056 H 0.41245 0.34724 1.04229
 O2057 O 0.57219 0.48046 1.10009
 O2058 O 0.59550 0.48047 1.12351
 C2059 C 0.57919 0.47365 1.11643
 C2060 C 0.56848 0.45733 1.12699
 C2061 C 0.57495 0.45067 1.14588
 H2062 H 0.58756 0.45799 1.15300
 O2063 O 0.42746 0.51952 1.10014
 O2064 O 0.40415 0.51953 1.12356
 C2065 C 0.42044 0.52636 1.11646
 C2066 C 0.43114 0.54273 1.12698
 C2067 C 0.42462 0.54949 1.14582
 H2068 H 0.41198 0.54223 1.15295
 O2069 O 0.48021 0.59968 1.07259
 O2070 O 0.48018 0.62313 1.09587
 C2071 C 0.47337 0.61600 1.07958
 C2072 C 0.45701 0.62651 1.06885
 C2073 C 0.45031 0.64538 1.07533
 H2074 H 0.45761 0.65253 1.08793
 O2075 O 0.51946 0.40029 1.07272
 O2076 O 0.51950 0.37685 1.09601
 C2077 C 0.52630 0.38396 1.07971
 C2078 C 0.54264 0.37344 1.06896
 C2079 C 0.54933 0.35456 1.07543
 H2080 H 0.54205 0.34742 1.08806
 O2081 O 0.59960 0.42770 1.01976
 O2082 O 0.62303 0.40441 1.01978
 C2083 C 0.61592 0.42071 1.02659
 C2084 C 0.62646 0.43142 1.04294
 C2085 C 0.64534 0.42495 1.04959
 H2086 H 0.65247 0.41236 1.04225
 O2087 O 0.40000 0.57217 1.01976
 O2088 O 0.37655 0.59545 1.01977
 C2089 C 0.38367 0.57917 1.02659
 C2090 C 0.37315 0.56846 1.04295
 C2091 C 0.35429 0.57497 1.04965
 H2092 H 0.34716 0.58757 1.04233
 Cu2093 Cu 0.49990 0.41632 1.08411
 Cu2094 Cu 0.49992 0.38826 1.11215
 Cu2095 Cu 0.49977 0.58366 1.08399
 Cu2096 Cu 0.49976 0.61172 1.11202
 Cu2097 Cu 0.41625 0.41619 1.00025
 Cu2098 Cu 0.38823 0.38814 1.00030
 Cu2099 Cu 0.58356 0.41630 1.00022
 Cu2100 Cu 0.61160 0.38826 1.00023
 Cu2101 Cu 0.41606 0.58357 1.00022
 Cu2102 Cu 0.38799 0.61159 1.00021
 Cu2103 Cu 0.58343 0.58370 1.00022
 Cu2104 Cu 0.61147 0.61174 1.00020
 Cu2105 Cu 0.41613 0.49997 1.08407
 Cu2106 Cu 0.38806 0.49994 1.11210
 Cu2107 Cu 0.58355 0.49998 1.08400
 Cu2108 Cu 0.61161 0.50001 1.11202
 C2109 C 0.55217 0.44774 1.11779
 H2110 H 0.54727 0.45262 1.10311
 C2111 C 0.56544 0.43451 1.15551
 C2112 C 0.44748 0.55226 1.11777
 H2113 H 0.45242 0.54730 1.10312
 C2114 C 0.43412 0.56570 1.15538
 C2115 C 0.38236 0.55216 1.05256
 H2116 H 0.39702 0.54724 1.04764
 C2117 C 0.34470 0.56551 1.06587
 C2118 C 0.61725 0.44771 1.05255
 H2119 H 0.60257 0.45262 1.04767
 C2120 C 0.65495 0.43443 1.06577
 C2121 C 0.55219 0.38265 1.05263
 H2122 H 0.54728 0.39732 1.04773
 C2123 C 0.56548 0.34495 1.06588
 C2124 C 0.44743 0.61729 1.05254
 H2125 H 0.45236 0.60262 1.04764
 C2126 C 0.43412 0.65497 1.06581
 C2127 C 0.44757 0.44768 1.11780
 H2128 H 0.45250 0.45261 1.10314
 C2129 C 0.43420 0.43436 1.15546
 C2130 C 0.55212 0.55229 1.11768
 H2131 H 0.54720 0.54737 1.10301
 C2132 C 0.56543 0.56562 1.15534
 C2133 C 0.44769 0.38257 1.05261
 H2134 H 0.45254 0.39727 1.04774
 C2135 C 0.43455 0.34481 1.06581
 C2136 C 0.55203 0.61739 1.05254
 H2137 H 0.54713 0.60272 1.04764
 C2138 C 0.56530 0.65508 1.06583
 C2139 C 0.38255 0.44762 1.05261
 H2140 H 0.39724 0.45251 1.04773
 C2141 C 0.34482 0.43438 1.06579
 C2142 C 0.61717 0.55228 1.05251
 H2143 H 0.60245 0.54743 1.04768
 C2144 C 0.65498 0.56539 1.06556
 N2145 N 1.10093 1.12513 1.27172
 C2146 C 1.10940 1.10887 1.26300
 N2147 N 1.12574 1.10044 1.27159
 N2148 N 1.13340 1.10805 1.28839
 C2149 C 1.12505 1.12441 1.29724
 N2150 N 1.10860 1.13273 1.28851
 C2151 C 1.10141 1.10096 1.24468
 C2152 C 1.09482 1.09445 1.22917
 C2153 C 1.08713 1.08687 1.21057
 N2154 N 1.09590 1.07092 1.20157
 N2155 N 1.08904 1.06414 1.18410
 C2156 C 1.07317 1.07306 1.17495
 N2157 N 1.06441 1.08902 1.18410
 N2158 N 1.07127 1.09580 1.20158
 N2159 N 1.10028 0.62446 0.77184
 C2160 C 1.10877 0.60822 0.76311
 N2161 N 1.12510 0.59977 0.77172
 N2162 N 1.13272 0.60735 0.78854
 C2163 C 1.12431 0.62367 0.79737
 N2164 N 1.10790 0.63203 0.78866
 C2165 C 1.10084 0.60035 0.74474
 C2166 C 1.09432 0.59388 0.72919
 C2167 C 1.08672 0.58635 0.71054
 N2168 N 1.09557 0.57047 0.70151
 N2169 N 1.08879 0.56375 0.68397
 C2170 C 1.07294 0.57268 0.67480
 N2171 N 1.06411 0.58858 0.68398
 N2172 N 1.07088 0.59530 0.70152
 N2173 N 0.60039 1.12468 0.77173
 C2174 C 0.60890 1.10847 0.76295
 N2175 N 0.62527 1.10004 0.77152
 N2176 N 0.63291 1.10762 0.78834
 C2177 C 0.62448 1.12391 0.79721
 N2178 N 0.60803 1.13224 0.78854
 C2179 C 0.60095 1.10061 0.74459
 C2180 C 0.59439 1.09415 0.72905
 C2181 C 0.58676 1.08662 0.71041
 N2182 N 0.59558 1.07073 0.70137
 N2183 N 0.58878 1.06401 0.68385
 C2184 C 0.57291 1.07294 0.67470
 N2185 N 0.56411 1.08885 0.68389
 N2186 N 0.57091 1.09557 0.70142
 N2187 N 0.60004 0.62488 1.27202
 C2188 C 0.60851 0.60861 1.26332
 N2189 N 0.62481 0.60014 1.27197
 N2190 N 0.63242 0.60774 1.28878
 C2191 C 0.62407 0.62412 1.29761
 N2192 N 0.60767 0.63247 1.28883
 C2193 C 0.60059 0.60071 1.24496
 C2194 C 0.59407 0.59422 1.22942
 C2195 C 0.58649 0.58665 1.21078
 N2196 N 0.59537 0.57078 1.20175
 N2197 N 0.58860 0.56403 1.18423
 C2198 C 0.57271 0.57290 1.17507
 N2199 N 0.56385 0.58878 1.18424
 N2200 N 0.57061 0.59554 1.20177
 N2201 N 0.87517 0.90001 1.27199
 C2202 C 0.89145 0.89154 1.26331
 N2203 N 0.89992 0.87526 1.27197
 N2204 N 0.89233 0.86765 1.28879
 C2205 C 0.87594 0.87600 1.29761
 N2206 N 0.86758 0.89239 1.28881
 C2207 C 0.89934 0.89946 1.24494
 C2208 C 0.90583 0.90596 1.22938
 C2209 C 0.91339 0.91353 1.21073
 N2210 N 0.92925 0.90464 1.20171
 N2211 N 0.93600 0.91140 1.18417
 C2212 C 0.92713 0.92728 1.17500
 N2213 N 0.91125 0.93615 1.18417
 N2214 N 0.90450 0.92940 1.20171
 N2215 N 0.87484 0.39974 0.77166
 C2216 C 0.89114 0.39128 0.76301
 N2217 N 0.89963 0.37503 0.77172
 N2218 N 0.89202 0.36744 0.78854
 C2219 C 0.87561 0.37579 0.79732
 N2220 N 0.86724 0.39215 0.78849
 C2221 C 0.89906 0.39918 0.74465
 C2222 C 0.90559 0.40567 0.72910
 C2223 C 0.91320 0.41324 0.71047
 N2224 N 0.92907 0.40433 0.70146
 N2225 N 0.93587 0.41109 0.68395
 C2226 C 0.92704 0.42700 0.67477
 N2227 N 0.91115 0.43588 0.68393
 N2228 N 0.90435 0.42913 0.70144
 N2229 N 0.37487 0.90020 0.77176
 C2230 C 0.39121 0.89174 0.76316
 N2231 N 0.39970 0.87551 0.77190
 N2232 N 0.39206 0.86794 0.78872
 C2233 C 0.37565 0.87630 0.79742
 N2234 N 0.36724 0.89262 0.78858
 C2235 C 0.39915 0.89961 0.74479
 C2236 C 0.40568 0.90607 0.72923
 C2237 C 0.41328 0.91360 0.71058
 N2238 N 0.42912 0.90465 0.70156
 N2239 N 0.43589 0.91137 0.68402
 C2240 C 0.42707 0.92728 0.67484
 N2241 N 0.41122 0.93621 0.68401
 N2242 N 0.40444 0.92949 0.70155
 N2243 N 0.37452 0.39985 1.27197
 C2244 C 0.39085 0.39141 1.26337
 N2245 N 0.39933 0.37517 1.27210
 N2246 N 0.39168 0.36758 1.28891
 C2247 C 0.37524 0.37590 1.29764
 N2248 N 0.36687 0.39226 1.28878
 C2249 C 0.39882 0.39930 1.24502
 C2250 C 0.40538 0.40579 1.22949
 C2251 C 0.41301 0.41334 1.21086
 N2252 N 0.42888 0.40442 1.20187
 N2253 N 0.43569 0.41117 1.18436
 C2254 C 0.42688 0.42709 1.17517
 N2255 N 0.41100 0.43599 1.18432
 N2256 N 0.40418 0.42924 1.20183
 N2257 N 0.89871 1.12549 0.72863
 C2258 C 0.89026 1.10924 0.73736
 N2259 N 0.87390 1.10082 0.72880
 N2260 N 0.86620 1.10845 0.71203
 C2261 C 0.87454 1.12481 0.70317
 N2262 N 0.89101 1.13311 0.71187
 C2263 C 0.89830 1.10129 0.75566
 C2264 C 0.90494 1.09476 0.77114
 C2265 C 0.91268 1.08714 0.78971
 N2266 N 0.90392 1.07120 0.79872
 N2267 N 0.91084 1.06439 0.81617
 C2268 C 0.92676 1.07326 0.82526
 N2269 N 0.93551 1.08921 0.81609
 N2270 N 0.92860 1.09603 0.79864
 N2271 N 0.87623 0.59906 0.22751
 C2272 C 0.89250 0.60756 0.23619
 N2273 N 0.90100 0.62380 0.22747
 N2274 N 0.89344 0.63134 0.21059
 C2275 C 0.87709 0.62293 0.20182
 N2276 N 0.86868 0.60660 0.21064
 C2277 C 0.90032 0.59976 0.25463
 C2278 C 0.90675 0.59336 0.27025
 C2279 C 0.91421 0.58591 0.28898
 N2280 N 0.93001 0.59488 0.29804
 N2281 N 0.93665 0.58825 0.31567
 C2282 C 0.92773 0.57242 0.32489
 N2283 N 0.91193 0.56347 0.31567
 N2284 N 0.90528 0.57010 0.29805
 N2285 N 0.37522 1.09989 0.22800
 C2286 C 0.39149 1.10837 0.23667
 N2287 N 0.39998 1.12462 0.22796
 N2288 N 0.39240 1.13218 0.21111
 C2289 C 0.37602 1.12382 0.20231
 N2290 N 0.36765 1.10746 0.21115
 C2291 C 0.39937 1.10052 0.25507
 C2292 C 0.40584 1.09406 0.27065
 C2293 C 0.41338 1.08654 0.28933
 N2294 N 0.42920 1.09548 0.29837
 N2295 N 0.43592 1.08877 0.31594
 C2296 C 0.42706 1.07289 0.32512
 N2297 N 0.41122 1.06397 0.31592
 N2298 N 0.40450 1.07068 0.29836
 N2299 N 0.37610 0.59902 0.72761
 C2300 C 0.39232 0.60754 0.73635
 N2301 N 0.40082 0.62381 0.72768
 N2302 N 0.39331 0.63134 0.71078
 C2303 C 0.37701 0.62291 0.70195
 N2304 N 0.36860 0.60657 0.71072
 C2305 C 0.40009 0.59973 0.75481
 C2306 C 0.40646 0.59332 0.77044
 C2307 C 0.41388 0.58586 0.78919
 N2308 N 0.42967 0.59482 0.79829
 N2309 N 0.43627 0.58818 0.81592
 C2310 C 0.42734 0.57235 0.82512
 N2311 N 0.41154 0.56341 0.81587
 N2312 N 0.40493 0.57005 0.79824
 N2313 N 1.12503 0.90025 0.72822
 C2314 C 1.10870 0.89180 0.73682
 N2315 N 1.10020 0.87557 0.72808
 N2316 N 1.10783 0.86800 0.71126
 C2317 C 1.12425 0.87635 0.70256
 N2318 N 1.13266 0.89267 0.71139
 C2319 C 1.10077 0.89966 0.75520
 C2320 C 1.09425 0.90611 0.77076
 C2321 C 1.08667 0.91363 0.78942
 N2322 N 1.07083 0.90469 0.79844
 N2323 N 1.06407 0.91140 0.81599
 C2324 C 1.07291 0.92728 0.82518
 N2325 N 1.08877 0.93620 0.81601
 N2326 N 1.09553 0.92949 0.79846
 N2327 N 1.12461 0.40065 0.22780
 C2328 C 1.10829 0.39219 0.23642
 N2329 N 1.09977 0.37598 0.22767
 N2330 N 1.10737 0.36844 0.21082
 C2331 C 1.12377 0.37680 0.20210
 N2332 N 1.13220 0.39310 0.21095
 C2333 C 1.10042 0.40001 0.25484
 C2334 C 1.09395 0.40643 0.27043
 C2335 C 1.08643 0.41389 0.28914
 N2336 N 1.07064 0.40491 0.29820
 N2337 N 1.06395 0.41157 0.31579
 C2338 C 1.07281 0.42743 0.32499
 N2339 N 1.08862 0.43639 0.31578
 N2340 N 1.09532 0.42974 0.29819
 N2341 N 0.62484 0.89988 0.22816
 C2342 C 0.60856 0.89142 0.23682
 N2343 N 0.60009 0.87514 0.22816
 N2344 N 0.60772 0.86753 0.21135
 C2345 C 0.62411 0.87587 0.20255
 N2346 N 0.63246 0.89226 0.21135
 C2347 C 0.60063 0.89934 0.25518
 C2348 C 0.59411 0.90585 0.27072
 C2349 C 0.58652 0.91343 0.28935
 N2350 N 0.57066 0.90454 0.29838
 N2351 N 0.56389 0.91131 0.31590
 C2352 C 0.57274 0.92721 0.32506
 N2353 N 0.58861 0.93608 0.31588
 N2354 N 0.59539 0.92932 0.29836
 N2355 N 0.62516 0.40012 0.72848
 C2356 C 0.60880 0.39168 0.73705
 N2357 N 0.60029 0.37547 0.72828
 N2358 N 0.60794 0.36790 0.71146
 C2359 C 0.62438 0.37625 0.70279
 N2360 N 0.63280 0.39254 0.71166
 C2361 C 0.60084 0.39954 0.75541
 C2362 C 0.59428 0.40599 0.77096
 C2363 C 0.58664 0.41351 0.78960
 N2364 N 0.57080 0.40454 0.79859
 N2365 N 0.56399 0.41126 0.81612
 C2366 C 0.57278 0.42716 0.82532
 N2367 N 0.58864 0.43611 0.81617
 N2368 N 0.59545 0.42940 0.79864
 N2369 N 1.27201 1.12419 1.09999
 C2370 C 1.26326 1.10797 1.10850
 N2371 N 1.27188 1.09950 1.12482
 N2372 N 1.28873 1.10705 1.13242
 C2373 C 1.29757 1.12335 1.12399
 N2374 N 1.28885 1.13173 1.10759
 C2375 C 1.24486 1.10015 1.10062
 C2376 C 1.22929 1.09372 1.09413
 C2377 C 1.21061 1.08623 1.08659
 N2378 N 1.20156 1.07038 1.09547
 N2379 N 1.18399 1.06371 1.08875
 C2380 C 1.17481 1.07264 1.07290
 N2381 N 1.18401 1.08851 1.06403
 N2382 N 1.20158 1.09519 1.07075
 N2383 N 1.27241 0.62382 0.59904
 C2384 C 1.26373 0.60756 0.60755
 N2385 N 1.27245 0.59904 0.62379
 N2386 N 1.28933 0.60658 0.63131
 C2387 C 1.29810 0.62292 0.62290
 N2388 N 1.28929 0.63136 0.60658
 C2389 C 1.24529 0.59975 0.59975
 C2390 C 1.22967 0.59334 0.59336
 C2391 C 1.21094 0.58590 0.58592
 N2392 N 1.20187 0.57010 0.59488
 N2393 N 1.18426 0.56347 0.58825
 C2394 C 1.17504 0.57240 0.57243
 N2395 N 1.18425 0.58821 0.56348
 N2396 N 1.20187 0.59485 0.57011
 N2397 N 0.77124 1.12554 0.60124
 C2398 C 0.76253 1.10928 0.60970
 N2399 N 0.77110 1.10085 0.62606
 N2400 N 0.78787 1.10848 0.63375
 C2401 C 0.79672 1.12485 0.62539
 N2402 N 0.78800 1.13316 0.60893
 C2403 C 0.74424 1.10133 0.60167
 C2404 C 0.72876 1.09479 0.59504
 C2405 C 0.71021 1.08716 0.58731
 N2406 N 0.70121 1.07121 0.59608
 N2407 N 0.68377 1.06439 0.58916
 C2408 C 0.67468 1.07326 0.57323
 N2409 N 0.68382 1.08922 0.56448
 N2410 N 0.70126 1.09605 0.57139
 N2411 N 0.77221 0.62397 1.09918
 C2412 C 0.76354 0.60771 1.10770
 N2413 N 0.77228 0.59918 1.12392
 N2414 N 0.78917 0.60670 1.13141
 C2415 C 0.79795 0.62304 1.12299
 N2416 N 0.78911 0.63149 1.10669
 C2417 C 0.74508 0.59992 1.09993
 C2418 C 0.72945 0.59351 1.09355
 C2419 C 0.71071 0.58606 1.08613
 N2420 N 0.70166 0.57025 1.09511
 N2421 N 0.68404 0.56361 1.08849
 C2422 C 0.67480 0.57254 1.07268
 N2423 N 0.68400 0.58836 1.06372
 N2424 N 0.70162 0.59501 1.07033
 N2425 N 1.27167 0.89978 0.87513
 C2426 C 1.26301 0.89130 0.89142
 N2427 N 1.27169 0.87503 0.89989
 N2428 N 1.28850 0.86744 0.89228
 C2429 C 1.29730 0.87579 0.87589
 N2430 N 1.28849 0.89218 0.86753
 C2431 C 1.24465 0.89920 0.89934
 C2432 C 1.22910 0.90570 0.90585
 C2433 C 1.21047 0.91327 0.91344
 N2434 N 1.20144 0.90437 0.92930
 N2435 N 1.18392 0.91114 0.93607
 C2436 C 1.17477 0.92705 0.92722
 N2437 N 1.18395 0.93593 0.91135
 N2438 N 1.20147 0.92917 0.90457
 N2439 N 1.27175 0.39982 0.37465
 C2440 C 1.26313 0.39137 0.39097
 N2441 N 1.27184 0.37512 0.39946
 N2442 N 1.28865 0.36754 0.39182
 C2443 C 1.29741 0.37587 0.37539
 N2444 N 1.28856 0.39223 0.36702
 C2445 C 1.24478 0.39926 0.39892
 C2446 C 1.22924 0.40575 0.40547
 C2447 C 1.21062 0.41331 0.41309
 N2448 N 1.20162 0.40439 0.42896
 N2449 N 1.18411 0.41115 0.43576
 C2450 C 1.17494 0.42706 0.42695
 N2451 N 1.18409 0.43596 0.41107
 N2452 N 1.20160 0.42921 0.40426
 N2453 N 0.77185 0.87562 0.39985
 C2454 C 0.76315 0.89187 0.39135
 N2455 N 0.77180 0.90035 0.37506
 N2456 N 0.78864 0.89278 0.36747
 C2457 C 0.79744 0.87644 0.37588
 N2458 N 0.78869 0.86805 0.39226
 C2459 C 0.74476 0.89973 0.39924
 C2460 C 0.72919 0.90619 0.40573
 C2461 C 0.71052 0.91370 0.41328
 N2462 N 0.70147 0.92955 0.40438
 N2463 N 0.68392 0.93625 0.41112
 C2464 C 0.67475 0.92735 0.42699
 N2465 N 0.68394 0.91148 0.43586
 N2466 N 0.70150 0.90477 0.42913
 N2467 N 0.77147 0.40012 0.87491
 C2468 C 0.76289 0.39168 0.89126
 N2469 N 0.77166 0.37546 0.89977
 N2470 N 0.78848 0.36791 0.89213
 C2471 C 0.79715 0.37626 0.87569
 N2472 N 0.78829 0.39256 0.86727
 C2473 C 0.74453 0.39953 0.89922
 C2474 C 0.72898 0.40598 0.90577
 C2475 C 0.71034 0.41350 0.91339
 N2476 N 0.70135 0.40456 0.92925
 N2477 N 0.68383 0.41128 0.93605
 C2478 C 0.67463 0.42718 0.92724
 N2479 N 0.68377 0.43610 0.91137
 N2480 N 0.70130 0.42939 0.90456
 N2481 N 0.72823 0.87551 1.10031
 C2482 C 0.73693 0.89177 1.10879
 N2483 N 0.72828 0.90023 1.12510
 N2484 N 0.71145 0.89265 1.13270
 C2485 C 0.70266 0.87631 1.12430
 N2486 N 0.71141 0.86793 1.10792
 C2487 C 0.75529 0.89965 1.10088
 C2488 C 0.77084 0.90613 1.09437
 C2489 C 0.78949 0.91367 1.08679
 N2490 N 0.79851 0.92954 1.09567
 N2491 N 0.81604 0.93628 1.08890
 C2492 C 0.82521 0.92739 1.07302
 N2493 N 0.81604 0.91150 1.06417
 N2494 N 0.79851 0.90476 1.07093
 N2495 N 0.72842 0.39965 0.62513
 C2496 C 0.73708 0.39118 0.60884
 N2497 N 0.72839 0.37492 0.60036
 N2498 N 0.71157 0.36733 0.60797
 C2499 C 0.70278 0.37568 0.62437
 N2500 N 0.71160 0.39206 0.63273
 C2501 C 0.75543 0.39909 0.60092
 C2502 C 0.77097 0.40559 0.59439
 C2503 C 0.78959 0.41317 0.58678
 N2504 N 0.79860 0.40429 0.57090
 N2505 N 0.81610 0.41106 0.56410
 C2506 C 0.82526 0.42696 0.57295
 N2507 N 0.81611 0.43583 0.58885
 N2508 N 0.79860 0.42906 0.59565
 N2509 N 0.22830 0.87502 0.60020
 C2510 C 0.23695 0.89130 0.60868
 N2511 N 0.22825 0.89978 0.62494
 N2512 N 0.21143 0.89217 0.63253
 C2513 C 0.20264 0.87578 0.62417
 N2514 N 0.21147 0.86742 0.60779
 C2515 C 0.25531 0.89922 0.60078
 C2516 C 0.27086 0.90573 0.59429
 C2517 C 0.28949 0.91332 0.58672
 N2518 N 0.29851 0.92918 0.59562
 N2519 N 0.31602 0.93595 0.58885
 C2520 C 0.32518 0.92711 0.57294
 N2521 N 0.31601 0.91123 0.56406
 N2522 N 0.29850 0.90446 0.57082
 N2523 N 0.22789 0.37537 1.09984
 C2524 C 0.23656 0.39163 1.10834
 N2525 N 0.22785 0.40012 1.12459
 N2526 N 0.21099 0.39256 1.13213
 C2527 C 0.20218 0.37619 1.12374
 N2528 N 0.21103 0.36781 1.10739
 C2529 C 0.25498 0.39948 1.10051
 C2530 C 0.27056 0.40595 1.09407
 C2531 C 0.28925 0.41347 1.08659
 N2532 N 0.29827 0.42931 1.09553
 N2533 N 0.31584 0.43603 1.08884
 C2534 C 0.32506 0.42715 1.07299
 N2535 N 0.31589 0.41129 1.06407
 N2536 N 0.29832 0.40457 1.07075
 N2537 N 0.72851 1.10051 0.87487
 C2538 C 0.73715 1.10898 0.89117
 N2539 N 0.72845 1.12523 0.89966
 N2540 N 0.71163 1.13281 0.89204
 C2541 C 0.70285 1.12447 0.87564
 N2542 N 0.71168 1.10810 0.86727
 C2543 C 0.75551 1.10108 0.89910
 C2544 C 0.77105 1.09458 0.90562
 C2545 C 0.78967 1.08700 0.91323
 N2546 N 0.79869 1.09590 0.92910
 N2547 N 0.81619 1.08911 0.93589
 C2548 C 0.82534 1.07320 0.92706
 N2549 N 0.81618 1.06433 0.91117
 N2550 N 0.79868 1.07110 0.90438
 N2551 N 0.72831 0.59977 0.37497
 C2552 C 0.73695 0.60824 0.39127
 N2553 N 0.72823 0.62448 0.39978
 N2554 N 0.71139 0.63204 0.39219
 C2555 C 0.70265 0.62367 0.37580
 N2556 N 0.71147 0.60734 0.36738
 C2557 C 0.75533 0.60038 0.39917
 C2558 C 0.77090 0.59392 0.40567
 C2559 C 0.78956 0.58640 0.41324
 N2560 N 0.79857 0.59533 0.42909
 N2561 N 0.81611 0.58862 0.43584
 C2562 C 0.82531 0.57274 0.42699
 N2563 N 0.81615 0.56383 0.41112
 N2564 N 0.79860 0.57054 0.40436
 N2565 N 0.22835 1.12515 0.39914
 C2566 C 0.23707 1.10890 0.39067
 N2567 N 0.22848 1.10045 0.37433
 N2568 N 0.21169 1.10806 0.36667
 C2569 C 0.20283 1.12442 0.37503
 N2570 N 0.21156 1.13275 0.39148
 C2571 C 0.25539 1.10099 0.39866
 C2572 C 0.27091 1.09449 0.40525
 C2573 C 0.28950 1.08692 0.41293
 N2574 N 0.29851 1.07099 0.40414
 N2575 N 0.31600 1.06422 0.41100
 C2576 C 0.32513 1.07313 0.42688
 N2577 N 0.31597 1.08907 0.43565
 N2578 N 0.29849 1.09585 0.42880
 N2579 N 0.22825 0.62494 0.89983
 C2580 C 0.23691 0.60865 0.89136
 N2581 N 0.22824 0.60019 0.87508
 N2582 N 0.21143 0.60780 0.86748
 C2583 C 0.20263 0.62420 0.87583
 N2584 N 0.21144 0.63255 0.89222
 C2585 C 0.25526 0.60073 0.89928
 C2586 C 0.27079 0.59420 0.90579
 C2587 C 0.28941 0.58660 0.91339
 N2588 N 0.29842 0.57073 0.90450
 N2589 N 0.31593 0.56394 0.91128
 C2590 C 0.32508 0.57278 0.92720
 N2591 N 0.31591 0.58867 0.93607
 N2592 N 0.29841 0.59546 0.92929
 N2593 N 1.12467 1.27209 1.09933
 C2594 C 1.10833 1.26350 1.10779
 N2595 N 1.09980 1.27228 1.12399
 N2596 N 1.10740 1.28913 1.13152
 C2597 C 1.12381 1.29782 1.12316
 N2598 N 1.13226 1.28894 1.10688
 C2599 C 1.10045 1.24510 1.09998
 C2600 C 1.09396 1.22951 1.09358
 C2601 C 1.08641 1.21081 1.08614
 N2602 N 1.07062 1.20179 1.09516
 N2603 N 1.06390 1.18421 1.08852
 C2604 C 1.07273 1.17499 1.07265
 N2605 N 1.08854 1.18416 1.06365
 N2606 N 1.09527 1.20174 1.07028
 N2607 N 1.12512 0.77167 0.59975
 C2608 C 1.10877 0.76309 0.60820
 N2609 N 1.10026 0.77186 0.62442
 N2610 N 1.10788 0.78868 0.63198
 C2611 C 1.12431 0.79736 0.62362
 N2612 N 1.13274 0.78850 0.60732
 C2613 C 1.10084 0.74472 0.60035
 C2614 C 1.09431 0.72917 0.59390
 C2615 C 1.08672 0.71052 0.58639
 N2616 N 1.07089 0.70150 0.59536
 N2617 N 1.06412 0.68397 0.58864
 C2618 C 1.07294 0.67479 0.57273
 N2619 N 1.08878 0.68396 0.56378
 N2620 N 1.09555 0.70150 0.57049
 N2621 N 0.62514 1.27171 0.59984
 C2622 C 0.60879 1.26313 0.60828
 N2623 N 0.60029 1.27187 0.62451
 N2624 N 0.60794 1.28867 0.63210
 C2625 C 0.62437 1.29735 0.62375
 N2626 N 0.63278 1.28851 0.60744
 C2627 C 0.60084 1.24478 0.60040
 C2628 C 0.59430 1.22924 0.59393
 C2629 C 0.58668 1.21061 0.58639
 N2630 N 0.57081 1.20163 0.59532
 N2631 N 0.56403 1.18410 0.58859
 C2632 C 0.57287 1.17490 0.57270
 N2633 N 0.58875 1.18404 0.56380
 N2634 N 0.59554 1.20156 0.57052
 N2635 N 0.62446 0.77178 1.10032
 C2636 C 0.60819 0.76309 1.10881
 N2637 N 0.59972 0.77175 1.12511
 N2638 N 0.60732 0.78857 1.13271
 C2639 C 0.62367 0.79735 1.12431
 N2640 N 0.63205 0.78860 1.10793
 C2641 C 0.60030 0.74473 1.10091
 C2642 C 0.59382 0.72918 1.09441
 C2643 C 0.58627 0.71053 1.08684
 N2644 N 0.57040 0.70151 1.09573
 N2645 N 0.56367 0.68398 1.08897
 C2646 C 0.57255 0.67481 1.07309
 N2647 N 0.58843 0.68398 1.06422
 N2648 N 0.59517 0.70151 1.07097
 N2649 N 0.87552 1.27190 0.89979
 C2650 C 0.89177 1.26320 0.89130
 N2651 N 0.90021 1.27182 0.87496
 N2652 N 0.89259 1.28862 0.86733
 C2653 C 0.87626 1.29742 0.87574
 N2654 N 0.86791 1.28871 0.89216
 C2655 C 0.89967 1.24485 0.89922
 C2656 C 0.90615 1.22930 0.90575
 C2657 C 0.91370 1.21066 0.91335
 N2658 N 0.92954 1.20161 0.90445
 N2659 N 0.93627 1.18408 0.91123
 C2660 C 0.92739 1.17494 0.92713
 N2661 N 0.91153 1.18414 0.93600
 N2662 N 0.90480 1.20168 0.92923
 N2663 N 0.90033 0.77182 0.37505
 C2664 C 0.89186 0.76318 0.39136
 N2665 N 0.87561 0.77189 0.39986
 N2666 N 0.86804 0.78873 0.39226
 C2667 C 0.87642 0.79747 0.37587
 N2668 N 0.89275 0.78866 0.36745
 C2669 C 0.89972 0.74480 0.39926
 C2670 C 0.90618 0.72924 0.40576
 C2671 C 0.91370 0.71057 0.41333
 N2672 N 0.90476 0.70155 0.42917
 N2673 N 0.91148 0.68400 0.43591
 C2674 C 0.92737 0.67482 0.42706
 N2675 N 0.93629 0.68400 0.41121
 N2676 N 0.92958 0.70155 0.40446
 N2677 N 0.39977 1.27196 0.37523
 C2678 C 0.39130 1.26328 0.39151
 N2679 N 0.37499 1.27192 0.39997
 N2680 N 0.36737 1.28873 0.39235
 C2681 C 0.37576 1.29750 0.37598
 N2682 N 0.39215 1.28876 0.36761
 C2683 C 0.39922 1.24493 0.39942
 C2684 C 0.40573 1.22938 0.40592
 C2685 C 0.41330 1.21074 0.41349
 N2686 N 0.40441 1.20172 0.42936
 N2687 N 0.41116 1.18419 0.43611
 C2688 C 0.42703 1.17501 0.42722
 N2689 N 0.43590 1.18419 0.41134
 N2690 N 0.42916 1.20172 0.40459
 N2691 N 0.39962 0.77180 0.87566
 C2692 C 0.39112 0.76308 0.89190
 N2693 N 0.37479 0.77170 0.90035
 N2694 N 0.36719 0.78853 0.89276
 C2695 C 0.37561 0.79734 0.87644
 N2696 N 0.39201 0.78862 0.86808
 C2697 C 0.39903 0.74471 0.89978
 C2698 C 0.40553 0.72915 0.90624
 C2699 C 0.41311 0.71049 0.91377
 N2700 N 0.40425 0.70145 0.92964
 N2701 N 0.41101 0.68391 0.93635
 C2702 C 0.42687 0.67475 0.92743
 N2703 N 0.43571 0.68394 0.91154
 N2704 N 0.42896 0.70148 0.90483
 N2705 N 1.12509 0.72832 0.90022
 C2706 C 1.10876 0.73692 0.89176
 N2707 N 1.10026 0.72817 0.87553
 N2708 N 1.10790 0.71136 0.86796
 C2709 C 1.12431 0.70266 0.87632
 N2710 N 1.13272 0.71150 0.89264
 C2711 C 1.10081 0.75528 0.89963
 C2712 C 1.09427 0.77083 0.90609
 C2713 C 1.08667 0.78947 0.91362
 N2714 N 1.07084 0.79849 0.90465
 N2715 N 1.06406 0.81602 0.91137
 C2716 C 1.07286 0.82519 0.92730
 N2717 N 1.08870 0.81601 0.93625
 N2718 N 1.09548 0.79848 0.92953
 N2719 N 1.10047 0.22834 0.37485
 C2720 C 1.10893 0.23699 0.39116
 N2721 N 1.12523 0.22833 0.39962
 N2722 N 1.13286 0.21154 0.39197
 C2723 C 1.12449 0.20280 0.37559
 N2724 N 1.10811 0.21155 0.36722
 C2725 C 1.10100 0.25532 0.39910
 C2726 C 1.09448 0.27084 0.40563
 C2727 C 1.08688 0.28946 0.41323
 N2728 N 1.09577 0.29847 0.42911
 N2729 N 1.08900 0.31598 0.43589
 C2730 C 1.07310 0.32514 0.42704
 N2731 N 1.06424 0.31598 0.41114
 N2732 N 1.07100 0.29847 0.40436
 N2733 N 0.59969 0.72821 0.37510
 C2734 C 0.60817 0.73686 0.39140
 N2735 N 0.62444 0.72816 0.39988
 N2736 N 0.63201 0.71134 0.39227
 C2737 C 0.62362 0.70259 0.37589
 N2738 N 0.60728 0.71139 0.36750
 C2739 C 0.60030 0.75524 0.39930
 C2740 C 0.59384 0.77080 0.40580
 C2741 C 0.58631 0.78946 0.41336
 N2742 N 0.59525 0.79849 0.42920
 N2743 N 0.58853 0.81603 0.43594
 C2744 C 0.57264 0.82522 0.42708
 N2745 N 0.56373 0.81604 0.41123
 N2746 N 0.57044 0.79849 0.40449
 N2747 N 0.60030 0.22824 0.87556
 C2748 C 0.60879 0.23697 0.89180
 N2749 N 0.62514 0.22838 0.90024
 N2750 N 0.63279 0.21159 0.89262
 C2751 C 0.62439 0.20277 0.87629
 N2752 N 0.60796 0.21145 0.86795
 C2753 C 0.60083 0.25531 0.89970
 C2754 C 0.59428 0.27084 0.90618
 C2755 C 0.58665 0.28947 0.91373
 N2756 N 0.59548 0.29850 0.92962
 N2757 N 0.58868 0.31602 0.93634
 C2758 C 0.57281 0.32517 0.92742
 N2759 N 0.56400 0.31598 0.91152
 N2760 N 0.57080 0.29846 0.90479
 N2761 N 0.87601 0.72774 1.09910
 C2762 C 0.89228 0.73640 1.10759
 N2763 N 0.90083 0.72765 1.12380
 N2764 N 0.89331 0.71076 1.13131
 C2765 C 0.87695 0.70200 1.12291
 N2766 N 0.86849 0.71084 1.10662
 C2767 C 0.90008 0.75486 1.09981
 C2768 C 0.90649 0.77048 1.09343
 C2769 C 0.91395 0.78923 1.08601
 N2770 N 0.92975 0.79827 1.09499
 N2771 N 0.93640 0.81589 1.08839
 C2772 C 0.92748 0.82514 1.07257
 N2773 N 0.91167 0.81595 1.06361
 N2774 N 0.90501 0.79832 1.07021
 N2775 N 0.89920 0.22863 0.62545
 C2776 C 0.89076 0.23729 0.60914
 N2777 N 0.87443 0.22867 0.60071
 N2778 N 0.86676 0.21192 0.60838
 C2779 C 0.87511 0.20317 0.62478
 N2780 N 0.89152 0.21188 0.63312
 C2781 C 0.89876 0.25558 0.60116
 C2782 C 0.90534 0.27106 0.59459
 C2783 C 0.91301 0.28963 0.58694
 N2784 N 0.90418 0.29862 0.57102
 N2785 N 0.91102 0.31609 0.56419
 C2786 C 0.92694 0.32522 0.57303
 N2787 N 0.93575 0.31608 0.58897
 N2788 N 0.92891 0.29861 0.59580
 N2789 N 0.37612 0.72766 0.59913
 C2790 C 0.39235 0.73636 0.60766
 N2791 N 0.40085 0.72766 0.62391
 N2792 N 0.39333 0.71077 0.63143
 C2793 C 0.37701 0.70196 0.62298
 N2794 N 0.36860 0.71076 0.60665
 C2795 C 0.40014 0.75482 0.59986
 C2796 C 0.40653 0.77044 0.59346
 C2797 C 0.41397 0.78918 0.58600
 N2798 N 0.42976 0.79826 0.59496
 N2799 N 0.43638 0.81588 0.58831
 C2800 C 0.42745 0.82508 0.57247
 N2801 N 0.41164 0.81584 0.56354
 N2802 N 0.40502 0.79823 0.57018
 N2803 N 0.37579 0.22784 1.10000
 C2804 C 0.39202 0.23655 1.10852
 N2805 N 0.40049 0.22789 1.12482
 N2806 N 0.39291 0.21105 1.13240
 C2807 C 0.37659 0.20225 1.12397
 N2808 N 0.36822 0.21100 1.10759
 C2809 C 0.39987 0.25495 1.10065
 C2810 C 0.40631 0.27053 1.09418
 C2811 C 0.41380 0.28922 1.08666
 N2812 N 0.42961 0.29828 1.09559
 N2813 N 0.43628 0.31586 1.08888
 C2814 C 0.42737 0.32503 1.07302
 N2815 N 0.41155 0.31581 1.06410
 N2816 N 0.40487 0.29823 1.07081
 N2817 N 1.09988 1.12462 0.72797
 C2818 C 1.10837 1.10834 0.73663
 N2819 N 1.12461 1.09985 0.72791
 N2820 N 1.13216 1.10743 0.71105
 C2821 C 1.12379 1.12382 0.70226
 N2822 N 1.10744 1.13219 0.71111
 C2823 C 1.10053 1.10046 0.75503
 C2824 C 1.09408 1.09398 0.77062
 C2825 C 1.08656 1.08644 0.78930
 N2826 N 1.09551 1.07063 0.79836
 N2827 N 1.08879 1.06390 0.81592
 C2828 C 1.07289 1.07275 0.82508
 N2829 N 1.06396 1.08858 0.81587
 N2830 N 1.07068 1.09530 0.79831
 N2831 N 1.12511 0.60097 0.22834
 C2832 C 1.10888 0.60944 0.23710
 N2833 N 1.10046 0.62581 0.22855
 N2834 N 1.10806 0.63349 0.21176
 C2835 C 1.12440 0.62513 0.20287
 N2836 N 1.13271 0.60866 0.21155
 C2837 C 1.10099 0.60142 0.25542
 C2838 C 1.09450 0.59481 0.27094
 C2839 C 1.08694 0.58711 0.28954
 N2840 N 1.07101 0.59588 0.29857
 N2841 N 1.06425 0.58901 0.31605
 C2842 C 1.07318 0.57313 0.32518
 N2843 N 1.08913 0.56438 0.31600
 N2844 N 1.09589 0.57125 0.29851
 N2845 N 0.62416 1.10005 0.22789
 C2846 C 0.60790 1.10854 0.23660
 N2847 N 0.59944 1.12485 0.22796
 N2848 N 0.60703 1.13247 0.21114
 C2849 C 0.62337 1.12407 0.20234
 N2850 N 0.63174 1.10767 0.21107
 C2851 C 0.60003 1.10064 0.25498
 C2852 C 0.59357 1.09415 0.27055
 C2853 C 0.58606 1.08659 0.28922
 N2854 N 0.57022 1.09548 0.29828
 N2855 N 0.56353 1.08874 0.31585
 C2856 C 0.57244 1.07288 0.32502
 N2857 N 0.58830 1.06401 0.31580
 N2858 N 0.59499 1.07074 0.29823
 N2859 N 0.62405 0.59939 0.72794
 C2860 C 0.60779 0.60789 0.73662
 N2861 N 0.59929 0.62414 0.72791
 N2862 N 0.60685 0.63168 0.71103
 C2863 C 0.62320 0.62326 0.70226
 N2864 N 0.63161 0.60693 0.71107
 C2865 C 0.59994 0.60008 0.75505
 C2866 C 0.59350 0.59365 0.77065
 C2867 C 0.58601 0.58618 0.78937
 N2868 N 0.57019 0.59513 0.79842
 N2869 N 0.56351 0.58846 0.81602
 C2870 C 0.57241 0.57261 0.82522
 N2871 N 0.58824 0.56368 0.81602
 N2872 N 0.59492 0.57034 0.79842
 N2873 N 0.87597 0.90079 0.72775
 C2874 C 0.89222 0.89228 0.73646
 N2875 N 0.90073 0.87603 0.72777
 N2876 N 0.89319 0.86848 0.71089
 C2877 C 0.87686 0.87690 0.70209
 N2878 N 0.86844 0.89323 0.71088
 C2879 C 0.90004 0.90011 0.75489
 C2880 C 0.90646 0.90653 0.77050
 C2881 C 0.91393 0.91401 0.78922
 N2882 N 0.92974 0.90507 0.79828
 N2883 N 0.93640 0.91173 0.81588
 C2884 C 0.92748 0.92756 0.82509
 N2885 N 0.91165 0.93648 0.81588
 N2886 N 0.90498 0.92983 0.79828
 N2887 N 0.90045 0.37508 0.22808
 C2888 C 0.89201 0.39141 0.23670
 N2889 N 0.87576 0.39990 0.22799
 N2890 N 0.86816 0.39228 0.21118
 C2891 C 0.87652 0.37587 0.20246
 N2892 N 0.89285 0.36747 0.21126
 C2893 C 0.89988 0.39932 0.25508
 C2894 C 0.90635 0.40583 0.27063
 C2895 C 0.91386 0.41340 0.28930
 N2896 N 0.90492 0.42925 0.29831
 N2897 N 0.91162 0.43599 0.31586
 C2898 C 0.92750 0.42714 0.32506
 N2899 N 0.93642 0.41128 0.31590
 N2900 N 0.92972 0.40453 0.29834
 N2901 N 0.40032 0.87515 0.22811
 C2902 C 0.39189 0.89153 0.23666
 N2903 N 0.37570 0.90005 0.22786
 N2904 N 0.36815 0.89241 0.21104
 C2905 C 0.37649 0.87595 0.20239
 N2906 N 0.39276 0.86751 0.21129
 C2907 C 0.39971 0.89947 0.25504
 C2908 C 0.40613 0.90600 0.27061
 C2909 C 0.41361 0.91360 0.28928
 N2910 N 0.40461 0.92940 0.29830
 N2911 N 0.41128 0.93616 0.31586
 C2912 C 0.42719 0.92736 0.32506
 N2913 N 0.43616 0.91154 0.31588
 N2914 N 0.42950 0.90477 0.29832
 N2915 N 0.37455 0.39870 0.72878
 C2916 C 0.39080 0.39023 0.73750
 N2917 N 0.39923 0.37388 0.72892
 N2918 N 0.39161 0.36622 0.71213
 C2919 C 0.37525 0.37457 0.70328
 N2920 N 0.36694 0.39103 0.71200
 C2921 C 0.39873 0.39824 0.75582
 C2922 C 0.40526 0.40485 0.77131
 C2923 C 0.41287 0.41256 0.78989
 N2924 N 0.42881 0.40380 0.79889
 N2925 N 0.43562 0.41069 0.81635
 C2926 C 0.42673 0.42659 0.82547
 N2927 N 0.41076 0.43534 0.81632
 N2928 N 0.40395 0.42845 0.79886
 N2929 N 1.10043 0.87424 1.27163
 C2930 C 1.10885 0.89060 1.26304
 N2931 N 1.12509 0.89907 1.27176
 N2932 N 1.13272 0.89140 1.28854
 C2933 C 1.12442 0.87493 1.29726
 N2934 N 1.10806 0.86657 1.28841
 C2935 C 1.10091 0.89860 1.24472
 C2936 C 1.09440 0.90520 1.22922
 C2937 C 1.08680 0.91289 1.21063
 N2938 N 1.09571 0.92878 1.20166
 N2939 N 1.08892 0.93564 1.18418
 C2940 C 1.07298 0.92687 1.17502
 N2941 N 1.06409 0.91097 1.18414
 N2942 N 1.07088 0.90410 1.20162
 N2943 N 1.12440 0.39978 0.77196
 C2944 C 1.10819 0.39127 0.76320
 N2945 N 1.09974 0.37493 0.77180
 N2946 N 1.10730 0.36731 0.78863
 C2947 C 1.12360 0.37574 0.79749
 N2948 N 1.13195 0.39215 0.78880
 C2949 C 1.10035 0.39919 0.74482
 C2950 C 1.09390 0.40571 0.72925
 C2951 C 1.08640 0.41330 0.71058
 N2952 N 1.07052 0.40446 0.70154
 N2953 N 1.06382 0.41122 0.68399
 C2954 C 1.07276 0.42706 0.67482
 N2955 N 1.08865 0.43589 0.68401
 N2956 N 1.09535 0.42913 0.70156
 N2957 N 0.59934 0.87593 0.77215
 C2958 C 0.60785 0.89219 0.76346
 N2959 N 0.62410 0.90068 0.77215
 N2960 N 0.63165 0.89312 0.78902
 C2961 C 0.62324 0.87678 0.79781
 N2962 N 0.60690 0.86838 0.78902
 C2963 C 0.60002 0.90002 0.74503
 C2964 C 0.59359 0.90646 0.72942
 C2965 C 0.58611 0.91394 0.71071
 N2966 N 0.59506 0.92975 0.70165
 N2967 N 0.58839 0.93642 0.68405
 C2968 C 0.57254 0.92752 0.67485
 N2969 N 0.56362 0.91169 0.68406
 N2970 N 0.57028 0.90502 0.70166
 N2971 N 0.59987 0.37546 1.27233
 C2972 C 0.60835 0.39172 1.26365
 N2973 N 0.62463 0.40019 1.27231
 N2974 N 0.63222 0.39259 1.28913
 C2975 C 0.62386 0.37622 1.29796
 N2976 N 0.60747 0.36787 1.28916
 C2977 C 0.60045 0.39960 1.24526
 C2978 C 0.59396 0.40608 1.22970
 C2979 C 0.58641 0.41361 1.21103
 N2980 N 0.59531 0.42946 1.20198
 N2981 N 0.58856 0.43617 1.18443
 C2982 C 0.57269 0.42728 1.17526
 N2983 N 0.56381 0.41143 1.18447
 N2984 N 0.57055 0.40471 1.20202
 N2985 N 0.90014 1.12470 1.27221
 C2986 C 0.89166 1.10845 1.26352
 N2987 N 0.87538 1.09998 1.27218
 N2988 N 0.86779 1.10756 1.28902
 C2989 C 0.87616 1.12393 1.29784
 N2990 N 0.89255 1.13228 1.28904
 C2991 C 0.89955 1.10058 1.24513
 C2992 C 0.90603 1.09410 1.22956
 C2993 C 0.91358 1.08657 1.21089
 N2994 N 0.90467 1.07073 1.20184
 N2995 N 0.91140 1.06402 1.18429
 C2996 C 0.92728 1.07289 1.17511
 N2997 N 0.93617 1.08875 1.18431
 N2998 N 0.92944 1.09547 1.20187
 N2999 N 0.87565 0.59954 0.77202
 C3000 C 0.89192 0.60803 0.76333
 N3001 N 0.90041 0.62430 0.77202
 N3002 N 0.89283 0.63186 0.78887
 C3003 C 0.87649 0.62346 0.79766
 N3004 N 0.86808 0.60711 0.78887
 C3005 C 0.89978 0.60018 0.74492
 C3006 C 0.90623 0.59373 0.72933
 C3007 C 0.91375 0.58622 0.71064
 N3008 N 0.92959 0.59514 0.70160
 N3009 N 0.93628 0.58844 0.68402
 C3010 C 0.92738 0.57259 0.67483
 N3011 N 0.91153 0.56370 0.68402
 N3012 N 0.90482 0.57039 0.70160
 N3013 N 0.40026 1.12509 0.77176
 C3014 C 0.39182 1.10875 0.76317
 N3015 N 0.37562 1.10023 0.77194
 N3016 N 0.36806 1.10785 0.78877
 C3017 C 0.37641 1.12427 0.79746
 N3018 N 0.39270 1.13270 0.78860
 C3019 C 0.39967 1.10083 0.74478
 C3020 C 0.40611 1.09431 0.72922
 C3021 C 0.41361 1.08671 0.71055
 N3022 N 0.40464 1.07089 0.70154
 N3023 N 0.41133 1.06412 0.68399
 C3024 C 0.42723 1.07293 0.67478
 N3025 N 0.43617 1.08877 0.68395
 N3026 N 0.42948 1.09555 0.70150
 N3027 N 0.39956 0.62577 1.27168
 C3028 C 0.39113 0.60940 1.26314
 N3029 N 0.37490 0.60093 1.27190
 N3030 N 0.36731 0.60863 1.28868
 C3031 C 0.37562 0.62510 1.29736
 N3032 N 0.39196 0.63345 1.28847
 C3033 C 0.39903 0.60138 1.24481
 C3034 C 0.40551 0.59477 1.22930
 C3035 C 0.41307 0.58706 1.21070
 N3036 N 0.40413 0.57120 1.20174
 N3037 N 0.41089 0.56433 1.18425
 C3038 C 0.42683 0.57308 1.17507
 N3039 N 0.43576 0.58895 1.18419
 N3040 N 0.42900 0.59583 1.20167
 N3041 N 1.12488 1.27174 0.89992
 C3042 C 1.10863 1.26305 0.89143
 N3043 N 1.10016 1.27172 0.87514
 N3044 N 1.10774 1.28855 0.86756
 C3045 C 1.12410 1.29738 0.87594
 N3046 N 1.13245 1.28858 0.89233
 C3047 C 1.10074 1.24468 0.89932
 C3048 C 1.09426 1.22912 0.90582
 C3049 C 1.08670 1.21047 0.91338
 N3050 N 1.07085 1.20145 0.90447
 N3051 N 1.06410 1.18392 0.91122
 C3052 C 1.07296 1.17475 0.92711
 N3053 N 1.08883 1.18392 0.93600
 N3054 N 1.09558 1.20145 0.92925
 N3055 N 1.12529 0.77153 0.39908
 C3056 C 1.10903 0.76282 0.39061
 N3057 N 1.10058 0.77143 0.37428
 N3058 N 1.10819 0.78823 0.36663
 C3059 C 1.12455 0.79707 0.37498
 N3060 N 1.13288 0.78833 0.39142
 C3061 C 1.10112 0.74449 0.39859
 C3062 C 1.09461 0.72898 0.40517
 C3063 C 1.08701 0.71038 0.41284
 N3064 N 1.07110 0.70138 0.40402
 N3065 N 1.06431 0.68391 0.41087
 C3066 C 1.07319 0.67477 0.42678
 N3067 N 1.08912 0.68392 0.43557
 N3068 N 1.09592 0.70140 0.42872
 N3069 N 0.62425 1.27208 0.40015
 C3070 C 0.60799 1.26339 0.39166
 N3071 N 0.59951 1.27206 0.37537
 N3072 N 0.60708 1.28890 0.36779
 C3073 C 0.62342 1.29769 0.37620
 N3074 N 0.63181 1.28892 0.39257
 C3075 C 0.60015 1.24499 0.39953
 C3076 C 0.59370 1.22941 0.40600
 C3077 C 0.58620 1.21073 0.41354
 N3078 N 0.57033 1.20170 0.40467
 N3079 N 0.56365 1.18414 0.41139
 C3080 C 0.57260 1.17494 0.42721
 N3081 N 0.58848 1.18411 0.43607
 N3082 N 0.59517 1.20168 0.42935
 N3083 N 0.59930 0.77215 0.87593
 C3084 C 0.60780 0.76343 0.89218
 N3085 N 0.62407 0.77209 0.90068
 N3086 N 0.63164 0.78895 0.89313
 C3087 C 0.62323 0.79777 0.87679
 N3088 N 0.60687 0.78901 0.86838
 C3089 C 0.59995 0.74501 0.90000
 C3090 C 0.59349 0.72942 0.90643
 C3091 C 0.58599 0.71073 0.91392
 N3092 N 0.59489 0.70168 0.92977
 N3093 N 0.58819 0.68410 0.93645
 C3094 C 0.57237 0.67491 0.92752
 N3095 N 0.56348 0.68410 0.91166
 N3096 N 0.57017 0.70168 0.90497
 N3097 N 0.89989 1.27189 1.12485
 C3098 C 0.89139 1.26318 1.10861
 N3099 N 0.87509 1.27181 1.10015
 N3100 N 0.86749 1.28864 1.10774
 C3101 C 0.87587 1.29749 1.12409
 N3102 N 0.89228 1.28871 1.13243
 C3103 C 0.89930 1.24481 1.10073
 C3104 C 0.90582 1.22926 1.09425
 C3105 C 0.91342 1.21061 1.08670
 N3106 N 0.90458 1.20160 1.07080
 N3107 N 0.91136 1.18408 1.06406
 C3108 C 0.92721 1.17490 1.07299
 N3109 N 0.93602 1.18406 1.08891
 N3110 N 0.92925 1.20159 1.09565
 N3111 N 0.90074 0.77221 0.62402
 C3112 C 0.89224 0.76350 0.60777
 N3113 N 0.87599 0.77220 0.59925
 N3114 N 0.86845 0.78907 0.60679
 C3115 C 0.87687 0.79787 0.62313
 N3116 N 0.89320 0.78908 0.63155
 C3117 C 0.90006 0.74507 0.59996
 C3118 C 0.90648 0.72946 0.59354
 C3119 C 0.91395 0.71074 0.58607
 N3120 N 0.90501 0.70169 0.57025
 N3121 N 0.91168 0.68409 0.56359
 C3122 C 0.92751 0.67488 0.57252
 N3123 N 0.93642 0.68409 0.58835
 N3124 N 0.92977 0.70168 0.59501
 N3125 N 0.37460 1.27138 0.60125
 C3126 C 0.39085 1.26265 0.60971
 N3127 N 0.39927 1.27121 0.62608
 N3128 N 0.39165 1.28798 0.63377
 C3129 C 0.37529 1.29684 0.62542
 N3130 N 0.36699 1.28815 0.60894
 C3131 C 0.39879 1.24435 0.60168
 C3132 C 0.40531 1.22887 0.59505
 C3133 C 0.41292 1.21030 0.58732
 N3134 N 0.42889 1.20131 0.59605
 N3135 N 0.43569 1.18386 0.58914
 C3136 C 0.42677 1.17474 0.57325
 N3137 N 0.41079 1.18389 0.56454
 N3138 N 0.40398 1.20133 0.57144
 N3139 N 0.39974 0.77176 1.12492
 C3140 C 0.39124 0.76307 1.10867
 N3141 N 0.37499 0.77176 1.10018
 N3142 N 0.36743 0.78862 1.10774
 C3143 C 0.37582 0.79744 1.12411
 N3144 N 0.39218 0.78861 1.13248
 C3145 C 0.39911 0.74468 1.10080
 C3146 C 0.40558 0.72911 1.09432
 C3147 C 0.41312 0.71044 1.08678
 N3148 N 0.40422 0.70140 1.07093
 N3149 N 0.41097 0.68386 1.06420
 C3150 C 0.42685 0.67470 1.07307
 N3151 N 0.43574 0.68389 1.08893
 N3152 N 0.42900 0.70143 1.09567
 N3153 N 0.87556 0.72813 0.90053
 C3154 C 0.89183 0.73681 0.89203
 N3155 N 0.90034 0.72811 0.87577
 N3156 N 0.89278 0.71125 0.86822
 C3157 C 0.87643 0.70248 0.87663
 N3158 N 0.86801 0.71127 0.89297
 C3159 C 0.89968 0.75522 0.89987
 C3160 C 0.90613 0.77080 0.90631
 C3161 C 0.91364 0.78949 0.91381
 N3162 N 0.92948 0.79851 0.90488
 N3163 N 0.93618 0.81609 0.91157
 C3164 C 0.92728 0.82530 0.92741
 N3165 N 0.91142 0.81613 0.93632
 N3166 N 0.90471 0.79855 0.92964
 N3167 N 0.87581 0.22797 0.40011
 C3168 C 0.89207 0.23667 0.39162
 N3169 N 0.90054 0.22801 0.37532
 N3170 N 0.89297 0.21118 0.36773
 C3171 C 0.87663 0.20238 0.37614
 N3172 N 0.86824 0.21113 0.39252
 C3173 C 0.89992 0.25506 0.39950
 C3174 C 0.90637 0.27063 0.40598
 C3175 C 0.91387 0.28930 0.41352
 N3176 N 0.92973 0.29834 0.40463
 N3177 N 0.93641 0.31590 0.41136
 C3178 C 0.92748 0.32509 0.42721
 N3179 N 0.91161 0.31590 0.43607
 N3180 N 0.90492 0.29834 0.42935
 N3181 N 0.37479 0.72858 0.39909
 C3182 C 0.39103 0.73730 0.39060
 N3183 N 0.39948 0.72869 0.37427
 N3184 N 0.39188 0.71188 0.36664
 C3185 C 0.37553 0.70303 0.37502
 N3186 N 0.36720 0.71178 0.39145
 C3187 C 0.39894 0.75563 0.39857
 C3188 C 0.40545 0.77115 0.40514
 C3189 C 0.41303 0.78975 0.41281
 N3190 N 0.42895 0.79876 0.40400
 N3191 N 0.43572 0.81623 0.41085
 C3192 C 0.42684 0.82536 0.42675
 N3193 N 0.41090 0.81620 0.43554
 N3194 N 0.40412 0.79873 0.42869
 N3195 N 0.37506 0.22816 0.89998
 C3196 C 0.39132 0.23686 0.89150
 N3197 N 0.39980 0.22822 0.87521
 N3198 N 0.39221 0.21139 0.86760
 C3199 C 0.37585 0.20256 0.87596
 N3200 N 0.36749 0.21134 0.89237
 C3201 C 0.39921 0.25522 0.89942
 C3202 C 0.40570 0.27076 0.90594
 C3203 C 0.41326 0.28940 0.91353
 N3204 N 0.42914 0.29842 0.90465
 N3205 N 0.43589 0.31593 0.91142
 C3206 C 0.42702 0.32509 0.92731
 N3207 N 0.41114 0.31592 0.93618
 N3208 N 0.40437 0.29841 0.92941
 N3209 N 1.12519 0.72859 1.10109
 C3210 C 1.10894 0.73730 1.10958
 N3211 N 1.10050 0.72869 1.12591
 N3212 N 1.10811 0.71189 1.13355
 C3213 C 1.12447 0.70304 1.12518
 N3214 N 1.13279 0.71179 1.10874
 C3215 C 1.10101 0.75563 1.10160
 C3216 C 1.09449 0.77114 1.09502
 C3217 C 1.08689 0.78973 1.08734
 N3218 N 1.07098 0.79875 1.09617
 N3219 N 1.06419 0.81622 1.08931
 C3220 C 1.07304 0.82533 1.07338
 N3221 N 1.08896 0.81616 1.06457
 N3222 N 1.09577 0.79869 1.07143
 N3223 N 1.09942 0.22799 0.62473
 C3224 C 1.10787 0.23657 0.60838
 N3225 N 1.12406 0.22779 0.59984
 N3226 N 1.13158 0.21094 0.60745
 C3227 C 1.12323 0.20226 0.62388
 N3228 N 1.10696 0.21114 0.63234
 C3229 C 1.10007 0.25498 0.60048
 C3230 C 1.09367 0.27056 0.59398
 C3231 C 1.08621 0.28925 0.58641
 N3232 N 1.09523 0.29828 0.57061
 N3233 N 1.08857 0.31586 0.56387
 C3234 C 1.07268 0.32506 0.57269
 N3235 N 1.06369 0.31588 0.58850
 N3236 N 1.07034 0.29831 0.59525
 N3237 N 0.59934 0.72789 0.62409
 C3238 C 0.60785 0.73659 0.60783
 N3239 N 0.62410 0.72789 0.59933
 N3240 N 0.63164 0.71102 0.60689
 C3241 C 0.62322 0.70223 0.62323
 N3242 N 0.60688 0.71102 0.63164
 C3243 C 0.60002 0.75501 0.60001
 C3244 C 0.59360 0.77062 0.59358
 C3245 C 0.58612 0.78933 0.58610
 N3246 N 0.59505 0.79838 0.57027
 N3247 N 0.58839 0.81598 0.56360
 C3248 C 0.57255 0.82518 0.57253
 N3249 N 0.56364 0.81598 0.58837
 N3250 N 0.57030 0.79838 0.59504
 N3251 N 0.59999 0.22811 1.12481
 C3252 C 0.60849 0.23684 1.10857
 N3253 N 0.62479 0.22821 1.10010
 N3254 N 0.63238 0.21137 1.10766
 C3255 C 0.62400 0.20250 1.12401
 N3256 N 0.60759 0.21127 1.13236
 C3257 C 0.60059 0.25523 1.10072
 C3258 C 0.59408 0.27079 1.09427
 C3259 C 0.58651 0.28946 1.08676
 N3260 N 0.59536 0.29849 1.07087
 N3261 N 0.58859 0.31603 1.06417
 C3262 C 0.57276 0.32521 1.07311
 N3263 N 0.56393 0.31603 1.08901
 N3264 N 0.57069 0.29848 1.09573
 N3265 N 1.27185 1.12493 0.90042
 C3266 C 1.26326 1.10860 0.89196
 N3267 N 1.27200 1.10012 0.87572
 N3268 N 1.28881 1.10775 0.86814
 C3269 C 1.29750 1.12416 0.87651
 N3270 N 1.28867 1.13256 0.89284
 C3271 C 1.24489 1.10067 0.89982
 C3272 C 1.22934 1.09414 0.90627
 C3273 C 1.21068 1.08655 0.91378
 N3274 N 1.20168 1.07072 0.90482
 N3275 N 1.18414 1.06395 0.91152
 C3276 C 1.17493 1.07278 0.92741
 N3277 N 1.18409 1.08863 0.93635
 N3278 N 1.20163 1.09540 0.92965
 N3279 N 1.27168 0.62532 0.39971
 C3280 C 1.26309 0.60897 0.39129
 N3281 N 1.27179 0.60049 0.37502
 N3282 N 1.28857 0.60816 0.36739
 C3283 C 1.29726 0.62458 0.37572
 N3284 N 1.28846 0.63297 0.39208
 C3285 C 1.24476 0.60100 0.39921
 C3286 C 1.22925 0.59444 0.40572
 C3287 C 1.21063 0.58681 0.41330
 N3288 N 1.20166 0.57093 0.40439
 N3289 N 1.18415 0.56413 0.41115
 C3290 C 1.17496 0.57296 0.42705
 N3291 N 1.18409 0.58885 0.43593
 N3292 N 1.20160 0.59566 0.42918
 N3293 N 0.77201 1.12430 0.40003
 C3294 C 0.76329 1.10807 0.39152
 N3295 N 0.77195 1.09960 0.37522
 N3296 N 0.78880 1.10716 0.36765
 C3297 C 0.79761 1.12347 0.37608
 N3298 N 0.78886 1.13185 0.39246
 C3299 C 0.74489 1.10023 0.39939
 C3300 C 0.72931 1.09379 0.40586
 C3301 C 0.71062 1.08630 0.41340
 N3302 N 0.70155 1.07049 0.40448
 N3303 N 0.68398 1.06381 0.41120
 C3304 C 0.67483 1.07271 0.42708
 N3305 N 0.68405 1.08854 0.43598
 N3306 N 0.70162 1.09522 0.42926
 N3307 N 0.77180 0.62436 0.90054
 C3308 C 0.76312 0.60810 0.89205
 N3309 N 0.77182 0.59959 0.87579
 N3310 N 0.78867 0.60715 0.86823
 C3311 C 0.79745 0.62350 0.87664
 N3312 N 0.78866 0.63191 0.89298
 C3313 C 0.74471 0.60025 0.89990
 C3314 C 0.72912 0.59381 0.90635
 C3315 C 0.71043 0.58631 0.91386
 N3316 N 0.70140 0.57047 0.90494
 N3317 N 0.68382 0.56378 0.91164
 C3318 C 0.67462 0.57269 0.92748
 N3319 N 0.68381 0.58854 0.93638
 N3320 N 0.70138 0.59524 0.92969
 N3321 N 1.27205 0.90001 1.12423
 C3322 C 1.26326 0.89148 1.10804
 N3323 N 1.27181 0.87511 1.09961
 N3324 N 1.28864 0.86748 1.10717
 C3325 C 1.29753 0.87593 1.12344
 N3326 N 1.28888 0.89238 1.13178
 C3327 C 1.24487 0.89940 1.10022
 C3328 C 1.22930 0.90592 1.09380
 C3329 C 1.21063 0.91350 1.08634
 N3330 N 1.20157 0.90467 1.07046
 N3331 N 1.18401 0.91142 1.06381
 C3332 C 1.17483 0.92724 1.07279
 N3333 N 1.18404 0.93605 1.08869
 N3334 N 1.20161 0.92930 1.09534
 N3335 N 1.27144 0.39928 0.62553
 C3336 C 1.26282 0.39085 0.60920
 N3337 N 1.27147 0.37455 0.60075
 N3338 N 1.28823 0.36688 0.60842
 C3339 C 1.29695 0.37522 0.62484
 N3340 N 1.28820 0.39161 0.63320
 C3341 C 1.24452 0.39883 0.60121
 C3342 C 1.22903 0.40539 0.59463
 C3343 C 1.21046 0.41302 0.58697
 N3344 N 1.20149 0.40417 0.57105
 N3345 N 1.18402 0.41099 0.56422
 C3346 C 1.17485 0.42689 0.57305
 N3347 N 1.18397 0.43573 0.58898
 N3348 N 1.20144 0.42892 0.59583
 N3349 N 0.77222 0.87598 0.59919
 C3350 C 0.76353 0.89223 0.60769
 N3351 N 0.77222 0.90075 0.62394
 N3352 N 0.78909 0.89320 0.63149
 C3353 C 0.79788 0.87687 0.62308
 N3354 N 0.78909 0.86844 0.60674
 C3355 C 0.74509 0.90005 0.59987
 C3356 C 0.72949 0.90647 0.59344
 C3357 C 0.71077 0.91395 0.58597
 N3358 N 0.70172 0.92977 0.59491
 N3359 N 0.68412 0.93643 0.58825
 C3360 C 0.67491 0.92750 0.57243
 N3361 N 0.68411 0.91167 0.56351
 N3362 N 0.70171 0.90500 0.57016
 N3363 N 0.77187 0.39984 1.12449
 C3364 C 0.76308 0.39132 1.10830
 N3365 N 0.77165 0.37497 1.09984
 N3366 N 0.78850 0.36736 1.10738
 C3367 C 0.79738 0.37579 1.12366
 N3368 N 0.78871 0.39221 1.13203
 C3369 C 0.74469 0.39925 1.10048
 C3370 C 0.72913 0.40578 1.09406
 C3371 C 0.71046 0.41337 1.08657
 N3372 N 0.70141 0.40455 1.07069
 N3373 N 0.68387 0.41132 1.06401
 C3374 C 0.67470 0.42715 1.07297
 N3375 N 0.68390 0.43596 1.08888
 N3376 N 0.70145 0.42919 1.09556
 N3377 N 0.72805 1.10022 1.12431
 C3378 C 0.73682 1.10875 1.10811
 N3379 N 0.72822 1.12509 1.09966
 N3380 N 0.71137 1.13268 1.10721
 C3381 C 0.70251 1.12423 1.12350
 N3382 N 0.71120 1.10781 1.13185
 C3383 C 0.75522 1.10085 1.10028
 C3384 C 0.77079 1.09435 1.09386
 C3385 C 0.78947 1.08678 1.08638
 N3386 N 0.79853 1.09562 1.07050
 N3387 N 0.81608 1.08887 1.06383
 C3388 C 0.82525 1.07303 1.07278
 N3389 N 0.81604 1.06420 1.08867
 N3390 N 0.79848 1.07095 1.09536
 N3391 N 0.72786 0.62412 0.59935
 C3392 C 0.73657 0.60787 0.60786
 N3393 N 0.72788 0.59937 0.62413
 N3394 N 0.71101 0.60692 0.63168
 C3395 C 0.70221 0.62325 0.62325
 N3396 N 0.71100 0.63166 0.60690
 C3397 C 0.75499 0.60005 0.60002
 C3398 C 0.77059 0.59362 0.59359
 C3399 C 0.78930 0.58614 0.58610
 N3400 N 0.79834 0.57030 0.59502
 N3401 N 0.81593 0.56364 0.58835
 C3402 C 0.82514 0.57256 0.57251
 N3403 N 0.81595 0.58841 0.56361
 N3404 N 0.79836 0.59509 0.57028
 N3405 N 0.22765 1.12404 0.59978
 C3406 C 0.23639 1.10782 0.60829
 N3407 N 0.22779 1.09936 0.62462
 N3408 N 0.21095 1.10691 0.63223
 C3409 C 0.20211 1.12322 0.62380
 N3410 N 0.21081 1.13159 0.60739
 C3411 C 0.25479 1.09999 0.60040
 C3412 C 0.27038 1.09358 0.59391
 C3413 C 0.28907 1.08612 0.58636
 N3414 N 0.29814 1.07028 0.59524
 N3415 N 0.31572 1.06364 0.58852
 C3416 C 0.32490 1.07260 0.57268
 N3417 N 0.31567 1.08846 0.56382
 N3418 N 0.29809 1.09510 0.57054
 N3419 N 0.22832 0.62528 1.10051
 C3420 C 0.23691 0.60892 1.10894
 N3421 N 0.22820 0.60046 1.12521
 N3422 N 0.21143 0.60814 1.13284
 C3423 C 0.20275 0.62457 1.12450
 N3424 N 0.21155 0.63295 1.10814
 C3425 C 0.25523 0.60094 1.10101
 C3426 C 0.27074 0.59436 1.09450
 C3427 C 0.28934 0.58671 1.08692
 N3428 N 0.29835 0.57086 1.09586
 N3429 N 0.31585 0.56404 1.08909
 C3430 C 0.32500 0.57283 1.07315
 N3431 N 0.31584 0.58869 1.06423
 N3432 N 0.29834 0.59551 1.07099
 N3433 N 0.72790 0.87587 0.90067
 C3434 C 0.73657 0.89214 0.89217
 N3435 N 0.72786 0.90065 0.87593
 N3436 N 0.71100 0.89309 0.86839
 C3437 C 0.70223 0.87674 0.87679
 N3438 N 0.71104 0.86832 0.89313
 C3439 C 0.75499 0.89999 0.90000
 C3440 C 0.77058 0.90644 0.90643
 C3441 C 0.78928 0.91395 0.91390
 N3442 N 0.79832 0.92976 0.90494
 N3443 N 0.81590 0.93645 0.91161
 C3444 C 0.82510 0.92757 0.92747
 N3445 N 0.81591 0.91175 0.93641
 N3446 N 0.79833 0.90505 0.92975
 N3447 N 0.72804 0.37575 0.40009
 C3448 C 0.73676 0.39199 0.39158
 N3449 N 0.72810 0.40048 0.37529
 N3450 N 0.71125 0.39293 0.36772
 C3451 C 0.70243 0.37660 0.37615
 N3452 N 0.71119 0.36821 0.39252
 C3453 C 0.75516 0.39982 0.39945
 C3454 C 0.77074 0.40625 0.40592
 C3455 C 0.78943 0.41373 0.41346
 N3456 N 0.79849 0.42957 0.40455
 N3457 N 0.81606 0.43624 0.41128
 C3458 C 0.82523 0.42731 0.42714
 N3459 N 0.81601 0.41146 0.43602
 N3460 N 0.79844 0.40479 0.42930
 N3461 N 0.22840 0.87477 0.39957
 C3462 C 0.23701 0.89110 0.39112
 N3463 N 0.22833 0.89956 0.37483
 N3464 N 0.21155 0.89190 0.36720
 C3465 C 0.20284 0.87549 0.37556
 N3466 N 0.21162 0.86711 0.39193
 C3467 C 0.25532 0.89907 0.39906
 C3468 C 0.27083 0.90563 0.40559
 C3469 C 0.28943 0.91326 0.41320
 N3470 N 0.29842 0.92916 0.40432
 N3471 N 0.31591 0.93596 0.41111
 C3472 C 0.32507 0.92712 0.42701
 N3473 N 0.31593 0.91121 0.43587
 N3474 N 0.29844 0.90440 0.42909
 N3475 N 0.22809 0.37493 0.90050
 C3476 C 0.23671 0.39126 0.89206
 N3477 N 0.22799 0.39977 0.87581
 N3478 N 0.21117 0.39216 0.86822
 C3479 C 0.20246 0.37575 0.87658
 N3480 N 0.21128 0.36732 0.89290
 C3481 C 0.25507 0.39917 0.89993
 C3482 C 0.27063 0.40568 0.90640
 C3483 C 0.28928 0.41326 0.91391
 N3484 N 0.29828 0.42911 0.90496
 N3485 N 0.31583 0.43586 0.91166
 C3486 C 0.32503 0.42701 0.92754
 N3487 N 0.31588 0.41115 0.93647
 N3488 N 0.29833 0.40439 0.92978
   
