data_POSCAR
  _audit_creation_date              2014-09-24
  _audit_creation_method            'ToBaCCo'
  _symmetry_space_group_name_H-M    'P1'
  _symmetry_Int_Tables_number       1
  _symmetry_cell_setting            triclinic
  loop_
  _symmetry_equiv_pos_as_xyz
 x,y,z
_cell_length_a 60.8039
_cell_length_b 60.8557
_cell_length_c 60.9348
_cell_angle_alpha 89.979300
_cell_angle_beta 89.955400
_cell_angle_gamma 90.081100
loop_
  _atom_site_label
  _atom_site_type_symbol
  _atom_site_fract_x
  _atom_site_fract_y
  _atom_site_fract_z
C1 C 0.33790 1.36745 0.33995
 C2 C 0.34590 1.37640 0.32029
 C3 C 0.36461 1.36756 0.30965
 C4 C 0.37536 1.34960 0.31975
 C5 C 0.36758 1.34059 0.33949
 C6 C 0.34874 1.34949 0.34958
 C7 C 0.31890 1.37602 0.34984
 C8 C 0.31017 1.36678 0.36930
 C9 C 0.32162 1.34899 0.37892
 C10 C 0.34060 1.34028 0.36917
 C11 C 0.35140 1.32227 0.37863
 C12 C 0.37006 1.31308 0.36858
 C13 C 0.37810 1.32242 0.34904
 H14 H 0.33772 1.39077 0.31382
 H15 H 0.38921 1.34171 0.31190
 H16 H 0.31035 1.38913 0.34144
 H17 H 0.31626 1.34203 0.39437
 H18 H 0.34523 1.31535 0.39384
 H19 H 0.39226 1.31525 0.34097
 C20 C 0.33668 0.86727 0.83884
 C21 C 0.34513 0.87615 0.81934
 C22 C 0.36206 0.86544 0.80778
 C23 C 0.37085 0.84583 0.81631
 C24 C 0.36275 0.83689 0.83596
 C25 C 0.34558 0.84766 0.84724
 C26 C 0.31923 0.87759 0.84985
 C27 C 0.31015 0.86855 0.86925
 C28 C 0.31969 0.84909 0.87765
 C29 C 0.33712 0.83865 0.86678
 C30 C 0.34583 0.81896 0.87493
 C31 C 0.36271 0.80790 0.86368
 C32 C 0.37119 0.81709 0.84424
 H33 H 0.33845 0.89142 0.81311
 H34 H 0.38363 0.83723 0.80739
 H35 H 0.31319 0.89298 0.84334
 H36 H 0.31286 0.84107 0.89196
 H37 H 0.33942 0.81223 0.89012
 H38 H 0.38400 0.80857 0.83526
 C39 C 0.83656 1.36516 0.83806
 C40 C 0.84454 1.37407 0.81838
 C41 C 0.86351 1.36549 0.80798
 C42 C 0.87444 1.34774 0.81827
 C43 C 0.86668 1.33875 0.83804
 C44 C 0.84769 1.34750 0.84797
 C45 C 0.81736 1.37349 0.84779
 C46 C 0.80907 1.36433 0.86733
 C47 C 0.82057 1.34697 0.87733
 C48 C 0.83966 1.33839 0.86771
 C49 C 0.85060 1.32057 0.87732
 C50 C 0.86934 1.31145 0.86734
 C51 C 0.87736 1.32076 0.84776
 H52 H 0.83613 1.38824 0.81173
 H53 H 0.88846 1.34000 0.81056
 H54 H 0.80848 1.38665 0.83976
 H55 H 0.81460 1.34002 0.89259
 H56 H 0.84446 1.31374 0.89257
 H57 H 0.89161 1.31366 0.83978
 C58 C 0.83885 0.86847 0.34068
 C59 C 0.84652 0.87652 0.32053
 C60 C 0.86439 0.86653 0.30949
 C61 C 0.87451 0.84819 0.31959
 C62 C 0.86699 0.84001 0.33981
 C63 C 0.84911 0.85021 0.35041
 C64 C 0.82089 0.87842 0.35115
 C65 C 0.81293 0.87031 0.37126
 C66 C 0.82338 0.85215 0.38098
 C67 C 0.84138 0.84205 0.37069
 C68 C 0.85162 0.82377 0.38023
 C69 C 0.86933 0.81335 0.36968
 C70 C 0.87692 0.82157 0.34947
 H71 H 0.83887 0.89118 0.31404
 H72 H 0.88768 0.83947 0.31144
 H73 H 0.81273 0.89216 0.34332
 H74 H 0.81755 0.84592 0.39661
 H75 H 0.84549 0.81733 0.39567
 H76 H 0.89070 0.81371 0.34137
 C77 C 0.65891 0.63052 0.34005
 C78 C 0.64881 0.62019 0.32211
 C79 C 0.63042 0.62967 0.31149
 C80 C 0.62216 0.64974 0.31985
 C81 C 0.63214 0.66026 0.33774
 C82 C 0.65066 0.65069 0.34780
 C83 C 0.67742 0.62112 0.35014
 C84 C 0.68784 0.63168 0.36786
 C85 C 0.67952 0.65186 0.37539
 C86 C 0.66106 0.66139 0.36551
 C87 C 0.65298 0.68162 0.37292
 C88 C 0.63451 0.69125 0.36303
 C89 C 0.62402 0.68038 0.34559
 H90 H 0.65625 0.60530 0.31590
 H91 H 0.60753 0.65711 0.31296
 H92 H 0.68361 0.60548 0.34432
 H93 H 0.68768 0.66038 0.38872
 H94 H 0.66099 0.68984 0.38654
 H95 H 0.60989 0.68790 0.33777
 C96 C 0.66252 0.13268 0.83955
 C97 C 0.65418 0.12369 0.82005
 C98 C 0.63731 0.13431 0.80838
 C99 C 0.62857 0.15401 0.81669
 C100 C 0.63667 0.16312 0.83623
 C101 C 0.65375 0.15245 0.84769
 C102 C 0.67985 0.12239 0.85067
 C103 C 0.68896 0.13156 0.86998
 C104 C 0.67964 0.15126 0.87811
 C105 C 0.66222 0.16168 0.86714
 C106 C 0.65334 0.18140 0.87518
 C107 C 0.63643 0.19220 0.86375
 C108 C 0.62817 0.18292 0.84431
 H109 H 0.66082 0.10832 0.81399
 H110 H 0.61581 0.16255 0.80768
 H111 H 0.68692 0.10786 0.84330
 H112 H 0.68541 0.15839 0.89332
 H113 H 0.65995 0.18867 0.89002
 H114 H 0.61501 0.19109 0.83553
 C115 C 1.16387 0.63439 0.83687
 C116 C 1.15563 0.62590 0.81706
 C117 C 1.13908 0.63707 0.80550
 C118 C 1.13054 0.65671 0.81407
 C119 C 1.13846 0.66526 0.83388
 C120 C 1.15522 0.65411 0.84534
 C121 C 1.18099 0.62373 0.84798
 C122 C 1.18994 0.63245 0.86759
 C123 C 1.18060 0.65199 0.87608
 C124 C 1.16346 0.66282 0.86512
 C125 C 1.15465 0.68244 0.87349
 C126 C 1.13805 0.69368 0.86204
 C127 C 1.13002 0.68494 0.84227
 H128 H 1.16244 0.61088 0.81035
 H129 H 1.11761 0.66528 0.80532
 H130 H 1.18803 0.60928 0.84042
 H131 H 1.18616 0.65871 0.89155
 H132 H 1.16108 0.68929 0.88860
 H133 H 1.11708 0.69344 0.83348
 C134 C 1.16345 0.13442 0.33720
 C135 C 1.15382 0.12412 0.31903
 C136 C 1.13537 0.13325 0.30829
 C137 C 1.12594 0.15245 0.31740
 C138 C 1.13528 0.16271 0.33585
 C139 C 1.15426 0.15379 0.34563
 C140 C 1.18247 0.12569 0.34669
 C141 C 1.19328 0.13638 0.36423
 C142 C 1.18353 0.15566 0.37284
 C143 C 1.16421 0.16438 0.36365
 C144 C 1.15507 0.18395 0.37176
 C145 C 1.13613 0.19304 0.36210
 C146 C 1.12626 0.18216 0.34426
 H147 H 1.16080 0.10872 0.31357
 H148 H 1.11212 0.16040 0.30956
 H149 H 1.18852 0.11021 0.34041
 H150 H 1.19143 0.16473 0.38592
 H151 H 1.16304 0.19240 0.38525
 H152 H 1.11151 0.18884 0.33686
 C153 C 0.66121 1.36774 0.66109
 C154 C 0.65319 1.37569 0.68121
 C155 C 0.63577 1.36495 0.69199
 C156 C 0.62612 1.34637 0.68227
 C157 C 0.63372 1.33845 0.66207
 C158 C 0.65136 1.34913 0.65144
 C159 C 0.67904 1.37801 0.65061
 C160 C 0.68749 1.36998 0.63049
 C161 C 0.67708 1.35146 0.62098
 C162 C 0.65925 1.34107 0.63127
 C163 C 0.64938 1.32248 0.62178
 C164 C 0.63173 1.31178 0.63225
 C165 C 0.62405 1.31990 0.65244
 H166 H 0.66082 1.38990 0.68877
 H167 H 0.61252 1.33817 0.69040
 H168 H 0.68578 1.39269 0.65804
 H169 H 0.68341 1.34416 0.60608
 H170 H 0.65530 1.31647 0.60612
 H171 H 0.61076 1.31154 0.66089
 C172 C 0.65847 0.86977 1.15938
 C173 C 0.64907 0.87895 1.17834
 C174 C 0.63023 0.86951 1.18827
 C175 C 0.62121 0.85039 1.17856
 C176 C 0.63040 0.84113 1.15961
 C177 C 0.64907 0.85083 1.14995
 C178 C 0.67707 0.87938 1.14960
 C179 C 0.68642 0.87026 1.13054
 C180 C 0.67693 0.85132 1.12130
 C181 C 0.65835 0.84155 1.13086
 C182 C 0.64893 0.82263 1.12162
 C183 C 0.63032 0.81279 1.13121
 C184 C 0.62123 0.82214 1.15027
 H185 H 0.65612 0.89399 1.18468
 H186 H 0.60747 0.84195 1.18609
 H187 H 0.68414 0.89412 1.15668
 H188 H 0.68421 0.84397 1.10682
 H189 H 0.65592 0.81573 1.10678
 H190 H 0.60711 0.81449 1.15801
 C191 C 1.16041 1.36856 1.16070
 C192 C 1.15160 1.37654 1.18044
 C193 C 1.13474 1.36503 1.19130
 C194 C 1.12648 1.34554 1.18207
 C195 C 1.13498 1.33746 1.16227
 C196 C 1.15206 1.34899 1.15157
 C197 C 1.17790 1.37951 1.15034
 C198 C 1.18749 1.37119 1.13087
 C199 C 1.17835 1.35190 1.12166
 C200 C 1.16096 1.34076 1.13191
 C201 C 1.15262 1.32124 1.12293
 C202 C 1.13580 1.30948 1.13360
 C203 C 1.12698 1.31781 1.15325
 H204 H 1.15823 1.39140 1.18769
 H205 H 1.11337 1.33669 1.19030
 H206 H 1.18470 1.39382 1.15840
 H207 H 1.18435 1.34554 1.10619
 H208 H 1.15934 1.31514 1.10762
 H209 H 1.11427 1.30873 1.16183
 C210 C 1.16378 0.86627 0.66230
 C211 C 1.15532 0.87476 0.68203
 C212 C 1.13880 0.86342 0.69357
 C213 C 1.13048 0.84366 0.68503
 C214 C 1.13856 0.83515 0.66527
 C215 C 1.15525 0.84648 0.65382
 C216 C 1.18086 0.87709 0.65116
 C217 C 1.18985 0.86845 0.63153
 C218 C 1.18062 0.84884 0.62306
 C219 C 1.16356 0.83787 0.63403
 C220 C 1.15507 0.81805 0.62577
 C221 C 1.13857 0.80661 0.63723
 C222 C 1.13036 0.81532 0.65693
 H223 H 1.16197 0.88988 0.68871
 H224 H 1.11760 0.83495 0.69376
 H225 H 1.18666 0.89257 0.65772
 H226 H 1.18740 0.84115 0.60856
 H227 H 1.16164 0.81123 0.61070
 H228 H 1.11749 0.80667 0.66573
 C229 C 0.33827 0.63307 0.66132
 C230 C 0.34628 0.62552 0.68156
 C231 C 0.36395 0.63624 0.69191
 C232 C 0.37372 0.65453 0.68171
 C233 C 0.36605 0.66212 0.66140
 C234 C 0.34826 0.65138 0.65113
 C235 C 0.32028 0.62277 0.65120
 C236 C 0.31221 0.63044 0.63098
 C237 C 0.32248 0.64848 0.62079
 C238 C 0.34037 0.65906 0.63076
 C239 C 0.35034 0.67734 0.62080
 C240 C 0.36806 0.68817 0.63097
 C241 C 0.37579 0.68041 0.65130
 H242 H 0.33851 0.61157 0.68949
 H243 H 0.38748 0.66273 0.68952
 H244 H 0.31259 0.60872 0.65902
 H245 H 0.31617 0.65463 0.60533
 H246 H 0.34439 0.68304 0.60503
 H247 H 0.38916 0.68886 0.65950
 C248 C 0.33970 0.13037 1.16112
 C249 C 0.34845 0.12308 1.18116
 C250 C 0.36590 0.13448 1.19155
 C251 C 0.37436 0.15343 1.18102
 C252 C 0.36569 0.16093 1.16108
 C253 C 0.34841 0.14930 1.15101
 C254 C 0.32204 0.11923 1.15123
 C255 C 0.31320 0.12666 1.13124
 C256 C 0.32226 0.14534 1.12112
 C257 C 0.33965 0.15680 1.13094
 C258 C 0.34807 0.17592 1.12122
 C259 C 0.36499 0.18793 1.13142
 C260 C 0.37389 0.18013 1.15124
 H261 H 0.34080 0.10905 1.18896
 H262 H 0.38830 0.16219 1.18775
 H263 H 0.31519 0.10474 1.15903
 H264 H 0.31528 0.15136 1.10589
 H265 H 0.34134 0.18152 1.10574
 H266 H 0.38673 0.18938 1.15940
 C267 C 0.84162 0.62959 1.15886
 C268 C 0.85164 0.62080 1.17763
 C269 C 0.87036 0.63084 1.18679
 C270 C 0.87905 0.64983 1.17685
 C271 C 0.86921 0.65881 1.15807
 C272 C 0.85041 0.64868 1.14904
 C273 C 0.82285 0.61968 1.14984
 C274 C 0.81263 0.62864 1.13118
 C275 C 0.82152 0.64765 1.12146
 C276 C 0.84033 0.65769 1.13024
 C277 C 0.84915 0.67668 1.12058
 C278 C 0.86790 0.68688 1.12948
 C279 C 0.87782 0.67782 1.14826
 H280 H 0.84499 0.60601 1.18500
 H281 H 0.89327 0.65788 1.18397
 H282 H 0.81593 0.60521 1.15761
 H283 H 0.81391 0.65450 1.10691
 H284 H 0.84120 0.68374 1.10632
 H285 H 0.89242 0.68543 1.15508
 C286 C 0.83851 0.13335 0.66259
 C287 C 0.84774 0.12559 0.68224
 C288 C 0.86565 0.13653 0.69233
 C289 C 0.87417 0.15547 0.68183
 C290 C 0.86500 0.16346 0.66231
 C291 C 0.84714 0.15236 0.65264
 C292 C 0.82034 0.12269 0.65311
 C293 C 0.81043 0.13073 0.63368
 C294 C 0.81974 0.14958 0.62376
 C295 C 0.83776 0.16044 0.63314
 C296 C 0.84631 0.17951 0.62340
 C297 C 0.86386 0.19097 0.63315
 C298 C 0.87326 0.18266 0.65251
 H299 H 0.84009 0.11156 0.69004
 H300 H 0.88847 0.16385 0.68827
 H301 H 0.81339 0.10876 0.66171
 H302 H 0.81346 0.15574 0.60833
 H303 H 0.83916 0.18552 0.60826
 H304 H 0.88659 0.19150 0.66037
 C305 C 1.36795 0.34104 0.66116
 C306 C 1.37674 0.35087 0.68008
 C307 C 1.36736 0.37009 0.68919
 C308 C 1.34878 0.37916 0.67858
 C309 C 1.33986 0.36948 0.65969
 C310 C 1.34941 0.35029 0.65099
 C311 C 1.37752 0.32202 0.65234
 C312 C 1.36889 0.31181 0.63332
 C313 C 1.35009 0.32133 0.62347
 C314 C 1.34037 0.34036 0.63213
 C315 C 1.32181 0.34973 0.62210
 C316 C 1.31223 0.36892 0.63066
 C317 C 1.32136 0.37865 0.64949
 H318 H 1.39150 0.34383 0.68703
 H319 H 1.34042 0.39329 0.68538
 H320 H 1.39120 0.31481 0.66108
 H321 H 1.34334 0.31464 0.60847
 H322 H 1.31496 0.34225 0.60748
 H323 H 1.31386 0.39326 0.65638
 C324 C 1.36651 0.83840 1.16205
 C325 C 1.37445 0.84746 1.18171
 C326 C 1.36295 0.86443 1.19231
 C327 C 1.34347 0.87254 1.18292
 C328 C 1.33543 0.86379 1.16323
 C329 C 1.34696 0.84662 1.15278
 C330 C 1.37750 0.82085 1.15192
 C331 C 1.36926 0.81108 1.13250
 C332 C 1.34996 0.82006 1.12316
 C333 C 1.33878 0.83750 1.13319
 C334 C 1.31930 0.84573 1.12404
 C335 C 1.30753 0.86266 1.13446
 C336 C 1.31582 0.87168 1.15403
 H337 H 1.38931 0.84094 1.18906
 H338 H 1.33463 0.88575 1.19094
 H339 H 1.39181 0.81418 1.16008
 H340 H 1.34366 0.81392 1.10773
 H341 H 1.31325 0.83885 1.10878
 H342 H 1.30673 0.88449 1.16242
 C343 C 0.86590 0.33785 1.16158
 C344 C 0.87356 0.34554 1.18193
 C345 C 0.86289 0.36298 1.19265
 C346 C 0.84442 0.37274 1.18283
 C347 C 0.83677 0.36545 1.16241
 C348 C 0.84761 0.34804 1.15168
 C349 C 0.87582 0.31971 1.15135
 C350 C 0.86773 0.31138 1.13120
 C351 C 0.85021 0.32276 1.12100
 C352 C 0.83999 0.34068 1.13118
 C353 C 0.82190 0.35100 1.12130
 C354 C 0.81056 0.36802 1.13210
 C355 C 0.81822 0.37510 1.15275
 H356 H 0.88756 0.33770 1.18966
 H357 H 0.83619 0.38626 1.19099
 H358 H 0.88893 0.31142 1.16001
 H359 H 0.84442 0.31795 1.10492
 H360 H 0.81658 0.34556 1.10524
 H361 H 0.80950 0.38779 1.16165
 C362 C 0.86629 0.83888 0.66100
 C363 C 0.87389 0.84723 0.68109
 C364 C 0.86326 0.86508 0.69114
 C365 C 0.84500 0.87470 0.68080
 C366 C 0.83734 0.86664 0.66066
 C367 C 0.84796 0.84864 0.65071
 C368 C 0.87654 0.82073 0.65120
 C369 C 0.86878 0.81217 0.63120
 C370 C 0.85064 0.82218 0.62092
 C371 C 0.84015 0.84030 0.63056
 C372 C 0.82189 0.85013 0.62045
 C373 C 0.81124 0.86814 0.63028
 C374 C 0.81909 0.87623 0.65042
 H375 H 0.88783 0.83959 0.68912
 H376 H 0.83688 0.88862 0.68836
 H377 H 0.89027 0.81296 0.65944
 H378 H 0.84472 0.81590 0.60536
 H379 H 0.81607 0.84388 0.60484
 H380 H 0.81075 0.88980 0.65838
 C381 C 0.63111 0.65977 0.66167
 C382 C 0.62065 0.64886 0.67909
 C383 C 0.62986 0.62975 0.68823
 C384 C 0.64942 0.62129 0.67931
 C385 C 0.66002 0.63200 0.66187
 C386 C 0.65093 0.65140 0.65308
 C387 C 0.62227 0.67918 0.65303
 C388 C 0.63317 0.69067 0.63617
 C389 C 0.65291 0.68216 0.62763
 C390 C 0.66185 0.66260 0.63595
 C391 C 0.68180 0.65436 0.62780
 C392 C 0.69101 0.63504 0.63654
 C393 C 0.67985 0.62388 0.65344
 H394 H 0.60542 0.65536 0.68566
 H395 H 0.65684 0.60676 0.68643
 H396 H 0.60689 0.68539 0.65952
 H397 H 0.66163 0.69104 0.61488
 H398 H 0.69042 0.66328 0.61502
 H399 H 0.68661 0.60881 0.66008
 C400 C 0.63243 1.15959 1.16035
 C401 C 0.62291 1.14986 1.17898
 C402 C 0.63105 1.12991 1.18729
 C403 C 0.64887 1.11967 1.17675
 C404 C 0.65869 1.12928 1.15826
 C405 C 0.65042 1.14931 1.15003
 C406 C 0.62440 1.17960 1.15213
 C407 C 0.63413 1.18980 1.13363
 C408 C 0.65208 1.17906 1.12347
 C409 C 0.66027 1.15913 1.13156
 C410 C 0.67834 1.14899 1.12149
 C411 C 0.68685 1.12915 1.12968
 C412 C 0.67682 1.11933 1.14805
 H413 H 0.60904 1.15772 1.18693
 H414 H 0.65542 1.10444 1.18326
 H415 H 0.61116 1.18753 1.16095
 H416 H 0.65944 1.18562 1.10868
 H417 H 0.68618 1.15690 1.10758
 H418 H 0.68309 1.10391 1.15435
 C419 C 0.13093 0.66037 1.16014
 C420 C 0.12135 0.65050 1.17870
 C421 C 0.13144 0.63242 1.18929
 C422 C 0.15160 0.62466 1.18071
 C423 C 0.16130 0.63438 1.16225
 C424 C 0.15088 0.65219 1.15181
 C425 C 0.12076 0.67831 1.14979
 C426 C 0.13024 0.68843 1.13110
 C427 C 0.15023 0.67977 1.12296
 C428 C 0.16055 0.66190 1.13315
 C429 C 0.18068 0.65388 1.12519
 C430 C 0.19135 0.63641 1.13580
 C431 C 0.18149 0.62669 1.15426
 H432 H 0.10559 0.65658 1.18426
 H433 H 0.16052 0.61164 1.18887
 H434 H 0.10505 0.68380 1.15607
 H435 H 0.15861 0.68749 1.10931
 H436 H 0.18832 0.66154 1.11103
 H437 H 0.18953 0.61300 1.16233
 C438 C 0.13525 1.16243 0.66306
 C439 C 0.12706 1.15354 0.68273
 C440 C 0.13602 1.13408 0.69180
 C441 C 0.15324 1.12360 0.68022
 C442 C 0.16161 1.13235 0.66066
 C443 C 0.15257 1.15178 0.65199
 C444 C 0.12677 1.18217 0.65459
 C445 C 0.13536 1.19133 0.63517
 C446 C 0.15232 1.18026 0.62404
 C447 C 0.16108 1.16071 0.63238
 C448 C 0.17860 1.15025 0.62167
 C449 C 0.18794 1.13104 0.63042
 C450 C 0.17916 1.12206 0.64980
 H451 H 0.11443 1.16259 0.69136
 H452 H 0.15994 1.10815 0.68589
 H453 H 0.11388 1.19069 0.66343
 H454 H 0.15880 1.18691 0.60884
 H455 H 0.18546 1.15747 0.60691
 H456 H 0.18613 1.10711 0.65650
 C457 C 1.36902 0.65961 0.33943
 C458 C 1.37799 0.64980 0.32058
 C459 C 1.36857 0.63067 0.31129
 C460 C 1.34976 0.62165 0.32162
 C461 C 1.34064 0.63132 0.34042
 C462 C 1.35028 0.65039 0.34934
 C463 C 1.37857 0.67861 0.34840
 C464 C 1.36966 0.68884 0.36728
 C465 C 1.35078 0.67925 0.37694
 C466 C 1.34112 0.66025 0.36814
 C467 C 1.32238 0.65096 0.37793
 C468 C 1.31259 0.63196 0.36911
 C469 C 1.32187 0.62226 0.35033
 H470 H 1.39290 0.65680 0.31383
 H471 H 1.34138 0.60760 0.31465
 H472 H 1.39241 0.68582 0.33986
 H473 H 1.34387 0.68589 0.39190
 H474 H 1.31517 0.65876 0.39221
 H475 H 1.31462 0.60745 0.34358
 C476 C 1.36877 1.15906 0.84008
 C477 C 1.37800 1.14942 0.82128
 C478 C 1.36923 1.12990 0.81257
 C479 C 1.35101 1.12006 0.82285
 C480 C 1.34149 1.12963 0.84150
 C481 C 1.35037 1.14923 0.85014
 C482 C 1.37766 1.17842 0.84886
 C483 C 1.36855 1.18841 0.86778
 C484 C 1.34987 1.17839 0.87745
 C485 C 1.34079 1.15902 0.86879
 C486 C 1.32231 1.14920 0.87860
 C487 C 1.31336 1.12968 0.87005
 C488 C 1.32312 1.11997 0.85154
 H489 H 1.39222 1.15693 0.81357
 H490 H 1.34399 1.10515 0.81608
 H491 H 1.39123 1.18601 0.84021
 H492 H 1.34274 1.18495 0.89233
 H493 H 1.31498 1.15663 0.89302
 H494 H 1.31614 1.10507 0.84468
 C495 C 0.86661 0.66106 0.83808
 C496 C 0.87697 0.65099 0.82013
 C497 C 0.86933 0.63073 0.81202
 C498 C 0.85132 0.62044 0.82225
 C499 C 0.84070 0.63036 0.84011
 C500 C 0.84829 0.65080 0.84800
 C501 C 0.87410 0.68136 0.84611
 C502 C 0.86331 0.69168 0.86372
 C503 C 0.84499 0.68141 0.87341
 C504 C 0.83743 0.66108 0.86569
 C505 C 0.81908 0.65093 0.87530
 C506 C 0.81140 0.63058 0.86751
 C507 C 0.82239 0.62035 0.84997
 H508 H 0.89101 0.65888 0.81247
 H509 H 0.84519 0.60495 0.81592
 H510 H 0.88806 0.68934 0.83840
 H511 H 0.83673 0.68921 0.88711
 H512 H 0.81083 0.65880 0.88897
 H513 H 0.81638 0.60480 0.84368
 C514 C 0.86968 1.15897 0.34059
 C515 C 0.87878 1.14940 0.32168
 C516 C 0.86965 1.13013 0.31235
 C517 C 0.85098 1.12081 0.32268
 C518 C 0.84179 1.13021 0.34157
 C519 C 0.85111 1.14937 0.35056
 C520 C 0.87897 1.17802 0.34971
 C521 C 0.86992 1.18765 0.36868
 C522 C 0.85129 1.17798 0.37845
 C523 C 0.84181 1.15896 0.36951
 C524 C 0.82321 1.14934 0.37924
 C525 C 0.81381 1.13020 0.37033
 C526 C 0.82322 1.12077 0.35148
 H527 H 0.89354 1.15668 0.31492
 H528 H 0.84277 1.10668 0.31566
 H529 H 0.89308 1.18555 0.34184
 H530 H 0.84434 1.18510 0.39320
 H531 H 0.81618 1.15659 0.39389
 H532 H 0.81586 1.10619 0.34434
 C533 C 0.62976 0.34223 0.34123
 C534 C 0.62031 0.35138 0.32229
 C535 C 0.62926 0.37045 0.31235
 C536 C 0.64818 0.37993 0.32202
 C537 C 0.65771 0.37099 0.34094
 C538 C 0.64849 0.35211 0.35063
 C539 C 0.62068 0.32337 0.35101
 C540 C 0.63008 0.31430 0.37005
 C541 C 0.64877 0.32429 0.37927
 C542 C 0.65806 0.34307 0.36969
 C543 C 0.67682 0.35291 0.37882
 C544 C 0.68621 0.37169 0.36916
 C545 C 0.67653 0.38060 0.35020
 H546 H 0.60544 0.34395 0.31597
 H547 H 0.65630 0.39384 0.31446
 H548 H 0.60614 0.31587 0.34394
 H549 H 0.65633 0.31721 0.39374
 H550 H 0.68398 0.34606 0.39360
 H551 H 0.68384 0.39488 0.34244
 C552 C 0.63325 0.83675 0.83788
 C553 C 0.62472 0.84490 0.81808
 C554 C 0.63581 0.86158 0.80655
 C555 C 0.65535 0.87035 0.81517
 C556 C 0.66393 0.86256 0.83502
 C557 C 0.65287 0.84570 0.84647
 C558 C 0.62278 0.81946 0.84897
 C559 C 0.63166 0.81093 0.86850
 C560 C 0.65092 0.82030 0.87722
 C561 C 0.66162 0.83757 0.86632
 C562 C 0.68123 0.84647 0.87464
 C563 C 0.69239 0.86314 0.86317
 C564 C 0.68357 0.87114 0.84342
 H565 H 0.60979 0.83789 0.81132
 H566 H 0.66387 0.88334 0.80641
 H567 H 0.60778 0.81251 0.84231
 H568 H 0.65802 0.81365 0.89212
 H569 H 0.68813 0.84004 0.88973
 H570 H 0.69203 0.88414 0.83461
 C571 C 0.13332 0.33774 0.83796
 C572 C 0.12554 0.34592 0.81785
 C573 C 0.13542 0.36437 0.80799
 C574 C 0.15317 0.37470 0.81862
 C575 C 0.16124 0.36660 0.83857
 C576 C 0.15128 0.34805 0.84830
 C577 C 0.12364 0.31916 0.84763
 C578 C 0.13160 0.31044 0.86765
 C579 C 0.14960 0.32115 0.87778
 C580 C 0.15941 0.33974 0.86828
 C581 C 0.17739 0.35005 0.87843
 C582 C 0.18753 0.36842 0.86871
 C583 C 0.17927 0.37665 0.84882
 H584 H 0.11204 0.33765 0.80967
 H585 H 0.16070 0.38915 0.81139
 H586 H 0.11052 0.31104 0.83879
 H587 H 0.15569 0.31566 0.89353
 H588 H 0.18386 0.34346 0.89364
 H589 H 0.18686 0.39095 0.84135
 C590 C 0.13129 0.84104 0.34003
 C591 C 0.12232 0.85041 0.32097
 C592 C 0.13174 0.86931 0.31120
 C593 C 0.15064 0.87848 0.32121
 C594 C 0.15975 0.86926 0.34024
 C595 C 0.15003 0.85049 0.34970
 C596 C 0.12170 0.82230 0.34948
 C597 C 0.13054 0.81254 0.36863
 C598 C 0.14938 0.82238 0.37810
 C599 C 0.15908 0.84114 0.36881
 C600 C 0.17774 0.85073 0.37842
 C601 C 0.18763 0.86941 0.36904
 C602 C 0.17854 0.87853 0.34990
 H603 H 0.10738 0.84330 0.31445
 H604 H 0.15906 0.89233 0.31386
 H605 H 0.10788 0.81488 0.34110
 H606 H 0.15623 0.81610 0.39323
 H607 H 0.18483 0.84343 0.39302
 H608 H 0.18592 0.89308 0.34272
 O609 O 1.07883 1.02008 1.10928
 O610 O 1.10454 1.01982 1.13478
 C611 C 1.08677 1.02759 1.12703
 C612 C 1.07556 1.04592 1.13848
 C613 C 1.08378 1.05393 1.15845
 H614 H 1.09785 1.04605 1.16598
 O615 O 0.92020 0.97876 1.10963
 O616 O 0.89438 0.97896 1.13506
 C617 C 0.91216 0.97118 1.12733
 C618 C 0.92322 0.95270 1.13865
 C619 C 0.91473 0.94432 1.15839
 H620 H 0.90060 0.95209 1.16592
 O621 O 1.02226 1.10927 1.08001
 O622 O 1.02266 1.13486 1.10562
 C623 C 1.03010 1.12699 1.08778
 C624 C 1.04853 1.13807 1.07628
 C625 C 1.05715 1.15799 1.08421
 H626 H 1.04986 1.16575 1.09845
 O627 O 0.97677 0.89021 1.07951
 O628 O 0.97640 0.86425 1.10477
 C629 C 0.96905 0.87231 1.08698
 C630 C 0.95106 0.86108 1.07502
 C631 C 0.94369 0.84019 1.08157
 H632 H 0.95177 0.83184 1.09503
 O633 O 1.11019 1.07768 1.02186
 O634 O 1.13643 1.10274 1.02202
 C635 C 1.12831 1.08492 1.02932
 C636 C 1.13974 1.07265 1.04694
 C637 C 1.16085 1.07893 1.05388
 H638 H 1.16895 1.09274 1.04609
 O639 O 0.88955 0.92198 1.02123
 O640 O 0.86343 0.89680 1.02114
 C641 C 0.87147 0.91456 1.02863
 C642 C 0.85996 0.92648 1.04645
 C643 C 0.83895 0.91985 1.05338
 H644 H 0.83091 0.90614 1.04534
 O645 O 0.97891 1.07964 1.10994
 O646 O 0.97925 1.10499 1.13578
 C647 C 0.97155 1.08725 1.12790
 C648 C 0.95356 1.07549 1.13943
 C649 C 0.94643 1.08234 1.16028
 H650 H 0.95461 1.09592 1.16837
 O651 O 1.01997 0.91950 1.10979
 O652 O 1.01967 0.89386 1.13537
 C653 C 1.02735 0.91171 1.12766
 C654 C 1.04531 0.92340 1.13923
 C655 C 1.05249 0.91648 1.16005
 H656 H 1.04436 0.90284 1.16812
 O657 O 1.10817 0.97645 1.07953
 O658 O 1.13380 0.97595 1.10511
 C659 C 1.12585 0.96854 1.08730
 C660 C 1.13685 0.95012 1.07582
 C661 C 1.15670 0.94140 1.08381
 H662 H 1.16441 0.94857 1.09815
 O663 O 0.89099 1.02229 1.07963
 O664 O 0.86511 1.02258 1.10501
 C665 C 0.87311 1.02997 1.08720
 C666 C 0.86174 1.04789 1.07532
 C667 C 0.84070 1.05482 1.08184
 H668 H 0.83241 1.04653 1.09525
 O669 O 0.92195 1.11033 1.02189
 O670 O 0.89653 1.13614 1.02198
 C671 C 0.91433 1.12820 1.02947
 C672 C 0.92593 1.13954 1.04760
 C673 C 0.91817 1.15971 1.05557
 H674 H 0.90426 1.16752 1.04768
 O675 O 1.07662 0.88886 1.02077
 O676 O 1.10181 0.86282 1.02051
 C677 C 1.08403 0.87076 1.02806
 C678 C 1.07215 0.85924 1.04592
 C679 C 1.07886 0.83831 1.05293
 H680 H 1.09251 0.83028 1.04482
 O681 O 0.92089 1.02171 1.10991
 O682 O 0.89518 1.02195 1.13546
 C683 C 0.91322 1.02923 1.12779
 C684 C 0.92518 1.04697 1.13943
 C685 C 0.91837 1.05397 1.16031
 H686 H 0.90453 1.04598 1.16821
 O687 O 1.07811 0.97717 1.10965
 O688 O 1.10365 0.97693 1.13533
 C689 C 1.08565 0.96967 1.12758
 C690 C 1.07365 0.95196 1.13923
 C691 C 1.08048 0.94492 1.16007
 H692 H 1.09434 0.95289 1.16792
 O693 O 1.01957 0.88960 1.07951
 O694 O 1.01932 0.86373 1.10487
 C695 C 1.02680 0.87151 1.08700
 C696 C 1.04434 0.85970 1.07493
 C697 C 1.05132 0.83878 1.08174
 H698 H 1.04328 0.83085 1.09550
 O699 O 0.97938 1.10992 1.08006
 O700 O 0.97961 1.13547 1.10571
 C701 C 0.97205 1.12785 1.08782
 C702 C 0.95414 1.13949 1.07617
 C703 C 0.94612 1.15972 1.08392
 H704 H 0.95345 1.16725 1.09827
 O705 O 0.89164 1.08041 1.02171
 O706 O 0.86607 1.10608 1.02178
 C707 C 0.87373 1.08811 1.02916
 C708 C 0.86197 1.07622 1.04686
 C709 C 0.84088 1.08283 1.05353
 H710 H 0.83295 1.09654 1.04542
 O711 O 1.10700 0.91867 1.02150
 O712 O 1.13229 0.89272 1.02147
 C713 C 1.12466 0.91058 1.02913
 C714 C 1.13612 0.92172 1.04746
 C715 C 1.15586 0.91317 1.05577
 H716 H 1.16320 0.89886 1.04816
 O717 O 0.97709 0.91997 1.10978
 O718 O 0.97661 0.89420 1.13522
 C719 C 0.96934 0.91219 1.12752
 C720 C 0.95123 0.92388 1.13885
 C721 C 0.94254 0.91580 1.15866
 H722 H 0.94954 0.90124 1.16611
 O723 O 1.02177 1.07904 1.10983
 O724 O 1.02224 1.10447 1.13560
 C725 C 1.02947 1.08656 1.12769
 C726 C 1.04748 1.07466 1.13893
 C727 C 1.05592 1.08237 1.15897
 H728 H 1.04882 1.09678 1.16662
 O729 O 0.89017 0.97946 1.07955
 O730 O 0.86424 0.97975 1.10487
 C731 C 0.87204 0.97223 1.08704
 C732 C 0.86025 0.95459 1.07510
 C733 C 0.83924 0.94767 1.08186
 H734 H 0.83121 0.95585 1.09546
 O735 O 1.10912 1.01932 1.07933
 O736 O 1.13494 1.01882 1.10473
 C737 C 1.12726 1.02640 1.08688
 C738 C 1.13925 1.04398 1.07503
 C739 C 1.16041 1.05042 1.08169
 H740 H 1.16843 1.04175 1.09498
 O741 O 0.91922 0.89139 1.02124
 O742 O 0.89325 0.86607 1.02118
 C743 C 0.91126 0.87356 1.02866
 C744 C 0.92286 0.86169 1.04644
 C745 C 0.91575 0.84080 1.05320
 H746 H 0.90184 0.83316 1.04512
 O747 O 1.08048 1.10812 1.02225
 O748 O 1.10658 1.13331 1.02249
 C749 C 1.08856 1.12576 1.02994
 C750 C 1.07720 1.13729 1.04810
 C751 C 1.08563 1.15710 1.05635
 H752 H 1.10001 1.16446 1.04880
 Cu753 Cu 1.09099 0.99830 1.09189
 Cu754 Cu 1.12180 0.99786 1.12256
 Cu755 Cu 0.90816 1.00054 1.09216
 Cu756 Cu 0.87717 1.00087 1.12269
 Cu757 Cu 1.00051 1.09194 1.09239
 Cu758 Cu 1.00096 1.12252 1.12326
 Cu759 Cu 0.99842 0.90741 1.09213
 Cu760 Cu 0.99799 0.87643 1.12264
 C761 C 1.05728 1.05628 1.12894
 H762 H 1.05107 1.05043 1.11334
 C763 C 1.07415 1.07218 1.16875
 C764 C 0.94159 0.94247 1.12912
 H765 H 0.94799 0.94861 1.11369
 C766 C 0.92422 0.92586 1.16846
 C767 C 1.05853 1.12799 1.05807
 H768 H 1.05218 1.11249 1.05204
 C769 C 1.07578 1.16751 1.07441
 C770 C 0.94066 0.87159 1.05731
 H771 H 0.94607 0.88782 1.05233
 C772 C 0.92610 0.82988 1.07070
 C773 C 1.12917 1.05504 1.05750
 H774 H 1.11275 1.05031 1.05245
 C775 C 1.17138 1.06785 1.07119
 C776 C 0.87037 0.94401 1.05727
 H777 H 0.88668 0.94904 1.05216
 C778 C 0.82842 0.93037 1.07102
 C779 C 0.94293 1.05769 1.12925
 H780 H 0.94813 1.05253 1.11304
 C781 C 0.92891 1.07159 1.17088
 C782 C 1.05590 0.94126 1.12907
 H783 H 1.05070 0.94647 1.11289
 C784 C 1.06998 0.92726 1.17064
 C785 C 1.12683 0.94029 1.05749
 H786 H 1.11140 0.94674 1.05140
 C787 C 1.16621 0.92284 1.07395
 C788 C 0.87215 1.05858 1.05771
 H789 H 0.88850 1.05352 1.05279
 C790 C 0.83010 1.07219 1.07097
 C791 C 0.94406 1.12966 1.05787
 H792 H 0.94990 1.11392 1.05200
 C793 C 0.92803 1.16985 1.07377
 C794 C 1.05473 0.86968 1.05689
 H795 H 1.04965 0.88594 1.05175
 C796 C 1.06852 0.82793 1.07080
 O797 O 1.07896 0.97792 0.89069
 O798 O 1.10481 0.97758 0.86530
 C799 C 1.08678 0.97026 0.87294
 C800 C 1.07509 0.95223 0.86146
 C801 C 1.08351 0.94345 0.84185
 H802 H 1.09842 0.95023 0.83485
 O803 O 0.92077 1.02315 0.89073
 O804 O 0.89498 1.02378 0.86532
 C805 C 0.91300 1.03099 0.87304
 C806 C 0.92477 1.04911 0.86176
 C807 C 0.91677 1.05781 0.84194
 H808 H 0.90220 1.05083 0.83444
 O809 O 0.98015 1.10995 0.92136
 O810 O 0.98057 1.13588 0.89607
 C811 C 0.97296 1.12804 0.91386
 C812 C 0.95523 1.13978 0.92568
 C813 C 0.94835 1.16067 0.91875
 H814 H 0.95641 1.16847 0.90492
 O815 O 1.01940 0.89072 0.91983
 O816 O 1.01909 0.86521 0.89414
 C817 C 1.02674 0.87284 0.91199
 C818 C 1.04490 0.86124 0.92331
 C819 C 1.05333 0.84155 0.91475
 H820 H 1.04558 0.83416 0.90056
 O821 O 1.10756 0.91930 0.97872
 O822 O 1.13309 0.89360 0.97870
 C823 C 1.12556 0.91165 0.97141
 C824 C 1.13752 0.92364 0.95391
 C825 C 1.15853 0.91684 0.94717
 H826 H 1.16628 0.90295 0.95514
 O827 O 0.89146 1.08077 0.97897
 O828 O 0.86597 1.10652 0.97904
 C829 C 0.87357 1.08858 0.97158
 C830 C 0.86174 1.07682 0.95390
 C831 C 0.84066 1.08354 0.94728
 H832 H 0.83265 1.09704 0.95566
 O833 O 1.02260 1.07960 0.89093
 O834 O 1.02307 1.10542 0.86554
 C835 C 1.03031 1.08740 0.87318
 C836 C 1.04834 1.07568 0.86174
 C837 C 1.05698 1.08377 0.84191
 H838 H 1.05001 1.09837 0.83453
 O839 O 0.97689 0.92137 0.88982
 O840 O 0.97652 0.89592 0.86407
 C841 C 0.96921 0.91380 0.87196
 C842 C 0.95115 0.92560 0.86070
 C843 C 0.94222 0.91746 0.84103
 H844 H 0.94897 0.90270 0.83375
 O845 O 1.10942 1.02046 0.92096
 O846 O 1.13536 1.02016 0.89564
 C847 C 1.12752 1.02772 0.91343
 C848 C 1.13930 1.04542 0.92529
 C849 C 1.16025 1.05236 0.91841
 H850 H 1.16795 1.04449 0.90445
 O851 O 0.89052 0.98023 0.92071
 O852 O 0.86475 0.98064 0.89526
 C853 C 0.87256 0.97288 0.91298
 C854 C 0.86104 0.95464 0.92430
 C855 C 0.84124 0.94631 0.91586
 H856 H 0.83376 0.95416 0.90177
 O857 O 1.08068 1.10872 0.97941
 O858 O 1.10664 1.13407 0.97958
 C859 C 1.08863 1.12658 0.97206
 C860 C 1.07698 1.13838 0.95427
 C861 C 1.08394 1.15930 0.94730
 H862 H 1.09755 1.16730 0.95554
 O863 O 0.91931 0.89152 0.97838
 O864 O 0.89330 0.86623 0.97834
 C865 C 0.91125 0.87381 0.97079
 C866 C 0.92245 0.86238 0.95246
 C867 C 0.91394 0.84263 0.94411
 H868 H 0.89989 0.83506 0.95203
 O869 O 0.92028 0.98025 0.89032
 O870 O 0.89457 0.98082 0.86482
 C871 C 0.91233 0.97297 0.87246
 C872 C 0.92343 0.95464 0.86094
 C873 C 0.91487 0.94639 0.84120
 H874 H 0.90087 0.95441 0.83369
 O875 O 1.07938 1.02086 0.89089
 O876 O 1.10520 1.02062 0.86547
 C877 C 1.08740 1.02838 0.87316
 C878 C 1.07627 1.04681 0.86181
 C879 C 1.08469 1.05515 0.84203
 H880 H 1.09877 1.04732 0.83445
 O881 O 0.97649 0.89123 0.91984
 O882 O 0.97611 0.86569 0.89418
 C883 C 0.96869 0.87350 0.91205
 C884 C 0.95042 0.86225 0.92362
 C885 C 0.94154 0.84257 0.91538
 H886 H 0.94842 0.83531 0.90068
 O887 O 1.02300 1.10928 0.92144
 O888 O 1.02337 1.13522 0.89616
 C889 C 1.03068 1.12721 0.91398
 C890 C 1.04855 1.13862 0.92592
 C891 C 1.05566 1.15953 0.91926
 H892 H 1.04776 1.16749 0.90546
 O893 O 0.88964 0.92193 0.97836
 O894 O 0.86358 0.89668 0.97826
 C895 C 0.87171 0.91439 0.97072
 C896 C 0.86061 0.92599 0.95244
 C897 C 0.84091 0.91776 0.94358
 H898 H 0.83355 0.90309 0.95049
 O899 O 1.11018 1.07807 0.97910
 O900 O 1.13631 1.10324 0.97924
 C901 C 1.12824 1.08553 0.97167
 C902 C 1.13966 1.07370 0.95375
 C903 C 1.16064 1.08036 0.94670
 H904 H 1.16892 1.09371 0.95506
 O905 O 1.01986 0.92107 0.89006
 O906 O 1.01955 0.89564 0.86430
 C907 C 1.02737 0.91331 0.87223
 C908 C 1.04594 0.92451 0.86107
 C909 C 1.05448 0.91612 0.84137
 H910 H 1.04654 0.90219 0.83364
 O911 O 0.97962 1.08006 0.89116
 O912 O 0.98002 1.10589 0.86577
 C913 C 0.97216 1.08812 0.87344
 C914 C 0.95369 1.07706 0.86205
 C915 C 0.94540 1.08558 0.84231
 H916 H 0.95323 1.09973 0.83483
 O917 O 0.89071 1.02307 0.92094
 O918 O 0.86478 1.02347 0.89565
 C919 C 0.87274 1.03067 0.91353
 C920 C 0.86127 1.04837 0.92562
 C921 C 0.84016 1.05522 0.91931
 H922 H 0.83198 1.04719 0.90571
 O923 O 1.10871 0.97763 0.92113
 O924 O 1.13469 0.97736 0.89585
 C925 C 1.12665 0.97000 0.91365
 C926 C 1.13798 0.95210 0.92559
 C927 C 1.15896 0.94503 0.91903
 H928 H 1.16728 0.95330 0.90564
 O929 O 1.07710 0.88948 0.97787
 O930 O 1.10253 0.86368 0.97759
 C931 C 1.08481 0.87174 0.97005
 C932 C 1.07339 0.86075 0.95158
 C933 C 1.08172 0.84116 0.94263
 H934 H 1.09636 0.83384 0.94959
 O935 O 0.92202 1.11049 0.97906
 O936 O 0.89670 1.13640 0.97909
 C937 C 0.91453 1.12849 0.97162
 C938 C 0.92652 1.13998 0.95381
 C939 C 0.91979 1.16084 0.94655
 H940 H 0.90614 1.16899 0.95456
 Cu941 Cu 1.09151 0.99924 0.90844
 Cu942 Cu 1.12257 0.99889 0.87797
 Cu943 Cu 0.90817 1.00167 0.90820
 Cu944 Cu 0.87719 1.00225 0.87769
 Cu945 Cu 1.09277 1.09064 1.00062
 Cu946 Cu 1.12409 1.12090 1.00086
 Cu947 Cu 1.08951 0.90664 0.99971
 Cu948 Cu 1.11996 0.87559 0.99955
 Cu949 Cu 0.90932 1.09293 1.00037
 Cu950 Cu 0.87879 1.12391 1.00048
 Cu951 Cu 0.90703 0.90924 0.99985
 Cu952 Cu 0.87577 0.87891 0.99978
 Cu953 Cu 1.00132 1.09210 0.90873
 Cu954 Cu 1.00181 1.12317 0.87830
 Cu955 Cu 0.99816 0.90865 0.90745
 Cu956 Cu 0.99779 0.87807 0.87658
 C957 C 1.05621 0.94273 0.87084
 H958 H 1.04989 0.94911 0.88620
 C959 C 1.07339 0.92531 0.83173
 C960 C 0.94338 1.05871 0.87154
 H961 H 0.94945 1.05230 0.88697
 C962 C 0.92693 1.07613 0.83220
 C963 C 0.94437 1.12969 0.94337
 H964 H 0.94945 1.11347 0.94864
 C965 C 0.93068 1.17134 0.92908
 C966 C 1.05489 0.87057 0.94189
 H967 H 1.04866 0.88590 0.94841
 C968 C 1.07187 0.83149 0.92414
 C969 C 1.12750 0.94143 0.94317
 H970 H 1.11118 0.94659 0.94810
 C971 C 1.16939 0.92746 0.92976
 C972 C 0.87181 1.05912 0.94308
 H973 H 0.88819 1.05406 0.94789
 C974 C 0.82970 1.07275 0.93008
 C975 C 1.05796 1.05706 0.87141
 H976 H 1.05162 1.05094 0.88687
 C977 C 1.07524 1.07367 0.83201
 C978 C 0.94173 0.94429 0.87041
 H979 H 0.94822 0.95039 0.88580
 C980 C 0.92400 0.92769 0.83120
 C981 C 1.12924 1.05608 0.94308
 H982 H 1.11297 1.05102 0.94829
 C983 C 1.17111 1.06977 0.92906
 C984 C 0.87046 0.94452 0.94275
 H985 H 0.88589 0.95069 0.94918
 C986 C 0.83117 0.92773 0.92520
 C987 C 1.05915 1.12829 0.94358
 H988 H 1.05387 1.11205 0.94864
 C989 C 1.07327 1.17005 0.92988
 C990 C 0.94085 0.87192 0.94226
 H991 H 0.94731 0.88731 0.94844
 C992 C 0.92322 0.83267 0.92547
 O993 O 0.97741 0.42148 0.39040
 O994 O 0.97716 0.39585 0.36483
 C995 C 0.96969 0.41369 0.37265
 C996 C 0.95143 0.42517 0.36136
 C997 C 0.94246 0.41665 0.34187
 H998 H 0.94926 0.40181 0.33482
 O999 O 1.02200 0.58044 0.39093
 O1000 O 1.02227 0.60610 0.36536
 C1001 C 1.02960 0.58814 0.37308
 C1002 C 1.04739 0.57626 0.36147
 C1003 C 1.05452 0.58316 0.34065
 H1004 H 1.04642 0.59684 0.33266
 O1005 O 0.89025 0.48046 0.42020
 O1006 O 0.86448 0.48079 0.39474
 C1007 C 0.87223 0.47318 0.41256
 C1008 C 0.86049 0.45535 0.42428
 C1009 C 0.83952 0.44853 0.41745
 H1010 H 0.83166 0.45668 0.40374
 O1011 O 1.10959 0.52172 0.42040
 O1012 O 1.13535 0.52169 0.39491
 C1013 C 1.12756 0.52917 0.41276
 C1014 C 1.13914 0.54705 0.42457
 C1015 C 1.16007 0.55418 0.41779
 H1016 H 1.16821 0.54605 0.40423
 O1017 O 0.91931 0.39153 0.47799
 O1018 O 0.89357 0.36596 0.47785
 C1019 C 0.91158 0.37362 0.47052
 C1020 C 0.92353 0.36195 0.45283
 C1021 C 0.91679 0.34100 0.44579
 H1022 H 0.90311 0.33290 0.45384
 O1023 O 1.07986 0.61004 0.47872
 O1024 O 1.10560 0.63561 0.47893
 C1025 C 1.08766 0.62799 0.47141
 C1026 C 1.07590 0.63975 0.45366
 C1027 C 1.08281 0.66067 0.44666
 H1028 H 1.09644 0.66870 0.45483
 O1029 O 0.92080 0.52304 0.39016
 O1030 O 0.89532 0.52330 0.36442
 C1031 C 0.91327 0.53061 0.37225
 C1032 C 0.92531 0.54840 0.36078
 C1033 C 0.91870 0.55555 0.33988
 H1034 H 0.90514 0.54744 0.33167
 O1035 O 1.07923 0.47905 0.39032
 O1036 O 1.10486 0.47884 0.36471
 C1037 C 1.08694 0.47142 0.37250
 C1038 C 1.07521 0.45331 0.36117
 C1039 C 1.08340 0.44454 0.34144
 H1040 H 1.09817 0.45138 0.33420
 O1041 O 1.02056 0.39144 0.42025
 O1042 O 1.02045 0.36593 0.39455
 C1043 C 1.02807 0.37363 0.41237
 C1044 C 1.04629 0.36210 0.42366
 C1045 C 1.05485 0.34254 0.41497
 H1046 H 1.04747 0.33534 0.40047
 O1047 O 0.97907 0.61055 0.42089
 O1048 O 0.97924 0.63635 0.39547
 C1049 C 0.97167 0.62850 0.41327
 C1050 C 0.95376 0.64005 0.42506
 C1051 C 0.94681 0.66101 0.41834
 H1052 H 0.95522 0.66920 0.40496
 O1053 O 0.89047 0.58047 0.47858
 O1054 O 0.86490 0.60614 0.47871
 C1055 C 0.87258 0.58825 0.47117
 C1056 C 0.86099 0.57660 0.45325
 C1057 C 0.84009 0.58347 0.44627
 H1058 H 0.83212 0.59714 0.45440
 O1059 O 1.10813 0.42059 0.47828
 O1060 O 1.13366 0.39488 0.47807
 C1061 C 1.12595 0.41282 0.47068
 C1062 C 1.13754 0.42440 0.45266
 C1063 C 1.15766 0.41639 0.44476
 H1064 H 1.16520 0.40231 0.45259
 O1065 O 0.97913 0.58059 0.39070
 O1066 O 0.97936 0.60623 0.36511
 C1067 C 0.97180 0.58832 0.37278
 C1068 C 0.95401 0.57657 0.36103
 C1069 C 0.94723 0.58344 0.34011
 H1070 H 0.95537 0.59723 0.33230
 O1071 O 1.02041 0.42185 0.39048
 O1072 O 1.02016 0.39635 0.36478
 C1073 C 1.02784 0.41414 0.37260
 C1074 C 1.04616 0.42548 0.36120
 C1075 C 1.05443 0.41714 0.34139
 H1076 H 1.04639 0.40322 0.33375
 O1077 O 1.10920 0.47884 0.42044
 O1078 O 1.13498 0.47869 0.39497
 C1079 C 1.12704 0.47118 0.41277
 C1080 C 1.13823 0.45292 0.42437
 C1081 C 1.15840 0.44462 0.41670
 H1082 H 1.16620 0.45199 0.40249
 O1083 O 0.89057 0.52328 0.42016
 O1084 O 0.86492 0.52361 0.39459
 C1085 C 0.87271 0.53091 0.41251
 C1086 C 0.86116 0.54870 0.42441
 C1087 C 0.84032 0.55588 0.41757
 H1088 H 0.83228 0.54788 0.40386
 O1089 O 0.92083 0.61035 0.47856
 O1090 O 0.89546 0.63621 0.47862
 C1091 C 0.91330 0.62833 0.47113
 C1092 C 0.92522 0.63993 0.45334
 C1093 C 0.91845 0.66083 0.44634
 H1094 H 0.90450 0.66860 0.45420
 O1095 O 1.07831 0.39018 0.47832
 O1096 O 1.10376 0.36440 0.47812
 C1097 C 1.08597 0.37235 0.47064
 C1098 C 1.07447 0.36128 0.45227
 C1099 C 1.08270 0.34161 0.44339
 H1100 H 1.09712 0.33399 0.45052
 O1101 O 1.07937 0.52193 0.39051
 O1102 O 1.10492 0.52185 0.36481
 C1103 C 1.08708 0.52942 0.37264
 C1104 C 1.07541 0.54746 0.36119
 C1105 C 1.08229 0.55459 0.34036
 H1106 H 1.09604 0.54656 0.33240
 O1107 O 0.92033 0.48013 0.39019
 O1108 O 0.89468 0.48032 0.36462
 C1109 C 0.91243 0.47258 0.37243
 C1110 C 0.92356 0.45407 0.36121
 C1111 C 0.91497 0.44544 0.34165
 H1112 H 0.90092 0.45327 0.33405
 O1113 O 1.02196 0.61047 0.42107
 O1114 O 1.02216 0.63629 0.39566
 C1115 C 1.02952 0.62842 0.41352
 C1116 C 1.04735 0.63995 0.42543
 C1117 C 1.05439 0.66088 0.41874
 H1118 H 1.04642 0.66885 0.40499
 O1119 O 0.97763 0.39151 0.42064
 O1120 O 0.97759 0.36579 0.39514
 C1121 C 0.97018 0.37355 0.41303
 C1122 C 0.95236 0.36189 0.42486
 C1123 C 0.94552 0.34090 0.41815
 H1124 H 0.95369 0.33295 0.40450
 O1125 O 1.10952 0.57951 0.47835
 O1126 O 1.13544 0.60489 0.47849
 C1127 C 1.12752 0.58710 0.47094
 C1128 C 1.13909 0.57531 0.45309
 C1129 C 1.16004 0.58213 0.44616
 H1130 H 1.16794 0.59593 0.45417
 O1131 O 0.88971 0.42212 0.47767
 O1132 O 0.86379 0.39674 0.47746
 C1133 C 0.87177 0.41459 0.47009
 C1134 C 0.86033 0.42656 0.45227
 C1135 C 0.83938 0.41990 0.44514
 H1136 H 0.83118 0.40630 0.45320
 Cu1137 Cu 0.99898 0.40915 0.40800
 Cu1138 Cu 0.99882 0.37844 0.37723
 Cu1139 Cu 1.00052 0.59295 0.40845
 Cu1140 Cu 1.00078 0.62383 0.37784
 Cu1141 Cu 0.90807 0.50174 0.40772
 Cu1142 Cu 0.87730 0.50206 0.37699
 Cu1143 Cu 1.09179 0.50040 0.40797
 Cu1144 Cu 1.12260 0.50029 0.37727
 C1145 C 0.94195 0.44397 0.37081
 H1146 H 0.94848 0.45036 0.38606
 C1147 C 0.92415 0.42661 0.33194
 C1148 C 1.05781 0.55828 0.37151
 H1149 H 1.05258 0.55304 0.38768
 C1150 C 1.07191 0.57239 0.32993
 C1151 C 0.87065 0.44440 0.44185
 H1152 H 0.88693 0.44943 0.44706
 C1153 C 0.82882 0.43086 0.42781
 C1154 C 1.12889 0.55762 0.44234
 H1155 H 1.11263 0.55242 0.44748
 C1156 C 1.17068 0.57164 0.42858
 C1157 C 0.94144 0.37215 0.44237
 H1158 H 0.94651 0.38843 0.44747
 C1159 C 0.92781 0.33029 0.42855
 C1160 C 1.05804 0.62964 0.44305
 H1161 H 1.05283 0.61339 0.44813
 C1162 C 1.07205 0.67141 0.42928
 C1163 C 0.94309 0.55890 0.37112
 H1164 H 0.94808 0.55368 0.38737
 C1165 C 0.92964 0.57300 0.32937
 C1166 C 1.05650 0.44374 0.37083
 H1167 H 1.05037 0.45007 0.38628
 C1168 C 1.07318 0.42635 0.33149
 C1169 C 1.05610 0.37125 0.44242
 H1170 H 1.04985 0.38657 0.44896
 C1171 C 1.07309 0.33225 0.42463
 C1172 C 0.94300 0.62976 0.44271
 H1173 H 0.94812 0.61351 0.44783
 C1174 C 0.92919 0.67158 0.42893
 C1175 C 0.87126 0.55905 0.44236
 H1176 H 0.88747 0.55381 0.44752
 C1177 C 0.82963 0.57318 0.42846
 C1178 C 1.12804 0.44280 0.44249
 H1179 H 1.11234 0.44885 0.44830
 C1180 C 1.16815 0.42627 0.42674
 O1181 O 1.02056 0.42030 0.60914
 O1182 O 1.02036 0.39462 0.63468
 C1183 C 1.02809 0.41243 0.62692
 C1184 C 1.04653 0.42375 0.63816
 C1185 C 1.05526 0.41537 0.65782
 H1186 H 1.04799 0.40093 0.66531
 O1187 O 0.97858 0.57895 0.60933
 O1188 O 0.97872 0.60435 0.63513
 C1189 C 0.97121 0.58651 0.62732
 C1190 C 0.95341 0.57462 0.63896
 C1191 C 0.94653 0.58128 0.65995
 H1192 H 0.95496 0.59468 0.66809
 O1193 O 0.89050 0.52224 0.57905
 O1194 O 0.86489 0.52238 0.60470
 C1195 C 0.87280 0.53000 0.58694
 C1196 C 0.86162 0.54847 0.57573
 C1197 C 0.84205 0.55715 0.58430
 H1198 H 0.83460 0.54972 0.59866
 O1199 O 1.10932 0.47779 0.57872
 O1200 O 1.13514 0.47768 0.60412
 C1201 C 1.12726 0.47026 0.58629
 C1202 C 1.13876 0.45241 0.57444
 C1203 C 1.15969 0.44536 0.58114
 H1204 H 1.16761 0.45329 0.59495
 O1205 O 1.07814 0.39038 0.52125
 O1206 O 1.10369 0.36470 0.52111
 C1207 C 1.08590 0.37254 0.52877
 C1208 C 1.07451 0.36116 0.54705
 C1209 C 1.08302 0.34156 0.55569
 H1210 H 1.09745 0.33417 0.54831
 O1211 O 0.92085 0.61022 0.52136
 O1212 O 0.89556 0.63617 0.52147
 C1213 C 0.91336 0.62817 0.52890
 C1214 C 0.92525 0.63950 0.54685
 C1215 C 0.91855 0.66035 0.55412
 H1216 H 0.90505 0.66862 0.54600
 O1217 O 0.91984 0.47845 0.60864
 O1218 O 0.89408 0.47845 0.63414
 C1219 C 0.91189 0.47080 0.62636
 C1220 C 0.92312 0.45246 0.63773
 C1221 C 0.91462 0.44405 0.65745
 H1222 H 0.90032 0.45163 0.66485
 O1223 O 1.07952 0.52080 0.60885
 O1224 O 1.10522 0.52074 0.63436
 C1225 C 1.08740 0.52838 0.62661
 C1226 C 1.07607 0.54671 0.63794
 C1227 C 1.08468 0.55559 0.65743
 H1228 H 1.09946 0.54865 0.66449
 O1229 O 0.97743 0.39077 0.57885
 O1230 O 0.97705 0.36493 0.60423
 C1231 C 0.96964 0.37294 0.58644
 C1232 C 0.95130 0.36189 0.57479
 C1233 C 0.94269 0.34190 0.58258
 H1234 H 0.94993 0.33407 0.59681
 O1235 O 1.02160 0.60899 0.57921
 O1236 O 1.02171 0.63449 0.60491
 C1237 C 1.02924 0.62675 0.58706
 C1238 C 1.04761 0.63812 0.57577
 C1239 C 1.05617 0.65777 0.58428
 H1240 H 1.04837 0.66531 0.59837
 O1241 O 0.88916 0.42201 0.52043
 O1242 O 0.86315 0.39672 0.52025
 C1243 C 0.87106 0.41453 0.52774
 C1244 C 0.85944 0.42645 0.54548
 C1245 C 0.83842 0.41980 0.55239
 H1246 H 0.83038 0.40611 0.54433
 O1247 O 1.10966 0.57914 0.52111
 O1248 O 1.13567 0.60444 0.52126
 C1249 C 1.12770 0.58655 0.52857
 C1250 C 1.13927 0.57443 0.54619
 C1251 C 1.16025 0.58107 0.55318
 H1252 H 1.16812 0.59502 0.54540
 O1253 O 1.02151 0.57868 0.60899
 O1254 O 1.02164 0.60415 0.63473
 C1255 C 1.02915 0.58635 0.62682
 C1256 C 1.04748 0.57492 0.63803
 C1257 C 1.05619 0.58339 0.65761
 H1258 H 1.04852 0.59753 0.66520
 O1259 O 0.97759 0.42037 0.60930
 O1260 O 0.97725 0.39468 0.63483
 C1261 C 0.96986 0.41258 0.62706
 C1262 C 0.95157 0.42410 0.63827
 C1263 C 0.94287 0.41599 0.65808
 H1264 H 0.95004 0.40158 0.66566
 O1265 O 1.10946 0.52063 0.57858
 O1266 O 1.13528 0.52047 0.60398
 C1267 C 1.12749 0.52799 0.58615
 C1268 C 1.13919 0.54580 0.57434
 C1269 C 1.16023 0.55262 0.58105
 H1270 H 1.16836 0.54414 0.59439
 O1271 O 0.88964 0.47935 0.57866
 O1272 O 0.86379 0.47950 0.60407
 C1273 C 0.87153 0.47210 0.58617
 C1274 C 0.85971 0.45453 0.57416
 C1275 C 0.83873 0.44758 0.58092
 H1276 H 0.83072 0.45570 0.59457
 O1277 O 1.07981 0.60941 0.52155
 O1278 O 1.10569 0.63484 0.52188
 C1279 C 1.08776 0.62707 0.52935
 C1280 C 1.07634 0.63826 0.54768
 C1281 C 1.08481 0.65783 0.55660
 H1282 H 1.09957 0.66503 0.54970
 O1283 O 0.91938 0.39207 0.52081
 O1284 O 0.89349 0.36665 0.52075
 C1285 C 0.91140 0.37431 0.52836
 C1286 C 0.92274 0.36274 0.54652
 C1287 C 0.91433 0.34286 0.55465
 H1288 H 0.90001 0.33551 0.54704
 O1289 O 1.07902 0.47783 0.60861
 O1290 O 1.10473 0.47766 0.63411
 C1291 C 1.08682 0.47017 0.62636
 C1292 C 1.07531 0.45192 0.63773
 C1293 C 1.08384 0.44319 0.65726
 H1294 H 1.09834 0.45049 0.66460
 O1295 O 0.92042 0.52132 0.60924
 O1296 O 0.89489 0.52131 0.63497
 C1297 C 0.91287 0.52866 0.62724
 C1298 C 0.92491 0.54628 0.63894
 C1299 C 0.91818 0.55322 0.65987
 H1300 H 0.90423 0.54533 0.66767
 O1301 O 0.97867 0.60921 0.57926
 O1302 O 0.97881 0.63475 0.60492
 C1303 C 0.97134 0.62715 0.58700
 C1304 C 0.95365 0.63901 0.57522
 C1305 C 0.94681 0.65991 0.58218
 H1306 H 0.95480 0.66764 0.59607
 O1307 O 1.02034 0.39013 0.57920
 O1308 O 1.02009 0.36433 0.60461
 C1309 C 1.02775 0.37219 0.58685
 C1310 C 1.04598 0.36084 0.57537
 C1311 C 1.05464 0.34110 0.58365
 H1312 H 1.04746 0.33363 0.59813
 O1313 O 1.10885 0.41995 0.52106
 O1314 O 1.13449 0.39436 0.52082
 C1315 C 1.12682 0.41224 0.52836
 C1316 C 1.13858 0.42398 0.54613
 C1317 C 1.15954 0.41715 0.55303
 H1318 H 1.16759 0.40366 0.54471
 O1319 O 0.89047 0.58044 0.52139
 O1320 O 0.86504 0.60624 0.52162
 C1321 C 0.87272 0.58833 0.52907
 C1322 C 0.86140 0.57689 0.54734
 C1323 C 0.84169 0.58522 0.55608
 H1324 H 0.83424 0.59973 0.54895
 Cu1325 Cu 0.99902 0.40797 0.59160
 Cu1326 Cu 0.99866 0.37706 0.62215
 Cu1327 Cu 1.00001 0.59140 0.59162
 Cu1328 Cu 1.00018 0.62199 0.62251
 Cu1329 Cu 0.90698 0.40947 0.49921
 Cu1330 Cu 0.87592 0.37894 0.49906
 Cu1331 Cu 1.09078 0.40782 0.49977
 Cu1332 Cu 1.12142 0.37697 0.49951
 Cu1333 Cu 0.90818 0.59278 0.49995
 Cu1334 Cu 0.87767 0.62378 0.50008
 Cu1335 Cu 1.09210 0.59201 0.49989
 Cu1336 Cu 1.12318 0.62252 0.50014
 Cu1337 Cu 0.90767 0.50032 0.59133
 Cu1338 Cu 0.87683 0.50041 0.62203
 Cu1339 Cu 1.09174 0.49929 0.59116
 Cu1340 Cu 1.12263 0.49912 0.62175
 C1341 C 1.05655 0.44219 0.62840
 H1342 H 1.05014 0.44856 0.61309
 C1343 C 1.07401 0.42489 0.66735
 C1344 C 0.94265 0.55696 0.62873
 H1345 H 0.94772 0.55191 0.61245
 C1346 C 0.92894 0.57065 0.67058
 C1347 C 0.87109 0.55835 0.55715
 H1348 H 0.88642 0.55200 0.55071
 C1349 C 0.83204 0.57554 0.57466
 C1350 C 1.12845 0.44174 0.55680
 H1351 H 1.11219 0.44693 0.55173
 C1352 C 1.17028 0.42782 0.57047
 C1353 C 1.05588 0.37059 0.55690
 H1354 H 1.04950 0.38595 0.55061
 C1355 C 1.07327 0.33148 0.57401
 C1356 C 0.94292 0.62906 0.55739
 H1357 H 0.94796 0.61284 0.55209
 C1358 C 0.92930 0.67072 0.57171
 C1359 C 0.94171 0.44249 0.62837
 H1360 H 0.94811 0.44865 0.61295
 C1361 C 0.92430 0.42579 0.66768
 C1362 C 1.05737 0.55642 0.62846
 H1363 H 1.05092 0.54998 0.61319
 C1364 C 1.07493 0.57404 0.66731
 C1365 C 0.94133 0.37206 0.55659
 H1366 H 0.94766 0.38761 0.55066
 C1367 C 0.92413 0.33239 0.57268
 C1368 C 1.05765 0.62863 0.55731
 H1369 H 1.05130 0.61331 0.55084
 C1370 C 1.07489 0.66764 0.57498
 C1371 C 0.86983 0.44399 0.55631
 H1372 H 0.88615 0.44903 0.55123
 C1373 C 0.82793 0.43029 0.57007
 C1374 C 1.12897 0.55666 0.55675
 H1375 H 1.11265 0.55165 0.55165
 C1376 C 1.17093 0.57022 0.57054
 O1377 O 0.57910 1.02073 0.60914
 O1378 O 0.60482 1.02030 0.63463
 C1379 C 0.58706 1.02813 0.62694
 C1380 C 0.57594 1.04645 0.63844
 C1381 C 0.58458 1.05478 0.65810
 H1382 H 0.59888 1.04711 0.66542
 O1383 O 0.41993 0.97900 0.60829
 O1384 O 0.39396 0.97903 0.63357
 C1385 C 0.41182 0.97136 0.62594
 C1386 C 0.42292 0.95295 0.63735
 C1387 C 0.41428 0.94452 0.65699
 H1388 H 0.39998 0.95214 0.66435
 O1389 O 0.52201 1.10925 0.57993
 O1390 O 0.52223 1.13480 0.60559
 C1391 C 0.52961 1.12709 0.58765
 C1392 C 0.54752 1.13866 0.57584
 C1393 C 0.55452 1.15958 0.58262
 H1394 H 0.54645 1.16753 0.59634
 O1395 O 0.47738 0.89055 0.57871
 O1396 O 0.47703 0.86471 0.60410
 C1397 C 0.46980 0.87259 0.58619
 C1398 C 0.45208 0.86104 0.57413
 C1399 C 0.44507 0.84005 0.58069
 H1400 H 0.45300 0.83202 0.59444
 O1401 O 0.61014 1.07907 0.52195
 O1402 O 0.63614 1.10437 0.52230
 C1403 C 0.62813 1.08648 0.52954
 C1404 C 0.63951 1.07434 0.54727
 C1405 C 0.66034 1.08103 0.55469
 H1406 H 0.66857 1.09473 0.54682
 O1407 O 0.39040 0.92126 0.52023
 O1408 O 0.36439 0.89596 0.52010
 C1409 C 0.37231 0.91380 0.52756
 C1410 C 0.36064 0.92583 0.54520
 C1411 C 0.33964 0.91912 0.55213
 H1412 H 0.33174 0.90524 0.54427
 O1413 O 0.47894 1.07927 0.60984
 O1414 O 0.47916 1.10448 0.63582
 C1415 C 0.47151 1.08676 0.62782
 C1416 C 0.45341 1.07496 0.63913
 C1417 C 0.44624 1.08156 0.66003
 H1418 H 0.45466 1.09482 0.66840
 O1419 O 0.52020 0.92025 0.60923
 O1420 O 0.51982 0.89465 0.63484
 C1421 C 0.52761 0.91240 0.62706
 C1422 C 0.54599 0.92368 0.63838
 C1423 C 0.55478 0.91513 0.65794
 H1424 H 0.54766 0.90047 0.66512
 O1425 O 0.60863 0.97754 0.57892
 O1426 O 0.63445 0.97720 0.60432
 C1427 C 0.62653 0.96990 0.58646
 C1428 C 0.63798 0.95204 0.57456
 C1429 C 0.65899 0.94510 0.58113
 H1430 H 0.66710 0.95316 0.59476
 O1431 O 0.39059 1.02245 0.57829
 O1432 O 0.36458 1.02252 0.60353
 C1433 C 0.37264 1.03002 0.58580
 C1434 C 0.36132 1.04804 0.57402
 C1435 C 0.34026 1.05494 0.58050
 H1436 H 0.33185 1.04641 0.59367
 O1437 O 0.42198 1.11143 0.52209
 O1438 O 0.39659 1.13726 0.52216
 C1439 C 0.41431 1.12925 0.52975
 C1440 C 0.42590 1.14042 0.54799
 C1441 C 0.41889 1.16105 0.55560
 H1442 H 0.40536 1.16931 0.54752
 O1443 O 0.57789 0.88939 0.52093
 O1444 O 0.60340 0.86367 0.52098
 C1445 C 0.58557 0.87153 0.52850
 C1446 C 0.57402 0.86031 0.54679
 C1447 C 0.58214 0.84051 0.55548
 H1448 H 0.59652 0.83288 0.54827
 O1449 O 0.42047 1.02191 0.60864
 O1450 O 0.39461 1.02195 0.63404
 C1451 C 0.41269 1.02930 0.62653
 C1452 C 0.42462 1.04688 0.63844
 C1453 C 0.41762 1.05376 0.65929
 H1454 H 0.40349 1.04594 0.66683
 O1455 O 0.57847 0.97779 0.60905
 O1456 O 0.60421 0.97736 0.63451
 C1457 C 0.58621 0.97009 0.62681
 C1458 C 0.57458 0.95197 0.63821
 C1459 C 0.58295 0.94334 0.65786
 H1460 H 0.59719 0.95094 0.66537
 O1461 O 0.52023 0.89041 0.57903
 O1462 O 0.51991 0.86472 0.60457
 C1463 C 0.52762 0.87251 0.58680
 C1464 C 0.54579 0.86098 0.57541
 C1465 C 0.55423 0.84130 0.58391
 H1466 H 0.54678 0.83399 0.59833
 O1467 O 0.47917 1.10997 0.58038
 O1468 O 0.47934 1.13536 0.60619
 C1469 C 0.47183 1.12785 0.58824
 C1470 C 0.45409 1.13974 0.57656
 C1471 C 0.44693 1.16041 0.58388
 H1472 H 0.45472 1.16795 0.59798
 O1473 O 0.39187 1.08134 0.52139
 O1474 O 0.36627 1.10699 0.52137
 C1475 C 0.37386 1.08896 0.52868
 C1476 C 0.36191 1.07688 0.54610
 C1477 C 0.34087 1.08358 0.55282
 H1478 H 0.33319 1.09758 0.54500
 O1479 O 0.60809 0.91940 0.52118
 O1480 O 0.63374 0.89381 0.52113
 C1481 C 0.62599 0.91168 0.52863
 C1482 C 0.63766 0.92344 0.54642
 C1483 C 0.65861 0.91661 0.55333
 H1484 H 0.66663 0.90300 0.54514
 O1485 O 0.47722 0.92052 0.60894
 O1486 O 0.47673 0.89484 0.63447
 C1487 C 0.46941 0.91275 0.62666
 C1488 C 0.45114 0.92436 0.63784
 C1489 C 0.44233 0.91625 0.65760
 H1490 H 0.44937 0.90176 0.66517
 O1491 O 0.52188 1.07928 0.61008
 O1492 O 0.52223 1.10465 0.63590
 C1493 C 0.52959 1.08683 0.62792
 C1494 C 0.54779 1.07511 0.63906
 C1495 C 0.55662 1.08312 0.65883
 H1496 H 0.54963 1.09761 0.66644
 O1497 O 0.39023 0.97955 0.57792
 O1498 O 0.36416 0.97967 0.60311
 C1499 C 0.37213 0.97219 0.58533
 C1500 C 0.36055 0.95438 0.57343
 C1501 C 0.33958 0.94738 0.58017
 H1502 H 0.33142 0.95567 0.59363
 O1503 O 0.60920 1.02040 0.57906
 O1504 O 0.63498 1.01994 0.60450
 C1505 C 0.62725 1.02760 0.58671
 C1506 C 0.63910 1.04542 0.57510
 C1507 C 0.65994 1.05230 0.58225
 H1508 H 0.66760 1.04417 0.59609
 O1509 O 0.42006 0.89075 0.52036
 O1510 O 0.39423 0.86527 0.52020
 C1511 C 0.41215 0.87290 0.52778
 C1512 C 0.42375 0.86122 0.54568
 C1513 C 0.41683 0.84028 0.55260
 H1514 H 0.40328 0.83222 0.54433
 O1515 O 0.58023 1.10933 0.52213
 O1516 O 0.60604 1.13483 0.52245
 C1517 C 0.58804 1.12711 0.52978
 C1518 C 0.57621 1.13863 0.54766
 C1519 C 0.58307 1.15949 0.55480
 H1520 H 0.59673 1.16759 0.54671
 Cu1521 Cu 0.59125 0.99914 0.59150
 Cu1522 Cu 0.62216 0.99864 0.62209
 Cu1523 Cu 0.40790 1.00075 0.59076
 Cu1524 Cu 0.37673 1.00083 0.62111
 Cu1525 Cu 0.50046 1.09189 0.59250
 Cu1526 Cu 0.50076 1.12235 0.62349
 Cu1527 Cu 0.49877 0.90804 0.59146
 Cu1528 Cu 0.49830 0.87717 0.62208
 C1529 C 0.55744 1.05662 0.62913
 H1530 H 0.55094 1.05053 0.61374
 C1531 C 0.57512 1.07314 0.66834
 C1532 C 0.44146 0.94287 0.62800
 H1533 H 0.44795 0.94904 0.61262
 C1534 C 0.42380 0.92615 0.66717
 C1535 C 0.55832 1.12844 0.55819
 H1536 H 0.55314 1.11221 0.55300
 C1537 C 0.57223 1.17013 0.57217
 C1538 C 0.44149 0.87136 0.55645
 H1539 H 0.44669 0.88764 0.55143
 C1540 C 0.42751 0.82953 0.57000
 C1541 C 0.62913 1.05639 0.55746
 H1542 H 0.61292 1.05133 0.55205
 C1543 C 0.67071 1.07006 0.57215
 C1544 C 0.37085 0.94362 0.55581
 H1545 H 0.38716 0.94872 0.55074
 C1546 C 0.32898 0.92980 0.56959
 C1547 C 0.44263 1.05746 0.62859
 H1548 H 0.44792 1.05244 0.61237
 C1549 C 0.42838 1.07101 0.67030
 C1550 C 0.55593 0.94220 0.62875
 H1551 H 0.54958 0.94859 0.61343
 C1552 C 0.57336 0.92478 0.66773
 C1553 C 0.62757 0.94127 0.55704
 H1554 H 0.61129 0.94642 0.55201
 C1555 C 0.66943 0.92743 0.57059
 C1556 C 0.37190 1.05897 0.55668
 H1557 H 0.38825 1.05390 0.55177
 C1558 C 0.32987 1.07267 0.56996
 C1559 C 0.44361 1.13000 0.55848
 H1560 H 0.44891 1.11396 0.55290
 C1561 C 0.42936 1.17122 0.57348
 C1562 C 0.55568 0.87027 0.55673
 H1563 H 0.54952 0.88569 0.55034
 C1564 C 0.57243 0.83102 0.57414
 O1565 O 0.57977 0.97885 0.39075
 O1566 O 0.60558 0.97872 0.36530
 C1567 C 0.58752 0.97140 0.37287
 C1568 C 0.57555 0.95379 0.36104
 C1569 C 0.58250 0.94677 0.34018
 H1570 H 0.59634 0.95478 0.33231
 O1571 O 0.42126 1.02298 0.39079
 O1572 O 0.39564 1.02339 0.36520
 C1573 C 0.41359 1.03070 0.37300
 C1574 C 0.42530 1.04887 0.36173
 C1575 C 0.41730 1.05743 0.34185
 H1576 H 0.40287 1.05024 0.33429
 O1577 O 0.48037 1.11075 0.42127
 O1578 O 0.48076 1.13654 0.39583
 C1579 C 0.47322 1.12884 0.41371
 C1580 C 0.45564 1.14073 0.42562
 C1581 C 0.44882 1.16164 0.41869
 H1582 H 0.45681 1.16935 0.40477
 O1583 O 0.52117 0.89095 0.41931
 O1584 O 0.52119 0.86567 0.39339
 C1585 C 0.52874 0.87322 0.41131
 C1586 C 0.54686 0.86165 0.42273
 C1587 C 0.55561 0.84205 0.41420
 H1588 H 0.54878 0.83511 0.39932
 O1589 O 0.60832 0.91972 0.47846
 O1590 O 0.63400 0.89415 0.47842
 C1591 C 0.62632 0.91212 0.47109
 C1592 C 0.63818 0.92417 0.45356
 C1593 C 0.65927 0.91756 0.44688
 H1594 H 0.66726 0.90393 0.45505
 O1595 O 0.39219 1.08188 0.47871
 O1596 O 0.36675 1.10767 0.47859
 C1597 C 0.37444 1.08977 0.47109
 C1598 C 0.36299 1.07831 0.45294
 C1599 C 0.34319 1.08664 0.44446
 H1600 H 0.33590 1.10122 0.45158
 O1601 O 0.52264 1.08010 0.39097
 O1602 O 0.52297 1.10563 0.36528
 C1603 C 0.53019 1.08765 0.37304
 C1604 C 0.54789 1.07560 0.36147
 C1605 C 0.55491 1.08217 0.34049
 H1606 H 0.54665 1.09561 0.33228
 O1607 O 0.47810 0.92139 0.38993
 O1608 O 0.47773 0.89602 0.36411
 C1609 C 0.47030 0.91379 0.37214
 C1610 C 0.45199 0.92545 0.36110
 C1611 C 0.44302 0.91732 0.34145
 H1612 H 0.44983 0.90263 0.33408
 O1613 O 0.60993 1.02143 0.42126
 O1614 O 0.63584 1.02136 0.39592
 C1615 C 0.62797 1.02883 0.41374
 C1616 C 0.63965 1.04659 0.42564
 C1617 C 0.66064 1.05349 0.41891
 H1618 H 0.66848 1.04554 0.40506
 O1619 O 0.39051 0.98035 0.42070
 O1620 O 0.36468 0.98082 0.39532
 C1621 C 0.37246 0.97310 0.41306
 C1622 C 0.36082 0.95509 0.42465
 C1623 C 0.33981 0.94818 0.41787
 H1624 H 0.33161 0.95670 0.40460
 O1625 O 0.58055 1.10974 0.47930
 O1626 O 0.60637 1.13523 0.47954
 C1627 C 0.58846 1.12761 0.47193
 C1628 C 0.57689 1.13931 0.45402
 C1629 C 0.58387 1.16021 0.44711
 H1630 H 0.59769 1.16802 0.45519
 O1631 O 0.42031 0.89087 0.47752
 O1632 O 0.39449 0.86539 0.47728
 C1633 C 0.41249 0.87307 0.46992
 C1634 C 0.42432 0.86152 0.45205
 C1635 C 0.41743 0.84069 0.44481
 H1636 H 0.40376 0.83257 0.45287
 O1637 O 0.42091 0.98006 0.39087
 O1638 O 0.39518 0.98045 0.36540
 C1639 C 0.41297 0.97267 0.37307
 C1640 C 0.42409 0.95433 0.36156
 C1641 C 0.41552 0.94611 0.34181
 H1642 H 0.40150 0.95412 0.33436
 O1643 O 0.57992 1.02168 0.39113
 O1644 O 0.60567 1.02159 0.36562
 C1645 C 0.58776 1.02914 0.37329
 C1646 C 0.57609 1.04701 0.36164
 C1647 C 0.58295 1.05386 0.34072
 H1648 H 0.59680 1.04582 0.33296
 O1649 O 0.47832 0.89119 0.41985
 O1650 O 0.47825 0.86567 0.39416
 C1651 C 0.47084 0.87331 0.41212
 C1652 C 0.45299 0.86162 0.42389
 C1653 C 0.44597 0.84077 0.41696
 H1654 H 0.45399 0.83295 0.40314
 O1655 O 0.52319 1.11015 0.42109
 O1656 O 0.52360 1.13586 0.39557
 C1657 C 0.53091 1.12799 0.41345
 C1658 C 0.54882 1.13944 0.42533
 C1659 C 0.55600 1.16035 0.41865
 H1660 H 0.54784 1.16853 0.40515
 O1661 O 0.39062 0.92138 0.47753
 O1662 O 0.36462 0.89608 0.47734
 C1663 C 0.37260 0.91397 0.47004
 C1664 C 0.36100 0.92613 0.45246
 C1665 C 0.34005 0.91945 0.44547
 H1666 H 0.33226 0.90540 0.45315
 O1667 O 0.61022 1.07931 0.47922
 O1668 O 0.63623 1.10459 0.47946
 C1669 C 0.62827 1.08683 0.47187
 C1670 C 0.63980 1.07499 0.45402
 C1671 C 0.66081 1.08164 0.44706
 H1672 H 0.66904 1.09506 0.45539
 O1673 O 0.52107 0.92162 0.38986
 O1674 O 0.52079 0.89648 0.36380
 C1675 C 0.52844 0.91419 0.37183
 C1676 C 0.54648 0.92599 0.36045
 C1677 C 0.55358 0.91929 0.33957
 H1678 H 0.54544 0.90568 0.33148
 O1679 O 0.47970 1.08062 0.39127
 O1680 O 0.47996 1.10629 0.36572
 C1681 C 0.47218 1.08852 0.37351
 C1682 C 0.45383 1.07725 0.36213
 C1683 C 0.44551 1.08562 0.34234
 H1684 H 0.45317 1.09986 0.33486
 O1685 O 0.39149 1.02333 0.42117
 O1686 O 0.36581 1.02378 0.39564
 C1687 C 0.37378 1.03121 0.41343
 C1688 C 0.36272 1.04967 0.42480
 C1689 C 0.34301 1.05830 0.41653
 H1690 H 0.33531 1.05074 0.40239
 O1691 O 0.60941 0.97854 0.42130
 O1692 O 0.63539 0.97846 0.39603
 C1693 C 0.62737 0.97100 0.41381
 C1694 C 0.63875 0.95308 0.42568
 C1695 C 0.65990 0.94634 0.41934
 H1696 H 0.66816 0.95459 0.40590
 O1697 O 0.57801 0.88982 0.47801
 O1698 O 0.60354 0.86412 0.47794
 C1699 C 0.58580 0.87207 0.47032
 C1700 C 0.57457 0.86103 0.45177
 C1701 C 0.58292 0.84136 0.44314
 H1702 H 0.59680 0.83354 0.45104
 O1703 O 0.42261 1.11168 0.47923
 O1704 O 0.39732 1.13762 0.47922
 C1705 C 0.41517 1.12970 0.47181
 C1706 C 0.42719 1.14115 0.45399
 C1707 C 0.42053 1.16204 0.44676
 H1708 H 0.40699 1.17028 0.45487
 Cu1709 Cu 0.59218 1.00012 0.40865
 Cu1710 Cu 0.62323 1.00002 0.37818
 Cu1711 Cu 0.40860 1.00162 0.40844
 Cu1712 Cu 0.37775 1.00214 0.37783
 Cu1713 Cu 0.59269 1.09184 0.50063
 Cu1714 Cu 0.62379 1.12232 0.50097
 Cu1715 Cu 0.59048 0.90711 0.49966
 Cu1716 Cu 0.62118 0.87630 0.49960
 Cu1717 Cu 0.40974 1.09404 0.50036
 Cu1718 Cu 0.37919 1.12500 0.50034
 Cu1719 Cu 0.40797 0.90856 0.49892
 Cu1720 Cu 0.37684 0.87811 0.49871
 Cu1721 Cu 0.50147 1.09282 0.40869
 Cu1722 Cu 0.50187 1.12363 0.37800
 Cu1723 Cu 0.49969 0.90883 0.40731
 Cu1724 Cu 0.49947 0.87843 0.37625
 C1725 C 0.55742 0.94341 0.37093
 H1726 H 0.55218 0.94851 0.38714
 C1727 C 0.57154 0.92960 0.32928
 C1728 C 0.44371 1.05876 0.37160
 H1729 H 0.44978 1.05246 0.38708
 C1730 C 0.42723 1.07588 0.33213
 C1731 C 0.44488 1.13074 0.44343
 H1732 H 0.44989 1.11450 0.44868
 C1733 C 0.43131 1.17243 0.42917
 C1734 C 0.55638 0.87091 0.44160
 H1735 H 0.55003 0.88624 0.44802
 C1736 C 0.57373 0.83185 0.42423
 C1737 C 0.62814 0.94204 0.44296
 H1738 H 0.61174 0.94703 0.44781
 C1739 C 0.67030 0.92864 0.42988
 C1740 C 0.37251 1.05968 0.44314
 H1741 H 0.38793 1.05337 0.44937
 C1742 C 0.33320 1.07682 0.42616
 C1743 C 0.55844 1.05786 0.37178
 H1744 H 0.55326 1.05286 0.38805
 C1745 C 0.57240 1.07135 0.32994
 C1746 C 0.44248 0.94404 0.37094
 H1747 H 0.44900 0.95014 0.38632
 C1748 C 0.42469 0.92748 0.33173
 C1749 C 0.62946 1.05732 0.44333
 H1750 H 0.61315 1.05225 0.44844
 C1751 C 0.67141 1.07094 0.42956
 C1752 C 0.37115 0.94409 0.44210
 H1753 H 0.38743 0.94915 0.44724
 C1754 C 0.32925 0.93042 0.42828
 C1755 C 0.55924 1.12917 0.44314
 H1756 H 0.55394 1.11294 0.44821
 C1757 C 0.57347 1.17091 0.42949
 C1758 C 0.44223 0.87173 0.44160
 H1759 H 0.44742 0.88793 0.44687
 C1760 C 0.42825 0.83014 0.42735
 O1761 O 0.57781 0.52009 1.10992
 O1762 O 0.60332 0.51973 1.13563
 C1763 C 0.58552 0.52740 1.12786
 C1764 C 0.57392 0.54534 1.13948
 C1765 C 0.58074 0.55214 1.16042
 H1766 H 0.59433 0.54386 1.16838
 O1767 O 0.42012 0.47849 1.10896
 O1768 O 0.39432 0.47857 1.13441
 C1769 C 0.41209 0.47084 1.12664
 C1770 C 0.42315 0.45239 1.13799
 C1771 C 0.41477 0.44430 1.15788
 H1772 H 0.40073 0.45223 1.16544
 O1773 O 0.52191 0.60930 1.07975
 O1774 O 0.52210 0.63494 1.10532
 C1775 C 0.52956 0.62712 1.08747
 C1776 C 0.54758 0.63857 1.07574
 C1777 C 0.55456 0.65953 1.08240
 H1778 H 0.54643 0.66758 1.09602
 O1779 O 0.47671 0.38927 1.07926
 O1780 O 0.47624 0.36353 1.10474
 C1781 C 0.46891 0.37147 1.08688
 C1782 C 0.45067 0.36037 1.07515
 C1783 C 0.44221 0.34023 1.08269
 H1784 H 0.44950 0.33231 1.09685
 O1785 O 0.60959 0.57809 1.02231
 O1786 O 0.63568 0.60330 1.02244
 C1787 C 0.62758 0.58551 1.02986
 C1788 C 0.63883 0.57353 1.04778
 C1789 C 0.65976 0.58006 1.05505
 H1790 H 0.66817 0.59348 1.04688
 O1791 O 0.38933 0.42133 1.02107
 O1792 O 0.36310 0.39626 1.02106
 C1793 C 0.37119 0.41403 1.02846
 C1794 C 0.35971 0.42618 1.04613
 C1795 C 0.33862 0.41980 1.05307
 H1796 H 0.33031 0.40634 1.04490
 O1797 O 0.47848 0.57968 1.10953
 O1798 O 0.47861 0.60511 1.13530
 C1799 C 0.47102 0.58730 1.12745
 C1800 C 0.45313 0.57544 1.13899
 C1801 C 0.44590 0.58230 1.15980
 H1802 H 0.45393 0.59600 1.16785
 O1803 O 0.51970 0.41895 1.10946
 O1804 O 0.51927 0.39352 1.13526
 C1805 C 0.52697 0.41132 1.12743
 C1806 C 0.54485 0.42311 1.13904
 C1807 C 0.55180 0.41634 1.15996
 H1808 H 0.54358 0.40276 1.16805
 O1809 O 0.60754 0.47726 1.07946
 O1810 O 0.63315 0.47691 1.10507
 C1811 C 0.62539 0.46964 1.08711
 C1812 C 0.63691 0.45172 1.07538
 C1813 C 0.65764 0.44458 1.08247
 H1814 H 0.66577 0.45346 1.09553
 O1815 O 0.39086 0.52235 1.07935
 O1816 O 0.36521 0.52249 1.10496
 C1817 C 0.37314 0.53011 1.08722
 C1818 C 0.36200 0.54863 1.07607
 C1819 C 0.34230 0.55713 1.08452
 H1820 H 0.33461 0.54924 1.09849
 O1821 O 0.42141 0.61073 1.02143
 O1822 O 0.39617 0.63671 1.02143
 C1823 C 0.41401 0.62878 1.02883
 C1824 C 0.42602 0.64024 1.04662
 C1825 C 0.41943 0.66117 1.05376
 H1826 H 0.40599 0.66946 1.04556
 O1827 O 0.57718 0.38890 1.02175
 O1828 O 0.60271 0.36320 1.02165
 C1829 C 0.58489 0.37101 1.02922
 C1830 C 0.57346 0.35959 1.04743
 C1831 C 0.58189 0.33991 1.05596
 H1832 H 0.59617 0.33243 1.04841
 O1833 O 0.42086 0.52146 1.10947
 O1834 O 0.39526 0.52145 1.13513
 C1835 C 0.41323 0.52884 1.12742
 C1836 C 0.42507 0.54663 1.13907
 C1837 C 0.41815 0.55363 1.15991
 H1838 H 0.40435 0.54557 1.16779
 O1839 O 0.57752 0.47717 1.10973
 O1840 O 0.60301 0.47687 1.13545
 C1841 C 0.58509 0.46955 1.12761
 C1842 C 0.57314 0.45171 1.13914
 C1843 C 0.57976 0.44481 1.16010
 H1844 H 0.59347 0.45288 1.16810
 O1845 O 0.51957 0.38871 1.07962
 O1846 O 0.51930 0.36309 1.10522
 C1847 C 0.52696 0.37083 1.08741
 C1848 C 0.54513 0.35940 1.07593
 C1849 C 0.55378 0.33965 1.08420
 H1850 H 0.54666 0.33225 1.09874
 O1851 O 0.47907 0.60981 1.07945
 O1852 O 0.47921 0.63542 1.10504
 C1853 C 0.47181 0.62781 1.08708
 C1854 C 0.45430 0.63973 1.07512
 C1855 C 0.44753 0.66067 1.08198
 H1856 H 0.45546 0.66836 1.09593
 O1857 O 0.39108 0.58089 1.02207
 O1858 O 0.36569 0.60672 1.02233
 C1859 C 0.37341 0.58885 1.02984
 C1860 C 0.36212 0.57746 1.04815
 C1861 C 0.34250 0.58588 1.05699
 H1862 H 0.33534 0.60063 1.05010
 O1863 O 0.60744 0.41884 1.02206
 O1864 O 0.63307 0.39324 1.02205
 C1865 C 0.62527 0.41106 1.02963
 C1866 C 0.63673 0.42273 1.04767
 C1867 C 0.65716 0.41530 1.05553
 H1868 H 0.66444 0.40077 1.04836
 O1869 O 0.47686 0.41925 1.10933
 O1870 O 0.47629 0.39369 1.13499
 C1871 C 0.46908 0.41163 1.12712
 C1872 C 0.45103 0.42348 1.13836
 C1873 C 0.44245 0.41569 1.15835
 H1874 H 0.44946 0.40123 1.16597
 O1875 O 0.52128 0.57915 1.10971
 O1876 O 0.52151 0.60459 1.13548
 C1877 C 0.52874 0.58663 1.12768
 C1878 C 0.54628 0.57445 1.13933
 C1879 C 0.55338 0.58110 1.16024
 H1880 H 0.54546 0.59484 1.16828
 O1881 O 0.39012 0.47948 1.07878
 O1882 O 0.36425 0.47970 1.10416
 C1883 C 0.37198 0.47229 1.08626
 C1884 C 0.36006 0.45479 1.07427
 C1885 C 0.33895 0.44822 1.08095
 H1886 H 0.33114 0.45634 1.09471
 O1887 O 0.60814 0.52008 1.08001
 O1888 O 0.63376 0.51969 1.10560
 C1889 C 0.62614 0.52733 1.08776
 C1890 C 0.63808 0.54506 1.07608
 C1891 C 0.65901 0.55182 1.08313
 H1892 H 0.66659 0.54379 1.09706
 O1893 O 0.41900 0.39081 1.02128
 O1894 O 0.39290 0.36561 1.02124
 C1895 C 0.41090 0.37308 1.02878
 C1896 C 0.42222 0.36133 1.04681
 C1897 C 0.41395 0.34128 1.05467
 H1898 H 0.39973 0.33390 1.04688
 O1899 O 0.58022 0.60881 1.02236
 O1900 O 0.60611 0.63422 1.02244
 C1901 C 0.58810 0.62663 1.02987
 C1902 C 0.57634 0.63831 1.04768
 C1903 C 0.58321 0.65924 1.05467
 H1904 H 0.59688 0.66728 1.04654
 Cu1905 Cu 0.59017 0.49869 1.09223
 Cu1906 Cu 0.62087 0.49825 1.12302
 Cu1907 Cu 0.40809 0.50042 1.09159
 Cu1908 Cu 0.37719 0.50054 1.12224
 Cu1909 Cu 0.50015 0.59193 1.09204
 Cu1910 Cu 0.50036 0.62259 1.12286
 Cu1911 Cu 0.49826 0.40658 1.09185
 Cu1912 Cu 0.49774 0.37587 1.12262
 C1913 C 0.55653 0.55645 1.12919
 H1914 H 0.55136 0.55143 1.11294
 C1915 C 0.57055 0.56998 1.17094
 C1916 C 0.44139 0.44198 1.12844
 H1917 H 0.44770 0.44791 1.11290
 C1918 C 0.42423 0.42594 1.16812
 C1919 C 0.55843 0.62822 1.05823
 H1920 H 0.55324 0.61197 1.05313
 C1921 C 0.57229 0.67003 1.07192
 C1922 C 0.44070 0.37066 1.05704
 H1923 H 0.44692 0.38633 1.05131
 C1924 C 0.42378 0.33066 1.07260
 C1925 C 0.62823 0.55588 1.05828
 H1926 H 0.61198 0.55092 1.05294
 C1927 C 0.67002 0.56925 1.07268
 C1928 C 0.37020 0.44383 1.05670
 H1929 H 0.38660 0.44864 1.05165
 C1930 C 0.32809 0.43077 1.07044
 C1931 C 0.44272 0.55749 1.12887
 H1932 H 0.44799 0.55232 1.11269
 C1933 C 0.42848 0.57141 1.17042
 C1934 C 0.55552 0.44091 1.12885
 H1935 H 0.55046 0.44603 1.11260
 C1936 C 0.56916 0.42719 1.17066
 C1937 C 0.62676 0.44094 1.05773
 H1938 H 0.61075 0.44640 1.05219
 C1939 C 0.66787 0.42617 1.07293
 C1940 C 0.37166 0.55875 1.05774
 H1941 H 0.38701 0.55242 1.05131
 C1942 C 0.33252 0.57588 1.07527
 C1943 C 0.44361 0.62977 1.05728
 H1944 H 0.44857 0.61349 1.05209
 C1945 C 0.43014 0.67154 1.07140
 C1946 C 0.55495 0.36909 1.05740
 H1947 H 0.54862 0.38450 1.05114
 C1948 C 0.57226 0.32990 1.07439
 O1949 O 0.57903 0.47757 0.89139
 O1950 O 0.60475 0.47739 0.86586
 C1951 C 0.58682 0.46995 0.87360
 C1952 C 0.57517 0.45188 0.86217
 C1953 C 0.58350 0.44315 0.84249
 H1954 H 0.59835 0.44998 0.83541
 O1955 O 0.41987 0.52284 0.89104
 O1956 O 0.39414 0.52326 0.86555
 C1957 C 0.41208 0.53064 0.87333
 C1958 C 0.42375 0.54884 0.86207
 C1959 C 0.41551 0.55776 0.84244
 H1960 H 0.40070 0.55098 0.83525
 O1961 O 0.47906 0.60998 0.92102
 O1962 O 0.47961 0.63563 0.89545
 C1963 C 0.47176 0.62789 0.91318
 C1964 C 0.45341 0.63931 0.92439
 C1965 C 0.44464 0.65886 0.91575
 H1966 H 0.45187 0.66618 0.90122
 O1967 O 0.51961 0.39054 0.92086
 O1968 O 0.51939 0.36507 0.89513
 C1969 C 0.52701 0.37268 0.91300
 C1970 C 0.54518 0.36108 0.92434
 C1971 C 0.55355 0.34136 0.91581
 H1972 H 0.54577 0.33397 0.90164
 O1973 O 0.60764 0.41930 0.97922
 O1974 O 0.63319 0.39362 0.97920
 C1975 C 0.62553 0.41155 0.97176
 C1976 C 0.63721 0.42309 0.95379
 C1977 C 0.65714 0.41482 0.94565
 H1978 H 0.66451 0.40051 0.95323
 O1979 O 0.39059 0.58049 0.97929
 O1980 O 0.36494 0.60608 0.97946
 C1981 C 0.37258 0.58813 0.97202
 C1982 C 0.36077 0.57623 0.95439
 C1983 C 0.33977 0.58298 0.94756
 H1984 H 0.33173 0.59654 0.95581
 O1985 O 0.52169 0.57913 0.89136
 O1986 O 0.52232 0.60467 0.86568
 C1987 C 0.52939 0.58665 0.87348
 C1988 C 0.54702 0.57448 0.86192
 C1989 C 0.55396 0.58096 0.84090
 H1990 H 0.54583 0.59451 0.83273
 O1991 O 0.47702 0.42115 0.89085
 O1992 O 0.47673 0.39575 0.86505
 C1993 C 0.46945 0.41366 0.87291
 C1994 C 0.45170 0.42571 0.86140
 C1995 C 0.44434 0.41885 0.84064
 H1996 H 0.45223 0.40509 0.83258
 O1997 O 0.60916 0.52041 0.92156
 O1998 O 0.63493 0.52031 0.89608
 C1999 C 0.62715 0.52781 0.91393
 C2000 C 0.63889 0.54558 0.92571
 C2001 C 0.65975 0.55259 0.91868
 H2002 H 0.66737 0.54473 0.90467
 O2003 O 0.38967 0.47978 0.92083
 O2004 O 0.36390 0.47999 0.89538
 C2005 C 0.37168 0.47240 0.91317
 C2006 C 0.36003 0.45452 0.92491
 C2007 C 0.33901 0.44763 0.91820
 H2008 H 0.33087 0.45603 0.90480
 O2009 O 0.57990 0.60853 0.97960
 O2010 O 0.60577 0.63397 0.97959
 C2011 C 0.58776 0.62638 0.97216
 C2012 C 0.57599 0.63813 0.95441
 C2013 C 0.58289 0.65907 0.94757
 H2014 H 0.59678 0.66684 0.95555
 O2015 O 0.41891 0.39063 0.97844
 O2016 O 0.39292 0.36531 0.97833
 C2017 C 0.41094 0.37286 0.97090
 C2018 C 0.42261 0.36127 0.95298
 C2019 C 0.41560 0.34048 0.94573
 H2020 H 0.40193 0.33241 0.95382
 O2021 O 0.41995 0.47993 0.89093
 O2022 O 0.39436 0.48024 0.86531
 C2023 C 0.41221 0.47260 0.87302
 C2024 C 0.42383 0.45465 0.86139
 C2025 C 0.41677 0.44762 0.84061
 H2026 H 0.40300 0.45573 0.83278
 O2027 O 0.57905 0.52043 0.89149
 O2028 O 0.60464 0.52030 0.86582
 C2029 C 0.58675 0.52782 0.87357
 C2030 C 0.57498 0.54564 0.86191
 C2031 C 0.58164 0.55231 0.84086
 H2032 H 0.59526 0.54408 0.83289
 O2033 O 0.47669 0.39076 0.92072
 O2034 O 0.47648 0.36521 0.89507
 C2035 C 0.46909 0.37292 0.91298
 C2036 C 0.45117 0.36132 0.92472
 C2037 C 0.44404 0.34050 0.91779
 H2038 H 0.45201 0.33266 0.90395
 O2039 O 0.52198 0.60916 0.92158
 O2040 O 0.52258 0.63488 0.89609
 C2041 C 0.52976 0.62700 0.91401
 C2042 C 0.54765 0.63841 0.92598
 C2043 C 0.55476 0.65936 0.91938
 H2044 H 0.54651 0.66761 0.90597
 O2045 O 0.38953 0.42137 0.97834
 O2046 O 0.36338 0.39622 0.97831
 C2047 C 0.37147 0.41399 0.97088
 C2048 C 0.35998 0.42600 0.95315
 C2049 C 0.33901 0.41932 0.94619
 H2050 H 0.33114 0.40540 0.95404
 O2051 O 0.60989 0.57837 0.97952
 O2052 O 0.63596 0.60359 0.97953
 C2053 C 0.62793 0.58583 0.97204
 C2054 C 0.63933 0.57394 0.95412
 C2055 C 0.66024 0.58066 0.94690
 H2056 H 0.66852 0.59410 0.95512
 O2057 O 0.52000 0.42070 0.89091
 O2058 O 0.51971 0.39528 0.86513
 C2059 C 0.52751 0.41295 0.87306
 C2060 C 0.54603 0.42416 0.86186
 C2061 C 0.55447 0.41582 0.84210
 H2062 H 0.54647 0.40194 0.83435
 O2063 O 0.47876 0.57972 0.89126
 O2064 O 0.47936 0.60531 0.86563
 C2065 C 0.47141 0.58762 0.87343
 C2066 C 0.45290 0.57657 0.86208
 C2067 C 0.44454 0.58510 0.84238
 H2068 H 0.45257 0.59906 0.83478
 O2069 O 0.39008 0.52258 0.92145
 O2070 O 0.36420 0.52281 0.89611
 C2071 C 0.37209 0.53009 0.91400
 C2072 C 0.36053 0.54777 0.92607
 C2073 C 0.33951 0.55468 0.91954
 H2074 H 0.33149 0.54672 0.90581
 O2075 O 0.60895 0.47754 0.92159
 O2076 O 0.63477 0.47738 0.89615
 C2077 C 0.62682 0.46990 0.91396
 C2078 C 0.63800 0.45168 0.92557
 C2079 C 0.65804 0.44321 0.91775
 H2080 H 0.66583 0.45051 0.90350
 O2081 O 0.57740 0.38931 0.97883
 O2082 O 0.60287 0.36355 0.97867
 C2083 C 0.58512 0.37154 0.97110
 C2084 C 0.57366 0.36050 0.95266
 C2085 C 0.58194 0.34088 0.94372
 H2086 H 0.59655 0.33351 0.95069
 O2087 O 0.42104 0.61026 0.97861
 O2088 O 0.39553 0.63598 0.97851
 C2089 C 0.41328 0.62802 0.97091
 C2090 C 0.42467 0.63917 0.95250
 C2091 C 0.41606 0.65857 0.94352
 H2092 H 0.40153 0.66595 0.95069
 Cu2093 Cu 0.59148 0.49901 0.90906
 Cu2094 Cu 0.62236 0.49888 0.87842
 Cu2095 Cu 0.40748 0.50125 0.90859
 Cu2096 Cu 0.37659 0.50160 0.87799
 Cu2097 Cu 0.59232 0.59092 1.00095
 Cu2098 Cu 0.62351 0.62131 1.00099
 Cu2099 Cu 0.58985 0.40664 1.00048
 Cu2100 Cu 0.62050 0.37580 1.00038
 Cu2101 Cu 0.40858 0.59302 1.00035
 Cu2102 Cu 0.37804 0.62398 1.00043
 Cu2103 Cu 0.40683 0.40853 0.99978
 Cu2104 Cu 0.37547 0.37829 0.99974
 Cu2105 Cu 0.50036 0.59195 0.90887
 Cu2106 Cu 0.50111 0.62269 0.87814
 Cu2107 Cu 0.49831 0.40835 0.90840
 Cu2108 Cu 0.49801 0.37778 0.87750
 C2109 C 0.55635 0.44235 0.87163
 H2110 H 0.55010 0.44868 0.88702
 C2111 C 0.57332 0.42504 0.83237
 C2112 C 0.44253 0.55829 0.87166
 H2113 H 0.44873 0.55180 0.88701
 C2114 C 0.42574 0.57596 0.83251
 C2115 C 0.44344 0.62975 0.94292
 H2116 H 0.44990 0.61454 0.94949
 C2117 C 0.42586 0.66844 0.92512
 C2118 C 0.55519 0.37038 0.94292
 H2119 H 0.54899 0.38574 0.94941
 C2120 C 0.57206 0.33123 0.92522
 C2121 C 0.62787 0.44164 0.94376
 H2122 H 0.61227 0.44785 0.94969
 C2123 C 0.66761 0.42468 0.92762
 C2124 C 0.37091 0.55848 0.94366
 H2125 H 0.38723 0.55340 0.94861
 C2126 C 0.32898 0.57223 0.93021
 C2127 C 0.55751 0.55669 0.87220
 H2128 H 0.55245 0.55179 0.88854
 C2129 C 0.57119 0.56992 0.83021
 C2130 C 0.44145 0.44374 0.87153
 H2131 H 0.44682 0.44891 0.88767
 C2132 C 0.42694 0.42977 0.83008
 C2133 C 0.62891 0.55624 0.94356
 H2134 H 0.61268 0.55112 0.94887
 C2135 C 0.67061 0.57005 0.92920
 C2136 C 0.37027 0.44373 0.94254
 H2137 H 0.38656 0.44878 0.94766
 C2138 C 0.32833 0.43008 0.92880
 C2139 C 0.55823 0.62803 0.94364
 H2140 H 0.55300 0.61176 0.94864
 C2141 C 0.57234 0.66985 0.93011
 C2142 C 0.44051 0.37144 0.94247
 H2143 H 0.44580 0.38760 0.94775
 C2144 C 0.42633 0.32992 0.92823
 C2145 C 1.11131 1.10634 1.24874
 C2146 C 1.13300 1.10222 1.25526
 C2147 C 1.14083 1.11099 1.27483
 C2148 C 1.12715 1.12379 1.28853
 C2149 C 1.10527 1.12706 1.28144
 N2150 N 1.09809 1.11836 1.26215
 C2151 C 1.10231 1.09771 1.22783
 N2152 N 1.08011 1.09572 1.22549
 C2153 C 1.07072 1.08780 1.20683
 C2154 C 1.08393 1.08119 1.18913
 C2155 C 1.10678 1.08348 1.19103
 C2156 C 1.11602 1.09181 1.21021
 H2157 H 1.15801 1.10833 1.27847
 H2158 H 1.09350 1.13589 1.29136
 H2159 H 1.05300 1.08633 1.20598
 H2160 H 1.11752 1.07914 1.17752
 H2161 H 1.14400 1.09226 1.24551
 H2162 H 1.13365 1.09392 1.21087
 C2163 C 1.11369 0.61272 0.74469
 C2164 C 1.11975 0.63496 0.74657
 C2165 C 1.12812 0.64280 0.76636
 C2166 C 1.13087 0.62859 0.78424
 C2167 C 1.12536 0.60636 0.78155
 N2168 N 1.11692 0.59913 0.76218
 C2169 C 1.10388 0.60350 0.72436
 N2170 N 1.10285 0.58125 0.72198
 C2171 C 1.09381 0.57148 0.70405
 C2172 C 1.08492 0.58430 0.68708
 C2173 C 1.08575 0.60725 0.68921
 C2174 C 1.09501 0.61687 0.70777
 H2175 H 1.13266 0.65997 0.76765
 H2176 H 1.12726 0.59487 0.79498
 H2177 H 1.09330 0.55373 0.70323
 H2178 H 1.07938 0.61783 0.67643
 H2179 H 1.11834 0.64633 0.73304
 H2180 H 1.09477 0.63457 0.70900
 C2181 C 0.61378 1.10812 0.74737
 C2182 C 0.63627 1.10676 0.75256
 C2183 C 0.64388 1.11536 0.77236
 C2184 C 0.62924 1.12509 0.78726
 C2185 C 0.60687 1.12589 0.78161
 N2186 N 0.59984 1.11750 0.76215
 C2187 C 0.60455 1.09931 0.72658
 N2188 N 0.58233 1.09684 0.72483
 C2189 C 0.57253 1.08878 0.70645
 C2190 C 0.58533 1.08244 0.68838
 C2191 C 0.60819 1.08513 0.68963
 C2192 C 0.61784 1.09366 0.70854
 H2193 H 0.66131 1.11456 0.77587
 H2194 H 0.59491 1.13291 0.79273
 H2195 H 0.55483 1.08697 0.70612
 H2196 H 0.61860 1.08093 0.67583
 H2197 H 0.64802 1.09898 0.74180
 H2198 H 0.63545 1.09598 0.70864
 C2199 C 0.60308 0.60042 1.25444
 C2200 C 0.61421 0.58729 1.26975
 C2201 C 0.62292 0.59681 1.28867
 C2202 C 0.62086 0.61958 1.29266
 C2203 C 0.60934 0.63200 1.27682
 N2204 N 0.60113 0.62230 1.25849
 C2205 C 0.59421 0.59166 1.23350
 N2206 N 0.58889 0.60619 1.21735
 C2207 C 0.58106 0.59972 1.19750
 C2208 C 0.57828 0.57731 1.19283
 C2209 C 0.58332 0.56201 1.20929
 C2210 C 0.59114 0.56907 1.22964
 H2211 H 0.63073 0.58596 1.30034
 H2212 H 0.60772 0.64962 1.27815
 H2213 H 0.57750 0.61206 1.18522
 H2214 H 0.58100 0.54459 1.20649
 H2215 H 0.61662 0.56989 1.26721
 H2216 H 0.59445 0.55686 1.24207
 C2217 C 0.88687 0.89108 1.24825
 C2218 C 0.86510 0.89482 1.25483
 C2219 C 0.85767 0.88660 1.27485
 C2220 C 0.87181 0.87469 1.28885
 C2221 C 0.89361 0.87143 1.28148
 N2222 N 0.90041 0.87967 1.26186
 C2223 C 0.89580 0.89973 1.22728
 N2224 N 0.91801 0.90162 1.22490
 C2225 C 0.92746 0.90969 1.20632
 C2226 C 0.91432 0.91659 1.18871
 C2227 C 0.89144 0.91441 1.19062
 C2228 C 0.88213 0.90591 1.20974
 H2229 H 0.84052 0.88912 1.27876
 H2230 H 0.90569 0.86321 1.29154
 H2231 H 0.94519 0.91107 1.20549
 H2232 H 0.88074 0.91900 1.17718
 H2233 H 0.85379 0.90423 1.24491
 H2234 H 0.86448 0.90396 1.21043
 C2235 C 0.88649 0.39115 0.74733
 C2236 C 0.86438 0.39385 0.75331
 C2237 C 0.85683 0.38539 0.77319
 C2238 C 0.87114 0.37428 0.78765
 C2239 C 0.89332 0.37226 0.78098
 N2240 N 0.90023 0.38066 0.76146
 C2241 C 0.89555 0.39980 0.72640
 N2242 N 0.91775 0.40212 0.72432
 C2243 C 0.92733 0.41010 0.70576
 C2244 C 0.91432 0.41648 0.68786
 C2245 C 0.89146 0.41388 0.68947
 C2246 C 0.88203 0.40546 0.70856
 H2247 H 0.83946 0.38701 0.77657
 H2248 H 0.90555 0.36483 0.79145
 H2249 H 0.94504 0.41183 0.70516
 H2250 H 0.88088 0.41808 0.67581
 H2251 H 0.85286 0.40254 0.74300
 H2252 H 0.86442 0.40317 0.70898
 C2253 C 0.38542 0.89116 0.74643
 C2254 C 0.36293 0.89244 0.75168
 C2255 C 0.35538 0.88397 0.77157
 C2256 C 0.37008 0.87445 0.78653
 C2257 C 0.39245 0.87368 0.78081
 N2258 N 0.39942 0.88195 0.76126
 C2259 C 0.39459 0.89991 0.72556
 N2260 N 0.41679 0.90244 0.72372
 C2261 C 0.42652 0.91051 0.70529
 C2262 C 0.41367 0.91680 0.68725
 C2263 C 0.39082 0.91403 0.68860
 C2264 C 0.38124 0.90550 0.70756
 H2265 H 0.33794 0.88472 0.77512
 H2266 H 0.40444 0.86680 0.79196
 H2267 H 0.44422 0.91237 0.70488
 H2268 H 0.38037 0.91820 0.67483
 H2269 H 0.35112 0.90007 0.74089
 H2270 H 0.36364 0.90313 0.70772
 C2271 C 0.38713 0.39273 1.24866
 C2272 C 0.36517 0.39585 1.25496
 C2273 C 0.35777 0.38758 1.27498
 C2274 C 0.37212 0.37626 1.28925
 C2275 C 0.39417 0.37388 1.28227
 N2276 N 0.40091 0.38207 1.26262
 C2277 C 0.39598 0.40107 1.22753
 N2278 N 0.41819 0.40298 1.22508
 C2279 C 0.42760 0.41061 1.20630
 C2280 C 0.41441 0.41704 1.18855
 C2281 C 0.39154 0.41486 1.19054
 C2282 C 0.38228 0.40679 1.20986
 H2283 H 0.34048 0.38949 1.27860
 H2284 H 0.40643 0.36628 1.29259
 H2285 H 0.44532 0.41203 1.20541
 H2286 H 0.38082 0.41911 1.17701
 H2287 H 0.35364 0.40469 1.24479
 H2288 H 0.36464 0.40481 1.21058
 C2289 C 0.89197 1.11376 0.75271
 C2290 C 0.89464 1.13583 0.74664
 C2291 C 0.88595 1.14331 0.72686
 C2292 C 0.87464 1.12895 0.71257
 C2293 C 0.87264 1.10682 0.71933
 N2294 N 0.88126 1.09999 0.73875
 C2295 C 0.90084 1.10478 0.77355
 N2296 N 0.90290 1.08259 0.77574
 C2297 C 0.91098 1.07306 0.79425
 C2298 C 0.91772 1.08610 0.81199
 C2299 C 0.91543 1.10896 0.81027
 C2300 C 0.90691 1.11834 0.79123
 H2301 H 0.88755 1.16067 0.72343
 H2302 H 0.86505 1.09456 0.70898
 H2303 H 0.91246 1.05535 0.79494
 H2304 H 0.91992 1.11957 0.82382
 H2305 H 0.90348 1.14740 0.75680
 H2306 H 0.90486 1.13596 0.79075
 C2307 C 0.89964 0.60495 0.24538
 C2308 C 0.91318 0.61275 0.22830
 C2309 C 0.90364 0.62103 0.20918
 C2310 C 0.88070 0.62165 0.20688
 C2311 C 0.86777 0.61364 0.22422
 N2312 N 0.87741 0.60570 0.24269
 C2313 C 0.90840 0.59632 0.26648
 N2314 N 0.89375 0.59065 0.28244
 C2315 C 0.90006 0.58295 0.30240
 C2316 C 0.92246 0.58068 0.30740
 C2317 C 0.93791 0.58622 0.29122
 C2318 C 0.93102 0.59395 0.27078
 H2319 H 0.91425 0.62679 0.19611
 H2320 H 0.85000 0.61406 0.22330
 H2321 H 0.88759 0.57905 0.31447
 H2322 H 0.95535 0.58440 0.29431
 H2323 H 0.93088 0.61276 0.22940
 H2324 H 0.94347 0.59787 0.25878
 C2325 C 0.39181 1.11264 0.25244
 C2326 C 0.39401 1.13475 0.24632
 C2327 C 0.38537 1.14195 0.22641
 C2328 C 0.37460 1.12726 0.21204
 C2329 C 0.37296 1.10513 0.21891
 N2330 N 0.38152 1.09858 0.23845
 C2331 C 0.40079 1.10391 0.27335
 N2332 N 0.40325 1.08177 0.27561
 C2333 C 0.41148 1.07244 0.29414
 C2334 C 0.41797 1.08565 0.31186
 C2335 C 0.41530 1.10846 0.31006
 C2336 C 0.40663 1.11763 0.29098
 H2337 H 0.38662 1.15931 0.22291
 H2338 H 0.36574 1.09267 0.20855
 H2339 H 0.41326 1.05476 0.29489
 H2340 H 0.41959 1.11918 0.32358
 H2341 H 0.40246 1.14656 0.25653
 H2342 H 0.40428 1.13521 0.29044
 C2343 C 0.38902 0.61383 0.75367
 C2344 C 0.38520 0.63639 0.75029
 C2345 C 0.37694 0.64362 0.73021
 C2346 C 0.37217 0.62855 0.71349
 C2347 C 0.37566 0.60615 0.71762
 N2348 N 0.38396 0.59949 0.73724
 C2349 C 0.39839 0.60494 0.77440
 N2350 N 0.39894 0.58273 0.77724
 C2351 C 0.40747 0.57313 0.79550
 C2352 C 0.41629 0.58608 0.81240
 C2353 C 0.41592 0.60900 0.80986
 C2354 C 0.40716 0.61846 0.79096
 H2355 H 0.37407 0.66101 0.72781
 H2356 H 0.37225 0.59399 0.70511
 H2357 H 0.40762 0.55538 0.79663
 H2358 H 0.42223 0.61969 0.82259
 H2359 H 0.38828 0.64854 0.76281
 H2360 H 0.40761 0.63613 0.78958
 C2361 C 1.11252 0.88739 0.75416
 C2362 C 1.11883 0.86523 0.75233
 C2363 C 1.12756 0.85755 0.73263
 C2364 C 1.13038 0.87182 0.71479
 C2365 C 1.12464 0.89397 0.71746
 N2366 N 1.11587 0.90106 0.73675
 C2367 C 1.10239 0.89642 0.77442
 N2368 N 1.10160 0.91863 0.77710
 C2369 C 1.09243 0.92821 0.79508
 C2370 C 1.08320 0.91523 0.81178
 C2371 C 1.08368 0.89232 0.80927
 C2372 C 1.09306 0.88288 0.79066
 H2373 H 1.13227 0.84043 0.73137
 H2374 H 1.12659 0.90551 0.70407
 H2375 H 1.09216 0.94596 0.79616
 H2376 H 1.07701 0.88161 0.82182
 H2377 H 1.11736 0.85385 0.76585
 H2378 H 1.09261 0.86521 0.78912
 C2379 C 1.10941 0.38823 0.25263
 C2380 C 1.11475 0.36588 0.25010
 C2381 C 1.12292 0.35837 0.23009
 C2382 C 1.12613 0.37300 0.21261
 C2383 C 1.12111 0.39525 0.21588
 N2384 N 1.11293 0.40217 0.23547
 C2385 C 1.10021 0.39727 0.27333
 N2386 N 1.09971 0.41949 0.27607
 C2387 C 1.09132 0.42915 0.29438
 C2388 C 1.08260 0.41622 0.31139
 C2389 C 1.08293 0.39330 0.30891
 C2390 C 1.09152 0.38379 0.28996
 H2391 H 1.12707 0.34115 0.22837
 H2392 H 1.12334 0.40706 0.20278
 H2393 H 1.09117 0.44689 0.29546
 H2394 H 1.07668 0.38263 0.32171
 H2395 H 1.11305 0.35419 0.26333
 H2396 H 1.09093 0.36612 0.28851
 C2397 C 0.60213 0.89680 0.24592
 C2398 C 0.58905 0.88429 0.23168
 C2399 C 0.59822 0.87550 0.21264
 C2400 C 0.62062 0.87885 0.20746
 C2401 C 0.63306 0.89164 0.22232
 N2402 N 0.62369 0.89992 0.24082
 C2403 C 0.59352 0.90594 0.26680
 N2404 N 0.60805 0.91144 0.28290
 C2405 C 0.60150 0.91937 0.30272
 C2406 C 0.57904 0.92203 0.30737
 C2407 C 0.56379 0.91692 0.29088
 C2408 C 0.57091 0.90903 0.27059
 H2409 H 0.58730 0.86667 0.20177
 H2410 H 0.65047 0.89433 0.22000
 H2411 H 0.61382 0.92304 0.31500
 H2412 H 0.54634 0.91921 0.29362
 H2413 H 0.57195 0.88088 0.23518
 H2414 H 0.55875 0.90567 0.25811
 C2415 C 0.61082 0.38763 0.75367
 C2416 C 0.61546 0.36518 0.75068
 C2417 C 0.62372 0.35789 0.73062
 C2418 C 0.62774 0.37281 0.71356
 C2419 C 0.62359 0.39516 0.71735
 N2420 N 0.61525 0.40187 0.73695
 C2421 C 0.60125 0.39645 0.77432
 N2422 N 0.60072 0.41864 0.77729
 C2423 C 0.59199 0.42813 0.79553
 C2424 C 0.58292 0.41506 0.81225
 C2425 C 0.58323 0.39217 0.80953
 C2426 C 0.59219 0.38283 0.79066
 H2427 H 0.62715 0.34056 0.72848
 H2428 H 0.62647 0.40719 0.70458
 H2429 H 0.59187 0.44586 0.79678
 H2430 H 0.57672 0.38139 0.82211
 H2431 H 0.61302 0.35319 0.76351
 H2432 H 0.59161 0.36518 0.78907
 C2433 C 1.25601 1.09763 1.10225
 C2434 C 1.27434 1.10262 1.08902
 C2435 C 1.29314 1.11167 1.09855
 C2436 C 1.29397 1.11553 1.12121
 C2437 C 1.27571 1.10960 1.13398
 N2438 N 1.25745 1.10109 1.12430
 C2439 C 1.23490 1.08922 1.09324
 N2440 N 1.21900 1.08273 1.10762
 C2441 C 1.19888 1.07561 1.10103
 C2442 C 1.19358 1.07487 1.07862
 C2443 C 1.20970 1.08136 1.06345
 C2444 C 1.23027 1.08858 1.07062
 H2445 H 1.30706 1.11569 1.08819
 H2446 H 1.27564 1.11240 1.15152
 H2447 H 1.18688 1.07106 1.11335
 H2448 H 1.20641 1.08084 1.04599
 H2449 H 1.27444 1.09973 1.07155
 H2450 H 1.24199 1.09387 1.05840
 C2451 C 1.25478 0.60205 0.60168
 C2452 C 1.27325 0.60678 0.58854
 C2453 C 1.29203 0.61586 0.59812
 C2454 C 1.29268 0.62002 0.62074
 C2455 C 1.27417 0.61456 0.63337
 N2456 N 1.25598 0.60597 0.62366
 C2457 C 1.23387 0.59318 0.59266
 N2458 N 1.21810 0.58635 0.60703
 C2459 C 1.19818 0.57869 0.60041
 C2460 C 1.19297 0.57771 0.57800
 C2461 C 1.20897 0.58455 0.56284
 C2462 C 1.22932 0.59233 0.57003
 H2463 H 1.30613 0.61948 0.58786
 H2464 H 1.27392 0.61763 0.65086
 H2465 H 1.18627 0.57389 0.61272
 H2466 H 1.20575 0.58389 0.54538
 H2467 H 1.27353 0.60351 0.57113
 H2468 H 1.24095 0.59791 0.55785
 C2469 C 0.75327 1.10109 0.60685
 C2470 C 0.76766 1.08845 0.61967
 C2471 C 0.78656 1.09811 0.62842
 C2472 C 0.79143 1.12049 0.62460
 C2473 C 0.77635 1.13244 0.61162
 N2474 N 0.75804 1.12263 0.60343
 C2475 C 0.73255 1.09218 0.59758
 N2476 N 0.71668 1.10661 0.59124
 C2477 C 0.69708 1.09999 0.58281
 C2478 C 0.69243 1.07754 0.58040
 C2479 C 0.70866 1.06233 0.58648
 C2480 C 0.72873 1.06954 0.59497
 H2481 H 0.79756 1.08763 0.63760
 H2482 H 0.77830 1.14984 0.60872
 H2483 H 0.68499 1.11228 0.57849
 H2484 H 0.70590 1.04487 0.58448
 H2485 H 0.76438 1.07138 0.62330
 H2486 H 0.74104 1.05744 0.59909
 C2487 C 0.75403 0.59929 1.10517
 C2488 C 0.77157 0.58581 1.11194
 C2489 C 0.79067 0.59538 1.12034
 C2490 C 0.79253 0.61829 1.12199
 C2491 C 0.77479 0.63117 1.11489
 N2492 N 0.75632 0.62150 1.10687
 C2493 C 0.73294 0.59049 1.09643
 N2494 N 0.71727 0.60512 1.09000
 C2495 C 0.69733 0.59880 1.08217
 C2496 C 0.69201 0.57642 1.08054
 C2497 C 0.70788 0.56099 1.08693
 C2498 C 0.72828 0.56788 1.09486
 H2499 H 0.80411 0.58484 1.12535
 H2500 H 0.77542 0.64890 1.11607
 H2501 H 0.68550 0.61129 1.07768
 H2502 H 0.70456 0.54355 1.08568
 H2503 H 0.77092 0.56813 1.11088
 H2504 H 0.73992 0.55543 1.09970
 C2505 C 1.25330 0.89577 0.89908
 C2506 C 1.26807 0.88348 0.91179
 C2507 C 1.28700 0.87490 0.90212
 C2508 C 1.29153 0.87826 0.87962
 C2509 C 1.27631 0.89107 0.86768
 N2510 N 1.25792 0.89908 0.87750
 C2511 C 1.23225 0.90436 0.90792
 N2512 N 1.21628 0.91034 0.89345
 C2513 C 1.19633 0.91794 0.89999
 C2514 C 1.19136 0.91980 0.92241
 C2515 C 1.20763 0.91403 0.93767
 C2516 C 1.22808 0.90644 0.93054
 H2517 H 1.29823 0.86607 0.91265
 H2518 H 1.27811 0.89380 0.85026
 H2519 H 1.18422 0.92207 0.88766
 H2520 H 1.20461 0.91563 0.95511
 H2521 H 1.26503 0.88001 0.92891
 H2522 H 1.24039 0.90256 0.94272
 C2523 C 1.24969 0.39002 0.39502
 C2524 C 1.25667 0.36861 0.39984
 C2525 C 1.27665 0.36104 0.39160
 C2526 C 1.29015 0.37469 0.37853
 C2527 C 1.28264 0.39633 0.37469
 N2528 N 1.26304 0.40325 0.38292
 C2529 C 1.22838 0.39876 0.40296
 N2530 N 1.22562 0.42092 0.40450
 C2531 C 1.20656 0.43012 0.41173
 C2532 C 1.18883 0.41673 0.41804
 C2533 C 1.19115 0.39389 0.41610
 C2534 C 1.21077 0.38486 0.40852
 H2535 H 1.28077 0.34408 0.39482
 H2536 H 1.29246 0.40813 0.36577
 H2537 H 1.20543 0.44782 0.41296
 H2538 H 1.17767 0.38299 0.42021
 H2539 H 1.24695 0.35767 0.40993
 H2540 H 1.21183 0.36722 0.40673
 C2541 C 0.75502 0.89904 0.39933
 C2542 C 0.77120 0.91266 0.38993
 C2543 C 0.79026 0.90335 0.38125
 C2544 C 0.79333 0.88050 0.38168
 C2545 C 0.77695 0.86749 0.39144
 N2546 N 0.75849 0.87693 0.39975
 C2547 C 0.73380 0.90758 0.40791
 N2548 N 0.71752 0.89290 0.41260
 C2549 C 0.69737 0.89916 0.41994
 C2550 C 0.69249 0.92150 0.42277
 C2551 C 0.70905 0.93695 0.41838
 C2552 C 0.72971 0.93012 0.41112
 H2553 H 0.80257 0.91404 0.37408
 H2554 H 0.77846 0.84978 0.39190
 H2555 H 0.68503 0.88670 0.42304
 H2556 H 0.70605 0.95433 0.42076
 H2557 H 0.76923 0.93024 0.38872
 H2558 H 0.74212 0.94250 0.40826
 C2559 C 0.74777 0.38728 0.89361
 C2560 C 0.75304 0.36481 0.89469
 C2561 C 0.77297 0.35742 0.88616
 C2562 C 0.78798 0.37226 0.87681
 C2563 C 0.78230 0.39462 0.87641
 N2564 N 0.76267 0.40143 0.88468
 C2565 C 0.72671 0.39622 0.90216
 N2566 N 0.72476 0.41836 0.90495
 C2567 C 0.70610 0.42786 0.91278
 C2568 C 0.68794 0.41483 0.91851
 C2569 C 0.68940 0.39206 0.91546
 C2570 C 0.70860 0.38271 0.90719
 H2571 H 0.77648 0.33999 0.88664
 H2572 H 0.79349 0.40673 0.86970
 H2573 H 0.70559 0.44552 0.91488
 H2574 H 0.67554 0.38149 0.91919
 H2575 H 0.74219 0.35288 0.90214
 H2576 H 0.70884 0.36517 0.90456
 C2577 C 0.74434 0.89822 1.10142
 C2578 C 0.72706 0.89081 1.08793
 C2579 C 0.70814 0.88194 1.09744
 C2580 C 0.70621 0.88036 1.12032
 C2581 C 0.72364 0.88817 1.13324
 N2582 N 0.74195 0.89666 1.12361
 C2583 C 0.76537 0.90716 1.09261
 N2584 N 0.78143 0.91285 1.10715
 C2585 C 0.80140 0.92061 1.10073
 C2586 C 0.80635 0.92288 1.07835
 C2587 C 0.79005 0.91740 1.06304
 C2588 C 0.76960 0.90962 1.07002
 H2589 H 0.69495 0.87641 1.08686
 H2590 H 0.72296 0.88709 1.15095
 H2591 H 0.81355 0.92447 1.11311
 H2592 H 0.79308 0.91922 1.04561
 H2593 H 0.72785 0.89155 1.07026
 H2594 H 0.75758 0.90563 1.05763
 C2595 C 0.74426 0.39800 0.60103
 C2596 C 0.72894 0.38676 0.58798
 C2597 C 0.71008 0.37789 0.59758
 C2598 C 0.70617 0.37986 0.62034
 C2599 C 0.72198 0.39157 0.63268
 N2600 N 0.74026 0.39994 0.62290
 C2601 C 0.76521 0.40693 0.59216
 N2602 N 0.78144 0.41237 0.60657
 C2603 C 0.80134 0.42014 0.59997
 C2604 C 0.80597 0.42271 0.57756
 C2605 C 0.78941 0.41757 0.56238
 C2606 C 0.76902 0.40984 0.56957
 H2607 H 0.69839 0.36999 0.58678
 H2608 H 0.72067 0.39320 0.65028
 H2609 H 0.81369 0.42380 0.61223
 H2610 H 0.79219 0.41974 0.54495
 H2611 H 0.73141 0.38436 0.57059
 H2612 H 0.75653 0.40646 0.55744
 C2613 C 0.24568 0.89724 0.60114
 C2614 C 0.23094 0.88480 0.58853
 C2615 C 0.21231 0.87572 0.59839
 C2616 C 0.20808 0.87872 0.62098
 C2617 C 0.22323 0.89174 0.63282
 N2618 N 0.24132 0.90024 0.62282
 C2619 C 0.26649 0.90625 0.59209
 N2620 N 0.28260 0.91230 0.60640
 C2621 C 0.30241 0.92013 0.59964
 C2622 C 0.30709 0.92213 0.57718
 C2623 C 0.29065 0.91635 0.56210
 C2624 C 0.27033 0.90855 0.56944
 H2625 H 0.20108 0.86677 0.58793
 H2626 H 0.22163 0.89426 0.65030
 H2627 H 0.31466 0.92428 0.61184
 H2628 H 0.29344 0.91807 0.54463
 H2629 H 0.23377 0.88156 0.57133
 H2630 H 0.25790 0.90464 0.55740
 C2631 C 0.24439 0.40071 1.10329
 C2632 C 0.22985 0.41353 1.11575
 C2633 C 0.21093 0.40395 1.12458
 C2634 C 0.20621 0.38147 1.12122
 C2635 C 0.22130 0.36940 1.10836
 N2636 N 0.23964 0.37912 1.10012
 C2637 C 0.26535 0.40941 1.09432
 N2638 N 0.28117 0.39479 1.08827
 C2639 C 0.30105 0.40118 1.08032
 C2640 C 0.30608 0.42358 1.07815
 C2641 C 0.28992 0.43898 1.08393
 C2642 C 0.26954 0.43201 1.09190
 H2643 H 0.19985 0.41454 1.13355
 H2644 H 0.21942 0.35196 1.10572
 H2645 H 0.31307 0.38874 1.07621
 H2646 H 0.29300 0.45642 1.08209
 H2647 H 0.23304 0.43066 1.11914
 H2648 H 0.25732 0.44427 1.09582
 C2649 C 0.74539 1.10276 0.89901
 C2650 C 0.73072 1.08961 0.88705
 C2651 C 0.71189 1.09895 0.87795
 C2652 C 0.70737 1.12157 0.88041
 C2653 C 0.72242 1.13398 0.89303
 N2654 N 0.74073 1.12446 0.90155
 C2655 C 0.76644 1.09419 0.90788
 N2656 N 0.78254 1.10882 0.91323
 C2657 C 0.80260 1.10243 0.92071
 C2658 C 0.80753 1.08003 0.92299
 C2659 C 0.79108 1.06464 0.91802
 C2660 C 0.77052 1.07161 0.91062
 H2661 H 0.70074 1.08808 0.86939
 H2662 H 0.72055 1.15149 0.89516
 H2663 H 0.81484 1.11484 0.92430
 H2664 H 0.79407 1.04722 0.92001
 H2665 H 0.73377 1.07237 0.88416
 H2666 H 0.75811 1.05934 0.90732
 C2667 C 0.74584 0.60482 0.39749
 C2668 C 0.72969 0.61468 0.41075
 C2669 C 0.71066 0.62307 0.40113
 C2670 C 0.70760 0.62190 0.37834
 C2671 C 0.72404 0.61183 0.36568
 N2672 N 0.74245 0.60378 0.37542
 C2673 C 0.76689 0.59623 0.40640
 N2674 N 0.78327 0.59118 0.39200
 C2675 C 0.80321 0.58361 0.39860
 C2676 C 0.80773 0.58083 0.42099
 C2677 C 0.79108 0.58566 0.43617
 C2678 C 0.77065 0.59320 0.42899
 H2679 H 0.69831 0.63051 0.41157
 H2680 H 0.72255 0.61082 0.34802
 H2681 H 0.81565 0.58019 0.38635
 H2682 H 0.79379 0.58334 0.45358
 H2683 H 0.73163 0.61642 0.42827
 H2684 H 0.75811 0.59632 0.44115
 C2685 C 0.25392 1.11211 0.38849
 C2686 C 0.24740 1.10726 0.36699
 C2687 C 0.22756 1.11534 0.35905
 C2688 C 0.21361 1.12818 0.37242
 C2689 C 0.22088 1.13253 0.39401
 N2690 N 0.24038 1.12439 0.40135
 C2691 C 0.27483 1.10367 0.39770
 N2692 N 0.27692 1.10156 0.41986
 C2693 C 0.29541 1.09334 0.42937
 C2694 C 0.31315 1.08648 0.41631
 C2695 C 0.31155 1.08901 0.39351
 C2696 C 0.29257 1.09770 0.38417
 H2697 H 0.22381 1.11201 0.34204
 H2698 H 0.21084 1.14160 0.40549
 H2699 H 0.29606 1.09174 0.44704
 H2700 H 0.32512 1.08451 0.38291
 H2701 H 0.25728 1.09710 0.35629
 H2702 H 0.29208 1.09991 0.36657
 C2703 C 0.24572 0.60296 0.89718
 C2704 C 0.23131 0.59007 0.88463
 C2705 C 0.21273 0.59964 0.87524
 C2706 C 0.20819 0.62221 0.87806
 C2707 C 0.22303 0.63436 0.89116
 N2708 N 0.24110 0.62463 0.89995
 C2709 C 0.26646 0.59419 0.90652
 N2710 N 0.28250 0.60868 0.91241
 C2711 C 0.30229 0.60212 0.92040
 C2712 C 0.30701 0.57968 0.92270
 C2713 C 0.29060 0.56443 0.91719
 C2714 C 0.27031 0.57157 0.90924
 H2715 H 0.20176 0.58897 0.86622
 H2716 H 0.22121 0.65185 0.89353
 H2717 H 0.31451 0.61444 0.92437
 H2718 H 0.29342 0.54697 0.91917
 H2719 H 0.23440 0.57287 0.88153
 H2720 H 0.25790 0.55941 0.90551
 C2721 C 1.11311 1.24773 1.10827
 C2722 C 1.13553 1.25325 1.10682
 C2723 C 1.14286 1.27331 1.11511
 C2724 C 1.12800 1.28815 1.12460
 C2725 C 1.10569 1.28217 1.12547
 N2726 N 1.09894 1.26246 1.11739
 C2727 C 1.10421 1.22664 1.09981
 N2728 N 1.08205 1.22459 1.09706
 C2729 C 1.07257 1.20591 1.08926
 C2730 C 1.08564 1.18783 1.08351
 C2731 C 1.10844 1.18940 1.08653
 C2732 C 1.11776 1.20861 1.09478
 H2733 H 1.16025 1.27707 1.11428
 H2734 H 1.09358 1.29323 1.13232
 H2735 H 1.05490 1.20533 1.08717
 H2736 H 1.11904 1.17560 1.08278
 H2737 H 1.14743 1.24254 1.09921
 H2738 H 1.13532 1.20897 1.09739
 C2739 C 1.11290 0.74562 0.61338
 C2740 C 1.11894 0.74764 0.63557
 C2741 C 1.12735 0.76751 0.64326
 C2742 C 1.13013 0.78533 0.62895
 C2743 C 1.12456 0.78252 0.60680
 N2744 N 1.11612 0.76307 0.59971
 C2745 C 1.10322 0.72516 0.60425
 N2746 N 1.10230 0.72269 0.58204
 C2747 C 1.09344 0.70461 0.57234
 C2748 C 1.08465 0.68758 0.58519
 C2749 C 1.08536 0.68980 0.60810
 C2750 C 1.09443 0.70852 0.61766
 H2751 H 1.13194 0.76888 0.66038
 H2752 H 1.12647 0.79589 0.59524
 H2753 H 1.09300 0.70373 0.55461
 H2754 H 1.07905 0.67697 0.61870
 H2755 H 1.11753 0.73415 0.64700
 H2756 H 1.09413 0.70981 0.63533
 C2757 C 0.60266 1.25381 0.60458
 C2758 C 0.58920 1.26964 0.61470
 C2759 C 0.59864 1.28864 0.62341
 C2760 C 0.62146 1.29197 0.62230
 C2761 C 0.63432 1.27584 0.61201
 N2762 N 0.62475 1.25746 0.60365
 C2763 C 0.59393 1.23284 0.59563
 N2764 N 0.60848 1.21664 0.59043
 C2765 C 0.60202 1.19675 0.58261
 C2766 C 0.57961 1.19207 0.57977
 C2767 C 0.56429 1.20856 0.58467
 C2768 C 0.57133 1.22896 0.59243
 H2769 H 0.58805 1.30074 0.63100
 H2770 H 0.65201 1.27754 0.61105
 H2771 H 0.61436 1.18444 0.57911
 H2772 H 0.54687 1.20573 0.58230
 H2773 H 0.57166 1.26747 0.61639
 H2774 H 0.55907 1.24136 0.59563
 C2775 C 0.60193 0.75430 1.10381
 C2776 C 0.58817 0.77095 1.11207
 C2777 C 0.59743 0.79005 1.12075
 C2778 C 0.62034 0.79274 1.12142
 C2779 C 0.63351 0.77584 1.11292
 N2780 N 0.62413 0.75736 1.10456
 C2781 C 0.59338 0.73318 1.09491
 N2782 N 0.60809 0.71707 1.08984
 C2783 C 0.60185 0.69705 1.08213
 C2784 C 0.57949 0.69212 1.07929
 C2785 C 0.56402 0.70850 1.08408
 C2786 C 0.57083 0.72901 1.09174
 H2787 H 0.58661 0.80278 1.12686
 H2788 H 0.65126 0.77706 1.11333
 H2789 H 0.61432 0.68485 1.07874
 H2790 H 0.54662 0.70547 1.08174
 H2791 H 0.57050 0.76947 1.11224
 H2792 H 0.55836 0.74118 1.09498
 C2793 C 0.89964 1.25414 0.89498
 C2794 C 0.91290 1.27092 0.88610
 C2795 C 0.90307 1.28966 0.87723
 C2796 C 0.88010 1.29181 0.87707
 C2797 C 0.86747 1.27472 0.88607
 N2798 N 0.87739 1.25665 0.89459
 C2799 C 0.90866 1.23343 0.90429
 N2800 N 0.89422 1.21734 0.91019
 C2801 C 0.90079 1.19768 0.91846
 C2802 C 0.92323 1.19312 0.92108
 C2803 C 0.93847 1.20949 0.91540
 C2804 C 0.93132 1.22964 0.90711
 H2805 H 0.91346 1.30253 0.87063
 H2806 H 0.84969 1.27547 0.88598
 H2807 H 0.88847 1.18545 0.92246
 H2808 H 0.95593 1.20674 0.91749
 H2809 H 0.93060 1.26982 0.88566
 H2810 H 0.94358 1.24185 0.90314
 C2811 C 0.89741 0.75553 0.39831
 C2812 C 0.89316 0.77398 0.41157
 C2813 C 0.88415 0.79287 0.40220
 C2814 C 0.87960 0.79364 0.37966
 C2815 C 0.88461 0.77515 0.36688
 N2816 N 0.89314 0.75685 0.37640
 C2817 C 0.90622 0.73455 0.40716
 N2818 N 0.91298 0.71889 0.39268
 C2819 C 0.92063 0.69895 0.39918
 C2820 C 0.92166 0.69361 0.42157
 C2821 C 0.91485 0.70949 0.43682
 C2822 C 0.90708 0.72986 0.42975
 H2823 H 0.88090 0.80696 0.41256
 H2824 H 0.88126 0.77502 0.34944
 H2825 H 0.92539 0.68713 0.38681
 H2826 H 0.91555 0.70617 0.45427
 H2827 H 0.89677 0.77417 0.42891
 H2828 H 0.90151 0.74138 0.44201
 C2829 C 0.40033 1.25552 0.39572
 C2830 C 0.41359 1.27238 0.38698
 C2831 C 0.40376 1.29120 0.37831
 C2832 C 0.38079 1.29338 0.37820
 C2833 C 0.36816 1.27624 0.38710
 N2834 N 0.37809 1.25808 0.39542
 C2835 C 0.40936 1.23472 0.40479
 N2836 N 0.39490 1.21868 0.41081
 C2837 C 0.40145 1.19895 0.41891
 C2838 C 0.42390 1.19425 0.42123
 C2839 C 0.43916 1.21053 0.41537
 C2840 C 0.43203 1.23076 0.40726
 H2841 H 0.41415 1.30412 0.37180
 H2842 H 0.35038 1.27702 0.38707
 H2843 H 0.38912 1.18679 0.42304
 H2844 H 0.45664 1.20766 0.41722
 H2845 H 0.43129 1.27129 0.38651
 H2846 H 0.44432 1.24288 0.40314
 C2847 C 0.38685 0.74647 0.88835
 C2848 C 0.36427 0.75128 0.88955
 C2849 C 0.35646 0.77114 0.88129
 C2850 C 0.37099 0.78650 0.87204
 C2851 C 0.39343 0.78115 0.87118
 N2852 N 0.40067 0.76162 0.87930
 C2853 C 0.39628 0.72580 0.89725
 N2854 N 0.41844 0.72453 0.90040
 C2855 C 0.42831 0.70638 0.90891
 C2856 C 0.41565 0.68812 0.91509
 C2857 C 0.39288 0.68885 0.91161
 C2858 C 0.38317 0.70749 0.90258
 H2859 H 0.33898 0.77441 0.88207
 H2860 H 0.40528 0.79261 0.86446
 H2861 H 0.44595 0.70640 0.91128
 H2862 H 0.38262 0.67486 0.91566
 H2863 H 0.35259 0.74023 0.89709
 H2864 H 0.36565 0.70719 0.89969
 C2865 C 1.11098 0.75403 0.88586
 C2866 C 1.11732 0.75223 0.86372
 C2867 C 1.12625 0.73259 0.85607
 C2868 C 1.12925 0.71480 0.87035
 C2869 C 1.12340 0.71742 0.89246
 N2870 N 1.11445 0.73664 0.89952
 C2871 C 1.10078 0.77425 0.89495
 N2872 N 1.09956 0.77663 0.91715
 C2873 C 1.09037 0.79454 0.92682
 C2874 C 1.08160 0.81154 0.91394
 C2875 C 1.08252 0.80936 0.89103
 C2876 C 1.09189 0.79079 0.88150
 H2877 H 1.13103 0.73138 0.83898
 H2878 H 1.12546 0.70405 0.90400
 H2879 H 1.08975 0.79536 0.94455
 H2880 H 1.07622 0.82215 0.88041
 H2881 H 1.11574 0.76571 0.85232
 H2882 H 1.09181 0.78954 0.86383
 C2883 C 1.10962 0.25397 0.38568
 C2884 C 1.10976 0.24948 0.36303
 C2885 C 1.11851 0.22974 0.35543
 C2886 C 1.12694 0.21419 0.37019
 C2887 C 1.12638 0.21919 0.39267
 N2888 N 1.11785 0.23861 0.39971
 C2889 C 1.10043 0.27461 0.39497
 N2890 N 1.09742 0.27600 0.41710
 C2891 C 1.08895 0.29417 0.42697
 C2892 C 1.08273 0.31240 0.41435
 C2893 C 1.08593 0.31151 0.39158
 C2894 C 1.09487 0.29282 0.38186
 H2895 H 1.11884 0.22676 0.33791
 H2896 H 1.13241 0.20759 0.40470
 H2897 H 1.08675 0.29423 0.44460
 H2898 H 1.08181 0.32544 0.38132
 H2899 H 1.10304 0.26072 0.35110
 H2900 H 1.09749 0.29304 0.36435
 C2901 C 0.61150 0.75319 0.38703
 C2902 C 0.63402 0.75021 0.38257
 C2903 C 0.64142 0.73005 0.37465
 C2904 C 0.62654 0.71289 0.37077
 C2905 C 0.60414 0.71666 0.37471
 N2906 N 0.59732 0.73636 0.38275
 C2907 C 0.60258 0.77392 0.39634
 N2908 N 0.58035 0.77681 0.39681
 C2909 C 0.57078 0.79506 0.40545
 C2910 C 0.58378 0.81184 0.41449
 C2911 C 0.60671 0.80925 0.41414
 C2912 C 0.61613 0.79038 0.40529
 H2913 H 0.65879 0.72792 0.37135
 H2914 H 0.59214 0.70381 0.37192
 H2915 H 0.55302 0.79624 0.40556
 H2916 H 0.61743 0.82189 0.42062
 H2917 H 0.64598 0.76312 0.38491
 H2918 H 0.63380 0.78887 0.40589
 C2919 C 0.60989 0.25306 0.88700
 C2920 C 0.61545 0.25071 0.86470
 C2921 C 0.62412 0.23089 0.85720
 C2922 C 0.62760 0.21342 0.87178
 C2923 C 0.62239 0.21654 0.89399
 N2924 N 0.61372 0.23593 0.90090
 C2925 C 0.60012 0.27353 0.89604
 N2926 N 0.59907 0.27602 0.91824
 C2927 C 0.59024 0.29412 0.92791
 C2928 C 0.58164 0.31121 0.91503
 C2929 C 0.58246 0.30896 0.89212
 C2930 C 0.59148 0.29020 0.88259
 H2931 H 0.62837 0.22929 0.84001
 H2932 H 0.62481 0.20344 0.90576
 H2933 H 0.58972 0.29500 0.94564
 H2934 H 0.57631 0.32181 0.88149
 H2935 H 0.61351 0.26391 0.85303
 H2936 H 0.59132 0.28896 0.86493
 C2937 C 0.89369 0.74575 1.10043
 C2938 C 0.88653 0.72842 1.08689
 C2939 C 0.87823 0.70923 1.09636
 C2940 C 0.87701 0.70710 1.11925
 C2941 C 0.88444 0.72465 1.13220
 N2942 N 0.89239 0.74320 1.12261
 C2943 C 0.90237 0.76690 1.09173
 N2944 N 0.90844 0.78268 1.10640
 C2945 C 0.91624 0.80266 1.10014
 C2946 C 0.91822 0.80790 1.07781
 C2947 C 0.91222 0.79192 1.06234
 C2948 C 0.90435 0.77147 1.06916
 H2949 H 0.87294 0.69596 1.08575
 H2950 H 0.88358 0.72383 1.14992
 H2951 H 0.92045 0.81457 1.11264
 H2952 H 0.91378 0.79517 1.04494
 H2953 H 0.88714 0.72932 1.06922
 H2954 H 0.89994 0.75970 1.05668
 C2955 C 0.88664 0.25224 0.60667
 C2956 C 0.86412 0.24701 0.60596
 C2957 C 0.85678 0.22708 0.61454
 C2958 C 0.87172 0.21205 0.62359
 C2959 C 0.89413 0.21769 0.62364
 N2960 N 0.90089 0.23731 0.61532
 C2961 C 0.89557 0.27328 0.59807
 N2962 N 0.91772 0.27526 0.59523
 C2963 C 0.92725 0.29393 0.58740
 C2964 C 0.91423 0.31205 0.58171
 C2965 C 0.89143 0.31055 0.58478
 C2966 C 0.88206 0.29135 0.59305
 H2967 H 0.83931 0.22360 0.61435
 H2968 H 0.90630 0.20647 0.63011
 H2969 H 0.94492 0.29446 0.58527
 H2970 H 0.88087 0.32438 0.58107
 H2971 H 0.85210 0.25788 0.59876
 H2972 H 0.86450 0.29108 0.59568
 C2973 C 0.39710 0.74577 0.60239
 C2974 C 0.41057 0.73004 0.61263
 C2975 C 0.40115 0.71114 0.62159
 C2976 C 0.37834 0.70780 0.62062
 C2977 C 0.36546 0.72380 0.61016
 N2978 N 0.37500 0.74209 0.60156
 C2979 C 0.40580 0.76671 0.59328
 N2980 N 0.39124 0.78286 0.58798
 C2981 C 0.39770 0.80277 0.58013
 C2982 C 0.42011 0.80751 0.57741
 C2983 C 0.43543 0.79104 0.58236
 C2984 C 0.42840 0.77063 0.59012
 H2985 H 0.41176 0.69914 0.62931
 H2986 H 0.34777 0.72208 0.60928
 H2987 H 0.38534 0.81505 0.57658
 H2988 H 0.45287 0.79392 0.58008
 H2989 H 0.42812 0.73223 0.61425
 H2990 H 0.44069 0.75827 0.59339
 C2991 C 0.38725 0.24951 1.10523
 C2992 C 0.36491 0.24371 1.10369
 C2993 C 0.35774 0.22365 1.11213
 C2994 C 0.37270 0.20907 1.12185
 C2995 C 0.39495 0.21524 1.12266
 N2996 N 0.40154 0.23498 1.11447
 C2997 C 0.39593 0.27076 1.09691
 N2998 N 0.41808 0.27316 1.09439
 C2999 C 0.42737 0.29207 1.08689
 C3000 C 0.41411 0.31004 1.08126
 C3001 C 0.39130 0.30810 1.08403
 C3002 C 0.38216 0.28864 1.09194
 H3003 H 0.34039 0.21974 1.11132
 H3004 H 0.40715 0.20437 1.12966
 H3005 H 0.44505 0.29292 1.08499
 H3006 H 0.38054 0.32179 1.08036
 H3007 H 0.35294 0.25426 1.09596
 H3008 H 0.36458 0.28801 1.09439
 C3009 C 1.11271 1.10855 0.75232
 C3010 C 1.13411 1.10372 0.74530
 C3011 C 1.14178 1.11216 0.72548
 C3012 C 1.12824 1.12543 0.71211
 C3013 C 1.10674 1.12966 0.71986
 N3014 N 1.09968 1.12116 0.73928
 C3015 C 1.10368 1.09985 0.77321
 N3016 N 1.08146 1.09835 0.77573
 C3017 C 1.07200 1.09027 0.79430
 C3018 C 1.08514 1.08297 0.81176
 C3019 C 1.10805 1.08476 0.80970
 C3020 C 1.11736 1.09326 0.79059
 H3021 H 1.15871 1.10878 0.72127
 H3022 H 1.09508 1.13895 0.71025
 H3023 H 1.05426 1.08919 0.79524
 H3024 H 1.11877 1.07990 0.82302
 H3025 H 1.14494 1.09332 0.75478
 H3026 H 1.13504 1.09492 0.78976
 C3027 C 1.10408 0.60349 0.24648
 C3028 C 1.11762 0.59097 0.23270
 C3029 C 1.12635 0.60038 0.21375
 C3030 C 1.12188 0.62246 0.20819
 C3031 C 1.10791 0.63427 0.22247
 N3032 N 1.09978 0.62471 0.24096
 C3033 C 1.09522 0.59472 0.26740
 N3034 N 1.08928 0.60914 0.28342
 C3035 C 1.08158 0.60245 0.30328
 C3036 C 1.07956 0.57997 0.30805
 C3037 C 1.08517 0.56480 0.29165
 C3038 C 1.09288 0.57207 0.27132
 H3039 H 1.13612 0.58991 0.20325
 H3040 H 1.10425 0.65142 0.21978
 H3041 H 1.07753 0.61472 0.31548
 H3042 H 1.08338 0.54732 0.29447
 H3043 H 1.12193 0.57419 0.23659
 H3044 H 1.09665 0.55999 0.25888
 C3045 C 0.60397 1.10134 0.24566
 C3046 C 0.60850 1.08791 0.22741
 C3047 C 0.61721 1.09724 0.20836
 C3048 C 0.62122 1.11991 0.20723
 C3049 C 0.61603 1.13283 0.22556
 N3050 N 0.60777 1.12335 0.24402
 C3051 C 0.59532 1.09262 0.26678
 N3052 N 0.58879 1.10725 0.28239
 C3053 C 0.58121 1.10091 0.30241
 C3054 C 0.57998 1.07853 0.30786
 C3055 C 0.58655 1.06312 0.29205
 C3056 C 0.59427 1.07003 0.27160
 H3057 H 0.62064 1.08675 0.19442
 H3058 H 0.61899 1.15037 0.22543
 H3059 H 0.57664 1.11341 0.31418
 H3060 H 0.58567 1.04568 0.29545
 H3061 H 0.60533 1.07045 0.22749
 H3062 H 0.59958 1.05764 0.26010
 C3063 C 0.60235 0.60002 0.74590
 C3064 C 0.61037 0.58660 0.72887
 C3065 C 0.61895 0.59626 0.70991
 C3066 C 0.61964 0.61920 0.70774
 C3067 C 0.61121 0.63200 0.72494
 N3068 N 0.60303 0.62224 0.74327
 C3069 C 0.59381 0.59120 0.76702
 N3070 N 0.58845 0.60581 0.78310
 C3071 C 0.58099 0.59946 0.80314
 C3072 C 0.57866 0.57708 0.80814
 C3073 C 0.58387 0.56167 0.79184
 C3074 C 0.59134 0.56859 0.77129
 H3075 H 0.62507 0.58576 0.69693
 H3076 H 0.61168 0.64975 0.72415
 H3077 H 0.57735 0.61191 0.81528
 H3078 H 0.58197 0.54424 0.79494
 H3079 H 0.61045 0.56891 0.72997
 H3080 H 0.59500 0.55620 0.75918
 C3081 C 0.88578 0.89086 0.75258
 C3082 C 0.86316 0.88724 0.74918
 C3083 C 0.85589 0.87878 0.72920
 C3084 C 0.87098 0.87363 0.71258
 C3085 C 0.89342 0.87699 0.71671
 N3086 N 0.90011 0.88547 0.73624
 C3087 C 0.89475 0.90033 0.77323
 N3088 N 0.91699 0.90102 0.77591
 C3089 C 0.92668 0.90958 0.79412
 C3090 C 0.91379 0.91828 0.81112
 C3091 C 0.89084 0.91777 0.80875
 C3092 C 0.88128 0.90897 0.78991
 H3093 H 0.83846 0.87604 0.72680
 H3094 H 0.90559 0.87330 0.70428
 H3095 H 0.94445 0.90983 0.79512
 H3096 H 0.88020 0.92397 0.82158
 H3097 H 0.85098 0.89064 0.76161
 H3098 H 0.86359 0.90926 0.78870
 C3099 C 0.88589 0.38826 0.25407
 C3100 C 0.86335 0.38381 0.25116
 C3101 C 0.85594 0.37539 0.23121
 C3102 C 0.87082 0.37104 0.21419
 C3103 C 0.89323 0.37501 0.21791
 N3104 N 0.90006 0.38350 0.23740
 C3105 C 0.89489 0.39802 0.27456
 N3106 N 0.91714 0.39880 0.27719
 C3107 C 0.92683 0.40775 0.29521
 C3108 C 0.91393 0.41679 0.31205
 C3109 C 0.89098 0.41621 0.30969
 C3110 C 0.88143 0.40702 0.29104
 H3111 H 0.83855 0.37213 0.22912
 H3112 H 0.90524 0.37190 0.20517
 H3113 H 0.94459 0.40806 0.29619
 H3114 H 0.88034 0.42268 0.32238
 H3115 H 0.85138 0.38657 0.26394
 H3116 H 0.86373 0.40736 0.28974
 C3117 C 0.38621 0.89081 0.25319
 C3118 C 0.36380 0.88552 0.25073
 C3119 C 0.35628 0.87700 0.23087
 C3120 C 0.37093 0.87340 0.21348
 C3121 C 0.39323 0.87841 0.21668
 N3122 N 0.40016 0.88692 0.23612
 C3123 C 0.39532 0.90027 0.27376
 N3124 N 0.41757 0.90091 0.27638
 C3125 C 0.42730 0.90943 0.29459
 C3126 C 0.41444 0.91813 0.31164
 C3127 C 0.39149 0.91771 0.30926
 C3128 C 0.38190 0.90899 0.29041
 H3129 H 0.33902 0.87289 0.22921
 H3130 H 0.40506 0.87591 0.20365
 H3131 H 0.44507 0.90965 0.29556
 H3132 H 0.38087 0.92394 0.32209
 H3133 H 0.35208 0.88753 0.26388
 H3134 H 0.36420 0.90947 0.28907
 C3135 C 0.39358 0.39888 0.74702
 C3136 C 0.38164 0.41187 0.73221
 C3137 C 0.37316 0.40246 0.71313
 C3138 C 0.37625 0.37994 0.70848
 C3139 C 0.38837 0.36761 0.72395
 N3140 N 0.39639 0.37720 0.74243
 C3141 C 0.40258 0.40768 0.76790
 N3142 N 0.40829 0.39322 0.78398
 C3143 C 0.41634 0.39982 0.80372
 C3144 C 0.41897 0.42226 0.80831
 C3145 C 0.41354 0.43747 0.79189
 C3146 C 0.40549 0.43030 0.77168
 H3147 H 0.36480 0.41329 0.70183
 H3148 H 0.39075 0.35012 0.72210
 H3149 H 0.42021 0.38753 0.81596
 H3150 H 0.41576 0.45492 0.79460
 H3151 H 0.37850 0.42907 0.73525
 H3152 H 0.40193 0.44244 0.75924
 C3153 C 1.10423 0.89714 1.25354
 C3154 C 1.11673 0.91031 1.26773
 C3155 C 1.12569 0.90121 1.28672
 C3156 C 1.12252 0.87881 1.29191
 C3157 C 1.10989 0.86625 1.27700
 N3158 N 1.10141 0.87555 1.25858
 C3159 C 1.09471 0.90566 1.23279
 N3160 N 1.08879 0.89105 1.21692
 C3161 C 1.08044 0.89747 1.19724
 C3162 C 1.07778 0.91987 1.19250
 C3163 C 1.08329 0.93521 1.20877
 C3164 C 1.09161 0.92822 1.22892
 H3165 H 1.13446 0.91219 1.29758
 H3166 H 1.10743 0.84882 1.27925
 H3167 H 1.07645 0.88509 1.18512
 H3168 H 1.08104 0.95264 1.20594
 H3169 H 1.11994 0.92743 1.26426
 H3170 H 1.09529 0.94046 1.24123
 C3171 C 1.11236 0.38891 0.74611
 C3172 C 1.13504 0.38864 0.75067
 C3173 C 1.14248 0.38046 0.77069
 C3174 C 1.12753 0.37271 0.78645
 C3175 C 1.10502 0.37327 0.78133
 N3176 N 1.09815 0.38127 0.76165
 C3177 C 1.10321 0.39773 0.72526
 N3178 N 1.08104 0.40075 0.72369
 C3179 C 1.07131 0.40906 0.70539
 C3180 C 1.08411 0.41517 0.68724
 C3181 C 1.10690 0.41191 0.68829
 C3182 C 1.11648 0.40311 0.70710
 H3183 H 1.16001 0.38009 0.77377
 H3184 H 1.09286 0.36774 0.79307
 H3185 H 1.05365 0.41131 0.70521
 H3186 H 1.11730 0.41595 0.67441
 H3187 H 1.14713 0.39486 0.73927
 H3188 H 1.13403 0.40050 0.70701
 C3189 C 0.61170 0.88643 0.74546
 C3190 C 0.63395 0.88047 0.74748
 C3191 C 0.64171 0.87227 0.76737
 C3192 C 0.62740 0.86960 0.78520
 C3193 C 0.60516 0.87498 0.78237
 N3194 N 0.59801 0.88326 0.76291
 C3195 C 0.60256 0.89610 0.72502
 N3196 N 0.58030 0.89724 0.72264
 C3197 C 0.57061 0.90619 0.70462
 C3198 C 0.58352 0.91486 0.68757
 C3199 C 0.60648 0.91388 0.68969
 C3200 C 0.61603 0.90473 0.70834
 H3201 H 0.65889 0.86783 0.76877
 H3202 H 0.59360 0.87311 0.79576
 H3203 H 0.55284 0.90681 0.70381
 H3204 H 0.61713 0.92007 0.67685
 H3205 H 0.64541 0.88183 0.73400
 H3206 H 0.63374 0.90486 0.70954
 C3207 C 0.60154 0.39779 1.25457
 C3208 C 0.61370 0.41116 1.26885
 C3209 C 0.62256 0.40224 1.28796
 C3210 C 0.61969 0.37980 1.29316
 C3211 C 0.60718 0.36708 1.27830
 N3212 N 0.59881 0.37621 1.25973
 C3213 C 0.59242 0.40611 1.23356
 N3214 N 0.58700 0.39136 1.21763
 C3215 C 0.57917 0.39762 1.19769
 C3216 C 0.57657 0.41999 1.19272
 C3217 C 0.58159 0.43546 1.20901
 C3218 C 0.58934 0.42864 1.22944
 H3219 H 0.63110 0.41337 1.29884
 H3220 H 0.60484 0.34964 1.28066
 H3221 H 0.57553 0.38515 1.18556
 H3222 H 0.57934 0.45286 1.20600
 H3223 H 0.61680 0.42829 1.26534
 H3224 H 0.59263 0.44098 1.24175
 C3225 C 0.89638 1.10187 1.25449
 C3226 C 0.88444 1.08872 1.26920
 C3227 C 0.87586 1.09794 1.28831
 C3228 C 0.87882 1.12046 1.29311
 C3229 C 0.89103 1.13296 1.27779
 N3230 N 0.89913 1.12353 1.25924
 C3231 C 0.90533 1.09326 1.23351
 N3232 N 0.91099 1.10784 1.21749
 C3233 C 0.91886 1.10138 1.19762
 C3234 C 0.92128 1.07897 1.19281
 C3235 C 0.91593 1.06364 1.20917
 C3236 C 0.90812 1.07067 1.22952
 H3237 H 0.86751 1.08698 1.29953
 H3238 H 0.89337 1.15044 1.27978
 H3239 H 0.92271 1.11375 1.18544
 H3240 H 0.91801 1.04621 1.20628
 H3241 H 0.88133 1.07153 1.26605
 H3242 H 0.90461 1.05842 1.24188
 C3243 C 0.89742 0.60159 0.75447
 C3244 C 0.89282 0.58838 0.77289
 C3245 C 0.88388 0.59791 0.79172
 C3246 C 0.87972 0.62056 0.79247
 C3247 C 0.88508 0.63326 0.77402
 N3248 N 0.89353 0.62359 0.75578
 C3249 C 0.90613 0.59262 0.73351
 N3250 N 0.91288 0.60705 0.71779
 C3251 C 0.92044 0.60049 0.69785
 C3252 C 0.92142 0.57805 0.69259
 C3253 C 0.91462 0.56283 0.70852
 C3254 C 0.90693 0.56998 0.72889
 H3255 H 0.88033 0.58759 0.80577
 H3256 H 0.88201 0.65078 0.77385
 H3257 H 0.92519 0.61285 0.68599
 H3258 H 0.91527 0.54535 0.70526
 H3259 H 0.89607 0.57095 0.77308
 H3260 H 0.90140 0.55774 0.74048
 C3261 C 0.39621 1.10114 0.75427
 C3262 C 0.39089 1.08766 0.77230
 C3263 C 0.38218 1.09706 0.79130
 C3264 C 0.37895 1.11983 0.79263
 C3265 C 0.38489 1.13277 0.77452
 N3266 N 0.39313 1.12325 0.75610
 C3267 C 0.40495 1.09238 0.73322
 N3268 N 0.41203 1.10696 0.71777
 C3269 C 0.41978 1.10059 0.69784
 C3270 C 0.42062 1.07822 0.69229
 C3271 C 0.41350 1.06286 0.70794
 C3272 C 0.40561 1.06980 0.72830
 H3273 H 0.37818 1.08653 0.80508
 H3274 H 0.38255 1.15040 0.77480
 H3275 H 0.42479 1.11306 0.68620
 H3276 H 0.41407 1.04542 0.70447
 H3277 H 0.39343 1.07012 0.77210
 H3278 H 0.39990 1.05743 0.73966
 C3279 C 0.39520 0.60205 1.25359
 C3280 C 0.38304 0.58904 1.26823
 C3281 C 0.37443 0.59838 1.28728
 C3282 C 0.37763 0.62087 1.29206
 C3283 C 0.38999 0.63323 1.27676
 N3284 N 0.39811 0.62370 1.25829
 C3285 C 0.40427 0.59334 1.23271
 N3286 N 0.41004 0.60784 1.21667
 C3287 C 0.41810 0.60130 1.19691
 C3288 C 0.42064 0.57887 1.19226
 C3289 C 0.41519 0.56361 1.20865
 C3290 C 0.40715 0.57073 1.22888
 H3291 H 0.36588 0.58754 1.29847
 H3292 H 0.39247 0.65070 1.27871
 H3293 H 0.42200 0.61362 1.18470
 H3294 H 0.41735 0.54617 1.20588
 H3295 H 0.37980 0.57187 1.26507
 H3296 H 0.40355 0.55856 1.24129
 C3297 C 1.10354 1.25310 0.89579
 C3298 C 1.09077 1.26646 0.88206
 C3299 C 1.09992 1.28539 0.87289
 C3300 C 1.12196 1.29133 0.87718
 C3301 C 1.13409 1.27730 0.89113
 N3302 N 1.12478 1.25888 0.89970
 C3303 C 1.09501 1.23237 0.90538
 N3304 N 1.10962 1.21665 0.91170
 C3305 C 1.10314 1.19694 0.92003
 C3306 C 1.08069 1.19202 0.92227
 C3307 C 1.06536 1.20820 0.91640
 C3308 C 1.07240 1.22837 0.90807
 H3309 H 1.08927 1.29559 0.86302
 H3310 H 1.15129 1.28017 0.89452
 H3311 H 1.11553 1.18492 0.92429
 H3312 H 1.04789 1.20527 0.91835
 H3313 H 1.07396 1.26231 0.87800
 H3314 H 1.06019 1.24061 0.90404
 C3315 C 1.10234 0.75486 0.39603
 C3316 C 1.08929 0.76905 0.38343
 C3317 C 1.09849 0.78810 0.37457
 C3318 C 1.12087 0.79333 0.37796
 C3319 C 1.13326 0.77849 0.39079
 N3320 N 1.12388 0.75999 0.39913
 C3321 C 1.09376 0.73397 0.40529
 N3322 N 1.10836 0.71806 0.41115
 C3323 C 1.10190 0.69824 0.41924
 C3324 C 1.07946 0.69339 0.42169
 C3325 C 1.06412 0.70969 0.41622
 C3326 C 1.07115 0.72998 0.40816
 H3327 H 1.08762 0.79893 0.36565
 H3328 H 1.15067 0.78080 0.39347
 H3329 H 1.11428 0.68611 0.42319
 H3330 H 1.04667 0.70679 0.41832
 H3331 H 1.07221 0.76551 0.38001
 H3332 H 1.05892 0.74231 0.40450
 C3333 C 0.60423 1.25554 0.39921
 C3334 C 0.61058 1.27324 0.41267
 C3335 C 0.61877 1.29243 0.40314
 C3336 C 0.62061 1.29425 0.38027
 C3337 C 0.61375 1.27643 0.36738
 N3338 N 0.60597 1.25783 0.37703
 C3339 C 0.59599 1.23425 0.40804
 N3340 N 0.58998 1.21835 0.39348
 C3341 C 0.58264 1.19823 0.39987
 C3342 C 0.58107 1.19297 0.42224
 C3343 C 0.58708 1.20906 0.43759
 C3344 C 0.59452 1.22963 0.43064
 H3345 H 0.62356 1.30594 0.41368
 H3346 H 0.61505 1.27705 0.34967
 H3347 H 0.57844 1.18625 0.38743
 H3348 H 0.58586 1.20580 0.45503
 H3349 H 0.60942 1.27262 0.43032
 H3350 H 0.59905 1.24142 0.44305
 C3351 C 0.60408 0.75369 0.89898
 C3352 C 0.61100 0.77143 0.91211
 C3353 C 0.61969 0.79023 0.90219
 C3354 C 0.62143 0.79156 0.87927
 C3355 C 0.61398 0.77372 0.86675
 N3356 N 0.60574 0.75555 0.87676
 C3357 C 0.59545 0.73271 0.90810
 N3358 N 0.58918 0.71676 0.89372
 C3359 C 0.58159 0.69682 0.90030
 C3360 C 0.58004 0.69180 0.92272
 C3361 C 0.58629 0.70795 0.93792
 C3362 C 0.59396 0.72837 0.93075
 H3363 H 0.62501 0.80376 0.91244
 H3364 H 0.61524 0.77393 0.84903
 H3365 H 0.57723 0.68478 0.88799
 H3366 H 0.58510 0.70484 0.95538
 H3367 H 0.60997 0.77109 0.92978
 H3368 H 0.59869 0.74025 0.94300
 C3369 C 0.89212 1.25138 1.10562
 C3370 C 0.87106 1.25861 1.09979
 C3371 C 0.86320 1.27845 1.10796
 C3372 C 0.87622 1.29164 1.12192
 C3373 C 0.89761 1.28392 1.12674
 N3374 N 0.90483 1.26441 1.11858
 C3375 C 0.90090 1.23005 1.09785
 N3376 N 0.92307 1.22713 1.09651
 C3377 C 0.93216 1.20804 1.08922
 C3378 C 0.91865 1.19051 1.08264
 C3379 C 0.89580 1.19300 1.08445
 C3380 C 0.88689 1.21260 1.09210
 H3381 H 0.84640 1.28264 1.10398
 H3382 H 0.90895 1.29349 1.13648
 H3383 H 0.94988 1.20675 1.08813
 H3384 H 0.88481 1.17966 1.08016
 H3385 H 0.86059 1.24914 1.08900
 H3386 H 0.86922 1.21381 1.09377
 C3387 C 0.89860 0.75436 0.60407
 C3388 C 0.91192 0.77072 0.61357
 C3389 C 0.90224 0.78968 0.62208
 C3390 C 0.87935 0.79248 0.62135
 C3391 C 0.86665 0.77586 0.61161
 N3392 N 0.87643 0.75753 0.60346
 C3393 C 0.90751 0.73336 0.59532
 N3394 N 0.89299 0.71726 0.58965
 C3395 C 0.89950 0.69738 0.58187
 C3396 C 0.92194 0.69260 0.57953
 C3397 C 0.93724 0.70895 0.58503
 C3398 C 0.93016 0.72933 0.59279
 H3399 H 0.91271 0.80217 0.62924
 H3400 H 0.84892 0.77714 0.61095
 H3401 H 0.88714 0.68518 0.57797
 H3402 H 0.95471 0.70603 0.58310
 H3403 H 0.92953 0.76904 0.61488
 H3404 H 0.94246 0.74157 0.59651
 C3405 C 0.39795 1.25403 0.60720
 C3406 C 0.41068 1.26853 0.61980
 C3407 C 0.40119 1.28759 0.62825
 C3408 C 0.37882 1.29253 0.62447
 C3409 C 0.36673 1.27736 0.61169
 N3410 N 0.37641 1.25888 0.60373
 C3411 C 0.40688 1.23319 0.59819
 N3412 N 0.39249 1.21724 0.59181
 C3413 C 0.39922 1.19757 0.58368
 C3414 C 0.42173 1.19290 0.58165
 C3415 C 0.43688 1.20918 0.58778
 C3416 C 0.42957 1.22933 0.59591
 H3417 H 0.41186 1.29867 0.63713
 H3418 H 0.34935 1.27944 0.60873
 H3419 H 0.38698 1.18544 0.57925
 H3420 H 0.45438 1.20642 0.58604
 H3421 H 0.42774 1.26526 0.62349
 H3422 H 0.44168 1.24167 0.60000
 C3423 C 0.39925 0.75449 1.10501
 C3424 C 0.41192 0.76909 1.11758
 C3425 C 0.40218 0.78787 1.12642
 C3426 C 0.37967 0.79241 1.12297
 C3427 C 0.36774 0.77723 1.11008
 N3428 N 0.37762 0.75904 1.10181
 C3429 C 0.40816 0.73372 1.09590
 N3430 N 0.39369 0.71788 1.08948
 C3431 C 0.40027 0.69819 1.08133
 C3432 C 0.42273 0.69337 1.07932
 C3433 C 0.43800 0.70955 1.08547
 C3434 C 0.43083 0.72974 1.09364
 H3435 H 0.41268 0.79901 1.13544
 H3436 H 0.35027 0.77895 1.10738
 H3437 H 0.38793 0.68614 1.07693
 H3438 H 0.45548 0.70664 1.08377
 H3439 H 0.42908 0.76606 1.12101
 H3440 H 0.44300 0.74198 1.09784
 C3441 C 0.88553 0.75360 0.88879
 C3442 C 0.86296 0.75013 0.88494
 C3443 C 0.85580 0.72999 0.87668
 C3444 C 0.87094 0.71330 0.87196
 C3445 C 0.89334 0.71752 0.87549
 N3446 N 0.89993 0.73720 0.88378
 C3447 C 0.89437 0.77439 0.89815
 N3448 N 0.91659 0.77722 0.89891
 C3449 C 0.92616 0.79553 0.90743
 C3450 C 0.91314 0.81251 0.91603
 C3451 C 0.89021 0.80999 0.91543
 C3452 C 0.88078 0.79104 0.90667
 H3453 H 0.83840 0.72752 0.87378
 H3454 H 0.90555 0.70505 0.87211
 H3455 H 0.94392 0.79664 0.90776
 H3456 H 0.87948 0.82278 0.92156
 H3457 H 0.85076 0.76261 0.88800
 H3458 H 0.86309 0.78969 0.90692
 C3459 C 0.89832 0.24625 0.39585
 C3460 C 0.91208 0.22960 0.38759
 C3461 C 0.90283 0.21050 0.37890
 C3462 C 0.87992 0.20781 0.37823
 C3463 C 0.86675 0.22475 0.38664
 N3464 N 0.87613 0.24322 0.39503
 C3465 C 0.90685 0.26732 0.40491
 N3466 N 0.89211 0.28333 0.41018
 C3467 C 0.89831 0.30328 0.41811
 C3468 C 0.92065 0.30823 0.42099
 C3469 C 0.93616 0.29195 0.41601
 C3470 C 0.92940 0.27151 0.40810
 H3471 H 0.91365 0.19775 0.37284
 H3472 H 0.84900 0.22355 0.38621
 H3473 H 0.88580 0.31542 0.42163
 H3474 H 0.95356 0.29499 0.41835
 H3475 H 0.92977 0.23106 0.38749
 H3476 H 0.94189 0.25941 0.40469
 C3477 C 0.39792 0.74687 0.39378
 C3478 C 0.41097 0.73248 0.38139
 C3479 C 0.40174 0.71334 0.37277
 C3480 C 0.37934 0.70822 0.37620
 C3481 C 0.36692 0.72332 0.38873
 N3482 N 0.37634 0.74187 0.39686
 C3483 C 0.40654 0.76776 0.40295
 N3484 N 0.39195 0.78367 0.40889
 C3485 C 0.39842 0.80344 0.41704
 C3486 C 0.42086 0.80825 0.41952
 C3487 C 0.43619 0.79198 0.41393
 C3488 C 0.42915 0.77174 0.40578
 H3489 H 0.41261 0.70235 0.36404
 H3490 H 0.34949 0.72112 0.39137
 H3491 H 0.38604 0.81555 0.42106
 H3492 H 0.45364 0.79486 0.41604
 H3493 H 0.42808 0.73590 0.37799
 H3494 H 0.44138 0.75943 0.40206
 C3495 C 0.39616 0.24661 0.89460
 C3496 C 0.40931 0.23249 0.88203
 C3497 C 0.40027 0.21332 0.87331
 C3498 C 0.37795 0.20789 0.87678
 C3499 C 0.36540 0.22273 0.88949
 N3500 N 0.37464 0.24134 0.89774
 C3501 C 0.40467 0.26750 0.90390
 N3502 N 0.39004 0.28340 0.90977
 C3503 C 0.39649 0.30318 0.91794
 C3504 C 0.41892 0.30801 0.92047
 C3505 C 0.43427 0.29172 0.91499
 C3506 C 0.42726 0.27147 0.90686
 H3507 H 0.41126 0.20253 0.86448
 H3508 H 0.34802 0.22028 0.89220
 H3509 H 0.38410 0.31530 0.92191
 H3510 H 0.45171 0.29461 0.91716
 H3511 H 0.42636 0.23614 0.87857
 H3512 H 0.43951 0.25915 0.90322
 C3513 C 1.10167 0.74486 1.10189
 C3514 C 1.11490 0.73091 1.08922
 C3515 C 1.12403 0.71218 1.09872
 C3516 C 1.12025 0.70703 1.12101
 C3517 C 1.10657 0.72148 1.13295
 N3518 N 1.09804 0.73972 1.12331
 C3519 C 1.09244 0.76562 1.09310
 N3520 N 1.08655 0.78169 1.10749
 C3521 C 1.07856 0.80144 1.10082
 C3522 C 1.07621 0.80606 1.07837
 C3523 C 1.08173 0.78959 1.06324
 C3524 C 1.08972 0.76937 1.07049
 H3525 H 1.13357 0.70155 1.08818
 H3526 H 1.10347 0.71915 1.15025
 H3527 H 1.07460 0.81370 1.11306
 H3528 H 1.07971 0.79230 1.04579
 H3529 H 1.11868 0.73449 1.07226
 H3530 H 1.09345 0.75688 1.05844
 C3531 C 1.11169 0.25289 0.61030
 C3532 C 1.13425 0.24793 0.60922
 C3533 C 1.14188 0.22804 0.61756
 C3534 C 1.12722 0.21276 0.62674
 C3535 C 1.10481 0.21826 0.62748
 N3536 N 1.09773 0.23783 0.61931
 C3537 C 1.10245 0.27365 0.60138
 N3538 N 1.08029 0.27516 0.59836
 C3539 C 1.07056 0.29343 0.58993
 C3540 C 1.08337 0.31159 0.58373
 C3541 C 1.10615 0.31059 0.58703
 C3542 C 1.11573 0.29182 0.59596
 H3543 H 1.15935 0.22468 0.61688
 H3544 H 1.09286 0.20689 0.63416
 H3545 H 1.05290 0.29360 0.58769
 H3546 H 1.11654 0.32448 0.58296
 H3547 H 1.14604 0.25891 0.60176
 H3548 H 1.13326 0.29193 0.59873
 C3549 C 0.60763 0.75194 0.61251
 C3550 C 0.60618 0.74678 0.63496
 C3551 C 0.61460 0.72692 0.64260
 C3552 C 0.62423 0.71190 0.62803
 C3553 C 0.62517 0.71753 0.60570
 N3554 N 0.61695 0.73707 0.59863
 C3555 C 0.59890 0.77278 0.60329
 N3556 N 0.59602 0.77440 0.58117
 C3557 C 0.58788 0.79280 0.57145
 C3558 C 0.58189 0.81099 0.58423
 C3559 C 0.58507 0.80987 0.60698
 C3560 C 0.59368 0.79096 0.61655
 H3561 H 0.61372 0.72343 0.66001
 H3562 H 0.63215 0.70633 0.59381
 H3563 H 0.58571 0.79305 0.55382
 H3564 H 0.58116 0.82379 0.61736
 H3565 H 0.59842 0.75761 0.64665
 H3566 H 0.59639 0.79095 0.63406
 C3567 C 0.61050 0.25071 1.10938
 C3568 C 0.63232 0.24447 1.10535
 C3569 C 0.64011 0.22455 1.11344
 C3570 C 0.62630 0.21030 1.12551
 C3571 C 0.60442 0.21731 1.12903
 N3572 N 0.59725 0.23685 1.12090
 C3573 C 0.60125 0.27158 1.10087
 N3574 N 0.57902 0.27356 1.09881
 C3575 C 0.56936 0.29201 1.09072
 C3576 C 0.58231 0.30988 1.08394
 C3577 C 0.60519 0.30840 1.08638
 C3578 C 0.61470 0.28943 1.09492
 H3579 H 0.65729 0.22092 1.11072
 H3580 H 0.59258 0.20704 1.13737
 H3581 H 0.55164 0.29254 1.08917
 H3582 H 0.61572 0.32206 1.08191
 H3583 H 0.64338 0.25460 1.09581
 H3584 H 0.63234 0.28905 1.09704
 C3585 C 1.25535 1.10051 0.89754
 C3586 C 1.27339 1.08715 0.89199
 C3587 C 1.29235 1.09669 0.88325
 C3588 C 1.29362 1.11950 0.88019
 C3589 C 1.27554 1.13234 0.88644
 N3590 N 1.25715 1.12266 0.89470
 C3591 C 1.23424 1.09158 0.90614
 N3592 N 1.21856 1.10605 0.91289
 C3593 C 1.19855 1.09954 0.92045
 C3594 C 1.19316 1.07713 0.92143
 C3595 C 1.20903 1.06186 0.91464
 C3596 C 1.22948 1.06895 0.90696
 H3597 H 1.30611 1.08624 0.87898
 H3598 H 1.27579 1.14998 0.88426
 H3599 H 1.18673 1.11193 0.92521
 H3600 H 1.20568 1.04440 0.91534
 H3601 H 1.27322 1.06957 0.89428
 H3602 H 1.24103 1.05664 0.90156
 C3603 C 1.25442 0.60468 0.39835
 C3604 C 1.27144 0.61266 0.41184
 C3605 C 1.29041 0.62141 0.40232
 C3606 C 1.29261 0.62236 0.37942
 C3607 C 1.27534 0.61418 0.36653
 N3608 N 1.25701 0.60576 0.37616
 C3609 C 1.23346 0.59557 0.40712
 N3610 N 1.21745 0.58983 0.39255
 C3611 C 1.19757 0.58182 0.39893
 C3612 C 1.19268 0.57933 0.42129
 C3613 C 1.20894 0.58485 0.43664
 C3614 C 1.22930 0.59287 0.42970
 H3615 H 1.30345 0.62729 0.41290
 H3616 H 1.27618 0.61483 0.34880
 H3617 H 1.18544 0.57792 0.38653
 H3618 H 1.20594 0.58285 0.45405
 H3619 H 1.27041 0.61243 0.42951
 H3620 H 1.24135 0.59679 0.44208
 C3621 C 0.75579 1.10122 0.39805
 C3622 C 0.77343 1.08772 0.39158
 C3623 C 0.79239 1.09720 0.38278
 C3624 C 0.79406 1.12007 0.38049
 C3625 C 0.77636 1.13302 0.38757
 N3626 N 0.75797 1.12341 0.39591
 C3627 C 0.73467 1.09241 0.40675
 N3628 N 0.71890 1.10699 0.41306
 C3629 C 0.69885 1.10060 0.42064
 C3630 C 0.69352 1.07820 0.42208
 C3631 C 0.70951 1.06283 0.41584
 C3632 C 0.73000 1.06978 0.40819
 H3633 H 0.80583 1.08663 0.37785
 H3634 H 0.77690 1.15073 0.38598
 H3635 H 0.68695 1.11305 0.42503
 H3636 H 0.70619 1.04537 0.41695
 H3637 H 0.77292 1.07007 0.39309
 H3638 H 0.74168 1.05736 0.40337
 C3639 C 0.75382 0.60112 0.89556
 C3640 C 0.77235 0.58802 0.89105
 C3641 C 0.79111 0.59761 0.88191
 C3642 C 0.79167 0.62021 0.87745
 C3643 C 0.77302 0.63278 0.88252
 N3644 N 0.75488 0.62306 0.89123
 C3645 C 0.73306 0.59213 0.90482
 N3646 N 0.71744 0.60655 0.91183
 C3647 C 0.69768 0.59995 0.91995
 C3648 C 0.69251 0.57750 0.92126
 C3649 C 0.70836 0.56230 0.91423
 C3650 C 0.72854 0.56948 0.90596
 H3651 H 0.80531 0.58741 0.87859
 H3652 H 0.77270 0.65025 0.87920
 H3653 H 0.68587 0.61228 0.92487
 H3654 H 0.70515 0.54481 0.91512
 H3655 H 0.77271 0.57066 0.89465
 H3656 H 0.74006 0.55727 0.90025
 C3657 C 1.24606 0.88531 1.10841
 C3658 C 1.25146 0.86287 1.10725
 C3659 C 1.27142 0.85555 1.11577
 C3660 C 1.28629 0.87044 1.12522
 C3661 C 1.28044 0.89275 1.12581
 N3662 N 1.26082 0.89949 1.11751
 C3663 C 1.22507 0.89423 1.09972
 N3664 N 1.22310 0.91638 1.09710
 C3665 C 1.20451 0.92591 1.08915
 C3666 C 1.18646 0.91290 1.08311
 C3667 C 1.18795 0.89009 1.08595
 C3668 C 1.20708 0.88071 1.09435
 H3669 H 1.27508 0.83816 1.11515
 H3670 H 1.29153 0.90488 1.13262
 H3671 H 1.20400 0.94358 1.08721
 H3672 H 1.17417 0.87953 1.08197
 H3673 H 1.24072 0.85093 1.09969
 H3674 H 1.20736 0.86314 1.09679
 C3675 C 1.25455 0.39753 0.60208
 C3676 C 1.27223 0.41108 0.60839
 C3677 C 1.29108 0.40171 0.61744
 C3678 C 1.29262 0.37888 0.62013
 C3679 C 1.27492 0.36584 0.61313
 N3680 N 1.25661 0.37536 0.60456
 C3681 C 1.23348 0.40630 0.59325
 N3682 N 1.21767 0.39171 0.58694
 C3683 C 1.19766 0.39811 0.57933
 C3684 C 1.19239 0.42051 0.57787
 C3685 C 1.20844 0.43587 0.58406
 C3686 C 1.22889 0.42892 0.59174
 H3687 H 1.30453 0.41233 0.62228
 H3688 H 1.27538 0.34816 0.61500
 H3689 H 1.18572 0.38566 0.57496
 H3690 H 1.20520 0.45333 0.58292
 H3691 H 1.27184 0.42871 0.60658
 H3692 H 1.24058 0.44136 0.59656
 C3693 C 0.75359 0.89712 0.60194
 C3694 C 0.76969 0.91064 0.61158
 C3695 C 0.78864 0.90122 0.62037
 C3696 C 0.79168 0.87837 0.61982
 C3697 C 0.77538 0.86546 0.60984
 N3698 N 0.75702 0.87500 0.60142
 C3699 C 0.73252 0.90582 0.59316
 N3700 N 0.71621 0.89127 0.58820
 C3701 C 0.69619 0.89770 0.58067
 C3702 C 0.69149 0.92009 0.57792
 C3703 C 0.70808 0.93541 0.58258
 C3704 C 0.72860 0.92840 0.59003
 H3705 H 0.80090 0.91185 0.62769
 H3706 H 0.77688 0.84776 0.60927
 H3707 H 0.68382 0.88534 0.57734
 H3708 H 0.70522 0.95282 0.58026
 H3709 H 0.76776 0.92821 0.61290
 H3710 H 0.74104 0.94069 0.59307
 C3711 C 0.75116 0.39516 1.10557
 C3712 C 0.76491 0.40843 1.11838
 C3713 C 0.78456 0.39985 1.12646
 C3714 C 0.79034 0.37787 1.12228
 C3715 C 0.77609 0.36528 1.10907
 N3716 N 0.75720 0.37414 1.10109
 C3717 C 0.72996 0.40343 1.09746
 N3718 N 0.72430 0.40044 1.07608
 C3719 C 0.70480 0.40762 1.06786
 C3720 C 0.68940 0.41813 1.08157
 C3721 C 0.69493 0.42083 1.10384
 C3722 C 0.71524 0.41381 1.11172
 H3723 H 0.79518 0.41051 1.13593
 H3724 H 0.77950 0.34820 1.10558
 H3725 H 0.70155 0.40535 1.05056
 H3726 H 0.68349 0.42805 1.11537
 H3727 H 0.76055 0.42530 1.12195
 H3728 H 0.71919 0.41595 1.12892
 C3729 C 0.74520 1.10233 1.10061
 C3730 C 0.72862 1.11108 1.08709
 C3731 C 0.70943 1.11937 1.09653
 C3732 C 0.70660 1.11914 1.11938
 C3733 C 0.72337 1.11001 1.13229
 N3734 N 0.74194 1.10209 1.12274
 C3735 C 0.76652 1.09410 1.09197
 N3736 N 0.78261 1.08894 1.10664
 C3737 C 0.80281 1.08173 1.10038
 C3738 C 0.80794 1.07949 1.07806
 C3739 C 0.79163 1.08448 1.06259
 C3740 C 0.77093 1.09165 1.06941
 H3741 H 0.69682 1.12604 1.08592
 H3742 H 0.72204 1.10973 1.15000
 H3743 H 0.81496 1.07820 1.11286
 H3744 H 0.79483 1.08260 1.04520
 H3745 H 0.73029 1.11202 1.06948
 H3746 H 0.75876 1.09502 1.05699
 C3747 C 0.75295 0.61084 0.61306
 C3748 C 0.74791 0.60967 0.63556
 C3749 C 0.72787 0.61774 0.64315
 C3750 C 0.71255 0.62675 0.62849
 C3751 C 0.71812 0.62753 0.60614
 N3752 N 0.73783 0.61963 0.59911
 C3753 C 0.77387 0.60224 0.60384
 N3754 N 0.77550 0.59938 0.58171
 C3755 C 0.79390 0.59123 0.57198
 C3756 C 0.81208 0.58515 0.58475
 C3757 C 0.81097 0.58832 0.60750
 C3758 C 0.79206 0.59697 0.61709
 H3759 H 0.72443 0.61703 0.66058
 H3760 H 0.70671 0.63406 0.59419
 H3761 H 0.79415 0.58907 0.55435
 H3762 H 0.82487 0.58433 0.61787
 H3763 H 0.75894 0.60236 0.64735
 H3764 H 0.79207 0.59962 0.63460
 C3765 C 0.24559 1.10383 0.60047
 C3766 C 0.22791 1.11061 0.58719
 C3767 C 0.20900 1.11921 0.59694
 C3768 C 0.20747 1.12097 0.61984
 C3769 C 0.22524 1.11364 0.63252
 N3770 N 0.24354 1.10550 0.62267
 C3771 C 0.26667 1.09530 0.59150
 N3772 N 0.28237 1.08867 0.60600
 C3773 C 0.30239 1.08118 0.59956
 C3774 C 0.30778 1.08016 0.57719
 C3775 C 0.29189 1.08677 0.56189
 C3776 C 0.27139 1.09434 0.56890
 H3777 H 0.19552 1.12442 0.58657
 H3778 H 0.22487 1.11490 0.65023
 H3779 H 0.31422 1.07652 0.61196
 H3780 H 0.29527 1.08600 0.54445
 H3781 H 0.22837 1.10949 0.56953
 H3782 H 0.25974 1.09944 0.55658
 C3783 C 0.25343 0.61228 1.11308
 C3784 C 0.25024 0.61647 1.13557
 C3785 C 0.23002 0.62438 1.14289
 C3786 C 0.21299 0.62846 1.12797
 C3787 C 0.21694 0.62468 1.10561
 N3788 N 0.23670 0.61669 1.09886
 C3789 C 0.27427 0.60315 1.10416
 N3790 N 0.27708 0.60253 1.08198
 C3791 C 0.29543 0.59410 1.07239
 C3792 C 0.31242 0.58544 1.08534
 C3793 C 0.30992 0.58595 1.10822
 C3794 C 0.29095 0.59461 1.11767
 H3795 H 0.22775 0.62754 1.16024
 H3796 H 0.20420 0.62761 1.09357
 H3797 H 0.29653 0.59384 1.05466
 H3798 H 0.32273 0.57977 1.11890
 H3799 H 0.26301 0.61397 1.14759
 H3800 H 0.28957 0.59419 1.13532
 C3801 C 0.75311 0.88965 0.88689
 C3802 C 0.75114 0.88357 0.86471
 C3803 C 0.73135 0.87490 0.85706
 C3804 C 0.71357 0.87191 0.87140
 C3805 C 0.71634 0.87756 0.89354
 N3806 N 0.73571 0.88624 0.90059
 C3807 C 0.77352 0.89950 0.89600
 N3808 N 0.77599 0.90047 0.91820
 C3809 C 0.79407 0.90938 0.92788
 C3810 C 0.81113 0.91812 0.91501
 C3811 C 0.80888 0.91740 0.89210
 C3812 C 0.79015 0.90831 0.88256
 H3813 H 0.73002 0.87027 0.83995
 H3814 H 0.70299 0.87549 0.90513
 H3815 H 0.79496 0.90983 0.94561
 H3816 H 0.82172 0.92368 0.88148
 H3817 H 0.76461 0.88512 0.85326
 H3818 H 0.78886 0.90858 0.86490
 C3819 C 0.74466 0.40082 0.39584
 C3820 C 0.72759 0.41436 0.38810
 C3821 C 0.70850 0.40487 0.37962
 C3822 C 0.70622 0.38195 0.37872
 C3823 C 0.72351 0.36899 0.38675
 N3824 N 0.74197 0.37861 0.39488
 C3825 C 0.76578 0.40956 0.40456
 N3826 N 0.78181 0.39494 0.41004
 C3827 C 0.80181 0.40127 0.41773
 C3828 C 0.80679 0.42365 0.42017
 C3829 C 0.79053 0.43906 0.41486
 C3830 C 0.77004 0.43216 0.40715
 H3831 H 0.69545 0.41550 0.37387
 H3832 H 0.72259 0.35125 0.38615
 H3833 H 0.81394 0.38883 0.42147
 H3834 H 0.79360 0.45648 0.41683
 H3835 H 0.72869 0.43205 0.38825
 H3836 H 0.75799 0.44459 0.40341
 C3837 C 0.24546 0.89747 0.39802
 C3838 C 0.22780 0.89093 0.41150
 C3839 C 0.20897 0.88182 0.40204
 C3840 C 0.20747 0.87933 0.37922
 C3841 C 0.22524 0.88637 0.36630
 N3842 N 0.24348 0.89502 0.37588
 C3843 C 0.26636 0.90669 0.40681
 N3844 N 0.28194 0.91360 0.39225
 C3845 C 0.30181 0.92162 0.39864
 C3846 C 0.30717 0.92288 0.42099
 C3847 C 0.29133 0.91612 0.43634
 C3848 C 0.27102 0.90802 0.42939
 H3849 H 0.19547 0.87695 0.41258
 H3850 H 0.22483 0.88461 0.34863
 H3851 H 0.31359 0.92643 0.38621
 H3852 H 0.29465 0.91707 0.45377
 H3853 H 0.22814 0.89272 0.42911
 H3854 H 0.25951 0.90270 0.44179
 C3855 C 0.24479 0.39708 0.89811
 C3856 C 0.22663 0.39150 0.91136
 C3857 C 0.20794 0.38222 0.90178
 C3858 C 0.20709 0.37868 0.87907
 C3859 C 0.22534 0.38483 0.86637
 N3860 N 0.24342 0.39364 0.87607
 C3861 C 0.26558 0.40635 0.90703
 N3862 N 0.28127 0.41315 0.89256
 C3863 C 0.30110 0.42114 0.89906
 C3864 C 0.30629 0.42250 0.92145
 C3865 C 0.29034 0.41580 0.93671
 C3866 C 0.27007 0.40770 0.92964
 H3867 H 0.19406 0.37802 0.91211
 H3868 H 0.22544 0.38222 0.84880
 H3869 H 0.31298 0.42586 0.88668
 H3870 H 0.29355 0.41679 0.95416
 H3871 H 0.22650 0.39423 0.92885
 H3872 H 0.25847 0.40231 0.94194
   
