data_POSCAR
  _audit_creation_date              2014-09-24
  _audit_creation_method            'ToBaCCo'
  _symmetry_space_group_name_H-M    'P1'
  _symmetry_Int_Tables_number       1
  _symmetry_cell_setting            triclinic
  loop_
  _symmetry_equiv_pos_as_xyz
 x,y,z
_cell_length_a 45.2798
_cell_length_b 44.8336
_cell_length_c 46.1813
_cell_angle_alpha 89.900100
_cell_angle_beta 90.398700
_cell_angle_gamma 90.205800
loop_
  _atom_site_label
  _atom_site_type_symbol
  _atom_site_fract_x
  _atom_site_fract_y
  _atom_site_fract_z
C1 C 0.07671 0.02696 0.20657
 H2 H 0.06905 0.04219 0.22301
 C3 C 0.06400 0.02752 0.17878
 H4 H 0.04648 0.04321 0.17435
 C5 C 0.11013 -0.01058 0.19210
 H6 H 0.12887 -0.02461 0.19681
 C7 C 0.09823 -0.01074 0.16429
 H8 H 0.10754 -0.02555 0.14827
 N9 N 0.09902 0.00769 0.21280
 C10 C 0.10905 0.00105 0.30653
 H11 H 0.13293 0.00041 0.30611
 C12 C 0.09442 -0.00261 0.33264
 H13 H 0.10748 -0.00660 0.35194
 C14 C 0.06365 0.00497 0.28103
 H15 H 0.05183 0.00725 0.26075
 C16 C 0.04797 0.00162 0.30696
 H17 H 0.02405 0.00181 0.30652
 Zn18 Zn 0.11900 0.00754 0.24909
 N19 N 0.09371 0.00506 0.28146
 C20 C 0.13420 0.06381 0.27164
 N21 N 0.14157 0.04333 0.25127
 C22 C 0.16145 0.05000 0.23024
 C23 C 0.17423 0.07851 0.22877
 C24 C 0.14642 0.09239 0.27104
 C25 C 0.12427 -0.05265 0.24868
 C26 C 0.13661 -0.08093 0.25001
 C27 C 0.18424 -0.05815 0.25920
 C28 C 0.17092 -0.03000 0.25679
 N29 N 0.14143 -0.02791 0.25148
 H30 H 0.11774 0.05859 0.28768
 H31 H 0.16640 0.03359 0.21383
 H32 H 0.18910 0.08345 0.21119
 H33 H 0.13962 0.10849 0.28711
 H34 H 0.10078 -0.05027 0.24497
 H35 H 0.12220 -0.10009 0.24712
 H36 H 0.20779 -0.05894 0.26302
 H37 H 0.18401 -0.00993 0.25936
 C38 C 0.06342 -0.00176 0.33327
 C39 C 0.07481 0.00828 0.15723
 C40 C 0.16695 -0.08430 0.25555
 C41 C 0.16634 0.10034 0.24921
 C42 C 0.42580 0.01617 0.79195
 H43 H 0.42921 0.03267 0.77517
 C44 C 0.43924 0.01978 0.81907
 H45 H 0.45328 0.03898 0.82301
 C46 C 0.40265 -0.02848 0.80754
 H47 H 0.38795 -0.04698 0.80321
 C48 C 0.41550 -0.02568 0.83493
 H49 H 0.41125 -0.04280 0.85091
 N50 N 0.40799 -0.00774 0.78669
 C51 C 0.40037 -0.01688 0.69361
 H52 H 0.37671 -0.02031 0.69297
 C53 C 0.41632 -0.01695 0.66807
 H54 H 0.40477 -0.02099 0.64784
 C55 C 0.44396 -0.00807 0.72111
 H56 H 0.45452 -0.00475 0.74191
 C57 C 0.46092 -0.00798 0.69584
 H58 H 0.48454 -0.00430 0.69721
 Zn59 Zn 0.38787 -0.01021 0.75074
 N60 N 0.41413 -0.01168 0.71933
 C61 C 0.37101 0.04449 0.72587
 N62 N 0.36443 0.02467 0.74722
 C63 C 0.34451 0.03149 0.76810
 C64 C 0.33085 0.05950 0.76834
 C65 C 0.35786 0.07251 0.72521
 C66 C 0.38290 -0.07107 0.74907
 C67 C 0.37013 -0.09919 0.74616
 C68 C 0.32239 -0.07576 0.74108
 C69 C 0.33616 -0.04786 0.74438
 N70 N 0.36591 -0.04616 0.74849
 H71 H 0.38750 0.03926 0.70994
 H72 H 0.34019 0.01564 0.78526
 H73 H 0.31590 0.06455 0.78577
 H74 H 0.36402 0.08810 0.70833
 H75 H 0.40656 -0.06900 0.75183
 H76 H 0.38408 -0.11875 0.74712
 H77 H 0.29864 -0.07678 0.73850
 H78 H 0.32318 -0.02767 0.74351
 C79 C 0.44686 -0.01148 0.66889
 C80 C 0.43371 -0.00101 0.84111
 C81 C 0.33959 -0.10189 0.74197
 C82 C 0.33788 0.08066 0.74682
 C83 C 0.93286 0.51216 0.28985
 H84 H 0.93907 0.52639 0.27194
 C85 C 0.94642 0.51595 0.31700
 H86 H 0.96338 0.53289 0.31948
 C87 C 0.90248 0.47377 0.30850
 H88 H 0.88491 0.45773 0.30539
 C89 C 0.91506 0.47707 0.33601
 H90 H 0.90737 0.46231 0.35286
 N91 N 0.91137 0.49122 0.28606
 C92 C 0.89726 0.47894 0.19299
 H93 H 0.87352 0.47692 0.19457
 C94 C 0.91059 0.47733 0.16602
 H95 H 0.89687 0.47332 0.14714
 C96 C 0.94362 0.48608 0.21613
 H97 H 0.95631 0.48953 0.23576
 C98 C 0.95799 0.48463 0.18933
 H99 H 0.98176 0.48713 0.18844
 Zn100 Zn 0.88978 0.48860 0.25050
 N101 N 0.91365 0.48398 0.21727
 C102 C 0.87606 0.54364 0.22446
 N103 N 0.86824 0.52459 0.24610
 C104 C 0.84763 0.53240 0.26596
 C105 C 0.83397 0.56034 0.26442
 C106 C 0.86307 0.57168 0.22216
 C107 C 0.88041 0.42820 0.25270
 C108 C 0.86566 0.40095 0.25159
 C109 C 0.81953 0.42738 0.24637
 C110 C 0.83530 0.45439 0.24776
 N111 N 0.86521 0.45421 0.25098
 H112 H 0.89317 0.53764 0.20943
 H113 H 0.84241 0.51723 0.28345
 H114 H 0.81838 0.56631 0.28104
 H115 H 0.86999 0.58665 0.20504
 H116 H 0.90422 0.42873 0.25480
 H117 H 0.87832 0.38054 0.25315
 H118 H 0.79575 0.42801 0.24419
 H119 H 0.82370 0.47535 0.24593
 C120 C 0.94126 0.48116 0.16379
 C121 C 0.93717 0.49877 0.34086
 C122 C 0.83488 0.40015 0.24820
 C123 C 0.84179 0.58046 0.24224
 C124 C 0.56958 0.53354 0.71980
 H125 H 0.56663 0.55038 0.73627
 C126 C 0.55417 0.53569 0.69339
 H127 H 0.53910 0.55405 0.68977
 C128 C 0.59385 0.48998 0.70372
 H129 H 0.60997 0.47266 0.70713
 C130 C 0.57892 0.49120 0.67729
 H131 H 0.58299 0.47388 0.66154
 N132 N 0.58928 0.51109 0.72432
 C133 C 0.61389 0.50811 0.81625
 H134 H 0.63748 0.50895 0.81277
 C135 C 0.60302 0.50633 0.84430
 H136 H 0.61835 0.50584 0.86241
 C137 C 0.56537 0.50782 0.79661
 H138 H 0.55094 0.50845 0.77786
 C139 C 0.55347 0.50564 0.82449
 H140 H 0.52973 0.50518 0.82694
 Zn141 Zn 0.61491 0.51116 0.75727
 N142 N 0.59515 0.50912 0.79314
 C143 C 0.62987 0.56860 0.77595
 N144 N 0.63689 0.54736 0.75617
 C145 C 0.65613 0.55335 0.73438
 C146 C 0.66937 0.58159 0.73216
 C147 C 0.64234 0.59699 0.77443
 C148 C 0.62219 0.45079 0.75955
 C149 C 0.63567 0.42299 0.75856
 C150 C 0.68280 0.44770 0.75300
 C151 C 0.66825 0.47528 0.75373
 N152 N 0.63836 0.47620 0.75652
 H153 H 0.61363 0.56406 0.79238
 H154 H 0.66056 0.53649 0.71827
 H155 H 0.68399 0.58608 0.71424
 H156 H 0.63604 0.61364 0.79018
 H157 H 0.59850 0.45222 0.76208
 H158 H 0.62222 0.40304 0.76031
 H159 H 0.70646 0.44727 0.74992
 H160 H 0.68074 0.49576 0.75178
 C161 C 0.57254 0.50480 0.84876
 C162 C 0.55949 0.51483 0.67139
 C163 C 0.66627 0.42110 0.75522
 C164 C 0.66231 0.60389 0.75239
 C165 C 0.28437 0.08414 0.98655
 H166 H 0.26656 0.07620 0.97282
 C167 C 0.31200 0.07009 0.98587
 H168 H 0.31496 0.05122 0.97167
 C169 C 0.30272 0.11988 1.01987
 H170 H 0.29966 0.14010 1.03212
 C171 C 0.33041 0.10671 1.01983
 H172 H 0.34796 0.11653 1.03277
 N173 N 0.28017 0.10834 1.00377
 C174 C 0.18554 0.12813 1.00588
 H175 H 0.18875 0.15206 1.00545
 C176 C 0.15708 0.11645 1.00635
 H177 H 0.13840 0.13150 1.00623
 C178 C 0.20623 0.07964 1.00605
 H179 H 0.22550 0.06549 1.00593
 C180 C 0.17788 0.06689 1.00695
 H181 H 0.17562 0.04286 1.00689
 Zn182 Zn 0.24526 0.13158 1.00320
 N183 N 0.20939 0.10982 1.00504
 C184 C 0.22526 0.14666 0.94759
 N185 N 0.24584 0.15377 0.96805
 C186 C 0.26886 0.17221 0.96170
 C187 C 0.27210 0.18375 0.93360
 C188 C 0.22753 0.15772 0.91952
 C189 C 0.24734 0.13698 1.06143
 C190 C 0.24845 0.14952 1.08888
 C191 C 0.24351 0.19825 1.06686
 C192 C 0.24349 0.18461 1.03952
 N193 N 0.24541 0.15447 1.03747
 H194 H 0.20778 0.13106 0.95241
 H195 H 0.28545 0.17687 0.97807
 H196 H 0.29110 0.19756 0.92897
 H197 H 0.21117 0.15108 0.90354
 H198 H 0.24856 0.11301 1.05907
 H199 H 0.25044 0.13479 1.10743
 H200 H 0.24233 0.22229 1.06758
 H201 H 0.24185 0.19801 1.02007
 C202 C 0.15290 0.08556 1.00684
 C203 C 0.33546 0.08153 1.00279
 C204 C 0.24612 0.18054 1.09223
 C205 C 0.25140 0.17603 0.91192
 C206 C 0.70145 0.40550 0.98112
 H207 H 0.71790 0.41229 0.96553
 C208 C 0.67293 0.41771 0.97982
 H209 H 0.66799 0.43400 0.96323
 C210 C 0.68749 0.37440 1.02019
 H211 H 0.69252 0.35661 1.03515
 C212 C 0.65898 0.38587 1.01965
 H213 H 0.64289 0.37726 1.03482
 N214 N 0.70823 0.38429 1.00122
 C215 C 0.80429 0.37077 1.00484
 H216 H 0.80263 0.34674 1.00635
 C217 C 0.83198 0.38426 1.00421
 H218 H 0.85154 0.37044 1.00540
 C219 C 0.78060 0.41762 1.00058
 H220 H 0.76046 0.43040 0.99881
 C221 C 0.80815 0.43221 1.00020
 H222 H 0.80889 0.45621 0.99781
 Zn223 Zn 0.74474 0.36310 1.00071
 N224 N 0.77930 0.38733 1.00237
 C225 C 0.76646 0.34792 0.94589
 N226 N 0.74548 0.34085 0.96572
 C227 C 0.72385 0.32065 0.95949
 C228 C 0.72258 0.30707 0.93218
 C229 C 0.76607 0.33488 0.91856
 C230 C 0.74665 0.35464 1.05930
 C231 C 0.74640 0.34018 1.08597
 C232 C 0.74852 0.29302 1.06082
 C233 C 0.74808 0.30856 1.03444
 N234 N 0.74662 0.33883 1.03426
 H235 H 0.78313 0.36444 0.95075
 H236 H 0.70713 0.31572 0.97544
 H237 H 0.70497 0.29142 0.92728
 H238 H 0.78335 0.34077 0.90351
 H239 H 0.74627 0.37875 1.05844
 H240 H 0.74678 0.35408 1.10503
 H241 H 0.74937 0.26886 1.06046
 H242 H 0.74870 0.29647 1.01421
 C243 C 0.83430 0.41527 1.00167
 C244 C 0.65117 0.40768 0.99929
 C245 C 0.74672 0.30870 1.08723
 C246 C 0.74344 0.31476 0.91106
 C247 C 0.21220 0.91190 0.48158
 H248 H 0.22955 0.91973 0.46745
 C249 C 0.18365 0.92384 0.47914
 H250 H 0.17953 0.94095 0.46312
 C251 C 0.19610 0.87855 0.51805
 H252 H 0.20038 0.86007 0.53243
 C253 C 0.16753 0.88965 0.51628
 H254 H 0.15060 0.88007 0.52996
 N255 N 0.21793 0.88979 0.50104
 C256 C 0.31296 0.87652 0.51212
 H257 H 0.31085 0.85252 0.51350
 C258 C 0.34072 0.88960 0.51403
 H259 H 0.35991 0.87552 0.51699
 C260 C 0.29034 0.92369 0.50555
 H261 H 0.27060 0.93669 0.50190
 C262 C 0.31800 0.93788 0.50758
 H263 H 0.31930 0.96184 0.50505
 Zn264 Zn 0.25458 0.86910 0.50266
 N265 N 0.28856 0.89342 0.50727
 C266 C 0.28075 0.85692 0.44902
 N267 N 0.25852 0.84811 0.46688
 C268 C 0.23712 0.82909 0.45731
 C269 C 0.23727 0.81878 0.42859
 C270 C 0.28179 0.84715 0.42042
 C271 C 0.25381 0.86385 0.56064
 C272 C 0.25183 0.85201 0.58836
 C273 C 0.25150 0.80260 0.56757
 C274 C 0.25326 0.81556 0.53984
 N275 N 0.25407 0.84577 0.53704
 H276 H 0.29704 0.87289 0.45626
 H277 H 0.21911 0.82313 0.47149
 H278 H 0.21926 0.80472 0.42135
 H279 H 0.29934 0.85516 0.40656
 H280 H 0.25443 0.88779 0.55777
 H281 H 0.25117 0.86702 0.60671
 H282 H 0.25009 0.77859 0.56946
 H283 H 0.25342 0.80163 0.52074
 C284 C 0.34365 0.92054 0.51146
 C285 C 0.16084 0.91253 0.49674
 C286 C 0.25058 0.82112 0.59226
 C287 C 0.25973 0.82823 0.40957
 C288 C 0.79303 0.58934 0.48489
 H289 H 0.77751 0.58555 0.46735
 C290 C 0.81996 0.57408 0.48552
 H291 H 0.82478 0.55861 0.46827
 C292 C 0.80631 0.61608 0.52726
 H293 H 0.80153 0.63321 0.54291
 C294 C 0.83338 0.60145 0.52867
 H295 H 0.84886 0.60716 0.54580
 N296 N 0.78684 0.61004 0.50548
 C297 C 0.69266 0.63001 0.49937
 H298 H 0.69481 0.65395 0.49727
 C299 C 0.66472 0.61701 0.50040
 H300 H 0.64540 0.63111 0.49878
 C301 C 0.71544 0.58274 0.50426
 H302 H 0.73535 0.56961 0.50599
 C303 C 0.68773 0.56874 0.50568
 H304 H 0.68666 0.54473 0.50775
 Zn305 Zn 0.75321 0.63467 0.50101
 N306 N 0.71730 0.61287 0.50096
 C307 C 0.73795 0.65120 0.44390
 N308 N 0.75775 0.65563 0.46573
 C309 C 0.78198 0.67325 0.46200
 C310 C 0.78695 0.68735 0.43541
 C311 C 0.74210 0.66473 0.41706
 C312 C 0.74503 0.64729 0.55836
 C313 C 0.74257 0.66394 0.58358
 C314 C 0.75068 0.70877 0.55554
 C315 C 0.75298 0.69113 0.53066
 N316 N 0.75068 0.66093 0.53270
 H317 H 0.71915 0.63670 0.44702
 H318 H 0.79764 0.67601 0.47959
 H319 H 0.80639 0.70117 0.43264
 H320 H 0.72570 0.66119 0.40024
 H321 H 0.74253 0.62330 0.55915
 H322 H 0.73768 0.65247 0.60362
 H323 H 0.75293 0.73277 0.55385
 H324 H 0.75661 0.70157 0.50988
 C325 C 0.66191 0.58608 0.50377
 C326 C 0.84070 0.58041 0.50753
 C327 C 0.74609 0.69508 0.58248
 C328 C 0.76719 0.68263 0.41237
 C329 C 0.00971 0.21194 0.08365
 H330 H 0.02796 0.22741 0.08150
 C331 C 0.01066 0.18418 0.06984
 H332 H 0.02979 0.17881 0.05702
 C333 C -0.03618 0.19965 0.10502
 H334 H -0.05388 0.20517 0.11958
 C335 C -0.03618 0.17186 0.09163
 H336 H -0.05428 0.15657 0.09566
 N337 N -0.01330 0.21892 0.10114
 C338 C -0.00934 0.31372 0.12142
 H339 H -0.00803 0.31097 0.14468
 C340 C -0.00976 0.34217 0.10955
 H341 H -0.00852 0.36122 0.12393
 C342 C -0.01281 0.29177 0.07487
 H343 H -0.01410 0.27192 0.06164
 C344 C -0.01426 0.32006 0.06197
 H345 H -0.01588 0.32140 0.03865
 Zn346 Zn -0.01088 0.25313 0.12488
 N347 N -0.01026 0.28928 0.10411
 C348 C 0.04519 0.27068 0.14406
 N349 N 0.02367 0.24986 0.14765
 C350 C 0.02732 0.22649 0.16618
 C351 C 0.05342 0.22374 0.18235
 C352 C 0.07128 0.26898 0.15985
 C353 C -0.06966 0.26252 0.13288
 C354 C -0.09613 0.26672 0.14729
 C355 C -0.07055 0.25791 0.19264
 C356 C -0.04437 0.25413 0.17728
 N357 N -0.04463 0.25594 0.14789
 H358 H 0.04247 0.28855 0.12863
 H359 H 0.01003 0.20992 0.16822
 H360 H 0.05625 0.20501 0.19694
 H361 H 0.08754 0.28648 0.15711
 H362 H -0.06890 0.26473 0.10956
 H363 H -0.11554 0.27251 0.13475
 H364 H -0.07031 0.25593 0.21602
 H365 H -0.02399 0.24992 0.18882
 C366 C -0.01262 0.34581 0.07952
 C367 C -0.01239 0.16351 0.07419
 C368 C -0.09691 0.26374 0.17755
 C369 C 0.07596 0.24492 0.17885
 C370 C 0.00774 0.77696 0.42698
 H371 H 0.00391 0.75615 0.43823
 C372 C 0.01118 0.80356 0.44262
 H373 H 0.00958 0.80315 0.46601
 C374 C 0.01476 0.80307 0.38288
 H375 H 0.01642 0.80258 0.35953
 C376 C 0.01870 0.82983 0.39752
 H377 H 0.02393 0.84952 0.38501
 N378 N 0.00923 0.77741 0.39758
 C379 C 0.02352 0.68530 0.38281
 H380 H 0.04053 0.69014 0.36724
 C381 C 0.02066 0.65628 0.39313
 H382 H 0.03618 0.63948 0.38611
 C383 C -0.01830 0.70065 0.40938
 H384 H -0.03393 0.71793 0.41479
 C385 C -0.02210 0.67172 0.42018
 H386 H -0.04074 0.66736 0.43404
 Zn387 Zn 0.00653 0.74432 0.37251
 N388 N 0.00438 0.70690 0.39122
 C389 C 0.06608 0.74427 0.36905
 N390 N 0.04189 0.74578 0.35153
 C391 C 0.04434 0.74909 0.32239
 C392 C 0.07237 0.75065 0.30982
 C393 C 0.09427 0.74527 0.35747
 C394 C -0.04912 0.76717 0.35891
 C395 C -0.07737 0.76665 0.34680
 C396 C -0.06191 0.72683 0.31519
 C397 C -0.03394 0.72791 0.32830
 N398 N -0.02817 0.74778 0.34980
 H399 H 0.06332 0.74197 0.39220
 H400 H 0.02472 0.75061 0.30900
 H401 H 0.07414 0.75280 0.28656
 H402 H 0.11327 0.74370 0.37178
 H403 H -0.04449 0.78214 0.37668
 H404 H -0.09372 0.78197 0.35511
 H405 H -0.06558 0.71009 0.29878
 H406 H -0.01718 0.71204 0.32214
 C407 C -0.00226 0.64907 0.41209
 C408 C 0.01632 0.83053 0.42782
 C409 C -0.08449 0.74609 0.32483
 C410 C 0.09770 0.74875 0.32763
 C411 C 0.51027 0.27095 0.92922
 H412 H 0.50523 0.24945 0.93862
 C413 C 0.51076 0.29648 0.94668
 H414 H 0.50586 0.29459 0.96953
 C415 C 0.52260 0.29998 0.88804
 H416 H 0.52712 0.30112 0.86510
 C417 C 0.52334 0.32584 0.90454
 H418 H 0.52904 0.34672 0.89415
 N419 N 0.51541 0.27340 0.90033
 C420 C 0.52853 0.18213 0.88541
 H421 H 0.54734 0.18653 0.87180
 C422 C 0.52413 0.15343 0.89624
 H423 H 0.54010 0.13623 0.89142
 C424 C 0.48424 0.19865 0.90707
 H425 H 0.46840 0.21629 0.91046
 C426 C 0.47895 0.17018 0.91836
 H427 H 0.45893 0.16638 0.93044
 Zn428 Zn 0.51342 0.24191 0.87343
 N429 N 0.50886 0.20415 0.89119
 C430 C 0.57389 0.24120 0.87068
 N431 N 0.54957 0.24375 0.85344
 C432 C 0.55189 0.25008 0.82474
 C433 C 0.57978 0.25420 0.81239
 C434 C 0.60203 0.24475 0.85923
 C435 C 0.46115 0.27036 0.85547
 C436 C 0.43358 0.27201 0.84204
 C437 C 0.44500 0.22720 0.81550
 C438 C 0.47258 0.22650 0.82940
 N439 N 0.47989 0.24763 0.84932
 H440 H 0.57129 0.23671 0.89355
 H441 H 0.53217 0.25247 0.81161
 H442 H 0.58128 0.25889 0.78946
 H443 H 0.62113 0.24255 0.87332
 H444 H 0.46679 0.28651 0.87191
 H445 H 0.41872 0.28985 0.84796
 H446 H 0.43943 0.20938 0.80072
 H447 H 0.48757 0.20825 0.82542
 C448 C 0.49925 0.14713 0.91309
 C449 C 0.51646 0.32442 0.93408
 C450 C 0.42481 0.24998 0.82226
 C451 C 0.60527 0.25179 0.82990
 C452 C 0.51724 0.70933 0.58825
 H453 H 0.53425 0.72590 0.58462
 C454 C 0.52024 0.68068 0.57683
 H455 H 0.53967 0.67574 0.56429
 C456 C 0.47257 0.69549 0.61120
 H457 H 0.45463 0.70091 0.62550
 C458 C 0.47463 0.66669 0.60018
 H459 H 0.45775 0.65046 0.60558
 N460 N 0.49378 0.71607 0.60521
 C461 C 0.48848 0.81210 0.61417
 H462 H 0.48784 0.81251 0.63758
 C463 C 0.48481 0.83837 0.59857
 H464 H 0.48101 0.85879 0.61040
 C465 C 0.49216 0.78419 0.57080
 H466 H 0.49443 0.76285 0.56021
 C467 C 0.48890 0.81022 0.55421
 H468 H 0.48925 0.80888 0.53081
 Zn469 Zn 0.49431 0.75256 0.62522
 N470 N 0.49231 0.78578 0.60024
 C471 C 0.55065 0.77393 0.64218
 N472 N 0.52954 0.75293 0.64701
 C473 C 0.53415 0.72995 0.66575
 C474 C 0.56095 0.72746 0.68063
 C475 C 0.57788 0.77213 0.65637
 C476 C 0.43482 0.75719 0.63537
 C477 C 0.40877 0.75928 0.65098
 C478 C 0.43751 0.75860 0.69531
 C479 C 0.46314 0.75653 0.67875
 N480 N 0.46120 0.75522 0.64937
 H481 H 0.54665 0.79174 0.62686
 H482 H 0.51711 0.71328 0.66875
 H483 H 0.56440 0.70899 0.69540
 H484 H 0.59429 0.78924 0.65245
 H485 H 0.43410 0.75698 0.61195
 H486 H 0.38807 0.76108 0.63927
 H487 H 0.43916 0.75910 0.71871
 H488 H 0.48445 0.75595 0.68939
 C489 C 0.48570 0.83782 0.56814
 C490 C 0.49878 0.65883 0.58301
 C491 C 0.40991 0.75925 0.68139
 C492 C 0.58339 0.74834 0.67554
 C493 C 0.94212 1.00847 0.71504
 H494 H 0.95379 1.00902 0.73555
 C495 C 0.95709 1.00520 0.69024
 H496 H 0.98091 1.00305 0.69093
 C497 C 0.89604 1.01192 0.68992
 H498 H 0.87226 1.01413 0.69000
 C499 C 0.91136 1.00781 0.66235
 H500 H 0.89810 1.00883 0.64284
 N501 N 0.91049 1.01118 0.71433
 C502 C 0.89699 1.03356 0.80396
 H503 H 0.88167 1.05106 0.79830
 C504 C 0.90713 1.03175 0.83109
 H505 H 0.90017 1.04821 0.84676
 C506 C 0.92313 0.99004 0.78944
 H507 H 0.92805 0.97315 0.77350
 C508 C 0.93534 0.98740 0.81918
 H509 H 0.94966 0.96875 0.82374
 Zn510 Zn 0.88518 1.01241 0.74668
 N511 N 0.90532 1.01177 0.78277
 C512 C 0.87071 0.95509 0.72804
 N513 N 0.86097 0.97753 0.74530
 C514 C 0.83778 0.97318 0.76346
 C515 C 0.82335 0.94539 0.76445
 C516 C 0.85709 0.92726 0.72836
 C517 C 0.88350 1.07310 0.74294
 C518 C 0.87253 1.10204 0.74147
 C519 C 0.82309 1.08169 0.73953
 C520 C 0.83509 1.05289 0.74134
 N521 N 0.86486 1.04925 0.74333
 H522 H 0.89002 0.95811 0.71481
 H523 H 0.83110 0.99090 0.77784
 H524 H 0.80550 0.94227 0.77959
 H525 H 0.86566 0.90974 0.71467
 H526 H 0.90708 1.06954 0.74435
 H527 H 0.88783 1.12068 0.74177
 H528 H 0.79935 1.08419 0.73880
 H529 H 0.82069 1.03361 0.74146
 C530 C 0.92732 1.00726 0.83967
 C531 C 0.94087 1.00371 0.66210
 C532 C 0.84205 1.10674 0.73973
 C533 C 0.83325 0.92191 0.74676
 C534 C 0.40236 0.48142 0.20573
 H535 H 0.38572 0.46495 0.21064
 C536 C 0.41849 0.47843 0.18035
 H537 H 0.41464 0.45896 0.16704
 C538 C 0.42711 0.52659 0.21698
 H539 H 0.42990 0.54558 0.23117
 C540 C 0.44358 0.52463 0.19146
 H541 H 0.45916 0.54217 0.18616
 N542 N 0.40663 0.50533 0.22339
 C543 C 0.38170 0.51384 0.31418
 H544 H 0.35823 0.51624 0.31036
 C545 C 0.39265 0.51339 0.34238
 H546 H 0.37751 0.51562 0.36031
 C547 C 0.42983 0.50775 0.29518
 H548 H 0.44405 0.50540 0.27661
 C549 C 0.44175 0.50678 0.32324
 H550 H 0.46537 0.50436 0.32600
 Zn551 Zn 0.38062 0.51044 0.25515
 N552 N 0.40025 0.51122 0.29131
 C553 C 0.37143 0.45169 0.26474
 N554 N 0.35581 0.47650 0.25760
 C555 C 0.32611 0.47527 0.25300
 C556 C 0.31130 0.44771 0.25424
 C557 C 0.35775 0.42397 0.26586
 C558 C 0.36979 0.57001 0.26752
 C559 C 0.35868 0.59864 0.26398
 C560 C 0.32883 0.58094 0.22402
 C561 C 0.34076 0.55235 0.22827
 N562 N 0.36063 0.54739 0.25002
 H563 H 0.39498 0.45338 0.26855
 H564 H 0.31405 0.49535 0.24776
 H565 H 0.28790 0.44674 0.24942
 H566 H 0.37090 0.40438 0.27057
 H567 H 0.38655 0.56621 0.28383
 H568 H 0.36653 0.61620 0.27821
 H569 H 0.31335 0.58444 0.20642
 H570 H 0.33459 0.53432 0.21390
 C571 C 0.42289 0.50942 0.34724
 C572 C 0.43871 0.50075 0.17235
 C573 C 0.33792 0.60456 0.24214
 C574 C 0.32747 0.42160 0.26031
 C575 C 0.57971 1.01141 0.29672
 H576 H 0.57304 1.02717 0.28017
 C577 C 0.56863 1.01344 0.32348
 H578 H 0.55307 1.03106 0.32770
 C579 C 0.61018 0.97018 0.30964
 H580 H 0.62721 0.95423 0.30474
 C581 C 0.59862 0.97145 0.33932
 H582 H 0.60686 0.95548 0.35505
 N583 N 0.60096 0.98880 0.28993
 C584 C 0.60539 0.98273 0.19604
 H585 H 0.62921 0.98130 0.19503
 C586 C 0.58879 0.98240 0.17063
 H587 H 0.60009 0.97993 0.15021
 C588 C 0.56210 0.98688 0.22431
 H589 H 0.55192 0.98861 0.24533
 C590 C 0.54449 0.98662 0.19921
 H591 H 0.52071 0.98824 0.20100
 Zn592 Zn 0.61928 0.98858 0.25313
 N593 N 0.59203 0.98564 0.22211
 C594 C 0.62703 0.92843 0.25106
 N595 N 0.64321 0.95401 0.25045
 C596 C 0.67316 0.95334 0.24814
 C597 C 0.68795 0.92586 0.24712
 C598 C 0.64077 0.90077 0.25031
 C599 C 0.62867 1.04586 0.23029
 C600 C 0.63997 1.07481 0.22932
 C601 C 0.67452 1.06150 0.26719
 C602 C 0.66234 1.03271 0.26752
 N603 N 0.63984 1.02544 0.24921
 H604 H 0.60324 0.92964 0.25271
 H605 H 0.68557 0.97398 0.24747
 H606 H 0.71180 0.92573 0.24609
 H607 H 0.62736 0.88074 0.25135
 H608 H 0.61008 1.04023 0.21659
 H609 H 0.63024 1.09061 0.21428
 H610 H 0.69192 1.06629 0.28259
 H611 H 0.67023 1.01643 0.28304
 C612 C 0.55796 0.98526 0.17194
 C613 C 0.57855 0.99216 0.34652
 C614 C 0.66310 1.08331 0.24797
 C615 C 0.67156 0.89908 0.24840
 C616 C 0.10778 0.46972 0.80828
 H617 H 0.12312 0.45202 0.80362
 C618 C 0.09524 0.47129 0.83569
 H619 H 0.10063 0.45430 0.85157
 C620 C 0.08356 0.51418 0.79403
 H621 H 0.07988 0.53129 0.77786
 C622 C 0.07050 0.51664 0.82129
 H623 H 0.05678 0.53577 0.82563
 N624 N 0.10174 0.49093 0.78804
 C625 C 0.11135 0.48584 0.69462
 H626 H 0.13513 0.48353 0.69449
 C627 C 0.09569 0.48584 0.66864
 H628 H 0.10763 0.48279 0.64865
 C629 C 0.06719 0.49158 0.72129
 H630 H 0.05629 0.49369 0.74192
 C631 C 0.05052 0.49160 0.69563
 H632 H 0.02674 0.49382 0.69660
 Zn633 Zn 0.12255 0.49071 0.75262
 N634 N 0.09711 0.48934 0.72017
 C635 C 0.12933 0.43041 0.74927
 N636 N 0.14583 0.45576 0.75025
 C637 C 0.17582 0.45486 0.74844
 C638 C 0.19031 0.42729 0.74622
 C639 C 0.14278 0.40266 0.74745
 C640 C 0.13719 0.54716 0.73055
 C641 C 0.14819 0.57616 0.73193
 C642 C 0.17428 0.56312 0.77591
 C643 C 0.16280 0.53414 0.77361
 N644 N 0.14435 0.52685 0.75134
 H645 H 0.10552 0.43184 0.75033
 H646 H 0.18844 0.47538 0.74889
 H647 H 0.21418 0.42679 0.74556
 H648 H 0.12915 0.38274 0.74735
 H649 H 0.12174 0.54152 0.71354
 H650 H 0.14165 0.59206 0.71542
 H651 H 0.18799 0.56850 0.79442
 H652 H 0.16742 0.51788 0.79036
 C653 C 0.06491 0.48948 0.66889
 C654 C 0.07642 0.49495 0.84261
 C655 C 0.16660 0.58472 0.75497
 C656 C 0.17357 0.40074 0.74590
 C657 C 0.78350 0.91726 -0.01224
 H658 H 0.76650 0.92424 -0.02724
 C659 C 0.81093 0.93183 -0.01245
 H660 H 0.81431 0.94967 -0.02783
 C661 C 0.79921 0.88607 0.02618
 H662 H 0.79493 0.86811 0.04113
 C663 C 0.82679 0.90000 0.02677
 H664 H 0.84321 0.89248 0.04230
 N665 N 0.77848 0.89407 0.00620
 C666 C 0.68448 0.87329 -0.00411
 H667 H 0.68741 0.84996 -0.00927
 C668 C 0.65622 0.88534 -0.00368
 H669 H 0.63748 0.87113 -0.00873
 C670 C 0.70559 0.91981 0.00906
 H671 H 0.72500 0.93297 0.01417
 C672 C 0.67750 0.93287 0.00983
 H673 H 0.67584 0.95629 0.01500
 Zn674 Zn 0.74430 0.86908 0.00224
 N675 N 0.70841 0.89044 0.00234
 C676 C 0.72361 0.84747 0.05533
 N677 N 0.74315 0.84159 0.03382
 C678 C 0.76246 0.81845 0.03611
 C679 C 0.76234 0.80005 0.06061
 C680 C 0.72324 0.83013 0.08040
 C681 C 0.74571 0.86718 -0.05795
 C682 C 0.74707 0.85498 -0.08563
 C683 C 0.74734 0.80590 -0.06410
 C684 C 0.74598 0.81910 -0.03675
 N685 N 0.74582 0.84933 -0.03412
 H686 H 0.70889 0.86629 0.05358
 H687 H 0.77858 0.81479 0.01932
 H688 H 0.77805 0.78197 0.06239
 H689 H 0.70789 0.83547 0.09750
 H690 H 0.74427 0.89103 -0.05558
 H691 H 0.74791 0.86997 -0.10397
 H692 H 0.74766 0.78181 -0.06582
 H693 H 0.74466 0.80507 -0.01782
 C694 C 0.65229 0.91535 0.00365
 C695 C 0.83338 0.92257 0.00676
 C696 C 0.74785 0.82387 -0.08898
 C697 C 0.74300 0.80631 0.08333
 C698 C 0.29063 0.42171 0.49878
 H699 H 0.27110 0.43551 0.49928
 C700 C 0.31887 0.43494 0.49880
 H701 H 0.32073 0.45898 0.49962
 C702 C 0.31208 0.37359 0.49812
 H703 H 0.30926 0.34961 0.49807
 C704 C 0.34039 0.38573 0.49847
 H705 H 0.35926 0.37093 0.49857
 N706 N 0.28789 0.39146 0.49881
 C707 C 0.19591 0.38293 0.47888
 H708 H 0.20079 0.36553 0.46353
 C709 C 0.16767 0.39527 0.47892
 H710 H 0.15152 0.38757 0.46318
 C711 C 0.21015 0.41251 0.51903
 H712 H 0.22654 0.41837 0.53523
 C713 C 0.18200 0.42562 0.51976
 H714 H 0.17723 0.44155 0.53663
 Zn715 Zn 0.25230 0.36871 0.50060
 N716 N 0.21655 0.39143 0.49883
 C717 C 0.27254 0.35769 0.55681
 N718 N 0.25282 0.34766 0.53667
 C719 C 0.23292 0.32592 0.54343
 C720 C 0.23284 0.31311 0.57125
 C721 C 0.27321 0.34566 0.58458
 C722 C 0.25775 0.36006 0.44263
 C723 C 0.25912 0.34611 0.41580
 C724 C 0.25301 0.29860 0.43976
 C725 C 0.25192 0.31360 0.46644
 N726 N 0.25378 0.34391 0.46724
 H727 H 0.28737 0.37582 0.55180
 H728 H 0.21675 0.31892 0.52745
 H729 H 0.21654 0.29621 0.57615
 H730 H 0.28908 0.35431 0.60013
 H731 H 0.25975 0.38407 0.44393
 H732 H 0.26282 0.35973 0.39681
 H733 H 0.25104 0.27452 0.43923
 H734 H 0.24937 0.30110 0.48631
 C735 C 0.16017 0.41672 0.49960
 C736 C 0.34420 0.41669 0.49890
 C737 C 0.25599 0.31498 0.41393
 C738 C 0.25328 0.32312 0.59230
 C739 C 0.20309 0.58194 -0.01417
 H740 H 0.22042 0.57344 -0.02785
 C741 C 0.17465 0.56937 -0.01564
 H742 H 0.17098 0.55108 -0.03042
 C743 C 0.18712 0.61714 0.02038
 H744 H 0.19161 0.63640 0.03373
 C745 C 0.15854 0.60554 0.01946
 H746 H 0.14177 0.61579 0.03276
 N747 N 0.20885 0.60526 0.00385
 C748 C 0.30455 0.61843 0.01025
 H749 H 0.30285 0.64248 0.00971
 C750 C 0.33218 0.60524 0.01207
 H751 H 0.35166 0.61933 0.01297
 C752 C 0.28099 0.57115 0.00897
 H753 H 0.26091 0.55810 0.00755
 C754 C 0.30852 0.55685 0.01096
 H755 H 0.30931 0.53275 0.01058
 Zn756 Zn 0.24585 0.62589 0.00394
 N757 N 0.27969 0.60147 0.00818
 C758 C 0.24611 0.63511 0.06173
 N759 N 0.24749 0.65105 0.03676
 C760 C 0.25133 0.68120 0.03701
 C761 C 0.25346 0.69646 0.06352
 C762 C 0.24785 0.64930 0.08835
 C763 C 0.26910 0.63595 -0.05110
 C764 C 0.27091 0.64806 -0.07879
 C765 C 0.23161 0.68199 -0.06666
 C766 C 0.23052 0.66911 -0.03900
 N767 N 0.24920 0.64656 -0.03176
 H768 H 0.24350 0.61113 0.06082
 H769 H 0.25289 0.69334 0.01682
 H770 H 0.25597 0.72046 0.06349
 H771 H 0.24630 0.63604 0.10793
 H772 H 0.28302 0.61728 -0.04553
 H773 H 0.28664 0.63890 -0.09392
 H774 H 0.21594 0.69927 -0.07213
 H775 H 0.21429 0.67657 -0.02355
 C776 C 0.33458 0.57416 0.01222
 C777 C 0.15169 0.58136 0.00131
 C778 C 0.25205 0.67128 -0.08701
 C779 C 0.25160 0.68027 0.08961
 C780 C 0.71451 0.07844 0.49596
 H781 H 0.73360 0.06402 0.49595
 C782 C 0.68595 0.06624 0.49455
 H783 H 0.68327 0.04226 0.49403
 C784 C 0.69462 0.12729 0.49739
 H785 H 0.69825 0.15112 0.49851
 C786 C 0.66601 0.11617 0.49632
 H787 H 0.64762 0.13156 0.49672
 N788 N 0.71812 0.10852 0.49765
 C789 C 0.80943 0.11468 0.47838
 H790 H 0.80522 0.13289 0.46363
 C791 C 0.83702 0.10113 0.47815
 H792 H 0.85339 0.10872 0.46278
 C793 C 0.79415 0.08417 0.51747
 H794 H 0.77758 0.07841 0.53331
 C795 C 0.82165 0.06984 0.51794
 H796 H 0.82587 0.05308 0.53430
 Zn797 Zn 0.75400 0.12987 0.49975
 N798 N 0.78862 0.10620 0.49788
 C799 C 0.77475 0.17289 0.54059
 N800 N 0.75457 0.15104 0.53511
 C801 C 0.73505 0.14213 0.55567
 C802 C 0.73468 0.15585 0.58262
 C803 C 0.77505 0.18744 0.56740
 C804 C 0.74881 0.13897 0.44219
 C805 C 0.74623 0.15342 0.41573
 C806 C 0.75095 0.20064 0.44058
 C807 C 0.75329 0.18513 0.46685
 N808 N 0.75260 0.15479 0.46698
 H809 H 0.79075 0.17883 0.52426
 H810 H 0.72004 0.12386 0.55150
 H811 H 0.71897 0.14832 0.59867
 H812 H 0.79155 0.20445 0.57145
 H813 H 0.74758 0.11488 0.44314
 H814 H 0.74242 0.14008 0.39656
 H815 H 0.75166 0.22479 0.44051
 H816 H 0.75540 0.19728 0.48694
 C817 C 0.84361 0.07860 0.49816
 C818 C 0.66131 0.08540 0.49488
 C819 C 0.74785 0.18467 0.41458
 C820 C 0.75458 0.17895 0.58873
 C821 C 0.97138 0.69377 0.87984
 H822 H 0.95717 0.69774 0.86141
 C823 C 0.97174 0.66679 0.89211
 H824 H 0.95774 0.64934 0.88328
 C825 C 1.00631 0.71316 0.91384
 H826 H 1.02021 0.73105 0.92179
 C827 C 1.00739 0.68373 0.92820
 H828 H 1.02187 0.68145 0.94672
 N829 N 0.99000 0.71721 0.89085
 C830 C 1.02050 0.80827 0.88629
 H831 H 1.03464 0.80475 0.86784
 C832 C 1.02177 0.83406 0.90060
 H833 H 1.03723 0.85108 0.89363
 C834 C 0.98297 0.78891 0.91719
 H835 H 0.96704 0.77178 0.92259
 C836 C 0.98356 0.81712 0.93372
 H837 H 0.96835 0.81925 0.95148
 Zn838 Zn 0.99431 0.75299 0.86939
 N839 N 0.99978 0.78561 0.89468
 C840 C 0.94165 0.78261 0.85383
 N841 N 0.96015 0.76008 0.84629
 C842 C 0.95419 0.74249 0.82296
 C843 C 0.92862 0.74702 0.80648
 C844 C 0.91554 0.78744 0.83839
 C845 C 1.05351 0.74102 0.86040
 C846 C 1.07975 0.73718 0.84543
 C847 C 1.05427 0.75034 0.80113
 C848 C 1.02837 0.75405 0.81706
 N849 N 1.02843 0.74917 0.84618
 H850 H 0.94677 0.79670 0.87208
 H851 H 0.96921 0.72478 0.81725
 H852 H 0.92398 0.73271 0.78811
 H853 H 0.90091 0.80523 0.84489
 H854 H 1.05323 0.73756 0.88351
 H855 H 1.09924 0.73015 0.85728
 H856 H 1.05405 0.75445 0.77801
 H857 H 1.00845 0.76120 0.80615
 C858 C 1.00162 0.83952 0.92525
 C859 C 0.99132 0.66085 0.91737
 C860 C 1.08043 0.74222 0.81543
 C861 C 0.90871 0.76926 0.81461
 C862 C 0.46576 0.20415 0.39802
 H863 H 0.44498 0.21379 0.39124
 C864 C 0.46609 0.17600 0.41093
 H865 H 0.44546 0.16418 0.41415
 C866 C 0.51793 0.20730 0.40131
 H867 H 0.53813 0.21924 0.39665
 C868 C 0.51929 0.17926 0.41437
 H869 H 0.54071 0.17001 0.41953
 N870 N 0.49152 0.21880 0.39278
 C871 C 0.50207 0.31309 0.37368
 H872 H 0.50448 0.31148 0.35044
 C873 C 0.50449 0.34069 0.38717
 H874 H 0.50894 0.36034 0.37419
 C875 C 0.49308 0.28927 0.41867
 H876 H 0.48862 0.26904 0.43069
 C877 C 0.49509 0.31664 0.43311
 H878 H 0.49269 0.31709 0.45639
 Zn879 Zn 0.49213 0.25239 0.36819
 N880 N 0.49633 0.28813 0.38944
 C881 C 0.43909 0.27900 0.34918
 N882 N 0.45596 0.25402 0.34713
 C883 C 0.44565 0.22924 0.33331
 C884 C 0.41711 0.22878 0.32160
 C885 C 0.41073 0.27967 0.33734
 C886 C 0.55059 0.26238 0.35306
 C887 C 0.57722 0.25790 0.33894
 C888 C 0.55227 0.22430 0.30602
 C889 C 0.52591 0.22950 0.32085
 N890 N 0.52557 0.24827 0.34398
 H891 H 0.44699 0.29820 0.36095
 H892 H 0.45892 0.20927 0.33279
 H893 H 0.40884 0.20865 0.31139
 H894 H 0.39745 0.29949 0.34004
 H895 H 0.55024 0.27646 0.37200
 H896 H 0.59649 0.26998 0.34648
 H897 H 0.55235 0.20914 0.28779
 H898 H 0.50599 0.21804 0.31422
 C899 C 0.50058 0.34284 0.41713
 C900 C 0.49309 0.16302 0.41883
 C901 C 0.57848 0.23806 0.31549
 C902 C 0.39936 0.25421 0.32360
 C903 C 1.01557 0.27887 0.57260
 H904 H 1.01445 0.25825 0.56071
 C905 C 1.01841 0.30566 0.55730
 H906 H 1.01972 0.30504 0.53389
 C907 C 1.01382 0.30492 0.61700
 H908 H 1.01146 0.30466 0.64022
 C909 C 1.01639 0.33213 0.60269
 H910 H 1.01731 0.35192 0.61594
 N911 N 1.01384 0.27891 0.60203
 C912 C 0.98426 0.19017 0.60682
 H913 H 0.96962 0.19444 0.62467
 C914 C 0.98028 0.16439 0.59047
 H915 H 0.96234 0.14928 0.59563
 C916 C 1.02594 0.20382 0.57890
 H917 H 1.04427 0.21882 0.57510
 C918 C 1.02235 0.17857 0.56157
 H919 H 1.03777 0.17431 0.54424
 Zn920 Zn 1.01135 0.24352 0.62471
 N921 N 1.00676 0.20937 0.60081
 C922 C 0.95209 0.25281 0.63402
 N923 N 0.97759 0.24643 0.64832
 C924 C 0.97788 0.24072 0.67727
 C925 C 0.95153 0.24124 0.69296
 C926 C 0.92536 0.25329 0.64871
 C927 C 1.06523 0.21723 0.64216
 C928 C 1.09264 0.21612 0.65602
 C929 C 1.08003 0.26080 0.68221
 C930 C 1.05287 0.26107 0.66769
 N931 N 1.04628 0.23996 0.64751
 H932 H 0.95249 0.25665 0.61089
 H933 H 0.99838 0.23513 0.68808
 H934 H 0.95196 0.23647 0.71596
 H935 H 0.90544 0.25711 0.63625
 H936 H 1.05954 0.20020 0.62662
 H937 H 1.10760 0.19814 0.65071
 H938 H 1.08444 0.27847 0.69749
 H939 H 1.03720 0.27841 0.67245
 C940 C 0.99957 0.15838 0.56764
 C941 C 1.01843 0.33293 0.57222
 C942 C 1.10079 0.23839 0.67594
 C943 C 0.92481 0.24775 0.67873
 C944 C 0.50076 0.77649 0.07398
 H945 H 0.49420 0.75646 0.06270
 C946 C 0.50266 0.80338 0.05869
 H947 H 0.49785 0.80371 0.03568
 C948 C 0.51367 0.80101 0.11765
 H949 H 0.51767 0.80018 0.14066
 C950 C 0.51587 0.82824 0.10328
 H951 H 0.52236 0.84776 0.11554
 N952 N 0.50662 0.77571 0.10294
 C953 C 0.47930 0.68544 0.11024
 H954 H 0.46768 0.68872 0.13032
 C955 C 0.47405 0.65958 0.09436
 H956 H 0.45807 0.64349 0.10218
 C957 C 0.51462 0.70187 0.07604
 H958 H 0.53085 0.71819 0.06933
 C959 C 0.50970 0.67640 0.05920
 H960 H 0.52216 0.67320 0.03952
 Zn961 Zn 0.50558 0.73991 0.12502
 N962 N 0.49934 0.70599 0.10101
 C963 C 0.44719 0.74860 0.13644
 N964 N 0.47295 0.74227 0.15029
 C965 C 0.47362 0.73573 0.17909
 C966 C 0.44742 0.73574 0.19511
 C967 C 0.42066 0.74849 0.15140
 C968 C 0.56333 0.71833 0.13419
 C969 C 0.59200 0.71889 0.14545
 C970 C 0.57659 0.75585 0.18008
 C971 C 0.54819 0.75458 0.16812
 N972 N 0.54221 0.73650 0.14517
 H973 H 0.44723 0.75281 0.11336
 H974 H 0.49422 0.72976 0.18949
 H975 H 0.44814 0.73043 0.21799
 H976 H 0.40056 0.75230 0.13921
 H977 H 0.55835 0.70407 0.11601
 H978 H 0.60862 0.70472 0.13591
 H979 H 0.58043 0.77077 0.19804
 H980 H 0.53106 0.76858 0.17687
 C981 C 0.48960 0.65470 0.06867
 C982 C 0.51005 0.82972 0.07340
 C983 C 0.59920 0.73828 0.16826
 C984 C 0.42048 0.74242 0.18132
 O985 O -0.08757 0.98860 0.97460
 O986 O -0.08504 1.04103 0.98255
 O987 O -0.01189 0.97500 0.91899
 O988 O 0.03625 0.98204 0.92134
 O989 O -0.02840 0.91600 0.99189
 O990 O -0.01948 0.92052 1.04258
 O991 O 0.06476 1.05211 0.99807
 O992 O 0.04763 1.05321 0.94929
 O993 O -0.01095 1.07255 1.04739
 O994 O -0.06050 1.05100 1.05151
 O995 O 0.04364 1.00032 1.07035
 O996 O 0.04920 0.94897 1.05258
 O997 O 0.07668 1.01233 1.02633
 O998 O 0.07382 0.95828 1.01822
 O999 O 0.00322 1.02815 1.08053
 O1000 O -0.05005 1.01634 1.07635
 O1001 O 0.01903 1.08424 1.00976
 O1002 O 0.00978 1.08151 0.95882
 O1003 O -0.07607 0.95001 1.00459
 O1004 O -0.05626 0.94602 1.05223
 O1005 O 0.00074 0.92788 0.95368
 O1006 O 0.05048 0.94912 0.95272
 O1007 O -0.05241 1.00295 0.92879
 O1008 O -0.05881 1.05181 0.94760
 Zr1009 Zr -0.04826 1.01396 0.97295
 O1010 O -0.02362 1.04346 0.99912
 Zr1011 Zr 0.01090 0.97332 0.95876
 O1012 O 0.03822 1.00133 0.98396
 Zr1013 Zr -0.03122 0.95633 1.01503
 O1014 O -0.00560 0.98331 1.04287
 Zr1015 Zr 0.02060 1.04454 0.98555
 O1016 O -0.00486 1.01752 0.95713
 Zr1017 Zr -0.02150 1.02724 1.04175
 O1018 O -0.04929 0.99949 1.01636
 Zr1019 Zr 0.03774 0.98662 1.02720
 O1020 O 0.01297 0.95654 1.00128
 O1021 O -0.03281 0.97038 0.97207
 O1022 O 0.02245 1.03045 1.02861
 C1023 C -0.09439 0.96505 0.98904
 C1024 C -0.03578 0.98831 0.91141
 C1025 C -0.01421 0.90921 0.96886
 C1026 C 0.08305 1.03695 1.01359
 C1027 C 0.00488 1.09099 1.03281
 C1028 C 0.02791 1.01609 1.08755
 H1029 H -0.03289 1.06335 0.99825
 H1030 H -0.00614 0.97485 1.06263
 H1031 H -0.04508 0.95732 0.95953
 H1032 H 0.05833 1.00144 0.97574
 H1033 H 0.03732 1.04476 0.93217
 H1034 H 0.05120 0.99725 0.92661
 H1035 H -0.04233 0.99820 1.08594
 H1036 H -0.06851 0.96375 1.05628
 H1037 H -0.01036 1.08815 0.96374
 H1038 H -0.04095 1.05668 0.93626
 H1039 H 0.03335 0.94574 1.06690
 H1040 H 0.00126 0.91550 1.03807
 H1041 H -0.09096 1.03599 1.00257
 H1042 H -0.06405 1.06548 1.03569
 H1043 H 0.05228 0.93494 0.96909
 H1044 H 0.08272 0.96503 0.99983
 O1045 O 0.49217 0.47965 0.42156
 O1046 O 0.54331 0.48822 0.42354
 O1047 O 0.48108 0.41589 0.49187
 O1048 O 0.48768 0.41456 0.53904
 O1049 O 0.42047 0.49095 0.48192
 O1050 O 0.42406 0.54199 0.49341
 O1051 O 0.55886 0.49387 0.56983
 O1052 O 0.56032 0.44538 0.55115
 O1053 O 0.57443 0.55113 0.50029
 O1054 O 0.55218 0.55843 0.45242
 O1055 O 0.50303 0.56785 0.55601
 O1056 O 0.45469 0.54707 0.56297
 O1057 O 0.51918 0.52027 0.58518
 O1058 O 0.46505 0.50915 0.58300
 O1059 O 0.52955 0.58222 0.51676
 O1060 O 0.51710 0.58154 0.46465
 O1061 O 0.58838 0.50959 0.52498
 O1062 O 0.58498 0.45682 0.51221
 O1063 O 0.45296 0.50763 0.43547
 O1064 O 0.44911 0.55577 0.45845
 O1065 O 0.43339 0.44927 0.50701
 O1066 O 0.45626 0.44554 0.55600
 O1067 O 0.50662 0.43042 0.45201
 O1068 O 0.55545 0.45094 0.44746
 Zr1069 Zr 0.51758 0.47532 0.45950
 O1070 O 0.54683 0.50129 0.48447
 Zr1071 Zr 0.47873 0.45492 0.51693
 O1072 O 0.50723 0.47914 0.54470
 Zr1073 Zr 0.46003 0.51559 0.47998
 O1074 O 0.48666 0.54262 0.50677
 Zr1075 Zr 0.54943 0.48363 0.52649
 O1076 O 0.52224 0.45561 0.50066
 Zr1077 Zr 0.52966 0.54430 0.49009
 O1078 O 0.50224 0.51955 0.46162
 Zr1079 Zr 0.49175 0.52312 0.54800
 O1080 O 0.46158 0.49805 0.52232
 O1081 O 0.47474 0.47202 0.47522
 O1082 O 0.53456 0.52726 0.53196
 C1083 C 0.46815 0.49376 0.41629
 C1084 C 0.49305 0.41074 0.46727
 C1085 C 0.41434 0.46581 0.49381
 C1086 C 0.54440 0.50780 0.58936
 C1087 C 0.59378 0.53515 0.51352
 C1088 C 0.51731 0.58735 0.54118
 H1089 H 0.56624 0.50180 0.47484
 H1090 H 0.47760 0.56261 0.50785
 H1091 H 0.46172 0.45985 0.46256
 H1092 H 0.50836 0.46908 0.56374
 H1093 H 0.55086 0.42815 0.54136
 H1094 H 0.50408 0.41861 0.55273
 H1095 H 0.49891 0.58996 0.47304
 H1096 H 0.46568 0.56035 0.44526
 H1097 H 0.59233 0.46510 0.49375
 H1098 H 0.55975 0.43695 0.46355
 H1099 H 0.44873 0.56110 0.54746
 H1100 H 0.41971 0.53600 0.51359
 H1101 H 0.53887 0.50950 0.41987
 H1102 H 0.56700 0.54309 0.44765
 H1103 H 0.44129 0.46134 0.55855
 H1104 H 0.47365 0.49064 0.59107
 O1105 O 0.43121 -0.04583 0.50375
 O1106 O 0.45087 -0.05687 0.45799
 O1107 O 0.50803 -0.05882 0.55899
 O1108 O 0.55149 -0.03871 0.56645
 O1109 O 0.44998 0.01719 0.56966
 O1110 O 0.44584 0.06357 0.54575
 O1111 O 0.58404 0.01266 0.47743
 O1112 O 0.58222 -0.03592 0.49321
 O1113 O 0.51179 0.02310 0.41989
 O1114 O 0.46137 0.01367 0.42058
 O1115 O 0.52703 0.08702 0.48342
 O1116 O 0.51892 0.09223 0.53260
 O1117 O 0.57206 0.05569 0.50040
 O1118 O 0.54948 0.06511 0.55044
 O1119 O 0.49669 0.07152 0.44701
 O1120 O 0.44560 0.04676 0.44536
 O1121 O 0.55151 -0.00418 0.43423
 O1122 O 0.55423 -0.05356 0.45892
 O1123 O 0.41793 -0.00207 0.52469
 O1124 O 0.42208 0.04961 0.50968
 O1125 O 0.48999 -0.00874 0.58563
 O1126 O 0.54347 0.00557 0.58019
 O1127 O 0.47969 -0.07689 0.52206
 O1128 O 0.48883 -0.07893 0.47043
 Zr1129 Zr 0.47600 -0.04026 0.49321
 O1130 O 0.50156 -0.01702 0.46258
 Zr1131 Zr 0.51603 -0.01433 0.54826
 O1132 O 0.54457 0.00822 0.51982
 Zr1133 Zr 0.45732 0.02311 0.52533
 O1134 O 0.48346 0.04886 0.49726
 Zr1135 Zr 0.54469 -0.01206 0.47877
 O1136 O 0.51978 -0.03752 0.50864
 Zr1137 Zr 0.48623 0.02690 0.45736
 O1138 O 0.45779 0.00214 0.48462
 Zr1139 Zr 0.52742 0.05094 0.51228
 O1140 O 0.50000 0.02922 0.54285
 O1141 O 0.47292 -0.01973 0.53333
 O1142 O 0.52993 0.03140 0.47144
 C1143 C 0.41208 -0.02832 0.51513
 C1144 C 0.49371 -0.07976 0.54627
 C1145 C 0.46513 0.00436 0.58961
 C1146 C 0.59048 0.03851 0.48750
 C1147 C 0.53625 0.00981 0.41495
 C1148 C 0.51281 0.09127 0.45972
 H1149 H 0.50105 -0.02791 0.44400
 H1150 H 0.47453 0.06887 0.49546
 H1151 H 0.46040 -0.03139 0.54675
 H1152 H 0.56460 0.00873 0.52847
 H1153 H 0.57515 -0.05074 0.50751
 H1154 H 0.56837 -0.03644 0.55317
 H1155 H 0.44403 0.06592 0.45584
 H1156 H 0.41495 0.04025 0.49152
 H1157 H 0.54003 -0.05686 0.44288
 H1158 H 0.50893 -0.08401 0.47734
 H1159 H 0.49752 0.09607 0.53048
 H1160 H 0.46324 0.06978 0.55739
 H1161 H 0.43908 -0.03992 0.45056
 H1162 H 0.46307 -0.00823 0.41900
 H1163 H 0.53342 0.02388 0.58682
 H1164 H 0.56732 0.05266 0.55294
 O1165 O -0.00651 0.43162 1.04667
 O1166 O 0.04223 0.45120 1.05277
 O1167 O -0.05977 0.50870 1.06330
 O1168 O -0.06594 0.55403 1.04483
 O1169 O -0.07860 0.45119 0.99086
 O1170 O -0.05761 0.44705 0.94346
 O1171 O 0.01884 0.58478 0.98556
 O1172 O 0.00524 0.58391 1.03454
 O1173 O 0.07581 0.51139 0.97480
 O1174 O 0.07257 0.45853 0.98506
 O1175 O 0.00612 0.52557 0.91553
 O1176 O -0.04630 0.51675 0.91558
 O1177 O -0.00840 0.57206 0.94593
 O1178 O -0.05895 0.55099 0.93993
 O1179 O 0.04492 0.49688 0.92954
 O1180 O 0.04773 0.44593 0.95159
 O1181 O 0.06364 0.55205 1.00134
 O1182 O 0.04276 0.55745 1.04894
 O1183 O -0.03110 0.41805 1.00567
 O1184 O -0.02167 0.42108 0.95534
 O1185 O -0.09158 0.49251 1.01618
 O1186 O -0.08618 0.54535 1.00301
 O1187 O -0.02086 0.48020 1.07774
 O1188 O 0.03105 0.48905 1.07637
 Zr1189 Zr 0.00503 0.47658 1.04014
 O1190 O 0.03473 0.50226 1.01557
 Zr1191 Zr -0.05214 0.51757 1.01931
 O1192 O -0.02471 0.54550 0.99433
 Zr1193 Zr -0.03355 0.45773 0.98148
 O1194 O -0.00579 0.48301 0.95445
 Zr1195 Zr 0.01859 0.54587 1.01105
 O1196 O -0.00978 0.52103 1.03846
 Zr1197 Zr 0.03659 0.48602 0.97302
 O1198 O 0.00968 0.45783 0.99863
 Zr1199 Zr -0.02058 0.52735 0.95262
 O1200 O -0.05065 0.50102 0.97674
 O1201 O -0.03763 0.47385 1.02345
 O1202 O 0.02256 0.53013 0.96873
 C1203 C -0.01966 0.41225 1.03054
 C1204 C -0.04514 0.49406 1.08252
 C1205 C -0.09761 0.46737 1.00415
 C1206 C 0.00645 0.59085 0.96118
 C1207 C 0.08231 0.53616 0.98728
 C1208 C 0.03051 0.51209 0.91058
 H1209 H 0.05434 0.50182 1.02506
 H1210 H -0.00543 0.47365 0.93510
 H1211 H -0.05068 0.46141 1.03567
 H1212 H -0.03314 0.56580 0.99398
 H1213 H -0.00698 0.57665 1.05082
 H1214 H -0.05453 0.57170 1.03854
 H1215 H 0.03425 0.44358 0.93479
 H1216 H -0.00124 0.41569 0.96096
 H1217 H 0.05650 0.54101 1.05357
 H1218 H 0.02553 0.50981 1.08115
 H1219 H -0.04130 0.49617 0.90977
 H1220 H -0.07020 0.46450 0.93900
 H1221 H 0.04723 0.43846 1.03604
 H1222 H 0.07906 0.46453 1.00470
 H1223 H -0.09290 0.53664 0.98440
 H1224 H -0.06186 0.56740 0.95390
 O1225 O 0.02145 0.41523 0.52653
 O1226 O 0.00822 0.41036 0.47631
 O1227 O 0.08427 0.48988 0.52042
 O1228 O 0.08244 0.53707 0.50534
 O1229 O 0.01794 0.48717 0.58778
 O1230 O -0.03408 0.49816 0.58789
 O1231 O -0.00323 0.55919 0.44554
 O1232 O 0.04593 0.53815 0.44123
 O1233 O -0.05882 0.48254 0.44300
 O1234 O -0.06126 0.43618 0.47189
 O1235 O -0.07052 0.54858 0.50722
 O1236 O -0.04339 0.56041 0.55356
 O1237 O -0.02750 0.57741 0.48460
 O1238 O -0.01197 0.58417 0.53362
 O1239 O -0.08569 0.50489 0.48710
 O1240 O -0.08208 0.45348 0.50569
 O1241 O -0.02113 0.50852 0.42263
 O1242 O 0.02814 0.49848 0.41927
 O1243 O 0.00006 0.43605 0.56603
 O1244 O -0.04763 0.45671 0.57110
 O1245 O 0.05683 0.51120 0.56717
 O1246 O 0.05654 0.55780 0.53948
 O1247 O 0.06890 0.44502 0.50287
 O1248 O 0.04382 0.43239 0.45897
 Zr1249 Zr 0.02298 0.45039 0.49583
 O1250 O -0.00637 0.47189 0.46696
 Zr1251 Zr 0.04528 0.51511 0.52310
 O1252 O 0.01666 0.53929 0.49565
 Zr1253 Zr -0.01102 0.47910 0.55286
 O1254 O -0.04210 0.50117 0.52660
 Zr1255 Zr 0.00856 0.51528 0.45741
 O1256 O 0.04006 0.49232 0.48342
 Zr1257 Zr -0.04728 0.47851 0.48707
 O1258 O -0.01893 0.45409 0.51499
 Zr1259 Zr -0.02507 0.54301 0.51508
 O1260 O 0.00478 0.52221 0.54412
 O1261 O 0.03032 0.47285 0.53446
 O1262 O -0.03295 0.52125 0.47580
 C1263 C 0.01151 0.41401 0.55261
 C1264 C 0.08916 0.46311 0.51184
 C1265 C 0.04333 0.50000 0.58903
 C1266 C -0.01696 0.57999 0.45909
 C1267 C -0.04603 0.49468 0.42118
 C1268 C -0.09046 0.53143 0.49631
 H1269 H -0.00840 0.45968 0.44926
 H1270 H -0.06090 0.50279 0.53721
 H1271 H 0.04423 0.46201 0.54729
 H1272 H 0.02556 0.55899 0.49149
 H1273 H 0.06359 0.52686 0.44763
 H1274 H 0.07519 0.55036 0.48975
 H1275 H -0.08832 0.46384 0.52350
 H1276 H -0.05427 0.44182 0.55662
 H1277 H 0.02781 0.47650 0.42063
 H1278 H 0.05654 0.44838 0.45098
 H1279 H -0.05984 0.54719 0.55944
 H1280 H -0.02663 0.51883 0.59007
 H1281 H -0.01157 0.40612 0.48433
 H1282 H -0.04795 0.43025 0.45604
 H1283 H 0.04178 0.56275 0.55442
 H1284 H 0.00747 0.58954 0.52547
 O1285 O 0.51517 0.91470 0.02892
 O1286 O 0.50256 0.90975 -0.02097
 O1287 O 0.57747 0.98953 0.02440
 O1288 O 0.57620 1.03697 0.01146
 O1289 O 0.50955 0.98537 0.09084
 O1290 O 0.45796 0.99723 0.08989
 O1291 O 0.49322 1.05843 -0.05232
 O1292 O 0.54124 1.03783 -0.05561
 O1293 O 0.43629 0.98274 -0.05580
 O1294 O 0.43359 0.93567 -0.02706
 O1295 O 0.42354 1.04839 0.00677
 O1296 O 0.44773 1.06091 0.05351
 O1297 O 0.46829 1.07731 -0.01397
 O1298 O 0.48189 1.08291 0.03686
 O1299 O 0.40850 1.00426 -0.01249
 O1300 O 0.41139 0.95329 0.00587
 O1301 O 0.47482 1.00849 -0.07500
 O1302 O 0.52609 0.99695 -0.07621
 O1303 O 0.49135 0.93442 0.06764
 O1304 O 0.44371 0.95646 0.07209
 O1305 O 0.54875 1.00984 0.07130
 O1306 O 0.54869 1.05710 0.04406
 O1307 O 0.56239 0.94489 0.00612
 O1308 O 0.53810 0.93238 -0.03811
 Zr1309 Zr 0.51672 0.94996 -0.00138
 O1310 O 0.48821 0.97142 -0.03088
 Zr1311 Zr 0.53836 1.01444 0.02706
 O1312 O 0.51089 1.03866 -0.00137
 Zr1313 Zr 0.48132 0.97818 0.05507
 O1314 O 0.45121 1.00076 0.02798
 Zr1315 Zr 0.50390 1.01463 -0.03979
 O1316 O 0.53444 0.99184 -0.01283
 Zr1317 Zr 0.44691 0.97813 -0.01164
 O1318 O 0.47437 0.95349 0.01684
 Zr1319 Zr 0.46859 1.04263 0.01671
 O1320 O 0.49723 1.02143 0.04680
 O1321 O 0.52312 0.97205 0.03765
 O1322 O 0.46185 1.02080 -0.02264
 C1323 C 0.50388 0.91285 0.05436
 C1324 C 0.58246 0.96296 0.01541
 C1325 C 0.53491 0.99822 0.09273
 C1326 C 0.47974 1.07963 -0.03920
 C1327 C 0.44979 0.99504 -0.07707
 C1328 C 0.40373 1.03106 -0.00419
 H1329 H 0.48647 0.95917 -0.04857
 H1330 H 0.43208 1.00248 0.03800
 H1331 H 0.53675 0.96102 0.05063
 H1332 H 0.52012 1.05827 -0.00521
 H1333 H 0.55891 1.02784 -0.04744
 H1334 H 0.56978 1.04970 -0.00490
 H1335 H 0.40502 0.96335 0.02380
 H1336 H 0.43762 0.94132 0.05765
 H1337 H 0.51997 0.97592 -0.07861
 H1338 H 0.54993 0.94887 -0.04644
 H1339 H 0.43259 1.04652 0.06010
 H1340 H 0.46473 1.01819 0.09146
 H1341 H 0.48239 0.90576 -0.01375
 H1342 H 0.44659 0.93027 -0.04335
 H1343 H 0.53388 1.06149 0.05912
 H1344 H 0.50090 1.08906 0.02825
 O1345 O 0.40785 0.49609 0.02619
 O1346 O 0.41080 0.44532 0.01051
 O1347 O 0.48084 0.49935 0.08813
 O1348 O 0.52930 0.48865 0.08658
 O1349 O 0.47164 0.57031 0.02545
 O1350 O 0.47957 0.57450 -0.02510
 O1351 O 0.56056 0.43596 0.00113
 O1352 O 0.54032 0.42663 0.04872
 O1353 O 0.48760 0.42636 -0.05541
 O1354 O 0.43679 0.44798 -0.05633
 O1355 O 0.54190 0.50056 -0.06330
 O1356 O 0.54737 0.54821 -0.03469
 O1357 O 0.57362 0.47935 -0.02091
 O1358 O 0.57298 0.53001 -0.00420
 O1359 O 0.50096 0.47609 -0.07939
 O1360 O 0.44856 0.48613 -0.07548
 O1361 O 0.51438 0.40694 -0.01810
 O1362 O 0.50454 0.39944 0.02976
 O1363 O 0.42214 0.54041 0.00667
 O1364 O 0.44268 0.55202 -0.03945
 O1365 O 0.49650 0.55016 0.06371
 O1366 O 0.54548 0.52883 0.06324
 O1367 O 0.43968 0.47568 0.07122
 O1368 O 0.43485 0.42941 0.04566
 Zr1369 Zr 0.44686 0.47056 0.02656
 O1370 O 0.47220 0.44576 -0.00283
 Zr1371 Zr 0.50615 0.50654 0.05060
 O1372 O 0.53408 0.48360 0.02191
 Zr1373 Zr 0.46688 0.53465 -0.00396
 O1374 O 0.49267 0.51262 -0.03495
 Zr1375 Zr 0.51588 0.44166 0.01234
 O1376 O 0.48944 0.46314 0.04378
 Zr1377 Zr 0.47594 0.46943 -0.04188
 O1378 O 0.44783 0.49288 -0.01357
 Zr1379 Zr 0.53540 0.50574 -0.01834
 O1380 O 0.51043 0.53079 0.01167
 O1381 O 0.46322 0.51294 0.03559
 O1382 O 0.51939 0.46315 -0.02765
 C1383 C 0.40256 0.52272 0.01732
 C1384 C 0.45539 0.48708 0.09168
 C1385 C 0.48396 0.57195 0.05057
 C1386 C 0.57943 0.45307 -0.01146
 C1387 C 0.50221 0.40526 -0.04324
 C1388 C 0.52595 0.48883 -0.08349
 H1389 H 0.46284 0.42604 -0.00575
 H1390 H 0.49280 0.52463 -0.05292
 H1391 H 0.45074 0.52414 0.04930
 H1392 H 0.55391 0.48172 0.03079
 H1393 H 0.52818 0.43055 0.06607
 H1394 H 0.54567 0.47644 0.07902
 H1395 H 0.45519 0.50667 -0.07990
 H1396 H 0.42960 0.53576 -0.04638
 H1397 H 0.48279 0.39788 0.02941
 H1398 H 0.45128 0.42367 0.05878
 H1399 H 0.53375 0.55308 -0.05084
 H1400 H 0.50038 0.57832 -0.01951
 H1401 H 0.40572 0.45380 -0.00868
 H1402 H 0.43441 0.42930 -0.04514
 H1403 H 0.54887 0.54493 0.04892
 H1404 H 0.57937 0.52147 0.01457
 O1405 O -0.01440 0.00244 0.58199
 O1406 O 0.03701 -0.00985 0.58104
 O1407 O -0.01730 0.07617 0.52159
 O1408 O -0.01156 0.08486 0.47534
 O1409 O -0.08280 0.00232 0.51647
 O1410 O -0.07956 -0.04712 0.49785
 O1411 O 0.05820 0.01048 0.43639
 O1412 O 0.05956 0.05547 0.46364
 O1413 O 0.07056 -0.05803 0.49643
 O1414 O 0.04516 -0.07170 0.54331
 O1415 O 0.00094 -0.06405 0.43618
 O1416 O -0.04732 -0.04128 0.43093
 O1417 O 0.01885 -0.01304 0.41567
 O1418 O -0.03477 -0.00129 0.41667
 O1419 O 0.02399 -0.08603 0.47450
 O1420 O 0.01272 -0.09405 0.52360
 O1421 O 0.08579 -0.01327 0.47869
 O1422 O 0.08443 0.03542 0.49958
 O1423 O -0.05440 -0.02024 0.56152
 O1424 O -0.05680 -0.06587 0.53321
 O1425 O -0.06713 0.04735 0.49973
 O1426 O -0.04264 0.05820 0.45301
 O1427 O 0.00356 0.05383 0.56101
 O1428 O 0.05157 0.03147 0.56449
 Zr1429 Zr 0.01360 0.01070 0.54667
 O1430 O 0.04325 -0.01117 0.51908
 Zr1431 Zr -0.02183 0.04172 0.49099
 O1432 O 0.00659 0.02147 0.46105
 Zr1433 Zr -0.04411 -0.02352 0.51724
 O1434 O -0.01702 -0.04673 0.48814
 Zr1435 Zr 0.04776 0.01317 0.48044
 O1436 O 0.02067 0.03695 0.50940
 Zr1437 Zr 0.02538 -0.05230 0.50613
 O1438 O -0.00289 -0.03208 0.53681
 Zr1439 Zr -0.00994 -0.02107 0.45060
 O1440 O -0.04025 0.00061 0.47827
 O1441 O -0.02818 0.01821 0.52918
 O1442 O 0.03216 -0.02873 0.46769
 C1443 C -0.04018 -0.00950 0.58334
 C1444 C -0.00721 0.07647 0.54768
 C1445 C -0.08738 0.02941 0.50867
 C1446 C 0.04427 -0.00025 0.41447
 C1447 C 0.09048 -0.04033 0.48633
 C1448 C 0.01320 -0.08642 0.44871
 H1449 H 0.06232 -0.01371 0.52928
 H1450 H -0.02656 -0.06607 0.48372
 H1451 H -0.04131 0.02904 0.54257
 H1452 H 0.00860 0.03449 0.44387
 H1453 H 0.05135 0.07060 0.47692
 H1454 H 0.00578 0.08283 0.46261
 H1455 H -0.00808 -0.09756 0.51789
 H1456 H -0.04140 -0.07200 0.54732
 H1457 H 0.08953 0.02512 0.51787
 H1458 H 0.05715 0.04767 0.55097
 H1459 H -0.05331 -0.05831 0.44322
 H1460 H -0.08332 -0.03749 0.47888
 H1461 H 0.03011 -0.03081 0.58185
 H1462 H 0.06200 -0.05895 0.54926
 H1463 H -0.05781 0.04337 0.44722
 H1464 H -0.02583 0.01836 0.41232
 O1465 O 0.73334 0.15998 0.26744
 O1466 O 0.78113 0.16200 0.24720
 O1467 O 0.73667 0.22824 0.33216
 O1468 O 0.74389 0.27654 0.33486
 O1469 O 0.66133 0.22409 0.27168
 O1470 O 0.65460 0.23604 0.22328
 O1471 O 0.79703 0.31317 0.24880
 O1472 O 0.80861 0.29028 0.29269
 O1473 O 0.79971 0.24501 0.18616
 O1474 O 0.77644 0.19659 0.18048
 O1475 O 0.72997 0.30456 0.18793
 O1476 O 0.68440 0.30880 0.21616
 O1477 O 0.75299 0.33052 0.23218
 O1478 O 0.70169 0.32714 0.25178
 O1479 O 0.75003 0.26404 0.16627
 O1480 O 0.73669 0.21002 0.16674
 O1481 O 0.82181 0.26815 0.22441
 O1482 O 0.83000 0.25146 0.27408
 O1483 O 0.68934 0.17532 0.24865
 O1484 O 0.67687 0.20142 0.20362
 O1485 O 0.68346 0.24597 0.31063
 O1486 O 0.70676 0.29577 0.31275
 O1487 O 0.75876 0.18825 0.31133
 O1488 O 0.80194 0.18453 0.28127
 Zr1489 Zr 0.75970 0.19842 0.26695
 O1490 O 0.78297 0.22574 0.23799
 Zr1491 Zr 0.72655 0.25628 0.29704
 O1492 O 0.74945 0.28638 0.27023
 Zr1493 Zr 0.69528 0.22164 0.24097
 O1494 O 0.71582 0.25119 0.21163
 Zr1495 Zr 0.78957 0.26779 0.25688
 O1496 O 0.76875 0.23946 0.28721
 Zr1497 Zr 0.75731 0.23409 0.20077
 O1498 O 0.73561 0.20309 0.22801
 Zr1499 Zr 0.72537 0.29234 0.23161
 O1500 O 0.70092 0.26422 0.25967
 O1501 O 0.71859 0.21445 0.27927
 O1502 O 0.76617 0.27599 0.21862
 C1503 C 0.70681 0.15510 0.25881
 C1504 C 0.74943 0.20273 0.33337
 C1505 C 0.66095 0.23481 0.29745
 C1506 C 0.78015 0.33422 0.23975
 C1507 C 0.82181 0.25774 0.19853
 C1508 C 0.73959 0.29065 0.16564
 H1509 H 0.80178 0.21589 0.23315
 H1510 H 0.70305 0.25371 0.19437
 H1511 H 0.70817 0.20101 0.29286
 H1512 H 0.75266 0.30529 0.28080
 H1513 H 0.80290 0.27895 0.31022
 H1514 H 0.75917 0.29094 0.32861
 H1515 H 0.71760 0.21972 0.16230
 H1516 H 0.69185 0.18738 0.19622
 H1517 H 0.83544 0.23322 0.26339
 H1518 H 0.80934 0.20013 0.29465
 H1519 H 0.67722 0.29517 0.20082
 H1520 H 0.65307 0.25751 0.22797
 H1521 H 0.77131 0.15895 0.22821
 H1522 H 0.79298 0.18973 0.19286
 H1523 H 0.68901 0.29952 0.30066
 H1524 H 0.71363 0.33428 0.26841
 O1525 O 0.76147 0.70490 0.68454
 O1526 O 0.80489 0.70126 0.71364
 O1527 O 0.69307 0.69445 0.74741
 O1528 O 0.67710 0.71749 0.78646
 O1529 O 0.68781 0.76581 0.68276
 O1530 O 0.71174 0.81197 0.67711
 O1531 O 0.75541 0.78194 0.82823
 O1532 O 0.74126 0.73176 0.82923
 O1533 O 0.82684 0.78555 0.76940
 O1534 O 0.83464 0.77356 0.72069
 O1535 O 0.75612 0.84862 0.76384
 O1536 O 0.70616 0.84642 0.74394
 O1537 O 0.73299 0.82180 0.80716
 O1538 O 0.68708 0.82474 0.77678
 O1539 O 0.80008 0.83222 0.74675
 O1540 O 0.81226 0.80520 0.69988
 O1541 O 0.80493 0.76459 0.80871
 O1542 O 0.78330 0.71475 0.81284
 O1543 O 0.73911 0.74442 0.66266
 O1544 O 0.75259 0.79688 0.66286
 O1545 O 0.66620 0.74241 0.72092
 O1546 O 0.66066 0.75926 0.77109
 O1547 O 0.73667 0.67789 0.72944
 O1548 O 0.78566 0.68095 0.74966
 Zr1549 Zr 0.76347 0.71631 0.72849
 O1550 O 0.78747 0.74432 0.75651
 Zr1551 Zr 0.69935 0.74065 0.75313
 O1552 O 0.72061 0.76907 0.78309
 Zr1553 Zr 0.73110 0.77425 0.69702
 O1554 O 0.75292 0.80483 0.72443
 Zr1555 Zr 0.76257 0.75247 0.79384
 O1556 O 0.73961 0.72176 0.76708
 Zr1557 Zr 0.79340 0.78659 0.73769
 O1558 O 0.77294 0.75712 0.70782
 Zr1559 Zr 0.72920 0.81032 0.76307
 O1560 O 0.70530 0.78281 0.73386
 O1561 O 0.72260 0.73271 0.71535
 O1562 O 0.77054 0.79452 0.77597
 C1563 C 0.75147 0.71863 0.66217
 C1564 C 0.71015 0.67366 0.73822
 C1565 C 0.66555 0.75391 0.69540
 C1566 C 0.74353 0.80786 0.82921
 C1567 C 0.82715 0.77609 0.79565
 C1568 C 0.78304 0.85281 0.75638
 H1569 H 0.80660 0.73476 0.76095
 H1570 H 0.75552 0.82392 0.71401
 H1571 H 0.71181 0.71906 0.70213
 H1572 H 0.70823 0.77109 0.80052
 H1573 H 0.73076 0.71405 0.82146
 H1574 H 0.68558 0.72445 0.80505
 H1575 H 0.80038 0.82276 0.69419
 H1576 H 0.77273 0.78847 0.66164
 H1577 H 0.80109 0.70993 0.80150
 H1578 H 0.77536 0.67764 0.76824
 H1579 H 0.71684 0.85230 0.72621
 H1580 H 0.69742 0.82003 0.69115
 H1581 H 0.81253 0.71690 0.70047
 H1582 H 0.83797 0.75262 0.72662
 H1583 H 0.65650 0.77789 0.76028
 H1584 H 0.68115 0.81227 0.79345
 O1585 O 0.31016 0.17204 0.74605
 O1586 O 0.31353 0.19213 0.69808
 O1587 O 0.33375 0.25063 0.79632
 O1588 O 0.31610 0.29612 0.80307
 O1589 O 0.25776 0.19605 0.82157
 O1590 O 0.20961 0.18925 0.80208
 O1591 O 0.24938 0.32682 0.72506
 O1592 O 0.30125 0.32424 0.73521
 O1593 O 0.23298 0.25231 0.67000
 O1594 O 0.24403 0.19852 0.67401
 O1595 O 0.17835 0.26814 0.74117
 O1596 O 0.18307 0.25884 0.79396
 O1597 O 0.21030 0.31410 0.75312
 O1598 O 0.20735 0.29489 0.80266
 O1599 O 0.18917 0.23825 0.70306
 O1600 O 0.20972 0.18812 0.69883
 O1601 O 0.26062 0.29338 0.68028
 O1602 O 0.30993 0.29905 0.69576
 O1603 O 0.27217 0.16057 0.77607
 O1604 O 0.22036 0.16287 0.76705
 O1605 O 0.28737 0.23585 0.83144
 O1606 O 0.27547 0.28831 0.82617
 O1607 O 0.34417 0.21988 0.75866
 O1608 O 0.33963 0.22891 0.70817
 Zr1609 Zr 0.30410 0.21737 0.73550
 O1610 O 0.27742 0.24338 0.70783
 Zr1611 Zr 0.28835 0.25974 0.79207
 O1612 O 0.26091 0.28759 0.76680
 Zr1613 Zr 0.24726 0.20008 0.77729
 O1614 O 0.21805 0.22517 0.75139
 Zr1615 Zr 0.27456 0.28731 0.72346
 O1616 O 0.30438 0.26216 0.74934
 Zr1617 Zr 0.23384 0.22738 0.70876
 O1618 O 0.26126 0.19914 0.73392
 Zr1619 Zr 0.21791 0.26971 0.76542
 O1620 O 0.24459 0.24375 0.79354
 O1621 O 0.29056 0.21563 0.77846
 O1622 O 0.23109 0.27174 0.72226
 C1623 C 0.29539 0.15366 0.76181
 C1624 C 0.35164 0.23478 0.78127
 C1625 C 0.27304 0.21237 0.83903
 C1626 C 0.22501 0.33288 0.73786
 C1627 C 0.24493 0.27728 0.66297
 C1628 C 0.17131 0.25421 0.71786
 H1629 H 0.28554 0.24271 0.68805
 H1630 H 0.19820 0.21601 0.75233
 H1631 H 0.30360 0.20332 0.79093
 H1632 H 0.26142 0.30798 0.77489
 H1633 H 0.31932 0.31617 0.74452
 H1634 H 0.30902 0.31364 0.79203
 H1635 H 0.19565 0.18451 0.71475
 H1636 H 0.22554 0.15684 0.74711
 H1637 H 0.31589 0.28099 0.68510
 H1638 H 0.34527 0.24966 0.71311
 H1639 H 0.17368 0.24021 0.78698
 H1640 H 0.20468 0.20732 0.81331
 H1641 H 0.29606 0.17934 0.69438
 H1642 H 0.26215 0.20609 0.66464
 H1643 H 0.25617 0.28094 0.83320
 H1644 H 0.22284 0.31028 0.80523
 O1645 O 0.18594 0.75119 0.29561
 O1646 O 0.20986 0.70301 0.29705
 O1647 O 0.26053 0.80815 0.31737
 O1648 O 0.30520 0.81756 0.29816
 O1649 O 0.20101 0.83162 0.24750
 O1650 O 0.19549 0.81393 0.19819
 O1651 O 0.33652 0.74267 0.22782
 O1652 O 0.33665 0.75294 0.27942
 O1653 O 0.26617 0.68082 0.21665
 O1654 O 0.21301 0.68170 0.22935
 O1655 O 0.27297 0.75732 0.16201
 O1656 O 0.26008 0.81132 0.16966
 O1657 O 0.31967 0.77216 0.19123
 O1658 O 0.29800 0.82092 0.18989
 O1659 O 0.24886 0.71474 0.17435
 O1660 O 0.20061 0.70610 0.19553
 O1661 O 0.30756 0.69423 0.24152
 O1662 O 0.31579 0.70942 0.28824
 O1663 O 0.17048 0.78151 0.25906
 O1664 O 0.17089 0.77618 0.20880
 O1665 O 0.24237 0.84451 0.27275
 O1666 O 0.29324 0.84360 0.25985
 O1667 O 0.23338 0.76667 0.32743
 O1668 O 0.24580 0.71601 0.32192
 Zr1669 Zr 0.23117 0.74396 0.28783
 O1670 O 0.25761 0.71844 0.26011
 Zr1671 Zr 0.26831 0.80565 0.27221
 O1672 O 0.29579 0.78288 0.24283
 Zr1673 Zr 0.20842 0.78745 0.23401
 O1674 O 0.23299 0.76312 0.20369
 Zr1675 Zr 0.29958 0.73805 0.25527
 O1676 O 0.27449 0.76143 0.28654
 Zr1677 Zr 0.23927 0.71914 0.21832
 O1678 O 0.21106 0.74235 0.24672
 Zr1679 Zr 0.27571 0.78113 0.20152
 O1680 O 0.25020 0.80741 0.23000
 O1681 O 0.22585 0.78832 0.27578
 O1682 O 0.28177 0.73662 0.21350
 C1683 C 0.16591 0.76592 0.28186
 C1684 C 0.24655 0.79081 0.33497
 C1685 C 0.21704 0.85053 0.26156
 C1686 C 0.33994 0.75709 0.20394
 C1687 C 0.29177 0.67521 0.22746
 C1688 C 0.26159 0.73176 0.15586
 H1689 H 0.25886 0.69795 0.26794
 H1690 H 0.22273 0.76380 0.18475
 H1691 H 0.21336 0.79963 0.28940
 H1692 H 0.31537 0.79270 0.24232
 H1693 H 0.32917 0.76042 0.29816
 H1694 H 0.32300 0.80937 0.28882
 H1695 H 0.19515 0.72251 0.18222
 H1696 H 0.16762 0.75453 0.21158
 H1697 H 0.29858 0.69948 0.29713
 H1698 H 0.26600 0.72273 0.32713
 H1699 H 0.24216 0.80254 0.16068
 H1700 H 0.21144 0.82872 0.19508
 H1701 H 0.19557 0.69939 0.28110
 H1702 H 0.22224 0.67190 0.24634
 H1703 H 0.28562 0.85000 0.24069
 H1704 H 0.31272 0.82529 0.20524
 O1705 O 0.23241 0.74217 0.83580
 O1706 O 0.24712 0.79277 0.82780
 O1707 O 0.16409 0.73019 0.77212
 O1708 O 0.15872 0.73224 0.72495
 O1709 O 0.23409 0.66332 0.78167
 O1710 O 0.28391 0.66170 0.76800
 O1711 O 0.24162 0.79165 0.68035
 O1712 O 0.19464 0.79951 0.70184
 O1713 O 0.30348 0.81061 0.74560
 O1714 O 0.31405 0.79213 0.79339
 O1715 O 0.30882 0.73174 0.69463
 O1716 O 0.28385 0.68258 0.69693
 O1717 O 0.26220 0.74727 0.66830
 O1718 O 0.24676 0.69520 0.67659
 O1719 O 0.32881 0.76133 0.72961
 O1720 O 0.33235 0.75327 0.78318
 O1721 O 0.26192 0.82554 0.72193
 O1722 O 0.21158 0.82841 0.73638
 O1723 O 0.25485 0.69857 0.82411
 O1724 O 0.30136 0.68970 0.79987
 O1725 O 0.19224 0.67723 0.75777
 O1726 O 0.18456 0.69653 0.70840
 O1727 O 0.18423 0.75858 0.80802
 O1728 O 0.20871 0.80604 0.80571
 Zr1729 Zr 0.22834 0.76456 0.79592
 O1730 O 0.25400 0.78856 0.76612
 Zr1731 Zr 0.19982 0.72167 0.74434
 O1732 O 0.22374 0.74451 0.71206
 Zr1733 Zr 0.26126 0.70119 0.77901
 O1734 O 0.28788 0.72222 0.74779
 Zr1735 Zr 0.23343 0.78833 0.72516
 O1736 O 0.20583 0.76687 0.75585
 Zr1737 Zr 0.29446 0.76695 0.75959
 O1738 O 0.27036 0.74501 0.79256
 Zr1739 Zr 0.26530 0.72432 0.70791
 O1740 O 0.24024 0.69970 0.73818
 O1741 O 0.22000 0.72036 0.78483
 O1742 O 0.27448 0.76863 0.71876
 C1743 C 0.24348 0.71674 0.84246
 C1744 C 0.16246 0.74516 0.79580
 C1745 C 0.20841 0.65789 0.77104
 C1746 C 0.25263 0.77335 0.66190
 C1747 C 0.28806 0.83021 0.73200
 C1748 C 0.33018 0.74673 0.70574
 H1749 H 0.25680 0.80896 0.77376
 H1750 H 0.30672 0.71134 0.74617
 H1751 H 0.20782 0.70951 0.79916
 H1752 H 0.21240 0.74444 0.69369
 H1753 H 0.17774 0.79369 0.71414
 H1754 H 0.16273 0.74686 0.70940
 H1755 H 0.33877 0.73382 0.77542
 H1756 H 0.30782 0.70747 0.81096
 H1757 H 0.21989 0.83549 0.75500
 H1758 H 0.19366 0.80979 0.79049
 H1759 H 0.30139 0.67938 0.70942
 H1760 H 0.27684 0.65602 0.74844
 H1761 H 0.26713 0.78498 0.83200
 H1762 H 0.29956 0.80731 0.79942
 H1763 H 0.19893 0.68027 0.70534
 H1764 H 0.22836 0.70436 0.66916
 O1765 O 0.25107 0.21378 0.17564
 O1766 O 0.29817 0.20928 0.19993
 O1767 O 0.19159 0.19271 0.24553
 O1768 O 0.17673 0.21205 0.28635
 O1769 O 0.17784 0.26861 0.18663
 O1770 O 0.19710 0.31825 0.18640
 O1771 O 0.25828 0.27467 0.32769
 O1772 O 0.24482 0.22372 0.32437
 O1773 O 0.32207 0.28930 0.26402
 O1774 O 0.32666 0.28055 0.21401
 O1775 O 0.24925 0.34785 0.26941
 O1776 O 0.19817 0.34516 0.25557
 O1777 O 0.23242 0.31523 0.31244
 O1778 O 0.18314 0.31873 0.28714
 O1779 O 0.29208 0.33487 0.24755
 O1780 O 0.30107 0.31301 0.19747
 O1781 O 0.30653 0.25919 0.30062
 O1782 O 0.28565 0.21023 0.30330
 O1783 O 0.22838 0.25625 0.16062
 O1784 O 0.23660 0.30835 0.16596
 O1785 O 0.16024 0.24077 0.22403
 O1786 O 0.15862 0.25438 0.27632
 O1787 O 0.23304 0.18039 0.22081
 O1788 O 0.28385 0.18361 0.23463
 Zr1789 Zr 0.25806 0.22014 0.22051
 O1790 O 0.28365 0.24586 0.24946
 Zr1791 Zr 0.19597 0.23870 0.25364
 O1792 O 0.21912 0.26465 0.28445
 Zr1793 Zr 0.22092 0.27982 0.19902
 O1794 O 0.24434 0.30808 0.22727
 Zr1795 Zr 0.26243 0.24887 0.28971
 O1796 O 0.23812 0.22035 0.26169
 Zr1797 Zr 0.28638 0.29019 0.23490
 O1798 O 0.26412 0.26349 0.20386
 Zr1799 Zr 0.22423 0.30820 0.26814
 O1800 O 0.19840 0.28296 0.23857
 O1801 O 0.21570 0.23600 0.21324
 O1802 O 0.26711 0.29294 0.27572
 C1803 C 0.23993 0.23069 0.15581
 C1804 C 0.20827 0.17379 0.23266
 C1805 C 0.15742 0.25381 0.19932
 C1806 C 0.24566 0.29992 0.33209
 C1807 C 0.32614 0.27518 0.28784
 C1808 C 0.27529 0.35379 0.26022
 H1809 H 0.30341 0.23673 0.25117
 H1810 H 0.24524 0.32823 0.21858
 H1811 H 0.20457 0.22301 0.19967
 H1812 H 0.20851 0.26428 0.30308
 H1813 H 0.23401 0.20669 0.31564
 H1814 H 0.18715 0.21680 0.30466
 H1815 H 0.28865 0.33095 0.19490
 H1816 H 0.25743 0.30283 0.16257
 H1817 H 0.30078 0.20571 0.28863
 H1818 H 0.27614 0.17769 0.25381
 H1819 H 0.20514 0.35179 0.23635
 H1820 H 0.18207 0.32170 0.20150
 H1821 H 0.30351 0.22666 0.18776
 H1822 H 0.33084 0.25917 0.21722
 H1823 H 0.15218 0.27301 0.26668
 H1824 H 0.17962 0.30449 0.30314
 O1825 O 0.75178 0.68418 0.31014
 O1826 O 0.70441 0.68144 0.28753
 O1827 O 0.80946 0.67068 0.23788
 O1828 O 0.81694 0.69255 0.19477
 O1829 O 0.82846 0.74267 0.29768
 O1830 O 0.80673 0.78929 0.30773
 O1831 O 0.73728 0.76041 0.16601
 O1832 O 0.75015 0.70936 0.16344
 O1833 O 0.67702 0.76656 0.23490
 O1834 O 0.67820 0.75185 0.28623
 O1835 O 0.74943 0.82697 0.23023
 O1836 O 0.80280 0.82221 0.24158
 O1837 O 0.76268 0.80026 0.18389
 O1838 O 0.81344 0.80177 0.20457
 O1839 O 0.70799 0.81136 0.25323
 O1840 O 0.70183 0.78633 0.30053
 O1841 O 0.69055 0.74205 0.19404
 O1842 O 0.71005 0.69415 0.18522
 O1843 O 0.77912 0.72293 0.32760
 O1844 O 0.76965 0.77517 0.32909
 O1845 O 0.84170 0.71680 0.25755
 O1846 O 0.83970 0.73400 0.20801
 O1847 O 0.76887 0.65590 0.26291
 O1848 O 0.71769 0.65957 0.24993
 Zr1849 Zr 0.74369 0.69492 0.26666
 O1850 O 0.71638 0.72333 0.24226
 Zr1851 Zr 0.80340 0.71689 0.23156
 O1852 O 0.77859 0.74632 0.20531
 Zr1853 Zr 0.78321 0.75193 0.29171
 O1854 O 0.75767 0.78293 0.26815
 Zr1855 Zr 0.73500 0.73074 0.20132
 O1856 O 0.76075 0.69925 0.22457
 Zr1857 Zr 0.71496 0.76574 0.26148
 O1858 O 0.73951 0.73614 0.28801
 Zr1859 Zr 0.77468 0.78780 0.22621
 O1860 O 0.80238 0.75941 0.25096
 O1861 O 0.78674 0.71006 0.27289
 O1862 O 0.73138 0.77296 0.21997
 C1863 C 0.76532 0.69798 0.33060
 C1864 C 0.79365 0.65073 0.25063
 C1865 C 0.84763 0.72924 0.28193
 C1866 C 0.74869 0.78658 0.16362
 C1867 C 0.67149 0.75546 0.20984
 C1868 C 0.72390 0.83163 0.24120
 H1869 H 0.69655 0.71416 0.24094
 H1870 H 0.75746 0.80207 0.27872
 H1871 H 0.79902 0.69636 0.28470
 H1872 H 0.78788 0.74821 0.18609
 H1873 H 0.76070 0.69114 0.16978
 H1874 H 0.80837 0.70242 0.17750
 H1875 H 0.71684 0.80155 0.30563
 H1876 H 0.74886 0.76935 0.33252
 H1877 H 0.69716 0.68690 0.20094
 H1878 H 0.72521 0.65529 0.23029
 H1879 H 0.79460 0.82958 0.26003
 H1880 H 0.81899 0.79673 0.29157
 H1881 H 0.69929 0.69758 0.30119
 H1882 H 0.67012 0.73349 0.27730
 H1883 H 0.84501 0.75342 0.21683
 H1884 H 0.81628 0.78857 0.18768
 O1885 O 0.77488 0.25667 0.65902
 O1886 O 0.76140 0.30797 0.66227
 O1887 O 0.84105 0.24779 0.72489
 O1888 O 0.84488 0.25498 0.77240
 O1889 O 0.76892 0.18275 0.71959
 O1890 O 0.71841 0.18402 0.73196
 O1891 O 0.76468 0.31922 0.80933
 O1892 O 0.81190 0.32350 0.78818
 O1893 O 0.70374 0.33451 0.74329
 O1894 O 0.69534 0.31324 0.69448
 O1895 O 0.69308 0.25923 0.79697
 O1896 O 0.71831 0.21015 0.80050
 O1897 O 0.74038 0.27760 0.82439
 O1898 O 0.75323 0.22519 0.82232
 O1899 O 0.67550 0.28630 0.75899
 O1900 O 0.67391 0.27682 0.70725
 O1901 O 0.74576 0.34974 0.76614
 O1902 O 0.79664 0.35002 0.75113
 O1903 O 0.75075 0.21486 0.67390
 O1904 O 0.70337 0.20917 0.69702
 O1905 O 0.81118 0.19749 0.74238
 O1906 O 0.81772 0.21944 0.79024
 O1907 O 0.82302 0.27505 0.68713
 O1908 O 0.79947 0.32243 0.68400
 Zr1909 Zr 0.77857 0.28237 0.69695
 O1910 O 0.75326 0.30971 0.72403
 Zr1911 Zr 0.80433 0.24289 0.75254
 O1912 O 0.78024 0.26895 0.78216
 Zr1913 Zr 0.74307 0.22155 0.71828
 O1914 O 0.71635 0.24615 0.74656
 Zr1915 Zr 0.77294 0.31182 0.76527
 O1916 O 0.80033 0.28710 0.73716
 Zr1917 Zr 0.71183 0.29002 0.73111
 O1918 O 0.73583 0.26433 0.70091
 Zr1919 Zr 0.73758 0.25089 0.78694
 O1920 O 0.76282 0.22297 0.75966
 O1921 O 0.78508 0.23900 0.71182
 O1922 O 0.73073 0.29438 0.77225
 C1923 C 0.76318 0.23100 0.65437
 C1924 C 0.84394 0.26154 0.70055
 C1925 C 0.79458 0.17758 0.73037
 C1926 C 0.75199 0.30340 0.82884
 C1927 C 0.71959 0.35431 0.75631
 C1928 C 0.67226 0.27280 0.78327
 H1929 H 0.75140 0.32961 0.71501
 H1930 H 0.69713 0.23579 0.74818
 H1931 H 0.79727 0.22674 0.69872
 H1932 H 0.79104 0.27002 0.80081
 H1933 H 0.82871 0.31602 0.77669
 H1934 H 0.84035 0.26917 0.78811
 H1935 H 0.66845 0.25650 0.71369
 H1936 H 0.69803 0.22591 0.68401
 H1937 H 0.78765 0.35712 0.73282
 H1938 H 0.81360 0.32777 0.69963
 H1939 H 0.70112 0.20607 0.78775
 H1940 H 0.72547 0.17910 0.75172
 H1941 H 0.74093 0.30088 0.65891
 H1942 H 0.70942 0.32945 0.68984
 H1943 H 0.80186 0.20492 0.79469
 H1944 H 0.77294 0.23296 0.82788
 C1945 C 0.06338 1.00726 1.12707
 C1946 C 0.03852 1.02029 1.11759
 H1947 H 0.07591 0.99392 1.11196
 H1948 H 0.02500 1.03325 1.13205
 C1949 C 0.54505 0.51794 0.64250
 C1950 C 0.55827 0.50838 0.61832
 H1951 H 0.52355 0.52841 0.64115
 H1952 H 0.58039 0.49936 0.61970
 C1953 C 0.46373 -0.00907 0.64171
 C1954 C 0.45159 0.00380 0.61834
 H1955 H 0.48609 -0.01753 0.64104
 H1956 H 0.42994 0.01388 0.62000
 C1957 C -0.04425 0.48189 1.13507
 C1958 C -0.05812 0.49294 1.11164
 H1959 H -0.02157 0.47445 1.13349
 H1960 H -0.07994 0.50245 1.11382
 C1961 C -0.04970 0.50375 0.36833
 C1962 C -0.06039 0.49173 0.39440
 H1963 H -0.03064 0.51843 0.36946
 H1964 H -0.08096 0.47945 0.39448
 C1965 C 0.44755 1.00322 -0.13001
 C1966 C 0.43540 0.99269 -0.10564
 H1967 H 0.46799 1.01583 -0.12883
 H1968 H 0.41423 0.98143 -0.10649
 C1969 C 0.56179 0.50319 -0.12106
 C1970 C 0.53625 0.49027 -0.11369
 H1971 H 0.57617 0.51190 -0.10418
 H1972 H 0.52234 0.48023 -0.13018
 C1973 C 0.04709 -0.00496 0.36090
 C1974 C 0.05920 0.00276 0.38642
 H1975 H 0.02449 -0.01297 0.36010
 H1976 H 0.08100 0.01271 0.38708
 C1977 C 0.12225 1.07407 1.00542
 C1978 C 0.11372 1.04785 1.01649
 H1979 H 0.10585 1.08845 0.99547
 H1980 H 0.12950 1.03391 1.02785
 C1981 C 0.63172 0.57319 0.50376
 C1982 C 0.62441 0.54664 0.51517
 H1983 H 0.61447 0.58690 0.49434
 H1984 H 0.64095 0.53299 0.52574
 C1985 C 0.62001 0.41810 -0.00097
 C1986 C 0.61017 0.44255 -0.01469
 H1987 H 0.60457 0.40552 0.01214
 H1988 H 0.62518 0.45640 -0.02694
 C1989 C 0.12976 -0.07709 0.49536
 C1990 C 0.12115 -0.05109 0.48386
 H1991 H 0.11339 -0.09089 0.50603
 H1992 H 0.13715 -0.03618 0.47423
 C1993 C 0.37396 -0.06708 0.51069
 C1994 C 0.38126 -0.03895 0.51736
 H1995 H 0.39134 -0.08248 0.50486
 H1996 H 0.36459 -0.02350 0.52467
 C1997 C -0.13567 0.42831 0.99900
 C1998 C -0.12835 0.45629 1.00637
 H1999 H -0.11840 0.41342 0.99180
 H2000 H -0.14484 0.47108 1.01520
 C2001 C -0.12917 0.56756 0.50831
 C2002 C -0.12099 0.54275 0.49435
 H2003 H -0.11299 0.57901 0.52172
 H2004 H -0.13697 0.52982 0.48213
 C2005 C 0.36579 1.06923 0.00291
 C2006 C 0.37327 1.04231 -0.00709
 H2007 H 0.38277 1.08290 0.01299
 H2008 H 0.35680 1.02762 -0.01644
 C2009 C -0.01208 1.13257 1.06285
 C2010 C 0.00662 1.12218 1.04289
 H2011 H -0.02872 1.11753 1.07136
 H2012 H 0.02261 1.13674 1.03279
 C2013 C 0.50085 0.62753 0.57306
 C2014 C 0.51887 0.61811 0.55212
 H2015 H 0.48557 0.61172 0.58262
 H2016 H 0.53327 0.63352 0.54096
 C2017 C -0.00414 0.61789 0.42272
 C2018 C -0.02004 0.60956 0.44565
 H2019 H 0.01011 0.60160 0.41264
 H2020 H -0.03336 0.62559 0.45708
 C2021 C 0.49562 1.11638 -0.07552
 C2022 C 0.47842 1.10924 -0.05304
 H2023 H 0.50969 1.09933 -0.08464
 H2024 H 0.46539 1.12611 -0.04242
 C2025 C 0.51466 0.35188 -0.04834
 C2026 C 0.50500 0.37755 -0.05984
 H2027 H 0.51975 0.35054 -0.02541
 H2028 H 0.49762 0.37820 -0.08219
 C2029 C 0.01898 -0.14112 0.44427
 C2030 C 0.01379 -0.11438 0.43215
 H2031 H 0.02343 -0.14248 0.46732
 H2032 H 0.00709 -0.11281 0.40968
 C2033 C 0.48368 -0.13424 0.55095
 C2034 C 0.49383 -0.10842 0.56168
 H2035 H 0.47530 -0.13520 0.52893
 H2036 H 0.50433 -0.10816 0.58282
 C2037 C -0.01313 0.37501 1.06856
 C2038 C -0.02169 0.38291 1.04043
 H2039 H -0.00761 0.39288 1.08349
 H2040 H -0.03100 0.36637 1.02594
 C2041 C 0.74564 0.29334 0.11254
 C2042 C 0.73871 0.30616 0.13943
 H2043 H 0.74901 0.26939 0.11195
 H2044 H 0.73098 0.32890 0.14054
 C2045 C 0.24728 0.80992 0.62233
 C2046 C 0.25477 0.78252 0.63120
 H2047 H 0.23962 0.82577 0.63830
 H2048 H 0.26366 0.76665 0.61596
 C2049 C 0.74471 0.71333 0.60911
 C2050 C 0.75382 0.70250 0.63467
 H2051 H 0.73677 0.73605 0.60751
 H2052 H 0.76354 0.68048 0.63577
 C2053 C 0.24649 0.19159 0.11947
 C2054 C 0.23968 0.22097 0.12709
 H2055 H 0.25085 0.17616 0.13713
 H2056 H 0.23185 0.23655 0.11090
 C2057 C 0.25384 0.18496 0.88100
 C2058 C 0.27383 0.20396 0.87002
 H2059 H 0.23751 0.17550 0.86636
 H2060 H 0.28980 0.21495 0.88389
 C2061 C 0.77273 0.69669 0.38385
 C2062 C 0.76398 0.68362 0.35918
 H2063 H 0.78412 0.71798 0.38321
 H2064 H 0.75389 0.66169 0.35991
 C2065 C 0.26048 0.82058 0.37817
 C2066 C 0.24472 0.79854 0.36603
 H2067 H 0.27539 0.83330 0.36460
 H2068 H 0.23074 0.78458 0.37928
 C2069 C 0.74139 0.30173 0.88157
 C2070 C 0.75160 0.31618 0.85818
 H2071 H 0.73086 0.28014 0.87906
 H2072 H 0.76067 0.33844 0.86045
 C2073 C 0.82032 0.37043 0.24777
 C2074 C 0.79264 0.36478 0.23857
 H2075 H 0.83373 0.35190 0.25519
 H2076 H 0.77881 0.38255 0.23038
 C2077 C 0.32682 0.86766 0.74085
 C2078 C 0.30055 0.86058 0.72906
 H2079 H 0.34005 0.85010 0.75051
 H2080 H 0.28735 0.87746 0.71838
 C2081 C 0.17789 0.88767 0.25637
 C2082 C 0.20660 0.87966 0.26480
 H2083 H 0.16301 0.86956 0.25055
 H2084 H 0.22130 0.89588 0.27459
 C2085 C 0.67948 0.39107 0.75252
 C2086 C 0.70738 0.38457 0.75989
 H2087 H 0.66508 0.37331 0.74496
 H2088 H 0.72163 0.40166 0.76896
 C2089 C 0.67375 0.63488 0.75074
 C2090 C 0.69887 0.64271 0.73755
 H2091 H 0.66151 0.65181 0.76227
 H2092 H 0.71241 0.62596 0.72733
 C2093 C 0.17669 0.13187 0.24813
 C2094 C 0.19871 0.14221 0.23153
 H2095 H 0.16577 0.14738 0.26248
 H2096 H 0.21109 0.12725 0.21791
 C2097 C 0.32651 0.11174 0.74640
 C2098 C 0.30561 0.12247 0.76395
 H2099 H 0.33592 0.12662 0.73036
 H2100 H 0.29485 0.10818 0.77955
 C2101 C 0.82987 0.61120 0.24017
 C2102 C 0.80453 0.61979 0.25231
 H2103 H 0.84238 0.62726 0.22763
 H2104 H 0.79101 0.60381 0.26380
 C2105 C 0.87522 0.26607 0.19376
 C2106 C 0.84904 0.25944 0.18171
 H2107 H 0.87656 0.27093 0.21672
 H2108 H 0.84763 0.25236 0.15936
 C2109 C 0.38268 0.75979 0.69879
 C2110 C 0.35774 0.74692 0.68931
 H2111 H 0.38359 0.76963 0.72020
 H2112 H 0.35744 0.73530 0.66877
 C2113 C 0.39396 0.25093 0.81115
 C2114 C 0.38285 0.23306 0.79051
 H2115 H 0.37952 0.26735 0.82078
 H2116 H 0.39671 0.21717 0.77954
 C2117 C 0.88737 0.74544 0.31468
 C2118 C 0.87697 0.72807 0.29145
 H2119 H 0.87156 0.76021 0.32481
 H2120 H 0.89201 0.71492 0.27872
 C2121 C 0.12798 0.74955 0.31613
 C2122 C 0.13543 0.76510 0.29259
 H2123 H 0.14498 0.73814 0.32849
 H2124 H 0.11889 0.77777 0.28087
 C2125 C 0.63553 0.25518 0.81843
 C2126 C 0.64220 0.27191 0.79532
 H2127 H 0.65308 0.24370 0.82995
 H2128 H 0.62511 0.28434 0.78416
 C2129 C 0.61195 0.74517 0.69087
 C2130 C 0.63745 0.75433 0.67931
 H2131 H 0.61192 0.73465 0.71202
 H2132 H 0.63773 0.76356 0.65762
 C2133 C 0.10414 0.24198 0.19493
 C2134 C 0.12934 0.25214 0.18358
 H2135 H 0.10408 0.23164 0.21616
 H2136 H 0.12944 0.26096 0.16173
 C2137 C -0.06362 1.00611 0.86892
 C2138 C -0.04439 0.98664 0.88057
 H2139 H -0.07274 1.02293 0.88312
 H2140 H -0.03335 0.97021 0.86747
 C2141 C 0.43370 0.50885 0.37752
 C2142 C 0.45777 0.49389 0.38599
 H2143 H 0.42052 0.52019 0.39360
 H2144 H 0.47043 0.48139 0.37037
 C2145 C 0.56827 -0.00715 0.37529
 C2146 C 0.54695 0.01093 0.38490
 H2147 H 0.57781 -0.02284 0.39061
 H2148 H 0.53565 0.02612 0.37048
 C2149 C 0.06469 0.49633 0.87248
 C2150 C 0.04222 0.51365 0.88087
 H2151 H 0.07451 0.48125 0.88817
 H2152 H 0.03097 0.52797 0.86555
 C2153 C 0.04762 0.49034 0.64161
 C2154 C 0.05900 0.50110 0.61697
 H2155 H 0.02501 0.48232 0.64198
 H2156 H 0.08093 0.51082 0.61699
 C2157 C 0.53989 0.98653 0.14510
 C2158 C 0.55043 0.99887 0.12078
 H2159 H 0.51767 0.97749 0.14548
 H2160 H 0.57197 1.00947 0.12106
 C2161 C 0.45398 0.50012 0.14397
 C2162 C 0.44224 0.48640 0.12074
 H2163 H 0.47423 0.51284 0.14167
 H2164 H 0.42103 0.47536 0.12239
 C2165 C -0.04326 -0.00076 0.63630
 C2166 C -0.05589 -0.00918 0.61111
 H2167 H -0.01950 0.00224 0.63707
 H2168 H -0.07889 -0.01568 0.61018
 C2169 C -0.13604 0.93483 1.00669
 C2170 C -0.12538 0.95466 0.98754
 H2171 H -0.12122 0.92647 1.02334
 H2172 H -0.13939 0.96411 0.97089
 C2173 C 0.37486 0.42844 0.50096
 C2174 C 0.38330 0.45549 0.49176
 H2175 H 0.39152 0.41339 0.50942
 H2176 H 0.36731 0.47033 0.48190
 C2177 C 0.36474 0.56147 0.01172
 C2178 C 0.37184 0.53358 0.01946
 H2179 H 0.38224 0.57647 0.00498
 H2180 H 0.35509 0.51841 0.02737
 C2181 C -0.12593 0.06652 0.49841
 C2182 C -0.11802 0.04047 0.51037
 H2183 H -0.10933 0.07947 0.48710
 H2184 H -0.13435 0.02626 0.52045
 C2185 C 0.63045 0.07464 0.49560
 C2186 C 0.62139 0.04849 0.48480
 H2187 H 0.61433 0.08951 0.50503
 H2188 H 0.63689 0.03381 0.47426
 C2189 C 0.12223 0.57087 1.00085
 C2190 C 0.11174 0.54588 0.98559
 H2191 H 0.10648 0.58278 1.01408
 H2192 H 0.12673 0.53249 0.97303
 C2193 C 0.12907 0.42754 0.50010
 C2194 C 0.12025 0.45284 0.51284
 H2195 H 0.11279 0.41437 0.48842
 H2196 H 0.13630 0.46725 0.52328
 C2197 C 0.62162 0.92697 0.00396
 C2198 C 0.61346 0.95282 0.01600
 H2199 H 0.60474 0.91298 -0.00584
 H2200 H 0.62959 0.96717 0.02634
 C2201 C 0.00192 0.86824 0.93752
 C2202 C -0.01556 0.87796 0.95895
 H2203 H 0.01739 0.88402 0.92820
 H2204 H -0.03106 0.86336 0.96967
 C2205 C 0.50306 0.37267 0.43051
 C2206 C 0.49070 0.38018 0.45574
 H2207 H 0.51456 0.38964 0.41815
 H2208 H 0.47820 0.36397 0.46802
 C2209 C 0.01979 0.35978 0.55634
 C2210 C 0.01270 0.38749 0.56822
 H2211 H 0.02420 0.35865 0.53331
 H2212 H 0.00500 0.38879 0.59027
 C2213 C 0.51117 0.85833 0.05735
 C2214 C 0.50517 0.88439 0.07009
 H2215 H 0.51510 0.85767 0.03423
 H2216 H 0.49885 0.88490 0.09265
 C2217 C 0.48600 0.62667 0.05230
 C2218 C 0.48376 0.60046 0.06600
 H2219 H 0.48814 0.62724 0.02894
 H2220 H 0.48491 0.59966 0.08944
 C2221 C -0.00317 0.13074 0.55072
 C2222 C -0.00782 0.10453 0.56374
 H2223 H 0.00154 0.13152 0.52774
 H2224 H -0.00925 0.10338 0.58714
 C2225 C 0.49314 0.13216 0.43018
 C2226 C 0.51471 0.12125 0.44704
 H2227 H 0.47391 0.11841 0.42566
 H2228 H 0.53285 0.13538 0.45394
 C2229 C -0.00809 0.63156 0.92839
 C2230 C 0.00876 0.62179 0.95055
 H2231 H -0.02272 0.61562 0.91793
 H2232 H 0.02364 0.63646 0.96214
 C2233 C 0.25342 0.68194 0.88261
 C2234 C 0.24213 0.70779 0.87319
 H2235 H 0.26477 0.66776 0.86732
 H2236 H 0.23171 0.72296 0.88812
 C2237 C 0.74533 0.20077 0.38669
 C2238 C 0.75336 0.18824 0.36162
 H2239 H 0.73705 0.22342 0.38689
 H2240 H 0.76344 0.16639 0.36152
 C2241 C 0.25595 0.29963 0.38535
 C2242 C 0.24609 0.31327 0.36125
 H2243 H 0.26312 0.27663 0.38434
 H2244 H 0.23689 0.33547 0.36280
 C2245 C 0.74975 0.80949 0.88225
 C2246 C 0.74159 0.82286 0.85745
 H2247 H 0.75739 0.78661 0.88168
 H2248 H 0.73238 0.84508 0.85762
 C2249 C 0.74451 0.78892 0.11045
 C2250 C 0.74537 0.80268 0.13612
 H2251 H 0.74736 0.76496 0.10925
 H2252 H 0.74564 0.82685 0.13691
 C2253 C 0.25463 0.31195 0.62264
 C2254 C 0.24062 0.28771 0.63278
 H2255 H 0.26902 0.32413 0.63734
 H2256 H 0.22674 0.27441 0.61866
 C2257 C 0.75385 0.19223 0.61799
 C2258 C 0.76492 0.21909 0.62472
 H2259 H 0.74272 0.17943 0.63463
 H2260 H 0.77519 0.23284 0.60834
 C2261 C 0.25175 0.69408 0.11868
 C2262 C 0.26280 0.72101 0.12556
 H2263 H 0.24272 0.68031 0.13582
 H2264 H 0.27288 0.73502 0.10925
 C2265 C 0.17616 0.61641 0.75631
 C2266 C 0.19749 0.62700 0.77374
 H2267 H 0.16599 0.63157 0.74090
 H2268 H 0.20931 0.61231 0.78830
 C2269 C 0.67312 0.11321 0.24680
 C2270 C 0.69636 0.12403 0.26163
 H2271 H 0.66164 0.12839 0.23231
 H2272 H 0.70971 0.10969 0.27516
 C2273 C 0.83127 0.13799 0.73973
 C2274 C 0.80510 0.14644 0.72888
 H2275 H 0.84599 0.15484 0.74857
 H2276 H 0.79063 0.13013 0.71885
 C2277 C 0.32725 0.63571 0.23940
 C2278 C 0.30308 0.64441 0.22473
 H2279 H 0.33918 0.65224 0.25204
 H2280 H 0.28996 0.62844 0.21268
 C2281 C 0.31467 0.39131 0.25856
 C2282 C 0.28639 0.38457 0.26381
 H2283 H 0.32980 0.37347 0.25326
 H2284 H 0.27122 0.40168 0.27083
 C2285 C 0.82083 0.89121 0.74731
 C2286 C 0.79469 0.88358 0.75861
 H2287 H 0.83362 0.87409 0.73664
 H2288 H 0.78073 0.90028 0.76831
 C2289 C 0.68509 0.86898 0.24924
 C2290 C 0.71230 0.86243 0.23995
 H2291 H 0.67126 0.85101 0.25720
 H2292 H 0.72620 0.87964 0.23076
 C2293 C 0.18682 0.37059 0.74620
 C2294 C 0.21339 0.36362 0.73549
 H2295 H 0.17327 0.35294 0.75525
 H2296 H 0.22676 0.38047 0.72500
 C2297 C 0.10822 0.73947 0.79904
 C2298 C 0.13419 0.74693 0.81100
 H2299 H 0.10711 0.73277 0.77652
 H2300 H 0.13487 0.75601 0.83273
 C2301 C 0.60656 0.23227 0.30023
 C2302 C 0.63295 0.23531 0.31329
 H2303 H 0.60541 0.22603 0.27758
 H2304 H 0.63427 0.24055 0.33612
 C2305 C 0.63034 0.73917 0.17862
 C2306 C 0.64082 0.75753 0.19922
 H2307 H 0.64541 0.72340 0.16889
 H2308 H 0.62657 0.77316 0.21002
 C2309 C 0.12947 0.23749 0.68787
 C2310 C 0.14055 0.25664 0.70756
 H2311 H 0.14381 0.21981 0.68035
 H2312 H 0.12723 0.27393 0.71706
 C2313 C 0.89675 0.24759 0.69527
 C2314 C 0.87269 0.26213 0.68596
 H2315 H 0.89603 0.23552 0.71561
 H2316 H 0.87370 0.27550 0.66648
 C2317 C 0.39254 0.74206 0.19810
 C2318 C 0.36865 0.75720 0.18926
 H2319 H 0.39181 0.72956 0.21819
 H2320 H 0.36987 0.77109 0.17013
 C2321 C 0.36872 0.25331 0.31252
 C2322 C 0.35567 0.27719 0.30078
 H2323 H 0.35727 0.23202 0.31238
 H2324 H 0.36798 0.29773 0.29789
 C2325 C 0.88086 0.77277 0.79835
 C2326 C 0.85515 0.77735 0.81172
 H2327 H 0.88103 0.76830 0.77528
 H2328 H 0.85439 0.77853 0.83514
   
