data_POSCAR
  _audit_creation_date              2014-09-24
  _audit_creation_method            'ToBaCCo'
  _symmetry_space_group_name_H-M    'P1'
  _symmetry_Int_Tables_number       1
  _symmetry_cell_setting            triclinic
  loop_
  _symmetry_equiv_pos_as_xyz
 x,y,z
_cell_length_a 66.0325
_cell_length_b 65.9863
_cell_length_c 66.0297
_cell_angle_alpha 89.810100
_cell_angle_beta 89.928600
_cell_angle_gamma 89.989600
loop_
  _atom_site_label
  _atom_site_type_symbol
  _atom_site_fract_x
  _atom_site_fract_y
  _atom_site_fract_z
C1 C 0.24941 0.99760 0.00620
 C2 C 0.24878 0.99761 -0.01433
 C3 C 0.24835 1.01682 -0.02592
 C4 C 0.24859 0.97875 -0.02651
 C5 C 0.25001 0.97871 0.01841
 C6 C 0.24906 1.01671 0.01797
 C7 C 0.23047 1.02799 -0.02779
 C8 C 0.22983 1.04522 -0.04016
 C9 C 0.24728 1.05204 -0.05077
 C10 C 0.26538 1.04074 -0.04805
 C11 C 0.26574 1.02328 -0.03609
 C12 C 0.23339 0.97609 -0.04107
 C13 C 0.23388 0.95956 -0.05414
 C14 C 0.24966 0.94533 -0.05301
 C15 C 0.26459 0.94761 -0.03801
 C16 C 0.26413 0.96428 -0.02493
 C17 C 0.26543 0.97630 0.03279
 C18 C 0.26486 0.96028 0.04658
 C19 C 0.24876 0.94638 0.04638
 C20 C 0.23372 0.94828 0.03141
 C21 C 0.23429 0.96440 0.01757
 C22 C 0.26511 1.03062 0.01689
 C23 C 0.26564 1.04729 0.02994
 C24 C 0.25025 1.05012 0.04440
 C25 C 0.23392 1.03648 0.04495
 C26 C 0.23338 1.01992 0.03191
 H27 H 0.21690 1.02316 -0.01989
 H28 H 0.21571 1.05349 -0.04053
 H29 H 0.27913 1.04424 -0.05621
 H30 H 0.27962 1.01458 -0.03495
 H31 H 0.22123 0.98702 -0.04252
 H32 H 0.22200 0.95801 -0.06532
 H33 H 0.27621 0.96623 -0.01403
 H34 H 0.27766 0.98720 0.03369
 H35 H 0.27684 0.95899 0.05770
 H36 H 0.22107 0.93785 0.03101
 H37 H 0.22206 0.96621 0.00681
 H38 H 0.27758 1.02814 0.00652
 H39 H 0.27851 1.05744 0.02933
 H40 H 0.22171 1.03845 0.05574
 H41 H 0.22092 1.00929 0.03300
 H42 H 0.27701 0.93694 -0.03693
 C43 C 0.74699 0.49471 0.48515
 C44 C 0.74810 0.49364 0.50565
 C45 C 0.74790 0.47407 0.51665
 C46 C 0.74909 0.51203 0.51851
 C47 C 0.74644 0.51446 0.47446
 C48 C 0.74610 0.47639 0.47218
 C49 C 0.73018 0.46240 0.51782
 C50 C 0.72927 0.44564 0.53083
 C51 C 0.74617 0.44019 0.54258
 C52 C 0.76411 0.45146 0.54072
 C53 C 0.76489 0.46839 0.52803
 C54 C 0.73473 0.51466 0.53394
 C55 C 0.73620 0.53095 0.54724
 C56 C 0.75214 0.54495 0.54546
 C57 C 0.76631 0.54258 0.52973
 C58 C 0.76488 0.52616 0.51643
 C59 C 0.76245 0.51984 0.46156
 C60 C 0.76178 0.53796 0.45063
 C61 C 0.74488 0.55079 0.45208
 C62 C 0.72883 0.54539 0.46502
 C63 C 0.72967 0.52740 0.47625
 C64 C 0.76136 0.46157 0.47284
 C65 C 0.76118 0.44542 0.45914
 C66 C 0.74586 0.44395 0.44442
 C67 C 0.73042 0.45860 0.44412
 C68 C 0.73058 0.47466 0.45781
 H69 H 0.71685 0.46680 0.50932
 H70 H 0.71529 0.43713 0.53200
 H71 H 0.77726 0.44771 0.54978
 H72 H 0.77859 0.47741 0.52745
 H73 H 0.72244 0.50395 0.53580
 H74 H 0.72490 0.53256 0.55903
 H75 H 0.77636 0.52418 0.50488
 H76 H 0.77543 0.50993 0.45994
 H77 H 0.77422 0.54169 0.44057
 H78 H 0.71566 0.55508 0.46638
 H79 H 0.71711 0.52333 0.48602
 H80 H 0.77374 0.46286 0.48349
 H81 H 0.77340 0.43448 0.45958
 H82 H 0.71826 0.45772 0.43317
 H83 H 0.71867 0.48593 0.45703
 H84 H 0.77887 0.55302 0.52814
 C85 C 0.75440 0.98338 0.99589
 C86 C 0.75366 1.00393 0.99562
 C87 C 0.75243 1.01624 1.01431
 C88 C 0.75390 1.01560 0.97646
 C89 C 0.75638 0.97139 0.97701
 C90 C 0.75305 0.97150 1.01498
 C91 C 0.73601 1.01452 1.02776
 C92 C 0.73422 1.02785 1.04414
 C93 C 0.74867 1.04322 1.04709
 C94 C 0.76533 1.04446 1.03391
 C95 C 0.76715 1.03115 1.01769
 C96 C 0.73643 1.02615 0.97063
 C97 C 0.73689 1.03932 0.95408
 C98 C 0.75498 1.04247 0.94331
 C99 C 0.77241 1.03158 0.94892
 C100 C 0.77184 1.01810 0.96534
 C101 C 0.77260 0.95782 0.97506
 C102 C 0.77376 0.94483 0.95848
 C103 C 0.75862 0.94501 0.94355
 C104 C 0.74262 0.95899 0.94523
 C105 C 0.74145 0.97200 0.96189
 C106 C 0.76707 0.97396 1.03070
 C107 C 0.76615 0.96158 1.04796
 C108 C 0.75135 0.94614 1.04975
 C109 C 0.73710 0.94426 1.03390
 C110 C 0.73804 0.95667 1.01682
 H111 H 0.72432 1.00332 1.02521
 H112 H 0.72116 1.02667 1.05400
 H113 H 0.77685 1.05594 1.03602
 H114 H 0.77994 1.03270 1.00751
 H115 H 0.72254 1.02453 0.97925
 H116 H 0.72333 1.04770 0.95022
 H117 H 0.78550 1.01022 0.96985
 H118 H 0.78422 0.95708 0.98661
 H119 H 0.78643 0.93445 0.95746
 H120 H 0.73060 0.95930 0.93409
 H121 H 0.72856 0.98204 0.96335
 H122 H 0.77905 0.98509 1.02939
 H123 H 0.77785 0.96351 1.05922
 H124 H 0.72473 0.93356 1.03471
 H125 H 0.72694 0.95467 1.00491
 H126 H 0.78651 1.03374 0.94080
 C127 C 0.25075 0.50673 0.49669
 C128 C 0.25198 0.48625 0.49793
 C129 C 0.25238 0.47568 0.51773
 C130 C 0.25322 0.47316 0.47973
 C131 C 0.25074 0.51757 0.47704
 C132 C 0.24989 0.51975 0.51495
 C133 C 0.26912 0.47741 0.53067
 C134 C 0.26985 0.46622 0.54869
 C135 C 0.25373 0.45338 0.55408
 C136 C 0.23684 0.45203 0.54126
 C137 C 0.23628 0.46293 0.52313
 C138 C 0.26905 0.45907 0.47816
 C139 C 0.26971 0.44543 0.46209
 C140 C 0.25447 0.44549 0.44727
 C141 C 0.23880 0.45987 0.44861
 C142 C 0.23811 0.47352 0.46478
 C143 C 0.23360 0.52875 0.47139
 C144 C 0.23410 0.54120 0.45429
 C145 C 0.25191 0.54300 0.44278
 C146 C 0.26897 0.53144 0.44820
 C147 C 0.26834 0.51868 0.46517
 C148 C 0.23415 0.51790 0.52917
 C149 C 0.23291 0.53132 0.54550
 C150 C 0.24723 0.54693 0.54770
 C151 C 0.26311 0.54848 0.53360
 C152 C 0.26439 0.53507 0.51739
 H153 H 0.28175 0.48708 0.52659
 H154 H 0.28302 0.46749 0.55837
 H155 H 0.22435 0.44204 0.54498
 H156 H 0.22333 0.46136 0.51320
 H157 H 0.28085 0.45852 0.48954
 H158 H 0.28213 0.43473 0.46130
 H159 H 0.22551 0.48395 0.46594
 H160 H 0.21999 0.52819 0.48056
 H161 H 0.22084 0.55012 0.45056
 H162 H 0.28285 0.53258 0.43952
 H163 H 0.28178 0.51033 0.46952
 H164 H 0.22258 0.50643 0.52733
 H165 H 0.22039 0.52991 0.55603
 H166 H 0.27452 0.56017 0.53508
 H167 H 0.27665 0.53674 0.50660
 H168 H 0.22672 0.46011 0.43753
 C169 C 0.99696 0.24904 0.01538
 C170 C 0.99758 0.24981 -0.00515
 C171 C 0.97900 0.24845 -0.01769
 C172 C 1.01678 0.25185 -0.01666
 C173 C 1.01550 0.24947 0.02808
 C174 C 0.97750 0.24731 0.02641
 C175 C 0.97765 0.23325 -0.03234
 C176 C 0.96168 0.23302 -0.04610
 C177 C 0.94654 0.24816 -0.04579
 C178 C 0.94761 0.26294 -0.03032
 C179 C 0.96374 0.26316 -0.01658
 C180 C 1.03193 0.23702 -0.01571
 C181 C 1.04863 0.23796 -0.02878
 C182 C 1.05037 0.25363 -0.04339
 C183 C 1.03537 0.26891 -0.04341
 C184 C 1.01883 0.26794 -0.03034
 C185 C 1.02965 0.26526 0.02668
 C186 C 1.04651 0.26568 0.03953
 C187 C 1.04942 0.25050 0.05444
 C188 C 1.03511 0.23460 0.05541
 C189 C 1.01846 0.23416 0.04248
 C190 C 0.97096 0.26344 0.03852
 C191 C 0.95327 0.26170 0.04997
 C192 C 0.94205 0.24363 0.04983
 C193 C 0.94858 0.22747 0.03763
 C194 C 0.96613 0.22936 0.02587
 H195 H 0.98923 0.22165 -0.03331
 H196 H 0.96121 0.22062 -0.05676
 H197 H 0.93684 0.27526 -0.02949
 H198 H 0.96475 0.27530 -0.00563
 H199 H 1.03041 0.22427 -0.00544
 H200 H 1.05931 0.22556 -0.02820
 H201 H 1.00735 0.27965 -0.03114
 H202 H 1.02742 0.27751 0.01596
 H203 H 1.05654 0.27857 0.03835
 H204 H 1.03691 0.22196 0.06571
 H205 H 1.00783 0.22170 0.04369
 H206 H 0.97968 0.27733 0.03919
 H207 H 0.94867 0.27427 0.05944
 H208 H 0.94014 0.21341 0.03727
 H209 H 0.97112 0.21671 0.01672
 H210 H 1.03634 0.28195 -0.05333
 C211 C 0.49491 0.74767 0.51525
 C212 C 0.49525 0.74768 0.49469
 C213 C 0.47648 0.74639 0.48242
 C214 C 0.51435 0.74909 0.48294
 C215 C 0.51367 0.74870 0.52761
 C216 C 0.47564 0.74625 0.52664
 C217 C 0.47470 0.73091 0.46803
 C218 C 0.45881 0.73101 0.45415
 C219 C 0.44441 0.74669 0.45426
 C220 C 0.44573 0.76177 0.46923
 C221 C 0.46171 0.76167 0.48315
 C222 C 0.52946 0.73420 0.48450
 C223 C 0.54623 0.73467 0.47149
 C224 C 0.54794 0.74990 0.45663
 C225 C 0.53309 0.76511 0.45563
 C226 C 0.51645 0.76466 0.46860
 C227 C 0.52764 0.76462 0.52537
 C228 C 0.54476 0.76561 0.53782
 C229 C 0.54799 0.75088 0.55292
 C230 C 0.53404 0.73494 0.55499
 C231 C 0.51706 0.73389 0.54250
 C232 C 0.46947 0.76258 0.53868
 C233 C 0.45213 0.76103 0.55069
 C234 C 0.44091 0.74295 0.55118
 C235 C 0.44704 0.72662 0.53900
 C236 C 0.46423 0.72831 0.52669
 H237 H 0.48600 0.71903 0.46719
 H238 H 0.45800 0.71900 0.44303
 H239 H 0.43495 0.77414 0.46956
 H240 H 0.46305 0.77397 0.49388
 H241 H 0.52792 0.72188 0.49527
 H242 H 0.55739 0.72268 0.47248
 H243 H 0.50493 0.77627 0.46718
 H244 H 0.52511 0.77643 0.51424
 H245 H 0.55516 0.77818 0.53606
 H246 H 0.53627 0.72323 0.56631
 H247 H 0.50651 0.72147 0.54449
 H248 H 0.47824 0.77645 0.53891
 H249 H 0.44784 0.77373 0.56012
 H250 H 0.43859 0.71256 0.53912
 H251 H 0.46896 0.71551 0.51762
 H252 H 0.53420 0.77721 0.44456
 C253 C 0.00460 0.75001 0.00428
 C254 C -0.01592 0.75059 0.00435
 C255 C -0.02809 0.75058 -0.01453
 C256 C -0.02743 0.75158 0.02355
 C257 C 0.01656 0.75180 0.02317
 C258 C 0.01668 0.74797 -0.01455
 C259 C -0.04185 0.76635 -0.01793
 C260 C -0.05418 0.76643 -0.03503
 C261 C -0.05328 0.75058 -0.04937
 C262 C -0.03899 0.73493 -0.04600
 C263 C -0.02671 0.73487 -0.02870
 C264 C -0.02981 0.76993 0.03385
 C265 C -0.04223 0.77098 0.05099
 C266 C -0.05231 0.75356 0.05846
 C267 C -0.04913 0.73504 0.04821
 C268 C -0.03709 0.73418 0.03085
 C269 C 0.01646 0.73639 0.03786
 C270 C 0.03009 0.73704 0.05408
 C271 C 0.04411 0.75301 0.05568
 C272 C 0.04356 0.76877 0.04133
 C273 C 0.02997 0.76812 0.02521
 C274 C 0.03053 0.73201 -0.01603
 C275 C 0.04394 0.73092 -0.03229
 C276 C 0.04407 0.74594 -0.04759
 C277 C 0.02939 0.76155 -0.04637
 C278 C 0.01600 0.76262 -0.02994
 H279 H -0.04298 0.77880 -0.00734
 H280 H -0.06392 0.77942 -0.03715
 H281 H -0.03789 0.72207 -0.05603
 H282 H -0.01642 0.72233 -0.02618
 H283 H -0.02234 0.78350 0.02837
 H284 H -0.04345 0.78543 0.05859
 H285 H -0.03552 0.71994 0.02288
 H286 H 0.00648 0.72347 0.03630
 H287 H 0.03031 0.72460 0.06481
 H288 H 0.05394 0.78143 0.04236
 H289 H 0.03029 0.78009 0.01395
 H290 H 0.03115 0.72045 -0.00436
 H291 H 0.05394 0.71796 -0.03284
 H292 H 0.02894 0.77378 -0.05728
 H293 H 0.00565 0.77531 -0.02884
 H294 H -0.05688 0.72131 0.05272
 C295 C 0.50743 0.25116 0.50451
 C296 C 0.48689 0.25126 0.50471
 C297 C 0.47466 0.25064 0.48589
 C298 C 0.47533 0.25234 0.52390
 C299 C 0.51951 0.25277 0.52336
 C300 C 0.51935 0.24950 0.48554
 C301 C 0.46028 0.26589 0.48244
 C302 C 0.44769 0.26515 0.46555
 C303 C 0.44912 0.24906 0.45175
 C304 C 0.46379 0.23394 0.45495
 C305 C 0.47639 0.23465 0.47199
 C306 C 0.47483 0.27020 0.53535
 C307 C 0.46228 0.27154 0.55239
 C308 C 0.45030 0.25492 0.55833
 C309 C 0.45127 0.23692 0.54708
 C310 C 0.46353 0.23572 0.52989
 C311 C 0.51873 0.23769 0.53838
 C312 C 0.53228 0.23814 0.55466
 C313 C 0.54691 0.25357 0.55602
 C314 C 0.54709 0.26902 0.54133
 C315 C 0.53358 0.26857 0.52514
 C316 C 0.53354 0.23381 0.48375
 C317 C 0.54660 0.23304 0.46719
 C318 C 0.54585 0.24806 0.45209
 C319 C 0.53118 0.26347 0.45353
 C320 C 0.51809 0.26425 0.47021
 H321 H 0.45873 0.27837 0.49295
 H322 H 0.43673 0.27717 0.46330
 H323 H 0.46507 0.22128 0.44465
 H324 H 0.48716 0.22254 0.47456
 H325 H 0.48372 0.28323 0.53075
 H326 H 0.46180 0.28555 0.56087
 H327 H 0.46364 0.22190 0.52109
 H328 H 0.50823 0.22516 0.53705
 H329 H 0.53192 0.22594 0.56567
 H330 H 0.55796 0.28127 0.54216
 H331 H 0.53443 0.28031 0.51366
 H332 H 0.53474 0.22231 0.49545
 H333 H 0.55750 0.22081 0.46632
 H334 H 0.53039 0.27533 0.44218
 H335 H 0.50746 0.27668 0.47150
 H336 H 0.44201 0.22400 0.55120
 C337 C 1.00313 0.01508 0.25009
 C338 C 1.00285 -0.00546 0.25108
 C339 C 0.98379 -0.01732 0.25047
 C340 C 1.02167 -0.01767 0.25283
 C341 C 1.02240 0.02655 0.25055
 C342 C 0.98435 0.02742 0.24880
 C343 C 0.96883 -0.01522 0.26538
 C344 C 0.95223 -0.02843 0.26588
 C345 C 0.95042 -0.04433 0.25165
 C346 C 0.96522 -0.04557 0.23622
 C347 C 0.98164 -0.03235 0.23574
 C348 C 1.02354 -0.03146 0.26886
 C349 C 1.03950 -0.04527 0.26939
 C350 C 1.05411 -0.04587 0.25374
 C351 C 1.05261 -0.03117 0.23813
 C352 C 1.03649 -0.01739 0.23762
 C353 C 1.02818 0.03793 0.23355
 C354 C 1.04553 0.04999 0.23412
 C355 C 1.05716 0.05119 0.25187
 C356 C 1.05142 0.03967 0.26888
 C357 C 1.03421 0.02731 0.26818
 C358 C 0.97012 0.02458 0.23325
 C359 C 0.95310 0.03719 0.23185
 C360 C 0.95025 0.05302 0.24577
 C361 C 0.96443 0.05565 0.26138
 C362 C 0.98128 0.04302 0.26285
 H363 H 0.97043 -0.00390 0.27711
 H364 H 0.94170 -0.02686 0.27833
 H365 H 0.96415 -0.05657 0.22417
 H366 H 0.99295 -0.03405 0.22396
 H367 H 1.01231 -0.03180 0.28083
 H368 H 1.04035 -0.05527 0.28236
 H369 H 1.03507 -0.00714 0.22486
 H370 H 1.01911 0.03761 0.21989
 H371 H 1.04950 0.05891 0.22090
 H372 H 1.06019 0.04033 0.28271
 H373 H 1.02979 0.01876 0.28150
 H374 H 0.97239 0.01290 0.22200
 H375 H 0.94251 0.03497 0.21955
 H376 H 0.96248 0.06754 0.27248
 H377 H 0.99205 0.04548 0.27496
 H378 H 1.06296 -0.03104 0.22544
 C379 C 0.50302 0.51404 0.75050
 C380 C 0.50336 0.49351 0.75094
 C381 C 0.52245 0.48186 0.75153
 C382 C 0.48458 0.48137 0.75085
 C383 C 0.48374 0.52553 0.74922
 C384 C 0.52182 0.52631 0.75110
 C385 C 0.52817 0.47053 0.73455
 C386 C 0.54507 0.45787 0.73536
 C387 C 0.55629 0.45602 0.75332
 C388 C 0.55068 0.46758 0.77028
 C389 C 0.53392 0.48055 0.76934
 C390 C 0.47279 0.47973 0.73329
 C391 C 0.45587 0.46698 0.73307
 C392 C 0.45043 0.45596 0.75050
 C393 C 0.46209 0.45799 0.76815
 C394 C 0.47914 0.47045 0.76825
 C395 C 0.46904 0.52424 0.76455
 C396 C 0.45170 0.53643 0.76376
 C397 C 0.44891 0.55022 0.74771
 C398 C 0.46348 0.55110 0.73219
 C399 C 0.48075 0.53894 0.73300
 C400 C 0.52401 0.54103 0.76619
 C401 C 0.54054 0.55418 0.76600
 C402 C 0.55518 0.55298 0.75059
 C403 C 0.55326 0.53788 0.73573
 C404 C 0.53664 0.52472 0.73591
 H405 H 0.51931 0.47126 0.72076
 H406 H 0.54893 0.44895 0.72217
 H407 H 0.55915 0.46641 0.78427
 H408 H 0.52952 0.48906 0.78263
 H409 H 0.47695 0.48798 0.71970
 H410 H 0.44706 0.46566 0.71932
 H411 H 0.48821 0.47149 0.78187
 H412 H 0.47128 0.51425 0.77740
 H413 H 0.44086 0.53560 0.77605
 H414 H 0.46162 0.56133 0.71948
 H415 H 0.49194 0.54015 0.72105
 H416 H 0.51269 0.54254 0.77799
 H417 H 0.54177 0.56546 0.77782
 H418 H 0.56418 0.53677 0.72353
 H419 H 0.53498 0.51377 0.72385
 H420 H 0.45833 0.44946 0.78169
 C421 C 1.01431 1.00487 0.74986
 C422 C 0.99378 1.00405 0.74927
 C423 C 0.98248 0.98463 0.74961
 C424 C 0.98109 1.02257 0.74802
 C425 C 1.02528 1.02444 0.74989
 C426 C 1.02713 0.98640 0.74996
 C427 C 0.98449 0.97035 0.73401
 C428 C 0.97169 0.95343 0.73336
 C429 C 0.95659 0.95071 0.74818
 C430 C 0.95519 0.96468 0.76413
 C431 C 0.96794 0.98148 0.76478
 C432 C 0.96715 1.02442 0.73219
 C433 C 0.95326 1.04031 0.73184
 C434 C 0.95276 1.05489 0.74747
 C435 C 0.96751 1.05333 0.76295
 C436 C 0.98135 1.03726 0.76329
 C437 C 1.03661 1.02988 0.76695
 C438 C 1.04840 1.04743 0.76674
 C439 C 1.04938 1.05962 0.74929
 C440 C 1.03784 1.05426 0.73225
 C441 C 1.02575 1.03684 0.73259
 C442 C 1.02517 0.97142 0.76493
 C443 C 1.03807 0.95457 0.76506
 C444 C 1.05357 0.95248 0.75039
 C445 C 1.05513 0.96765 0.73531
 C446 C 1.04217 0.98430 0.73516
 H447 H 0.99541 0.97271 0.72198
 H448 H 0.97300 0.94298 0.72082
 H449 H 0.94394 0.96280 0.77593
 H450 H 0.96616 0.99236 0.77691
 H451 H 0.96682 1.01330 0.72016
 H452 H 0.94318 1.04119 0.71897
 H453 H 0.99172 1.03585 0.77591
 H454 H 1.03652 1.02035 0.78034
 H455 H 1.05734 1.05110 0.77998
 H456 H 1.03834 1.06346 0.71864
 H457 H 1.01723 1.03269 0.71922
 H458 H 1.01392 0.97297 0.77678
 H459 H 1.03641 0.94385 0.77737
 H460 H 1.06593 0.96655 0.72304
 H461 H 1.04382 0.99560 0.72333
 H462 H 0.96768 1.06365 0.77563
 C463 C 0.51356 0.50328 0.25252
 C464 C 0.49303 0.50339 0.25320
 C465 C 0.48134 0.48425 0.25286
 C466 C 0.48084 0.52224 0.25381
 C467 C 0.52597 0.52203 0.25306
 C468 C 0.52485 0.48393 0.25124
 C469 C 0.46980 0.47943 0.23574
 C470 C 0.45751 0.46222 0.23572
 C471 C 0.45628 0.44977 0.25298
 C472 C 0.46803 0.45452 0.27006
 C473 C 0.48059 0.47159 0.26994
 C474 C 0.48212 0.53681 0.23831
 C475 C 0.46838 0.55298 0.23767
 C476 C 0.45308 0.55466 0.25242
 C477 C 0.45244 0.54049 0.26833
 C478 C 0.46612 0.52443 0.26897
 C479 C 0.52402 0.53620 0.26878
 C480 C 0.53734 0.55269 0.27002
 C481 C 0.55296 0.55509 0.25570
 C482 C 0.55448 0.54117 0.23973
 C483 C 0.54118 0.52482 0.23846
 C484 C 0.53656 0.47744 0.26771
 C485 C 0.54798 0.45968 0.26638
 C486 C 0.54814 0.44834 0.24841
 C487 C 0.53632 0.45484 0.23194
 C488 C 0.52466 0.47247 0.23339
 H489 H 0.47014 0.48916 0.22251
 H490 H 0.44844 0.45899 0.22246
 H491 H 0.46736 0.44510 0.28350
 H492 H 0.48932 0.47524 0.28332
 H493 H 0.49317 0.53519 0.22629
 H494 H 0.46913 0.56360 0.22517
 H495 H 0.46490 0.51336 0.28106
 H496 H 0.51266 0.53415 0.28044
 H497 H 0.53593 0.56309 0.28259
 H498 H 0.56614 0.54282 0.22829
 H499 H 0.54296 0.51412 0.22618
 H500 H 0.53692 0.48622 0.28154
 H501 H 0.55715 0.45510 0.27920
 H502 H 0.53615 0.44630 0.21796
 H503 H 0.51578 0.47740 0.22050
 H504 H 0.44106 0.54162 0.28010
 O505 O 0.25820 0.19762 0.21511
 O506 O 0.28060 0.19127 0.24302
 O507 O 0.20565 0.22114 0.24598
 O508 O 0.19792 0.24746 0.26534
 O509 O 0.22934 0.25107 0.19179
 O510 O 0.25754 0.27326 0.18629
 O511 O 0.25897 0.27638 0.29697
 O512 O 0.23533 0.24957 0.30215
 O513 O 0.31049 0.24954 0.27175
 O514 O 0.31629 0.22699 0.24208
 O515 O 0.28584 0.30172 0.24623
 O516 O 0.25698 0.30840 0.22282
 O517 O 0.25839 0.30115 0.27302
 O518 O 0.23545 0.30793 0.24434
 O519 O 0.31018 0.27744 0.24469
 O520 O 0.31648 0.24925 0.22142
 O521 O 0.28623 0.24951 0.29616
 O522 O 0.25885 0.22603 0.30257
 O523 O 0.25788 0.22238 0.19110
 O524 O 0.27996 0.25073 0.18561
 O525 O 0.20537 0.24964 0.21648
 O526 O 0.20082 0.27306 0.24490
 O527 O 0.23002 0.19689 0.24380
 O528 O 0.25828 0.19068 0.26559
 Zr529 Zr 0.25730 0.21325 0.24282
 O530 O 0.27633 0.23020 0.26186
 Zr531 Zr 0.22165 0.24867 0.24380
 O532 O 0.23908 0.26722 0.26297
 Zr533 Zr 0.25690 0.24949 0.20782
 O534 O 0.27596 0.26808 0.22536
 Zr535 Zr 0.25877 0.24928 0.28030
 O536 O 0.23954 0.23045 0.26299
 Zr537 Zr 0.29406 0.25001 0.24436
 O538 O 0.27672 0.23129 0.22500
 Zr539 Zr 0.25838 0.28552 0.24533
 O540 O 0.23914 0.26864 0.22603
 O541 O 0.23824 0.23029 0.22445
 O542 O 0.27759 0.26862 0.26383
 C543 C 0.25843 0.20367 0.19658
 C544 C 0.21147 0.20253 0.24550
 C545 C 0.21080 0.25090 0.19782
 C546 C 0.25872 0.29511 0.29153
 C547 C 0.30480 0.24950 0.29039
 C548 C 0.30444 0.29600 0.24573
 H549 H 0.28483 0.22085 0.26989
 H550 H 0.28423 0.27667 0.21628
 H551 H 0.22950 0.22170 0.21585
 H552 H 0.23003 0.27531 0.27173
 H553 H 0.22515 0.23948 0.29777
 H554 H 0.20258 0.25477 0.27753
 H555 H 0.31316 0.25989 0.21138
 H556 H 0.29074 0.24132 0.19016
 H557 H 0.26896 0.21573 0.29862
 H558 H 0.24918 0.19530 0.27657
 H559 H 0.26823 0.30612 0.21319
 H560 H 0.24854 0.28403 0.19157
 H561 H 0.29123 0.19626 0.23367
 H562 H 0.31389 0.21712 0.25312
 H563 H 0.20480 0.28277 0.23415
 H564 H 0.22546 0.30468 0.25504
 O565 O 0.75073 0.80953 0.23119
 O566 O 0.72827 0.81549 0.25908
 O567 O 0.80312 0.78497 0.26043
 O568 O 0.81051 0.75886 0.28069
 O569 O 0.77875 0.75692 0.20721
 O570 O 0.75090 0.73415 0.20177
 O571 O 0.74986 0.72967 0.31262
 O572 O 0.77333 0.75618 0.31781
 O573 O 0.69829 0.75657 0.28775
 O574 O 0.69203 0.77953 0.25862
 O575 O 0.72250 0.70487 0.26080
 O576 O 0.75154 0.69818 0.23842
 O577 O 0.74868 0.70520 0.28851
 O578 O 0.77298 0.69868 0.26006
 O579 O 0.69821 0.72922 0.26092
 O580 O 0.69219 0.75797 0.23726
 O581 O 0.72249 0.75613 0.31215
 O582 O 0.75020 0.78021 0.31804
 O583 O 0.74999 0.78490 0.20721
 O584 O 0.72816 0.75642 0.20154
 O585 O 0.80300 0.75627 0.23163
 O586 O 0.80755 0.73307 0.26020
 O587 O 0.77885 0.80943 0.26012
 O588 O 0.75042 0.81549 0.28181
 Zr589 Zr 0.75140 0.79334 0.25877
 O590 O 0.73232 0.77621 0.27779
 Zr591 Zr 0.78686 0.75759 0.25913
 O592 O 0.76941 0.73898 0.27843
 Zr593 Zr 0.75135 0.75756 0.22355
 O594 O 0.73236 0.73874 0.24104
 Zr595 Zr 0.74990 0.75687 0.29600
 O596 O 0.76922 0.77572 0.27861
 Zr597 Zr 0.71446 0.75664 0.26028
 O598 O 0.73177 0.77564 0.24101
 Zr599 Zr 0.74996 0.72101 0.26081
 O600 O 0.76913 0.73800 0.24139
 O601 O 0.77022 0.77640 0.24014
 O602 O 0.73097 0.73781 0.27951
 C603 C 0.74993 0.80359 0.21266
 C604 C 0.79743 0.80362 0.26077
 C605 C 0.79732 0.75618 0.21301
 C606 C 0.74890 0.71106 0.30705
 C607 C 0.70392 0.75610 0.30637
 C608 C 0.70390 0.71059 0.26106
 H609 H 0.72386 0.78545 0.28595
 H610 H 0.72404 0.73031 0.23194
 H611 H 0.77893 0.78506 0.23150
 H612 H 0.77840 0.73073 0.28712
 H613 H 0.78367 0.76613 0.31335
 H614 H 0.80603 0.75110 0.29273
 H615 H 0.69479 0.74672 0.22774
 H616 H 0.71734 0.76565 0.20625
 H617 H 0.73901 0.78972 0.31508
 H618 H 0.75939 0.81058 0.29278
 H619 H 0.74129 0.70138 0.22797
 H620 H 0.76038 0.72359 0.20665
 H621 H 0.71751 0.81054 0.24993
 H622 H 0.69486 0.78952 0.26938
 H623 H 0.80316 0.72319 0.24984
 H624 H 0.78211 0.70103 0.27168
 O625 O 0.74939 0.19875 0.78110
 O626 O 0.72811 0.19199 0.75337
 O627 O 0.80249 0.22311 0.75187
 O628 O 0.81014 0.24899 0.73181
 O629 O 0.77787 0.25234 0.80489
 O630 O 0.74984 0.27371 0.81072
 O631 O 0.74910 0.27727 0.69915
 O632 O 0.77170 0.25086 0.69368
 O633 O 0.69726 0.25130 0.72512
 O634 O 0.69056 0.22951 0.75393
 O635 O 0.72236 0.30332 0.75039
 O636 O 0.75085 0.31053 0.77233
 O637 O 0.74867 0.30233 0.72266
 O638 O 0.77319 0.30857 0.75157
 O639 O 0.69778 0.27930 0.75207
 O640 O 0.69224 0.25009 0.77605
 O641 O 0.72123 0.25098 0.70042
 O642 O 0.74932 0.22645 0.69495
 O643 O 0.75014 0.22317 0.80533
 O644 O 0.72695 0.25162 0.81025
 O645 O 0.80223 0.25155 0.78057
 O646 O 0.80651 0.27509 0.75144
 O647 O 0.77834 0.19855 0.75267
 O648 O 0.74971 0.19268 0.73036
 Zr649 Zr 0.75074 0.21464 0.75359
 O650 O 0.73135 0.23162 0.73485
 Zr651 Zr 0.78615 0.25034 0.75301
 O652 O 0.76872 0.26851 0.73333
 Zr653 Zr 0.75062 0.25058 0.78867
 O654 O 0.73196 0.26959 0.77103
 Zr655 Zr 0.74891 0.25050 0.71621
 O656 O 0.76854 0.23206 0.73364
 Zr657 Zr 0.71375 0.25160 0.75228
 O658 O 0.73106 0.23242 0.77134
 Zr659 Zr 0.74955 0.28692 0.75076
 O660 O 0.76841 0.27006 0.77059
 O661 O 0.76951 0.23166 0.77215
 O662 O 0.73022 0.27001 0.73253
 C663 C 0.74933 0.20453 0.79965
 C664 C 0.79691 0.20445 0.75191
 C665 C 0.79647 0.25252 0.79916
 C666 C 0.74875 0.29601 0.70424
 C667 C 0.70270 0.25115 0.70644
 C668 C 0.70374 0.29783 0.75111
 H669 H 0.72277 0.22230 0.72694
 H670 H 0.72380 0.27824 0.78010
 H671 H 0.77823 0.22311 0.78087
 H672 H 0.77776 0.27651 0.72444
 H673 H 0.78260 0.24172 0.69845
 H674 H 0.80533 0.25562 0.71925
 H675 H 0.69456 0.26178 0.78508
 H676 H 0.71700 0.24115 0.80627
 H677 H 0.73758 0.21753 0.69761
 H678 H 0.75958 0.19701 0.71991
 H679 H 0.74116 0.30720 0.78328
 H680 H 0.75820 0.28496 0.80532
 H681 H 0.71677 0.19725 0.76166
 H682 H 0.69405 0.21854 0.74438
 H683 H 0.80286 0.28447 0.76253
 H684 H 0.78176 0.30658 0.73944
 O685 O 0.24408 0.79461 0.77910
 O686 O 0.26546 0.80022 0.75038
 O687 O 0.18987 0.77154 0.75130
 O688 O 0.18169 0.74560 0.73118
 O689 O 0.21468 0.74244 0.80411
 O690 O 0.24241 0.71947 0.80921
 O691 O 0.24119 0.71475 0.69857
 O692 O 0.21762 0.74161 0.69366
 O693 O 0.29344 0.74028 0.72179
 O694 O 0.30068 0.76360 0.75064
 O695 O 0.26876 0.68937 0.74965
 O696 O 0.24013 0.68363 0.77312
 O697 O 0.24101 0.69024 0.72280
 O698 O 0.21819 0.68437 0.75210
 O699 O 0.29337 0.71338 0.74899
 O700 O 0.30086 0.74185 0.77194
 O701 O 0.26866 0.74147 0.69798
 O702 O 0.24124 0.76506 0.69229
 O703 O 0.24414 0.77023 0.80350
 O704 O 0.26546 0.74133 0.80882
 O705 O 0.18998 0.74351 0.78018
 O706 O 0.18428 0.71982 0.75240
 O707 O 0.21480 0.79531 0.75117
 O708 O 0.24265 0.80080 0.72857
 Zr709 Zr 0.24189 0.77858 0.75170
 O710 O 0.26009 0.76101 0.73238
 Zr711 Zr 0.20559 0.74381 0.75243
 O712 O 0.22218 0.72467 0.73300
 Zr713 Zr 0.24184 0.74289 0.78729
 O714 O 0.26003 0.72364 0.76949
 Zr715 Zr 0.24167 0.74204 0.71480
 O716 O 0.22322 0.76144 0.73240
 Zr717 Zr 0.27786 0.74108 0.74965
 O718 O 0.26146 0.76045 0.76919
 Zr719 Zr 0.24161 0.70621 0.75032
 O720 O 0.22323 0.72377 0.76995
 O721 O 0.22311 0.76219 0.77094
 O722 O 0.26053 0.72254 0.73098
 C723 C 0.24497 0.78884 0.79771
 C724 C 0.19606 0.79003 0.75088
 C725 C 0.19597 0.74278 0.79868
 C726 C 0.24100 0.69609 0.70421
 C727 C 0.28733 0.74062 0.70331
 C728 C 0.28744 0.69486 0.74902
 H729 H 0.26855 0.77007 0.72395
 H730 H 0.26840 0.71505 0.77847
 H731 H 0.21488 0.77110 0.77974
 H732 H 0.21279 0.71661 0.72461
 H733 H 0.20762 0.75182 0.69823
 H734 H 0.18544 0.73709 0.71946
 H735 H 0.29797 0.73103 0.78193
 H736 H 0.27641 0.75023 0.80372
 H737 H 0.25167 0.77523 0.69572
 H738 H 0.23302 0.79630 0.71802
 H739 H 0.25106 0.68634 0.78297
 H740 H 0.23276 0.70901 0.80456
 H741 H 0.27650 0.79496 0.75907
 H742 H 0.29830 0.77316 0.73933
 H743 H 0.18856 0.71006 0.76298
 H744 H 0.20824 0.68747 0.74133
 O745 O 0.25045 0.31080 0.73035
 O746 O 0.22845 0.31634 0.75871
 O747 O 0.30308 0.28472 0.75818
 O748 O 0.30945 0.25826 0.77887
 O749 O 0.27823 0.25825 0.70492
 O750 O 0.24959 0.23645 0.69880
 O751 O 0.24978 0.22844 0.80920
 O752 O 0.27333 0.25553 0.81481
 O753 O 0.19780 0.25722 0.78561
 O754 O 0.19210 0.28141 0.75729
 O755 O 0.22087 0.20597 0.75614
 O756 O 0.25022 0.19968 0.73384
 O757 O 0.24718 0.20478 0.78440
 O758 O 0.27106 0.19856 0.75587
 O759 O 0.19711 0.23081 0.75772
 O760 O 0.19139 0.26029 0.73537
 O761 O 0.22210 0.25486 0.80981
 O762 O 0.24641 0.27787 0.81685
 O763 O 0.25071 0.28701 0.70550
 O764 O 0.22753 0.25966 0.69921
 O765 O 0.30239 0.25664 0.72939
 O766 O 0.30684 0.23313 0.75742
 O767 O 0.27914 0.30951 0.75858
 O768 O 0.25005 0.31598 0.78072
 Zr769 Zr 0.25134 0.29396 0.75751
 O770 O 0.23221 0.27647 0.77615
 Zr771 Zr 0.28622 0.25770 0.75684
 O772 O 0.26850 0.23857 0.77535
 Zr773 Zr 0.25078 0.25924 0.72120
 O774 O 0.23142 0.24030 0.73813
 Zr775 Zr 0.24937 0.25615 0.79355
 O776 O 0.26890 0.27558 0.77692
 Zr777 Zr 0.21389 0.25787 0.75806
 O778 O 0.23146 0.27710 0.73923
 Zr779 Zr 0.24870 0.22152 0.75720
 O780 O 0.26824 0.23888 0.73847
 O781 O 0.26987 0.27725 0.73838
 O782 O 0.23005 0.23798 0.77654
 C783 C 0.25044 0.30548 0.71163
 C784 C 0.29763 0.30343 0.75880
 C785 C 0.29678 0.25705 0.71076
 C786 C 0.24824 0.21005 0.80310
 C787 C 0.20351 0.25570 0.80416
 C788 C 0.20241 0.21212 0.75671
 H789 H 0.22419 0.28553 0.78497
 H790 H 0.22293 0.23238 0.72873
 H791 H 0.27873 0.28590 0.72990
 H792 H 0.27744 0.22990 0.78368
 H793 H 0.28230 0.26714 0.81160
 H794 H 0.30452 0.25051 0.79074
 H795 H 0.19426 0.24989 0.72500
 H796 H 0.21708 0.26917 0.70422
 H797 H 0.25398 0.28997 0.81234
 H798 H 0.26171 0.31358 0.78983
 H799 H 0.23978 0.20319 0.72368
 H800 H 0.25912 0.22569 0.70312
 H801 H 0.21766 0.31194 0.74929
 H802 H 0.19506 0.29076 0.76858
 H803 H 0.30206 0.22322 0.74727
 H804 H 0.28056 0.20068 0.76724
 O805 O 0.75908 0.69633 0.71269
 O806 O 0.78118 0.69029 0.74076
 O807 O 0.70657 0.72108 0.74219
 O808 O 0.69927 0.74746 0.76182
 O809 O 0.73067 0.74950 0.68811
 O810 O 0.75911 0.77133 0.68221
 O811 O 0.76039 0.77668 0.79285
 O812 O 0.73652 0.75031 0.79859
 O813 O 0.81169 0.74899 0.76835
 O814 O 0.81742 0.72586 0.73918
 O815 O 0.78746 0.80082 0.74105
 O816 O 0.75857 0.80741 0.71821
 O817 O 0.76032 0.80104 0.76848
 O818 O 0.73710 0.80738 0.73969
 O819 O 0.81168 0.77639 0.74084
 O820 O 0.81768 0.74760 0.71794
 O821 O 0.78735 0.74984 0.79266
 O822 O 0.75971 0.72639 0.79934
 O823 O 0.75908 0.72057 0.68815
 O824 O 0.78136 0.74864 0.68211
 O825 O 0.70671 0.74928 0.71283
 O826 O 0.70226 0.77293 0.74089
 O827 O 0.73067 0.69650 0.74136
 O828 O 0.75890 0.69053 0.76334
 Zr829 Zr 0.75817 0.71256 0.74004
 O830 O 0.77738 0.72973 0.75873
 Zr831 Zr 0.72291 0.74837 0.74016
 O832 O 0.74045 0.76710 0.75903
 Zr833 Zr 0.75822 0.74805 0.70426
 O834 O 0.77737 0.76685 0.72147
 Zr835 Zr 0.75994 0.74931 0.77672
 O836 O 0.74053 0.73034 0.75978
 Zr837 Zr 0.79532 0.74905 0.74090
 O838 O 0.77782 0.73006 0.72192
 Zr839 Zr 0.75990 0.78486 0.74105
 O840 O 0.74060 0.76778 0.72201
 O841 O 0.73935 0.72940 0.72124
 O842 O 0.77894 0.76818 0.75992
 C843 C 0.75950 0.70197 0.69404
 C844 C 0.71213 0.70240 0.74238
 C845 C 0.71214 0.74996 0.69414
 C846 C 0.76052 0.79531 0.78710
 C847 C 0.80593 0.74957 0.78696
 C848 C 0.80604 0.79503 0.74097
 H849 H 0.78579 0.72048 0.76698
 H850 H 0.78572 0.77518 0.71222
 H851 H 0.73056 0.72075 0.71274
 H852 H 0.73147 0.77544 0.76762
 H853 H 0.72621 0.74027 0.79440
 H854 H 0.70383 0.75526 0.77374
 H855 H 0.81465 0.75829 0.70786
 H856 H 0.79208 0.73932 0.68694
 H857 H 0.77016 0.71624 0.79592
 H858 H 0.74983 0.69550 0.77419
 H859 H 0.76929 0.80445 0.70818
 H860 H 0.75002 0.78220 0.68711
 H861 H 0.79200 0.69507 0.73153
 H862 H 0.81484 0.71617 0.75035
 H863 H 0.70647 0.78256 0.73016
 H864 H 0.72735 0.80468 0.75076
 O865 O 0.24867 0.69751 0.27816
 O866 O 0.22733 0.69110 0.25052
 O867 O 0.30155 0.72267 0.24843
 O868 O 0.30898 0.74934 0.22940
 O869 O 0.27704 0.75071 0.30265
 O870 O 0.24889 0.77193 0.30900
 O871 O 0.24703 0.77796 0.19783
 O872 O 0.27089 0.75168 0.19215
 O873 O 0.19610 0.75071 0.22326
 O874 O 0.18977 0.72826 0.25163
 O875 O 0.22098 0.80248 0.24956
 O876 O 0.24962 0.80914 0.27199
 O877 O 0.24759 0.80236 0.22199
 O878 O 0.27166 0.80817 0.25093
 O879 O 0.19656 0.77827 0.25039
 O880 O 0.19119 0.74871 0.27413
 O881 O 0.21994 0.75130 0.19844
 O882 O 0.24468 0.72777 0.19211
 O883 O 0.24947 0.72151 0.30278
 O884 O 0.22624 0.74956 0.30839
 O885 O 0.30132 0.75045 0.27824
 O886 O 0.30537 0.77452 0.24938
 O887 O 0.27761 0.69799 0.24996
 O888 O 0.24777 0.69204 0.22751
 Zr889 Zr 0.24985 0.71386 0.25086
 O890 O 0.23043 0.73123 0.23248
 Zr891 Zr 0.28505 0.74973 0.25070
 O892 O 0.26742 0.76837 0.23163
 Zr893 Zr 0.24972 0.74914 0.28659
 O894 O 0.23081 0.76837 0.26948
 Zr895 Zr 0.24761 0.75073 0.21420
 O896 O 0.26741 0.73172 0.23098
 Zr897 Zr 0.21268 0.75066 0.25038
 O898 O 0.23017 0.73123 0.26901
 Zr899 Zr 0.24829 0.78625 0.24964
 O900 O 0.26739 0.76901 0.26886
 O901 O 0.26864 0.73063 0.26962
 O902 O 0.22896 0.76970 0.23110
 C903 C 0.24871 0.70298 0.29681
 C904 C 0.29611 0.70398 0.24859
 C905 C 0.29562 0.75109 0.29688
 C906 C 0.24699 0.79657 0.20341
 C907 C 0.20144 0.75110 0.20456
 C908 C 0.20238 0.79687 0.24986
 H909 H 0.22209 0.72206 0.22410
 H910 H 0.22260 0.77675 0.27875
 H911 H 0.27747 0.72198 0.27812
 H912 H 0.27638 0.77663 0.22288
 H913 H 0.28053 0.74071 0.19560
 H914 H 0.30351 0.75484 0.21660
 H915 H 0.19336 0.76037 0.28325
 H916 H 0.21613 0.73939 0.30405
 H917 H 0.25430 0.71693 0.19583
 H918 H 0.26007 0.69328 0.21902
 H919 H 0.23941 0.80587 0.28247
 H920 H 0.25728 0.78325 0.30382
 H921 H 0.21600 0.69619 0.25892
 H922 H 0.19337 0.71758 0.24179
 H923 H 0.30183 0.78366 0.26071
 H924 H 0.28061 0.80613 0.23908
 O925 O 0.74094 0.29486 0.27423
 O926 O 0.76227 0.30069 0.24548
 O927 O 0.68759 0.26962 0.24695
 O928 O 0.68003 0.24315 0.22737
 O929 O 0.71364 0.24215 0.30003
 O930 O 0.74198 0.22006 0.30527
 O931 O 0.74021 0.21380 0.19468
 O932 O 0.71604 0.23998 0.18950
 O933 O 0.79194 0.24111 0.21739
 O934 O 0.79872 0.26499 0.24568
 O935 O 0.76889 0.18996 0.24552
 O936 O 0.74082 0.18359 0.26958
 O937 O 0.74076 0.18963 0.21924
 O938 O 0.71850 0.18350 0.24890
 O939 O 0.79281 0.21465 0.24494
 O940 O 0.79937 0.24384 0.26757
 O941 O 0.76708 0.24117 0.19363
 O942 O 0.73888 0.26412 0.18785
 O943 O 0.74216 0.27070 0.29883
 O944 O 0.76443 0.24252 0.30438
 O945 O 0.68874 0.24204 0.27631
 O946 O 0.68363 0.21778 0.24880
 O947 O 0.71171 0.29422 0.24593
 O948 O 0.73955 0.30029 0.22358
 Zr949 Zr 0.73935 0.27837 0.24700
 O950 O 0.75801 0.26108 0.22783
 Zr951 Zr 0.70416 0.24244 0.24843
 O952 O 0.72122 0.22362 0.22910
 Zr953 Zr 0.74062 0.24311 0.28301
 O954 O 0.75927 0.22416 0.26538
 Zr955 Zr 0.74010 0.24133 0.21056
 O956 O 0.72114 0.26035 0.22805
 Zr957 Zr 0.77645 0.24191 0.24526
 O958 O 0.75957 0.26106 0.26460
 Zr959 Zr 0.74127 0.20597 0.24653
 O960 O 0.72250 0.22319 0.26608
 O961 O 0.72120 0.26163 0.26654
 O962 O 0.75961 0.22261 0.22691
 C963 C 0.74220 0.28928 0.29289
 C964 C 0.69316 0.28827 0.24591
 C965 C 0.69489 0.24183 0.29477
 C966 C 0.74046 0.19522 0.20059
 C967 C 0.78578 0.24091 0.19893
 C968 C 0.78741 0.19596 0.24491
 H969 H 0.76616 0.27025 0.21923
 H970 H 0.76795 0.21595 0.27441
 H971 H 0.71271 0.27042 0.27522
 H972 H 0.71201 0.21518 0.22088
 H973 H 0.70570 0.24985 0.19405
 H974 H 0.68407 0.23482 0.21562
 H975 H 0.79708 0.23283 0.27751
 H976 H 0.77502 0.25181 0.29918
 H977 H 0.74942 0.27433 0.19079
 H978 H 0.73027 0.29526 0.21296
 H979 H 0.75182 0.18672 0.27923
 H980 H 0.73278 0.20915 0.30070
 H981 H 0.77346 0.29582 0.25419
 H982 H 0.79578 0.27452 0.23448
 H983 H 0.68815 0.20840 0.25962
 H984 H 0.70837 0.18616 0.23819
 C985 C 0.25455 0.09713 0.08935
 C986 C 0.25920 0.10135 0.06896
 C987 C 0.25788 0.08612 0.05430
 C988 C 0.25172 0.06646 0.05971
 C989 C 0.24713 0.06227 0.08007
 C990 C 0.24855 0.07739 0.09470
 C991 C 0.25586 0.11309 0.10506
 N992 N 0.25309 0.10835 0.12490
 N993 N 0.25402 0.12258 0.13910
 C994 C 0.25774 0.14221 0.13410
 N995 N 0.26054 0.14698 0.11425
 N996 N 0.25964 0.13271 0.10002
 C997 C 0.25843 0.15800 0.15001
 C998 C 0.26031 0.17862 0.14489
 C999 C 0.26045 0.19345 0.15998
 C1000 C 0.25881 0.18800 0.18053
 C1001 C 0.25716 0.16736 0.18562
 C1002 C 0.25694 0.15257 0.17056
 H1003 H 0.26389 0.11638 0.06433
 H1004 H 0.26142 0.08978 0.03869
 H1005 H 0.24268 0.04717 0.08476
 H1006 H 0.24489 0.07356 0.11024
 H1007 H 0.26148 0.18334 0.12921
 H1008 H 0.26177 0.20920 0.15551
 H1009 H 0.25583 0.16258 0.20127
 H1010 H 0.25553 0.13685 0.17508
 C1011 C 0.75745 0.59274 0.58947
 C1012 C 0.76065 0.59681 0.56878
 C1013 C 0.75915 0.58129 0.55444
 C1014 C 0.75427 0.56145 0.56050
 C1015 C 0.75127 0.55738 0.58118
 C1016 C 0.75287 0.57280 0.59548
 C1017 C 0.75860 0.60909 0.60478
 N1018 N 0.75673 0.60471 0.62480
 N1019 N 0.75738 0.61931 0.63863
 C1020 C 0.75990 0.63898 0.63306
 N1021 N 0.76184 0.64340 0.61303
 N1022 N 0.76121 0.62876 0.59918
 C1023 C 0.76024 0.65518 0.64857
 C1024 C 0.76138 0.67572 0.64294
 C1025 C 0.76125 0.69092 0.65766
 C1026 C 0.76003 0.68593 0.67835
 C1027 C 0.75907 0.66538 0.68396
 C1028 C 0.75915 0.65022 0.66927
 H1029 H 0.76424 0.61198 0.56363
 H1030 H 0.76144 0.58487 0.53858
 H1031 H 0.74782 0.54216 0.58633
 H1032 H 0.75037 0.56907 0.61126
 H1033 H 0.76222 0.68009 0.62714
 H1034 H 0.76203 0.70659 0.65279
 H1035 H 0.75810 0.66094 0.69973
 H1036 H 0.75828 0.63457 0.67419
 C1037 C 0.75029 0.90517 0.09995
 C1038 C 0.75864 0.92461 0.10205
 C1039 C 0.75910 0.93811 0.08563
 C1040 C 0.75098 0.93263 0.06661
 C1041 C 0.74261 0.91301 0.06477
 C1042 C 0.74232 0.89957 0.08110
 C1043 C 0.74997 0.89057 0.11709
 N1044 N 0.74381 0.87119 0.11410
 N1045 N 0.74356 0.85790 0.12928
 C1046 C 0.74941 0.86339 0.14818
 N1047 N 0.75554 0.88281 0.15125
 N1048 N 0.75583 0.89612 0.13600
 C1049 C 0.74927 0.84833 0.16491
 C1050 C 0.75308 0.85413 0.18503
 C1051 C 0.75305 0.83970 0.20063
 C1052 C 0.74937 0.81914 0.19641
 C1053 C 0.74551 0.81341 0.17630
 C1054 C 0.74540 0.82781 0.16079
 H1055 H 0.76486 0.92945 0.11641
 H1056 H 0.76517 0.95308 0.08828
 H1057 H 0.73700 0.90739 0.05047
 H1058 H 0.73590 0.88465 0.07883
 H1059 H 0.75607 0.86982 0.18874
 H1060 H 0.75615 0.84461 0.21595
 H1061 H 0.74256 0.79774 0.17248
 H1062 H 0.74243 0.82276 0.14549
 C1063 C 0.25559 0.41334 0.60550
 C1064 C 0.27228 0.41489 0.59235
 C1065 C 0.27196 0.42848 0.57608
 C1066 C 0.25483 0.44055 0.57246
 C1067 C 0.23831 0.43934 0.58582
 C1068 C 0.23875 0.42599 0.60230
 C1069 C 0.25538 0.39799 0.62188
 N1070 N 0.24234 0.39959 0.63774
 N1071 N 0.24170 0.38533 0.65207
 C1072 C 0.25393 0.36881 0.65102
 N1073 N 0.26698 0.36725 0.63519
 N1074 N 0.26773 0.38156 0.62095
 C1075 C 0.25285 0.35265 0.66656
 C1076 C 0.25996 0.33307 0.66221
 C1077 C 0.25883 0.31770 0.67675
 C1078 C 0.25088 0.32165 0.69608
 C1079 C 0.24387 0.34125 0.70050
 C1080 C 0.24466 0.35655 0.68581
 H1081 H 0.28550 0.40542 0.59449
 H1082 H 0.28482 0.42905 0.56589
 H1083 H 0.22498 0.44859 0.58337
 H1084 H 0.22566 0.42513 0.61215
 H1085 H 0.26626 0.32956 0.64748
 H1086 H 0.26451 0.30278 0.67295
 H1087 H 0.23764 0.34471 0.71528
 H1088 H 0.23911 0.37151 0.68962
 C1089 C 0.75490 0.09008 0.89869
 C1090 C 0.74002 0.07483 0.89833
 C1091 C 0.74036 0.05907 0.91249
 C1092 C 0.75573 0.05804 0.92713
 C1093 C 0.77098 0.07286 0.92711
 C1094 C 0.77051 0.08881 0.91310
 C1095 C 0.75383 0.10737 0.88436
 N1096 N 0.76479 0.12450 0.88753
 N1097 N 0.76349 0.14016 0.87478
 C1098 C 0.75122 0.13929 0.85831
 N1099 N 0.74031 0.12215 0.85514
 N1100 N 0.74152 0.10656 0.86793
 C1101 C 0.75004 0.15641 0.84378
 C1102 C 0.74172 0.15340 0.82446
 C1103 C 0.74123 0.16916 0.81035
 C1104 C 0.74882 0.18842 0.81527
 C1105 C 0.75667 0.19166 0.83476
 C1106 C 0.75742 0.17575 0.84884
 H1107 H 0.72781 0.07533 0.88742
 H1108 H 0.72848 0.04776 0.91216
 H1109 H 0.78288 0.07250 0.93838
 H1110 H 0.78226 0.10024 0.91370
 H1111 H 0.73591 0.13872 0.82005
 H1112 H 0.73499 0.16621 0.79549
 H1113 H 0.76271 0.20633 0.83892
 H1114 H 0.76383 0.17857 0.86365
 C1115 C 0.25287 0.58917 0.39670
 C1116 C 0.26878 0.58758 0.41076
 C1117 C 0.26887 0.57205 0.42522
 C1118 C 0.25293 0.55799 0.42609
 C1119 C 0.23724 0.55932 0.41182
 C1120 C 0.23729 0.57465 0.39717
 C1121 C 0.25223 0.60614 0.38199
 N1122 N 0.23994 0.60529 0.36555
 N1123 N 0.23908 0.62068 0.35248
 C1124 C 0.25034 0.63765 0.35540
 N1125 N 0.26259 0.63854 0.37188
 N1126 N 0.26355 0.62308 0.38488
 C1127 C 0.24942 0.65466 0.34074
 C1128 C 0.25658 0.67404 0.34591
 C1129 C 0.25591 0.68994 0.33184
 C1130 C 0.24837 0.68667 0.31223
 C1131 C 0.24110 0.66734 0.30714
 C1132 C 0.24149 0.65156 0.32126
 H1133 H 0.28106 0.59845 0.41071
 H1134 H 0.28103 0.57146 0.43620
 H1135 H 0.22482 0.54861 0.41217
 H1136 H 0.22482 0.57545 0.38656
 H1137 H 0.26269 0.67692 0.36084
 H1138 H 0.26171 0.70466 0.33615
 H1139 H 0.23511 0.66436 0.29218
 H1140 H 0.23588 0.63683 0.31678
 C1141 C 0.25185 0.89749 0.90274
 C1142 C 0.24764 0.91758 0.89697
 C1143 C 0.24712 0.93300 0.91135
 C1144 C 0.25085 0.92879 0.93187
 C1145 C 0.25546 0.90882 0.93768
 C1146 C 0.25587 0.89329 0.92326
 C1147 C 0.25171 0.88116 0.88735
 N1148 N 0.25373 0.86137 0.89276
 N1149 N 0.25311 0.84679 0.87884
 C1150 C 0.25047 0.85138 0.85894
 N1151 N 0.24855 0.87117 0.85356
 N1152 N 0.24914 0.88571 0.86745
 C1153 C 0.24941 0.83526 0.84336
 C1154 C 0.24764 0.84040 0.82275
 C1155 C 0.24630 0.82535 0.80800
 C1156 C 0.24666 0.80474 0.81345
 C1157 C 0.24852 0.79957 0.83406
 C1158 C 0.24991 0.81466 0.84884
 H1159 H 0.24455 0.92144 0.88133
 H1160 H 0.24387 0.94832 0.90637
 H1161 H 0.25833 0.90515 0.95341
 H1162 H 0.25921 0.87799 0.92821
 H1163 H 0.24723 0.85610 0.81795
 H1164 H 0.24487 0.82993 0.79231
 H1165 H 0.24887 0.78385 0.83881
 H1166 H 0.25125 0.81016 0.86456
 C1167 C 0.74667 0.39706 0.39905
 C1168 C 0.74202 0.41721 0.39386
 C1169 C 0.74182 0.43233 0.40859
 C1170 C 0.74631 0.42774 0.42889
 C1171 C 0.75118 0.40766 0.43411
 C1172 C 0.75129 0.39246 0.41935
 C1173 C 0.74653 0.38103 0.38334
 N1174 N 0.74953 0.36126 0.38833
 N1175 N 0.74914 0.34690 0.37419
 C1176 C 0.74576 0.35169 0.35444
 N1177 N 0.74282 0.37145 0.34946
 N1178 N 0.74318 0.38580 0.36359
 C1179 C 0.74511 0.33572 0.33868
 C1180 C 0.74269 0.34089 0.31814
 C1181 C 0.74186 0.32586 0.30329
 C1182 C 0.74336 0.30527 0.30860
 C1183 C 0.74584 0.30010 0.32914
 C1184 C 0.74673 0.31513 0.34398
 H1185 H 0.73845 0.42135 0.37839
 H1186 H 0.73835 0.44773 0.40404
 H1187 H 0.75458 0.40365 0.44965
 H1188 H 0.75495 0.37711 0.42389
 H1189 H 0.74141 0.35659 0.31348
 H1190 H 0.73992 0.33042 0.28764
 H1191 H 0.74707 0.28440 0.33381
 H1192 H 0.74859 0.31058 0.35964
 C1193 C 0.09868 0.25235 0.09618
 C1194 C 0.08046 0.24266 0.10125
 C1195 C 0.06441 0.24205 0.08757
 C1196 C 0.06591 0.25125 0.06828
 C1197 C 0.08424 0.26122 0.06338
 C1198 C 0.10042 0.26162 0.07709
 C1199 C 0.11560 0.25271 0.11093
 N1200 N 0.13441 0.25913 0.10549
 N1201 N 0.14953 0.25915 0.11888
 C1202 C 0.14643 0.25281 0.13825
 N1203 N 0.12762 0.24647 0.14364
 N1204 N 0.11257 0.24639 0.13028
 C1205 C 0.16307 0.25268 0.15331
 C1206 C 0.15880 0.24883 0.17382
 C1207 C 0.17428 0.24840 0.18815
 C1208 C 0.19451 0.25169 0.18239
 C1209 C 0.19886 0.25558 0.16188
 C1210 C 0.18328 0.25615 0.14750
 H1211 H 0.07850 0.23548 0.11589
 H1212 H 0.05054 0.23500 0.09273
 H1213 H 0.08660 0.26808 0.04867
 H1214 H 0.11429 0.26920 0.07269
 H1215 H 0.14342 0.24614 0.17888
 H1216 H 0.17033 0.24530 0.20379
 H1217 H 0.21428 0.25823 0.15693
 H1218 H 0.18709 0.25913 0.13181
 C1219 C 0.59851 0.75366 0.59411
 C1220 C 0.57886 0.74937 0.60114
 C1221 C 0.56256 0.74868 0.58777
 C1222 C 0.56542 0.75233 0.56700
 C1223 C 0.58495 0.75699 0.55992
 C1224 C 0.60137 0.75757 0.57334
 C1225 C 0.61576 0.75377 0.60850
 N1226 N 0.63518 0.75591 0.60197
 N1227 N 0.65055 0.75559 0.61507
 C1228 C 0.64711 0.75314 0.63524
 N1229 N 0.62769 0.75109 0.64170
 N1230 N 0.61238 0.75138 0.62864
 C1231 C 0.66400 0.75255 0.65004
 C1232 C 0.65977 0.75106 0.67085
 C1233 C 0.67539 0.75027 0.68500
 C1234 C 0.69576 0.75092 0.67879
 C1235 C 0.70008 0.75244 0.65796
 C1236 C 0.68435 0.75328 0.64373
 H1237 H 0.57602 0.74636 0.61702
 H1238 H 0.54762 0.74536 0.59371
 H1239 H 0.58759 0.75977 0.54396
 H1240 H 0.61630 0.76097 0.56742
 H1241 H 0.64432 0.75048 0.67632
 H1242 H 0.67142 0.74908 0.70087
 H1243 H 0.71559 0.75299 0.65265
 H1244 H 0.68815 0.75441 0.62781
 C1245 C 0.08906 0.74525 0.90597
 C1246 C 0.09270 0.73616 0.92483
 C1247 C 0.07792 0.73627 0.93992
 C1248 C 0.05890 0.74561 0.93676
 C1249 C 0.05542 0.75484 0.91774
 C1250 C 0.07023 0.75454 0.90256
 C1251 C 0.10492 0.74503 0.89005
 N1252 N 0.10080 0.75133 0.87089
 N1253 N 0.11508 0.75096 0.85663
 C1254 C 0.13410 0.74435 0.86092
 N1255 N 0.13822 0.73811 0.88009
 N1256 N 0.12393 0.73842 0.89433
 C1257 C 0.14997 0.74387 0.84504
 C1258 C 0.17024 0.73962 0.85003
 C1259 C 0.18520 0.73924 0.83503
 C1260 C 0.18020 0.74294 0.81467
 C1261 C 0.15991 0.74710 0.80969
 C1262 C 0.14500 0.74762 0.82469
 H1263 H 0.10709 0.72897 0.92805
 H1264 H 0.08201 0.72972 0.95438
 H1265 H 0.04100 0.76171 0.91409
 H1266 H 0.06689 0.76163 0.88813
 H1267 H 0.17461 0.73670 0.86557
 H1268 H 0.20067 0.73598 0.83938
 H1269 H 0.15551 0.75014 0.79418
 H1270 H 0.12955 0.75090 0.82030
 C1271 C 0.59025 0.24718 0.40421
 C1272 C 0.56985 0.25159 0.39988
 C1273 C 0.55539 0.25208 0.41540
 C1274 C 0.56103 0.24804 0.43551
 C1275 C 0.58143 0.24384 0.43984
 C1276 C 0.59585 0.24343 0.42440
 C1277 C 0.60567 0.24635 0.38788
 N1278 N 0.62548 0.24314 0.39238
 N1279 N 0.63938 0.24221 0.37780
 C1280 C 0.63408 0.24441 0.35805
 N1281 N 0.61426 0.24763 0.35353
 N1282 N 0.60034 0.24859 0.36814
 C1283 C 0.64961 0.24338 0.34185
 C1284 C 0.64400 0.24454 0.32136
 C1285 C 0.65866 0.24378 0.30611
 C1286 C 0.67932 0.24191 0.31097
 C1287 C 0.68492 0.24064 0.33147
 C1288 C 0.67024 0.24133 0.34672
 H1289 H 0.56502 0.25460 0.38450
 H1290 H 0.53975 0.25527 0.41163
 H1291 H 0.58629 0.24101 0.45525
 H1292 H 0.61141 0.24007 0.42834
 H1293 H 0.62825 0.24609 0.31705
 H1294 H 0.65378 0.24487 0.29049
 H1295 H 0.70067 0.23919 0.33577
 H1296 H 0.67511 0.24039 0.36234
 C1297 C 0.90551 0.75605 0.10728
 C1298 C 0.90904 0.77316 0.09511
 C1299 C 0.92337 0.77259 0.07951
 C1300 C 0.93426 0.75466 0.07526
 C1301 C 0.93080 0.73764 0.08785
 C1302 C 0.91679 0.73841 0.10370
 C1303 C 0.88978 0.75640 0.12327
 N1304 N 0.89036 0.74300 0.13892
 N1305 N 0.87594 0.74301 0.15305
 C1306 C 0.86025 0.75629 0.15201
 N1307 N 0.85967 0.76967 0.13635
 N1308 N 0.87417 0.76977 0.12231
 C1309 C 0.84408 0.75609 0.16756
 C1310 C 0.82486 0.76417 0.16325
 C1311 C 0.80955 0.76386 0.17790
 C1312 C 0.81326 0.75582 0.19727
 C1313 C 0.83251 0.74784 0.20161
 C1314 C 0.84770 0.74779 0.18684
 H1315 H 0.90059 0.78701 0.09756
 H1316 H 0.92491 0.78597 0.07014
 H1317 H 0.93926 0.72374 0.08592
 H1318 H 0.91451 0.72500 0.11293
 H1319 H 0.82159 0.77057 0.14849
 H1320 H 0.79490 0.77024 0.17417
 H1321 H 0.83579 0.74150 0.21640
 H1322 H 0.86238 0.74152 0.19062
 C1323 C 0.40659 0.25792 0.60658
 C1324 C 0.42047 0.24179 0.60560
 C1325 C 0.43493 0.24102 0.59015
 C1326 C 0.43604 0.25652 0.57557
 C1327 C 0.42262 0.27296 0.57689
 C1328 C 0.40793 0.27359 0.59216
 C1329 C 0.39047 0.25808 0.62220
 N1330 N 0.37374 0.26985 0.61990
 N1331 N 0.35898 0.26956 0.63368
 C1332 C 0.36037 0.25756 0.65037
 N1333 N 0.37716 0.24588 0.65272
 N1334 N 0.39185 0.24607 0.63889
 C1335 C 0.34397 0.25719 0.66569
 C1336 C 0.34760 0.24946 0.68521
 C1337 C 0.33225 0.24936 0.69979
 C1338 C 0.31282 0.25669 0.69510
 C1339 C 0.30909 0.26417 0.67550
 C1340 C 0.32455 0.26456 0.66099
 H1341 H 0.41983 0.22948 0.61646
 H1342 H 0.44519 0.22823 0.58949
 H1343 H 0.42306 0.28501 0.56571
 H1344 H 0.39753 0.28627 0.59257
 H1345 H 0.36240 0.24373 0.68933
 H1346 H 0.33558 0.24346 0.71474
 H1347 H 0.29431 0.27005 0.67147
 H1348 H 0.32125 0.27053 0.64606
 C1349 C 0.90127 0.25075 0.90820
 C1350 C 0.89753 0.25898 0.92743
 C1351 C 0.91230 0.25814 0.94259
 C1352 C 0.93126 0.24883 0.93905
 C1353 C 0.93474 0.24052 0.91965
 C1354 C 0.92004 0.24153 0.90453
 C1355 C 0.88581 0.25176 0.89197
 N1356 N 0.89045 0.24607 0.87277
 N1357 N 0.87660 0.24679 0.85815
 C1358 C 0.85747 0.25320 0.86211
 N1359 N 0.85281 0.25893 0.88131
 N1360 N 0.86669 0.25826 0.89593
 C1361 C 0.84196 0.25362 0.84590
 C1362 C 0.82155 0.25748 0.85054
 C1363 C 0.80685 0.25727 0.83535
 C1364 C 0.81221 0.25335 0.81512
 C1365 C 0.83267 0.24978 0.81042
 C1366 C 0.84736 0.24985 0.82564
 H1367 H 0.88316 0.26611 0.93081
 H1368 H 0.90839 0.26423 0.95727
 H1369 H 0.94917 0.23397 0.91555
 H1370 H 0.92351 0.23513 0.88985
 H1371 H 0.81686 0.26042 0.86597
 H1372 H 0.79124 0.26015 0.83951
 H1373 H 0.83732 0.24664 0.79501
 H1374 H 0.86295 0.24687 0.82152
 C1375 C 0.39965 0.75003 0.40685
 C1376 C 0.39428 0.75422 0.42704
 C1377 C 0.40876 0.75320 0.44248
 C1378 C 0.42887 0.74784 0.43807
 C1379 C 0.43423 0.74374 0.41789
 C1380 C 0.41982 0.74484 0.40247
 C1381 C 0.38436 0.75091 0.39042
 N1382 N 0.38983 0.74786 0.37081
 N1383 N 0.37610 0.74840 0.35606
 C1384 C 0.35629 0.75200 0.36027
 N1385 N 0.35083 0.75510 0.37986
 N1386 N 0.36456 0.75458 0.39462
 C1387 C 0.34091 0.75224 0.34390
 C1388 C 0.32027 0.75444 0.34859
 C1389 C 0.30568 0.75420 0.33332
 C1390 C 0.31133 0.75184 0.31291
 C1391 C 0.33199 0.74985 0.30816
 C1392 C 0.34661 0.75001 0.32349
 H1393 H 0.37888 0.75828 0.43096
 H1394 H 0.40418 0.75634 0.45791
 H1395 H 0.44969 0.73993 0.41395
 H1396 H 0.42454 0.74157 0.38712
 H1397 H 0.31531 0.75618 0.36413
 H1398 H 0.28992 0.75582 0.33758
 H1399 H 0.33687 0.74797 0.29261
 H1400 H 0.36238 0.74831 0.31932
 C1401 C 0.10621 0.09405 0.25285
 C1402 C 0.09209 0.09334 0.26880
 C1403 C 0.07655 0.07894 0.26882
 C1404 C 0.07465 0.06518 0.25276
 C1405 C 0.08893 0.06566 0.23699
 C1406 C 0.10465 0.07984 0.23711
 C1407 C 0.12211 0.10987 0.25231
 N1408 N 0.13852 0.10790 0.24005
 N1409 N 0.15257 0.12235 0.23918
 C1410 C 0.15073 0.13946 0.25042
 N1411 N 0.13433 0.14144 0.26269
 N1412 N 0.12033 0.12692 0.26365
 C1413 C 0.16623 0.15565 0.24921
 C1414 C 0.16193 0.17535 0.25601
 C1415 C 0.17652 0.19066 0.25462
 C1416 C 0.19584 0.18650 0.24670
 C1417 C 0.20016 0.16676 0.24000
 C1418 C 0.18548 0.15155 0.24110
 H1419 H 0.09295 0.10401 0.28119
 H1420 H 0.06562 0.07897 0.28106
 H1421 H 0.08783 0.05513 0.22449
 H1422 H 0.11527 0.07999 0.22461
 H1423 H 0.14720 0.17901 0.26223
 H1424 H 0.17276 0.20570 0.25996
 H1425 H 0.21487 0.16309 0.23371
 H1426 H 0.18930 0.13653 0.23577
 C1427 C 0.60316 0.59724 0.74779
 C1428 C 0.58321 0.60302 0.75248
 C1429 C 0.56775 0.58863 0.75338
 C1430 C 0.57181 0.56809 0.74959
 C1431 C 0.59170 0.56226 0.74476
 C1432 C 0.60723 0.57668 0.74392
 C1433 C 0.61948 0.61266 0.74696
 N1434 N 0.63906 0.60725 0.74361
 N1435 N 0.65365 0.62119 0.74296
 C1436 C 0.64928 0.64114 0.74562
 N1437 N 0.62971 0.64652 0.74894
 N1438 N 0.61515 0.63260 0.74961
 C1439 C 0.66544 0.65674 0.74489
 C1440 C 0.66054 0.67742 0.74644
 C1441 C 0.67568 0.69219 0.74568
 C1442 C 0.69612 0.68666 0.74341
 C1443 C 0.70103 0.66597 0.74193
 C1444 C 0.68587 0.65120 0.74263
 H1445 H 0.57947 0.61870 0.75548
 H1446 H 0.55252 0.59365 0.75681
 H1447 H 0.59528 0.54651 0.74189
 H1448 H 0.62242 0.57170 0.74025
 H1449 H 0.64497 0.68227 0.74818
 H1450 H 0.67132 0.70796 0.74688
 H1451 H 0.71661 0.66116 0.74011
 H1452 H 0.69019 0.63542 0.74140
 C1453 C 0.90652 0.10002 0.74913
 C1454 C 0.92534 0.10353 0.75834
 C1455 C 0.94057 0.08878 0.75784
 C1456 C 0.93752 0.07012 0.74786
 C1457 C 0.91853 0.06687 0.73855
 C1458 C 0.90332 0.08152 0.73925
 C1459 C 0.89023 0.11546 0.74979
 N1460 N 0.87117 0.11086 0.74358
 N1461 N 0.85650 0.12470 0.74407
 C1462 C 0.86027 0.14377 0.75074
 N1463 N 0.87933 0.14838 0.75696
 N1464 N 0.89399 0.13451 0.75654
 C1465 C 0.84400 0.15923 0.75109
 C1466 C 0.84860 0.17966 0.75484
 C1467 C 0.83333 0.19429 0.75498
 C1468 C 0.81304 0.18884 0.75153
 C1469 C 0.80839 0.16839 0.74789
 C1470 C 0.82371 0.15376 0.74759
 H1471 H 0.92834 0.11769 0.76601
 H1472 H 0.95494 0.09251 0.76472
 H1473 H 0.91479 0.05263 0.73142
 H1474 H 0.88895 0.07825 0.73208
 H1475 H 0.86405 0.18441 0.75756
 H1476 H 0.83745 0.20988 0.75795
 H1477 H 0.79292 0.16369 0.74516
 H1478 H 0.81963 0.13815 0.74470
 C1479 C 0.40609 0.59982 0.24810
 C1480 C 0.42640 0.60506 0.24422
 C1481 C 0.44172 0.59042 0.24545
 C1482 C 0.43704 0.57032 0.25073
 C1483 C 0.41674 0.56508 0.25439
 C1484 C 0.40146 0.57962 0.25308
 C1485 C 0.38977 0.61525 0.24724
 N1486 N 0.37012 0.60982 0.25004
 N1487 N 0.35543 0.62364 0.24967
 C1488 C 0.35974 0.64351 0.24649
 N1489 N 0.37939 0.64895 0.24361
 N1490 N 0.39410 0.63512 0.24396
 C1491 C 0.34340 0.65893 0.24653
 C1492 C 0.34802 0.67963 0.24463
 C1493 C 0.33267 0.69419 0.24517
 C1494 C 0.31229 0.68842 0.24756
 C1495 C 0.30764 0.66769 0.24924
 C1496 C 0.32301 0.65313 0.24876
 H1497 H 0.43049 0.62047 0.24032
 H1498 H 0.45725 0.59488 0.24262
 H1499 H 0.41262 0.54963 0.25811
 H1500 H 0.38602 0.57500 0.25609
 H1501 H 0.36353 0.68466 0.24290
 H1502 H 0.33683 0.71001 0.24379
 H1503 H 0.29213 0.66270 0.25110
 H1504 H 0.31889 0.63731 0.25023
 C1505 C 0.09513 0.90295 0.75122
 C1506 C 0.10057 0.92165 0.74268
 C1507 C 0.08697 0.93781 0.74243
 C1508 C 0.06737 0.93592 0.75083
 C1509 C 0.06210 0.91708 0.75965
 C1510 C 0.07574 0.90083 0.75972
 C1511 C 0.10976 0.88590 0.75121
 N1512 N 0.10416 0.86697 0.75716
 N1513 N 0.11745 0.85174 0.75697
 C1514 C 0.13687 0.85483 0.75086
 N1515 N 0.14242 0.87375 0.74495
 N1516 N 0.12916 0.88893 0.74509
 C1517 C 0.15182 0.83807 0.75069
 C1518 C 0.17236 0.84214 0.74681
 C1519 C 0.18661 0.82654 0.74679
 C1520 C 0.18071 0.80641 0.75052
 C1521 C 0.16014 0.80225 0.75424
 C1522 C 0.14586 0.81793 0.75439
 H1523 H 0.11545 0.92392 0.73615
 H1524 H 0.09240 0.95203 0.73631
 H1525 H 0.04716 0.91441 0.76583
 H1526 H 0.07104 0.88658 0.76640
 H1527 H 0.17752 0.85745 0.74392
 H1528 H 0.20231 0.83029 0.74382
 H1529 H 0.15509 0.78692 0.75726
 H1530 H 0.13015 0.81427 0.75739
 C1531 C 0.58823 0.39711 0.24444
 C1532 C 0.57497 0.39914 0.26099
 C1533 C 0.56175 0.41564 0.26217
 C1534 C 0.56129 0.43025 0.24667
 C1535 C 0.57410 0.42795 0.22985
 C1536 C 0.58754 0.41162 0.22881
 C1537 C 0.60315 0.38038 0.24379
 N1538 N 0.61969 0.38163 0.23161
 N1539 N 0.63353 0.36694 0.23153
 C1540 C 0.63134 0.35033 0.24353
 N1541 N 0.61471 0.34899 0.25558
 N1542 N 0.60093 0.36375 0.25577
 C1543 C 0.64700 0.33427 0.24378
 C1544 C 0.64260 0.31489 0.25149
 C1545 C 0.65751 0.29984 0.25193
 C1546 C 0.67721 0.30398 0.24497
 C1547 C 0.68160 0.32337 0.23731
 C1548 C 0.66662 0.33830 0.23657
 H1549 H 0.57516 0.38824 0.27328
 H1550 H 0.55191 0.41704 0.27522
 H1551 H 0.57414 0.43911 0.21779
 H1552 H 0.59749 0.41044 0.21582
 H1553 H 0.62760 0.31131 0.25711
 H1554 H 0.65370 0.28506 0.25801
 H1555 H 0.69662 0.32699 0.23176
 H1556 H 0.67051 0.35311 0.23062
 C1557 C 0.90405 0.91090 0.25645
 C1558 C 0.90088 0.93049 0.26408
 C1559 C 0.91604 0.94526 0.26257
 C1560 C 0.93476 0.94094 0.25311
 C1561 C 0.93765 0.92117 0.24545
 C1562 C 0.92261 0.90646 0.24715
 C1563 C 0.88822 0.89506 0.25810
 N1564 N 0.89256 0.87552 0.25337
 N1565 N 0.87840 0.86122 0.25454
 C1566 C 0.85926 0.86582 0.26046
 N1567 N 0.85490 0.88536 0.26525
 N1568 N 0.86910 0.89969 0.26413
 C1569 C 0.84347 0.84989 0.26127
 C1570 C 0.82302 0.85497 0.26426
 C1571 C 0.80810 0.83995 0.26427
 C1572 C 0.81330 0.81948 0.26143
 C1573 C 0.83379 0.81438 0.25878
 C1574 C 0.84868 0.82940 0.25863
 H1575 H 0.88668 0.93444 0.27127
 H1576 H 0.91261 0.96024 0.26823
 H1577 H 0.95190 0.91649 0.23887
 H1578 H 0.92564 0.89149 0.24120
 H1579 H 0.81847 0.87060 0.26632
 H1580 H 0.79246 0.84441 0.26642
 H1581 H 0.83834 0.79878 0.25651
 H1582 H 0.86430 0.82493 0.25636
 C1583 C 0.40233 0.41214 0.75139
 C1584 C 0.40360 0.42701 0.76653
 C1585 C 0.41900 0.44151 0.76602
 C1586 C 0.43322 0.44163 0.75020
 C1587 C 0.43160 0.42721 0.73471
 C1588 C 0.41638 0.41250 0.73537
 C1589 C 0.38679 0.39604 0.75261
 N1590 N 0.38887 0.37863 0.74189
 N1591 N 0.37514 0.36392 0.74338
 C1592 C 0.35871 0.36604 0.75559
 N1593 N 0.35659 0.38349 0.76624
 N1594 N 0.37038 0.39814 0.76485
 C1595 C 0.34335 0.34979 0.75710
 C1596 C 0.32395 0.35399 0.76477
 C1597 C 0.30920 0.33885 0.76556
 C1598 C 0.31361 0.31911 0.75898
 C1599 C 0.33315 0.31477 0.75175
 C1600 C 0.34783 0.33000 0.75068
 H1601 H 0.39302 0.42714 0.77906
 H1602 H 0.41992 0.45257 0.77807
 H1603 H 0.44250 0.42691 0.72245
 H1604 H 0.41571 0.40132 0.72342
 H1605 H 0.32002 0.36909 0.76982
 H1606 H 0.29428 0.34264 0.77127
 H1607 H 0.33695 0.29972 0.74645
 H1608 H 0.36268 0.32627 0.74480
 C1609 C 0.09697 0.25331 0.91178
 C1610 C 0.10011 0.24395 0.93065
 C1611 C 0.08489 0.24402 0.94545
 C1612 C 0.06612 0.25370 0.94189
 C1613 C 0.06327 0.26315 0.92285
 C1614 C 0.07839 0.26289 0.90811
 C1615 C 0.11283 0.25310 0.89588
 N1616 N 0.10860 0.25971 0.87685
 N1617 N 0.12275 0.25970 0.86249
 C1618 C 0.14180 0.25310 0.86653
 N1619 N 0.14607 0.24646 0.88556
 N1620 N 0.13187 0.24642 0.89993
 C1621 C 0.15757 0.25340 0.85054
 C1622 C 0.17793 0.24943 0.85528
 C1623 C 0.19282 0.25017 0.84024
 C1624 C 0.18769 0.25478 0.82007
 C1625 C 0.16729 0.25852 0.81530
 C1626 C 0.15243 0.25791 0.83036
 H1627 H 0.11433 0.23650 0.93402
 H1628 H 0.08830 0.23704 0.95988
 H1629 H 0.04900 0.27003 0.91870
 H1630 H 0.07537 0.27017 0.89369
 H1631 H 0.18243 0.24592 0.87066
 H1632 H 0.20838 0.24710 0.84444
 H1633 H 0.16279 0.26209 0.79993
 H1634 H 0.13688 0.26097 0.82615
 C1635 C 0.59562 0.74956 0.41206
 C1636 C 0.57544 0.75334 0.40647
 C1637 C 0.56008 0.75331 0.42096
 C1638 C 0.56446 0.74949 0.44142
 C1639 C 0.58455 0.74538 0.44707
 C1640 C 0.60001 0.74550 0.43253
 C1641 C 0.61185 0.75011 0.39655
 N1642 N 0.63164 0.74806 0.40178
 N1643 N 0.64615 0.74890 0.38774
 C1644 C 0.64146 0.75182 0.36790
 N1645 N 0.62168 0.75380 0.36271
 N1646 N 0.60720 0.75298 0.37672
 C1647 C 0.65751 0.75294 0.35222
 C1648 C 0.65237 0.75496 0.33166
 C1649 C 0.66741 0.75606 0.31682
 C1650 C 0.68799 0.75524 0.32217
 C1651 C 0.69315 0.75325 0.34275
 C1652 C 0.67808 0.75209 0.35760
 H1653 H 0.57145 0.75644 0.39086
 H1654 H 0.54467 0.75616 0.41611
 H1655 H 0.58834 0.74245 0.46276
 H1656 H 0.61539 0.74249 0.43735
 H1657 H 0.63668 0.75564 0.32695
 H1658 H 0.66286 0.75755 0.30113
 H1659 H 0.70884 0.75248 0.34742
 H1660 H 0.68258 0.75055 0.37329
 C1661 C 0.90653 0.75031 0.90001
 C1662 C 0.90134 0.76026 0.91802
 C1663 C 0.91449 0.76033 0.93450
 C1664 C 0.93342 0.75037 0.93367
 C1665 C 0.93846 0.74019 0.91553
 C1666 C 0.92526 0.74029 0.89892
 C1667 C 0.89221 0.75036 0.88270
 N1668 N 0.89754 0.74278 0.86432
 N1669 N 0.88445 0.74290 0.84894
 C1670 C 0.86548 0.75057 0.85134
 N1671 N 0.86023 0.75813 0.86970
 N1672 N 0.87329 0.75806 0.88500
 C1673 C 0.85057 0.75050 0.83455
 C1674 C 0.83029 0.75564 0.83841
 C1675 C 0.81596 0.75538 0.82293
 C1676 C 0.82152 0.75008 0.80308
 C1677 C 0.84186 0.74518 0.79907
 C1678 C 0.85624 0.74529 0.81468
 H1679 H 0.88695 0.76800 0.91951
 H1680 H 0.90917 0.76758 0.94817
 H1681 H 0.95293 0.73275 0.91366
 H1682 H 0.92975 0.73249 0.88523
 H1683 H 0.82534 0.75974 0.85349
 H1684 H 0.80048 0.75941 0.82656
 H1685 H 0.84661 0.74103 0.78394
 H1686 H 0.87176 0.74132 0.81119
 C1687 C 0.40699 0.24702 0.40201
 C1688 C 0.40045 0.25169 0.42172
 C1689 C 0.41413 0.25212 0.43777
 C1690 C 0.43471 0.24785 0.43458
 C1691 C 0.44129 0.24279 0.41499
 C1692 C 0.42757 0.24245 0.39882
 C1693 C 0.39229 0.24716 0.38504
 N1694 N 0.39830 0.24411 0.36559
 N1695 N 0.38491 0.24456 0.35048
 C1696 C 0.36497 0.24808 0.35421
 N1697 N 0.35902 0.25108 0.37366
 N1698 N 0.37236 0.25066 0.38871
 C1699 C 0.34985 0.24862 0.33762
 C1700 C 0.32923 0.25127 0.34218
 C1701 C 0.31477 0.25164 0.32683
 C1702 C 0.32049 0.24941 0.30645
 C1703 C 0.34113 0.24693 0.30179
 C1704 C 0.35567 0.24650 0.31723
 H1705 H 0.38473 0.25519 0.42481
 H1706 H 0.40856 0.25573 0.45276
 H1707 H 0.45711 0.23952 0.41211
 H1708 H 0.43310 0.23874 0.38384
 H1709 H 0.32415 0.25299 0.35767
 H1710 H 0.29904 0.25368 0.33102
 H1711 H 0.34605 0.24518 0.28624
 H1712 H 0.37144 0.24448 0.31320
 C1713 C 0.09106 0.75212 0.10099
 C1714 C 0.07106 0.74680 0.10614
 C1715 C 0.05576 0.74703 0.09148
 C1716 C 0.06012 0.75274 0.07143
 C1717 C 0.08010 0.75800 0.06631
 C1718 C 0.09537 0.75769 0.08089
 C1719 C 0.10739 0.75190 0.11639
 N1720 N 0.12689 0.75570 0.11100
 N1721 N 0.14161 0.75557 0.12476
 C1722 C 0.13748 0.75166 0.14454
 N1723 N 0.11797 0.74786 0.14994
 N1724 N 0.10325 0.74796 0.13617
 C1725 C 0.15388 0.75157 0.15986
 C1726 C 0.14936 0.74899 0.18051
 C1727 C 0.16478 0.74890 0.19496
 C1728 C 0.18514 0.75130 0.18913
 C1729 C 0.18968 0.75389 0.16848
 C1730 C 0.17423 0.75406 0.15402
 H1731 H 0.06720 0.74242 0.12148
 H1732 H 0.04047 0.74300 0.09587
 H1733 H 0.08401 0.76211 0.05090
 H1734 H 0.11059 0.76182 0.07634
 H1735 H 0.13387 0.74707 0.18556
 H1736 H 0.16070 0.74685 0.21073
 H1737 H 0.20518 0.75586 0.16346
 H1738 H 0.17826 0.75608 0.13825
 C1739 C 0.59333 0.25207 0.60183
 C1740 C 0.57310 0.24766 0.60691
 C1741 C 0.55796 0.24807 0.59208
 C1742 C 0.56275 0.25305 0.57193
 C1743 C 0.58296 0.25738 0.56688
 C1744 C 0.59806 0.25689 0.58163
 C1745 C 0.60949 0.25173 0.61741
 N1746 N 0.62916 0.25469 0.61211
 N1747 N 0.64372 0.25451 0.62603
 C1748 C 0.63926 0.25139 0.64587
 N1749 N 0.61959 0.24842 0.65119
 N1750 N 0.60501 0.24857 0.63726
 C1751 C 0.65551 0.25129 0.66136
 C1752 C 0.65075 0.24954 0.68203
 C1753 C 0.66605 0.24953 0.69662
 C1754 C 0.68651 0.25120 0.69090
 C1755 C 0.69128 0.25293 0.67021
 C1756 C 0.67596 0.25301 0.65562
 H1757 H 0.56893 0.24387 0.62232
 H1758 H 0.54249 0.24475 0.59640
 H1759 H 0.58718 0.26091 0.55141
 H1760 H 0.61347 0.26031 0.57714
 H1761 H 0.63517 0.24822 0.68700
 H1762 H 0.66180 0.24815 0.71241
 H1763 H 0.70686 0.25429 0.66526
 H1764 H 0.68019 0.25438 0.63983
 C1765 C 0.89170 0.23896 0.09095
 C1766 C 0.89322 0.25546 0.07750
 C1767 C 0.90937 0.25678 0.06385
 C1768 C 0.92412 0.24147 0.06314
 C1769 C 0.92226 0.22465 0.07608
 C1770 C 0.90629 0.22347 0.08996
 C1771 C 0.87545 0.23832 0.10641
 N1772 N 0.87736 0.22652 0.12319
 N1773 N 0.86314 0.22657 0.13752
 C1774 C 0.84636 0.23832 0.13561
 N1775 N 0.84436 0.24998 0.11874
 N1776 N 0.85865 0.25005 0.10447
 C1777 C 0.83077 0.23873 0.15174
 C1778 C 0.81120 0.24606 0.14769
 C1779 C 0.79655 0.24662 0.16297
 C1780 C 0.80125 0.24019 0.18272
 C1781 C 0.82083 0.23292 0.18680
 C1782 C 0.83539 0.23204 0.17144
 H1783 H 0.88224 0.26764 0.07789
 H1784 H 0.91045 0.26985 0.05395
 H1785 H 0.93355 0.21273 0.07591
 H1786 H 0.90548 0.21053 0.10005
 H1787 H 0.80716 0.25124 0.13265
 H1788 H 0.78159 0.25232 0.15938
 H1789 H 0.82486 0.22770 0.20184
 H1790 H 0.85035 0.22638 0.17506
 C1791 C 0.39191 0.73879 0.59395
 C1792 C 0.40647 0.72329 0.59270
 C1793 C 0.42200 0.72431 0.57831
 C1794 C 0.42345 0.74098 0.56512
 C1795 C 0.40874 0.75631 0.56614
 C1796 C 0.39303 0.75515 0.58029
 C1797 C 0.37602 0.73826 0.60980
 N1798 N 0.35921 0.75002 0.60818
 N1799 N 0.34520 0.74998 0.62270
 C1800 C 0.34746 0.73831 0.63953
 N1801 N 0.36426 0.72653 0.64115
 N1802 N 0.37822 0.72646 0.62656
 C1803 C 0.33206 0.73865 0.65584
 C1804 C 0.33676 0.73167 0.67542
 C1805 C 0.32231 0.73247 0.69091
 C1806 C 0.30276 0.73996 0.68705
 C1807 C 0.29800 0.74671 0.66742
 C1808 C 0.31253 0.74621 0.65203
 H1809 H 0.40595 0.71045 0.60294
 H1810 H 0.43326 0.71238 0.57792
 H1811 H 0.40951 0.76926 0.55606
 H1812 H 0.38207 0.76734 0.58088
 H1813 H 0.35170 0.72583 0.67886
 H1814 H 0.32638 0.72703 0.70586
 H1815 H 0.28309 0.75260 0.66398
 H1816 H 0.30841 0.75162 0.63710
 C1817 C 0.24578 0.10136 0.90839
 C1818 C 0.22797 0.09098 0.91345
 C1819 C 0.22829 0.07504 0.92745
 C1820 C 0.24665 0.06849 0.93649
 C1821 C 0.26444 0.07943 0.93138
 C1822 C 0.26392 0.09565 0.91775
 C1823 C 0.24558 0.11782 0.89315
 N1824 N 0.26019 0.13230 0.89315
 N1825 N 0.26032 0.14687 0.87915
 C1826 C 0.24595 0.14745 0.86446
 N1827 N 0.23135 0.13296 0.86443
 N1828 N 0.23112 0.11848 0.87855
 C1829 C 0.24636 0.16346 0.84875
 C1830 C 0.23724 0.16034 0.82980
 C1831 C 0.23807 0.17537 0.81483
 C1832 C 0.24766 0.19396 0.81869
 C1833 C 0.25656 0.19716 0.83773
 C1834 C 0.25610 0.18199 0.85253
 H1835 H 0.21371 0.09510 0.90645
 H1836 H 0.21415 0.06716 0.92990
 H1837 H 0.27886 0.07628 0.93844
 H1838 H 0.27790 0.10354 0.91430
 H1839 H 0.22971 0.14617 0.82644
 H1840 H 0.23097 0.17256 0.80032
 H1841 H 0.26410 0.21132 0.84111
 H1842 H 0.26319 0.18486 0.86702
 C1843 C 0.74281 0.60274 0.41269
 C1844 C 0.75970 0.59934 0.42518
 C1845 C 0.76023 0.58266 0.43828
 C1846 C 0.74373 0.56927 0.43939
 C1847 C 0.72657 0.57304 0.42744
 C1848 C 0.72617 0.58952 0.41409
 C1849 C 0.74290 0.61947 0.39770
 N1850 N 0.73044 0.61894 0.38136
 N1851 N 0.73109 0.63352 0.36739
 C1852 C 0.74414 0.64931 0.36923
 N1853 N 0.75647 0.64995 0.38566
 N1854 N 0.75592 0.63528 0.39957
 C1855 C 0.74520 0.66523 0.35342
 C1856 C 0.75370 0.68426 0.35768
 C1857 C 0.75479 0.69922 0.34267
 C1858 C 0.74774 0.69531 0.32299
 C1859 C 0.73934 0.67624 0.31871
 C1860 C 0.73793 0.66142 0.33381
 H1861 H 0.77277 0.60922 0.42443
 H1862 H 0.77359 0.58009 0.44743
 H1863 H 0.71373 0.56283 0.42793
 H1864 H 0.71291 0.59180 0.40473
 H1865 H 0.75937 0.68766 0.37268
 H1866 H 0.76135 0.71378 0.34640
 H1867 H 0.73362 0.67284 0.30373
 H1868 H 0.73137 0.64688 0.33003
 C1869 C 0.74257 0.08831 0.09370
 C1870 C 0.74774 0.09382 0.07377
 C1871 C 0.74950 0.07916 0.05873
 C1872 C 0.74607 0.05862 0.06317
 C1873 C 0.74048 0.05306 0.08295
 C1874 C 0.73883 0.06777 0.09811
 C1875 C 0.74147 0.10400 0.10969
 N1876 N 0.73863 0.09887 0.12943
 N1877 N 0.73816 0.11306 0.14375
 C1878 C 0.74049 0.13296 0.13891
 N1879 N 0.74322 0.13806 0.11917
 N1880 N 0.74372 0.12389 0.10488
 C1881 C 0.74029 0.14882 0.15476
 C1882 C 0.74154 0.16942 0.14938
 C1883 C 0.74156 0.18443 0.16423
 C1884 C 0.74037 0.17924 0.18486
 C1885 C 0.73912 0.15864 0.19026
 C1886 C 0.73904 0.14361 0.17538
 H1887 H 0.75066 0.10947 0.06977
 H1888 H 0.75350 0.08391 0.04352
 H1889 H 0.73781 0.03731 0.08677
 H1890 H 0.73476 0.06302 0.11329
 H1891 H 0.74252 0.17401 0.13365
 H1892 H 0.74258 0.20013 0.15950
 H1893 H 0.73817 0.15408 0.20601
 H1894 H 0.73810 0.12789 0.18007
 C1895 C 0.24273 0.59118 0.59533
 C1896 C 0.24724 0.59707 0.57535
 C1897 C 0.24855 0.58270 0.55997
 C1898 C 0.24534 0.56206 0.56414
 C1899 C 0.24053 0.55612 0.58402
 C1900 C 0.23931 0.57053 0.59949
 C1901 C 0.24187 0.60655 0.61163
 N1902 N 0.23915 0.60105 0.63130
 N1903 N 0.23874 0.61496 0.64589
 C1904 C 0.24102 0.63495 0.64142
 N1905 N 0.24367 0.64042 0.62176
 N1906 N 0.24410 0.62654 0.60720
 C1907 C 0.24080 0.65051 0.65757
 C1908 C 0.24221 0.67119 0.65258
 C1909 C 0.24220 0.68592 0.66769
 C1910 C 0.24082 0.68037 0.68822
 C1911 C 0.23940 0.65969 0.69325
 C1912 C 0.23935 0.64493 0.67809
 H1913 H 0.24989 0.61282 0.57155
 H1914 H 0.25195 0.58776 0.54472
 H1915 H 0.23810 0.54029 0.58767
 H1916 H 0.23578 0.56547 0.61470
 H1917 H 0.24334 0.67606 0.63694
 H1918 H 0.24338 0.70169 0.66324
 H1919 H 0.23831 0.65486 0.70890
 H1920 H 0.23827 0.62914 0.68248
 C1921 C 0.75987 0.90085 0.89553
 C1922 C 0.75456 0.92110 0.89140
 C1923 C 0.75412 0.93549 0.90694
 C1924 C 0.75909 0.92995 0.92689
 C1925 C 0.76437 0.90972 0.93098
 C1926 C 0.76474 0.89536 0.91552
 C1927 C 0.76025 0.88542 0.87922
 N1928 N 0.76412 0.86568 0.88364
 N1929 N 0.76440 0.85173 0.86913
 C1930 C 0.76086 0.85690 0.84952
 N1931 N 0.75703 0.87665 0.84507
 N1932 N 0.75671 0.89062 0.85961
 C1933 C 0.76104 0.84123 0.83345
 C1934 C 0.75864 0.84661 0.81297
 C1935 C 0.75861 0.83175 0.79790
 C1936 C 0.76088 0.81115 0.80298
 C1937 C 0.76338 0.80581 0.82345
 C1938 C 0.76349 0.82066 0.83848
 H1939 H 0.75071 0.92585 0.87617
 H1940 H 0.75012 0.95099 0.90331
 H1941 H 0.76794 0.90490 0.94626
 H1942 H 0.76884 0.87992 0.91931
 H1943 H 0.75677 0.86231 0.80854
 H1944 H 0.75666 0.83641 0.78229
 H1945 H 0.76528 0.79012 0.82793
 H1946 H 0.76540 0.81594 0.85409
 C1947 C 0.25545 0.40054 0.40000
 C1948 C 0.25044 0.42080 0.39553
 C1949 C 0.24998 0.43540 0.41085
 C1950 C 0.25465 0.43009 0.43093
 C1951 C 0.25955 0.40984 0.43540
 C1952 C 0.25993 0.39525 0.42014
 C1953 C 0.25607 0.38498 0.38384
 N1954 N 0.25967 0.36523 0.38846
 N1955 N 0.26029 0.35121 0.37401
 C1956 C 0.25738 0.35633 0.35429
 N1957 N 0.25379 0.37609 0.34966
 N1958 N 0.25314 0.39012 0.36412
 C1959 C 0.25800 0.34068 0.33822
 C1960 C 0.25627 0.34617 0.31771
 C1961 C 0.25665 0.33141 0.30259
 C1962 C 0.25869 0.31077 0.30760
 C1963 C 0.26054 0.30529 0.32811
 C1964 C 0.26023 0.32007 0.34323
 H1965 H 0.24689 0.42540 0.38019
 H1966 H 0.24628 0.45092 0.40694
 H1967 H 0.26290 0.40522 0.45078
 H1968 H 0.26379 0.37981 0.42418
 H1969 H 0.25459 0.36190 0.31329
 H1970 H 0.25521 0.33620 0.28695
 H1971 H 0.26222 0.28956 0.33252
 H1972 H 0.26162 0.31529 0.35886
 C1973 C 0.24503 0.90127 0.09361
 C1974 C 0.25025 0.92141 0.09807
 C1975 C 0.25135 0.93595 0.08272
 C1976 C 0.24722 0.93076 0.06252
 C1977 C 0.24168 0.91072 0.05803
 C1978 C 0.24067 0.89610 0.07342
 C1979 C 0.24444 0.88582 0.10997
 N1980 N 0.24107 0.86598 0.10572
 N1981 N 0.24101 0.85210 0.12042
 C1982 C 0.24429 0.85746 0.14000
 N1983 N 0.24755 0.87731 0.14425
 N1984 N 0.24764 0.89117 0.12955
 C1985 C 0.24463 0.84196 0.15632
 C1986 C 0.24708 0.84763 0.17670
 C1987 C 0.24776 0.83296 0.19202
 C1988 C 0.24611 0.81227 0.18730
 C1989 C 0.24354 0.80663 0.16693
 C1990 C 0.24278 0.82129 0.15165
 H1991 H 0.25362 0.92599 0.11343
 H1992 H 0.25529 0.95136 0.08670
 H1993 H 0.23849 0.90630 0.04258
 H1994 H 0.23656 0.88073 0.06945
 H1995 H 0.24850 0.86343 0.18085
 H1996 H 0.24970 0.83784 0.20753
 H1997 H 0.24209 0.79085 0.16273
 H1998 H 0.24087 0.81636 0.13615
 C1999 C 0.74434 0.39468 0.58930
 C2000 C 0.75999 0.39473 0.57483
 C2001 C 0.76033 0.40921 0.55935
 C2002 C 0.74486 0.42372 0.55780
 C2003 C 0.72886 0.42329 0.57182
 C2004 C 0.72867 0.40900 0.58752
 C2005 C 0.74469 0.38009 0.60639
 N2006 N 0.73347 0.38337 0.62334
 N2007 N 0.73421 0.37047 0.63890
 C2008 C 0.74613 0.35371 0.63810
 N2009 N 0.75727 0.35041 0.62112
 N2010 N 0.75663 0.36336 0.60564
 C2011 C 0.74693 0.33920 0.65525
 C2012 C 0.75452 0.31956 0.65225
 C2013 C 0.75513 0.30566 0.66820
 C2014 C 0.74843 0.31113 0.68764
 C2015 C 0.74107 0.33086 0.69078
 C2016 C 0.74018 0.34472 0.67468
 H2017 H 0.77229 0.38391 0.57578
 H2018 H 0.77279 0.40922 0.54867
 H2019 H 0.71686 0.43446 0.57106
 H2020 H 0.71635 0.40928 0.59835
 H2021 H 0.75979 0.31479 0.63747
 H2022 H 0.76096 0.29060 0.66530
 H2023 H 0.73571 0.33546 0.70557
 H2024 H 0.73432 0.35978 0.67748
 C2025 C 0.09236 0.10859 0.74908
 C2026 C 0.07823 0.10665 0.76491
 C2027 C 0.06396 0.09100 0.76478
 C2028 C 0.06332 0.07719 0.74866
 C2029 C 0.07697 0.07952 0.73250
 C2030 C 0.09144 0.09498 0.73278
 C2031 C 0.10839 0.12427 0.74991
 N2032 N 0.12541 0.12251 0.73848
 N2033 N 0.14013 0.13625 0.73967
 C2034 C 0.13841 0.15239 0.75227
 N2035 N 0.12133 0.15423 0.76361
 N2036 N 0.10666 0.14041 0.76252
 C2037 C 0.15485 0.16759 0.75366
 C2038 C 0.15108 0.18688 0.76180
 C2039 C 0.16652 0.20133 0.76279
 C2040 C 0.18616 0.19670 0.75597
 C2041 C 0.19001 0.17730 0.74814
 C2042 C 0.17448 0.16296 0.74684
 H2043 H 0.07854 0.11688 0.77770
 H2044 H 0.05352 0.08955 0.77737
 H2045 H 0.07689 0.06895 0.71998
 H2046 H 0.10205 0.09614 0.72030
 H2047 H 0.13611 0.19092 0.76715
 H2048 H 0.16311 0.21612 0.76901
 H2049 H 0.20496 0.17330 0.74270
 H2050 H 0.17790 0.14819 0.74061
 C2051 C 0.59773 0.60240 0.26063
 C2052 C 0.57713 0.60669 0.26406
 C2053 C 0.56254 0.59134 0.26272
 C2054 C 0.56825 0.57145 0.25776
 C2055 C 0.58884 0.56715 0.25457
 C2056 C 0.60339 0.58241 0.25602
 C2057 C 0.61331 0.61859 0.26155
 N2058 N 0.63326 0.61396 0.25954
 N2059 N 0.64732 0.62841 0.25994
 C2060 C 0.64208 0.64815 0.26233
 N2061 N 0.62213 0.65281 0.26441
 N2062 N 0.60804 0.63834 0.26404
 C2063 C 0.65783 0.66420 0.26235
 C2064 C 0.65247 0.68480 0.26325
 C2065 C 0.66739 0.69986 0.26284
 C2066 C 0.68802 0.69468 0.26158
 C2067 C 0.69336 0.67406 0.26087
 C2068 C 0.67846 0.65903 0.26122
 H2069 H 0.57225 0.62192 0.26768
 H2070 H 0.54676 0.59508 0.26517
 H2071 H 0.59375 0.55190 0.25107
 H2072 H 0.61909 0.57849 0.25336
 H2073 H 0.63674 0.68934 0.26414
 H2074 H 0.66272 0.71558 0.26351
 H2075 H 0.70908 0.66947 0.25996
 H2076 H 0.68317 0.64333 0.26056
 C2077 C 0.09880 0.90739 0.25189
 C2078 C 0.10242 0.92619 0.24252
 C2079 C 0.08785 0.94159 0.24314
 C2080 C 0.06925 0.93876 0.25337
 C2081 C 0.06592 0.91982 0.26289
 C2082 C 0.08039 0.90444 0.26208
 C2083 C 0.11403 0.89089 0.25105
 N2084 N 0.10937 0.87194 0.25768
 N2085 N 0.12302 0.85710 0.25705
 C2086 C 0.14196 0.86057 0.24981
 N2087 N 0.14663 0.87952 0.24316
 N2088 N 0.13295 0.89435 0.24373
 C2089 C 0.15728 0.84413 0.24945
 C2090 C 0.17762 0.84849 0.24495
 C2091 C 0.19218 0.83313 0.24506
 C2092 C 0.18675 0.81300 0.24954
 C2093 C 0.16636 0.80857 0.25377
 C2094 C 0.15180 0.82398 0.25382
 H2095 H 0.11652 0.92902 0.23462
 H2096 H 0.09167 0.95591 0.23611
 H2097 H 0.05172 0.91624 0.27024
 H2098 H 0.07704 0.89011 0.26940
 H2099 H 0.18239 0.86382 0.24152
 H2100 H 0.20772 0.83708 0.24158
 H2101 H 0.16167 0.79323 0.25728
 H2102 H 0.13625 0.82008 0.25728
 C2103 C 0.60281 0.41045 0.75478
 C2104 C 0.58853 0.41179 0.77054
 C2105 C 0.57388 0.42710 0.77046
 C2106 C 0.57305 0.44117 0.75449
 C2107 C 0.58753 0.44009 0.73894
 C2108 C 0.60235 0.42498 0.73916
 C2109 C 0.61775 0.39372 0.75431
 N2110 N 0.63427 0.39480 0.74209
 N2111 N 0.64752 0.37961 0.74135
 C2112 C 0.64473 0.36261 0.75268
 N2113 N 0.62819 0.36150 0.76489
 N2114 N 0.61499 0.37676 0.76571
 C2115 C 0.65956 0.34579 0.75186
 C2116 C 0.65455 0.32640 0.75922
 C2117 C 0.66873 0.31064 0.75860
 C2118 C 0.68829 0.31406 0.75092
 C2119 C 0.69322 0.33342 0.74346
 C2120 C 0.67898 0.34905 0.74379
 H2121 H 0.58856 0.40091 0.78285
 H2122 H 0.56276 0.42753 0.78253
 H2123 H 0.58723 0.45083 0.72651
 H2124 H 0.61313 0.42438 0.72680
 H2125 H 0.63966 0.32338 0.76542
 H2126 H 0.66452 0.29589 0.76451
 H2127 H 0.70812 0.33650 0.73731
 H2128 H 0.68333 0.36380 0.73801
 C2129 C 0.90023 0.09481 0.24168
 C2130 C 0.92006 0.10176 0.24510
 C2131 C 0.93620 0.08817 0.24619
 C2132 C 0.93299 0.06729 0.24381
 C2133 C 0.91328 0.06028 0.23995
 C2134 C 0.89702 0.07391 0.23899
 C2135 C 0.88314 0.10942 0.24130
 N2136 N 0.86360 0.10303 0.24019
 N2137 N 0.84837 0.11632 0.24038
 C2138 C 0.85206 0.13654 0.24165
 N2139 N 0.87159 0.14287 0.24265
 N2140 N 0.88677 0.12962 0.24249
 C2141 C 0.83529 0.15152 0.24222
 C2142 C 0.83966 0.17236 0.24267
 C2143 C 0.82412 0.18664 0.24353
 C2144 C 0.80373 0.18052 0.24401
 C2145 C 0.79929 0.15968 0.24345
 C2146 C 0.81491 0.14533 0.24256
 H2147 H 0.92315 0.11773 0.24717
 H2148 H 0.95128 0.09404 0.24886
 H2149 H 0.91039 0.04424 0.23814
 H2150 H 0.88196 0.06805 0.23627
 H2151 H 0.85515 0.17773 0.24238
 H2152 H 0.82818 0.20254 0.24385
 H2153 H 0.78375 0.15443 0.24372
 H2154 H 0.81101 0.12940 0.24223
 C2155 C 0.39863 0.59197 0.74723
 C2156 C 0.41820 0.59833 0.74174
 C2157 C 0.43438 0.58475 0.74191
 C2158 C 0.43146 0.56442 0.74755
 C2159 C 0.41193 0.55799 0.75313
 C2160 C 0.39566 0.57161 0.75292
 C2161 C 0.38163 0.60668 0.74709
 N2162 N 0.36240 0.60090 0.75171
 N2163 N 0.34730 0.61435 0.75167
 C2164 C 0.35083 0.63412 0.74703
 N2165 N 0.37004 0.63982 0.74238
 N2166 N 0.38508 0.62642 0.74240
 C2167 C 0.33431 0.64936 0.74724
 C2168 C 0.33879 0.66992 0.74388
 C2169 C 0.32356 0.68452 0.74439
 C2170 C 0.30334 0.67901 0.74822
 C2171 C 0.29873 0.65842 0.75134
 C2172 C 0.31408 0.64375 0.75092
 H2173 H 0.42112 0.61388 0.73735
 H2174 H 0.44930 0.59028 0.73789
 H2175 H 0.40921 0.54237 0.75742
 H2176 H 0.38078 0.56621 0.75724
 H2177 H 0.35417 0.67484 0.74096
 H2178 H 0.32769 0.70019 0.74176
 H2179 H 0.28331 0.65367 0.75431
 H2180 H 0.31009 0.62804 0.75352
 C2181 C 0.91219 0.90306 0.74396
 C2182 C 0.90647 0.92295 0.74889
 C2183 C 0.92092 0.93830 0.75016
 C2184 C 0.94147 0.93419 0.74651
 C2185 C 0.94725 0.91439 0.74129
 C2186 C 0.93275 0.89894 0.74010
 C2187 C 0.89667 0.88684 0.74302
 N2188 N 0.90194 0.86718 0.73991
 N2189 N 0.88787 0.85270 0.73938
 C2190 C 0.86795 0.85728 0.74191
 N2191 N 0.86272 0.87693 0.74495
 N2192 N 0.87676 0.89137 0.74551
 C2193 C 0.85220 0.84126 0.74151
 C2194 C 0.83160 0.84643 0.74304
 C2195 C 0.81667 0.83144 0.74281
 C2196 C 0.82196 0.81089 0.74109
 C2197 C 0.84257 0.80569 0.73956
 C2198 C 0.85751 0.82071 0.73974
 H2199 H 0.89080 0.92674 0.75188
 H2200 H 0.91596 0.95349 0.75385
 H2201 H 0.96300 0.91080 0.73845
 H2202 H 0.93766 0.88378 0.73622
 H2203 H 0.82692 0.86209 0.74442
 H2204 H 0.80097 0.83602 0.74407
 H2205 H 0.84719 0.79001 0.73821
 H2206 H 0.87323 0.81619 0.73856
 C2207 C 0.41282 0.40124 0.25284
 C2208 C 0.41386 0.41473 0.26924
 C2209 C 0.42841 0.43010 0.26957
 C2210 C 0.44201 0.43248 0.25337
 C2211 C 0.44116 0.41888 0.23709
 C2212 C 0.42682 0.40330 0.23690
 C2213 C 0.39692 0.38545 0.25209
 N2214 N 0.39872 0.36935 0.23945
 N2215 N 0.38424 0.35534 0.23851
 C2216 C 0.36727 0.35692 0.25004
 N2217 N 0.36545 0.37303 0.26267
 N2218 N 0.37999 0.38697 0.26371
 C2219 C 0.35111 0.34142 0.24883
 C2220 C 0.33145 0.34563 0.25586
 C2221 C 0.31619 0.33099 0.25458
 C2222 C 0.32036 0.31175 0.24654
 C2223 C 0.34004 0.30752 0.23961
 C2224 C 0.35519 0.32225 0.24059
 H2225 H 0.40335 0.41347 0.28178
 H2226 H 0.42866 0.44052 0.28221
 H2227 H 0.45156 0.42037 0.22448
 H2228 H 0.42640 0.39318 0.22404
 H2229 H 0.32780 0.36029 0.26221
 H2230 H 0.30120 0.33464 0.26017
 H2231 H 0.34370 0.29285 0.23328
 H2232 H 0.37020 0.31851 0.23510
   
