data_POSCAR
  _audit_creation_date              2014-09-24
  _audit_creation_method            'ToBaCCo'
  _symmetry_space_group_name_H-M    'P1'
  _symmetry_Int_Tables_number       1
  _symmetry_cell_setting            triclinic
  loop_
  _symmetry_equiv_pos_as_xyz
 x,y,z
_cell_length_a 96.8662
_cell_length_b 96.7673
_cell_length_c 96.8582
_cell_angle_alpha 90.078000
_cell_angle_beta 90.030800
_cell_angle_gamma 90.018900
loop_
  _atom_site_label
  _atom_site_type_symbol
  _atom_site_fract_x
  _atom_site_fract_y
  _atom_site_fract_z
N1 N 0.31231 0.42831 0.89982
 N2 N 0.32180 0.43804 0.90014
 C3 C 0.31938 0.44709 0.88984
 C4 C 0.30779 0.44272 0.88279
 C5 C 0.30355 0.43081 0.88933
 H6 H 0.32549 0.45618 0.88766
 H7 H 0.29468 0.42452 0.88671
 Cu8 Cu 0.33623 0.43782 0.91414
 Cu9 Cu 0.31159 0.41345 0.91344
 Cu10 Cu 0.33604 0.41458 0.93959
 N11 N 0.35077 0.43760 0.92805
 N12 N 0.35074 0.42826 0.93792
 C13 C 0.36146 0.43057 0.94646
 C14 C 0.36853 0.44194 0.94163
 C15 C 0.36156 0.44621 0.92998
 H16 H 0.36374 0.42466 0.95566
 H17 H 0.36398 0.45504 0.92360
 N18 N 0.32188 0.40000 0.93834
 N19 N 0.31262 0.39953 0.92832
 C20 C 0.30401 0.38883 0.93062
 C21 C 0.30809 0.38237 0.94261
 C22 C 0.31942 0.38961 0.94726
 H23 H 0.29522 0.38613 0.92428
 H24 H 0.32519 0.38763 0.95660
 H25 H 0.32062 0.42470 0.92882
 H26 H 0.33242 0.41339 0.91863
 N27 N 0.42890 0.85041 0.43842
 N28 N 0.43848 0.85023 0.42876
 C29 C 0.44719 0.86091 0.43081
 C30 C 0.44281 0.86797 0.44239
 C31 C 0.43123 0.86112 0.44699
 H32 H 0.45615 0.86322 0.42457
 H33 H 0.42518 0.86352 0.45607
 Cu34 Cu 0.43860 0.83561 0.41492
 Cu35 Cu 0.41480 0.83601 0.43976
 Cu36 Cu 0.41481 0.81072 0.41440
 N37 N 0.43850 0.82180 0.40028
 N38 N 0.42894 0.81212 0.40006
 C39 C 0.43131 0.80357 0.38934
 C40 C 0.44291 0.80821 0.38253
 C41 C 0.44722 0.81979 0.38963
 H42 H 0.42530 0.79447 0.38691
 H43 H 0.45618 0.82606 0.38735
 N44 N 0.40012 0.81223 0.42850
 N45 N 0.40012 0.82189 0.43818
 C46 C 0.38921 0.81986 0.44657
 C47 C 0.38211 0.80844 0.44191
 C48 C 0.38921 0.80382 0.43048
 H49 H 0.38678 0.82600 0.45558
 H50 H 0.38677 0.79482 0.42431
 H51 H 0.42509 0.82054 0.42989
 H52 H 0.41414 0.83171 0.41876
 N53 N 0.92773 0.89947 0.81293
 N54 N 0.93698 0.89924 0.82289
 C55 C 0.94532 0.88824 0.82107
 C56 C 0.94105 0.88134 0.80936
 C57 C 0.92990 0.88868 0.80441
 H58 H 0.95412 0.88571 0.82747
 H59 H 0.92414 0.88661 0.79507
 Cu60 Cu 0.93793 0.91410 0.83646
 Cu61 Cu 0.91464 0.91460 0.81091
 Cu62 Cu 0.91177 0.93676 0.83893
 N63 N 0.93794 0.92863 0.85039
 N64 N 0.92768 0.93752 0.85126
 C65 C 0.93012 0.94632 0.86178
 C66 C 0.94254 0.94271 0.86773
 C67 C 0.94726 0.93146 0.86035
 H68 H 0.92334 0.95464 0.86489
 H69 H 0.95669 0.92575 0.86216
 N70 N 0.89877 0.93694 0.82323
 N71 N 0.89989 0.92852 0.81254
 C72 C 0.88976 0.93137 0.80344
 C73 C 0.88202 0.94212 0.80865
 C74 C 0.88794 0.94544 0.82117
 H75 H 0.88819 0.92611 0.79370
 H76 H 0.88471 0.95355 0.82814
 H77 H 0.92365 0.92992 0.82316
 H78 H 0.91321 0.91628 0.83191
 N79 N 0.42852 -0.09985 0.31155
 N80 N 0.43819 -0.09956 0.32110
 C81 C 0.44726 -0.10983 0.31868
 C82 C 0.44298 -0.11682 0.30704
 C83 C 0.43110 -0.11031 0.30274
 H84 H 0.45636 -0.11196 0.32478
 H85 H 0.42494 -0.11286 0.29378
 Cu86 Cu 0.43818 -0.08551 0.33545
 Cu87 Cu 0.41376 -0.08624 0.31082
 Cu88 Cu 0.41384 -0.06081 0.33614
 N89 N 0.43819 -0.07116 0.34952
 N90 N 0.42859 -0.06155 0.34977
 C91 C 0.43121 -0.05274 0.36022
 C92 C 0.44304 -0.05712 0.36678
 C93 C 0.44725 -0.06880 0.35982
 H94 H 0.42510 -0.04373 0.36274
 H95 H 0.45629 -0.07497 0.36200
 N96 N 0.39982 -0.06181 0.32143
 N97 N 0.39976 -0.07152 0.31182
 C98 C 0.38924 -0.06913 0.30304
 C99 C 0.38248 -0.05740 0.30738
 C100 C 0.38934 -0.05300 0.31902
 H101 H 0.38679 -0.07530 0.29405
 H102 H 0.38700 -0.04392 0.32510
 H103 H 0.42451 -0.07061 0.32051
 H104 H 0.41352 -0.08177 0.33173
 N105 N 0.81190 0.32166 0.35024
 N106 N 0.82144 0.31199 0.34996
 C107 C 0.81925 0.30312 0.36045
 C108 C 0.80773 0.30751 0.36756
 C109 C 0.80329 0.31926 0.36087
 H110 H 0.82539 0.29405 0.36265
 H111 H 0.79435 0.32545 0.36343
 Cu112 Cu 0.83555 0.31184 0.33569
 Cu113 Cu 0.81094 0.33623 0.33640
 Cu114 Cu 0.83618 0.33610 0.31094
 N115 N 0.84954 0.31168 0.32130
 N116 N 0.84984 0.32135 0.31176
 C117 C 0.86027 0.31872 0.30295
 C118 C 0.86678 0.30682 0.30726
 C119 C 0.85981 0.30260 0.31891
 H120 H 0.86279 0.32486 0.29398
 H121 H 0.86196 0.29349 0.32502
 N122 N 0.82140 0.35007 0.31187
 N123 N 0.81174 0.35007 0.32150
 C124 C 0.80277 0.36040 0.31891
 C125 C 0.80704 0.36711 0.30714
 C126 C 0.81882 0.36039 0.30291
 H127 H 0.79368 0.36273 0.32495
 H128 H 0.82487 0.36268 0.29381
 H129 H 0.82061 0.32545 0.32071
 H130 H 0.83182 0.33649 0.33184
 N131 N -0.17823 0.85099 0.81206
 N132 N -0.18811 0.85052 0.82138
 C133 C -0.19720 0.86078 0.81892
 C134 C -0.19272 0.86794 0.80746
 C135 C -0.18070 0.86153 0.80333
 H136 H -0.20638 0.86286 0.82492
 H137 H -0.17435 0.86422 0.79455
 Cu138 Cu -0.18802 0.83645 0.83573
 Cu139 Cu -0.16323 0.83751 0.81148
 Cu140 Cu -0.16475 0.81095 0.83547
 N141 N -0.18794 0.82230 0.85004
 N142 N -0.17862 0.81242 0.84999
 C143 C -0.18108 0.80374 0.86057
 C144 C -0.19251 0.80851 0.86758
 C145 C -0.19664 0.82028 0.86071
 H146 H -0.17523 0.79449 0.86279
 H147 H -0.20548 0.82666 0.86314
 N148 N -0.14988 0.81249 0.82165
 N149 N -0.14924 0.82267 0.81258
 C150 C -0.13835 0.82054 0.80419
 C151 C -0.13189 0.80852 0.80824
 C152 C -0.13937 0.80367 0.81930
 H153 H -0.13551 0.82701 0.79555
 H154 H -0.13745 0.79426 0.82500
 H155 H -0.17456 0.82208 0.82004
 H156 H -0.16349 0.83203 0.83226
 N157 N 0.93805 0.35062 0.42836
 N158 N 0.92836 0.35046 0.43789
 C159 C 0.93057 0.36094 0.44680
 C160 C 0.94223 0.36792 0.44256
 C161 C 0.94675 0.36119 0.43086
 H162 H 0.92432 0.36323 0.45576
 H163 H 0.95578 0.36365 0.42478
 Cu164 Cu 0.91419 0.33621 0.43786
 Cu165 Cu 0.93901 0.33678 0.41374
 Cu166 Cu 0.91358 0.31146 0.41359
 N167 N 0.90000 0.32197 0.43784
 N168 N 0.89976 0.31238 0.42819
 C169 C 0.88917 0.30370 0.43061
 C170 C 0.88251 0.30810 0.44239
 C171 C 0.88956 0.31969 0.44675
 H172 H 0.88663 0.29475 0.42441
 H173 H 0.88732 0.32586 0.45579
 N174 N 0.92848 0.31229 0.39976
 N175 N 0.93822 0.32187 0.39987
 C176 C 0.94722 0.31924 0.38959
 C177 C 0.94290 0.30750 0.38280
 C178 C 0.93103 0.30334 0.38940
 H179 H 0.95637 0.32523 0.38735
 H180 H 0.92489 0.29433 0.38697
 H181 H 0.91811 0.33235 0.41328
 H182 H 0.92919 0.32118 0.42439
 N183 N 0.43751 0.42794 0.85048
 N184 N 0.42763 0.43727 0.85057
 C185 C 0.42955 0.44583 0.86139
 C186 C 0.44125 0.44159 0.86830
 C187 C 0.44607 0.43025 0.86118
 H188 H 0.42317 0.45465 0.86388
 H189 H 0.45531 0.42437 0.86339
 Cu190 Cu 0.41373 0.43754 0.83607
 Cu191 Cu 0.43917 0.41429 0.83576
 Cu192 Cu 0.41257 0.41289 0.81172
 N193 N 0.39968 0.43779 0.82175
 N194 N 0.39916 0.42794 0.81237
 C195 C 0.38861 0.43048 0.80367
 C196 C 0.38225 0.44250 0.80789
 C197 C 0.38944 0.44691 0.81935
 H198 H 0.38588 0.42417 0.79486
 H199 H 0.38739 0.45607 0.82541
 N200 N 0.42739 0.39891 0.81277
 N201 N 0.43759 0.39952 0.82183
 C202 C 0.44639 0.38901 0.81943
 C203 C 0.44148 0.38156 0.80835
 C204 C 0.42948 0.38804 0.80433
 H205 H 0.45581 0.38706 0.82511
 H206 H 0.42300 0.38523 0.79568
 H207 H 0.42805 0.42411 0.82031
 H208 H 0.41812 0.41303 0.83251
 N209 N 0.81197 0.89987 0.92809
 N210 N 0.82155 0.90015 0.93774
 C211 C 0.81914 0.88988 0.94681
 C212 C 0.80748 0.88293 0.94258
 C213 C 0.80316 0.88945 0.93071
 H214 H 0.82527 0.88771 0.95589
 H215 H 0.79414 0.88694 0.92460
 Cu216 Cu 0.83595 0.91412 0.93765
 Cu217 Cu 0.81123 0.91349 0.91334
 Cu218 Cu 0.83676 0.93869 0.91322
 N219 N 0.85014 0.92830 0.93757
 N220 N 0.85047 0.93784 0.92790
 C221 C 0.86107 0.94649 0.93037
 C222 C 0.86767 0.94210 0.94217
 C223 C 0.86056 0.93057 0.94652
 H224 H 0.86366 0.95542 0.92419
 H225 H 0.86275 0.92442 0.95558
 N226 N 0.82194 0.93781 0.89930
 N227 N 0.81224 0.92820 0.89932
 C228 C 0.80337 0.93071 0.88890
 C229 C 0.80774 0.94240 0.88212
 C230 C 0.81948 0.94668 0.88888
 H231 H 0.79428 0.92466 0.88656
 H232 H 0.82561 0.95572 0.88651
 H233 H 0.83216 0.91781 0.91300
 H234 H 0.82110 0.92912 0.92398
 N235 N 0.31218 0.85033 0.32172
 N236 N 0.32161 0.84989 0.31195
 C237 C 0.31921 0.86014 0.30285
 C238 C 0.30770 0.86727 0.30721
 C239 C 0.30346 0.86086 0.31917
 H240 H 0.32530 0.86224 0.29373
 H241 H 0.29463 0.86355 0.32545
 Cu242 Cu 0.33596 0.83586 0.31217
 Cu243 Cu 0.31152 0.83687 0.33669
 Cu244 Cu 0.33577 0.81051 0.33557
 N245 N 0.35034 0.82183 0.31240
 N246 N 0.35033 0.81202 0.32179
 C247 C 0.36094 0.80337 0.31938
 C248 C 0.36790 0.80808 0.30791
 C249 C 0.36099 0.81978 0.30370
 H250 H 0.36318 0.79414 0.32526
 H251 H 0.36336 0.82606 0.29478
 N252 N 0.32179 0.81203 0.35027
 N253 N 0.31260 0.82212 0.35072
 C254 C 0.30412 0.82003 0.36154
 C255 C 0.30822 0.80812 0.36813
 C256 C 0.31941 0.80327 0.36082
 H257 H 0.29541 0.82646 0.36426
 H258 H 0.32516 0.79392 0.36287
 H259 H 0.33236 0.83152 0.33667
 H260 H 0.32038 0.82133 0.32555
 N261 N 0.81213 0.39948 0.42817
 N262 N 0.82174 0.39975 0.43778
 C263 C 0.81948 0.38935 0.44674
 C264 C 0.80789 0.38230 0.44246
 C265 C 0.80344 0.38891 0.43068
 H266 H 0.82564 0.38717 0.45580
 H267 H 0.79448 0.38636 0.42453
 Cu268 Cu 0.83593 0.41396 0.43777
 Cu269 Cu 0.81115 0.41328 0.41357
 Cu270 Cu 0.83652 0.43867 0.41352
 N271 N 0.85012 0.42818 0.43776
 N272 N 0.85035 0.43775 0.42812
 C273 C 0.86088 0.44649 0.43062
 C274 C 0.86752 0.44213 0.44241
 C275 C 0.86051 0.43052 0.44673
 H276 H 0.86339 0.45545 0.42445
 H277 H 0.86271 0.42440 0.45580
 N278 N 0.82161 0.43782 0.39969
 N279 N 0.81195 0.42816 0.39971
 C280 C 0.80294 0.43076 0.38944
 C281 C 0.80715 0.44258 0.38276
 C282 C 0.81897 0.44682 0.38942
 H283 H 0.79384 0.42471 0.38714
 H284 H 0.82500 0.45593 0.38711
 H285 H 0.83205 0.41773 0.41318
 H286 H 0.82093 0.42893 0.42426
 N287 N 0.92773 0.85044 -0.06245
 N288 N 0.93763 0.84996 -0.07174
 C289 C 0.94663 0.86030 -0.06931
 C290 C 0.94210 0.86749 -0.05790
 C291 C 0.93012 0.86105 -0.05377
 H292 H 0.95587 0.86232 -0.07522
 H293 H 0.92380 0.86369 -0.04495
 Cu294 Cu 0.93812 0.83572 -0.08589
 Cu295 Cu 0.91308 0.83672 -0.06164
 Cu296 Cu 0.91461 0.81018 -0.08561
 N297 N 0.93710 0.82209 -0.10064
 N298 N 0.92781 0.81218 -0.10055
 C299 C 0.92997 0.80374 -0.11139
 C300 C 0.94119 0.80868 -0.11859
 C301 C 0.94550 0.82031 -0.11159
 H302 H 0.92415 0.79446 -0.11359
 H303 H 0.95433 0.82669 -0.11403
 N304 N 0.90009 0.81147 -0.07151
 N305 N 0.89941 0.82168 -0.06247
 C306 C 0.88872 0.81938 -0.05388
 C307 C 0.88246 0.80722 -0.05779
 C308 C 0.88982 0.80244 -0.06896
 H309 H 0.88590 0.82584 -0.04521
 H310 H 0.88798 0.79296 -0.07460
 H311 H 0.92458 0.82135 -0.07018
 H312 H 0.91356 0.83131 -0.08249
 N313 N 0.31221 0.35047 0.82186
 N314 N 0.32178 0.35022 0.81225
 C315 C 0.31952 0.36063 0.80331
 C316 C 0.30794 0.36769 0.80761
 C317 C 0.30351 0.36105 0.81939
 H318 H 0.32570 0.36286 0.79428
 H319 H 0.29456 0.36359 0.82554
 Cu320 Cu 0.33600 0.33603 0.81231
 Cu321 Cu 0.31125 0.33666 0.83649
 Cu322 Cu 0.33658 0.31123 0.83645
 N323 N 0.35018 0.32181 0.81226
 N324 N 0.35038 0.31220 0.82185
 C325 C 0.36096 0.30350 0.81939
 C326 C 0.36766 0.30797 0.80768
 C327 C 0.36064 0.31957 0.80337
 H328 H 0.36347 0.29453 0.82554
 H329 H 0.36292 0.32578 0.79438
 N330 N 0.32169 0.31206 0.85029
 N331 N 0.31207 0.32175 0.85032
 C332 C 0.30311 0.31917 0.86064
 C333 C 0.30733 0.30734 0.86730
 C334 C 0.31909 0.30307 0.86057
 H335 H 0.29404 0.32524 0.86300
 H336 H 0.32512 0.29395 0.86286
 H337 H 0.33214 0.33214 0.83689
 H338 H 0.32098 0.32102 0.82575
 N339 N 0.15004 0.57139 0.56166
 N340 N 0.15055 0.56152 0.57098
 C341 C 0.14039 0.55234 0.56846
 C342 C 0.13325 0.55674 0.55697
 C343 C 0.13956 0.56882 0.55288
 H344 H 0.13837 0.54312 0.57443
 H345 H 0.13687 0.57513 0.54408
 Cu346 Cu 0.16459 0.56173 0.58534
 Cu347 Cu 0.16347 0.58642 0.56103
 Cu348 Cu 0.19004 0.58500 0.58503
 N349 N 0.17862 0.56194 0.59973
 N350 N 0.18849 0.57128 0.59965
 C351 C 0.19713 0.56891 0.61028
 C352 C 0.19236 0.55751 0.61732
 C353 C 0.18063 0.55331 0.61045
 H354 H 0.20637 0.57479 0.61249
 H355 H 0.17427 0.54446 0.61290
 N356 N 0.18853 0.59976 0.57112
 N357 N 0.17832 0.60037 0.56207
 C358 C 0.18052 0.61114 0.55353
 C359 C 0.19260 0.61753 0.55747
 C360 C 0.19743 0.61016 0.56861
 H361 H 0.17407 0.61389 0.54484
 H362 H 0.20690 0.61204 0.57422
 H363 H 0.17889 0.57514 0.56960
 H364 H 0.16898 0.58625 0.58181
 N365 N 0.60038 0.67852 0.06185
 N366 N 0.60026 0.68804 0.07157
 C367 C 0.61102 0.69666 0.06965
 C368 C 0.61810 0.69229 0.05809
 C369 C 0.61114 0.68080 0.05336
 H370 H 0.61342 0.70556 0.07599
 H371 H 0.61352 0.67478 0.04425
 Cu372 Cu 0.58573 0.68815 0.08545
 Cu373 Cu 0.58587 0.66457 0.06032
 Cu374 Cu 0.56059 0.66463 0.08562
 N375 N 0.57185 0.68809 0.09999
 N376 N 0.56211 0.67859 0.10012
 C377 C 0.55363 0.68091 0.11088
 C378 C 0.55838 0.69241 0.11783
 C379 C 0.56993 0.69674 0.11075
 H380 H 0.54452 0.67491 0.11327
 H381 H 0.57628 0.70563 0.11313
 N382 N 0.56191 0.65009 0.07134
 N383 N 0.57155 0.65007 0.06167
 C384 C 0.56933 0.63931 0.05310
 C385 C 0.55780 0.63234 0.05763
 C386 C 0.55332 0.63935 0.06916
 H387 H 0.57540 0.63691 0.04404
 H388 H 0.54428 0.63698 0.07526
 H389 H 0.57054 0.67498 0.07027
 H390 H 0.58155 0.66376 0.08128
 N391 N 0.67874 0.18854 0.65000
 N392 N 0.68808 0.17866 0.64990
 C393 C 0.69665 0.18062 0.63912
 C394 C 0.69241 0.19233 0.63222
 C395 C 0.68106 0.19713 0.63933
 H396 H 0.70554 0.17430 0.63670
 H397 H 0.67524 0.20642 0.63718
 Cu398 Cu 0.68843 0.16481 0.66445
 Cu399 Cu 0.66519 0.19026 0.66476
 Cu400 Cu 0.66382 0.16370 0.68882
 N401 N 0.68876 0.15086 0.67887
 N402 N 0.67891 0.15033 0.68821
 C403 C 0.68152 0.13988 0.69700
 C404 C 0.69361 0.13360 0.69291
 C405 C 0.69797 0.14073 0.68140
 H406 H 0.67521 0.13717 0.70580
 H407 H 0.70716 0.13871 0.67540
 N408 N 0.64987 0.17854 0.68777
 N409 N 0.65049 0.18876 0.67874
 C410 C 0.64010 0.19766 0.68125
 C411 C 0.63273 0.19281 0.69237
 C412 C 0.63911 0.18073 0.69630
 H413 H 0.63821 0.20713 0.67564
 H414 H 0.63634 0.17428 0.70498
 H415 H 0.67503 0.17916 0.68022
 H416 H 0.66394 0.16921 0.66802
 N417 N 1.10002 0.07109 0.18823
 N418 N 1.09974 0.06140 0.17869
 C419 C 1.11002 0.05233 0.18110
 C420 C 1.11697 0.05662 0.19275
 C421 C 1.11045 0.06851 0.19705
 H422 H 1.11216 0.04319 0.17503
 H423 H 1.11296 0.07467 0.20603
 Cu424 Cu 1.08568 0.06137 0.16437
 Cu425 Cu 1.08641 0.08586 0.18898
 Cu426 Cu 1.06111 0.08584 0.16358
 N427 N 1.07137 0.06132 0.15030
 N428 N 1.06185 0.07101 0.14998
 C429 C 1.05303 0.06836 0.13956
 C430 C 1.05731 0.05642 0.13308
 C431 C 1.06896 0.05220 0.14006
 H432 H 1.04405 0.07449 0.13704
 H433 H 1.07503 0.04305 0.13795
 N434 N 1.06209 0.09989 0.17828
 N435 N 1.07172 0.09990 0.18796
 C436 C 1.06926 0.11039 0.19679
 C437 C 1.05757 0.11718 0.19243
 C438 C 1.05325 0.11036 0.18072
 H439 H 1.07533 0.11277 0.20586
 H440 H 1.04420 0.11270 0.17462
 H441 H 1.07076 0.07515 0.17924
 H442 H 1.08202 0.08607 0.16809
 N443 N 0.07179 0.14947 1.06217
 N444 N 0.06215 0.14977 1.07174
 C445 C 0.05305 0.13951 1.06933
 C446 C 0.05727 0.13251 1.05768
 C447 C 0.06916 0.13901 1.05337
 H448 H 0.04397 0.13736 1.07545
 H449 H 0.07529 0.13647 1.04439
 Cu450 Cu 0.06227 0.16384 1.08608
 Cu451 Cu 0.08659 0.16310 1.06139
 Cu452 Cu 0.08672 0.18845 1.08681
 N453 N 0.06238 0.17807 1.10027
 N454 N 0.07204 0.18763 1.10055
 C455 C 0.06956 0.19634 1.11112
 C456 C 0.05775 0.19197 1.11772
 C457 C 0.05341 0.18039 1.11065
 H458 H 0.07575 0.20529 1.11368
 H459 H 0.04434 0.17425 1.11284
 N460 N 0.10066 0.18750 1.07200
 N461 N 0.10063 0.17783 1.06235
 C462 C 0.11105 0.18030 1.05346
 C463 C 0.11786 0.19203 1.05777
 C464 C 0.11110 0.19637 1.06950
 H465 H 0.11337 0.17419 1.04440
 H466 H 0.11349 0.20543 1.07559
 H467 H 0.08692 0.16753 1.08230
 H468 H 0.07597 0.17877 1.07114
 N469 N 0.15044 0.68870 0.67874
 N470 N 0.15056 0.67900 0.68826
 C471 C 0.13990 0.68108 0.69696
 C472 C 0.13289 0.69269 0.69265
 C473 C 0.13977 0.69730 0.68109
 H474 H 0.13760 0.67486 0.70593
 H475 H 0.13742 0.70642 0.67509
 Cu476 Cu 0.16508 0.66505 0.68902
 Cu477 Cu 0.16489 0.69010 0.66490
 Cu478 Cu 0.19000 0.66496 0.66477
 N479 N 0.17904 0.65054 0.68814
 N480 N 0.18868 0.65045 0.67856
 C481 C 0.19732 0.63980 0.68085
 C482 C 0.19279 0.63289 0.69242
 C483 C 0.18120 0.63988 0.69681
 H484 H 0.20642 0.63749 0.67481
 H485 H 0.17505 0.63756 0.70584
 N486 N 0.18868 0.67918 0.65030
 N487 N 0.17904 0.68883 0.65035
 C488 C 0.18116 0.69741 0.63961
 C489 C 0.19266 0.69290 0.63257
 C490 C 0.19721 0.68136 0.63953
 H491 H 0.17504 0.70645 0.63726
 H492 H 0.20623 0.67525 0.63711
 H493 H 0.16891 0.66897 0.66450
 H494 H 0.18008 0.68010 0.67566
 N495 N 1.17788 0.14918 0.18755
 N496 N 1.18740 0.14934 0.17788
 C497 C 1.19653 0.13912 0.18033
 C498 C 1.19245 0.13233 0.19214
 C499 C 1.18061 0.13890 0.19649
 H500 H 1.20559 0.13696 0.17420
 H501 H 1.17463 0.13654 0.20562
 Cu502 Cu 1.18738 0.16344 0.16358
 Cu503 Cu 1.16314 0.16286 0.18840
 Cu504 Cu 1.16301 0.18815 0.16304
 N505 N 1.18718 0.17763 0.14936
 N506 N 1.17763 0.18728 0.14925
 C507 C 1.18018 0.19612 0.13882
 C508 C 1.19191 0.19171 0.13212
 C509 C 1.19614 0.17998 0.13898
 H510 H 1.17409 0.20518 0.13642
 H511 H 1.20517 0.17383 0.13674
 N512 N 1.14910 0.18728 0.17788
 N513 N 1.14914 0.17762 0.18751
 C514 C 1.13871 0.18006 0.19639
 C515 C 1.13188 0.19178 0.19210
 C516 C 1.13864 0.19612 0.18037
 H517 H 1.13635 0.17394 0.20541
 H518 H 1.13622 0.20514 0.17426
 H519 H 1.16276 0.16725 0.16749
 H520 H 1.17388 0.17845 0.17862
 N521 N 0.64969 1.06213 0.57183
 N522 N 0.65001 1.07166 0.56217
 C523 C 0.63961 1.06940 0.55319
 C524 C 0.63252 1.05783 0.55750
 C525 C 0.63911 1.05344 0.56932
 H526 H 0.63745 1.07552 0.54411
 H527 H 0.63654 1.04449 0.57548
 Cu528 Cu 0.66430 1.08579 0.56212
 Cu529 Cu 0.66348 1.06115 0.58646
 Cu530 Cu 0.68903 1.08635 0.58641
 N531 N 0.67867 1.09983 0.56207
 N532 N 0.68822 1.10008 0.57173
 C533 C 0.69706 1.11050 0.56915
 C534 C 0.69277 1.11705 0.55728
 C535 C 0.68109 1.11012 0.55302
 H536 H 0.70606 1.11298 0.57529
 H537 H 0.67499 1.11229 0.54392
 N538 N 0.68808 1.07153 0.60033
 N539 N 0.67837 1.06193 0.60032
 C540 C 0.68095 1.05291 0.61060
 C541 C 0.69277 1.05709 0.61729
 C542 C 0.69706 1.06888 0.61061
 H543 H 0.67487 1.04382 0.61289
 H544 H 0.70621 1.07487 0.61291
 H545 H 0.66812 1.08204 0.58675
 H546 H 0.67918 1.07075 0.57574
 N547 N 0.57181 0.56206 0.14952
 N548 N 0.56218 0.57164 0.14976
 C549 C 0.55309 0.56919 0.13950
 C550 C 0.55734 0.55752 0.13254
 C551 C 0.56922 0.55322 0.13908
 H552 H 0.54400 0.57530 0.13733
 H553 H 0.57533 0.54420 0.13660
 Cu554 Cu 0.56225 0.58605 0.16377
 Cu555 Cu 0.58657 0.56132 0.16317
 Cu556 Cu 0.58661 0.58684 0.18843
 N557 N 0.56231 0.60028 0.17796
 N558 N 0.57193 0.60056 0.18756
 C559 C 0.56944 0.61117 0.19623
 C560 C 0.55765 0.61777 0.19181
 C561 C 0.55333 0.61067 0.18024
 H562 H 0.57559 0.61373 0.20520
 H563 H 0.54428 0.61285 0.17408
 N564 N 0.60056 0.57203 0.18756
 N565 N 0.60057 0.56234 0.17793
 C566 C 0.61103 0.55351 0.18041
 C567 C 0.61783 0.55789 0.19210
 C568 C 0.61102 0.56960 0.19642
 H569 H 0.61341 0.54444 0.17433
 H570 H 0.61340 0.57575 0.20544
 H571 H 0.57589 0.57113 0.17877
 H572 H 0.58689 0.58226 0.16756
 N573 N 0.64940 0.67804 0.18748
 N574 N 0.64968 0.68770 0.17793
 C575 C 0.63924 0.69663 0.18019
 C576 C 0.63220 0.69231 0.19177
 C577 C 0.63885 0.68053 0.19617
 H578 H 0.63702 0.70569 0.17404
 H579 H 0.63631 0.67435 0.20511
 Cu580 Cu 0.66382 0.68771 0.16368
 Cu581 Cu 0.66314 0.66337 0.18833
 Cu582 Cu 0.68849 0.66337 0.16298
 N583 N 0.67807 0.68772 0.14954
 N584 N 0.68763 0.67806 0.14925
 C585 C 0.69633 0.68059 0.13872
 C586 C 0.69193 0.69239 0.13210
 C587 C 0.68033 0.69668 0.13914
 H588 H 0.70529 0.67442 0.13617
 H589 H 0.67418 0.70575 0.13695
 N590 N 0.68761 0.64943 0.17778
 N591 N 0.67796 0.64943 0.18743
 C592 C 0.68045 0.63901 0.19630
 C593 C 0.69217 0.63223 0.19199
 C594 C 0.69648 0.63900 0.18027
 H595 H 0.67436 0.63666 0.20535
 H596 H 0.70554 0.63663 0.17419
 H597 H 0.67877 0.67409 0.17864
 H598 H 0.66760 0.66305 0.16747
 N599 N 0.15005 0.07127 1.06169
 N600 N 0.15035 0.06159 1.07120
 C601 C 0.14007 0.05251 1.06879
 C602 C 0.13308 0.05679 1.05718
 C603 C 0.13959 0.06869 1.05289
 H604 H 0.13794 0.04338 1.07486
 H605 H 0.13706 0.07484 1.04393
 Cu606 Cu 0.16444 0.06158 1.08548
 Cu607 Cu 0.16368 0.08605 1.06092
 Cu608 Cu 0.18901 0.08605 1.08631
 N609 N 0.17873 0.06156 1.09957
 N610 N 0.18825 0.07125 1.09991
 C611 C 0.19705 0.06865 1.11035
 C612 C 0.19275 0.05673 1.11682
 C613 C 0.18113 0.05246 1.10981
 H614 H 0.20602 0.07480 1.11290
 H615 H 0.17505 0.04333 1.11191
 N616 N 0.18805 0.10008 1.07161
 N617 N 0.17841 0.10008 1.06193
 C618 C 0.18091 0.11054 1.05310
 C619 C 0.19262 0.11733 1.05746
 C620 C 0.19692 0.11052 1.06916
 H621 H 0.17484 0.11290 1.04403
 H622 H 0.20598 0.11286 1.07526
 H623 H 0.17931 0.07536 1.07060
 H624 H 0.16807 0.08628 1.08181
 N625 N 0.59998 0.18832 0.57157
 N626 N 0.59947 0.17895 0.56172
 C627 C 0.60960 0.18149 0.55253
 C628 C 0.61669 0.19304 0.55689
 C629 C 0.61039 0.19716 0.56896
 H630 H 0.61161 0.17549 0.54332
 H631 H 0.61306 0.20602 0.57524
 Cu632 Cu 0.58554 0.16450 0.56200
 Cu633 Cu 0.58659 0.18895 0.58662
 Cu634 Cu 0.56011 0.16480 0.58527
 N635 N 0.57163 0.14999 0.56229
 N636 N 0.56177 0.15007 0.57163
 C637 C 0.55324 0.13932 0.56936
 C638 C 0.55806 0.13218 0.55803
 C639 C 0.56972 0.13914 0.55376
 H640 H 0.54404 0.13707 0.57527
 H641 H 0.57611 0.13664 0.54495
 N642 N 0.56158 0.17882 0.59996
 N643 N 0.57177 0.18791 0.60055
 C644 C 0.56956 0.19650 0.61128
 C645 C 0.55750 0.19256 0.61768
 C646 C 0.55268 0.18137 0.61034
 H647 H 0.57598 0.20523 0.61400
 H648 H 0.54321 0.17575 0.61224
 H649 H 0.58114 0.16812 0.58649
 H650 H 0.57116 0.18026 0.57539
 N651 N 0.09981 0.57135 0.68848
 N652 N 0.09989 0.56194 0.67866
 C653 C 0.11071 0.55342 0.68063
 C654 C 0.11764 0.55777 0.69228
 C655 C 0.11053 0.56913 0.69704
 H656 H 0.11313 0.54449 0.67436
 H657 H 0.11272 0.57503 0.70627
 Cu658 Cu 0.08526 0.56111 0.66487
 Cu659 Cu 0.08502 0.58479 0.69023
 Cu660 Cu 0.06111 0.58621 0.66372
 N661 N 0.07106 0.56144 0.65066
 N662 N 0.06182 0.57139 0.65012
 C663 C 0.05307 0.56890 0.63960
 C664 C 0.05710 0.55680 0.63327
 C665 C 0.06852 0.55230 0.64045
 H666 H 0.04426 0.57523 0.63694
 H667 H 0.07437 0.54299 0.63849
 N668 N 0.06198 0.60005 0.67865
 N669 N 0.07099 0.59941 0.68887
 C670 C 0.06841 0.60973 0.69786
 C671 C 0.05724 0.61708 0.69305
 C672 C 0.05338 0.61076 0.68091
 H673 H 0.07401 0.61158 0.70735
 H674 H 0.04471 0.61353 0.67444
 H675 H 0.06959 0.57477 0.67915
 H676 H 0.08194 0.58570 0.66914
 N677 N 0.64988 0.56195 0.07160
 N678 N 0.65006 0.57166 0.06209
 C679 C 0.63943 0.56964 0.05333
 C680 C 0.63238 0.55803 0.05759
 C681 C 0.63921 0.55337 0.06917
 H682 H 0.63713 0.57593 0.04440
 H683 H 0.63680 0.54425 0.07514
 Cu684 Cu 0.66458 0.58559 0.06213
 Cu685 Cu 0.66422 0.56057 0.08574
 Cu686 Cu 0.68945 0.58599 0.08591
 N687 N 0.67832 0.60027 0.06236
 N688 N 0.68799 0.60046 0.07194
 C689 C 0.69644 0.61127 0.06970
 C690 C 0.69175 0.61820 0.05820
 C691 C 0.68025 0.61105 0.05377
 H692 H 0.70549 0.61371 0.07577
 H693 H 0.67396 0.61340 0.04485
 N694 N 0.68795 0.57180 0.10050
 N695 N 0.67830 0.56211 0.10044
 C696 C 0.68031 0.55368 0.11132
 C697 C 0.69170 0.55831 0.11847
 C698 C 0.69633 0.56976 0.11142
 H699 H 0.67417 0.54466 0.11371
 H700 H 0.70531 0.57592 0.11390
 H701 H 0.66849 0.58159 0.08655
 H702 H 0.67965 0.57052 0.07553
 N703 N 0.07145 0.68866 0.59966
 N704 N 0.06211 0.67878 0.59974
 C705 C 0.05349 0.68080 0.61047
 C706 C 0.05769 0.69255 0.61735
 C707 C 0.06908 0.69732 0.61030
 H708 H 0.04463 0.67444 0.61291
 H709 H 0.07494 0.70658 0.61250
 Cu710 Cu 0.06184 0.66477 0.58531
 Cu711 Cu 0.08513 0.69021 0.58500
 Cu712 Cu 0.08649 0.66363 0.56093
 N713 N 0.06158 0.65076 0.57091
 N714 N 0.07142 0.65023 0.56156
 C715 C 0.06879 0.63977 0.55275
 C716 C 0.05670 0.63349 0.55685
 C717 C 0.05236 0.64063 0.56837
 H718 H 0.07507 0.63707 0.54392
 H719 H 0.04316 0.63863 0.57436
 N720 N 0.10044 0.67850 0.56197
 N721 N 0.09984 0.68871 0.57103
 C722 C 0.11023 0.69763 0.56851
 C723 C 0.11758 0.69278 0.55735
 C724 C 0.11118 0.68069 0.55341
 H725 H 0.11213 0.70710 0.57413
 H726 H 0.11390 0.67424 0.54471
 H727 H 0.07527 0.67907 0.56956
 H728 H 0.08636 0.66912 0.58174
 N729 N 0.57141 1.06230 0.64944
 N730 N 0.56183 1.07196 0.64953
 C731 C 0.55334 1.07000 0.63867
 C732 C 0.55787 1.05853 0.63154
 C733 C 0.56932 1.05385 0.63858
 H734 H 0.54437 1.07622 0.63631
 H735 H 0.57540 1.04478 0.63622
 Cu736 Cu 0.56087 1.08579 0.66420
 Cu737 Cu 0.58501 1.06075 0.66414
 Cu738 Cu 0.58484 1.08582 0.68942
 N739 N 0.56154 1.10026 0.67825
 N740 N 0.57106 1.10036 0.68796
 C741 C 0.56874 1.11107 0.69656
 C742 C 0.55721 1.11797 0.69193
 C743 C 0.55285 1.11094 0.68033
 H744 H 0.57473 1.11339 0.70570
 H745 H 0.54387 1.11325 0.67410
 N746 N 0.59932 1.07157 0.68821
 N747 N 0.59936 1.06193 0.67853
 C748 C 0.61010 1.05335 0.68074
 C749 C 0.61704 1.05784 0.69231
 C750 C 0.61002 1.06937 0.69683
 H751 H 0.61251 1.04432 0.67460
 H752 H 0.61236 1.07547 0.70590
 H753 H 0.57408 1.07061 0.67939
 H754 H 0.58531 1.08178 0.66840
 N755 N 0.43797 0.35071 0.92855
 N756 N 0.42829 0.35052 0.93809
 C757 C 0.43019 0.36128 0.94674
 C758 C 0.44168 0.36844 0.94236
 C759 C 0.44642 0.36153 0.93084
 H760 H 0.42387 0.36362 0.95564
 H761 H 0.45548 0.36399 0.92479
 Cu762 Cu 0.41447 0.33587 0.93824
 Cu763 Cu 0.43941 0.33625 0.91451
 Cu764 Cu 0.41423 0.31081 0.91454
 N765 N 0.40009 0.32178 0.93826
 N766 N 0.39993 0.31209 0.92870
 C767 C 0.38931 0.30344 0.93111
 C768 C 0.38250 0.30803 0.94273
 C769 C 0.38950 0.31967 0.94703
 H770 H 0.38693 0.29433 0.92509
 H771 H 0.38718 0.32594 0.95599
 N772 N 0.42831 0.31237 0.89985
 N773 N 0.43795 0.32207 0.89984
 C774 C 0.44636 0.32003 0.88895
 C775 C 0.44177 0.30857 0.88186
 C776 C 0.43036 0.30393 0.88896
 H777 H 0.45535 0.32619 0.88652
 H778 H 0.42425 0.29489 0.88654
 H779 H 0.41843 0.33183 0.91379
 H780 H 0.42956 0.32079 0.92487
 N781 N 0.93779 0.42817 0.35095
 N782 N 0.92830 0.43790 0.35067
 C783 C 0.93056 0.44678 0.36116
 C784 C 0.94204 0.44231 0.36828
 C785 C 0.94641 0.43051 0.36161
 H786 H 0.92448 0.45590 0.36336
 H787 H 0.95530 0.42426 0.36418
 Cu788 Cu 0.91431 0.43829 0.33625
 Cu789 Cu 0.93875 0.41362 0.33706
 Cu790 Cu 0.91357 0.41376 0.31163
 N791 N 0.90010 0.43811 0.32205
 N792 N 0.89982 0.42840 0.31252
 C793 C 0.88935 0.43093 0.30372
 C794 C 0.88281 0.44281 0.30800
 C795 C 0.88979 0.44715 0.31962
 H796 H 0.88686 0.42477 0.29474
 H797 H 0.88766 0.45630 0.32568
 N798 N 0.92838 0.39986 0.31244
 N799 N 0.93801 0.39983 0.32211
 C800 C 0.94701 0.38954 0.31947
 C801 C 0.94280 0.38290 0.30761
 C802 C 0.93101 0.38961 0.30340
 H803 H 0.95609 0.38721 0.32554
 H804 H 0.92498 0.38734 0.29427
 H805 H 0.92919 0.42446 0.32144
 H806 H 0.91784 0.41361 0.33263
 N807 N 0.31291 0.92836 0.39947
 N808 N 0.32224 0.93824 0.39993
 C809 C 0.31978 0.94730 0.38966
 C810 C 0.30832 0.94281 0.38249
 C811 C 0.30418 0.93080 0.38892
 H812 H 0.32578 0.95648 0.38757
 H813 H 0.29541 0.92444 0.38622
 Cu814 Cu 0.33654 0.93819 0.41404
 Cu815 Cu 0.31230 0.91340 0.41297
 Cu816 Cu 0.33627 0.91501 0.43957
 N817 N 0.35088 0.93815 0.42815
 N818 N 0.35081 0.92886 0.43805
 C819 C 0.36139 0.93134 0.44674
 C820 C 0.36839 0.94276 0.44195
 C821 C 0.36155 0.94688 0.43017
 H822 H 0.36359 0.92551 0.45601
 H823 H 0.36397 0.95571 0.42379
 N824 N 0.32244 0.90013 0.43802
 N825 N 0.31339 0.89947 0.42782
 C826 C 0.30498 0.88857 0.42993
 C827 C 0.30901 0.88214 0.44195
 C828 C 0.32007 0.88963 0.44684
 H829 H 0.29635 0.88572 0.42344
 H830 H 0.32575 0.88774 0.45627
 H831 H 0.32085 0.92478 0.42841
 H832 H 0.33309 0.91368 0.41852
 O833 O 0.21335 0.51816 0.74912
 O834 O 0.21771 0.51608 0.77287
 O835 O 0.24923 0.53682 0.73236
 O836 O 0.27217 0.53288 0.73216
 O837 O 0.23192 0.50112 0.71338
 O838 O 0.23283 0.47649 0.71832
 O839 O 0.28594 0.49939 0.76855
 O840 O 0.28205 0.52317 0.76566
 O841 O 0.25139 0.48187 0.78592
 O842 O 0.22617 0.48319 0.78122
 O843 O 0.26837 0.46425 0.75136
 O844 O 0.26741 0.46728 0.72804
 O845 O 0.28611 0.48276 0.75184
 O846 O 0.28056 0.48505 0.72546
 O847 O 0.25154 0.46396 0.76776
 O848 O 0.22596 0.46880 0.76569
 O849 O 0.26818 0.49835 0.78593
 O850 O 0.26314 0.52357 0.78186
 O851 O 0.21322 0.50124 0.73266
 O852 O 0.21835 0.47642 0.73421
 O853 O 0.24874 0.51758 0.71323
 O854 O 0.27399 0.51508 0.71886
 O855 O 0.23231 0.53677 0.74873
 O856 O 0.23576 0.53146 0.77380
 Zr857 Zr 0.23331 0.51689 0.75759
 O858 O 0.24529 0.50450 0.77084
 Zr859 Zr 0.25752 0.51672 0.73314
 O860 O 0.27079 0.50486 0.74566
 Zr861 Zr 0.23317 0.49245 0.73328
 O862 O 0.24561 0.47925 0.74529
 Zr863 Zr 0.26622 0.50811 0.76662
 O864 O 0.25430 0.52153 0.75415
 Zr865 Zr 0.24214 0.48350 0.76630
 O866 O 0.22870 0.49583 0.75427
 Zr867 Zr 0.26658 0.48385 0.74222
 O868 O 0.25418 0.49565 0.72853
 O869 O 0.23673 0.51328 0.73674
 O870 O 0.26301 0.48716 0.76308
 C871 C 0.20758 0.51124 0.73937
 C872 C 0.23926 0.54252 0.73900
 C873 C 0.23878 0.51087 0.70759
 C874 C 0.29158 0.48932 0.76202
 C875 C 0.26162 0.48825 0.79145
 C876 C 0.26179 0.45855 0.76133
 H877 H 0.24311 0.50670 0.78058
 H878 H 0.24365 0.46951 0.74286
 H879 H 0.23085 0.51920 0.73087
 H880 H 0.28052 0.50722 0.74365
 H881 H 0.27758 0.53194 0.76286
 H882 H 0.27906 0.53105 0.73946
 H883 H 0.22785 0.46234 0.75799
 H884 H 0.21326 0.47764 0.74299
 H885 H 0.27097 0.52309 0.78844
 H886 H 0.22852 0.53864 0.77287
 H887 H 0.25937 0.46839 0.72187
 H888 H 0.24082 0.47800 0.71213
 H889 H 0.21374 0.50666 0.77252
 H890 H 0.22727 0.49143 0.78716
 H891 H 0.27194 0.50708 0.71283
 H892 H 0.28806 0.49145 0.72811
 O893 O 0.21338 0.01796 0.24903
 O894 O 0.21779 0.01598 0.27274
 O895 O 0.24932 0.03651 0.23214
 O896 O 0.27226 0.03247 0.23174
 O897 O 0.23190 0.00073 0.21327
 O898 O 0.23272 -0.02384 0.21832
 O899 O 0.28597 -0.00089 0.26837
 O900 O 0.28220 0.02288 0.26534
 O901 O 0.25145 -0.01821 0.28586
 O902 O 0.22624 -0.01690 0.28122
 O903 O 0.26831 -0.03600 0.25129
 O904 O 0.26737 -0.03303 0.22796
 O905 O 0.28609 -0.01753 0.25167
 O906 O 0.28049 -0.01530 0.22532
 O907 O 0.25154 -0.03620 0.26776
 O908 O 0.22594 -0.03131 0.26572
 O909 O 0.26825 -0.00174 0.28578
 O910 O 0.26330 0.02346 0.28161
 O911 O 0.21321 0.00100 0.23261
 O912 O 0.21829 -0.02382 0.23427
 O913 O 0.24872 0.01718 0.21303
 O914 O 0.27398 0.01467 0.21864
 O915 O 0.23238 0.03655 0.24848
 O916 O 0.23590 0.03132 0.27359
 Zr917 Zr 0.23337 0.01671 0.25743
 O918 O 0.24536 0.00436 0.27071
 Zr919 Zr 0.25754 0.01639 0.23293
 O920 O 0.27081 0.00458 0.24548
 Zr921 Zr 0.23314 -0.00782 0.23322
 O922 O 0.24558 -0.02099 0.24525
 Zr923 Zr 0.26629 0.00791 0.26642
 O924 O 0.25437 0.02130 0.25393
 Zr925 Zr 0.24216 -0.01665 0.26625
 O926 O 0.22873 -0.00435 0.25420
 Zr927 Zr 0.26655 -0.01643 0.24211
 O928 O 0.25414 -0.00468 0.22840
 O929 O 0.23674 0.01301 0.23658
 O930 O 0.26303 -0.01305 0.26297
 C931 C 0.20758 0.01100 0.23932
 C932 C 0.23934 0.04225 0.23875
 C933 C 0.23877 0.01043 0.20742
 C934 C 0.29159 -0.01097 0.26182
 C935 C 0.26169 -0.01181 0.29135
 C936 C 0.26175 -0.04164 0.26131
 H937 H 0.24320 0.00660 0.28044
 H938 H 0.24360 -0.03074 0.24286
 H939 H 0.23086 0.01891 0.23069
 H940 H 0.28054 0.00691 0.24343
 H941 H 0.27776 0.03168 0.26259
 H942 H 0.27903 0.03081 0.23919
 H943 H 0.22780 -0.03780 0.25805
 H944 H 0.21322 -0.02253 0.24305
 H945 H 0.27118 0.02302 0.28813
 H946 H 0.22865 0.03850 0.27266
 H947 H 0.25921 -0.03204 0.22193
 H948 H 0.24071 -0.02240 0.21212
 H949 H 0.21382 0.00656 0.27244
 H950 H 0.22732 -0.00859 0.28708
 H951 H 0.27187 0.00669 0.21259
 H952 H 0.28802 -0.00891 0.22794
 O953 O 0.49916 0.76835 0.28641
 O954 O 0.52293 0.76614 0.28201
 O955 O 0.48239 0.78694 0.25051
 O956 O 0.48216 0.78298 0.22760
 O957 O 0.46334 0.75128 0.26780
 O958 O 0.46829 0.72667 0.26699
 O959 O 0.51845 0.74935 0.21382
 O960 O 0.51558 0.77313 0.21767
 O961 O 0.53586 0.73195 0.24846
 O962 O 0.53115 0.73328 0.27362
 O963 O 0.50125 0.71430 0.23141
 O964 O 0.47792 0.71739 0.23234
 O965 O 0.50169 0.73279 0.21364
 O966 O 0.47534 0.73510 0.21924
 O967 O 0.51768 0.71402 0.24823
 O968 O 0.51565 0.71888 0.27380
 O969 O 0.53588 0.74839 0.23165
 O970 O 0.53181 0.77359 0.23657
 O971 O 0.48264 0.75150 0.28656
 O972 O 0.48423 0.72661 0.28143
 O973 O 0.46321 0.76770 0.25097
 O974 O 0.46883 0.76523 0.22575
 O975 O 0.49877 0.78689 0.26743
 O976 O 0.52379 0.78154 0.26399
 Zr977 Zr 0.50758 0.76699 0.26645
 O978 O 0.52080 0.75456 0.25446
 Zr979 Zr 0.48311 0.76682 0.24223
 O980 O 0.49560 0.75491 0.22896
 Zr981 Zr 0.48325 0.74262 0.26662
 O982 O 0.49522 0.72936 0.25417
 Zr983 Zr 0.51655 0.75813 0.23353
 O984 O 0.50413 0.77160 0.24545
 Zr985 Zr 0.51623 0.73358 0.25764
 O986 O 0.50424 0.74595 0.27108
 Zr987 Zr 0.49214 0.73392 0.23319
 O988 O 0.47848 0.74577 0.24559
 O989 O 0.48672 0.76343 0.26303
 O990 O 0.51300 0.73719 0.23676
 C991 C 0.48939 0.76148 0.29220
 C992 C 0.48907 0.79265 0.26046
 C993 C 0.45756 0.76101 0.26091
 C994 C 0.51187 0.73931 0.20817
 C995 C 0.54140 0.73832 0.23825
 C996 C 0.51124 0.70861 0.23799
 H997 H 0.53053 0.75675 0.25665
 H998 H 0.49278 0.71963 0.25612
 H999 H 0.48086 0.76937 0.26890
 H1000 H 0.49357 0.75726 0.21924
 H1001 H 0.51282 0.78193 0.22212
 H1002 H 0.48941 0.78110 0.22068
 H1003 H 0.50787 0.71251 0.27197
 H1004 H 0.49297 0.72789 0.28657
 H1005 H 0.53836 0.77309 0.22872
 H1006 H 0.52291 0.78869 0.27128
 H1007 H 0.47192 0.71839 0.24052
 H1008 H 0.46211 0.72812 0.25898
 H1009 H 0.52245 0.75678 0.28609
 H1010 H 0.53705 0.74155 0.27257
 H1011 H 0.46281 0.75722 0.22776
 H1012 H 0.47797 0.74151 0.21173
 O1013 O 0.03670 0.73215 0.74916
 O1014 O 0.03346 0.73358 0.77160
 O1015 O 0.00059 0.71351 0.73227
 O1016 O -0.02235 0.71762 0.73206
 O1017 O 0.01809 0.74910 0.71338
 O1018 O 0.01717 0.77379 0.71843
 O1019 O -0.03577 0.75114 0.76871
 O1020 O -0.03211 0.72734 0.76557
 O1021 O -0.00130 0.76840 0.78597
 O1022 O 0.02498 0.76613 0.78021
 O1023 O -0.01816 0.78611 0.75168
 O1024 O -0.01724 0.78318 0.72829
 O1025 O -0.03596 0.76770 0.75198
 O1026 O -0.03044 0.76544 0.72560
 O1027 O -0.00123 0.78636 0.76800
 O1028 O 0.02342 0.78232 0.76679
 O1029 O -0.01801 0.75184 0.78604
 O1030 O -0.01314 0.72668 0.78178
 O1031 O 0.03683 0.74891 0.73259
 O1032 O 0.03186 0.77370 0.73429
 O1033 O 0.00118 0.73273 0.71321
 O1034 O -0.02407 0.73541 0.71889
 O1035 O 0.01745 0.71346 0.74870
 O1036 O 0.01405 0.71922 0.77404
 Zr1037 Zr 0.01672 0.73339 0.75755
 O1038 O 0.00484 0.74582 0.77095
 Zr1039 Zr -0.00757 0.73365 0.73312
 O1040 O -0.02073 0.74555 0.74572
 Zr1041 Zr 0.01692 0.75779 0.73330
 O1042 O 0.00458 0.77103 0.74539
 Zr1043 Zr -0.01613 0.74224 0.76665
 O1044 O -0.00429 0.72878 0.75411
 Zr1045 Zr 0.00805 0.76678 0.76639
 O1046 O 0.02139 0.75444 0.75429
 Zr1047 Zr -0.01643 0.76655 0.74236
 O1048 O -0.00413 0.75471 0.72859
 O1049 O 0.01326 0.73697 0.73671
 O1050 O -0.01283 0.76317 0.76319
 C1051 C 0.04247 0.73897 0.73936
 C1052 C 0.01049 0.70775 0.73895
 C1053 C 0.01118 0.73937 0.70758
 C1054 C -0.04141 0.76121 0.76219
 C1055 C -0.01145 0.76196 0.79154
 C1056 C -0.01154 0.79176 0.76168
 H1057 H 0.00704 0.74370 0.78070
 H1058 H 0.00657 0.78077 0.74302
 H1059 H 0.01912 0.73102 0.73084
 H1060 H -0.03048 0.74325 0.74372
 H1061 H -0.02772 0.71852 0.76279
 H1062 H -0.02918 0.71944 0.73941
 H1063 H 0.02309 0.78720 0.75784
 H1064 H 0.03684 0.77251 0.74313
 H1065 H -0.02100 0.72714 0.78833
 H1066 H 0.02107 0.71183 0.77310
 H1067 H -0.00913 0.78215 0.72220
 H1068 H 0.00920 0.77226 0.71222
 H1069 H 0.03085 0.73988 0.77920
 H1070 H 0.02215 0.76076 0.78842
 H1071 H -0.02195 0.74335 0.71282
 H1072 H -0.03792 0.75899 0.72820
 O1073 O 0.00104 0.03620 0.01801
 O1074 O -0.02145 0.03287 0.01660
 O1075 O 0.01797 0.00015 0.03667
 O1076 O 0.01803 -0.02280 0.03261
 O1077 O 0.03690 0.01744 0.00077
 O1078 O 0.03178 0.01611 -0.02352
 O1079 O -0.01812 -0.03647 -0.00094
 O1080 O -0.01510 -0.03271 0.02285
 O1081 O -0.03576 -0.00202 -0.01806
 O1082 O -0.03012 0.02433 -0.01562
 O1083 O -0.00131 -0.01854 -0.03600
 O1084 O 0.02375 -0.01730 -0.03155
 O1085 O -0.00158 -0.03644 -0.01770
 O1086 O 0.02422 -0.03154 -0.01609
 O1087 O -0.01783 -0.00180 -0.03610
 O1088 O -0.01682 0.02290 -0.03193
 O1089 O -0.03567 -0.01879 -0.00159
 O1090 O -0.03143 -0.01388 0.02349
 O1091 O 0.01762 0.03633 0.00126
 O1092 O 0.01601 0.03146 -0.02336
 O1093 O 0.03703 0.00075 0.01736
 O1094 O 0.03155 -0.02440 0.01483
 O1095 O 0.00148 0.01696 0.03675
 O1096 O -0.02378 0.01348 0.03104
 Zr1097 Zr -0.00733 0.01618 0.01684
 O1098 O -0.02070 0.00419 0.00445
 Zr1099 Zr 0.01714 -0.00805 0.01656
 O1100 O 0.00467 -0.02124 0.00457
 Zr1101 Zr 0.01687 0.01640 -0.00759
 O1102 O 0.00474 0.00413 -0.02087
 Zr1103 Zr -0.01628 -0.01677 0.00794
 O1104 O -0.00384 -0.00484 0.02141
 Zr1105 Zr -0.01624 0.00745 -0.01649
 O1106 O -0.00411 0.02082 -0.00420
 Zr1107 Zr 0.00799 -0.01689 -0.01642
 O1108 O 0.02160 -0.00461 -0.00444
 O1109 O 0.01353 0.01278 0.01323
 O1110 O -0.01288 -0.01344 -0.01299
 C1111 C 0.01083 0.04199 0.01118
 C1112 C 0.01124 0.01001 0.04245
 C1113 C 0.04269 0.01062 0.01055
 C1114 C -0.01164 -0.04201 -0.01109
 C1115 C -0.04126 -0.01222 -0.01163
 C1116 C -0.01138 -0.01200 -0.04160
 H1117 H -0.03045 0.00631 0.00661
 H1118 H 0.00696 0.00632 -0.03058
 H1119 H 0.01942 0.01867 0.01916
 H1120 H 0.00671 -0.03099 0.00684
 H1121 H -0.01232 -0.02828 0.03164
 H1122 H 0.01113 -0.03000 0.03041
 H1123 H -0.00792 0.02265 -0.03690
 H1124 H 0.00700 0.03620 -0.02238
 H1125 H -0.03791 -0.02180 0.02306
 H1126 H -0.02291 0.02060 0.03837
 H1127 H 0.02283 -0.00886 -0.03723
 H1128 H 0.03629 0.00694 -0.02311
 H1129 H -0.02915 0.03010 0.01051
 H1130 H -0.03837 0.02137 -0.01038
 H1131 H 0.03722 -0.02251 0.00654
 H1132 H 0.02231 -0.03818 -0.00857
 O1133 O 0.03657 0.51775 0.50088
 O1134 O 0.03321 0.51645 0.47837
 O1135 O 0.00062 0.53655 0.51790
 O1136 O -0.02232 0.53256 0.51797
 O1137 O 0.01785 0.50053 0.53668
 O1138 O 0.01643 0.47621 0.53151
 O1139 O -0.03612 0.49901 0.48173
 O1140 O -0.03234 0.52281 0.48480
 O1141 O -0.00186 0.48175 0.46404
 O1142 O 0.02446 0.48406 0.46950
 O1143 O -0.01827 0.46390 0.49850
 O1144 O -0.01696 0.46835 0.52356
 O1145 O -0.03610 0.48224 0.49826
 O1146 O -0.03122 0.48389 0.52402
 O1147 O -0.00156 0.46373 0.48196
 O1148 O 0.02319 0.46791 0.48295
 O1149 O -0.01854 0.49832 0.46416
 O1150 O -0.01354 0.52342 0.46840
 O1151 O 0.03666 0.50096 0.51743
 O1152 O 0.03174 0.47634 0.51570
 O1153 O 0.00125 0.51722 0.53688
 O1154 O -0.02397 0.51467 0.53138
 O1155 O 0.01740 0.53658 0.50141
 O1156 O 0.01389 0.53090 0.47606
 Zr1157 Zr 0.01655 0.51667 0.49250
 O1158 O 0.00451 0.50432 0.47912
 Zr1159 Zr -0.00762 0.51645 0.51700
 O1160 O -0.02085 0.50452 0.50451
 Zr1161 Zr 0.01674 0.49218 0.51663
 O1162 O 0.00442 0.47895 0.50451
 Zr1163 Zr -0.01642 0.50787 0.48356
 O1164 O -0.00444 0.52131 0.49601
 Zr1165 Zr 0.00771 0.48333 0.48353
 O1166 O 0.02113 0.49559 0.49565
 Zr1167 Zr -0.01657 0.48349 0.50780
 O1168 O -0.00423 0.49542 0.52142
 O1169 O 0.01317 0.51303 0.51335
 O1170 O -0.01314 0.48691 0.48693
 C1171 C 0.04233 0.51089 0.51067
 C1172 C 0.01051 0.54230 0.51121
 C1173 C 0.01111 0.51036 0.54251
 C1174 C -0.04167 0.48886 0.48820
 C1175 C -0.01206 0.48820 0.45857
 C1176 C -0.01175 0.45827 0.48843
 H1177 H 0.00662 0.50647 0.46936
 H1178 H 0.00658 0.46922 0.50671
 H1179 H 0.01907 0.51893 0.51924
 H1180 H -0.03058 0.50682 0.50656
 H1181 H -0.02790 0.53161 0.48755
 H1182 H -0.02947 0.53045 0.51100
 H1183 H 0.02281 0.46279 0.49177
 H1184 H 0.03650 0.47735 0.50671
 H1185 H -0.02151 0.52304 0.46198
 H1186 H 0.02094 0.53827 0.47702
 H1187 H -0.00851 0.46268 0.52265
 H1188 H 0.00730 0.47668 0.53608
 H1189 H 0.03054 0.51015 0.47080
 H1190 H 0.02153 0.48950 0.46137
 H1191 H -0.02204 0.50639 0.53707
 H1192 H -0.03785 0.49142 0.52208
 O1193 O 0.48183 -0.03661 0.49926
 O1194 O 0.48313 -0.03326 0.52174
 O1195 O 0.46324 -0.00054 0.48227
 O1196 O 0.46730 0.02239 0.48205
 O1197 O 0.49890 -0.01807 0.46350
 O1198 O 0.52356 -0.01717 0.46867
 O1199 O 0.50064 0.03608 0.51861
 O1200 O 0.47687 0.03226 0.51557
 O1201 O 0.51808 0.00180 0.53602
 O1202 O 0.51571 -0.02453 0.53057
 O1203 O 0.53571 0.01833 0.50167
 O1204 O 0.53280 0.01732 0.47834
 O1205 O 0.51727 0.03616 0.50194
 O1206 O 0.51512 0.03055 0.47562
 O1207 O 0.53600 0.00142 0.51800
 O1208 O 0.53179 -0.02327 0.51692
 O1209 O 0.50150 0.01847 0.53604
 O1210 O 0.47635 0.01340 0.53189
 O1211 O 0.49861 -0.03675 0.48271
 O1212 O 0.52333 -0.03182 0.48450
 O1213 O 0.48251 -0.00119 0.46325
 O1214 O 0.48511 0.02410 0.46890
 O1215 O 0.46315 -0.01737 0.49872
 O1216 O 0.46885 -0.01387 0.52412
 Zr1217 Zr 0.48303 -0.01658 0.50764
 O1218 O 0.49541 -0.00460 0.52104
 Zr1219 Zr 0.48334 0.00763 0.48316
 O1220 O 0.49519 0.02088 0.49575
 Zr1221 Zr 0.50747 -0.01684 0.48345
 O1222 O 0.52066 -0.00442 0.49552
 Zr1223 Zr 0.49184 0.01636 0.51669
 O1224 O 0.47843 0.00444 0.50415
 Zr1225 Zr 0.51637 -0.00778 0.51653
 O1226 O 0.50408 -0.02122 0.50444
 Zr1227 Zr 0.51617 0.01658 0.49240
 O1228 O 0.50438 0.00420 0.47865
 O1229 O 0.48667 -0.01319 0.48680
 O1230 O 0.51277 0.01309 0.51325
 C1231 C 0.48867 -0.04239 0.48945
 C1232 C 0.45747 -0.01046 0.48892
 C1233 C 0.48921 -0.01118 0.45765
 C1234 C 0.51073 0.04168 0.51208
 C1235 C 0.51167 0.01201 0.54155
 C1236 C 0.54140 0.01170 0.51162
 H1237 H 0.49329 -0.00674 0.53079
 H1238 H 0.53039 -0.00642 0.49315
 H1239 H 0.48074 -0.01908 0.48092
 H1240 H 0.49288 0.03062 0.49371
 H1241 H 0.46808 0.02780 0.51282
 H1242 H 0.46908 0.02924 0.48942
 H1243 H 0.53666 -0.02299 0.50796
 H1244 H 0.52208 -0.03680 0.49333
 H1245 H 0.47680 0.02131 0.53840
 H1246 H 0.46139 -0.02082 0.52310
 H1247 H 0.53162 0.00933 0.47210
 H1248 H 0.52202 -0.00929 0.46234
 H1249 H 0.48971 -0.03077 0.52913
 H1250 H 0.51022 -0.02162 0.53868
 H1251 H 0.49305 0.02196 0.46283
 H1252 H 0.50860 0.03800 0.47816
 O1253 O 0.50058 0.53669 0.01781
 O1254 O 0.47813 0.53334 0.01651
 O1255 O 0.51758 0.50068 0.03653
 O1256 O 0.51779 0.47774 0.03250
 O1257 O 0.53645 0.51814 0.00095
 O1258 O 0.53147 0.51716 -0.02368
 O1259 O 0.48132 0.46403 -0.00103
 O1260 O 0.48435 0.46784 0.02276
 O1261 O 0.46400 0.49838 -0.01845
 O1262 O 0.46952 0.52469 -0.01609
 O1263 O 0.49842 0.48175 -0.03604
 O1264 O 0.52178 0.48260 -0.03299
 O1265 O 0.49800 0.46389 -0.01763
 O1266 O 0.52438 0.46946 -0.01529
 O1267 O 0.48208 0.49867 -0.03632
 O1268 O 0.48317 0.52336 -0.03213
 O1269 O 0.46390 0.48173 -0.00186
 O1270 O 0.46803 0.48671 0.02328
 O1271 O 0.51719 0.53680 0.00109
 O1272 O 0.51557 0.53175 -0.02367
 O1273 O 0.53666 0.50127 0.01733
 O1274 O 0.53104 0.47597 0.01470
 O1275 O 0.50110 0.51750 0.03655
 O1276 O 0.47577 0.51394 0.03079
 Zr1277 Zr 0.49227 0.51667 0.01664
 O1278 O 0.47892 0.50470 0.00422
 Zr1279 Zr 0.51676 0.49245 0.01641
 O1280 O 0.50421 0.47920 0.00453
 Zr1281 Zr 0.51655 0.51687 -0.00773
 O1282 O 0.50453 0.50446 -0.02095
 Zr1283 Zr 0.48325 0.48374 0.00780
 O1284 O 0.49575 0.49566 0.02125
 Zr1285 Zr 0.48351 0.50788 -0.01672
 O1286 O 0.49556 0.52130 -0.00439
 Zr1287 Zr 0.50761 0.48345 -0.01645
 O1288 O 0.52133 0.49583 -0.00462
 O1289 O 0.51312 0.51327 0.01307
 O1290 O 0.48676 0.48699 -0.01311
 C1291 C 0.51041 0.54245 0.01101
 C1292 C 0.51087 0.51059 0.04227
 C1293 C 0.54227 0.51128 0.01067
 C1294 C 0.48784 0.45841 -0.01111
 C1295 C 0.45842 0.48822 -0.01202
 C1296 C 0.48846 0.48839 -0.04172
 H1297 H 0.46916 0.50687 0.00631
 H1298 H 0.50693 0.50644 -0.03067
 H1299 H 0.51897 0.51917 0.01901
 H1300 H 0.50624 0.46945 0.00684
 H1301 H 0.48710 0.47230 0.03155
 H1302 H 0.51049 0.47085 0.03065
 H1303 H 0.49213 0.52304 -0.03700
 H1304 H 0.50676 0.53679 -0.02244
 H1305 H 0.46154 0.47879 0.02282
 H1306 H 0.47672 0.52092 0.03823
 H1307 H 0.52778 0.49078 -0.03201
 H1308 H 0.53769 0.50919 -0.02216
 H1309 H 0.47065 0.53076 0.01006
 H1310 H 0.46134 0.52179 -0.01071
 H1311 H 0.53709 0.47808 0.00674
 H1312 H 0.52173 0.46192 -0.00894
 O1313 O 0.74910 0.21326 0.51786
 O1314 O 0.77157 0.21652 0.51654
 O1315 O 0.73221 0.24931 0.53663
 O1316 O 0.73220 0.27230 0.53269
 O1317 O 0.71335 0.23200 0.50095
 O1318 O 0.71844 0.23298 0.47628
 O1319 O 0.76864 0.28593 0.49938
 O1320 O 0.76563 0.28201 0.52316
 O1321 O 0.78592 0.25158 0.48177
 O1322 O 0.78036 0.22528 0.48409
 O1323 O 0.75171 0.26840 0.46425
 O1324 O 0.72832 0.26737 0.46709
 O1325 O 0.75196 0.28615 0.48274
 O1326 O 0.72563 0.28063 0.48485
 O1327 O 0.76792 0.25136 0.46389
 O1328 O 0.76669 0.22662 0.46799
 O1329 O 0.78602 0.26819 0.49844
 O1330 O 0.78189 0.26311 0.52354
 O1331 O 0.73253 0.21324 0.50108
 O1332 O 0.73423 0.21828 0.47637
 O1333 O 0.71317 0.24886 0.51739
 O1334 O 0.71889 0.27412 0.51493
 O1335 O 0.74866 0.23246 0.53663
 O1336 O 0.77402 0.23588 0.53093
 Zr1337 Zr 0.75752 0.23326 0.51675
 O1338 O 0.77094 0.24522 0.50442
 Zr1339 Zr 0.73312 0.25759 0.51656
 O1340 O 0.74574 0.27080 0.50476
 Zr1341 Zr 0.73328 0.23319 0.49232
 O1342 O 0.74539 0.24558 0.47918
 Zr1343 Zr 0.76667 0.26618 0.50808
 O1344 O 0.75410 0.25428 0.52144
 Zr1345 Zr 0.76639 0.24210 0.48345
 O1346 O 0.75426 0.22869 0.49568
 Zr1347 Zr 0.74237 0.26659 0.48376
 O1348 O 0.72858 0.25425 0.49550
 O1349 O 0.73668 0.23675 0.51314
 O1350 O 0.76320 0.26298 0.48715
 C1351 C 0.73927 0.20754 0.51100
 C1352 C 0.73890 0.23939 0.54235
 C1353 C 0.70754 0.23888 0.51068
 C1354 C 0.76213 0.29160 0.48932
 C1355 C 0.79151 0.26172 0.48825
 C1356 C 0.76162 0.26171 0.45853
 H1357 H 0.78069 0.24302 0.50653
 H1358 H 0.74301 0.24363 0.46944
 H1359 H 0.73080 0.23087 0.51905
 H1360 H 0.74373 0.28055 0.50711
 H1361 H 0.76287 0.27753 0.53192
 H1362 H 0.73945 0.27922 0.53080
 H1363 H 0.75780 0.22707 0.46300
 H1364 H 0.74306 0.21328 0.47755
 H1365 H 0.78842 0.27100 0.52313
 H1366 H 0.77302 0.22890 0.53835
 H1367 H 0.72202 0.25944 0.46829
 H1368 H 0.71217 0.24089 0.47786
 H1369 H 0.77905 0.21907 0.51010
 H1370 H 0.78856 0.22819 0.48945
 H1371 H 0.71291 0.27211 0.50689
 H1372 H 0.72821 0.28808 0.49138
 O1373 O 0.78655 0.75084 -0.01822
 O1374 O 0.78194 0.72705 -0.01628
 O1375 O 0.75076 0.76807 -0.03664
 O1376 O 0.72781 0.76830 -0.03266
 O1377 O 0.76830 0.78670 -0.00097
 O1378 O 0.76744 0.78167 0.02359
 O1379 O 0.71392 0.73185 0.00079
 O1380 O 0.71762 0.73482 -0.02294
 O1381 O 0.74856 0.71413 0.01791
 O1382 O 0.77368 0.71871 0.01664
 O1383 O 0.73176 0.74881 0.03583
 O1384 O 0.73285 0.77215 0.03290
 O1385 O 0.71392 0.74858 0.01739
 O1386 O 0.71970 0.77493 0.01523
 O1387 O 0.74843 0.73222 0.03595
 O1388 O 0.77405 0.73420 0.03104
 O1389 O 0.73164 0.71431 0.00157
 O1390 O 0.73645 0.71852 -0.02363
 O1391 O 0.78686 0.76725 -0.00124
 O1392 O 0.78179 0.76562 0.02359
 O1393 O 0.75139 0.78706 -0.01732
 O1394 O 0.72611 0.78156 -0.01480
 O1395 O 0.76758 0.75159 -0.03675
 O1396 O 0.76388 0.72648 -0.03164
 Zr1397 Zr 0.76653 0.74255 -0.01695
 O1398 O 0.75452 0.72932 -0.00458
 Zr1399 Zr 0.74249 0.76718 -0.01655
 O1400 O 0.72919 0.75469 -0.00471
 Zr1401 Zr 0.76695 0.76675 0.00760
 O1402 O 0.75449 0.75477 0.02078
 Zr1403 Zr 0.73359 0.73370 -0.00806
 O1404 O 0.74554 0.74615 -0.02148
 Zr1405 Zr 0.75781 0.73375 0.01641
 O1406 O 0.77126 0.74574 0.00409
 Zr1407 Zr 0.73353 0.75802 0.01628
 O1408 O 0.74596 0.77168 0.00450
 O1409 O 0.76327 0.76342 -0.01321
 O1410 O 0.73694 0.73712 0.01288
 C1411 C 0.79242 0.76053 -0.01127
 C1412 C 0.76070 0.76143 -0.04240
 C1413 C 0.76142 0.79260 -0.01063
 C1414 C 0.70837 0.73843 0.01087
 C1415 C 0.73827 0.70869 0.01157
 C1416 C 0.73827 0.73872 0.04144
 H1417 H 0.75663 0.71957 -0.00684
 H1418 H 0.75650 0.75714 0.03052
 H1419 H 0.76918 0.76929 -0.01909
 H1420 H 0.71947 0.75679 -0.00701
 H1421 H 0.72201 0.73764 -0.03173
 H1422 H 0.72086 0.76106 -0.03081
 H1423 H 0.77216 0.74181 0.03761
 H1424 H 0.78682 0.75681 0.02230
 H1425 H 0.72858 0.71198 -0.02313
 H1426 H 0.77115 0.72738 -0.03880
 H1427 H 0.74100 0.77818 0.03186
 H1428 H 0.75950 0.78794 0.02214
 H1429 H 0.78607 0.72742 -0.00693
 H1430 H 0.77268 0.71297 0.00824
 H1431 H 0.72826 0.78761 -0.00684
 H1432 H 0.71218 0.77240 0.00879
 O1433 O 0.96312 0.25058 0.26798
 O1434 O 0.96645 0.22813 0.26664
 O1435 O 0.99917 0.26765 0.28663
 O1436 O 1.02211 0.26780 0.28260
 O1437 O 0.98170 0.28646 0.25106
 O1438 O 0.98258 0.28136 0.22639
 O1439 O 1.03567 0.23120 0.24916
 O1440 O 1.03187 0.23424 0.27297
 O1441 O 1.00125 0.21384 0.23179
 O1442 O 0.97501 0.21942 0.23411
 O1443 O 1.01798 0.24819 0.21413
 O1444 O 1.01704 0.27156 0.21706
 O1445 O 1.03580 0.24789 0.23256
 O1446 O 1.03024 0.27428 0.23476
 O1447 O 1.00106 0.23185 0.21387
 O1448 O 0.97636 0.23301 0.21802
 O1449 O 1.01793 0.21378 0.24836
 O1450 O 1.01300 0.21796 0.27346
 O1451 O 0.96299 0.26717 0.25124
 O1452 O 0.96797 0.26546 0.22650
 O1453 O 0.99862 0.28668 0.26741
 O1454 O 1.02390 0.28096 0.26481
 O1455 O 0.98236 0.25115 0.28670
 O1456 O 0.98583 0.22578 0.28099
 Zr1457 Zr 0.98313 0.24226 0.26681
 O1458 O 0.99504 0.22885 0.25441
 Zr1459 Zr 1.00737 0.26674 0.26653
 O1460 O 1.02056 0.25413 0.25467
 Zr1461 Zr 0.98290 0.26651 0.24241
 O1462 O 0.99526 0.25442 0.22920
 Zr1463 Zr 1.01599 0.23318 0.25799
 O1464 O 1.00413 0.24574 0.27141
 Zr1465 Zr 0.99183 0.23339 0.23346
 O1466 O 0.97847 0.24550 0.24577
 Zr1467 Zr 1.01626 0.25749 0.23369
 O1468 O 1.00394 0.27127 0.24549
 O1469 O 0.98655 0.26312 0.26321
 O1470 O 1.01271 0.23663 0.23706
 C1471 C 0.95734 0.26037 0.26114
 C1472 C 0.98928 0.26095 0.29240
 C1473 C 0.98862 0.29230 0.26076
 C1474 C 1.04128 0.23772 0.23909
 C1475 C 1.01140 0.20827 0.23824
 C1476 C 1.01133 0.23821 0.20846
 H1477 H 0.99286 0.21909 0.25652
 H1478 H 0.99327 0.25679 0.21947
 H1479 H 0.98067 0.26900 0.26913
 H1480 H 1.03030 0.25616 0.25697
 H1481 H 1.02743 0.23700 0.28176
 H1482 H 1.02892 0.26041 0.28080
 H1483 H 0.97676 0.24192 0.21305
 H1484 H 0.96298 0.25661 0.22772
 H1485 H 1.02085 0.21140 0.27298
 H1486 H 0.97882 0.22673 0.28839
 H1487 H 1.00899 0.27772 0.21816
 H1488 H 0.99055 0.28759 0.22789
 H1489 H 0.96900 0.22065 0.26018
 H1490 H 0.97791 0.21122 0.23947
 H1491 H 1.02180 0.28704 0.25687
 H1492 H 1.03771 0.27172 0.24123
 O1493 O 0.74895 1.03648 0.73193
 O1494 O 0.77140 1.03314 0.73335
 O1495 O 0.73197 1.00028 0.71339
 O1496 O 0.73164 0.97738 0.71757
 O1497 O 0.71314 1.01812 0.74886
 O1498 O 0.71814 1.01711 0.77357
 O1499 O 0.76826 0.96390 0.75108
 O1500 O 0.76518 0.96754 0.72727
 O1501 O 0.78563 0.99840 0.76828
 O1502 O 0.78002 1.02475 0.76577
 O1503 O 0.75123 0.98188 0.78599
 O1504 O 0.72790 0.98276 0.78303
 O1505 O 0.75158 0.96390 0.76768
 O1506 O 0.72519 0.96949 0.76538
 O1507 O 0.76759 0.99878 0.78618
 O1508 O 0.76653 1.02339 0.78197
 O1509 O 0.78568 0.98161 0.75179
 O1510 O 0.78144 0.98646 0.72658
 O1511 O 0.73241 1.03674 0.74871
 O1512 O 0.73401 1.03179 0.77349
 O1513 O 0.71290 1.00114 0.73255
 O1514 O 0.71847 0.97578 0.73542
 O1515 O 0.74844 1.01712 0.71329
 O1516 O 0.77372 1.01370 0.71898
 Zr1517 Zr 0.75728 1.01645 0.73319
 O1518 O 0.77066 1.00455 0.74562
 Zr1519 Zr 0.73277 0.99223 0.73355
 O1520 O 0.74534 0.97905 0.74546
 Zr1521 Zr 0.73303 1.01683 0.75758
 O1522 O 0.74509 1.00450 0.77082
 Zr1523 Zr 0.76630 0.98356 0.74214
 O1524 O 0.75377 0.99541 0.72868
 Zr1525 Zr 0.76611 1.00788 0.76655
 O1526 O 0.75403 1.02122 0.75421
 Zr1527 Zr 0.74199 0.98346 0.76642
 O1528 O 0.72824 0.99576 0.75458
 O1529 O 0.73644 1.01308 0.73680
 O1530 O 0.76284 0.98697 0.76304
 C1531 C 0.73918 1.04233 0.73875
 C1532 C 0.73868 1.01015 0.70761
 C1533 C 0.70732 1.01123 0.73913
 C1534 C 0.76174 0.95835 0.76119
 C1535 C 0.79118 0.98817 0.76191
 C1536 C 0.76119 0.98855 0.79164
 H1537 H 0.78042 1.00670 0.74349
 H1538 H 0.74272 1.00655 0.78054
 H1539 H 0.73061 1.01895 0.73083
 H1540 H 0.74330 0.96929 0.74321
 H1541 H 0.76238 0.97191 0.71846
 H1542 H 0.73899 0.97054 0.71940
 H1543 H 0.75758 1.02311 0.78686
 H1544 H 0.74286 1.03676 0.77230
 H1545 H 0.78798 0.97859 0.72707
 H1546 H 0.77280 1.02073 0.71160
 H1547 H 0.72188 0.99092 0.78201
 H1548 H 0.71184 1.00921 0.77197
 H1549 H 0.77901 1.03050 0.73960
 H1550 H 0.78825 1.02180 0.76048
 H1551 H 0.71236 0.97803 0.74329
 H1552 H 0.72782 0.96188 0.75907
 O1553 O 0.75098 0.48221 0.28666
 O1554 O 0.72855 0.48361 0.28332
 O1555 O 0.76794 0.46345 0.25064
 O1556 O 0.76815 0.46744 0.22774
 O1557 O 0.78684 0.49912 0.26812
 O1558 O 0.78180 0.52380 0.26719
 O1559 O 0.73171 0.50090 0.21407
 O1560 O 0.73466 0.47709 0.21788
 O1561 O 0.71435 0.51839 0.24843
 O1562 O 0.71995 0.51603 0.27472
 O1563 O 0.74866 0.53597 0.23171
 O1564 O 0.77202 0.53310 0.23277
 O1565 O 0.74843 0.51751 0.21394
 O1566 O 0.77477 0.51537 0.21955
 O1567 O 0.73237 0.53631 0.24866
 O1568 O 0.73352 0.53223 0.27330
 O1569 O 0.71429 0.50180 0.23174
 O1570 O 0.71838 0.47665 0.23672
 O1571 O 0.76758 0.49896 0.28679
 O1572 O 0.76591 0.52372 0.28178
 O1573 O 0.78703 0.48268 0.25127
 O1574 O 0.78140 0.48523 0.22597
 O1575 O 0.75147 0.46343 0.26745
 O1576 O 0.72618 0.46916 0.26393
 Zr1577 Zr 0.74266 0.48335 0.26665
 O1578 O 0.72930 0.49574 0.25470
 Zr1579 Zr 0.76714 0.48356 0.24244
 O1580 O 0.75458 0.49542 0.22921
 Zr1581 Zr 0.76693 0.50777 0.26687
 O1582 O 0.75489 0.52097 0.25448
 Zr1583 Zr 0.73363 0.49212 0.23375
 O1584 O 0.74614 0.47870 0.24566
 Zr1585 Zr 0.73387 0.51671 0.25788
 O1586 O 0.74594 0.50442 0.27128
 Zr1587 Zr 0.75797 0.51643 0.23349
 O1588 O 0.77170 0.50463 0.24585
 O1589 O 0.76351 0.48694 0.26325
 O1590 O 0.73712 0.51306 0.23702
 C1591 C 0.76077 0.48906 0.29245
 C1592 C 0.76123 0.45770 0.26052
 C1593 C 0.79264 0.48937 0.26126
 C1594 C 0.73824 0.51098 0.20847
 C1595 C 0.70879 0.51194 0.23826
 C1596 C 0.73872 0.54168 0.23835
 H1597 H 0.71954 0.49364 0.25685
 H1598 H 0.75727 0.53071 0.25646
 H1599 H 0.76935 0.48101 0.26914
 H1600 H 0.75662 0.49309 0.21948
 H1601 H 0.73738 0.46829 0.22233
 H1602 H 0.76080 0.46924 0.22089
 H1603 H 0.74248 0.53712 0.27298
 H1604 H 0.75710 0.52248 0.28680
 H1605 H 0.71182 0.47716 0.22888
 H1606 H 0.72707 0.46180 0.27099
 H1607 H 0.77811 0.53206 0.24088
 H1608 H 0.78806 0.52226 0.25926
 H1609 H 0.72100 0.48993 0.28068
 H1610 H 0.71170 0.51074 0.27178
 H1611 H 0.78746 0.49320 0.22807
 H1612 H 0.77223 0.50884 0.21209
 O1613 O 0.50088 0.21334 0.73168
 O1614 O 0.47707 0.21770 0.73393
 O1615 O 0.51766 0.24942 0.71351
 O1616 O 0.51802 0.27234 0.71770
 O1617 O 0.53659 0.23175 0.74903
 O1618 O 0.53152 0.23238 0.77366
 O1619 O 0.48159 0.28587 0.75119
 O1620 O 0.48451 0.28217 0.72739
 O1621 O 0.46404 0.25112 0.76825
 O1622 O 0.46867 0.22596 0.76679
 O1623 O 0.49856 0.26805 0.78609
 O1624 O 0.52192 0.26696 0.78317
 O1625 O 0.49832 0.28590 0.76777
 O1626 O 0.52464 0.28024 0.76557
 O1627 O 0.48213 0.25122 0.78620
 O1628 O 0.48414 0.22560 0.78118
 O1629 O 0.46413 0.26810 0.75199
 O1630 O 0.46822 0.26329 0.72679
 O1631 O 0.51732 0.21304 0.74858
 O1632 O 0.51557 0.21791 0.77348
 O1633 O 0.53679 0.24872 0.73275
 O1634 O 0.53119 0.27399 0.73546
 O1635 O 0.50127 0.23250 0.71336
 O1636 O 0.47620 0.23586 0.71870
 Zr1637 Zr 0.49240 0.23330 0.73322
 O1638 O 0.47917 0.24523 0.74568
 Zr1639 Zr 0.51691 0.25752 0.73367
 O1640 O 0.50441 0.27072 0.74561
 Zr1641 Zr 0.51666 0.23290 0.75765
 O1642 O 0.50466 0.24529 0.77095
 Zr1643 Zr 0.48346 0.26621 0.74228
 O1644 O 0.49591 0.25435 0.72878
 Zr1645 Zr 0.48365 0.24189 0.76662
 O1646 O 0.49567 0.22851 0.75421
 Zr1647 Zr 0.50781 0.26631 0.76656
 O1648 O 0.52148 0.25396 0.75468
 O1649 O 0.51325 0.23668 0.73688
 O1650 O 0.48695 0.26281 0.76318
 C1651 C 0.51064 0.20749 0.73851
 C1652 C 0.51101 0.23950 0.70771
 C1653 C 0.54240 0.23869 0.73936
 C1654 C 0.48816 0.29143 0.76127
 C1655 C 0.45856 0.26142 0.76197
 C1656 C 0.48851 0.26148 0.79167
 H1657 H 0.46943 0.24309 0.74344
 H1658 H 0.50705 0.24326 0.78067
 H1659 H 0.51913 0.23086 0.73091
 H1660 H 0.50647 0.28047 0.74335
 H1661 H 0.48724 0.27776 0.71858
 H1662 H 0.51063 0.27914 0.71948
 H1663 H 0.49191 0.22736 0.78758
 H1664 H 0.50682 0.21279 0.77210
 H1665 H 0.46170 0.27116 0.72732
 H1666 H 0.47712 0.22863 0.71148
 H1667 H 0.52814 0.25897 0.78193
 H1668 H 0.53776 0.24037 0.77227
 H1669 H 0.47756 0.21353 0.74324
 H1670 H 0.46290 0.22701 0.75843
 H1671 H 0.53723 0.27186 0.74343
 H1672 H 0.52210 0.28777 0.75914
 O1673 O 0.23208 0.74946 0.53660
 O1674 O 0.23420 0.77326 0.53226
 O1675 O 0.21345 0.73268 0.50066
 O1676 O 0.21742 0.73244 0.47771
 O1677 O 0.24904 0.71366 0.51800
 O1678 O 0.27366 0.71859 0.51711
 O1679 O 0.25097 0.76886 0.46408
 O1680 O 0.22724 0.76598 0.46787
 O1681 O 0.26841 0.78625 0.49876
 O1682 O 0.26709 0.78152 0.52394
 O1683 O 0.28596 0.75169 0.48165
 O1684 O 0.28291 0.72830 0.48253
 O1685 O 0.26749 0.75208 0.46390
 O1686 O 0.26518 0.72572 0.46942
 O1687 O 0.28625 0.76811 0.49851
 O1688 O 0.28143 0.76602 0.52411
 O1689 O 0.25200 0.78628 0.48190
 O1690 O 0.22676 0.78220 0.48683
 O1691 O 0.24893 0.73296 0.53672
 O1692 O 0.27376 0.73454 0.53162
 O1693 O 0.23261 0.71352 0.50116
 O1694 O 0.23517 0.71919 0.47588
 O1695 O 0.21352 0.74904 0.51763
 O1696 O 0.21886 0.77415 0.51422
 Zr1697 Zr 0.23338 0.75793 0.51666
 O1698 O 0.24579 0.77118 0.50472
 Zr1699 Zr 0.23354 0.73344 0.49240
 O1700 O 0.24542 0.74598 0.47918
 Zr1701 Zr 0.25775 0.73357 0.51680
 O1702 O 0.27098 0.74558 0.50440
 Zr1703 Zr 0.24221 0.76695 0.48377
 O1704 O 0.22876 0.75448 0.49565
 Zr1705 Zr 0.26675 0.76661 0.50792
 O1706 O 0.25440 0.75458 0.52131
 Zr1707 Zr 0.26639 0.74251 0.48342
 O1708 O 0.25457 0.72881 0.49577
 O1709 O 0.23696 0.73706 0.51320
 O1710 O 0.26313 0.76339 0.48703
 C1711 C 0.23895 0.73968 0.54235
 C1712 C 0.20777 0.73931 0.51065
 C1713 C 0.23928 0.70788 0.51113
 C1714 C 0.26099 0.76227 0.45844
 C1715 C 0.26208 0.79179 0.48851
 C1716 C 0.29163 0.76171 0.48823
 H1717 H 0.24362 0.78093 0.50692
 H1718 H 0.28070 0.74316 0.50636
 H1719 H 0.23103 0.73119 0.51906
 H1720 H 0.24307 0.74395 0.46945
 H1721 H 0.21846 0.76317 0.47229
 H1722 H 0.21925 0.73976 0.47085
 H1723 H 0.28786 0.75830 0.52222
 H1724 H 0.27252 0.74331 0.53675
 H1725 H 0.22724 0.78874 0.47898
 H1726 H 0.21167 0.77321 0.52145
 H1727 H 0.28189 0.72222 0.49064
 H1728 H 0.27216 0.71241 0.50910
 H1729 H 0.24358 0.77286 0.53629
 H1730 H 0.25883 0.78744 0.52288
 H1731 H 0.24310 0.71309 0.47796
 H1732 H 0.25877 0.72836 0.46192
 O1733 O 0.26815 0.28655 0.99929
 O1734 O 0.26680 0.28327 1.02174
 O1735 O 0.28688 0.25053 0.98232
 O1736 O 0.28289 0.22757 0.98209
 O1737 O 0.25121 0.26790 0.96347
 O1738 O 0.22656 0.26688 0.96854
 O1739 O 0.24952 0.21387 1.01859
 O1740 O 0.27325 0.21772 1.01554
 O1741 O 0.23201 0.24821 1.03596
 O1742 O 0.23426 0.27452 1.03044
 O1743 O 0.21443 0.23145 1.00159
 O1744 O 0.21735 0.23242 0.97825
 O1745 O 0.23293 0.21367 1.00187
 O1746 O 0.23511 0.21927 0.97554
 O1747 O 0.21409 0.24841 1.01791
 O1748 O 0.21820 0.27313 1.01677
 O1749 O 0.24866 0.23161 1.03604
 O1750 O 0.27377 0.23661 1.03188
 O1751 O 0.25139 0.28663 0.98271
 O1752 O 0.22666 0.28158 0.98441
 O1753 O 0.26763 0.25106 0.96326
 O1754 O 0.26505 0.22577 0.96889
 O1755 O 0.28689 0.26736 0.99882
 O1756 O 0.28116 0.26394 1.02416
 Zr1757 Zr 0.26700 0.26654 1.00765
 O1758 O 0.25463 0.25457 1.02102
 Zr1759 Zr 0.26679 0.24227 0.98316
 O1760 O 0.25497 0.22903 0.99572
 Zr1761 Zr 0.24259 0.26667 0.98339
 O1762 O 0.22943 0.25425 0.99543
 Zr1763 Zr 0.25827 0.23360 1.01668
 O1764 O 0.27166 0.24554 1.00417
 Zr1765 Zr 0.23367 0.25769 1.01645
 O1766 O 0.24594 0.27113 1.00439
 Zr1767 Zr 0.23398 0.23325 0.99234
 O1768 O 0.24574 0.24563 0.97862
 O1769 O 0.26340 0.26310 0.98680
 O1770 O 0.23734 0.23681 1.01319
 C1771 C 0.26132 0.29230 0.98948
 C1772 C 0.29260 0.26046 0.98903
 C1773 C 0.26092 0.26101 0.95764
 C1774 C 0.23949 0.20820 1.01202
 C1775 C 0.23847 0.23806 1.04152
 C1776 C 0.20872 0.23810 1.01153
 H1777 H 0.25674 0.25676 1.03078
 H1778 H 0.21969 0.25621 0.99304
 H1779 H 0.26932 0.26899 0.98094
 H1780 H 0.25730 0.21929 0.99368
 H1781 H 0.28202 0.22217 1.01274
 H1782 H 0.28104 0.22064 0.98935
 H1783 H 0.21319 0.27266 1.00789
 H1784 H 0.22785 0.28655 0.99328
 H1785 H 0.27342 0.22865 1.03831
 H1786 H 0.28857 0.27095 1.02320
 H1787 H 0.21845 0.24047 0.97210
 H1788 H 0.22814 0.25898 0.96224
 H1789 H 0.26026 0.28077 1.02915
 H1790 H 0.23971 0.27167 1.03859
 H1791 H 0.25713 0.22790 0.96279
 H1792 H 0.24152 0.21175 0.97814
 C1793 C 0.28988 0.40087 0.78907
 N1794 N 0.27990 0.39921 0.77936
 N1795 N 0.27400 0.41019 0.77350
 C1796 C 0.27792 0.42315 0.77717
 N1797 N 0.28790 0.42478 0.78687
 N1798 N 0.29378 0.41382 0.79272
 C1799 C 0.29620 0.38911 0.79549
 C1800 C 0.30156 0.37932 0.80100
 C1801 C 0.27165 0.43507 0.77100
 C1802 C 0.26683 0.44553 0.76626
 C1803 C 0.28980 -0.09945 0.28873
 N1804 N 0.27976 -0.10102 0.27908
 N1805 N 0.27389 -0.08999 0.27329
 C1806 C 0.27790 -0.07707 0.27699
 N1807 N 0.28795 -0.07552 0.28662
 N1808 N 0.29381 -0.08654 0.29240
 C1809 C 0.29605 -0.11127 0.29510
 C1810 C 0.30135 -0.12109 0.30058
 C1811 C 0.27163 -0.06512 0.27092
 C1812 C 0.26679 -0.05465 0.26624
 C1813 C 0.78932 0.90063 0.78958
 N1814 N 0.79360 0.91357 0.79288
 N1815 N 0.78783 0.92455 0.78692
 C1816 C 0.77761 0.92295 0.77747
 N1817 N 0.77331 0.91002 0.77417
 N1818 N 0.77908 0.89902 0.78014
 C1819 C 0.79563 0.88882 0.79598
 C1820 C 0.80106 0.87899 0.80138
 C1821 C 0.77149 0.93489 0.77113
 C1822 C 0.76676 0.94534 0.76625
 C1823 C 0.46179 0.85048 0.28842
 N1824 N 0.45789 0.83750 0.29186
 N1825 N 0.46373 0.82662 0.28579
 C1826 C 0.47364 0.82839 0.27608
 N1827 N 0.47757 0.84138 0.27261
 N1828 N 0.47172 0.85228 0.27870
 C1829 C 0.45536 0.86212 0.29493
 C1830 C 0.44976 0.87175 0.30047
 C1831 C 0.47982 0.81651 0.26973
 C1832 C 0.48444 0.80594 0.26505
 C1833 C -0.04018 0.84860 0.79064
 N1834 N -0.04351 0.83553 0.79440
 N1835 N -0.03749 0.82477 0.78830
 C1836 C -0.02795 0.82672 0.77825
 N1837 N -0.02461 0.83979 0.77446
 N1838 N -0.03064 0.85057 0.78057
 C1839 C -0.04672 0.86015 0.79724
 C1840 C -0.05230 0.86979 0.80282
 C1841 C -0.02156 0.81500 0.77178
 C1842 C -0.01666 0.80468 0.76682
 C1843 C -0.03942 -0.09953 -0.03939
 N1844 N -0.02981 -0.10127 -0.02934
 N1845 N -0.02395 -0.09034 -0.02333
 C1846 C -0.02754 -0.07736 -0.02721
 N1847 N -0.03714 -0.07565 -0.03725
 N1848 N -0.04299 -0.08656 -0.04325
 C1849 C -0.04579 -0.11124 -0.04586
 C1850 C -0.05128 -0.12097 -0.05136
 C1851 C -0.02134 -0.06550 -0.02086
 C1852 C -0.01660 -0.05505 -0.01604
 C1853 C -0.04004 0.40057 0.46072
 N1854 N -0.04365 0.41351 0.45677
 N1855 N -0.03772 0.42449 0.46259
 C1856 C -0.02799 0.42288 0.47253
 N1857 N -0.02437 0.40994 0.47650
 N1858 N -0.03031 0.39895 0.47067
 C1859 C -0.04638 0.38878 0.45433
 C1860 C -0.05175 0.37895 0.44884
 C1861 C -0.02168 0.43481 0.47869
 C1862 C -0.01682 0.44526 0.48344
 C1863 C 0.46115 -0.09987 0.46081
 N1864 N 0.45741 -0.08684 0.45734
 N1865 N 0.46329 -0.07602 0.46350
 C1866 C 0.47307 -0.07789 0.47333
 N1867 N 0.47684 -0.09093 0.47683
 N1868 N 0.47096 -0.10176 0.47065
 C1869 C 0.45471 -0.11148 0.45418
 C1870 C 0.44915 -0.12113 0.44859
 C1871 C 0.47928 -0.06609 0.47984
 C1872 C 0.48394 -0.05560 0.48468
 C1873 C 0.45940 0.40103 -0.03929
 N1874 N 0.46948 0.39925 -0.02973
 N1875 N 0.47547 0.41014 -0.02376
 C1876 C 0.47154 0.42315 -0.02721
 N1877 N 0.46147 0.42491 -0.03677
 N1878 N 0.45549 0.41403 -0.04273
 C1879 C 0.45300 0.38933 -0.04582
 C1880 C 0.44765 0.37953 -0.05138
 C1881 C 0.47790 0.43499 -0.02092
 C1882 C 0.48277 0.44540 -0.01610
 C1883 C 0.79004 0.34916 0.46127
 N1884 N 0.79513 0.33631 0.45903
 N1885 N 0.78931 0.32538 0.46502
 C1886 C 0.77824 0.32696 0.47343
 N1887 N 0.77313 0.33982 0.47567
 N1888 N 0.77895 0.35076 0.46968
 C1889 C 0.79626 0.36088 0.45470
 C1890 C 0.80155 0.37067 0.44912
 C1891 C 0.77198 0.31507 0.47967
 C1892 C 0.76717 0.30462 0.48443
 C1893 C 0.78917 0.85025 -0.03834
 N1894 N 0.77944 0.85206 -0.02843
 N1895 N 0.77354 0.84118 -0.02241
 C1896 C 0.77721 0.82817 -0.02614
 N1897 N 0.78695 0.82639 -0.03604
 N1898 N 0.79284 0.83726 -0.04205
 C1899 C 0.79551 0.86189 -0.04493
 C1900 C 0.80094 0.87152 -0.05060
 C1901 C 0.77092 0.81633 -0.01989
 C1902 C 0.76619 0.80581 -0.01525
 C1903 C 0.78937 0.28905 0.40058
 N1904 N 0.79418 0.27690 0.40564
 N1905 N 0.78821 0.27107 0.41657
 C1906 C 0.77721 0.27717 0.42273
 N1907 N 0.77241 0.28932 0.41768
 N1908 N 0.77838 0.29515 0.40676
 C1909 C 0.79590 0.29546 0.38895
 C1910 C 0.80134 0.30093 0.37920
 C1911 C 0.77123 0.27127 0.43493
 C1912 C 0.76656 0.26665 0.44549
 C1913 C 0.78855 0.78996 -0.09970
 N1914 N 0.79257 0.79311 -0.08667
 N1915 N 0.78658 0.78702 -0.07589
 C1916 C 0.77639 0.77760 -0.07780
 N1917 N 0.77235 0.77444 -0.09084
 N1918 N 0.77834 0.78053 -0.10163
 C1919 C 0.79511 0.79650 -0.11127
 C1920 C 0.80073 0.80201 -0.12091
 C1921 C 0.77008 0.77115 -0.06603
 C1922 C 0.76538 0.76631 -0.05558
 C1923 C 0.28978 0.46087 0.84933
 N1924 N 0.29400 0.45735 0.83645
 N1925 N 0.28810 0.46303 0.82540
 C1926 C 0.27778 0.47239 0.82687
 N1927 N 0.27355 0.47592 0.83975
 N1928 N 0.27946 0.47024 0.85081
 C1929 C 0.29609 0.45462 0.86120
 C1930 C 0.30143 0.44924 0.87108
 C1931 C 0.27151 0.47843 0.81487
 C1932 C 0.26668 0.48316 0.80441
 C1933 C 0.29019 -0.03905 0.34910
 N1934 N 0.29435 -0.04256 0.33620
 N1935 N 0.28838 -0.03689 0.32518
 C1936 C 0.27805 -0.02755 0.32671
 N1937 N 0.27388 -0.02403 0.33961
 N1938 N 0.27986 -0.02970 0.35064
 C1939 C 0.29656 -0.04530 0.36094
 C1940 C 0.30193 -0.05067 0.37080
 C1941 C 0.27169 -0.02155 0.31475
 C1942 C 0.26679 -0.01685 0.30431
 C1943 C -0.03940 -0.03961 -0.09950
 N1944 N -0.02958 -0.02973 -0.10103
 N1945 N -0.02366 -0.02397 -0.08999
 C1946 C -0.02740 -0.02794 -0.07709
 N1947 N -0.03721 -0.03782 -0.07558
 N1948 N -0.04312 -0.04357 -0.08661
 C1949 C -0.04581 -0.04586 -0.11135
 C1950 C -0.05127 -0.05120 -0.12121
 C1951 C -0.02116 -0.02179 -0.06510
 C1952 C -0.01638 -0.01702 -0.05463
 C1953 C -0.04013 0.46030 0.40093
 N1954 N -0.03048 0.47034 0.39934
 N1955 N -0.02461 0.47620 0.41034
 C1956 C -0.02822 0.47218 0.42326
 N1957 N -0.03787 0.46215 0.42483
 N1958 N -0.04373 0.45629 0.41384
 C1959 C -0.04649 0.45395 0.38914
 C1960 C -0.05189 0.44851 0.37932
 C1961 C -0.02199 0.47838 0.43519
 C1962 C -0.01716 0.48316 0.44562
 C1963 C 0.46190 -0.03884 0.39966
 N1964 N 0.45823 -0.04267 0.41260
 N1965 N 0.46412 -0.03676 0.42353
 C1966 C 0.47386 -0.02683 0.42189
 N1967 N 0.47756 -0.02298 0.40894
 N1968 N 0.47165 -0.02890 0.39798
 C1969 C 0.45542 -0.04519 0.38795
 C1970 C 0.44981 -0.05062 0.37826
 C1971 C 0.48002 -0.02057 0.43381
 C1972 C 0.48461 -0.01588 0.44439
 C1973 C 0.45972 0.46029 -0.09884
 N1974 N 0.47007 0.46957 -0.10070
 N1975 N 0.47618 0.47549 -0.08986
 C1976 C 0.47211 0.47229 -0.07685
 N1977 N 0.46177 0.46302 -0.07501
 N1978 N 0.45568 0.45711 -0.08584
 C1979 C 0.45320 0.45380 -0.11044
 C1980 C 0.44770 0.44825 -0.12013
 C1981 C 0.47856 0.47855 -0.06509
 C1982 C 0.48346 0.48335 -0.05470
 C1983 C 0.46181 0.78974 0.34975
 N1984 N 0.47118 0.77947 0.35160
 N1985 N 0.47715 0.77342 0.34075
 C1986 C 0.47391 0.77748 0.32774
 N1987 N 0.46456 0.78774 0.32592
 N1988 N 0.45860 0.79378 0.33675
 C1989 C 0.45526 0.79622 0.36136
 C1990 C 0.44964 0.80172 0.37101
 C1991 C 0.48012 0.77104 0.31593
 C1992 C 0.48474 0.76624 0.30542
 C1993 C -0.04000 0.79039 0.84855
 N1994 N -0.03049 0.78027 0.85044
 N1995 N -0.02441 0.77430 0.83962
 C1996 C -0.02769 0.77829 0.82660
 N1997 N -0.03719 0.78840 0.82474
 N1998 N -0.04326 0.79436 0.83555
 C1999 C -0.04658 0.79682 0.86014
 C2000 C -0.05217 0.80227 0.86983
 C2001 C -0.02132 0.77195 0.81484
 C2002 C -0.01647 0.76708 0.80448
 C2003 C 0.40038 0.78947 0.28878
 N2004 N 0.41341 0.79368 0.29164
 N2005 N 0.42414 0.78755 0.28563
 C2006 C 0.42219 0.77704 0.27657
 N2007 N 0.40915 0.77282 0.27368
 N2008 N 0.39839 0.77895 0.27971
 C2009 C 0.38888 0.79600 0.29542
 C2010 C 0.37931 0.80153 0.30111
 C2011 C 0.43390 0.77054 0.27029
 C2012 C 0.44437 0.76574 0.26560
 C2013 C -0.09877 0.78983 0.79009
 N2014 N -0.08580 0.79361 0.79374
 N2015 N -0.07490 0.78755 0.78792
 C2016 C -0.07663 0.77752 0.77828
 N2017 N -0.08962 0.77372 0.77462
 N2018 N -0.10052 0.77979 0.78044
 C2019 C -0.11048 0.79640 0.79640
 C2020 C -0.12025 0.80195 0.80178
 C2021 C -0.06478 0.77112 0.77208
 C2022 C -0.05438 0.76624 0.76727
 C2023 C 0.84922 0.28999 0.46072
 N2024 N 0.83645 0.29538 0.45878
 N2025 N 0.82545 0.28945 0.46454
 C2026 C 0.82688 0.27795 0.47240
 N2027 N 0.83966 0.27255 0.47434
 N2028 N 0.85066 0.27848 0.46858
 C2029 C 0.86101 0.29634 0.45438
 C2030 C 0.87084 0.30172 0.44894
 C2031 C 0.81492 0.27162 0.47846
 C2032 C 0.80447 0.26678 0.48319
 C2033 C 0.84987 0.78838 -0.03913
 N2034 N 0.85175 0.77860 -0.02928
 N2035 N 0.84091 0.77257 -0.02330
 C2036 C 0.82790 0.77617 -0.02702
 N2037 N 0.82605 0.78594 -0.03686
 N2038 N 0.83686 0.79196 -0.04283
 C2039 C 0.86145 0.79492 -0.04560
 C2040 C 0.87105 0.80052 -0.05114
 C2041 C 0.81612 0.76986 -0.02071
 C2042 C 0.80563 0.76516 -0.01598
 C2043 C -0.09902 -0.04001 -0.03937
 N2044 N -0.08613 -0.04347 -0.04358
 N2045 N -0.07513 -0.03762 -0.03775
 C2046 C -0.07668 -0.02814 -0.02755
 N2047 N -0.08957 -0.02467 -0.02332
 N2048 N -0.10059 -0.03053 -0.02916
 C2049 C -0.11083 -0.04627 -0.04575
 C2050 C -0.12067 -0.05158 -0.05123
 C2051 C -0.06473 -0.02195 -0.02136
 C2052 C -0.05426 -0.01720 -0.01662
 C2053 C -0.09934 0.46043 0.46082
 N2054 N -0.08641 0.45628 0.45745
 N2055 N -0.07546 0.46231 0.46322
 C2056 C -0.07710 0.47266 0.47252
 N2057 N -0.09004 0.47681 0.47591
 N2058 N -0.10100 0.47078 0.47014
 C2059 C -0.11108 0.45400 0.45447
 C2060 C -0.12087 0.44857 0.44901
 C2061 C -0.06520 0.47906 0.47860
 C2062 C -0.05473 0.48391 0.48327
 C2063 C 0.40031 -0.03844 0.46025
 N2064 N 0.41337 -0.04234 0.45711
 N2065 N 0.42410 -0.03629 0.46325
 C2066 C 0.42211 -0.02616 0.47273
 N2067 N 0.40904 -0.02223 0.47589
 N2068 N 0.39830 -0.02829 0.46974
 C2069 C 0.38881 -0.04508 0.45368
 C2070 C 0.37922 -0.05078 0.44813
 C2071 C 0.43382 -0.01981 0.47923
 C2072 C 0.44427 -0.01510 0.48409
 C2073 C 0.40111 0.46011 -0.04057
 N2074 N 0.41408 0.45655 -0.04444
 N2075 N 0.42498 0.46245 -0.03846
 C2076 C 0.42325 0.47209 -0.02843
 N2077 N 0.41028 0.47566 -0.02455
 N2078 N 0.39937 0.46975 -0.03054
 C2079 C 0.38940 0.45366 -0.04699
 C2080 C 0.37960 0.44816 -0.05237
 C2081 C 0.43510 0.47834 -0.02207
 C2082 C 0.44549 0.48316 -0.01717
 C2083 C 0.34908 0.46127 0.79003
 N2084 N 0.35076 0.47074 0.77985
 N2085 N 0.33982 0.47670 0.77400
 C2086 C 0.32688 0.47336 0.77817
 N2087 N 0.32521 0.46390 0.78835
 N2088 N 0.33614 0.45794 0.79419
 C2089 C 0.36082 0.45474 0.79627
 C2090 C 0.37062 0.44917 0.80156
 C2091 C 0.31500 0.47961 0.77190
 C2092 C 0.30458 0.48439 0.76707
 C2093 C 0.34938 -0.03890 0.28927
 N2094 N 0.33649 -0.04231 0.29349
 N2095 N 0.32550 -0.03639 0.28775
 C2096 C 0.32706 -0.02687 0.27760
 N2097 N 0.33995 -0.02345 0.27336
 N2098 N 0.35096 -0.02938 0.27912
 C2099 C 0.36115 -0.04533 0.29550
 C2100 C 0.37092 -0.05083 0.30087
 C2101 C 0.31511 -0.02064 0.27149
 C2102 C 0.30463 -0.01588 0.26678
 C2103 C 0.15025 0.53910 0.71114
 N2104 N 0.16322 0.54370 0.70864
 N2105 N 0.17400 0.53774 0.71473
 C2106 C 0.17216 0.52702 0.72353
 N2107 N 0.15918 0.52240 0.72606
 N2108 N 0.14838 0.52837 0.71996
 C2109 C 0.13871 0.54555 0.70450
 C2110 C 0.12910 0.55110 0.69888
 C2111 C 0.18392 0.52067 0.72988
 C2112 C 0.19439 0.51595 0.73463
 C2113 C 0.14974 0.03801 0.21134
 N2114 N 0.16266 0.04231 0.20819
 N2115 N 0.17357 0.03654 0.21424
 C2116 C 0.17189 0.02631 0.22364
 N2117 N 0.15896 0.02199 0.22681
 N2118 N 0.14803 0.02777 0.22075
 C2119 C 0.13806 0.04435 0.20486
 C2120 C 0.12839 0.04988 0.19933
 C2121 C 0.18378 0.02019 0.22996
 C2122 C 0.19434 0.01561 0.23467
 C2123 C 0.59897 0.71068 0.20989
 N2124 N 0.58603 0.70702 0.20598
 N2125 N 0.57508 0.71278 0.21198
 C2126 C 0.57671 0.72235 0.22209
 N2127 N 0.58965 0.72603 0.22601
 N2128 N 0.60062 0.72027 0.22000
 C2129 C 0.61073 0.70434 0.20351
 C2130 C 0.62054 0.69889 0.19813
 C2131 C 0.56481 0.72848 0.22842
 C2132 C 0.55437 0.73324 0.23325
 C2133 C 0.10010 0.71093 0.71171
 N2134 N 0.10191 0.72117 0.72113
 N2135 N 0.09104 0.72715 0.72712
 C2136 C 0.07805 0.72305 0.72385
 N2137 N 0.07627 0.71279 0.71446
 N2138 N 0.08712 0.70682 0.70848
 C2139 C 0.11173 0.70458 0.70508
 C2140 C 0.12139 0.69917 0.69941
 C2141 C 0.06621 0.72944 0.73006
 C2142 C 0.05569 0.73421 0.73470
 C2143 C 0.64957 0.21126 0.53801
 N2144 N 0.66233 0.20576 0.53970
 N2145 N 0.67326 0.21162 0.53377
 C2146 C 0.67179 0.22314 0.52595
 N2147 N 0.65903 0.22866 0.52425
 N2148 N 0.64808 0.22280 0.53019
 C2149 C 0.63787 0.20497 0.54454
 C2150 C 0.62817 0.19956 0.55014
 C2151 C 0.68373 0.22945 0.51988
 C2152 C 0.69430 0.23417 0.51530
 C2153 C 0.65119 0.71073 0.03979
 N2154 N 0.66418 0.70754 0.04388
 N2155 N 0.67502 0.71339 0.03777
 C2156 C 0.67320 0.72260 0.02738
 N2157 N 0.66020 0.72581 0.02329
 N2158 N 0.64935 0.71995 0.02941
 C2159 C 0.63954 0.70431 0.04631
 C2160 C 0.62978 0.69884 0.05174
 C2161 C 0.68499 0.72874 0.02086
 C2162 C 0.69537 0.73347 0.01591
 C2163 C 0.10037 0.03795 0.03864
 N2164 N 0.10218 0.02806 0.02884
 N2165 N 0.09130 0.02220 0.02276
 C2166 C 0.07831 0.02607 0.02629
 N2167 N 0.07654 0.03593 0.03608
 N2168 N 0.08740 0.04179 0.04216
 C2169 C 0.11200 0.04441 0.04512
 C2170 C 0.12165 0.05001 0.05063
 C2171 C 0.06647 0.01990 0.01990
 C2172 C 0.05594 0.01528 0.01518
 C2173 C 0.10030 0.53810 0.53852
 N2174 N 0.10197 0.52817 0.52874
 N2175 N 0.09101 0.52234 0.52276
 C2176 C 0.07807 0.52629 0.52638
 N2177 N 0.07643 0.53620 0.53615
 N2178 N 0.08737 0.54202 0.54212
 C2179 C 0.11203 0.54448 0.54495
 C2180 C 0.12175 0.55001 0.55043
 C2181 C 0.06615 0.52015 0.52007
 C2182 C 0.05559 0.51554 0.51535
 C2183 C 0.59925 0.03980 0.53902
 N2184 N 0.58636 0.04349 0.54300
 N2185 N 0.57535 0.03760 0.53722
 C2186 C 0.57688 0.02783 0.52729
 N2187 N 0.58978 0.02413 0.52329
 N2188 N 0.60081 0.03003 0.52907
 C2189 C 0.61107 0.04610 0.54538
 C2190 C 0.62089 0.05145 0.55086
 C2191 C 0.56492 0.02154 0.52121
 C2192 C 0.55444 0.01672 0.51654
 C2193 C 0.59964 0.53956 0.03863
 N2194 N 0.58661 0.54334 0.04205
 N2195 N 0.57582 0.53730 0.03604
 C2196 C 0.57770 0.52728 0.02641
 N2197 N 0.59073 0.52348 0.02297
 N2198 N 0.60154 0.52954 0.02900
 C2199 C 0.61121 0.54606 0.04521
 C2200 C 0.62086 0.55156 0.05084
 C2201 C 0.56593 0.52087 0.02011
 C2202 C 0.55545 0.51607 0.01540
 C2203 C 0.03897 0.03736 0.10034
 N2204 N 0.02838 0.02835 0.10207
 N2205 N 0.02243 0.02237 0.09117
 C2206 C 0.02693 0.02524 0.07823
 N2207 N 0.03752 0.03424 0.07652
 N2208 N 0.04346 0.04020 0.08740
 C2209 C 0.04533 0.04394 0.11199
 C2210 C 0.05077 0.04960 0.12165
 C2211 C 0.02058 0.01908 0.06634
 C2212 C 0.01588 0.01452 0.05576
 C2213 C 0.03869 0.53790 0.60045
 N2214 N 0.04338 0.54060 0.58755
 N2215 N 0.03755 0.53461 0.57663
 C2216 C 0.02686 0.52571 0.57825
 N2217 N 0.02214 0.52299 0.59115
 N2218 N 0.02799 0.52899 0.60209
 C2219 C 0.04502 0.54443 0.61215
 C2220 C 0.05049 0.55005 0.62183
 C2221 C 0.02058 0.51953 0.56632
 C2222 C 0.01586 0.51494 0.55576
 C2223 C 0.53989 0.04061 0.59887
 N2224 N 0.53026 0.03056 0.60059
 N2225 N 0.52437 0.02457 0.58966
 C2226 C 0.52794 0.02845 0.57669
 N2227 N 0.53757 0.03849 0.57499
 N2228 N 0.54345 0.04447 0.58590
 C2229 C 0.54630 0.04705 0.61061
 C2230 C 0.55174 0.05247 0.62043
 C2231 C 0.52168 0.02209 0.56483
 C2232 C 0.51683 0.01718 0.55445
 C2233 C 0.53847 0.53877 0.09989
 N2234 N 0.54286 0.54158 0.08691
 N2235 N 0.53698 0.53545 0.07609
 C2236 C 0.52652 0.52631 0.07789
 N2237 N 0.52209 0.52349 0.09087
 N2238 N 0.52799 0.52963 0.10172
 C2239 C 0.54494 0.54535 0.11149
 C2240 C 0.55055 0.55091 0.12112
 C2241 C 0.52024 0.51994 0.06607
 C2242 C 0.51556 0.51523 0.05553
 C2243 C 0.21088 0.53873 0.65008
 N2244 N 0.20833 0.54339 0.66303
 N2245 N 0.21432 0.53741 0.67385
 C2246 C 0.22305 0.52660 0.67208
 N2247 N 0.22562 0.52193 0.65912
 N2248 N 0.21962 0.52792 0.64828
 C2249 C 0.20438 0.54523 0.63848
 C2250 C 0.19887 0.55081 0.62883
 C2251 C 0.22932 0.52027 0.68389
 C2252 C 0.23404 0.51556 0.69439
 C2253 C 0.21109 0.03782 0.14959
 N2254 N 0.22040 0.02748 0.14785
 N2255 N 0.22633 0.02154 0.15877
 C2256 C 0.22311 0.02579 0.17173
 N2257 N 0.21380 0.03611 0.17343
 N2258 N 0.20788 0.04203 0.16254
 C2259 C 0.20472 0.04432 0.13792
 C2260 C 0.19928 0.04994 0.12826
 C2261 C 0.22938 0.01959 0.18361
 C2262 C 0.23407 0.01500 0.19417
 C2263 C 0.71160 0.21156 0.60010
 N2264 N 0.70597 0.22311 0.59452
 N2265 N 0.71201 0.22934 0.58386
 C2266 C 0.72392 0.22427 0.57851
 N2267 N 0.72955 0.21272 0.58409
 N2268 N 0.72350 0.20648 0.59475
 C2269 C 0.70490 0.20468 0.61137
 C2270 C 0.69921 0.19897 0.62084
 C2271 C 0.72980 0.23031 0.56634
 C2272 C 0.73429 0.23485 0.55566
 C2273 C 0.71003 0.71100 0.09899
 N2274 N 0.72006 0.72065 0.10068
 N2275 N 0.72600 0.72651 0.08974
 C2276 C 0.72208 0.72288 0.07678
 N2277 N 0.71204 0.71324 0.07511
 N2278 N 0.70611 0.70739 0.08604
 C2279 C 0.70369 0.70456 0.11073
 C2280 C 0.69832 0.69904 0.12050
 C2281 C 0.72839 0.72905 0.06489
 C2282 C 0.73323 0.73378 0.05444
 C2283 C 0.54031 0.71112 0.15093
 N2284 N 0.53023 0.72069 0.14911
 N2285 N 0.52422 0.72666 0.15997
 C2286 C 0.52813 0.72323 0.17297
 N2287 N 0.53820 0.71367 0.17477
 N2288 N 0.54420 0.70771 0.16393
 C2289 C 0.54671 0.70459 0.13927
 C2290 C 0.55207 0.69903 0.12951
 C2291 C 0.52176 0.72953 0.18477
 C2292 C 0.51690 0.73434 0.19517
 C2293 C 0.03892 0.71112 0.65012
 N2294 N 0.04302 0.70797 0.66312
 N2295 N 0.03708 0.71404 0.67394
 C2296 C 0.02688 0.72345 0.67211
 N2297 N 0.02276 0.72662 0.65910
 N2298 N 0.02871 0.72054 0.64827
 C2299 C 0.04541 0.70458 0.63852
 C2300 C 0.05099 0.69906 0.62887
 C2301 C 0.02060 0.72983 0.68391
 C2302 C 0.01589 0.73460 0.69439
 C2303 C 0.53903 0.65094 0.20988
 N2304 N 0.52875 0.64928 0.21926
 N2305 N 0.52288 0.66026 0.22517
 C2306 C 0.52711 0.67320 0.22186
 N2307 N 0.53737 0.67483 0.21248
 N2308 N 0.54324 0.66388 0.20658
 C2309 C 0.54546 0.63917 0.20355
 C2310 C 0.55099 0.62939 0.19819
 C2311 C 0.52090 0.68512 0.22812
 C2312 C 0.51616 0.69558 0.23294
 C2313 C 0.03846 0.64989 0.71161
 N2314 N 0.04264 0.66287 0.70845
 N2315 N 0.03659 0.67376 0.71429
 C2316 C 0.02616 0.67202 0.72346
 N2317 N 0.02196 0.65903 0.72665
 N2318 N 0.02803 0.64812 0.72080
 C2319 C 0.04498 0.63822 0.70520
 C2320 C 0.05056 0.62855 0.69969
 C2321 C 0.01978 0.68390 0.72962
 C2322 C 0.01508 0.69446 0.73425
 C2323 C 0.03834 0.09974 0.03920
 N2324 N 0.02805 0.10153 0.02984
 N2325 N 0.02213 0.09063 0.02381
 C2326 C 0.02634 0.07765 0.02697
 N2327 N 0.03660 0.07589 0.03633
 N2328 N 0.04251 0.08676 0.04235
 C2329 C 0.04483 0.11140 0.04565
 C2330 C 0.05046 0.12107 0.05114
 C2331 C 0.02010 0.06579 0.02063
 C2332 C 0.01546 0.05524 0.01590
 C2333 C 0.03788 0.60047 0.53865
 N2334 N 0.02729 0.60207 0.52961
 N2335 N 0.02138 0.59107 0.52375
 C2336 C 0.02590 0.57815 0.52677
 N2337 N 0.03647 0.57658 0.53581
 N2338 N 0.04237 0.58756 0.54166
 C2339 C 0.04434 0.61224 0.54495
 C2340 C 0.04993 0.62198 0.55035
 C2341 C 0.01969 0.56619 0.52058
 C2342 C 0.01509 0.55559 0.51591
 C2343 C 0.53961 0.09903 0.53972
 N2344 N 0.54291 0.08605 0.54377
 N2345 N 0.53677 0.07517 0.53799
 C2346 C 0.52713 0.07694 0.52798
 N2347 N 0.52383 0.08993 0.52390
 N2348 N 0.52998 0.10082 0.52970
 C2349 C 0.54618 0.11072 0.54606
 C2350 C 0.55166 0.12049 0.55149
 C2351 C 0.52065 0.06511 0.52183
 C2352 C 0.51573 0.05469 0.51709
 C2353 C 0.53898 0.59954 0.03913
 N2354 N 0.54302 0.58648 0.04213
 N2355 N 0.53687 0.57574 0.03611
 C2356 C 0.52650 0.57772 0.02692
 N2357 N 0.52244 0.59079 0.02391
 N2358 N 0.52860 0.60154 0.02994
 C2359 C 0.54562 0.61108 0.04563
 C2360 C 0.55121 0.62076 0.05111
 C2361 C 0.52000 0.56603 0.02057
 C2362 C 0.51516 0.55561 0.01579
 C2363 C 0.71125 0.14977 0.53835
 N2364 N 0.70593 0.16260 0.54012
 N2365 N 0.71190 0.17348 0.53419
 C2366 C 0.72335 0.17187 0.52630
 N2367 N 0.72868 0.15903 0.52451
 N2368 N 0.72270 0.14813 0.53045
 C2369 C 0.70485 0.13813 0.54489
 C2370 C 0.69936 0.12848 0.55051
 C2371 C 0.72976 0.18376 0.52022
 C2372 C 0.73454 0.19430 0.51563
 C2373 C 0.70992 0.65138 0.03976
 N2374 N 0.70695 0.66436 0.04414
 N2375 N 0.71293 0.67524 0.03824
 C2376 C 0.72208 0.67350 0.02778
 N2377 N 0.72506 0.66052 0.02339
 N2378 N 0.71907 0.64963 0.02930
 C2379 C 0.70348 0.63969 0.04618
 C2380 C 0.69808 0.62990 0.05165
 C2381 C 0.72837 0.68534 0.02148
 C2382 C 0.73320 0.69573 0.01664
 C2383 C 0.21129 0.60013 0.71127
 N2384 N 0.20766 0.58711 0.70760
 N2385 N 0.21368 0.57628 0.71355
 C2386 C 0.22352 0.57812 0.72335
 N2387 N 0.22715 0.59115 0.72705
 N2388 N 0.22112 0.60200 0.72109
 C2389 C 0.20484 0.61175 0.70472
 C2390 C 0.19935 0.62140 0.69911
 C2391 C 0.22989 0.56629 0.72960
 C2392 C 0.23460 0.55576 0.73429
 C2393 C 0.21157 0.09985 0.21083
 N2394 N 0.20812 0.08683 0.20698
 N2395 N 0.21414 0.07599 0.21293
 C2396 C 0.22380 0.07782 0.22290
 N2397 N 0.22727 0.09085 0.22677
 N2398 N 0.22123 0.10171 0.22082
 C2399 C 0.20502 0.11145 0.20437
 C2400 C 0.19934 0.12103 0.19881
 C2401 C 0.23008 0.06600 0.22923
 C2402 C 0.23474 0.05548 0.23397
 C2403 C 0.71223 1.10051 0.71109
 N2404 N 0.70845 1.08758 0.70723
 N2405 N 0.71423 1.07659 0.71312
 C2406 C 0.72396 1.07816 0.72307
 N2407 N 0.72776 1.09109 0.72695
 N2408 N 0.72197 1.10211 0.72105
 C2409 C 0.70585 1.11230 0.70477
 C2410 C 0.70032 1.12206 0.69938
 C2411 C 0.73004 1.06618 0.72933
 C2412 C 0.73460 1.05559 0.73403
 C2413 C 0.71066 0.59926 0.21046
 N2414 N 0.70669 0.58631 0.20689
 N2415 N 0.71260 0.57536 0.21275
 C2416 C 0.72266 0.57702 0.22235
 N2417 N 0.72664 0.58998 0.22594
 N2418 N 0.72072 0.60095 0.22007
 C2419 C 0.70426 0.61099 0.20408
 C2420 C 0.69877 0.62071 0.19859
 C2421 C 0.72893 0.56512 0.22856
 C2422 C 0.73373 0.55468 0.23333
 C2423 C 0.53867 0.15011 0.71017
 N2424 N 0.54266 0.16314 0.70697
 N2425 N 0.53665 0.17395 0.71301
 C2426 C 0.52647 0.17208 0.72243
 N2427 N 0.52247 0.15904 0.72565
 N2428 N 0.52849 0.14821 0.71960
 C2429 C 0.54523 0.13851 0.70365
 C2430 C 0.55084 0.12886 0.69812
 C2431 C 0.52013 0.18387 0.72881
 C2432 C 0.51538 0.19433 0.73363
 C2433 C 1.03920 0.15040 0.21059
 N2434 N 1.02914 0.14885 0.22022
 N2435 N 1.02326 0.15989 0.22600
 C2436 C 1.02728 0.17280 0.22230
 N2437 N 1.03732 0.17433 0.21268
 N2438 N 1.04319 0.16330 0.20691
 C2439 C 1.04556 0.13858 0.20433
 C2440 C 1.05101 0.12878 0.19894
 C2441 C 1.02109 0.18477 0.22845
 C2442 C 1.01635 0.19526 0.23320
 C2443 C 0.21131 0.65026 0.53882
 N2444 N 0.22108 0.64844 0.52894
 N2445 N 0.22710 0.65933 0.52302
 C2446 C 0.22350 0.67233 0.52682
 N2447 N 0.21374 0.67413 0.53669
 N2448 N 0.20774 0.66326 0.54260
 C2449 C 0.20480 0.63862 0.54526
 C2450 C 0.19924 0.62898 0.55080
 C2451 C 0.22982 0.68417 0.52056
 C2452 C 0.23454 0.69468 0.51585
 C2453 C 0.21126 0.15043 1.03935
 N2454 N 0.20775 0.16337 1.04340
 N2455 N 0.21375 0.17433 1.03767
 C2456 C 0.22346 0.17271 1.02771
 N2457 N 0.22698 0.15976 1.02364
 N2458 N 0.22097 0.14878 1.02938
 C2459 C 0.20477 0.13866 1.04559
 C2460 C 0.19924 0.12889 1.05095
 C2461 C 0.22979 0.18463 1.02162
 C2462 C 0.23459 0.19512 1.01695
 C2463 C 0.21100 0.71147 0.59962
 N2464 N 0.22060 0.72152 0.60152
 N2465 N 0.22658 0.72758 0.59071
 C2466 C 0.22312 0.72376 0.57769
 N2467 N 0.21353 0.71372 0.57580
 N2468 N 0.20756 0.70767 0.58659
 C2469 C 0.20456 0.70493 0.61122
 C2470 C 0.19911 0.69942 0.62094
 C2471 C 0.22944 0.73015 0.56594
 C2472 C 0.23419 0.73493 0.55550
 C2473 C 0.21039 0.20999 1.09903
 N2474 N 0.20652 0.20629 1.08609
 N2475 N 0.21238 0.21217 1.07513
 C2476 C 0.22231 0.22192 1.07676
 N2477 N 0.22620 0.22564 1.08970
 N2478 N 0.22032 0.21976 1.10067
 C2479 C 0.20403 0.20363 1.11079
 C2480 C 0.19855 0.19821 1.12056
 C2481 C 0.22854 0.22816 1.06486
 C2482 C 0.23336 0.23298 1.05445
 C2483 C 0.70979 0.53983 0.15164
 N2484 N 0.71962 0.53004 0.14971
 N2485 N 0.72559 0.52393 0.16051
 C2486 C 0.72188 0.52744 0.17354
 N2487 N 0.71205 0.53724 0.17546
 N2488 N 0.70609 0.54334 0.16468
 C2489 C 0.70339 0.54641 0.14003
 C2490 C 0.69803 0.55190 0.13023
 C2491 C 0.72822 0.52098 0.18525
 C2492 C 0.73312 0.51604 0.19555
 C2493 C 0.71138 1.03806 0.64985
 N2494 N 0.72092 1.02795 0.64804
 N2495 N 0.72675 1.02185 0.65892
 C2496 C 0.72320 1.02570 0.67191
 N2497 N 0.71367 1.03580 0.67369
 N2498 N 0.70784 1.04189 0.66283
 C2499 C 0.70500 1.04464 0.63822
 C2500 C 0.69948 1.05030 0.62862
 C2501 C 0.72938 1.01933 0.68376
 C2502 C 0.73401 1.01467 0.69432
 C2503 C 0.53892 0.21164 0.65023
 N2504 N 0.52833 0.22063 0.64836
 N2505 N 0.52237 0.22674 0.65918
 C2506 C 0.52687 0.22404 0.67216
 N2507 N 0.53746 0.21506 0.67400
 N2508 N 0.54340 0.20896 0.66320
 C2509 C 0.54534 0.20500 0.63867
 C2510 C 0.55086 0.19932 0.62907
 C2511 C 0.52051 0.23032 0.68395
 C2512 C 0.51575 0.23496 0.69446
 C2513 C 1.03917 0.21007 0.15086
 N2514 N 1.04298 0.20634 0.16379
 N2515 N 1.03713 0.21224 0.17475
 C2516 C 1.02729 0.22208 0.17313
 N2517 N 1.02345 0.22582 0.16019
 N2518 N 1.02931 0.21990 0.14922
 C2519 C 1.04558 0.20375 0.13910
 C2520 C 1.05110 0.19839 0.12932
 C2521 C 1.02110 0.22836 0.18503
 C2522 C 1.01634 0.23318 0.19547
 C2523 C 0.59999 0.21137 0.71114
 N2524 N 0.60179 0.22078 0.72138
 N2525 N 0.59091 0.22664 0.72745
 C2526 C 0.57793 0.22324 0.72345
 N2527 N 0.57616 0.21384 0.71321
 N2528 N 0.58702 0.20799 0.70714
 C2529 C 0.61163 0.20495 0.70461
 C2530 C 0.62127 0.19943 0.69904
 C2531 C 0.56610 0.22939 0.72986
 C2532 C 0.55559 0.23401 0.73463
 C2533 C 1.09888 0.21002 0.21082
 N2534 N 1.10054 0.21968 0.22086
 N2535 N 1.08958 0.22547 0.22685
 C2536 C 1.07664 0.22177 0.22298
 N2537 N 1.07499 0.21212 0.21295
 N2538 N 1.08594 0.20633 0.20696
 C2539 C 1.11062 0.20374 0.20432
 C2540 C 1.12035 0.19833 0.19875
 C2541 C 1.06473 0.22793 0.22930
 C2542 C 1.05429 0.23269 0.23412
 C2543 C 0.15026 0.71141 0.53853
 N2544 N 0.16325 0.70730 0.54169
 N2545 N 0.17408 0.71325 0.53566
 C2546 C 0.17225 0.72349 0.52629
 N2547 N 0.15925 0.72762 0.52311
 N2548 N 0.14841 0.72166 0.52915
 C2549 C 0.13866 0.70495 0.54507
 C2550 C 0.12902 0.69941 0.55067
 C2551 C 0.18406 0.72982 0.51998
 C2552 C 0.19456 0.73456 0.51529
 C2553 C 0.15096 0.21032 1.03933
 N2554 N 0.16386 0.20700 1.04360
 N2555 N 0.17485 0.21281 1.03772
 C2556 C 0.17328 0.22212 1.02739
 N2557 N 0.16037 0.22546 1.02310
 N2558 N 0.14937 0.21964 1.02898
 C2559 C 0.13917 0.20401 1.04570
 C2560 C 0.12941 0.19858 1.05118
 C2561 C 0.18523 0.22831 1.02119
 C2562 C 0.19569 0.23308 1.01645
 C2563 C 0.65102 0.53973 0.21049
 N2564 N 0.66392 0.54352 0.20661
 N2565 N 0.67492 0.53772 0.21247
 C2566 C 0.67338 0.52796 0.22238
 N2567 N 0.66047 0.52417 0.22628
 N2568 N 0.64945 0.52997 0.22041
 C2569 C 0.63922 0.54601 0.20411
 C2570 C 0.62943 0.55139 0.19865
 C2571 C 0.68534 0.52177 0.22854
 C2572 C 0.69581 0.51699 0.23328
 C2573 C 0.64999 1.03939 0.71091
 N2574 N 0.64812 1.02943 0.72059
 N2575 N 0.65895 1.02344 0.72663
 C2576 C 0.67197 1.02725 0.72317
 N2577 N 0.67382 1.03721 0.71350
 N2578 N 0.66301 1.04319 0.70746
 C2579 C 0.63837 1.04585 0.70437
 C2580 C 0.62865 1.05133 0.69885
 C2581 C 0.68375 1.02089 0.72951
 C2582 C 0.69419 1.01608 0.73430
 C2583 C 0.85016 0.46159 0.28929
 N2584 N 0.85196 0.47202 0.28010
 N2585 N 0.84110 0.47798 0.27410
 C2586 C 0.82812 0.47367 0.27712
 N2587 N 0.82634 0.46326 0.28630
 N2588 N 0.83719 0.45731 0.29229
 C2589 C 0.86178 0.45514 0.29581
 C2590 C 0.87140 0.44956 0.30137
 C2591 C 0.81630 0.47996 0.27080
 C2592 C 0.80582 0.48466 0.26604
 C2593 C 0.84873 0.96041 0.79039
 N2594 N 0.85037 0.96977 0.78010
 N2595 N 0.83940 0.97560 0.77415
 C2596 C 0.82646 0.97223 0.77832
 N2597 N 0.82484 0.96287 0.78860
 N2598 N 0.83580 0.95705 0.79454
 C2599 C 0.86052 0.95406 0.79679
 C2600 C 0.87034 0.94865 0.80221
 C2601 C 0.81455 0.97838 0.77198
 C2602 C 0.80413 0.98314 0.76707
 C2603 C 0.40093 0.28981 0.78943
 N2604 N 0.41384 0.29348 0.79338
 N2605 N 0.42482 0.28747 0.78768
 C2606 C 0.42322 0.27759 0.77786
 N2607 N 0.41031 0.27391 0.77389
 N2608 N 0.39931 0.27992 0.77960
 C2609 C 0.38915 0.29621 0.79571
 C2610 C 0.37933 0.30160 0.80113
 C2611 C 0.43515 0.27126 0.77177
 C2612 C 0.44559 0.26643 0.76704
 C2613 C 0.89958 0.28785 0.28898
 N2614 N 0.91255 0.29188 0.29234
 N2615 N 0.92342 0.28596 0.28638
 C2616 C 0.92168 0.27582 0.27686
 N2617 N 0.90870 0.27174 0.27349
 N2618 N 0.89781 0.27768 0.27947
 C2619 C 0.88791 0.29439 0.29534
 C2620 C 0.87824 0.30003 0.30076
 C2621 C 0.93354 0.26960 0.27054
 C2622 C 0.94408 0.26498 0.26583
 C2623 C 0.34880 0.79014 0.45996
 N2624 N 0.33582 0.79410 0.45654
 N2625 N 0.32495 0.78810 0.46244
 C2626 C 0.32671 0.77797 0.47195
 N2627 N 0.33969 0.77401 0.47538
 N2628 N 0.35058 0.78001 0.46947
 C2629 C 0.36050 0.79661 0.45360
 C2630 C 0.37033 0.80204 0.44824
 C2631 C 0.31491 0.77163 0.47824
 C2632 C 0.30456 0.76676 0.48311
 C2633 C 0.34984 0.28920 0.96144
 N2634 N 0.33679 0.29254 0.95766
 N2635 N 0.32604 0.28629 0.96353
 C2636 C 0.32800 0.27650 0.97335
 N2637 N 0.34106 0.27315 0.97714
 N2638 N 0.35182 0.27940 0.97126
 C2639 C 0.36138 0.29588 0.95499
 C2640 C 0.37100 0.30148 0.94943
 C2641 C 0.31627 0.26998 0.97960
 C2642 C 0.30581 0.26516 0.98430
 C2643 C 0.78833 0.46139 0.35020
 N2644 N 0.77766 0.47030 0.35195
 N2645 N 0.77172 0.47628 0.34106
 C2646 C 0.77631 0.47352 0.32812
 N2647 N 0.78697 0.46461 0.32640
 N2648 N 0.79290 0.45864 0.33727
 C2649 C 0.79478 0.45489 0.36183
 C2650 C 0.80038 0.44931 0.37143
 C2651 C 0.77003 0.47976 0.31626
 C2652 C 0.76538 0.48441 0.30571
 C2653 C 0.78926 0.96085 0.84920
 N2654 N 0.79340 0.95748 0.83627
 N2655 N 0.78747 0.96333 0.82533
 C2656 C 0.77723 0.97273 0.82699
 N2657 N 0.77307 0.97612 0.83993
 N2658 N 0.77900 0.97026 0.85088
 C2659 C 0.79566 0.95448 0.86091
 C2660 C 0.80115 0.94901 0.87062
 C2661 C 0.77095 0.97890 0.81511
 C2662 C 0.76615 0.98363 0.80466
 C2663 C 0.28956 0.78996 0.40114
 N2664 N 0.29298 0.79394 0.41411
 N2665 N 0.28691 0.78811 0.42498
 C2666 C 0.27722 0.77815 0.42321
 N2667 N 0.27379 0.77416 0.41022
 N2668 N 0.27987 0.77999 0.39934
 C2669 C 0.29611 0.79628 0.38947
 C2670 C 0.30166 0.80166 0.37973
 C2671 C 0.27081 0.77197 0.43502
 C2672 C 0.26594 0.76724 0.44543
 C2673 C 0.28850 0.28858 0.89985
 N2674 N 0.27871 0.27869 0.89807
 N2675 N 0.27274 0.27277 0.90897
 C2676 C 0.27640 0.27658 0.92195
 N2677 N 0.28618 0.28646 0.92370
 N2678 N 0.29213 0.29237 0.91282
 C2679 C 0.29499 0.29502 0.88822
 C2680 C 0.30059 0.30060 0.87863
 C2681 C 0.27016 0.27034 0.93383
 C2682 C 0.26553 0.26568 0.94439
 C2683 C 0.46003 0.29019 0.84866
 N2684 N 0.46975 0.28027 0.85052
 N2685 N 0.47574 0.27424 0.83968
 C2686 C 0.47217 0.27796 0.82666
 N2687 N 0.46245 0.28787 0.82482
 N2688 N 0.45647 0.29390 0.83565
 C2689 C 0.45358 0.29669 0.86032
 C2690 C 0.44817 0.30214 0.87011
 C2691 C 0.47851 0.27155 0.81490
 C2692 C 0.48340 0.26661 0.80458
 C2693 C 0.96169 0.28869 0.35019
 N2694 N 0.95844 0.29280 0.33723
 N2695 N 0.96442 0.28687 0.32635
 C2696 C 0.97384 0.27666 0.32809
 N2697 N 0.97711 0.27252 0.34107
 N2698 N 0.97112 0.27846 0.35196
 C2699 C 0.95521 0.29515 0.36183
 C2700 C 0.94962 0.30075 0.37144
 C2701 C 0.98008 0.27037 0.31622
 C2702 C 0.98471 0.26567 0.30566
 C2703 C 0.45991 0.34860 0.78979
 N2704 N 0.45627 0.33559 0.79342
 N2705 N 0.46224 0.32475 0.78741
 C2706 C 0.47205 0.32658 0.77759
 N2707 N 0.47571 0.33960 0.77395
 N2708 N 0.46973 0.35046 0.77997
 C2709 C 0.45346 0.36024 0.79628
 C2710 C 0.44798 0.36996 0.80180
 C2711 C 0.47835 0.31480 0.77121
 C2712 C 0.48316 0.30442 0.76632
 C2713 C 0.96141 0.35024 0.28870
 N2714 N 0.95790 0.33728 0.29264
 N2715 N 0.96371 0.32635 0.28664
 C2716 C 0.97320 0.32803 0.27649
 N2717 N 0.97673 0.34100 0.27252
 N2718 N 0.97091 0.35195 0.27854
 C2719 C 0.95505 0.36193 0.29521
 C2720 C 0.94952 0.37155 0.30084
 C2721 C 0.97934 0.31611 0.27017
 C2722 C 0.98395 0.30555 0.26546
 C2723 C 0.29059 0.84905 0.46033
 N2724 N 0.29415 0.83606 0.45649
 N2725 N 0.28820 0.82517 0.46242
 C2726 C 0.27852 0.82692 0.47239
 N2727 N 0.27496 0.83992 0.47624
 N2728 N 0.28091 0.85082 0.47030
 C2729 C 0.29703 0.86075 0.45392
 C2730 C 0.30250 0.87051 0.44846
 C2731 C 0.27219 0.81509 0.47866
 C2732 C 0.26728 0.80471 0.48348
 C2733 C 0.28937 0.34974 0.96148
 N2734 N 0.27989 0.35165 0.97162
 N2735 N 0.27386 0.34083 0.97765
 C2736 C 0.27715 0.32779 0.97369
 N2737 N 0.28663 0.32590 0.96356
 N2738 N 0.29264 0.33670 0.95755
 C2739 C 0.29588 0.36132 0.95492
 C2740 C 0.30144 0.37094 0.94931
 C2741 C 0.27081 0.31600 0.98004
 C2742 C 0.26606 0.30552 0.98477
 C2743 C 0.78857 0.39972 0.28806
 N2744 N 0.79507 0.41212 0.28800
 N2745 N 0.78927 0.42300 0.28192
 C2746 C 0.77680 0.42182 0.27567
 N2747 N 0.77026 0.40942 0.27571
 N2748 N 0.77607 0.39852 0.28181
 C2749 C 0.79486 0.38810 0.29473
 C2750 C 0.80035 0.37848 0.30039
 C2751 C 0.77052 0.43378 0.26959
 C2752 C 0.76587 0.44439 0.26504
   
