data_POSCAR
  _audit_creation_date              2014-09-24
  _audit_creation_method            'ToBaCCo'
  _symmetry_space_group_name_H-M    'P1'
  _symmetry_Int_Tables_number       1
  _symmetry_cell_setting            triclinic
  loop_
  _symmetry_equiv_pos_as_xyz
 x,y,z
_cell_length_a 48.1589
_cell_length_b 50.2262
_cell_length_c 48.8217
_cell_angle_alpha 89.847200
_cell_angle_beta 90.159300
_cell_angle_gamma 92.210200
loop_
  _atom_site_label
  _atom_site_type_symbol
  _atom_site_fract_x
  _atom_site_fract_y
  _atom_site_fract_z
C1 C 0.73505 0.67566 0.95827
 H2 H 0.75602 0.67842 0.95059
 C3 C 0.71309 0.68782 0.94484
 H4 H 0.71750 0.69991 0.92689
 C5 C 0.70363 0.65425 0.98922
 H6 H 0.69960 0.64025 1.00563
 C7 C 0.68124 0.66598 0.97656
 H8 H 0.66046 0.66125 0.98401
 N9 N 0.72991 0.65885 0.97973
 C10 C 0.80701 0.64077 1.02181
 H11 H 0.80334 0.61939 1.02211
 C12 C 0.83017 0.65205 1.03507
 H13 H 0.84434 0.63911 1.04541
 C14 C 0.79272 0.68337 1.00787
 H15 H 0.77781 0.69542 0.99749
 C16 C 0.81605 0.69556 1.02065
 H17 H 0.81884 0.71704 1.02011
 Zn18 Zn 0.75837 0.63700 0.99291
 N19 N 0.78884 0.65639 1.00860
 C20 C 0.79728 0.62023 0.95381
 N21 N 0.77060 0.61712 0.96267
 C22 C 0.75185 0.60081 0.94936
 C23 C 0.75994 0.58613 0.92666
 C24 C 0.80610 0.60633 0.93091
 C25 C 0.73463 0.62562 1.04388
 C26 C 0.72204 0.61024 1.06452
 C27 C 0.73077 0.57081 1.03821
 C28 C 0.74291 0.58711 1.01795
 N29 N 0.74389 0.61401 1.02075
 H30 H 0.81172 0.63367 0.96433
 H31 H 0.73061 0.59913 0.95650
 H32 H 0.74486 0.57303 0.91642
 H33 H 0.82750 0.60882 0.92434
 H34 H 0.73629 0.64708 1.04589
 H35 H 0.71437 0.62061 1.08222
 H36 H 0.73012 0.54971 1.03425
 H37 H 0.75130 0.57813 0.99985
 C38 C 0.83506 0.67975 1.03457
 C39 C 0.68563 0.68244 0.95360
 C40 C 0.71928 0.58218 1.06199
 C41 C 0.78731 0.58899 0.91708
 C42 C 0.70818 0.34802 0.51418
 H43 H 0.72868 0.34593 0.52285
 C44 C 0.68510 0.33529 0.52673
 H45 H 0.68808 0.32320 0.54482
 C46 C 0.67894 0.36851 0.48194
 H47 H 0.67620 0.38211 0.46511
 C48 C 0.65553 0.35602 0.49357
 H49 H 0.63531 0.35972 0.48493
 N50 N 0.70452 0.36543 0.49314
 C51 C 0.78165 0.39122 0.45282
 H52 H 0.77755 0.41219 0.45178
 C53 C 0.80403 0.38162 0.43844
 H54 H 0.81758 0.39566 0.42756
 C55 C 0.76831 0.34768 0.46773
 H56 H 0.75399 0.33453 0.47878
 C57 C 0.79069 0.33715 0.45359
 H58 H 0.79356 0.31587 0.45402
 Zn59 Zn 0.73315 0.39066 0.48264
 N60 N 0.76427 0.37435 0.46707
 C61 C 0.73050 0.40689 0.53805
 N62 N 0.74451 0.41095 0.51411
 C63 C 0.76748 0.42760 0.51309
 C64 C 0.77824 0.43933 0.53702
 C65 C 0.74076 0.41786 0.56247
 C66 C 0.71678 0.40119 0.42971
 C67 C 0.70378 0.41411 0.40825
 C68 C 0.69509 0.45063 0.43878
 C69 C 0.70851 0.43698 0.45977
 N70 N 0.71860 0.41252 0.45492
 H71 H 0.71159 0.39470 0.53851
 H72 H 0.77811 0.43117 0.49395
 H73 H 0.79711 0.45173 0.53599
 H74 H 0.72966 0.41378 0.58137
 H75 H 0.72488 0.38166 0.42645
 H76 H 0.70291 0.40460 0.38840
 H77 H 0.68647 0.46976 0.44308
 H78 H 0.71006 0.44547 0.48009
 C79 C 0.80858 0.35420 0.43828
 C80 C 0.65827 0.34049 0.51727
 C81 C 0.69199 0.43885 0.41277
 C82 C 0.76538 0.43367 0.56224
 C83 C 0.24080 -0.15282 0.02168
 H84 H 0.26215 -0.15319 0.02858
 C85 C 0.21998 -0.16747 0.03581
 H86 H 0.22560 -0.17899 0.05361
 C87 C 0.20730 -0.13535 -0.00833
 H88 H 0.20204 -0.12212 -0.02482
 C89 C 0.18601 -0.14959 0.00507
 H90 H 0.16481 -0.14740 -0.00178
 N91 N 0.23406 -0.13681 0.00032
 C92 C 0.30793 -0.11161 -0.04556
 H93 H 0.30313 -0.09075 -0.04636
 C94 C 0.33205 -0.12013 -0.05773
 H95 H 0.34536 -0.10569 -0.06837
 C96 C 0.29577 -0.15555 -0.03090
 H97 H 0.28157 -0.16912 -0.02021
 C98 C 0.31992 -0.16503 -0.04290
 H99 H 0.32426 -0.18597 -0.04134
 Zn100 Zn 0.26085 -0.11236 -0.01492
 N101 N 0.29066 -0.12911 -0.03204
 C102 C 0.30224 -0.09610 0.02209
 N103 N 0.27582 -0.09110 0.01417
 C104 C 0.26021 -0.07394 0.02853
 C105 C 0.27132 -0.06086 0.05168
 C106 C 0.31386 -0.08396 0.04523
 C107 C 0.23712 -0.10760 -0.06531
 C108 C 0.22276 -0.09702 -0.08727
 C109 C 0.22273 -0.05493 -0.06352
 C110 C 0.23729 -0.06650 -0.04190
 N111 N 0.24356 -0.09262 -0.04297
 H112 H 0.31416 -0.11036 0.01113
 H113 H 0.23894 -0.07093 0.02247
 H114 H 0.25868 -0.04748 0.06317
 H115 H 0.33479 -0.08853 0.05133
 H116 H 0.24273 -0.12825 -0.06577
 H117 H 0.21857 -0.11042 -0.10407
 H118 H 0.21764 -0.03420 -0.06163
 H119 H 0.24311 -0.05470 -0.02418
 C120 C 0.33874 -0.14702 -0.05590
 C121 C 0.19204 -0.16542 0.02786
 C122 C 0.21447 -0.07027 -0.08673
 C123 C 0.29828 -0.06635 0.06050
 C124 C 0.20772 0.16061 0.46701
 H125 H 0.22450 0.17454 0.47249
 C126 C 0.18482 0.16928 0.45213
 H127 H 0.18396 0.19000 0.44611
 C128 C 0.18804 0.11659 0.46829
 H129 H 0.18944 0.09610 0.47486
 C130 C 0.16523 0.12423 0.45313
 H131 H 0.14887 0.10955 0.44836
 N132 N 0.20898 0.13453 0.47435
 C133 C 0.26608 0.15178 0.53334
 H134 H 0.24979 0.14437 0.54677
 C135 C 0.28919 0.16517 0.54462
 H136 H 0.29014 0.16811 0.56658
 C137 C 0.28560 0.15526 0.48893
 H138 H 0.28456 0.15017 0.46742
 C139 C 0.30926 0.16877 0.49942
 H140 H 0.32626 0.17400 0.48574
 Zn141 Zn 0.23878 0.12007 0.49373
 N142 N 0.26507 0.14629 0.50610
 C143 C 0.28128 0.08517 0.47885
 N144 N 0.25738 0.09630 0.47042
 C145 C 0.24764 0.09251 0.44451
 C146 C 0.26173 0.07688 0.42610
 C147 C 0.29631 0.06951 0.46088
 C148 C 0.20283 0.11547 0.53768
 C149 C 0.19080 0.10497 0.56145
 C150 C 0.22038 0.06737 0.55776
 C151 C 0.23182 0.07860 0.53390
 N152 N 0.22313 0.10243 0.52460
 H153 H 0.28913 0.08914 0.49927
 H154 H 0.22925 0.10212 0.43762
 H155 H 0.25335 0.07439 0.40562
 H156 H 0.31569 0.06174 0.46793
 H157 H 0.19619 0.13432 0.52974
 H158 H 0.17436 0.11563 0.57104
 H159 H 0.22776 0.04854 0.56509
 H160 H 0.24782 0.06845 0.52309
 C161 C 0.31164 0.17292 0.52782
 C162 C 0.16358 0.15077 0.44458
 C163 C 0.19985 0.08078 0.57210
 C164 C 0.28659 0.06523 0.43395
 C165 C 0.13511 0.45315 0.21246
 H166 H 0.11714 0.44291 0.22127
 C167 C 0.14912 0.44122 0.19110
 H168 H 0.14144 0.42194 0.18389
 C169 C 0.16607 0.49084 0.21074
 H170 H 0.17255 0.51025 0.21853
 C171 C 0.18084 0.47957 0.18932
 H172 H 0.19877 0.49054 0.18131
 N173 N 0.14322 0.47785 0.22138
 C174 C 0.12726 0.52461 0.29437
 H175 H 0.10551 0.52778 0.29070
 C176 C 0.14023 0.53591 0.31725
 H177 H 0.12816 0.54777 0.33098
 C178 C 0.16889 0.50452 0.28128
 H179 H 0.17980 0.49195 0.26734
 C180 C 0.18275 0.51537 0.30418
 H181 H 0.20447 0.51148 0.30725
 Zn182 Zn 0.12047 0.49448 0.24758
 N183 N 0.14160 0.50931 0.27688
 C184 C 0.10088 0.45733 0.28688
 N185 N 0.09476 0.46869 0.26239
 C186 C 0.07133 0.46120 0.24830
 C187 C 0.05283 0.44169 0.25895
 C188 C 0.08314 0.43760 0.29812
 C189 C 0.11246 0.53673 0.20975
 C190 C 0.09846 0.55779 0.19801
 C191 C 0.06071 0.54900 0.22959
 C192 C 0.07547 0.52818 0.24077
 N193 N 0.10082 0.52232 0.23069
 H194 H 0.11980 0.46329 0.29755
 H195 H 0.06717 0.47019 0.22863
 H196 H 0.03460 0.43569 0.24716
 H197 H 0.08849 0.42872 0.31758
 H198 H 0.13270 0.53211 0.20214
 H199 H 0.10808 0.56894 0.18131
 H200 H 0.04088 0.55355 0.23843
 H201 H 0.06679 0.51690 0.25780
 C202 C 0.16828 0.53124 0.32261
 C203 C 0.17191 0.45467 0.17857
 C204 C 0.07213 0.56407 0.20777
 C205 C 0.05869 0.42960 0.28421
 C206 C -0.17183 0.00203 0.23466
 H207 H -0.18332 -0.00007 0.25359
 C208 C -0.18317 0.01574 0.21243
 H209 H -0.20353 0.02358 0.21505
 C210 C -0.13099 -0.00527 0.20942
 H211 H -0.11032 -0.01289 0.20858
 C212 C -0.14141 0.00797 0.18685
 H213 H -0.12830 0.00974 0.16891
 N214 N -0.14602 -0.00781 0.23280
 C215 C -0.15090 -0.06429 0.29438
 H216 H -0.14096 -0.07731 0.28024
 C217 C -0.16295 -0.07519 0.31798
 H218 H -0.16248 -0.09651 0.32119
 C219 C -0.16204 -0.02084 0.30818
 H220 H -0.16055 0.00045 0.30471
 C221 C -0.17418 -0.03093 0.33231
 H222 H -0.18193 -0.01707 0.34708
 Zn223 Zn -0.12650 -0.02313 0.26225
 N224 N -0.15009 -0.03750 0.29014
 C225 C -0.09016 -0.00061 0.30246
 N226 N -0.10315 0.00393 0.27823
 C227 C -0.10201 0.02851 0.26644
 C228 C -0.08775 0.04975 0.27917
 C229 C -0.07574 0.02021 0.31607
 C230 C -0.12013 -0.06816 0.23061
 C231 C -0.10684 -0.08894 0.21794
 C232 C -0.06384 -0.07368 0.23934
 C233 C -0.07803 -0.05305 0.25163
 N234 N -0.10574 -0.05085 0.24722
 H235 H -0.09185 -0.02020 0.31172
 H236 H -0.11272 0.03197 0.24739
 H237 H -0.08744 0.06912 0.26937
 H238 H -0.06661 0.01620 0.33583
 H239 H -0.14205 -0.06563 0.22707
 H240 H -0.11880 -0.10188 0.20430
 H241 H -0.04180 -0.07523 0.24312
 H242 H -0.06693 -0.03882 0.26460
 C243 C -0.17407 -0.05847 0.33779
 C244 C -0.16769 0.01941 0.18797
 C245 C -0.07832 -0.09212 0.22237
 C246 C -0.07458 0.04596 0.30451
 C247 C 0.37687 0.51705 0.70264
 H248 H 0.39896 0.51965 0.70635
 C249 C 0.36486 0.52977 0.68047
 H250 H 0.37796 0.54212 0.66719
 C251 C 0.33331 0.49722 0.71533
 H252 H 0.32125 0.48437 0.72898
 C253 C 0.32040 0.50945 0.69309
 H254 H 0.29825 0.50623 0.69011
 N255 N 0.36111 0.50115 0.71948
 C256 C 0.36050 0.44229 0.78083
 H257 H 0.37526 0.43086 0.76975
 C258 C 0.34592 0.43031 0.80252
 H259 H 0.34992 0.40982 0.80766
 C260 C 0.33757 0.48251 0.78754
 H261 H 0.33393 0.50272 0.78134
 C262 C 0.32269 0.47139 0.80963
 H263 H 0.30866 0.48386 0.82048
 Zn264 Zn 0.38112 0.48481 0.74777
 N265 N 0.35694 0.46829 0.77435
 C266 C 0.39215 0.53160 0.77878
 N267 N 0.40424 0.51209 0.76429
 C268 C 0.43215 0.51305 0.75979
 C269 C 0.44903 0.53368 0.77068
 C270 C 0.40823 0.55250 0.79015
 C271 C 0.39801 0.45042 0.70575
 C272 C 0.41339 0.43052 0.69381
 C273 C 0.44005 0.42772 0.73563
 C274 C 0.42382 0.44733 0.74697
 N275 N 0.40345 0.45847 0.73188
 H276 H 0.36994 0.53135 0.78120
 H277 H 0.44139 0.49834 0.74699
 H278 H 0.47098 0.53418 0.76606
 H279 H 0.39802 0.56765 0.80173
 H280 H 0.38144 0.45913 0.69424
 H281 H 0.40867 0.42424 0.67305
 H282 H 0.45600 0.41895 0.74802
 H283 H 0.42737 0.45364 0.76790
 C284 C 0.32729 0.44505 0.81794
 C285 C 0.33633 0.52590 0.67524
 C286 C 0.43484 0.41908 0.70871
 C287 C 0.43714 0.55373 0.78636
 C288 C 0.66954 0.97689 0.73460
 H289 H 0.67062 0.96742 0.75447
 C290 C 0.68007 0.96410 0.71159
 H291 H 0.68951 0.94501 0.71401
 C292 C 0.65338 1.01174 0.70671
 H293 H 0.64226 1.02982 0.70445
 C294 C 0.66366 0.99978 0.68337
 H295 H 0.66080 1.00927 0.66367
 N296 N 0.65557 0.99980 0.73163
 C297 C 0.64509 1.04815 0.80336
 H298 H 0.62626 1.05683 0.79612
 C299 C 0.65792 1.05847 0.82676
 H300 H 0.64867 1.07537 0.83639
 C301 C 0.67814 1.01473 0.80014
 H302 H 0.68569 0.99745 0.78984
 C303 C 0.69162 1.02427 0.82386
 H304 H 0.70964 1.01399 0.83071
 Zn305 Zn 0.63365 1.01287 0.76073
 N306 N 0.65527 1.02673 0.79042
 C307 C 0.59919 0.98760 0.79978
 N308 N 0.61020 0.98477 0.77440
 C309 C 0.60558 0.96201 0.75976
 C310 C 0.58993 0.94067 0.77096
 C311 C 0.58343 0.96678 0.81174
 C312 C 0.62490 1.06434 0.74109
 C313 C 0.61026 1.08507 0.72970
 C314 C 0.56891 1.05623 0.72947
 C315 C 0.58429 1.03611 0.74130
 N316 N 0.61181 1.04046 0.74669
 H317 H 0.60319 1.00586 0.81104
 H318 H 0.61414 0.96030 0.73944
 H319 H 0.58667 0.92264 0.75906
 H320 H 0.57584 0.96929 0.83237
 H321 H 0.64691 1.06712 0.74518
 H322 H 0.62124 1.10371 0.72491
 H323 H 0.54709 1.05243 0.72494
 H324 H 0.57441 1.01688 0.74567
 C325 C 0.68137 1.04641 0.83797
 C326 C 0.67599 0.97502 0.68546
 C327 C 0.58190 1.08111 0.72364
 C328 C 0.57869 0.94281 0.79734
 C329 C 0.03243 0.23120 -0.17137
 H330 H 0.04269 0.25067 -0.17106
 C331 C 0.04680 0.20952 -0.18097
 H332 H 0.06784 0.21271 -0.18840
 C333 C -0.00680 0.20315 -0.16096
 H334 H -0.02739 0.20062 -0.15235
 C335 C 0.00674 0.18092 -0.17064
 H336 H -0.00362 0.16143 -0.16942
 N337 N 0.00663 0.22749 -0.16042
 C338 C -0.02511 0.30579 -0.14506
 H339 H -0.01574 0.30828 -0.12503
 C340 C -0.03976 0.32641 -0.15644
 H341 H -0.04089 0.34483 -0.14509
 C342 C -0.03576 0.27816 -0.18321
 H343 H -0.03466 0.25897 -0.19308
 C344 C -0.05096 0.29838 -0.19537
 H345 H -0.06150 0.29435 -0.21458
 Zn346 Zn -0.00690 0.25488 -0.13793
 N347 N -0.02348 0.28219 -0.15835
 C348 C 0.04002 0.28902 -0.13212
 N349 N 0.02395 0.27045 -0.11857
 C350 C 0.03020 0.26311 -0.09251
 C351 C 0.05373 0.27416 -0.07938
 C352 C 0.06356 0.30073 -0.11972
 C353 C -0.05936 0.25093 -0.11239
 C354 C -0.08034 0.24007 -0.09566
 C355 C -0.04887 0.20668 -0.08082
 C356 C -0.02846 0.21834 -0.09782
 N357 N -0.03400 0.24005 -0.11326
 H358 H 0.03447 0.29483 -0.15271
 H359 H 0.01716 0.24853 -0.08190
 H360 H 0.05844 0.26774 -0.05875
 H361 H 0.07537 0.31585 -0.13095
 H362 H -0.06363 0.26800 -0.12497
 H363 H -0.09986 0.24982 -0.09639
 H364 H -0.04346 0.18927 -0.06911
 H365 H -0.00829 0.20968 -0.09912
 C366 C -0.05343 0.32286 -0.18170
 C367 C 0.03439 0.18382 -0.17948
 C368 C -0.07569 0.21726 -0.07941
 C369 C 0.07101 0.29307 -0.09306
 C370 C 0.46231 0.23858 0.15413
 H371 H 0.45267 0.25608 0.14631
 C372 C 0.44556 0.21757 0.16431
 H373 H 0.42328 0.21965 0.16484
 C374 C 0.50276 0.21429 0.16198
 H375 H 0.52500 0.21271 0.15997
 C376 C 0.48674 0.19271 0.17222
 H377 H 0.49694 0.17476 0.17825
 N378 N 0.49027 0.23620 0.15215
 C379 C 0.54002 0.30739 0.12993
 H380 H 0.54033 0.30405 0.10805
 C381 C 0.55095 0.33122 0.14059
 H382 H 0.56002 0.34593 0.12667
 C383 C 0.52689 0.29230 0.17423
 H384 H 0.51683 0.27722 0.18704
 C385 C 0.53765 0.31604 0.18588
 H386 H 0.53562 0.31901 0.20770
 Zn387 Zn 0.51077 0.25939 0.12830
 N388 N 0.52817 0.28859 0.14668
 C389 C 0.47060 0.29441 0.11184
 N390 N 0.48575 0.27396 0.10271
 C391 C 0.48242 0.26436 0.07683
 C392 C 0.46243 0.27477 0.05940
 C393 C 0.45051 0.30542 0.09513
 C394 C 0.56501 0.24639 0.11058
 C395 C 0.58448 0.23067 0.09784
 C396 C 0.54730 0.19942 0.08530
 C397 C 0.52855 0.21581 0.09812
 N398 N 0.53755 0.23896 0.11017
 H399 H 0.47376 0.30184 0.13243
 H400 H 0.49477 0.24828 0.06980
 H401 H 0.45947 0.26601 0.03934
 H402 H 0.43847 0.32144 0.10306
 H403 H 0.57196 0.26443 0.12092
 H404 H 0.60618 0.23717 0.09816
 H405 H 0.53947 0.18088 0.07649
 H406 H 0.50672 0.20988 0.09884
 C407 C 0.54962 0.33604 0.16886
 C408 C 0.45763 0.19369 0.17214
 C409 C 0.57574 0.20692 0.08471
 C410 C 0.44596 0.29549 0.06858
 C411 C 0.96911 0.71588 0.67640
 H412 H 0.96227 0.73612 0.67541
 C413 C 0.95140 0.69573 0.68695
 H414 H 0.93117 0.70071 0.69460
 C415 C 1.00294 0.68446 0.66580
 H416 H 1.02262 0.67996 0.65670
 C417 C 0.98612 0.66381 0.67659
 H418 H 0.99308 0.64358 0.67566
 N419 N 0.99382 0.70974 0.66502
 C420 C 1.04818 0.77958 0.65246
 H421 H 1.05625 0.77381 0.63280
 C422 C 1.05751 0.80344 0.66420
 H423 H 1.07263 0.81604 0.65339
 C424 C 1.01822 0.77051 0.69007
 H425 H 1.00247 0.75784 0.69974
 C426 C 1.02740 0.79423 0.70287
 H427 H 1.01857 0.79982 0.72230
 Zn428 Zn 1.01355 0.73549 0.64349
 N429 N 1.02814 0.76414 0.66490
 C430 C 0.99709 0.77208 0.60290
 N431 N 0.98913 0.74946 0.61663
 C432 C 0.96354 0.73768 0.61245
 C433 C 0.94432 0.74956 0.59527
 C434 C 0.97856 0.78462 0.58553
 C435 C 1.06751 0.71634 0.63971
 C436 C 1.08975 0.70419 0.62719
 C437 C 1.06131 0.69735 0.58674
 C438 C 1.03975 0.70995 0.59990
 N439 N 1.04325 0.71917 0.62586
 H440 H 1.01755 0.78102 0.60598
 H441 H 0.95775 0.71924 0.62272
 H442 H 0.92385 0.74018 0.59280
 H443 H 0.98511 0.80332 0.57610
 H444 H 1.06953 0.72351 0.66052
 H445 H 1.10882 0.70192 0.63859
 H446 H 1.05822 0.69014 0.56603
 H447 H 1.02013 0.71220 0.58947
 C448 C 1.04663 0.81129 0.68934
 C449 C 0.95950 0.66919 0.68616
 C450 C 1.08678 0.69456 0.60032
 C451 C 0.95154 0.77363 0.58189
 C452 C 0.54200 0.74930 0.34792
 H453 H 0.55401 0.76679 0.35417
 C454 C 0.55534 0.72897 0.33446
 H455 H 0.57731 0.73147 0.33006
 C456 C 0.49941 0.72410 0.34732
 H457 H 0.47790 0.72183 0.35349
 C458 C 0.51198 0.70321 0.33380
 H459 H 0.49990 0.68507 0.32949
 N460 N 0.51481 0.74609 0.35513
 C461 C 0.47497 0.81479 0.38978
 H462 H 0.48017 0.81069 0.41091
 C463 C 0.46153 0.83795 0.38316
 H464 H 0.45662 0.85065 0.40005
 C465 C 0.47560 0.80170 0.34330
 H466 H 0.48136 0.78746 0.32794
 C467 C 0.46208 0.82481 0.33562
 H468 H 0.45762 0.82785 0.31411
 Zn469 Zn 0.50076 0.76771 0.38336
 N470 N 0.48163 0.79720 0.37007
 C471 C 0.54612 0.80231 0.39279
 N472 N 0.53099 0.78187 0.40442
 C473 C 0.53733 0.77260 0.42980
 C474 C 0.56052 0.78321 0.44391
 C475 C 0.56946 0.81335 0.40604
 C476 C 0.44964 0.75261 0.40869
 C477 C 0.43112 0.73588 0.42318
 C478 C 0.46788 0.70516 0.42994
 C479 C 0.48577 0.72259 0.41540
 N480 N 0.47647 0.74586 0.40521
 H481 H 0.54017 0.80984 0.37293
 H482 H 0.52470 0.75681 0.43904
 H483 H 0.56563 0.77529 0.46387
 H484 H 0.58111 0.82960 0.39630
 H485 H 0.44230 0.77076 0.39983
 H486 H 0.40988 0.74178 0.42565
 H487 H 0.47571 0.68647 0.43705
 H488 H 0.50698 0.71728 0.41166
 C489 C 0.45483 0.84369 0.35561
 C490 C 0.54064 0.70499 0.32860
 C491 C 0.44006 0.71174 0.43407
 C492 C 0.57725 0.80347 0.43174
 C493 C 0.36252 0.00218 0.20748
 C494 C 0.37548 0.01306 0.23085
 C495 C 0.38987 0.03779 0.22916
 C496 C 0.39125 0.05190 0.20433
 C497 C 0.37730 0.04128 0.18126
 C498 C 0.36285 0.01642 0.18265
 C499 C 0.37184 -0.00003 0.25772
 C500 C 0.38341 -0.02467 0.26326
 C501 C 0.38084 -0.03620 0.28951
 C502 C 0.36579 -0.02298 0.30974
 C503 C 0.35362 0.00140 0.30420
 C504 C 0.35722 0.01292 0.27818
 H505 H 0.35111 -0.01679 0.20900
 H506 H 0.39945 0.04625 0.24744
 H507 H 0.39540 -0.03402 0.24750
 H508 H 0.34903 0.03224 0.27370
 H509 H 0.37836 0.05208 0.16204
 H510 H 0.36334 -0.03182 0.32990
 C511 C 0.12927 1.00757 0.71519
 C512 C 0.11386 0.99551 0.73653
 C513 C 0.09995 0.97075 0.73237
 C514 C 0.10076 0.95842 0.70665
 C515 C 0.11689 0.97039 0.68573
 C516 C 0.13143 0.99477 0.68985
 C517 C 0.11286 1.00875 0.76332
 C518 C 0.09788 1.03182 0.76648
 C519 C 0.09806 1.04527 0.79162
 C520 C 0.11382 1.03563 0.81358
 C521 C 0.12892 1.01229 0.81069
 C522 C 0.12802 0.99895 0.78536
 H523 H 0.14012 1.02658 0.71863
 H524 H 0.08797 0.96154 0.74885
 H525 H 0.08638 1.03946 0.74923
 H526 H 0.13970 0.98117 0.78237
 H527 H 0.11796 0.96069 0.66602
 H528 H 0.11345 1.04596 0.83297
 C529 C 0.62642 0.53391 0.20855
 C530 C 0.61141 0.51870 0.22800
 C531 C 0.60045 0.49330 0.22102
 C532 C 0.60376 0.48343 0.19438
 C533 C 0.61926 0.49879 0.17526
 C534 C 0.63065 0.52408 0.18205
 C535 C 0.60781 0.52958 0.25574
 C536 C 0.59470 0.55379 0.25920
 C537 C 0.59377 0.56578 0.28508
 C538 C 0.60653 0.55353 0.30746
 C539 C 0.61965 0.52920 0.30432
 C540 C 0.61972 0.51711 0.27838
 H541 H 0.63556 0.55302 0.21464
 H542 H 0.58875 0.48163 0.23606
 H543 H 0.58588 0.56359 0.24158
 H544 H 0.63025 0.49865 0.27545
 H545 H 0.62261 0.49096 0.15494
 H546 H 0.60567 0.56277 0.32744
 C547 C 0.84197 0.48842 0.70936
 C548 C 0.85570 0.49642 0.73355
 C549 C 0.87419 0.51859 0.73328
 C550 C 0.87884 0.53302 0.70912
 C551 C 0.86505 0.52506 0.68501
 C552 C 0.84628 0.50279 0.68474
 C553 C 0.84905 0.48336 0.75988
 C554 C 0.86024 0.45883 0.76682
 C555 C 0.85648 0.44815 0.79331
 C556 C 0.83972 0.46160 0.81200
 C557 C 0.82909 0.48643 0.80542
 C558 C 0.83399 0.49723 0.77936
 H559 H 0.82737 0.47148 0.71005
 H560 H 0.88431 0.52507 0.75212
 H561 H 0.87322 0.44902 0.75216
 H562 H 0.82646 0.51672 0.77430
 H563 H 0.86970 0.53624 0.66656
 H564 H 0.83607 0.45353 0.83228
 C565 C 0.21400 0.35438 -0.00669
 C566 C 0.23632 0.36667 0.00775
 C567 C 0.23172 0.37711 0.03401
 C568 C 0.20535 0.37474 0.04601
 C569 C 0.18338 0.36234 0.03140
 C570 C 0.18748 0.35176 0.00520
 C571 C 0.26484 0.36674 -0.00360
 C572 C 0.27025 0.37462 -0.03080
 C573 C 0.29720 0.37346 -0.04162
 C574 C 0.31876 0.36473 -0.02475
 C575 C 0.31376 0.35682 0.00242
 C576 C 0.28665 0.35780 0.01277
 H577 H 0.21758 0.34587 -0.02669
 H578 H 0.24878 0.38657 0.04532
 H579 H 0.25349 0.38145 -0.04355
 H580 H 0.28210 0.35072 0.03329
 H581 H 0.16284 0.36153 0.04039
 H582 H 0.33976 0.36463 -0.03259
 C583 C 0.73082 0.13243 1.03047
 C584 C 0.75033 0.12095 1.01326
 C585 C 0.74247 0.11265 0.98686
 C586 C 0.71530 0.11578 0.97741
 C587 C 0.69600 0.12744 0.99478
 C588 C 0.70355 0.13636 1.02118
 C589 C 0.77945 0.11877 1.02223
 C590 C 0.78601 0.10386 1.04554
 C591 C 0.81385 0.10094 1.05327
 C592 C 0.83502 0.11422 1.03803
 C593 C 0.82872 0.12928 1.01466
 C594 C 0.80080 0.13130 1.00691
 H595 H 0.73726 0.13849 1.05083
 H596 H 0.75768 0.10393 0.97362
 H597 H 0.76945 0.09384 1.05705
 H598 H 0.79553 0.14270 0.98888
 H599 H 0.67490 0.12962 0.98771
 H600 H 0.85636 0.11339 1.04480
 C601 C 0.21580 0.61791 0.51580
 C602 C 0.23726 0.61025 0.49841
 C603 C 0.23084 0.60163 0.47167
 C604 C 0.20334 0.60127 0.46214
 C605 C 0.18216 0.60897 0.47980
 C606 C 0.18811 0.61729 0.50670
 C607 C 0.26653 0.61313 0.50765
 C608 C 0.27458 0.60315 0.53323
 C609 C 0.30198 0.60715 0.54269
 C610 C 0.32131 0.62139 0.52613
 C611 C 0.31350 0.63203 0.50071
 C612 C 0.28610 0.62723 0.49141
 H613 H 0.22079 0.62500 0.53624
 H614 H 0.24732 0.59583 0.45811
 H615 H 0.25940 0.59237 0.54581
 H616 H 0.27965 0.63469 0.47169
 H617 H 0.16101 0.60893 0.47229
 H618 H 0.34259 0.62429 0.53298
 C619 C 0.72397 0.85388 0.51622
 C620 C 0.74809 0.86391 0.52934
 C621 C 0.74597 0.87745 0.55433
 C622 C 0.71978 0.88161 0.56580
 C623 C 0.69583 0.87122 0.55250
 C624 C 0.69773 0.85696 0.52793
 C625 C 0.77547 0.86012 0.51675
 C626 C 0.78087 0.86929 0.49008
 C627 C 0.80651 0.86505 0.47756
 C628 C 0.82669 0.85111 0.49211
 C629 C 0.82139 0.84133 0.51870
 C630 C 0.79583 0.84654 0.53107
 H631 H 0.72578 0.84313 0.49712
 H632 H 0.76462 0.88569 0.56407
 H633 H 0.76499 0.87975 0.47909
 H634 H 0.79144 0.83999 0.55180
 H635 H 0.67561 0.87468 0.56116
 H636 H 0.84666 0.84793 0.48282
 C637 C -0.02735 0.20985 0.35980
 C638 C -0.01181 0.23188 0.37002
 C639 C 0.01443 0.22822 0.38161
 C640 C 0.02521 0.20273 0.38346
 C641 C 0.00974 0.18097 0.37245
 C642 C -0.01642 0.18422 0.36024
 C643 C -0.02255 0.25902 0.36823
 C644 C -0.04867 0.26457 0.37896
 C645 C -0.05820 0.29071 0.37851
 C646 C -0.04161 0.31105 0.36613
 C647 C -0.01531 0.30579 0.35554
 C648 C -0.00600 0.27968 0.35666
 H649 H -0.04772 0.21301 0.35130
 H650 H 0.02635 0.24543 0.38905
 H651 H -0.06129 0.24854 0.38796
 H652 H 0.01403 0.27521 0.34812
 H653 H 0.01822 0.16132 0.37332
 H654 H -0.04862 0.33129 0.36579
 C655 C 1.02693 0.71879 0.13697
 C656 C 1.01103 0.73945 0.12673
 C657 C 0.98396 0.73380 0.11698
 C658 C 0.97265 0.70763 0.11746
 C659 C 0.98889 0.68717 0.12772
 C660 C 1.01590 0.69247 0.13775
 C661 C 1.02237 0.76717 0.12707
 C662 C 1.04606 0.77446 0.11168
 C663 C 1.05571 0.80114 0.11070
 C664 C 1.04241 0.82022 0.12645
 C665 C 1.01939 0.81305 0.14291
 C666 C 1.00913 0.78648 0.14253
 H667 H 1.04741 0.72357 0.14521
 H668 H 0.97172 0.74983 0.10919
 H669 H 1.05612 0.75962 0.09951
 H670 H 0.99107 0.78058 0.15462
 H671 H 0.98072 0.66679 0.12743
 H672 H 1.04991 0.84078 0.12542
 C673 C 0.50250 0.20163 0.63483
 C674 C 0.48828 0.22248 0.62268
 C675 C 0.46184 0.21740 0.61136
 C676 C 0.44923 0.19184 0.61266
 C677 C 0.46346 0.17118 0.62527
 C678 C 0.49025 0.17579 0.63629
 C679 C 0.50052 0.24986 0.62267
 C680 C 0.52668 0.25545 0.61096
 C681 C 0.53772 0.28176 0.60998
 C682 C 0.52269 0.30225 0.62182
 C683 C 0.49658 0.29684 0.63367
 C684 C 0.48554 0.27060 0.63382
 H685 H 0.52294 0.20573 0.64352
 H686 H 0.45090 0.23351 0.60189
 H687 H 0.53764 0.23949 0.60143
 H688 H 0.46547 0.26615 0.64311
 H689 H 0.45345 0.15158 0.62658
 H690 H 0.53100 0.32261 0.62120
 C691 C 0.49541 0.71198 0.84795
 C692 C 0.51163 0.73265 0.85995
 C693 C 0.53633 0.72685 0.87366
 C694 C 0.54440 0.70041 0.87620
 C695 C 0.52814 0.67995 0.86375
 C696 C 0.50350 0.68541 0.84968
 C697 C 0.50178 0.76013 0.85944
 C698 C 0.47573 0.76540 0.87057
 C699 C 0.46639 0.79150 0.87122
 C700 C 0.48313 0.81217 0.85983
 C701 C 0.50906 0.80726 0.84807
 C702 C 0.51847 0.78106 0.84848
 H703 H 0.47678 0.71694 0.83693
 H704 H 0.54850 0.74276 0.88345
 H705 H 0.46338 0.74927 0.87974
 H706 H 0.53873 0.77671 0.84049
 H707 H 0.53461 0.65959 0.86526
 H708 H 0.47566 0.83224 0.85988
 C709 C 0.42120 -0.10662 0.31265
 C710 C 0.41508 -0.08707 0.33180
 N711 N 0.42217 -0.09039 0.35836
 C712 C 0.43508 -0.11247 0.36690
 C713 C 0.44139 -0.13268 0.34788
 N714 N 0.43413 -0.12882 0.32106
 N715 N 0.41401 -0.10311 0.28598
 C716 C 0.40103 -0.08082 0.27766
 C717 C 0.39491 -0.06105 0.29695
 N718 N 0.40217 -0.06494 0.32359
 H719 H 0.44032 -0.11345 0.38830
 H720 H 0.39522 -0.07889 0.25637
 C721 C 0.90398 0.38295 0.81869
 C722 C 0.89613 0.38559 0.79121
 N723 N 0.90471 0.36753 0.77265
 C724 C 0.92075 0.34698 0.78038
 C725 C 0.92874 0.34436 0.80806
 N726 N 0.91993 0.36262 0.82633
 N727 N 0.89607 0.40105 0.83731
 C728 C 0.88050 0.42178 0.82980
 C729 C 0.87221 0.42467 0.80224
 N730 N 0.88052 0.40640 0.78354
 H731 H 0.92754 0.33330 0.76495
 H732 H 0.87557 0.43624 0.84522
 C733 C 0.05263 1.11522 0.80044
 C734 C 0.08026 1.11435 0.80956
 N735 N 0.09265 1.13630 0.82109
 C736 C 0.07866 1.15910 0.82403
 C737 C 0.05078 1.16000 0.81534
 N738 N 0.03845 1.13785 0.80380
 N739 N 0.04039 1.09336 0.78854
 C740 C 0.05454 1.07066 0.78534
 C741 C 0.08211 1.06959 0.79480
 N742 N 0.09425 1.09157 0.80678
 H743 H 0.08896 1.17605 0.83388
 H744 H 0.04427 1.05348 0.77585
 C745 C 0.55533 0.63910 0.29808
 C746 C 0.58119 0.63400 0.30990
 N747 N 0.59387 0.65251 0.32628
 C748 C 0.58179 0.67591 0.33164
 C749 C 0.55553 0.68100 0.32039
 N750 N 0.54292 0.66229 0.30384
 N751 N 0.54280 0.62052 0.28154
 C752 C 0.55491 0.59698 0.27645
 C753 C 0.58051 0.59156 0.28884
 N754 N 0.59299 0.61036 0.30525
 H755 H 0.59215 0.68988 0.34545
 H756 H 0.54431 0.58239 0.26347
 C757 C 0.56954 0.40819 0.16998
 C758 C 0.57952 0.41200 0.19673
 N759 N 0.57909 0.39102 0.21440
 C760 C 0.56927 0.36640 0.20646
 C761 C 0.55955 0.36246 0.17945
 N762 N 0.55995 0.38372 0.16206
 N763 N 0.56994 0.42890 0.15214
 C764 C 0.58030 0.45331 0.15967
 C765 C 0.59103 0.45726 0.18628
 N766 N 0.59003 0.43643 0.20434
 H767 H 0.56975 0.35006 0.22090
 H768 H 0.58003 0.46947 0.14499
 C769 C 0.06238 0.88368 0.68796
 C770 C 0.07285 0.88863 0.71438
 N771 N 0.07266 0.86845 0.73303
 C772 C 0.06300 0.84344 0.72620
 C773 C 0.05380 0.83832 0.69931
 N774 N 0.05347 0.85876 0.68103
 N775 N 0.06231 0.90358 0.66921
 C776 C 0.07312 0.92815 0.67534
 C777 C 0.08525 0.93297 0.70122
 N778 N 0.08426 0.91314 0.72042
 H779 H 0.06360 0.82755 0.74118
 H780 H 0.07276 0.94361 0.65988
 C781 C 0.93176 0.60205 0.70661
 C782 C 0.90442 0.60248 0.69663
 N783 N 0.89502 0.62514 0.68537
 C784 C 0.91186 0.64738 0.68320
 C785 C 0.93962 0.64681 0.69223
 N786 N 0.94882 0.62404 0.70382
 N787 N 0.94102 0.57940 0.71814
 C788 C 0.92423 0.55705 0.71989
 C789 C 0.89717 0.55719 0.70906
 N790 N 0.88791 0.58002 0.69777
 H791 H 0.90399 0.66488 0.67333
 H792 H 0.93214 0.53915 0.72895
 C793 C 0.43577 0.12611 0.19756
 C794 C 0.41058 0.12142 0.18357
 N795 N 0.40057 0.14067 0.16719
 C796 C 0.41469 0.16442 0.16397
 C797 C 0.44026 0.16918 0.17759
 N798 N 0.45012 0.14969 0.19408
 N799 N 0.44581 0.10674 0.21384
 C800 C 0.43181 0.08286 0.21675
 C801 C 0.40669 0.07793 0.20246
 N802 N 0.39677 0.09748 0.18617
 H803 H 0.40645 0.17891 0.15003
 H804 H 0.44058 0.06769 0.22955
 C805 C 0.31833 0.40062 -0.12136
 C806 C 0.29730 0.41262 -0.10660
 N807 N 0.28498 0.43415 -0.11739
 C808 C 0.29317 0.44460 -0.14200
 C809 C 0.31511 0.43322 -0.15647
 N810 N 0.32673 0.41120 -0.14565
 N811 N 0.33073 0.37910 -0.11081
 C812 C 0.32353 0.36935 -0.08575
 C813 C 0.30324 0.38194 -0.07019
 N814 N 0.29025 0.40311 -0.08133
 H815 H 0.28265 0.46163 -0.14982
 H816 H 0.33378 0.35208 -0.07799
 C817 C 0.82311 0.89611 0.39809
 C818 C 0.80509 0.90883 0.41581
 N819 N 0.79328 0.93166 0.40759
 C820 C 0.79896 0.94254 0.38253
 C821 C 0.81747 0.93006 0.36479
 N822 N 0.82884 0.90696 0.37320
 N823 N 0.83492 0.87329 0.40614
 C824 C 0.82979 0.86268 0.43134
 C825 C 0.81210 0.87558 0.44955
 N826 N 0.79996 0.89831 0.44105
 H827 H 0.78899 0.96060 0.37662
 H828 H 0.83923 0.84423 0.43686
 C829 C 0.83389 0.05211 1.12092
 C830 C 0.80898 0.06549 1.12048
 N831 N 0.79145 0.06297 1.14216
 C832 C 0.79781 0.04786 1.16440
 C833 C 0.82322 0.03455 1.16522
 N834 N 0.84026 0.03720 1.14300
 N835 N 0.85155 0.05438 1.09942
 C836 C 0.84557 0.06977 1.07746
 C837 C 0.82078 0.08378 1.07695
 N838 N 0.80290 0.08099 1.09854
 H839 H 0.78312 0.04678 1.18102
 H840 H 0.85992 0.07068 1.06045
 C841 C 0.32730 0.57412 0.61842
 C842 C 0.30535 0.56218 0.60341
 N843 N 0.29288 0.53919 0.61271
 C844 C 0.30159 0.52743 0.63623
 C845 C 0.32410 0.53904 0.65103
 N846 N 0.33620 0.56226 0.64162
 N847 N 0.33982 0.59706 0.60926
 C848 C 0.33176 0.60844 0.58541
 C849 C 0.31034 0.59614 0.56964
 N850 N 0.29742 0.57338 0.57939
 H851 H 0.29169 0.50877 0.64265
 H852 H 0.34197 0.62697 0.57903
 C853 C 0.17992 0.57530 0.38275
 C854 C 0.20084 0.56255 0.39719
 N855 N 0.21205 0.54054 0.38631
 C856 C 0.20298 0.53049 0.36183
 C857 C 0.18139 0.54283 0.34766
 N858 N 0.17069 0.56513 0.35859
 N859 N 0.16832 0.59704 0.39358
 C860 C 0.17624 0.60634 0.41859
 C861 C 0.19648 0.59310 0.43373
 N862 N 0.20865 0.57167 0.42238
 H863 H 0.21178 0.51248 0.35420
 H864 H 0.16659 0.62375 0.42667
 C865 C 0.69053 0.08840 0.89868
 C866 C 0.71135 0.07578 0.91320
 N867 N 0.72293 0.05402 0.90226
 C868 C 0.71441 0.04408 0.87754
 C869 C 0.69283 0.05633 0.86296
 N870 N 0.68186 0.07841 0.87427
 N871 N 0.67887 0.11019 0.90935
 C872 C 0.68678 0.11973 0.93428
 C873 C 0.70715 0.10671 0.94950
 N874 N 0.71920 0.08514 0.93827
 H875 H 0.72415 0.02654 0.87015
 H876 H 0.67731 0.13740 0.94194
 C877 C 0.70878 0.92871 0.63663
 C878 C 0.69014 0.92924 0.61452
 N879 N 0.66786 0.94482 0.61569
 C880 C 0.66326 0.96001 0.63801
 C881 C 0.68172 0.95957 0.66044
 N882 N 0.70406 0.94369 0.65922
 N883 N 0.73113 0.91306 0.63516
 C884 C 0.73561 0.89789 0.61260
 C885 C 0.71667 0.89816 0.59057
 N886 N 0.69441 0.91394 0.59227
 H887 H 0.64491 0.97176 0.63848
 H888 H 0.75339 0.88538 0.61214
 C889 C 0.18607 0.40579 0.12371
 C890 C 0.20261 0.42085 0.10535
 N891 N 0.21033 0.44635 0.11178
 C892 C 0.20192 0.45765 0.13554
 C893 C 0.18469 0.44278 0.15384
 N894 N 0.17757 0.41706 0.14726
 N895 N 0.17758 0.38056 0.11714
 C896 C 0.18441 0.36983 0.09270
 C897 C 0.20035 0.38506 0.07380
 N898 N 0.20943 0.41019 0.08079
 H899 H 0.20787 0.47825 0.13930
 H900 H 0.17713 0.34972 0.08787
 C901 C -0.13193 0.31315 0.41831
 C902 C -0.12245 0.32627 0.39452
 N903 N -0.13629 0.34726 0.38470
 C904 C -0.15893 0.35612 0.39788
 C905 C -0.16806 0.34367 0.42234
 N906 N -0.15444 0.32212 0.43170
 N907 N -0.11790 0.29221 0.42813
 C908 C -0.09468 0.28394 0.41537
 C909 C -0.08476 0.29739 0.39174
 N910 N -0.09914 0.31824 0.38196
 H911 H -0.16961 0.37276 0.38927
 H912 H -0.08360 0.26768 0.42424
 C913 C 0.39105 0.81188 0.90941
 C914 C 0.41448 0.82935 0.90949
 N915 N 0.41319 0.85347 0.92164
 C916 C 0.38933 0.86121 0.93338
 C917 C 0.36539 0.84416 0.93276
 N918 N 0.36701 0.81964 0.92101
 N919 N 0.39261 0.78770 0.89721
 C920 C 0.41652 0.78027 0.88502
 C921 C 0.43998 0.79794 0.88481
 N922 N 0.43816 0.82205 0.89720
 H923 H 0.38917 0.88049 0.94319
 H924 H 0.41694 0.76107 0.87508
 C925 C 1.12242 0.82720 0.05993
 C926 C 1.12454 0.80411 0.07589
 N927 N 1.14864 0.79087 0.07566
 C928 C 1.17076 0.79980 0.06035
 C929 C 1.16868 0.82307 0.04441
 N930 N 1.14434 0.83598 0.04466
 N931 N 1.09868 0.84080 0.06026
 C932 C 1.07690 0.83255 0.07612
 C933 C 1.07888 0.80959 0.09246
 N934 N 1.10268 0.79569 0.09173
 H935 H 1.18958 0.78873 0.06051
 H936 H 1.05818 0.84380 0.07594
 C937 C 0.60983 0.30196 0.56349
 C938 C 0.58752 0.31905 0.56502
 N939 N 0.58854 0.34235 0.55100
 C940 C 0.61083 0.34940 0.53532
 C941 C 0.63335 0.33238 0.53348
 N942 N 0.63235 0.30906 0.54793
 N943 N 0.60851 0.27857 0.57756
 C944 C 0.58581 0.27145 0.59292
 C945 C 0.56339 0.28861 0.59443
 N946 N 0.56506 0.31206 0.58041
 H947 H 0.61116 0.36846 0.52494
 H948 H 0.58543 0.25276 0.60399
 C949 C 0.36977 0.17652 0.57770
 C950 C 0.38926 0.19361 0.56462
 N951 N 0.38283 0.20455 0.54002
 C952 C 0.35786 0.19889 0.52776
 C953 C 0.33835 0.18151 0.54073
 N954 N 0.34494 0.17097 0.56554
 N955 N 0.37619 0.16519 0.60203
 C956 C 0.40145 0.16995 0.61385
 C957 C 0.42128 0.18684 0.60073
 N958 N 0.41450 0.19850 0.57646
 H959 H 0.35334 0.20786 0.50816
 H960 H 0.40589 0.16078 0.63337
 C961 C 0.89345 0.68668 0.08409
 C962 C 0.90921 0.70832 0.07341
 N963 N 0.89967 0.72142 0.05109
 C964 C 0.87529 0.71357 0.03873
 C965 C 0.85993 0.69126 0.04888
 N966 N 0.86948 0.67860 0.07154
 N967 N 0.90277 0.67349 0.10633
 C968 C 0.92756 0.68048 0.11805
 C969 C 0.94422 0.70141 0.10676
 N970 N 0.93428 0.71515 0.08488
 H971 H 0.86863 0.72397 0.02058
 H972 H 0.93421 0.66962 0.13591
 C973 C 0.61470 0.68145 0.92370
 C974 C 0.61522 0.70448 0.90742
 N975 N 0.63867 0.72042 0.90670
 C976 C 0.66168 0.71424 0.92139
 C977 C 0.66122 0.69102 0.93768
 N978 N 0.63750 0.67537 0.93835
 N979 N 0.59150 0.66532 0.92447
 C980 C 0.56872 0.67103 0.90947
 C981 C 0.56906 0.69397 0.89282
 N982 N 0.59236 0.71034 0.89244
 H983 H 0.67994 0.72744 0.92050
 H984 H 0.55042 0.65792 0.91086
 C985 C 0.10231 0.18777 0.42186
 C986 C 0.09137 0.17100 0.40124
 N987 N 0.10488 0.14886 0.39420
 C988 C 0.12865 0.14243 0.40721
 C989 C 0.13941 0.15883 0.42836
 N990 N 0.12608 0.18136 0.43496
 N991 N 0.08834 0.20956 0.42925
 C992 C 0.06383 0.21530 0.41704
 C993 C 0.05262 0.19838 0.39644
 N994 N 0.06695 0.17666 0.38913
 H995 H 0.13891 0.12454 0.40131
 H996 H 0.05295 0.23240 0.42409
 C997 C 0.53287 0.11474 0.67727
 C998 C 0.53820 0.14166 0.68361
 N999 N 0.55725 0.14840 0.70316
 C1000 C 0.57142 0.12940 0.71656
 C1001 C 0.56626 0.10232 0.71020
 N1002 N 0.54689 0.09572 0.69072
 N1003 N 0.51412 0.10806 0.65744
 C1004 C 0.50023 0.12708 0.64376
 C1005 C 0.50517 0.15420 0.65028
 N1006 N 0.52427 0.16066 0.67008
 H1007 H 0.58636 0.13539 0.73217
 H1008 H 0.48592 0.12095 0.62769
 C1009 C 1.05896 0.62841 0.17279
 C1010 C 1.02988 0.62840 0.17253
 N1011 N 1.01503 0.60753 0.18350
 C1012 C 1.02794 0.58663 0.19494
 C1013 C 1.05719 0.58651 0.19550
 N1014 N 1.07193 0.60751 0.18416
 N1015 N 1.07373 0.64928 0.16161
 C1016 C 1.06071 0.67024 0.15025
 C1017 C 1.03145 0.67036 0.14999
 N1018 N 1.01690 0.64921 0.16117
 H1019 H 1.01539 0.57013 0.20304
 H1020 H 1.07314 0.68629 0.14112
 C1021 C 0.97823 0.87109 0.18926
 C1022 C 0.96413 0.84771 0.18047
 N1023 N 0.93679 0.84376 0.18639
 C1024 C 0.92273 0.86235 0.20032
 C1025 C 0.93656 0.88631 0.20854
 N1026 N 0.96419 0.88980 0.20299
 N1027 N 1.00566 0.87487 0.18366
 C1028 C 1.01959 0.85650 0.16926
 C1029 C 1.00536 0.83325 0.15965
 N1030 N 0.97792 0.82944 0.16591
 H1031 H 0.90106 0.85827 0.20499
 H1032 H 1.04156 0.86003 0.16569
 C1033 C 0.45166 0.35916 0.66844
 C1034 C 0.48035 0.35762 0.67291
 N1035 N 0.49371 0.37606 0.68900
 C1036 C 0.47966 0.39595 0.70091
 C1037 C 0.45091 0.39768 0.69634
 N1038 N 0.43770 0.37919 0.68004
 N1039 N 0.43817 0.34049 0.65277
 C1040 C 0.45206 0.32023 0.64141
 C1041 C 0.48086 0.31864 0.64569
 N1042 N 0.49432 0.33758 0.66130
 H1043 H 0.49091 0.41048 0.71345
 H1044 H 0.44080 0.30571 0.62886
 C1045 C 0.45615 0.62067 0.81502
 C1046 C 0.48468 0.61890 0.81987
 N1047 N 0.49737 0.59598 0.81395
 C1048 C 0.48284 0.57471 0.80320
 C1049 C 0.45413 0.57638 0.79799
 N1050 N 0.44161 0.59949 0.80425
 N1051 N 0.44336 0.64343 0.82142
 C1052 C 0.45785 0.66462 0.83239
 C1053 C 0.48666 0.66310 0.83716
 N1054 N 0.49919 0.64002 0.83078
 H1055 H 0.49364 0.55664 0.79934
 H1056 H 0.44671 0.68209 0.83783
 C1057 C -0.05673 0.11637 0.32349
 C1058 C -0.03650 0.11354 0.34379
 N1059 N -0.02885 0.08879 0.35115
 C1060 C -0.04060 0.06664 0.33914
 C1061 C -0.06107 0.06931 0.31870
 N1062 N -0.06846 0.09434 0.31150
 N1063 N -0.06399 0.14110 0.31571
 C1064 C -0.05191 0.16326 0.32732
 C1065 C -0.03149 0.16066 0.34784
 N1066 N -0.02439 0.13562 0.35541
 H1067 H -0.03350 0.04735 0.34521
 H1068 H -0.05776 0.18252 0.31987
 C1069 C 0.03573 0.36833 0.32208
 C1070 C 0.00688 0.36766 0.31800
 N1071 N -0.00470 0.38715 0.30297
 C1072 C 0.01129 0.40726 0.29173
 C1073 C 0.04029 0.40805 0.29579
 N1074 N 0.05166 0.38847 0.31105
 N1075 N 0.04740 0.34884 0.33696
 C1076 C 0.03154 0.32854 0.34787
 C1077 C 0.00254 0.32765 0.34384
 N1078 N -0.00906 0.34748 0.32907
 H1079 H 0.00137 0.42266 0.28018
 H1080 H 0.04147 0.31349 0.35993
 C1081 C 0.55461 0.87299 0.81288
 C1082 C 0.53439 0.87672 0.83291
 N1083 N 0.52862 0.90176 0.84084
 C1084 C 0.54232 0.92335 0.82977
 C1085 C 0.56292 0.91982 0.80979
 N1086 N 0.56835 0.89453 0.80179
 N1087 N 0.56003 0.84791 0.80472
 C1088 C 0.54614 0.82632 0.81572
 C1089 C 0.52578 0.82991 0.83596
 N1090 N 0.52054 0.85525 0.84387
 H1091 H 0.53675 0.94299 0.83627
 H1092 H 0.55059 0.80675 0.80814
 C1093 C 0.67812 0.56723 0.12237
 C1094 C 0.67540 0.53947 0.12154
 N1095 N 0.68784 0.52611 0.10119
 C1096 C 0.70274 0.53921 0.08135
 C1097 C 0.70550 0.56748 0.08167
 N1098 N 0.69298 0.58038 0.10268
 N1099 N 0.66538 0.58071 0.14252
 C1100 C 0.65007 0.56757 0.16203
 C1101 C 0.64736 0.53951 0.16145
 N1102 N 0.66019 0.52628 0.14099
 H1103 H 0.71216 0.52716 0.06600
 H1104 H 0.63971 0.57906 0.17734
 C1105 C 0.17522 1.03035 0.62327
 C1106 C 0.16238 1.04608 0.64288
 N1107 N 0.16292 1.07292 0.63976
 C1108 C 0.17528 1.08476 0.61763
 C1109 C 0.18745 1.06900 0.59737
 N1110 N 0.18735 1.04211 0.60107
 N1111 N 0.17487 1.00353 0.62643
 C1112 C 0.16174 0.99161 0.64806
 C1113 C 0.14794 1.00720 0.66734
 N1114 N 0.14903 1.03420 0.66438
 H1115 H 0.17564 1.10624 0.61609
 H1116 H 0.16206 0.97017 0.65008
 C1117 C 0.17681 0.97847 0.87441
 C1118 C 0.16720 0.96338 0.85210
 N1119 N 0.17343 0.93745 0.85030
 C1120 C 0.18895 0.92567 0.86978
 C1121 C 0.19902 0.94056 0.89274
 N1122 N 0.19233 0.96680 0.89407
 N1123 N 0.17062 1.00459 0.87594
 C1124 C 0.15517 1.01623 0.85610
 C1125 C 0.14533 1.00099 0.83358
 N1126 N 0.15182 0.97487 0.83241
 H1127 H 0.19259 0.90489 0.86683
 H1128 H 0.15123 1.03719 0.85779
 C1129 C 0.66128 0.49178 0.36985
 C1130 C 0.64797 0.47675 0.34913
 N1131 N 0.64863 0.44982 0.34979
 C1132 C 0.66230 0.43715 0.37006
 C1133 C 0.67631 0.45208 0.39066
 N1134 N 0.67512 0.47917 0.39009
 N1135 N 0.66046 0.51876 0.36917
 C1136 C 0.64695 0.53139 0.34867
 C1137 C 0.63368 0.51637 0.32771
 N1138 N 0.63466 0.48932 0.32859
 H1139 H 0.66183 0.41561 0.37015
 H1140 H 0.64723 0.55293 0.34846
 C1141 C 0.80408 0.47713 0.61203
 C1142 C 0.80460 0.46084 0.63536
 N1143 N 0.79171 0.43634 0.63473
 C1144 C 0.77840 0.42736 0.61174
 C1145 C 0.77822 0.44348 0.58809
 N1146 N 0.79119 0.46806 0.58891
 N1147 N 0.81645 0.50180 0.61286
 C1148 C 0.82972 0.51086 0.63582
 C1149 C 0.83120 0.49428 0.65920
 N1150 N 0.81820 0.46967 0.65819
 H1151 H 0.76873 0.40755 0.61173
 H1152 H 0.83855 0.53092 0.63552
 C1153 C 0.32153 -0.01678 0.11309
 C1154 C 0.33512 -0.03297 0.13196
 N1155 N 0.33572 -0.05958 0.12759
 C1156 C 0.32358 -0.07077 0.10503
 C1157 C 0.31008 -0.05466 0.08593
 N1158 N 0.30918 -0.02796 0.09058
 N1159 N 0.32145 0.00993 0.11730
 C1160 C 0.33450 0.02121 0.13941
 C1161 C 0.34827 0.00504 0.15833
 N1162 N 0.34797 -0.02176 0.15410
 H1163 H 0.32448 -0.09206 0.10200
 H1164 H 0.33383 0.04252 0.14233
 C1165 C 0.30929 0.04072 0.36611
 C1166 C 0.33063 0.02376 0.37298
 N1167 N 0.33724 0.02012 0.39976
 C1168 C 0.32358 0.03285 0.42000
 C1169 C 0.30229 0.05024 0.41316
 N1170 N 0.29579 0.05345 0.38619
 N1171 N 0.30230 0.04421 0.33947
 C1172 C 0.31594 0.03169 0.31921
 C1173 C 0.33783 0.01497 0.32583
 N1174 N 0.34441 0.01128 0.35276
 H1175 H 0.32922 0.02906 0.44103
 H1176 H 0.30939 0.03457 0.29825
 C1177 C 0.79594 0.53272 0.86890
 C1178 C 0.81438 0.54412 0.84959
 N1179 N 0.82316 0.56998 0.85223
 C1180 C 0.81457 0.58495 0.87352
 C1181 C 0.79627 0.57358 0.89312
 N1182 N 0.78720 0.54770 0.89010
 N1183 N 0.78775 0.50664 0.86659
 C1184 C 0.79744 0.49134 0.84601
 C1185 C 0.81614 0.50265 0.82675
 N1186 N 0.82393 0.52892 0.82899
 H1187 H 0.82187 0.60554 0.87505
 H1188 H 0.79073 0.47057 0.84476
 C1189 C 0.12407 0.64920 0.55451
 C1190 C 0.15181 0.65810 0.55795
 N1191 N 0.15803 0.67819 0.57575
 C1192 C 0.13769 0.68992 0.59016
 C1193 C 0.10975 0.68140 0.58635
 N1194 N 0.10375 0.66112 0.56857
 N1195 N 0.11783 0.62905 0.53686
 C1196 C 0.13802 0.61772 0.52197
 C1197 C 0.16583 0.62725 0.52448
 N1198 N 0.17198 0.64706 0.54283
 H1199 H 0.14326 0.70622 0.60379
 H1200 H 0.13227 0.60152 0.50830
 C1201 C 0.64340 0.17847 1.06563
 C1202 C 0.63558 0.16096 1.04449
 N1203 N 0.60851 0.15842 1.03687
 C1204 C 0.58879 0.17261 1.04949
 C1205 C 0.59642 0.19030 1.07086
 N1206 N 0.62376 0.19271 1.07826
 N1207 N 0.67062 0.18145 1.07272
 C1208 C 0.69044 0.16780 1.05950
 C1209 C 0.68275 0.15025 1.03800
 N1210 N 0.65529 0.14741 1.03126
 H1211 H 0.56760 0.17049 1.04227
 H1212 H 0.71191 0.17145 1.06526
 C1213 C 0.89088 0.16958 0.96693
 C1214 C 0.86413 0.17920 0.96890
 N1215 N 0.85779 0.20159 0.95515
 C1216 C 0.87690 0.21488 0.93927
 C1217 C 0.90418 0.20530 0.93671
 N1218 N 0.91004 0.18272 0.95104
 N1219 N 0.89720 0.14704 0.98062
 C1220 C 0.87788 0.13370 0.99629
 C1221 C 0.85084 0.14332 0.99838
 N1222 N 0.84479 0.16592 0.98442
 H1223 H 0.87017 0.23256 0.92913
 H1224 H 0.88350 0.11551 1.00644
 C1225 C 0.37275 0.68039 0.45700
 C1226 C 0.38122 0.66106 0.47562
 N1227 N 0.40873 0.65837 0.48049
 C1228 C 0.42822 0.67412 0.46750
 C1229 C 0.41984 0.69359 0.44864
 N1230 N 0.39212 0.69610 0.44404
 N1231 N 0.34526 0.68350 0.45253
 C1232 C 0.32575 0.66811 0.46584
 C1233 C 0.33404 0.64850 0.48460
 N1234 N 0.36178 0.64566 0.48896
 H1235 H 0.44986 0.67172 0.47242
 H1236 H 0.30410 0.67186 0.46228
 C1237 C 0.62591 0.82513 0.48741
 C1238 C 0.64926 0.83436 0.47257
 N1239 N 0.64889 0.83320 0.44483
 C1240 C 0.62611 0.82338 0.43117
 C1241 C 0.60248 0.81425 0.44592
 N1242 N 0.60316 0.81522 0.47382
 N1243 N 0.62634 0.82627 0.51517
 C1244 C 0.64903 0.83638 0.52879
 C1245 C 0.67250 0.84583 0.51399
 N1246 N 0.67194 0.84436 0.48613
 H1247 H 0.62670 0.82237 0.40906
 H1248 H 0.64883 0.83660 0.55094
 C1249 C 0.11962 0.31445 -0.03720
 C1250 C 0.14133 0.32751 -0.05157
 N1251 N 0.14024 0.32864 -0.07931
 C1252 C 0.11825 0.31760 -0.09335
 C1253 C 0.09598 0.30497 -0.07897
 N1254 N 0.09760 0.30361 -0.05113
 N1255 N 0.12080 0.31289 -0.00951
 C1256 C 0.14254 0.32420 0.00457
 C1257 C 0.16411 0.33806 -0.00964
 N1258 N 0.16302 0.33902 -0.03754
 H1259 H 0.11853 0.31852 -0.11545
 H1260 H 0.14297 0.32214 0.02662
 C1261 C 0.38023 0.32760 0.04967
 C1262 C 0.38024 0.32583 0.02106
 N1263 N 0.40179 0.31457 0.00820
 C1264 C 0.42331 0.30477 0.02271
 C1265 C 0.42329 0.30619 0.05155
 N1266 N 0.40163 0.31780 0.06416
 N1267 N 0.35884 0.33910 0.06253
 C1268 C 0.33725 0.34877 0.04805
 C1269 C 0.33692 0.34678 0.01926
 N1270 N 0.35870 0.33542 0.00657
 H1271 H 0.44031 0.29638 0.01169
 H1272 H 0.32085 0.35825 0.05900
 C1273 C 0.88280 0.79726 0.55950
 C1274 C 0.89013 0.81558 0.53883
 N1275 N 0.91723 0.81931 0.53175
 C1276 C 0.93743 0.80581 0.54469
 C1277 C 0.93027 0.78776 0.56593
 N1278 N 0.90292 0.78387 0.57253
 N1279 N 0.85570 0.79327 0.56638
 C1280 C 0.83552 0.80698 0.55370
 C1281 C 0.84273 0.82585 0.53320
 N1282 N 0.87003 0.82938 0.52621
 H1283 H 0.95874 0.80910 0.53825
 H1284 H 0.81413 0.80272 0.55935
   
