data_POSCAR
  _audit_creation_date              2014-09-24
  _audit_creation_method            'ToBaCCo'
  _symmetry_space_group_name_H-M    'P1'
  _symmetry_Int_Tables_number       1
  _symmetry_cell_setting            triclinic
  loop_
  _symmetry_equiv_pos_as_xyz
 x,y,z
_cell_length_a 91.2272
_cell_length_b 91.2572
_cell_length_c 91.5973
_cell_angle_alpha 89.993800
_cell_angle_beta 89.992200
_cell_angle_gamma 90.011000
loop_
  _atom_site_label
  _atom_site_type_symbol
  _atom_site_fract_x
  _atom_site_fract_y
  _atom_site_fract_z
N1 N 0.18303 0.21905 0.22103
 N2 N 0.18684 0.20725 0.22837
 C3 C 0.17750 0.20541 0.23963
 C4 C 0.16740 0.21663 0.23921
 C5 C 0.17115 0.22510 0.22734
 H6 H 0.17798 0.19662 0.24753
 H7 H 0.16567 0.23491 0.22359
 Cu8 Cu 0.20363 0.19549 0.22252
 Cu9 Cu 0.19375 0.22568 0.20388
 Cu10 Cu 0.22408 0.20528 0.19354
 N11 N 0.22087 0.18435 0.21677
 N12 N 0.22882 0.18824 0.20543
 C13 C 0.24003 0.17877 0.20388
 C14 C 0.23899 0.16848 0.21484
 C15 C 0.22678 0.17227 0.22285
 H16 H 0.24832 0.17932 0.19545
 H17 H 0.22257 0.16665 0.23236
 N18 N 0.21753 0.22286 0.18291
 N19 N 0.20598 0.23064 0.18685
 C20 C 0.20433 0.24191 0.17747
 C21 C 0.21536 0.24110 0.16724
 C22 C 0.22354 0.22897 0.17092
 H23 H 0.19578 0.25009 0.17801
 H24 H 0.23313 0.22494 0.16527
 H25 H 0.20184 0.20541 0.19784
 H26 H 0.21369 0.21681 0.20999
 N27 N 0.68418 0.72030 0.72211
 N28 N 0.68832 0.70885 0.72979
 C29 C 0.67895 0.70699 0.74102
 C30 C 0.66849 0.71785 0.74025
 C31 C 0.67206 0.72612 0.72817
 H32 H 0.67965 0.69841 0.74915
 H33 H 0.66627 0.73563 0.72412
 Cu34 Cu 0.70552 0.69749 0.72436
 Cu35 Cu 0.69476 0.72679 0.70482
 Cu36 Cu 0.72514 0.70642 0.69455
 N37 N 0.72240 0.68598 0.71827
 N38 N 0.73003 0.68954 0.70660
 C39 C 0.74103 0.67985 0.70486
 C40 C 0.74017 0.66976 0.71601
 C41 C 0.72829 0.67388 0.72434
 H42 H 0.74903 0.68012 0.69615
 H43 H 0.72427 0.66846 0.73404
 N44 N 0.71846 0.72386 0.68376
 N45 N 0.70688 0.73162 0.68767
 C46 C 0.70515 0.74279 0.67820
 C47 C 0.71614 0.74194 0.66794
 C48 C 0.72440 0.72989 0.67170
 H49 H 0.69657 0.75095 0.67870
 H50 H 0.73400 0.72585 0.66606
 H51 H 0.70299 0.70640 0.69939
 H52 H 0.71496 0.71846 0.71076
 N53 N 0.31557 0.77997 0.72228
 N54 N 0.31143 0.79144 0.72995
 C55 C 0.32078 0.79330 0.74119
 C56 C 0.33123 0.78243 0.74044
 C57 C 0.32767 0.77414 0.72837
 H58 H 0.32009 0.80189 0.74929
 H59 H 0.33346 0.76462 0.72434
 Cu60 Cu 0.29425 0.80281 0.72447
 Cu61 Cu 0.30500 0.77347 0.70500
 Cu62 Cu 0.27467 0.79387 0.69466
 N63 N 0.27739 0.81433 0.71836
 N64 N 0.26977 0.81077 0.70668
 C65 C 0.25877 0.82045 0.70490
 C66 C 0.25963 0.83054 0.71606
 C67 C 0.27149 0.82643 0.72442
 H68 H 0.25078 0.82017 0.69618
 H69 H 0.27550 0.83185 0.73414
 N70 N 0.28135 0.77641 0.68390
 N71 N 0.29291 0.76863 0.68784
 C72 C 0.29464 0.75745 0.67839
 C73 C 0.28367 0.75831 0.66810
 C74 C 0.27543 0.77037 0.67184
 H75 H 0.30320 0.74928 0.67892
 H76 H 0.26585 0.77442 0.66617
 H77 H 0.29680 0.79387 0.69952
 H78 H 0.28480 0.78184 0.71089
 N79 N 0.81707 0.28051 0.22140
 N80 N 0.81325 0.29231 0.22874
 C81 C 0.82259 0.29418 0.23999
 C82 C 0.83269 0.28296 0.23956
 C83 C 0.82896 0.27447 0.22770
 H84 H 0.82211 0.30299 0.24788
 H85 H 0.83445 0.26467 0.22395
 Cu86 Cu 0.79646 0.30406 0.22287
 Cu87 Cu 0.80637 0.27387 0.20425
 Cu88 Cu 0.77605 0.29429 0.19388
 N89 N 0.77923 0.31521 0.21711
 N90 N 0.77130 0.31133 0.20575
 C91 C 0.76009 0.32080 0.20419
 C92 C 0.76112 0.33109 0.21515
 C93 C 0.77332 0.32730 0.22317
 H94 H 0.75182 0.32025 0.19575
 H95 H 0.77752 0.33292 0.23268
 N96 N 0.78261 0.27669 0.18326
 N97 N 0.79416 0.26891 0.18721
 C98 C 0.79580 0.25764 0.17784
 C99 C 0.78479 0.25845 0.16761
 C100 C 0.77660 0.27058 0.17127
 H101 H 0.80436 0.24946 0.17839
 H102 H 0.76702 0.27461 0.16561
 H103 H 0.79829 0.29414 0.19820
 H104 H 0.78642 0.28274 0.21033
 N105 N 0.81699 0.71935 0.27865
 N106 N 0.81320 0.70754 0.27133
 C107 C 0.82257 0.70568 0.26010
 C108 C 0.83266 0.71690 0.26051
 C109 C 0.82888 0.72540 0.27236
 H110 H 0.82211 0.69687 0.25222
 H111 H 0.83436 0.73522 0.27609
 Cu112 Cu 0.79640 0.69579 0.27717
 Cu113 Cu 0.80623 0.72602 0.29577
 Cu114 Cu 0.77588 0.70562 0.30608
 N115 N 0.77915 0.68465 0.28291
 N116 N 0.77117 0.68855 0.29422
 C117 C 0.75996 0.67908 0.29577
 C118 C 0.76103 0.66876 0.28484
 C119 C 0.77326 0.67254 0.27685
 H120 H 0.75165 0.67964 0.30418
 H121 H 0.77750 0.66689 0.26737
 N122 N 0.78240 0.72323 0.31669
 N123 N 0.79397 0.73101 0.31276
 C124 C 0.79559 0.74228 0.32212
 C125 C 0.78454 0.74149 0.33233
 C126 C 0.77637 0.72936 0.32865
 H127 H 0.80415 0.75046 0.32159
 H128 H 0.76677 0.72533 0.33430
 H129 H 0.79813 0.70576 0.30183
 H130 H 0.78631 0.71713 0.28963
 N131 N 0.31628 0.22028 -0.22253
 N132 N 0.31215 0.20883 -0.23022
 C133 C 0.32152 0.20697 -0.24145
 C134 C 0.33196 0.21785 -0.24065
 C135 C 0.32840 0.22613 -0.22858
 H136 H 0.32083 0.19840 -0.24957
 H137 H 0.33418 0.23565 -0.22451
 Cu138 Cu 0.29495 0.19745 -0.22480
 Cu139 Cu 0.30567 0.22676 -0.20525
 Cu140 Cu 0.27530 0.20635 -0.19501
 N141 N 0.27807 0.18593 -0.21872
 N142 N 0.27043 0.18947 -0.20706
 C143 C 0.25943 0.17978 -0.20533
 C144 C 0.26030 0.16970 -0.21648
 C145 C 0.27219 0.17383 -0.22480
 H146 H 0.25142 0.18004 -0.19663
 H147 H 0.27621 0.16842 -0.23451
 N148 N 0.28196 0.22380 -0.18421
 N149 N 0.29354 0.23158 -0.18812
 C150 C 0.29525 0.24275 -0.17865
 C151 C 0.28425 0.24189 -0.16840
 C152 C 0.27601 0.22983 -0.17216
 H153 H 0.30382 0.25092 -0.17915
 H154 H 0.26641 0.22578 -0.16653
 H155 H 0.29745 0.20636 -0.19983
 H156 H 0.28548 0.21841 -0.21120
 N157 N 0.68379 0.27963 -0.22225
 N158 N 0.68795 0.29106 -0.22997
 C159 C 0.67860 0.29290 -0.24121
 C160 C 0.66814 0.28204 -0.24039
 C161 C 0.67167 0.27378 -0.22830
 H162 H 0.67931 0.30146 -0.24935
 H163 H 0.66588 0.26428 -0.22422
 Cu164 Cu 0.70514 0.30244 -0.22454
 Cu165 Cu 0.69436 0.27318 -0.20494
 Cu166 Cu 0.72471 0.29360 -0.19468
 N167 N 0.72200 0.31398 -0.21844
 N168 N 0.72961 0.31046 -0.20675
 C169 C 0.74059 0.32017 -0.20500
 C170 C 0.73975 0.33024 -0.21618
 C171 C 0.72789 0.32607 -0.22453
 H172 H 0.74856 0.31994 -0.19627
 H173 H 0.72390 0.33147 -0.23426
 N174 N 0.71802 0.27617 -0.18386
 N175 N 0.70645 0.26839 -0.18777
 C176 C 0.70472 0.25723 -0.17829
 C177 C 0.71570 0.25811 -0.16802
 C178 C 0.72395 0.27017 -0.17179
 H179 H 0.69615 0.24906 -0.17879
 H180 H 0.73354 0.27421 -0.16615
 H181 H 0.70258 0.29360 -0.19955
 H182 H 0.71457 0.28152 -0.21087
 N183 N 0.18355 0.78094 0.27859
 N184 N 0.18736 0.79275 0.27127
 C185 C 0.17803 0.79461 0.26002
 C186 C 0.16793 0.78339 0.26040
 C187 C 0.17167 0.77490 0.27226
 H188 H 0.17852 0.80342 0.25213
 H189 H 0.16618 0.76508 0.27599
 Cu190 Cu 0.20415 0.80450 0.27715
 Cu191 Cu 0.19425 0.77426 0.29573
 Cu192 Cu 0.22459 0.79464 0.30610
 N193 N 0.22140 0.81562 0.28292
 N194 N 0.22935 0.81171 0.29425
 C195 C 0.24058 0.82117 0.29583
 C196 C 0.23952 0.83147 0.28489
 C197 C 0.22731 0.82773 0.27687
 H198 H 0.24886 0.82058 0.30426
 H199 H 0.22310 0.83337 0.26737
 N200 N 0.21804 0.77704 0.31670
 N201 N 0.20647 0.76927 0.31275
 C202 C 0.20482 0.75799 0.32211
 C203 C 0.21585 0.75878 0.33234
 C204 C 0.22404 0.77090 0.32867
 H205 H 0.19625 0.74982 0.32157
 H206 H 0.23363 0.77492 0.33433
 H207 H 0.20235 0.79451 0.30180
 H208 H 0.21419 0.78314 0.28963
 N209 N 0.47059 0.43438 0.47256
 N210 N 0.45914 0.43856 0.48024
 C211 C 0.45728 0.42922 0.49150
 C212 C 0.46814 0.41876 0.49074
 C213 C 0.47641 0.42228 0.47865
 H214 H 0.44871 0.42994 0.49962
 H215 H 0.48591 0.41648 0.47461
 Cu216 Cu 0.44779 0.45574 0.47476
 Cu217 Cu 0.47709 0.44491 0.45524
 Cu218 Cu 0.45672 0.47526 0.44489
 N219 N 0.43627 0.47260 0.46862
 N220 N 0.43983 0.48018 0.45693
 C221 C 0.43014 0.49117 0.45514
 C222 C 0.42004 0.49035 0.46629
 C223 C 0.42417 0.47850 0.47466
 H224 H 0.43040 0.49913 0.44640
 H225 H 0.41874 0.47452 0.48438
 N226 N 0.47416 0.46854 0.43412
 N227 N 0.48192 0.45697 0.43806
 C228 C 0.49309 0.45521 0.42859
 C229 C 0.49224 0.46617 0.41830
 C230 C 0.48019 0.47444 0.42204
 H231 H 0.50124 0.44663 0.42911
 H232 H 0.47616 0.48402 0.41638
 H233 H 0.46876 0.46513 0.46112
 H234 H 0.45668 0.45314 0.44980
 N235 N -0.03051 -0.06665 0.97087
 N236 N -0.04232 -0.06285 0.97820
 C237 C -0.04418 -0.07220 0.98944
 C238 C -0.03296 -0.08230 0.98903
 C239 C -0.02447 -0.07853 0.97717
 H240 H -0.05298 -0.07172 0.99734
 H241 H -0.01465 -0.08401 0.97343
 Cu242 Cu -0.05407 -0.04605 0.97237
 Cu243 Cu -0.02385 -0.05592 0.95374
 Cu244 Cu -0.04419 -0.02554 0.94346
 N245 N -0.06516 -0.02876 0.96665
 N246 N -0.06124 -0.02079 0.95534
 C247 C -0.07069 -0.00956 0.95381
 C248 C -0.08100 -0.01062 0.96474
 C249 C -0.07725 -0.02286 0.97272
 H250 H -0.07011 -0.00126 0.94540
 H251 H -0.08291 -0.02709 0.98220
 N252 N -0.02661 -0.03209 0.93282
 N253 N -0.01886 -0.04368 0.93674
 C254 C -0.00759 -0.04533 0.92736
 C255 C -0.00837 -0.03428 0.91715
 C256 C -0.02047 -0.02608 0.92084
 H257 H 0.00057 -0.05391 0.92788
 H258 H -0.02449 -0.01647 0.91521
 H259 H -0.03270 -0.03599 0.95990
 H260 H -0.04411 -0.04778 0.94770
 N261 N 1.02976 0.56563 0.97214
 N262 N 1.04122 0.56146 0.97980
 C263 C 1.04313 0.57083 0.99102
 C264 C 1.03228 0.58131 0.99026
 C265 C 1.02397 0.57776 0.97821
 H266 H 1.05172 0.57012 0.99912
 H267 H 1.01446 0.58356 0.97418
 Cu268 Cu 1.05254 0.54424 0.97436
 Cu269 Cu 1.02321 0.55504 0.95488
 Cu270 Cu 1.04351 0.52464 0.94458
 N271 N 1.06401 0.52735 0.96825
 N272 N 1.06042 0.51973 0.95659
 C273 C 1.07008 0.50872 0.95483
 C274 C 1.08020 0.50956 0.96596
 C275 C 1.07612 0.52144 0.97429
 H276 H 1.06979 0.50072 0.94612
 H277 H 1.08156 0.52545 0.98399
 N278 N 1.02605 0.53134 0.93383
 N279 N 1.01831 0.54293 0.93775
 C280 C 1.00712 0.54467 0.92831
 C281 C 1.00793 0.53367 0.91805
 C282 C 1.01998 0.52541 0.92179
 H283 H 0.99897 0.55326 0.92883
 H284 H 1.02399 0.51580 0.91614
 H285 H 1.03152 0.53483 0.96081
 H286 H 1.04358 0.54677 0.94941
 N287 N 0.52952 0.06587 0.47245
 N288 N 0.54099 0.06171 0.48011
 C289 C 0.54288 0.07107 0.49133
 C290 C 0.53203 0.08154 0.49058
 C291 C 0.52372 0.07799 0.47853
 H292 H 0.55148 0.07037 0.49943
 H293 H 0.51421 0.08379 0.47450
 Cu294 Cu 0.55232 0.04451 0.47464
 Cu295 Cu 0.52298 0.05531 0.45517
 Cu296 Cu 0.54333 0.02495 0.44482
 N297 N 0.56381 0.02764 0.46850
 N298 N 0.56023 0.02003 0.45683
 C299 C 0.56991 0.00903 0.45505
 C300 C 0.58002 0.00986 0.46619
 C301 C 0.57592 0.02173 0.47454
 H302 H 0.56962 0.00105 0.44633
 H303 H 0.58136 0.02571 0.48425
 N304 N 0.52586 0.03165 0.43408
 N305 N 0.51811 0.04322 0.43802
 C306 C 0.50691 0.04497 0.42858
 C307 C 0.50774 0.03399 0.41830
 C308 C 0.51980 0.02574 0.42203
 H309 H 0.49875 0.05354 0.42912
 H310 H 0.52382 0.01615 0.41637
 H311 H 0.53132 0.03510 0.46106
 H312 H 0.54337 0.04708 0.44969
 N313 N -0.03061 0.06687 0.52864
 N314 N -0.04245 0.06309 0.52135
 C315 C -0.04435 0.07247 0.51014
 C316 C -0.03312 0.08257 0.51054
 C317 C -0.02459 0.07877 0.52235
 H318 H -0.05318 0.07202 0.50228
 H319 H -0.01476 0.08424 0.52607
 Cu320 Cu -0.05418 0.04627 0.52717
 Cu321 Cu -0.02389 0.05608 0.54571
 Cu322 Cu -0.04422 0.02567 0.55597
 N323 N -0.06526 0.02897 0.53287
 N324 N -0.06130 0.02096 0.54414
 C325 C -0.07075 0.00972 0.54566
 C326 C -0.08110 0.01081 0.53477
 C327 C -0.07737 0.02308 0.52682
 H328 H -0.07014 0.00139 0.55404
 H329 H -0.08306 0.02734 0.51737
 N330 N -0.02659 0.03219 0.56657
 N331 N -0.01885 0.04378 0.56266
 C332 C -0.00756 0.04542 0.57201
 C333 C -0.00831 0.03435 0.58220
 C334 C -0.02043 0.02615 0.57851
 H335 H 0.00059 0.05400 0.57150
 H336 H -0.02444 0.01653 0.58414
 H337 H -0.03277 0.03617 0.53952
 H338 H -0.04413 0.04793 0.55180
 N339 N 0.46946 0.56664 0.02878
 N340 N 0.45764 0.56285 0.02146
 C341 C 0.45578 0.57221 0.01023
 C342 C 0.46701 0.58231 0.01064
 C343 C 0.47551 0.57852 0.02249
 H344 H 0.44697 0.57176 0.00235
 H345 H 0.48533 0.58400 0.02623
 Cu346 Cu 0.44587 0.54606 0.02730
 Cu347 Cu 0.47612 0.55589 0.04590
 Cu348 Cu 0.45573 0.52554 0.05620
 N349 N 0.43475 0.52880 0.03302
 N350 N 0.43867 0.52082 0.04433
 C351 C 0.42921 0.50959 0.04586
 C352 C 0.41889 0.51065 0.03493
 C353 C 0.42266 0.52289 0.02695
 H354 H 0.42979 0.50128 0.05426
 H355 H 0.41701 0.52712 0.01746
 N356 N 0.47334 0.53206 0.06682
 N357 N 0.48111 0.54363 0.06289
 C358 C 0.49238 0.54526 0.07226
 C359 C 0.49159 0.53422 0.08247
 C360 C 0.47947 0.52603 0.07878
 H361 H 0.50056 0.55383 0.07174
 H362 H 0.47544 0.51643 0.08442
 H363 H 0.46723 0.53597 0.03975
 H364 H 0.45586 0.54778 0.05195
 N365 N 0.53079 -0.06686 0.02903
 N366 N 0.54261 -0.06306 0.02171
 C367 C 0.54447 -0.07241 0.01046
 C368 C 0.53324 -0.08250 0.01086
 C369 C 0.52474 -0.07873 0.02272
 H370 H 0.55328 -0.07193 0.00258
 H371 H 0.51492 -0.08421 0.02645
 Cu372 Cu 0.55437 -0.04627 0.02756
 Cu373 Cu 0.52413 -0.05614 0.04616
 Cu374 Cu 0.54451 -0.02579 0.05649
 N375 N 0.56548 -0.02901 0.03329
 N376 N 0.56157 -0.02105 0.04462
 C377 C 0.57102 -0.00981 0.04615
 C378 C 0.58133 -0.01086 0.03520
 C379 C 0.57757 -0.02309 0.02722
 H380 H 0.57044 -0.00151 0.05455
 H381 H 0.58321 -0.02730 0.01772
 N382 N 0.52691 -0.03234 0.06711
 N383 N 0.51914 -0.04391 0.06317
 C384 C 0.50786 -0.04555 0.07253
 C385 C 0.50865 -0.03452 0.08275
 C386 C 0.52078 -0.02633 0.07908
 H387 H 0.49968 -0.05411 0.07199
 H388 H 0.52480 -0.01674 0.08473
 H389 H 0.53302 -0.03621 0.04003
 H390 H 0.54440 -0.04803 0.05222
 N391 N 1.02969 0.43447 0.52753
 N392 N 1.04113 0.43865 0.51983
 C393 C 1.04298 0.42933 0.50857
 C394 C 1.03213 0.41885 0.50934
 C395 C 1.02387 0.42236 0.52143
 H396 H 1.05154 0.43006 0.50044
 H397 H 1.01437 0.41655 0.52549
 Cu398 Cu 1.05249 0.45584 0.52529
 Cu399 Cu 1.02322 0.44498 0.54486
 Cu400 Cu 1.04361 0.47533 0.55519
 N401 N 1.06401 0.47270 0.53143
 N402 N 1.06047 0.48027 0.54314
 C403 C 1.07017 0.49125 0.54492
 C404 C 1.08025 0.49045 0.53375
 C405 C 1.07610 0.47861 0.52537
 H406 H 1.06993 0.49921 0.55367
 H407 H 1.08151 0.47463 0.51564
 N408 N 1.02617 0.46860 0.56599
 N409 N 1.01841 0.45703 0.56205
 C410 C 1.00724 0.45527 0.57152
 C411 C 1.00809 0.46623 0.58181
 C412 C 1.02015 0.47450 0.57807
 H413 H 0.99907 0.44670 0.57099
 H414 H 1.02418 0.48408 0.58372
 H415 H 1.03154 0.46521 0.53898
 H416 H 1.04363 0.45321 0.55027
 C417 C 0.39565 0.00651 0.23049
 H418 H 0.39619 0.01651 0.23682
 C419 C 0.40524 0.00438 0.21880
 H420 H 0.41318 0.01277 0.21605
 C421 C 0.38480 -0.01676 0.22644
 H422 H 0.37699 -0.02507 0.22958
 C423 C 0.39420 -0.01933 0.21468
 H424 H 0.39349 -0.02956 0.20871
 N425 N 0.38557 -0.00392 0.23397
 C426 C 0.35077 0.01953 0.25682
 H427 H 0.35017 0.01319 0.26678
 C428 C 0.34121 0.03129 0.25464
 H429 H 0.33324 0.03406 0.26297
 C430 C 0.36174 0.02358 0.23368
 H431 H 0.36959 0.02041 0.22544
 C432 C 0.35239 0.03541 0.23107
 H433 H 0.35316 0.04140 0.22089
 Zn434 Zn 0.37321 -0.00026 0.25017
 N435 N 0.36089 0.01602 0.24647
 C436 C 0.38463 0.01628 0.27396
 N437 N 0.38549 0.00344 0.26643
 C438 C 0.39558 -0.00696 0.26996
 C439 C 0.40511 -0.00479 0.28169
 C440 C 0.39397 0.01888 0.28577
 C441 C 0.35086 -0.02012 0.24343
 C442 C 0.34131 -0.03189 0.24556
 C443 C 0.35236 -0.03596 0.26920
 C444 C 0.36171 -0.02411 0.26663
 N445 N 0.36091 -0.01657 0.25382
 H446 H 0.37681 0.02456 0.27079
 H447 H 0.39618 -0.01695 0.26363
 H448 H 0.41306 -0.01315 0.28446
 H449 H 0.39321 0.02910 0.29174
 H450 H 0.35030 -0.01379 0.23346
 H451 H 0.33340 -0.03470 0.23721
 H452 H 0.35309 -0.04194 0.27940
 H453 H 0.36950 -0.02091 0.27491
 C454 C 0.34207 0.03931 0.24167
 C455 C 0.40448 -0.00865 0.21081
 C456 C 0.34211 -0.03990 0.25856
 C457 C 0.40427 0.00823 0.28968
 C458 C 0.10460 -0.00690 0.72993
 H459 H 0.10402 -0.01688 0.73628
 C460 C 0.09501 -0.00474 0.71825
 H461 H 0.08704 -0.01310 0.71552
 C462 C 0.11554 0.01633 0.72584
 H463 H 0.12338 0.02462 0.72896
 C464 C 0.10615 0.01892 0.71407
 H465 H 0.10689 0.02914 0.70809
 N466 N 0.11472 0.00351 0.73339
 C467 C 0.14940 -0.01998 0.75641
 H468 H 0.15000 -0.01359 0.76634
 C469 C 0.15890 -0.03179 0.75432
 H470 H 0.16683 -0.03456 0.76268
 C471 C 0.13847 -0.02409 0.73327
 H472 H 0.13066 -0.02094 0.72499
 C473 C 0.14777 -0.03598 0.73074
 H474 H 0.14700 -0.04203 0.72060
 Zn475 Zn 0.12703 -0.00015 0.74963
 N476 N 0.13932 -0.01648 0.74602
 C477 C 0.11550 -0.01659 0.77344
 N478 N 0.11470 -0.00377 0.76588
 C479 C 0.10461 0.00665 0.76933
 C480 C 0.09502 0.00453 0.78102
 C481 C 0.10611 -0.01915 0.78522
 C482 C 0.14945 0.01964 0.74286
 C483 C 0.15899 0.03142 0.74495
 C484 C 0.14788 0.03561 0.76854
 C485 C 0.13854 0.02375 0.76601
 N486 N 0.13937 0.01615 0.75325
 H487 H 0.12332 -0.02489 0.77032
 H488 H 0.10405 0.01663 0.76298
 H489 H 0.08706 0.01291 0.78374
 H490 H 0.10683 -0.02936 0.79121
 H491 H 0.15003 0.01325 0.73292
 H492 H 0.16692 0.03418 0.73659
 H493 H 0.14713 0.04165 0.77870
 H494 H 0.13072 0.02060 0.77429
 C495 C 0.15805 -0.03988 0.74139
 C496 C 0.09582 0.00828 0.71023
 C497 C 0.15816 0.03950 0.75790
 C498 C 0.09581 -0.00848 0.78905
 C499 C 0.60437 0.49312 0.23034
 H500 H 0.60378 0.48314 0.23670
 C501 C 0.59479 0.49526 0.21864
 H502 H 0.58683 0.48690 0.21591
 C503 C 0.61532 0.51634 0.22624
 H504 H 0.62316 0.52463 0.22936
 C505 C 0.60594 0.51892 0.21446
 H506 H 0.60669 0.52913 0.20846
 N507 N 0.61448 0.50352 0.23380
 C508 C 0.64920 0.48004 0.25675
 H509 H 0.64979 0.48640 0.26670
 C510 C 0.65874 0.46827 0.25461
 H511 H 0.66670 0.46550 0.26295
 C512 C 0.63825 0.47596 0.23361
 H513 H 0.63043 0.47913 0.22535
 C514 C 0.64760 0.46412 0.23103
 H515 H 0.64684 0.45811 0.22086
 Zn516 Zn 0.62681 0.49986 0.25003
 N517 N 0.63910 0.48355 0.24638
 C518 C 0.61532 0.48339 0.27384
 N519 N 0.61449 0.49621 0.26628
 C520 C 0.60440 0.50662 0.26976
 C521 C 0.59484 0.50450 0.28148
 C522 C 0.60595 0.48082 0.28564
 C523 C 0.64923 0.51965 0.24329
 C524 C 0.65880 0.53140 0.24542
 C525 C 0.64769 0.53556 0.26901
 C526 C 0.63832 0.52373 0.26645
 N527 N 0.63914 0.51615 0.25367
 H528 H 0.62314 0.47509 0.27071
 H529 H 0.60383 0.51661 0.26341
 H530 H 0.58689 0.51287 0.28422
 H531 H 0.60669 0.47061 0.29164
 H532 H 0.64980 0.51328 0.23334
 H533 H 0.66674 0.53416 0.23707
 H534 H 0.64695 0.54157 0.27919
 H535 H 0.63050 0.52057 0.27472
 C536 C 0.65791 0.46022 0.24165
 C537 C 0.59562 0.50827 0.21061
 C538 C 0.65798 0.53945 0.25838
 C539 C 0.59566 0.49149 0.28950
 C540 C 0.89576 0.50664 0.73023
 H541 H 0.89633 0.51661 0.73660
 C542 C 0.90534 0.50453 0.71853
 H543 H 0.91330 0.51291 0.71581
 C544 C 0.88483 0.48341 0.72609
 H545 H 0.87700 0.47511 0.72920
 C546 C 0.89422 0.48086 0.71431
 H547 H 0.89348 0.47067 0.70829
 N548 N 0.88565 0.49622 0.73367
 C549 C 0.85091 0.51966 0.75663
 H550 H 0.85030 0.51327 0.76656
 C551 C 0.84138 0.53145 0.75452
 H552 H 0.83342 0.53420 0.76286
 C553 C 0.86188 0.52378 0.73351
 H554 H 0.86971 0.52063 0.72525
 C555 C 0.85255 0.53565 0.73096
 H556 H 0.85333 0.54169 0.72080
 Zn557 Zn 0.87331 0.49985 0.74990
 N558 N 0.86101 0.51617 0.74627
 C559 C 0.88477 0.51628 0.77375
 N560 N 0.88560 0.50347 0.76617
 C561 C 0.89567 0.49303 0.76965
 C562 C 0.90521 0.49513 0.78138
 C563 C 0.89412 0.51882 0.78556
 C564 C 0.85091 0.48006 0.74309
 C565 C 0.84135 0.46829 0.74518
 C566 C 0.85240 0.46412 0.76880
 C567 C 0.86176 0.47596 0.76627
 N568 N 0.86097 0.48355 0.75350
 H569 H 0.87697 0.52459 0.77061
 H570 H 0.89625 0.48306 0.76329
 H571 H 0.91315 0.48674 0.78413
 H572 H 0.89338 0.52901 0.79157
 H573 H 0.85036 0.48643 0.73315
 H574 H 0.83343 0.46553 0.73681
 H575 H 0.85311 0.45810 0.77897
 H576 H 0.86956 0.47912 0.77456
 C577 C 0.84224 0.53953 0.74158
 C578 C 0.90452 0.49154 0.71048
 C579 C 0.84214 0.46023 0.75814
 C580 C 0.90440 0.50813 0.78942
 C581 C 0.23027 0.39874 0.00655
 H582 H 0.23665 0.39932 0.01648
 C583 C 0.21848 0.40826 0.00445
 H584 H 0.21571 0.41619 0.01281
 C585 C 0.22618 0.38784 -0.01661
 H586 H 0.22933 0.38003 -0.02489
 C587 C 0.21431 0.39716 -0.01914
 H588 H 0.20827 0.39641 -0.02930
 N589 N 0.23378 0.38867 -0.00384
 C590 C 0.25683 0.35392 0.01946
 H591 H 0.26683 0.35335 0.01312
 C592 C 0.25468 0.34432 0.03114
 H593 H 0.26305 0.33636 0.03387
 C594 C 0.23359 0.36482 0.02354
 H595 H 0.22530 0.37265 0.02041
 C596 C 0.23099 0.35543 0.03530
 H597 H 0.22077 0.35615 0.04128
 Zn598 Zn 0.25009 0.37636 -0.00022
 N599 N 0.24642 0.36402 0.01599
 C600 C 0.27398 0.38782 0.01621
 N601 N 0.26639 0.38867 0.00344
 C602 C 0.26989 0.39879 -0.00691
 C603 C 0.28165 0.40834 -0.00476
 C604 C 0.28582 0.39718 0.01880
 C605 C 0.24333 0.35398 -0.01996
 C606 C 0.24547 0.34443 -0.03168
 C607 C 0.26914 0.35557 -0.03585
 C608 C 0.26657 0.36492 -0.02405
 N609 N 0.25375 0.36407 -0.01648
 H610 H 0.27082 0.37998 0.02446
 H611 H 0.26352 0.39939 -0.01686
 H612 H 0.28441 0.41631 -0.01309
 H613 H 0.29183 0.39641 0.02897
 H614 H 0.23335 0.35338 -0.01361
 H615 H 0.23709 0.33647 -0.03443
 H616 H 0.27935 0.35632 -0.04185
 H617 H 0.27486 0.37274 -0.02091
 C618 C 0.24165 0.34512 0.03915
 C619 C 0.21041 0.40743 -0.00850
 C620 C 0.25848 0.34526 -0.03971
 C621 C 0.28970 0.40750 0.00820
 C622 C 0.73026 0.10108 -0.00672
 H623 H 0.73659 0.10051 -0.01669
 C624 C 0.71849 0.09153 -0.00457
 H625 H 0.71570 0.08360 -0.01292
 C626 C 0.72626 0.11195 0.01646
 H627 H 0.72945 0.11976 0.02473
 C628 C 0.71442 0.10260 0.01905
 H629 H 0.70844 0.10333 0.02925
 N630 N 0.73380 0.11114 0.00366
 C631 C 0.75680 0.14588 -0.01974
 H632 H 0.76681 0.14645 -0.01344
 C633 C 0.75462 0.15546 -0.03144
 H634 H 0.76299 0.16341 -0.03420
 C635 C 0.73353 0.13498 -0.02374
 H636 H 0.72524 0.12716 -0.02058
 C637 C 0.73091 0.14436 -0.03551
 H638 H 0.72068 0.14363 -0.04146
 Zn639 Zn 0.75010 0.12346 -0.00003
 N640 N 0.74639 0.13579 -0.01624
 C641 C 0.77392 0.11199 -0.01654
 N642 N 0.76639 0.11115 -0.00374
 C643 C 0.76992 0.10106 0.00662
 C644 C 0.78168 0.09150 0.00444
 C645 C 0.78576 0.10264 -0.01916
 C646 C 0.74341 0.14583 0.01973
 C647 C 0.74559 0.15539 0.03144
 C648 C 0.76929 0.14429 0.03549
 C649 C 0.76667 0.13493 0.02371
 N650 N 0.75381 0.13575 0.01621
 H651 H 0.77074 0.11981 -0.02479
 H652 H 0.76359 0.10047 0.01659
 H653 H 0.78448 0.08355 0.01277
 H654 H 0.79174 0.10339 -0.02935
 H655 H 0.73340 0.14641 0.01343
 H656 H 0.73722 0.16334 0.03422
 H657 H 0.77953 0.14355 0.04144
 H658 H 0.77496 0.12711 0.02054
 C659 C 0.74157 0.15466 -0.03940
 C660 C 0.71048 0.09233 0.00842
 C661 C 0.75864 0.15458 0.03940
 C662 C 0.78969 0.09234 -0.00855
 C663 C 0.23042 0.60123 0.49318
 H664 H 0.23680 0.60066 0.48323
 C665 C 0.21865 0.59166 0.49528
 H666 H 0.21590 0.58373 0.48693
 C667 C 0.22631 0.61211 0.51634
 H668 H 0.22946 0.61992 0.52461
 C669 C 0.21447 0.60275 0.51888
 H670 H 0.20845 0.60348 0.52905
 N671 N 0.23391 0.61131 0.50356
 C672 C 0.25698 0.64606 0.48025
 H673 H 0.26695 0.64664 0.48661
 C674 C 0.25485 0.65564 0.46854
 H675 H 0.26322 0.66360 0.46582
 C676 C 0.23375 0.63512 0.47613
 H677 H 0.22545 0.62729 0.47925
 C678 C 0.23118 0.64450 0.46435
 H679 H 0.22097 0.64376 0.45835
 Zn680 Zn 0.25020 0.62365 0.49995
 N681 N 0.24656 0.63595 0.48370
 C682 C 0.27415 0.61221 0.48359
 N683 N 0.26654 0.61137 0.49635
 C684 C 0.27004 0.60130 0.50674
 C685 C 0.28183 0.59177 0.50465
 C686 C 0.28602 0.60288 0.48106
 C687 C 0.24334 0.64604 0.51963
 C688 C 0.24541 0.65561 0.53135
 C689 C 0.26911 0.64457 0.53558
 C690 C 0.26659 0.63519 0.52378
 N691 N 0.25379 0.63597 0.51619
 H692 H 0.27100 0.62001 0.47531
 H693 H 0.26365 0.60071 0.51668
 H694 H 0.28459 0.58384 0.51300
 H695 H 0.29206 0.60364 0.47090
 H696 H 0.23337 0.64659 0.51326
 H697 H 0.23700 0.66354 0.53406
 H698 H 0.27931 0.64385 0.54160
 H699 H 0.27492 0.62739 0.52067
 C700 C 0.24184 0.65482 0.46051
 C701 C 0.21059 0.59247 0.50824
 C702 C 0.25840 0.65483 0.53941
 C703 C 0.28991 0.59260 0.49170
 C704 C 0.73009 0.89900 0.50662
 H705 H 0.73648 0.89960 0.51656
 C706 C 0.71828 0.90851 0.50453
 H707 H 0.71550 0.91643 0.51290
 C708 C 0.72600 0.88810 0.48347
 H709 H 0.72917 0.88030 0.47519
 C710 C 0.71412 0.89741 0.48094
 H711 H 0.70808 0.89664 0.47079
 N712 N 0.73361 0.88894 0.49623
 C713 C 0.75675 0.85425 0.51954
 H714 H 0.76673 0.85369 0.51319
 C715 C 0.75463 0.84466 0.53124
 H716 H 0.76302 0.83672 0.53397
 C717 C 0.73349 0.86511 0.52364
 H718 H 0.72518 0.87292 0.52052
 C719 C 0.73094 0.85573 0.53543
 H720 H 0.72073 0.85645 0.54143
 Zn721 Zn 0.74994 0.87666 0.49985
 N722 N 0.74632 0.86432 0.51608
 C723 C 0.77382 0.88817 0.51626
 N724 N 0.76623 0.88900 0.50349
 C725 C 0.76971 0.89910 0.49313
 C726 C 0.78148 0.90866 0.49526
 C727 C 0.78566 0.89753 0.51883
 C728 C 0.74322 0.85426 0.48013
 C729 C 0.74538 0.84468 0.46843
 C730 C 0.76905 0.85584 0.46427
 C731 C 0.76644 0.86521 0.47605
 N732 N 0.75362 0.86437 0.48360
 H733 H 0.77068 0.88033 0.52453
 H734 H 0.76334 0.89969 0.48318
 H735 H 0.78423 0.91662 0.48692
 H736 H 0.79168 0.89677 0.52899
 H737 H 0.73323 0.85366 0.48647
 H738 H 0.73702 0.83671 0.46569
 H739 H 0.77926 0.85659 0.45829
 H740 H 0.77473 0.87305 0.47918
 C741 C 0.74162 0.84545 0.53927
 C742 C 0.71020 0.90767 0.49159
 C743 C 0.75840 0.84551 0.46042
 C744 C 0.78954 0.90783 0.50821
 C745 C 0.00660 0.23056 0.39716
 H746 H 0.01653 0.23701 0.39773
 C747 C 0.00454 0.21884 0.40675
 H748 H 0.01293 0.21620 0.41470
 C749 C -0.01659 0.22622 0.38628
 H750 H -0.02490 0.22926 0.37846
 C751 C -0.01909 0.21441 0.39566
 H752 H -0.02925 0.20831 0.39494
 N753 N -0.00383 0.23392 0.38708
 C754 C 0.01950 0.25707 0.35247
 H755 H 0.01306 0.26700 0.35187
 C756 C 0.03126 0.25498 0.34294
 H757 H 0.03396 0.26336 0.33499
 C758 C 0.02374 0.23388 0.36339
 H759 H 0.02064 0.22558 0.37120
 C760 C 0.03559 0.23136 0.35406
 H761 H 0.04166 0.22119 0.35481
 Zn762 Zn -0.00029 0.25020 0.37477
 N763 N 0.01607 0.24665 0.36255
 C764 C 0.01599 0.27424 0.38620
 N765 N 0.00321 0.26657 0.38699
 C766 C -0.00727 0.27000 0.39700
 C767 C -0.00525 0.28179 0.40651
 C768 C 0.01845 0.28611 0.39552
 C769 C -0.01999 0.24321 0.35244
 C770 C -0.03171 0.24525 0.34285
 C771 C -0.03605 0.26895 0.35379
 C772 C -0.02425 0.26648 0.36319
 N773 N -0.01659 0.25369 0.36246
 H774 H 0.02434 0.27113 0.37845
 H775 H -0.01721 0.26356 0.39755
 H776 H -0.01368 0.28450 0.41440
 H777 H 0.02862 0.29219 0.39481
 H778 H -0.01356 0.23327 0.35193
 H779 H -0.03438 0.23683 0.33495
 H780 H -0.04211 0.27913 0.35445
 H781 H -0.02117 0.27483 0.37095
 C782 C 0.03939 0.24202 0.34377
 C783 C -0.00841 0.21068 0.40596
 C784 C -0.03983 0.25822 0.34356
 C785 C 0.00771 0.28993 0.40573
 C786 C -0.00667 0.73037 0.10245
 H787 H -0.01660 0.73681 0.10189
 C788 C -0.00464 0.71859 0.09293
 H789 H -0.01306 0.71590 0.08503
 C790 C 0.01656 0.72610 0.11328
 H791 H 0.02490 0.72919 0.12106
 C792 C 0.01903 0.71425 0.10395
 H793 H 0.02920 0.70815 0.10468
 N794 N 0.00380 0.73379 0.11248
 C795 C -0.01943 0.75706 0.14707
 H796 H -0.01298 0.76700 0.14762
 C797 C -0.03117 0.75502 0.15665
 H798 H -0.03383 0.76342 0.16457
 C799 C -0.02371 0.73384 0.13625
 H800 H -0.02064 0.72551 0.12846
 C801 C -0.03554 0.73136 0.14563
 H802 H -0.04162 0.72118 0.14493
 Zn803 Zn 0.00029 0.75012 0.12474
 N804 N -0.01603 0.74661 0.13703
 C805 C -0.01601 0.77413 0.11327
 N806 N -0.00324 0.76644 0.11246
 C807 C 0.00720 0.76984 0.10240
 C808 C 0.00515 0.78158 0.09285
 C809 C -0.01850 0.78596 0.10391
 C810 C 0.02005 0.74322 0.14704
 C811 C 0.03181 0.74528 0.15658
 C812 C 0.03613 0.76894 0.14552
 C813 C 0.02430 0.76643 0.13618
 N814 N 0.01663 0.75366 0.13699
 H815 H -0.02433 0.77105 0.12107
 H816 H 0.01714 0.76339 0.10184
 H817 H 0.01355 0.78425 0.08491
 H818 H -0.02867 0.79204 0.10464
 H819 H 0.01362 0.73327 0.14761
 H820 H 0.03450 0.73689 0.16450
 H821 H 0.04221 0.77912 0.14480
 H822 H 0.02120 0.77476 0.12839
 C823 C -0.03931 0.74206 0.15588
 C824 C 0.00831 0.71044 0.09372
 C825 C 0.03994 0.75825 0.15578
 C826 C -0.00780 0.78973 0.09364
 C827 C 0.49317 0.23043 0.60303
 H828 H 0.48326 0.23693 0.60246
 C829 C 0.49517 0.21868 0.59347
 H830 H 0.48678 0.21606 0.58553
 C831 C 0.51634 0.22602 0.61393
 H832 H 0.52466 0.22905 0.62174
 C833 C 0.51878 0.21419 0.60457
 H834 H 0.52892 0.20805 0.60530
 N835 N 0.50361 0.23377 0.61311
 C836 C 0.48039 0.25705 0.64770
 H837 H 0.48688 0.26696 0.64829
 C838 C 0.46860 0.25505 0.65721
 H839 H 0.46593 0.26345 0.66513
 C840 C 0.47604 0.23388 0.63679
 H841 H 0.47910 0.22555 0.62900
 C842 C 0.46416 0.23143 0.64611
 H843 H 0.45802 0.22130 0.64535
 Zn844 Zn 0.50014 0.25009 0.62540
 N845 N 0.48378 0.24661 0.63764
 C846 C 0.48397 0.27418 0.61396
 N847 N 0.49670 0.26645 0.61315
 C848 C 0.50717 0.26982 0.60311
 C849 C 0.50519 0.28160 0.59358
 C850 C 0.48155 0.28605 0.60463
 C851 C 0.51983 0.24305 0.64773
 C852 C 0.53159 0.24504 0.65728
 C853 C 0.53606 0.26868 0.64625
 C854 C 0.52421 0.26626 0.63690
 N855 N 0.51647 0.25352 0.63769
 H856 H 0.47562 0.27113 0.62174
 H857 H 0.51708 0.26333 0.60254
 H858 H 0.51361 0.28425 0.58567
 H859 H 0.47141 0.29219 0.60536
 H860 H 0.51334 0.23315 0.64828
 H861 H 0.53423 0.23662 0.66519
 H862 H 0.54220 0.27882 0.64554
 H863 H 0.52117 0.27461 0.62911
 C864 C 0.46039 0.24213 0.65637
 C865 C 0.50809 0.21047 0.59428
 C866 C 0.53980 0.25796 0.65650
 C867 C 0.49227 0.28980 0.59438
 C868 C 0.50687 0.73036 0.89737
 H869 H 0.51679 0.73683 0.89793
 C870 C 0.50483 0.71862 0.90693
 H871 H 0.51323 0.71598 0.91487
 C872 C 0.48367 0.72601 0.88650
 H873 H 0.47534 0.72906 0.87870
 C874 C 0.48120 0.71419 0.89587
 H875 H 0.47104 0.70808 0.89515
 N876 N 0.49642 0.73373 0.88730
 C877 C 0.51964 0.75705 0.85273
 H878 H 0.51317 0.76696 0.85216
 C879 C 0.53142 0.75504 0.84320
 H880 H 0.53409 0.76345 0.83528
 C881 C 0.52397 0.73385 0.86359
 H882 H 0.52091 0.72551 0.87138
 C883 C 0.53584 0.73140 0.85426
 H884 H 0.54196 0.72125 0.85499
 Zn885 Zn 0.49991 0.75006 0.87504
 N886 N 0.51626 0.74659 0.86278
 C887 C 0.51615 0.77409 0.88652
 N888 N 0.50339 0.76639 0.88731
 C889 C 0.49293 0.76976 0.89736
 C890 C 0.49496 0.78150 0.90693
 C891 C 0.51862 0.78590 0.89590
 C892 C 0.48019 0.74309 0.85272
 C893 C 0.46842 0.74510 0.84318
 C894 C 0.46399 0.76873 0.85425
 C895 C 0.47585 0.76628 0.86358
 N896 N 0.48357 0.75354 0.86277
 H897 H 0.52449 0.77103 0.87873
 H898 H 0.48300 0.76331 0.89791
 H899 H 0.48656 0.78415 0.91486
 H900 H 0.52879 0.79200 0.89520
 H901 H 0.48667 0.73318 0.85215
 H902 H 0.46576 0.73669 0.83526
 H903 H 0.45786 0.77887 0.85498
 H904 H 0.47890 0.77461 0.87138
 C905 C 0.53960 0.74211 0.84400
 C906 C 0.49189 0.71045 0.90615
 C907 C 0.46023 0.75802 0.84399
 C908 C 0.50792 0.78965 0.90617
 C909 C 0.15543 0.21900 0.24911
 C910 C 0.14536 0.22100 0.25740
 C911 C 0.13334 0.22340 0.26729
 C912 C 0.12236 0.23350 0.26376
 C913 C 0.11066 0.23584 0.27335
 C914 C 0.10980 0.22809 0.28661
 C915 C 0.12091 0.21796 0.29005
 C916 C 0.13259 0.21564 0.28045
 C917 C 0.09737 0.23056 0.29679
 C918 C 0.09080 0.21871 0.30413
 C919 C 0.07907 0.22104 0.31368
 C920 C 0.07376 0.23523 0.31603
 C921 C 0.08024 0.24710 0.30881
 C922 C 0.09196 0.24479 0.29925
 C923 C 0.06167 0.23762 0.32583
 C924 C 0.05152 0.23963 0.33402
 H925 H 0.12281 0.23953 0.25359
 H926 H 0.10219 0.24357 0.27030
 H927 H 0.12066 0.21196 0.30025
 H928 H 0.14106 0.20783 0.28330
 H929 H 0.09459 0.20761 0.30233
 H930 H 0.07411 0.21178 0.31918
 H931 H 0.07624 0.25813 0.31058
 H932 H 0.09691 0.25415 0.29392
 C933 C 0.65638 0.72009 0.75001
 C934 C 0.64622 0.72199 0.75820
 C935 C 0.63408 0.72426 0.76798
 C936 C 0.62296 0.73416 0.76431
 C937 C 0.61118 0.73639 0.77381
 C938 C 0.61035 0.72874 0.78712
 C939 C 0.62159 0.71880 0.79071
 C940 C 0.63337 0.71659 0.78119
 C941 C 0.59784 0.73110 0.79722
 C942 C 0.59141 0.71921 0.80463
 C943 C 0.57961 0.72145 0.81412
 C944 C 0.57409 0.73558 0.81634
 C945 C 0.58041 0.74748 0.80904
 C946 C 0.59220 0.74527 0.79954
 C947 C 0.56195 0.73787 0.82610
 C948 C 0.55176 0.73980 0.83426
 H949 H 0.62338 0.74012 0.75409
 H950 H 0.60261 0.74396 0.77065
 H951 H 0.62138 0.71289 0.80095
 H952 H 0.64195 0.70894 0.78416
 H953 H 0.59537 0.70816 0.80294
 H954 H 0.57477 0.71216 0.81969
 H955 H 0.57625 0.75847 0.81071
 H956 H 0.59703 0.75466 0.79415
 C957 C 0.34334 0.78019 0.75020
 C958 C 0.35350 0.77830 0.75839
 C959 C 0.36565 0.77602 0.76816
 C960 C 0.36316 0.77108 0.78241
 C961 C 0.37495 0.76885 0.79190
 C962 C 0.38941 0.77151 0.78724
 C963 C 0.39179 0.77648 0.77289
 C964 C 0.37998 0.77872 0.76343
 C965 C 0.40195 0.76911 0.79730
 C966 C 0.41502 0.76270 0.79221
 C967 C 0.42681 0.76045 0.80169
 C968 C 0.42572 0.76458 0.81636
 C969 C 0.41278 0.77096 0.82154
 C970 C 0.40097 0.77322 0.81208
 C971 C 0.43788 0.76226 0.82611
 C972 C 0.44807 0.76032 0.83426
 H973 H 0.35211 0.76892 0.78618
 H974 H 0.37277 0.76483 0.80281
 H975 H 0.40277 0.77882 0.76904
 H976 H 0.38202 0.78259 0.75243
 H977 H 0.41605 0.75925 0.78095
 H978 H 0.43677 0.75546 0.79759
 H979 H 0.41184 0.77423 0.83287
 H980 H 0.39113 0.77835 0.81629
 C981 C -0.15595 0.28076 0.24891
 C982 C -0.14586 0.27880 0.25718
 C983 C -0.13380 0.27648 0.26704
 C984 C -0.13447 0.26524 0.27742
 C985 C -0.12275 0.26296 0.28699
 C986 C -0.11020 0.27190 0.28631
 C987 C -0.10965 0.28318 0.27583
 C988 C -0.12138 0.28544 0.26627
 C989 C -0.09774 0.26948 0.29646
 C990 C -0.08319 0.27055 0.29146
 C991 C -0.07147 0.26826 0.30103
 C992 C -0.07412 0.26489 0.31569
 C993 C -0.08854 0.26381 0.32077
 C994 C -0.10028 0.26608 0.31123
 C995 C -0.06204 0.26254 0.32552
 C996 C -0.05192 0.26057 0.33375
 H997 H -0.14402 0.25821 0.27808
 H998 H -0.12343 0.25408 0.29480
 H999 H -0.10023 0.29036 0.27515
 H1000 H -0.12077 0.29420 0.25831
 H1001 H -0.08087 0.27296 0.28012
 H1002 H -0.06034 0.26908 0.29697
 H1003 H -0.09072 0.26124 0.33212
 H1004 H -0.11135 0.26537 0.31545
 C1005 C -0.15534 0.71926 0.25063
 C1006 C -0.14526 0.72124 0.24235
 C1007 C -0.13321 0.72361 0.23248
 C1008 C -0.13553 0.72324 0.21739
 C1009 C -0.12384 0.72555 0.20779
 C1010 C -0.10965 0.72826 0.21318
 C1011 C -0.10744 0.72860 0.22838
 C1012 C -0.11915 0.72629 0.23796
 C1013 C -0.09721 0.73072 0.20300
 C1014 C -0.08662 0.74153 0.20598
 C1015 C -0.07492 0.74383 0.19640
 C1016 C -0.07362 0.73537 0.18373
 C1017 C -0.08409 0.72459 0.18066
 C1018 C -0.09582 0.72228 0.19022
 C1019 C -0.06154 0.73772 0.17390
 C1020 C -0.05141 0.73970 0.16568
 H1021 H -0.14639 0.72122 0.21303
 H1022 H -0.12593 0.72540 0.19615
 H1023 H -0.09662 0.73047 0.23287
 H1024 H -0.11722 0.72655 0.24963
 H1025 H -0.08750 0.74834 0.21562
 H1026 H -0.06689 0.75223 0.19886
 H1027 H -0.08317 0.71794 0.17090
 H1028 H -0.10368 0.71375 0.18772
 C1029 C 0.34343 0.21999 0.75013
 C1030 C 0.35361 0.22190 0.74195
 C1031 C 0.36576 0.22419 0.73219
 C1032 C 0.36540 0.21837 0.71806
 C1033 C 0.37720 0.22060 0.70856
 C1034 C 0.38951 0.22870 0.71309
 C1035 C 0.38976 0.23451 0.72732
 C1036 C 0.37795 0.23226 0.73680
 C1037 C 0.40205 0.23109 0.70301
 C1038 C 0.40917 0.24476 0.70243
 C1039 C 0.42097 0.24699 0.69295
 C1040 C 0.42583 0.23560 0.68394
 C1041 C 0.41883 0.22196 0.68443
 C1042 C 0.40701 0.21971 0.69389
 C1043 C 0.43800 0.23790 0.67422
 C1044 C 0.44821 0.23983 0.66608
 H1045 H 0.35599 0.21215 0.71436
 H1046 H 0.37659 0.21615 0.69762
 H1047 H 0.39916 0.24062 0.73119
 H1048 H 0.37836 0.23677 0.74773
 H1049 H 0.40549 0.25378 0.70917
 H1050 H 0.42629 0.25760 0.69263
 H1051 H 0.42252 0.21306 0.67753
 H1052 H 0.40189 0.20901 0.69422
 C1053 C 0.65668 0.27990 0.75037
 C1054 C 0.64651 0.27800 0.74219
 C1055 C 0.63436 0.27573 0.73242
 C1056 C 0.62107 0.28299 0.73483
 C1057 C 0.60925 0.28078 0.72536
 C1058 C 0.61059 0.27128 0.71333
 C1059 C 0.62401 0.26404 0.71100
 C1060 C 0.63581 0.26626 0.72050
 C1061 C 0.59805 0.26893 0.70326
 C1062 C 0.60033 0.26801 0.68809
 C1063 C 0.58851 0.26580 0.67862
 C1064 C 0.57429 0.26445 0.68417
 C1065 C 0.57190 0.26535 0.69923
 C1066 C 0.58370 0.26757 0.70872
 C1067 C 0.56214 0.26216 0.67441
 C1068 C 0.55196 0.26024 0.66624
 H1069 H 0.61984 0.29038 0.74400
 H1070 H 0.59913 0.28666 0.72733
 H1071 H 0.62533 0.25651 0.70196
 H1072 H 0.64604 0.26055 0.71856
 H1073 H 0.61121 0.26921 0.68353
 H1074 H 0.59047 0.26517 0.66697
 H1075 H 0.56094 0.26428 0.70365
 H1076 H 0.58161 0.26804 0.72035
 C1077 C 0.15596 0.78104 0.25050
 C1078 C 0.14590 0.77906 0.24219
 C1079 C 0.13389 0.77669 0.23229
 C1080 C 0.12524 0.76409 0.23355
 C1081 C 0.11355 0.76178 0.22395
 C1082 C 0.11036 0.77206 0.21295
 C1083 C 0.11913 0.78470 0.21178
 C1084 C 0.13082 0.78698 0.22139
 C1085 C 0.09793 0.76963 0.20276
 C1086 C 0.08878 0.78134 0.19863
 C1087 C 0.07705 0.77902 0.18908
 C1088 C 0.07431 0.76500 0.18353
 C1089 C 0.08335 0.75329 0.18755
 C1090 C 0.09508 0.75558 0.19711
 C1091 C 0.06221 0.76263 0.17374
 C1092 C 0.05206 0.76063 0.16555
 H1093 H 0.12750 0.75607 0.24198
 H1094 H 0.10689 0.75204 0.22525
 H1095 H 0.11707 0.79273 0.20332
 H1096 H 0.13747 0.79676 0.22029
 H1097 H 0.09057 0.79224 0.20294
 H1098 H 0.07009 0.78816 0.18607
 H1099 H 0.08135 0.74240 0.18329
 H1100 H 0.10203 0.74639 0.19993
 C1101 C 0.24866 0.15633 0.21740
 C1102 C 0.25678 0.14614 0.21955
 C1103 C 0.26649 0.13398 0.22210
 C1104 C 0.28153 0.13546 0.21948
 C1105 C 0.29097 0.12364 0.22193
 C1106 C 0.28547 0.11018 0.22706
 C1107 C 0.27033 0.10881 0.22966
 C1108 C 0.26091 0.12064 0.22719
 C1109 C 0.29549 0.09762 0.22966
 C1110 C 0.29364 0.08855 0.24195
 C1111 C 0.30308 0.07673 0.24439
 C1112 C 0.31448 0.07381 0.23458
 C1113 C 0.31641 0.08276 0.22232
 C1114 C 0.30699 0.09459 0.21987
 C1115 C 0.32419 0.06165 0.23710
 C1116 C 0.33233 0.05146 0.23919
 H1117 H 0.28596 0.14575 0.21557
 H1118 H 0.30259 0.12510 0.22000
 H1119 H 0.26574 0.09854 0.23343
 H1120 H 0.24928 0.11937 0.22921
 H1121 H 0.28502 0.09071 0.24978
 H1122 H 0.30152 0.06990 0.25394
 H1123 H 0.32517 0.08057 0.21464
 H1124 H 0.30858 0.10124 0.21021
 C1125 C 0.74970 0.65748 0.71844
 C1126 C 0.75772 0.64718 0.72047
 C1127 C 0.76731 0.63489 0.72288
 C1128 C 0.78223 0.63601 0.71953
 C1129 C 0.79156 0.62409 0.72185
 C1130 C 0.78607 0.61086 0.72757
 C1131 C 0.77105 0.60986 0.73092
 C1132 C 0.76174 0.62180 0.72858
 C1133 C 0.79598 0.59818 0.73004
 C1134 C 0.79456 0.58947 0.74264
 C1135 C 0.80392 0.57757 0.74496
 C1136 C 0.81480 0.57420 0.73474
 C1137 C 0.81629 0.58278 0.72216
 C1138 C 0.80696 0.59469 0.71981
 C1139 C 0.82445 0.56196 0.73715
 C1140 C 0.83255 0.55173 0.73917
 H1141 H 0.78667 0.64612 0.71516
 H1142 H 0.80310 0.62527 0.71935
 H1143 H 0.76646 0.59977 0.73515
 H1144 H 0.75019 0.62080 0.73117
 H1145 H 0.78635 0.59199 0.75080
 H1146 H 0.80269 0.57102 0.75476
 H1147 H 0.82466 0.58024 0.71415
 H1148 H 0.80820 0.60106 0.70992
 C1149 C 0.74927 0.34252 0.78138
 C1150 C 0.75728 0.35283 0.77933
 C1151 C 0.76686 0.36512 0.77689
 C1152 C 0.77141 0.36861 0.76272
 C1153 C 0.78076 0.38052 0.76034
 C1154 C 0.78567 0.38911 0.77213
 C1155 C 0.78101 0.38551 0.78633
 C1156 C 0.77167 0.37359 0.78868
 C1157 C 0.79564 0.40173 0.76962
 C1158 C 0.79372 0.41491 0.77738
 C1159 C 0.80313 0.42677 0.77503
 C1160 C 0.81457 0.42564 0.76491
 C1161 C 0.81656 0.41259 0.75714
 C1162 C 0.80717 0.40071 0.75946
 C1163 C 0.82426 0.43784 0.76252
 C1164 C 0.83240 0.44806 0.76052
 H1165 H 0.76771 0.36215 0.75351
 H1166 H 0.78399 0.38312 0.74927
 H1167 H 0.78475 0.39179 0.79565
 H1168 H 0.76824 0.37096 0.79970
 H1169 H 0.78484 0.41610 0.78513
 H1170 H 0.80146 0.43684 0.78108
 H1171 H 0.82541 0.41158 0.74931
 H1172 H 0.80905 0.39067 0.75346
 C1173 C 0.24868 -0.15702 0.28250
 C1174 C 0.25680 -0.14682 0.28038
 C1175 C 0.26651 -0.13464 0.27787
 C1176 C 0.26096 -0.12134 0.27264
 C1177 C 0.27038 -0.10951 0.27021
 C1178 C 0.28549 -0.11082 0.27298
 C1179 C 0.29096 -0.12424 0.27824
 C1180 C 0.28152 -0.13607 0.28066
 C1181 C 0.29551 -0.09824 0.27042
 C1182 C 0.30690 -0.09513 0.28031
 C1183 C 0.31633 -0.08330 0.27788
 C1184 C 0.31451 -0.07443 0.26555
 C1185 C 0.30322 -0.07742 0.25565
 C1186 C 0.29378 -0.08925 0.25806
 C1187 C 0.32423 -0.06225 0.26307
 C1188 C 0.33237 -0.05206 0.26100
 H1189 H 0.24934 -0.12011 0.27049
 H1190 H 0.26581 -0.09927 0.26634
 H1191 H 0.30256 -0.12566 0.28029
 H1192 H 0.28594 -0.14632 0.28466
 H1193 H 0.30840 -0.10173 0.29002
 H1194 H 0.32500 -0.08105 0.28564
 H1195 H 0.30175 -0.07065 0.24605
 H1196 H 0.28524 -0.09147 0.25015
 C1197 C 0.25059 -0.15785 0.71836
 C1198 C 0.24256 -0.14756 0.72039
 C1199 C 0.23295 -0.13529 0.72281
 C1200 C 0.21803 -0.13762 0.72549
 C1201 C 0.20868 -0.12571 0.72783
 C1202 C 0.21415 -0.11129 0.72752
 C1203 C 0.22918 -0.10907 0.72483
 C1204 C 0.23850 -0.12100 0.72249
 C1205 C 0.20423 -0.09863 0.72998
 C1206 C 0.20882 -0.08662 0.73846
 C1207 C 0.19946 -0.07471 0.74078
 C1208 C 0.18541 -0.07463 0.73465
 C1209 C 0.18074 -0.08652 0.72619
 C1210 C 0.19007 -0.09845 0.72387
 C1211 C 0.17579 -0.06237 0.73703
 C1212 C 0.16771 -0.05211 0.73902
 H1213 H 0.21363 -0.14864 0.72581
 H1214 H 0.19721 -0.12779 0.73006
 H1215 H 0.23368 -0.09811 0.72434
 H1216 H 0.25003 -0.11907 0.72038
 H1217 H 0.21957 -0.08651 0.74347
 H1218 H 0.20317 -0.06558 0.74738
 H1219 H 0.16990 -0.08655 0.72136
 H1220 H 0.18629 -0.10743 0.71714
 C1221 C 0.75145 0.34324 0.21770
 C1222 C 0.74332 0.35343 0.21983
 C1223 C 0.73361 0.36559 0.22236
 C1224 C 0.73904 0.37993 0.22218
 C1225 C 0.72960 0.39176 0.22462
 C1226 C 0.71459 0.38938 0.22727
 C1227 C 0.70925 0.37491 0.22743
 C1228 C 0.71871 0.36310 0.22500
 C1229 C 0.70455 0.40193 0.22984
 C1230 C 0.69041 0.40205 0.22370
 C1231 C 0.68097 0.41387 0.22611
 C1232 C 0.68552 0.42572 0.23468
 C1233 C 0.69956 0.42571 0.24084
 C1234 C 0.70902 0.41390 0.23844
 C1235 C 0.67580 0.43788 0.23715
 C1236 C 0.66764 0.44807 0.23921
 H1237 H 0.75055 0.38198 0.22011
 H1238 H 0.73401 0.40277 0.22424
 H1239 H 0.69780 0.37271 0.22963
 H1240 H 0.71440 0.35204 0.22520
 H1241 H 0.68672 0.39309 0.21687
 H1242 H 0.67014 0.41379 0.22125
 H1243 H 0.70318 0.43480 0.24754
 H1244 H 0.71976 0.41404 0.24347
 C1245 C 0.75138 0.65660 0.28229
 C1246 C 0.74327 0.64639 0.28016
 C1247 C 0.73357 0.63421 0.27763
 C1248 C 0.73931 0.62028 0.27479
 C1249 C 0.72990 0.60844 0.27234
 C1250 C 0.71460 0.61038 0.27272
 C1251 C 0.70894 0.62444 0.27559
 C1252 C 0.71838 0.63626 0.27802
 C1253 C 0.70458 0.59781 0.27017
 C1254 C 0.69179 0.59612 0.27859
 C1255 C 0.68237 0.58428 0.27618
 C1256 C 0.68559 0.57397 0.26533
 C1257 C 0.69829 0.57555 0.25689
 C1258 C 0.70773 0.58738 0.25929
 C1259 C 0.67588 0.56180 0.26286
 C1260 C 0.66773 0.55160 0.26081
 H1261 H 0.75106 0.61856 0.27450
 H1262 H 0.73459 0.59772 0.27036
 H1263 H 0.69723 0.62633 0.27576
 H1264 H 0.71382 0.64701 0.28017
 H1265 H 0.68916 0.60385 0.28716
 H1266 H 0.67259 0.58314 0.28280
 H1267 H 0.70087 0.56766 0.24844
 H1268 H 0.71739 0.58847 0.25251
 C1269 C 0.25076 0.15742 0.78106
 C1270 C 0.24274 0.14713 0.77900
 C1271 C 0.23314 0.13486 0.77656
 C1272 C 0.21793 0.13682 0.77685
 C1273 C 0.20859 0.12490 0.77451
 C1274 C 0.21435 0.11085 0.77184
 C1275 C 0.22966 0.10900 0.77156
 C1276 C 0.23898 0.12093 0.77391
 C1277 C 0.20443 0.09818 0.76937
 C1278 C 0.20769 0.08765 0.75862
 C1279 C 0.19833 0.07575 0.75630
 C1280 C 0.18560 0.07419 0.76468
 C1281 C 0.18226 0.08459 0.77540
 C1282 C 0.19160 0.09651 0.77774
 C1283 C 0.17596 0.06195 0.76227
 C1284 C 0.16786 0.05170 0.76027
 H1285 H 0.21329 0.14756 0.77885
 H1286 H 0.19686 0.12672 0.77460
 H1287 H 0.23443 0.09830 0.76972
 H1288 H 0.25074 0.11929 0.77370
 H1289 H 0.21738 0.08874 0.75188
 H1290 H 0.20100 0.06779 0.74794
 H1291 H 0.17245 0.08346 0.78198
 H1292 H 0.18888 0.10431 0.78622
 C1293 C 0.21781 0.25088 0.15520
 C1294 C 0.21988 0.25909 0.14509
 C1295 C 0.22235 0.26888 0.13303
 C1296 C 0.22559 0.28364 0.13561
 C1297 C 0.22800 0.29317 0.12390
 C1298 C 0.22720 0.28804 0.10943
 C1299 C 0.22393 0.27317 0.10696
 C1300 C 0.22152 0.26367 0.11869
 C1301 C 0.22976 0.29815 0.09697
 C1302 C 0.23787 0.29354 0.08474
 C1303 C 0.24028 0.30307 0.07303
 C1304 C 0.23463 0.31732 0.07338
 C1305 C 0.22654 0.32201 0.08549
 C1306 C 0.22412 0.31251 0.09722
 C1307 C 0.23711 0.32711 0.06132
 C1308 C 0.23918 0.33532 0.05121
 H1309 H 0.22630 0.28778 0.14667
 H1310 H 0.23067 0.30451 0.12616
 H1311 H 0.22305 0.26894 0.09595
 H1312 H 0.21897 0.25227 0.11657
 H1313 H 0.24251 0.28263 0.08430
 H1314 H 0.24659 0.29934 0.06372
 H1315 H 0.22208 0.33301 0.08586
 H1316 H 0.21768 0.31632 0.10639
 C1317 C 0.71853 0.75164 0.65582
 C1318 C 0.72053 0.75979 0.64565
 C1319 C 0.72292 0.76953 0.63352
 C1320 C 0.72907 0.76422 0.62057
 C1321 C 0.73140 0.77367 0.60878
 C1322 C 0.72760 0.78858 0.60981
 C1323 C 0.72141 0.79381 0.62288
 C1324 C 0.71910 0.78433 0.63466
 C1325 C 0.73007 0.79864 0.59729
 C1326 C 0.71958 0.80934 0.59365
 C1327 C 0.72193 0.81881 0.58188
 C1328 C 0.73478 0.81773 0.57360
 C1329 C 0.74528 0.80713 0.57713
 C1330 C 0.74295 0.79764 0.58889
 C1331 C 0.73718 0.82749 0.56150
 C1332 C 0.73920 0.83567 0.55136
 H1333 H 0.73203 0.75277 0.61956
 H1334 H 0.73600 0.76928 0.59880
 H1335 H 0.71854 0.80526 0.62408
 H1336 H 0.71436 0.78856 0.64466
 H1337 H 0.70948 0.81027 0.59979
 H1338 H 0.71371 0.82695 0.57921
 H1339 H 0.75528 0.80622 0.57082
 H1340 H 0.75131 0.78965 0.59153
 C1341 C 0.78208 0.75128 0.34436
 C1342 C 0.78002 0.75949 0.35446
 C1343 C 0.77757 0.76928 0.36653
 C1344 C 0.77811 0.78446 0.36438
 C1345 C 0.77574 0.79399 0.37609
 C1346 C 0.77277 0.78845 0.39013
 C1347 C 0.77225 0.77317 0.39217
 C1348 C 0.77464 0.76367 0.38044
 C1349 C 0.77023 0.79856 0.40258
 C1350 C 0.75924 0.79557 0.41294
 C1351 C 0.75685 0.80510 0.42465
 C1352 C 0.76541 0.81773 0.42618
 C1353 C 0.77637 0.82081 0.41594
 C1354 C 0.77877 0.81131 0.40421
 C1355 C 0.76294 0.82753 0.43824
 C1356 C 0.76087 0.83573 0.44835
 H1357 H 0.78034 0.78892 0.35364
 H1358 H 0.77603 0.80568 0.37413
 H1359 H 0.77019 0.76857 0.40287
 H1360 H 0.77424 0.75194 0.38223
 H1361 H 0.75236 0.78596 0.41189
 H1362 H 0.74831 0.80263 0.43250
 H1363 H 0.78309 0.83055 0.41704
 H1364 H 0.78744 0.81382 0.39653
 C1365 C 0.28184 0.25159 -0.15629
 C1366 C 0.27982 0.25974 -0.14613
 C1367 C 0.27741 0.26947 -0.13400
 C1368 C 0.27794 0.28466 -0.13607
 C1369 C 0.27560 0.29412 -0.12430
 C1370 C 0.27267 0.28851 -0.11029
 C1371 C 0.27216 0.27323 -0.10833
 C1372 C 0.27452 0.26378 -0.12011
 C1373 C 0.27016 0.29856 -0.09778
 C1374 C 0.25920 0.29551 -0.08740
 C1375 C 0.25684 0.30498 -0.07564
 C1376 C 0.26539 0.31761 -0.07408
 C1377 C 0.27633 0.32074 -0.08433
 C1378 C 0.27871 0.31129 -0.09610
 C1379 C 0.26295 0.32736 -0.06197
 C1380 C 0.26091 0.33552 -0.05182
 H1381 H 0.28013 0.28918 -0.14679
 H1382 H 0.27587 0.30583 -0.12621
 H1383 H 0.27012 0.26857 -0.09764
 H1384 H 0.27412 0.25204 -0.11838
 H1385 H 0.25232 0.28590 -0.08849
 H1386 H 0.24831 0.30248 -0.06779
 H1387 H 0.28305 0.33047 -0.08320
 H1388 H 0.28735 0.31384 -0.10379
 C1389 C 0.71809 0.24842 -0.15590
 C1390 C 0.72010 0.24028 -0.14573
 C1391 C 0.72250 0.23055 -0.13359
 C1392 C 0.71575 0.21679 -0.13329
 C1393 C 0.71809 0.20733 -0.12151
 C1394 C 0.72724 0.21152 -0.10987
 C1395 C 0.73398 0.22539 -0.11028
 C1396 C 0.73161 0.23484 -0.12206
 C1397 C 0.72976 0.20146 -0.09737
 C1398 C 0.74381 0.20008 -0.09116
 C1399 C 0.74618 0.19060 -0.07940
 C1400 C 0.73456 0.18238 -0.07370
 C1401 C 0.72055 0.18368 -0.07978
 C1402 C 0.71816 0.19315 -0.09154
 C1403 C 0.73702 0.17261 -0.06161
 C1404 C 0.73909 0.16443 -0.05148
 H1405 H 0.70871 0.21335 -0.14218
 H1406 H 0.71290 0.19666 -0.12161
 H1407 H 0.74092 0.22901 -0.10140
 H1408 H 0.73686 0.24549 -0.12217
 H1409 H 0.75300 0.20618 -0.09551
 H1410 H 0.75708 0.18964 -0.07480
 H1411 H 0.71148 0.17739 -0.07542
 H1412 H 0.70719 0.19411 -0.09595
 C1413 C 0.21829 0.74899 0.34437
 C1414 C 0.22034 0.74078 0.35447
 C1415 C 0.22280 0.73099 0.36654
 C1416 C 0.21473 0.71800 0.36768
 C1417 C 0.21710 0.70848 0.37941
 C1418 C 0.22760 0.71184 0.39016
 C1419 C 0.23566 0.72493 0.38890
 C1420 C 0.23326 0.73444 0.37717
 C1421 C 0.23013 0.70174 0.40263
 C1422 C 0.24443 0.69899 0.40770
 C1423 C 0.24679 0.68947 0.41943
 C1424 C 0.23491 0.68259 0.42625
 C1425 C 0.22065 0.68526 0.42130
 C1426 C 0.21826 0.69476 0.40956
 C1427 C 0.23735 0.67280 0.43832
 C1428 C 0.23940 0.66460 0.44843
 H1429 H 0.20663 0.71520 0.35949
 H1430 H 0.21086 0.69840 0.37997
 H1431 H 0.24367 0.72792 0.39710
 H1432 H 0.23954 0.74449 0.37642
 H1433 H 0.25380 0.70404 0.40247
 H1434 H 0.25788 0.68745 0.42315
 H1435 H 0.21137 0.68002 0.42653
 H1436 H 0.20711 0.69680 0.40605
 C1437 C 0.28130 0.74860 0.65599
 C1438 C 0.27931 0.74045 0.64583
 C1439 C 0.27694 0.73071 0.63370
 C1440 C 0.28418 0.71721 0.63313
 C1441 C 0.28189 0.70774 0.62136
 C1442 C 0.27229 0.71166 0.60998
 C1443 C 0.26506 0.72526 0.61065
 C1444 C 0.26739 0.73472 0.62243
 C1445 C 0.26983 0.70160 0.59747
 C1446 C 0.25569 0.69973 0.59159
 C1447 C 0.25339 0.69025 0.57983
 C1448 C 0.26516 0.68252 0.57377
 C1449 C 0.27925 0.68430 0.57952
 C1450 C 0.28159 0.69377 0.59130
 C1451 C 0.26277 0.67277 0.56166
 C1452 C 0.26078 0.66460 0.55151
 H1453 H 0.29157 0.71398 0.64182
 H1454 H 0.28746 0.69726 0.62125
 H1455 H 0.25777 0.72868 0.60197
 H1456 H 0.26176 0.74517 0.62274
 H1457 H 0.24639 0.70545 0.59622
 H1458 H 0.24242 0.68892 0.57548
 H1459 H 0.28845 0.67840 0.57489
 H1460 H 0.29262 0.69511 0.59544
 C1461 C 0.78234 0.24866 0.15557
 C1462 C 0.78028 0.24046 0.14547
 C1463 C 0.77783 0.23067 0.13340
 C1464 C 0.76838 0.23473 0.12206
 C1465 C 0.76598 0.22523 0.11033
 C1466 C 0.77301 0.21152 0.10978
 C1467 C 0.78250 0.20754 0.12124
 C1468 C 0.78487 0.21706 0.13296
 C1469 C 0.77047 0.20142 0.09733
 C1470 C 0.78215 0.19338 0.09126
 C1471 C 0.77974 0.18389 0.07952
 C1472 C 0.76565 0.18229 0.07370
 C1473 C 0.75397 0.19021 0.07966
 C1474 C 0.75635 0.19972 0.09139
 C1475 C 0.76319 0.17252 0.06162
 C1476 C 0.76112 0.16434 0.05149
 H1477 H 0.76290 0.24526 0.12227
 H1478 H 0.75877 0.22869 0.10160
 H1479 H 0.78792 0.19699 0.12123
 H1480 H 0.79218 0.21378 0.14170
 H1481 H 0.79318 0.19459 0.09546
 H1482 H 0.78888 0.17783 0.07497
 H1483 H 0.74301 0.18902 0.07526
 H1484 H 0.74710 0.20560 0.09593
 C1485 C 0.47038 0.40666 0.50052
 C1486 C 0.47227 0.39651 0.50872
 C1487 C 0.47454 0.38438 0.51850
 C1488 C 0.48877 0.37949 0.52149
 C1489 C 0.49099 0.36769 0.53098
 C1490 C 0.47899 0.36063 0.53760
 C1491 C 0.46474 0.36564 0.53453
 C1492 C 0.46254 0.37744 0.52503
 C1493 C 0.48134 0.34808 0.54767
 C1494 C 0.47297 0.34672 0.56051
 C1495 C 0.47520 0.33491 0.56998
 C1496 C 0.48580 0.32431 0.56675
 C1497 C 0.49418 0.32556 0.55401
 C1498 C 0.49198 0.33737 0.54453
 C1499 C 0.48807 0.31215 0.57649
 C1500 C 0.48999 0.30197 0.58465
 H1501 H 0.49814 0.38481 0.51652
 H1502 H 0.50210 0.36421 0.53327
 H1503 H 0.45527 0.36032 0.53930
 H1504 H 0.45148 0.38111 0.52276
 H1505 H 0.46484 0.35488 0.56333
 H1506 H 0.46868 0.33406 0.57983
 H1507 H 0.50238 0.31739 0.55139
 H1508 H 0.49846 0.33801 0.53465
 C1509 C -0.03060 0.90573 -0.00107
 C1510 C -0.02861 0.89567 0.00722
 C1511 C -0.02624 0.88365 0.01712
 C1512 C -0.03814 0.87545 0.02223
 C1513 C -0.03585 0.86376 0.03183
 C1514 C -0.02159 0.86011 0.03643
 C1515 C -0.00969 0.86842 0.03122
 C1516 C -0.01202 0.88012 0.02163
 C1517 C -0.01913 0.84766 0.04659
 C1518 C -0.00721 0.83809 0.04456
 C1519 C -0.00492 0.82637 0.05412
 C1520 C -0.01450 0.82406 0.06584
 C1521 C -0.02638 0.83352 0.06796
 C1522 C -0.02869 0.84524 0.05841
 C1523 C -0.01214 0.81197 0.07565
 C1524 C -0.01017 0.80184 0.08386
 H1525 H -0.04919 0.87807 0.01877
 H1526 H -0.04520 0.85745 0.03549
 H1527 H 0.00139 0.86601 0.03470
 H1528 H -0.00273 0.88642 0.01776
 H1529 H 0.00023 0.83955 0.03547
 H1530 H 0.00428 0.81908 0.05235
 H1531 H -0.03384 0.83185 0.07702
 H1532 H -0.03785 0.85252 0.06038
 C1533 C 0.03008 0.59343 0.00002
 C1534 C 0.02823 0.60360 0.00821
 C1535 C 0.02600 0.61574 0.01798
 C1536 C 0.01337 0.61639 0.02663
 C1537 C 0.01117 0.62820 0.03611
 C1538 C 0.02160 0.63952 0.03706
 C1539 C 0.03427 0.63876 0.02832
 C1540 C 0.03644 0.62695 0.01885
 C1541 C 0.01926 0.65209 0.04711
 C1542 C 0.03100 0.65788 0.05524
 C1543 C 0.02878 0.66970 0.06469
 C1544 C 0.01483 0.67590 0.06614
 C1545 C 0.00309 0.67023 0.05810
 C1546 C 0.00527 0.65840 0.04865
 C1547 C 0.01255 0.68807 0.07586
 C1548 C 0.01063 0.69827 0.08401
 H1549 H 0.00524 0.60775 0.02608
 H1550 H 0.00141 0.62837 0.04283
 H1551 H 0.04240 0.64739 0.02867
 H1552 H 0.04623 0.62657 0.01217
 H1553 H 0.04185 0.65314 0.05444
 H1554 H 0.03794 0.67398 0.07090
 H1555 H -0.00775 0.67497 0.05910
 H1556 H -0.00394 0.65432 0.04240
 C1557 C 0.52983 0.09365 0.50034
 C1558 C 0.52797 0.10383 0.50852
 C1559 C 0.52573 0.11598 0.51829
 C1560 C 0.53623 0.11928 0.52893
 C1561 C 0.53407 0.13108 0.53842
 C1562 C 0.52135 0.13974 0.53739
 C1563 C 0.51086 0.13633 0.52665
 C1564 C 0.51304 0.12452 0.51718
 C1565 C 0.51903 0.15228 0.54747
 C1566 C 0.51310 0.16554 0.54230
 C1567 C 0.51091 0.17733 0.55180
 C1568 C 0.51460 0.17603 0.56657
 C1569 C 0.52051 0.16290 0.57182
 C1570 C 0.52272 0.15110 0.56234
 C1571 C 0.51232 0.18817 0.57634
 C1572 C 0.51039 0.19834 0.58452
 H1573 H 0.54611 0.11276 0.52986
 H1574 H 0.54243 0.13354 0.54644
 H1575 H 0.50087 0.14266 0.52571
 H1576 H 0.50482 0.12203 0.50901
 H1577 H 0.51034 0.16686 0.53088
 H1578 H 0.50637 0.18747 0.54762
 H1579 H 0.52336 0.16176 0.58324
 H1580 H 0.52712 0.14098 0.56669
 C1581 C -0.03080 0.09458 0.50067
 C1582 C -0.02885 0.10467 0.49240
 C1583 C -0.02653 0.11672 0.48253
 C1584 C -0.01658 0.12782 0.48612
 C1585 C -0.01433 0.13955 0.47656
 C1586 C -0.02200 0.14031 0.46325
 C1587 C -0.03197 0.12908 0.45974
 C1588 C -0.03421 0.11737 0.46933
 C1589 C -0.01962 0.15277 0.45308
 C1590 C -0.01886 0.15041 0.43792
 C1591 C -0.01660 0.16215 0.42836
 C1592 C -0.01508 0.17639 0.43383
 C1593 C -0.01584 0.17886 0.44888
 C1594 C -0.01808 0.16714 0.45846
 C1595 C -0.01274 0.18846 0.42399
 C1596 C -0.01077 0.19858 0.41576
 H1597 H -0.01054 0.12740 0.49630
 H1598 H -0.00644 0.14792 0.47948
 H1599 H -0.03818 0.12945 0.44967
 H1600 H -0.04197 0.10885 0.46646
 H1601 H -0.01981 0.13946 0.43346
 H1602 H -0.01599 0.16011 0.41673
 H1603 H -0.01472 0.18985 0.45322
 H1604 H -0.01881 0.16934 0.47005
 C1605 C 0.46937 0.59431 1.00077
 C1606 C 0.47134 0.60439 0.99250
 C1607 C 0.47371 0.61644 0.98264
 C1608 C 0.48367 0.62752 0.98624
 C1609 C 0.48596 0.63925 0.97669
 C1610 C 0.47829 0.64004 0.96337
 C1611 C 0.46830 0.62883 0.95985
 C1612 C 0.46603 0.61711 0.96943
 C1613 C 0.48070 0.65250 0.95322
 C1614 C 0.48146 0.65015 0.93806
 C1615 C 0.48373 0.66190 0.92851
 C1616 C 0.48525 0.67613 0.93399
 C1617 C 0.48449 0.67859 0.94905
 C1618 C 0.48224 0.66686 0.95861
 C1619 C 0.48758 0.68821 0.92416
 C1620 C 0.48955 0.69834 0.91594
 H1621 H 0.48970 0.62708 0.99642
 H1622 H 0.49386 0.64760 0.97962
 H1623 H 0.46210 0.62922 0.94978
 H1624 H 0.45826 0.60861 0.96655
 H1625 H 0.48051 0.63921 0.93359
 H1626 H 0.48434 0.65987 0.91688
 H1627 H 0.48561 0.68957 0.95340
 H1628 H 0.48151 0.66905 0.97021
 C1629 C 0.53087 0.90554 1.00096
 C1630 C 0.52886 0.89548 0.99267
 C1631 C 0.52646 0.88347 0.98278
 C1632 C 0.51283 0.87643 0.98238
 C1633 C 0.51049 0.86474 0.97280
 C1634 C 0.52176 0.85993 0.96347
 C1635 C 0.53542 0.86709 0.96395
 C1636 C 0.53774 0.87877 0.97354
 C1637 C 0.51929 0.84750 0.95330
 C1638 C 0.52490 0.84791 0.93899
 C1639 C 0.52257 0.83619 0.92944
 C1640 C 0.51462 0.82392 0.93404
 C1641 C 0.50899 0.82340 0.94824
 C1642 C 0.51130 0.83510 0.95782
 C1643 C 0.51225 0.81186 0.92420
 C1644 C 0.51027 0.80174 0.91597
 H1645 H 0.50401 0.88000 0.98946
 H1646 H 0.49980 0.85958 0.97256
 H1647 H 0.54437 0.86353 0.95704
 H1648 H 0.54834 0.88412 0.97379
 H1649 H 0.53093 0.85737 0.93513
 H1650 H 0.52694 0.83672 0.91845
 H1651 H 0.50286 0.81393 0.95193
 H1652 H 0.50700 0.83437 0.96881
 C1653 C 0.02988 0.40677 0.49955
 C1654 C 0.02798 0.39662 0.49134
 C1655 C 0.02569 0.38451 0.48154
 C1656 C 0.01170 0.38174 0.47590
 C1657 C 0.00945 0.36995 0.46642
 C1658 C 0.02118 0.36077 0.46243
 C1659 C 0.03521 0.36366 0.46815
 C1660 C 0.03743 0.37545 0.47765
 C1661 C 0.01880 0.34823 0.45238
 C1662 C 0.02915 0.34490 0.44147
 C1663 C 0.02689 0.33309 0.43202
 C1664 C 0.01428 0.32445 0.43333
 C1665 C 0.00393 0.32767 0.44413
 C1666 C 0.00616 0.33948 0.45359
 C1667 C 0.01198 0.31229 0.42360
 C1668 C 0.01004 0.30210 0.41545
 H1669 H 0.00254 0.38871 0.47882
 H1670 H -0.00142 0.36813 0.46205
 H1671 H 0.04442 0.35669 0.46545
 H1672 H 0.04829 0.37748 0.48198
 H1673 H 0.03889 0.35154 0.44014
 H1674 H 0.03496 0.33071 0.42366
 H1675 H -0.00585 0.32102 0.44527
 H1676 H -0.00191 0.34164 0.46199
 C1677 C 0.40775 0.49988 0.46869
 C1678 C 0.39745 0.50790 0.47069
 C1679 C 0.38516 0.51749 0.47307
 C1680 C 0.37938 0.52562 0.46146
 C1681 C 0.36746 0.53497 0.46377
 C1682 C 0.36115 0.53630 0.47773
 C1683 C 0.36704 0.52806 0.48932
 C1684 C 0.37896 0.51873 0.48699
 C1685 C 0.34851 0.54625 0.48019
 C1686 C 0.33683 0.54198 0.48929
 C1687 C 0.32494 0.55136 0.49161
 C1688 C 0.32457 0.56513 0.48489
 C1689 C 0.33612 0.56949 0.47583
 C1690 C 0.34802 0.56012 0.47348
 C1691 C 0.31234 0.57479 0.48730
 C1692 C 0.30211 0.58290 0.48931
 H1693 H 0.38407 0.52472 0.45063
 H1694 H 0.36306 0.54102 0.45459
 H1695 H 0.36256 0.52899 0.50022
 H1696 H 0.38338 0.51251 0.49606
 H1697 H 0.33679 0.53131 0.49445
 H1698 H 0.31603 0.54787 0.49861
 H1699 H 0.33596 0.58014 0.47061
 H1700 H 0.35692 0.56380 0.46658
 C1701 C 0.90684 -0.00096 -0.03271
 C1702 C 0.89663 0.00715 -0.03058
 C1703 C 0.88444 0.01683 -0.02805
 C1704 C 0.87817 0.02451 -0.03971
 C1705 C 0.86633 0.03393 -0.03727
 C1706 C 0.86061 0.03579 -0.02312
 C1707 C 0.86699 0.02800 -0.01148
 C1708 C 0.87883 0.01860 -0.01394
 C1709 C 0.84804 0.04580 -0.02052
 C1710 C 0.83675 0.04185 -0.01081
 C1711 C 0.82492 0.05128 -0.00838
 C1712 C 0.82421 0.06477 -0.01561
 C1713 C 0.83538 0.06881 -0.02529
 C1714 C 0.84722 0.05939 -0.02774
 C1715 C 0.81204 0.07447 -0.01311
 C1716 C 0.80184 0.08261 -0.01103
 H1717 H 0.88240 0.02319 -0.05068
 H1718 H 0.86154 0.03961 -0.04648
 H1719 H 0.86296 0.02934 -0.00044
 H1720 H 0.88364 0.01274 -0.00484
 H1721 H 0.83697 0.03139 -0.00524
 H1722 H 0.81631 0.04804 -0.00090
 H1723 H 0.83496 0.07924 -0.03091
 H1724 H 0.85582 0.06283 -0.03513
 C1725 C 0.59346 -0.00117 0.03262
 C1726 C 0.60365 0.00696 0.03047
 C1727 C 0.61581 0.01667 0.02790
 C1728 C 0.62964 0.01096 0.02456
 C1729 C 0.64147 0.02039 0.02209
 C1730 C 0.63961 0.03567 0.02293
 C1731 C 0.62565 0.04130 0.02629
 C1732 C 0.61384 0.03186 0.02876
 C1733 C 0.65217 0.04570 0.02032
 C1734 C 0.65027 0.05871 0.01230
 C1735 C 0.66210 0.06814 0.00987
 C1736 C 0.67597 0.06471 0.01543
 C1737 C 0.67798 0.05180 0.02342
 C1738 C 0.66617 0.04234 0.02585
 C1739 C 0.68813 0.07444 0.01295
 C1740 C 0.69832 0.08259 0.01088
 H1741 H 0.63128 -0.00077 0.02382
 H1742 H 0.65203 0.01572 0.01934
 H1743 H 0.62390 0.05300 0.02720
 H1744 H 0.60318 0.03639 0.03139
 H1745 H 0.63969 0.06151 0.00774
 H1746 H 0.66044 0.07809 0.00363
 H1747 H 0.68866 0.04906 0.02781
 H1748 H 0.66794 0.03251 0.03223
 C1749 C 0.09255 0.49996 0.53134
 C1750 C 0.10288 0.50796 0.52932
 C1751 C 0.11520 0.51751 0.52692
 C1752 C 0.11725 0.52411 0.51328
 C1753 C 0.12921 0.53341 0.51094
 C1754 C 0.13928 0.53623 0.52223
 C1755 C 0.13712 0.52953 0.53590
 C1756 C 0.12516 0.52023 0.53822
 C1757 C 0.15196 0.54613 0.51977
 C1758 C 0.15631 0.55616 0.53060
 C1759 C 0.16822 0.56551 0.52826
 C1760 C 0.17595 0.56496 0.51507
 C1761 C 0.17173 0.55501 0.50423
 C1762 C 0.15982 0.54566 0.50655
 C1763 C 0.18818 0.57463 0.51266
 C1764 C 0.19841 0.58275 0.51064
 H1765 H 0.10958 0.52212 0.50447
 H1766 H 0.13046 0.53855 0.50036
 H1767 H 0.14478 0.53132 0.54475
 H1768 H 0.12370 0.51514 0.54881
 H1769 H 0.15038 0.55692 0.54081
 H1770 H 0.17137 0.57320 0.53670
 H1771 H 0.17767 0.55447 0.49400
 H1772 H 0.15686 0.53793 0.49808
 C1773 C 0.09247 0.50001 -0.03162
 C1774 C 0.10277 0.49198 -0.02960
 C1775 C 0.11504 0.48238 -0.02718
 C1776 C 0.12777 0.48770 -0.02051
 C1777 C 0.13970 0.47838 -0.01816
 C1778 C 0.13904 0.46359 -0.02245
 C1779 C 0.12619 0.45834 -0.02915
 C1780 C 0.11428 0.46769 -0.03149
 C1781 C 0.15170 0.45366 -0.01995
 C1782 C 0.14947 0.43916 -0.01523
 C1783 C 0.16139 0.42982 -0.01290
 C1784 C 0.17569 0.43484 -0.01525
 C1785 C 0.17803 0.44924 -0.01995
 C1786 C 0.16613 0.45861 -0.02228
 C1787 C 0.18794 0.42520 -0.01287
 C1788 C 0.19819 0.41711 -0.01088
 H1789 H 0.12846 0.49905 -0.01709
 H1790 H 0.14937 0.48269 -0.01281
 H1791 H 0.12541 0.44707 -0.03275
 H1792 H 0.10449 0.46347 -0.03670
 H1793 H 0.13851 0.43509 -0.01316
 H1794 H 0.15945 0.41870 -0.00922
 H1795 H 0.18906 0.45323 -0.02184
 H1796 H 0.16820 0.46964 -0.02609
 C1797 C 0.59229 1.00030 0.46860
 C1798 C 0.60257 0.99227 0.47062
 C1799 C 0.61484 0.98265 0.47302
 C1800 C 0.62760 0.98797 0.47964
 C1801 C 0.63952 0.97864 0.48198
 C1802 C 0.63883 0.96384 0.47772
 C1803 C 0.62595 0.95860 0.47108
 C1804 C 0.61404 0.96795 0.46874
 C1805 C 0.65149 0.95390 0.48020
 C1806 C 0.64925 0.93941 0.48496
 C1807 C 0.66117 0.93007 0.48727
 C1808 C 0.67547 0.93506 0.48486
 C1809 C 0.67782 0.94946 0.48014
 C1810 C 0.66591 0.95883 0.47782
 C1811 C 0.68772 0.92543 0.48723
 C1812 C 0.69798 0.91734 0.48922
 H1813 H 0.62832 0.99932 0.48303
 H1814 H 0.64921 0.98295 0.48729
 H1815 H 0.62515 0.94732 0.46751
 H1816 H 0.60423 0.96373 0.46357
 H1817 H 0.63830 0.93536 0.48707
 H1818 H 0.65923 0.91895 0.49097
 H1819 H 0.68884 0.95343 0.47820
 H1820 H 0.66799 0.96986 0.47398
 C1821 C 0.90674 1.00115 0.53221
 C1822 C 0.89653 0.99304 0.53008
 C1823 C 0.88435 0.98335 0.52754
 C1824 C 0.87323 0.98737 0.51782
 C1825 C 0.86138 0.97797 0.51536
 C1826 C 0.86052 0.96439 0.52259
 C1827 C 0.87177 0.96045 0.53234
 C1828 C 0.88360 0.96987 0.53479
 C1829 C 0.84794 0.95439 0.52000
 C1830 C 0.85015 0.93917 0.51877
 C1831 C 0.83830 0.92976 0.51635
 C1832 C 0.82410 0.93542 0.51513
 C1833 C 0.82178 0.95053 0.51633
 C1834 C 0.83361 0.95996 0.51874
 C1835 C 0.81191 0.92571 0.51268
 C1836 C 0.80171 0.91757 0.51063
 H1837 H 0.87372 0.99776 0.51211
 H1838 H 0.85300 0.98123 0.50765
 H1839 H 0.87132 0.95016 0.53822
 H1840 H 0.89213 0.96667 0.54237
 H1841 H 0.86106 0.93457 0.51950
 H1842 H 0.84022 0.91809 0.51540
 H1843 H 0.81082 0.95501 0.51544
 H1844 H 0.83153 0.97159 0.51982
 C1845 C 0.40675 0.50098 0.03235
 C1846 C 0.39656 0.49284 0.03020
 C1847 C 0.38440 0.48313 0.02765
 C1848 C 0.37317 0.48723 0.01809
 C1849 C 0.36134 0.47781 0.01562
 C1850 C 0.36060 0.46413 0.02268
 C1851 C 0.37197 0.46011 0.03226
 C1852 C 0.38378 0.46956 0.03473
 C1853 C 0.34804 0.45411 0.02007
 C1854 C 0.35030 0.43892 0.01862
 C1855 C 0.33847 0.42950 0.01618
 C1856 C 0.32423 0.43511 0.01518
 C1857 C 0.32186 0.45019 0.01660
 C1858 C 0.33368 0.45964 0.01903
 C1859 C 0.31206 0.42539 0.01271
 C1860 C 0.30186 0.41724 0.01065
 H1861 H 0.37356 0.49770 0.01252
 H1862 H 0.35286 0.48114 0.00803
 H1863 H 0.37163 0.44974 0.03801
 H1864 H 0.39240 0.46629 0.04218
 H1865 H 0.36124 0.43435 0.01917
 H1866 H 0.34043 0.41784 0.01506
 H1867 H 0.31088 0.45464 0.01588
 H1868 H 0.33156 0.47124 0.02028
 C1869 C 0.50194 0.46852 0.40617
 C1870 C 0.51009 0.47049 0.39600
 C1871 C 0.51982 0.47285 0.38385
 C1872 C 0.51847 0.48549 0.37531
 C1873 C 0.52792 0.48780 0.36351
 C1874 C 0.53887 0.47749 0.36011
 C1875 C 0.54013 0.46482 0.36878
 C1876 C 0.53066 0.46252 0.38056
 C1877 C 0.54892 0.47994 0.34759
 C1878 C 0.56392 0.47650 0.34875
 C1879 C 0.57337 0.47884 0.33697
 C1880 C 0.56799 0.48462 0.32388
 C1881 C 0.55310 0.48807 0.32261
 C1882 C 0.54362 0.48576 0.33438
 C1883 C 0.57774 0.48703 0.31176
 C1884 C 0.58590 0.48906 0.30161
 H1885 H 0.51014 0.49358 0.37779
 H1886 H 0.52679 0.49776 0.35717
 H1887 H 0.54831 0.45658 0.36633
 H1888 H 0.53178 0.45268 0.38709
 H1889 H 0.56837 0.47220 0.35883
 H1890 H 0.58489 0.47617 0.33808
 H1891 H 0.54880 0.49252 0.31251
 H1892 H 0.53211 0.48833 0.33308
 C1893 C 0.00142 -0.03185 0.90511
 C1894 C 0.00964 -0.02981 0.89500
 C1895 C 0.01945 -0.02739 0.88294
 C1896 C 0.03032 -0.03769 0.87968
 C1897 C 0.03986 -0.03535 0.86796
 C1898 C 0.03864 -0.02265 0.85933
 C1899 C 0.02766 -0.01236 0.86269
 C1900 C 0.01814 -0.01472 0.87442
 C1901 C 0.04877 -0.02015 0.84688
 C1902 C 0.04354 -0.01430 0.83364
 C1903 C 0.05308 -0.01195 0.82193
 C1904 C 0.06797 -0.01540 0.82328
 C1905 C 0.07328 -0.02121 0.83639
 C1906 C 0.06376 -0.02358 0.84811
 C1907 C 0.07778 -0.01296 0.81122
 C1908 C 0.08600 -0.01092 0.80112
 H1909 H 0.03140 -0.04756 0.88617
 H1910 H 0.04807 -0.04357 0.86553
 H1911 H 0.02656 -0.00239 0.85638
 H1912 H 0.00978 -0.00665 0.87688
 H1913 H 0.03203 -0.01173 0.83229
 H1914 H 0.04884 -0.00749 0.81182
 H1915 H 0.08479 -0.02388 0.83756
 H1916 H 0.06815 -0.02791 0.85821
 C1917 C 0.00148 0.03190 0.59422
 C1918 C 0.00970 0.02985 0.60432
 C1919 C 0.01951 0.02741 0.61638
 C1920 C 0.02776 0.03902 0.62204
 C1921 C 0.03730 0.03666 0.63375
 C1922 C 0.03869 0.02263 0.63998
 C1923 C 0.03033 0.01103 0.63422
 C1924 C 0.02082 0.01341 0.62249
 C1925 C 0.04880 0.02011 0.65244
 C1926 C 0.04466 0.01096 0.66411
 C1927 C 0.05420 0.00858 0.67582
 C1928 C 0.06799 0.01529 0.67603
 C1929 C 0.07221 0.02441 0.66449
 C1930 C 0.06269 0.02681 0.65277
 C1931 C 0.07780 0.01281 0.68808
 C1932 C 0.08602 0.01074 0.69818
 H1933 H 0.02681 0.04991 0.61741
 H1934 H 0.04343 0.04585 0.63807
 H1935 H 0.03130 0.00007 0.63864
 H1936 H 0.01451 0.00434 0.61817
 H1937 H 0.03398 0.00580 0.66427
 H1938 H 0.05080 0.00154 0.68472
 H1939 H 0.08288 0.02963 0.66452
 H1940 H 0.06628 0.03376 0.64387
 C1941 C 0.50138 0.53176 0.09450
 C1942 C 0.50960 0.52971 0.10460
 C1943 C 0.51940 0.52727 0.11666
 C1944 C 0.52863 0.51502 0.11674
 C1945 C 0.53816 0.51263 0.12845
 C1946 C 0.53859 0.52249 0.14026
 C1947 C 0.52927 0.53478 0.14007
 C1948 C 0.51974 0.53713 0.12835
 C1949 C 0.54871 0.51997 0.15271
 C1950 C 0.55631 0.53175 0.15912
 C1951 C 0.56583 0.52936 0.17084
 C1952 C 0.56787 0.51520 0.17632
 C1953 C 0.56037 0.50341 0.17003
 C1954 C 0.55085 0.50576 0.15830
 C1955 C 0.57766 0.51276 0.18840
 C1956 C 0.58585 0.51071 0.19853
 H1957 H 0.52849 0.50733 0.10772
 H1958 H 0.54533 0.50318 0.12818
 H1959 H 0.52920 0.54246 0.14908
 H1960 H 0.51261 0.54663 0.12842
 H1961 H 0.55504 0.54278 0.15495
 H1962 H 0.57162 0.53856 0.17561
 H1963 H 0.56184 0.49240 0.17422
 H1964 H 0.54502 0.49650 0.15373
 C1965 C 0.49884 -0.03207 0.09477
 C1966 C 0.49062 -0.03002 0.10486
 C1967 C 0.48080 -0.02758 0.11692
 C1968 C 0.46635 -0.02313 0.11434
 C1969 C 0.45680 -0.02076 0.12604
 C1970 C 0.46159 -0.02282 0.14050
 C1971 C 0.47614 -0.02729 0.14297
 C1972 C 0.48567 -0.02965 0.13125
 C1973 C 0.45146 -0.02031 0.15295
 C1974 C 0.45146 -0.02984 0.16503
 C1975 C 0.44192 -0.02747 0.17674
 C1976 C 0.43228 -0.01555 0.17655
 C1977 C 0.43220 -0.00600 0.16460
 C1978 C 0.44171 -0.00836 0.15287
 C1979 C 0.42247 -0.01312 0.18862
 C1980 C 0.41427 -0.01108 0.19873
 H1981 H 0.46245 -0.02154 0.10328
 H1982 H 0.44562 -0.01751 0.12378
 H1983 H 0.48022 -0.02878 0.15398
 H1984 H 0.49685 -0.03305 0.13337
 H1985 H 0.45869 -0.03925 0.16533
 H1986 H 0.44204 -0.03496 0.18593
 H1987 H 0.42480 0.00329 0.16436
 H1988 H 0.44159 -0.00072 0.14382
 C1989 C 0.99837 0.46859 0.59392
 C1990 C 0.99021 0.47057 0.60408
 C1991 C 0.98046 0.47295 0.61620
 C1992 C 0.97280 0.48617 0.61743
 C1993 C 0.96332 0.48850 0.62921
 C1994 C 0.96138 0.47760 0.63991
 C1995 C 0.96914 0.46434 0.63856
 C1996 C 0.97861 0.46204 0.62678
 C1997 C 0.95132 0.48006 0.65242
 C1998 C 0.94216 0.46872 0.65746
 C1999 C 0.93269 0.47105 0.66923
 C2000 C 0.93223 0.48473 0.67612
 C2001 C 0.94129 0.49608 0.67121
 C2002 C 0.95077 0.49377 0.65943
 C2003 C 0.92247 0.48712 0.68823
 C2004 C 0.91429 0.48913 0.69838
 H2005 H 0.97411 0.49467 0.60928
 H2006 H 0.95737 0.49874 0.62983
 H2007 H 0.96803 0.45582 0.64671
 H2008 H 0.98452 0.45178 0.62595
 H2009 H 0.94219 0.45811 0.65218
 H2010 H 0.92569 0.46220 0.67292
 H2011 H 0.94106 0.50669 0.67649
 H2012 H 0.95781 0.50266 0.65594
 C2013 C 0.99819 0.53129 0.90596
 C2014 C 0.99002 0.52929 0.89582
 C2015 C 0.98025 0.52689 0.88372
 C2016 C 0.98134 0.53560 0.87119
 C2017 C 0.97187 0.53328 0.85942
 C2018 C 0.96116 0.52219 0.86003
 C2019 C 0.96016 0.51349 0.87268
 C2020 C 0.96964 0.51584 0.88444
 C2021 C 0.95110 0.51969 0.84752
 C2022 C 0.94742 0.50537 0.84317
 C2023 C 0.93796 0.50304 0.83139
 C2024 C 0.93204 0.51497 0.82382
 C2025 C 0.93562 0.52925 0.82807
 C2026 C 0.94509 0.53162 0.83983
 C2027 C 0.92229 0.51255 0.81170
 C2028 C 0.91413 0.51053 0.80155
 H2029 H 0.98954 0.54416 0.87050
 H2030 H 0.97304 0.54003 0.84977
 H2031 H 0.95192 0.50500 0.87356
 H2032 H 0.96867 0.50906 0.89410
 H2033 H 0.95201 0.49597 0.84874
 H2034 H 0.93529 0.49193 0.82816
 H2035 H 0.93106 0.53857 0.82230
 H2036 H 0.94756 0.54277 0.84304
 C2037 C 0.49801 0.03162 0.40621
 C2038 C 0.48983 0.02961 0.39607
 C2039 C 0.48008 0.02720 0.38395
 C2040 C 0.47386 0.03913 0.37663
 C2041 C 0.46438 0.03679 0.36486
 C2042 C 0.46102 0.02247 0.36025
 C2043 C 0.46734 0.01055 0.36770
 C2044 C 0.47680 0.01291 0.37947
 C2045 C 0.45097 0.01997 0.34774
 C2046 C 0.45397 0.00896 0.33741
 C2047 C 0.44450 0.00660 0.32565
 C2048 C 0.43191 0.01521 0.32405
 C2049 C 0.42882 0.02619 0.33425
 C2050 C 0.43828 0.02857 0.34603
 C2051 C 0.42216 0.01276 0.31194
 C2052 C 0.41400 0.01070 0.30179
 H2053 H 0.47636 0.05024 0.37999
 H2054 H 0.45985 0.04619 0.35924
 H2055 H 0.46482 -0.00060 0.36454
 H2056 H 0.48153 0.00360 0.38509
 H2057 H 0.46374 0.00229 0.33832
 H2058 H 0.44702 -0.00190 0.31778
 H2059 H 0.41907 0.03288 0.33314
 H2060 H 0.43556 0.03700 0.35389
   
