data_POSCAR
  _audit_creation_date              2014-09-24
  _audit_creation_method            'ToBaCCo'
  _symmetry_space_group_name_H-M    'P1'
  _symmetry_Int_Tables_number       1
  _symmetry_cell_setting            triclinic
  loop_
  _symmetry_equiv_pos_as_xyz
 x,y,z
_cell_length_a 59.4079
_cell_length_b 57.6302
_cell_length_c 61.1780
_cell_angle_alpha 89.833600
_cell_angle_beta 89.581200
_cell_angle_gamma 90.140400
loop_
  _atom_site_label
  _atom_site_type_symbol
  _atom_site_fract_x
  _atom_site_fract_y
  _atom_site_fract_z
C1 C 0.30073 0.29682 -0.00675
 C2 C 0.30210 0.29757 0.01544
 C3 C 0.28985 0.31496 0.02894
 C4 C 0.31765 0.28182 0.02728
 C5 C 0.31531 0.28089 -0.01943
 C6 C 0.28610 0.31254 -0.01967
 C7 C 0.29088 0.33881 0.02408
 C8 C 0.28041 0.35495 0.03781
 C9 C 0.26927 0.34760 0.05696
 C10 C 0.26835 0.32380 0.06186
 C11 C 0.27848 0.30766 0.04796
 C12 C 0.33598 0.29116 0.03858
 C13 C 0.35118 0.27659 0.04920
 C14 C 0.34829 0.25236 0.04879
 C15 C 0.32974 0.24305 0.03766
 C16 C 0.31445 0.25768 0.02714
 C17 C 0.30693 0.25964 -0.02674
 C18 C 0.32083 0.24433 -0.03824
 C19 C 0.34338 0.25035 -0.04361
 C20 C 0.35135 0.27219 -0.03628
 C21 C 0.33762 0.28698 -0.02407
 C22 C 0.26275 0.31374 -0.01598
 C23 C 0.24927 0.32796 -0.02914
 C24 C 0.25894 0.34102 -0.04628
 C25 C 0.28235 0.34005 -0.04957
 C26 C 0.29572 0.32594 -0.03650
 H27 H 0.30022 0.34501 0.00997
 H28 H 0.28164 0.37325 0.03388
 H29 H 0.25977 0.31770 0.07647
 H30 H 0.27764 0.28941 0.05218
 H31 H 0.33871 0.30975 0.03886
 H32 H 0.36543 0.28427 0.05745
 H33 H 0.30012 0.25018 0.01889
 H34 H 0.28961 0.25482 -0.02336
 H35 H 0.31320 0.22844 -0.04397
 H36 H 0.36864 0.27757 -0.03868
 H37 H 0.34440 0.30326 -0.01821
 H38 H 0.25495 0.30339 -0.00320
 H39 H 0.23127 0.32828 -0.02629
 H40 H 0.29038 0.35028 -0.06230
 H41 H 0.31368 0.32559 -0.03955
 H42 H 0.32689 0.22449 0.03736
 C43 C 0.68341 0.68952 -0.00130
 C44 C 0.68412 0.68882 0.02087
 C45 C 0.70058 0.67388 0.03221
 C46 C 0.66798 0.70178 0.03480
 C47 C 0.66541 0.70178 -0.01315
 C48 C 0.69971 0.67623 -0.01475
 C49 C 0.69905 0.64967 0.03059
 C50 C 0.71491 0.63560 0.04081
 C51 C 0.73258 0.64553 0.05275
 C52 C 0.73404 0.66980 0.05438
 C53 C 0.71800 0.68388 0.04433
 C54 C 0.65515 0.68978 0.05049
 C55 C 0.64054 0.70172 0.06440
 C56 C 0.63865 0.72600 0.06312
 C57 C 0.65143 0.73801 0.04723
 C58 C 0.66598 0.72599 0.03320
 C59 C 0.67096 0.72025 -0.02713
 C60 C 0.65431 0.73102 -0.03950
 C61 C 0.63195 0.72312 -0.03843
 C62 C 0.62640 0.70459 -0.02442
 C63 C 0.64302 0.69408 -0.01173
 C64 C 0.72283 0.68110 -0.01395
 C65 C 0.73818 0.66717 -0.02527
 C66 C 0.73066 0.64808 -0.03755
 C67 C 0.70738 0.64368 -0.03869
 C68 C 0.69207 0.65772 -0.02751
 H69 H 0.68561 0.64173 0.02133
 H70 H 0.71352 0.61694 0.03921
 H71 H 0.74739 0.67782 0.06368
 H72 H 0.71933 0.70256 0.04572
 H73 H 0.65639 0.67109 0.05193
 H74 H 0.63063 0.69187 0.07612
 H75 H 0.67602 0.73560 0.02140
 H76 H 0.68822 0.72620 -0.02854
 H77 H 0.65898 0.74514 -0.05036
 H78 H 0.60924 0.69828 -0.02332
 H79 H 0.63856 0.67962 -0.00120
 H80 H 0.72896 0.69548 -0.00429
 H81 H 0.75594 0.67129 -0.02435
 H82 H 0.70100 0.62893 -0.04766
 H83 H 0.67428 0.65362 -0.02817
 H84 H 0.65059 0.75673 0.04600
 C85 C 0.68390 0.30340 1.01771
 C86 C 0.68049 0.30625 0.99583
 C87 C 0.69421 0.32200 0.98178
 C88 C 0.66222 0.29338 0.98459
 C89 C 0.66914 0.28762 1.03066
 C90 C 0.70125 0.31622 1.03034
 C91 C 0.68311 0.33799 0.96833
 C92 C 0.69520 0.35192 0.95374
 C93 C 0.71872 0.35018 0.95218
 C94 C 0.72998 0.33451 0.96596
 C95 C 0.71779 0.32037 0.98054
 C96 C 0.63962 0.29586 0.99108
 C97 C 0.62286 0.28242 0.98137
 C98 C 0.62836 0.26685 0.96458
 C99 C 0.65082 0.26513 0.95746
 C100 C 0.66762 0.27826 0.96743
 C101 C 0.66911 0.26363 1.02694
 C102 C 0.65395 0.24926 1.03818
 C103 C 0.63849 0.25867 1.05329
 C104 C 0.63908 0.28269 1.05734
 C105 C 0.65440 0.29697 1.04628
 C106 C 0.71334 0.30432 1.04649
 C107 C 0.72770 0.31617 1.06051
 C108 C 0.73092 0.34031 1.05845
 C109 C 0.71941 0.35207 1.04163
 C110 C 0.70433 0.34028 1.02815
 H111 H 0.66495 0.33957 0.96902
 H112 H 0.68610 0.36408 0.94359
 H113 H 0.74810 0.33273 0.96497
 H114 H 0.72667 0.30788 0.99051
 H115 H 0.63504 0.30793 1.00388
 H116 H 0.60559 0.28430 0.98686
 H117 H 0.68494 0.27627 0.96209
 H118 H 0.68060 0.25613 1.01509
 H119 H 0.65428 0.23080 1.03498
 H120 H 0.62724 0.29061 1.06857
 H121 H 0.65421 0.31548 1.04929
 H122 H 0.71134 0.28575 1.04855
 H123 H 0.73670 0.30616 1.07262
 H124 H 0.72072 0.37071 1.03978
 H125 H 0.69455 0.35015 1.01654
 H126 H 0.65543 0.25320 0.94454
 C127 C 0.31508 0.69390 0.99670
 C128 C 0.31381 0.69557 0.97448
 C129 C 0.30209 0.67743 0.96163
 C130 C 0.32557 0.71440 0.96227
 C131 C 0.33214 0.70723 1.00940
 C132 C 0.29918 0.67872 1.00907
 C133 C 0.30914 0.65425 0.96304
 C134 C 0.29808 0.63696 0.95130
 C135 C 0.27957 0.64250 0.93816
 C136 C 0.27255 0.66573 0.93668
 C137 C 0.28395 0.68314 0.94811
 C138 C 0.34088 0.70893 0.94552
 C139 C 0.35459 0.72618 0.93636
 C140 C 0.35305 0.74929 0.94359
 C141 C 0.33672 0.75494 0.95943
 C142 C 0.32303 0.73767 0.96860
 C143 C 0.32606 0.71849 1.02886
 C144 C 0.34185 0.73165 1.04034
 C145 C 0.36407 0.73438 1.03233
 C146 C 0.37015 0.72241 1.01310
 C147 C 0.35460 0.70857 1.00219
 C148 C 0.27595 0.68054 1.00570
 C149 C 0.26090 0.66633 1.01715
 C150 C 0.26860 0.64995 1.03261
 C151 C 0.29209 0.64864 1.03615
 C152 C 0.30711 0.66285 1.02455
 H153 H 0.32324 0.64958 0.97328
 H154 H 0.30371 0.61917 0.95277
 H155 H 0.25839 0.67039 0.92654
 H156 H 0.27835 0.70095 0.94680
 H157 H 0.34312 0.69110 0.94041
 H158 H 0.36712 0.72119 0.92434
 H159 H 0.31105 0.74230 0.98127
 H160 H 0.30891 0.71753 1.03495
 H161 H 0.33615 0.74072 1.05482
 H162 H 0.38723 0.72292 1.00682
 H163 H 0.36011 0.69906 0.98790
 H164 H 0.26941 0.69322 0.99431
 H165 H 0.24315 0.66908 1.01437
 H166 H 0.29924 0.63599 1.04716
 H167 H 0.32501 0.66118 1.02737
 H168 H 0.33481 0.77264 0.96501
 C169 C 0.00207 0.30784 0.29988
 C170 C 0.02401 0.30869 0.30622
 C171 C 0.03243 0.29611 0.32578
 C172 C 0.04063 0.32360 0.29448
 C173 C -0.00633 0.32333 0.28235
 C174 C -0.01526 0.29371 0.31158
 C175 C 0.02201 0.29855 0.34636
 C176 C 0.03060 0.28704 0.36463
 C177 C 0.05016 0.27352 0.36276
 C178 C 0.06081 0.27149 0.34231
 C179 C 0.05200 0.28263 0.32399
 C180 C 0.05292 0.34022 0.30615
 C181 C 0.06810 0.35486 0.29534
 C182 C 0.07128 0.35315 0.27262
 C183 C 0.05931 0.33617 0.26100
 C184 C 0.04427 0.32138 0.27188
 C185 C -0.01431 0.31400 0.26278
 C186 C -0.02387 0.32841 0.24694
 C187 C -0.02646 0.35244 0.25074
 C188 C -0.01782 0.36162 0.27038
 C189 C -0.00776 0.34726 0.28588
 C190 C -0.01200 0.27011 0.31627
 C191 C -0.02800 0.25772 0.32856
 C192 C -0.04803 0.26846 0.33597
 C193 C -0.05142 0.29196 0.33031
 C194 C -0.03529 0.30432 0.31842
 H195 H 0.00735 0.30949 0.34831
 H196 H 0.02229 0.28908 0.38032
 H197 H 0.07586 0.26108 0.34047
 H198 H 0.06045 0.28074 0.30835
 H199 H 0.05040 0.34216 0.32360
 H200 H 0.07695 0.36792 0.30465
 H201 H 0.03536 0.30828 0.26266
 H202 H -0.01344 0.29548 0.25992
 H203 H -0.03057 0.32031 0.23244
 H204 H -0.01843 0.38003 0.27378
 H205 H -0.00161 0.35471 0.30094
 H206 H 0.00305 0.26134 0.31063
 H207 H -0.02482 0.23952 0.33159
 H208 H -0.06591 0.30153 0.33610
 H209 H -0.03822 0.32255 0.31517
 H210 H 0.06171 0.33428 0.24353
 C211 C -0.01485 0.68825 0.69238
 C212 C 0.00802 0.68667 0.69430
 C213 C 0.02330 0.70184 0.68119
 C214 C 0.01848 0.66940 0.70923
 C215 C -0.03004 0.67669 0.70850
 C216 C -0.02538 0.70145 0.67416
 C217 C 0.03970 0.69199 0.66750
 C218 C 0.05189 0.70591 0.65284
 C219 C 0.04804 0.72998 0.65177
 C220 C 0.03252 0.73993 0.66643
 C221 C 0.02035 0.72601 0.68107
 C222 C 0.01142 0.64609 0.70904
 C223 C 0.01962 0.63037 0.72439
 C224 C 0.03564 0.63742 0.73974
 C225 C 0.04371 0.66035 0.73919
 C226 C 0.03511 0.67626 0.72409
 C227 C -0.02746 0.68070 0.73090
 C228 C -0.03948 0.66756 0.74623
 C229 C -0.05458 0.64994 0.73961
 C230 C -0.05811 0.64721 0.71689
 C231 C -0.04603 0.66046 0.70159
 C232 C -0.04272 0.71731 0.67839
 C233 C -0.05127 0.73115 0.66159
 C234 C -0.04237 0.72979 0.64014
 C235 C -0.02564 0.71302 0.63593
 C236 C -0.01769 0.69872 0.65258
 H237 H 0.04223 0.67338 0.66737
 H238 H 0.06360 0.69768 0.64168
 H239 H 0.02952 0.75846 0.66633
 H240 H 0.00803 0.73399 0.69178
 H241 H -0.00082 0.64019 0.69725
 H242 H 0.01351 0.61264 0.72426
 H243 H 0.04097 0.69407 0.72439
 H244 H -0.01561 0.69365 0.73654
 H245 H -0.03697 0.67162 0.76328
 H246 H -0.06898 0.63380 0.71056
 H247 H -0.04826 0.65714 0.68432
 H248 H -0.04908 0.71957 0.69488
 H249 H -0.06386 0.74392 0.66588
 H250 H -0.01904 0.71033 0.61960
 H251 H -0.00508 0.68582 0.64868
 H252 H 0.05615 0.66609 0.75085
 C253 C 1.00438 0.67531 0.32351
 C254 C 0.98155 0.67751 0.32186
 C255 C 0.96781 0.69189 0.33720
 C256 C 0.96904 0.66538 0.30440
 C257 C 1.01726 0.65842 0.30981
 C258 C 1.01758 0.69012 0.33854
 C259 C 0.97065 0.69046 0.35997
 C260 C 0.95719 0.70365 0.37406
 C261 C 0.94014 0.71790 0.36569
 C262 C 0.93697 0.71899 0.34301
 C263 C 0.95074 0.70623 0.32891
 C264 C 0.95244 0.64907 0.30998
 C265 C 0.94178 0.63626 0.29373
 C266 C 0.94723 0.63988 0.27155
 C267 C 0.96321 0.65702 0.26602
 C268 C 0.97404 0.66964 0.28231
 C269 C 1.03672 0.66555 0.29849
 C270 C 1.04819 0.65022 0.28467
 C271 C 1.04020 0.62739 0.28140
 C272 C 1.02111 0.62015 0.29353
 C273 C 1.01018 0.63527 0.30787
 C274 C 1.01561 0.71432 0.33788
 C275 C 1.02753 0.72812 0.35251
 C276 C 1.04202 0.71812 0.36817
 C277 C 1.04435 0.69369 0.36814
 C278 C 1.03233 0.67996 0.35349
 H279 H 0.98311 0.67895 0.36689
 H280 H 0.95973 0.70236 0.39154
 H281 H 0.92398 0.72995 0.33621
 H282 H 0.94806 0.70756 0.31146
 H283 H 0.94838 0.64565 0.32698
 H284 H 0.92983 0.62299 0.29862
 H285 H 0.98658 0.68248 0.27776
 H286 H 1.04270 0.68326 0.29986
 H287 H 1.06250 0.65689 0.27557
 H288 H 1.01491 0.60252 0.29258
 H289 H 0.99593 0.62892 0.31727
 H290 H 1.00481 0.72254 0.32597
 H291 H 1.02582 0.74671 0.35085
 H292 H 1.05455 0.68480 0.38007
 H293 H 1.03408 0.66126 0.35422
 H294 H 0.96745 0.66058 0.24910
 C295 C 1.00329 0.32045 0.68217
 C296 C 0.98093 0.32201 0.67745
 C297 C 0.97076 0.30870 0.65906
 C298 C 0.96564 0.33678 0.69072
 C299 C 1.01449 0.33719 0.69700
 C300 C 1.01802 0.30318 0.67123
 C301 C 0.98068 0.30896 0.63811
 C302 C 0.97216 0.29499 0.62146
 C303 C 0.95302 0.28119 0.62517
 C304 C 0.94227 0.28193 0.64567
 C305 C 0.95113 0.29549 0.66251
 C306 C 0.95122 0.35257 0.68043
 C307 C 0.93640 0.36609 0.69280
 C308 C 0.93561 0.36395 0.71570
 C309 C 0.95002 0.34802 0.72595
 C310 C 0.96482 0.33451 0.71357
 C311 C 1.02699 0.32915 0.71486
 C312 C 1.03927 0.34469 0.72767
 C313 C 1.03968 0.36845 0.72249
 C314 C 1.02696 0.37650 0.70475
 C315 C 1.01437 0.36102 0.69219
 C316 C 1.01246 0.27953 0.67131
 C317 C 1.02497 0.26382 0.65887
 C318 C 1.04360 0.27130 0.64612
 C319 C 1.04967 0.29504 0.64723
 C320 C 1.03709 0.31066 0.65964
 H321 H 0.99534 0.31964 0.63476
 H322 H 0.98051 0.29492 0.60566
 H323 H 0.92745 0.27143 0.64884
 H324 H 0.94301 0.29520 0.67842
 H325 H 0.95155 0.35452 0.66281
 H326 H 0.92570 0.37840 0.68445
 H327 H 0.97544 0.32204 0.72179
 H328 H 1.02744 0.31079 0.71867
 H329 H 1.04909 0.33806 0.74115
 H330 H 1.02697 0.39476 0.70050
 H331 H 1.00510 0.36751 0.67828
 H332 H 0.99807 0.27334 0.68064
 H333 H 1.02008 0.24575 0.65967
 H334 H 1.06320 0.30221 0.63742
 H335 H 1.04161 0.32888 0.65931
 H336 H 0.94952 0.34567 0.74351
 C337 C 0.29331 -0.01132 0.31007
 C338 C 0.28919 0.01195 0.31090
 C339 C 0.30276 0.02929 0.29845
 C340 C 0.27256 0.02152 0.32660
 C341 C 0.27907 -0.02779 0.32287
 C342 C 0.31272 -0.02124 0.29771
 C343 C 0.31302 0.04762 0.30974
 C344 C 0.32701 0.06330 0.29879
 C345 C 0.33103 0.06110 0.27624
 C346 C 0.32026 0.04315 0.26477
 C347 C 0.30609 0.02747 0.27576
 C348 C 0.27617 0.01930 0.34914
 C349 C 0.26175 0.03013 0.36399
 C350 C 0.24343 0.04322 0.35653
 C351 C 0.23938 0.04480 0.33400
 C352 C 0.25403 0.03421 0.31910
 C353 C 0.25565 -0.02852 0.32001
 C354 C 0.24213 -0.04206 0.33385
 C355 C 0.25181 -0.05524 0.35071
 C356 C 0.27538 -0.05522 0.35289
 C357 C 0.28887 -0.04169 0.33903
 C358 C 0.30953 -0.04072 0.28440
 C359 C 0.32745 -0.04999 0.27239
 C360 C 0.34904 -0.03971 0.27301
 C361 C 0.35220 -0.02050 0.28692
 C362 C 0.33444 -0.01183 0.29951
 H363 H 0.31078 0.04937 0.32724
 H364 H 0.33530 0.07672 0.30814
 H365 H 0.32284 0.04121 0.24733
 H366 H 0.29807 0.01367 0.26667
 H367 H 0.29057 0.00980 0.35516
 H368 H 0.26515 0.02871 0.38131
 H369 H 0.25116 0.03619 0.30173
 H370 H 0.24782 -0.01813 0.30741
 H371 H 0.22409 -0.04203 0.33150
 H372 H 0.28335 -0.06495 0.36585
 H373 H 0.30690 -0.04130 0.34152
 H374 H 0.29299 -0.04850 0.28296
 H375 H 0.32391 -0.06446 0.26170
 H376 H 0.36862 -0.01263 0.28885
 H377 H 0.33770 0.00238 0.31059
 H378 H 0.22547 0.05503 0.32795
 C379 C 0.68731 0.00518 0.68307
 C380 C 0.69055 0.02863 0.68232
 C381 C 0.67789 0.04471 0.69675
 C382 C 0.70607 0.03968 0.66637
 C383 C 0.69936 -0.01101 0.66803
 C384 C 0.67081 -0.00525 0.69861
 C385 C 0.66418 0.06170 0.68729
 C386 C 0.65078 0.07589 0.70038
 C387 C 0.65091 0.07350 0.72325
 C388 C 0.66521 0.05694 0.73277
 C389 C 0.67871 0.04275 0.71962
 C390 C 0.70210 0.03835 0.64382
 C391 C 0.71729 0.04841 0.62901
 C392 C 0.73669 0.05972 0.63658
 C393 C 0.74040 0.06130 0.65915
 C394 C 0.72506 0.05159 0.67394
 C395 C 0.72271 -0.00950 0.66455
 C396 C 0.73324 -0.02310 0.64862
 C397 C 0.72088 -0.03949 0.63651
 C398 C 0.69778 -0.04214 0.64128
 C399 C 0.68714 -0.02793 0.65666
 C400 C 0.67810 -0.02124 0.71426
 C401 C 0.66316 -0.02990 0.73004
 C402 C 0.64038 -0.02276 0.73059
 C403 C 0.63316 -0.00711 0.71426
 C404 C 0.64811 0.00128 0.69837
 H405 H 0.66330 0.06345 0.66968
 H406 H 0.63974 0.08826 0.69255
 H407 H 0.66589 0.05493 0.75035
 H408 H 0.68948 0.02997 0.72721
 H409 H 0.68736 0.02939 0.63777
 H410 H 0.71414 0.04698 0.61165
 H411 H 0.72822 0.05288 0.69131
 H412 H 0.73279 0.00266 0.67374
 H413 H 0.75096 -0.02021 0.64551
 H414 H 0.68774 -0.05508 0.63304
 H415 H 0.66919 -0.02983 0.65934
 H416 H 0.69560 -0.02645 0.71470
 H417 H 0.67000 -0.04125 0.74241
 H418 H 0.61576 -0.00180 0.71309
 H419 H 0.64204 0.01318 0.68602
 H420 H 0.75513 0.07018 0.66532
 C421 C 0.34163 1.00616 0.65818
 C422 C 0.34422 0.98277 0.65720
 C423 C 0.35972 0.96982 0.67177
 C424 C 0.33121 0.96853 0.64158
 C425 C 0.32717 1.01881 0.64253
 C426 C 0.35345 1.02072 0.67442
 C427 C 0.38242 0.97630 0.67397
 C428 C 0.39690 0.96306 0.68688
 C429 C 0.38907 0.94279 0.69726
 C430 C 0.36649 0.93620 0.69488
 C431 C 0.35195 0.94964 0.68236
 C432 C 0.34266 0.95469 0.62636
 C433 C 0.33082 0.93922 0.61320
 C434 C 0.30732 0.93703 0.61527
 C435 C 0.29586 0.95134 0.63027
 C436 C 0.30772 0.96698 0.64328
 C437 C 0.30945 1.03253 0.65043
 C438 C 0.29716 1.04648 0.63618
 C439 C 0.30262 1.04722 0.61381
 C440 C 0.32013 1.03313 0.60585
 C441 C 0.33229 1.01899 0.62011
 C442 C 0.34993 1.01766 0.69695
 C443 C 0.36000 1.03279 0.71188
 C444 C 0.37370 1.05121 0.70446
 C445 C 0.37748 1.05380 0.68187
 C446 C 0.36733 1.03884 0.66703
 H447 H 0.38903 0.99134 0.66542
 H448 H 0.41434 0.96832 0.68838
 H449 H 0.36006 0.92076 0.70292
 H450 H 0.33457 0.94420 0.68083
 H451 H 0.36082 0.95564 0.62493
 H452 H 0.34011 0.92880 0.60154
 H453 H 0.29868 0.97725 0.65526
 H454 H 0.30544 1.03275 0.66773
 H455 H 0.28393 1.05736 0.64277
 H456 H 0.32458 1.03331 0.58865
 H457 H 0.34614 1.00875 0.61379
 H458 H 0.33900 1.00394 0.70292
 H459 H 0.35658 1.03045 0.72915
 H460 H 0.38834 1.06744 0.67561
 H461 H 0.37027 1.04142 0.64970
 H462 H 0.27782 0.94986 0.63253
 C463 C 0.69114 1.00316 0.30863
 C464 C 0.69074 0.97960 0.31116
 C465 C 0.67425 0.96484 0.29927
 C466 C 0.70601 0.96712 0.32633
 C467 C 0.70608 1.01867 0.32163
 C468 C 0.67567 1.01484 0.29308
 C469 C 0.65099 0.96908 0.30069
 C470 C 0.63578 0.95517 0.28931
 C471 C 0.64349 0.93631 0.27688
 C472 C 0.66666 0.93163 0.27600
 C473 C 0.68190 0.94582 0.28703
 C474 C 0.69665 0.95179 0.34177
 C475 C 0.71043 0.93915 0.35575
 C476 C 0.73395 0.94146 0.35459
 C477 C 0.74341 0.95704 0.33933
 C478 C 0.72954 0.96963 0.32515
 C479 C 0.71763 1.03682 0.31107
 C480 C 0.73087 1.05232 0.32291
 C481 C 0.73334 1.04993 0.34574
 C482 C 0.72182 1.03149 0.35623
 C483 C 0.70797 1.01647 0.34441
 C484 C 0.67623 1.00981 0.27064
 C485 C 0.66062 1.01997 0.25651
 C486 C 0.64419 1.03536 0.26457
 C487 C 0.64402 1.04058 0.28704
 C488 C 0.65970 1.03058 0.30108
 H489 H 0.64461 0.98314 0.31065
 H490 H 0.61795 0.95887 0.29050
 H491 H 0.67298 0.91719 0.26649
 H492 H 0.69973 0.94207 0.28592
 H493 H 0.67857 0.94962 0.34302
 H494 H 0.70265 0.92756 0.36756
 H495 H 0.73714 0.98112 0.31314
 H496 H 0.71643 1.03899 0.29353
 H497 H 0.73983 1.06564 0.31385
 H498 H 0.72237 1.02933 0.37379
 H499 H 0.69846 1.00334 0.35319
 H500 H 0.68861 0.99786 0.26415
 H501 H 0.66149 1.01585 0.23927
 H502 H 0.63140 1.05198 0.29394
 H503 H 0.65894 1.03458 0.31836
 H504 H 0.76150 0.95900 0.33800
 O505 O 0.85233 0.88427 0.52721
 O506 O 0.88400 0.85048 0.48679
 O507 O 0.85572 0.88551 0.48423
 O508 O 0.87895 0.84905 0.52859
 O509 O 0.84911 0.82620 0.52646
 O510 O 0.82786 0.86051 0.48059
 O511 O 0.85575 0.82573 0.48423
 O512 O 0.82274 0.86149 0.52308
 Cu513 Cu 0.87056 0.86992 0.50681
 Cu514 Cu 0.83596 0.84114 0.50311
 C515 C 0.83237 0.87849 0.53239
 C516 C 0.87568 0.83194 0.47912
 C517 C 0.83785 0.87899 0.47468
 C518 C 0.86763 0.83164 0.53531
 O519 O 0.16951 0.14516 0.52596
 O520 O 0.14311 0.18315 0.48518
 O521 O 0.17096 0.14820 0.48360
 O522 O 0.14297 0.18101 0.52781
 O523 O 0.17221 0.20458 0.52911
 O524 O 0.20008 0.17196 0.48544
 O525 O 0.17245 0.20665 0.48626
 O526 O 0.19894 0.16861 0.52711
 Cu527 Cu 0.15363 0.16208 0.50549
 Cu528 Cu 0.18871 0.19051 0.50722
 C529 C 0.18892 0.15014 0.53315
 C530 C 0.15334 0.20124 0.47855
 C531 C 0.19055 0.15432 0.47727
 C532 C 0.15293 0.19841 0.53607
 O533 O 0.14532 0.81397 0.52483
 O534 O 0.17250 0.84186 0.47676
 O535 O 0.14334 0.80864 0.48258
 O536 O 0.17279 0.84894 0.51862
 O537 O 0.20140 0.82474 0.52074
 O538 O 0.17131 0.78369 0.48491
 O539 O 0.20040 0.81681 0.47906
 O540 O 0.17396 0.78984 0.52710
 Cu541 Cu 0.15562 0.83077 0.50053
 Cu542 Cu 0.18955 0.80127 0.50327
 C543 C 0.15513 0.79708 0.53419
 C544 C 0.19118 0.83398 0.46971
 C545 C 0.15219 0.78940 0.47740
 C546 C 0.19226 0.84401 0.52559
 O547 O 0.86987 0.17047 0.50994
 O548 O 0.84570 0.12787 0.47168
 O549 O 0.87785 0.15916 0.46926
 O550 O 0.83825 0.13910 0.51191
 O551 O 0.81295 0.16415 0.50030
 O552 O 0.85332 0.18567 0.45912
 O553 O 0.82177 0.15432 0.45999
 O554 O 0.84413 0.19588 0.50002
 Cu555 Cu 0.86052 0.14662 0.49172
 Cu556 Cu 0.83069 0.17773 0.47874
 C557 C 0.86076 0.19029 0.51187
 C558 C 0.82946 0.13378 0.45945
 C559 C 0.87237 0.17595 0.45693
 C560 C 0.81867 0.14786 0.51311
 O561 O 0.49284 0.88750 0.83810
 O562 O 0.52750 0.85608 0.87710
 O563 O 0.53389 0.88431 0.84565
 O564 O 0.48331 0.85333 0.86676
 O565 O 0.48827 0.82645 0.84164
 O566 O 0.53983 0.85503 0.82309
 O567 O 0.53023 0.82635 0.85456
 O568 O 0.49741 0.85953 0.81388
 Cu569 Cu 0.50815 0.87237 0.85967
 Cu570 Cu 0.51435 0.83896 0.83099
 C571 C 0.48983 0.87945 0.81909
 C572 C 0.53506 0.83610 0.87259
 C573 C 0.54542 0.87468 0.83059
 C574 C 0.47693 0.83480 0.85733
 O575 O 0.51573 0.16548 0.14795
 O576 O 0.47352 0.12746 0.17344
 O577 O 0.47194 0.16300 0.14660
 O578 O 0.51722 0.13217 0.17678
 O579 O 0.51292 0.15700 0.20384
 O580 O 0.46908 0.18761 0.17399
 O581 O 0.46923 0.15235 0.20048
 O582 O 0.51267 0.19015 0.17531
 Cu583 Cu 0.49490 0.14450 0.15850
 Cu584 Cu 0.49057 0.17415 0.19115
 C585 C 0.52161 0.18419 0.15722
 C586 C 0.46399 0.13339 0.19117
 C587 C 0.46296 0.18084 0.15525
 C588 C 0.52296 0.13976 0.19547
 O589 O 0.51760 0.12607 0.84376
 O590 O 0.47197 0.16020 0.86920
 O591 O 0.47397 0.12461 0.84256
 O592 O 0.51582 0.16169 0.86989
 O593 O 0.51690 0.18473 0.84099
 O594 O 0.47351 0.14913 0.81482
 O595 O 0.47349 0.18488 0.84155
 O596 O 0.51736 0.14970 0.81529
 Cu597 Cu 0.49469 0.14076 0.85922
 Cu598 Cu 0.49509 0.16944 0.82527
 C599 C 0.52530 0.13215 0.82516
 C600 C 0.46548 0.17877 0.85999
 C601 C 0.46676 0.13046 0.82385
 C602 C 0.52377 0.17934 0.85993
 O603 O 0.46617 0.84195 0.13492
 O604 O 0.50788 0.87805 0.16338
 O605 O 0.50925 0.84816 0.13124
 O606 O 0.46476 0.87188 0.16695
 O607 O 0.47015 0.84328 0.19046
 O608 O 0.51469 0.81976 0.15485
 O609 O 0.51369 0.84965 0.18692
 O610 O 0.47130 0.81385 0.15901
 Cu611 Cu 0.48650 0.86287 0.14676
 Cu612 Cu 0.49317 0.82883 0.17520
 C613 C 0.46150 0.82184 0.14222
 C614 C 0.51786 0.87007 0.18007
 C615 C 0.51943 0.82974 0.13685
 C616 C 0.45975 0.86148 0.18467
 O617 O 0.83580 0.48103 0.87646
 O618 O 0.85782 0.52579 0.83880
 O619 O 0.82820 0.52513 0.87038
 O620 O 0.86521 0.48180 0.84437
 O621 O 0.83839 0.47361 0.82086
 O622 O 0.80158 0.51682 0.84670
 O623 O 0.83107 0.51749 0.81524
 O624 O 0.80906 0.47271 0.85291
 Cu625 Cu 0.84942 0.50421 0.85991
 Cu626 Cu 0.81731 0.49424 0.83164
 C627 C 0.81857 0.46926 0.87118
 C628 C 0.84828 0.52927 0.82055
 C629 C 0.80859 0.52851 0.86285
 C630 C 0.85821 0.47054 0.82791
 O631 O 0.16479 0.49187 0.12551
 O632 O 0.13914 0.53334 0.16396
 O633 O 0.16981 0.53583 0.13277
 O634 O 0.13480 0.48927 0.15661
 O635 O 0.16106 0.48261 0.18112
 O636 O 0.19676 0.52780 0.15620
 O637 O 0.16664 0.52705 0.18734
 O638 O 0.19088 0.48362 0.14980
 Cu639 Cu 0.14946 0.51344 0.14234
 Cu640 Cu 0.18149 0.50456 0.17104
 C641 C 0.18211 0.48051 0.13114
 C642 C 0.14850 0.53728 0.18218
 C643 C 0.18947 0.53945 0.14010
 C644 C 0.14192 0.47803 0.17305
 O645 O 0.83236 0.51795 0.13647
 O646 O 0.87035 0.47676 0.16449
 O647 O 0.84214 0.47461 0.13136
 O648 O 0.86110 0.52059 0.16809
 O649 O 0.83286 0.51307 0.19067
 O650 O 0.81601 0.46432 0.15536
 O651 O 0.84339 0.46979 0.18871
 O652 O 0.80483 0.50745 0.15886
 Cu653 Cu 0.85430 0.49820 0.14774
 Cu654 Cu 0.82158 0.48755 0.17572
 C655 C 0.81195 0.51939 0.14277
 C656 C 0.86347 0.46713 0.18204
 C657 C 0.82557 0.46191 0.13685
 C658 C 0.85018 0.52493 0.18550
 O659 O 0.11232 0.47495 0.85613
 O660 O 0.14369 0.52081 0.88451
 O661 O 0.11699 0.51973 0.85112
 O662 O 0.14019 0.47584 0.88901
 O663 O 0.16793 0.46957 0.86563
 O664 O 0.14689 0.51573 0.82985
 O665 O 0.17318 0.51463 0.86323
 O666 O 0.14026 0.47126 0.83242
 Cu667 Cu 0.12541 0.49826 0.87246
 Cu668 Cu 0.15997 0.49211 0.84561
 C669 C 0.12067 0.46566 0.83913
 C670 C 0.16375 0.52563 0.87877
 C671 C 0.12832 0.52556 0.83424
 C672 C 0.15800 0.46503 0.88359
 C673 C 0.24523 0.38244 0.06449
 C674 C 0.23565 0.39850 0.07907
 C675 C 0.24060 0.39705 0.10162
 C676 C 0.25475 0.37941 0.10923
 C677 C 0.26391 0.36331 0.09468
 C678 C 0.25931 0.36471 0.07222
 C679 C 0.23125 0.41317 0.11622
 C680 C 0.21671 0.43051 0.10864
 C681 C 0.21143 0.43171 0.08616
 C682 C 0.22107 0.41582 0.07150
 C683 C 0.19650 0.44874 0.07873
 C684 C 0.18687 0.46445 0.09341
 C685 C 0.19219 0.46362 0.11575
 C686 C 0.20722 0.44659 0.12324
 H687 H 0.24145 0.38347 0.04720
 H688 H 0.25870 0.37802 0.12645
 H689 H 0.27486 0.34988 0.10093
 H690 H 0.23517 0.41211 0.13349
 H691 H 0.21711 0.41685 0.05424
 H692 H 0.19221 0.44988 0.06158
 H693 H 0.17540 0.47743 0.08721
 H694 H 0.21132 0.44566 0.14046
 C695 C 0.74172 0.61148 0.07629
 C696 C 0.75721 0.59697 0.08673
 C697 C 0.78055 0.60132 0.08447
 C698 C 0.78794 0.62038 0.07199
 C699 C 0.77235 0.63492 0.06183
 C700 C 0.74916 0.63049 0.06378
 C701 C 0.79605 0.58662 0.09476
 C702 C 0.78846 0.56785 0.10753
 C703 C 0.76506 0.56381 0.11000
 C704 C 0.74963 0.57828 0.09948
 C705 C 0.75743 0.54541 0.12308
 C706 C 0.77277 0.53113 0.13372
 C707 C 0.79606 0.53477 0.13129
 C708 C 0.80383 0.55313 0.11803
 H709 H 0.72383 0.60817 0.07811
 H710 H 0.80575 0.62403 0.07010
 H711 H 0.77840 0.64945 0.05215
 H712 H 0.81396 0.58987 0.09295
 H713 H 0.73171 0.57506 0.10132
 H714 H 0.73957 0.54212 0.12517
 H715 H 0.76637 0.51704 0.14375
 H716 H 0.82176 0.55617 0.11617
 C717 C 0.75082 0.37650 0.94130
 C718 C 0.76139 0.39129 0.92600
 C719 C 0.75229 0.39366 0.90480
 C720 C 0.73306 0.38101 0.89914
 C721 C 0.72255 0.36657 0.91446
 C722 C 0.73110 0.36439 0.93574
 C723 C 0.76228 0.40893 0.88969
 C724 C 0.78115 0.42211 0.89551
 C725 C 0.79048 0.41959 0.91658
 C726 C 0.78061 0.40412 0.93167
 C727 C 0.80935 0.43285 0.92230
 C728 C 0.81866 0.44873 0.90743
 C729 C 0.80930 0.45166 0.88655
 C730 C 0.79063 0.43806 0.88067
 H731 H 0.75746 0.37503 0.95770
 H732 H 0.72595 0.38251 0.88294
 H733 H 0.70760 0.35713 0.90969
 H734 H 0.75514 0.41083 0.87351
 H735 H 0.78765 0.40234 0.94789
 H736 H 0.81677 0.43113 0.93835
 H737 H 0.83305 0.45894 0.91242
 H738 H 0.78325 0.44006 0.86462
 C739 C 0.24412 0.62141 0.92853
 C740 C 0.23284 0.60312 0.91811
 C741 C 0.24508 0.58748 0.90480
 C742 C 0.26842 0.59026 0.90239
 C743 C 0.27957 0.60822 0.91319
 C744 C 0.26754 0.62395 0.92627
 C745 C 0.23384 0.56922 0.89431
 C746 C 0.21057 0.56613 0.89723
 C747 C 0.19842 0.58155 0.91083
 C748 C 0.20958 0.60003 0.92103
 C749 C 0.17527 0.57819 0.91408
 C750 C 0.16419 0.55982 0.90389
 C751 C 0.17596 0.54453 0.89007
 C752 C 0.19923 0.54782 0.88683
 H753 H 0.23481 0.63334 0.93885
 H754 H 0.27809 0.57842 0.89232
 H755 H 0.29764 0.60994 0.91124
 H756 H 0.24323 0.55732 0.88402
 H757 H 0.20020 0.61189 0.93137
 H758 H 0.16572 0.58979 0.92449
 H759 H 0.14626 0.55778 0.90662
 H760 H 0.20854 0.53611 0.87630
 C761 C 0.08260 0.26380 0.38688
 C762 C 0.09186 0.25193 0.40473
 C763 C 0.07798 0.23742 0.41778
 C764 C 0.05496 0.23556 0.41312
 C765 C 0.04582 0.24769 0.39548
 C766 C 0.05960 0.26163 0.38208
 C767 C 0.08736 0.22487 0.43515
 C768 C 0.11040 0.22684 0.43976
 C769 C 0.12411 0.24190 0.42711
 C770 C 0.11478 0.25427 0.40962
 C771 C 0.14702 0.24419 0.43206
 C772 C 0.15637 0.23137 0.44913
 C773 C 0.14305 0.21585 0.46141
 C774 C 0.11999 0.21382 0.45672
 H775 H 0.09324 0.27479 0.37673
 H776 H 0.04405 0.22461 0.42301
 H777 H 0.02807 0.24578 0.39197
 H778 H 0.07678 0.21350 0.44498
 H779 H 0.12538 0.26558 0.39974
 H780 H 0.15774 0.25574 0.42261
 H781 H 0.17418 0.23322 0.45240
 H782 H 0.10951 0.20205 0.46622
 C783 C 0.08199 0.74057 0.62904
 C784 C 0.09229 0.75339 0.61216
 C785 C 0.07986 0.77048 0.60086
 C786 C 0.05738 0.77455 0.60677
 C787 C 0.04721 0.76162 0.62350
 C788 C 0.05933 0.74443 0.63474
 C789 C 0.09000 0.78299 0.58366
 C790 C 0.11236 0.77847 0.57748
 C791 C 0.12479 0.76145 0.58890
 C792 C 0.11473 0.74914 0.60622
 C793 C 0.14703 0.75679 0.58264
 C794 C 0.15682 0.76858 0.56503
 C795 C 0.14465 0.78541 0.55336
 C796 C 0.12242 0.79043 0.55986
 H797 H 0.09160 0.72756 0.63773
 H798 H 0.04756 0.78752 0.59826
 H799 H 0.02963 0.76470 0.62729
 H800 H 0.08041 0.79601 0.57494
 H801 H 0.12428 0.73603 0.61487
 H802 H 0.15680 0.74384 0.59123
 H803 H 0.17399 0.76440 0.56048
 H804 H 0.11282 0.80332 0.55099
 C805 C 0.93522 0.74654 0.39594
 C806 C 0.92148 0.76013 0.40956
 C807 C 0.89778 0.75829 0.40815
 C808 C 0.88826 0.74313 0.39286
 C809 C 0.90208 0.73006 0.37902
 C810 C 0.92561 0.73158 0.38052
 C811 C 0.88401 0.77176 0.42188
 C812 C 0.89364 0.78744 0.43666
 C813 C 0.91734 0.78960 0.43768
 C814 C 0.93109 0.77577 0.42433
 C815 C 0.92696 0.80569 0.45196
 C816 C 0.91329 0.81955 0.46514
 C817 C 0.88972 0.81738 0.46457
 C818 C 0.87997 0.80117 0.45032
 H819 H 0.95339 0.74795 0.39695
 H820 H 0.87015 0.74154 0.39148
 H821 H 0.89440 0.71855 0.36724
 H822 H 0.86585 0.77021 0.42089
 H823 H 0.94926 0.77737 0.42526
 H824 H 0.94508 0.80762 0.45290
 H825 H 0.92123 0.83180 0.47607
 H826 H 0.86181 0.79947 0.44965
 C827 C 0.92235 0.26649 0.60088
 C828 C 0.91463 0.25145 0.58449
 C829 C 0.92941 0.23475 0.57546
 C830 C 0.95179 0.23379 0.58256
 C831 C 0.95945 0.24915 0.59851
 C832 C 0.94479 0.26545 0.60791
 C833 C 0.92163 0.21932 0.55946
 C834 C 0.89937 0.22066 0.55203
 C835 C 0.88480 0.23782 0.56057
 C836 C 0.89245 0.25294 0.57690
 C837 C 0.86280 0.23958 0.55263
 C838 C 0.85520 0.22439 0.53650
 C839 C 0.86933 0.20690 0.52827
 C840 C 0.89145 0.20515 0.53612
 H841 H 0.91106 0.27921 0.60797
 H842 H 0.96337 0.22119 0.57576
 H843 H 0.97677 0.24808 0.60381
 H844 H 0.93291 0.20635 0.55275
 H845 H 0.88117 0.26592 0.58360
 H846 H 0.85144 0.25270 0.55890
 H847 H 0.83807 0.22605 0.53077
 H848 H 0.90255 0.19186 0.52972
 C849 C 0.36316 0.06830 0.25024
 C850 C 0.37968 0.08296 0.24115
 C851 C 0.38017 0.10670 0.24692
 C852 C 0.36387 0.11546 0.26134
 C853 C 0.34755 0.10075 0.27036
 C854 C 0.34718 0.07700 0.26514
 C855 C 0.39706 0.12126 0.23837
 C856 C 0.41344 0.11240 0.22406
 C857 C 0.41272 0.08872 0.21802
 C858 C 0.39591 0.07415 0.22666
 C859 C 0.42885 0.08000 0.20341
 C860 C 0.44550 0.09457 0.19478
 C861 C 0.44654 0.11807 0.20081
 C862 C 0.43048 0.12686 0.21558
 H863 H 0.36322 0.04997 0.24629
 H864 H 0.36389 0.13363 0.26583
 H865 H 0.33524 0.10793 0.28158
 H866 H 0.39750 0.13943 0.24292
 H867 H 0.39551 0.05596 0.22215
 H868 H 0.42854 0.06193 0.19857
 H869 H 0.45770 0.08739 0.18345
 H870 H 0.43100 0.14501 0.22016
 C871 C 0.62339 0.07767 0.75433
 C872 C 0.60733 0.09065 0.76596
 C873 C 0.60346 0.11406 0.76012
 C874 C 0.61607 0.12426 0.74320
 C875 C 0.63195 0.11122 0.73170
 C876 C 0.63553 0.08775 0.73688
 C877 C 0.58679 0.12682 0.77101
 C878 C 0.57388 0.11650 0.78767
 C879 C 0.57807 0.09328 0.79393
 C880 C 0.59476 0.08047 0.78301
 C881 C 0.56530 0.08323 0.81088
 C882 C 0.54834 0.09595 0.82131
 C883 C 0.54371 0.11884 0.81479
 C884 C 0.55669 0.12903 0.79803
 H885 H 0.62583 0.05951 0.75834
 H886 H 0.61344 0.14223 0.73865
 H887 H 0.64135 0.11949 0.71858
 H888 H 0.58367 0.14469 0.76632
 H889 H 0.59778 0.06256 0.78760
 H890 H 0.56833 0.06549 0.81597
 H891 H 0.53857 0.08775 0.83421
 H892 H 0.55345 0.14678 0.79305
 C893 C 0.41682 0.93890 0.72745
 C894 C 0.42998 0.92523 0.74137
 C895 C 0.43108 0.90094 0.73820
 C896 C 0.41893 0.89077 0.72115
 C897 C 0.40546 0.90445 0.70768
 C898 C 0.40425 0.92856 0.71077
 C899 C 0.44392 0.88720 0.75237
 C900 C 0.45518 0.89736 0.77001
 C901 C 0.45389 0.92163 0.77324
 C902 C 0.44156 0.93543 0.75876
 C903 C 0.46464 0.93171 0.79116
 C904 C 0.47629 0.91787 0.80596
 C905 C 0.47772 0.89374 0.80297
 C906 C 0.46735 0.88359 0.78477
 H907 H 0.41570 0.95747 0.73004
 H908 H 0.41954 0.87220 0.71848
 H909 H 0.39592 0.89622 0.69481
 H910 H 0.44474 0.86858 0.74995
 H911 H 0.44058 0.95402 0.76129
 H912 H 0.46381 0.95026 0.79388
 H913 H 0.48431 0.92612 0.81977
 H914 H 0.46827 0.86498 0.78240
 C915 C 0.61112 0.93146 0.25133
 C916 C 0.59592 0.91740 0.23988
 C917 C 0.59670 0.89301 0.24246
 C918 C 0.61293 0.88311 0.25613
 C919 C 0.62824 0.89721 0.26716
 C920 C 0.62738 0.92146 0.26497
 C921 C 0.58131 0.87893 0.23130
 C922 C 0.56539 0.88888 0.21730
 C923 C 0.56494 0.91323 0.21436
 C924 C 0.58008 0.92734 0.22579
 C925 C 0.54936 0.92307 0.19998
 C926 C 0.53429 0.90896 0.18866
 C927 C 0.53430 0.88478 0.19172
 C928 C 0.54993 0.87485 0.20611
 H929 H 0.61057 0.95016 0.24939
 H930 H 0.61382 0.86446 0.25825
 H931 H 0.64060 0.88921 0.27769
 H932 H 0.58181 0.86024 0.23342
 H933 H 0.57961 0.94602 0.22365
 H934 H 0.54883 0.94168 0.19747
 H935 H 0.52237 0.91705 0.17772
 H936 H 0.55022 0.85620 0.20846
 C937 C 0.37505 0.24442 0.93176
 C938 C 0.38899 0.22954 0.91966
 C939 C 0.38566 0.20533 0.92082
 C940 C 0.36779 0.19647 0.93332
 C941 C 0.35342 0.21139 0.94473
 C942 C 0.35693 0.23573 0.94461
 C943 C 0.40017 0.19039 0.90937
 C944 C 0.41753 0.19948 0.89619
 C945 C 0.42012 0.22381 0.89422
 C946 C 0.40606 0.23865 0.90618
 C947 C 0.43679 0.23294 0.88032
 C948 C 0.45101 0.21813 0.86870
 C949 C 0.44916 0.19397 0.87115
 C950 C 0.43234 0.18470 0.88490
 H951 H 0.37772 0.26291 0.92991
 H952 H 0.36493 0.17791 0.93436
 H953 H 0.34046 0.20338 0.95472
 H954 H 0.39786 0.17175 0.91058
 H955 H 0.40836 0.25729 0.90493
 H956 H 0.43889 0.25153 0.87850
 H957 H 0.46395 0.22560 0.85826
 H958 H 0.43072 0.16604 0.88667
 C959 C 0.61243 0.75814 0.94703
 C960 C 0.59696 0.76862 0.93293
 C961 C 0.58373 0.75471 0.91896
 C962 C 0.58573 0.73048 0.91988
 C963 C 0.60100 0.72016 0.93420
 C964 C 0.61467 0.73392 0.94761
 C965 C 0.56887 0.76526 0.90424
 C966 C 0.56687 0.78951 0.90353
 C967 C 0.57962 0.80331 0.91803
 C968 C 0.59467 0.79280 0.93251
 C969 C 0.57718 0.82746 0.91778
 C970 C 0.56241 0.83794 0.90319
 C971 C 0.55005 0.82451 0.88833
 C972 C 0.55235 0.80025 0.88858
 H973 H 0.62279 0.76879 0.95755
 H974 H 0.57566 0.71953 0.90939
 H975 H 0.60259 0.70144 0.93438
 H976 H 0.55894 0.75462 0.89332
 H977 H 0.60464 0.80344 0.94340
 H978 H 0.58674 0.83827 0.92885
 H979 H 0.56096 0.85667 0.90325
 H980 H 0.54270 0.78976 0.87731
 C981 C 0.37931 0.75144 0.06605
 C982 C 0.39528 0.76535 0.07668
 C983 C 0.41145 0.77777 0.06425
 C984 C 0.41185 0.77549 0.04149
 C985 C 0.39649 0.76096 0.03108
 C986 C 0.37981 0.74882 0.04310
 C987 C 0.42714 0.79206 0.07476
 C988 C 0.42743 0.79339 0.09764
 C989 C 0.41183 0.78024 0.11015
 C990 C 0.39560 0.76664 0.09959
 C991 C 0.41290 0.78072 0.13304
 C992 C 0.42931 0.79403 0.14344
 C993 C 0.44447 0.80759 0.13114
 C994 C 0.44336 0.80734 0.10824
 H995 H 0.36729 0.74174 0.07587
 H996 H 0.42414 0.78488 0.03170
 H997 H 0.39717 0.76013 0.01341
 H998 H 0.43936 0.80180 0.06516
 H999 H 0.38347 0.75679 0.10919
 H1000 H 0.40120 0.77063 0.14288
 H1001 H 0.42994 0.79408 0.16113
 H1002 H 0.45526 0.81756 0.09871
 C1003 C 0.61457 0.24804 0.08596
 C1004 C 0.59764 0.23459 0.09596
 C1005 C 0.58760 0.21621 0.08425
 C1006 C 0.59452 0.21171 0.06274
 C1007 C 0.61112 0.22540 0.05280
 C1008 C 0.62135 0.24370 0.06425
 C1009 C 0.57070 0.20272 0.09416
 C1010 C 0.56351 0.20753 0.11555
 C1011 C 0.57335 0.22605 0.12721
 C1012 C 0.59047 0.23939 0.11739
 C1013 C 0.56585 0.23094 0.14850
 C1014 C 0.54884 0.21753 0.15819
 C1015 C 0.53914 0.19890 0.14683
 C1016 C 0.54658 0.19407 0.12545
 H1017 H 0.62248 0.26185 0.09513
 H1018 H 0.58689 0.19779 0.05349
 H1019 H 0.61560 0.22192 0.03594
 H1020 H 0.56306 0.18857 0.08518
 H1021 H 0.59807 0.25356 0.12635
 H1022 H 0.57316 0.24511 0.15766
 H1023 H 0.54345 0.22159 0.17469
 H1024 H 0.53917 0.17983 0.11644
 C1025 C 0.26735 0.06598 0.60018
 C1026 C 0.25636 0.08240 0.58708
 C1027 C 0.26910 0.09683 0.57290
 C1028 C 0.29254 0.09427 0.57173
 C1029 C 0.30331 0.07775 0.58468
 C1030 C 0.29088 0.06363 0.59913
 C1031 C 0.25825 0.11359 0.56012
 C1032 C 0.23477 0.11585 0.56104
 C1033 C 0.22196 0.10110 0.57487
 C1034 C 0.23285 0.08461 0.58795
 C1035 C 0.19842 0.10294 0.57518
 C1036 C 0.18765 0.11903 0.56173
 C1037 C 0.20026 0.13391 0.54813
 C1038 C 0.22385 0.13238 0.54803
 H1039 H 0.25763 0.05498 0.61114
 H1040 H 0.30255 0.10515 0.56092
 H1041 H 0.32148 0.07641 0.58380
 H1042 H 0.26806 0.12474 0.54935
 H1043 H 0.22304 0.07342 0.59868
 H1044 H 0.18832 0.09172 0.58561
 H1045 H 0.16944 0.11992 0.56199
 H1046 H 0.23367 0.14355 0.53730
 C1047 C 0.75794 0.05896 0.37697
 C1048 C 0.77087 0.07486 0.38895
 C1049 C 0.77196 0.09832 0.38225
 C1050 C 0.76087 0.10527 0.36324
 C1051 C 0.74860 0.08926 0.35103
 C1052 C 0.74658 0.06588 0.35780
 C1053 C 0.78405 0.11447 0.39466
 C1054 C 0.79553 0.10738 0.41347
 C1055 C 0.79531 0.08372 0.41966
 C1056 C 0.78281 0.06765 0.40749
 C1057 C 0.80746 0.07658 0.43805
 C1058 C 0.81927 0.09279 0.45051
 C1059 C 0.81885 0.11647 0.44500
 C1060 C 0.80710 0.12361 0.42630
 H1061 H 0.75754 0.04099 0.38221
 H1062 H 0.76157 0.12319 0.35784
 H1063 H 0.73977 0.09570 0.33686
 H1064 H 0.78450 0.13256 0.38970
 H1065 H 0.78233 0.04957 0.41248
 H1066 H 0.80763 0.05849 0.44295
 H1067 H 0.82814 0.08690 0.46489
 H1068 H 0.80686 0.14183 0.42181
 C1069 C 0.75498 0.94133 0.61948
 C1070 C 0.76555 0.92954 0.60220
 C1071 C 0.75276 0.92196 0.58418
 C1072 C 0.72971 0.92691 0.58351
 C1073 C 0.71946 0.93942 0.60039
 C1074 C 0.73187 0.94672 0.61870
 C1075 C 0.76326 0.90986 0.56703
 C1076 C 0.78657 0.90592 0.56733
 C1077 C 0.79945 0.91423 0.58505
 C1078 C 0.78882 0.92559 0.60252
 C1079 C 0.82283 0.91123 0.58494
 C1080 C 0.83341 0.90005 0.56749
 C1081 C 0.82077 0.89118 0.55008
 C1082 C 0.79729 0.89405 0.55012
 H1083 H 0.76490 0.94627 0.63350
 H1084 H 0.71966 0.92151 0.56970
 H1085 H 0.70184 0.94371 0.59876
 H1086 H 0.75337 0.90383 0.55332
 H1087 H 0.79872 0.93170 0.61619
 H1088 H 0.83297 0.91761 0.59831
 H1089 H 0.85151 0.89787 0.56785
 H1090 H 0.78748 0.88739 0.53663
 C1091 C 0.24401 0.90999 0.37447
 C1092 C 0.23132 0.89855 0.39068
 C1093 C 0.21155 0.90897 0.39906
 C1094 C 0.20467 0.93052 0.39083
 C1095 C 0.21751 0.94189 0.37482
 C1096 C 0.23741 0.93188 0.36662
 C1097 C 0.19921 0.89787 0.41576
 C1098 C 0.20656 0.87661 0.42436
 C1099 C 0.22622 0.86613 0.41577
 C1100 C 0.23837 0.87707 0.39891
 C1101 C 0.23367 0.84502 0.42443
 C1102 C 0.22205 0.83454 0.44173
 C1103 C 0.20263 0.84487 0.45067
 C1104 C 0.19481 0.86583 0.44168
 H1105 H 0.25914 0.90192 0.36807
 H1106 H 0.18958 0.93879 0.39707
 H1107 H 0.21218 0.95886 0.36930
 H1108 H 0.18414 0.90596 0.42230
 H1109 H 0.25354 0.86907 0.39248
 H1110 H 0.24867 0.83673 0.41801
 H1111 H 0.22841 0.81836 0.44823
 H1112 H 0.17989 0.87400 0.44842
 C1113 C 0.05349 0.38505 0.75785
 C1114 C 0.06744 0.40030 0.76952
 C1115 C 0.08266 0.41492 0.75807
 C1116 C 0.08334 0.41437 0.73516
 C1117 C 0.06911 0.39948 0.72369
 C1118 C 0.05419 0.38462 0.73489
 C1119 C 0.09682 0.42997 0.76965
 C1120 C 0.09559 0.43104 0.79255
 C1121 C 0.07999 0.41681 0.80397
 C1122 C 0.06624 0.40133 0.79242
 C1123 C 0.07820 0.41855 0.82677
 C1124 C 0.09151 0.43440 0.83814
 C1125 C 0.10724 0.44841 0.82701
 C1126 C 0.10939 0.44646 0.80419
 H1127 H 0.04186 0.37375 0.76657
 H1128 H 0.09484 0.42549 0.72611
 H1129 H 0.07003 0.39927 0.70600
 H1130 H 0.10858 0.44105 0.76085
 H1131 H 0.05440 0.39033 0.80122
 H1132 H 0.06628 0.40787 0.83578
 H1133 H 0.08959 0.43564 0.85572
 H1134 H 0.12127 0.45745 0.79546
 C1135 C 0.07404 0.61371 0.26160
 C1136 C 0.08428 0.59873 0.24641
 C1137 C 0.07098 0.58264 0.23482
 C1138 C 0.04786 0.58124 0.23911
 C1139 C 0.03789 0.59563 0.25472
 C1140 C 0.05068 0.61232 0.26610
 C1141 C 0.08101 0.56804 0.21925
 C1142 C 0.10435 0.56873 0.21566
 C1143 C 0.11783 0.58418 0.22786
 C1144 C 0.10767 0.59935 0.24289
 C1145 C 0.14129 0.58398 0.22498
 C1146 C 0.15130 0.56856 0.21023
 C1147 C 0.13798 0.55360 0.19767
 C1148 C 0.11448 0.55388 0.20034
 H1149 H 0.08456 0.62568 0.27058
 H1150 H 0.03742 0.56898 0.23038
 H1151 H 0.01985 0.59429 0.25699
 H1152 H 0.07071 0.55590 0.21018
 H1153 H 0.11800 0.61140 0.25204
 H1154 H 0.15191 0.59557 0.23429
 H1155 H 0.16945 0.56853 0.20840
 H1156 H 0.10417 0.54206 0.19092
 C1157 C 0.94882 0.38565 0.24358
 C1158 C 0.93564 0.39891 0.22936
 C1159 C 0.93574 0.39406 0.20675
 C1160 C 0.94882 0.37566 0.19885
 C1161 C 0.96131 0.36193 0.21324
 C1162 C 0.96161 0.36671 0.23588
 C1163 C 0.92240 0.40734 0.19255
 C1164 C 0.90826 0.42478 0.20088
 C1165 C 0.90779 0.42906 0.22367
 C1166 C 0.92176 0.41645 0.23764
 C1167 C 0.89300 0.44561 0.23225
 C1168 C 0.87855 0.45765 0.21849
 C1169 C 0.87905 0.45388 0.19584
 C1170 C 0.89416 0.43765 0.18699
 H1171 H 0.94778 0.38929 0.26092
 H1172 H 0.94916 0.37165 0.18156
 H1173 H 0.97129 0.34801 0.20640
 H1174 H 0.92258 0.40373 0.17516
 H1175 H 0.92142 0.41992 0.25506
 H1176 H 0.89237 0.44900 0.24966
 H1177 H 0.86710 0.47024 0.22553
 H1178 H 0.89442 0.43459 0.16951
 C1179 C 0.91456 0.62317 0.75054
 C1180 C 0.90486 0.60758 0.76563
 C1181 C 0.91536 0.60366 0.78593
 C1182 C 0.93523 0.61549 0.79088
 C1183 C 0.94487 0.63086 0.77582
 C1184 C 0.93489 0.63498 0.75524
 C1185 C 0.90597 0.58782 0.80089
 C1186 C 0.88621 0.57571 0.79576
 C1187 C 0.87556 0.57973 0.77552
 C1188 C 0.88488 0.59571 0.76063
 C1189 C 0.85585 0.56752 0.77044
 C1190 C 0.84691 0.55128 0.78515
 C1191 C 0.85745 0.54699 0.80527
 C1192 C 0.87707 0.55945 0.81050
 H1193 H 0.90574 0.62640 0.73543
 H1194 H 0.94361 0.61254 0.80632
 H1195 H 0.96085 0.63849 0.78017
 H1196 H 0.91416 0.58477 0.81643
 H1197 H 0.87674 0.59870 0.74506
 H1198 H 0.84744 0.57039 0.75502
 H1199 H 0.83177 0.54198 0.78069
 H1200 H 0.88541 0.55633 0.82593
 C1201 C 0.74179 0.62251 0.93102
 C1202 C 0.75643 0.60653 0.92116
 C1203 C 0.77680 0.60059 0.93156
 C1204 C 0.78217 0.61079 0.95164
 C1205 C 0.76734 0.62643 0.96151
 C1206 C 0.74694 0.63237 0.95139
 C1207 C 0.79131 0.58437 0.92187
 C1208 C 0.78555 0.57376 0.90205
 C1209 C 0.76513 0.57969 0.89171
 C1210 C 0.75080 0.59615 0.90123
 C1211 C 0.75926 0.56888 0.87208
 C1212 C 0.77339 0.55224 0.86279
 C1213 C 0.79376 0.54619 0.87286
 C1214 C 0.79978 0.55716 0.89250
 H1215 H 0.72633 0.62718 0.92283
 H1216 H 0.79767 0.60639 0.95989
 H1217 H 0.77161 0.63344 0.97735
 H1218 H 0.80693 0.57979 0.92986
 H1219 H 0.73513 0.60065 0.89329
 H1220 H 0.74367 0.57320 0.86395
 H1221 H 0.76837 0.54414 0.84763
 H1222 H 0.81541 0.55261 0.90047
 C1223 C 0.22754 0.36950 0.94691
 C1224 C 0.21576 0.38439 0.93275
 C1225 C 0.22139 0.38487 0.91023
 C1226 C 0.23816 0.37012 0.90215
 C1227 C 0.24979 0.35551 0.91628
 C1228 C 0.24497 0.35532 0.93882
 C1229 C 0.21050 0.40035 0.89616
 C1230 C 0.19406 0.41551 0.90425
 C1231 C 0.18792 0.41473 0.92661
 C1232 C 0.19880 0.39915 0.94074
 C1233 C 0.17122 0.42982 0.93446
 C1234 C 0.16108 0.44584 0.92040
 C1235 C 0.16757 0.44717 0.89828
 C1236 C 0.18392 0.43170 0.89031
 H1237 H 0.22371 0.36956 0.96426
 H1238 H 0.24251 0.37012 0.88492
 H1239 H 0.26277 0.34440 0.90956
 H1240 H 0.21509 0.40086 0.87897
 H1241 H 0.19433 0.39876 0.95796
 H1242 H 0.16620 0.42943 0.95152
 H1243 H 0.14851 0.45755 0.92694
 H1244 H 0.18893 0.43238 0.87324
 C1245 C 0.25855 0.62613 0.06494
 C1246 C 0.24340 0.61164 0.07626
 C1247 C 0.22246 0.60604 0.06684
 C1248 C 0.21697 0.61511 0.04635
 C1249 C 0.23208 0.62953 0.03517
 C1250 C 0.25322 0.63534 0.04415
 C1251 C 0.20738 0.59135 0.07798
 C1252 C 0.21305 0.58206 0.09842
 C1253 C 0.23395 0.58779 0.10794
 C1254 C 0.24893 0.60263 0.09686
 C1255 C 0.23964 0.57832 0.12828
 C1256 C 0.22498 0.56295 0.13890
 C1257 C 0.20426 0.55690 0.12948
 C1258 C 0.19830 0.56681 0.10931
 H1259 H 0.27411 0.63079 0.07292
 H1260 H 0.20105 0.61084 0.03880
 H1261 H 0.22731 0.63520 0.01900
 H1262 H 0.19135 0.58697 0.07065
 H1263 H 0.26500 0.60693 0.10416
 H1264 H 0.25556 0.58255 0.13584
 H1265 H 0.22997 0.55561 0.15444
 H1266 H 0.18243 0.56222 0.10180
 C1267 C 0.75682 0.37236 0.06676
 C1268 C 0.76973 0.38493 0.08178
 C1269 C 0.76989 0.37822 0.10401
 C1270 C 0.75817 0.35829 0.11061
 C1271 C 0.74597 0.34539 0.09546
 C1272 C 0.74462 0.35250 0.07339
 C1273 C 0.78158 0.39165 0.11930
 C1274 C 0.79358 0.41141 0.11251
 C1275 C 0.79452 0.41729 0.09005
 C1276 C 0.78242 0.40417 0.07487
 C1277 C 0.80724 0.43648 0.08317
 C1278 C 0.81827 0.45025 0.09847
 C1279 C 0.81646 0.44530 0.12091
 C1280 C 0.80434 0.42564 0.12785
 H1281 H 0.75693 0.37773 0.04977
 H1282 H 0.75822 0.35280 0.12756
 H1283 H 0.73653 0.33058 0.10148
 H1284 H 0.78120 0.38684 0.13645
 H1285 H 0.78270 0.40906 0.05773
 H1286 H 0.80833 0.44110 0.06601
 H1287 H 0.82745 0.46540 0.09278
 H1288 H 0.80304 0.42163 0.14514
 C1289 C 0.92798 0.75340 0.62310
 C1290 C 0.92065 0.76813 0.60629
 C1291 C 0.93592 0.77538 0.58982
 C1292 C 0.95810 0.76730 0.59012
 C1293 C 0.96512 0.75207 0.60648
 C1294 C 0.95027 0.74495 0.62337
 C1295 C 0.92871 0.79031 0.57313
 C1296 C 0.90617 0.79741 0.57227
 C1297 C 0.89071 0.78954 0.58838
 C1298 C 0.89812 0.77530 0.60548
 C1299 C 0.86797 0.79573 0.58692
 C1300 C 0.86054 0.80937 0.56953
 C1301 C 0.87582 0.81760 0.55370
 C1302 C 0.89868 0.81182 0.55526
 H1303 H 0.91587 0.74766 0.63530
 H1304 H 0.97006 0.77270 0.57763
 H1305 H 0.98258 0.74675 0.60630
 H1306 H 0.94051 0.79602 0.56061
 H1307 H 0.88628 0.76945 0.61792
 H1308 H 0.85588 0.78975 0.59904
 H1309 H 0.84285 0.81374 0.56855
 H1310 H 0.91044 0.81790 0.54286
 C1311 C 0.94261 0.23830 0.36342
 C1312 C 0.92715 0.22809 0.37808
 C1313 C 0.90454 0.23564 0.37836
 C1314 C 0.89764 0.25281 0.36372
 C1315 C 0.91310 0.26312 0.34944
 C1316 C 0.93600 0.25648 0.34927
 C1317 C 0.88924 0.22624 0.39352
 C1318 C 0.89631 0.20957 0.40868
 C1319 C 0.91883 0.20170 0.40829
 C1320 C 0.93410 0.21094 0.39292
 C1321 C 0.92574 0.18496 0.42349
 C1322 C 0.91058 0.17637 0.43915
 C1323 C 0.88826 0.18441 0.43992
 C1324 C 0.88123 0.20090 0.42445
 H1325 H 0.96005 0.23298 0.36423
 H1326 H 0.88028 0.25853 0.36348
 H1327 H 0.90676 0.27601 0.33820
 H1328 H 0.87194 0.23223 0.39380
 H1329 H 0.95143 0.20508 0.39277
 H1330 H 0.94291 0.17867 0.42341
 H1331 H 0.91644 0.16364 0.45084
 H1332 H 0.86403 0.20714 0.42475
 C1333 C 0.07777 0.26030 0.62543
 C1334 C 0.08871 0.24623 0.61004
 C1335 C 0.07743 0.22687 0.60120
 C1336 C 0.05551 0.22171 0.60820
 C1337 C 0.04458 0.23594 0.62335
 C1338 C 0.05531 0.25581 0.63201
 C1339 C 0.08811 0.21321 0.58527
 C1340 C 0.10989 0.21886 0.57795
 C1341 C 0.12127 0.23809 0.58704
 C1342 C 0.11068 0.25153 0.60313
 C1343 C 0.14296 0.24378 0.57967
 C1344 C 0.15323 0.23076 0.56322
 C1345 C 0.14204 0.21173 0.55386
 C1346 C 0.12038 0.20577 0.56147
 H1347 H 0.08716 0.27452 0.63245
 H1348 H 0.04656 0.20695 0.60155
 H1349 H 0.02722 0.23184 0.62718
 H1350 H 0.07936 0.19844 0.57836
 H1351 H 0.11939 0.26638 0.60995
 H1352 H 0.15192 0.25845 0.58649
 H1353 H 0.16994 0.23572 0.55775
 H1354 H 0.11157 0.19112 0.55443
 C1355 C 0.07407 0.72469 0.39303
 C1356 C 0.08544 0.73855 0.40824
 C1357 C 0.07643 0.76029 0.41423
 C1358 C 0.05627 0.76780 0.40498
 C1359 C 0.04506 0.75399 0.38986
 C1360 C 0.05366 0.73215 0.38351
 C1361 C 0.08773 0.77425 0.42932
 C1362 C 0.10806 0.76683 0.43842
 C1363 C 0.11719 0.74511 0.43246
 C1364 C 0.10580 0.73107 0.41742
 C1365 C 0.13762 0.73790 0.44160
 C1366 C 0.14899 0.75216 0.45636
 C1367 C 0.14007 0.77384 0.46228
 C1368 C 0.11949 0.78095 0.45328
 H1369 H 0.08181 0.70854 0.38810
 H1370 H 0.04904 0.78435 0.40957
 H1371 H 0.02909 0.76029 0.38394
 H1372 H 0.08077 0.79095 0.43388
 H1373 H 0.11280 0.71440 0.41282
 H1374 H 0.14487 0.72129 0.43724
 H1375 H 0.16481 0.74627 0.46305
 H1376 H 0.11239 0.79763 0.45765
 C1377 C 0.62845 0.94699 0.75693
 C1378 C 0.61297 0.93826 0.77233
 C1379 C 0.59403 0.95160 0.77837
 C1380 C 0.59103 0.97356 0.76906
 C1381 C 0.60629 0.98203 0.75347
 C1382 C 0.62522 0.96887 0.74691
 C1383 C 0.57809 0.94251 0.79315
 C1384 C 0.58047 0.91988 0.80135
 C1385 C 0.59950 0.90657 0.79531
 C1386 C 0.61580 0.91599 0.78117
 C1387 C 0.60144 0.88365 0.80275
 C1388 C 0.58415 0.87359 0.81511
 C1389 C 0.56502 0.88651 0.82084
 C1390 C 0.56355 0.90989 0.81453
 H1391 H 0.64221 0.93591 0.75190
 H1392 H 0.57671 0.98414 0.77366
 H1393 H 0.60343 0.99931 0.74715
 H1394 H 0.56344 0.95269 0.79762
 H1395 H 0.63027 0.90566 0.77643
 H1396 H 0.61589 0.87320 0.79827
 H1397 H 0.58544 0.85550 0.81980
 H1398 H 0.54857 0.91974 0.81859
 C1399 C 0.36846 0.92791 0.25474
 C1400 C 0.38619 0.91944 0.24177
 C1401 C 0.40235 0.93499 0.23304
 C1402 C 0.40098 0.95861 0.23811
 C1403 C 0.38374 0.96683 0.25163
 C1404 C 0.36696 0.95172 0.25994
 C1405 C 0.41971 0.92666 0.21954
 C1406 C 0.42157 0.90284 0.21527
 C1407 C 0.40595 0.88715 0.22480
 C1408 C 0.38817 0.89558 0.23768
 C1409 C 0.40848 0.86325 0.22139
 C1410 C 0.42629 0.85494 0.20863
 C1411 C 0.44144 0.87042 0.19858
 C1412 C 0.43897 0.89438 0.20186
 H1413 H 0.35644 0.91565 0.26155
 H1414 H 0.41327 0.97078 0.23161
 H1415 H 0.38306 0.98532 0.25463
 H1416 H 0.43192 0.93867 0.21258
 H1417 H 0.37601 0.88357 0.24471
 H1418 H 0.39678 0.85098 0.22869
 H1419 H 0.42797 0.83641 0.20621
 H1420 H 0.45086 0.90633 0.19434
 C1421 C 0.61974 0.06872 0.25321
 C1422 C 0.60269 0.07832 0.24032
 C1423 C 0.59305 0.06514 0.22332
 C1424 C 0.60074 0.04249 0.21956
 C1425 C 0.61752 0.03289 0.23274
 C1426 C 0.62711 0.04583 0.24981
 C1427 C 0.57574 0.07474 0.21060
 C1428 C 0.56773 0.09722 0.21496
 C1429 C 0.57741 0.11020 0.23212
 C1430 C 0.59491 0.10079 0.24449
 C1431 C 0.56929 0.13238 0.23687
 C1432 C 0.55160 0.14167 0.22490
 C1433 C 0.54175 0.12913 0.20774
 C1434 C 0.55004 0.10689 0.20270
 H1435 H 0.62723 0.07912 0.26599
 H1436 H 0.59353 0.03206 0.20666
 H1437 H 0.62261 0.01513 0.22987
 H1438 H 0.56833 0.06465 0.19755
 H1439 H 0.60226 0.11084 0.25762
 H1440 H 0.57652 0.14253 0.24996
 H1441 H 0.54573 0.15889 0.22905
 H1442 H 0.54255 0.09702 0.18955
 C1443 C 0.39276 0.06043 0.74006
 C1444 C 0.40364 0.07617 0.75397
 C1445 C 0.40566 0.09975 0.74774
 C1446 C 0.39617 0.10733 0.72811
 C1447 C 0.38535 0.09162 0.71442
 C1448 C 0.38389 0.06795 0.71998
 C1449 C 0.41749 0.11530 0.76097
 C1450 C 0.42748 0.10760 0.78036
 C1451 C 0.42491 0.08422 0.78699
 C1452 C 0.41297 0.06864 0.77378
 C1453 C 0.43477 0.07671 0.80652
 C1454 C 0.44770 0.09200 0.81896
 C1455 C 0.45106 0.11505 0.81205
 C1456 C 0.44049 0.12283 0.79291
 H1457 H 0.39186 0.04224 0.74453
 H1458 H 0.39734 0.12538 0.72321
 H1459 H 0.37816 0.09803 0.69936
 H1460 H 0.41932 0.13329 0.75596
 H1461 H 0.41132 0.05061 0.77869
 H1462 H 0.43288 0.05889 0.81195
 H1463 H 0.45565 0.08556 0.83364
 H1464 H 0.44281 0.14060 0.78748
 C1465 C 0.61073 0.75765 0.07147
 C1466 C 0.59600 0.76900 0.08598
 C1467 C 0.59407 0.76119 0.10785
 C1468 C 0.60718 0.74252 0.11496
 C1469 C 0.62183 0.73140 0.10048
 C1470 C 0.62360 0.73862 0.07855
 C1471 C 0.57895 0.77202 0.12224
 C1472 C 0.56570 0.79060 0.11507
 C1473 C 0.56789 0.79872 0.09332
 C1474 C 0.58300 0.78786 0.07890
 C1475 C 0.55474 0.81745 0.08632
 C1476 C 0.53930 0.82781 0.10060
 C1477 C 0.53665 0.81956 0.12213
 C1478 C 0.55010 0.80103 0.12928
 H1479 H 0.61176 0.76330 0.05458
 H1480 H 0.60606 0.73644 0.13171
 H1481 H 0.63188 0.71715 0.10653
 H1482 H 0.57737 0.76586 0.13896
 H1483 H 0.58452 0.79396 0.06216
 H1484 H 0.55624 0.82397 0.06974
 H1485 H 0.52916 0.84204 0.09465
 H1486 H 0.54832 0.79457 0.14587
 C1487 C 0.37258 0.24294 0.08089
 C1488 C 0.38843 0.22895 0.09149
 C1489 C 0.39650 0.20861 0.08125
 C1490 C 0.38827 0.20252 0.06059
 C1491 C 0.37241 0.21656 0.05014
 C1492 C 0.36456 0.23699 0.06010
 C1493 C 0.41268 0.19482 0.09178
 C1494 C 0.42085 0.20116 0.11244
 C1495 C 0.41248 0.22142 0.12265
 C1496 C 0.39639 0.23513 0.11215
 C1497 C 0.42042 0.22781 0.14324
 C1498 C 0.43662 0.21442 0.15365
 C1499 C 0.44535 0.19431 0.14375
 C1500 C 0.43729 0.18770 0.12307
 H1501 H 0.36638 0.25844 0.08889
 H1502 H 0.39421 0.18700 0.05245
 H1503 H 0.36661 0.21168 0.03405
 H1504 H 0.41896 0.17928 0.08388
 H1505 H 0.39013 0.25071 0.12003
 H1506 H 0.41415 0.24325 0.15128
 H1507 H 0.44242 0.22001 0.16953
 H1508 H 0.44382 0.17224 0.11525
 C1509 C 0.60911 0.25092 0.93171
 C1510 C 0.59266 0.23689 0.92205
 C1511 C 0.57783 0.22374 0.93541
 C1512 C 0.57948 0.22521 0.95823
 C1513 C 0.59573 0.23949 0.96771
 C1514 C 0.61075 0.25229 0.95454
 C1515 C 0.56159 0.20941 0.92576
 C1516 C 0.55976 0.20838 0.90293
 C1517 C 0.57431 0.22193 0.88962
 C1518 C 0.59078 0.23593 0.89926
 C1519 C 0.57208 0.22136 0.86686
 C1520 C 0.55555 0.20757 0.85730
 C1521 C 0.54119 0.19380 0.87031
 C1522 C 0.54346 0.19418 0.89315
 H1523 H 0.62051 0.26099 0.92149
 H1524 H 0.56823 0.21531 0.96873
 H1525 H 0.59686 0.24023 0.98536
 H1526 H 0.55032 0.19919 0.93599
 H1527 H 0.60202 0.24618 0.88903
 H1528 H 0.58304 0.23169 0.85644
 H1529 H 0.55415 0.20748 0.83966
 H1530 H 0.53229 0.18377 0.90331
 C1531 C 0.37632 0.76716 0.91353
 C1532 C 0.39327 0.78240 0.90631
 C1533 C 0.40314 0.79816 0.92112
 C1534 C 0.39557 0.79860 0.94288
 C1535 C 0.37890 0.78312 0.95003
 C1536 C 0.36930 0.76705 0.93551
 C1537 C 0.42075 0.81276 0.91408
 C1538 C 0.42891 0.81142 0.89251
 C1539 C 0.41881 0.79576 0.87772
 C1540 C 0.40091 0.78160 0.88462
 C1541 C 0.42714 0.79402 0.85635
 C1542 C 0.44576 0.80711 0.84981
 C1543 C 0.45625 0.82247 0.86438
 C1544 C 0.44744 0.82494 0.88564
 H1545 H 0.36885 0.75510 0.90210
 H1546 H 0.40294 0.81052 0.95450
 H1547 H 0.37404 0.78323 0.96712
 H1548 H 0.42846 0.82469 0.92550
 H1549 H 0.39336 0.76948 0.87327
 H1550 H 0.41956 0.78216 0.84480
 H1551 H 0.45209 0.80505 0.83328
 H1552 H 0.45548 0.83666 0.89702
 C1553 C 0.76640 0.93678 0.38058
 C1554 C 0.77853 0.92327 0.39564
 C1555 C 0.77257 0.89970 0.39887
 C1556 C 0.75508 0.88992 0.38676
 C1557 C 0.74304 0.90346 0.37204
 C1558 C 0.74827 0.92706 0.36903
 C1559 C 0.78385 0.88635 0.41447
 C1560 C 0.80090 0.89621 0.42713
 C1561 C 0.80730 0.91958 0.42372
 C1562 C 0.79611 0.93298 0.40792
 C1563 C 0.82454 0.92918 0.43646
 C1564 C 0.83493 0.91590 0.45274
 C1565 C 0.82818 0.89285 0.45660
 C1566 C 0.81134 0.88308 0.44346
 H1567 H 0.77050 0.95499 0.37842
 H1568 H 0.75044 0.87185 0.38893
 H1569 H 0.72943 0.89549 0.36304
 H1570 H 0.77904 0.86837 0.41706
 H1571 H 0.80080 0.95101 0.40546
 H1572 H 0.82977 0.94703 0.43404
 H1573 H 0.84789 0.92383 0.46261
 H1574 H 0.80611 0.86525 0.44609
 C1575 C 0.27337 0.92409 0.59425
 C1576 C 0.26145 0.90718 0.58260
 C1577 C 0.27129 0.88523 0.57878
 C1578 C 0.29281 0.88053 0.58683
 C1579 C 0.30448 0.89737 0.59861
 C1580 C 0.29494 0.91934 0.60241
 C1581 C 0.25945 0.86834 0.56702
 C1582 C 0.23785 0.87308 0.55911
 C1583 C 0.22795 0.89498 0.56311
 C1584 C 0.23982 0.91189 0.57477
 C1585 C 0.20633 0.89965 0.55531
 C1586 C 0.19468 0.88291 0.54343
 C1587 C 0.20442 0.86116 0.53908
 C1588 C 0.22602 0.85633 0.54712
 H1589 H 0.26590 0.94102 0.59680
 H1590 H 0.30057 0.86376 0.58418
 H1591 H 0.32086 0.89303 0.60505
 H1592 H 0.26706 0.85154 0.56402
 H1593 H 0.23223 0.92870 0.57775
 H1594 H 0.19847 0.91631 0.55828
 H1595 H 0.17807 0.88714 0.53744
 H1596 H 0.23373 0.83964 0.54390
 C1597 C 0.24087 0.07180 0.38668
 C1598 C 0.22852 0.08519 0.40153
 C1599 C 0.20478 0.08332 0.40227
 C1600 C 0.19384 0.06834 0.38770
 C1601 C 0.20633 0.05533 0.37262
 C1602 C 0.22991 0.05683 0.37221
 C1603 C 0.19248 0.09652 0.41746
 C1604 C 0.20363 0.11179 0.43161
 C1605 C 0.22735 0.11395 0.43039
 C1606 C 0.23962 0.10052 0.41551
 C1607 C 0.23850 0.12953 0.44408
 C1608 C 0.22635 0.14282 0.45900
 C1609 C 0.20284 0.14061 0.46072
 C1610 C 0.19153 0.12502 0.44695
 H1611 H 0.25907 0.07328 0.38611
 H1612 H 0.17566 0.06675 0.38792
 H1613 H 0.19764 0.04387 0.36148
 H1614 H 0.17429 0.09498 0.41819
 H1615 H 0.25781 0.10207 0.41475
 H1616 H 0.25664 0.13142 0.44329
 H1617 H 0.23547 0.15461 0.46950
 H1618 H 0.17338 0.12330 0.44808
 C1619 C 0.74606 0.08466 0.60426
 C1620 C 0.76178 0.09452 0.58972
 C1621 C 0.78487 0.08901 0.59171
 C1622 C 0.79187 0.07401 0.60839
 C1623 C 0.77616 0.06458 0.62301
 C1624 C 0.75318 0.06974 0.62100
 C1625 C 0.80059 0.09860 0.57704
 C1626 C 0.79357 0.11386 0.56057
 C1627 C 0.77054 0.11971 0.55883
 C1628 C 0.75478 0.10991 0.57333
 C1629 C 0.76367 0.13525 0.54254
 C1630 C 0.77940 0.14472 0.52795
 C1631 C 0.80227 0.13869 0.52927
 C1632 C 0.80923 0.12330 0.54574
 H1633 H 0.72835 0.08887 0.60282
 H1634 H 0.80949 0.06964 0.61018
 H1635 H 0.78191 0.05301 0.63577
 H1636 H 0.81827 0.09423 0.57848
 H1637 H 0.73710 0.11428 0.57190
 H1638 H 0.74611 0.13999 0.54101
 H1639 H 0.77357 0.15648 0.51538
 H1640 H 0.82684 0.11862 0.54701
 C1641 C 0.91451 0.61763 0.25632
 C1642 C 0.90539 0.60219 0.24107
 C1643 C 0.91878 0.59453 0.22330
 C1644 C 0.94097 0.60250 0.22107
 C1645 C 0.95005 0.61749 0.23656
 C1646 C 0.93701 0.62511 0.25442
 C1647 C 0.90996 0.57866 0.20833
 C1648 C 0.88809 0.56992 0.21116
 C1649 C 0.87467 0.57753 0.22890
 C1650 C 0.88331 0.59385 0.24361
 C1651 C 0.85298 0.56830 0.23187
 C1652 C 0.84485 0.55135 0.21764
 C1653 C 0.85816 0.54359 0.20005
 C1654 C 0.87967 0.55323 0.19678
 H1655 H 0.90413 0.62362 0.26980
 H1656 H 0.95148 0.59671 0.20761
 H1657 H 0.96752 0.62260 0.23485
 H1658 H 0.92027 0.57272 0.19476
 H1659 H 0.87306 0.59963 0.25729
 H1660 H 0.84246 0.57392 0.24538
 H1661 H 0.82819 0.54423 0.22046
 H1662 H 0.89017 0.54729 0.18335
 C1663 C 0.92638 0.38788 0.74881
 C1664 C 0.91136 0.40140 0.76115
 C1665 C 0.88929 0.40521 0.75343
 C1666 C 0.88259 0.39533 0.73361
 C1667 C 0.89763 0.38193 0.72143
 C1668 C 0.91967 0.37811 0.72883
 C1669 C 0.87432 0.41896 0.76554
 C1670 C 0.88118 0.42911 0.78521
 C1671 C 0.90319 0.42523 0.79302
 C1672 C 0.91813 0.41133 0.78098
 C1673 C 0.90996 0.43556 0.81264
 C1674 C 0.89522 0.44996 0.82421
 C1675 C 0.87339 0.45418 0.81644
 C1676 C 0.86643 0.44342 0.79701
 H1677 H 0.94340 0.38530 0.75457
 H1678 H 0.86571 0.39800 0.72750
 H1679 H 0.89193 0.37430 0.70628
 H1680 H 0.85743 0.42195 0.75955
 H1681 H 0.93505 0.40843 0.78692
 H1682 H 0.92676 0.43275 0.81889
 H1683 H 0.90102 0.45800 0.83912
 H1684 H 0.84967 0.44654 0.79078
 C1685 C 0.06685 0.61696 0.75900
 C1686 C 0.07448 0.60041 0.77409
 C1687 C 0.05877 0.58801 0.78716
 C1688 C 0.03569 0.59223 0.78471
 C1689 C 0.02822 0.60834 0.76930
 C1690 C 0.04372 0.62081 0.75637
 C1691 C 0.06636 0.57138 0.80219
 C1692 C 0.08942 0.56658 0.80395
 C1693 C 0.10506 0.57875 0.79063
 C1694 C 0.09753 0.59577 0.77600
 C1695 C 0.12802 0.57347 0.79192
 C1696 C 0.13543 0.55615 0.80609
 C1697 C 0.12011 0.54403 0.81954
 C1698 C 0.09709 0.54950 0.81855
 H1699 H 0.07883 0.62639 0.74886
 H1700 H 0.02340 0.58287 0.79453
 H1701 H 0.01031 0.61121 0.76753
 H1702 H 0.05431 0.56193 0.81224
 H1703 H 0.10957 0.60512 0.76585
 H1704 H 0.14022 0.58259 0.78180
 H1705 H 0.15326 0.55233 0.80666
 H1706 H 0.08513 0.54011 0.82873
 C1707 C 0.07980 0.38035 0.24166
 C1708 C 0.09375 0.39679 0.23133
 C1709 C 0.11494 0.40221 0.24041
 C1710 C 0.12185 0.39101 0.25958
 C1711 C 0.10777 0.37486 0.26988
 C1712 C 0.08661 0.36947 0.26110
 C1713 C 0.12875 0.41894 0.23037
 C1714 C 0.12154 0.43051 0.21149
 C1715 C 0.10038 0.42506 0.20236
 C1716 C 0.08666 0.40815 0.21228
 C1717 C 0.09321 0.43678 0.18357
 C1718 C 0.10676 0.45390 0.17399
 C1719 C 0.12777 0.45958 0.18299
 C1720 C 0.13509 0.44765 0.20171
 H1721 H 0.06338 0.37651 0.23493
 H1722 H 0.13805 0.39492 0.26674
 H1723 H 0.11342 0.36651 0.28473
 H1724 H 0.14497 0.42314 0.23739
 H1725 H 0.07040 0.40403 0.20533
 H1726 H 0.07705 0.43281 0.17635
 H1727 H 0.10072 0.46278 0.15956
 H1728 H 0.15125 0.45184 0.20884
   
