data_POSCAR
  _audit_creation_date              2014-09-24
  _audit_creation_method            'ToBaCCo'
  _symmetry_space_group_name_H-M    'P1'
  _symmetry_Int_Tables_number       1
  _symmetry_cell_setting            triclinic
  loop_
  _symmetry_equiv_pos_as_xyz
 x,y,z
_cell_length_a 58.4867
_cell_length_b 43.4260
_cell_length_c 43.2060
_cell_angle_alpha 89.401500
_cell_angle_beta 88.817000
_cell_angle_gamma 90.091100
loop_
  _atom_site_label
  _atom_site_type_symbol
  _atom_site_fract_x
  _atom_site_fract_y
  _atom_site_fract_z
C1 C 1.21991 0.24934 0.29795
 H2 H 1.22088 0.22472 0.30180
 C3 C 1.20400 0.26675 0.31463
 H4 H 1.19298 0.25537 0.33165
 C5 C 1.23321 0.29387 0.27097
 H6 H 1.24459 0.30435 0.25392
 C7 C 1.21745 0.31219 0.28710
 H8 H 1.21665 0.33659 0.28182
 N9 N 1.23368 0.26290 0.27603
 C10 C 1.24361 0.19011 0.20808
 H11 H 1.26199 0.18727 0.20749
 C12 C 1.22991 0.17164 0.18960
 H13 H 1.23786 0.15430 0.17516
 C14 C 1.21092 0.21608 0.22775
 H15 H 1.20350 0.23382 0.24207
 C16 C 1.19666 0.19828 0.20968
 H17 H 1.17844 0.20265 0.21043
 Zn18 Zn 1.25254 0.23604 0.25250
 N19 N 1.23390 0.21138 0.22716
 C20 C 1.26896 0.18039 0.28031
 N21 N 1.26897 0.21161 0.28102
 C22 C 1.28085 0.22697 0.30262
 C23 C 1.29424 0.21104 0.32377
 C24 C 1.28220 0.16340 0.30093
 C25 C 1.26503 0.27722 0.20398
 C26 C 1.28004 0.29394 0.18456
 C27 C 1.31173 0.27050 0.21087
 C28 C 1.29617 0.25445 0.22987
 N29 N 1.27329 0.25833 0.22644
 H30 H 1.25906 0.16848 0.26333
 H31 H 1.28004 0.25185 0.30326
 H32 H 1.30250 0.22479 0.34095
 H33 H 1.28247 0.13880 0.29769
 H34 H 1.24675 0.27938 0.20126
 H35 H 1.27320 0.30897 0.16688
 H36 H 1.32987 0.26747 0.21438
 H37 H 1.30248 0.23882 0.24730
 C38 C 1.20605 0.17540 0.19057
 C39 C 1.20224 0.29852 0.30880
 C40 C 1.30374 0.29068 0.18796
 C41 C 1.29578 0.17844 0.32311
 C42 C 0.72193 -0.23866 0.29747
 H43 H 0.72290 -0.26339 0.30043
 C44 C 0.70809 -0.22140 0.31738
 H45 H 0.69862 -0.23309 0.33582
 C46 C 0.73368 -0.19357 0.27017
 H47 H 0.74381 -0.18278 0.25191
 C48 C 0.71991 -0.17538 0.28949
 H49 H 0.71926 -0.15077 0.28538
 N50 N 0.73408 -0.22469 0.27411
 C51 C 0.74164 -0.29616 0.20402
 H52 H 0.76004 -0.29781 0.20158
 C53 C 0.72762 -0.31464 0.18603
 H54 H 0.73541 -0.33087 0.17017
 C55 C 0.70921 -0.27297 0.22774
 H56 H 0.70202 -0.25630 0.24353
 C57 C 0.69460 -0.29087 0.21018
 H58 H 0.67632 -0.28761 0.21275
 Zn59 Zn 0.75177 -0.25100 0.24834
 N60 N 0.73227 -0.27615 0.22472
 C61 C 0.77181 -0.30614 0.27296
 N62 N 0.77029 -0.27495 0.27480
 C63 C 0.78269 -0.25897 0.29553
 C64 C 0.79813 -0.27414 0.31451
 C65 C 0.78721 -0.32226 0.29142
 C66 C 0.76165 -0.20895 0.19910
 C67 C 0.77574 -0.19288 0.17787
 C68 C 0.80851 -0.21782 0.20015
 C69 C 0.79389 -0.23311 0.22103
 N70 N 0.77093 -0.22832 0.22038
 H71 H 0.76157 -0.31850 0.25670
 H72 H 0.78093 -0.23421 0.29675
 H73 H 0.80794 -0.26086 0.33065
 H74 H 0.78888 -0.34691 0.28870
 H75 H 0.74329 -0.20608 0.19855
 H76 H 0.76814 -0.17756 0.16105
 H77 H 0.82675 -0.22177 0.20131
 H78 H 0.80099 -0.24912 0.23749
 C79 C 0.70372 -0.31227 0.18914
 C80 C 0.70665 -0.18932 0.31328
 C81 C 0.79950 -0.19742 0.17819
 C82 C 0.80094 -0.30615 0.31216
 C83 C 0.71613 0.26722 -0.19985
 H84 H 0.71548 0.24256 -0.19607
 C85 C 0.70267 0.28657 -0.18150
 H86 H 0.69173 0.27664 -0.16349
 C87 C 0.73129 0.31002 -0.22791
 H88 H 0.74256 0.31910 -0.24589
 C89 C 0.71821 0.33029 -0.20990
 H90 H 0.71920 0.35479 -0.21464
 N91 N 0.72957 0.27906 -0.22311
 C92 C 0.73394 0.20323 -0.28894
 H93 H 0.75227 0.20122 -0.29220
 C94 C 0.71933 0.18326 -0.30433
 H95 H 0.72654 0.16572 -0.31923
 C96 C 0.70230 0.22833 -0.26525
 H97 H 0.69563 0.24623 -0.25049
 C98 C 0.68713 0.20881 -0.28002
 H99 H 0.66891 0.21195 -0.27634
 Zn100 Zn 0.74588 0.25038 -0.24788
 N101 N 0.72527 0.22481 -0.26935
 C102 C 0.76276 0.19530 -0.21967
 N103 N 0.76405 0.22658 -0.22085
 C104 C 0.77872 0.24224 -0.20272
 C105 C 0.79375 0.22638 -0.18366
 C106 C 0.77745 0.17849 -0.20080
 C107 C 0.75558 0.28995 -0.29888
 C108 C 0.76946 0.30588 -0.32043
 C109 C 0.80235 0.28094 -0.29866
 C110 C 0.78784 0.26574 -0.27757
 N111 N 0.76497 0.27087 -0.27758
 H112 H 0.75065 0.18326 -0.23369
 H113 H 0.77911 0.26714 -0.20373
 H114 H 0.80557 0.23927 -0.16979
 H115 H 0.77674 0.15358 -0.20095
 H116 H 0.73722 0.29294 -0.29904
 H117 H 0.76086 0.31998 -0.33729
 H118 H 0.82041 0.27707 -0.29586
 H119 H 0.79504 0.24996 -0.26098
 C120 C 0.69558 0.18565 -0.29955
 C121 C 0.70332 0.31851 -0.18677
 C122 C 0.79355 0.30195 -0.32077
 C123 C 0.79351 0.19405 -0.18293
 C124 C 1.21222 -0.24900 -0.20577
 H125 H 1.21259 -0.27371 -0.20239
 C126 C 1.19681 -0.23120 -0.18866
 H127 H 1.18553 -0.24241 -0.17183
 C128 C 1.22671 -0.20456 -0.23175
 H129 H 1.23844 -0.19424 -0.24846
 C130 C 1.21148 -0.18584 -0.21517
 H131 H 1.21139 -0.16130 -0.21983
 N132 N 1.22637 -0.23563 -0.22736
 C133 C 1.23620 -0.30933 -0.29426
 H134 H 1.25457 -0.31218 -0.29445
 C135 C 1.22269 -0.32818 -0.31257
 H136 H 1.23080 -0.34583 -0.32648
 C137 C 1.20333 -0.28300 -0.27565
 H138 H 1.19581 -0.26499 -0.26176
 C139 C 1.18925 -0.30119 -0.29361
 H140 H 1.17102 -0.29686 -0.29323
 Zn141 Zn 1.24497 -0.26282 -0.25081
 N142 N 1.22631 -0.28769 -0.27580
 C143 C 1.26075 -0.31837 -0.22194
 N144 N 1.26141 -0.28705 -0.22219
 C145 C 1.27435 -0.27135 -0.20186
 C146 C 1.28840 -0.28713 -0.18143
 C147 C 1.27453 -0.33513 -0.20178
 C148 C 1.25777 -0.22131 -0.29910
 C149 C 1.27297 -0.20501 -0.31863
 C150 C 1.30434 -0.23092 -0.29391
 C151 C 1.28861 -0.24644 -0.27474
 N152 N 1.26581 -0.24109 -0.27726
 H153 H 1.24994 -0.33045 -0.23774
 H154 H 1.27423 -0.24643 -0.20220
 H155 H 1.29893 -0.27418 -0.16586
 H156 H 1.27448 -0.36004 -0.20268
 H157 H 1.23953 -0.21805 -0.30120
 H158 H 1.26634 -0.18918 -0.33575
 H159 H 1.32242 -0.23512 -0.29110
 H160 H 1.29473 -0.26290 -0.25798
 C161 C 1.19883 -0.32443 -0.31210
 C162 C 1.19596 -0.19923 -0.19369
 C163 C 1.29660 -0.20975 -0.31608
 C164 C 1.28897 -0.31944 -0.18167
 C165 C 0.26875 0.22101 0.70718
 H166 H 0.25058 0.21698 0.70524
 C167 C 0.28428 0.20415 0.68910
 H168 H 0.27793 0.18714 0.67326
 C169 C 0.29904 0.24891 0.72933
 H170 H 0.30481 0.26678 0.74448
 C171 C 0.31511 0.23272 0.71167
 H172 H 0.33310 0.23782 0.71418
 N173 N 0.27635 0.24257 0.72717
 C174 C 0.22187 0.25501 0.79635
 H175 H 0.22231 0.27990 0.79715
 C176 C 0.20633 0.23872 0.81513
 H177 H 0.19573 0.25184 0.83094
 C178 C 0.23658 0.20874 0.77568
 H179 H 0.24840 0.19715 0.76023
 C180 C 0.22121 0.19139 0.79401
 H181 H 0.22131 0.16671 0.79113
 Zn182 Zn 0.25475 0.26559 0.75070
 N183 N 0.23618 0.23999 0.77658
 C184 C 0.21328 0.28122 0.72215
 N185 N 0.23609 0.28726 0.72257
 C186 C 0.24590 0.30794 0.70247
 C187 C 0.23249 0.32423 0.68149
 C188 C 0.19930 0.29676 0.70145
 C189 C 0.28401 0.28054 0.79831
 C190 C 0.29645 0.29929 0.81785
 C191 C 0.27870 0.34380 0.79455
 C192 C 0.26680 0.32415 0.77515
 N193 N 0.27000 0.29318 0.77695
 H194 H 0.20583 0.26422 0.73774
 H195 H 0.26416 0.31190 0.70291
 H196 H 0.24053 0.34069 0.66570
 H197 H 0.18112 0.29198 0.70186
 H198 H 0.28594 0.25578 0.79957
 H199 H 0.30826 0.28865 0.83365
 H200 H 0.27584 0.36837 0.79281
 H201 H 0.25500 0.33372 0.75874
 C202 C 0.20519 0.20625 0.81377
 C203 C 0.30783 0.20996 0.69125
 C204 C 0.29406 0.33146 0.81599
 C205 C 0.20884 0.31868 0.68084
 C206 C 0.76467 0.70755 0.70298
 H207 H 0.74630 0.70482 0.70228
 C208 C 0.77881 0.69086 0.68275
 H209 H 0.77123 0.67525 0.66647
 C210 C 0.79691 0.73180 0.72450
 H211 H 0.80399 0.74801 0.74046
 C212 C 0.81159 0.71583 0.70462
 H213 H 0.82985 0.71951 0.70607
 N214 N 0.77392 0.72722 0.72364
 C215 C 0.72529 0.73750 0.80079
 H216 H 0.72612 0.76224 0.80326
 C217 C 0.71160 0.72001 0.82111
 H218 H 0.70274 0.73205 0.83952
 C219 C 0.73748 0.69269 0.77468
 H220 H 0.74765 0.68208 0.75661
 C221 C 0.72394 0.67422 0.79442
 H222 H 0.72359 0.64980 0.78991
 Zn223 Zn 0.75466 0.75010 0.75072
 N224 N 0.73749 0.72379 0.77772
 C225 C 0.71174 0.77217 0.73091
 N226 N 0.73476 0.77425 0.72630
 C227 C 0.74393 0.79291 0.70377
 C228 C 0.72978 0.81112 0.68541
 C229 C 0.69700 0.79000 0.71319
 C230 C 0.78571 0.76080 0.79730
 C231 C 0.80106 0.77735 0.81500
 C232 C 0.78919 0.82396 0.78894
 C233 C 0.77395 0.80650 0.77182
 N234 N 0.77294 0.77540 0.77571
 H235 H 0.70468 0.75663 0.74828
 H236 H 0.76229 0.79378 0.70023
 H237 H 0.73740 0.82626 0.66799
 H238 H 0.67872 0.78789 0.71716
 H239 H 0.78436 0.73608 0.80017
 H240 H 0.81123 0.76518 0.83182
 H241 H 0.79045 0.84850 0.78456
 H242 H 0.76342 0.81777 0.75489
 C243 C 0.71021 0.68769 0.81795
 C244 C 0.80262 0.69499 0.68343
 C245 C 0.80334 0.80929 0.81047
 C246 C 0.70597 0.80998 0.69022
 C247 C 0.75465 0.20682 0.19727
 H248 H 0.73622 0.20468 0.19835
 C249 C 0.76736 0.18978 0.17567
 H250 H 0.75864 0.17445 0.16020
 C251 C 0.78843 0.22995 0.21555
 H252 H 0.79667 0.24583 0.23080
 C253 C 0.80172 0.21364 0.19424
 H254 H 0.82011 0.21672 0.19391
 N255 N 0.76536 0.22600 0.21705
 C256 C 0.72235 0.23688 0.29990
 H257 H 0.72486 0.26130 0.30322
 C258 C 0.70813 0.22026 0.32029
 H259 H 0.70004 0.23202 0.33958
 C260 C 0.72973 0.19216 0.27041
 H261 H 0.73804 0.18131 0.25086
 C262 C 0.71549 0.17465 0.29016
 H263 H 0.71274 0.15058 0.28515
 Zn264 Zn 0.74809 0.24895 0.24639
 N265 N 0.73224 0.22291 0.27502
 C266 C 0.70406 0.27102 0.23252
 N267 N 0.72666 0.27339 0.22484
 C268 C 0.73409 0.29275 0.20177
 C269 C 0.71859 0.31162 0.18629
 C270 C 0.68804 0.28942 0.21773
 C271 C 0.78238 0.25960 0.28897
 C272 C 0.79848 0.27643 0.30517
 C273 C 0.78423 0.32296 0.28129
 C274 C 0.76828 0.30524 0.26569
 N275 N 0.76801 0.27408 0.26922
 H276 H 0.69831 0.25489 0.25019
 H277 H 0.75212 0.29384 0.19574
 H278 H 0.72484 0.32745 0.16852
 H279 H 0.67014 0.28712 0.22423
 H280 H 0.78167 0.23480 0.29150
 H281 H 0.81026 0.26439 0.32003
 H282 H 0.78445 0.34770 0.27792
 H283 H 0.75641 0.31644 0.25047
 C284 C 0.70399 0.18889 0.31504
 C285 C 0.79124 0.19312 0.17405
 C286 C 0.79977 0.30849 0.30103
 C287 C 0.69525 0.31035 0.19455
 C288 C 0.26163 0.72191 0.20679
 H289 H 0.24344 0.71946 0.20346
 C290 C 0.27713 0.70558 0.18811
 H291 H 0.27076 0.69050 0.17043
 C292 C 0.29212 0.74536 0.23313
 H293 H 0.29803 0.76113 0.25038
 C294 C 0.30813 0.72972 0.21493
 H295 H 0.32616 0.73322 0.21889
 N296 N 0.26934 0.74114 0.22897
 C297 C 0.21687 0.75278 0.30123
 H298 H 0.21838 0.77740 0.30426
 C299 C 0.20135 0.73590 0.31957
 H300 H 0.19120 0.74769 0.33700
 C301 C 0.22843 0.70770 0.27481
 H302 H 0.23894 0.69681 0.25728
 C303 C 0.21300 0.68992 0.29256
 H304 H 0.21161 0.66552 0.28804
 Zn305 Zn 0.24837 0.76441 0.25326
 N306 N 0.22965 0.73868 0.27891
 C307 C 0.20664 0.78598 0.22943
 N308 N 0.22978 0.78761 0.22616
 C309 C 0.23982 0.80520 0.20342
 C310 C 0.22645 0.82296 0.18359
 C311 C 0.19267 0.80335 0.21022
 C312 C 0.27561 0.77768 0.30371
 C313 C 0.29014 0.79501 0.32195
 C314 C 0.28200 0.83946 0.29007
 C315 C 0.26739 0.82128 0.27277
 N316 N 0.26503 0.79079 0.27923
 H317 H 0.19888 0.77126 0.24697
 H318 H 0.25827 0.80567 0.20093
 H319 H 0.23472 0.83737 0.16608
 H320 H 0.17428 0.80167 0.21324
 H321 H 0.27346 0.75330 0.30830
 H322 H 0.29916 0.78261 0.33970
 H323 H 0.28280 0.86369 0.28420
 H324 H 0.25834 0.83154 0.25376
 C325 C 0.19889 0.70410 0.31493
 C326 C 0.30073 0.70958 0.19201
 C327 C 0.29438 0.82650 0.31489
 C328 C 0.20252 0.82244 0.18716
 O329 O 1.03219 0.05316 0.05724
 O330 O 1.05776 0.02728 0.02614
 C331 C 1.05282 0.04493 0.04938
 O332 O 0.96525 -0.05144 0.04465
 O333 O 0.94181 -0.01851 0.01832
 C334 C 0.94516 -0.04171 0.03683
 O335 O 1.02892 -0.05181 0.05053
 O336 O 1.05611 -0.02401 0.02329
 C337 C 1.05003 -0.04463 0.04383
 O338 O 0.96887 0.06172 0.05114
 O339 O 0.94357 0.03558 0.02120
 C340 C 0.94830 0.05572 0.04211
 Zr341 Zr 1.00060 0.04292 0.03667
 O342 O 0.99684 0.04122 0.08546
 O343 O 1.00376 0.09141 0.03636
 Zr344 Zr 0.99816 -0.03436 0.03244
 O345 O 0.99533 -0.03461 0.08129
 O346 O 0.99858 -0.08304 0.03075
 O347 O 1.01956 0.00265 0.04117
 O348 O 0.97917 0.00507 0.03965
 O349 O 0.97242 0.06883 -0.05517
 O350 O 0.94531 0.03869 -0.03051
 C351 C 0.95132 0.06145 -0.04859
 O352 O 1.03288 -0.04440 -0.06315
 O353 O 1.05800 -0.02062 -0.03107
 C354 C 1.05343 -0.03849 -0.05402
 O355 O 0.96887 -0.04439 -0.06192
 O356 O 0.94363 -0.01532 -0.03339
 C357 C 0.94827 -0.03589 -0.05412
 O358 O 1.03619 0.06178 -0.05697
 O359 O 1.05964 0.03089 -0.02831
 C360 C 1.05628 0.05221 -0.04898
 Zr361 Zr 1.00325 0.04796 -0.04107
 O362 O 1.00214 0.05098 -0.08997
 O363 O 1.00707 0.09631 -0.03819
 Zr364 Zr 1.00080 -0.02948 -0.04535
 O365 O 0.99998 -0.02758 -0.09429
 O366 O 1.00044 -0.07815 -0.04488
 Zr367 Zr 1.03494 0.00475 -0.00332
 Zr368 Zr 0.96650 0.00876 -0.00539
 O369 O 0.98229 0.01079 -0.04955
 O370 O 1.02262 0.00845 -0.04874
 O371 O 0.98170 0.05260 -0.00247
 O372 O 1.01932 -0.03874 -0.00616
 O373 O 1.02215 0.04993 -0.00120
 O374 O 0.97889 -0.03670 -0.00744
 H375 H 0.96822 0.00457 0.05746
 H376 H 1.02908 -0.05737 -0.00676
 H377 H 0.97258 0.01256 -0.06801
 H378 H 1.03312 0.06724 0.00028
 H379 H 0.98945 -0.08903 0.01276
 H380 H 1.00094 -0.08448 -0.06685
 H381 H 1.01227 -0.01336 -0.10141
 H382 H 1.01503 0.03876 -0.09845
 H383 H 0.99634 0.10343 -0.02177
 H384 H 1.00341 0.09767 0.05835
 H385 H 1.00461 0.02227 0.09255
 H386 H 0.99436 -0.05655 0.08774
 O387 O 1.02890 0.53966 0.55793
 O388 O 1.05538 0.51648 0.52598
 C389 C 1.04982 0.53334 0.54959
 O390 O 0.96705 0.42923 0.54321
 O391 O 0.94184 0.46102 0.51856
 C392 C 0.94648 0.43737 0.53591
 O393 O 1.03054 0.43444 0.54860
 O394 O 1.05615 0.46506 0.52167
 C395 C 1.05123 0.44334 0.54158
 O396 O 0.96527 0.54282 0.55316
 O397 O 0.94109 0.51521 0.52290
 C398 C 0.94497 0.53524 0.54425
 Zr399 Zr 0.99766 0.52708 0.53769
 O400 O 0.99439 0.52397 0.58648
 O401 O 0.99849 0.57573 0.53835
 Zr402 Zr 0.99888 0.44988 0.53163
 O403 O 0.99635 0.44869 0.58048
 O404 O 1.00157 0.40137 0.52930
 O405 O 1.01856 0.48841 0.54098
 O406 O 0.97809 0.48740 0.54006
 O407 O 0.96768 0.55209 0.44617
 O408 O 0.94226 0.51959 0.47110
 C409 C 0.94703 0.54283 0.45298
 O410 O 1.03320 0.44460 0.43546
 O411 O 1.05739 0.46991 0.46770
 C412 C 1.05351 0.45203 0.44452
 O413 O 0.96890 0.43964 0.43783
 O414 O 0.94267 0.46612 0.46750
 C415 C 0.94801 0.44632 0.44629
 O416 O 1.03169 0.55090 0.44396
 O417 O 1.05665 0.52145 0.47174
 C418 C 1.05222 0.54287 0.45161
 Zr419 Zr 0.99954 0.53400 0.45999
 O420 O 0.99809 0.53826 0.41121
 O421 O 1.00099 0.58246 0.46436
 Zr422 Zr 1.00057 0.45662 0.45386
 O423 O 0.99924 0.45974 0.40500
 O424 O 1.00241 0.40805 0.45271
 Zr425 Zr 1.03342 0.49272 0.49630
 Zr426 Zr 0.96500 0.49100 0.49526
 O427 O 0.98027 0.49532 0.45091
 O428 O 1.02062 0.49635 0.45113
 O429 O 0.97807 0.53599 0.49899
 O430 O 1.01980 0.44810 0.49258
 O431 O 1.01857 0.53667 0.49969
 O432 O 0.97945 0.44675 0.49193
 H433 H 0.96726 0.48546 0.55792
 H434 H 1.03033 0.43028 0.49137
 H435 H 0.97036 0.49658 0.43261
 H436 H 1.02873 0.55483 0.50141
 H437 H 0.99372 0.39504 0.51031
 H438 H 1.00275 0.40246 0.43052
 H439 H 1.01116 0.47459 0.39804
 H440 H 1.01117 0.52673 0.40229
 H441 H 0.98953 0.58824 0.48043
 H442 H 0.99804 0.58154 0.56048
 H443 H 1.00340 0.50586 0.59304
 H444 H 0.99643 0.42662 0.58655
 O445 O 0.53387 0.04478 0.56271
 O446 O 0.55838 0.01608 0.53264
 C447 C 0.55425 0.03586 0.55438
 O448 O 0.46519 -0.05985 0.55890
 O449 O 0.44147 -0.02761 0.53204
 C450 C 0.44501 -0.05012 0.55135
 O451 O 0.52925 -0.06142 0.56243
 O452 O 0.55607 -0.03549 0.53269
 C453 C 0.55028 -0.05501 0.55444
 O454 O 0.47032 0.05304 0.56018
 O455 O 0.44417 0.02587 0.53257
 C456 C 0.44948 0.04675 0.55244
 Zr457 Zr 0.50158 0.03319 0.54497
 O458 O 0.49932 0.03368 0.59390
 O459 O 0.50482 0.08162 0.54209
 Zr460 Zr 0.49825 -0.04423 0.54487
 O461 O 0.49655 -0.04196 0.59370
 O462 O 0.49811 -0.09295 0.54590
 O463 O 0.52028 -0.00717 0.55072
 O464 O 0.47988 -0.00412 0.55086
 O465 O 0.47148 0.05482 0.45302
 O466 O 0.44469 0.02664 0.48055
 C467 C 0.45047 0.04820 0.46088
 O468 O 0.53037 -0.05947 0.44828
 O469 O 0.55668 -0.03478 0.47783
 C470 C 0.55125 -0.05350 0.45591
 O471 O 0.46656 -0.05823 0.45219
 O472 O 0.44241 -0.02746 0.48059
 C473 C 0.44628 -0.04894 0.46056
 O474 O 0.53516 0.04679 0.44932
 O475 O 0.55893 0.01678 0.47843
 C476 C 0.55533 0.03726 0.45704
 Zr477 Zr 0.50238 0.03427 0.46705
 O478 O 0.50022 0.03470 0.41818
 O479 O 0.50665 0.08267 0.46723
 Zr480 Zr 0.49901 -0.04333 0.46696
 O481 O 0.49708 -0.04437 0.41812
 O482 O 0.49812 -0.09190 0.47037
 Zr483 Zr 0.53456 -0.00766 0.50557
 Zr484 Zr 0.46618 -0.00245 0.50629
 O485 O 0.48086 -0.00294 0.46146
 O486 O 0.52114 -0.00599 0.46064
 O487 O 0.48181 0.04126 0.50626
 O488 O 0.51844 -0.05097 0.50567
 O489 O 0.52223 0.03783 0.50587
 O490 O 0.47798 -0.04824 0.50607
 H491 H 0.46936 -0.00362 0.56912
 H492 H 0.52803 -0.06976 0.50553
 H493 H 0.47074 -0.00192 0.44336
 H494 H 0.53330 0.05513 0.50587
 H495 H 0.48842 -0.09974 0.52874
 H496 H 0.49808 -0.09951 0.44883
 H497 H 0.50854 -0.02957 0.40974
 H498 H 0.51309 0.02236 0.40983
 H499 H 0.49639 0.09077 0.48372
 H500 H 0.50504 0.08898 0.56372
 H501 H 0.50775 0.01543 0.60142
 H502 H 0.49524 -0.06353 0.60127
 O503 O 0.53039 0.55720 0.06105
 O504 O 0.55586 0.53123 0.02983
 C505 C 0.55103 0.54962 0.05255
 O506 O 0.46635 0.44853 0.05700
 O507 O 0.44115 0.47884 0.03051
 C508 C 0.44575 0.45666 0.04974
 O509 O 0.53027 0.45173 0.05887
 O510 O 0.55566 0.47975 0.02877
 C511 C 0.55092 0.45953 0.05027
 O512 O 0.46662 0.56197 0.05848
 O513 O 0.44133 0.53307 0.03113
 C514 C 0.44599 0.55425 0.05099
 Zr515 Zr 0.49853 0.54443 0.04279
 O516 O 0.49633 0.54496 0.09172
 O517 O 0.50019 0.59300 0.04000
 Zr518 Zr 0.49834 0.46696 0.04228
 O519 O 0.49712 0.46918 0.09112
 O520 O 0.50001 0.41830 0.04316
 O521 O 0.51888 0.50545 0.04797
 O522 O 0.47836 0.50561 0.04874
 O523 O 0.46695 0.56459 -0.04808
 O524 O 0.44139 0.53419 -0.02073
 C525 C 0.44627 0.55648 -0.04001
 O526 O 0.53022 0.45330 -0.05375
 O527 O 0.55585 0.48061 -0.02532
 C528 C 0.55090 0.46054 -0.04624
 O529 O 0.46638 0.45048 -0.04909
 O530 O 0.44116 0.48029 -0.02129
 C531 C 0.44580 0.45863 -0.04086
 O532 O 0.53070 0.56090 -0.05328
 O533 O 0.55598 0.53255 -0.02492
 C534 C 0.55131 0.55292 -0.04605
 Zr535 Zr 0.49873 0.54585 -0.03509
 O536 O 0.49608 0.54614 -0.08390
 O537 O 0.50117 0.59447 -0.03501
 Zr538 Zr 0.49835 0.46825 -0.03566
 O539 O 0.49605 0.46862 -0.08450
 O540 O 0.49930 0.41960 -0.03362
 Zr541 Zr 0.53281 0.50623 0.00257
 Zr542 Zr 0.46423 0.50651 0.00439
 O543 O 0.47857 0.50727 -0.04064
 O544 O 0.51903 0.50704 -0.04213
 O545 O 0.47821 0.55124 0.00444
 O546 O 0.51831 0.46187 0.00273
 O547 O 0.51874 0.55075 0.00348
 O548 O 0.47791 0.46170 0.00378
 H549 H 0.46797 0.50527 0.06715
 H550 H 0.52843 0.44359 0.00247
 H551 H 0.46822 0.50765 -0.05851
 H552 H 0.52923 0.56869 0.00358
 H553 H 0.49137 0.41099 0.02520
 H554 H 0.49917 0.41249 -0.05534
 H555 H 0.50871 0.48158 -0.09284
 H556 H 0.50916 0.53432 -0.09245
 H557 H 0.49115 0.60185 -0.01792
 H558 H 0.50026 0.60031 0.06165
 H559 H 0.50488 0.52682 0.09922
 H560 H 0.49699 0.44756 0.09870
 C561 C 1.19669 0.14780 0.14139
 C562 C 1.18151 0.13084 0.12356
 C563 C 1.16021 0.12130 0.13592
 C564 C 1.15452 0.12898 0.16674
 C565 C 1.16969 0.14575 0.18451
 C566 C 1.19080 0.15576 0.17197
 C567 C 1.14393 0.10532 0.11545
 C568 C 1.12513 0.09047 0.12594
 C569 C 1.10729 0.07832 0.10554
 C570 C 1.08465 0.07772 0.11683
 C571 C 1.06704 0.06710 0.09845
 C572 C 1.07172 0.05623 0.06848
 C573 C 1.09449 0.05609 0.05734
 C574 C 1.11214 0.06721 0.07564
 H575 H 1.21272 0.15545 0.13094
 H576 H 1.18629 0.12556 0.09985
 H577 H 1.13818 0.12307 0.17725
 H578 H 1.16475 0.15117 0.20812
 H579 H 1.14720 0.10700 0.09073
 H580 H 1.12159 0.08857 0.15052
 H581 H 1.08051 0.08595 0.13986
 H582 H 1.04974 0.06717 0.10789
 H583 H 1.09863 0.04765 0.03439
 H584 H 1.12950 0.06664 0.06653
 C585 C 1.19021 0.64659 0.63929
 C586 C 1.17548 0.62871 0.62170
 C587 C 1.15417 0.61907 0.63392
 C588 C 1.14791 0.62782 0.66423
 C589 C 1.16263 0.64555 0.68177
 C590 C 1.18384 0.65543 0.66946
 C591 C 1.13846 0.60169 0.61383
 C592 C 1.12041 0.58556 0.62479
 C593 C 1.10304 0.57157 0.60482
 C594 C 1.08059 0.56894 0.61653
 C595 C 1.06338 0.55665 0.59850
 C596 C 1.06832 0.54613 0.56847
 C597 C 1.09095 0.54797 0.55693
 C598 C 1.10817 0.56072 0.57489
 H599 H 1.20631 0.65416 0.62898
 H600 H 1.18065 0.62264 0.59834
 H601 H 1.13144 0.62194 0.67443
 H602 H 1.15730 0.65167 0.70506
 H603 H 1.14160 0.60319 0.58907
 H604 H 1.11716 0.58382 0.64946
 H605 H 1.07625 0.57691 0.63959
 H606 H 1.04619 0.55523 0.60822
 H607 H 1.09530 0.53987 0.53393
 H608 H 1.12544 0.56167 0.56547
 C609 C 0.66068 0.15217 0.70225
 C610 C 0.64491 0.13309 0.68802
 C611 C 0.64758 0.12534 0.65670
 C612 C 0.66674 0.13685 0.63994
 C613 C 0.68262 0.15590 0.65428
 C614 C 0.67957 0.16409 0.68547
 C615 C 0.62914 0.10715 0.64234
 C616 C 0.63063 0.09402 0.61436
 C617 C 0.61091 0.07841 0.60006
 C618 C 0.61486 0.05588 0.57748
 C619 C 0.59654 0.04160 0.56288
 C620 C 0.57386 0.04982 0.57041
 C621 C 0.56997 0.07247 0.59292
 C622 C 0.58821 0.08670 0.60740
 H623 H 0.65805 0.15770 0.72645
 H624 H 0.63034 0.12467 0.70152
 H625 H 0.66926 0.13213 0.61560
 H626 H 0.69689 0.16504 0.64069
 H627 H 0.61349 0.10439 0.65591
 H628 H 0.64672 0.09405 0.60157
 H629 H 0.63218 0.04932 0.57112
 H630 H 0.60017 0.02436 0.54554
 H631 H 0.55277 0.07970 0.59907
 H632 H 0.58436 0.10479 0.62371
 C633 C 0.69337 0.66174 0.13942
 C634 C 0.67818 0.64452 0.12185
 C635 C 0.65760 0.63327 0.13501
 C636 C 0.65263 0.63966 0.16637
 C637 C 0.66783 0.65670 0.18389
 C638 C 0.68826 0.66825 0.17061
 C639 C 0.64134 0.61668 0.11493
 C640 C 0.62331 0.60049 0.12591
 C641 C 0.60549 0.58730 0.10608
 C642 C 0.58316 0.58514 0.11828
 C643 C 0.56559 0.57320 0.10069
 C644 C 0.56999 0.56248 0.07059
 C645 C 0.59248 0.56395 0.05846
 C646 C 0.61009 0.57647 0.07599
 H647 H 0.70882 0.67062 0.12833
 H648 H 0.68241 0.64028 0.09774
 H649 H 0.63683 0.63240 0.17758
 H650 H 0.66348 0.66096 0.20794
 H651 H 0.64399 0.61888 0.09013
 H652 H 0.62037 0.59808 0.15057
 H653 H 0.57921 0.59312 0.14146
 H654 H 0.54853 0.57205 0.11088
 H655 H 0.59640 0.55568 0.03539
 H656 H 0.62726 0.57714 0.06618
 C657 C 0.83322 -0.19704 0.14165
 C658 C 0.84922 -0.18140 0.12296
 C659 C 0.84752 -0.14949 0.11804
 C660 C 0.82890 -0.13364 0.13160
 C661 C 0.81276 -0.14941 0.15022
 C662 C 0.81506 -0.18114 0.15595
 C663 C 0.86651 -0.13379 0.10081
 C664 C 0.86617 -0.10441 0.09087
 C665 C 0.88655 -0.08914 0.07651
 C666 C 0.88361 -0.06427 0.05597
 C667 C 0.90258 -0.04896 0.04279
 C668 C 0.92492 -0.05804 0.05019
 C669 C 0.92780 -0.08275 0.07101
 C670 C 0.90889 -0.09801 0.08411
 H671 H 0.83523 -0.22159 0.14531
 H672 H 0.86332 -0.19424 0.11284
 H673 H 0.82706 -0.10901 0.12899
 H674 H 0.79903 -0.13657 0.16122
 H675 H 0.88167 -0.14741 0.09623
 H676 H 0.85061 -0.09108 0.09264
 H677 H 0.86659 -0.05674 0.05003
 H678 H 0.89973 -0.02994 0.02693
 H679 H 0.94471 -0.09019 0.07753
 H680 H 0.91192 -0.11624 0.10078
 C681 C 0.80064 0.34532 0.64376
 C682 C 0.81569 0.36234 0.62462
 C683 C 0.83821 0.35255 0.61938
 C684 C 0.84540 0.32519 0.63369
 C685 C 0.83051 0.30813 0.65279
 C686 C 0.80774 0.31790 0.65896
 C687 C 0.85417 0.37237 0.60082
 C688 C 0.87336 0.36163 0.58727
 C689 C 0.89131 0.38155 0.57296
 C690 C 0.91388 0.37071 0.57265
 C691 C 0.93169 0.38888 0.56065
 C692 C 0.92731 0.41823 0.54815
 C693 C 0.90461 0.42882 0.54755
 C694 C 0.88674 0.41070 0.55996
 H695 H 0.78395 0.35525 0.64781
 H696 H 0.80978 0.38364 0.61426
 H697 H 0.86276 0.31698 0.63098
 H698 H 0.83716 0.28670 0.66169
 H699 H 0.85028 0.39670 0.59944
 H700 H 0.87705 0.33725 0.58833
 H701 H 0.91783 0.34827 0.58232
 H702 H 0.94892 0.37983 0.56114
 H703 H 0.90067 0.45124 0.53782
 H704 H 0.86947 0.41946 0.55905
 C705 C 0.33241 -0.20770 0.65123
 C706 C 0.34918 -0.19123 0.63463
 C707 C 0.34731 -0.15924 0.63037
 C708 C 0.32786 -0.14413 0.64258
 C709 C 0.31098 -0.16072 0.65908
 C710 C 0.31330 -0.19257 0.66402
 C711 C 0.36674 -0.14271 0.61497
 C712 C 0.36619 -0.11329 0.60519
 C713 C 0.38658 -0.09737 0.59167
 C714 C 0.38358 -0.07255 0.57109
 C715 C 0.40249 -0.05705 0.55806
 C716 C 0.42485 -0.06592 0.56557
 C717 C 0.42780 -0.09033 0.58672
 C718 C 0.40893 -0.10577 0.59972
 H719 H 0.33450 -0.23231 0.65435
 H720 H 0.36392 -0.20350 0.62553
 H721 H 0.32586 -0.11948 0.64049
 H722 H 0.29656 -0.14843 0.66903
 H723 H 0.38226 -0.15584 0.61129
 H724 H 0.35035 -0.10052 0.60606
 H725 H 0.36655 -0.06534 0.56485
 H726 H 0.39957 -0.03818 0.54204
 H727 H 0.44474 -0.09756 0.59335
 H728 H 0.41198 -0.12392 0.61646
 C729 C 0.34008 0.29420 0.15641
 C730 C 0.35640 0.31124 0.13952
 C731 C 0.35325 0.34281 0.13380
 C732 C 0.33308 0.35693 0.14501
 C733 C 0.31669 0.33980 0.16183
 C734 C 0.32018 0.30836 0.16808
 C735 C 0.37206 0.36015 0.11790
 C736 C 0.37006 0.38865 0.10595
 C737 C 0.38969 0.40568 0.09171
 C738 C 0.38556 0.42881 0.06959
 C739 C 0.40370 0.44544 0.05593
 C740 C 0.42639 0.43944 0.06435
 C741 C 0.43045 0.41666 0.08691
 C742 C 0.41235 0.40010 0.10054
 H743 H 0.34311 0.26992 0.16053
 H744 H 0.37173 0.29973 0.13123
 H745 H 0.33014 0.38131 0.14187
 H746 H 0.30165 0.35139 0.17093
 H747 H 0.38830 0.34839 0.11559
 H748 H 0.35352 0.39970 0.10548
 H749 H 0.36826 0.43383 0.06267
 H750 H 0.39994 0.46290 0.03870
 H751 H 0.44766 0.41168 0.09425
 H752 H 0.41621 0.38337 0.11839
 C753 C 0.80425 0.15005 -0.14785
 C754 C 0.82058 0.13347 -0.13136
 C755 C 0.84348 0.14322 -0.13117
 C756 C 0.84976 0.16984 -0.14824
 C757 C 0.83344 0.18644 -0.16459
 C758 C 0.81052 0.17675 -0.16462
 C759 C 0.86037 0.12430 -0.11422
 C760 C 0.88082 0.13492 -0.10559
 C761 C 0.89830 0.11558 -0.09044
 C762 C 0.92134 0.12429 -0.09370
 C763 C 0.93851 0.10672 -0.08019
 C764 C 0.93302 0.08014 -0.06273
 C765 C 0.90988 0.07172 -0.05890
 C766 C 0.89269 0.08924 -0.07259
 H767 H 0.78669 0.14208 -0.14734
 H768 H 0.81528 0.11293 -0.11866
 H769 H 0.86731 0.17761 -0.14989
 H770 H 0.83891 0.20647 -0.17794
 H771 H 0.85568 0.10066 -0.10906
 H772 H 0.88558 0.15853 -0.11063
 H773 H 0.92611 0.14462 -0.10710
 H774 H 0.95611 0.11405 -0.08345
 H775 H 0.90502 0.05155 -0.04534
 H776 H 0.87509 0.08230 -0.06869
 C777 C 0.84008 0.69189 0.33471
 C778 C 0.85717 0.67671 0.35094
 C779 C 0.85355 0.64697 0.36311
 C780 C 0.83224 0.63267 0.35858
 C781 C 0.81505 0.64797 0.34242
 C782 C 0.81879 0.67774 0.33022
 C783 C 0.87283 0.63170 0.37903
 C784 C 0.87112 0.60542 0.39557
 C785 C 0.89096 0.59035 0.41039
 C786 C 0.88691 0.56916 0.43465
 C787 C 0.90507 0.55390 0.44871
 C788 C 0.92775 0.55947 0.43871
 C789 C 0.93182 0.58059 0.41435
 C790 C 0.91367 0.59567 0.40019
 H791 H 0.84376 0.71451 0.32508
 H792 H 0.87344 0.68823 0.35373
 H793 H 0.82872 0.60957 0.36690
 H794 H 0.79881 0.63648 0.33952
 H795 H 0.88916 0.64340 0.37747
 H796 H 0.85459 0.59475 0.39944
 H797 H 0.86961 0.56439 0.44280
 H798 H 0.90133 0.53774 0.46740
 H799 H 0.94904 0.58507 0.40577
 H800 H 0.91762 0.61084 0.38081
 C801 C 0.30771 0.13015 0.34753
 C802 C 0.32304 0.11377 0.36586
 C803 C 0.34133 0.12867 0.37974
 C804 C 0.34337 0.16069 0.37618
 C805 C 0.32816 0.17719 0.35787
 C806 C 0.31003 0.16239 0.34244
 C807 C 0.35793 0.11023 0.39767
 C808 C 0.37976 0.11897 0.40096
 C809 C 0.39723 0.10030 0.41697
 C810 C 0.42035 0.10645 0.41020
 C811 C 0.43756 0.08961 0.42448
 C812 C 0.43207 0.06625 0.44615
 C813 C 0.40889 0.06036 0.45339
 C814 C 0.39163 0.07724 0.43902
 H815 H 0.29370 0.11706 0.33846
 H816 H 0.32072 0.08915 0.36890
 H817 H 0.35681 0.17327 0.38738
 H818 H 0.33192 0.20138 0.35488
 H819 H 0.35233 0.08793 0.40629
 H820 H 0.38571 0.13994 0.38968
 H821 H 0.42517 0.12423 0.39352
 H822 H 0.45519 0.09491 0.41840
 H823 H 0.40406 0.04273 0.47021
 H824 H 0.37405 0.07240 0.44560
 C825 C 0.29918 0.63610 -0.14676
 C826 C 0.31511 0.62003 -0.12904
 C827 C 0.33754 0.63112 -0.12633
 C828 C 0.34384 0.65841 -0.14224
 C829 C 0.32794 0.67446 -0.15978
 C830 C 0.30544 0.66356 -0.16222
 C831 C 0.35420 0.61294 -0.10821
 C832 C 0.37326 0.62520 -0.09669
 C833 C 0.39127 0.60698 -0.08141
 C834 C 0.41370 0.61843 -0.08260
 C835 C 0.43148 0.60199 -0.06920
 C836 C 0.42718 0.57385 -0.05380
 C837 C 0.40460 0.56267 -0.05187
 C838 C 0.38680 0.57902 -0.06563
 H839 H 0.28195 0.62716 -0.14821
 H840 H 0.30987 0.59891 -0.11735
 H841 H 0.36115 0.66712 -0.14207
 H842 H 0.33345 0.69508 -0.17215
 H843 H 0.35069 0.58864 -0.10488
 H844 H 0.37662 0.64954 -0.09975
 H845 H 0.41756 0.64002 -0.09439
 H846 H 0.44861 0.61145 -0.07085
 H847 H 0.40072 0.54117 -0.03995
 H848 H 0.36961 0.56991 -0.06348
 C849 C 1.15605 -0.19171 -0.17306
 C850 C 1.13926 -0.17395 -0.15842
 C851 C 1.14430 -0.14435 -0.14775
 C852 C 1.16663 -0.13272 -0.15235
 C853 C 1.18348 -0.15057 -0.16700
 C854 C 1.17838 -0.18029 -0.17750
 C855 C 1.12550 -0.12640 -0.13307
 C856 C 1.12851 -0.10120 -0.11588
 C857 C 1.10916 -0.08445 -0.10104
 C858 C 1.11310 -0.06713 -0.07442
 C859 C 1.09511 -0.05185 -0.05929
 C860 C 1.07277 -0.05348 -0.07060
 C861 C 1.06897 -0.07004 -0.09780
 C862 C 1.08695 -0.08516 -0.11296
 H863 H 1.15139 -0.21423 -0.18145
 H864 H 1.12218 -0.18340 -0.15553
 H865 H 1.17117 -0.10977 -0.14522
 H866 H 1.20055 -0.14116 -0.17000
 H867 H 1.10840 -0.13545 -0.13555
 H868 H 1.14559 -0.09345 -0.11084
 H869 H 1.13009 -0.06587 -0.06496
 H870 H 1.09866 -0.03917 -0.03847
 H871 H 1.05207 -0.07134 -0.10748
 H872 H 1.08334 -0.09712 -0.13415
 C873 C 1.16192 0.30425 0.32850
 C874 C 1.14441 0.32141 0.34230
 C875 C 1.14838 0.35157 0.35223
 C876 C 1.17036 0.36439 0.34773
 C877 C 1.18793 0.34714 0.33391
 C878 C 1.18391 0.31685 0.32418
 C879 C 1.12888 0.36876 0.36618
 C880 C 1.13094 0.39442 0.38295
 C881 C 1.11098 0.41012 0.39748
 C882 C 1.11423 0.42786 0.42401
 C883 C 1.09566 0.44193 0.43905
 C884 C 1.07342 0.43866 0.42774
 C885 C 1.07030 0.42180 0.40056
 C886 C 1.08886 0.40787 0.38548
 H887 H 1.15807 0.28125 0.32066
 H888 H 1.12763 0.31104 0.34514
 H889 H 1.17407 0.38779 0.35428
 H890 H 1.20470 0.35748 0.33094
 H891 H 1.11210 0.35867 0.36366
 H892 H 1.14773 0.40327 0.38803
 H893 H 1.13113 0.43030 0.43351
 H894 H 1.09870 0.45488 0.45986
 H895 H 1.05347 0.41924 0.39091
 H896 H 1.08574 0.39553 0.36437
 C897 C 0.69696 -0.14116 0.34292
 C898 C 0.68176 -0.12375 0.36106
 C899 C 0.66012 -0.13545 0.36957
 C900 C 0.65430 -0.16544 0.36045
 C901 C 0.66941 -0.18274 0.34228
 C902 C 0.69089 -0.17082 0.33314
 C903 C 0.64413 -0.11615 0.38817
 C904 C 0.62134 -0.11953 0.38703
 C905 C 0.60433 -0.10113 0.40486
 C906 C 0.58135 -0.10343 0.39655
 C907 C 0.56431 -0.08779 0.41298
 C908 C 0.56975 -0.06936 0.43835
 C909 C 0.59280 -0.06675 0.44669
 C910 C 0.60994 -0.08257 0.43020
 H911 H 0.71353 -0.13150 0.33676
 H912 H 0.68682 -0.10091 0.36814
 H913 H 0.63817 -0.17584 0.36746
 H914 H 0.66407 -0.20539 0.33503
 H915 H 0.65141 -0.09793 0.40171
 H916 H 0.61444 -0.13616 0.37122
 H917 H 0.57646 -0.11759 0.37726
 H918 H 0.54679 -0.09032 0.40575
 H919 H 0.59756 -0.05285 0.46620
 H920 H 0.62735 -0.08059 0.43784
 C921 C 0.69526 0.36736 -0.15756
 C922 C 0.68018 0.38644 -0.14100
 C923 C 0.65729 0.37763 -0.13576
 C924 C 0.64966 0.34967 -0.14823
 C925 C 0.66472 0.33059 -0.16447
 C926 C 0.68768 0.33909 -0.16919
 C927 C 0.64157 0.39846 -0.11847
 C928 C 0.62240 0.38823 -0.10419
 C929 C 0.60484 0.40835 -0.08992
 C930 C 0.58218 0.39787 -0.08953
 C931 C 0.56481 0.41526 -0.07594
 C932 C 0.56968 0.44344 -0.06178
 C933 C 0.59243 0.45402 -0.06188
 C934 C 0.60990 0.43669 -0.07607
 H935 H 0.71289 0.37450 -0.16094
 H936 H 0.68644 0.40802 -0.13208
 H937 H 0.63196 0.34260 -0.14625
 H938 H 0.65824 0.30939 -0.17397
 H939 H 0.64575 0.42275 -0.11805
 H940 H 0.61849 0.36388 -0.10417
 H941 H 0.57786 0.37606 -0.09992
 H942 H 0.54754 0.40621 -0.07600
 H943 H 0.59670 0.47558 -0.05100
 H944 H 0.62731 0.44511 -0.07548
 C945 C 1.16749 0.20371 -0.15950
 C946 C 1.15037 0.18720 -0.14367
 C947 C 1.15310 0.15592 -0.13660
 C948 C 1.17356 0.14135 -0.14573
 C949 C 1.19081 0.15785 -0.16164
 C950 C 1.18815 0.18944 -0.16904
 C951 C 1.13364 0.13945 -0.12124
 C952 C 1.13492 0.11158 -0.10768
 C953 C 1.11465 0.09612 -0.09323
 C954 C 1.11767 0.07483 -0.06899
 C955 C 1.09878 0.06038 -0.05460
 C956 C 1.07648 0.06681 -0.06438
 C957 C 1.07356 0.08750 -0.08921
 C958 C 1.09238 0.10182 -0.10359
 H959 H 1.16368 0.22734 -0.16548
 H960 H 1.13466 0.19897 -0.13734
 H961 H 1.17629 0.11712 -0.14121
 H962 H 1.20640 0.14563 -0.16732
 H963 H 1.11750 0.15161 -0.12041
 H964 H 1.15127 0.10020 -0.10570
 H965 H 1.13465 0.06972 -0.06086
 H966 H 1.10166 0.04440 -0.03567
 H967 H 1.05669 0.09260 -0.09774
 H968 H 1.08937 0.11702 -0.12307
 C969 C 1.15943 0.69940 0.33835
 C970 C 1.14225 0.68252 0.35370
 C971 C 1.14606 0.65206 0.36343
 C972 C 1.16764 0.63878 0.35737
 C973 C 1.18491 0.65576 0.34206
 C974 C 1.18098 0.68625 0.33228
 C975 C 1.12672 0.63500 0.37847
 C976 C 1.12866 0.60803 0.39366
 C977 C 1.10879 0.59158 0.40806
 C978 C 1.11253 0.57047 0.43226
 C979 C 1.09423 0.55458 0.44641
 C980 C 1.07174 0.55938 0.43654
 C981 C 1.06804 0.58008 0.41193
 C982 C 1.08632 0.59583 0.39772
 H983 H 1.15562 0.72257 0.33058
 H984 H 1.12577 0.69329 0.35772
 H985 H 1.17129 0.61521 0.36377
 H986 H 1.20135 0.64499 0.33790
 H987 H 1.11014 0.64596 0.37765
 H988 H 1.14535 0.59803 0.39700
 H989 H 1.12967 0.56647 0.44044
 H990 H 1.09772 0.53870 0.46521
 H991 H 1.05100 0.58397 0.40340
 H992 H 1.08273 0.61087 0.37833
 C993 C 0.66610 0.18644 0.34298
 C994 C 0.64900 0.17025 0.35919
 C995 C 0.65182 0.13904 0.36688
 C996 C 0.67238 0.12434 0.35812
 C997 C 0.68958 0.14064 0.34192
 C998 C 0.68656 0.17183 0.33399
 C999 C 0.63238 0.12277 0.38245
 C1000 C 0.63365 0.09492 0.39607
 C1001 C 0.61344 0.07968 0.41083
 C1002 C 0.61659 0.05869 0.43528
 C1003 C 0.59778 0.04460 0.45016
 C1004 C 0.57541 0.05111 0.44069
 C1005 C 0.57235 0.07138 0.41556
 C1006 C 0.59111 0.08536 0.40069
 H1007 H 0.66295 0.21024 0.33669
 H1008 H 0.63329 0.18211 0.36535
 H1009 H 0.67516 0.10019 0.36295
 H1010 H 0.70518 0.12875 0.33542
 H1011 H 0.61627 0.13499 0.38338
 H1012 H 0.64995 0.08343 0.39793
 H1013 H 0.63363 0.05360 0.44325
 H1014 H 0.60077 0.02894 0.46932
 H1015 H 0.55540 0.07651 0.40729
 H1016 H 0.58801 0.10035 0.38108
 C1017 C 0.69863 0.63765 -0.15825
 C1018 C 0.68307 0.61982 -0.14069
 C1019 C 0.66346 0.63315 -0.12746
 C1020 C 0.66027 0.66504 -0.13081
 C1021 C 0.67572 0.68291 -0.14828
 C1022 C 0.69514 0.66961 -0.16288
 C1023 C 0.64662 0.61342 -0.11040
 C1024 C 0.62424 0.62015 -0.10939
 C1025 C 0.60640 0.60113 -0.09349
 C1026 C 0.58358 0.60615 -0.10144
 C1027 C 0.56586 0.59012 -0.08639
 C1028 C 0.57047 0.56868 -0.06274
 C1029 C 0.59336 0.56334 -0.05486
 C1030 C 0.61118 0.57946 -0.07002
 H1031 H 0.71363 0.62614 -0.16741
 H1032 H 0.68620 0.59538 -0.13788
 H1033 H 0.64573 0.67638 -0.12006
 H1034 H 0.67150 0.70694 -0.15131
 H1035 H 0.65268 0.59210 -0.10035
 H1036 H 0.61831 0.64009 -0.12213
 H1037 H 0.57937 0.62274 -0.11933
 H1038 H 0.54848 0.59484 -0.09317
 H1039 H 0.59749 0.54710 -0.03662
 H1040 H 0.62849 0.57541 -0.06271
 C1041 C 0.84272 -0.18624 -0.16823
 C1042 C 0.85977 -0.16965 -0.15358
 C1043 C 0.85572 -0.13957 -0.14328
 C1044 C 0.83408 -0.12634 -0.14809
 C1045 C 0.81696 -0.14304 -0.16269
 C1046 C 0.82110 -0.17316 -0.17299
 C1047 C 0.87487 -0.12284 -0.12885
 C1048 C 0.87260 -0.09668 -0.11281
 C1049 C 0.89224 -0.08086 -0.09860
 C1050 C 0.88819 -0.06152 -0.07325
 C1051 C 0.90631 -0.04665 -0.05894
 C1052 C 0.92892 -0.05073 -0.06981
 C1053 C 0.93292 -0.06949 -0.09566
 C1054 C 0.91481 -0.08420 -0.11004
 H1055 H 0.84669 -0.20912 -0.17645
 H1056 H 0.87630 -0.18035 -0.15050
 H1057 H 0.83029 -0.10302 -0.14122
 H1058 H 0.80046 -0.13234 -0.16590
 H1059 H 0.89154 -0.13349 -0.13074
 H1060 H 0.85580 -0.08713 -0.10841
 H1061 H 0.87096 -0.05825 -0.06420
 H1062 H 0.90261 -0.03231 -0.03911
 H1063 H 0.95008 -0.07274 -0.10494
 H1064 H 0.91863 -0.09782 -0.13030
 C1065 C 0.83012 0.34925 0.29983
 C1066 C 0.84773 0.36539 0.31385
 C1067 C 0.85307 0.35954 0.34486
 C1068 C 0.84062 0.33687 0.36154
 C1069 C 0.82313 0.32055 0.34743
 C1070 C 0.81772 0.32656 0.31643
 C1071 C 0.87232 0.37645 0.35858
 C1072 C 0.87358 0.38203 0.38895
 C1073 C 0.89285 0.39888 0.40265
 C1074 C 0.88897 0.41521 0.43007
 C1075 C 0.90682 0.43093 0.44400
 C1076 C 0.92906 0.43023 0.43102
 C1077 C 0.93303 0.41352 0.40376
 C1078 C 0.91511 0.39802 0.38967
 H1079 H 0.82657 0.35401 0.27575
 H1080 H 0.85724 0.38250 0.30043
 H1081 H 0.84467 0.33112 0.38523
 H1082 H 0.81383 0.30318 0.36076
 H1083 H 0.88527 0.38581 0.34285
 H1084 H 0.85948 0.37545 0.40428
 H1085 H 0.87204 0.41592 0.44068
 H1086 H 0.90322 0.44330 0.46519
 H1087 H 0.94999 0.41236 0.39331
 H1088 H 0.91886 0.38488 0.36905
 C1089 C 0.32065 -0.13005 0.31719
 C1090 C 0.33813 -0.11445 0.33205
 C1091 C 0.34553 -0.12422 0.36108
 C1092 C 0.33506 -0.14996 0.37521
 C1093 C 0.31780 -0.16596 0.36026
 C1094 C 0.31027 -0.15675 0.33055
 C1095 C 0.36517 -0.10840 0.37501
 C1096 C 0.36802 -0.10658 0.40562
 C1097 C 0.38817 -0.09154 0.41905
 C1098 C 0.38576 -0.07632 0.44739
 C1099 C 0.40459 -0.06216 0.46072
 C1100 C 0.42632 -0.06362 0.44629
 C1101 C 0.42881 -0.07939 0.41820
 C1102 C 0.40992 -0.09311 0.40464
 H1103 H 0.31675 -0.12199 0.29416
 H1104 H 0.34617 -0.09485 0.32052
 H1105 H 0.34056 -0.15835 0.39752
 H1106 H 0.31007 -0.18499 0.37295
 H1107 H 0.37729 -0.09699 0.35941
 H1108 H 0.35478 -0.11510 0.42140
 H1109 H 0.36922 -0.07512 0.45906
 H1110 H 0.40218 -0.05041 0.48252
 H1111 H 0.44536 -0.08098 0.40660
 H1112 H 0.41244 -0.10542 0.38318
 C1113 C 0.31654 0.38013 -0.17609
 C1114 C 0.33109 0.39819 -0.15850
 C1115 C 0.33787 0.38810 -0.12918
 C1116 C 0.32882 0.36046 -0.11693
 C1117 C 0.31401 0.34262 -0.13430
 C1118 C 0.30809 0.35185 -0.16441
 C1119 C 0.35481 0.40634 -0.11223
 C1120 C 0.37119 0.39286 -0.09567
 C1121 C 0.38988 0.41030 -0.08140
 C1122 C 0.41152 0.39664 -0.07968
 C1123 C 0.42972 0.41250 -0.06679
 C1124 C 0.42649 0.44210 -0.05467
 C1125 C 0.40466 0.45553 -0.05571
 C1126 C 0.38653 0.43986 -0.06915
 H1127 H 0.31258 0.38786 -0.19926
 H1128 H 0.33778 0.41951 -0.16831
 H1129 H 0.33322 0.35260 -0.09395
 H1130 H 0.30730 0.32149 -0.12416
 H1131 H 0.35518 0.43103 -0.11603
 H1132 H 0.37219 0.36795 -0.09481
 H1133 H 0.41443 0.37379 -0.08876
 H1134 H 0.44628 0.40142 -0.06601
 H1135 H 0.40166 0.47828 -0.04643
 H1136 H 0.36987 0.45068 -0.06955
 C1137 C 1.19220 -0.15532 0.13526
 C1138 C 1.17738 -0.13850 0.11651
 C1139 C 1.15777 -0.12457 0.12931
 C1140 C 1.15387 -0.12648 0.16152
 C1141 C 1.16863 -0.14326 0.18020
 C1142 C 1.18774 -0.15832 0.16725
 C1143 C 1.14171 -0.10823 0.10871
 C1144 C 1.11926 -0.10631 0.11543
 C1145 C 1.10231 -0.09090 0.09550
 C1146 C 1.07914 -0.09831 0.10023
 C1147 C 1.06229 -0.08364 0.08314
 C1148 C 1.06817 -0.06093 0.06095
 C1149 C 1.09140 -0.05351 0.05605
 C1150 C 1.10832 -0.06829 0.07319
 H1151 H 1.20679 -0.16668 0.12462
 H1152 H 1.18091 -0.13703 0.09182
 H1153 H 1.13951 -0.11491 0.17245
 H1154 H 1.16511 -0.14439 0.20489
 H1155 H 1.14839 -0.09944 0.08681
 H1156 H 1.11257 -0.11787 0.13602
 H1157 H 1.07401 -0.11550 0.11737
 H1158 H 1.04460 -0.08995 0.08762
 H1159 H 1.09651 -0.03595 0.03930
 H1160 H 1.12592 -0.06133 0.06938
 C1161 C 1.19650 0.36760 0.65454
 C1162 C 1.18120 0.38386 0.63604
 C1163 C 1.16306 0.36857 0.62193
 C1164 C 1.16131 0.33637 0.62524
 C1165 C 1.17653 0.32018 0.64377
 C1166 C 1.19399 0.33568 0.65913
 C1167 C 1.14610 0.38674 0.60439
 C1168 C 1.12427 0.37767 0.60203
 C1169 C 1.10624 0.39567 0.58641
 C1170 C 1.08335 0.38822 0.59333
 C1171 C 1.06560 0.40385 0.57898
 C1172 C 1.07027 0.42731 0.55709
 C1173 C 1.09321 0.43481 0.55000
 C1174 C 1.11105 0.41911 0.56444
 H1175 H 1.20980 0.38015 0.66612
 H1176 H 1.18309 0.40859 0.63353
 H1177 H 1.14821 0.32355 0.61359
 H1178 H 1.17458 0.29546 0.64620
 H1179 H 1.15141 0.40903 0.59541
 H1180 H 1.11879 0.35666 0.61370
 H1181 H 1.07914 0.37018 0.61001
 H1182 H 1.04817 0.39738 0.58501
 H1183 H 1.09742 0.45261 0.53307
 H1184 H 1.12844 0.42504 0.55783
 C1185 C 0.69413 -0.16664 0.63949
 C1186 C 0.67878 -0.14949 0.62187
 C1187 C 0.65937 -0.13614 0.63586
 C1188 C 0.65617 -0.13913 0.66813
 C1189 C 0.67146 -0.15629 0.68569
 C1190 C 0.69043 -0.17061 0.67154
 C1191 C 0.64289 -0.11923 0.61632
 C1192 C 0.62063 -0.11682 0.62411
 C1193 C 0.60333 -0.10108 0.60495
 C1194 C 0.58019 -0.10784 0.61091
 C1195 C 0.56308 -0.09314 0.59432
 C1196 C 0.56866 -0.07105 0.57137
 C1197 C 0.59185 -0.06416 0.56533
 C1198 C 0.60903 -0.07894 0.58199
 H1199 H 0.70858 -0.17744 0.62791
 H1200 H 0.68178 -0.14723 0.59713
 H1201 H 0.64200 -0.12807 0.68001
 H1202 H 0.66851 -0.15821 0.71046
 H1203 H 0.64908 -0.11040 0.59419
 H1204 H 0.61432 -0.12830 0.64495
 H1205 H 0.57529 -0.12464 0.62856
 H1206 H 0.54543 -0.09903 0.59968
 H1207 H 0.59675 -0.04705 0.54800
 H1208 H 0.62661 -0.07243 0.57722
 C1209 C 0.66065 0.34419 0.19689
 C1210 C 0.64399 0.36200 0.18259
 C1211 C 0.64467 0.36691 0.15045
 C1212 C 0.66259 0.35370 0.13281
 C1213 C 0.67931 0.33587 0.14718
 C1214 C 0.67836 0.33064 0.17933
 C1215 C 0.62566 0.38427 0.13631
 C1216 C 0.62671 0.39722 0.10800
 C1217 C 0.60705 0.41340 0.09411
 C1218 C 0.61118 0.43590 0.07113
 C1219 C 0.59301 0.45116 0.05711
 C1220 C 0.57025 0.44397 0.06558
 C1221 C 0.56613 0.42123 0.08841
 C1222 C 0.58428 0.40602 0.10241
 H1223 H 0.65964 0.34096 0.22177
 H1224 H 0.63038 0.37181 0.19672
 H1225 H 0.66342 0.35616 0.10789
 H1226 H 0.69257 0.32535 0.13301
 H1227 H 0.61033 0.38712 0.15044
 H1228 H 0.64264 0.39710 0.09482
 H1229 H 0.62854 0.44178 0.06408
 H1230 H 0.59683 0.46845 0.03951
 H1231 H 0.54883 0.41485 0.09527
 H1232 H 0.58032 0.38803 0.11918
 C1233 C 0.80163 0.14348 0.14799
 C1234 C 0.81671 0.12602 0.12975
 C1235 C 0.83591 0.13985 0.11533
 C1236 C 0.83889 0.17188 0.11775
 C1237 C 0.82389 0.18926 0.13599
 C1238 C 0.80546 0.17514 0.15194
 C1239 C 0.85283 0.12035 0.09871
 C1240 C 0.87517 0.12750 0.09748
 C1241 C 0.89317 0.10794 0.08323
 C1242 C 0.91584 0.11263 0.09207
 C1243 C 0.93361 0.09543 0.07901
 C1244 C 0.92918 0.07318 0.05651
 C1245 C 0.90646 0.06847 0.04750
 C1246 C 0.88862 0.08571 0.06068
 H1247 H 0.78755 0.13200 0.16003
 H1248 H 0.81388 0.10145 0.12789
 H1249 H 0.85290 0.18357 0.10582
 H1250 H 0.82688 0.21378 0.13794
 H1251 H 0.84700 0.09860 0.08977
 H1252 H 0.88095 0.14790 0.10923
 H1253 H 0.91985 0.12972 0.10924
 H1254 H 0.95087 0.09980 0.08645
 H1255 H 0.90248 0.05171 0.03001
 H1256 H 0.87145 0.08196 0.05265
 C1257 C 0.83714 0.69247 0.64839
 C1258 C 0.85312 0.67578 0.63103
 C1259 C 0.85060 0.64391 0.62725
 C1260 C 0.83131 0.62912 0.64068
 C1261 C 0.81524 0.64591 0.65803
 C1262 C 0.81825 0.67764 0.66254
 C1263 C 0.86937 0.62703 0.61129
 C1264 C 0.86776 0.59818 0.60073
 C1265 C 0.88764 0.58192 0.58673
 C1266 C 0.88407 0.55942 0.56426
 C1267 C 0.90262 0.54403 0.55051
 C1268 C 0.92513 0.55063 0.55931
 C1269 C 0.92859 0.57257 0.58244
 C1270 C 0.91009 0.58794 0.59606
 H1271 H 0.83973 0.71698 0.65110
 H1272 H 0.86778 0.68779 0.62098
 H1273 H 0.82893 0.60451 0.63897
 H1274 H 0.80096 0.63384 0.66900
 H1275 H 0.88534 0.63937 0.60783
 H1276 H 0.85145 0.58639 0.60122
 H1277 H 0.86691 0.55408 0.55699
 H1278 H 0.89932 0.52714 0.53289
 H1279 H 0.94563 0.57800 0.59007
 H1280 H 0.91347 0.60423 0.61419
 C1281 C 0.34394 0.20756 0.65906
 C1282 C 0.36059 0.19099 0.64273
 C1283 C 0.35850 0.15904 0.63913
 C1284 C 0.33921 0.14394 0.65221
 C1285 C 0.32251 0.16057 0.66855
 C1286 C 0.32481 0.19251 0.67241
 C1287 C 0.37738 0.14234 0.62319
 C1288 C 0.37527 0.11418 0.61108
 C1289 C 0.39462 0.09765 0.59602
 C1290 C 0.38994 0.07496 0.57415
 C1291 C 0.40772 0.05855 0.55985
 C1292 C 0.43061 0.06428 0.56738
 C1293 C 0.43527 0.08677 0.58956
 C1294 C 0.41750 0.10318 0.60381
 H1295 H 0.34605 0.23221 0.66127
 H1296 H 0.37527 0.20319 0.63299
 H1297 H 0.33724 0.11925 0.65081
 H1298 H 0.30815 0.14828 0.67902
 H1299 H 0.39353 0.15440 0.62057
 H1300 H 0.35867 0.10315 0.61094
 H1301 H 0.37247 0.07002 0.56796
 H1302 H 0.40347 0.04131 0.54295
 H1303 H 0.45267 0.09159 0.59616
 H1304 H 0.42180 0.11968 0.62136
 C1305 C 0.33735 0.70853 0.16103
 C1306 C 0.35421 0.69274 0.14433
 C1307 C 0.35189 0.66119 0.13844
 C1308 C 0.33205 0.64577 0.14937
 C1309 C 0.31510 0.66167 0.16602
 C1310 C 0.31774 0.69311 0.17239
 C1311 C 0.37116 0.64525 0.12251
 C1312 C 0.36967 0.61733 0.10968
 C1313 C 0.38954 0.60174 0.09481
 C1314 C 0.38562 0.57948 0.07222
 C1315 C 0.40391 0.56411 0.05792
 C1316 C 0.42657 0.57048 0.06614
 C1317 C 0.43047 0.59246 0.08910
 C1318 C 0.41219 0.60780 0.10339
 H1319 H 0.33973 0.73286 0.16524
 H1320 H 0.36928 0.70521 0.13626
 H1321 H 0.32977 0.62133 0.14611
 H1322 H 0.30029 0.64912 0.17488
 H1323 H 0.38719 0.65768 0.12070
 H1324 H 0.35330 0.60582 0.10877
 H1325 H 0.36835 0.57413 0.06544
 H1326 H 0.40025 0.54725 0.04040
 H1327 H 0.44766 0.59769 0.09627
 H1328 H 0.41592 0.62392 0.12152
   
