data_POSCAR
  _audit_creation_date              2014-09-24
  _audit_creation_method            'ToBaCCo'
  _symmetry_space_group_name_H-M    'P1'
  _symmetry_Int_Tables_number       1
  _symmetry_cell_setting            triclinic
  loop_
  _symmetry_equiv_pos_as_xyz
 x,y,z
_cell_length_a 69.6623
_cell_length_b 68.6653
_cell_length_c 69.2183
_cell_angle_alpha 90.545700
_cell_angle_beta 89.697900
_cell_angle_gamma 87.676800
loop_
  _atom_site_label
  _atom_site_type_symbol
  _atom_site_fract_x
  _atom_site_fract_y
  _atom_site_fract_z
C1 C 0.10929 0.00994 0.21847
 H2 H 0.10696 0.02294 0.22726
 C3 C 0.09976 0.00819 0.20084
 H4 H 0.08983 0.01984 0.19658
 C5 C 0.12498 -0.02100 0.21381
 H6 H 0.13505 -0.03224 0.21871
 C7 C 0.11576 -0.02336 0.19613
 H8 H 0.11872 -0.03653 0.18770
 N9 N 0.12159 -0.00456 0.22461
 C10 C 0.12640 0.00076 0.28734
 H11 H 0.14186 0.00121 0.28851
 C12 C 0.11512 0.00008 0.30403
 H13 H 0.12210 0.00060 0.31792
 C14 C 0.09878 -0.00022 0.26759
 H15 H 0.09250 -0.00073 0.25337
 C16 C 0.08693 -0.00086 0.28394
 H17 H 0.07154 -0.00163 0.28214
 Zn18 Zn 0.13515 -0.00093 0.24802
 N19 N 0.11816 0.00054 0.26958
 C20 C 0.14605 0.03695 0.25898
 N21 N 0.14884 0.02229 0.24583
 C22 C 0.16066 0.02427 0.23035
 C23 C 0.17034 0.04150 0.22772
 C24 C 0.15548 0.05439 0.25700
 C25 C 0.14341 -0.03940 0.25713
 C26 C 0.15436 -0.05631 0.26107
 C27 C 0.18304 -0.03867 0.25497
 C28 C 0.17147 -0.02197 0.25136
 N29 N 0.15202 -0.02272 0.25232
 H30 H 0.13631 0.03529 0.27098
 H31 H 0.16242 0.01249 0.21992
 H32 H 0.17961 0.04271 0.21520
 H33 H 0.15270 0.06546 0.26792
 H34 H 0.12790 -0.03954 0.25783
 H35 H 0.14665 -0.06921 0.26428
 H36 H 0.19851 -0.03780 0.25396
 H37 H 0.17806 -0.00849 0.24777
 C38 C 0.09509 -0.00111 0.30244
 C39 C 0.10312 -0.00861 0.18929
 C40 C 0.17460 -0.05619 0.26007
 C41 C 0.16783 0.05701 0.24105
 C42 C 0.41123 0.00621 0.77627
 H43 H 0.41268 0.01846 0.76672
 C44 C 0.42040 0.00610 0.79415
 H45 H 0.42938 0.01804 0.79787
 C46 C 0.39732 -0.02392 0.78304
 H47 H 0.38787 -0.03533 0.77900
 C48 C 0.40633 -0.02469 0.80096
 H49 H 0.40389 -0.03683 0.81042
 N50 N 0.39970 -0.00850 0.77118
 C51 C 0.39253 -0.00773 0.70878
 H52 H 0.37721 -0.00955 0.70802
 C53 C 0.40351 -0.00865 0.69188
 H54 H 0.39628 -0.01033 0.67821
 C55 C 0.42039 -0.00370 0.72763
 H56 H 0.42704 -0.00227 0.74158
 C57 C 0.43193 -0.00442 0.71104
 H58 H 0.44732 -0.00324 0.71238
 Zn59 Zn 0.38486 -0.00623 0.74832
 N60 N 0.40102 -0.00524 0.72622
 C61 C 0.35911 0.02418 0.73491
 N62 N 0.36872 0.01681 0.75045
 C63 C 0.36794 0.02632 0.76779
 C64 C 0.35836 0.04444 0.76968
 C65 C 0.34905 0.04221 0.73622
 C66 C 0.38085 -0.04534 0.74156
 C67 C 0.37235 -0.06324 0.74021
 C68 C 0.34078 -0.04525 0.74665
 C69 C 0.35098 -0.02822 0.74776
 N70 N 0.37036 -0.02870 0.74554
 H71 H 0.35964 0.01638 0.72130
 H72 H 0.37500 0.02005 0.78023
 H73 H 0.35848 0.05190 0.78355
 H74 H 0.34224 0.04787 0.72334
 H75 H 0.39625 -0.04471 0.73983
 H76 H 0.38134 -0.07620 0.73738
 H77 H 0.32537 -0.04443 0.74879
 H78 H 0.34338 -0.01448 0.75080
 C79 C 0.42354 -0.00727 0.69293
 C80 C 0.41758 -0.00932 0.80692
 C81 C 0.35112 -0.06508 0.74299
 C82 C 0.34895 0.05285 0.75375
 C83 C 0.90446 0.51631 0.28099
 H84 H 0.90382 0.52863 0.27136
 C85 C 0.91263 0.51818 0.29930
 H86 H 0.91837 0.53207 0.30304
 C87 C 0.89666 0.48378 0.28744
 H88 H 0.88987 0.47060 0.28315
 C89 C 0.90490 0.48485 0.30569
 H90 H 0.90452 0.47219 0.31491
 N91 N 0.89646 0.49941 0.27555
 C92 C 0.88928 0.49627 0.21316
 H93 H 0.87412 0.49344 0.21298
 C94 C 0.89974 0.49585 0.19596
 H95 H 0.89239 0.49231 0.18275
 C96 C 0.91717 0.50296 0.23110
 H97 H 0.92389 0.50545 0.24490
 C98 C 0.92822 0.50279 0.21414
 H99 H 0.94344 0.50529 0.21498
 Zn100 Zn 0.88217 0.49901 0.25238
 N101 N 0.89803 0.49991 0.23024
 C102 C 0.86384 0.53365 0.23841
 N103 N 0.86475 0.52079 0.25320
 C104 C 0.85395 0.52372 0.26944
 C105 C 0.84159 0.54014 0.27128
 C106 C 0.85158 0.55020 0.23954
 C107 C 0.87959 0.45905 0.24802
 C108 C 0.87129 0.44103 0.24683
 C109 C 0.83926 0.45905 0.25021
 C110 C 0.84928 0.47612 0.25135
 N111 N 0.86876 0.47574 0.25062
 H112 H 0.87280 0.53125 0.22577
 H113 H 0.85514 0.51335 0.28109
 H114 H 0.83326 0.54220 0.28446
 H115 H 0.85158 0.55997 0.22744
 H116 H 0.89506 0.45979 0.24713
 H117 H 0.88047 0.42802 0.24510
 H118 H 0.82374 0.45994 0.25107
 H119 H 0.84131 0.48987 0.25291
 C120 C 0.91948 0.49941 0.19625
 C121 C 0.91266 0.50233 0.31220
 C122 C 0.84983 0.43920 0.24805
 C123 C 0.84025 0.55379 0.25628
 C124 C 0.60114 0.51710 0.73152
 H125 H 0.59971 0.53025 0.74024
 C126 C 0.58890 0.51455 0.71581
 H127 H 0.57787 0.52566 0.71294
 C128 C 0.61740 0.48684 0.72471
 H129 H 0.62875 0.47619 0.72786
 C130 C 0.60540 0.48363 0.70905
 H131 H 0.60760 0.47045 0.70045
 N132 N 0.61526 0.50345 0.73552
 C133 C 0.63299 0.51023 0.79562
 H134 H 0.64832 0.50823 0.79367
 C135 C 0.62536 0.51090 0.81426
 H136 H 0.63501 0.50995 0.82647
 C137 C 0.60182 0.51229 0.78216
 H138 H 0.59265 0.51219 0.76965
 C139 C 0.59354 0.51303 0.80063
 H140 H 0.57806 0.51351 0.80182
 Zn141 Zn 0.63349 0.50764 0.75548
 N142 N 0.62127 0.51102 0.77998
 C143 C 0.66210 0.53522 0.76200
 N144 N 0.64793 0.52994 0.74980
 C145 C 0.64319 0.54105 0.73423
 C146 C 0.65185 0.55875 0.73122
 C147 C 0.67128 0.55275 0.75947
 C148 C 0.64111 0.46956 0.76565
 C149 C 0.65116 0.45176 0.76756
 C150 C 0.67872 0.46593 0.75271
 C151 C 0.66809 0.48360 0.75121
 N152 N 0.64957 0.48496 0.75751
 H153 H 0.66612 0.52602 0.77398
 H154 H 0.63235 0.53650 0.72429
 H155 H 0.64733 0.56757 0.71903
 H156 H 0.68192 0.55660 0.76997
 H157 H 0.62634 0.47110 0.77053
 H158 H 0.64355 0.44016 0.77412
 H159 H 0.69338 0.46505 0.74736
 H160 H 0.67450 0.49608 0.74475
 C161 C 0.60542 0.51228 0.81702
 C162 C 0.59122 0.49773 0.70415
 C163 C 0.67029 0.44955 0.76081
 C164 C 0.66585 0.56510 0.74410
 C165 C 0.26837 0.08828 0.98046
 H166 H 0.25750 0.08981 0.96941
 C167 C 0.28510 0.07675 0.97689
 H168 H 0.28696 0.06927 0.96312
 C169 C 0.27969 0.09689 1.01147
 H170 H 0.27784 0.10501 1.02480
 C171 C 0.29648 0.08551 1.00856
 H172 H 0.30687 0.08459 1.02010
 N173 N 0.26610 0.09826 0.99745
 C174 C 0.20655 0.11607 1.00970
 H175 H 0.20916 0.13091 1.01400
 C176 C 0.18807 0.10922 1.01092
 H177 H 0.17653 0.11888 1.01629
 C178 C 0.21851 0.08569 0.99715
 H179 H 0.23044 0.07668 0.99167
 C180 C 0.20011 0.07821 0.99806
 H181 H 0.19821 0.06348 0.99302
 Zn182 Zn 0.24511 0.11651 1.00091
 N183 N 0.22127 0.10441 1.00270
 C184 C 0.22781 0.13571 0.96931
 N185 N 0.24446 0.13337 0.97933
 C186 C 0.26093 0.14115 0.97291
 C187 C 0.26119 0.15125 0.95542
 C188 C 0.22734 0.14584 0.95198
 C189 C 0.24496 0.11954 1.04063
 C190 C 0.24603 0.12806 1.05888
 C191 C 0.25339 0.15850 1.04381
 C192 C 0.25212 0.14930 1.02572
 N193 N 0.24803 0.13014 1.02452
 H194 H 0.21489 0.12921 0.97436
 H195 H 0.27406 0.13886 0.98101
 H196 H 0.27470 0.15673 0.95061
 H197 H 0.21390 0.14711 0.94417
 H198 H 0.24159 0.10435 1.03922
 H199 H 0.24346 0.11919 1.07143
 H200 H 0.25675 0.17370 1.04413
 H201 H 0.25434 0.15747 1.01267
 C202 C 0.18457 0.09014 1.00497
 C203 C 0.29965 0.07573 0.99084
 C204 C 0.25020 0.14782 1.06081
 C205 C 0.24421 0.15343 0.94446
 C206 C 0.72689 0.40155 0.97780
 H207 H 0.73748 0.40014 0.96633
 C208 C 0.71002 0.41293 0.97507
 H209 H 0.70777 0.42040 0.96150
 C210 C 0.71657 0.39296 1.00913
 H211 H 0.71896 0.38494 1.02229
 C212 C 0.69958 0.40418 1.00704
 H213 H 0.68951 0.40505 1.01898
 N214 N 0.72980 0.39176 0.99460
 C215 C 0.79076 0.37766 1.00260
 H216 H 0.78964 0.36254 1.00656
 C217 C 0.80866 0.38599 1.00232
 H218 H 0.82129 0.37717 1.00617
 C219 C 0.77560 0.40729 0.99242
 H220 H 0.76267 0.41547 0.98844
 C221 C 0.79329 0.41624 0.99190
 H222 H 0.79363 0.43119 0.98724
 Zn223 Zn 0.75167 0.37457 0.99686
 N224 N 0.77473 0.38823 0.99738
 C225 C 0.76819 0.35619 0.96377
 N226 N 0.75214 0.35763 0.97502
 C227 C 0.73582 0.34880 0.96975
 C228 C 0.73504 0.33850 0.95222
 C229 C 0.76815 0.34590 0.94633
 C230 C 0.75311 0.37140 1.03667
 C231 C 0.75300 0.36257 1.05470
 C232 C 0.74755 0.33177 1.03889
 C233 C 0.74779 0.34127 1.02108
 N234 N 0.75044 0.36076 1.02034
 H235 H 0.78095 0.36353 0.96792
 H236 H 0.72315 0.35039 0.97883
 H237 H 0.72164 0.33218 0.94838
 H238 H 0.78108 0.34535 0.93752
 H239 H 0.75537 0.38685 1.03563
 H240 H 0.75516 0.37147 1.06746
 H241 H 0.74524 0.31632 1.03883
 H242 H 0.74587 0.33308 1.00786
 C243 C 0.81016 0.40544 0.99678
 C244 C 0.69593 0.41401 0.98963
 C245 C 0.75026 0.34247 1.05614
 C246 C 0.75136 0.33722 0.94001
 C247 C 0.22873 0.90229 0.48103
 H248 H 0.23955 0.90210 0.46976
 C249 C 0.21212 0.91416 0.47930
 H250 H 0.21018 0.92313 0.46661
 C251 C 0.21813 0.89074 0.51127
 H252 H 0.22054 0.88158 0.52369
 C253 C 0.20129 0.90239 0.51014
 H254 H 0.19121 0.90229 0.52205
 N255 N 0.23149 0.89105 0.49691
 C256 C 0.29322 0.88311 0.50281
 H257 H 0.29478 0.86737 0.50298
 C258 C 0.30929 0.89435 0.50518
 H259 H 0.32312 0.88700 0.50739
 C260 C 0.27293 0.91157 0.50089
 H261 H 0.25871 0.91824 0.49962
 C262 C 0.28860 0.92337 0.50323
 H263 H 0.28632 0.93907 0.50344
 Zn264 Zn 0.25444 0.87564 0.49804
 N265 N 0.27555 0.89183 0.50042
 C266 C 0.27155 0.86182 0.46295
 N267 N 0.25618 0.86074 0.47500
 C268 C 0.24089 0.85004 0.47023
 C269 C 0.24062 0.83984 0.45271
 C270 C 0.27196 0.85178 0.44534
 C271 C 0.25599 0.86844 0.53735
 C272 C 0.25704 0.85758 0.55425
 C273 C 0.25503 0.82825 0.53491
 C274 C 0.25418 0.83973 0.51836
 N275 N 0.25453 0.85945 0.51990
 H276 H 0.28337 0.87077 0.46676
 H277 H 0.22870 0.84975 0.47997
 H278 H 0.22801 0.83182 0.44949
 H279 H 0.28432 0.85302 0.43592
 H280 H 0.25647 0.88416 0.53809
 H281 H 0.25809 0.86556 0.56767
 H282 H 0.25470 0.81255 0.53332
 H283 H 0.25338 0.83283 0.50432
 C284 C 0.30708 0.91480 0.50511
 C285 C 0.19810 0.91423 0.49389
 C286 C 0.25660 0.83705 0.55325
 C287 C 0.25633 0.84068 0.43983
 C288 C 0.77209 0.59286 0.48657
 H289 H 0.76085 0.59333 0.47585
 C290 C 0.78900 0.58157 0.48322
 H291 H 0.79064 0.57318 0.46994
 C292 C 0.78414 0.60399 0.51648
 H293 H 0.78253 0.61306 0.52923
 C294 C 0.80114 0.59291 0.51375
 H295 H 0.81195 0.59314 0.52490
 N296 N 0.77012 0.60401 0.50288
 C297 C 0.71030 0.62256 0.51244
 H298 H 0.71266 0.63800 0.51370
 C299 C 0.69188 0.61600 0.51486
 H300 H 0.68018 0.62646 0.51790
 C301 C 0.72360 0.59052 0.50684
 H302 H 0.73614 0.58118 0.50382
 C303 C 0.70577 0.58229 0.50926
 H304 H 0.70471 0.56665 0.50794
 Zn305 Zn 0.74907 0.62224 0.50548
 N306 N 0.72537 0.61009 0.50820
 C307 C 0.73238 0.63874 0.47200
 N308 N 0.74856 0.63776 0.48291
 C309 C 0.76507 0.64557 0.47661
 C310 C 0.76590 0.65425 0.45841
 C311 C 0.73245 0.64754 0.45395
 C312 C 0.74903 0.62660 0.54480
 C313 C 0.75091 0.63526 0.56288
 C314 C 0.75878 0.66523 0.54720
 C315 C 0.75670 0.65589 0.52926
 N316 N 0.75207 0.63686 0.52847
 H317 H 0.71950 0.63205 0.47683
 H318 H 0.77785 0.64430 0.48540
 H319 H 0.77943 0.65984 0.45383
 H320 H 0.71940 0.64775 0.44548
 H321 H 0.74531 0.61149 0.54372
 H322 H 0.74849 0.62660 0.57562
 H323 H 0.76269 0.68029 0.54728
 H324 H 0.75895 0.66376 0.51603
 C325 C 0.68788 0.59493 0.51340
 C326 C 0.80400 0.58202 0.49664
 C327 C 0.75588 0.65482 0.56442
 C328 C 0.74943 0.65502 0.44659
 C329 C 0.01126 0.22659 0.09372
 H330 H 0.02324 0.23602 0.09523
 C331 C 0.01335 0.20930 0.08283
 H332 H 0.02692 0.20582 0.07570
 C333 C -0.02086 0.21958 0.10156
 H334 H -0.03403 0.22318 0.10926
 C335 C -0.01948 0.20243 0.09068
 H336 H -0.03174 0.19323 0.09002
 N337 N -0.00562 0.23128 0.10297
 C338 C -0.01209 0.29282 0.11847
 H339 H -0.01570 0.29077 0.13351
 C340 C -0.01240 0.31151 0.11091
 H341 H -0.01631 0.32369 0.12042
 C342 C -0.00266 0.27910 0.08820
 H343 H 0.00107 0.26634 0.07949
 C344 C -0.00274 0.29767 0.07993
 H345 H 0.00116 0.29857 0.06487
 Zn346 Zn -0.00766 0.25302 0.12013
 N347 N -0.00714 0.27711 0.10719
 C348 C 0.02527 0.26631 0.13846
 N349 N 0.01314 0.25132 0.13774
 C350 C 0.01663 0.23493 0.14823
 C351 C 0.03292 0.23321 0.15998
 C352 C 0.04156 0.26531 0.15003
 C353 C -0.04696 0.25828 0.12137
 C354 C -0.06557 0.25876 0.12877
 C355 C -0.05275 0.24903 0.15975
 C356 C -0.03425 0.24878 0.15168
 N357 N -0.03179 0.25314 0.13274
 H358 H 0.02267 0.27902 0.12967
 H359 H 0.00699 0.22301 0.14716
 H360 H 0.03553 0.21990 0.16801
 H361 H 0.05065 0.27763 0.14965
 H362 H -0.04455 0.26182 0.10638
 H363 H -0.07738 0.26275 0.11926
 H364 H -0.05412 0.24517 0.17476
 H365 H -0.02194 0.24494 0.16050
 C366 C -0.00767 0.31434 0.09139
 C367 C -0.00216 0.19686 0.08148
 C368 C -0.06881 0.25403 0.14816
 C369 C 0.04582 0.24847 0.16097
 C370 C 0.01613 0.77914 0.39835
 H371 H 0.02903 0.76984 0.39848
 C372 C 0.01555 0.79686 0.40860
 H373 H 0.02793 0.80066 0.41697
 C374 C -0.01539 0.78564 0.38678
 H375 H -0.02730 0.78164 0.37789
 C376 C -0.01664 0.80327 0.39693
 H377 H -0.02961 0.81245 0.39584
 N378 N 0.00094 0.77409 0.38731
 C379 C 0.00335 0.71184 0.37258
 H380 H -0.00159 0.71318 0.35788
 C381 C 0.00555 0.69339 0.38065
 H382 H 0.00269 0.68070 0.37187
 C383 C 0.01205 0.72676 0.40206
 H384 H 0.01444 0.73981 0.41038
 C385 C 0.01436 0.70846 0.41080
 H386 H 0.01887 0.70775 0.42571
 Zn387 Zn 0.00266 0.75216 0.37008
 N388 N 0.00679 0.72809 0.38318
 C389 C 0.02628 0.74139 0.33802
 N390 N 0.02268 0.75545 0.35169
 C391 C 0.03307 0.77179 0.35220
 C392 C 0.04831 0.77402 0.33933
 C393 C 0.04127 0.74306 0.32476
 C394 C -0.03598 0.74401 0.36717
 C395 C -0.05412 0.74350 0.35884
 C396 C -0.04084 0.75651 0.32956
 C397 C -0.02292 0.75672 0.33849
 N398 N -0.02092 0.75072 0.35703
 H399 H 0.01755 0.72880 0.33734
 H400 H 0.02961 0.78323 0.36258
 H401 H 0.05605 0.78729 0.34031
 H402 H 0.04399 0.73147 0.31424
 H403 H -0.03390 0.73926 0.38190
 H404 H -0.06552 0.73791 0.36752
 H405 H -0.04218 0.76166 0.31486
 H406 H -0.01073 0.76209 0.33075
 C407 C 0.01102 0.69146 0.39999
 C408 C -0.00089 0.80940 0.40754
 C409 C -0.05690 0.75018 0.33980
 C410 C 0.05292 0.75927 0.32556
 C411 C 0.51438 0.27303 0.90452
 H412 H 0.52723 0.26387 0.90237
 C413 C 0.51487 0.28938 0.91660
 H414 H 0.52814 0.29269 0.92378
 C415 C 0.48164 0.28016 0.89734
 H416 H 0.46869 0.27648 0.88985
 C417 C 0.48148 0.29663 0.90932
 H418 H 0.46821 0.30520 0.91108
 N419 N 0.49801 0.26892 0.89492
 C420 C 0.49830 0.20691 0.88097
 H421 H 0.49351 0.20735 0.86615
 C422 C 0.50064 0.18900 0.89018
 H423 H 0.49800 0.17573 0.88223
 C424 C 0.50736 0.22360 0.90941
 H425 H 0.50976 0.23705 0.91701
 C426 C 0.51032 0.20597 0.91903
 H427 H 0.51505 0.20601 0.93391
 Zn428 Zn 0.49833 0.24772 0.87717
 N429 N 0.50164 0.22380 0.89063
 C430 C 0.52569 0.23455 0.84894
 N431 N 0.51920 0.25019 0.85964
 C432 C 0.52847 0.26724 0.85929
 C433 C 0.54573 0.26853 0.84918
 C434 C 0.54283 0.23523 0.83843
 C435 C 0.46075 0.23616 0.86888
 C436 C 0.44293 0.23712 0.85977
 C437 C 0.45393 0.26366 0.84048
 C438 C 0.47167 0.26197 0.84981
 N439 N 0.47475 0.24832 0.86365
 H440 H 0.51803 0.22122 0.84911
 H441 H 0.52279 0.27978 0.86729
 H442 H 0.55318 0.28207 0.84976
 H443 H 0.54787 0.22215 0.83090
 H444 H 0.46317 0.22601 0.88052
 H445 H 0.43214 0.22749 0.86479
 H446 H 0.45176 0.27474 0.82958
 H447 H 0.48291 0.27176 0.84624
 C448 C 0.50674 0.18847 0.90945
 C449 C 0.49842 0.30165 0.91875
 C450 C 0.43926 0.25103 0.84525
 C451 C 0.55347 0.25227 0.83894
 C452 C 0.51915 0.73302 0.60022
 H453 H 0.53019 0.74365 0.59987
 C454 C 0.52134 0.71584 0.58923
 H455 H 0.53407 0.71341 0.58033
 C456 C 0.48945 0.72300 0.61264
 H457 H 0.47712 0.72563 0.62194
 C458 C 0.49101 0.70572 0.60185
 H459 H 0.47940 0.69579 0.60269
 N460 N 0.50338 0.73628 0.61166
 C461 C 0.49223 0.79827 0.62282
 H462 H 0.48916 0.79736 0.63811
 C463 C 0.49039 0.81619 0.61360
 H464 H 0.48581 0.82901 0.62193
 C465 C 0.50222 0.78265 0.59359
 H466 H 0.50677 0.76951 0.58586
 C467 C 0.50068 0.80039 0.58377
 H468 H 0.50389 0.80048 0.56849
 Zn469 Zn 0.50155 0.75901 0.62769
 N470 N 0.49835 0.78201 0.61286
 C471 C 0.53435 0.77719 0.64192
 N472 N 0.52475 0.76034 0.64198
 C473 C 0.53243 0.74405 0.65047
 C474 C 0.55069 0.74417 0.65887
 C475 C 0.55243 0.77806 0.65035
 C476 C 0.46234 0.76046 0.63515
 C477 C 0.44528 0.76119 0.64582
 C478 C 0.46396 0.75724 0.67490
 C479 C 0.48073 0.75661 0.66359
 N480 N 0.47960 0.75820 0.64407
 H481 H 0.52827 0.78996 0.63493
 H482 H 0.52462 0.73075 0.65014
 H483 H 0.55633 0.73079 0.66511
 H484 H 0.55978 0.79167 0.64982
 H485 H 0.46186 0.76182 0.61960
 H486 H 0.43207 0.76271 0.63782
 H487 H 0.46522 0.75601 0.69044
 H488 H 0.49463 0.75502 0.67042
 C489 C 0.49497 0.81754 0.59394
 C490 C 0.50732 0.70175 0.59017
 C491 C 0.44581 0.75978 0.66615
 C492 C 0.56115 0.76137 0.65866
 C493 C 0.92291 1.00157 0.72423
 H494 H 0.93063 1.00248 0.73767
 C495 C 0.93227 1.00348 0.70745
 H496 H 0.94752 1.00602 0.70759
 C497 C 0.89327 0.99621 0.70833
 H498 H 0.87802 0.99385 0.70881
 C499 C 0.90298 0.99812 0.68952
 H500 H 0.89435 0.99639 0.67678
 N501 N 0.90262 0.99848 0.72437
 C502 C 0.90191 0.98300 0.78340
 H503 H 0.89267 0.97110 0.78039
 C504 C 0.91162 0.98325 0.79999
 H505 H 0.91029 0.97108 0.80960
 C506 C 0.91460 1.01294 0.77308
 H507 H 0.91519 1.02471 0.76285
 C508 C 0.92592 1.01365 0.79106
 H509 H 0.93492 1.02595 0.79347
 Zn510 Zn 0.88779 0.99857 0.74744
 N511 N 0.90352 0.99848 0.76972
 C512 C 0.88359 0.95874 0.74383
 N513 N 0.87339 0.97574 0.74710
 C514 C 0.85404 0.97603 0.74991
 C515 C 0.84428 0.95860 0.75006
 C516 C 0.87446 0.94105 0.74377
 C517 C 0.87224 1.03440 0.73363
 C518 C 0.86139 1.05190 0.73440
 C519 C 0.84974 1.04298 0.76589
 C520 C 0.86075 1.02552 0.76441
 N521 N 0.87165 1.02152 0.74840
 H522 H 0.89894 0.95896 0.74147
 H523 H 0.84616 0.98975 0.75214
 H524 H 0.82892 0.95949 0.75230
 H525 H 0.88302 0.92772 0.74128
 H526 H 0.88149 1.03142 0.72132
 H527 H 0.86284 1.06178 0.72250
 H528 H 0.84126 1.04589 0.77884
 H529 H 0.86084 1.01525 0.77617
 C530 C 0.92425 0.99970 0.80446
 C531 C 0.92176 1.00228 0.68886
 C532 C 0.84983 1.05649 0.75072
 C533 C 0.85457 0.94066 0.74715
 C534 C 0.41994 0.48106 0.23260
 H535 H 0.42170 0.46858 0.24194
 C536 C 0.43204 0.48281 0.21655
 H537 H 0.44311 0.47163 0.21363
 C538 C 0.40304 0.51047 0.22462
 H539 H 0.39160 0.52118 0.22756
 C540 C 0.41486 0.51287 0.20858
 H541 H 0.41258 0.52573 0.19987
 N542 N 0.40539 0.49452 0.23601
 C543 C 0.38590 0.48535 0.29554
 H544 H 0.37068 0.48475 0.29311
 C545 C 0.39278 0.48443 0.31437
 H546 H 0.38272 0.48278 0.32618
 C547 C 0.41730 0.48924 0.28331
 H548 H 0.42676 0.49150 0.27119
 C549 C 0.42481 0.48859 0.30205
 H550 H 0.44011 0.48981 0.30395
 Zn551 Zn 0.38664 0.49107 0.25574
 N552 N 0.39810 0.48773 0.28043
 C553 C 0.37804 0.45563 0.23648
 N554 N 0.37163 0.46908 0.24982
 C555 C 0.35505 0.46658 0.25979
 C556 C 0.34482 0.44965 0.25734
 C557 C 0.36829 0.43848 0.23355
 C558 C 0.37877 0.52922 0.26709
 C559 C 0.36924 0.54742 0.26793
 C560 C 0.34375 0.53449 0.24870
 C561 C 0.35381 0.51641 0.24832
 N562 N 0.37103 0.51420 0.25736
 H563 H 0.39097 0.45785 0.22833
 H564 H 0.34974 0.47770 0.26983
 H565 H 0.33204 0.44825 0.26600
 H566 H 0.37402 0.42783 0.22316
 H567 H 0.39263 0.52715 0.27390
 H568 H 0.37590 0.55916 0.27564
 H569 H 0.33014 0.53566 0.24132
 H570 H 0.34809 0.50429 0.24044
 C571 C 0.41237 0.48640 0.31790
 C572 C 0.42916 0.49855 0.20396
 C573 C 0.35161 0.55046 0.25845
 C574 C 0.35160 0.43501 0.24427
 C575 C 0.59012 1.01891 0.27509
 H576 H 0.58861 1.03118 0.26545
 C577 C 0.58063 1.01919 0.29197
 H578 H 0.57112 1.03159 0.29531
 C579 C 0.60442 0.98739 0.28090
 H580 H 0.61452 0.97556 0.27733
 C581 C 0.59369 0.98670 0.29923
 H582 H 0.59596 0.97401 0.30827
 N583 N 0.60317 1.00284 0.27015
 C584 C 0.62034 1.00453 0.20959
 H585 H 0.63554 1.00144 0.21136
 C586 C 0.61273 1.00516 0.19107
 H587 H 0.62224 1.00314 0.17872
 C588 C 0.58936 1.00960 0.22347
 H589 H 0.58032 1.01116 0.23616
 C590 C 0.58104 1.01003 0.20509
 H591 H 0.56564 1.01230 0.20380
 Zn592 Zn 0.62110 1.00519 0.24960
 N593 N 0.60874 1.00706 0.22534
 C594 C 0.62940 0.96629 0.24139
 N595 N 0.63723 0.98260 0.24857
 C596 C 0.65566 0.98246 0.25487
 C597 C 0.66687 0.96513 0.25453
 C598 C 0.64004 0.94870 0.24073
 C599 C 0.63305 1.03866 0.27005
 C600 C 0.64253 1.05602 0.27239
 C601 C 0.65901 1.04946 0.24212
 C602 C 0.64907 1.03231 0.24032
 N603 N 0.63596 1.02748 0.25388
 H604 H 0.61472 0.96696 0.23632
 H605 H 0.66155 0.99568 0.26049
 H606 H 0.68145 0.96523 0.25990
 H607 H 0.63315 0.93627 0.23469
 H608 H 0.62324 1.03432 0.28115
 H609 H 0.63954 1.06492 0.28515
 H610 H 0.66871 1.05295 0.23056
 H611 H 0.65172 1.02305 0.22787
 C612 C 0.59288 1.00777 0.18864
 C613 C 0.58313 1.00241 0.30538
 C614 C 0.65551 1.06187 0.25820
 C615 C 0.65903 0.94779 0.24772
 C616 C 0.09942 0.48259 0.77457
 H617 H 0.09900 0.47018 0.76484
 C618 C 0.08912 0.48265 0.79195
 H619 H 0.08077 0.47021 0.79557
 C620 C 0.11063 0.51399 0.78157
 H621 H 0.11900 0.52620 0.77751
 C622 C 0.10066 0.51461 0.79911
 H623 H 0.10121 0.52758 0.80805
 N624 N 0.10959 0.49828 0.76955
 C625 C 0.11088 0.49783 0.70670
 H626 H 0.12604 0.49978 0.70429
 C627 C 0.09864 0.49586 0.69099
 H628 H 0.10450 0.49673 0.67654
 C629 C 0.08491 0.49499 0.72859
 H630 H 0.07956 0.49485 0.74325
 C631 C 0.07211 0.49307 0.71328
 H632 H 0.05701 0.49128 0.71628
 Zn633 Zn 0.12219 0.49807 0.74523
 N634 N 0.10399 0.49680 0.72505
 C635 C 0.13679 0.46214 0.72993
 N636 N 0.13938 0.47585 0.74386
 C637 C 0.15353 0.47346 0.75719
 C638 C 0.16593 0.45691 0.75659
 C639 C 0.14880 0.44543 0.72876
 C640 C 0.12393 0.53804 0.74033
 C641 C 0.13216 0.55609 0.73836
 C642 C 0.16356 0.53988 0.73943
 C643 C 0.15467 0.52208 0.74128
 N644 N 0.13519 0.52154 0.74205
 H645 H 0.12521 0.46393 0.71973
 H646 H 0.15512 0.48439 0.76837
 H647 H 0.17707 0.45534 0.76739
 H648 H 0.14615 0.43527 0.71720
 H649 H 0.10846 0.53716 0.74072
 H650 H 0.12280 0.56903 0.73726
 H651 H 0.17906 0.53960 0.73882
 H652 H 0.16338 0.50875 0.74216
 C653 C 0.07903 0.49296 0.69423
 C654 C 0.08966 0.49880 0.80446
 C655 C 0.15224 0.55735 0.73820
 C656 C 0.16365 0.44244 0.74232
 C657 C 0.77797 0.89982 0.01198
 H658 H 0.76489 0.90883 0.01233
 C659 C 0.79576 0.90859 0.01227
 H660 H 0.79605 0.92430 0.01333
 C661 C 0.79338 0.86845 0.01028
 H662 H 0.79229 0.85280 0.00929
 C663 C 0.81141 0.87657 0.01064
 H664 H 0.82419 0.86705 0.01004
 N665 N 0.77712 0.88007 0.01110
 C666 C 0.72032 0.88670 -0.00621
 H667 H 0.72320 0.87764 -0.01881
 C668 C 0.70384 0.89899 -0.00561
 H669 H 0.69464 0.89957 -0.01814
 C670 C 0.72894 0.89687 0.02526
 H671 H 0.73868 0.89570 0.03736
 C672 C 0.71263 0.90937 0.02646
 H673 H 0.70993 0.91789 0.03952
 Zn674 Zn 0.75347 0.86744 0.00948
 N675 N 0.73241 0.88577 0.00915
 C676 C 0.73325 0.84196 0.03285
 N677 N 0.74999 0.85135 0.03123
 C678 C 0.76339 0.85031 0.04541
 C679 C 0.76025 0.83952 0.06204
 C680 C 0.72949 0.83097 0.04924
 C681 C 0.75903 0.86215 -0.03000
 C682 C 0.76094 0.85224 -0.04763
 C683 C 0.75340 0.82251 -0.03137
 C684 C 0.75179 0.83302 -0.01400
 N685 N 0.75446 0.85252 -0.01367
 H686 H 0.72268 0.84326 0.02149
 H687 H 0.77645 0.85814 0.04406
 H688 H 0.77148 0.83909 0.07270
 H689 H 0.71596 0.82379 0.05023
 H690 H 0.76130 0.87764 -0.02926
 H691 H 0.76446 0.86073 -0.06009
 H692 H 0.75115 0.80699 -0.03126
 H693 H 0.74855 0.82553 -0.00080
 C694 C 0.69961 0.91023 0.01109
 C695 C 0.81279 0.89687 0.01147
 C696 C 0.75814 0.83200 -0.04858
 C697 C 0.74290 0.82981 0.06435
 C698 C 0.28270 0.39358 0.51506
 H699 H 0.27260 0.39691 0.52667
 C700 C 0.30037 0.40259 0.51460
 H701 H 0.30375 0.41277 0.52599
 C702 C 0.29101 0.37534 0.48680
 H703 H 0.28760 0.36438 0.47622
 C704 C 0.30884 0.38377 0.48592
 H705 H 0.31886 0.37938 0.47452
 N706 N 0.27829 0.38040 0.50114
 C707 C 0.21597 0.37650 0.49986
 H708 H 0.21538 0.36080 0.49885
 C709 C 0.19905 0.38802 0.49946
 H710 H 0.18560 0.38090 0.49771
 C711 C 0.23459 0.40452 0.50237
 H712 H 0.24847 0.41090 0.50326
 C713 C 0.21796 0.41663 0.50206
 H714 H 0.21919 0.43229 0.50287
 Zn715 Zn 0.25490 0.36727 0.50247
 N716 N 0.23325 0.38481 0.50167
 C717 C 0.23987 0.35585 0.53847
 N718 N 0.25470 0.35306 0.52577
 C719 C 0.27009 0.34110 0.53003
 C720 C 0.27092 0.33133 0.54764
 C721 C 0.23996 0.34620 0.55611
 C722 C 0.25079 0.35998 0.46360
 C723 C 0.25020 0.34945 0.44634
 C724 C 0.25407 0.31972 0.46456
 C725 C 0.25454 0.33092 0.48155
 N726 N 0.25326 0.35069 0.48067
 H727 H 0.22804 0.36588 0.53518
 H728 H 0.28187 0.33941 0.51983
 H729 H 0.28342 0.32201 0.55079
 H730 H 0.22806 0.34931 0.56587
 H731 H 0.24948 0.37574 0.46341
 H732 H 0.24794 0.35768 0.43330
 H733 H 0.25543 0.30398 0.46553
 H734 H 0.25620 0.32382 0.49534
 C735 C 0.19988 0.40839 0.50097
 C736 C 0.31367 0.39764 0.49983
 C737 C 0.25229 0.32892 0.44652
 C738 C 0.25568 0.33366 0.56099
 C739 C 0.21726 0.59748 0.01045
 H740 H 0.22763 0.59452 0.02173
 C741 C 0.19964 0.58838 0.01069
 H742 H 0.19701 0.57851 0.02238
 C743 C 0.20827 0.61495 -0.01761
 H744 H 0.21139 0.62567 -0.02836
 C745 C 0.19047 0.60643 -0.01783
 H746 H 0.18036 0.61061 -0.02906
 N747 N 0.22132 0.61031 -0.00370
 C748 C 0.28359 0.61527 -0.00594
 H749 H 0.28377 0.63090 -0.00771
 C750 C 0.30083 0.60432 -0.00504
 H751 H 0.31418 0.61167 -0.00665
 C752 C 0.26574 0.58688 -0.00221
 H753 H 0.25203 0.58015 -0.00116
 C754 C 0.28271 0.57532 -0.00127
 H755 H 0.28194 0.55973 0.00061
 Zn756 Zn 0.24458 0.62373 -0.00311
 N757 N 0.26653 0.60655 -0.00394
 C758 C 0.25945 0.63550 0.03278
 N759 N 0.24483 0.63855 0.02009
 C760 C 0.22972 0.65100 0.02443
 C761 C 0.22898 0.66099 0.04214
 C762 C 0.25942 0.64530 0.05049
 C763 C 0.24756 0.63005 -0.04225
 C764 C 0.24791 0.64025 -0.05954
 C765 C 0.24561 0.67036 -0.04117
 C766 C 0.24523 0.65950 -0.02418
 N767 N 0.24589 0.63971 -0.02509
 H768 H 0.27101 0.62506 0.02947
 H769 H 0.21807 0.65288 0.01426
 H770 H 0.21669 0.67068 0.04538
 H771 H 0.27111 0.64187 0.06023
 H772 H 0.24832 0.61428 -0.04248
 H773 H 0.24919 0.63169 -0.07265
 H774 H 0.24482 0.68613 -0.04013
 H775 H 0.24422 0.66689 -0.01034
 C776 C 0.30052 0.58413 -0.00208
 C777 C 0.18579 0.59287 -0.00363
 C778 C 0.24667 0.66082 -0.05928
 C779 C 0.24398 0.65830 0.05550
 C780 C 0.71937 0.09553 0.50876
 H781 H 0.73007 0.09368 0.51993
 C782 C 0.70283 0.08466 0.50921
 H783 H 0.70088 0.07434 0.52072
 C784 C 0.70861 0.11155 0.48040
 H785 H 0.71071 0.12220 0.46931
 C786 C 0.69187 0.10110 0.48035
 H787 H 0.68164 0.10352 0.46884
 N788 N 0.72198 0.10859 0.49443
 C789 C 0.78324 0.11836 0.48955
 H790 H 0.78256 0.13412 0.48906
 C791 C 0.80090 0.10821 0.48772
 H792 H 0.81361 0.11644 0.48546
 C793 C 0.76707 0.08880 0.49214
 H794 H 0.75383 0.08128 0.49363
 C795 C 0.78447 0.07804 0.49040
 H796 H 0.78448 0.06227 0.49076
 Zn797 Zn 0.74387 0.12406 0.49482
 N798 N 0.76683 0.10861 0.49208
 C799 C 0.75942 0.13666 0.53029
 N800 N 0.74382 0.13783 0.51859
 C801 C 0.72750 0.14795 0.52409
 C802 C 0.72650 0.15756 0.54197
 C803 C 0.75915 0.14620 0.54818
 C804 C 0.74536 0.13315 0.45604
 C805 C 0.74418 0.14454 0.43951
 C806 C 0.73838 0.17296 0.45991
 C807 C 0.73971 0.16094 0.47608
 N808 N 0.74280 0.14138 0.47381
 H809 H 0.77206 0.12808 0.52596
 H810 H 0.71517 0.14836 0.51465
 H811 H 0.71329 0.16544 0.54608
 H812 H 0.77174 0.14445 0.55712
 H813 H 0.74813 0.11757 0.45473
 H814 H 0.74652 0.13717 0.42583
 H815 H 0.73563 0.18848 0.46204
 H816 H 0.73806 0.16724 0.49038
 C817 C 0.80171 0.08774 0.48855
 C818 C 0.68871 0.08763 0.49505
 C819 C 0.74027 0.16483 0.44121
 C820 C 0.74248 0.15691 0.55431
 C821 C 0.98226 0.72304 0.89148
 H822 H 0.96953 0.73260 0.89114
 C823 C 0.98177 0.70590 0.90049
 H824 H 0.96858 0.70179 0.90743
 C825 C 1.01503 0.71747 0.88215
 H826 H 1.02789 0.72179 0.87487
 C827 C 1.01524 0.69855 0.89207
 H828 H 1.02835 0.68963 0.89130
 N829 N 0.99958 0.72881 0.88210
 C830 C 0.99966 0.79342 0.88114
 H831 H 1.00542 0.79558 0.86683
 C832 C 0.99657 0.80876 0.89294
 H833 H 1.00003 0.82294 0.88765
 C834 C 0.99108 0.77091 0.90537
 H835 H 0.98912 0.75627 0.91028
 C836 C 0.98757 0.78738 0.91900
 H837 H 0.98287 0.78428 0.93357
 Zn838 Zn 1.00017 0.75332 0.86935
 N839 N 0.99620 0.77404 0.88758
 C840 C 0.97764 0.77220 0.84043
 N841 N 0.98055 0.75519 0.85011
 C842 C 0.96896 0.74001 0.84701
 C843 C 0.95301 0.74205 0.83490
 C844 C 0.96189 0.77489 0.82817
 C845 C 1.03946 0.75983 0.87015
 C846 C 1.05830 0.75993 0.86322
 C847 C 1.04667 0.75190 0.83142
 C848 C 1.02799 0.75203 0.83900
 N849 N 1.02482 0.75567 0.85811
 H850 H 0.98727 0.78393 0.84253
 H851 H 0.97182 0.72631 0.85417
 H852 H 0.94423 0.72958 0.83313
 H853 H 0.95964 0.78883 0.82114
 H854 H 1.03654 0.76257 0.88532
 H855 H 1.06972 0.76295 0.87325
 H856 H 1.04849 0.74885 0.81618
 H857 H 1.01608 0.74872 0.82973
 C858 C 0.98962 0.80581 0.91309
 C859 C 0.99926 0.69279 0.90112
 C860 C 1.06231 0.75552 0.84369
 C861 C 0.94884 0.75999 0.82571
 C862 C 0.47605 0.23235 0.39041
 H863 H 0.46591 0.24463 0.39109
 C864 C 0.47318 0.21622 0.40210
 H865 H 0.46102 0.21641 0.41193
 C866 C 0.50338 0.21646 0.37599
 H867 H 0.51465 0.21607 0.36526
 C868 C 0.50117 0.20015 0.38755
 H869 H 0.51090 0.18761 0.38551
 N870 N 0.49102 0.23228 0.37766
 C871 C 0.51208 0.28804 0.37210
 H872 H 0.52342 0.28287 0.36247
 C873 C 0.51398 0.30576 0.38180
 H874 H 0.52693 0.31373 0.37974
 C875 C 0.48118 0.28469 0.38570
 H876 H 0.46810 0.27685 0.38659
 C877 C 0.48247 0.30241 0.39567
 H878 H 0.47027 0.30775 0.40418
 Zn879 Zn 0.49357 0.25370 0.36046
 N880 N 0.49600 0.27765 0.37441
 C881 C 0.46684 0.27293 0.33591
 N882 N 0.47121 0.25592 0.34506
 C883 C 0.45938 0.24070 0.34405
 C884 C 0.44207 0.24241 0.33403
 C885 C 0.44965 0.27531 0.32570
 C886 C 0.53296 0.24652 0.35343
 C887 C 0.54968 0.24264 0.34269
 C888 C 0.53068 0.24386 0.31362
 C889 C 0.51426 0.24767 0.32500
 N890 N 0.51568 0.24890 0.34455
 H891 H 0.47655 0.28480 0.33688
 H892 H 0.46330 0.22717 0.35115
 H893 H 0.43331 0.22981 0.33363
 H894 H 0.44634 0.28914 0.31881
 H895 H 0.53372 0.24764 0.36901
 H896 H 0.56299 0.24130 0.35056
 H897 H 0.52917 0.24295 0.29807
 H898 H 0.50038 0.24960 0.31819
 C899 C 0.49918 0.31310 0.39393
 C900 C 0.48590 0.19993 0.40085
 C901 C 0.54877 0.24108 0.32238
 C902 C 0.43670 0.26011 0.32494
 C903 C 0.98882 0.28117 0.60169
 H904 H 0.97865 0.27027 0.59796
 C905 C 0.98897 0.29865 0.59135
 H906 H 0.97875 0.30063 0.57978
 C907 C 1.01358 0.29173 0.62203
 H908 H 1.02286 0.28935 0.63428
 C909 C 1.01411 0.30938 0.61232
 H910 H 1.02412 0.32003 0.61722
 N911 N 1.00122 0.27792 0.61655
 C912 C 1.00699 0.21507 0.62686
 H913 H 1.00744 0.21604 0.64246
 C914 C 1.00905 0.19693 0.61773
 H915 H 1.01113 0.18399 0.62643
 C916 C 1.00372 0.23085 0.59670
 H917 H 1.00189 0.24413 0.58856
 C918 C 1.00556 0.21287 0.58693
 H919 H 1.00526 0.21263 0.57131
 Zn920 Zn 1.00089 0.25470 0.63150
 N921 N 1.00413 0.23155 0.61636
 C922 C 0.96546 0.23918 0.64208
 N923 N 0.97719 0.25423 0.64513
 C924 C 0.97227 0.26880 0.65787
 C925 C 0.95530 0.26816 0.66869
 C926 C 0.94832 0.23801 0.65243
 C927 C 1.03958 0.25371 0.64081
 C928 C 1.05595 0.25442 0.65226
 C929 C 1.03549 0.25585 0.68056
 C930 C 1.01948 0.25515 0.66850
 N931 N 1.02180 0.25455 0.64898
 H932 H 0.96939 0.22789 0.63166
 H933 H 0.98173 0.28077 0.65986
 H934 H 0.95185 0.27979 0.67897
 H935 H 0.93986 0.22544 0.64981
 H936 H 1.04100 0.25278 0.62525
 H937 H 1.06966 0.25356 0.64494
 H938 H 1.03327 0.25662 0.69606
 H939 H 1.00527 0.25521 0.67479
 C940 C 1.00804 0.19558 0.59756
 C941 C 1.00182 0.31319 0.59664
 C942 C 1.05410 0.25594 0.67255
 C943 C 0.94297 0.25262 0.66612
 C944 C 0.50595 0.77455 0.10294
 H945 H 0.50859 0.76145 0.09446
 C946 C 0.50630 0.79267 0.09392
 H947 H 0.50976 0.79315 0.07869
 C948 C 0.49815 0.78982 0.13295
 H949 H 0.49416 0.78863 0.14798
 C950 C 0.49848 0.80817 0.12458
 H951 H 0.49523 0.82102 0.13340
 N952 N 0.50207 0.77346 0.12218
 C953 C 0.48424 0.71711 0.11631
 H954 H 0.47200 0.72050 0.12555
 C955 C 0.48396 0.70090 0.10407
 H956 H 0.47126 0.69233 0.10379
 C957 C 0.51545 0.72423 0.10536
 H958 H 0.52781 0.73323 0.10622
 C959 C 0.51574 0.70815 0.09282
 H960 H 0.52832 0.70490 0.08392
 Zn961 Zn 0.50011 0.74929 0.13498
 N962 N 0.49987 0.72835 0.11687
 C963 C 0.47398 0.74268 0.16615
 N964 N 0.47641 0.75044 0.14836
 C965 C 0.46139 0.75863 0.13850
 C966 C 0.44296 0.75912 0.14637
 C967 C 0.45562 0.74263 0.17455
 C968 C 0.52698 0.76028 0.16338
 C969 C 0.54428 0.75875 0.17348
 C970 C 0.54899 0.72589 0.16122
 C971 C 0.53166 0.72812 0.15127
 N972 N 0.52133 0.74535 0.15199
 H973 H 0.48621 0.73619 0.17363
 H974 H 0.46372 0.76451 0.12427
 H975 H 0.43126 0.76562 0.13805
 H976 H 0.45421 0.73632 0.18869
 H977 H 0.51848 0.77372 0.16418
 H978 H 0.54832 0.77128 0.18180
 H979 H 0.55721 0.71219 0.15988
 H980 H 0.52678 0.71620 0.14255
 C981 C 0.50002 0.69605 0.09238
 C982 C 0.50239 0.80976 0.10482
 C983 C 0.55595 0.74151 0.17204
 C984 C 0.43969 0.75075 0.16446
 O985 O -0.01405 0.99167 0.94913
 O986 O 0.01985 0.99761 0.95019
 O987 O -0.01897 0.94621 0.99059
 O988 O -0.01058 0.94385 1.02529
 O989 O -0.05922 0.99539 0.99215
 O990 O -0.05728 1.02862 1.00302
 O991 O 0.03196 0.99147 1.04735
 O992 O 0.03161 0.96089 1.03297
 O993 O 0.04044 1.03202 1.00408
 O994 O 0.02420 1.03915 0.97232
 O995 O -0.00552 1.04103 1.04362
 O996 O -0.03811 1.02695 1.04642
 O997 O 0.00586 1.00884 1.05914
 O998 O -0.02842 1.00267 1.05959
 O999 O 0.01128 1.05205 1.01799
 O1000 O 0.00298 1.05578 0.98455
 O1001 O 0.04958 1.00378 1.01898
 O1002 O 0.04809 0.97155 1.00398
 O1003 O -0.04033 1.00827 0.96152
 O1004 O -0.04269 1.03859 0.97874
 O1005 O -0.04940 0.96660 1.00562
 O1006 O -0.03451 0.95899 1.03525
 O1007 O -0.00273 0.95808 0.96493
 O1008 O 0.02837 0.97105 0.96223
 Zr1009 Zr 0.00375 0.98646 0.97326
 O1010 O 0.02274 1.00112 0.99131
 Zr1011 Zr -0.01993 0.96953 1.01087
 O1012 O -0.00218 0.98393 1.03046
 Zr1013 Zr -0.03415 1.01156 0.99104
 O1014 O -0.01674 1.02768 1.00954
 Zr1015 Zr 0.02502 0.98712 1.01809
 O1016 O 0.00794 0.97071 0.99910
 Zr1017 Zr 0.01109 1.02906 0.99779
 O1018 O -0.00713 1.01514 0.97802
 Zr1019 Zr -0.01279 1.01258 1.03554
 O1020 O -0.03200 0.99741 1.01782
 O1021 O -0.02365 0.98350 0.98462
 O1022 O 0.01473 1.01544 1.02434
 C1023 C -0.03067 1.00037 0.94746
 C1024 C -0.01147 0.94456 0.97359
 C1025 C -0.06237 0.97830 0.99856
 C1026 C 0.02255 1.00045 1.06103
 C1027 C 0.05296 1.02069 1.01237
 C1028 C 0.00387 1.05412 1.03494
 H1029 H 0.03540 1.00144 0.98481
 H1030 H -0.02282 1.04078 1.01166
 H1031 H -0.03222 0.97646 0.97585
 H1032 H -0.00115 0.97635 1.04252
 H1033 H 0.02950 0.95008 1.02379
 H1034 H 0.00063 0.93822 1.01804
 H1035 H -0.01006 1.05966 0.98925
 H1036 H -0.03191 1.04242 0.97041
 H1037 H 0.05880 0.97001 1.01330
 H1038 H 0.03246 0.96161 0.97226
 H1039 H -0.04045 1.03893 1.03882
 H1040 H -0.06014 1.02294 1.01576
 H1041 H 0.01503 1.01121 0.94825
 H1042 H 0.03510 1.03001 0.96902
 H1043 H -0.04180 0.97032 1.04097
 H1044 H -0.02365 0.98924 1.06239
 O1045 O 0.48290 0.44463 0.50232
 O1046 O 0.48791 0.44471 0.53637
 O1047 O 0.44344 0.49308 0.49422
 O1048 O 0.44350 0.52686 0.50204
 O1049 O 0.49452 0.48679 0.45804
 O1050 O 0.52756 0.49295 0.46322
 O1051 O 0.48885 0.54295 0.54995
 O1052 O 0.45717 0.52976 0.54896
 O1053 O 0.52608 0.49513 0.56109
 O1054 O 0.53056 0.46217 0.54651
 O1055 O 0.53979 0.53308 0.51678
 O1056 O 0.52866 0.53794 0.48374
 O1057 O 0.50839 0.55295 0.52585
 O1058 O 0.50440 0.55314 0.49011
 O1059 O 0.54819 0.50442 0.53346
 O1060 O 0.54767 0.46999 0.52460
 O1061 O 0.49904 0.51340 0.56830
 O1062 O 0.46535 0.50197 0.56357
 O1063 O 0.50285 0.45461 0.47713
 O1064 O 0.53443 0.46761 0.47902
 O1065 O 0.46669 0.50389 0.46515
 O1066 O 0.46174 0.53552 0.48013
 O1067 O 0.45139 0.46589 0.51141
 O1068 O 0.46287 0.46098 0.54366
 Zr1069 Zr 0.47987 0.46959 0.52008
 O1070 O 0.49487 0.48550 0.54087
 Zr1071 Zr 0.46837 0.50946 0.49514
 O1072 O 0.48273 0.52712 0.51499
 Zr1073 Zr 0.50841 0.48362 0.48472
 O1074 O 0.52456 0.50032 0.50390
 Zr1075 Zr 0.48332 0.51413 0.54237
 O1076 O 0.46679 0.49767 0.52307
 Zr1077 Zr 0.52336 0.48823 0.53160
 O1078 O 0.50896 0.47018 0.51189
 Zr1079 Zr 0.51175 0.52847 0.50708
 O1080 O 0.49693 0.51247 0.48589
 O1081 O 0.47977 0.48114 0.49245
 O1082 O 0.51215 0.51672 0.53469
 C1083 C 0.49246 0.44061 0.48556
 C1084 C 0.43948 0.47668 0.50174
 C1085 C 0.47847 0.49515 0.45325
 C1086 C 0.49888 0.55578 0.54170
 C1087 C 0.51524 0.50519 0.57283
 C1088 C 0.55296 0.52200 0.52663
 H1089 H 0.49399 0.47911 0.55357
 H1090 H 0.53789 0.50066 0.49899
 H1091 H 0.47251 0.47330 0.48314
 H1092 H 0.47630 0.54020 0.51537
 H1093 H 0.45519 0.54009 0.53924
 H1094 H 0.43928 0.52281 0.51502
 H1095 H 0.55349 0.47507 0.51270
 H1096 H 0.53592 0.45780 0.48935
 H1097 H 0.46638 0.50950 0.57580
 H1098 H 0.45376 0.47205 0.54666
 H1099 H 0.53896 0.52787 0.48132
 H1100 H 0.52355 0.50658 0.46021
 H1101 H 0.50155 0.44146 0.53320
 H1102 H 0.52019 0.45990 0.55593
 H1103 H 0.47348 0.53869 0.47289
 H1104 H 0.49172 0.55850 0.49456
 O1105 O 0.45787 -0.03278 0.48594
 O1106 O 0.47396 -0.03147 0.45561
 O1107 O 0.50373 -0.04028 0.52582
 O1108 O 0.53210 -0.02188 0.53309
 O1109 O 0.45839 0.00195 0.53768
 O1110 O 0.45050 0.03371 0.52632
 O1111 O 0.54776 0.02358 0.48435
 O1112 O 0.55287 -0.00846 0.49125
 O1113 O 0.50337 0.02817 0.44349
 O1114 O 0.47116 0.01625 0.44118
 O1115 O 0.50174 0.06369 0.49273
 O1116 O 0.49192 0.05912 0.52661
 O1117 O 0.53312 0.04708 0.50335
 O1118 O 0.51645 0.04560 0.53536
 O1119 O 0.48752 0.05476 0.46470
 O1120 O 0.45771 0.03617 0.45855
 O1121 O 0.53195 0.01418 0.45284
 O1122 O 0.53703 -0.02001 0.46263
 O1123 O 0.44284 -0.00924 0.50459
 O1124 O 0.43848 0.02551 0.49987
 O1125 O 0.48677 -0.01199 0.54772
 O1126 O 0.51877 -0.00043 0.54935
 O1127 O 0.49085 -0.04956 0.49721
 O1128 O 0.50031 -0.04396 0.46406
 Zr1129 Zr 0.48589 -0.02324 0.48235
 O1130 O 0.50059 -0.00238 0.46667
 Zr1131 Zr 0.50537 -0.00977 0.52374
 O1132 O 0.52134 0.01129 0.50962
 Zr1133 Zr 0.46407 0.01123 0.50952
 O1134 O 0.47825 0.03358 0.49536
 Zr1135 Zr 0.52642 0.00324 0.48064
 O1136 O 0.51271 -0.01933 0.49547
 Zr1137 Zr 0.48491 0.02442 0.46704
 O1138 O 0.46891 0.00280 0.48057
 Zr1139 Zr 0.50509 0.03762 0.50823
 O1140 O 0.48970 0.01710 0.52413
 O1141 O 0.47937 -0.01533 0.51076
 O1142 O 0.51126 0.03001 0.47962
 C1143 C 0.44314 -0.02537 0.49496
 C1144 C 0.49787 -0.05326 0.51395
 C1145 C 0.46908 -0.00647 0.55040
 C1146 C 0.54763 0.03975 0.49385
 C1147 C 0.52106 0.02311 0.44054
 C1148 C 0.49465 0.06747 0.47605
 H1149 H 0.50300 -0.00740 0.45340
 H1150 H 0.47004 0.04565 0.49565
 H1151 H 0.47226 -0.02534 0.51770
 H1152 H 0.53359 0.01272 0.51656
 H1153 H 0.55066 -0.02204 0.49505
 H1154 H 0.53691 -0.03090 0.52277
 H1155 H 0.45353 0.04623 0.46818
 H1156 H 0.43680 0.02148 0.48624
 H1157 H 0.54955 -0.01632 0.45717
 H1158 H 0.51331 -0.04630 0.46949
 H1159 H 0.47928 0.06291 0.52107
 H1160 H 0.46039 0.03848 0.53522
 H1161 H 0.46405 -0.02127 0.45245
 H1162 H 0.47806 0.00442 0.43604
 H1163 H 0.51211 0.01200 0.55327
 H1164 H 0.52836 0.03758 0.53742
 O1165 O -0.04697 0.47325 0.98882
 O1166 O -0.02923 0.46838 0.95927
 O1167 O -0.00483 0.45930 1.03164
 O1168 O 0.02573 0.47218 1.04074
 O1169 O -0.04049 0.51295 1.03692
 O1170 O -0.03956 0.54388 1.02138
 O1171 O 0.05510 0.50507 0.98970
 O1172 O 0.05092 0.47374 0.99993
 O1173 O 0.01584 0.51544 0.94423
 O1174 O -0.01892 0.51097 0.94038
 O1175 O 0.01845 0.55607 0.98930
 O1176 O 0.00587 0.55742 1.02306
 O1177 O 0.04513 0.53369 1.00411
 O1178 O 0.02719 0.54070 1.03413
 O1179 O 0.00406 0.54737 0.96129
 O1180 O -0.02792 0.53571 0.95364
 O1181 O 0.04007 0.49742 0.95811
 O1182 O 0.03551 0.46449 0.96983
 O1183 O -0.05706 0.50246 1.00440
 O1184 O -0.05241 0.53539 0.99533
 O1185 O -0.01740 0.49283 1.04999
 O1186 O 0.01618 0.49717 1.05350
 O1187 O -0.01893 0.45080 1.00339
 O1188 O -0.00744 0.45021 0.97093
 Zr1189 Zr -0.01704 0.47562 0.98618
 O1190 O 0.00375 0.48979 0.96994
 Zr1191 Zr 0.00295 0.48838 1.02760
 O1192 O 0.02451 0.50315 1.01304
 Zr1193 Zr -0.03130 0.51686 1.00829
 O1194 O -0.01122 0.53286 0.99291
 Zr1195 Zr 0.02940 0.49072 0.98558
 O1196 O 0.00939 0.47429 1.00101
 Zr1197 Zr -0.00508 0.51907 0.96622
 O1198 O -0.02704 0.50433 0.98066
 Zr1199 Zr 0.01515 0.53201 1.00755
 O1200 O -0.00570 0.51790 1.02421
 O1201 O -0.02310 0.48789 1.01320
 O1202 O 0.02118 0.51977 0.98047
 C1203 C -0.06130 0.48512 0.99632
 C1204 C -0.01287 0.44701 1.02046
 C1205 C -0.03312 0.50326 1.05101
 C1206 C 0.05824 0.52184 0.99713
 C1207 C 0.03257 0.50679 0.94390
 C1208 C 0.01286 0.55949 0.97196
 H1209 H 0.00586 0.48286 0.95747
 H1210 H -0.01646 0.54633 0.99130
 H1211 H -0.03283 0.48073 1.02044
 H1212 H 0.03634 0.50242 1.02087
 H1213 H 0.04530 0.46113 1.00305
 H1214 H 0.02999 0.46186 1.03144
 H1215 H -0.03152 0.54650 0.96268
 H1216 H -0.05414 0.53039 0.98201
 H1217 H 0.04927 0.46421 0.96604
 H1218 H 0.00519 0.44622 0.97643
 H1219 H -0.00480 0.56379 1.01579
 H1220 H -0.02968 0.54659 1.03117
 H1221 H -0.03669 0.48011 0.95495
 H1222 H -0.01384 0.49783 0.93655
 H1223 H 0.01260 0.51116 1.05539
 H1224 H 0.03550 0.52973 1.03880
 O1225 O 0.01069 0.44404 0.50095
 O1226 O 0.00182 0.44961 0.46778
 O1227 O 0.05742 0.48268 0.50759
 O1228 O 0.06014 0.51804 0.50388
 O1229 O 0.01294 0.48193 0.55115
 O1230 O -0.01947 0.49486 0.55268
 O1231 O 0.01088 0.54792 0.46697
 O1232 O 0.03995 0.53103 0.46329
 O1233 O -0.03249 0.50871 0.45617
 O1234 O -0.03908 0.47540 0.46818
 O1235 O -0.03514 0.54289 0.50640
 O1236 O -0.01852 0.54102 0.53822
 O1237 O -0.00366 0.55771 0.49517
 O1238 O 0.00542 0.55328 0.52907
 O1239 O -0.04880 0.51953 0.48819
 O1240 O -0.05225 0.48476 0.49257
 O1241 O -0.00492 0.52268 0.44686
 O1242 O 0.02606 0.50521 0.44411
 O1243 O -0.00296 0.45423 0.52943
 O1244 O -0.03177 0.47330 0.53590
 O1245 O 0.04102 0.49416 0.54072
 O1246 O 0.04742 0.52588 0.52959
 O1247 O 0.04360 0.45936 0.48941
 O1248 O 0.02758 0.46107 0.45908
 Zr1249 Zr 0.01515 0.47004 0.48580
 O1250 O -0.00056 0.49129 0.47001
 Zr1251 Zr 0.03518 0.50386 0.51264
 O1252 O 0.02013 0.52643 0.49814
 Zr1253 Zr -0.00544 0.48477 0.52712
 O1254 O -0.02225 0.50644 0.51303
 Zr1255 Zr 0.01397 0.51749 0.46991
 O1256 O 0.03108 0.49549 0.48365
 Zr1257 Zr -0.02671 0.49813 0.48413
 O1258 O -0.01192 0.47528 0.49895
 Zr1259 Zr -0.00685 0.53204 0.51111
 O1260 O 0.00918 0.51100 0.52722
 O1261 O 0.02097 0.47791 0.51415
 O1262 O -0.01270 0.52432 0.48266
 C1263 C 0.00337 0.44082 0.51766
 C1264 C 0.05799 0.46646 0.49813
 C1265 C 0.03050 0.48649 0.55362
 C1266 C 0.00360 0.56110 0.47848
 C1267 C -0.02226 0.51783 0.44396
 C1268 C -0.04938 0.53590 0.49732
 H1269 H -0.00240 0.48642 0.45668
 H1270 H -0.03449 0.50862 0.52016
 H1271 H 0.02840 0.46760 0.52111
 H1272 H 0.02802 0.53809 0.49808
 H1273 H 0.05026 0.52068 0.46323
 H1274 H 0.06408 0.51247 0.49117
 H1275 H -0.05522 0.48890 0.50601
 H1276 H -0.03686 0.46639 0.52452
 H1277 H 0.02707 0.51581 0.43457
 H1278 H 0.03668 0.47115 0.45550
 H1279 H -0.03010 0.53350 0.54058
 H1280 H -0.01338 0.50709 0.55646
 H1281 H -0.01135 0.44830 0.47292
 H1282 H -0.03098 0.47270 0.45661
 H1283 H 0.03731 0.53066 0.53877
 H1284 H 0.01833 0.55578 0.52385
 O1285 O 0.50982 0.93896 0.00407
 O1286 O 0.50228 0.94265 -0.02936
 O1287 O 0.55377 0.97986 0.01255
 O1288 O 0.55559 1.01409 0.00719
 O1289 O 0.50639 0.97846 0.05314
 O1290 O 0.47369 0.98943 0.05230
 O1291 O 0.50716 1.04139 -0.03301
 O1292 O 0.53748 1.02380 -0.03690
 O1293 O 0.46590 1.00010 -0.04490
 O1294 O 0.45991 0.96715 -0.03261
 O1295 O 0.45917 1.03574 0.00398
 O1296 O 0.47390 1.03601 0.03644
 O1297 O 0.48972 1.05143 -0.00658
 O1298 O 0.49809 1.04852 0.02846
 O1299 O 0.44738 1.01126 -0.01420
 O1300 O 0.44547 0.97610 -0.00877
 O1301 O 0.49330 1.01497 -0.05309
 O1302 O 0.52638 0.99841 -0.05288
 O1303 O 0.49366 0.94921 0.03120
 O1304 O 0.46352 0.96701 0.03519
 O1305 O 0.53405 0.99282 0.04471
 O1306 O 0.54084 1.02366 0.03174
 O1307 O 0.54210 0.95570 -0.00621
 O1308 O 0.52741 0.95560 -0.03755
 Zr1309 Zr 0.51345 0.96464 -0.01159
 O1310 O 0.49773 0.98454 -0.02894
 Zr1311 Zr 0.53035 1.00019 0.01549
 O1312 O 0.51536 1.02162 -0.00070
 Zr1313 Zr 0.48979 0.97955 0.02789
 O1314 O 0.47302 1.00015 0.01235
 Zr1315 Zr 0.51126 1.01129 -0.02898
 O1316 O 0.52829 0.99071 -0.01339
 Zr1317 Zr 0.47057 0.99067 -0.01645
 O1318 O 0.48547 0.96890 -0.00028
 Zr1319 Zr 0.48748 1.02634 0.01045
 O1320 O 0.50320 1.00649 0.02813
 O1321 O 0.51724 0.97361 0.01689
 O1322 O 0.48366 1.01735 -0.01802
 C1323 C 0.50161 0.93586 0.02033
 C1324 C 0.55563 0.96361 0.00317
 C1325 C 0.52298 0.98492 0.05705
 C1326 C 0.49801 1.05449 -0.02283
 C1327 C 0.47639 1.00930 -0.05677
 C1328 C 0.44572 1.02790 -0.00558
 H1329 H 0.49690 0.97916 -0.04221
 H1330 H 0.46036 1.00202 0.01876
 H1331 H 0.52474 0.96402 0.02471
 H1332 H 0.52256 1.03372 -0.00051
 H1333 H 0.54144 1.03234 -0.02619
 H1334 H 0.55839 1.00998 -0.00631
 H1335 H 0.44123 0.98103 0.00409
 H1336 H 0.45970 0.95926 0.02381
 H1337 H 0.52462 1.00695 -0.06427
 H1338 H 0.53704 0.96539 -0.04039
 H1339 H 0.46272 1.02786 0.03863
 H1340 H 0.47850 1.00236 0.05581
 H1341 H 0.48880 0.94120 -0.02520
 H1342 H 0.46917 0.96396 -0.04317
 H1343 H 0.52989 1.02900 0.03957
 H1344 H 0.51011 1.05298 0.02262
 O1345 O 0.53619 0.45751 0.00005
 O1346 O 0.52000 0.45281 0.03015
 O1347 O 0.48975 0.46244 -0.03992
 O1348 O 0.46149 0.48422 -0.04252
 O1349 O 0.53455 0.50390 -0.04152
 O1350 O 0.54189 0.53132 -0.02200
 O1351 O 0.44452 0.51710 0.01535
 O1352 O 0.44074 0.48751 0.00078
 O1353 O 0.48849 0.50878 0.05702
 O1354 O 0.52143 0.49443 0.05580
 O1355 O 0.49066 0.55529 0.01817
 O1356 O 0.50021 0.55833 -0.01578
 O1357 O 0.45900 0.54366 0.00352
 O1358 O 0.47600 0.54914 -0.02750
 O1359 O 0.50410 0.53876 0.04332
 O1360 O 0.53399 0.51778 0.04497
 O1361 O 0.46009 0.50048 0.04384
 O1362 O 0.45623 0.46951 0.02683
 O1363 O 0.55082 0.48405 -0.01163
 O1364 O 0.55431 0.51620 0.00096
 O1365 O 0.50667 0.49349 -0.05423
 O1366 O 0.47484 0.50772 -0.05297
 O1367 O 0.50280 0.44588 -0.01457
 O1368 O 0.49450 0.44360 0.01872
 Zr1369 Zr 0.50786 0.46756 0.00619
 O1370 O 0.49232 0.48480 0.02665
 Zr1371 Zr 0.48806 0.49165 -0.03040
 O1372 O 0.47164 0.50980 -0.01149
 Zr1373 Zr 0.52891 0.50614 -0.01160
 O1374 O 0.51417 0.52508 0.00807
 Zr1375 Zr 0.46648 0.49531 0.01446
 O1376 O 0.48092 0.47608 -0.00543
 Zr1377 Zr 0.50738 0.50984 0.03323
 O1378 O 0.52411 0.49143 0.01443
 Zr1379 Zr 0.48736 0.53394 -0.00338
 O1380 O 0.50315 0.51688 -0.02410
 O1381 O 0.51426 0.48152 -0.01944
 O1382 O 0.48105 0.52008 0.02237
 C1383 C 0.55093 0.46614 -0.00633
 C1384 C 0.49546 0.44667 -0.03155
 C1385 C 0.52398 0.49900 -0.05581
 C1386 C 0.44439 0.53505 0.01028
 C1387 C 0.47058 0.50511 0.05823
 C1388 C 0.49741 0.55439 0.03538
 H1389 H 0.48987 0.47691 0.03822
 H1390 H 0.52216 0.53631 0.01090
 H1391 H 0.52158 0.47295 -0.02869
 H1392 H 0.45944 0.51361 -0.01795
 H1393 H 0.44325 0.47450 -0.00520
 H1394 H 0.45652 0.47356 -0.03465
 H1395 H 0.53843 0.52910 0.03769
 H1396 H 0.55560 0.50974 0.01364
 H1397 H 0.44333 0.47266 0.03245
 H1398 H 0.48099 0.44424 0.01435
 H1399 H 0.51286 0.55974 -0.00961
 H1400 H 0.53200 0.53848 -0.02968
 H1401 H 0.52987 0.46131 0.03548
 H1402 H 0.51416 0.48264 0.05837
 H1403 H 0.48134 0.52026 -0.05360
 H1404 H 0.46459 0.54230 -0.03195
 O1405 O -0.00888 0.06294 0.49838
 O1406 O 0.00548 0.05965 0.46703
 O1407 O -0.05283 0.02132 0.49621
 O1408 O -0.05288 -0.01350 0.48934
 O1409 O -0.01588 0.02255 0.54563
 O1410 O 0.01641 0.01245 0.55147
 O1411 O 0.00474 -0.03919 0.45877
 O1412 O -0.02439 -0.02469 0.45132
 O1413 O 0.04585 0.00346 0.45772
 O1414 O 0.04851 0.03585 0.47254
 O1415 O 0.04208 -0.03330 0.50575
 O1416 O 0.02068 -0.03407 0.53415
 O1417 O 0.01465 -0.04928 0.48847
 O1418 O -0.00114 -0.04661 0.52080
 O1419 O 0.05702 -0.00868 0.49087
 O1420 O 0.05714 0.02676 0.49868
 O1421 O 0.02121 -0.01112 0.44267
 O1422 O -0.01072 0.00363 0.43672
 O1423 O 0.00130 0.05267 0.52790
 O1424 O 0.02978 0.03497 0.53780
 O1425 O -0.04081 0.00835 0.53066
 O1426 O -0.04343 -0.02286 0.51556
 O1427 O -0.03810 0.04599 0.48117
 O1428 O -0.01714 0.04628 0.45342
 Zr1429 Zr -0.00879 0.03731 0.48139
 O1430 O 0.01091 0.01792 0.46720
 Zr1431 Zr -0.03033 0.00115 0.50282
 O1432 O -0.01166 -0.01974 0.48935
 Zr1433 Zr 0.00598 0.02230 0.52450
 O1434 O 0.02618 0.00213 0.51217
 Zr1435 Zr -0.00143 -0.00917 0.46303
 O1436 O -0.02219 0.01094 0.47530
 Zr1437 Zr 0.03475 0.01201 0.48496
 O1438 O 0.01612 0.03333 0.49826
 Zr1439 Zr 0.01298 -0.02423 0.50625
 O1440 O -0.00662 -0.00485 0.52086
 O1441 O -0.01845 0.02795 0.50808
 O1442 O 0.02301 -0.01492 0.47962
 C1443 C -0.00413 0.06607 0.51601
 C1444 C -0.05308 0.03780 0.48755
 C1445 C -0.03292 0.01604 0.54546
 C1446 C 0.01085 -0.05237 0.47059
 C1447 C 0.03844 -0.00510 0.44315
 C1448 C 0.05706 -0.02537 0.49912
 H1449 H 0.01456 0.02361 0.45471
 H1450 H 0.03715 0.00030 0.52105
 H1451 H -0.02755 0.03740 0.51453
 H1452 H -0.01856 -0.03188 0.48726
 H1453 H -0.03570 -0.01552 0.45104
 H1454 H -0.05459 -0.00779 0.47637
 H1455 H 0.05917 0.02091 0.51154
 H1456 H 0.03617 0.04254 0.52770
 H1457 H -0.00897 -0.00631 0.42630
 H1458 H -0.02559 0.03622 0.44832
 H1459 H 0.03084 -0.02570 0.53906
 H1460 H 0.01132 -0.00065 0.55337
 H1461 H 0.01767 0.06137 0.47402
 H1462 H 0.04143 0.03953 0.46069
 H1463 H -0.03475 -0.02753 0.52595
 H1464 H -0.01173 -0.05086 0.51248
 O1465 O 0.78728 0.25349 0.21034
 O1466 O 0.77503 0.22190 0.20432
 O1467 O 0.73497 0.28960 0.20571
 O1468 O 0.70426 0.29027 0.22350
 O1469 O 0.77506 0.29845 0.25200
 O1470 O 0.78035 0.28233 0.28205
 O1471 O 0.69252 0.23311 0.25707
 O1472 O 0.68987 0.24553 0.22647
 O1473 O 0.74259 0.19577 0.25687
 O1474 O 0.77618 0.19952 0.24716
 O1475 O 0.73430 0.23785 0.30101
 O1476 O 0.73871 0.27360 0.30285
 O1477 O 0.70266 0.24780 0.28462
 O1478 O 0.71347 0.28112 0.29055
 O1479 O 0.75244 0.21290 0.28762
 O1480 O 0.78443 0.21324 0.27126
 O1481 O 0.71362 0.20530 0.24437
 O1482 O 0.71062 0.21988 0.21225
 O1483 O 0.79644 0.26922 0.23767
 O1484 O 0.79788 0.25929 0.27052
 O1485 O 0.74591 0.30819 0.23741
 O1486 O 0.71380 0.30446 0.24760
 O1487 O 0.75396 0.26501 0.19287
 O1488 O 0.74977 0.23086 0.19110
 Zr1489 Zr 0.75876 0.24589 0.21605
 O1490 O 0.74443 0.22494 0.23208
 Zr1491 Zr 0.73146 0.28200 0.23493
 O1492 O 0.71613 0.26255 0.25184
 Zr1493 Zr 0.77248 0.26844 0.25605
 O1494 O 0.75895 0.24841 0.27382
 Zr1495 Zr 0.71623 0.23506 0.23835
 O1496 O 0.72973 0.25517 0.22012
 Zr1497 Zr 0.75753 0.22161 0.25914
 O1498 O 0.77324 0.24096 0.24228
 Zr1499 Zr 0.73016 0.25769 0.27822
 O1500 O 0.74437 0.27907 0.26225
 O1501 O 0.75980 0.27311 0.22929
 O1502 O 0.72911 0.23036 0.26510
 C1503 C 0.79969 0.26218 0.22069
 C1504 C 0.74399 0.28109 0.19154
 C1505 C 0.76334 0.31268 0.24457
 C1506 C 0.69014 0.23888 0.27468
 C1507 C 0.72557 0.19238 0.25112
 C1508 C 0.74322 0.22112 0.30177
 H1509 H 0.74449 0.21256 0.22464
 H1510 H 0.76601 0.24714 0.28612
 H1511 H 0.76674 0.28248 0.22133
 H1512 H 0.70284 0.26790 0.25365
 H1513 H 0.69286 0.25093 0.21365
 H1514 H 0.70210 0.28169 0.21223
 H1515 H 0.78631 0.22138 0.28291
 H1516 H 0.80172 0.24630 0.26513
 H1517 H 0.69850 0.21299 0.21401
 H1518 H 0.73583 0.23390 0.18983
 H1519 H 0.75156 0.26840 0.30669
 H1520 H 0.76894 0.29022 0.28654
 H1521 H 0.78455 0.21792 0.21424
 H1522 H 0.77059 0.19523 0.23480
 H1523 H 0.71842 0.30621 0.26098
 H1524 H 0.70266 0.28415 0.28173
 O1525 O 0.75906 0.72293 0.70621
 O1526 O 0.78989 0.72065 0.72214
 O1527 O 0.72076 0.71119 0.75337
 O1528 O 0.71497 0.72724 0.78530
 O1529 O 0.70776 0.75888 0.71545
 O1530 O 0.72014 0.79133 0.71294
 O1531 O 0.76396 0.76761 0.80583
 O1532 O 0.75528 0.73546 0.80573
 O1533 O 0.80456 0.77317 0.76115
 O1534 O 0.80433 0.76477 0.72561
 O1535 O 0.75596 0.81289 0.76525
 O1536 O 0.72134 0.81026 0.75607
 O1537 O 0.74592 0.79366 0.79509
 O1538 O 0.71437 0.79669 0.78051
 O1539 O 0.78373 0.80345 0.74985
 O1540 O 0.78993 0.78941 0.71844
 O1541 O 0.79415 0.75804 0.78811
 O1542 O 0.78413 0.72452 0.78796
 O1543 O 0.74031 0.74884 0.69637
 O1544 O 0.74484 0.78266 0.69730
 O1545 O 0.69900 0.74172 0.74181
 O1546 O 0.69795 0.74961 0.77492
 O1547 O 0.74854 0.70231 0.73761
 O1548 O 0.78122 0.70445 0.74519
 Zr1549 Zr 0.76346 0.72822 0.73597
 O1550 O 0.77986 0.74580 0.75407
 Zr1551 Zr 0.72330 0.74114 0.75959
 O1552 O 0.73796 0.75975 0.77822
 Zr1553 Zr 0.73641 0.76617 0.72130
 O1554 O 0.75221 0.78546 0.73823
 Zr1555 Zr 0.76648 0.74943 0.78121
 O1556 O 0.75133 0.72947 0.76405
 Zr1557 Zr 0.78032 0.77398 0.74274
 O1558 O 0.76529 0.75592 0.72351
 Zr1559 Zr 0.74001 0.78745 0.76599
 O1560 O 0.72297 0.76961 0.74844
 O1561 O 0.73517 0.73810 0.73207
 O1562 O 0.76832 0.77749 0.77023
 C1563 C 0.74992 0.73279 0.69320
 C1564 C 0.73225 0.69850 0.74511
 C1565 C 0.69552 0.74948 0.72534
 C1566 C 0.75534 0.78439 0.80824
 C1567 C 0.80703 0.76642 0.77829
 C1568 C 0.77264 0.81627 0.75835
 H1569 H 0.79288 0.73966 0.75533
 H1570 H 0.75220 0.79828 0.73185
 H1571 H 0.72794 0.72935 0.72359
 H1572 H 0.73133 0.76033 0.79090
 H1573 H 0.75224 0.72211 0.80161
 H1574 H 0.72428 0.71623 0.78746
 H1575 H 0.77913 0.79803 0.71407
 H1576 H 0.75870 0.77952 0.69523
 H1577 H 0.78909 0.72628 0.80124
 H1578 H 0.77813 0.70252 0.75899
 H1579 H 0.72723 0.81581 0.74442
 H1580 H 0.71049 0.79403 0.72326
 H1581 H 0.79245 0.73124 0.71299
 H1582 H 0.81057 0.75331 0.73190
 H1583 H 0.69478 0.76327 0.77130
 H1584 H 0.71109 0.78635 0.78966
 O1585 O 0.28646 0.20012 0.75065
 O1586 O 0.29011 0.21462 0.71961
 O1587 O 0.29350 0.25018 0.78810
 O1588 O 0.27589 0.28208 0.79103
 O1589 O 0.24845 0.21117 0.79873
 O1590 O 0.21722 0.20745 0.78436
 O1591 O 0.23828 0.29901 0.73693
 O1592 O 0.26926 0.30022 0.74791
 O1593 O 0.23579 0.25151 0.69870
 O1594 O 0.24652 0.21652 0.70042
 O1595 O 0.19517 0.25770 0.74322
 O1596 O 0.19596 0.25080 0.77848
 O1597 O 0.21206 0.28856 0.75301
 O1598 O 0.20858 0.27558 0.78595
 O1599 O 0.20694 0.24077 0.71707
 O1600 O 0.22319 0.20799 0.71484
 O1601 O 0.25023 0.27917 0.70803
 O1602 O 0.28255 0.28046 0.72134
 O1603 O 0.26019 0.19030 0.76703
 O1604 O 0.22705 0.19065 0.76092
 O1605 O 0.26298 0.23886 0.80786
 O1606 O 0.25320 0.27225 0.80629
 O1607 O 0.30435 0.23183 0.76246
 O1608 O 0.30392 0.23930 0.72876
 Zr1609 Zr 0.28016 0.22974 0.74470
 O1610 O 0.26284 0.24633 0.72564
 Zr1611 Zr 0.26397 0.25547 0.78258
 O1612 O 0.24575 0.27291 0.76510
 Zr1613 Zr 0.24209 0.21547 0.76923
 O1614 O 0.22309 0.23116 0.75098
 Zr1615 Zr 0.25733 0.27441 0.73716
 O1616 O 0.27684 0.25866 0.75525
 Zr1617 Zr 0.23579 0.23418 0.72361
 O1618 O 0.25377 0.21630 0.74111
 Zr1619 Zr 0.21923 0.25985 0.76144
 O1620 O 0.23662 0.24351 0.78099
 O1621 O 0.26897 0.22712 0.77238
 O1622 O 0.23046 0.26253 0.73372
 C1623 C 0.27666 0.18708 0.75897
 C1624 C 0.30682 0.24067 0.77861
 C1625 C 0.25636 0.22209 0.81138
 C1626 C 0.22116 0.30151 0.74382
 C1627 C 0.24206 0.26850 0.69541
 C1628 C 0.19338 0.24994 0.72638
 H1629 H 0.26941 0.24692 0.71297
 H1630 H 0.21082 0.22447 0.75022
 H1631 H 0.27749 0.21904 0.78076
 H1632 H 0.24424 0.28607 0.77098
 H1633 H 0.28221 0.29651 0.75277
 H1634 H 0.28684 0.28425 0.78226
 H1635 H 0.21233 0.20571 0.72367
 H1636 H 0.23034 0.18808 0.74718
 H1637 H 0.28047 0.29333 0.71513
 H1638 H 0.30573 0.25298 0.73275
 H1639 H 0.19189 0.23820 0.77319
 H1640 H 0.21348 0.21854 0.79301
 H1641 H 0.27990 0.20573 0.71587
 H1642 H 0.25794 0.22271 0.69505
 H1643 H 0.23988 0.26824 0.80852
 H1644 H 0.21746 0.28613 0.78868
 O1645 O 0.20177 0.73912 0.28441
 O1646 O 0.21517 0.70669 0.28664
 O1647 O 0.24838 0.77439 0.29787
 O1648 O 0.27980 0.77867 0.28470
 O1649 O 0.21305 0.78724 0.24849
 O1650 O 0.21143 0.77407 0.21679
 O1651 O 0.30213 0.72367 0.24604
 O1652 O 0.30031 0.73297 0.27778
 O1653 O 0.25711 0.68669 0.23468
 O1654 O 0.22331 0.68757 0.24038
 O1655 O 0.26610 0.73344 0.19829
 O1656 O 0.25865 0.76794 0.19918
 O1657 O 0.29449 0.74260 0.22015
 O1658 O 0.27920 0.77643 0.21715
 O1659 O 0.24772 0.70778 0.20525
 O1660 O 0.21427 0.70548 0.21913
 O1661 O 0.28255 0.69464 0.25319
 O1662 O 0.28041 0.70632 0.28674
 O1663 O 0.19317 0.75662 0.25783
 O1664 O 0.19630 0.74922 0.22346
 O1665 O 0.23833 0.79583 0.26697
 O1666 O 0.27271 0.79348 0.26035
 O1667 O 0.23173 0.74776 0.30579
 O1668 O 0.23913 0.71311 0.30312
 Zr1669 Zr 0.23095 0.73143 0.27994
 O1670 O 0.24890 0.71262 0.26310
 Zr1671 Zr 0.25581 0.77002 0.26862
 O1672 O 0.27523 0.75259 0.25193
 Zr1673 Zr 0.21885 0.75778 0.24161
 O1674 O 0.23685 0.74054 0.22321
 Zr1675 Zr 0.27642 0.72375 0.26181
 O1676 O 0.25901 0.74180 0.28041
 Zr1677 Zr 0.23949 0.71224 0.23432
 O1678 O 0.21986 0.72900 0.25179
 Zr1679 Zr 0.26501 0.75057 0.22360
 O1680 O 0.24626 0.76962 0.23983
 O1681 O 0.22822 0.75985 0.26997
 O1682 O 0.26745 0.72193 0.23316
 C1683 C 0.18947 0.74881 0.27419
 C1684 C 0.23930 0.76400 0.30996
 C1685 C 0.22231 0.79964 0.25834
 C1686 C 0.30641 0.73219 0.23028
 C1687 C 0.27322 0.68260 0.24289
 C1688 C 0.25813 0.71753 0.19375
 H1689 H 0.24928 0.69949 0.26887
 H1690 H 0.23138 0.74068 0.21006
 H1691 H 0.21965 0.76828 0.27822
 H1692 H 0.28802 0.75831 0.25257
 H1693 H 0.29536 0.73752 0.29053
 H1694 H 0.28308 0.76796 0.29369
 H1695 H 0.21288 0.71462 0.20822
 H1696 H 0.19238 0.73635 0.22805
 H1697 H 0.29328 0.69964 0.28580
 H1698 H 0.25190 0.71719 0.30743
 H1699 H 0.24572 0.76468 0.19466
 H1700 H 0.22267 0.78188 0.21372
 H1701 H 0.20728 0.70392 0.27516
 H1702 H 0.22585 0.68394 0.25394
 H1703 H 0.26813 0.79769 0.24748
 H1704 H 0.28954 0.77788 0.22673
 O1705 O 0.19775 0.72634 0.75423
 O1706 O 0.19536 0.73751 0.72198
 O1707 O 0.24763 0.68729 0.75089
 O1708 O 0.28059 0.69080 0.74213
 O1709 O 0.24103 0.72825 0.79793
 O1710 O 0.24604 0.76196 0.80128
 O1711 O 0.29037 0.74828 0.70483
 O1712 O 0.28115 0.71675 0.70046
 O1713 O 0.24064 0.78458 0.70562
 O1714 O 0.20962 0.78412 0.72284
 O1715 O 0.28159 0.78965 0.74892
 O1716 O 0.28910 0.77260 0.77818
 O1717 O 0.30148 0.76137 0.73277
 O1718 O 0.30350 0.74902 0.76706
 O1719 O 0.25177 0.80044 0.73652
 O1720 O 0.21847 0.79605 0.74775
 O1721 O 0.25947 0.76086 0.69108
 O1722 O 0.24990 0.72690 0.68774
 O1723 O 0.20750 0.74136 0.78174
 O1724 O 0.22077 0.77251 0.78881
 O1725 O 0.25948 0.70412 0.78351
 O1726 O 0.28979 0.70474 0.76609
 O1727 O 0.21909 0.69739 0.73781
 O1728 O 0.21229 0.71552 0.70878
 Zr1729 Zr 0.22123 0.72777 0.73523
 O1730 O 0.23451 0.74863 0.71817
 Zr1731 Zr 0.26259 0.71304 0.75470
 O1732 O 0.27772 0.73285 0.73801
 Zr1733 Zr 0.23612 0.74861 0.77577
 O1734 O 0.25058 0.77002 0.76037
 Zr1735 Zr 0.26297 0.73930 0.71236
 O1736 O 0.24913 0.71720 0.72774
 Zr1737 Zr 0.23668 0.77472 0.73390
 O1738 O 0.22110 0.75471 0.75011
 Zr1739 Zr 0.27847 0.75961 0.75275
 O1740 O 0.26487 0.73919 0.77048
 O1741 O 0.23448 0.72196 0.76149
 O1742 O 0.26486 0.76597 0.72676
 C1743 C 0.19481 0.73302 0.77142
 C1744 C 0.23096 0.68408 0.74402
 C1745 C 0.25079 0.71196 0.79821
 C1746 C 0.30338 0.75631 0.71487
 C1747 C 0.25010 0.77737 0.69113
 C1748 C 0.26970 0.80435 0.74251
 H1749 H 0.22723 0.75049 0.70605
 H1750 H 0.25082 0.78211 0.76820
 H1751 H 0.22758 0.71232 0.76917
 H1752 H 0.29071 0.72711 0.73523
 H1753 H 0.27407 0.70458 0.70126
 H1754 H 0.27552 0.68827 0.72907
 H1755 H 0.22492 0.80037 0.75964
 H1756 H 0.21080 0.77685 0.77948
 H1757 H 0.25835 0.72894 0.67643
 H1758 H 0.22343 0.70771 0.70354
 H1759 H 0.27836 0.78025 0.78432
 H1760 H 0.25995 0.75851 0.80207
 H1761 H 0.19185 0.75039 0.72782
 H1762 H 0.20689 0.77590 0.71145
 H1763 H 0.29246 0.71420 0.77653
 H1764 H 0.30952 0.73848 0.75896
 O1765 O 0.24529 0.21965 0.20160
 O1766 O 0.27377 0.21259 0.21935
 O1767 O 0.20193 0.21600 0.24648
 O1768 O 0.19442 0.23094 0.27424
 O1769 O 0.20000 0.26381 0.20605
 O1770 O 0.21721 0.29304 0.20375
 O1771 O 0.24971 0.26483 0.30082
 O1772 O 0.23699 0.23396 0.29996
 O1773 O 0.29379 0.26484 0.25920
 O1774 O 0.29642 0.25581 0.22518
 O1775 O 0.25128 0.30999 0.25994
 O1776 O 0.21819 0.31346 0.24893
 O1777 O 0.23668 0.29310 0.28876
 O1778 O 0.20581 0.29983 0.27094
 O1779 O 0.27836 0.29690 0.24565
 O1780 O 0.28388 0.27985 0.21391
 O1781 O 0.27978 0.25104 0.28517
 O1782 O 0.26493 0.21937 0.28420
 O1783 O 0.23179 0.24787 0.18994
 O1784 O 0.24223 0.28064 0.19120
 O1785 O 0.18618 0.24902 0.23155
 O1786 O 0.18509 0.25960 0.26581
 O1787 O 0.22890 0.20208 0.23263
 O1788 O 0.26170 0.19959 0.24292
 Zr1789 Zr 0.24816 0.22505 0.23150
 O1790 O 0.26600 0.24043 0.25028
 Zr1791 Zr 0.20863 0.24508 0.25160
 O1792 O 0.22482 0.26085 0.27153
 Zr1793 Zr 0.22884 0.26629 0.21423
 O1794 O 0.24563 0.28337 0.23243
 Zr1795 Zr 0.25145 0.24643 0.27641
 O1796 O 0.23421 0.22922 0.25845
 Zr1797 Zr 0.27143 0.26797 0.23892
 O1798 O 0.25551 0.25161 0.21894
 Zr1799 Zr 0.23177 0.28751 0.25928
 O1800 O 0.21375 0.27262 0.24007
 O1801 O 0.22209 0.23929 0.22519
 O1802 O 0.25808 0.27358 0.26551
 C1803 C 0.23888 0.23044 0.18776
 C1804 C 0.21168 0.20137 0.23935
 C1805 C 0.18552 0.25687 0.21477
 C1806 C 0.24363 0.28268 0.30258
 C1807 C 0.29424 0.25797 0.27641
 C1808 C 0.26860 0.31105 0.25378
 H1809 H 0.27797 0.23255 0.25251
 H1810 H 0.24791 0.29587 0.22601
 H1811 H 0.21419 0.23158 0.21632
 H1812 H 0.21749 0.26264 0.28373
 H1813 H 0.23143 0.22185 0.29501
 H1814 H 0.20173 0.23339 0.28616
 H1815 H 0.27610 0.29165 0.21040
 H1816 H 0.25518 0.27433 0.18960
 H1817 H 0.26963 0.22057 0.29764
 H1818 H 0.25610 0.19784 0.25593
 H1819 H 0.22458 0.31679 0.23667
 H1820 H 0.20808 0.29820 0.21374
 H1821 H 0.27953 0.22293 0.21160
 H1822 H 0.29902 0.24270 0.23061
 H1823 H 0.18283 0.27222 0.25925
 H1824 H 0.20194 0.29166 0.28187
 O1825 O 0.75389 0.71193 0.30066
 O1826 O 0.72244 0.70638 0.28784
 O1827 O 0.78848 0.71029 0.24891
 O1828 O 0.78837 0.72893 0.21944
 O1829 O 0.79459 0.75575 0.29127
 O1830 O 0.77643 0.78523 0.29867
 O1831 O 0.72946 0.76214 0.20703
 O1832 O 0.74312 0.73141 0.20358
 O1833 O 0.69275 0.76021 0.25649
 O1834 O 0.69723 0.74902 0.28983
 O1835 O 0.73111 0.80497 0.25121
 O1836 O 0.76581 0.80779 0.25684
 O1837 O 0.74211 0.78976 0.21915
 O1838 O 0.77462 0.79576 0.23165
 O1839 O 0.70781 0.79098 0.26878
 O1840 O 0.70941 0.77308 0.29994
 O1841 O 0.70246 0.74829 0.22711
 O1842 O 0.71888 0.71634 0.22303
 O1843 O 0.76721 0.73961 0.31174
 O1844 O 0.75489 0.77245 0.31482
 O1845 O 0.80450 0.74219 0.26263
 O1846 O 0.79979 0.75358 0.23013
 O1847 O 0.76511 0.69596 0.26615
 O1848 O 0.73147 0.69390 0.26187
 Zr1849 Zr 0.74496 0.71891 0.27229
 O1850 O 0.72310 0.73526 0.25810
 Zr1851 Zr 0.77897 0.73960 0.24680
 O1852 O 0.75850 0.75662 0.23159
 Zr1853 Zr 0.76462 0.75911 0.28870
 O1854 O 0.74362 0.77717 0.27534
 Zr1855 Zr 0.73228 0.74264 0.23027
 O1856 O 0.75352 0.72426 0.24355
 Zr1857 Zr 0.71816 0.76208 0.27246
 O1858 O 0.73848 0.74479 0.28799
 Zr1859 Zr 0.75217 0.78263 0.24685
 O1860 O 0.77438 0.76659 0.26107
 O1861 O 0.77086 0.73265 0.27473
 O1862 O 0.72606 0.76913 0.24437
 C1863 C 0.76199 0.72205 0.31385
 C1864 C 0.78101 0.69545 0.25661
 C1865 C 0.80769 0.74896 0.27962
 C1866 C 0.73424 0.77999 0.20564
 C1867 C 0.68948 0.75474 0.23909
 C1868 C 0.71484 0.80547 0.26001
 H1869 H 0.71140 0.72760 0.25748
 H1870 H 0.74164 0.78932 0.28298
 H1871 H 0.78071 0.72446 0.28144
 H1872 H 0.76361 0.75891 0.21849
 H1873 H 0.74926 0.71847 0.20624
 H1874 H 0.77982 0.71838 0.21577
 H1875 H 0.71686 0.78472 0.30276
 H1876 H 0.74259 0.76652 0.31810
 H1877 H 0.71196 0.71836 0.21067
 H1878 H 0.73404 0.69324 0.24780
 H1879 H 0.76083 0.81092 0.26997
 H1880 H 0.78331 0.79071 0.28755
 H1881 H 0.71825 0.71602 0.29788
 H1882 H 0.69404 0.73655 0.28359
 H1883 H 0.80132 0.76658 0.23610
 H1884 H 0.77791 0.78745 0.22026
 O1885 O 0.69881 0.23973 0.78094
 O1886 O 0.71579 0.20879 0.78326
 O1887 O 0.74270 0.27962 0.79402
 O1888 O 0.77435 0.28536 0.77965
 O1889 O 0.70572 0.28976 0.74581
 O1890 O 0.70479 0.27653 0.71365
 O1891 O 0.79933 0.23337 0.74011
 O1892 O 0.79758 0.24332 0.77165
 O1893 O 0.75735 0.19272 0.73050
 O1894 O 0.72288 0.19127 0.73813
 O1895 O 0.76009 0.24014 0.69344
 O1896 O 0.74916 0.27508 0.69602
 O1897 O 0.78813 0.25065 0.71302
 O1898 O 0.77206 0.28332 0.71142
 O1899 O 0.74532 0.21244 0.70154
 O1900 O 0.71319 0.20693 0.71568
 O1901 O 0.78240 0.20280 0.74844
 O1902 O 0.78054 0.21482 0.78177
 O1903 O 0.68851 0.25650 0.75449
 O1904 O 0.69107 0.25127 0.72071
 O1905 O 0.73103 0.30031 0.76312
 O1906 O 0.76449 0.30102 0.75671
 O1907 O 0.72829 0.25167 0.80210
 O1908 O 0.73861 0.21805 0.79968
 Zr1909 Zr 0.72862 0.23523 0.77632
 O1910 O 0.74778 0.21799 0.75909
 Zr1911 Zr 0.75008 0.27575 0.76458
 O1912 O 0.77011 0.26012 0.74683
 Zr1913 Zr 0.71359 0.26075 0.73838
 O1914 O 0.73198 0.24458 0.71950
 Zr1915 Zr 0.77415 0.23152 0.75680
 O1916 O 0.75579 0.24781 0.77610
 Zr1917 Zr 0.73749 0.21660 0.73069
 O1918 O 0.71714 0.23201 0.74844
 Zr1919 Zr 0.75897 0.25711 0.71892
 O1920 O 0.73981 0.27473 0.73604
 O1921 O 0.72338 0.26345 0.76655
 O1922 O 0.76432 0.22879 0.72854
 C1923 C 0.68557 0.24787 0.77053
 C1924 C 0.73462 0.26850 0.80622
 C1925 C 0.71455 0.30295 0.75508
 C1926 C 0.80260 0.24131 0.72244
 C1927 C 0.77388 0.18998 0.73834
 C1928 C 0.75394 0.22321 0.68947
 H1929 H 0.74950 0.20495 0.76493
 H1930 H 0.72605 0.24415 0.70657
 H1931 H 0.71422 0.27106 0.77495
 H1932 H 0.78242 0.26679 0.74679
 H1933 H 0.79280 0.24735 0.78462
 H1934 H 0.77708 0.27593 0.79008
 H1935 H 0.71020 0.21633 0.70527
 H1936 H 0.68945 0.23738 0.72375
 H1937 H 0.79392 0.20944 0.78050
 H1938 H 0.75142 0.22273 0.80309
 H1939 H 0.73782 0.26907 0.69027
 H1940 H 0.71488 0.28592 0.71104
 H1941 H 0.70804 0.20518 0.77193
 H1942 H 0.72836 0.18629 0.75036
 H1943 H 0.76098 0.30373 0.74314
 H1944 H 0.78206 0.28584 0.72111
 C1945 C 0.09378 0.98850 1.17029
 C1946 C 0.08503 1.00354 1.15957
 C1947 C 0.07602 1.00055 1.14043
 C1948 C 0.06240 1.01456 1.13393
 C1949 C 0.05362 1.01249 1.11596
 C1950 C 0.05834 0.99630 1.10399
 C1951 C 0.07235 0.98255 1.11022
 C1952 C 0.08109 0.98457 1.12827
 C1953 C 0.04939 0.99376 1.08477
 C1954 C 0.03122 1.00175 1.08033
 H1955 H 0.08432 1.01820 1.16542
 H1956 H 0.05849 1.02719 1.14283
 H1957 H 0.04345 1.02382 1.11139
 H1958 H 0.07651 0.97014 1.10113
 H1959 H 0.09202 0.97381 1.13237
 H1960 H 0.05708 0.98488 1.07401
 H1961 H 0.09420 0.97382 1.16443
 H1962 H 0.02283 1.00942 1.09143
 C1963 C 0.57967 0.49439 0.68660
 C1964 C 0.57067 0.50933 0.67598
 C1965 C 0.56198 0.50606 0.65676
 C1966 C 0.54815 0.51966 0.64985
 C1967 C 0.54027 0.51748 0.63143
 C1968 C 0.54618 0.50163 0.61947
 C1969 C 0.56020 0.48820 0.62629
 C1970 C 0.56802 0.49034 0.64469
 C1971 C 0.53884 0.49904 0.59959
 C1972 C 0.52173 0.50779 0.59287
 H1973 H 0.57025 0.52410 0.68159
 H1974 H 0.54353 0.53209 0.65870
 H1975 H 0.52997 0.52853 0.62653
 H1976 H 0.56526 0.47605 0.61726
 H1977 H 0.57919 0.47996 0.64909
 H1978 H 0.54706 0.48934 0.58994
 H1979 H 0.57947 0.47959 0.68115
 H1980 H 0.51260 0.51658 0.60249
 C1981 C 0.43589 -0.00848 0.67547
 C1982 C 0.43087 -0.01894 0.65896
 C1983 C 0.44181 -0.01907 0.64055
 C1984 C 0.43238 -0.02457 0.62362
 C1985 C 0.44163 -0.02395 0.60573
 C1986 C 0.46061 -0.01787 0.60439
 C1987 C 0.47043 -0.01336 0.62139
 C1988 C 0.46112 -0.01385 0.63934
 C1989 C 0.47022 -0.01581 0.58547
 C1990 C 0.45995 -0.01011 0.56910
 H1991 H 0.41770 -0.02678 0.65912
 H1992 H 0.41764 -0.02900 0.62418
 H1993 H 0.43388 -0.02824 0.59297
 H1994 H 0.48518 -0.00896 0.62072
 H1995 H 0.46914 -0.01018 0.65209
 H1996 H 0.48577 -0.01708 0.58478
 H1997 H 0.44929 -0.00109 0.67591
 H1998 H 0.44462 -0.00699 0.57025
 C1999 C -0.06868 0.49896 1.17835
 C2000 C -0.07664 0.50169 1.16000
 C2001 C -0.06585 0.50011 1.14145
 C2002 C -0.07613 0.50315 1.12428
 C2003 C -0.06695 0.50161 1.10634
 C2004 C -0.04709 0.49718 1.10510
 C2005 C -0.03681 0.49384 1.12222
 C2006 C -0.04602 0.49531 1.14023
 C2007 C -0.03679 0.49562 1.08631
 C2008 C -0.04377 0.50427 1.06942
 H2009 H -0.09182 0.50542 1.15898
 H2010 H -0.09144 0.50659 1.12472
 H2011 H -0.07560 0.50360 1.09354
 H2012 H -0.02153 0.49021 1.12167
 H2013 H -0.03748 0.49261 1.15296
 H2014 H -0.02276 0.48820 1.08599
 H2015 H -0.05333 0.49689 1.17996
 H2016 H -0.05711 0.51288 1.06968
 C2017 C -0.08086 0.50315 0.33058
 C2018 C -0.07359 0.51957 0.33978
 C2019 C -0.06796 0.51946 0.36040
 C2020 C -0.05407 0.53225 0.36675
 C2021 C -0.04793 0.53203 0.38595
 C2022 C -0.05561 0.51896 0.39921
 C2023 C -0.07023 0.50693 0.39307
 C2024 C -0.07639 0.50717 0.37391
 C2025 C -0.04857 0.51710 0.41930
 C2026 C -0.03046 0.52283 0.42504
 H2027 H -0.07110 0.53271 0.33187
 H2028 H -0.04771 0.54221 0.35676
 H2029 H -0.03721 0.54215 0.39023
 H2030 H -0.07669 0.49703 0.40307
 H2031 H -0.08782 0.49779 0.36983
 H2032 H -0.05719 0.50925 0.42946
 H2033 H -0.08147 0.49002 0.33908
 H2034 H -0.02119 0.52987 0.41493
 C2035 C 0.42547 0.99034 -0.17332
 C2036 C 0.42953 1.00718 -0.16290
 C2037 C 0.43494 1.00680 -0.14230
 C2038 C 0.44584 1.02181 -0.13479
 C2039 C 0.45130 1.02179 -0.11539
 C2040 C 0.44581 1.00674 -0.10313
 C2041 C 0.43422 0.99221 -0.11045
 C2042 C 0.42884 0.99219 -0.12984
 C2043 C 0.45196 1.00558 -0.08277
 C2044 C 0.46891 1.01340 -0.07616
 H2045 H 0.42867 1.02121 -0.16989
 H2046 H 0.45030 1.03348 -0.14401
 H2047 H 0.45966 1.03363 -0.11008
 H2048 H 0.42953 0.98066 -0.10120
 H2049 H 0.41970 0.98086 -0.13488
 H2050 H 0.44390 0.99657 -0.07314
 H2051 H 0.42679 0.97634 -0.16630
 H2052 H 0.47785 1.02137 -0.08588
 C2053 C 0.59791 0.51176 -0.16290
 C2054 C 0.57883 0.51616 -0.15759
 C2055 C 0.57159 0.51437 -0.13752
 C2056 C 0.55187 0.51221 -0.13456
 C2057 C 0.54444 0.51008 -0.11594
 C2058 C 0.55666 0.51004 -0.09980
 C2059 C 0.57629 0.51284 -0.10270
 C2060 C 0.58372 0.51500 -0.12133
 C2061 C 0.54937 0.50785 -0.07980
 C2062 C 0.53189 0.49960 -0.07552
 H2063 H 0.56847 0.52029 -0.16853
 H2064 H 0.54215 0.51205 -0.14673
 H2065 H 0.52911 0.50879 -0.11435
 H2066 H 0.58595 0.51331 -0.09050
 H2067 H 0.59888 0.51743 -0.12285
 H2068 H 0.55824 0.51268 -0.06801
 H2069 H 0.60805 0.50730 -0.15187
 H2070 H 0.52326 0.49378 -0.08698
 C2071 C 0.08239 -0.00236 0.31963
 C2072 C 0.08877 -0.00984 0.33733
 C2073 C 0.07670 -0.01087 0.35503
 C2074 C 0.08588 -0.01436 0.37275
 C2075 C 0.07529 -0.01516 0.38992
 C2076 C 0.05517 -0.01250 0.38977
 C2077 C 0.04591 -0.00966 0.37199
 C2078 C 0.05650 -0.00880 0.35480
 C2079 C 0.04346 -0.01256 0.40774
 C2080 C 0.05072 -0.00765 0.42585
 H2081 H 0.10358 -0.01504 0.33853
 H2082 H 0.10137 -0.01634 0.37336
 H2083 H 0.08295 -0.01806 0.40321
 H2084 H 0.03040 -0.00784 0.37143
 H2085 H 0.04873 -0.00668 0.34147
 H2086 H 0.02822 -0.01487 0.40643
 H2087 H 0.06751 0.00235 0.31792
 H2088 H 0.06555 -0.00377 0.42719
 C2089 C 0.16446 1.08388 1.00562
 C2090 C 0.15887 1.06479 1.00266
 C2091 C 0.13846 1.05950 1.00316
 C2092 C 0.13401 1.04033 1.00765
 C2093 C 0.11491 1.03486 1.00836
 C2094 C 0.09981 1.04853 1.00456
 C2095 C 0.10430 1.06755 0.99954
 C2096 C 0.12339 1.07302 0.99882
 C2097 C 0.07937 1.04329 1.00478
 C2098 C 0.07278 1.02698 1.01423
 H2099 H 0.16964 1.05311 1.00103
 H2100 H 0.14536 1.02955 1.01068
 H2101 H 0.11218 1.01984 1.01153
 H2102 H 0.09299 1.07824 0.99613
 H2103 H 0.12624 1.08772 0.99451
 H2104 H 0.06913 1.05268 0.99718
 H2105 H 0.15352 1.09497 1.00924
 H2106 H 0.08255 1.01793 1.02269
 C2107 C 0.66534 0.58778 0.51604
 C2108 C 0.66033 0.56872 0.51910
 C2109 C 0.63998 0.56366 0.52097
 C2110 C 0.63551 0.54487 0.52683
 C2111 C 0.61638 0.53958 0.52816
 C2112 C 0.60135 0.55299 0.52343
 C2113 C 0.60582 0.57182 0.51775
 C2114 C 0.62491 0.57716 0.51660
 C2115 C 0.58108 0.54746 0.52324
 C2116 C 0.57550 0.52958 0.52997
 H2117 H 0.67151 0.55736 0.52035
 H2118 H 0.64685 0.53421 0.53027
 H2119 H 0.61342 0.52489 0.53250
 H2120 H 0.59450 0.58237 0.51399
 H2121 H 0.62782 0.59177 0.51195
 H2122 H 0.57044 0.55730 0.51674
 H2123 H 0.67719 0.58990 0.51455
 H2124 H 0.56439 0.52611 0.52820
 C2125 C 0.67766 0.42532 -0.01371
 C2126 C 0.66059 0.42120 -0.00412
 C2127 C 0.64185 0.43186 -0.00685
 C2128 C 0.62545 0.42411 0.00147
 C2129 C 0.60749 0.43372 -0.00006
 C2130 C 0.60543 0.45138 -0.01014
 C2131 C 0.62185 0.45924 -0.01837
 C2132 C 0.63988 0.44963 -0.01677
 C2133 C 0.58672 0.46245 -0.01145
 C2134 C 0.56905 0.45439 -0.00745
 H2135 H 0.66064 0.40888 0.00550
 H2136 H 0.62654 0.41060 0.00943
 H2137 H 0.59547 0.42740 0.00712
 H2138 H 0.62074 0.47296 -0.02596
 H2139 H 0.65215 0.45641 -0.02303
 H2140 H 0.58692 0.47764 -0.01550
 H2141 H 0.67756 0.43619 -0.02490
 H2142 H 0.56830 0.43905 -0.00432
 C2143 C 0.18066 -0.07296 0.49182
 C2144 C 0.16341 -0.07625 0.50138
 C2145 C 0.14576 -0.06371 0.49941
 C2146 C 0.13128 -0.06512 0.51342
 C2147 C 0.11411 -0.05408 0.51198
 C2148 C 0.11094 -0.04152 0.49629
 C2149 C 0.12551 -0.03981 0.48244
 C2150 C 0.14272 -0.05089 0.48386
 C2151 C 0.09267 -0.03011 0.49405
 C2152 C 0.07535 -0.03643 0.50138
 H2153 H 0.16263 -0.08856 0.51093
 H2154 H 0.13328 -0.07478 0.52560
 H2155 H 0.10347 -0.05529 0.52330
 H2156 H 0.12340 -0.03019 0.47024
 H2157 H 0.15327 -0.04964 0.47249
 H2158 H 0.09268 -0.01699 0.48547
 H2159 H 0.18154 -0.06083 0.48207
 H2160 H 0.07494 -0.05029 0.50865
 C2161 C 0.32353 -0.07243 0.50732
 C2162 C 0.34228 -0.07838 0.50220
 C2163 C 0.35900 -0.06581 0.50353
 C2164 C 0.37742 -0.07472 0.50202
 C2165 C 0.39371 -0.06357 0.50246
 C2166 C 0.39189 -0.04317 0.50420
 C2167 C 0.37353 -0.03423 0.50614
 C2168 C 0.35719 -0.04539 0.50566
 C2169 C 0.40888 -0.03098 0.50414
 C2170 C 0.42579 -0.03674 0.49446
 H2171 H 0.34502 -0.09304 0.49672
 H2172 H 0.37925 -0.09041 0.50050
 H2173 H 0.40766 -0.07105 0.50163
 H2174 H 0.37181 -0.01853 0.50759
 H2175 H 0.34331 -0.03782 0.50652
 H2176 H 0.40779 -0.01683 0.51122
 H2177 H 0.32043 -0.05772 0.51247
 H2178 H 0.42649 -0.05018 0.48614
 C2179 C -0.17040 0.41337 0.99547
 C2180 C -0.16673 0.43310 0.99346
 C2181 C -0.14696 0.44011 0.99176
 C2182 C -0.14323 0.45911 0.99792
 C2183 C -0.12462 0.46596 0.99692
 C2184 C -0.10940 0.45396 0.98952
 C2185 C -0.11325 0.43518 0.98284
 C2186 C -0.13183 0.42832 0.98388
 C2187 C -0.08943 0.46044 0.98883
 C2188 C -0.08438 0.47841 0.99612
 H2189 H -0.17843 0.44390 0.99436
 H2190 H -0.15468 0.46856 1.00383
 H2191 H -0.12217 0.48058 1.00207
 H2192 H -0.10183 0.42574 0.97688
 H2193 H -0.13427 0.41387 0.97830
 H2194 H -0.07827 0.45058 0.98297
 H2195 H -0.15832 0.40305 0.99677
 H2196 H -0.07296 0.48139 0.99606
 C2197 C -0.17745 0.57145 0.49243
 C2198 C -0.16009 0.57802 0.49961
 C2199 C -0.14097 0.56815 0.49664
 C2200 C -0.12565 0.57442 0.50790
 C2201 C -0.10730 0.56568 0.50593
 C2202 C -0.10373 0.55054 0.49240
 C2203 C -0.11903 0.54429 0.48108
 C2204 C -0.13746 0.55300 0.48310
 C2205 C -0.08461 0.54039 0.49027
 C2206 C -0.06764 0.54744 0.49788
 H2207 H -0.16041 0.59129 0.50819
 H2208 H -0.12793 0.58600 0.51850
 H2209 H -0.09619 0.57066 0.51538
 H2210 H -0.11672 0.53260 0.47059
 H2211 H -0.14872 0.54787 0.47392
 H2212 H -0.08394 0.52661 0.48249
 H2213 H -0.17760 0.55887 0.48295
 H2214 H -0.06760 0.56155 0.50491
 C2215 C 0.31800 1.06476 -0.01338
 C2216 C 0.33528 1.06999 -0.00490
 C2217 C 0.35422 1.05963 -0.00764
 C2218 C 0.36930 1.06500 0.00440
 C2219 C 0.38750 1.05591 0.00270
 C2220 C 0.39122 1.04131 -0.01137
 C2221 C 0.37613 1.03577 -0.02336
 C2222 C 0.35780 1.04486 -0.02159
 C2223 C 0.41037 1.03113 -0.01327
 C2224 C 0.42718 1.03891 -0.00613
 H2225 H 0.33503 1.08262 0.00458
 H2226 H 0.36695 1.07619 0.01540
 H2227 H 0.39839 1.06016 0.01277
 H2228 H 0.37855 1.02444 -0.03419
 H2229 H 0.34668 1.04032 -0.03127
 H2230 H 0.41122 1.01702 -0.02043
 H2231 H 0.31784 1.05302 -0.02387
 H2232 H 0.42681 1.05346 0.00001
 C2233 C -0.00108 1.17782 1.07122
 C2234 C 0.01594 1.16703 1.06722
 C2235 C 0.01582 1.14667 1.05993
 C2236 C 0.00099 1.13429 1.06487
 C2237 C 0.00106 1.11517 1.05781
 C2238 C 0.01608 1.10789 1.04581
 C2239 C 0.03101 1.12018 1.04106
 C2240 C 0.03099 1.13931 1.04824
 C2241 C 0.01604 1.08803 1.03723
 C2242 C 0.00576 1.07289 1.04507
 H2243 H 0.02968 1.17343 1.06951
 H2244 H -0.01065 1.13924 1.07435
 H2245 H -0.01092 1.10636 1.06148
 H2246 H 0.04271 1.11495 1.03176
 H2247 H 0.04268 1.14849 1.04439
 H2248 H 0.02443 1.08527 1.02419
 H2249 H -0.01460 1.17135 1.06788
 H2250 H -0.00145 1.07484 1.05888
 C2251 C 0.51005 0.68333 0.57881
 C2252 C 0.50051 0.66635 0.58321
 C2253 C 0.50246 0.64768 0.57221
 C2254 C 0.48849 0.63385 0.57519
 C2255 C 0.48978 0.61574 0.56585
 C2256 C 0.50535 0.61079 0.55349
 C2257 C 0.51917 0.62474 0.55014
 C2258 C 0.51782 0.64300 0.55947
 C2259 C 0.50723 0.59137 0.54380
 C2260 C 0.49892 0.57493 0.55146
 H2261 H 0.49079 0.66655 0.59543
 H2262 H 0.47639 0.63710 0.58476
 H2263 H 0.47838 0.60581 0.56825
 H2264 H 0.53122 0.62137 0.54057
 H2265 H 0.52905 0.65310 0.55694
 H2266 H 0.51566 0.58992 0.53063
 H2267 H 0.52021 0.68318 0.56693
 H2268 H 0.49168 0.57603 0.56531
 C2269 C 0.01318 0.67152 0.40795
 C2270 C 0.01284 0.66719 0.42764
 C2271 C 0.01332 0.64688 0.43488
 C2272 C 0.00539 0.64320 0.45309
 C2273 C 0.00496 0.62417 0.46012
 C2274 C 0.01260 0.60831 0.44905
 C2275 C 0.02102 0.61212 0.43108
 C2276 C 0.02146 0.63113 0.42408
 C2277 C 0.01227 0.58771 0.45555
 C2278 C 0.00342 0.58166 0.47252
 H2279 H 0.01045 0.67889 0.43806
 H2280 H -0.00077 0.65508 0.46182
 H2281 H -0.00140 0.62220 0.47417
 H2282 H 0.02729 0.60030 0.42234
 H2283 H 0.02837 0.63338 0.41030
 H2284 H 0.01930 0.57668 0.44637
 H2285 H 0.01352 0.65959 0.39761
 H2286 H -0.00381 0.59212 0.48208
 C2287 C 0.50980 1.16986 -0.08038
 C2288 C 0.49776 1.15438 -0.08313
 C2289 C 0.50067 1.13578 -0.07293
 C2290 C 0.48462 1.12560 -0.06712
 C2291 C 0.48700 1.10780 -0.05765
 C2292 C 0.50552 1.09972 -0.05425
 C2293 C 0.52156 1.10968 -0.06047
 C2294 C 0.51919 1.12770 -0.06954
 C2295 C 0.50833 1.08050 -0.04518
 C2296 C 0.49639 1.07436 -0.03044
 H2297 H 0.48506 1.15643 -0.09197
 H2298 H 0.47023 1.13148 -0.06983
 H2299 H 0.47438 1.10015 -0.05344
 H2300 H 0.53594 1.10354 -0.05822
 H2301 H 0.53179 1.13507 -0.07431
 H2302 H 0.52046 1.07121 -0.04983
 H2303 H 0.52088 1.16882 -0.06947
 H2304 H 0.48558 1.08439 -0.02426
 C2305 C 0.49959 0.31958 -0.06937
 C2306 C 0.48736 0.33596 -0.07194
 C2307 C 0.48971 0.35474 -0.06174
 C2308 C 0.48120 0.37170 -0.06964
 C2309 C 0.48338 0.38983 -0.06080
 C2310 C 0.49419 0.39136 -0.04377
 C2311 C 0.50222 0.37432 -0.03556
 C2312 C 0.50000 0.35618 -0.04439
 C2313 C 0.49695 0.41022 -0.03383
 C2314 C 0.49341 0.42836 -0.04234
 H2315 H 0.47660 0.33569 -0.08314
 H2316 H 0.47293 0.37096 -0.08282
 H2317 H 0.47633 0.40243 -0.06729
 H2318 H 0.51031 0.37503 -0.02226
 H2319 H 0.50619 0.34340 -0.03741
 H2320 H 0.50229 0.40976 -0.01915
 H2321 H 0.51167 0.32046 -0.05970
 H2322 H 0.48874 0.42941 -0.05717
 C2323 C -0.00222 -0.17088 0.41653
 C2324 C 0.01362 -0.16020 0.42179
 C2325 C 0.01180 -0.13943 0.42790
 C2326 C 0.02575 -0.13184 0.44007
 C2327 C 0.02451 -0.11227 0.44594
 C2328 C 0.00934 -0.09981 0.43957
 C2329 C -0.00422 -0.10723 0.42684
 C2330 C -0.00308 -0.12684 0.42111
 C2331 C 0.00737 -0.07909 0.44575
 C2332 C 0.01390 -0.07259 0.46361
 H2333 H 0.02788 -0.16703 0.42140
 H2334 H 0.03758 -0.14112 0.44515
 H2335 H 0.03561 -0.10690 0.45523
 H2336 H -0.01585 -0.09787 0.42146
 H2337 H -0.01366 -0.13194 0.41107
 H2338 H -0.00074 -0.06900 0.43667
 H2339 H -0.01642 -0.16395 0.41780
 H2340 H 0.02054 -0.08294 0.47349
 C2341 C 0.49374 -0.16291 0.58498
 C2342 C 0.50232 -0.15827 0.56740
 C2343 C 0.50251 -0.13802 0.56014
 C2344 C 0.50422 -0.13490 0.54021
 C2345 C 0.50462 -0.11596 0.53293
 C2346 C 0.50345 -0.09974 0.54554
 C2347 C 0.50229 -0.10291 0.56549
 C2348 C 0.50180 -0.12180 0.57274
 C2349 C 0.50382 -0.07940 0.53860
 C2350 C 0.49868 -0.07381 0.51992
 H2351 H 0.50909 -0.16963 0.55851
 H2352 H 0.50517 -0.14715 0.53023
 H2353 H 0.50617 -0.11418 0.51751
 H2354 H 0.50170 -0.09070 0.57554
 H2355 H 0.50129 -0.12359 0.58824
 H2356 H 0.50714 -0.06817 0.54903
 H2357 H 0.48632 -0.15139 0.59319
 H2358 H 0.49410 -0.08456 0.50959
 C2359 C -0.00796 0.33285 1.08481
 C2360 C -0.00409 0.33852 1.06584
 C2361 C -0.00439 0.35931 1.06024
 C2362 C -0.00908 0.36437 1.04122
 C2363 C -0.00973 0.38388 1.03556
 C2364 C -0.00562 0.39877 1.04887
 C2365 C -0.00034 0.39363 1.06772
 C2366 C 0.00030 0.37413 1.07338
 C2367 C -0.00572 0.41960 1.04341
 C2368 C -0.01522 0.42702 1.02721
 H2369 H -0.00192 0.32784 1.05440
 H2370 H -0.01237 0.35320 1.03073
 H2371 H -0.01309 0.38707 1.02067
 H2372 H 0.00333 0.40474 1.07813
 H2373 H 0.00479 0.37075 1.08794
 H2374 H 0.00214 0.42945 1.05246
 H2375 H -0.01185 0.34443 1.09503
 H2376 H -0.02385 0.41768 1.01844
 C2377 C 0.75037 0.33420 0.07470
 C2378 C 0.74856 0.31439 0.07875
 C2379 C 0.74888 0.30673 0.09874
 C2380 C 0.75467 0.28719 0.10170
 C2381 C 0.75537 0.27953 0.12035
 C2382 C 0.75005 0.29115 0.13646
 C2383 C 0.74404 0.31071 0.13348
 C2384 C 0.74332 0.31835 0.11483
 C2385 C 0.75129 0.28236 0.15597
 C2386 C 0.74280 0.29069 0.17261
 H2387 H 0.74802 0.30381 0.06715
 H2388 H 0.75889 0.27787 0.08957
 H2389 H 0.76007 0.26443 0.12217
 H2390 H 0.74005 0.32032 0.14541
 H2391 H 0.73818 0.33331 0.11315
 H2392 H 0.75879 0.26829 0.15714
 H2393 H 0.75252 0.34396 0.08680
 H2394 H 0.73445 0.30427 0.17187
 C2395 C 0.25762 0.82501 0.56963
 C2396 C 0.26005 0.83168 0.58863
 C2397 C 0.26044 0.81890 0.60577
 C2398 C 0.25748 0.82761 0.62402
 C2399 C 0.25749 0.81633 0.64067
 C2400 C 0.26038 0.79597 0.63944
 C2401 C 0.26400 0.78728 0.62130
 C2402 C 0.26402 0.79858 0.60459
 C2403 C 0.26008 0.78358 0.65682
 C2404 C 0.25010 0.78924 0.67360
 H2405 H 0.26108 0.84704 0.59161
 H2406 H 0.25507 0.84325 0.62541
 H2407 H 0.25548 0.82372 0.65444
 H2408 H 0.26667 0.77166 0.62003
 H2409 H 0.26710 0.79131 0.59095
 H2410 H 0.26730 0.76931 0.65610
 H2411 H 0.25624 0.80954 0.56725
 H2412 H 0.24172 0.80285 0.67404
 C2413 C 0.75769 0.66279 0.58310
 C2414 C 0.76191 0.68207 0.58753
 C2415 C 0.76284 0.68919 0.60778
 C2416 C 0.75790 0.70878 0.61192
 C2417 C 0.75766 0.71571 0.63098
 C2418 C 0.76243 0.70312 0.64634
 C2419 C 0.76829 0.68378 0.64208
 C2420 C 0.76850 0.67684 0.62303
 C2421 C 0.76175 0.70975 0.66679
 C2422 C 0.75012 0.72556 0.67314
 H2423 H 0.76310 0.69270 0.57623
 H2424 H 0.75389 0.71869 0.60040
 H2425 H 0.75388 0.73095 0.63354
 H2426 H 0.77247 0.67390 0.65358
 H2427 H 0.77322 0.66186 0.62032
 H2428 H 0.77013 0.70149 0.67727
 H2429 H 0.75505 0.65325 0.59512
 H2430 H 0.74088 0.73330 0.66302
 C2431 C 0.25077 0.15582 0.07961
 C2432 C 0.25413 0.17527 0.08424
 C2433 C 0.25354 0.18280 0.10441
 C2434 C 0.24919 0.20267 0.10768
 C2435 C 0.24788 0.21023 0.12649
 C2436 C 0.25089 0.19800 0.14250
 C2437 C 0.25600 0.17827 0.13920
 C2438 C 0.25735 0.17072 0.12038
 C2439 C 0.24935 0.20532 0.16271
 C2440 C 0.23943 0.22267 0.16789
 H2441 H 0.25594 0.18581 0.07296
 H2442 H 0.24658 0.21237 0.09564
 H2443 H 0.24473 0.22568 0.12827
 H2444 H 0.25884 0.16862 0.15123
 H2445 H 0.26160 0.15550 0.11850
 H2446 H 0.25594 0.19652 0.17398
 H2447 H 0.24774 0.14616 0.09142
 H2448 H 0.23203 0.23128 0.15703
 C2449 C 0.24331 0.16203 0.92608
 C2450 C 0.25883 0.16941 0.91594
 C2451 C 0.25702 0.17637 0.89578
 C2452 C 0.26964 0.19022 0.88904
 C2453 C 0.26831 0.19708 0.87010
 C2454 C 0.25430 0.19012 0.85746
 C2455 C 0.24213 0.17578 0.86402
 C2456 C 0.24344 0.16897 0.88295
 C2457 C 0.25226 0.19709 0.83733
 C2458 C 0.25853 0.21511 0.83131
 H2459 H 0.27261 0.17073 0.92281
 H2460 H 0.28050 0.19584 0.89849
 H2461 H 0.27848 0.20756 0.86542
 H2462 H 0.23148 0.16989 0.85448
 H2463 H 0.23400 0.15766 0.88730
 H2464 H 0.24474 0.18812 0.82713
 H2465 H 0.22944 0.16272 0.91906
 H2466 H 0.26500 0.22479 0.84159
 C2467 C 0.74916 0.66220 0.42758
 C2468 C 0.76508 0.66862 0.41735
 C2469 C 0.76390 0.67472 0.39686
 C2470 C 0.77735 0.68756 0.38975
 C2471 C 0.77637 0.69403 0.37068
 C2472 C 0.76186 0.68776 0.35825
 C2473 C 0.74901 0.67418 0.36507
 C2474 C 0.74999 0.66769 0.38415
 C2475 C 0.75961 0.69520 0.33830
 C2476 C 0.76588 0.71339 0.33286
 H2477 H 0.77876 0.66990 0.42441
 H2478 H 0.78850 0.69281 0.39908
 H2479 H 0.78709 0.70384 0.36576
 H2480 H 0.73797 0.66879 0.35570
 H2481 H 0.73993 0.65706 0.38874
 H2482 H 0.75137 0.68690 0.32812
 H2483 H 0.73551 0.66244 0.42017
 H2484 H 0.77295 0.72241 0.34331
 C2485 C 0.25692 0.83152 0.42155
 C2486 C 0.24248 0.82014 0.41392
 C2487 C 0.24321 0.81217 0.39396
 C2488 C 0.23255 0.79584 0.38948
 C2489 C 0.23270 0.78803 0.37075
 C2490 C 0.24354 0.79650 0.35605
 C2491 C 0.25384 0.81310 0.36047
 C2492 C 0.25365 0.82091 0.37916
 C2493 C 0.24445 0.78884 0.33596
 C2494 C 0.23718 0.77111 0.32999
 H2495 H 0.23044 0.81622 0.42273
 H2496 H 0.22411 0.78905 0.40055
 H2497 H 0.22416 0.77554 0.36802
 H2498 H 0.26208 0.82011 0.34939
 H2499 H 0.26140 0.83399 0.38178
 H2500 H 0.25175 0.79744 0.32536
 H2501 H 0.26958 0.83344 0.41274
 H2502 H 0.23011 0.76185 0.34010
 C2503 C 0.75156 0.32849 0.92150
 C2504 C 0.73589 0.32013 0.91247
 C2505 C 0.73671 0.31330 0.89206
 C2506 C 0.72439 0.29882 0.88595
 C2507 C 0.72480 0.29211 0.86679
 C2508 C 0.73756 0.29985 0.85329
 C2509 C 0.74941 0.31476 0.85928
 C2510 C 0.74900 0.32145 0.87841
 C2511 C 0.73879 0.29310 0.83287
 C2512 C 0.73215 0.27529 0.82637
 H2513 H 0.72275 0.31800 0.92036
 H2514 H 0.71448 0.29261 0.89607
 H2515 H 0.71491 0.28109 0.86267
 H2516 H 0.75911 0.32125 0.84913
 H2517 H 0.75811 0.33324 0.88229
 H2518 H 0.74617 0.30213 0.82270
 H2519 H 0.76493 0.32857 0.91345
 H2520 H 0.72557 0.26553 0.83636
 C2521 C 0.84046 0.41850 0.24723
 C2522 C 0.82079 0.41597 0.24763
 C2523 C 0.81296 0.39631 0.24760
 C2524 C 0.79310 0.39432 0.24568
 C2525 C 0.78533 0.37587 0.24577
 C2526 C 0.79735 0.35909 0.24793
 C2527 C 0.81719 0.36109 0.24994
 C2528 C 0.82495 0.37949 0.24971
 C2529 C 0.78975 0.33936 0.24829
 C2530 C 0.77079 0.33577 0.24400
 H2531 H 0.81090 0.42857 0.24791
 H2532 H 0.78358 0.40707 0.24408
 H2533 H 0.76995 0.37479 0.24427
 H2534 H 0.82672 0.34838 0.25166
 H2535 H 0.84033 0.38050 0.25134
 H2536 H 0.79953 0.32716 0.25158
 H2537 H 0.84428 0.42953 0.24773
 H2538 H 0.76686 0.32454 0.24415
 C2539 C 0.34220 0.91399 0.74220
 C2540 C 0.32283 0.91042 0.74419
 C2541 C 0.31606 0.89027 0.74415
 C2542 C 0.29628 0.88719 0.74371
 C2543 C 0.28954 0.86827 0.74387
 C2544 C 0.30253 0.85206 0.74464
 C2545 C 0.32229 0.85514 0.74517
 C2546 C 0.32902 0.87401 0.74485
 C2547 C 0.29596 0.83187 0.74509
 C2548 C 0.27695 0.82753 0.74191
 H2549 H 0.31244 0.92253 0.74581
 H2550 H 0.28601 0.89946 0.74322
 H2551 H 0.27419 0.86640 0.74354
 H2552 H 0.33256 0.84289 0.74580
 H2553 H 0.34437 0.87582 0.74533
 H2554 H 0.30640 0.82003 0.74759
 H2555 H 0.34528 0.92534 0.74286
 H2556 H 0.27365 0.81608 0.74230
 C2557 C 0.18656 0.92710 0.26336
 C2558 C 0.18003 0.90950 0.27055
 C2559 C 0.19162 0.89091 0.27121
 C2560 C 0.18180 0.87368 0.27385
 C2561 C 0.19161 0.85559 0.27345
 C2562 C 0.21157 0.85426 0.27041
 C2563 C 0.22164 0.87146 0.26878
 C2564 C 0.21177 0.88967 0.26905
 C2565 C 0.22190 0.83506 0.26869
 C2566 C 0.21320 0.81924 0.26011
 H2567 H 0.16533 0.90871 0.27534
 H2568 H 0.16635 0.87417 0.27585
 H2569 H 0.18350 0.84264 0.27551
 H2570 H 0.23708 0.87078 0.26678
 H2571 H 0.22002 0.90255 0.26755
 H2572 H 0.23678 0.83366 0.27313
 H2573 H 0.20165 0.92801 0.25991
 H2574 H 0.19900 0.82131 0.25399
 C2575 C 0.68106 0.43170 0.76147
 C2576 C 0.67408 0.41424 0.76858
 C2577 C 0.68477 0.39516 0.76761
 C2578 C 0.67424 0.37822 0.76894
 C2579 C 0.68344 0.35982 0.76791
 C2580 C 0.70348 0.35792 0.76556
 C2581 C 0.71414 0.37482 0.76489
 C2582 C 0.70490 0.39331 0.76583
 C2583 C 0.71353 0.33856 0.76413
 C2584 C 0.70469 0.32222 0.75671
 H2585 H 0.65963 0.41381 0.77413
 H2586 H 0.65876 0.37921 0.77065
 H2587 H 0.67481 0.34715 0.76923
 H2588 H 0.72963 0.37372 0.76342
 H2589 H 0.71360 0.40598 0.76542
 H2590 H 0.72857 0.33737 0.76804
 H2591 H 0.69542 0.43137 0.75541
 H2592 H 0.69022 0.32367 0.75113
 C2593 C 0.67311 0.58376 0.74154
 C2594 C 0.68784 0.59161 0.75246
 C2595 C 0.69309 0.61219 0.75080
 C2596 C 0.71204 0.61716 0.75458
 C2597 C 0.71727 0.63658 0.75382
 C2598 C 0.70353 0.65146 0.74951
 C2599 C 0.68449 0.64654 0.74613
 C2600 C 0.67931 0.62709 0.74663
 C2601 C 0.70851 0.67220 0.74933
 C2602 C 0.72673 0.67808 0.74410
 H2603 H 0.69644 0.58249 0.76198
 H2604 H 0.72282 0.60598 0.75816
 H2605 H 0.73195 0.63993 0.75711
 H2606 H 0.67360 0.65779 0.74309
 H2607 H 0.66443 0.62382 0.74427
 H2608 H 0.69734 0.68316 0.75276
 H2609 H 0.66678 0.59279 0.73030
 H2610 H 0.73740 0.66734 0.73891
 C2611 C 0.17747 0.07439 0.23769
 C2612 C 0.17595 0.09113 0.24948
 C2613 C 0.18535 0.10968 0.24533
 C2614 C 0.17870 0.12654 0.25528
 C2615 C 0.18699 0.14441 0.25216
 C2616 C 0.20219 0.14593 0.23886
 C2617 C 0.20920 0.12902 0.22920
 C2618 C 0.20087 0.11105 0.23233
 C2619 C 0.21148 0.16472 0.23558
 C2620 C 0.20203 0.18270 0.23929
 H2621 H 0.16677 0.09136 0.26208
 H2622 H 0.16702 0.12591 0.26562
 H2623 H 0.18167 0.15685 0.26057
 H2624 H 0.22115 0.12970 0.21918
 H2625 H 0.20691 0.09836 0.22480
 H2626 H 0.22615 0.16437 0.23028
 H2627 H 0.18624 0.07490 0.22479
 H2628 H 0.18701 0.18322 0.24340
 C2629 C 0.34063 0.07176 0.75590
 C2630 C 0.32909 0.08134 0.74223
 C2631 C 0.32242 0.10185 0.74514
 C2632 C 0.30366 0.10772 0.73997
 C2633 C 0.29710 0.12706 0.74277
 C2634 C 0.30939 0.14094 0.75036
 C2635 C 0.32834 0.13519 0.75494
 C2636 C 0.33475 0.11575 0.75259
 C2637 C 0.30290 0.16155 0.75279
 C2638 C 0.28432 0.16682 0.75893
 H2639 H 0.32365 0.07359 0.72988
 H2640 H 0.29402 0.09728 0.73397
 H2641 H 0.28255 0.13124 0.73862
 H2642 H 0.33811 0.14572 0.76054
 H2643 H 0.34945 0.11166 0.75626
 H2644 H 0.31310 0.17275 0.75019
 H2645 H 0.34316 0.07952 0.76932
 H2646 H 0.27480 0.15558 0.76339
 C2647 C 0.82816 0.57056 0.25895
 C2648 C 0.82522 0.58526 0.24524
 C2649 C 0.81413 0.60376 0.24914
 C2650 C 0.81728 0.61964 0.23709
 C2651 C 0.80767 0.63758 0.24038
 C2652 C 0.79468 0.64010 0.25591
 C2653 C 0.79094 0.62405 0.26753
 C2654 C 0.80056 0.60604 0.26424
 C2655 C 0.78449 0.65904 0.25993
 C2656 C 0.79169 0.67673 0.25410
 H2657 H 0.83212 0.58404 0.23128
 H2658 H 0.82736 0.61821 0.22514
 H2659 H 0.81032 0.64931 0.23052
 H2660 H 0.78066 0.62551 0.27931
 H2661 H 0.79710 0.59402 0.27342
 H2662 H 0.77116 0.65909 0.26808
 H2663 H 0.82112 0.57238 0.27285
 H2664 H 0.80557 0.67701 0.24705
 C2665 C 0.91206 0.25440 0.15484
 C2666 C 0.90621 0.25065 0.17375
 C2667 C 0.88569 0.25123 0.17950
 C2668 C 0.88071 0.25594 0.19867
 C2669 C 0.86148 0.25687 0.20455
 C2670 C 0.84678 0.25305 0.19131
 C2671 C 0.85182 0.24770 0.17230
 C2672 C 0.87106 0.24680 0.16641
 C2673 C 0.82627 0.25357 0.19709
 C2674 C 0.81922 0.26417 0.21307
 H2675 H 0.91666 0.24842 0.18507
 H2676 H 0.89173 0.25902 0.20912
 H2677 H 0.85830 0.26022 0.21955
 H2678 H 0.84082 0.24423 0.16195
 H2679 H 0.87439 0.24230 0.15171
 H2680 H 0.81645 0.24522 0.18857
 H2681 H 0.90096 0.25830 0.14451
 H2682 H 0.82861 0.27336 0.22114
 C2683 C 0.42912 0.76073 0.67794
 C2684 C 0.41040 0.76478 0.67115
 C2685 C 0.39259 0.76511 0.68317
 C2686 C 0.37534 0.77187 0.67464
 C2687 C 0.35793 0.77162 0.68473
 C2688 C 0.35727 0.76447 0.70366
 C2689 C 0.37453 0.75827 0.71249
 C2690 C 0.39201 0.75841 0.70234
 C2691 C 0.33879 0.76310 0.71428
 C2692 C 0.32160 0.75967 0.70476
 H2693 H 0.40827 0.76841 0.65617
 H2694 H 0.37527 0.77727 0.65998
 H2695 H 0.34502 0.77711 0.67764
 H2696 H 0.37441 0.75278 0.72711
 H2697 H 0.40481 0.75287 0.70951
 H2698 H 0.33902 0.76303 0.72993
 H2699 H 0.43108 0.75862 0.69327
 H2700 H 0.32171 0.75774 0.68922
 C2701 C 0.42143 0.25317 0.83583
 C2702 C 0.40679 0.23986 0.83712
 C2703 C 0.38794 0.24304 0.82772
 C2704 C 0.37809 0.22683 0.82126
 C2705 C 0.36005 0.22924 0.81270
 C2706 C 0.35137 0.24795 0.81075
 C2707 C 0.36096 0.26414 0.81770
 C2708 C 0.37919 0.26175 0.82596
 C2709 C 0.33213 0.25072 0.80206
 C2710 C 0.32618 0.23895 0.78689
 H2711 H 0.40944 0.22590 0.84389
 H2712 H 0.38442 0.21225 0.82276
 H2713 H 0.35276 0.21642 0.80800
 H2714 H 0.35439 0.27866 0.81659
 H2715 H 0.38621 0.27448 0.83134
 H2716 H 0.32285 0.26279 0.80706
 H2717 H 0.41911 0.26557 0.82643
 H2718 H 0.33623 0.22825 0.78052
 C2719 C 0.92505 0.75104 0.33071
 C2720 C 0.90764 0.74701 0.33977
 C2721 C 0.88878 0.74894 0.33010
 C2722 C 0.88680 0.74775 0.30991
 C2723 C 0.86864 0.74955 0.30146
 C2724 C 0.85208 0.75232 0.31306
 C2725 C 0.85413 0.75349 0.33318
 C2726 C 0.87225 0.75169 0.34161
 C2727 C 0.83249 0.75416 0.30494
 C2728 C 0.82770 0.74826 0.28628
 H2729 H 0.90726 0.74361 0.35495
 H2730 H 0.89914 0.74515 0.30056
 H2731 H 0.86777 0.74891 0.28589
 H2732 H 0.84163 0.75564 0.34246
 H2733 H 0.87335 0.75257 0.35720
 H2734 H 0.82107 0.75947 0.31456
 H2735 H 0.92456 0.75606 0.31593
 H2736 H 0.83855 0.74210 0.27654
 C2737 C 0.06879 0.75981 0.31291
 C2738 C 0.08331 0.77325 0.31420
 C2739 C 0.10122 0.77097 0.30275
 C2740 C 0.11857 0.77565 0.31146
 C2741 C 0.13595 0.77235 0.30165
 C2742 C 0.13626 0.76462 0.28278
 C2743 C 0.11885 0.76097 0.27362
 C2744 C 0.10142 0.76392 0.28359
 C2745 C 0.15468 0.76020 0.27274
 C2746 C 0.17023 0.75183 0.28266
 H2747 H 0.08312 0.78407 0.32563
 H2748 H 0.11872 0.78134 0.32611
 H2749 H 0.14918 0.77581 0.30885
 H2750 H 0.11879 0.75529 0.25896
 H2751 H 0.08817 0.76070 0.27635
 H2752 H 0.15575 0.76271 0.25735
 H2753 H 0.07070 0.74808 0.30239
 H2754 H 0.16830 0.74754 0.29755
 C2755 C 0.57186 0.25342 0.83065
 C2756 C 0.58093 0.23897 0.81907
 C2757 C 0.60125 0.24010 0.81315
 C2758 C 0.60704 0.23325 0.79481
 C2759 C 0.62623 0.23408 0.78899
 C2760 C 0.64001 0.24140 0.80161
 C2761 C 0.63434 0.24762 0.82020
 C2762 C 0.61507 0.24718 0.82588
 C2763 C 0.66035 0.24234 0.79575
 C2764 C 0.66551 0.24732 0.77703
 H2765 H 0.57302 0.22704 0.81329
 H2766 H 0.59667 0.22744 0.78492
 H2767 H 0.63032 0.22871 0.77474
 H2768 H 0.64478 0.25307 0.83023
 H2769 H 0.61107 0.25203 0.84033
 H2770 H 0.67137 0.24027 0.80661
 H2771 H 0.57974 0.26643 0.83356
 H2772 H 0.65440 0.25142 0.76678
 C2773 C 0.57999 0.76269 0.66585
 C2774 C 0.59130 0.74723 0.67340
 C2775 C 0.61145 0.74932 0.67987
 C2776 C 0.61948 0.73551 0.69262
 C2777 C 0.63833 0.73693 0.69918
 C2778 C 0.64966 0.75231 0.69314
 C2779 C 0.64189 0.76571 0.67984
 C2780 C 0.62303 0.76427 0.67325
 C2781 C 0.66957 0.75464 0.70021
 C2782 C 0.67609 0.74687 0.71766
 H2783 H 0.58532 0.73310 0.67524
 H2784 H 0.61109 0.72358 0.69762
 H2785 H 0.64397 0.72579 0.70877
 H2786 H 0.65040 0.77746 0.67464
 H2787 H 0.61778 0.77475 0.66277
 H2788 H 0.67900 0.76363 0.69197
 H2789 H 0.58624 0.77685 0.66530
 H2790 H 0.66640 0.73897 0.72665
 C2791 C 0.06261 0.24604 0.17221
 C2792 C 0.07644 0.26021 0.17444
 C2793 C 0.09511 0.25713 0.18440
 C2794 C 0.10937 0.27059 0.18106
 C2795 C 0.12728 0.26855 0.18988
 C2796 C 0.13143 0.25289 0.20230
 C2797 C 0.11706 0.23964 0.20607
 C2798 C 0.09907 0.24166 0.19717
 C2799 C 0.15027 0.25049 0.21201
 C2800 C 0.16706 0.25806 0.20455
 H2801 H 0.07423 0.27431 0.16794
 H2802 H 0.10666 0.28281 0.17153
 H2803 H 0.13765 0.27951 0.18717
 H2804 H 0.11980 0.22765 0.21586
 H2805 H 0.08838 0.23125 0.20061
 H2806 H 0.15102 0.24213 0.22520
 H2807 H 0.06514 0.23209 0.17907
 H2808 H 0.16683 0.26510 0.19063
 C2809 C -0.06575 1.00115 0.82203
 C2810 C -0.06915 0.98953 0.83811
 C2811 C -0.05897 0.99163 0.85666
 C2812 C -0.06857 0.98709 0.87380
 C2813 C -0.05941 0.98853 0.89162
 C2814 C -0.04030 0.99429 0.89263
 C2815 C -0.03050 0.99836 0.87546
 C2816 C -0.03979 0.99722 0.85761
 C2817 C -0.03024 0.99539 0.91135
 C2818 C -0.03990 1.00078 0.92841
 H2819 H -0.08086 0.97971 0.83802
 H2820 H -0.08325 0.98247 0.87341
 H2821 H -0.06718 0.98469 0.90453
 H2822 H -0.01568 1.00254 0.87589
 H2823 H -0.03183 1.00027 0.84459
 H2824 H -0.01484 0.99250 0.91161
 H2825 H -0.05563 1.01263 0.82363
 H2826 H -0.05488 1.00559 0.92783
 C2827 C 0.41887 0.48641 0.33824
 C2828 C 0.43577 0.49464 0.34456
 C2829 C 0.44072 0.49634 0.36530
 C2830 C 0.46007 0.49742 0.37054
 C2831 C 0.46525 0.49907 0.38996
 C2832 C 0.45109 0.49979 0.40457
 C2833 C 0.43171 0.49943 0.39929
 C2834 C 0.42654 0.49768 0.37988
 C2835 C 0.45603 0.50127 0.42532
 C2836 C 0.47356 0.49420 0.43263
 H2837 H 0.44585 0.50001 0.33414
 H2838 H 0.47123 0.49686 0.35956
 H2839 H 0.48031 0.50006 0.39339
 H2840 H 0.42053 0.50034 0.41024
 H2841 H 0.41142 0.49775 0.37640
 H2842 H 0.44513 0.50704 0.43528
 H2843 H 0.40926 0.48057 0.34885
 H2844 H 0.48400 0.48708 0.42301
 C2845 C 0.57588 0.00262 0.32438
 C2846 C 0.56787 0.01915 0.33385
 C2847 C 0.56295 0.01947 0.35472
 C2848 C 0.54987 0.03392 0.36179
 C2849 C 0.54472 0.03461 0.38134
 C2850 C 0.55258 0.02075 0.39425
 C2851 C 0.56631 0.00687 0.38735
 C2852 C 0.57150 0.00622 0.36784
 C2853 C 0.54654 0.01996 0.41478
 C2854 C 0.52881 0.02754 0.42137
 H2855 H 0.56517 0.03252 0.32606
 H2856 H 0.54347 0.04463 0.35211
 H2857 H 0.53468 0.04606 0.38618
 H2858 H 0.57284 -0.00374 0.39705
 H2859 H 0.58237 -0.00455 0.36326
 H2860 H 0.55540 0.01127 0.42453
 H2861 H 0.57757 -0.01070 0.33255
 H2862 H 0.51923 0.03528 0.41160
 C2863 C 0.07806 0.49908 0.82244
 C2864 C 0.08234 0.51048 0.83855
 C2865 C 0.07038 0.51124 0.85628
 C2866 C 0.07899 0.51571 0.87396
 C2867 C 0.06815 0.51651 0.89101
 C2868 C 0.04840 0.51305 0.89064
 C2869 C 0.03963 0.50931 0.87287
 C2870 C 0.05052 0.50829 0.85583
 C2871 C 0.03666 0.51341 0.90851
 C2872 C 0.04425 0.50755 0.92622
 H2873 H 0.09556 0.51823 0.83873
 H2874 H 0.09418 0.51842 0.87461
 H2875 H 0.07522 0.52008 0.90439
 H2876 H 0.02437 0.50691 0.87221
 H2877 H 0.04330 0.50549 0.84234
 H2878 H 0.02140 0.51688 0.90742
 H2879 H 0.06625 0.48933 0.82327
 H2880 H 0.05907 0.50222 0.92701
 C2881 C 0.06559 0.49016 0.67806
 C2882 C 0.07163 0.48149 0.66061
 C2883 C 0.05954 0.47961 0.64318
 C2884 C 0.06779 0.47018 0.62689
 C2885 C 0.05783 0.46945 0.60950
 C2886 C 0.03933 0.47820 0.60800
 C2887 C 0.03059 0.48672 0.62447
 C2888 C 0.04063 0.48760 0.64191
 C2889 C 0.02944 0.47944 0.58920
 C2890 C 0.03970 0.48257 0.57225
 H2891 H 0.08633 0.47580 0.65951
 H2892 H 0.08223 0.46373 0.62747
 H2893 H 0.06473 0.46225 0.59717
 H2894 H 0.01628 0.49344 0.62364
 H2895 H 0.03364 0.49499 0.65402
 H2896 H 0.01387 0.48022 0.58896
 H2897 H 0.05062 0.49423 0.68048
 H2898 H 0.05513 0.48390 0.57292
 C2899 C 0.58530 1.00812 0.16878
 C2900 C 0.56723 1.00164 0.16387
 C2901 C 0.56117 0.99991 0.14350
 C2902 C 0.54862 0.98534 0.13822
 C2903 C 0.54335 0.98282 0.11890
 C2904 C 0.55035 0.99511 0.10453
 C2905 C 0.56269 1.00984 0.10992
 C2906 C 0.56796 1.01232 0.12918
 C2907 C 0.54520 0.99327 0.08388
 C2908 C 0.52936 0.98342 0.07721
 H2909 H 0.55817 0.99578 0.17498
 H2910 H 0.54322 0.97560 0.14901
 H2911 H 0.53411 0.97106 0.11538
 H2912 H 0.56817 1.01961 0.09920
 H2913 H 0.57721 1.02409 0.13280
 H2914 H 0.55342 1.00138 0.07358
 H2915 H 0.59522 1.01161 0.15735
 H2916 H 0.52022 0.97603 0.08719
 C2917 C 0.44076 0.49941 0.18597
 C2918 C 0.43394 0.50905 0.16949
 C2919 C 0.44406 0.50906 0.15059
 C2920 C 0.43352 0.51478 0.13422
 C2921 C 0.44218 0.51486 0.11600
 C2922 C 0.46168 0.50917 0.11369
 C2923 C 0.47242 0.50405 0.13012
 C2924 C 0.46372 0.50393 0.14841
 C2925 C 0.47119 0.50873 0.09448
 C2926 C 0.46113 0.50617 0.07729
 H2927 H 0.41966 0.51586 0.16991
 H2928 H 0.41844 0.51914 0.13551
 H2929 H 0.43358 0.51965 0.10384
 H2930 H 0.48755 0.49993 0.12877
 H2931 H 0.47251 0.50000 0.16071
 H2932 H 0.48670 0.50932 0.09393
 H2933 H 0.45407 0.49075 0.18523
 H2934 H 0.44584 0.50396 0.07773
 C2935 C -0.06813 0.00568 0.67158
 C2936 C -0.07642 0.00697 0.65316
 C2937 C -0.06555 0.01095 0.63522
 C2938 C -0.07586 0.01703 0.61881
 C2939 C -0.06641 0.02033 0.60136
 C2940 C -0.04636 0.01745 0.59989
 C2941 C -0.03598 0.01173 0.61634
 C2942 C -0.04544 0.00833 0.63379
 C2943 C -0.03590 0.01992 0.58144
 C2944 C -0.04432 0.01704 0.56342
 H2945 H -0.09176 0.00604 0.65155
 H2946 H -0.09134 0.01923 0.61948
 H2947 H -0.07485 0.02525 0.58914
 H2948 H -0.02052 0.00939 0.61557
 H2949 H -0.03691 0.00321 0.64586
 H2950 H -0.02059 0.02202 0.58211
 H2951 H -0.05301 0.00834 0.67292
 H2952 H -0.05922 0.01327 0.56254
 C2953 C -0.16786 0.90507 1.01187
 C2954 C -0.16410 0.92412 1.00644
 C2955 C -0.14449 0.93178 1.00639
 C2956 C -0.14041 0.94733 0.99422
 C2957 C -0.12200 0.95477 0.99364
 C2958 C -0.10731 0.94692 1.00548
 C2959 C -0.11149 0.93150 1.01779
 C2960 C -0.12986 0.92408 1.01836
 C2961 C -0.08746 0.95398 1.00530
 C2962 C -0.08225 0.97176 0.99757
 H2963 H -0.17563 0.93336 1.00073
 H2964 H -0.15144 0.95356 0.98489
 H2965 H -0.11937 0.96638 0.98366
 H2966 H -0.10050 0.92524 1.02715
 H2967 H -0.13255 0.91252 1.02841
 H2968 H -0.07648 0.94498 1.01233
 H2969 H -0.15592 0.89518 1.01535
 H2970 H -0.09296 0.98158 0.99129
 C2971 C 0.33303 0.40561 0.49907
 C2972 C 0.33748 0.42365 0.50694
 C2973 C 0.35721 0.43082 0.50628
 C2974 C 0.35994 0.45094 0.50569
 C2975 C 0.37849 0.45803 0.50519
 C2976 C 0.39464 0.44506 0.50551
 C2977 C 0.39187 0.42498 0.50650
 C2978 C 0.37337 0.41790 0.50682
 C2979 C 0.41450 0.45187 0.50605
 C2980 C 0.41984 0.46994 0.49921
 H2981 H 0.32610 0.43324 0.51271
 H2982 H 0.34769 0.46117 0.50556
 H2983 H 0.38007 0.47363 0.50505
 H2984 H 0.40408 0.41472 0.50711
 H2985 H 0.37180 0.40234 0.50792
 H2986 H 0.42549 0.44198 0.51187
 H2987 H 0.34403 0.39731 0.49107
 H2988 H 0.40946 0.47949 0.49204
 C2989 C 0.31845 0.57204 0.00013
 C2990 C 0.33517 0.57961 0.00779
 C2991 C 0.35369 0.56846 0.01007
 C2992 C 0.37011 0.57883 0.01447
 C2993 C 0.38802 0.56918 0.01644
 C2994 C 0.38991 0.54884 0.01403
 C2995 C 0.37343 0.53838 0.01025
 C2996 C 0.35550 0.54804 0.00822
 C2997 C 0.40871 0.53810 0.01530
 C2998 C 0.42621 0.54666 0.01172
 H2999 H 0.33484 0.59476 0.01231
 H3000 H 0.36911 0.59453 0.01627
 H3001 H 0.40023 0.57771 0.02002
 H3002 H 0.37447 0.52267 0.00858
 H3003 H 0.34324 0.53935 0.00535
 H3004 H 0.40864 0.52249 0.01747
 H3005 H 0.31801 0.55679 -0.00372
 H3006 H 0.42654 0.56194 0.00816
 C3007 C -0.17992 0.07613 0.48729
 C3008 C -0.16217 0.08378 0.49178
 C3009 C -0.14365 0.07241 0.49108
 C3010 C -0.12660 0.08259 0.49046
 C3011 C -0.10874 0.07261 0.49034
 C3012 C -0.10754 0.05213 0.49088
 C3013 C -0.12457 0.04194 0.49178
 C3014 C -0.14247 0.05193 0.49184
 C3015 C -0.08889 0.04104 0.49155
 C3016 C -0.07162 0.04850 0.48522
 H3017 H -0.16158 0.09894 0.49601
 H3018 H -0.12710 0.09838 0.49017
 H3019 H -0.09598 0.08107 0.49035
 H3020 H -0.12403 0.02617 0.49255
 H3021 H -0.15520 0.04351 0.49297
 H3022 H -0.08882 0.02632 0.49705
 H3023 H -0.18065 0.06094 0.48322
 H3024 H -0.07152 0.06260 0.47840
 C3025 C 0.67099 0.07650 0.49578
 C3026 C 0.65357 0.08387 0.48839
 C3027 C 0.63564 0.07307 0.48860
 C3028 C 0.61801 0.08362 0.48745
 C3029 C 0.60074 0.07399 0.48715
 C3030 C 0.60078 0.05353 0.48786
 C3031 C 0.61842 0.04295 0.48857
 C3032 C 0.63571 0.05260 0.48902
 C3033 C 0.58279 0.04284 0.48730
 C3034 C 0.56525 0.05081 0.49407
 H3035 H 0.65270 0.09867 0.48312
 H3036 H 0.61761 0.09939 0.48677
 H3037 H 0.58746 0.08260 0.48595
 H3038 H 0.61882 0.02717 0.48883
 H3039 H 0.64904 0.04397 0.48927
 H3040 H 0.58362 0.02780 0.48237
 H3041 H 0.67145 0.06280 0.50340
 H3042 H 0.56450 0.06520 0.50061
 C3043 C 0.16816 0.58532 0.99587
 C3044 C 0.16150 0.57089 1.00810
 C3045 C 0.14147 0.56462 1.00704
 C3046 C 0.13750 0.54507 1.01032
 C3047 C 0.11867 0.53882 1.00908
 C3048 C 0.10344 0.55216 1.00483
 C3049 C 0.10736 0.57183 1.00223
 C3050 C 0.12619 0.57801 1.00320
 C3051 C 0.08333 0.54620 1.00369
 C3052 C 0.07834 0.52757 0.99787
 H3053 H 0.17111 0.56298 1.01770
 H3054 H 0.14902 0.53457 1.01361
 H3055 H 0.11605 0.52366 1.01178
 H3056 H 0.09582 0.58243 0.99928
 H3057 H 0.12872 0.59332 1.00123
 H3058 H 0.07203 0.55717 1.00658
 H3059 H 0.15827 0.59059 0.98485
 H3060 H 0.08942 0.51694 0.99337
 C3061 C 0.18235 0.42136 0.50100
 C3062 C 0.16427 0.41500 0.50631
 C3063 C 0.14634 0.42733 0.50588
 C3064 C 0.12875 0.41807 0.50554
 C3065 C 0.11141 0.42896 0.50526
 C3066 C 0.11128 0.44944 0.50537
 C3067 C 0.12883 0.45874 0.50618
 C3068 C 0.14623 0.44782 0.50636
 C3069 C 0.09313 0.46139 0.50532
 C3070 C 0.07613 0.45477 0.49751
 H3071 H 0.16289 0.40005 0.51069
 H3072 H 0.12842 0.40231 0.50548
 H3073 H 0.09817 0.42125 0.50535
 H3074 H 0.12907 0.47450 0.50661
 H3075 H 0.15942 0.45553 0.50724
 H3076 H 0.09336 0.47614 0.51101
 H3077 H 0.18396 0.43638 0.49696
 H3078 H 0.07605 0.44068 0.49038
 C3079 C 0.68182 0.92274 0.01305
 C3080 C 0.66507 0.91919 0.00276
 C3081 C 0.64658 0.93057 0.00495
 C3082 C 0.63220 0.92754 -0.00874
 C3083 C 0.61426 0.93724 -0.00714
 C3084 C 0.61013 0.95008 0.00843
 C3085 C 0.62460 0.95347 0.02194
 C3086 C 0.64262 0.94374 0.02033
 C3087 C 0.59107 0.96034 0.01062
 C3088 C 0.57438 0.95296 0.00283
 H3089 H 0.66523 0.90711 -0.00739
 H3090 H 0.63485 0.91762 -0.02082
 H3091 H 0.60380 0.93478 -0.01830
 H3092 H 0.62183 0.96341 0.03397
 H3093 H 0.65312 0.94638 0.03138
 H3094 H 0.59012 0.97383 0.01888
 H3095 H 0.68182 0.93440 0.02364
 H3096 H 0.57499 0.93886 -0.00432
 C3097 C -0.01440 0.82141 0.92606
 C3098 C -0.01530 0.84099 0.92057
 C3099 C -0.01818 0.85768 0.93417
 C3100 C -0.02367 0.87590 0.92652
 C3101 C -0.02488 0.89250 0.93829
 C3102 C -0.02040 0.89131 0.95802
 C3103 C -0.01577 0.87300 0.96595
 C3104 C -0.01449 0.85631 0.95412
 C3105 C -0.01971 0.90912 0.97018
 C3106 C -0.01320 0.92638 0.96252
 H3107 H -0.01462 0.84461 0.90544
 H3108 H -0.02675 0.87737 0.91126
 H3109 H -0.02913 0.90630 0.93184
 H3110 H -0.01234 0.87175 0.98115
 H3111 H -0.00992 0.84262 0.96055
 H3112 H -0.02276 0.90825 0.98551
 H3113 H -0.01767 0.81802 0.94094
 H3114 H -0.00832 0.92647 0.94763
 C3115 C 0.50151 0.33220 0.40369
 C3116 C 0.49024 0.33910 0.41928
 C3117 C 0.49277 0.35829 0.42880
 C3118 C 0.48547 0.36144 0.44757
 C3119 C 0.48738 0.37937 0.45698
 C3120 C 0.49656 0.39463 0.44773
 C3121 C 0.50371 0.39156 0.42892
 C3122 C 0.50178 0.37365 0.41949
 C3123 C 0.49861 0.41389 0.45715
 C3124 C 0.49088 0.41829 0.47528
 H3125 H 0.47978 0.32975 0.42553
 H3126 H 0.47833 0.34994 0.45502
 H3127 H 0.48163 0.38124 0.47147
 H3128 H 0.51066 0.40314 0.42140
 H3129 H 0.50703 0.37212 0.40481
 H3130 H 0.50597 0.42509 0.44942
 H3131 H 0.51333 0.34070 0.39889
 H3132 H 0.49189 0.42935 0.48003
 C3133 C 0.00267 0.33071 0.58789
 C3134 C -0.00769 0.33677 0.57153
 C3135 C -0.00650 0.35686 0.56400
 C3136 C -0.00794 0.36019 0.54407
 C3137 C -0.00669 0.37906 0.53673
 C3138 C -0.00425 0.39501 0.54928
 C3139 C -0.00338 0.39170 0.56924
 C3140 C -0.00442 0.37287 0.57653
 C3141 C -0.00333 0.41533 0.54234
 C3142 C 0.00245 0.42031 0.52372
 H3143 H -0.01589 0.32662 0.56326
 H3144 H -0.00986 0.34813 0.53415
 H3145 H -0.00801 0.38111 0.52131
 H3146 H -0.00183 0.40375 0.57925
 H3147 H -0.00393 0.37094 0.59203
 H3148 H -0.00650 0.42693 0.55273
 H3149 H 0.01249 0.34106 0.59381
 H3150 H 0.00697 0.40904 0.51345
 C3151 C 0.50222 0.82942 0.09630
 C3152 C 0.49852 0.83305 0.07683
 C3153 C 0.49712 0.85295 0.06876
 C3154 C 0.49999 0.85535 0.04887
 C3155 C 0.49885 0.87390 0.04072
 C3156 C 0.49476 0.89047 0.05238
 C3157 C 0.49128 0.88799 0.07216
 C3158 C 0.49242 0.86946 0.08029
 C3159 C 0.49371 0.91048 0.04457
 C3160 C 0.50190 0.91559 0.02699
 H3161 H 0.49667 0.82097 0.06696
 H3162 H 0.50324 0.84282 0.03961
 H3163 H 0.50094 0.87504 0.02530
 H3164 H 0.48775 0.90046 0.08140
 H3165 H 0.48927 0.86821 0.09553
 H3166 H 0.48707 0.92189 0.05358
 H3167 H 0.50431 0.84151 0.10608
 H3168 H 0.50939 0.90472 0.01806
 C3169 C 0.50070 0.67852 0.07980
 C3170 C 0.49091 0.66184 0.08448
 C3171 C 0.49174 0.64380 0.07263
 C3172 C 0.48788 0.62612 0.08154
 C3173 C 0.48832 0.60875 0.07088
 C3174 C 0.49254 0.60876 0.05100
 C3175 C 0.49589 0.62651 0.04196
 C3176 C 0.49560 0.64390 0.05267
 C3177 C 0.49290 0.59064 0.03929
 C3178 C 0.49746 0.57236 0.04705
 H3179 H 0.48332 0.66142 0.09815
 H3180 H 0.48454 0.62573 0.09684
 H3181 H 0.48498 0.59544 0.07820
 H3182 H 0.49884 0.62691 0.02659
 H3183 H 0.49803 0.65735 0.04521
 H3184 H 0.49032 0.59184 0.02391
 H3185 H 0.51035 0.67822 0.06748
 H3186 H 0.50173 0.57114 0.06202
 C3187 C 0.00994 0.17598 0.58842
 C3188 C 0.00285 0.17143 0.57013
 C3189 C 0.00333 0.15122 0.56222
 C3190 C -0.01017 0.14621 0.54822
 C3191 C -0.01055 0.12713 0.54093
 C3192 C 0.00277 0.11269 0.54737
 C3193 C 0.01642 0.11778 0.56116
 C3194 C 0.01684 0.13684 0.56839
 C3195 C 0.00265 0.09217 0.54047
 C3196 C -0.00521 0.08648 0.52286
 H3197 H -0.00482 0.18264 0.56203
 H3198 H -0.02073 0.15699 0.54320
 H3199 H -0.02156 0.12372 0.53062
 H3200 H 0.02692 0.10698 0.56628
 H3201 H 0.02791 0.14020 0.57865
 H3202 H 0.01001 0.08121 0.54918
 H3203 H 0.01566 0.16427 0.59733
 H3204 H -0.01134 0.09734 0.51322
 C3205 C 0.48227 0.18247 0.41248
 C3206 C 0.49694 0.16922 0.41793
 C3207 C 0.49341 0.15067 0.42778
 C3208 C 0.50805 0.14205 0.43905
 C3209 C 0.50568 0.12395 0.44762
 C3210 C 0.48864 0.11399 0.44488
 C3211 C 0.47406 0.12252 0.43346
 C3212 C 0.47633 0.14075 0.42509
 C3213 C 0.48625 0.09425 0.45270
 C3214 C 0.49532 0.08775 0.46950
 H3215 H 0.51173 0.17278 0.41535
 H3216 H 0.52145 0.14926 0.44107
 H3217 H 0.51746 0.11754 0.45583
 H3218 H 0.46094 0.11498 0.43091
 H3219 H 0.46498 0.14671 0.41601
 H3220 H 0.47681 0.08465 0.44513
 H3221 H 0.46770 0.18032 0.41732
 H3222 H 0.50333 0.09780 0.47816
 C3223 C -0.00184 0.67484 0.91066
 C3224 C 0.01388 0.66211 0.91459
 C3225 C 0.01174 0.64278 0.92346
 C3226 C 0.02690 0.63457 0.93438
 C3227 C 0.02552 0.61609 0.94248
 C3228 C 0.00899 0.60536 0.93959
 C3229 C -0.00598 0.61342 0.92834
 C3230 C -0.00469 0.63196 0.92042
 C3231 C 0.00708 0.58556 0.94742
 C3232 C 0.01652 0.57880 0.96396
 H3233 H 0.02838 0.66660 0.91219
 H3234 H 0.03984 0.64250 0.93664
 H3235 H 0.03757 0.61011 0.95060
 H3236 H -0.01875 0.60532 0.92568
 H3237 H -0.01638 0.63756 0.91155
 H3238 H -0.00325 0.57637 0.94058
 H3239 H -0.01584 0.67089 0.91586
 H3240 H 0.02566 0.58828 0.97202
 C3241 C 0.24634 0.67216 0.92380
 C3242 C 0.24612 0.66449 0.90493
 C3243 C 0.24551 0.67626 0.88704
 C3244 C 0.24799 0.66637 0.86929
 C3245 C 0.24735 0.67646 0.85190
 C3246 C 0.24433 0.69682 0.85180
 C3247 C 0.24148 0.70674 0.86948
 C3248 C 0.24209 0.69662 0.88695
 C3249 C 0.24353 0.70799 0.83359
 C3250 C 0.25197 0.70107 0.81637
 H3251 H 0.24647 0.64894 0.90266
 H3252 H 0.25035 0.65068 0.86884
 H3253 H 0.24886 0.66812 0.83862
 H3254 H 0.23884 0.72240 0.86978
 H3255 H 0.23962 0.70488 0.90014
 H3256 H 0.23659 0.72240 0.83391
 H3257 H 0.24607 0.68781 0.92569
 H3258 H 0.26014 0.68734 0.81609
 C3259 C 0.73826 0.17721 0.42514
 C3260 C 0.73806 0.17071 0.40588
 C3261 C 0.73648 0.18359 0.38884
 C3262 C 0.73323 0.17488 0.37078
 C3263 C 0.73259 0.18598 0.35403
 C3264 C 0.73530 0.20612 0.35492
 C3265 C 0.73796 0.21504 0.37296
 C3266 C 0.73875 0.20388 0.38979
 C3267 C 0.73558 0.21791 0.33717
 C3268 C 0.74288 0.21014 0.31983
 H3269 H 0.73846 0.15530 0.40270
 H3270 H 0.73131 0.15934 0.36958
 H3271 H 0.72990 0.17874 0.34041
 H3272 H 0.74000 0.23057 0.37396
 H3273 H 0.74157 0.21123 0.40328
 H3274 H 0.73107 0.23318 0.33804
 H3275 H 0.73613 0.19265 0.42803
 H3276 H 0.74910 0.19543 0.31949
 C3277 C 0.25264 0.31738 0.42953
 C3278 C 0.25338 0.32496 0.41080
 C3279 C 0.25334 0.31318 0.39274
 C3280 C 0.25799 0.32241 0.37542
 C3281 C 0.25727 0.31249 0.35780
 C3282 C 0.25172 0.29307 0.35703
 C3283 C 0.24759 0.28356 0.37433
 C3284 C 0.24820 0.29355 0.39205
 C3285 C 0.25016 0.28261 0.33836
 C3286 C 0.24476 0.29235 0.32153
 H3287 H 0.25489 0.34039 0.40884
 H3288 H 0.26213 0.33745 0.37549
 H3289 H 0.26118 0.32007 0.34481
 H3290 H 0.24337 0.26855 0.37407
 H3291 H 0.24422 0.28593 0.40496
 H3292 H 0.25233 0.26690 0.33807
 H3293 H 0.25314 0.30172 0.43117
 H3294 H 0.24083 0.30777 0.32222
 C3295 C 0.75972 0.82093 0.93415
 C3296 C 0.76515 0.82827 0.91617
 C3297 C 0.76561 0.81682 0.89787
 C3298 C 0.76583 0.82705 0.88042
 C3299 C 0.76586 0.81717 0.86273
 C3300 C 0.76561 0.79672 0.86202
 C3301 C 0.76616 0.78637 0.87940
 C3302 C 0.76610 0.79629 0.89719
 C3303 C 0.76492 0.78599 0.84337
 C3304 C 0.75614 0.79423 0.82715
 H3305 H 0.76859 0.84337 0.91486
 H3306 H 0.76583 0.84284 0.88046
 H3307 H 0.76626 0.82565 0.84964
 H3308 H 0.76635 0.77058 0.87922
 H3309 H 0.76664 0.78776 0.91023
 H3310 H 0.77053 0.77105 0.84267
 H3311 H 0.75623 0.80575 0.93490
 H3312 H 0.74908 0.80853 0.82831
 C3313 C 0.73826 0.81939 0.08112
 C3314 C 0.74933 0.81883 0.09796
 C3315 C 0.74363 0.80902 0.11596
 C3316 C 0.75159 0.81530 0.13338
 C3317 C 0.74712 0.80640 0.15076
 C3318 C 0.73454 0.79090 0.15118
 C3319 C 0.72684 0.78428 0.13372
 C3320 C 0.73124 0.79331 0.11623
 C3321 C 0.73050 0.78075 0.16948
 C3322 C 0.73148 0.79028 0.18731
 H3323 H 0.76213 0.82711 0.09891
 H3324 H 0.76142 0.82713 0.13357
 H3325 H 0.75405 0.81139 0.16375
 H3326 H 0.71745 0.77208 0.13361
 H3327 H 0.72529 0.78766 0.10302
 H3328 H 0.72789 0.76530 0.16895
 H3329 H 0.72474 0.81214 0.08129
 H3330 H 0.73292 0.80592 0.18770
 C3331 C 0.25704 0.32405 0.57884
 C3332 C 0.24196 0.32313 0.59222
 C3333 C 0.24442 0.31446 0.61156
 C3334 C 0.22864 0.30617 0.62053
 C3335 C 0.23028 0.29849 0.63910
 C3336 C 0.24771 0.29922 0.64916
 C3337 C 0.26338 0.30788 0.64036
 C3338 C 0.26182 0.31531 0.62167
 C3339 C 0.24975 0.29174 0.66903
 C3340 C 0.23956 0.27607 0.67575
 H3341 H 0.22753 0.32783 0.58828
 H3342 H 0.21499 0.30566 0.61315
 H3343 H 0.21775 0.29244 0.64570
 H3344 H 0.27687 0.30885 0.64795
 H3345 H 0.27407 0.32217 0.61539
 H3346 H 0.26047 0.29799 0.67825
 H3347 H 0.27051 0.31646 0.58228
 H3348 H 0.23024 0.26844 0.66605
 C3349 C 0.74093 0.16633 0.57243
 C3350 C 0.75627 0.16871 0.58511
 C3351 C 0.75364 0.17711 0.60473
 C3352 C 0.76880 0.18684 0.61328
 C3353 C 0.76696 0.19445 0.63202
 C3354 C 0.74994 0.19224 0.64264
 C3355 C 0.73495 0.18213 0.63425
 C3356 C 0.73671 0.17471 0.61543
 C3357 C 0.74762 0.19965 0.66266
 C3358 C 0.75700 0.21583 0.66964
 H3359 H 0.77087 0.16540 0.58044
 H3360 H 0.78210 0.18855 0.60542
 H3361 H 0.77903 0.20162 0.63828
 H3362 H 0.72182 0.17999 0.64228
 H3363 H 0.72499 0.16671 0.60951
 H3364 H 0.73728 0.19281 0.67187
 H3365 H 0.72698 0.17254 0.57669
 H3366 H 0.76605 0.22393 0.66012
 C3367 C 0.24262 0.66792 0.07354
 C3368 C 0.25751 0.66817 0.08706
 C3369 C 0.25500 0.67619 0.10685
 C3370 C 0.27112 0.68273 0.11667
 C3371 C 0.26951 0.68949 0.13573
 C3372 C 0.25171 0.68966 0.14541
 C3373 C 0.23565 0.68279 0.13571
 C3374 C 0.23722 0.67620 0.11657
 C3375 C 0.24958 0.69632 0.16570
 C3376 C 0.26114 0.71028 0.17389
 H3377 H 0.27188 0.66312 0.08303
 H3378 H 0.28503 0.68252 0.10959
 H3379 H 0.28231 0.69410 0.14295
 H3380 H 0.22185 0.68254 0.14297
 H3381 H 0.22464 0.67066 0.10965
 H3382 H 0.23771 0.69101 0.17407
 H3383 H 0.22930 0.67588 0.07709
 H3384 H 0.27184 0.71711 0.16515
 C3385 C 0.15997 0.57594 0.73683
 C3386 C 0.17948 0.57984 0.73854
 C3387 C 0.18656 0.59989 0.73784
 C3388 C 0.20329 0.60414 0.74796
 C3389 C 0.21020 0.62297 0.74801
 C3390 C 0.20066 0.63794 0.73757
 C3391 C 0.18406 0.63359 0.72723
 C3392 C 0.17712 0.61477 0.72726
 C3393 C 0.20715 0.65827 0.73746
 C3394 C 0.22522 0.66369 0.74373
 H3395 H 0.18985 0.56836 0.74215
 H3396 H 0.21083 0.59292 0.75621
 H3397 H 0.22276 0.62564 0.75656
 H3398 H 0.17645 0.64479 0.71902
 H3399 H 0.16451 0.61191 0.71879
 H3400 H 0.19730 0.66946 0.73192
 H3401 H 0.14993 0.58826 0.73523
 H3402 H 0.23572 0.65281 0.74855
 C3403 C 0.66373 0.08013 0.26024
 C3404 C 0.67772 0.08725 0.24792
 C3405 C 0.68368 0.10761 0.24896
 C3406 C 0.70231 0.11191 0.24311
 C3407 C 0.70814 0.13112 0.24329
 C3408 C 0.69531 0.14642 0.24912
 C3409 C 0.67653 0.14217 0.25453
 C3410 C 0.67076 0.12293 0.25457
 C3411 C 0.70091 0.16690 0.24896
 C3412 C 0.71974 0.17214 0.25221
 H3413 H 0.68520 0.07773 0.23762
 H3414 H 0.71237 0.10037 0.23838
 H3415 H 0.72253 0.13398 0.23841
 H3416 H 0.66631 0.15377 0.25875
 H3417 H 0.65608 0.12015 0.25850
 H3418 H 0.68978 0.17820 0.24703
 H3419 H 0.65880 0.08942 0.27217
 H3420 H 0.73058 0.16110 0.25600
 C3421 C 0.83901 0.07420 0.75270
 C3422 C 0.83616 0.08773 0.73784
 C3423 C 0.82611 0.10697 0.74063
 C3424 C 0.81753 0.11610 0.72461
 C3425 C 0.80854 0.13459 0.72643
 C3426 C 0.80810 0.14442 0.74435
 C3427 C 0.81703 0.13549 0.76028
 C3428 C 0.82588 0.11689 0.75850
 C3429 C 0.79893 0.16413 0.74668
 C3430 C 0.78347 0.17070 0.73540
 H3431 H 0.84045 0.08396 0.72321
 H3432 H 0.81783 0.10891 0.71060
 H3433 H 0.80235 0.14128 0.71369
 H3434 H 0.81712 0.14290 0.77417
 H3435 H 0.83291 0.11057 0.77100
 H3436 H 0.80369 0.17327 0.75842
 H3437 H 0.83206 0.07736 0.76648
 H3438 H 0.77736 0.16101 0.72488
 C3439 C 0.34294 0.56934 0.25904
 C3440 C 0.32634 0.57539 0.24908
 C3441 C 0.31860 0.59582 0.24987
 C3442 C 0.30800 0.60321 0.23419
 C3443 C 0.30088 0.62255 0.23428
 C3444 C 0.30403 0.63484 0.25024
 C3445 C 0.31447 0.62739 0.26598
 C3446 C 0.32153 0.60806 0.26592
 C3447 C 0.29686 0.65543 0.25101
 C3448 C 0.28118 0.66256 0.24037
 H3449 H 0.31950 0.56557 0.23923
 H3450 H 0.30551 0.59408 0.22167
 H3451 H 0.29327 0.62785 0.22167
 H3452 H 0.31699 0.63651 0.27850
 H3453 H 0.32902 0.60276 0.27859
 H3454 H 0.30337 0.66502 0.26140
 H3455 H 0.35025 0.58029 0.26725
 H3456 H 0.27359 0.65291 0.23092
 C3457 C 0.34288 0.41697 0.24182
 C3458 C 0.32611 0.41152 0.25127
 C3459 C 0.31829 0.39180 0.24954
 C3460 C 0.29872 0.38960 0.25337
 C3461 C 0.29084 0.37122 0.25259
 C3462 C 0.30248 0.35448 0.24829
 C3463 C 0.32205 0.35670 0.24431
 C3464 C 0.32993 0.37513 0.24503
 C3465 C 0.29464 0.33469 0.24738
 C3466 C 0.27734 0.33007 0.25617
 H3467 H 0.31777 0.42203 0.25984
 H3468 H 0.28943 0.40219 0.25685
 H3469 H 0.27557 0.37037 0.25509
 H3470 H 0.33134 0.34408 0.24091
 H3471 H 0.34519 0.37612 0.24249
 H3472 H 0.30286 0.32335 0.23964
 H3473 H 0.34968 0.40653 0.23185
 H3474 H 0.26940 0.34090 0.26476
 C3475 C 0.84602 0.92241 0.74730
 C3476 C 0.82678 0.91923 0.75187
 C3477 C 0.81892 0.89947 0.75165
 C3478 C 0.80339 0.89548 0.76379
 C3479 C 0.79588 0.87686 0.76411
 C3480 C 0.80364 0.86189 0.75201
 C3481 C 0.81898 0.86603 0.73968
 C3482 C 0.82647 0.88458 0.73938
 C3483 C 0.79653 0.84180 0.75180
 C3484 C 0.77926 0.83634 0.76016
 H3485 H 0.81737 0.93109 0.75700
 H3486 H 0.79726 0.90672 0.77332
 H3487 H 0.78426 0.87432 0.77404
 H3488 H 0.82516 0.85485 0.73009
 H3489 H 0.83798 0.88723 0.72931
 H3490 H 0.80511 0.83082 0.74394
 H3491 H 0.85531 0.90970 0.74427
 H3492 H 0.76990 0.84698 0.76749
 C3493 C 0.67036 0.93038 0.24837
 C3494 C 0.66366 0.91189 0.24408
 C3495 C 0.67569 0.89378 0.24573
 C3496 C 0.66659 0.87621 0.24876
 C3497 C 0.67735 0.85874 0.25045
 C3498 C 0.69750 0.85853 0.24911
 C3499 C 0.70658 0.87601 0.24552
 C3500 C 0.69581 0.89351 0.24387
 C3501 C 0.70937 0.84030 0.25056
 C3502 C 0.70319 0.82375 0.25990
 H3503 H 0.64871 0.91004 0.24083
 H3504 H 0.65108 0.87600 0.24987
 H3505 H 0.66977 0.84547 0.25243
 H3506 H 0.72207 0.87612 0.24403
 H3507 H 0.70327 0.90664 0.24079
 H3508 H 0.72371 0.84009 0.24438
 H3509 H 0.68498 0.93130 0.25343
 H3510 H 0.68947 0.82403 0.26732
 C3511 C 0.17600 0.42562 0.74238
 C3512 C 0.17414 0.40941 0.73014
 C3513 C 0.18636 0.39132 0.73144
 C3514 C 0.17871 0.37375 0.72524
 C3515 C 0.18947 0.35623 0.72647
 C3516 C 0.20825 0.35592 0.73379
 C3517 C 0.21626 0.37356 0.73924
 C3518 C 0.20538 0.39114 0.73822
 C3519 C 0.21953 0.33733 0.73587
 C3520 C 0.21069 0.32026 0.74103
 H3521 H 0.16232 0.40888 0.72017
 H3522 H 0.16422 0.37353 0.71965
 H3523 H 0.18309 0.34296 0.72156
 H3524 H 0.23082 0.37368 0.74465
 H3525 H 0.21195 0.40450 0.74252
 H3526 H 0.23505 0.33737 0.73477
 H3527 H 0.18717 0.42482 0.75321
 H3528 H 0.19543 0.32083 0.74420
 C3529 C 0.08168 0.75461 0.83755
 C3530 C 0.08817 0.74854 0.81916
 C3531 C 0.10881 0.74667 0.81365
 C3532 C 0.11424 0.73429 0.79817
 C3533 C 0.13343 0.73218 0.79224
 C3534 C 0.14777 0.74263 0.80159
 C3535 C 0.14231 0.75505 0.81709
 C3536 C 0.12308 0.75712 0.82304
 C3537 C 0.16830 0.74166 0.79533
 C3538 C 0.17533 0.73097 0.77932
 H3539 H 0.07809 0.74360 0.80858
 H3540 H 0.10356 0.72614 0.79060
 H3541 H 0.13667 0.72242 0.78026
 H3542 H 0.15293 0.76343 0.82449
 H3543 H 0.11950 0.76726 0.83467
 H3544 H 0.17815 0.75071 0.80304
 H3545 H 0.09241 0.75793 0.84821
 H3546 H 0.16598 0.72199 0.77104
 C3547 C 0.56511 0.23731 0.31056
 C3548 C 0.58357 0.23256 0.31756
 C3549 C 0.60125 0.23065 0.30548
 C3550 C 0.61821 0.22341 0.31420
 C3551 C 0.63566 0.22286 0.30417
 C3552 C 0.63658 0.22963 0.28512
 C3553 C 0.61956 0.23605 0.27602
 C3554 C 0.60207 0.23676 0.28612
 C3555 C 0.65517 0.23077 0.27481
 C3556 C 0.67191 0.23531 0.28457
 H3557 H 0.58554 0.22982 0.33276
 H3558 H 0.61805 0.21846 0.32902
 H3559 H 0.64843 0.21726 0.31142
 H3560 H 0.61993 0.24125 0.26130
 H3561 H 0.58949 0.24266 0.27882
 H3562 H 0.65529 0.23011 0.25916
 H3563 H 0.56308 0.23783 0.29509
 H3564 H 0.67132 0.23796 0.30001
 C3565 C 0.57443 0.73942 0.18020
 C3566 C 0.58376 0.75411 0.19024
 C3567 C 0.60406 0.75225 0.19661
 C3568 C 0.61032 0.76512 0.21091
 C3569 C 0.62944 0.76442 0.21695
 C3570 C 0.64281 0.75075 0.20880
 C3571 C 0.63668 0.73817 0.19419
 C3572 C 0.61753 0.73887 0.18813
 C3573 C 0.66323 0.74957 0.21484
 C3574 C 0.66932 0.75616 0.23284
 H3575 H 0.57616 0.76765 0.19390
 H3576 H 0.60037 0.77586 0.21739
 H3577 H 0.63368 0.77490 0.22770
 H3578 H 0.64676 0.72773 0.18743
 H3579 H 0.61355 0.72920 0.17654
 H3580 H 0.67365 0.74246 0.20516
 H3581 H 0.58213 0.72555 0.17811
 H3582 H 0.65890 0.76201 0.24322
 C3583 C 0.06994 0.25740 0.68505
 C3584 C 0.08888 0.25979 0.67882
 C3585 C 0.10582 0.26062 0.69169
 C3586 C 0.12333 0.26578 0.68344
 C3587 C 0.14009 0.26562 0.69436
 C3588 C 0.13979 0.26018 0.71386
 C3589 C 0.12223 0.25576 0.72244
 C3590 C 0.10539 0.25577 0.71144
 C3591 C 0.15777 0.25859 0.72512
 C3592 C 0.17485 0.25169 0.71643
 H3593 H 0.09180 0.26177 0.66366
 H3594 H 0.12413 0.26975 0.66835
 H3595 H 0.15331 0.26969 0.68747
 H3596 H 0.12168 0.25162 0.73749
 H3597 H 0.09234 0.25149 0.71842
 H3598 H 0.15732 0.26158 0.74052
 H3599 H 0.06705 0.25730 0.70041
 H3600 H 0.17462 0.24682 0.70150
 C3601 C 0.92607 0.25218 0.67740
 C3602 C 0.91153 0.23892 0.67465
 C3603 C 0.89393 0.23893 0.68670
 C3604 C 0.87691 0.23278 0.67832
 C3605 C 0.85996 0.23253 0.68913
 C3606 C 0.85976 0.23809 0.70875
 C3607 C 0.87692 0.24368 0.71734
 C3608 C 0.89387 0.24423 0.70639
 C3609 C 0.84177 0.23834 0.72024
 C3610 C 0.82412 0.23987 0.71107
 H3611 H 0.91196 0.22915 0.66234
 H3612 H 0.87666 0.22838 0.66325
 H3613 H 0.84704 0.22787 0.68213
 H3614 H 0.87715 0.24787 0.73246
 H3615 H 0.90691 0.24850 0.71341
 H3616 H 0.84239 0.23863 0.73589
 H3617 H 0.92383 0.26328 0.68850
 H3618 H 0.81414 0.23995 0.71774
 C3619 C 0.42065 0.75082 0.17138
 C3620 C 0.41442 0.74114 0.18782
 C3621 C 0.39386 0.74137 0.19344
 C3622 C 0.38663 0.72514 0.20278
 C3623 C 0.36718 0.72475 0.20779
 C3624 C 0.35464 0.74080 0.20386
 C3625 C 0.36193 0.75707 0.19466
 C3626 C 0.38134 0.75744 0.18962
 C3627 C 0.33398 0.74117 0.20906
 C3628 C 0.32655 0.72996 0.22383
 H3629 H 0.42423 0.73176 0.19587
 H3630 H 0.39598 0.71258 0.20589
 H3631 H 0.36205 0.71173 0.21441
 H3632 H 0.35262 0.76966 0.19158
 H3633 H 0.38650 0.77046 0.18298
 H3634 H 0.32453 0.75177 0.20199
 H3635 H 0.40975 0.75817 0.16267
 H3636 H 0.33600 0.72031 0.23204
 C3637 C 0.41900 0.26332 0.31538
 C3638 C 0.40402 0.25025 0.31526
 C3639 C 0.38515 0.25419 0.30591
 C3640 C 0.36956 0.24332 0.31179
 C3641 C 0.35155 0.24610 0.30326
 C3642 C 0.34866 0.25991 0.28856
 C3643 C 0.36432 0.27057 0.28241
 C3644 C 0.38239 0.26780 0.29099
 C3645 C 0.32987 0.26274 0.27875
 C3646 C 0.31251 0.25747 0.28702
 H3647 H 0.40535 0.23693 0.32337
 H3648 H 0.37133 0.23252 0.32302
 H3649 H 0.34014 0.23702 0.30795
 H3650 H 0.36258 0.28104 0.27088
 H3651 H 0.39414 0.27603 0.28558
 H3652 H 0.32973 0.26917 0.26451
 H3653 H 0.41653 0.27725 0.30844
 H3654 H 0.31221 0.25222 0.30169
 C3655 C 0.93209 0.76386 0.81471
 C3656 C 0.91680 0.75128 0.81303
 C3657 C 0.89824 0.75661 0.80358
 C3658 C 0.88198 0.74654 0.80902
 C3659 C 0.86410 0.75098 0.80081
 C3660 C 0.86198 0.76565 0.78684
 C3661 C 0.87832 0.77536 0.78090
 C3662 C 0.89630 0.77100 0.78926
 C3663 C 0.84305 0.77017 0.77776
 C3664 C 0.82588 0.76744 0.78767
 H3665 H 0.91740 0.73749 0.82039
 H3666 H 0.88308 0.73518 0.81976
 H3667 H 0.85206 0.74255 0.80518
 H3668 H 0.87716 0.78642 0.76986
 H3669 H 0.90859 0.77866 0.78421
 H3670 H 0.84266 0.77506 0.76293
 H3671 H 0.93041 0.77809 0.80817
 H3672 H 0.82642 0.76378 0.80284
   
