data_POSCAR
  _audit_creation_date              2014-09-24
  _audit_creation_method            'ToBaCCo'
  _symmetry_space_group_name_H-M    'P1'
  _symmetry_Int_Tables_number       1
  _symmetry_cell_setting            triclinic
  loop_
  _symmetry_equiv_pos_as_xyz
 x,y,z
_cell_length_a 99.4521
_cell_length_b 100.6440
_cell_length_c 100.8346
_cell_angle_alpha 89.868300
_cell_angle_beta 89.975500
_cell_angle_gamma 89.936300
loop_
  _atom_site_label
  _atom_site_type_symbol
  _atom_site_fract_x
  _atom_site_fract_y
  _atom_site_fract_z
N1 N 0.36209 0.32474 0.33538
 N2 N 0.36199 0.33439 0.32658
 C3 C 0.37245 0.33272 0.31823
 C4 C 0.37951 0.32145 0.32205
 C5 C 0.37258 0.31667 0.33298
 H6 H 0.37478 0.33927 0.31004
 H7 H 0.37487 0.30788 0.33872
 Cu8 Cu 0.34821 0.34816 0.32698
 Cu9 Cu 0.34864 0.32324 0.34931
 Cu10 Cu 0.32354 0.34707 0.34985
 N11 N 0.33381 0.36131 0.32726
 N12 N 0.32417 0.36072 0.33616
 C13 C 0.31564 0.37093 0.33427
 C14 C 0.32014 0.37841 0.32361
 C15 C 0.33173 0.37197 0.31941
 H16 H 0.30695 0.37288 0.34039
 H17 H 0.33814 0.37482 0.31123
 N18 N 0.32462 0.33250 0.36289
 N19 N 0.33417 0.32339 0.36264
 C20 C 0.33236 0.31499 0.37289
 C21 C 0.32117 0.31901 0.38001
 C22 C 0.31653 0.33016 0.37336
 H23 H 0.33889 0.30671 0.37519
 H24 H 0.30789 0.33613 0.37595
 H25 H 0.33358 0.33282 0.33891
 H26 H 0.34394 0.34322 0.35032
 N27 N 0.36433 0.82538 -0.16329
 N28 N 0.36448 0.83482 -0.17229
 C29 C 0.37472 0.83261 -0.18075
 C30 C 0.38144 0.82113 -0.17685
 C31 C 0.37449 0.81688 -0.16565
 H32 H 0.37700 0.83890 -0.18914
 H33 H 0.37645 0.80814 -0.15972
 Cu34 Cu 0.35113 0.84899 -0.17228
 Cu35 Cu 0.35076 0.82454 -0.14941
 Cu36 Cu 0.32622 0.84898 -0.14964
 N37 N 0.33701 0.86240 -0.17241
 N38 N 0.32730 0.86230 -0.16360
 C39 C 0.31884 0.87245 -0.16608
 C40 C 0.32346 0.87937 -0.17712
 C41 C 0.33508 0.87263 -0.18082
 H42 H 0.30998 0.87452 -0.16024
 H43 H 0.34160 0.87485 -0.18909
 N44 N 0.32682 0.83467 -0.13631
 N45 N 0.33618 0.82537 -0.13620
 C46 C 0.33383 0.81705 -0.12598
 C47 C 0.32242 0.82128 -0.11931
 C48 C 0.31828 0.83250 -0.12617
 H49 H 0.33990 0.80845 -0.12368
 H50 H 0.30970 0.83869 -0.12393
 H51 H 0.33603 0.83424 -0.16018
 H52 H 0.34654 0.84462 -0.14888
 N53 N 0.86191 0.32582 -0.16595
 N54 N 0.86197 0.33518 -0.17505
 C55 C 0.87251 0.33321 -0.18323
 C56 C 0.87946 0.32203 -0.17897
 C57 C 0.87239 0.31763 -0.16798
 H58 H 0.87499 0.33948 -0.19159
 H59 H 0.87459 0.30901 -0.16195
 Cu60 Cu 0.84817 0.34892 -0.17528
 Cu61 Cu 0.84831 0.32489 -0.15210
 Cu62 Cu 0.82388 0.34951 -0.15206
 N63 N 0.83451 0.36279 -0.17506
 N64 N 0.82497 0.36288 -0.16605
 C65 C 0.81672 0.37324 -0.16833
 C66 C 0.82129 0.38013 -0.17941
 C67 C 0.83268 0.37314 -0.18336
 H68 H 0.80803 0.37550 -0.16230
 H69 H 0.83909 0.37524 -0.19174
 N70 N 0.82452 0.33511 -0.13876
 N71 N 0.83375 0.32569 -0.13888
 C72 C 0.83162 0.31745 -0.12857
 C73 C 0.82053 0.32188 -0.12155
 C74 C 0.81628 0.33311 -0.12833
 H75 H 0.83787 0.30899 -0.12619
 H76 H 0.80781 0.33936 -0.12586
 H77 H 0.83326 0.33449 -0.16252
 H78 H 0.84416 0.34497 -0.15173
 N79 N 0.86255 0.82679 0.33395
 N80 N 0.86279 0.83612 0.32481
 C81 C 0.87322 0.83391 0.31660
 C82 C 0.87995 0.82262 0.32081
 C83 C 0.87288 0.81838 0.33189
 H84 H 0.87578 0.84011 0.30821
 H85 H 0.87495 0.80971 0.33790
 Cu86 Cu 0.84948 0.85028 0.32439
 Cu87 Cu 0.84864 0.82609 0.34759
 Cu88 Cu 0.82415 0.85060 0.34639
 N89 N 0.83556 0.86388 0.32385
 N90 N 0.82562 0.86385 0.33240
 C91 C 0.81728 0.87403 0.32969
 C92 C 0.82223 0.88093 0.31879
 C93 C 0.83392 0.87413 0.31539
 H94 H 0.80830 0.87617 0.33532
 H95 H 0.84064 0.87628 0.30725
 N96 N 0.82432 0.83643 0.35985
 N97 N 0.83368 0.82715 0.36045
 C98 C 0.83096 0.81901 0.37075
 C99 C 0.81928 0.82336 0.37688
 C100 C 0.81540 0.83442 0.36968
 H101 H 0.83691 0.81043 0.37346
 H102 H 0.80674 0.84065 0.37154
 H103 H 0.83422 0.83559 0.33635
 H104 H 0.84448 0.84613 0.34772
 N105 N 0.64090 0.67514 0.33607
 N106 N 0.64112 0.66581 0.32699
 C107 C 0.63072 0.66766 0.31864
 C108 C 0.62356 0.67878 0.32266
 C109 C 0.63036 0.68325 0.33380
 H110 H 0.62862 0.66142 0.31019
 H111 H 0.62789 0.69177 0.33983
 Cu112 Cu 0.65495 0.65213 0.32685
 Cu113 Cu 0.65438 0.67615 0.35008
 Cu114 Cu 0.67901 0.65176 0.35024
 N115 N 0.66855 0.63822 0.32744
 N116 N 0.67796 0.63820 0.33657
 C117 C 0.68596 0.62756 0.33481
 C118 C 0.68134 0.62044 0.32397
 C119 C 0.67025 0.62756 0.31956
 H120 H 0.69447 0.62521 0.34104
 H121 H 0.66384 0.62516 0.31126
 N122 N 0.67839 0.66626 0.36330
 N123 N 0.66891 0.67545 0.36338
 C124 C 0.67105 0.68366 0.37370
 C125 C 0.68243 0.67946 0.38044
 C126 C 0.68680 0.66840 0.37352
 H127 H 0.66482 0.69212 0.37609
 H128 H 0.69535 0.66221 0.37590
 H129 H 0.66950 0.66676 0.33971
 H130 H 0.65864 0.65606 0.35042
 N131 N 0.63884 0.17571 -0.16558
 N132 N 0.63838 0.16613 -0.17440
 C133 C 0.62777 0.16822 -0.18248
 C134 C 0.62124 0.17973 -0.17849
 C135 C 0.62859 0.18416 -0.16771
 H136 H 0.62509 0.16191 -0.19072
 H137 H 0.62659 0.19283 -0.16173
 Cu138 Cu 0.65175 0.15191 -0.17457
 Cu139 Cu 0.65244 0.17649 -0.15179
 Cu140 Cu 0.67723 0.15247 -0.15245
 N141 N 0.66641 0.13899 -0.17514
 N142 N 0.67634 0.13942 -0.16657
 C143 C 0.68513 0.12964 -0.16926
 C144 C 0.68055 0.12256 -0.18017
 C145 C 0.66856 0.12885 -0.18360
 H146 H 0.69416 0.12787 -0.16358
 H147 H 0.66195 0.12638 -0.19172
 N148 N 0.67648 0.16646 -0.13889
 N149 N 0.66701 0.17564 -0.13861
 C150 C 0.66905 0.18353 -0.12802
 C151 C 0.68036 0.17913 -0.12132
 C152 C 0.68480 0.16828 -0.12853
 H153 H 0.66275 0.19187 -0.12539
 H154 H 0.69330 0.16200 -0.12625
 H155 H 0.66694 0.16691 -0.16299
 H156 H 0.65685 0.15643 -0.15131
 N157 N 0.13927 0.67258 -0.16243
 N158 N 0.13888 0.66317 -0.17142
 C159 C 0.12854 0.66556 -0.17973
 C160 C 0.12208 0.67709 -0.17570
 C161 C 0.12922 0.68124 -0.16468
 H162 H 0.12591 0.65935 -0.18806
 H163 H 0.12741 0.69001 -0.15878
 Cu164 Cu 0.15203 0.64880 -0.17142
 Cu165 Cu 0.15278 0.67310 -0.14855
 Cu166 Cu 0.17694 0.64835 -0.14868
 N167 N 0.16602 0.63526 -0.17158
 N168 N 0.17567 0.63514 -0.16269
 C169 C 0.18400 0.62491 -0.16518
 C170 C 0.17938 0.61822 -0.17628
 C171 C 0.16792 0.62511 -0.18006
 H172 H 0.19290 0.62268 -0.15944
 H173 H 0.16145 0.62292 -0.18838
 N174 N 0.17647 0.66261 -0.13531
 N175 N 0.16722 0.67200 -0.13529
 C176 C 0.16956 0.68030 -0.12510
 C177 C 0.18088 0.67598 -0.11834
 C178 C 0.18497 0.66470 -0.12511
 H179 H 0.16344 0.68884 -0.12279
 H180 H 0.19358 0.65854 -0.12289
 H181 H 0.16744 0.66317 -0.15931
 H182 H 0.15675 0.65288 -0.14802
 N183 N 0.13940 0.17471 0.33330
 N184 N 0.13973 0.16582 0.32379
 C185 C 0.12979 0.16841 0.31510
 C186 C 0.12282 0.17954 0.31937
 C187 C 0.12922 0.18324 0.33100
 H188 H 0.12773 0.16257 0.30636
 H189 H 0.12682 0.19166 0.33721
 Cu190 Cu 0.15307 0.15167 0.32362
 Cu191 Cu 0.15242 0.17467 0.34774
 Cu192 Cu 0.17615 0.14935 0.34789
 N193 N 0.16615 0.13729 0.32409
 N194 N 0.17515 0.13638 0.33358
 C195 C 0.18276 0.12549 0.33155
 C196 C 0.17829 0.11918 0.32014
 C197 C 0.16771 0.12701 0.31571
 H198 H 0.19094 0.12244 0.33792
 H199 H 0.16151 0.12533 0.30709
 N200 N 0.17548 0.16339 0.36151
 N201 N 0.16641 0.17297 0.36149
 C202 C 0.16855 0.18090 0.37202
 C203 C 0.17951 0.17613 0.37905
 C204 C 0.18363 0.16501 0.37205
 H205 H 0.16265 0.18961 0.37431
 H206 H 0.19190 0.15849 0.37451
 H207 H 0.16772 0.16510 0.33762
 H208 H 0.15602 0.15440 0.34743
 N209 N 0.64061 0.32518 0.66295
 N210 N 0.64017 0.33457 0.67197
 C211 C 0.62999 0.33200 0.68042
 C212 C 0.62377 0.32033 0.67651
 C213 C 0.63081 0.31630 0.66538
 H214 H 0.62743 0.33804 0.68891
 H215 H 0.62888 0.30762 0.65939
 Cu216 Cu 0.65323 0.34899 0.67185
 Cu217 Cu 0.65373 0.32512 0.64862
 Cu218 Cu 0.67666 0.35103 0.64792
 N219 N 0.66616 0.36351 0.67137
 N220 N 0.67528 0.36420 0.66197
 C221 C 0.68316 0.37483 0.66409
 C222 C 0.67881 0.38122 0.67548
 C223 C 0.66794 0.37372 0.67981
 H224 H 0.69162 0.37750 0.65792
 H225 H 0.66188 0.37546 0.68852
 N226 N 0.67643 0.33673 0.63460
 N227 N 0.66773 0.32684 0.63491
 C228 C 0.67024 0.31863 0.62468
 C229 C 0.68106 0.32355 0.61754
 C230 C 0.68470 0.33505 0.62415
 H231 H 0.66459 0.30973 0.62260
 H232 H 0.69289 0.34164 0.62168
 H233 H 0.66853 0.33547 0.65861
 H234 H 0.65670 0.34542 0.64820
 N235 N 0.64110 0.82341 1.16719
 N236 N 0.64123 0.83341 1.17552
 C237 C 0.63020 0.83284 1.18323
 C238 C 0.62277 0.82179 1.17961
 C239 C 0.63004 0.81603 1.16938
 H240 H 0.62802 0.83972 1.19116
 H241 H 0.62757 0.80711 1.16396
 Cu242 Cu 0.65620 0.84573 1.17615
 Cu243 Cu 0.65567 0.82046 1.15465
 Cu244 Cu 0.67628 0.84783 1.14937
 N245 N 0.66798 0.86077 1.17338
 N246 N 0.67561 0.86174 1.16279
 C247 C 0.68291 0.87296 1.16358
 C248 C 0.67970 0.87941 1.17532
 C249 C 0.67013 0.87132 1.18125
 H250 H 0.69023 0.87600 1.15626
 H251 H 0.66521 0.87282 1.19068
 N252 N 0.67556 0.83251 1.13720
 N253 N 0.66804 0.82195 1.13948
 C254 C 0.67030 0.81291 1.12992
 C255 C 0.67973 0.81798 1.12117
 C256 C 0.68281 0.83045 1.12610
 H257 H 0.66539 0.80335 1.12937
 H258 H 0.69011 0.83734 1.12214
 H259 H 0.67109 0.83264 1.16173
 H260 H 0.65694 0.84067 1.15262
 N261 N 0.14056 0.32530 1.16489
 N262 N 0.14083 0.33474 1.17386
 C263 C 0.13056 0.33295 1.18237
 C264 C 0.12341 0.32176 1.17859
 C265 C 0.13011 0.31718 1.16741
 H266 H 0.12847 0.33935 1.19070
 H267 H 0.12762 0.30858 1.16151
 Cu268 Cu 0.15459 0.34847 1.17360
 Cu269 Cu 0.15382 0.32422 1.15067
 Cu270 Cu 0.17825 0.34879 1.14986
 N271 N 0.16815 0.36238 1.17279
 N272 N 0.17735 0.36245 1.16344
 C273 C 0.18546 0.37300 1.16516
 C274 C 0.18116 0.37994 1.17623
 C275 C 0.17013 0.37288 1.18080
 H276 H 0.19398 0.37531 1.15892
 H277 H 0.16397 0.37525 1.18931
 N278 N 0.17751 0.33418 1.13696
 N279 N 0.16815 0.32490 1.13713
 C280 C 0.17026 0.31657 1.12689
 C281 C 0.18153 0.32079 1.11998
 C282 C 0.18583 0.33198 1.12668
 H283 H 0.16411 0.30802 1.12467
 H284 H 0.19428 0.33822 1.12411
 H285 H 0.16901 0.33381 1.16066
 H286 H 0.15789 0.34432 1.15002
 N287 N 0.13883 0.82631 0.66432
 N288 N 0.13856 0.83612 0.67289
 C289 C 0.12811 0.83434 0.68120
 C290 C 0.12144 0.82278 0.67767
 C291 C 0.12857 0.81798 0.66687
 H292 H 0.12574 0.84083 0.68939
 H293 H 0.12656 0.80904 0.66131
 Cu294 Cu 0.15212 0.85007 0.67272
 Cu295 Cu 0.15266 0.82480 0.65078
 Cu296 Cu 0.17771 0.84863 0.65084
 N297 N 0.16668 0.86301 0.67284
 N298 N 0.17661 0.86239 0.66427
 C299 C 0.18530 0.87233 0.66667
 C300 C 0.18063 0.87961 0.67736
 C301 C 0.16875 0.87338 0.68101
 H302 H 0.19447 0.87396 0.66115
 H303 H 0.16212 0.87615 0.68903
 N304 N 0.17712 0.83398 0.63798
 N305 N 0.16752 0.82495 0.63787
 C306 C 0.16996 0.81628 0.62800
 C307 C 0.18170 0.81999 0.62161
 C308 C 0.18593 0.83127 0.62822
 H309 H 0.16378 0.80774 0.62579
 H310 H 0.19476 0.83714 0.62603
 H311 H 0.16722 0.83452 0.66168
 H312 H 0.15731 0.84476 0.64965
 N313 N 0.36255 0.67274 0.66639
 N314 N 0.36257 0.66339 0.67548
 C315 C 0.37299 0.66535 0.68374
 C316 C 0.37992 0.67658 0.67968
 C317 C 0.37297 0.68099 0.66858
 H318 H 0.37530 0.65910 0.69215
 H319 H 0.37528 0.68954 0.66253
 Cu320 Cu 0.34893 0.64959 0.67580
 Cu321 Cu 0.34898 0.67357 0.65247
 Cu322 Cu 0.32485 0.64869 0.65247
 N323 N 0.33552 0.63559 0.67549
 N324 N 0.32613 0.63527 0.66635
 C325 C 0.31814 0.62470 0.66852
 C326 C 0.32274 0.61798 0.67965
 C327 C 0.33383 0.62521 0.68376
 H328 H 0.30962 0.62212 0.66243
 H329 H 0.34013 0.62317 0.69224
 N330 N 0.32523 0.66315 0.63927
 N331 N 0.33437 0.67263 0.63925
 C332 C 0.33195 0.68090 0.62899
 C333 C 0.32072 0.67642 0.62221
 C334 C 0.31676 0.66512 0.62904
 H335 H 0.33792 0.68956 0.62665
 H336 H 0.30843 0.65868 0.62666
 H337 H 0.33404 0.66391 0.66287
 H338 H 0.34513 0.65343 0.65220
 N339 N 0.36330 0.17298 1.16455
 N340 N 0.36342 0.16366 1.17369
 C341 C 0.37386 0.16572 1.18191
 C342 C 0.38071 0.17698 1.17776
 C343 C 0.37368 0.18130 1.16666
 H344 H 0.37610 0.15959 1.19043
 H345 H 0.37572 0.19001 1.16073
 Cu346 Cu 0.34974 0.14993 1.17423
 Cu347 Cu 0.34916 0.17409 1.15115
 Cu348 Cu 0.32225 0.15246 1.15528
 N349 N 0.33589 0.13634 1.17454
 N350 N 0.32511 0.13742 1.16711
 C351 C 0.31690 0.12709 1.16955
 C352 C 0.32286 0.11899 1.17902
 C353 C 0.33494 0.12521 1.18193
 H354 H 0.30727 0.12568 1.16482
 H355 H 0.34235 0.12208 1.18912
 N356 N 0.32313 0.16580 1.14099
 N357 N 0.33352 0.17374 1.13911
 C358 C 0.33120 0.18131 1.12831
 C359 C 0.31874 0.17799 1.12315
 C360 C 0.31396 0.16809 1.13145
 H361 H 0.33798 0.18884 1.12461
 H362 H 0.30459 0.16276 1.13052
 H363 H 0.33518 0.16651 1.16379
 H364 H 0.34254 0.15445 1.15172
 N365 N 0.86191 0.67471 1.16673
 N366 N 0.86110 0.66515 1.17558
 C367 C 0.87086 0.66682 1.18468
 C368 C 0.87824 0.67800 1.18131
 C369 C 0.87224 0.68274 1.16984
 H370 H 0.87257 0.66032 1.19305
 H371 H 0.87504 0.69149 1.16426
 Cu372 Cu 0.84745 0.65138 1.17426
 Cu373 Cu 0.84942 0.67615 1.15194
 Cu374 Cu 0.82471 0.65197 1.14961
 N375 N 0.83340 0.63801 1.17297
 N376 N 0.82460 0.63825 1.16326
 C377 C 0.81606 0.62798 1.16471
 C378 C 0.81966 0.62089 1.17597
 C379 C 0.83073 0.62759 1.18094
 H380 H 0.80774 0.62597 1.15813
 H381 H 0.83646 0.62506 1.18969
 N382 N 0.82648 0.66668 1.13679
 N383 N 0.83586 0.67589 1.13770
 C384 C 0.83436 0.68458 1.12764
 C385 C 0.82349 0.68069 1.11999
 C386 C 0.81876 0.66928 1.12613
 H387 H 0.84063 0.69321 1.12612
 H388 H 0.81033 0.66328 1.12306
 H389 H 0.83360 0.66648 1.16115
 H390 H 0.84501 0.65616 1.15066
 N391 N 0.86189 0.17295 0.66535
 N392 N 0.85952 0.16543 0.67575
 C393 C 0.86948 0.16709 0.68464
 C394 C 0.87857 0.17621 0.67954
 C395 C 0.87339 0.17968 0.66726
 H396 H 0.86988 0.16225 0.69421
 H397 H 0.87754 0.18673 0.66027
 Cu398 Cu 0.84356 0.15438 0.67685
 Cu399 Cu 0.84938 0.17437 0.65059
 Cu400 Cu 0.82034 0.15551 0.65275
 N401 N 0.83034 0.14033 0.67469
 N402 N 0.82133 0.14079 0.66519
 C403 C 0.81330 0.13009 0.66608
 C404 C 0.81751 0.12242 0.67672
 C405 C 0.82838 0.12927 0.68196
 H406 H 0.80488 0.12821 0.65957
 H407 H 0.83443 0.12644 0.69041
 N408 N 0.82407 0.16764 0.63793
 N409 N 0.83529 0.17453 0.63688
 C410 C 0.83480 0.18183 0.62569
 C411 C 0.82268 0.17942 0.61935
 C412 C 0.81617 0.17031 0.62743
 H413 H 0.84262 0.18856 0.62252
 H414 H 0.80633 0.16604 0.62594
 H415 H 0.83268 0.16999 0.66138
 H416 H 0.84094 0.15567 0.65294
 N417 N 0.32353 0.36142 0.66493
 N418 N 0.33322 0.36152 0.67377
 C419 C 0.33127 0.37181 0.68210
 C420 C 0.31970 0.37850 0.67826
 C421 C 0.31510 0.37158 0.66731
 H422 H 0.33774 0.37418 0.69037
 H423 H 0.30634 0.37381 0.66136
 Cu424 Cu 0.34738 0.34815 0.67344
 Cu425 Cu 0.32256 0.34831 0.65082
 Cu426 Cu 0.34776 0.32454 0.64983
 N427 N 0.36140 0.33464 0.67284
 N428 N 0.36151 0.32551 0.66355
 C429 C 0.37208 0.31739 0.66548
 C430 C 0.37903 0.32160 0.67661
 C431 C 0.37192 0.33261 0.68102
 H432 H 0.37435 0.30888 0.65935
 H433 H 0.37421 0.33868 0.68954
 N434 N 0.33295 0.32523 0.63684
 N435 N 0.32334 0.33425 0.63728
 C436 C 0.31471 0.33210 0.62723
 C437 C 0.31907 0.32118 0.62006
 C438 C 0.33067 0.31708 0.62650
 H439 H 0.30582 0.33798 0.62537
 H440 H 0.33703 0.30880 0.62382
 H441 H 0.33267 0.33340 0.66090
 H442 H 0.34288 0.34449 0.64999
 N443 N 0.32728 0.86242 0.16413
 N444 N 0.33680 0.86221 0.17315
 C445 C 0.33481 0.87231 0.18167
 C446 C 0.32341 0.87925 0.17779
 C447 C 0.31891 0.87264 0.16660
 H448 H 0.34109 0.87432 0.19017
 H449 H 0.31021 0.87505 0.16065
 Cu450 Cu 0.35076 0.84864 0.17299
 Cu451 Cu 0.32626 0.84933 0.15001
 Cu452 Cu 0.35059 0.82463 0.14980
 N453 N 0.36414 0.83452 0.17291
 N454 N 0.36404 0.82519 0.16383
 C455 C 0.37424 0.81669 0.16614
 C456 C 0.38114 0.82088 0.17732
 C457 C 0.37441 0.83226 0.18133
 H458 H 0.37632 0.80801 0.16019
 H459 H 0.37678 0.83844 0.18975
 N460 N 0.33614 0.82579 0.13646
 N461 N 0.32690 0.83520 0.13655
 C462 C 0.31841 0.83323 0.12635
 C463 C 0.32246 0.82202 0.11947
 C464 C 0.33376 0.81759 0.12619
 H465 H 0.30989 0.83952 0.12412
 H466 H 0.33973 0.80892 0.12390
 H467 H 0.33573 0.83425 0.16044
 H468 H 0.34654 0.84475 0.14949
 N469 N 0.82586 0.36456 0.16245
 N470 N 0.83544 0.36478 0.17141
 C471 C 0.83355 0.37532 0.17941
 C472 C 0.82219 0.38211 0.17521
 C473 C 0.81759 0.37496 0.16440
 H474 H 0.83996 0.37785 0.18767
 H475 H 0.80872 0.37700 0.15855
 Cu476 Cu 0.84933 0.35115 0.17198
 Cu477 Cu 0.82468 0.35065 0.14916
 Cu478 Cu 0.84833 0.32542 0.15054
 N479 N 0.86222 0.33663 0.17283
 N480 N 0.86173 0.32656 0.16458
 C481 C 0.87176 0.31804 0.16747
 C482 C 0.87897 0.32302 0.17813
 C483 C 0.87257 0.33485 0.18125
 H484 H 0.87362 0.30890 0.16218
 H485 H 0.87528 0.34174 0.18900
 N486 N 0.83398 0.32610 0.13705
 N487 N 0.82505 0.33579 0.13653
 C488 C 0.81677 0.33369 0.12621
 C489 C 0.82059 0.32211 0.11985
 C490 C 0.83158 0.31757 0.12703
 H491 H 0.80862 0.34024 0.12348
 H492 H 0.83740 0.30870 0.12513
 H493 H 0.83395 0.33613 0.16065
 H494 H 0.84491 0.34552 0.14885
 N495 N 0.82549 0.86224 0.66646
 N496 N 0.83429 0.86186 0.67616
 C497 C 0.83156 0.87166 0.68480
 C498 C 0.82047 0.87865 0.68030
 C499 C 0.81690 0.87238 0.66858
 H500 H 0.83727 0.87366 0.69369
 H501 H 0.80852 0.87482 0.66221
 Cu502 Cu 0.84841 0.84853 0.67672
 Cu503 Cu 0.82575 0.84937 0.65201
 Cu504 Cu 0.85119 0.82568 0.65268
 N505 N 0.86267 0.83532 0.67693
 N506 N 0.86379 0.82647 0.66746
 C507 C 0.87440 0.81855 0.67005
 C508 C 0.88022 0.82262 0.68186
 C509 C 0.87246 0.83329 0.68593
 H510 H 0.87744 0.81028 0.66395
 H511 H 0.87391 0.83917 0.69476
 N512 N 0.83747 0.82652 0.63860
 N513 N 0.82778 0.83549 0.63833
 C514 C 0.81994 0.83324 0.62767
 C515 C 0.82488 0.82231 0.62088
 C516 C 0.83603 0.81836 0.62814
 H517 H 0.81114 0.83903 0.62518
 H518 H 0.84261 0.81009 0.62602
 H519 H 0.83509 0.83431 0.66234
 H520 H 0.84623 0.84574 0.65276
 N521 N 0.67544 0.63787 0.66289
 N522 N 0.66560 0.63736 0.67158
 C523 C 0.66739 0.62669 0.67947
 C524 C 0.67897 0.62011 0.67552
 C525 C 0.68379 0.62753 0.66493
 H526 H 0.66077 0.62392 0.68751
 H527 H 0.69287 0.62574 0.65931
 Cu528 Cu 0.65150 0.65080 0.67195
 Cu529 Cu 0.67700 0.65218 0.64989
 Cu530 Cu 0.65272 0.67685 0.65109
 N531 N 0.63799 0.66485 0.67249
 N532 N 0.63866 0.67501 0.66432
 C533 C 0.62827 0.68323 0.66664
 C534 C 0.62056 0.67800 0.67684
 C535 C 0.62710 0.66630 0.68033
 H536 H 0.62652 0.69235 0.66125
 H537 H 0.62413 0.65932 0.68794
 N538 N 0.66766 0.67702 0.63833
 N539 N 0.67681 0.66755 0.63765
 C540 C 0.68544 0.67045 0.62774
 C541 C 0.68155 0.68236 0.62196
 C542 C 0.67023 0.68620 0.62895
 H543 H 0.69403 0.66445 0.62503
 H544 H 0.66419 0.69495 0.62718
 H545 H 0.66721 0.66609 0.66135
 H546 H 0.65681 0.65678 0.64906
 N547 N 0.67460 0.13848 0.16271
 N548 N 0.66544 0.13855 0.17210
 C549 C 0.66757 0.12810 0.18021
 C550 C 0.67867 0.12110 0.17566
 C551 C 0.68284 0.12803 0.16451
 H552 H 0.66146 0.12576 0.18877
 H553 H 0.69135 0.12579 0.15824
 Cu554 Cu 0.65165 0.15229 0.17286
 Cu555 Cu 0.67537 0.15199 0.14892
 Cu556 Cu 0.65065 0.17616 0.14940
 N557 N 0.63745 0.16564 0.17251
 N558 N 0.63720 0.17491 0.16333
 C559 C 0.62648 0.18280 0.16530
 C560 C 0.61954 0.17828 0.17634
 C561 C 0.62684 0.16733 0.18066
 H562 H 0.62402 0.19125 0.15914
 H563 H 0.62460 0.16104 0.18906
 N564 N 0.66509 0.17574 0.13607
 N565 N 0.67449 0.16649 0.13583
 C566 C 0.68279 0.16885 0.12553
 C567 C 0.67840 0.18014 0.11891
 C568 C 0.66715 0.18422 0.12593
 H569 H 0.69134 0.16275 0.12300
 H570 H 0.66095 0.19279 0.12388
 H571 H 0.66600 0.16687 0.15963
 H572 H 0.65495 0.15610 0.14920
 N573 N 0.17567 0.63567 0.16417
 N574 N 0.16697 0.63621 0.17395
 C575 C 0.16907 0.62586 0.18217
 C576 C 0.17971 0.61840 0.17732
 C577 C 0.18363 0.62497 0.16584
 H578 H 0.16328 0.62392 0.19103
 H579 H 0.19179 0.62232 0.15928
 Cu580 Cu 0.15382 0.65046 0.17518
 Cu581 Cu 0.17622 0.64907 0.15021
 Cu582 Cu 0.15233 0.67417 0.15163
 N583 N 0.14035 0.66445 0.17566
 N584 N 0.13968 0.67360 0.16637
 C585 C 0.12951 0.68199 0.16916
 C586 C 0.12350 0.67792 0.18088
 C587 C 0.13066 0.66674 0.18470
 H588 H 0.12688 0.69057 0.16323
 H589 H 0.12889 0.66067 0.19338
 N590 N 0.16601 0.67303 0.13754
 N591 N 0.17513 0.66352 0.13702
 C592 C 0.18323 0.66572 0.12653
 C593 C 0.17904 0.67720 0.12010
 C594 C 0.16807 0.68152 0.12740
 H595 H 0.19169 0.65952 0.12392
 H596 H 0.16209 0.69030 0.12560
 H597 H 0.16791 0.66443 0.16109
 H598 H 0.15602 0.65394 0.15134
 N599 N 0.17558 0.13509 0.66412
 N600 N 0.16665 0.13487 0.67373
 C601 C 0.16940 0.12462 0.68189
 C602 C 0.18068 0.11803 0.67719
 C603 C 0.18429 0.12499 0.66585
 H604 H 0.16361 0.12218 0.69062
 H605 H 0.19274 0.12301 0.65940
 Cu606 Cu 0.15243 0.14810 0.67483
 Cu607 Cu 0.17536 0.14862 0.65028
 Cu608 Cu 0.15039 0.17261 0.65220
 N609 N 0.13873 0.16184 0.67597
 N610 N 0.13790 0.17132 0.66703
 C611 C 0.12762 0.17944 0.67015
 C612 C 0.12169 0.17486 0.68172
 C613 C 0.12903 0.16365 0.68512
 H614 H 0.12484 0.18817 0.66452
 H615 H 0.12740 0.15726 0.69360
 N616 N 0.16396 0.17223 0.63795
 N617 N 0.17347 0.16312 0.63722
 C618 C 0.18122 0.16565 0.62655
 C619 C 0.17638 0.17693 0.62022
 C620 C 0.16541 0.18080 0.62777
 H621 H 0.18977 0.15971 0.62362
 H622 H 0.15904 0.18933 0.62611
 H623 H 0.16621 0.16316 0.66161
 H624 H 0.15499 0.15262 0.65117
 N625 N 0.32664 0.63686 0.33449
 N626 N 0.33630 0.63716 0.32561
 C627 C 0.33467 0.62693 0.31717
 C628 C 0.32336 0.61981 0.32096
 C629 C 0.31855 0.62645 0.33204
 H630 H 0.34117 0.62493 0.30881
 H631 H 0.30982 0.62397 0.33790
 Cu632 Cu 0.34994 0.65102 0.32584
 Cu633 Cu 0.32518 0.65006 0.34851
 Cu634 Cu 0.34934 0.67487 0.34919
 N635 N 0.36343 0.66501 0.32636
 N636 N 0.36312 0.67431 0.33547
 C637 C 0.37344 0.68273 0.33350
 C638 C 0.38067 0.67848 0.32252
 C639 C 0.37397 0.66720 0.31826
 H640 H 0.37551 0.69127 0.33964
 H641 H 0.37646 0.66110 0.30980
 N642 N 0.33459 0.67370 0.36220
 N643 N 0.32540 0.66426 0.36192
 C644 C 0.31680 0.66610 0.37207
 C645 C 0.32072 0.67724 0.37912
 C646 C 0.33206 0.68179 0.37254
 H647 H 0.30838 0.65968 0.37422
 H648 H 0.33806 0.69036 0.37506
 H649 H 0.33468 0.66527 0.33832
 H650 H 0.34541 0.65471 0.34931
 N651 N 0.32668 0.13714 0.83458
 N652 N 0.33604 0.13708 0.82537
 C653 C 0.33404 0.12661 0.81732
 C654 C 0.32281 0.11971 0.82167
 C655 C 0.31841 0.12673 0.83267
 H656 H 0.34022 0.12427 0.80883
 H657 H 0.30986 0.12446 0.83887
 Cu658 Cu 0.34983 0.15078 0.82475
 Cu659 Cu 0.32592 0.15071 0.84834
 Cu660 Cu 0.35070 0.17496 0.84762
 N661 N 0.36376 0.16435 0.82453
 N662 N 0.36404 0.17377 0.83352
 C663 C 0.37451 0.18187 0.83106
 C664 C 0.38122 0.17732 0.81990
 C665 C 0.37407 0.16615 0.81604
 H666 H 0.37699 0.19046 0.83697
 H667 H 0.37613 0.15988 0.80761
 N668 N 0.33633 0.17447 0.86110
 N669 N 0.32689 0.16528 0.86137
 C670 C 0.31859 0.16770 0.87165
 C671 C 0.32300 0.17899 0.87820
 C672 C 0.33430 0.18297 0.87119
 H673 H 0.30994 0.16171 0.87412
 H674 H 0.34064 0.19142 0.87326
 H675 H 0.33534 0.16548 0.83756
 H676 H 0.34627 0.15487 0.84831
 N677 N 0.82537 0.63746 0.83297
 N678 N 0.83479 0.63771 0.82384
 C679 C 0.83299 0.62739 0.81556
 C680 C 0.82182 0.62027 0.81970
 C681 C 0.81725 0.62700 0.83080
 H682 H 0.83925 0.62534 0.80704
 H683 H 0.80868 0.62451 0.83689
 Cu684 Cu 0.84841 0.65157 0.82354
 Cu685 Cu 0.82423 0.65080 0.84683
 Cu686 Cu 0.84891 0.67506 0.84735
 N687 N 0.86238 0.66505 0.82424
 N688 N 0.86264 0.67413 0.83357
 C689 C 0.87336 0.68207 0.83164
 C690 C 0.88020 0.67776 0.82046
 C691 C 0.87290 0.66691 0.81605
 H692 H 0.87587 0.69047 0.83782
 H693 H 0.87514 0.66076 0.80757
 N694 N 0.83414 0.67428 0.86042
 N695 N 0.82471 0.66507 0.86012
 C696 C 0.81587 0.66737 0.86996
 C697 C 0.81991 0.67853 0.87686
 C698 C 0.83156 0.68264 0.87053
 H699 H 0.80711 0.66135 0.87195
 H700 H 0.83752 0.69129 0.87291
 H701 H 0.83381 0.66606 0.83659
 H702 H 0.84459 0.65510 0.84713
 N703 N 0.82564 0.13624 0.33274
 N704 N 0.83485 0.13685 0.32342
 C705 C 0.83298 0.12674 0.31489
 C706 C 0.82200 0.11937 0.31908
 C707 C 0.81761 0.12573 0.33047
 H708 H 0.83905 0.12500 0.30617
 H709 H 0.80923 0.12294 0.33671
 Cu710 Cu 0.84829 0.15087 0.32326
 Cu711 Cu 0.82466 0.14918 0.34703
 Cu712 Cu 0.84826 0.17454 0.34678
 N713 N 0.86125 0.16533 0.32307
 N714 N 0.86128 0.17450 0.33233
 C715 C 0.87122 0.18323 0.32981
 C716 C 0.87776 0.17937 0.31830
 C717 C 0.87114 0.16795 0.31433
 H718 H 0.87335 0.19186 0.33581
 H719 H 0.87339 0.16194 0.30574
 N720 N 0.83426 0.17285 0.36054
 N721 N 0.82530 0.16320 0.36063
 C722 C 0.81712 0.16478 0.37115
 C723 C 0.82108 0.17599 0.37808
 C724 C 0.83200 0.18083 0.37102
 H725 H 0.80891 0.15821 0.37359
 H726 H 0.83782 0.18959 0.37326
 H727 H 0.83330 0.16468 0.33653
 H728 H 0.84477 0.15433 0.34695
 N729 N 0.67366 0.36290 0.33310
 N730 N 0.66580 0.36071 0.32288
 C731 C 0.66722 0.37069 0.31408
 C732 C 0.67655 0.37962 0.31904
 C733 C 0.68037 0.37433 0.33117
 H734 H 0.66212 0.37118 0.30463
 H735 H 0.68769 0.37832 0.33799
 Cu736 Cu 0.65481 0.34485 0.32177
 Cu737 Cu 0.67559 0.35020 0.34757
 Cu738 Cu 0.65634 0.32156 0.34556
 N739 N 0.64068 0.33173 0.32399
 N740 N 0.64129 0.32266 0.33334
 C741 C 0.63057 0.31459 0.33235
 C742 C 0.62275 0.31885 0.32179
 C743 C 0.62951 0.32979 0.31672
 H744 H 0.62880 0.30608 0.33868
 H745 H 0.62660 0.33587 0.30835
 N746 N 0.66908 0.32496 0.36006
 N747 N 0.67617 0.33597 0.36102
 C748 C 0.68390 0.33525 0.37196
 C749 C 0.68154 0.32320 0.37823
 C750 C 0.67203 0.31697 0.37036
 H751 H 0.69090 0.34286 0.37497
 H752 H 0.66759 0.30731 0.37192
 H753 H 0.67083 0.33380 0.33675
 H754 H 0.65658 0.34191 0.34563
 N755 N 0.67406 0.86373 0.83338
 N756 N 0.66422 0.86288 0.82474
 C757 C 0.66536 0.87284 0.81589
 C758 C 0.67652 0.88041 0.81912
 C759 C 0.68178 0.87428 0.83032
 H760 H 0.65865 0.87433 0.80760
 H761 H 0.69059 0.87721 0.83585
 Cu762 Cu 0.65093 0.84875 0.82564
 Cu763 Cu 0.67626 0.85095 0.84774
 Cu764 Cu 0.65362 0.82485 0.84893
 N765 N 0.63860 0.83379 0.82632
 N766 N 0.63980 0.82439 0.83530
 C767 C 0.63020 0.81519 0.83332
 C768 C 0.62250 0.81904 0.82253
 C769 C 0.62815 0.83091 0.81835
 H770 H 0.62886 0.80641 0.83937
 H771 H 0.62504 0.83687 0.80996
 N772 N 0.66825 0.82704 0.86188
 N773 N 0.67682 0.83702 0.86150
 C774 C 0.68551 0.83577 0.87168
 C775 C 0.68227 0.82444 0.87882
 C776 C 0.67125 0.81918 0.87228
 H777 H 0.69369 0.84254 0.87364
 H778 H 0.66575 0.81032 0.87493
 H779 H 0.66741 0.83538 0.83762
 H780 H 0.65637 0.84520 0.84897
 N781 N 0.17585 0.36045 0.83708
 N782 N 0.16639 0.36151 0.82805
 C783 C 0.16910 0.37202 0.82021
 C784 C 0.18091 0.37786 0.82453
 C785 C 0.18491 0.37022 0.83527
 H786 H 0.16309 0.37500 0.81179
 H787 H 0.19374 0.37164 0.84134
 Cu788 Cu 0.15163 0.34886 0.82703
 Cu789 Cu 0.17589 0.34633 0.85029
 Cu790 Cu 0.15060 0.32285 0.84811
 N791 N 0.13785 0.33520 0.82573
 N792 N 0.13753 0.32508 0.83396
 C793 C 0.12716 0.31713 0.83078
 C794 C 0.12058 0.32251 0.81991
 C795 C 0.12768 0.33401 0.81699
 H796 H 0.12462 0.30812 0.83605
 H797 H 0.12573 0.34090 0.80898
 N798 N 0.16470 0.32227 0.86179
 N799 N 0.17424 0.33131 0.86274
 C800 C 0.18226 0.32820 0.87306
 C801 C 0.17759 0.31660 0.87885
 C802 C 0.16643 0.31314 0.87142
 H803 H 0.19101 0.33383 0.87599
 H804 H 0.15999 0.30464 0.87298
 H805 H 0.16595 0.33280 0.83840
 H806 H 0.15543 0.34271 0.85016
 N807 N 0.17601 0.86161 0.33703
 N808 N 0.16621 0.86221 0.32833
 C809 C 0.16828 0.87268 0.32024
 C810 C 0.18002 0.87902 0.32410
 C811 C 0.18462 0.87167 0.33482
 H812 H 0.16174 0.87546 0.31214
 H813 H 0.19369 0.87335 0.34047
 Cu814 Cu 0.15182 0.84911 0.32815
 Cu815 Cu 0.17707 0.84770 0.35038
 Cu816 Cu 0.15236 0.82352 0.34985
 N817 N 0.13845 0.83500 0.32767
 N818 N 0.13871 0.82505 0.33612
 C819 C 0.12851 0.81672 0.33339
 C820 C 0.12142 0.82167 0.32260
 C821 C 0.12808 0.83332 0.31927
 H822 H 0.12650 0.80768 0.33883
 H823 H 0.12567 0.84004 0.31124
 N824 N 0.16702 0.82368 0.36299
 N825 N 0.17647 0.83288 0.36312
 C826 C 0.18515 0.83020 0.37300
 C827 C 0.18101 0.81876 0.37944
 C828 C 0.16944 0.81493 0.37284
 H829 H 0.19382 0.83619 0.37538
 H830 H 0.16338 0.80626 0.37490
 H831 H 0.16696 0.83359 0.33925
 H832 H 0.15672 0.84351 0.35123
 C833 C 0.24942 1.03973 0.23946
 C834 C 0.24052 1.03978 0.24984
 C835 C 0.24006 1.02688 0.25468
 N836 N 0.24843 1.01898 0.24765
 C837 C 0.25414 1.02682 0.23831
 C838 C 0.23256 1.02281 0.26589
 C839 C 0.23058 1.00933 0.26942
 C840 C 0.22523 1.00504 0.28139
 C841 C 0.22438 0.99142 0.28073
 C842 C 0.22927 0.98774 0.26839
 N843 N 0.23291 0.99872 0.26152
 C844 C 0.22978 0.97453 0.26365
 C845 C 0.23730 0.97063 0.25241
 C846 C 0.23690 0.95808 0.24677
 C847 C 0.24628 0.95802 0.23681
 C848 C 0.25207 0.97054 0.23666
 N849 N 0.24660 0.97822 0.24624
 C850 C 0.26280 0.97438 0.22831
 C851 C 0.26726 0.98765 0.22697
 C852 C 0.27908 0.99144 0.22072
 C853 C 0.27945 1.00510 0.22095
 C854 C 0.26787 1.00927 0.22739
 N855 N 0.26045 0.99859 0.23093
 C856 C 0.26420 1.02270 0.22931
 H857 H 0.25219 1.04826 0.23352
 H858 H 0.23505 1.04835 0.25343
 H859 H 0.25067 0.99883 0.23454
 H860 H 0.22219 1.01109 0.28973
 H861 H 0.22059 0.98496 0.28847
 H862 H 0.23061 0.94978 0.24960
 H863 H 0.24861 0.94968 0.23044
 H864 H 0.28735 1.01125 0.21685
 H865 H 0.23550 0.99904 0.25155
 H866 H 0.28664 0.98504 0.21638
 C867 C 0.23588 0.53832 0.74512
 C868 C 0.24594 0.53804 0.73583
 C869 C 0.25223 0.52580 0.73711
 N870 N 0.24636 0.51861 0.74684
 C871 C 0.23635 0.52625 0.75174
 C872 C 0.26387 0.52189 0.73012
 C873 C 0.26903 0.50882 0.73048
 C874 C 0.28179 0.50518 0.72630
 C875 C 0.28264 0.49161 0.72767
 C876 C 0.27037 0.48733 0.73262
 N877 N 0.26211 0.49788 0.73426
 C878 C 0.26680 0.47391 0.73471
 C879 C 0.25551 0.47002 0.74228
 C880 C 0.25047 0.45721 0.74298
 C881 C 0.24020 0.45746 0.75207
 C882 C 0.23932 0.47042 0.75660
 N883 N 0.24870 0.47808 0.75063
 C884 C 0.23063 0.47478 0.76678
 C885 C 0.22867 0.48833 0.76986
 C886 C 0.22279 0.49299 0.78142
 C887 C 0.22217 0.50661 0.78031
 C888 C 0.22766 0.50988 0.76808
 N889 N 0.23154 0.49867 0.76176
 C890 C 0.22837 0.52288 0.76281
 H891 H 0.22908 0.54654 0.74689
 H892 H 0.24846 0.54599 0.72902
 H893 H 0.23463 0.49799 0.75193
 H894 H 0.28967 0.51163 0.72262
 H895 H 0.29130 0.48556 0.72522
 H896 H 0.25386 0.44856 0.73756
 H897 H 0.23414 0.44904 0.75506
 H898 H 0.21811 0.51333 0.78766
 H899 H 0.25189 0.49747 0.73640
 H900 H 0.21930 0.48719 0.78979
 C901 C 0.73551 -0.04065 0.25089
 C902 C 0.74519 -0.04077 0.26057
 C903 C 0.75075 -0.02815 0.26079
 N904 N 0.74482 -0.02034 0.25157
 C905 C 0.73547 -0.02795 0.24552
 C906 C 0.76168 -0.02428 0.26885
 C907 C 0.76593 -0.01095 0.27016
 C908 C 0.77806 -0.00702 0.27566
 C909 C 0.77804 0.00664 0.27581
 C910 C 0.76589 0.01069 0.27040
 N911 N 0.75854 -0.00009 0.26703
 C912 C 0.76161 0.02404 0.26933
 C913 C 0.75065 0.02810 0.26139
 C914 C 0.74510 0.04074 0.26140
 C915 C 0.73542 0.04087 0.25172
 C916 C 0.73538 0.02830 0.24613
 N917 N 0.74472 0.02052 0.25203
 C918 C 0.72741 0.02448 0.23519
 C919 C 0.72622 0.01119 0.23085
 C920 C 0.72077 0.00736 0.21879
 C921 C 0.72081 -0.00631 0.21864
 C922 C 0.72626 -0.01045 0.23061
 N923 N 0.72947 0.00027 0.23802
 C924 C 0.72750 -0.02386 0.23466
 H925 H 0.72926 -0.04898 0.24809
 H926 H 0.74787 -0.04922 0.26668
 H927 H 0.73231 0.00014 0.24794
 H928 H 0.78609 -0.01335 0.27925
 H929 H 0.78605 0.01288 0.27954
 H930 H 0.74779 0.04904 0.26766
 H931 H 0.72920 0.04929 0.24906
 H932 H 0.71717 -0.01248 0.21064
 H933 H 0.74851 -0.00007 0.26417
 H934 H 0.71711 0.01374 0.21093
 C935 C 0.73422 0.45954 0.75487
 C936 C 0.74396 0.45952 0.76449
 C937 C 0.74966 0.47208 0.76440
 N938 N 0.74374 0.47976 0.75506
 C939 C 0.73428 0.47212 0.74923
 C940 C 0.76073 0.47598 0.77226
 C941 C 0.76505 0.48932 0.77333
 C942 C 0.77724 0.49328 0.77869
 C943 C 0.77731 0.50695 0.77852
 C944 C 0.76518 0.51097 0.77305
 N945 N 0.75773 0.50017 0.76997
 C946 C 0.76101 0.52434 0.77167
 C947 C 0.75008 0.52833 0.76363
 C948 C 0.74467 0.54103 0.76336
 C949 C 0.73499 0.54105 0.75367
 C950 C 0.73480 0.52836 0.74836
 N951 N 0.74406 0.52061 0.75444
 C952 C 0.72676 0.52438 0.73753
 C953 C 0.72540 0.51098 0.73356
 C954 C 0.71991 0.50689 0.72161
 C955 C 0.71980 0.49322 0.72181
 C956 C 0.72522 0.48934 0.73389
 N957 N 0.72854 0.50022 0.74101
 C958 C 0.72634 0.47602 0.73828
 H959 H 0.72788 0.45121 0.75227
 H960 H 0.74660 0.45118 0.77076
 H961 H 0.73140 0.50031 0.75092
 H962 H 0.78524 0.48699 0.78239
 H963 H 0.78538 0.51322 0.78207
 H964 H 0.74745 0.54944 0.76944
 H965 H 0.72885 0.54947 0.75083
 H966 H 0.71611 0.48688 0.71397
 H967 H 0.74770 0.50023 0.76712
 H968 H 0.71631 0.51310 0.71358
 C969 C 0.24049 0.45805 0.25188
 C970 C 0.25079 0.45802 0.26090
 C971 C 0.25581 0.47086 0.26128
 N972 N 0.24891 0.47873 0.25278
 C973 C 0.23951 0.47092 0.24706
 C974 C 0.26711 0.47490 0.26875
 C975 C 0.27066 0.48838 0.27062
 C976 C 0.28281 0.49271 0.27580
 C977 C 0.28204 0.50633 0.27667
 C978 C 0.26947 0.50997 0.27194
 N979 N 0.26256 0.49897 0.26837
 C980 C 0.26453 0.52315 0.27153
 C981 C 0.25311 0.52701 0.26413
 C982 C 0.24719 0.53948 0.26460
 C983 C 0.23719 0.53954 0.25524
 C984 C 0.23731 0.52709 0.24940
 N985 N 0.24707 0.51946 0.25481
 C986 C 0.22908 0.52330 0.23864
 C987 C 0.22801 0.51007 0.23408
 C988 C 0.22201 0.50635 0.22224
 C989 C 0.22242 0.49270 0.22177
 C990 C 0.22870 0.48846 0.23330
 N991 N 0.23199 0.49910 0.24079
 C992 C 0.23064 0.47503 0.23691
 H993 H 0.23446 0.44955 0.24913
 H994 H 0.25423 0.44948 0.26650
 H995 H 0.23541 0.49880 0.25052
 H996 H 0.29134 0.48669 0.27871
 H997 H 0.28985 0.51281 0.28037
 H998 H 0.24987 0.54772 0.27094
 H999 H 0.23065 0.54783 0.25295
 H1000 H 0.21852 0.48659 0.21384
 H1001 H 0.25244 0.49862 0.26589
 H1002 H 0.21771 0.51279 0.21474
 C1003 C 0.74761 1.04207 0.73719
 C1004 C 0.73754 1.04217 0.74648
 C1005 C 0.73647 1.02930 0.75127
 N1006 N 0.74556 1.02134 0.74523
 C1007 C 0.75234 1.02912 0.73658
 C1008 C 0.72788 1.02535 0.76173
 C1009 C 0.72634 1.01204 0.76595
 C1010 C 0.72029 1.00821 0.77774
 C1011 C 0.72057 0.99455 0.77808
 C1012 C 0.72675 0.99040 0.76647
 N1013 N 0.73007 1.00113 0.75906
 C1014 C 0.72860 0.97697 0.76280
 C1015 C 0.73655 0.97280 0.75197
 C1016 C 0.73717 0.95987 0.74730
 C1017 C 0.74660 0.95977 0.73739
 C1018 C 0.75153 0.97261 0.73639
 N1019 N 0.74539 0.98055 0.74534
 C1020 C 0.76222 0.97653 0.72802
 C1021 C 0.76652 0.98985 0.72655
 C1022 C 0.77862 0.99366 0.72088
 C1023 C 0.77897 1.00731 0.72117
 C1024 C 0.76705 1.01149 0.72696
 N1025 N 0.75945 1.00078 0.73007
 C1026 C 0.76335 1.02495 0.72878
 H1027 H 0.75112 1.05058 0.73161
 H1028 H 0.73180 1.05080 0.74950
 H1029 H 0.74951 1.00095 0.73322
 H1030 H 0.71614 1.01459 0.78534
 H1031 H 0.71662 0.98838 0.78598
 H1032 H 0.73149 0.95137 0.75076
 H1033 H 0.74962 0.95116 0.73170
 H1034 H 0.78711 1.01345 0.71752
 H1035 H 0.73346 1.00099 0.74933
 H1036 H 0.78646 0.98726 0.71702
 C1037 C 0.75917 0.54147 0.24948
 C1038 C 0.74900 0.54139 0.25867
 C1039 C 0.74411 0.52851 0.25912
 N1040 N 0.75089 0.52074 0.25048
 C1041 C 0.76014 0.52864 0.24461
 C1042 C 0.73300 0.52436 0.26682
 C1043 C 0.72933 0.51089 0.26851
 C1044 C 0.71723 0.50661 0.27386
 C1045 C 0.71778 0.49297 0.27434
 C1046 C 0.73020 0.48928 0.26928
 N1047 N 0.73722 0.50027 0.26585
 C1048 C 0.73494 0.47604 0.26854
 C1049 C 0.74629 0.47222 0.26101
 C1050 C 0.75211 0.45970 0.26130
 C1051 C 0.76218 0.45977 0.25201
 C1052 C 0.76220 0.47234 0.24636
 N1053 N 0.75244 0.47992 0.25184
 C1054 C 0.77057 0.47632 0.23576
 C1055 C 0.77159 0.48960 0.23128
 C1056 C 0.77760 0.49347 0.21947
 C1057 C 0.77713 0.50712 0.21907
 C1058 C 0.77084 0.51122 0.23064
 N1059 N 0.76757 0.50049 0.23806
 C1060 C 0.76891 0.52463 0.23434
 H1061 H 0.76510 0.55004 0.24666
 H1062 H 0.74557 0.54988 0.26432
 H1063 H 0.76417 0.50065 0.24780
 H1064 H 0.70888 0.51269 0.27712
 H1065 H 0.70992 0.48651 0.27803
 H1066 H 0.74935 0.45134 0.26750
 H1067 H 0.76870 0.45149 0.24964
 H1068 H 0.78102 0.51333 0.21118
 H1069 H 0.74730 0.50056 0.26318
 H1070 H 0.78193 0.48712 0.21194
 C1071 C 0.24610 0.03958 0.76515
 C1072 C 0.23682 0.03950 0.75510
 C1073 C 0.23702 0.02682 0.74976
 N1074 N 0.24613 0.01918 0.75618
 C1075 C 0.25167 0.02696 0.76561
 C1076 C 0.22949 0.02277 0.73861
 C1077 C 0.22841 0.00938 0.73455
 C1078 C 0.22334 0.00527 0.72241
 C1079 C 0.22325 -0.00839 0.72262
 C1080 C 0.22827 -0.01225 0.73486
 N1081 N 0.23132 -0.00137 0.74210
 C1082 C 0.22927 -0.02555 0.73929
 C1083 C 0.23696 -0.02940 0.75043
 C1084 C 0.23688 -0.04199 0.75605
 C1085 C 0.24635 -0.04191 0.76592
 C1086 C 0.25190 -0.02927 0.76601
 N1087 N 0.24616 -0.02165 0.75652
 C1088 C 0.26270 -0.02527 0.77417
 C1089 C 0.26679 -0.01188 0.77552
 C1090 C 0.27874 -0.00781 0.78131
 C1091 C 0.27862 0.00586 0.78132
 C1092 C 0.26662 0.00977 0.77549
 N1093 N 0.25943 -0.00110 0.77207
 C1094 C 0.26236 0.02310 0.77402
 H1095 H 0.24853 0.04801 0.77135
 H1096 H 0.23068 0.04784 0.75204
 H1097 H 0.24950 -0.00117 0.76888
 H1098 H 0.21999 0.01148 0.71428
 H1099 H 0.21982 -0.01475 0.71467
 H1100 H 0.23071 -0.05038 0.75327
 H1101 H 0.24891 -0.05023 0.77225
 H1102 H 0.28648 0.01219 0.78518
 H1103 H 0.23382 -0.00126 0.75210
 H1104 H 0.28670 -0.01404 0.78518
 C1105 C 0.24830 0.25569 0.95906
 C1106 C 0.25790 0.24591 0.95887
 C1107 C 0.25852 0.24076 0.97162
 N1108 N 0.24953 0.24695 0.97953
 C1109 C 0.24328 0.25611 0.97189
 C1110 C 0.26665 0.22990 0.97546
 C1111 C 0.26849 0.22585 0.98878
 C1112 C 0.27465 0.21409 0.99265
 C1113 C 0.27502 0.21412 1.00630
 C1114 C 0.26906 0.22588 1.01038
 N1115 N 0.26524 0.23303 0.99964
 C1116 C 0.26778 0.22994 1.02374
 C1117 C 0.25932 0.24044 1.02786
 C1118 C 0.25897 0.24559 1.04060
 C1119 C 0.24887 0.25486 1.04077
 C1120 C 0.24338 0.25509 1.02814
 N1121 N 0.24976 0.24625 1.02027
 C1122 C 0.23212 0.26279 1.02434
 C1123 C 0.22802 0.26448 1.01100
 C1124 C 0.21587 0.26999 1.00707
 C1125 C 0.21602 0.27049 0.99344
 C1126 C 0.22822 0.26519 0.98940
 N1127 N 0.23553 0.26166 1.00016
 C1128 C 0.23245 0.26420 0.97605
 H1129 H 0.24524 0.26168 0.95066
 H1130 H 0.26370 0.24287 0.95031
 H1131 H 0.24557 0.25881 1.00013
 H1132 H 0.27855 0.20633 0.98631
 H1133 H 0.27921 0.20635 1.01249
 H1134 H 0.26526 0.24288 1.04893
 H1135 H 0.24587 0.26072 1.04927
 H1136 H 0.20802 0.27429 0.98721
 H1137 H 0.26190 0.24280 0.99971
 H1138 H 0.20773 0.27336 1.01336
 C1139 C 0.24098 0.74664 0.54185
 C1140 C 0.25169 0.73806 0.54183
 C1141 C 0.25662 0.73787 0.52897
 N1142 N 0.24932 0.74608 0.52116
 C1143 C 0.23973 0.75143 0.52901
 C1144 C 0.26824 0.73089 0.52492
 C1145 C 0.27236 0.72968 0.51156
 C1146 C 0.28481 0.72497 0.50751
 C1147 C 0.28472 0.72495 0.49386
 C1148 C 0.27221 0.72964 0.48995
 N1149 N 0.26469 0.73234 0.50080
 C1150 C 0.26791 0.73079 0.47664
 C1151 C 0.25620 0.73767 0.47267
 C1152 C 0.25110 0.73776 0.45988
 C1153 C 0.24034 0.74628 0.45991
 C1154 C 0.23924 0.75115 0.47272
 N1155 N 0.24896 0.74590 0.48049
 C1156 C 0.23004 0.76106 0.47671
 C1157 C 0.22814 0.76493 0.49005
 C1158 C 0.22133 0.77628 0.49401
 C1159 C 0.22147 0.77636 0.50765
 C1160 C 0.22835 0.76505 0.51165
 N1161 N 0.23224 0.75806 0.50087
 C1162 C 0.23048 0.76132 0.52502
 H1163 H 0.23492 0.74919 0.55039
 H1164 H 0.25550 0.73268 0.55036
 H1165 H 0.23632 0.74855 0.50091
 H1166 H 0.29311 0.72188 0.51373
 H1167 H 0.29294 0.72183 0.48755
 H1168 H 0.25483 0.73236 0.45136
 H1169 H 0.23414 0.74874 0.45143
 H1170 H 0.21705 0.78394 0.51389
 H1171 H 0.25450 0.73459 0.50086
 H1172 H 0.21679 0.78378 0.48773
 C1173 C 0.24321 0.76588 -0.04023
 C1174 C 0.23384 0.75591 -0.04009
 C1175 C 0.23380 0.75072 -0.02734
 N1176 N 0.24285 0.75716 -0.01971
 C1177 C 0.24861 0.76645 -0.02757
 C1178 C 0.22619 0.73961 -0.02323
 C1179 C 0.22486 0.73573 -0.00981
 C1180 C 0.21981 0.72361 -0.00556
 C1181 C 0.21958 0.72397 0.00807
 C1182 C 0.22450 0.73630 0.01178
 N1183 N 0.22762 0.74344 0.00082
 C1184 C 0.22541 0.74087 0.02499
 C1185 C 0.23295 0.75215 0.02870
 C1186 C 0.23273 0.75791 0.04117
 C1187 C 0.24220 0.76780 0.04103
 C1188 C 0.24788 0.76776 0.02847
 N1189 N 0.24222 0.75818 0.02095
 C1190 C 0.25882 0.77576 0.02449
 C1191 C 0.26315 0.77689 0.01118
 C1192 C 0.27525 0.78245 0.00720
 C1193 C 0.27539 0.78218 -0.00644
 C1194 C 0.26338 0.77645 -0.01041
 N1195 N 0.25593 0.77335 0.00039
 C1196 C 0.25934 0.77478 -0.02374
 H1197 H 0.24584 0.77195 -0.04872
 H1198 H 0.22780 0.75278 -0.04844
 H1199 H 0.24596 0.77027 0.00035
 H1200 H 0.21659 0.71536 -0.01165
 H1201 H 0.21616 0.71605 0.01451
 H1202 H 0.22650 0.75519 0.04955
 H1203 H 0.24471 0.77420 0.04927
 H1204 H 0.28343 0.78580 -0.01272
 H1205 H 0.23010 0.75346 0.00057
 H1206 H 0.28316 0.78632 0.01346
 C1207 C 0.26067 0.24571 0.53994
 C1208 C 0.25088 0.23613 0.53989
 C1209 C 0.24465 0.23685 0.52762
 N1210 N 0.25027 0.24657 0.52019
 C1211 C 0.26009 0.25199 0.52770
 C1212 C 0.23340 0.22918 0.52383
 C1213 C 0.22839 0.22874 0.51070
 C1214 C 0.21614 0.22326 0.50708
 C1215 C 0.21527 0.22425 0.49350
 C1216 C 0.22699 0.23034 0.48920
 N1217 N 0.23498 0.23294 0.49973
 C1218 C 0.23024 0.23280 0.47577
 C1219 C 0.24075 0.24133 0.47170
 C1220 C 0.24518 0.24269 0.45874
 C1221 C 0.25479 0.25243 0.45881
 C1222 C 0.25592 0.25673 0.47181
 N1223 N 0.24729 0.24996 0.47968
 C1224 C 0.26424 0.26730 0.47603
 C1225 C 0.26663 0.27026 0.48954
 C1226 C 0.27258 0.28185 0.49409
 C1227 C 0.27366 0.28066 0.50765
 C1228 C 0.26831 0.26839 0.51103
 N1229 N 0.26415 0.26208 0.49993
 C1230 C 0.26789 0.26314 0.52406
 H1231 H 0.26737 0.24788 0.54810
 H1232 H 0.24857 0.22945 0.54800
 H1233 H 0.26111 0.25223 0.49933
 H1234 H 0.20862 0.21895 0.51355
 H1235 H 0.20695 0.22084 0.48749
 H1236 H 0.24178 0.23729 0.45010
 H1237 H 0.26028 0.25596 0.45023
 H1238 H 0.27790 0.28800 0.51425
 H1239 H 0.24491 0.23609 0.49930
 H1240 H 0.27585 0.29029 0.48826
 C1241 C 0.75103 0.75902 1.04000
 C1242 C 0.76049 0.74910 1.03994
 C1243 C 0.76119 0.74444 1.02703
 N1244 N 0.75238 0.75108 1.01925
 C1245 C 0.74618 0.76004 1.02715
 C1246 C 0.76923 0.73365 1.02289
 C1247 C 0.77101 0.72991 1.00950
 C1248 C 0.77702 0.71818 1.00538
 C1249 C 0.77733 0.71850 0.99175
 C1250 C 0.77151 0.73043 0.98790
 N1251 N 0.76783 0.73739 0.99878
 C1252 C 0.77019 0.73473 0.97460
 C1253 C 0.76196 0.74550 0.97064
 C1254 C 0.76134 0.75059 0.95787
 C1255 C 0.75154 0.76018 0.95793
 C1256 C 0.74656 0.76070 0.97075
 N1257 N 0.75288 0.75167 0.97849
 C1258 C 0.73569 0.76875 0.97483
 C1259 C 0.73160 0.77022 0.98818
 C1260 C 0.71969 0.77617 0.99216
 C1261 C 0.71967 0.77614 1.00579
 C1262 C 0.73159 0.77018 1.00978
 N1263 N 0.73886 0.76673 0.99898
 C1264 C 0.73560 0.76853 1.02314
 H1265 H 0.74799 0.76473 1.04858
 H1266 H 0.76613 0.74563 1.04845
 H1267 H 0.74876 0.76346 0.99898
 H1268 H 0.78084 0.71022 1.01156
 H1269 H 0.78138 0.71081 0.98541
 H1270 H 0.76722 0.74760 0.94934
 H1271 H 0.74837 0.76602 0.94946
 H1272 H 0.71175 0.78004 1.01204
 H1273 H 0.76463 0.74720 0.99893
 H1274 H 0.71182 0.78016 0.98589
 C1275 C 0.74896 0.23696 0.53849
 C1276 C 0.73920 0.24658 0.53863
 C1277 C 0.73942 0.25256 0.52624
 N1278 N 0.74901 0.24696 0.51856
 C1279 C 0.75484 0.23739 0.52603
 C1280 C 0.73144 0.26356 0.52251
 C1281 C 0.73052 0.26832 0.50935
 C1282 C 0.72485 0.28038 0.50570
 C1283 C 0.72522 0.28097 0.49208
 C1284 C 0.73115 0.26926 0.48779
 N1285 N 0.73427 0.26157 0.49836
 C1286 C 0.73284 0.26567 0.47436
 C1287 C 0.74141 0.25530 0.47014
 C1288 C 0.74225 0.25064 0.45724
 C1289 C 0.75227 0.24128 0.45711
 C1290 C 0.75718 0.24049 0.46994
 N1291 N 0.75057 0.24911 0.47788
 C1292 C 0.76813 0.23248 0.47392
 C1293 C 0.77172 0.23036 0.48733
 C1294 C 0.78369 0.22464 0.49151
 C1295 C 0.78309 0.22384 0.50511
 C1296 C 0.77077 0.22909 0.50888
 N1297 N 0.76386 0.23294 0.49797
 C1298 C 0.76602 0.22967 0.52208
 H1299 H 0.75151 0.23045 0.54668
 H1300 H 0.73274 0.24896 0.54693
 H1301 H 0.75384 0.23584 0.49772
 H1302 H 0.72078 0.28795 0.51218
 H1303 H 0.72151 0.28908 0.48603
 H1304 H 0.73633 0.25373 0.44876
 H1305 H 0.75558 0.23572 0.44853
 H1306 H 0.79085 0.21983 0.51149
 H1307 H 0.73736 0.25172 0.49802
 H1308 H 0.79199 0.22134 0.48539
 C1309 C 0.74670 0.24537 -0.04221
 C1310 C 0.75609 0.25532 -0.04213
 C1311 C 0.75694 0.25978 -0.02917
 N1312 N 0.74836 0.25293 -0.02133
 C1313 C 0.74208 0.24410 -0.02930
 C1314 C 0.76486 0.27061 -0.02494
 C1315 C 0.76733 0.27339 -0.01143
 C1316 C 0.77256 0.28521 -0.00666
 C1317 C 0.77422 0.28362 0.00680
 C1318 C 0.76997 0.27086 0.00986
 N1319 N 0.76584 0.26467 -0.00132
 C1320 C 0.77050 0.26505 0.02263
 C1321 C 0.76337 0.25338 0.02597
 C1322 C 0.76487 0.24636 0.03772
 C1323 C 0.75519 0.23666 0.03771
 C1324 C 0.74815 0.23805 0.02593
 N1325 N 0.75316 0.24827 0.01877
 C1326 C 0.73658 0.23072 0.02250
 C1327 C 0.73092 0.23082 0.00964
 C1328 C 0.71835 0.22583 0.00642
 C1329 C 0.71693 0.22720 -0.00709
 C1330 C 0.72866 0.23301 -0.01174
 N1331 N 0.73716 0.23512 -0.00149
 C1332 C 0.73157 0.23558 -0.02523
 H1333 H 0.74358 0.23975 -0.05082
 H1334 H 0.76164 0.25889 -0.05066
 H1335 H 0.74716 0.23800 -0.00225
 H1336 H 0.77496 0.29407 -0.01230
 H1337 H 0.77812 0.29102 0.01354
 H1338 H 0.77206 0.24815 0.04557
 H1339 H 0.75343 0.22950 0.04555
 H1340 H 0.70825 0.22423 -0.01284
 H1341 H 0.76354 0.25464 -0.00222
 H1342 H 0.71098 0.22158 0.01310
 C1343 C 0.75014 0.74504 0.45929
 C1344 C 0.76005 0.75449 0.45930
 C1345 C 0.76050 0.75965 0.47203
 N1346 N 0.75118 0.75369 0.47977
 C1347 C 0.74485 0.74473 0.47201
 C1348 C 0.76881 0.77030 0.47602
 C1349 C 0.77023 0.77436 0.48935
 C1350 C 0.77605 0.78621 0.49336
 C1351 C 0.77597 0.78617 0.50700
 C1352 C 0.77013 0.77429 0.51096
 N1353 N 0.76678 0.76711 0.50013
 C1354 C 0.76873 0.77011 0.52428
 C1355 C 0.76099 0.75904 0.52825
 C1356 C 0.76080 0.75379 0.54096
 C1357 C 0.75146 0.74377 0.54092
 C1358 C 0.74615 0.74332 0.52822
 N1359 N 0.75198 0.75268 0.52050
 C1360 C 0.73541 0.73504 0.52425
 C1361 C 0.73084 0.73410 0.51101
 C1362 C 0.71859 0.72873 0.50725
 C1363 C 0.71806 0.72938 0.49363
 C1364 C 0.73005 0.73503 0.48942
 N1365 N 0.73781 0.73781 0.50008
 C1366 C 0.73377 0.73689 0.47598
 H1367 H 0.74714 0.73911 0.45085
 H1368 H 0.76617 0.75731 0.45087
 H1369 H 0.74781 0.74077 0.49987
 H1370 H 0.77997 0.79405 0.48711
 H1371 H 0.77989 0.79396 0.51329
 H1372 H 0.76670 0.75691 0.54942
 H1373 H 0.74876 0.73765 0.54935
 H1374 H 0.70979 0.72602 0.48753
 H1375 H 0.76365 0.75728 0.50008
 H1376 H 0.71080 0.72482 0.51365
 C1377 C 1.04220 0.26049 0.24863
 C1378 C 1.04209 0.25202 0.25929
 C1379 C 1.02904 0.24731 0.26046
 N1380 N 1.02120 0.25261 0.25086
 C1381 C 1.02921 0.26072 0.24365
 C1382 C 1.02487 0.23754 0.26967
 C1383 C 1.01130 0.23379 0.27157
 C1384 C 1.00718 0.22254 0.27842
 C1385 C 0.99336 0.22256 0.27830
 C1386 C 0.98938 0.23383 0.27139
 N1387 N 1.00038 0.24070 0.26745
 C1388 C 0.97585 0.23762 0.26927
 C1389 C 0.97188 0.24745 0.26003
 C1390 C 0.95888 0.25227 0.25870
 C1391 C 0.95900 0.26079 0.24807
 C1392 C 0.97206 0.26091 0.24327
 N1393 N 0.97991 0.25271 0.25057
 C1394 C 0.97627 0.26783 0.23179
 C1395 C 0.98982 0.26889 0.22771
 C1396 C 0.99395 0.27355 0.21541
 C1397 C 1.00779 0.27351 0.21550
 C1398 C 1.01173 0.26883 0.22784
 N1399 N 1.00072 0.26618 0.23527
 C1400 C 1.02523 0.26765 0.23209
 H1401 H 1.05088 0.26577 0.24488
 H1402 H 1.05068 0.24950 0.26539
 H1403 H 1.00065 0.26397 0.24532
 H1404 H 1.01348 0.21504 0.28297
 H1405 H 0.98697 0.21506 0.28274
 H1406 H 0.95019 0.24980 0.26467
 H1407 H 0.95040 0.26616 0.24422
 H1408 H 1.01421 0.27659 0.20739
 H1409 H 1.00043 0.25016 0.26333
 H1410 H 0.98766 0.27668 0.20721
 C1411 C 0.54283 0.25085 0.75698
 C1412 C 0.54263 0.26114 0.74804
 C1413 C 0.52957 0.26203 0.74333
 N1414 N 0.52180 0.25261 0.74905
 C1415 C 0.52988 0.24577 0.75741
 C1416 C 0.52526 0.27084 0.73326
 C1417 C 0.51160 0.27279 0.72992
 C1418 C 0.50711 0.27905 0.71848
 C1419 C 0.49330 0.27947 0.71924
 C1420 C 0.48974 0.27350 0.73114
 N1421 N 0.50096 0.26953 0.73762
 C1422 C 0.47643 0.27241 0.73597
 C1423 C 0.47282 0.26420 0.74677
 C1424 C 0.46037 0.26431 0.75296
 C1425 C 0.46061 0.25431 0.76221
 C1426 C 0.47317 0.24839 0.76133
 N1427 N 0.48062 0.25445 0.75188
 C1428 C 0.47719 0.23697 0.76846
 C1429 C 0.49049 0.23200 0.76835
 C1430 C 0.49420 0.21939 0.77254
 C1431 C 0.50796 0.21865 0.77140
 C1432 C 0.51230 0.23085 0.76662
 N1433 N 0.50158 0.23895 0.76483
 C1434 C 0.52592 0.23447 0.76479
 H1435 H 0.55153 0.24748 0.76249
 H1436 H 0.55115 0.26723 0.74527
 H1437 H 0.50193 0.24906 0.76275
 H1438 H 0.51315 0.28292 0.71043
 H1439 H 0.48666 0.28375 0.71188
 H1440 H 0.45196 0.27085 0.75095
 H1441 H 0.45241 0.25160 0.76873
 H1442 H 0.51408 0.21010 0.77387
 H1443 H 0.50144 0.26607 0.74733
 H1444 H 0.48767 0.21153 0.77604
 C1445 C 0.04168 0.24779 0.74117
 C1446 C 0.04164 0.25764 0.75053
 C1447 C 0.02847 0.25888 0.75489
 N1448 N 0.02051 0.25003 0.74860
 C1449 C 0.02856 0.24327 0.74017
 C1450 C 0.02422 0.26749 0.76510
 C1451 C 0.01058 0.26988 0.76826
 C1452 C 0.00618 0.27634 0.77959
 C1453 C -0.00760 0.27712 0.77875
 C1454 C -0.01125 0.27112 0.76692
 N1455 N -0.00009 0.26684 0.76053
 C1456 C -0.02457 0.27022 0.76212
 C1457 C -0.02844 0.26184 0.75157
 C1458 C -0.04104 0.26183 0.74570
 C1459 C -0.04101 0.25172 0.73660
 C1460 C -0.02840 0.24588 0.73722
 N1461 N -0.02074 0.25205 0.74641
 C1462 C -0.02445 0.23455 0.72995
 C1463 C -0.01108 0.22979 0.72949
 C1464 C -0.00730 0.21747 0.72458
 C1465 C 0.00650 0.21693 0.72516
 C1466 C 0.01077 0.22891 0.73046
 N1467 N 0.00000 0.23671 0.73300
 C1468 C 0.02438 0.23255 0.73216
 H1469 H 0.05041 0.24427 0.73580
 H1470 H 0.05032 0.26322 0.75380
 H1471 H 0.00030 0.24671 0.73553
 H1472 H 0.01226 0.28013 0.78763
 H1473 H -0.01418 0.28161 0.78603
 H1474 H -0.04942 0.26836 0.74781
 H1475 H -0.04936 0.24895 0.73032
 H1476 H 0.01268 0.20866 0.72201
 H1477 H 0.00031 0.26331 0.75087
 H1478 H -0.01381 0.20970 0.72088
 C1479 C 0.46018 0.25557 0.23447
 C1480 C 0.46011 0.26555 0.24371
 C1481 C 0.47234 0.26487 0.25027
 N1482 N 0.47984 0.25479 0.24541
 C1483 C 0.47242 0.24909 0.23576
 C1484 C 0.47596 0.27279 0.26123
 C1485 C 0.48919 0.27338 0.26631
 C1486 C 0.49271 0.27905 0.27834
 C1487 C 0.50649 0.27828 0.27927
 C1488 C 0.51098 0.27210 0.26782
 N1489 N 0.50039 0.26923 0.25993
 C1490 C 0.52462 0.26993 0.26459
 C1491 C 0.52880 0.26100 0.25461
 C1492 C 0.54185 0.25984 0.24992
 C1493 C 0.54186 0.24950 0.24110
 C1494 C 0.52881 0.24468 0.24069
 N1495 N 0.52085 0.25171 0.24898
 C1496 C 0.52462 0.23344 0.23342
 C1497 C 0.51094 0.23020 0.23145
 C1498 C 0.50631 0.21809 0.22677
 C1499 C 0.49260 0.21926 0.22539
 C1500 C 0.48923 0.23203 0.22932
 N1501 N 0.50046 0.23865 0.23296
 C1502 C 0.47612 0.23745 0.22886
 H1503 H 0.45208 0.25325 0.22771
 H1504 H 0.45196 0.27246 0.24546
 H1505 H 0.50111 0.24877 0.23490
 H1506 H 0.48607 0.28336 0.28566
 H1507 H 0.51252 0.28187 0.28745
 H1508 H 0.55049 0.26577 0.25263
 H1509 H 0.55050 0.24592 0.23564
 H1510 H 0.48589 0.21158 0.22187
 H1511 H 0.50093 0.26595 0.25018
 H1512 H 0.51220 0.20934 0.22450
 C1513 C 1.04253 0.73554 0.74792
 C1514 C 1.04275 0.74492 0.73805
 C1515 C 1.03040 0.75130 0.73840
 N1516 N 1.02267 0.74617 0.74818
 C1517 C 1.03006 0.73651 0.75400
 C1518 C 1.02679 0.76226 0.73039
 C1519 C 1.01355 0.76732 0.72965
 C1520 C 1.01006 0.77943 0.72401
 C1521 C 0.99627 0.78034 0.72459
 C1522 C 0.99172 0.76878 0.73059
 N1523 N 1.00230 0.76087 0.73359
 C1524 C 0.97805 0.76549 0.73249
 C1525 C 0.97373 0.75527 0.74111
 C1526 C 0.96066 0.75059 0.74195
 C1527 C 0.96047 0.74145 0.75206
 C1528 C 0.97344 0.74087 0.75707
 N1529 N 0.98153 0.74934 0.75037
 C1530 C 0.97742 0.73327 0.76820
 C1531 C 0.99104 0.73121 0.77169
 C1532 C 0.99541 0.72612 0.78374
 C1533 C 1.00917 0.72492 0.78290
 C1534 C 1.01283 0.72935 0.77039
 N1535 N 1.00173 0.73310 0.76359
 C1536 C 1.02610 0.72926 0.76535
 H1537 H 1.05068 0.72885 0.75042
 H1538 H 1.05108 0.74689 0.73142
 H1539 H 1.00133 0.73541 0.75355
 H1540 H 1.01675 0.78682 0.71985
 H1541 H 0.99028 0.78856 0.72096
 H1542 H 0.95212 0.75350 0.73595
 H1543 H 0.95177 0.73591 0.75537
 H1544 H 1.01572 0.72120 0.79064
 H1545 H 1.00176 0.75106 0.73676
 H1546 H 0.98932 0.72350 0.79224
 C1547 C 0.54317 0.75355 0.26367
 C1548 C 0.54316 0.76248 0.25339
 C1549 C 0.53018 0.76271 0.24839
 N1550 N 0.52229 0.75417 0.25522
 C1551 C 0.53021 0.74855 0.26457
 C1552 C 0.52609 0.77000 0.23712
 C1553 C 0.51247 0.77179 0.23351
 C1554 C 0.50812 0.77674 0.22140
 C1555 C 0.49432 0.77753 0.22204
 C1556 C 0.49062 0.77300 0.23452
 N1557 N 0.50174 0.76962 0.24148
 C1558 C 0.47728 0.77261 0.23935
 C1559 C 0.47345 0.76535 0.25074
 C1560 C 0.46089 0.76597 0.25667
 C1561 C 0.46088 0.75667 0.26663
 C1562 C 0.47345 0.75069 0.26646
 N1563 N 0.48111 0.75600 0.25673
 C1564 C 0.47727 0.73984 0.27452
 C1565 C 0.49067 0.73526 0.27554
 C1566 C 0.49448 0.72325 0.28119
 C1567 C 0.50830 0.72281 0.28085
 C1568 C 0.51256 0.73454 0.27498
 N1569 N 0.50176 0.74211 0.27185
 C1570 C 0.52615 0.73825 0.27322
 H1571 H 0.55178 0.75094 0.26971
 H1572 H 0.55175 0.76811 0.24992
 H1573 H 0.50201 0.75195 0.26869
 H1574 H 0.51425 0.77955 0.21297
 H1575 H 0.48777 0.78102 0.21421
 H1576 H 0.45255 0.77236 0.25402
 H1577 H 0.45254 0.75448 0.27317
 H1578 H 0.51450 0.71475 0.28450
 H1579 H 0.50208 0.76730 0.25152
 H1580 H 0.48797 0.71561 0.28518
 C1581 C -0.04085 0.75587 0.25356
 C1582 C -0.04067 0.74706 0.24322
 C1583 C -0.02765 0.74223 0.24237
 N1584 N -0.01989 0.74771 0.25191
 C1585 C -0.02794 0.75609 0.25874
 C1586 C -0.02339 0.73230 0.23342
 C1587 C -0.00977 0.72871 0.23155
 C1588 C -0.00549 0.71744 0.22486
 C1589 C 0.00833 0.71777 0.22477
 C1590 C 0.01213 0.72923 0.23139
 N1591 N 0.00102 0.73590 0.23538
 C1592 C 0.02558 0.73344 0.23311
 C1593 C 0.02947 0.74356 0.24201
 C1594 C 0.04235 0.74873 0.24299
 C1595 C 0.04217 0.75754 0.25333
 C1596 C 0.02918 0.75752 0.25831
 N1597 N 0.02145 0.74891 0.25142
 C1598 C 0.02496 0.76464 0.26963
 C1599 C 0.01144 0.76537 0.27394
 C1600 C 0.00738 0.77015 0.28619
 C1601 C -0.00645 0.76975 0.28634
 C1602 C -0.01047 0.76481 0.27414
 N1603 N 0.00049 0.76225 0.26661
 C1604 C -0.02402 0.76340 0.27006
 H1605 H -0.04954 0.76141 0.25692
 H1606 H -0.04918 0.74448 0.23706
 H1607 H 0.00047 0.75990 0.25660
 H1608 H -0.01168 0.70978 0.22049
 H1609 H 0.01483 0.71038 0.22032
 H1610 H 0.05102 0.74629 0.23697
 H1611 H 0.05069 0.76320 0.25688
 H1612 H -0.01281 0.77282 0.29449
 H1613 H 0.00079 0.74545 0.23925
 H1614 H 0.01371 0.77361 0.29420
 C1615 C 0.46062 0.76396 0.74460
 C1616 C 0.46067 0.75400 0.73535
 C1617 C 0.47291 0.74751 0.73659
 N1618 N 0.48034 0.75318 0.74626
 C1619 C 0.47285 0.76324 0.75116
 C1620 C 0.47659 0.73590 0.72966
 C1621 C 0.48970 0.73049 0.73003
 C1622 C 0.49306 0.71774 0.72603
 C1623 C 0.50678 0.71658 0.72734
 C1624 C 0.51142 0.72866 0.73207
 N1625 N 0.50095 0.73709 0.73366
 C1626 C 0.52512 0.73190 0.73399
 C1627 C 0.52933 0.74307 0.74136
 C1628 C 0.54239 0.74785 0.74181
 C1629 C 0.54240 0.75813 0.75071
 C1630 C 0.52934 0.75930 0.75538
 N1631 N 0.52138 0.75007 0.74967
 C1632 C 0.52517 0.76817 0.76541
 C1633 C 0.51153 0.77031 0.76868
 C1634 C 0.50705 0.77633 0.78023
 C1635 C 0.49328 0.77712 0.77933
 C1636 C 0.48972 0.77162 0.76723
 N1637 N 0.50092 0.76754 0.76078
 C1638 C 0.47648 0.77110 0.76216
 H1639 H 0.45247 0.77087 0.74638
 H1640 H 0.45256 0.75169 0.72859
 H1641 H 0.50144 0.76438 0.75098
 H1642 H 0.48634 0.71007 0.72249
 H1643 H 0.51267 0.70785 0.72500
 H1644 H 0.55103 0.74428 0.73634
 H1645 H 0.55105 0.76403 0.75348
 H1646 H 0.48665 0.78132 0.78673
 H1647 H 0.50162 0.74720 0.73565
 H1648 H 0.51309 0.77980 0.78844
 C1649 C 0.39880 0.30535 0.32218
 C1650 C 0.40996 0.29950 0.31616
 C1651 C 0.41436 0.30375 0.30365
 C1652 C 0.40731 0.31406 0.29723
 C1653 C 0.39611 0.31993 0.30326
 C1654 C 0.39166 0.31558 0.31578
 C1655 C 0.42579 0.29665 0.29741
 C1656 C 0.43322 0.30160 0.28746
 C1657 C 0.44427 0.29402 0.28110
 C1658 C 0.45464 0.30098 0.27466
 C1659 C 0.46504 0.29412 0.26831
 C1660 C 0.46515 0.28019 0.26819
 C1661 C 0.45478 0.27320 0.27452
 C1662 C 0.44440 0.28003 0.28086
 H1663 H 0.39581 0.30179 0.33186
 H1664 H 0.41516 0.29154 0.32130
 H1665 H 0.41012 0.31739 0.28741
 H1666 H 0.39081 0.32767 0.29795
 H1667 H 0.42839 0.28706 0.30156
 H1668 H 0.43157 0.31168 0.28409
 H1669 H 0.45470 0.31174 0.27457
 H1670 H 0.47295 0.29964 0.26339
 H1671 H 0.45468 0.26244 0.27443
 H1672 H 0.43637 0.27429 0.28528
 C1673 C 0.39843 0.80342 0.82241
 C1674 C 0.40928 0.79721 0.81618
 C1675 C 0.41471 0.80235 0.80442
 C1676 C 0.40897 0.81390 0.79894
 C1677 C 0.39812 0.82017 0.80517
 C1678 C 0.39260 0.81500 0.81700
 C1679 C 0.42588 0.79499 0.79797
 C1680 C 0.43399 0.80015 0.78865
 C1681 C 0.44490 0.79246 0.78217
 C1682 C 0.45558 0.79934 0.77616
 C1683 C 0.46592 0.79244 0.76975
 C1684 C 0.46569 0.77853 0.76915
 C1685 C 0.45500 0.77161 0.77505
 C1686 C 0.44466 0.77848 0.78141
 H1687 H 0.39469 0.79900 0.83146
 H1688 H 0.41344 0.78828 0.82060
 H1689 H 0.41255 0.81801 0.78967
 H1690 H 0.39403 0.82895 0.80049
 H1691 H 0.42769 0.78498 0.80148
 H1692 H 0.43306 0.81051 0.78595
 H1693 H 0.45594 0.81009 0.77646
 H1694 H 0.47405 0.79794 0.76517
 H1695 H 0.45463 0.76086 0.77461
 H1696 H 0.43640 0.77279 0.78545
 C1697 C -0.10087 0.30648 0.82222
 C1698 C -0.08969 0.30035 0.81651
 C1699 C -0.08564 0.30355 0.80357
 C1700 C -0.09306 0.31309 0.79641
 C1701 C -0.10426 0.31925 0.80215
 C1702 C -0.10837 0.31593 0.81508
 C1703 C -0.07417 0.29616 0.79775
 C1704 C -0.06713 0.30029 0.78717
 C1705 C -0.05603 0.29241 0.78126
 C1706 C -0.04608 0.29898 0.77385
 C1707 C -0.03571 0.29181 0.76781
 C1708 C -0.03523 0.27794 0.76895
 C1709 C -0.04514 0.27132 0.77630
 C1710 C -0.05549 0.27846 0.78236
 H1711 H -0.10360 0.30376 0.83225
 H1712 H -0.08420 0.29301 0.82223
 H1713 H -0.09055 0.31558 0.78628
 H1714 H -0.10988 0.32636 0.79629
 H1715 H -0.07121 0.28707 0.80272
 H1716 H -0.06916 0.30995 0.78288
 H1717 H -0.04634 0.30969 0.77275
 H1718 H -0.02815 0.29704 0.76209
 H1719 H -0.04495 0.26059 0.77718
 H1720 H -0.06320 0.27297 0.78758
 C1721 C -0.10421 0.81980 0.30166
 C1722 C -0.09279 0.81416 0.29590
 C1723 C -0.08494 0.80495 0.30293
 C1724 C -0.08865 0.80163 0.31599
 C1725 C -0.10009 0.80730 0.32178
 C1726 C -0.10800 0.81646 0.31468
 C1727 C -0.07285 0.79934 0.29641
 C1728 C -0.06766 0.78742 0.29949
 C1729 C -0.05607 0.78156 0.29233
 C1730 C -0.05498 0.76768 0.29160
 C1731 C -0.04444 0.76177 0.28457
 C1732 C -0.03474 0.76967 0.27822
 C1733 C -0.03553 0.78354 0.27929
 C1734 C -0.04608 0.78946 0.28631
 H1735 H -0.11012 0.82669 0.29582
 H1736 H -0.09014 0.81690 0.28583
 H1737 H -0.08262 0.79488 0.32186
 H1738 H -0.10260 0.80466 0.33189
 H1739 H -0.06866 0.80489 0.28819
 H1740 H -0.07263 0.78127 0.30683
 H1741 H -0.06249 0.76139 0.29623
 H1742 H -0.04393 0.75104 0.28388
 H1743 H -0.02804 0.78976 0.27455
 H1744 H -0.04635 0.80018 0.28706
 C1745 C 0.60516 0.67822 0.30557
 C1746 C 0.59395 0.68384 0.29938
 C1747 C 0.58862 0.69597 0.30375
 C1748 C 0.59489 0.70246 0.31445
 C1749 C 0.60612 0.69683 0.32065
 C1750 C 0.61144 0.68465 0.31627
 C1751 C 0.57701 0.70174 0.29647
 C1752 C 0.56887 0.71113 0.30146
 C1753 C 0.55761 0.71728 0.29393
 C1754 C 0.54760 0.72416 0.30098
 C1755 C 0.53724 0.73074 0.29428
 C1756 C 0.53672 0.73062 0.28039
 C1757 C 0.54656 0.72361 0.27330
 C1758 C 0.55697 0.71708 0.27997
 H1759 H 0.60887 0.66883 0.30188
 H1760 H 0.58941 0.67867 0.29110
 H1761 H 0.59141 0.71204 0.31789
 H1762 H 0.61072 0.70218 0.32875
 H1763 H 0.57496 0.69770 0.28675
 H1764 H 0.57018 0.71431 0.31161
 H1765 H 0.54787 0.72455 0.31171
 H1766 H 0.52974 0.73614 0.29991
 H1767 H 0.54633 0.72344 0.26256
 H1768 H 0.56463 0.71227 0.27408
 C1769 C 0.60549 0.19908 0.81917
 C1770 C 0.59405 0.20507 0.81379
 C1771 C 0.58601 0.19827 0.80464
 C1772 C 0.58950 0.18519 0.80112
 C1773 C 0.60095 0.17916 0.80656
 C1774 C 0.60910 0.18605 0.81564
 C1775 C 0.57397 0.20510 0.79928
 C1776 C 0.56867 0.20249 0.78734
 C1777 C 0.55732 0.21027 0.78178
 C1778 C 0.55650 0.21206 0.76800
 C1779 C 0.54625 0.21981 0.76247
 C1780 C 0.53657 0.22584 0.77063
 C1781 C 0.53713 0.22374 0.78438
 C1782 C 0.54737 0.21598 0.78992
 H1783 H 0.61153 0.20478 0.82601
 H1784 H 0.59157 0.21514 0.81667
 H1785 H 0.58331 0.17951 0.79439
 H1786 H 0.60329 0.16904 0.80379
 H1787 H 0.56997 0.21329 0.80501
 H1788 H 0.57343 0.19522 0.78098
 H1789 H 0.56400 0.20770 0.76153
 H1790 H 0.54593 0.22125 0.75182
 H1791 H 0.52965 0.22819 0.79082
 H1792 H 0.54742 0.21441 0.80054
 C1793 C 1.10373 0.69421 0.82474
 C1794 C 1.09276 0.70064 0.81896
 C1795 C 1.08790 0.69668 0.80653
 C1796 C 1.09438 0.68617 0.79990
 C1797 C 1.10540 0.67973 0.80570
 C1798 C 1.11023 0.68370 0.81819
 C1799 C 1.07654 0.70421 0.80066
 C1800 C 1.06856 0.69953 0.79102
 C1801 C 1.05744 0.70739 0.78512
 C1802 C 1.04678 0.70068 0.77892
 C1803 C 1.03639 0.70778 0.77280
 C1804 C 1.03657 0.72170 0.77266
 C1805 C 1.04713 0.72846 0.77890
 C1806 C 1.05751 0.72139 0.78502
 H1807 H 1.10704 0.69754 0.83439
 H1808 H 1.08803 0.70876 0.82424
 H1809 H 1.09124 0.68308 0.79012
 H1810 H 1.11023 0.67181 0.80026
 H1811 H 1.07441 0.71386 0.80489
 H1812 H 1.06983 0.68942 0.78760
 H1813 H 1.04655 0.68992 0.77875
 H1814 H 1.02834 0.70243 0.76793
 H1815 H 1.04746 0.73922 0.77877
 H1816 H 1.06573 0.72696 0.78929
 C1817 C 1.10839 0.18345 0.29937
 C1818 C 1.09766 0.18973 0.29300
 C1819 C 1.08944 0.19874 0.29984
 C1820 C 1.09232 0.20151 0.31322
 C1821 C 1.10314 0.19527 0.31958
 C1822 C 1.11129 0.18614 0.31273
 C1823 C 1.07843 0.20538 0.29247
 C1824 C 1.06730 0.21031 0.29820
 C1825 C 1.05629 0.21688 0.29066
 C1826 C 1.04736 0.22528 0.29748
 C1827 C 1.03704 0.23190 0.29073
 C1828 C 1.03545 0.23018 0.27703
 C1829 C 1.04407 0.22153 0.27023
 C1830 C 1.05435 0.21488 0.27696
 H1831 H 1.11452 0.17662 0.29371
 H1832 H 1.09576 0.18752 0.28266
 H1833 H 1.08647 0.20869 0.31873
 H1834 H 1.10507 0.19759 0.32988
 H1835 H 1.07961 0.20597 0.28183
 H1836 H 1.06618 0.20970 0.30886
 H1837 H 1.04850 0.22687 0.30804
 H1838 H 1.03039 0.23847 0.29614
 H1839 H 1.04283 0.21995 0.25968
 H1840 H 1.06057 0.20812 0.27136
 C1841 C 0.60969 0.30003 0.68029
 C1842 C 0.59882 0.29357 0.68624
 C1843 C 0.59008 0.30045 0.69471
 C1844 C 0.59262 0.31395 0.69736
 C1845 C 0.60357 0.32040 0.69148
 C1846 C 0.61219 0.31353 0.68283
 C1847 C 0.57887 0.29305 0.70099
 C1848 C 0.56747 0.29879 0.70524
 C1849 C 0.55641 0.29138 0.71183
 C1850 C 0.54727 0.29844 0.71978
 C1851 C 0.53701 0.29182 0.72658
 C1852 C 0.53567 0.27800 0.72548
 C1853 C 0.54446 0.27095 0.71721
 C1854 C 0.55470 0.27755 0.71038
 H1855 H 0.61623 0.29437 0.67385
 H1856 H 0.59720 0.28313 0.68416
 H1857 H 0.58637 0.31950 0.70416
 H1858 H 0.60521 0.33079 0.69367
 H1859 H 0.58019 0.28243 0.70199
 H1860 H 0.56621 0.30942 0.70418
 H1861 H 0.54824 0.30910 0.72094
 H1862 H 0.53024 0.29741 0.73287
 H1863 H 0.54341 0.26029 0.71612
 H1864 H 0.56111 0.27177 0.70395
 C1865 C 0.60255 0.82509 0.19411
 C1866 C 0.59111 0.82023 0.20052
 C1867 C 0.58706 0.80697 0.19888
 C1868 C 0.59477 0.79867 0.19059
 C1869 C 0.60619 0.80356 0.18414
 C1870 C 0.61028 0.81679 0.18592
 C1871 C 0.57518 0.80220 0.20646
 C1872 C 0.56885 0.79066 0.20416
 C1873 C 0.55756 0.78576 0.21242
 C1874 C 0.55553 0.77200 0.21342
 C1875 C 0.54523 0.76691 0.22136
 C1876 C 0.53668 0.77551 0.22832
 C1877 C 0.53841 0.78928 0.22708
 C1878 C 0.54876 0.79439 0.21918
 H1879 H 0.60532 0.83537 0.19562
 H1880 H 0.58542 0.82685 0.20685
 H1881 H 0.59236 0.78830 0.18925
 H1882 H 0.61200 0.79683 0.17805
 H1883 H 0.57172 0.80847 0.21447
 H1884 H 0.57228 0.78416 0.19635
 H1885 H 0.56209 0.76515 0.20824
 H1886 H 0.54397 0.75625 0.22216
 H1887 H 0.53181 0.79604 0.23231
 H1888 H 0.54972 0.80506 0.21830
 C1889 C 1.10587 0.32187 0.19656
 C1890 C 1.09452 0.31651 0.20271
 C1891 C 1.08821 0.30514 0.19762
 C1892 C 1.09362 0.29923 0.18613
 C1893 C 1.10502 0.30460 0.17998
 C1894 C 1.11130 0.31601 0.18510
 C1895 C 1.07620 0.29993 0.20476
 C1896 C 1.06902 0.28925 0.20107
 C1897 C 1.05741 0.28414 0.20881
 C1898 C 1.05417 0.27059 0.20789
 C1899 C 1.04359 0.26528 0.21532
 C1900 C 1.03595 0.27347 0.22365
 C1901 C 1.03883 0.28707 0.22431
 C1902 C 1.04946 0.29240 0.21694
 H1903 H 1.11036 0.33062 0.20089
 H1904 H 1.09065 0.32129 0.21154
 H1905 H 1.08927 0.29045 0.18177
 H1906 H 1.10886 0.29975 0.17121
 H1907 H 1.07338 0.30506 0.21377
 H1908 H 1.07195 0.28354 0.19250
 H1909 H 1.06001 0.26405 0.20160
 H1910 H 1.04141 0.25476 0.21469
 H1911 H 1.03293 0.29350 0.23065
 H1912 H 1.05133 0.30296 0.21757
 C1913 C 1.10265 0.82340 0.69435
 C1914 C 1.09183 0.81742 0.70089
 C1915 C 1.08763 0.80457 0.69749
 C1916 C 1.09456 0.79776 0.68741
 C1917 C 1.10540 0.80373 0.68088
 C1918 C 1.10964 0.81660 0.68431
 C1919 C 1.07649 0.79842 0.70512
 C1920 C 1.06901 0.78830 0.70062
 C1921 C 1.05814 0.78200 0.70849
 C1922 C 1.04782 0.77523 0.70182
 C1923 C 1.03757 0.76891 0.70891
 C1924 C 1.03755 0.76912 0.72281
 C1925 C 1.04789 0.77576 0.72954
 C1926 C 1.05812 0.78210 0.72247
 H1927 H 1.10551 0.83334 0.69725
 H1928 H 1.08672 0.82286 0.70866
 H1929 H 1.09194 0.78769 0.68476
 H1930 H 1.11058 0.79809 0.67333
 H1931 H 1.07413 0.80278 0.71465
 H1932 H 1.07047 0.78475 0.69060
 H1933 H 1.04768 0.77488 0.69109
 H1934 H 1.02970 0.76376 0.70358
 H1935 H 1.04805 0.77592 0.74028
 H1936 H 1.06611 0.78681 0.72800
 C1937 C 0.39804 0.67651 0.69704
 C1938 C 0.40915 0.68228 0.70320
 C1939 C 0.41460 0.69422 0.69845
 C1940 C 0.40860 0.70034 0.68736
 C1941 C 0.39746 0.69456 0.68119
 C1942 C 0.39199 0.68260 0.68598
 C1943 C 0.42598 0.70021 0.70579
 C1944 C 0.43431 0.70935 0.70065
 C1945 C 0.44529 0.71560 0.70837
 C1946 C 0.45628 0.72111 0.70155
 C1947 C 0.46659 0.72751 0.70846
 C1948 C 0.46598 0.72862 0.72231
 C1949 C 0.45506 0.72312 0.72917
 C1950 C 0.44476 0.71673 0.72228
 H1951 H 0.39423 0.66730 0.70106
 H1952 H 0.41349 0.67739 0.71178
 H1953 H 0.41221 0.70976 0.68359
 H1954 H 0.39307 0.69962 0.67277
 H1955 H 0.42775 0.69656 0.71574
 H1956 H 0.43344 0.71211 0.69031
 H1957 H 0.45686 0.72049 0.69084
 H1958 H 0.47494 0.73176 0.70302
 H1959 H 0.45443 0.72398 0.73986
 H1960 H 0.43626 0.71304 0.72788
 C1961 C 0.39809 0.17776 0.19581
 C1962 C 0.40890 0.18384 0.20216
 C1963 C 0.41453 0.19557 0.19710
 C1964 C 0.40902 0.20116 0.18551
 C1965 C 0.39815 0.19507 0.17914
 C1966 C 0.39250 0.18331 0.18423
 C1967 C 0.42562 0.20188 0.20462
 C1968 C 0.43420 0.21076 0.19943
 C1969 C 0.44502 0.21716 0.20726
 C1970 C 0.45618 0.22249 0.20057
 C1971 C 0.46640 0.22892 0.20759
 C1972 C 0.46556 0.23021 0.22141
 C1973 C 0.45445 0.22489 0.22813
 C1974 C 0.44423 0.21851 0.22114
 H1975 H 0.39410 0.16876 0.20012
 H1976 H 0.41287 0.17936 0.21112
 H1977 H 0.41279 0.21040 0.18148
 H1978 H 0.39413 0.19973 0.17031
 H1979 H 0.42700 0.19862 0.21476
 H1980 H 0.43370 0.21314 0.18898
 H1981 H 0.45700 0.22169 0.18989
 H1982 H 0.47489 0.23302 0.20226
 H1983 H 0.45364 0.22587 0.23880
 H1984 H 0.43561 0.21497 0.22665
 C1985 C -0.10753 0.68022 0.20172
 C1986 C -0.09666 0.68575 0.20852
 C1987 C -0.08799 0.69474 0.20219
 C1988 C -0.09056 0.69828 0.18892
 C1989 C -0.10148 0.69280 0.18214
 C1990 C -0.11009 0.68371 0.18846
 C1991 C -0.07685 0.70066 0.20994
 C1992 C -0.06554 0.70544 0.20443
 C1993 C -0.05456 0.71180 0.21212
 C1994 C -0.04544 0.72008 0.20538
 C1995 C -0.03519 0.72660 0.21225
 C1996 C -0.03385 0.72491 0.22598
 C1997 C -0.04266 0.71638 0.23272
 C1998 C -0.05289 0.70982 0.22587
 H1999 H -0.11403 0.67338 0.20696
 H2000 H -0.09500 0.68298 0.21878
 H2001 H -0.08438 0.70549 0.18380
 H2002 H -0.10314 0.69570 0.17193
 H2003 H -0.07817 0.70099 0.22057
 H2004 H -0.06428 0.70500 0.19378
 H2005 H -0.04639 0.72168 0.19480
 H2006 H -0.02842 0.73312 0.20692
 H2007 H -0.04162 0.71485 0.24330
 H2008 H -0.05930 0.70317 0.23141
 C2009 C -0.10373 0.17541 0.69728
 C2010 C -0.09250 0.18080 0.70363
 C2011 C -0.08651 0.19252 0.69891
 C2012 C -0.09207 0.19879 0.68768
 C2013 C -0.10326 0.19338 0.68131
 C2014 C -0.10927 0.18166 0.68606
 C2015 C -0.07503 0.19821 0.70638
 C2016 C -0.06648 0.20720 0.70130
 C2017 C -0.05548 0.21350 0.70899
 C2018 C -0.04512 0.21996 0.70203
 C2019 C -0.03493 0.22663 0.70884
 C2020 C -0.03497 0.22703 0.72273
 C2021 C -0.04522 0.22054 0.72974
 C2022 C -0.05543 0.21389 0.72296
 H2023 H -0.10803 0.16634 0.70118
 H2024 H -0.08850 0.17581 0.71230
 H2025 H -0.08812 0.20808 0.68395
 H2026 H -0.10736 0.19861 0.67285
 H2027 H -0.07349 0.19454 0.71635
 H2028 H -0.06728 0.20996 0.69096
 H2029 H -0.04496 0.21992 0.69129
 H2030 H -0.02710 0.23164 0.70329
 H2031 H -0.04540 0.22081 0.74048
 H2032 H -0.06339 0.20943 0.72874
 C2033 C 0.30086 0.39440 0.32176
 C2034 C 0.29508 0.40604 0.31679
 C2035 C 0.30219 0.41419 0.30795
 C2036 C 0.31537 0.41060 0.30436
 C2037 C 0.32119 0.39896 0.30938
 C2038 C 0.31399 0.39071 0.31814
 C2039 C 0.29558 0.42640 0.30291
 C2040 C 0.29846 0.43188 0.29112
 C2041 C 0.29094 0.44339 0.28568
 C2042 C 0.28961 0.44461 0.27188
 C2043 C 0.28210 0.45500 0.26639
 C2044 C 0.27583 0.46438 0.27461
 C2045 C 0.27750 0.46346 0.28839
 C2046 C 0.28504 0.45308 0.29390
 H2047 H 0.29494 0.38827 0.32837
 H2048 H 0.28492 0.40860 0.31972
 H2049 H 0.32131 0.41687 0.29788
 H2050 H 0.33140 0.39656 0.30654
 H2051 H 0.28735 0.43038 0.30871
 H2052 H 0.30575 0.42715 0.28469
 H2053 H 0.29412 0.43732 0.26535
 H2054 H 0.28095 0.45559 0.25572
 H2055 H 0.27283 0.47070 0.29487
 H2056 H 0.28625 0.45270 0.30456
 C2057 C 0.32370 -0.10335 0.80564
 C2058 C 0.31781 -0.09233 0.79950
 C2059 C 0.30573 -0.08697 0.80424
 C2060 C 0.29952 -0.09300 0.81525
 C2061 C 0.30541 -0.10400 0.82144
 C2062 C 0.31760 -0.10940 0.81674
 C2063 C 0.29969 -0.07554 0.79705
 C2064 C 0.29021 -0.06755 0.80217
 C2065 C 0.28386 -0.05646 0.79471
 C2066 C 0.27701 -0.04655 0.80182
 C2067 C 0.27035 -0.03626 0.79518
 C2068 C 0.27038 -0.03574 0.78129
 C2069 C 0.27728 -0.04554 0.77413
 C2070 C 0.28388 -0.05586 0.78074
 H2071 H 0.33303 -0.10702 0.80156
 H2072 H 0.32276 -0.08797 0.79096
 H2073 H 0.28997 -0.08951 0.81899
 H2074 H 0.30018 -0.10828 0.82981
 H2075 H 0.30362 -0.07348 0.78726
 H2076 H 0.28712 -0.06885 0.81237
 H2077 H 0.27671 -0.04683 0.81256
 H2078 H 0.26499 -0.02882 0.80085
 H2079 H 0.27731 -0.04532 0.76339
 H2080 H 0.28862 -0.06347 0.77481
 C2081 C 0.82163 0.39749 0.80341
 C2082 C 0.81581 0.40857 0.79730
 C2083 C 0.80382 0.41407 0.80214
 C2084 C 0.79770 0.40816 0.81326
 C2085 C 0.80352 0.39710 0.81942
 C2086 C 0.81557 0.39150 0.81457
 C2087 C 0.79777 0.42548 0.79491
 C2088 C 0.78857 0.43372 0.80015
 C2089 C 0.78213 0.44479 0.79269
 C2090 C 0.77560 0.45489 0.79983
 C2091 C 0.76886 0.46516 0.79322
 C2092 C 0.76846 0.46547 0.77932
 C2093 C 0.77505 0.45548 0.77213
 C2094 C 0.78175 0.44519 0.77872
 H2095 H 0.83088 0.39371 0.79925
 H2096 H 0.82071 0.41284 0.78870
 H2097 H 0.78823 0.41179 0.81709
 H2098 H 0.79834 0.39289 0.82786
 H2099 H 0.80144 0.42730 0.78497
 H2100 H 0.78579 0.43263 0.81047
 H2101 H 0.77563 0.45478 0.81058
 H2102 H 0.76377 0.47276 0.79893
 H2103 H 0.77478 0.45554 0.76139
 H2104 H 0.78625 0.43744 0.77279
 C2105 C 0.82306 -0.10163 0.30171
 C2106 C 0.81729 -0.09066 0.29536
 C2107 C 0.80489 -0.08554 0.29957
 C2108 C 0.79829 -0.09173 0.31026
 C2109 C 0.80406 -0.10266 0.31666
 C2110 C 0.81654 -0.10785 0.31248
 C2111 C 0.79892 -0.07421 0.29219
 C2112 C 0.78934 -0.06625 0.29718
 C2113 C 0.78292 -0.05528 0.28960
 C2114 C 0.77601 -0.04535 0.29663
 C2115 C 0.76929 -0.03517 0.28990
 C2116 C 0.76929 -0.03478 0.27600
 C2117 C 0.77622 -0.04462 0.26892
 C2118 C 0.78292 -0.05482 0.27563
 H2119 H 0.83265 -0.10513 0.29808
 H2120 H 0.82256 -0.08614 0.28711
 H2121 H 0.78850 -0.08843 0.31355
 H2122 H 0.79849 -0.10710 0.32473
 H2123 H 0.80294 -0.07219 0.28242
 H2124 H 0.78623 -0.06748 0.30739
 H2125 H 0.77574 -0.04553 0.30737
 H2126 H 0.76392 -0.02769 0.29551
 H2127 H 0.77624 -0.04448 0.25818
 H2128 H 0.78773 -0.06246 0.26979
 C2129 C 0.32347 0.59980 0.69675
 C2130 C 0.31792 0.58864 0.70291
 C2131 C 0.30580 0.58319 0.69839
 C2132 C 0.29926 0.58922 0.68756
 C2133 C 0.30482 0.60040 0.68139
 C2134 C 0.31697 0.60588 0.68595
 C2135 C 0.30004 0.57175 0.70573
 C2136 C 0.29063 0.56360 0.70080
 C2137 C 0.28451 0.55265 0.70859
 C2138 C 0.27853 0.54200 0.70182
 C2139 C 0.27210 0.53181 0.70881
 C2140 C 0.27141 0.53221 0.72268
 C2141 C 0.27744 0.54275 0.72950
 C2142 C 0.28387 0.55293 0.72254
 H2143 H 0.33284 0.60362 0.70057
 H2144 H 0.32313 0.58428 0.71130
 H2145 H 0.28968 0.58562 0.68399
 H2146 H 0.29943 0.60482 0.67319
 H2147 H 0.30407 0.56983 0.71552
 H2148 H 0.28748 0.56464 0.69058
 H2149 H 0.27876 0.54163 0.69108
 H2150 H 0.26743 0.52376 0.70340
 H2151 H 0.27691 0.54321 0.74022
 H2152 H 0.28793 0.56116 0.72814
 C2153 C 0.32517 1.09894 0.19374
 C2154 C 0.31982 1.08762 0.19979
 C2155 C 0.30653 1.08371 0.19733
 C2156 C 0.29861 1.09146 0.18871
 C2157 C 0.30395 1.10280 0.18266
 C2158 C 0.31729 1.10673 0.18513
 C2159 C 0.30114 1.07198 0.20449
 C2160 C 0.29044 1.06501 0.20037
 C2161 C 0.28457 1.05375 0.20792
 C2162 C 0.27617 1.04476 0.20125
 C2163 C 0.26980 1.03447 0.20814
 C2164 C 0.27164 1.03308 0.22185
 C2165 C 0.28012 1.04191 0.22855
 C2166 C 0.28650 1.05219 0.22169
 H2167 H 0.33548 1.10156 0.19588
 H2168 H 0.32612 1.08190 0.20646
 H2169 H 0.28818 1.08906 0.18687
 H2170 H 0.29748 1.10859 0.17625
 H2171 H 0.30649 1.06884 0.21330
 H2172 H 0.28586 1.06738 0.19093
 H2173 H 0.27443 1.04577 0.19069
 H2174 H 0.26323 1.02775 0.20286
 H2175 H 0.28157 1.04097 0.23916
 H2176 H 0.29256 1.05909 0.22731
 C2177 C 0.80312 0.60209 0.17435
 C2178 C 0.79677 0.59092 0.17972
 C2179 C 0.80021 0.58624 0.19239
 C2180 C 0.81005 0.59310 0.19968
 C2181 C 0.81641 0.60426 0.19431
 C2182 C 0.81302 0.60891 0.18158
 C2183 C 0.79284 0.57464 0.19787
 C2184 C 0.79757 0.56699 0.20774
 C2185 C 0.78998 0.55579 0.21374
 C2186 C 0.79702 0.54646 0.22146
 C2187 C 0.79021 0.53617 0.22793
 C2188 C 0.77621 0.53509 0.22685
 C2189 C 0.76912 0.54427 0.21905
 C2190 C 0.77591 0.55457 0.21260
 H2191 H 0.80025 0.60531 0.16451
 H2192 H 0.78914 0.58591 0.17393
 H2193 H 0.81268 0.59014 0.20966
 H2194 H 0.82381 0.60933 0.20028
 H2195 H 0.78335 0.57220 0.19325
 H2196 H 0.80761 0.56873 0.21150
 H2197 H 0.80783 0.54720 0.22261
 H2198 H 0.79582 0.52919 0.23397
 H2199 H 0.75829 0.54358 0.21818
 H2200 H 0.76999 0.56171 0.20710
 C2201 C 0.80251 1.10265 0.67361
 C2202 C 0.79648 1.09105 0.67836
 C2203 C 0.79922 1.08636 0.69120
 C2204 C 0.80818 1.09360 0.69922
 C2205 C 0.81426 1.10518 0.69445
 C2206 C 0.81143 1.10989 0.68162
 C2207 C 0.79197 1.07437 0.69597
 C2208 C 0.79559 1.06728 0.70668
 C2209 C 0.78757 1.05602 0.71188
 C2210 C 0.78810 1.05324 0.72552
 C2211 C 0.78031 1.04307 0.73096
 C2212 C 0.77199 1.03537 0.72282
 C2213 C 0.77172 1.03779 0.70913
 C2214 C 0.77946 1.04803 0.70367
 H2215 H 0.80017 1.10590 0.66364
 H2216 H 0.78958 1.08573 0.67198
 H2217 H 0.81031 1.09067 0.70932
 H2218 H 0.82091 1.11061 0.70096
 H2219 H 0.78310 1.07148 0.69047
 H2220 H 0.80434 1.07010 0.71235
 H2221 H 0.79435 1.05916 0.73202
 H2222 H 0.78065 1.04126 0.74155
 H2223 H 0.76542 1.03183 0.70272
 H2224 H 0.77915 1.04958 0.69306
 C2225 C 0.69836 0.60195 0.32422
 C2226 C 0.70386 0.59037 0.31887
 C2227 C 0.69828 0.58449 0.30754
 C2228 C 0.68680 0.59036 0.30181
 C2229 C 0.68131 0.60199 0.30714
 C2230 C 0.68706 0.60799 0.31838
 C2231 C 0.70484 0.57234 0.30218
 C2232 C 0.70221 0.56711 0.29022
 C2233 C 0.70966 0.55560 0.28465
 C2234 C 0.70977 0.55389 0.27084
 C2235 C 0.71715 0.54360 0.26507
 C2236 C 0.72450 0.53476 0.27304
 C2237 C 0.72406 0.53610 0.28686
 C2238 C 0.71665 0.54639 0.29265
 H2239 H 0.70306 0.60613 0.33291
 H2240 H 0.71263 0.58604 0.32358
 H2241 H 0.68188 0.58608 0.29329
 H2242 H 0.67256 0.60623 0.30239
 H2243 H 0.71276 0.56804 0.30815
 H2244 H 0.69501 0.57187 0.28374
 H2245 H 0.70435 0.56071 0.26445
 H2246 H 0.71732 0.54261 0.25438
 H2247 H 0.72959 0.52927 0.29313
 H2248 H 0.71644 0.54701 0.30335
 C2249 C 0.69944 1.10694 0.81802
 C2250 C 0.70570 1.09615 0.81189
 C2251 C 0.69948 1.08950 0.80137
 C2252 C 0.68690 1.09405 0.79689
 C2253 C 0.68065 1.10493 0.80294
 C2254 C 0.68679 1.11156 0.81366
 C2255 C 0.70672 1.07829 0.79506
 C2256 C 0.70055 1.06829 0.78871
 C2257 C 0.70778 1.05706 0.78232
 C2258 C 0.70080 1.04919 0.77311
 C2259 C 0.70725 1.03871 0.76659
 C2260 C 0.72079 1.03592 0.76920
 C2261 C 0.72774 1.04347 0.77860
 C2262 C 0.72130 1.05389 0.78519
 H2263 H 0.70474 1.11164 0.82610
 H2264 H 0.71545 1.09293 0.81545
 H2265 H 0.68196 1.08943 0.78853
 H2266 H 0.67099 1.10807 0.79913
 H2267 H 0.71754 1.07834 0.79598
 H2268 H 0.68969 1.06834 0.78795
 H2269 H 0.69038 1.05128 0.77080
 H2270 H 0.70176 1.03292 0.75935
 H2271 H 0.73818 1.04130 0.78079
 H2272 H 0.72699 1.05928 0.79254
 C2273 C 0.19604 0.59947 0.82343
 C2274 C 0.20210 0.58863 0.81720
 C2275 C 0.19780 0.58445 0.80465
 C2276 C 0.18732 0.59144 0.79836
 C2277 C 0.18125 0.60231 0.80460
 C2278 C 0.18557 0.60649 0.81720
 C2279 C 0.20497 0.57322 0.79828
 C2280 C 0.19985 0.56589 0.78841
 C2281 C 0.20736 0.55481 0.78216
 C2282 C 0.20017 0.54453 0.77598
 C2283 C 0.20696 0.53403 0.76984
 C2284 C 0.22106 0.53374 0.76967
 C2285 C 0.22828 0.54403 0.77572
 C2286 C 0.22152 0.55451 0.78184
 H2287 H 0.19961 0.60228 0.83316
 H2288 H 0.21021 0.58348 0.82223
 H2289 H 0.18399 0.58881 0.78850
 H2290 H 0.17336 0.60755 0.79939
 H2291 H 0.21470 0.57063 0.80234
 H2292 H 0.18963 0.56757 0.78513
 H2293 H 0.18928 0.54462 0.77594
 H2294 H 0.20125 0.52621 0.76511
 H2295 H 0.23917 0.54400 0.77555
 H2296 H 0.22743 0.56247 0.78604
 C2297 C 0.17846 1.10233 0.30178
 C2298 C 0.18335 1.09073 0.29594
 C2299 C 0.19358 1.08333 0.30204
 C2300 C 0.19864 1.08764 0.31433
 C2301 C 0.19370 1.09926 0.32021
 C2302 C 0.18357 1.10679 0.31398
 C2303 C 0.19845 1.07113 0.29533
 C2304 C 0.21076 1.06596 0.29717
 C2305 C 0.21596 1.05435 0.28964
 C2306 C 0.22993 1.05250 0.28880
 C2307 C 0.23531 1.04210 0.28131
 C2308 C 0.22680 1.03330 0.27456
 C2309 C 0.21283 1.03481 0.27572
 C2310 C 0.20744 1.04518 0.28325
 H2311 H 0.17069 1.10779 0.29661
 H2312 H 0.17923 1.08760 0.28651
 H2313 H 0.20623 1.08198 0.31956
 H2314 H 0.19778 1.10223 0.32969
 H2315 H 0.19187 1.06688 0.28793
 H2316 H 0.21773 1.07096 0.30373
 H2317 H 0.23672 1.05929 0.29373
 H2318 H 0.24613 1.04100 0.28059
 H2319 H 0.20613 1.02803 0.27065
 H2320 H 0.19663 1.04591 0.28402
 C2321 C 0.69526 0.40015 0.67561
 C2322 C 0.70123 0.41107 0.68178
 C2323 C 0.69689 0.41530 0.69431
 C2324 C 0.68646 0.40827 0.70063
 C2325 C 0.68049 0.39733 0.69446
 C2326 C 0.68484 0.39309 0.68188
 C2327 C 0.70395 0.42658 0.70066
 C2328 C 0.69865 0.43395 0.71044
 C2329 C 0.70601 0.44494 0.71700
 C2330 C 0.69863 0.45481 0.72364
 C2331 C 0.70521 0.46504 0.73037
 C2332 C 0.71929 0.46551 0.73067
 C2333 C 0.72671 0.45571 0.72404
 C2334 C 0.72016 0.44547 0.71733
 H2335 H 0.69890 0.39729 0.66592
 H2336 H 0.70931 0.41623 0.67673
 H2337 H 0.68309 0.41092 0.71047
 H2338 H 0.67262 0.39210 0.69970
 H2339 H 0.71375 0.42913 0.69674
 H2340 H 0.68838 0.43225 0.71352
 H2341 H 0.68774 0.45457 0.72364
 H2342 H 0.69934 0.47250 0.73551
 H2343 H 0.73760 0.45589 0.72425
 H2344 H 0.72625 0.43785 0.71274
 C2345 C 0.69627 -0.10175 0.17411
 C2346 C 0.70226 -0.09044 0.17953
 C2347 C 0.69779 -0.08525 0.19166
 C2348 C 0.68718 -0.09167 0.19830
 C2349 C 0.68118 -0.10297 0.19288
 C2350 C 0.68570 -0.10823 0.18076
 C2351 C 0.70494 -0.07367 0.19739
 C2352 C 0.69962 -0.06572 0.20669
 C2353 C 0.70707 -0.05468 0.21308
 C2354 C 0.69973 -0.04482 0.21978
 C2355 C 0.70635 -0.03466 0.22658
 C2356 C 0.72043 -0.03423 0.22687
 C2357 C 0.72782 -0.04398 0.22011
 C2358 C 0.72122 -0.05416 0.21334
 H2359 H 0.70010 -0.10546 0.16479
 H2360 H 0.71050 -0.08577 0.17426
 H2361 H 0.68367 -0.08829 0.20787
 H2362 H 0.67312 -0.10763 0.19836
 H2363 H 0.71485 -0.07155 0.19350
 H2364 H 0.68927 -0.06710 0.20967
 H2365 H 0.68884 -0.04505 0.21985
 H2366 H 0.70050 -0.02724 0.23180
 H2367 H 0.73870 -0.04382 0.22030
 H2368 H 0.72730 -0.06175 0.20870
 C2369 C 0.19668 0.39957 0.17489
 C2370 C 0.20271 0.41073 0.18055
 C2371 C 0.19947 0.41468 0.19350
 C2372 C 0.19009 0.40711 0.20074
 C2373 C 0.18403 0.39596 0.19507
 C2374 C 0.18729 0.39202 0.18209
 C2375 C 0.20663 0.42621 0.19930
 C2376 C 0.20206 0.43312 0.20974
 C2377 C 0.20958 0.44420 0.21598
 C2378 C 0.20256 0.45318 0.22409
 C2379 C 0.20936 0.46335 0.23069
 C2380 C 0.22332 0.46465 0.22938
 C2381 C 0.23039 0.45578 0.22126
 C2382 C 0.22362 0.44560 0.21465
 H2383 H 0.19940 0.39691 0.16485
 H2384 H 0.20999 0.41630 0.17479
 H2385 H 0.18764 0.40948 0.21091
 H2386 H 0.17703 0.39028 0.20101
 H2387 H 0.21583 0.42927 0.19445
 H2388 H 0.19225 0.43088 0.21379
 H2389 H 0.19179 0.45226 0.22540
 H2390 H 0.20379 0.47009 0.23700
 H2391 H 0.24120 0.45663 0.22024
 H2392 H 0.22952 0.43868 0.20887
 C2393 C 0.19793 -0.10222 0.67745
 C2394 C 0.20418 -0.09138 0.68349
 C2395 C 0.19973 -0.08668 0.69581
 C2396 C 0.18894 -0.09319 0.70210
 C2397 C 0.18268 -0.10404 0.69606
 C2398 C 0.18710 -0.10870 0.68367
 C2399 C 0.20698 -0.07542 0.70202
 C2400 C 0.20160 -0.06758 0.71137
 C2401 C 0.20901 -0.05660 0.71789
 C2402 C 0.20163 -0.04660 0.72434
 C2403 C 0.20820 -0.03639 0.73110
 C2404 C 0.22228 -0.03605 0.73162
 C2405 C 0.22971 -0.04595 0.72514
 C2406 C 0.22316 -0.05618 0.71840
 H2407 H 0.20161 -0.10545 0.66790
 H2408 H 0.21254 -0.08663 0.67848
 H2409 H 0.18549 -0.09020 0.71181
 H2410 H 0.17453 -0.10889 0.70126
 H2411 H 0.21697 -0.07332 0.69831
 H2412 H 0.19118 -0.06892 0.71416
 H2413 H 0.19074 -0.04674 0.72420
 H2414 H 0.20232 -0.02885 0.73610
 H2415 H 0.24060 -0.04585 0.72551
 H2416 H 0.22926 -0.06387 0.71394
 C2417 C 0.31926 0.29988 0.39590
 C2418 C 0.31409 0.29410 0.40744
 C2419 C 0.30508 0.30111 0.41553
 C2420 C 0.30154 0.31418 0.41199
 C2421 C 0.30671 0.31997 0.40044
 C2422 C 0.31561 0.31287 0.39224
 C2423 C 0.29982 0.29453 0.42764
 C2424 C 0.28799 0.29767 0.43323
 C2425 C 0.28229 0.29038 0.44473
 C2426 C 0.26828 0.29029 0.44647
 C2427 C 0.26244 0.28308 0.45683
 C2428 C 0.27052 0.27585 0.46569
 C2429 C 0.28455 0.27631 0.46431
 C2430 C 0.29040 0.28355 0.45396
 H2431 H 0.32599 0.29407 0.38979
 H2432 H 0.31702 0.28404 0.40996
 H2433 H 0.29498 0.32007 0.41820
 H2434 H 0.30388 0.33009 0.39807
 H2435 H 0.30550 0.28618 0.43147
 H2436 H 0.28169 0.30515 0.42863
 H2437 H 0.26182 0.29556 0.43958
 H2438 H 0.25160 0.28289 0.45780
 H2439 H 0.29093 0.27089 0.47115
 H2440 H 0.30125 0.28379 0.45325
 C2441 C 0.32253 0.80493 -0.10043
 C2442 C 0.31641 0.79904 -0.08941
 C2443 C 0.30367 0.80321 -0.08513
 C2444 C 0.29704 0.81331 -0.09227
 C2445 C 0.30316 0.81920 -0.10329
 C2446 C 0.31598 0.81510 -0.10752
 C2447 C 0.29743 0.79635 -0.07364
 C2448 C 0.28742 0.80155 -0.06637
 C2449 C 0.28089 0.79444 -0.05518
 C2450 C 0.27373 0.80185 -0.04571
 C2451 C 0.26695 0.79550 -0.03534
 C2452 C 0.26711 0.78161 -0.03433
 C2453 C 0.27429 0.77416 -0.04370
 C2454 C 0.28106 0.78048 -0.05407
 H2455 H 0.33240 0.80149 -0.10332
 H2456 H 0.32169 0.79119 -0.08418
 H2457 H 0.28701 0.81650 -0.08962
 H2458 H 0.29768 0.82682 -0.10860
 H2459 H 0.30164 0.78683 -0.07086
 H2460 H 0.28405 0.81159 -0.06834
 H2461 H 0.27333 0.81259 -0.04640
 H2462 H 0.26138 0.80139 -0.02823
 H2463 H 0.27443 0.76341 -0.04308
 H2464 H 0.28605 0.77435 -0.06136
 C2465 C 0.81837 0.30310 -0.10529
 C2466 C 0.81312 0.29760 -0.09368
 C2467 C 0.80402 0.30477 -0.08583
 C2468 C 0.80041 0.31772 -0.08975
 C2469 C 0.80568 0.32324 -0.10139
 C2470 C 0.81474 0.31600 -0.10930
 C2471 C 0.79882 0.29843 -0.07357
 C2472 C 0.78731 0.30195 -0.06759
 C2473 C 0.78185 0.29462 -0.05602
 C2474 C 0.76787 0.29405 -0.05425
 C2475 C 0.76233 0.28651 -0.04396
 C2476 C 0.77072 0.27950 -0.03519
 C2477 C 0.78471 0.28052 -0.03657
 C2478 C 0.79025 0.28805 -0.04687
 H2479 H 0.82521 0.29716 -0.11115
 H2480 H 0.81609 0.28762 -0.09088
 H2481 H 0.79374 0.32373 -0.08378
 H2482 H 0.80281 0.33327 -0.10405
 H2483 H 0.80430 0.28988 -0.06989
 H2484 H 0.78106 0.30964 -0.07190
 H2485 H 0.76120 0.29912 -0.06109
 H2486 H 0.75150 0.28589 -0.04297
 H2487 H 0.79131 0.27528 -0.02980
 H2488 H 0.80109 0.28867 -0.04764
 C2489 C 0.79878 0.82065 0.39108
 C2490 C 0.79214 0.81519 0.40201
 C2491 C 0.79888 0.80661 0.41074
 C2492 C 0.81238 0.80333 0.40813
 C2493 C 0.81901 0.80871 0.39711
 C2494 C 0.81230 0.81749 0.38850
 C2495 C 0.79128 0.80085 0.42201
 C2496 C 0.79706 0.79684 0.43337
 C2497 C 0.78953 0.79071 0.44455
 C2498 C 0.79672 0.78325 0.45398
 C2499 C 0.79004 0.77685 0.46438
 C2500 C 0.77604 0.77785 0.46556
 C2501 C 0.76884 0.78564 0.45647
 C2502 C 0.77551 0.79208 0.44609
 H2503 H 0.79320 0.82720 0.38457
 H2504 H 0.78169 0.81775 0.40370
 H2505 H 0.81779 0.79641 0.41439
 H2506 H 0.82941 0.80604 0.39541
 H2507 H 0.78052 0.80009 0.42078
 H2508 H 0.80784 0.79775 0.43450
 H2509 H 0.80752 0.78214 0.45313
 H2510 H 0.79573 0.77090 0.47136
 H2511 H 0.75803 0.78662 0.45736
 H2512 H 0.76958 0.79811 0.43941
 C2513 C 0.69748 0.32459 0.59860
 C2514 C 0.70373 0.31887 0.58758
 C2515 C 0.70011 0.30614 0.58326
 C2516 C 0.69017 0.29913 0.59030
 C2517 C 0.68392 0.30483 0.60133
 C2518 C 0.68751 0.31762 0.60565
 C2519 C 0.70743 0.30026 0.57188
 C2520 C 0.70256 0.29030 0.56448
 C2521 C 0.71020 0.28403 0.55353
 C2522 C 0.70312 0.27709 0.54368
 C2523 C 0.70999 0.27058 0.53349
 C2524 C 0.72408 0.27080 0.53306
 C2525 C 0.73121 0.27770 0.54285
 C2526 C 0.72436 0.28421 0.55303
 H2527 H 0.70052 0.33446 0.60154
 H2528 H 0.71144 0.32444 0.58241
 H2529 H 0.68739 0.28911 0.58760
 H2530 H 0.67645 0.29905 0.60656
 H2531 H 0.71702 0.30465 0.56933
 H2532 H 0.69243 0.28677 0.56619
 H2533 H 0.69223 0.27668 0.54390
 H2534 H 0.70436 0.26524 0.52602
 H2535 H 0.74210 0.27789 0.54268
 H2536 H 0.73022 0.28906 0.56064
 C2537 C 0.68478 0.79742 1.10808
 C2538 C 0.69065 0.79105 1.09724
 C2539 C 0.69743 0.79835 1.08744
 C2540 C 0.69834 0.81224 1.08880
 C2541 C 0.69252 0.81862 1.09969
 C2542 C 0.68568 0.81128 1.10947
 C2543 C 0.70387 0.79100 1.07639
 C2544 C 0.70721 0.79649 1.06471
 C2545 C 0.71404 0.78905 1.05394
 C2546 C 0.72157 0.79617 1.04452
 C2547 C 0.72848 0.78953 1.03445
 C2548 C 0.72790 0.77564 1.03356
 C2549 C 0.72006 0.76851 1.04267
 C2550 C 0.71315 0.77513 1.05275
 H2551 H 0.67977 0.79142 1.11550
 H2552 H 0.68992 0.78033 1.09652
 H2553 H 0.70380 0.81823 1.08170
 H2554 H 0.69339 0.82930 1.10044
 H2555 H 0.70590 0.78058 1.07812
 H2556 H 0.70527 0.80693 1.06296
 H2557 H 0.72228 0.80690 1.04511
 H2558 H 0.73441 0.79519 1.02741
 H2559 H 0.71934 0.75779 1.04197
 H2560 H 0.70704 0.76929 1.05945
 C2561 C 0.20084 0.31808 1.10422
 C2562 C 0.20657 0.31262 1.09283
 C2563 C 0.19930 0.30369 1.08495
 C2564 C 0.18603 0.30048 1.08860
 C2565 C 0.18029 0.30595 1.10002
 C2566 C 0.18763 0.31482 1.10796
 C2567 C 0.20580 0.29820 1.07293
 C2568 C 0.20243 0.28649 1.06758
 C2569 C 0.20966 0.28072 1.05611
 C2570 C 0.21046 0.26685 1.05499
 C2571 C 0.21757 0.26104 1.04455
 C2572 C 0.22394 0.26902 1.03500
 C2573 C 0.22281 0.28289 1.03584
 C2574 C 0.21569 0.28871 1.04629
 H2575 H 0.20685 0.32475 1.11016
 H2576 H 0.21680 0.31527 1.09023
 H2577 H 0.17997 0.29395 1.08256
 H2578 H 0.17002 0.30340 1.10248
 H2579 H 0.21429 0.30362 1.06892
 H2580 H 0.19487 0.28039 1.07233
 H2581 H 0.20582 0.26051 1.06238
 H2582 H 0.21832 0.25032 1.04401
 H2583 H 0.22755 0.28918 1.02846
 H2584 H 0.21486 0.29943 1.04662
 C2585 C 0.20198 0.81591 0.60742
 C2586 C 0.20839 0.80949 0.59691
 C2587 C 0.20139 0.80038 0.58899
 C2588 C 0.18787 0.79758 0.59199
 C2589 C 0.18147 0.80396 0.60256
 C2590 C 0.18844 0.81323 0.61037
 C2591 C 0.20872 0.79370 0.57809
 C2592 C 0.20270 0.78891 0.56719
 C2593 C 0.21007 0.78222 0.55627
 C2594 C 0.20287 0.77394 0.54761
 C2595 C 0.20944 0.76725 0.53734
 C2596 C 0.22332 0.76879 0.53554
 C2597 C 0.23051 0.77730 0.54392
 C2598 C 0.22396 0.78402 0.55415
 H2599 H 0.20774 0.82283 0.61332
 H2600 H 0.21886 0.81170 0.59490
 H2601 H 0.18226 0.79031 0.58638
 H2602 H 0.17105 0.80163 0.60456
 H2603 H 0.21951 0.79298 0.57914
 H2604 H 0.19189 0.78968 0.56621
 H2605 H 0.19215 0.77250 0.54891
 H2606 H 0.20376 0.76075 0.53090
 H2607 H 0.24121 0.77869 0.54253
 H2608 H 0.22984 0.79068 0.56020
 C2609 C 0.30184 0.67765 0.60573
 C2610 C 0.29594 0.68296 0.59433
 C2611 C 0.30233 0.69305 0.58708
 C2612 C 0.31492 0.69767 0.59149
 C2613 C 0.32084 0.69236 0.60293
 C2614 C 0.31439 0.68225 0.61018
 C2615 C 0.29551 0.69816 0.57498
 C2616 C 0.29912 0.70920 0.56840
 C2617 C 0.29164 0.71431 0.55672
 C2618 C 0.29239 0.72792 0.55372
 C2619 C 0.28500 0.73326 0.54320
 C2620 C 0.27686 0.72504 0.53540
 C2621 C 0.27643 0.71138 0.53800
 C2622 C 0.28379 0.70602 0.54855
 H2623 H 0.29646 0.66997 0.61104
 H2624 H 0.28626 0.67918 0.59118
 H2625 H 0.32040 0.70522 0.58612
 H2626 H 0.33055 0.69611 0.60595
 H2627 H 0.28668 0.69280 0.57177
 H2628 H 0.30725 0.71527 0.57206
 H2629 H 0.29846 0.73448 0.55975
 H2630 H 0.28545 0.74384 0.54125
 H2631 H 0.27022 0.70492 0.53199
 H2632 H 0.28329 0.69541 0.55022
 C2633 C 0.29801 0.18186 1.10954
 C2634 C 0.29147 0.18735 1.09857
 C2635 C 0.29863 0.19472 1.08911
 C2636 C 0.31251 0.19671 1.09097
 C2637 C 0.31905 0.19128 1.10201
 C2638 C 0.31188 0.18376 1.11141
 C2639 C 0.29112 0.20058 1.07784
 C2640 C 0.29672 0.20373 1.06613
 C2641 C 0.28908 0.20979 1.05500
 C2642 C 0.29613 0.21702 1.04530
 C2643 C 0.28926 0.22333 1.03495
 C2644 C 0.27523 0.22245 1.03410
 C2645 C 0.26818 0.21483 1.04344
 C2646 C 0.27503 0.20850 1.05378
 H2647 H 0.29210 0.17629 1.11664
 H2648 H 0.28075 0.18578 1.09745
 H2649 H 0.31831 0.20267 1.08412
 H2650 H 0.32974 0.19296 1.10313
 H2651 H 0.28049 0.20223 1.07938
 H2652 H 0.30738 0.20213 1.06464
 H2653 H 0.30696 0.21801 1.04590
 H2654 H 0.29485 0.22913 1.02776
 H2655 H 0.25735 0.21391 1.04280
 H2656 H 0.26924 0.20259 1.06067
 C2657 C 0.82505 0.69789 1.10194
 C2658 C 0.81982 0.70428 1.09076
 C2659 C 0.80751 0.70031 1.08528
 C2660 C 0.80041 0.68985 1.09137
 C2661 C 0.80564 0.68345 1.10256
 C2662 C 0.81802 0.68738 1.10800
 C2663 C 0.80224 0.70770 1.07363
 C2664 C 0.79282 0.70296 1.06539
 C2665 C 0.78727 0.71072 1.05414
 C2666 C 0.77419 0.70786 1.04974
 C2667 C 0.76839 0.71522 1.03946
 C2668 C 0.77566 0.72542 1.03330
 C2669 C 0.78885 0.72808 1.03735
 C2670 C 0.79465 0.72078 1.04768
 H2671 H 0.83462 0.70121 1.10577
 H2672 H 0.82545 0.71237 1.08635
 H2673 H 0.79067 0.68673 1.08779
 H2674 H 0.79981 0.67555 1.10702
 H2675 H 0.80636 0.71750 1.07190
 H2676 H 0.78856 0.69322 1.06708
 H2677 H 0.76835 0.70009 1.05445
 H2678 H 0.75819 0.71306 1.03639
 H2679 H 0.79458 0.73591 1.03260
 H2680 H 0.80490 0.72298 1.05047
 C2681 C 0.82451 0.19623 0.60096
 C2682 C 0.81938 0.20245 0.58965
 C2683 C 0.80721 0.19825 0.58403
 C2684 C 0.80020 0.18770 0.59004
 C2685 C 0.80534 0.18146 0.60135
 C2686 C 0.81751 0.18570 0.60702
 C2687 C 0.80183 0.20563 0.57244
 C2688 C 0.79258 0.20069 0.56413
 C2689 C 0.78659 0.20840 0.55306
 C2690 C 0.78002 0.20149 0.54284
 C2691 C 0.77357 0.20838 0.53261
 C2692 C 0.77350 0.22231 0.53248
 C2693 C 0.78015 0.22926 0.54256
 C2694 C 0.78657 0.22240 0.55281
 H2695 H 0.83386 0.19987 0.60503
 H2696 H 0.82491 0.21065 0.58531
 H2697 H 0.79058 0.18441 0.58631
 H2698 H 0.79962 0.17342 0.60567
 H2699 H 0.80598 0.21540 0.57062
 H2700 H 0.78937 0.19048 0.56522
 H2701 H 0.77978 0.19073 0.54285
 H2702 H 0.76842 0.20288 0.52492
 H2703 H 0.78011 0.24002 0.54262
 H2704 H 0.79110 0.22815 0.56066
 C2705 C 0.70168 0.68189 0.39633
 C2706 C 0.70740 0.68727 0.40776
 C2707 C 0.70019 0.69629 0.41561
 C2708 C 0.68698 0.69966 0.41190
 C2709 C 0.68124 0.69426 0.40046
 C2710 C 0.68853 0.68531 0.39252
 C2711 C 0.70672 0.70170 0.42766
 C2712 C 0.70339 0.71339 0.43311
 C2713 C 0.71075 0.71909 0.44453
 C2714 C 0.71158 0.73296 0.44568
 C2715 C 0.71888 0.73871 0.45601
 C2716 C 0.72540 0.73070 0.46544
 C2717 C 0.72423 0.71683 0.46458
 C2718 C 0.71692 0.71106 0.45423
 H2719 H 0.70766 0.67513 0.39043
 H2720 H 0.71758 0.68449 0.41040
 H2721 H 0.68094 0.70626 0.41791
 H2722 H 0.67101 0.69694 0.39797
 H2723 H 0.71522 0.69624 0.43159
 H2724 H 0.69578 0.71953 0.42847
 H2725 H 0.70685 0.73934 0.43837
 H2726 H 0.71963 0.74944 0.45657
 H2727 H 0.72908 0.71051 0.47185
 H2728 H 0.71609 0.70035 0.45389
 C2729 C 0.69942 0.18101 -0.10515
 C2730 C 0.70506 0.18608 -0.09353
 C2731 C 0.69783 0.19496 -0.08556
 C2732 C 0.68467 0.19849 -0.08930
 C2733 C 0.67900 0.19338 -0.10092
 C2734 C 0.68633 0.18461 -0.10900
 C2735 C 0.70428 0.20015 -0.07338
 C2736 C 0.70124 0.21200 -0.06810
 C2737 C 0.70849 0.21767 -0.05658
 C2738 C 0.70882 0.23153 -0.05511
 C2739 C 0.71603 0.23732 -0.04474
 C2740 C 0.72304 0.22936 -0.03562
 C2741 C 0.72234 0.21549 -0.03675
 C2742 C 0.71508 0.20967 -0.04710
 H2743 H 0.70543 0.17438 -0.11117
 H2744 H 0.71520 0.18319 -0.09086
 H2745 H 0.67863 0.20499 -0.08317
 H2746 H 0.66882 0.19619 -0.10343
 H2747 H 0.71250 0.19440 -0.06929
 H2748 H 0.69392 0.21830 -0.07298
 H2749 H 0.70375 0.23790 -0.06220
 H2750 H 0.71639 0.24805 -0.04396
 H2751 H 0.72758 0.20919 -0.02972
 H2752 H 0.71465 0.19894 -0.04761
 C2753 C 0.19772 0.67585 -0.09969
 C2754 C 0.20370 0.68186 -0.08867
 C2755 C 0.19929 0.69431 -0.08419
 C2756 C 0.18891 0.70078 -0.09115
 C2757 C 0.18294 0.69480 -0.10215
 C2758 C 0.18723 0.68224 -0.10657
 C2759 C 0.20613 0.70051 -0.07269
 C2760 C 0.20038 0.70987 -0.06510
 C2761 C 0.20732 0.71670 -0.05403
 C2762 C 0.19951 0.72342 -0.04455
 C2763 C 0.20562 0.73065 -0.03438
 C2764 C 0.21967 0.73136 -0.03358
 C2765 C 0.22753 0.72458 -0.04293
 C2766 C 0.22144 0.71736 -0.05310
 H2767 H 0.20134 0.66620 -0.10276
 H2768 H 0.21179 0.67672 -0.08360
 H2769 H 0.18555 0.71061 -0.08836
 H2770 H 0.17509 0.70019 -0.10726
 H2771 H 0.21607 0.69688 -0.07026
 H2772 H 0.18997 0.71254 -0.06680
 H2773 H 0.18863 0.72318 -0.04509
 H2774 H 0.19941 0.73588 -0.02727
 H2775 H 0.23840 0.72510 -0.04247
 H2776 H 0.22785 0.71269 -0.06039
 C2777 C 0.19810 0.17726 0.39588
 C2778 C 0.20382 0.18261 0.40734
 C2779 C 0.19717 0.19255 0.41456
 C2780 C 0.18446 0.19687 0.41014
 C2781 C 0.17876 0.19155 0.39864
 C2782 C 0.18552 0.18171 0.39132
 C2783 C 0.20385 0.19792 0.42661
 C2784 C 0.20010 0.20911 0.43285
 C2785 C 0.20750 0.21472 0.44433
 C2786 C 0.20627 0.22837 0.44697
 C2787 C 0.21347 0.23419 0.45733
 C2788 C 0.22194 0.22644 0.46533
 C2789 C 0.22286 0.21274 0.46308
 C2790 C 0.21568 0.20689 0.45269
 H2791 H 0.20366 0.16975 0.39054
 H2792 H 0.21357 0.17900 0.41052
 H2793 H 0.17873 0.20421 0.41553
 H2794 H 0.16897 0.19510 0.39559
 H2795 H 0.21275 0.19273 0.42997
 H2796 H 0.19188 0.21498 0.42897
 H2797 H 0.19992 0.23460 0.44081
 H2798 H 0.21260 0.24478 0.45903
 H2799 H 0.22929 0.20663 0.46925
 H2800 H 0.21653 0.19627 0.45134
 C2801 C 0.30067 0.39471 0.68049
 C2802 C 0.29494 0.40611 0.68593
 C2803 C 0.30186 0.41356 0.69546
 C2804 C 0.31480 0.40942 0.69936
 C2805 C 0.32056 0.39798 0.69388
 C2806 C 0.31357 0.39050 0.68434
 C2807 C 0.29530 0.42566 0.70075
 C2808 C 0.29840 0.43121 0.71243
 C2809 C 0.29084 0.44266 0.71787
 C2810 C 0.28981 0.44404 0.73168
 C2811 C 0.28214 0.45428 0.73716
 C2812 C 0.27545 0.46338 0.72892
 C2813 C 0.27684 0.46233 0.71512
 C2814 C 0.28452 0.45210 0.70962
 H2815 H 0.29489 0.38920 0.67328
 H2816 H 0.28498 0.40909 0.68273
 H2817 H 0.32062 0.41508 0.70641
 H2818 H 0.33057 0.39515 0.69698
 H2819 H 0.28691 0.42959 0.69513
 H2820 H 0.30590 0.42665 0.71874
 H2821 H 0.29469 0.43698 0.73822
 H2822 H 0.28126 0.45504 0.74784
 H2823 H 0.27187 0.46938 0.70864
 H2824 H 0.28549 0.45164 0.69894
 C2825 C 0.32410 0.89778 0.19444
 C2826 C 0.31821 0.90870 0.20072
 C2827 C 0.30539 0.91318 0.19700
 C2828 C 0.29849 0.90638 0.18691
 C2829 C 0.30438 0.89546 0.18062
 C2830 C 0.31725 0.89100 0.18432
 C2831 C 0.29940 0.92452 0.20432
 C2832 C 0.28923 0.93197 0.19966
 C2833 C 0.28305 0.94305 0.20723
 C2834 C 0.27571 0.95278 0.20031
 C2835 C 0.26931 0.96310 0.20711
 C2836 C 0.27007 0.96380 0.22098
 C2837 C 0.27739 0.95414 0.22794
 C2838 C 0.28377 0.94382 0.22117
 H2839 H 0.33403 0.89472 0.19755
 H2840 H 0.32372 0.91368 0.20853
 H2841 H 0.28841 0.90920 0.18401
 H2842 H 0.29869 0.89041 0.17301
 H2843 H 0.30394 0.92702 0.21373
 H2844 H 0.28549 0.93028 0.18974
 H2845 H 0.27488 0.95236 0.18961
 H2846 H 0.26361 0.97045 0.20161
 H2847 H 0.27797 0.95450 0.23866
 H2848 H 0.28893 0.93632 0.22694
 C2849 C 0.80644 0.40158 0.17418
 C2850 C 0.80028 0.41261 0.18000
 C2851 C 0.80357 0.41648 0.19296
 C2852 C 0.81321 0.40905 0.20001
 C2853 C 0.81940 0.39803 0.19417
 C2854 C 0.81601 0.39410 0.18123
 C2855 C 0.79614 0.42776 0.19895
 C2856 C 0.80052 0.43469 0.20945
 C2857 C 0.79265 0.44556 0.21566
 C2858 C 0.79943 0.45519 0.22318
 C2859 C 0.79229 0.46532 0.22955
 C2860 C 0.77824 0.46590 0.22860
 C2861 C 0.77141 0.45631 0.22114
 C2862 C 0.77852 0.44619 0.21476
 H2863 H 0.80367 0.39895 0.16415
 H2864 H 0.79285 0.41811 0.17436
 H2865 H 0.81575 0.41142 0.21016
 H2866 H 0.82657 0.39239 0.19997
 H2867 H 0.78682 0.43064 0.19419
 H2868 H 0.81040 0.43269 0.21347
 H2869 H 0.81027 0.45485 0.22416
 H2870 H 0.79768 0.47262 0.23535
 H2871 H 0.76055 0.45658 0.22041
 H2872 H 0.77286 0.43874 0.20946
 C2873 C 0.81631 0.89284 0.70030
 C2874 C 0.81002 0.90354 0.70655
 C2875 C 0.80118 0.91182 0.69954
 C2876 C 0.79853 0.90902 0.68612
 C2877 C 0.80477 0.89825 0.67987
 C2878 C 0.81377 0.89006 0.68687
 C2879 C 0.79457 0.92285 0.70675
 C2880 C 0.79002 0.93396 0.70086
 C2881 C 0.78337 0.94500 0.70812
 C2882 C 0.77563 0.95418 0.70087
 C2883 C 0.76893 0.96457 0.70728
 C2884 C 0.76989 0.96597 0.72107
 C2885 C 0.77790 0.95710 0.72833
 C2886 C 0.78463 0.94674 0.72194
 H2887 H 0.82303 0.88669 0.70609
 H2888 H 0.81213 0.90539 0.71693
 H2889 H 0.79146 0.91493 0.68048
 H2890 H 0.80257 0.89639 0.66953
 H2891 H 0.79367 0.92168 0.71737
 H2892 H 0.79099 0.93503 0.69022
 H2893 H 0.77460 0.95319 0.69023
 H2894 H 0.76283 0.97139 0.70153
 H2895 H 0.77886 0.95818 0.73897
 H2896 H 0.79087 0.94028 0.72790
 C2897 C 0.69524 0.60098 0.67492
 C2898 C 0.70122 0.58984 0.68078
 C2899 C 0.69719 0.58545 0.69339
 C2900 C 0.68704 0.59253 0.70008
 C2901 C 0.68105 0.60367 0.69421
 C2902 C 0.68510 0.60807 0.68158
 C2903 C 0.70428 0.57395 0.69948
 C2904 C 0.69912 0.56654 0.70933
 C2905 C 0.70648 0.55544 0.71583
 C2906 C 0.69911 0.54579 0.72282
 C2907 C 0.70567 0.53555 0.72965
 C2908 C 0.71975 0.53485 0.72971
 C2909 C 0.72717 0.54440 0.72270
 C2910 C 0.72063 0.55464 0.71586
 H2911 H 0.69857 0.60399 0.66516
 H2912 H 0.70906 0.58462 0.67543
 H2913 H 0.68393 0.58979 0.70999
 H2914 H 0.67344 0.60897 0.69975
 H2915 H 0.71397 0.57136 0.69535
 H2916 H 0.68892 0.56835 0.71261
 H2917 H 0.68823 0.54623 0.72307
 H2918 H 0.69979 0.52830 0.73507
 H2919 H 0.73806 0.54405 0.72272
 H2920 H 0.72673 0.56206 0.71097
 C2921 C 0.69507 0.10213 0.17470
 C2922 C 0.70123 0.09100 0.18036
 C2923 C 0.69733 0.08641 0.19292
 C2924 C 0.68717 0.09328 0.19979
 C2925 C 0.68102 0.10444 0.19414
 C2926 C 0.68493 0.10904 0.18154
 C2927 C 0.70455 0.07490 0.19873
 C2928 C 0.69941 0.06713 0.20830
 C2929 C 0.70685 0.05592 0.21445
 C2930 C 0.69956 0.04601 0.22115
 C2931 C 0.70622 0.03563 0.22765
 C2932 C 0.72030 0.03505 0.22765
 C2933 C 0.72764 0.04483 0.22090
 C2934 C 0.72101 0.05522 0.21441
 H2935 H 0.69833 0.10527 0.16495
 H2936 H 0.70909 0.08595 0.17488
 H2937 H 0.68417 0.09034 0.20968
 H2938 H 0.67338 0.10956 0.19980
 H2939 H 0.71430 0.07256 0.19458
 H2940 H 0.68916 0.06872 0.21155
 H2941 H 0.68868 0.04636 0.22143
 H2942 H 0.70041 0.02818 0.23288
 H2943 H 0.73853 0.04455 0.22087
 H2944 H 0.72705 0.06283 0.20975
 C2945 C 0.19549 0.59888 0.17642
 C2946 C 0.20150 0.58776 0.18228
 C2947 C 0.19793 0.58375 0.19514
 C2948 C 0.18824 0.59117 0.20209
 C2949 C 0.18223 0.60229 0.19624
 C2950 C 0.18582 0.60634 0.18335
 C2951 C 0.20510 0.57231 0.20120
 C2952 C 0.20030 0.56529 0.21150
 C2953 C 0.20789 0.55434 0.21795
 C2954 C 0.20080 0.54473 0.22526
 C2955 C 0.20764 0.53453 0.23186
 C2956 C 0.22172 0.53387 0.23137
 C2957 C 0.22885 0.54346 0.22414
 C2958 C 0.22203 0.55363 0.21753
 H2959 H 0.19848 0.60161 0.16647
 H2960 H 0.20901 0.58229 0.17674
 H2961 H 0.18551 0.58871 0.21218
 H2962 H 0.17498 0.60784 0.20200
 H2963 H 0.21455 0.56945 0.19672
 H2964 H 0.19029 0.56729 0.21519
 H2965 H 0.18993 0.54512 0.22587
 H2966 H 0.20200 0.52723 0.23747
 H2967 H 0.23973 0.54312 0.22375
 H2968 H 0.22791 0.56108 0.21240
 C2969 C 0.19794 0.09974 0.67642
 C2970 C 0.20439 0.08879 0.68214
 C2971 C 0.20047 0.08406 0.69466
 C2972 C 0.19013 0.09070 0.70148
 C2973 C 0.18370 0.10165 0.69578
 C2974 C 0.18749 0.10631 0.68316
 C2975 C 0.20777 0.07264 0.70056
 C2976 C 0.20231 0.06461 0.70973
 C2977 C 0.20962 0.05356 0.71631
 C2978 C 0.20214 0.04373 0.72291
 C2979 C 0.20858 0.03359 0.72995
 C2980 C 0.22265 0.03315 0.73058
 C2981 C 0.23020 0.04283 0.72389
 C2982 C 0.22377 0.05299 0.71686
 H2983 H 0.20116 0.10299 0.66670
 H2984 H 0.21243 0.08395 0.67675
 H2985 H 0.18717 0.08771 0.71137
 H2986 H 0.17590 0.10654 0.70142
 H2987 H 0.21777 0.07062 0.69685
 H2988 H 0.19185 0.06593 0.71243
 H2989 H 0.19125 0.04398 0.72274
 H2990 H 0.20261 0.02621 0.73510
 H2991 H 0.24108 0.04263 0.72433
 H2992 H 0.22995 0.06053 0.71226
 C2993 C 0.32420 0.60165 0.30387
 C2994 C 0.31861 0.59055 0.29766
 C2995 C 0.30629 0.58529 0.30194
 C2996 C 0.29955 0.59152 0.31251
 C2997 C 0.30513 0.60263 0.31872
 C2998 C 0.31752 0.60786 0.31448
 C2999 C 0.30056 0.57377 0.29471
 C3000 C 0.29112 0.56567 0.29974
 C3001 C 0.28507 0.55449 0.29225
 C3002 C 0.27861 0.54426 0.29930
 C3003 C 0.27222 0.53390 0.29259
 C3004 C 0.27207 0.53365 0.27870
 C3005 C 0.27858 0.54376 0.27159
 C3006 C 0.28496 0.55412 0.27828
 H3007 H 0.33374 0.60532 0.30027
 H3008 H 0.32396 0.58604 0.28947
 H3009 H 0.28982 0.58809 0.31583
 H3010 H 0.29955 0.60719 0.32673
 H3011 H 0.30468 0.57171 0.28499
 H3012 H 0.28788 0.56694 0.30990
 H3013 H 0.27843 0.54436 0.31004
 H3014 H 0.26714 0.52621 0.29821
 H3015 H 0.27844 0.54375 0.26085
 H3016 H 0.28941 0.56198 0.27243
 C3017 C 0.32360 0.10053 0.80578
 C3018 C 0.31782 0.08932 0.79996
 C3019 C 0.30511 0.08481 0.80397
 C3020 C 0.29820 0.09187 0.81391
 C3021 C 0.30399 0.10311 0.81973
 C3022 C 0.31675 0.10761 0.81571
 C3023 C 0.29920 0.07321 0.79702
 C3024 C 0.28912 0.06580 0.80190
 C3025 C 0.28293 0.05460 0.79454
 C3026 C 0.27585 0.04483 0.80166
 C3027 C 0.26941 0.03442 0.79503
 C3028 C 0.26983 0.03368 0.78116
 C3029 C 0.27693 0.04336 0.77400
 C3030 C 0.28336 0.05377 0.78059
 H3031 H 0.33346 0.10357 0.80244
 H3032 H 0.32332 0.08413 0.79228
 H3033 H 0.28821 0.08901 0.81701
 H3034 H 0.29831 0.10837 0.82722
 H3035 H 0.30366 0.07055 0.78760
 H3036 H 0.28541 0.06768 0.81181
 H3037 H 0.27525 0.04529 0.81238
 H3038 H 0.26389 0.02708 0.80070
 H3039 H 0.27725 0.04298 0.76327
 H3040 H 0.28829 0.06129 0.77467
 C3041 C 0.82287 0.60135 0.80352
 C3042 C 0.81717 0.59021 0.79749
 C3043 C 0.80443 0.58564 0.80133
 C3044 C 0.79741 0.59254 0.81129
 C3045 C 0.80311 0.60369 0.81731
 C3046 C 0.81589 0.60826 0.81349
 C3047 C 0.79856 0.57412 0.79425
 C3048 C 0.78877 0.56647 0.79931
 C3049 C 0.78241 0.55538 0.79197
 C3050 C 0.77541 0.54561 0.79915
 C3051 C 0.76867 0.53537 0.79258
 C3052 C 0.76874 0.53479 0.77869
 C3053 C 0.77579 0.54445 0.77146
 C3054 C 0.78250 0.55470 0.77801
 H3055 H 0.83276 0.60448 0.80035
 H3056 H 0.82276 0.58513 0.78980
 H3057 H 0.78738 0.58963 0.81424
 H3058 H 0.79732 0.60883 0.82480
 H3059 H 0.80282 0.57173 0.78468
 H3060 H 0.78543 0.56809 0.80939
 H3061 H 0.77507 0.54595 0.80988
 H3062 H 0.76322 0.52801 0.79830
 H3063 H 0.77586 0.54417 0.76072
 H3064 H 0.78738 0.56223 0.77206
 C3065 C 0.82308 0.10074 0.30257
 C3066 C 0.81741 0.08969 0.29636
 C3067 C 0.80468 0.08502 0.30013
 C3068 C 0.79765 0.09175 0.31020
 C3069 C 0.80333 0.10280 0.31642
 C3070 C 0.81610 0.10746 0.31267
 C3071 C 0.79883 0.07360 0.29287
 C3072 C 0.78901 0.06588 0.29776
 C3073 C 0.78275 0.05487 0.29021
 C3074 C 0.77590 0.04486 0.29722
 C3075 C 0.76926 0.03469 0.29045
 C3076 C 0.76927 0.03441 0.27656
 C3077 C 0.77618 0.04430 0.26951
 C3078 C 0.78280 0.05448 0.27625
 H3079 H 0.83296 0.10395 0.29945
 H3080 H 0.82299 0.08475 0.28857
 H3081 H 0.78762 0.08878 0.31310
 H3082 H 0.79754 0.10782 0.32399
 H3083 H 0.80315 0.07131 0.28329
 H3084 H 0.78558 0.06737 0.30783
 H3085 H 0.77561 0.04498 0.30795
 H3086 H 0.76392 0.02715 0.29604
 H3087 H 0.77621 0.04426 0.25876
 H3088 H 0.78757 0.06220 0.27044
 C3089 C 0.67560 0.39707 0.30121
 C3090 C 0.68104 0.40812 0.29472
 C3091 C 0.69292 0.41406 0.29930
 C3092 C 0.69934 0.40860 0.31050
 C3093 C 0.69389 0.39759 0.31700
 C3094 C 0.68199 0.39165 0.31241
 C3095 C 0.69863 0.42541 0.29177
 C3096 C 0.70751 0.43402 0.29690
 C3097 C 0.71382 0.44500 0.28927
 C3098 C 0.72029 0.45520 0.29630
 C3099 C 0.72697 0.46540 0.28957
 C3100 C 0.72736 0.46554 0.27568
 C3101 C 0.72084 0.45546 0.26859
 C3102 C 0.71420 0.44523 0.27530
 H3103 H 0.66640 0.39281 0.29741
 H3104 H 0.67595 0.41204 0.28605
 H3105 H 0.70877 0.41251 0.31410
 H3106 H 0.69924 0.39357 0.32545
 H3107 H 0.69503 0.42681 0.28174
 H3108 H 0.71014 0.43329 0.30728
 H3109 H 0.72027 0.45522 0.30704
 H3110 H 0.73201 0.47308 0.29518
 H3111 H 0.72111 0.45541 0.25785
 H3112 H 0.70973 0.43741 0.26945
 C3113 C 0.67466 0.89781 0.80129
 C3114 C 0.67967 0.90885 0.79449
 C3115 C 0.69185 0.91474 0.79827
 C3116 C 0.69904 0.90919 0.80896
 C3117 C 0.69403 0.89813 0.81576
 C3118 C 0.68178 0.89228 0.81202
 C3119 C 0.69685 0.92624 0.79046
 C3120 C 0.70621 0.93478 0.79481
 C3121 C 0.71147 0.94587 0.78662
 C3122 C 0.72455 0.95047 0.78908
 C3123 C 0.73006 0.96066 0.78139
 C3124 C 0.72249 0.96654 0.77124
 C3125 C 0.70929 0.96228 0.76895
 C3126 C 0.70379 0.95202 0.77659
 H3127 H 0.66519 0.89366 0.79807
 H3128 H 0.67396 0.91285 0.78624
 H3129 H 0.70869 0.91309 0.81197
 H3130 H 0.69991 0.89410 0.82385
 H3131 H 0.69260 0.92760 0.78068
 H3132 H 0.71062 0.93347 0.80452
 H3133 H 0.73062 0.94600 0.79682
 H3134 H 0.74026 0.96390 0.78327
 H3135 H 0.70333 0.96682 0.76118
 H3136 H 0.69352 0.94906 0.77469
 C3137 C 0.20154 0.39192 0.82148
 C3138 C 0.20819 0.40270 0.81570
 C3139 C 0.20137 0.41141 0.80714
 C3140 C 0.18774 0.40898 0.80431
 C3141 C 0.18110 0.39816 0.81004
 C3142 C 0.18792 0.38949 0.81868
 C3143 C 0.20896 0.42242 0.80084
 C3144 C 0.20316 0.43364 0.79641
 C3145 C 0.21053 0.44439 0.78940
 C3146 C 0.20313 0.45348 0.78171
 C3147 C 0.20962 0.46348 0.77452
 C3148 C 0.22366 0.46460 0.77494
 C3149 C 0.23109 0.45584 0.78291
 C3150 C 0.22461 0.44585 0.79013
 H3151 H 0.20716 0.38536 0.82794
 H3152 H 0.21874 0.40424 0.81791
 H3153 H 0.18222 0.41518 0.79744
 H3154 H 0.17062 0.39661 0.80765
 H3155 H 0.21969 0.42103 0.79986
 H3156 H 0.19242 0.43494 0.79758
 H3157 H 0.19228 0.45269 0.78107
 H3158 H 0.20374 0.47021 0.76846
 H3159 H 0.24193 0.45671 0.78346
 H3160 H 0.23071 0.43944 0.79628
 C3161 C 0.19703 0.89744 0.32440
 C3162 C 0.20328 0.90838 0.31851
 C3163 C 0.19906 0.91309 0.30608
 C3164 C 0.18848 0.90649 0.29958
 C3165 C 0.18222 0.89554 0.30548
 C3166 C 0.18644 0.89084 0.31795
 C3167 C 0.20638 0.92443 0.30005
 C3168 C 0.20132 0.93214 0.29038
 C3169 C 0.20888 0.94324 0.28420
 C3170 C 0.20170 0.95333 0.27764
 C3171 C 0.20847 0.96369 0.27124
 C3172 C 0.22255 0.96405 0.27118
 C3173 C 0.22979 0.95406 0.27776
 C3174 C 0.22305 0.94370 0.28415
 H3175 H 0.20053 0.89420 0.33403
 H3176 H 0.21145 0.91321 0.32370
 H3177 H 0.18520 0.90949 0.28980
 H3178 H 0.17425 0.89061 0.30011
 H3179 H 0.21615 0.92674 0.30416
 H3180 H 0.19108 0.93064 0.28710
 H3181 H 0.19081 0.95315 0.27741
 H3182 H 0.20275 0.97129 0.26611
 H3183 H 0.24068 0.95416 0.27768
 H3184 H 0.22900 0.93592 0.28867
 C3185 C 0.39840 0.30561 0.67579
 C3186 C 0.40962 0.29955 0.68156
 C3187 C 0.41398 0.30324 0.69426
 C3188 C 0.40677 0.31310 0.70114
 C3189 C 0.39554 0.31916 0.69537
 C3190 C 0.39117 0.31545 0.68264
 C3191 C 0.42558 0.29607 0.70016
 C3192 C 0.43305 0.30083 0.71016
 C3193 C 0.44436 0.29334 0.71624
 C3194 C 0.45432 0.30035 0.72318
 C3195 C 0.46488 0.29360 0.72943
 C3196 C 0.46556 0.27970 0.72895
 C3197 C 0.45564 0.27264 0.72206
 C3198 C 0.44510 0.27936 0.71580
 H3199 H 0.39546 0.30253 0.66594
 H3200 H 0.41492 0.29193 0.67606
 H3201 H 0.40952 0.31595 0.71111
 H3202 H 0.39015 0.32656 0.70103
 H3203 H 0.42827 0.28667 0.69570
 H3204 H 0.43120 0.31077 0.71381
 H3205 H 0.45391 0.31109 0.72379
 H3206 H 0.47242 0.29919 0.73478
 H3207 H 0.45598 0.26188 0.72167
 H3208 H 0.43742 0.27353 0.71096
 C3209 C 0.39968 0.80387 0.17751
 C3210 C 0.41066 0.79771 0.18363
 C3211 C 0.41527 0.80204 0.19603
 C3212 C 0.40853 0.81260 0.20230
 C3213 C 0.39755 0.81876 0.19619
 C3214 C 0.39296 0.81447 0.18372
 C3215 C 0.42666 0.79489 0.20232
 C3216 C 0.43449 0.80017 0.21177
 C3217 C 0.44566 0.79282 0.21824
 C3218 C 0.45601 0.80006 0.22436
 C3219 C 0.46645 0.79350 0.23099
 C3220 C 0.46662 0.77959 0.23173
 C3221 C 0.45634 0.77231 0.22562
 C3222 C 0.44591 0.77884 0.21899
 H3223 H 0.39653 0.80029 0.16791
 H3224 H 0.41559 0.78953 0.17863
 H3225 H 0.41146 0.81596 0.21206
 H3226 H 0.39256 0.82675 0.20139
 H3227 H 0.42892 0.78506 0.19859
 H3228 H 0.43307 0.81043 0.21463
 H3229 H 0.45600 0.81082 0.22404
 H3230 H 0.47428 0.79926 0.23572
 H3231 H 0.45630 0.76156 0.22618
 H3232 H 0.43792 0.77290 0.21481
 C3233 C 0.89608 0.32263 0.19646
 C3234 C 0.90735 0.31711 0.20263
 C3235 C 0.91384 0.30595 0.19727
 C3236 C 0.90871 0.30040 0.18550
 C3237 C 0.89741 0.30593 0.17932
 C3238 C 0.89095 0.31711 0.18471
 C3239 C 0.92574 0.30056 0.20444
 C3240 C 0.93313 0.29013 0.20046
 C3241 C 0.94460 0.28483 0.20825
 C3242 C 0.94798 0.27134 0.20698
 C3243 C 0.95840 0.26585 0.21450
 C3244 C 0.96574 0.27382 0.22327
 C3245 C 0.96276 0.28738 0.22426
 C3246 C 0.95229 0.29287 0.21680
 H3247 H 0.89139 0.33117 0.20101
 H3248 H 0.91101 0.32162 0.21169
 H3249 H 0.91323 0.29182 0.18092
 H3250 H 0.89382 0.30141 0.17027
 H3251 H 0.92827 0.30532 0.21372
 H3252 H 0.93047 0.28474 0.19160
 H3253 H 0.94234 0.26498 0.20035
 H3254 H 0.96066 0.25536 0.21362
 H3255 H 0.96843 0.29365 0.23095
 H3256 H 0.95033 0.30341 0.21769
 C3257 C 0.89432 0.81953 0.70229
 C3258 C 0.90515 0.81372 0.70896
 C3259 C 0.91388 0.80500 0.70237
 C3260 C 0.91144 0.80205 0.68895
 C3261 C 0.90056 0.80782 0.68229
 C3262 C 0.89187 0.81663 0.68887
 C3263 C 0.92493 0.79872 0.71001
 C3264 C 0.93626 0.79408 0.70445
 C3265 C 0.94712 0.78728 0.71197
 C3266 C 0.95638 0.77946 0.70492
 C3267 C 0.96656 0.77254 0.71155
 C3268 C 0.96769 0.77337 0.72537
 C3269 C 0.95874 0.78146 0.73245
 C3270 C 0.94857 0.78841 0.72583
 H3271 H 0.88778 0.82614 0.70776
 H3272 H 0.90671 0.81605 0.71933
 H3273 H 0.91767 0.79506 0.68361
 H3274 H 0.89901 0.80536 0.67196
 H3275 H 0.92349 0.79799 0.72061
 H3276 H 0.93760 0.79494 0.69383
 H3277 H 0.95560 0.77851 0.69425
 H3278 H 0.97343 0.76638 0.70593
 H3279 H 0.95961 0.78232 0.74312
 H3280 H 0.94203 0.79468 0.73165
 C3281 C 0.60304 0.30352 0.32440
 C3282 C 0.59150 0.29742 0.31938
 C3283 C 0.58688 0.30039 0.30657
 C3284 C 0.59416 0.30951 0.29878
 C3285 C 0.60568 0.31562 0.30380
 C3286 C 0.61028 0.31267 0.31665
 C3287 C 0.57496 0.29325 0.30139
 C3288 C 0.56723 0.29800 0.29156
 C3289 C 0.55586 0.29058 0.28561
 C3290 C 0.54643 0.29762 0.27795
 C3291 C 0.53610 0.29094 0.27137
 C3292 C 0.53508 0.27709 0.27226
 C3293 C 0.54431 0.27001 0.28006
 C3294 C 0.55466 0.27667 0.28663
 H3295 H 0.60624 0.30106 0.33436
 H3296 H 0.58615 0.29034 0.32553
 H3297 H 0.59125 0.31169 0.28868
 H3298 H 0.61114 0.32241 0.29746
 H3299 H 0.57240 0.28394 0.30614
 H3300 H 0.56911 0.30789 0.28775
 H3301 H 0.54716 0.30831 0.27692
 H3302 H 0.52907 0.29654 0.26535
 H3303 H 0.54365 0.25930 0.28081
 H3304 H 0.56188 0.27079 0.29210
 C3305 C 0.60889 0.79836 0.81915
 C3306 C 0.59816 0.79161 0.81329
 C3307 C 0.58912 0.79831 0.80493
 C3308 C 0.59115 0.81191 0.80239
 C3309 C 0.60193 0.81864 0.80818
 C3310 C 0.61093 0.81195 0.81661
 C3311 C 0.57817 0.79063 0.79857
 C3312 C 0.56666 0.79613 0.79428
 C3313 C 0.55594 0.78862 0.78732
 C3314 C 0.54665 0.79574 0.77957
 C3315 C 0.53660 0.78910 0.77254
 C3316 C 0.53561 0.77523 0.77318
 C3317 C 0.54462 0.76809 0.78118
 C3318 C 0.55467 0.77470 0.78824
 H3319 H 0.61571 0.79285 0.82546
 H3320 H 0.59691 0.78110 0.81528
 H3321 H 0.58467 0.81736 0.79568
 H3322 H 0.60317 0.82910 0.80604
 H3323 H 0.57985 0.78008 0.79743
 H3324 H 0.56505 0.80668 0.79555
 H3325 H 0.54729 0.80645 0.77880
 H3326 H 0.52967 0.79477 0.76646
 H3327 H 0.54385 0.75738 0.78194
 H3328 H 0.56125 0.76885 0.79446
 C3329 C 0.10181 0.32463 0.80332
 C3330 C 0.09066 0.31942 0.79670
 C3331 C 0.08605 0.30654 0.79950
 C3332 C 0.09303 0.29887 0.80895
 C3333 C 0.10416 0.30409 0.81558
 C3334 C 0.10869 0.31704 0.81288
 C3335 C 0.07434 0.30136 0.79199
 C3336 C 0.06685 0.29102 0.79603
 C3337 C 0.05560 0.28546 0.78817
 C3338 C 0.05223 0.27203 0.78999
 C3339 C 0.04195 0.26625 0.78257
 C3340 C 0.03472 0.27385 0.77335
 C3341 C 0.03774 0.28735 0.77175
 C3342 C 0.04811 0.29314 0.77910
 H3343 H 0.10496 0.33465 0.80097
 H3344 H 0.08557 0.32550 0.78937
 H3345 H 0.09019 0.28873 0.81110
 H3346 H 0.10930 0.29782 0.82268
 H3347 H 0.07192 0.30629 0.78275
 H3348 H 0.06921 0.28602 0.80524
 H3349 H 0.05776 0.26594 0.79699
 H3350 H 0.03967 0.25581 0.78393
 H3351 H 0.03216 0.29334 0.76471
 H3352 H 0.05010 0.30362 0.77774
 C3353 C 0.10354 0.82203 0.30497
 C3354 C 0.09247 0.81637 0.29860
 C3355 C 0.08701 0.80430 0.30303
 C3356 C 0.09302 0.79792 0.31398
 C3357 C 0.10410 0.80359 0.32035
 C3358 C 0.10953 0.81572 0.31593
 C3359 C 0.07543 0.79863 0.29564
 C3360 C 0.06758 0.78877 0.30017
 C3361 C 0.05636 0.78301 0.29238
 C3362 C 0.05251 0.76983 0.29492
 C3363 C 0.04220 0.76390 0.28762
 C3364 C 0.03544 0.77114 0.27779
 C3365 C 0.03897 0.78440 0.27541
 C3366 C 0.04934 0.79033 0.28265
 H3367 H 0.10737 0.83135 0.30119
 H3368 H 0.08813 0.82148 0.29015
 H3369 H 0.08946 0.78844 0.31757
 H3370 H 0.10843 0.79834 0.32869
 H3371 H 0.07343 0.80281 0.28594
 H3372 H 0.06955 0.78432 0.30974
 H3373 H 0.05766 0.76402 0.30242
 H3374 H 0.03955 0.75364 0.28955
 H3375 H 0.03377 0.79011 0.26786
 H3376 H 0.05170 0.80063 0.28069
 C3377 C 0.60230 0.69524 0.67705
 C3378 C 0.59071 0.70082 0.68250
 C3379 C 0.58459 0.69517 0.69370
 C3380 C 0.59021 0.68355 0.69919
 C3381 C 0.60186 0.67795 0.69373
 C3382 C 0.60810 0.68377 0.68263
 C3383 C 0.57241 0.70174 0.69911
 C3384 C 0.56765 0.69980 0.71142
 C3385 C 0.55619 0.70746 0.71693
 C3386 C 0.55529 0.70905 0.73074
 C3387 C 0.54507 0.71679 0.73630
 C3388 C 0.53556 0.72308 0.72815
 C3389 C 0.53613 0.72114 0.71439
 C3390 C 0.54629 0.71334 0.70882
 H3391 H 0.60664 0.70001 0.66845
 H3392 H 0.58657 0.70971 0.67799
 H3393 H 0.58564 0.67863 0.70760
 H3394 H 0.60595 0.66908 0.69828
 H3395 H 0.56776 0.70921 0.69288
 H3396 H 0.57289 0.69319 0.71813
 H3397 H 0.56268 0.70453 0.73722
 H3398 H 0.54470 0.71805 0.74696
 H3399 H 0.52877 0.72578 0.70796
 H3400 H 0.54629 0.71194 0.69819
 C3401 C 0.60055 0.19471 0.17589
 C3402 C 0.58911 0.20045 0.18148
 C3403 C 0.58391 0.19579 0.19355
 C3404 C 0.59031 0.18497 0.19981
 C3405 C 0.60182 0.17923 0.19421
 C3406 C 0.60715 0.18409 0.18222
 C3407 C 0.57184 0.20255 0.19902
 C3408 C 0.56729 0.20108 0.21147
 C3409 C 0.55581 0.20883 0.21683
 C3410 C 0.55489 0.21068 0.23060
 C3411 C 0.54463 0.21846 0.23601
 C3412 C 0.53509 0.22455 0.22774
 C3413 C 0.53568 0.22237 0.21403
 C3414 C 0.54586 0.21449 0.20861
 H3415 H 0.60415 0.19870 0.16659
 H3416 H 0.58435 0.20868 0.17636
 H3417 H 0.58651 0.18079 0.20894
 H3418 H 0.60653 0.17102 0.19936
 H3419 H 0.56701 0.20971 0.19258
 H3420 H 0.57264 0.19476 0.21836
 H3421 H 0.56230 0.20632 0.23717
 H3422 H 0.54424 0.21992 0.24664
 H3423 H 0.52831 0.22687 0.20750
 H3424 H 0.54582 0.21287 0.19802
 C3425 C 0.10981 0.68142 0.20146
 C3426 C 0.09920 0.68745 0.20823
 C3427 C 0.09053 0.69630 0.20169
 C3428 C 0.09287 0.69923 0.18823
 C3429 C 0.10357 0.69326 0.18147
 C3430 C 0.11213 0.68425 0.18800
 C3431 C 0.07960 0.70264 0.20942
 C3432 C 0.06812 0.70712 0.20400
 C3433 C 0.05719 0.71352 0.21175
 C3434 C 0.04771 0.72139 0.20499
 C3435 C 0.03738 0.72779 0.21190
 C3436 C 0.03631 0.72638 0.22569
 C3437 C 0.04551 0.71828 0.23246
 C3438 C 0.05582 0.71185 0.22557
 H3439 H 0.11630 0.67469 0.20687
 H3440 H 0.09771 0.68514 0.21863
 H3441 H 0.08668 0.70631 0.18295
 H3442 H 0.10508 0.69568 0.17112
 H3443 H 0.08115 0.70338 0.21999
 H3444 H 0.06665 0.70629 0.19340
 H3445 H 0.04841 0.72272 0.19435
 H3446 H 0.03029 0.73395 0.20652
 H3447 H 0.04468 0.71695 0.24309
 H3448 H 0.06251 0.70549 0.23116
 C3449 C 0.10756 0.17728 0.70223
 C3450 C 0.09684 0.18306 0.70911
 C3451 C 0.08837 0.19228 0.70284
 C3452 C 0.09099 0.19582 0.68958
 C3453 C 0.10175 0.19010 0.68273
 C3454 C 0.11016 0.18077 0.68897
 C3455 C 0.07736 0.19848 0.71057
 C3456 C 0.06605 0.20313 0.70497
 C3457 C 0.05524 0.21013 0.71234
 C3458 C 0.04601 0.21782 0.70507
 C3459 C 0.03591 0.22497 0.71151
 C3460 C 0.03481 0.22453 0.72535
 C3461 C 0.04373 0.21660 0.73267
 C3462 C 0.05384 0.20940 0.72624
 H3463 H 0.11391 0.17025 0.70742
 H3464 H 0.09514 0.18029 0.71936
 H3465 H 0.08497 0.20323 0.68454
 H3466 H 0.10343 0.19303 0.67254
 H3467 H 0.07880 0.19915 0.72117
 H3468 H 0.06472 0.20216 0.69437
 H3469 H 0.04676 0.21846 0.69437
 H3470 H 0.02904 0.23101 0.70572
 H3471 H 0.04286 0.21603 0.74336
 H3472 H 0.06038 0.20327 0.73223
 C3473 C 0.40000 0.67819 0.30650
 C3474 C 0.41118 0.68417 0.30061
 C3475 C 0.41549 0.69680 0.30464
 C3476 C 0.40829 0.70338 0.31468
 C3477 C 0.39708 0.69741 0.32058
 C3478 C 0.39276 0.68474 0.31652
 C3479 C 0.42703 0.70296 0.29762
 C3480 C 0.43445 0.71290 0.30260
 C3481 C 0.44562 0.71927 0.29520
 C3482 C 0.45572 0.72593 0.30229
 C3483 C 0.46614 0.73245 0.29560
 C3484 C 0.46654 0.73251 0.28170
 C3485 C 0.45648 0.72589 0.27458
 C3486 C 0.44608 0.71938 0.28123
 H3487 H 0.39709 0.66842 0.30312
 H3488 H 0.41649 0.67892 0.29285
 H3489 H 0.41101 0.71330 0.31780
 H3490 H 0.39169 0.70287 0.32813
 H3491 H 0.42973 0.69877 0.28811
 H3492 H 0.43265 0.71629 0.31262
 H3493 H 0.45553 0.72610 0.31303
 H3494 H 0.47379 0.73759 0.30124
 H3495 H 0.45660 0.72594 0.26383
 H3496 H 0.43828 0.71477 0.27538
 C3497 C 0.39967 0.17667 0.80284
 C3498 C 0.41075 0.18238 0.79650
 C3499 C 0.41576 0.19475 0.80054
 C3500 C 0.40932 0.20139 0.81104
 C3501 C 0.39821 0.19569 0.81739
 C3502 C 0.39321 0.18327 0.81335
 C3503 C 0.42719 0.20061 0.79309
 C3504 C 0.43515 0.21025 0.79785
 C3505 C 0.44616 0.21642 0.79004
 C3506 C 0.45666 0.22282 0.79681
 C3507 C 0.46692 0.22922 0.78980
 C3508 C 0.46677 0.22948 0.77591
 C3509 C 0.45636 0.22308 0.76909
 C3510 C 0.44610 0.21665 0.77607
 H3511 H 0.39622 0.16709 0.79944
 H3512 H 0.41546 0.17708 0.78839
 H3513 H 0.41256 0.21113 0.81421
 H3514 H 0.39346 0.20118 0.82531
 H3515 H 0.42926 0.19649 0.78340
 H3516 H 0.43389 0.21359 0.80796
 H3517 H 0.45687 0.22291 0.80755
 H3518 H 0.47485 0.23421 0.79520
 H3519 H 0.45606 0.22330 0.75835
 H3520 H 0.43800 0.21224 0.77046
 C3521 C 0.89644 0.67982 0.80154
 C3522 C 0.90808 0.68506 0.79584
 C3523 C 0.91606 0.69416 0.80280
 C3524 C 0.91227 0.69776 0.81575
 C3525 C 0.90060 0.69248 0.82149
 C3526 C 0.89254 0.68346 0.81443
 C3527 C 0.92834 0.69934 0.79628
 C3528 C 0.93397 0.71105 0.79928
 C3529 C 0.94559 0.71648 0.79183
 C3530 C 0.94693 0.73031 0.79060
 C3531 C 0.95739 0.73577 0.78311
 C3532 C 0.96675 0.72748 0.77678
 C3533 C 0.96573 0.71366 0.77837
 C3534 C 0.95527 0.70819 0.78587
 H3535 H 0.89047 0.67300 0.79574
 H3536 H 0.91079 0.68209 0.78587
 H3537 H 0.91839 0.70443 0.82159
 H3538 H 0.89805 0.69533 0.83151
 H3539 H 0.93227 0.69368 0.78803
 H3540 H 0.92931 0.71739 0.80662
 H3541 H 0.93966 0.73689 0.79518
 H3542 H 0.95808 0.74646 0.78205
 H3543 H 0.97296 0.70713 0.77367
 H3544 H 0.95482 0.69751 0.78700
 C3545 C 0.89241 0.18293 0.29836
 C3546 C 0.90311 0.18923 0.29195
 C3547 C 0.91096 0.19865 0.29862
 C3548 C 0.90772 0.20187 0.31181
 C3549 C 0.89695 0.19561 0.31821
 C3550 C 0.88919 0.18603 0.31157
 C3551 C 0.92203 0.20523 0.29126
 C3552 C 0.93294 0.21044 0.29711
 C3553 C 0.94403 0.21703 0.28971
 C3554 C 0.95286 0.22537 0.29669
 C3555 C 0.96331 0.23196 0.29011
 C3556 C 0.96512 0.23028 0.27643
 C3557 C 0.95657 0.22172 0.26947
 C3558 C 0.94617 0.21510 0.27602
 H3559 H 0.88657 0.17576 0.29285
 H3560 H 0.90530 0.18668 0.28174
 H3561 H 0.91328 0.20938 0.31716
 H3562 H 0.89476 0.19828 0.32837
 H3563 H 0.92106 0.20552 0.28060
 H3564 H 0.93382 0.21006 0.30780
 H3565 H 0.95157 0.22693 0.30724
 H3566 H 0.96988 0.23850 0.29564
 H3567 H 0.95796 0.22020 0.25893
 H3568 H 0.94001 0.20840 0.27029
 C3569 C 0.30213 0.32188 0.60161
 C3570 C 0.29587 0.31620 0.59060
 C3571 C 0.29997 0.30377 0.58580
 C3572 C 0.31047 0.29705 0.59235
 C3573 C 0.31674 0.30274 0.60339
 C3574 C 0.31262 0.31521 0.60819
 C3575 C 0.29256 0.29798 0.57442
 C3576 C 0.29738 0.28824 0.56667
 C3577 C 0.28960 0.28237 0.55557
 C3578 C 0.29655 0.27587 0.54531
 C3579 C 0.28953 0.26985 0.53491
 C3580 C 0.27544 0.27012 0.53467
 C3581 C 0.26846 0.27658 0.54487
 C3582 C 0.27544 0.28259 0.55526
 H3583 H 0.29871 0.33153 0.60488
 H3584 H 0.28777 0.32157 0.58580
 H3585 H 0.31370 0.28728 0.58924
 H3586 H 0.32467 0.29722 0.60826
 H3587 H 0.28289 0.30235 0.57212
 H3588 H 0.30754 0.28468 0.56813
 H3589 H 0.30743 0.27541 0.54538
 H3590 H 0.29506 0.26479 0.52715
 H3591 H 0.25757 0.27676 0.54488
 H3592 H 0.26966 0.28706 0.56317
 C3593 C 0.32231 0.80566 0.10068
 C3594 C 0.31612 0.79989 0.08967
 C3595 C 0.30350 0.80432 0.08531
 C3596 C 0.29707 0.81459 0.09234
 C3597 C 0.30326 0.82037 0.10334
 C3598 C 0.31596 0.81599 0.10767
 C3599 C 0.29714 0.79752 0.07388
 C3600 C 0.28716 0.80279 0.06662
 C3601 C 0.28051 0.79564 0.05557
 C3602 C 0.27360 0.80301 0.04588
 C3603 C 0.26675 0.79659 0.03562
 C3604 C 0.26660 0.78268 0.03497
 C3605 C 0.27350 0.77527 0.04460
 C3606 C 0.28033 0.78166 0.05485
 H3607 H 0.33209 0.80201 0.10364
 H3608 H 0.32124 0.79191 0.08453
 H3609 H 0.28714 0.81801 0.08962
 H3610 H 0.29793 0.82814 0.10856
 H3611 H 0.30122 0.78794 0.07117
 H3612 H 0.28390 0.81288 0.06848
 H3613 H 0.27346 0.81376 0.04628
 H3614 H 0.26139 0.80245 0.02830
 H3615 H 0.27339 0.76451 0.04428
 H3616 H 0.28510 0.77558 0.06234
 C3617 C 0.80195 0.32103 0.10313
 C3618 C 0.79580 0.31536 0.09209
 C3619 C 0.80171 0.30457 0.08552
 C3620 C 0.81396 0.29946 0.09036
 C3621 C 0.82014 0.30516 0.10146
 C3622 C 0.81420 0.31603 0.10799
 C3623 C 0.79435 0.29866 0.07418
 C3624 C 0.79988 0.29057 0.06512
 C3625 C 0.79207 0.28451 0.05412
 C3626 C 0.79893 0.27992 0.04283
 C3627 C 0.79195 0.27376 0.03249
 C3628 C 0.77798 0.27202 0.03330
 C3629 C 0.77109 0.27665 0.04451
 C3630 C 0.77804 0.28273 0.05486
 H3631 H 0.79693 0.32926 0.10791
 H3632 H 0.78631 0.31942 0.08868
 H3633 H 0.81869 0.29092 0.08584
 H3634 H 0.82955 0.30100 0.10490
 H3635 H 0.78393 0.30155 0.07310
 H3636 H 0.81057 0.28857 0.06541
 H3637 H 0.80973 0.28108 0.04203
 H3638 H 0.79744 0.27020 0.02392
 H3639 H 0.76031 0.27534 0.04532
 H3640 H 0.77237 0.28568 0.06352
 C3641 C 0.82452 0.80386 0.60410
 C3642 C 0.81907 0.79772 0.59292
 C3643 C 0.80822 0.80344 0.58606
 C3644 C 0.80298 0.81560 0.59069
 C3645 C 0.80845 0.82175 0.60189
 C3646 C 0.81926 0.81594 0.60879
 C3647 C 0.80266 0.79614 0.57447
 C3648 C 0.79287 0.80071 0.56648
 C3649 C 0.78712 0.79283 0.55543
 C3650 C 0.77391 0.79556 0.55132
 C3651 C 0.76797 0.78821 0.54115
 C3652 C 0.77522 0.77813 0.53479
 C3653 C 0.78852 0.77555 0.53858
 C3654 C 0.79446 0.78285 0.54881
 H3655 H 0.83278 0.79898 0.60910
 H3656 H 0.82333 0.78837 0.58965
 H3657 H 0.79459 0.82044 0.58592
 H3658 H 0.80412 0.83105 0.60511
 H3659 H 0.80669 0.78632 0.57269
 H3660 H 0.78833 0.81028 0.56829
 H3661 H 0.76808 0.80326 0.55615
 H3662 H 0.75770 0.79032 0.53827
 H3663 H 0.79424 0.76783 0.53367
 H3664 H 0.80480 0.78073 0.55136
 C3665 C 0.30198 0.67786 0.39581
 C3666 C 0.29595 0.68308 0.40717
 C3667 C 0.30200 0.69351 0.41419
 C3668 C 0.31434 0.69859 0.40954
 C3669 C 0.32034 0.69338 0.39814
 C3670 C 0.31427 0.68292 0.39114
 C3671 C 0.29509 0.69852 0.42627
 C3672 C 0.29876 0.70939 0.43306
 C3673 C 0.29122 0.71441 0.44473
 C3674 C 0.29216 0.72795 0.44791
 C3675 C 0.28478 0.73323 0.45845
 C3676 C 0.27647 0.72499 0.46610
 C3677 C 0.27585 0.71138 0.46333
 C3678 C 0.28319 0.70609 0.45275
 H3679 H 0.29690 0.66987 0.39072
 H3680 H 0.28647 0.67893 0.41048
 H3681 H 0.31955 0.70648 0.41464
 H3682 H 0.32983 0.69752 0.39494
 H3683 H 0.28617 0.69319 0.42935
 H3684 H 0.30705 0.71541 0.42963
 H3685 H 0.29839 0.73453 0.44203
 H3686 H 0.28538 0.74376 0.46055
 H3687 H 0.26952 0.70492 0.46923
 H3688 H 0.28257 0.69552 0.45096
 C3689 C 0.32210 0.19753 0.89487
 C3690 C 0.31644 0.20361 0.90599
 C3691 C 0.30551 0.19783 0.91266
 C3692 C 0.30030 0.18576 0.90782
 C3693 C 0.30598 0.17967 0.89668
 C3694 C 0.31696 0.18545 0.89006
 C3695 C 0.29988 0.20494 0.92435
 C3696 C 0.29031 0.20010 0.93242
 C3697 C 0.28469 0.20771 0.94373
 C3698 C 0.27147 0.20503 0.94784
 C3699 C 0.26566 0.21217 0.95823
 C3700 C 0.27306 0.22197 0.96483
 C3701 C 0.28637 0.22448 0.96104
 C3702 C 0.29217 0.21740 0.95058
 H3703 H 0.33047 0.20241 0.89006
 H3704 H 0.32065 0.21292 0.90939
 H3705 H 0.29179 0.18096 0.91240
 H3706 H 0.30168 0.17040 0.89332
 H3707 H 0.30378 0.21479 0.92624
 H3708 H 0.28592 0.19049 0.93055
 H3709 H 0.26555 0.19755 0.94282
 H3710 H 0.25537 0.21013 0.96109
 H3711 H 0.29220 0.23199 0.96612
 H3712 H 0.30252 0.21945 0.94800
 C3713 C 0.79944 0.68199 0.89096
 C3714 C 0.79286 0.68795 0.90164
 C3715 C 0.79970 0.69674 0.91002
 C3716 C 0.81327 0.69969 0.90732
 C3717 C 0.81983 0.69379 0.89656
 C3718 C 0.81300 0.68484 0.88828
 C3719 C 0.79218 0.70300 0.92107
 C3720 C 0.79801 0.70737 0.93224
 C3721 C 0.79056 0.71386 0.94325
 C3722 C 0.79786 0.72128 0.95258
 C3723 C 0.79129 0.72788 0.96291
 C3724 C 0.77728 0.72715 0.96410
 C3725 C 0.76994 0.71945 0.95509
 C3726 C 0.77650 0.71281 0.94478
 H3727 H 0.79379 0.67527 0.88472
 H3728 H 0.78237 0.68562 0.90341
 H3729 H 0.81878 0.70673 0.91331
 H3730 H 0.83029 0.69619 0.89480
 H3731 H 0.78142 0.70379 0.91983
 H3732 H 0.80879 0.70641 0.93338
 H3733 H 0.80869 0.72215 0.95176
 H3734 H 0.79709 0.73372 0.96986
 H3735 H 0.75912 0.71866 0.95601
 H3736 H 0.77045 0.70684 0.93819
 C3737 C 0.80273 0.17649 0.39522
 C3738 C 0.79680 0.18187 0.40657
 C3739 C 0.80276 0.19256 0.41324
 C3740 C 0.81502 0.19763 0.40839
 C3741 C 0.82094 0.19226 0.39701
 C3742 C 0.81486 0.18165 0.39024
 C3743 C 0.79587 0.19789 0.42519
 C3744 C 0.79885 0.20954 0.43093
 C3745 C 0.79131 0.21499 0.44242
 C3746 C 0.79168 0.22875 0.44467
 C3747 C 0.78432 0.23439 0.45503
 C3748 C 0.77654 0.22636 0.46341
 C3749 C 0.77648 0.21257 0.46153
 C3750 C 0.78383 0.20690 0.45116
 H3751 H 0.79768 0.16834 0.39036
 H3752 H 0.78742 0.17768 0.41009
 H3753 H 0.82023 0.20561 0.41335
 H3754 H 0.83036 0.19642 0.39362
 H3755 H 0.78749 0.19216 0.42894
 H3756 H 0.80648 0.21586 0.42664
 H3757 H 0.79748 0.23519 0.43822
 H3758 H 0.78455 0.24506 0.45644
 H3759 H 0.77059 0.20624 0.46801
 H3760 H 0.78366 0.19621 0.45011
 C3761 C 0.69781 0.32543 0.39720
 C3762 C 0.70421 0.32029 0.40843
 C3763 C 0.70099 0.30760 0.41322
 C3764 C 0.69130 0.30005 0.40643
 C3765 C 0.68491 0.30517 0.39520
 C3766 C 0.68810 0.31792 0.39040
 C3767 C 0.70843 0.30234 0.42483
 C3768 C 0.70374 0.29256 0.43262
 C3769 C 0.71145 0.28662 0.44374
 C3770 C 0.70449 0.27899 0.45318
 C3771 C 0.71142 0.27244 0.46332
 C3772 C 0.72545 0.27335 0.46414
 C3773 C 0.73245 0.28114 0.45490
 C3774 C 0.72555 0.28766 0.44473
 H3775 H 0.70060 0.33525 0.39385
 H3776 H 0.71173 0.32627 0.41339
 H3777 H 0.68885 0.29004 0.40950
 H3778 H 0.67760 0.29900 0.39024
 H3779 H 0.71794 0.30700 0.42713
 H3780 H 0.69369 0.28880 0.43100
 H3781 H 0.69366 0.27794 0.45261
 H3782 H 0.70588 0.26643 0.47038
 H3783 H 0.74330 0.28189 0.45540
 H3784 H 0.73138 0.29311 0.43750
 C3785 C 0.69895 0.82645 0.89746
 C3786 C 0.70550 0.82123 0.90858
 C3787 C 0.70232 0.80850 0.91334
 C3788 C 0.69258 0.80099 0.90658
 C3789 C 0.68605 0.80620 0.89546
 C3790 C 0.68914 0.81900 0.89074
 C3791 C 0.70981 0.80321 0.92492
 C3792 C 0.70515 0.79345 0.93276
 C3793 C 0.71296 0.78760 0.94385
 C3794 C 0.71004 0.77453 0.94782
 C3795 C 0.71739 0.76845 0.95795
 C3796 C 0.72765 0.77541 0.96441
 C3797 C 0.73040 0.78857 0.96078
 C3798 C 0.72311 0.79466 0.95058
 H3799 H 0.70159 0.83635 0.89419
 H3800 H 0.71304 0.82718 0.91353
 H3801 H 0.69019 0.79094 0.90957
 H3802 H 0.67874 0.80004 0.89047
 H3803 H 0.71955 0.80754 0.92691
 H3804 H 0.69539 0.78914 0.93080
 H3805 H 0.70220 0.76894 0.94291
 H3806 H 0.71514 0.75829 0.96074
 H3807 H 0.73824 0.79407 0.96579
 H3808 H 0.72536 0.80488 0.94813
 C3809 C 0.18016 0.29592 0.89254
 C3810 C 0.18575 0.28901 0.90324
 C3811 C 0.19453 0.29537 0.91206
 C3812 C 0.19783 0.30878 0.90981
 C3813 C 0.19230 0.31567 0.89905
 C3814 C 0.18338 0.30933 0.89031
 C3815 C 0.20050 0.28753 0.92303
 C3816 C 0.20480 0.29293 0.93443
 C3817 C 0.21126 0.28524 0.94529
 C3818 C 0.21870 0.29218 0.95488
 C3819 C 0.22539 0.28538 0.96502
 C3820 C 0.22473 0.27149 0.96577
 C3821 C 0.21698 0.26452 0.95650
 C3822 C 0.21025 0.27130 0.94638
 H3823 H 0.17349 0.29065 0.88592
 H3824 H 0.18318 0.27864 0.90465
 H3825 H 0.20489 0.31392 0.91612
 H3826 H 0.19502 0.32598 0.89763
 H3827 H 0.20124 0.27693 0.92151
 H3828 H 0.20386 0.30354 0.93585
 H3829 H 0.21954 0.30290 0.95439
 H3830 H 0.23129 0.29090 0.97215
 H3831 H 0.21625 0.25379 0.95707
 H3832 H 0.20427 0.26553 0.93956
 C3833 C 0.20122 0.81479 0.39375
 C3834 C 0.20761 0.80841 0.40432
 C3835 C 0.20065 0.79925 0.41223
 C3836 C 0.18716 0.79634 0.40919
 C3837 C 0.18078 0.80266 0.39853
 C3838 C 0.18772 0.81200 0.39073
 C3839 C 0.20797 0.79266 0.42321
 C3840 C 0.20196 0.78798 0.43419
 C3841 C 0.20937 0.78151 0.44524
 C3842 C 0.20225 0.77328 0.45405
 C3843 C 0.20889 0.76677 0.46443
 C3844 C 0.22276 0.76845 0.46619
 C3845 C 0.22985 0.77695 0.45768
 C3846 C 0.22324 0.78349 0.44734
 H3847 H 0.20695 0.82177 0.38786
 H3848 H 0.21805 0.81072 0.40638
 H3849 H 0.18159 0.78903 0.41482
 H3850 H 0.17039 0.80025 0.39647
 H3851 H 0.21876 0.79195 0.42217
 H3852 H 0.19114 0.78872 0.43515
 H3853 H 0.19156 0.77171 0.45277
 H3854 H 0.20327 0.76027 0.47097
 H3855 H 0.24055 0.77846 0.45903
 H3856 H 0.22906 0.79013 0.44118
 C3857 C 0.68534 0.70313 0.60875
 C3858 C 0.69117 0.70994 0.59813
 C3859 C 0.69957 0.70332 0.58914
 C3860 C 0.70233 0.68975 0.59119
 C3861 C 0.69657 0.68295 0.60190
 C3862 C 0.68793 0.68954 0.61074
 C3863 C 0.70562 0.71107 0.57814
 C3864 C 0.70941 0.70573 0.56654
 C3865 C 0.71550 0.71353 0.55553
 C3866 C 0.72274 0.70673 0.54568
 C3867 C 0.72899 0.71368 0.53536
 C3868 C 0.72807 0.72756 0.53469
 C3869 C 0.72049 0.73437 0.54422
 C3870 C 0.71420 0.72745 0.55452
 H3871 H 0.67891 0.70861 0.61546
 H3872 H 0.68901 0.72043 0.59687
 H3873 H 0.70909 0.68440 0.58471
 H3874 H 0.69880 0.67249 0.60317
 H3875 H 0.70669 0.72163 0.57976
 H3876 H 0.70825 0.69515 0.56501
 H3877 H 0.72376 0.69602 0.54610
 H3878 H 0.73476 0.70827 0.52802
 H3879 H 0.71954 0.74509 0.54372
 H3880 H 0.70831 0.73310 0.56152
 C3881 C 0.67762 0.19686 0.10040
 C3882 C 0.68336 0.20305 0.08937
 C3883 C 0.69594 0.19902 0.08455
 C3884 C 0.70277 0.18866 0.09111
 C3885 C 0.69704 0.18247 0.10218
 C3886 C 0.68441 0.18651 0.10700
 C3887 C 0.70181 0.20634 0.07317
 C3888 C 0.71149 0.20147 0.06528
 C3889 C 0.71741 0.20917 0.05417
 C3890 C 0.72329 0.20233 0.04350
 C3891 C 0.72929 0.20930 0.03304
 C3892 C 0.72964 0.22323 0.03318
 C3893 C 0.72381 0.23009 0.04382
 C3894 C 0.71780 0.22316 0.05424
 H3895 H 0.66786 0.20023 0.10370
 H3896 H 0.67791 0.21105 0.08456
 H3897 H 0.71267 0.18552 0.08798
 H3898 H 0.70266 0.17466 0.10706
 H3899 H 0.69754 0.21600 0.07096
 H3900 H 0.71492 0.19134 0.06662
 H3901 H 0.72324 0.19157 0.04327
 H3902 H 0.73384 0.20387 0.02494
 H3903 H 0.72412 0.24085 0.04411
 H3904 H 0.71381 0.22879 0.06247
 C3905 C 0.19629 0.67788 0.10184
 C3906 C 0.20229 0.68415 0.09096
 C3907 C 0.19735 0.69633 0.08622
 C3908 C 0.18633 0.70220 0.09271
 C3909 C 0.18032 0.69593 0.10358
 C3910 C 0.18524 0.68369 0.10833
 C3911 C 0.20436 0.70283 0.07495
 C3912 C 0.19870 0.71217 0.06723
 C3913 C 0.20587 0.71898 0.05625
 C3914 C 0.19827 0.72533 0.04634
 C3915 C 0.20460 0.73229 0.03608
 C3916 C 0.21866 0.73310 0.03561
 C3917 C 0.22631 0.72678 0.04545
 C3918 C 0.22000 0.71984 0.05573
 H3919 H 0.20041 0.66849 0.10513
 H3920 H 0.21084 0.67946 0.08624
 H3921 H 0.18247 0.71178 0.08968
 H3922 H 0.17194 0.70083 0.10832
 H3923 H 0.21442 0.69939 0.07274
 H3924 H 0.18823 0.71472 0.06865
 H3925 H 0.18738 0.72494 0.04658
 H3926 H 0.19854 0.73718 0.02859
 H3927 H 0.23718 0.72739 0.04526
 H3928 H 0.22625 0.71550 0.06336
 C3929 C 0.17484 0.19404 0.60208
 C3930 C 0.18017 0.20053 0.59099
 C3931 C 0.19261 0.19670 0.58568
 C3932 C 0.19972 0.18625 0.59180
 C3933 C 0.19439 0.17976 0.60290
 C3934 C 0.18190 0.18360 0.60822
 C3935 C 0.19808 0.20428 0.57424
 C3936 C 0.20759 0.19959 0.56603
 C3937 C 0.21345 0.20744 0.55496
 C3938 C 0.22006 0.20069 0.54465
 C3939 C 0.22632 0.20772 0.53439
 C3940 C 0.22617 0.22165 0.53432
 C3941 C 0.21952 0.22845 0.54452
 C3942 C 0.21326 0.22145 0.55478
 H3943 H 0.16519 0.19728 0.60579
 H3944 H 0.17453 0.20861 0.58655
 H3945 H 0.20955 0.18326 0.58832
 H3946 H 0.20024 0.17191 0.60743
 H3947 H 0.19373 0.21396 0.57237
 H3948 H 0.21105 0.18946 0.56714
 H3949 H 0.22045 0.18994 0.54459
 H3950 H 0.23147 0.20233 0.52661
 H3951 H 0.21939 0.23922 0.54463
 H3952 H 0.20866 0.22708 0.56269
   
