data_POSCAR
  _audit_creation_date              2014-09-24
  _audit_creation_method            'ToBaCCo'
  _symmetry_space_group_name_H-M    'P1'
  _symmetry_Int_Tables_number       1
  _symmetry_cell_setting            triclinic
  loop_
  _symmetry_equiv_pos_as_xyz
 x,y,z
_cell_length_a 57.5624
_cell_length_b 57.6401
_cell_length_c 60.2033
_cell_angle_alpha 89.214800
_cell_angle_beta 90.727700
_cell_angle_gamma 89.921700
loop_
  _atom_site_label
  _atom_site_type_symbol
  _atom_site_fract_x
  _atom_site_fract_y
  _atom_site_fract_z
C1 C 0.40400 0.00843 0.27626
 C2 C 0.38721 0.02916 0.27450
 C3 C 0.37331 0.02890 0.25588
 C4 C 0.37736 0.00786 0.24084
 C5 C 0.38854 -0.01300 0.27480
 C6 C 0.37456 -0.01342 0.25646
 C7 C 0.41753 0.00903 0.25452
 C8 C 0.40364 0.00889 0.23596
 H9 H 0.38707 0.04323 0.28632
 H10 H 0.36604 0.00747 0.22576
 H11 H 0.38826 -0.02654 0.28755
 H12 H 0.43628 0.01099 0.25385
 C13 C 0.09474 0.00093 0.77166
 C14 C 0.11028 -0.02069 0.77034
 C15 C 0.12427 -0.02070 0.75212
 C16 C 0.12142 0.00110 0.73700
 C17 C 0.11157 0.02142 0.77092
 C18 C 0.12559 0.02167 0.75287
 C19 C 0.08194 0.00194 0.75076
 C20 C 0.09654 0.00195 0.73170
 H21 H 0.10962 -0.03505 0.78221
 H22 H 0.13284 0.00129 0.72224
 H23 H 0.11213 0.03482 0.78345
 H24 H 0.06309 0.00116 0.74958
 C25 C 0.59719 0.50065 0.27249
 C26 C 0.61281 0.47913 0.27130
 C27 C 0.62679 0.47900 0.25312
 C28 C 0.62397 0.50061 0.23781
 C29 C 0.61375 0.52128 0.27140
 C30 C 0.62777 0.52142 0.25341
 C31 C 0.58374 0.50131 0.25040
 C32 C 0.59768 0.50119 0.23223
 H33 H 0.61208 0.46480 0.28319
 H34 H 0.63538 0.50069 0.22307
 H35 H 0.61419 0.53484 0.28378
 H36 H 0.56489 0.50077 0.24922
 C37 C 0.90395 0.50790 0.77584
 C38 C 0.88722 0.52866 0.77405
 C39 C 0.87329 0.52838 0.75545
 C40 C 0.87728 0.50729 0.74045
 C41 C 0.88845 0.48650 0.77445
 C42 C 0.87445 0.48607 0.75613
 C43 C 0.91747 0.50841 0.75409
 C44 C 0.90356 0.50825 0.73555
 H45 H 0.88711 0.54276 0.78585
 H46 H 0.86594 0.50689 0.72539
 H47 H 0.88815 0.47299 0.78724
 H48 H 0.93622 0.51032 0.75340
 C49 C 0.27762 0.37336 0.99384
 C50 C 0.27557 0.35618 1.01331
 C51 C 0.25634 0.34251 1.01232
 C52 C 0.24071 0.34710 0.99175
 C53 C 0.27639 0.35841 0.97298
 C54 C 0.25708 0.34473 0.97184
 C55 C 0.25466 0.38709 0.99368
 C56 C 0.23533 0.37328 0.99255
 H57 H 0.28760 0.35583 1.02738
 H58 H 0.22509 0.33583 0.99089
 H59 H 0.28915 0.35929 0.95986
 H60 H 0.25377 0.40589 0.99438
 C61 C 0.76910 0.12793 0.99994
 C62 C 0.76758 0.14489 0.98021
 C63 C 0.74868 0.15910 0.98051
 C64 C 0.73277 0.15498 1.00066
 C65 C 0.76828 0.14335 1.02051
 C66 C 0.74921 0.15750 1.02093
 C67 C 0.74718 0.11534 0.99978
 C68 C 0.72717 0.13025 1.00026
 H69 H 0.78034 0.14555 0.96705
 H70 H 0.71737 0.16665 1.00087
 H71 H 0.78095 0.14232 1.03403
 H72 H 0.74603 0.09653 1.00067
 C73 C 0.27040 0.62883 0.49979
 C74 C 0.26853 0.64539 0.47985
 C75 C 0.24967 0.65959 0.48014
 C76 C 0.23402 0.65594 0.50049
 C77 C 0.26964 0.64447 0.52017
 C78 C 0.25059 0.65859 0.52057
 C79 C 0.24723 0.61558 0.50005
 C80 C 0.22816 0.62981 0.50051
 H81 H 0.28116 0.64590 0.46657
 H82 H 0.21860 0.66757 0.50069
 H83 H 0.28233 0.64353 0.53367
 H84 H 0.24605 0.59678 0.50085
 C85 C 0.77781 0.87342 0.49400
 C86 C 0.77568 0.85621 0.51342
 C87 C 0.75645 0.84253 0.51232
 C88 C 0.74091 0.84718 0.49170
 C89 C 0.77667 0.85852 0.47311
 C90 C 0.75737 0.84484 0.47185
 C91 C 0.75485 0.88715 0.49377
 C92 C 0.73553 0.87336 0.49253
 H93 H 0.78765 0.85581 0.52754
 H94 H 0.72529 0.83591 0.49074
 H95 H 0.78952 0.85939 0.46005
 H96 H 0.75397 0.90595 0.49454
 C97 C -0.00524 0.27539 0.40924
 C98 C 0.01222 0.27941 0.39054
 C99 C 0.01296 0.26161 0.37594
 C100 C -0.00364 0.24161 0.38131
 C101 C -0.02731 0.27105 0.39824
 C102 C -0.02631 0.25244 0.38290
 C103 C 0.00206 0.25229 0.42017
 C104 C 0.00293 0.23465 0.40529
 H105 H 0.02430 0.29389 0.39004
 H106 H -0.00294 0.22705 0.36938
 H107 H -0.04245 0.28221 0.39973
 H108 H 0.00559 0.24996 0.43783
 C109 C 0.00358 0.76204 0.09096
 C110 C -0.01112 0.76577 0.11162
 C111 C -0.01070 0.74738 0.12598
 C112 C 0.00410 0.72700 0.11845
 C113 C 0.02784 0.75600 0.09986
 C114 C 0.02800 0.73766 0.11432
 C115 C -0.00566 0.73980 0.08056
 C116 C -0.00536 0.72152 0.09519
 H117 H -0.02249 0.78064 0.11372
 H118 H 0.00434 0.71193 0.13019
 H119 H 0.04289 0.76707 0.09735
 H120 H -0.01011 0.73816 0.06306
 C121 C 0.50259 0.26247 0.59226
 C122 C 0.48779 0.26612 0.61287
 C123 C 0.48822 0.24772 0.62721
 C124 C 0.50314 0.22741 0.61972
 C125 C 0.52684 0.25652 0.60124
 C126 C 0.52702 0.23816 0.61567
 C127 C 0.49349 0.24020 0.58181
 C128 C 0.49381 0.22190 0.59642
 H129 H 0.47633 0.28094 0.61492
 H130 H 0.50340 0.21233 0.63145
 H131 H 0.54188 0.26760 0.59872
 H132 H 0.48916 0.23855 0.56428
 C133 C 0.49620 0.77567 0.91155
 C134 C 0.51511 0.77894 0.89406
 C135 C 0.51577 0.76137 0.87921
 C136 C 0.49776 0.74228 0.88317
 C137 C 0.47360 0.77293 0.89813
 C138 C 0.47457 0.75539 0.88325
 C139 C 0.50074 0.75325 0.92191
 C140 C 0.50162 0.73498 0.90612
 H141 H 0.52763 0.79305 0.89418
 H142 H 0.49836 0.72797 0.87096
 H143 H 0.45879 0.78455 0.89936
 H144 H 0.50318 0.75052 0.93969
 C145 C -0.24150 0.65465 0.97410
 C146 C -0.22086 0.63774 0.97584
 C147 C -0.22120 0.62387 0.99447
 C148 C -0.24221 0.62807 1.00955
 C149 C -0.26306 0.63935 0.97562
 C150 C -0.26355 0.62541 0.99397
 C151 C -0.24078 0.66817 0.99582
 C152 C -0.24100 0.65430 1.01439
 H153 H -0.20679 0.63749 0.96399
 H154 H -0.24267 0.61677 1.02465
 H155 H -0.27661 0.63912 0.96287
 H156 H -0.23868 0.68688 0.99646
 C157 C -0.24942 0.34440 0.47869
 C158 C -0.27108 0.35992 0.47999
 C159 C -0.27108 0.37394 0.49816
 C160 C -0.24923 0.37113 0.51326
 C161 C -0.22891 0.36122 0.47933
 C162 C -0.22865 0.37526 0.49733
 C163 C -0.24839 0.33167 0.49962
 C164 C -0.24837 0.34630 0.51863
 H165 H -0.28546 0.35923 0.46815
 H166 H -0.24903 0.38258 0.52797
 H167 H -0.21551 0.36175 0.46676
 H168 H -0.24917 0.31285 0.50087
 C169 C 0.25060 -0.15422 -0.02160
 C170 C 0.22896 -0.13869 -0.02029
 C171 C 0.22891 -0.12477 -0.00204
 C172 C 0.25070 -0.12768 0.01311
 C173 C 0.27113 -0.13743 -0.02080
 C174 C 0.27135 -0.12348 -0.00273
 C175 C 0.25154 -0.16707 -0.00072
 C176 C 0.25152 -0.15254 0.01836
 H177 H 0.21461 -0.13931 -0.03216
 H178 H 0.25086 -0.11631 0.02788
 H179 H 0.28459 -0.13686 -0.03331
 H180 H 0.25078 -0.18589 0.00043
 C181 C 0.25828 1.15455 0.47409
 C182 C 0.27911 1.13787 0.47583
 C183 C 0.27890 1.12397 0.49445
 C184 C 0.25783 1.12791 0.50951
 C185 C 0.23689 1.13901 0.47557
 C186 C 0.23654 1.12504 0.49391
 C187 C 0.25883 1.16804 0.49583
 C188 C 0.25874 1.15415 0.51438
 H189 H 0.29319 1.13777 0.46398
 H190 H 0.25748 1.11659 0.52459
 H191 H 0.22336 1.13865 0.46281
 H192 H 0.26071 1.18678 0.49649
 C193 C 0.12334 0.52782 0.25565
 C194 C 0.10613 0.52569 0.23623
 C195 C 0.09248 0.50646 0.23731
 C196 C 0.09713 0.49091 0.25791
 C197 C 0.10840 0.52661 0.27654
 C198 C 0.09473 0.50730 0.27778
 C199 C 0.13714 0.50491 0.25586
 C200 C 0.12335 0.48559 0.25708
 H201 H 0.10574 0.53767 0.22211
 H202 H 0.08587 0.47529 0.25885
 H203 H 0.10925 0.53940 0.28962
 H204 H 0.15596 0.50406 0.25512
 C205 C -0.12181 1.01898 0.25073
 C206 C -0.10479 1.01751 0.27042
 C207 C -0.09050 0.99869 0.27009
 C208 C -0.09461 0.98278 0.24997
 C209 C -0.10640 1.01821 0.23011
 C210 C -0.09217 0.99921 0.22968
 C211 C -0.13435 0.99705 0.25093
 C212 C -0.11935 0.97712 0.25044
 H213 H -0.10414 1.03027 0.28356
 H214 H -0.08287 0.96745 0.24976
 H215 H -0.10751 1.03084 0.21657
 H216 H -0.15317 0.99584 0.25005
 C217 C 0.37801 0.52069 -0.24981
 C218 C 0.39462 0.51889 -0.22990
 C219 C 0.40887 0.50009 -0.23017
 C220 C 0.40523 0.48441 -0.25046
 C221 C 0.39365 0.51993 -0.27021
 C222 C 0.40783 0.50093 -0.27059
 C223 C 0.36478 0.49752 -0.24998
 C224 C 0.37908 0.47851 -0.25042
 H225 H 0.39515 0.53155 -0.21666
 H226 H 0.41690 0.46904 -0.25064
 H227 H 0.39266 0.53257 -0.28375
 H228 H 0.34597 0.49631 -0.25078
 C229 C 0.62336 0.02733 -0.24379
 C230 C 0.60611 0.02523 -0.26318
 C231 C 0.59246 0.00599 -0.26211
 C232 C 0.59716 -0.00959 -0.24153
 C233 C 0.60846 0.02608 -0.22287
 C234 C 0.59480 0.00677 -0.22163
 C235 C 0.63716 0.00443 -0.24364
 C236 C 0.62339 -0.01490 -0.24242
 H237 H 0.60570 0.03722 -0.27728
 H238 H 0.58591 -0.02522 -0.24059
 H239 H 0.60933 0.03885 -0.20978
 H240 H 0.65598 0.00359 -0.24443
 C241 C 0.02450 0.24583 0.83859
 C242 C 0.02796 0.26457 0.85618
 C243 C 0.01036 0.26531 0.87103
 C244 C -0.00894 0.24755 0.86697
 C245 C 0.02151 0.22320 0.85189
 C246 C 0.00394 0.22426 0.86678
 C247 C 0.00211 0.25066 0.82825
 C248 C -0.01619 0.25163 0.84405
 H249 H 0.04219 0.27695 0.85610
 H250 H -0.02327 0.24822 0.87919
 H251 H 0.03304 0.20834 0.85064
 H252 H -0.00059 0.25318 0.81047
 C253 C 0.51250 0.25353 0.15736
 C254 C 0.51603 0.23852 0.13689
 C255 C 0.49759 0.23895 0.12258
 C256 C 0.47736 0.25407 0.12995
 C257 C 0.50670 0.27770 0.14817
 C258 C 0.48831 0.27788 0.13376
 C259 C 0.49014 0.24469 0.16793
 C260 C 0.47181 0.24500 0.15335
 H261 H 0.53080 0.22698 0.13492
 H262 H 0.46225 0.25433 0.11825
 H263 H 0.51788 0.29268 0.15056
 H264 H 0.48850 0.24046 0.18548
 C265 C 0.01247 0.75249 0.65701
 C266 C 0.01620 0.73783 0.63635
 C267 C -0.00225 0.73820 0.62204
 C268 C -0.02268 0.75294 0.62962
 C269 C 0.00634 0.77671 0.64812
 C270 C -0.01207 0.77683 0.63373
 C271 C -0.00976 0.74321 0.66748
 C272 C -0.02810 0.74347 0.65290
 H273 H 0.03106 0.72643 0.63428
 H274 H -0.03779 0.75315 0.61792
 H275 H 0.01733 0.79180 0.65067
 H276 H -0.01136 0.73883 0.68500
 C277 C 0.52661 0.74630 0.33933
 C278 C 0.52974 0.76516 0.35678
 C279 C 0.51209 0.76587 0.37154
 C280 C 0.49298 0.74795 0.36764
 C281 C 0.52355 0.72374 0.35263
 C282 C 0.50593 0.72476 0.36743
 C283 C 0.50296 0.75123 0.32837
 C284 C 0.48546 0.75212 0.34340
 H285 H 0.54385 0.77768 0.35667
 H286 H 0.47856 0.74860 0.37973
 H287 H 0.53506 0.70886 0.35141
 H288 H 0.50030 0.75377 0.31061
 Zr289 Zr 0.02094 -0.01352 1.03047
 O290 O 0.04413 -0.00262 1.05584
 O291 O 0.01718 -0.04896 1.03780
 O292 O 0.00575 -0.01620 1.06227
 O293 O 0.06330 -0.01967 0.99052
 O294 O -0.02904 0.00252 1.05779
 O295 O 0.05459 -0.02783 1.02671
 O296 O -0.00936 -0.06110 1.01191
 O297 O -0.01446 -0.01898 1.02387
 O298 O 0.01863 -0.02781 0.99878
 O299 O 0.00513 0.01932 1.03266
 O300 O 0.03728 0.01059 1.00903
 Zr301 Zr -0.01791 0.02376 0.97116
 Zr302 Zr -0.02990 0.01390 1.02449
 Zr303 Zr 0.03318 -0.00351 0.97728
 Zr304 Zr -0.01656 -0.03199 0.99173
 O305 O 0.06259 0.01663 0.96893
 O306 O -0.04871 -0.04444 1.00388
 O307 O -0.00185 -0.00902 0.96862
 O308 O -0.03382 -0.00016 0.99277
 O309 O -0.01576 0.03856 1.00271
 O310 O 0.01747 0.02907 0.97788
 C311 C 0.00434 -0.06439 1.02860
 C312 C 0.06820 -0.02825 1.00986
 C313 C -0.01383 -0.00870 1.06947
 O314 O -0.06074 -0.00482 1.03094
 O315 O -0.05863 0.03289 1.01226
 O316 O -0.05077 0.03967 0.97565
 C317 C -0.06371 0.04123 0.99291
 O318 O 0.04454 0.04624 1.03574
 Zr319 Zr 0.01960 0.04257 1.00969
 O320 O -0.01411 0.05898 0.96349
 O321 O -0.03516 0.04262 1.04537
 O322 O 0.00637 0.06747 1.03186
 O323 O 0.05073 0.05677 0.99687
 O324 O 0.01034 0.07228 0.99066
 C325 C -0.00262 0.07501 0.97327
 O326 O -0.04257 0.01358 0.94678
 O327 O 0.04038 -0.03333 0.95839
 O328 O -0.00407 0.02340 0.93868
 O329 O 0.03038 0.00400 0.94318
 O330 O -0.00378 -0.05846 0.97100
 O331 O -0.03875 -0.03589 0.96354
 C332 C 0.01479 0.01437 0.93127
 H333 H 0.02691 -0.04279 0.99758
 H334 H -0.05039 -0.00242 0.98876
 H335 H 0.02488 0.03960 0.96694
 H336 H 0.00697 0.02565 1.04779
 H337 H -0.04972 -0.06115 1.00031
 H338 H -0.06951 0.00412 1.04201
 H339 H -0.05037 0.04026 1.05258
 H340 H 0.01502 0.08211 1.02935
 H341 H -0.01338 -0.07248 0.97357
 H342 H 0.05557 -0.03068 0.95120
 H343 H 0.07144 0.00762 0.95798
 H344 H 0.05109 0.07342 1.00076
 H345 H -0.04594 -0.05149 0.96396
 H346 H -0.04617 0.02746 0.93743
 H347 H 0.04808 -0.01650 1.06506
 H348 H 0.04847 0.06284 1.03743
 Zr349 Zr 0.52157 0.48645 0.53066
 O350 O 0.54479 0.49718 0.55606
 O351 O 0.51749 0.45105 0.53804
 O352 O 0.50629 0.48396 0.56243
 O353 O 0.56398 0.47994 0.49081
 O354 O 0.47163 0.50290 0.55782
 O355 O 0.55512 0.47187 0.52698
 O356 O 0.49095 0.43906 0.51208
 O357 O 0.48614 0.48123 0.52397
 O358 O 0.51923 0.47213 0.49897
 O359 O 0.50598 0.51940 0.53277
 O360 O 0.53813 0.51042 0.50924
 Zr361 Zr 0.48313 0.52393 0.47121
 Zr362 Zr 0.47094 0.51421 0.52451
 Zr363 Zr 0.53402 0.49631 0.47750
 Zr364 Zr 0.48404 0.46819 0.49184
 O365 O 0.56360 0.51622 0.46922
 O366 O 0.45176 0.45599 0.50390
 O367 O 0.49898 0.49104 0.46874
 O368 O 0.46700 0.50015 0.49280
 O369 O 0.48530 0.53875 0.50275
 O370 O 0.51853 0.52900 0.47802
 C371 C 0.50456 0.43570 0.52883
 C372 C 0.56877 0.47134 0.51016
 C373 C 0.48674 0.49162 0.56956
 O374 O 0.43996 0.49570 0.53091
 O375 O 0.44236 0.53337 0.51219
 O376 O 0.45035 0.54005 0.47559
 C377 C 0.43738 0.54172 0.49282
 O378 O 0.54558 0.54604 0.53592
 Zr379 Zr 0.52067 0.54252 0.50982
 O380 O 0.48717 0.55912 0.46354
 O381 O 0.46581 0.54300 0.54533
 O382 O 0.50757 0.56753 0.53195
 O383 O 0.55192 0.55650 0.49705
 O384 O 0.51163 0.57228 0.49076
 C385 C 0.49873 0.57508 0.47335
 O386 O 0.45850 0.51387 0.44676
 O387 O 0.54103 0.46642 0.45863
 O388 O 0.49709 0.52349 0.43878
 O389 O 0.53138 0.50384 0.44339
 O390 O 0.49671 0.44161 0.47118
 O391 O 0.46191 0.46440 0.46359
 C392 C 0.51592 0.51434 0.43143
 H393 H 0.52741 0.45709 0.49782
 H394 H 0.45043 0.49800 0.48874
 H395 H 0.52604 0.53947 0.46710
 H396 H 0.50782 0.52574 0.54789
 H397 H 0.45064 0.43929 0.50034
 H398 H 0.43122 0.50472 0.54195
 H399 H 0.45056 0.54076 0.55251
 H400 H 0.51633 0.58210 0.52945
 H401 H 0.48701 0.42766 0.47374
 H402 H 0.55625 0.46895 0.45147
 H403 H 0.57242 0.50713 0.45829
 H404 H 0.55238 0.57316 0.50092
 H405 H 0.45463 0.44885 0.46400
 H406 H 0.45500 0.52777 0.43739
 H407 H 0.54861 0.48328 0.56530
 H408 H 0.54963 0.56262 0.53759
 Zr409 Zr 0.47701 0.99617 0.53832
 O410 O 0.45310 0.98189 0.56115
 O411 O 0.48110 1.02995 0.54994
 O412 O 0.49190 0.99417 0.57063
 O413 O 0.43601 1.00984 0.49752
 O414 O 0.52632 0.97524 0.56562
 O415 O 0.44394 1.01225 0.53471
 O416 O 0.50854 1.04527 0.52689
 O417 O 0.51268 1.00159 0.53386
 O418 O 0.48040 1.01504 0.50862
 O419 O 0.49213 0.96291 0.53758
 O420 O 0.46054 0.97603 0.51369
 Zr421 Zr 0.51617 0.96707 0.47691
 Zr422 Zr 0.52744 0.96851 0.53138
 Zr423 Zr 0.46578 0.99460 0.48395
 Zr424 Zr 0.51577 1.01937 0.50367
 O425 O 0.43594 0.97679 0.47246
 O426 O 0.54786 1.02888 0.51860
 O427 O 0.50108 1.00045 0.47746
 O428 O 0.53219 0.98714 0.50167
 O429 O 0.51308 0.94777 0.50649
 O430 O 0.48060 0.96174 0.48163
 C431 C 0.49440 1.04634 0.54319
 C432 C 0.43094 1.01582 0.51737
 C433 C 0.51128 0.98544 0.57773
 O434 O 0.55868 0.98508 0.54107
 O435 O 0.55608 0.95087 0.51807
 O436 O 0.54871 0.95010 0.48071
 C437 C 0.56140 0.94564 0.49806
 O438 O 0.45178 0.93727 0.53597
 Zr439 Zr 0.47750 0.94377 0.51165
 O440 O 0.51187 0.93320 0.46553
 O441 O 0.53147 0.93675 0.54903
 O442 O 0.48941 0.91547 0.53160
 O443 O 0.44648 0.93222 0.49598
 O444 O 0.48667 0.91680 0.49020
 C445 C 0.50000 0.91616 0.47327
 O446 O 0.54129 0.98027 0.45467
 O447 O 0.45995 1.02713 0.46806
 O448 O 0.50277 0.97224 0.44419
 O449 O 0.46883 0.99192 0.44942
 O450 O 0.50413 1.04914 0.48564
 O451 O 0.53875 1.02713 0.47724
 C452 C 0.48425 0.98274 0.43707
 H453 H 0.47257 1.03033 0.50874
 H454 H 0.54887 0.98959 0.49858
 H455 H 0.47317 0.95306 0.46938
 H456 H 0.48986 0.95450 0.55183
 H457 H 0.54924 1.04598 0.51726
 H458 H 0.56696 0.97427 0.55139
 H459 H 0.54659 0.93756 0.55704
 H460 H 0.48038 0.90160 0.52722
 H461 H 0.51383 1.06240 0.49042
 H462 H 0.44483 1.02610 0.46007
 H463 H 0.42752 0.98761 0.46225
 H464 H 0.44564 0.91517 0.49818
 H465 H 0.54627 1.04231 0.47987
 H466 H 0.54479 0.96781 0.44399
 H467 H 0.44923 0.99432 0.57173
 H468 H 0.44734 0.92068 0.53573
 Zr469 Zr -0.02344 0.49556 1.03802
 O470 O -0.04730 0.48132 1.06091
 O471 O -0.01937 0.52938 1.04954
 O472 O -0.00850 0.49370 1.07032
 O473 O -0.06448 0.50909 0.99723
 O474 O 0.02592 0.47477 1.06533
 O475 O -0.05652 0.51162 1.03441
 O476 O 0.00804 0.54464 1.02644
 O477 O 0.01223 0.50099 1.03351
 O478 O -0.02009 0.51435 1.00827
 O479 O -0.00830 0.46231 1.03736
 O480 O -0.03991 0.47534 1.01347
 Zr481 Zr 0.01569 0.46631 0.97666
 Zr482 Zr 0.02700 0.46792 1.03112
 Zr483 Zr -0.03472 0.49383 0.98367
 Zr484 Zr 0.01527 0.51868 1.00327
 O485 O -0.06455 0.47595 0.97225
 O486 O 0.04737 0.52827 1.01815
 O487 O 0.00057 0.49968 0.97713
 O488 O 0.03172 0.48647 1.00135
 O489 O 0.01264 0.44709 1.00629
 O490 O -0.01988 0.46097 0.98143
 C491 C -0.00608 0.54576 1.04274
 C492 C -0.06954 0.51514 1.01706
 C493 C 0.01090 0.48501 1.07742
 O494 O 0.05824 0.48453 1.04074
 O495 O 0.05566 0.45027 1.01784
 O496 O 0.04825 0.44939 0.98048
 C497 C 0.06097 0.44500 0.99783
 O498 O -0.04862 0.43663 1.03586
 Zr499 Zr -0.02293 0.44309 1.01149
 O500 O 0.01139 0.43240 0.96537
 O501 O 0.03107 0.43621 1.04885
 O502 O -0.01098 0.41484 1.03151
 O503 O -0.05396 0.43148 0.99588
 O504 O -0.01378 0.41606 0.99010
 C505 C -0.00047 0.41538 0.97316
 O506 O 0.04078 0.47944 0.95436
 O507 O -0.04060 0.52630 0.96769
 O508 O 0.00228 0.47142 0.94394
 O509 O -0.03168 0.49107 0.94914
 O510 O 0.00360 0.54839 0.98517
 O511 O 0.03822 0.52639 0.97680
 C512 C -0.01625 0.48189 0.93681
 H513 H -0.02793 0.52964 1.00836
 H514 H 0.04839 0.48892 0.99824
 H515 H -0.02731 0.45225 0.96920
 H516 H -0.01054 0.45394 1.05164
 H517 H 0.04873 0.54536 1.01676
 H518 H 0.06654 0.47376 1.05109
 H519 H 0.04619 0.43705 1.05684
 H520 H -0.02001 0.40096 1.02717
 H521 H 0.01329 0.56168 0.98991
 H522 H -0.05573 0.52523 0.95972
 H523 H -0.07299 0.48672 0.96202
 H524 H -0.05479 0.41443 0.99813
 H525 H 0.04573 0.54157 0.97939
 H526 H 0.04428 0.46695 0.94371
 H527 H -0.05117 0.49377 1.07147
 H528 H -0.05305 0.42004 1.03567
 Zr529 Zr -0.02403 0.49330 0.47494
 O530 O -0.04676 0.50129 0.44797
 O531 O -0.01803 0.45783 0.47052
 O532 O -0.00742 0.49006 0.44382
 O533 O -0.06763 0.48745 0.51401
 O534 O 0.02620 0.51062 0.44819
 O535 O -0.05719 0.47771 0.47884
 O536 O 0.00784 0.44816 0.49826
 O537 O 0.01133 0.48995 0.48318
 O538 O -0.02231 0.48088 0.50773
 O539 O -0.00981 0.52668 0.47077
 O540 O -0.04246 0.51762 0.49391
 Zr541 Zr 0.01033 0.53569 0.53260
 Zr542 Zr 0.02509 0.52348 0.48064
 Zr543 Zr -0.03889 0.50558 0.52683
 Zr544 Zr 0.01272 0.47877 0.51631
 O545 O -0.06965 0.52461 0.53257
 O546 O 0.04595 0.46735 0.50622
 O547 O -0.00401 0.50228 0.53709
 O548 O 0.02831 0.51138 0.51350
 O549 O 0.00875 0.54852 0.49988
 O550 O -0.02495 0.53883 0.52419
 C551 C -0.00491 0.44345 0.48128
 C552 C -0.07139 0.47764 0.49528
 C553 C 0.01203 0.49826 0.43674
 O554 O 0.05703 0.50589 0.47670
 O555 O 0.05239 0.54438 0.49241
 O556 O 0.04269 0.55276 0.52810
 C557 C 0.05630 0.55394 0.51124
 O558 O -0.05061 0.55097 0.46426
 Zr559 Zr -0.02648 0.55031 0.49129
 O560 O 0.00435 0.57114 0.53692
 O561 O 0.02984 0.55139 0.45796
 O562 O -0.01382 0.57449 0.46750
 O563 O -0.05876 0.56365 0.50197
 O564 O -0.01951 0.58154 0.50782
 C565 C -0.00741 0.58596 0.52530
 O566 O 0.03433 0.52840 0.55874
 O567 O -0.04517 0.47646 0.54771
 O568 O -0.00503 0.53641 0.56454
 O569 O -0.03816 0.51503 0.56031
 O570 O 0.00032 0.45302 0.53868
 O571 O 0.03403 0.47739 0.54540
 C572 C -0.02373 0.52684 0.57196
 H573 H -0.02989 0.46561 0.50979
 H574 H 0.04479 0.51015 0.51827
 H575 H -0.03335 0.54957 0.53397
 H576 H -0.01134 0.53212 0.45515
 H577 H 0.04768 0.45093 0.51107
 H578 H 0.06585 0.51467 0.46534
 H579 H 0.04544 0.54942 0.45146
 H580 H -0.02348 0.58868 0.46836
 H581 H 0.01062 0.43930 0.53754
 H582 H -0.06077 0.47862 0.55415
 H583 H -0.07849 0.51578 0.54389
 H584 H -0.05993 0.57994 0.49657
 H585 H 0.04185 0.46210 0.54647
 H586 H 0.03668 0.54300 0.56703
 H587 H -0.04954 0.48667 0.43985
 H588 H -0.05543 0.56718 0.46107
 Zr589 Zr 0.47643 -0.00615 -0.02425
 O590 O 0.45376 0.00163 -0.05132
 O591 O 0.48247 -0.04165 -0.02841
 O592 O 0.49311 -0.00959 -0.05531
 O593 O 0.43275 -0.01173 0.01476
 O594 O 0.52669 0.01105 -0.05104
 O595 O 0.44327 -0.02170 -0.02032
 O596 O 0.50830 -0.05109 -0.00057
 O597 O 0.51179 -0.00941 -0.01593
 O598 O 0.47810 -0.01833 0.00862
 O599 O 0.49063 0.02723 -0.02860
 O600 O 0.45795 0.01830 -0.00548
 Zr601 Zr 0.51065 0.03669 0.03319
 Zr602 Zr 0.52551 0.02412 -0.01866
 Zr603 Zr 0.46146 0.00649 0.02752
 Zr604 Zr 0.51312 -0.02035 0.01727
 O605 O 0.43068 0.02553 0.03311
 O606 O 0.54638 -0.03182 0.00732
 O607 O 0.49632 0.00330 0.03787
 O608 O 0.52869 0.01226 0.01427
 O609 O 0.50912 0.04930 0.00039
 O610 O 0.47538 0.03973 0.02470
 C611 C 0.49558 -0.05594 -0.01752
 C612 C 0.42902 -0.02166 -0.00392
 C613 C 0.51255 -0.00141 -0.06242
 O614 O 0.55747 0.00651 -0.02244
 O615 O 0.55279 0.04512 -0.00698
 O616 O 0.54300 0.05375 0.02863
 C617 C 0.55666 0.05482 0.01178
 O618 O 0.44986 0.05147 -0.03536
 Zr619 Zr 0.47391 0.05099 -0.00827
 O620 O 0.50459 0.07215 0.03730
 O621 O 0.53029 0.05188 -0.04151
 O622 O 0.48662 0.07504 -0.03215
 O623 O 0.44156 0.06434 0.00224
 O624 O 0.48075 0.08234 0.00812
 C625 C 0.49280 0.08688 0.02560
 O626 O 0.53462 0.02962 0.05941
 O627 O 0.45517 -0.02251 0.04856
 O628 O 0.49525 0.03756 0.06511
 O629 O 0.46213 0.01615 0.06094
 O630 O 0.50070 -0.04595 0.03979
 O631 O 0.53437 -0.02148 0.04640
 C632 C 0.47655 0.02801 0.07255
 H633 H 0.47053 -0.03360 0.01076
 H634 H 0.54516 0.01108 0.01908
 H635 H 0.46694 0.05052 0.03440
 H636 H 0.48912 0.03256 -0.04426
 H637 H 0.54812 -0.04819 0.01230
 H638 H 0.56631 0.01522 -0.03384
 H639 H 0.54591 0.04988 -0.04796
 H640 H 0.47695 0.08923 -0.03140
 H641 H 0.51103 -0.05966 0.03877
 H642 H 0.43955 -0.02032 0.05496
 H643 H 0.42182 0.01677 0.04446
 H644 H 0.44038 0.08059 -0.00325
 H645 H 0.54220 -0.03676 0.04760
 H646 H 0.53693 0.04428 0.06761
 H647 H 0.45101 -0.01306 -0.05935
 H648 H 0.44504 0.06766 -0.03867
 Zr649 Zr 0.53169 0.50904 -0.03359
 O650 O 0.55550 0.49455 -0.05607
 O651 O 0.52916 0.54340 -0.04528
 O652 O 0.51761 0.50807 -0.06631
 O653 O 0.57269 0.51855 0.00812
 O654 O 0.48195 0.49144 -0.06163
 O655 O 0.56559 0.52289 -0.02914
 O656 O 0.50229 0.55929 -0.02235
 O657 O 0.49631 0.51643 -0.02953
 O658 O 0.52889 0.52697 -0.00375
 O659 O 0.51471 0.47668 -0.03321
 O660 O 0.54646 0.48696 -0.00887
 Zr661 Zr 0.48981 0.48010 0.02708
 Zr662 Zr 0.47969 0.48421 -0.02749
 Zr663 Zr 0.54184 0.50469 0.02097
 Zr664 Zr 0.49375 0.53319 0.00084
 O665 O 0.57059 0.48480 0.03250
 O666 O 0.46226 0.54521 -0.01395
 O667 O 0.50687 0.51249 0.02713
 O668 O 0.47539 0.50198 0.00229
 O669 O 0.49235 0.46177 -0.00261
 O670 O 0.52508 0.47271 0.02276
 C671 C 0.51638 0.56016 -0.03870
 C672 C 0.57850 0.52488 -0.01157
 C673 C 0.49793 0.50045 -0.07365
 O674 O 0.44978 0.50322 -0.03747
 O675 O 0.45007 0.46749 -0.01493
 O676 O 0.45652 0.46488 0.02255
 C677 C 0.44414 0.46152 0.00484
 O678 O 0.55367 0.44853 -0.03101
 Zr679 Zr 0.52767 0.45569 -0.00729
 O680 O 0.49144 0.44564 0.03798
 O681 O 0.47393 0.45341 -0.04546
 O682 O 0.51470 0.42903 -0.02796
 O683 O 0.55742 0.44149 0.00903
 O684 O 0.51588 0.42848 0.01347
 C685 C 0.50207 0.42811 0.03008
 O686 O 0.46532 0.49431 0.04906
 O687 O 0.54893 0.53621 0.03737
 O688 O 0.50338 0.48235 0.05999
 O689 O 0.53844 0.50025 0.05540
 O690 O 0.50706 0.56166 0.01895
 O691 O 0.47112 0.54135 0.02726
 C692 C 0.52257 0.49108 0.06743
 H693 H 0.53756 0.54179 -0.00372
 H694 H 0.45881 0.50523 0.00515
 H695 H 0.53176 0.46299 0.03494
 H696 H 0.51678 0.46855 -0.04743
 H697 H 0.46184 0.56230 -0.01241
 H698 H 0.44096 0.49333 -0.04794
 H699 H 0.45902 0.45545 -0.05369
 H700 H 0.52273 0.41444 -0.02352
 H701 H 0.49815 0.57563 0.01419
 H702 H 0.56383 0.53405 0.04557
 H703 H 0.57942 0.49466 0.04299
 H704 H 0.55711 0.42449 0.00679
 H705 H 0.46475 0.55717 0.02490
 H706 H 0.46079 0.48171 0.05951
 H707 H 0.56015 0.50717 -0.06646
 H708 H 0.55718 0.43170 -0.03078
 Zr709 Zr 0.03254 1.00766 0.46659
 O710 O 0.05626 0.99275 0.44428
 O711 O 0.03043 1.04196 0.45469
 O712 O 0.01850 1.00662 0.43385
 O713 O 0.07352 1.01717 0.50832
 O714 O -0.01732 0.99034 0.43856
 O715 O 0.06654 1.02129 0.47101
 O716 O 0.00369 1.05830 0.47748
 O717 O -0.00278 1.01541 0.47052
 O718 O 0.02984 1.02582 0.49631
 O719 O 0.01527 0.97546 0.46714
 O720 O 0.04706 0.98563 0.49148
 Zr721 Zr -0.00973 0.97956 0.52735
 Zr722 Zr -0.01969 0.98336 0.47274
 Zr723 Zr 0.04253 1.00362 0.52120
 Zr724 Zr -0.00525 1.03242 0.50077
 O725 O 0.07109 0.98354 0.53287
 O726 O -0.03655 1.04461 0.48573
 O727 O 0.00762 1.01179 0.52721
 O728 O -0.02390 1.00138 0.50239
 O729 O -0.00729 0.96099 0.49779
 O730 O 0.02548 0.97180 0.52316
 C731 C 0.01785 1.05892 0.46118
 C732 C 0.07941 1.02334 0.48861
 C733 C -0.00124 0.99913 0.42652
 O734 O -0.04944 1.00255 0.46259
 O735 O -0.04947 0.96697 0.48534
 O736 O -0.04314 0.96458 0.52285
 C737 C -0.05549 0.96118 0.50514
 O738 O 0.05397 0.94696 0.46962
 Zr739 Zr 0.02798 0.95454 0.49322
 O740 O -0.00845 0.94517 0.53849
 O741 O -0.02568 0.95249 0.45494
 O742 O 0.01482 0.92785 0.47270
 O743 O 0.05755 0.94018 0.50971
 O744 O 0.01586 0.92760 0.51412
 C745 C 0.00202 0.92747 0.53070
 O746 O -0.03414 0.99417 0.54916
 O747 O 0.04988 1.03516 0.53744
 O748 O 0.00378 0.98193 0.56028
 O749 O 0.03903 0.99944 0.55564
 O750 O 0.00823 1.06088 0.51877
 O751 O -0.02793 1.04100 0.52702
 C752 C 0.02304 0.99053 0.56770
 H753 H 0.03863 1.04056 0.49628
 H754 H -0.04046 1.00481 0.50519
 H755 H 0.03204 0.96211 0.53541
 H756 H 0.01729 0.96721 0.45298
 H757 H -0.03681 1.06172 0.48713
 H758 H -0.05831 0.99266 0.45217
 H759 H -0.04056 0.95460 0.44668
 H760 H 0.02270 0.91322 0.47726
 H761 H -0.00052 1.07490 0.51389
 H762 H 0.06475 1.03293 0.54567
 H763 H 0.07999 0.99338 0.54332
 H764 H 0.05708 0.92317 0.50759
 H765 H -0.03418 1.05685 0.52449
 H766 H -0.03882 0.98170 0.55969
 H767 H 0.06106 1.00525 0.43381
 H768 H 0.05732 0.93010 0.46998
 Zr769 Zr 0.73665 0.27052 0.22007
 O770 O 0.74779 0.29367 0.19476
 O771 O 0.70118 0.26691 0.21257
 O772 O 0.73405 0.25540 0.18825
 O773 O 0.73047 0.31277 0.26004
 O774 O 0.75261 0.22056 0.19279
 O775 O 0.72245 0.30419 0.22380
 O776 O 0.68877 0.24039 0.23837
 O777 O 0.73099 0.23517 0.22662
 O778 O 0.72214 0.26820 0.25169
 O779 O 0.76948 0.25459 0.21800
 O780 O 0.76073 0.28669 0.24162
 Zr781 Zr 0.77349 0.23145 0.27950
 Zr782 Zr 0.76385 0.21962 0.22612
 Zr783 Zr 0.74642 0.28259 0.27331
 Zr784 Zr 0.71777 0.23307 0.25869
 O785 O 0.76665 0.31186 0.28178
 O786 O 0.70525 0.20103 0.24649
 O787 O 0.74072 0.24762 0.28192
 O788 O 0.74959 0.21571 0.25778
 O789 O 0.78849 0.23360 0.24801
 O790 O 0.77899 0.26677 0.27283
 C791 C 0.68563 0.25411 0.22167
 C792 C 0.72201 0.31774 0.24067
 C793 C 0.74150 0.23581 0.18108
 O794 O 0.74503 0.18890 0.21960
 O795 O 0.78273 0.19084 0.23840
 O796 O 0.78934 0.19860 0.27504
 C797 C 0.79097 0.18571 0.25777
 O798 O 0.79660 0.29384 0.21506
 Zr799 Zr 0.79269 0.26890 0.24108
 O800 O 0.80874 0.23510 0.28733
 O801 O 0.79269 0.21430 0.20533
 O802 O 0.81770 0.25563 0.21900
 O803 O 0.80697 0.29990 0.25398
 O804 O 0.82230 0.25949 0.26022
 C805 C 0.82489 0.24651 0.27762
 O806 O 0.76304 0.20682 0.30380
 O807 O 0.71648 0.28985 0.29208
 O808 O 0.77303 0.24522 0.31199
 O809 O 0.75376 0.27971 0.30743
 O810 O 0.69120 0.24593 0.27931
 O811 O 0.71361 0.21089 0.28686
 C812 C 0.76403 0.26408 0.31937
 H813 H 0.70717 0.27653 0.25283
 H814 H 0.74725 0.19916 0.26177
 H815 H 0.78950 0.27411 0.28381
 H816 H 0.77590 0.25642 0.20290
 H817 H 0.68850 0.20008 0.25000
 H818 H 0.75401 0.18012 0.20856
 H819 H 0.79031 0.19913 0.19810
 H820 H 0.83237 0.26421 0.22158
 H821 H 0.67713 0.23640 0.27666
 H822 H 0.71914 0.30498 0.29930
 H823 H 0.75759 0.32072 0.29271
 H824 H 0.82367 0.30021 0.25016
 H825 H 0.69796 0.20380 0.28638
 H826 H 0.77688 0.20314 0.31322
 H827 H 0.73395 0.29769 0.18549
 H828 H 0.81325 0.29770 0.21345
 Zr829 Zr 0.74597 0.72668 0.71170
 O830 O 0.73156 0.70285 0.68892
 O831 O 0.77981 0.73062 0.70004
 O832 O 0.74403 0.74155 0.67938
 O833 O 0.75954 0.68572 0.75254
 O834 O 0.72518 0.77599 0.68437
 O835 O 0.76196 0.69360 0.71533
 O836 O 0.79525 0.75799 0.72302
 O837 O 0.75151 0.76229 0.71610
 O838 O 0.76490 0.73002 0.74137
 O839 O 0.71271 0.74189 0.71247
 O840 O 0.72576 0.71032 0.73638
 Zr841 Zr 0.71699 0.76592 0.77309
 Zr842 Zr 0.71844 0.77714 0.71861
 Zr843 Zr 0.74440 0.71551 0.76609
 Zr844 Zr 0.76934 0.76533 0.74626
 O845 O 0.72647 0.68578 0.77767
 O846 O 0.77896 0.79734 0.73124
 O847 O 0.75037 0.75074 0.77252
 O848 O 0.73713 0.78184 0.74828
 O849 O 0.69763 0.76288 0.74355
 O850 O 0.71154 0.73041 0.76843
 C851 C 0.79627 0.74386 0.70674
 C852 C 0.76550 0.68061 0.73269
 C853 C 0.73536 0.76094 0.67227
 O854 O 0.73511 0.80828 0.70886
 O855 O 0.70086 0.80581 0.73189
 O856 O 0.70008 0.79846 0.76926
 C857 C 0.69565 0.81114 0.75190
 O858 O 0.68690 0.70169 0.71416
 Zr859 Zr 0.69352 0.72735 0.73845
 O860 O 0.68307 0.76172 0.78454
 O861 O 0.68664 0.78125 0.70098
 O862 O 0.66520 0.73934 0.71853
 O863 O 0.68188 0.69641 0.75417
 O864 O 0.66655 0.73659 0.75994
 C865 C 0.66596 0.74990 0.77685
 O866 O 0.73028 0.79100 0.79526
 O867 O 0.77696 0.70958 0.78194
 O868 O 0.72218 0.75257 0.80582
 O869 O 0.74177 0.71861 0.80063
 O870 O 0.79911 0.75364 0.76428
 O871 O 0.77721 0.78830 0.77263
 C872 C 0.73264 0.73406 0.81295
 H873 H 0.78018 0.72215 0.74124
 H874 H 0.73963 0.79849 0.75134
 H875 H 0.70284 0.72303 0.78071
 H876 H 0.70428 0.73965 0.69822
 H877 H 0.79609 0.79865 0.73255
 H878 H 0.72432 0.81658 0.69853
 H879 H 0.68750 0.79634 0.69294
 H880 H 0.65129 0.73037 0.72295
 H881 H 0.81243 0.76327 0.75946
 H882 H 0.77588 0.69448 0.78995
 H883 H 0.73727 0.67735 0.78787
 H884 H 0.66481 0.69562 0.75200
 H885 H 0.79243 0.79576 0.76994
 H886 H 0.71782 0.79454 0.80596
 H887 H 0.74398 0.69894 0.67832
 H888 H 0.67027 0.69731 0.71443
 Zr889 Zr 0.24326 0.22623 0.77477
 O890 O 0.25108 0.20357 0.80183
 O891 O 0.20769 0.23218 0.77895
 O892 O 0.23980 0.24284 0.80584
 O893 O 0.23778 0.18263 0.73577
 O894 O 0.26039 0.27643 0.80153
 O895 O 0.22775 0.19309 0.77085
 O896 O 0.19818 0.25794 0.75109
 O897 O 0.23991 0.26154 0.76644
 O898 O 0.23107 0.22789 0.74190
 O899 O 0.27665 0.24048 0.77908
 O900 O 0.26779 0.20785 0.75598
 Zr901 Zr 0.28608 0.26055 0.71728
 Zr902 Zr 0.27345 0.27532 0.76914
 Zr903 Zr 0.25596 0.21135 0.72299
 Zr904 Zr 0.22896 0.26287 0.73324
 O905 O 0.27512 0.18066 0.71739
 O906 O 0.21738 0.29604 0.74320
 O907 O 0.25268 0.24616 0.71263
 O908 O 0.26157 0.27849 0.73621
 O909 O 0.29870 0.25902 0.75007
 O910 O 0.28922 0.22532 0.72577
 C911 C 0.19335 0.24522 0.76805
 C912 C 0.22783 0.17888 0.75445
 C913 C 0.24796 0.26226 0.81294
 O914 O 0.25572 0.30718 0.77294
 O915 O 0.29439 0.30262 0.75743
 O916 O 0.30306 0.29290 0.72181
 C917 C 0.30409 0.30653 0.73865
 O918 O 0.30101 0.19981 0.78583
 Zr919 Zr 0.30049 0.22386 0.75874
 O920 O 0.32160 0.25460 0.71316
 O921 O 0.30125 0.28015 0.79194
 O922 O 0.32452 0.23658 0.78261
 O923 O 0.31394 0.19160 0.74821
 O924 O 0.33186 0.23080 0.74234
 C925 C 0.33638 0.24287 0.72486
 O926 O 0.27896 0.28449 0.69106
 O927 O 0.22696 0.20500 0.70197
 O928 O 0.28700 0.24521 0.68537
 O929 O 0.26564 0.21208 0.68956
 O930 O 0.20337 0.25042 0.71074
 O931 O 0.22778 0.28412 0.70411
 C932 C 0.27748 0.22651 0.67793
 H933 H 0.21580 0.22030 0.73977
 H934 H 0.26034 0.29494 0.73140
 H935 H 0.30005 0.21694 0.71606
 H936 H 0.28199 0.23898 0.79473
 H937 H 0.20098 0.29774 0.73823
 H938 H 0.26443 0.31602 0.78432
 H939 H 0.29919 0.29573 0.79840
 H940 H 0.33876 0.22695 0.78185
 H941 H 0.18962 0.26069 0.71175
 H942 H 0.22919 0.18941 0.69557
 H943 H 0.26637 0.17180 0.70605
 H944 H 0.33022 0.19046 0.75369
 H945 H 0.21247 0.29190 0.70293
 H946 H 0.29363 0.28684 0.68285
 H947 H 0.23638 0.20079 0.80987
 H948 H 0.31723 0.19503 0.78912
 Zr949 Zr 0.25788 0.78207 0.28322
 O950 O 0.24314 0.80572 0.30567
 O951 O 0.29225 0.77970 0.29502
 O952 O 0.25685 0.76791 0.31592
 O953 O 0.26746 0.82316 0.24160
 O954 O 0.24036 0.73224 0.31116
 O955 O 0.27164 0.81599 0.27887
 O956 O 0.30839 0.75300 0.27210
 O957 O 0.26546 0.74679 0.27914
 O958 O 0.27598 0.77943 0.25343
 O959 O 0.22556 0.76497 0.28272
 O960 O 0.23582 0.79678 0.25845
 Zr961 Zr 0.22939 0.74026 0.22240
 Zr962 Zr 0.23329 0.73005 0.27698
 Zr963 Zr 0.25374 0.79232 0.22866
 Zr964 Zr 0.28240 0.74438 0.24882
 O965 O 0.23374 0.82098 0.21713
 O966 O 0.29452 0.71296 0.26363
 O967 O 0.26174 0.75745 0.22249
 O968 O 0.25124 0.72590 0.24726
 O969 O 0.21088 0.74265 0.25204
 O970 O 0.22180 0.77544 0.22674
 C971 C 0.30912 0.76704 0.28846
 C972 C 0.27369 0.82893 0.26131
 C973 C 0.24928 0.74820 0.32321
 O974 O 0.25242 0.70024 0.28698
 O975 O 0.21674 0.70042 0.26433
 O976 O 0.21428 0.70693 0.22685
 C977 C 0.21089 0.69452 0.24453
 O978 O 0.19718 0.80374 0.28047
 Zr979 Zr 0.20460 0.77787 0.25674
 O980 O 0.19494 0.74177 0.21138
 O981 O 0.20239 0.72411 0.29485
 O982 O 0.17786 0.76472 0.27729
 O983 O 0.19033 0.80757 0.24043
 O984 O 0.17751 0.76605 0.23585
 C985 C 0.17729 0.75230 0.21922
 O986 O 0.24384 0.71593 0.20045
 O987 O 0.28533 0.79958 0.21235
 O988 O 0.23174 0.75392 0.18951
 O989 O 0.24945 0.78901 0.19421
 O990 O 0.31093 0.75783 0.23082
 O991 O 0.29079 0.72188 0.22241
 C992 C 0.24041 0.77315 0.18212
 H993 H 0.29078 0.78815 0.25346
 H994 H 0.25459 0.70937 0.24439
 H995 H 0.21210 0.78210 0.21454
 H996 H 0.21734 0.76696 0.29691
 H997 H 0.31164 0.71263 0.26213
 H998 H 0.24250 0.69136 0.29741
 H999 H 0.20446 0.70921 0.30305
 H1000 H 0.16323 0.77268 0.27280
 H1001 H 0.32494 0.74898 0.23562
 H1002 H 0.28315 0.81448 0.20417
 H1003 H 0.24362 0.82988 0.20668
 H1004 H 0.17329 0.80718 0.24260
 H1005 H 0.30665 0.71557 0.22482
 H1006 H 0.23128 0.71137 0.18995
 H1007 H 0.25570 0.81040 0.31612
 H1008 H 0.18031 0.80713 0.28020
 Zr1009 Zr 0.23653 0.77207 0.71942
 O1010 O 0.24748 0.79531 0.69410
 O1011 O 0.20111 0.76812 0.71190
 O1012 O 0.23413 0.75690 0.68761
 O1013 O 0.22995 0.81432 0.75933
 O1014 O 0.25299 0.72223 0.69221
 O1015 O 0.22202 0.80561 0.72311
 O1016 O 0.18892 0.74155 0.73776
 O1017 O 0.23117 0.73669 0.72602
 O1018 O 0.22204 0.76968 0.75105
 O1019 O 0.26950 0.75642 0.71739
 O1020 O 0.26048 0.78847 0.74096
 Zr1021 Zr 0.27368 0.73340 0.77892
 Zr1022 Zr 0.26416 0.72142 0.72557
 Zr1023 Zr 0.24619 0.78431 0.77265
 Zr1024 Zr 0.21796 0.73453 0.75810
 O1025 O 0.26617 0.81377 0.78106
 O1026 O 0.20571 0.70236 0.74596
 O1027 O 0.24077 0.74930 0.78132
 O1028 O 0.24992 0.71743 0.75722
 O1029 O 0.28868 0.73562 0.74744
 O1030 O 0.27889 0.76875 0.77221
 C1031 C 0.18567 0.75520 0.72102
 C1032 C 0.22144 0.81918 0.73996
 C1033 C 0.24177 0.73737 0.68047
 O1034 O 0.24557 0.69055 0.71904
 O1035 O 0.28320 0.69277 0.73789
 O1036 O 0.28973 0.70062 0.77454
 C1037 C 0.29144 0.68771 0.75729
 O1038 O 0.29630 0.79589 0.71441
 Zr1039 Zr 0.29258 0.77095 0.74045
 O1040 O 0.30890 0.73731 0.78673
 O1041 O 0.29309 0.71628 0.70484
 O1042 O 0.31770 0.75786 0.71839
 O1043 O 0.30660 0.80208 0.75332
 O1044 O 0.32226 0.76180 0.75961
 C1045 C 0.32496 0.74885 0.77701
 O1046 O 0.26342 0.70875 0.80329
 O1047 O 0.21619 0.79134 0.79142
 O1048 O 0.27312 0.74723 0.81138
 O1049 O 0.25356 0.78155 0.80678
 O1050 O 0.19128 0.74721 0.77869
 O1051 O 0.21397 0.71236 0.78630
 C1052 C 0.26398 0.76603 0.81874
 H1053 H 0.20699 0.77788 0.75217
 H1054 H 0.24769 0.70087 0.76124
 H1055 H 0.28934 0.77619 0.78317
 H1056 H 0.27592 0.75828 0.70229
 H1057 H 0.18896 0.70128 0.74946
 H1058 H 0.25464 0.68183 0.70802
 H1059 H 0.29084 0.70108 0.69762
 H1060 H 0.33231 0.76656 0.72097
 H1061 H 0.17728 0.73757 0.77605
 H1062 H 0.21873 0.80651 0.79861
 H1063 H 0.25704 0.82256 0.79197
 H1064 H 0.32329 0.80252 0.74951
 H1065 H 0.19836 0.70516 0.78584
 H1066 H 0.27729 0.70519 0.81270
 H1067 H 0.23362 0.79918 0.68481
 H1068 H 0.31293 0.79988 0.71280
 Zr1069 Zr 0.24589 0.22710 0.21199
 O1070 O 0.23179 0.20326 0.18905
 O1071 O 0.27981 0.23123 0.20058
 O1072 O 0.24412 0.24202 0.17968
 O1073 O 0.25920 0.18606 0.25284
 O1074 O 0.22513 0.27639 0.18460
 O1075 O 0.26195 0.19406 0.21568
 O1076 O 0.29496 0.25859 0.22374
 O1077 O 0.25129 0.26271 0.21652
 O1078 O 0.26455 0.23042 0.24181
 O1079 O 0.21258 0.24221 0.21253
 O1080 O 0.22551 0.21062 0.23647
 Zr1081 Zr 0.21624 0.26611 0.27324
 Zr1082 Zr 0.21815 0.27746 0.21879
 Zr1083 Zr 0.24386 0.21579 0.26634
 Zr1084 Zr 0.26884 0.26573 0.24683
 O1085 O 0.22590 0.18600 0.27772
 O1086 O 0.27851 0.29783 0.23203
 O1087 O 0.24967 0.25102 0.27289
 O1088 O 0.23656 0.28214 0.24863
 O1089 O 0.19716 0.26308 0.24353
 O1090 O 0.21094 0.23060 0.26846
 C1091 C 0.29616 0.24453 0.20743
 C1092 C 0.26536 0.18103 0.23304
 C1093 C 0.23542 0.26139 0.17254
 O1094 O 0.23484 0.30865 0.20920
 O1095 O 0.20043 0.30608 0.23199
 O1096 O 0.19934 0.29866 0.26934
 C1097 C 0.19506 0.31137 0.25197
 O1098 O 0.18691 0.20188 0.21397
 Zr1099 Zr 0.19320 0.22756 0.23832
 O1100 O 0.18219 0.26184 0.28436
 O1101 O 0.18646 0.28153 0.20097
 O1102 O 0.16503 0.23944 0.21815
 O1103 O 0.18148 0.19660 0.25395
 O1104 O 0.16598 0.23675 0.25953
 C1105 C 0.16518 0.25004 0.27645
 O1106 O 0.22924 0.29115 0.29560
 O1107 O 0.27631 0.20989 0.28242
 O1108 O 0.22122 0.25270 0.30598
 O1109 O 0.24096 0.21881 0.30085
 O1110 O 0.29850 0.25403 0.26503
 O1111 O 0.27641 0.28860 0.27334
 C1112 C 0.23171 0.23421 0.31315
 H1113 H 0.27986 0.22259 0.24177
 H1114 H 0.23900 0.29878 0.25174
 H1115 H 0.20214 0.22317 0.28066
 H1116 H 0.20427 0.23997 0.19822
 H1117 H 0.29562 0.29919 0.23349
 H1118 H 0.22410 0.31695 0.19882
 H1119 H 0.18734 0.29664 0.19297
 H1120 H 0.15111 0.23040 0.22242
 H1121 H 0.31183 0.26371 0.26034
 H1122 H 0.27520 0.19477 0.29039
 H1123 H 0.23664 0.17757 0.28798
 H1124 H 0.16443 0.19576 0.25162
 H1125 H 0.29165 0.29608 0.27083
 H1126 H 0.21667 0.29463 0.30619
 H1127 H 0.24432 0.19942 0.17855
 H1128 H 0.17031 0.19741 0.21412
 Zr1129 Zr 0.74518 0.72622 0.27476
 O1130 O 0.75313 0.70356 0.30179
 O1131 O 0.70962 0.73213 0.27905
 O1132 O 0.74173 0.74282 0.30583
 O1133 O 0.73961 0.68265 0.23574
 O1134 O 0.76228 0.77643 0.30150
 O1135 O 0.72968 0.69307 0.27086
 O1136 O 0.70002 0.75795 0.25127
 O1137 O 0.74178 0.76153 0.26646
 O1138 O 0.73287 0.72790 0.24193
 O1139 O 0.77856 0.74050 0.27900
 O1140 O 0.76966 0.70787 0.25589
 Zr1141 Zr 0.78779 0.76064 0.21718
 Zr1142 Zr 0.77531 0.77534 0.26910
 Zr1143 Zr 0.75773 0.71140 0.22294
 Zr1144 Zr 0.73072 0.76289 0.23331
 O1145 O 0.77689 0.68074 0.21725
 O1146 O 0.71916 0.79605 0.24330
 O1147 O 0.75439 0.74622 0.21262
 O1148 O 0.76333 0.77853 0.23620
 O1149 O 0.80051 0.75908 0.24994
 O1150 O 0.79098 0.72540 0.22564
 C1151 C 0.69525 0.74520 0.26824
 C1152 C 0.72972 0.67887 0.25445
 C1153 C 0.74986 0.76226 0.31292
 O1154 O 0.75760 0.80720 0.27295
 O1155 O 0.79621 0.80266 0.25736
 O1156 O 0.80478 0.79299 0.22171
 C1157 C 0.80586 0.80659 0.23856
 O1158 O 0.80299 0.69985 0.28565
 Zr1159 Zr 0.80235 0.72391 0.25857
 O1160 O 0.82330 0.75470 0.21294
 O1161 O 0.80315 0.78015 0.29186
 O1162 O 0.82646 0.73665 0.28237
 O1163 O 0.81579 0.69167 0.24799
 O1164 O 0.83367 0.73088 0.24207
 C1165 C 0.83812 0.74296 0.22458
 O1166 O 0.78058 0.78461 0.19101
 O1167 O 0.72865 0.70505 0.20200
 O1168 O 0.78858 0.74533 0.18524
 O1169 O 0.76728 0.71217 0.18947
 O1170 O 0.70505 0.75044 0.21089
 O1171 O 0.72944 0.78414 0.20418
 C1172 C 0.77906 0.72664 0.17782
 H1173 H 0.71761 0.72030 0.23984
 H1174 H 0.76207 0.79499 0.23141
 H1175 H 0.80178 0.71703 0.21588
 H1176 H 0.78394 0.73899 0.29464
 H1177 H 0.70274 0.79774 0.23839
 H1178 H 0.76632 0.81603 0.28433
 H1179 H 0.80110 0.79573 0.29833
 H1180 H 0.84070 0.72704 0.28156
 H1181 H 0.69129 0.76071 0.21196
 H1182 H 0.73088 0.68947 0.19558
 H1183 H 0.76811 0.67189 0.20592
 H1184 H 0.83208 0.69053 0.25342
 H1185 H 0.71411 0.79192 0.20304
 H1186 H 0.79523 0.78697 0.18276
 H1187 H 0.73846 0.70075 0.30987
 H1188 H 0.81923 0.69509 0.28889
 Zr1189 Zr 0.75763 0.28173 0.78373
 O1190 O 0.74288 0.30544 0.80613
 O1191 O 0.79198 0.27935 0.79558
 O1192 O 0.75653 0.26762 0.81645
 O1193 O 0.76726 0.32273 0.74204
 O1194 O 0.74004 0.23195 0.81172
 O1195 O 0.77141 0.31564 0.77933
 O1196 O 0.80814 0.25261 0.77272
 O1197 O 0.76520 0.24643 0.77972
 O1198 O 0.77576 0.27903 0.75397
 O1199 O 0.72530 0.26464 0.78322
 O1200 O 0.73561 0.29640 0.75891
 Zr1201 Zr 0.72919 0.23982 0.72295
 Zr1202 Zr 0.73302 0.22970 0.77755
 Zr1203 Zr 0.75356 0.29188 0.72915
 Zr1204 Zr 0.78217 0.24396 0.74942
 O1205 O 0.73359 0.32053 0.71754
 O1206 O 0.79425 0.21256 0.76430
 O1207 O 0.76155 0.25699 0.72304
 O1208 O 0.75100 0.22550 0.74785
 O1209 O 0.71065 0.24227 0.75256
 O1210 O 0.72161 0.27501 0.72722
 C1211 C 0.80885 0.26667 0.78906
 C1212 C 0.77347 0.32854 0.76175
 C1213 C 0.74893 0.24794 0.82377
 O1214 O 0.75213 0.19991 0.78763
 O1215 O 0.71650 0.20005 0.76492
 O1216 O 0.71408 0.20650 0.72743
 C1217 C 0.71068 0.19412 0.74513
 O1218 O 0.69693 0.30341 0.78088
 Zr1219 Zr 0.70438 0.27751 0.75720
 O1220 O 0.69474 0.24132 0.71190
 O1221 O 0.70209 0.22380 0.79537
 O1222 O 0.67761 0.26442 0.77774
 O1223 O 0.69015 0.30719 0.74082
 O1224 O 0.67731 0.26566 0.73631
 C1225 C 0.67710 0.25187 0.71970
 O1226 O 0.74366 0.21545 0.70105
 O1227 O 0.78518 0.29909 0.71287
 O1228 O 0.73158 0.25341 0.69004
 O1229 O 0.74931 0.28851 0.69470
 O1230 O 0.81073 0.25737 0.73143
 O1231 O 0.79061 0.22140 0.72307
 C1232 C 0.74027 0.27262 0.68263
 H1233 H 0.79057 0.28774 0.75400
 H1234 H 0.75436 0.20896 0.74501
 H1235 H 0.71193 0.28166 0.71501
 H1236 H 0.71707 0.26666 0.79740
 H1237 H 0.81137 0.21222 0.76284
 H1238 H 0.74220 0.19105 0.79805
 H1239 H 0.70414 0.20892 0.80361
 H1240 H 0.66299 0.27237 0.77322
 H1241 H 0.82473 0.24853 0.73627
 H1242 H 0.78301 0.31398 0.70466
 H1243 H 0.74348 0.32939 0.70709
 H1244 H 0.67311 0.30681 0.74296
 H1245 H 0.80646 0.21510 0.72551
 H1246 H 0.73112 0.21088 0.69054
 H1247 H 0.75544 0.31012 0.81657
 H1248 H 0.68007 0.30684 0.78057
 C1249 C 0.44205 1.00071 0.33468
 C1250 C 0.43322 1.01580 0.35357
 C1251 C 0.44391 1.01133 0.37346
 C1252 C 0.46246 0.99217 0.37265
 C1253 C 0.47921 1.00015 0.35441
 C1254 C 0.46847 1.00464 0.33441
 C1255 C 0.43909 0.97561 0.34307
 C1256 C 0.44979 0.97113 0.36298
 C1257 C 0.42984 1.00517 0.31344
 C1258 C 0.41868 1.00760 0.29643
 C1259 C 0.47310 0.98753 0.39462
 C1260 C 0.47960 0.98460 0.41360
 H1261 H 0.41978 1.02892 0.35149
 H1262 H 0.43959 1.02065 0.38841
 H1263 H 0.49780 1.00207 0.35695
 H1264 H 0.47787 1.01042 0.31984
 H1265 H 0.42947 0.96245 0.33409
 H1266 H 0.44934 0.95417 0.37103
 C1267 C -0.05810 0.50009 0.83432
 C1268 C -0.03178 0.50462 0.83432
 C1269 C -0.02113 0.50007 0.85435
 C1270 C -0.03786 0.49143 0.87234
 C1271 C -0.04996 0.47026 0.86228
 C1272 C -0.06057 0.47480 0.84234
 C1273 C -0.06745 0.51468 0.85333
 C1274 C -0.05684 0.51015 0.87326
 C1275 C -0.07023 0.50461 0.81304
 C1276 C -0.08136 0.50707 0.79602
 C1277 C -0.02731 0.48673 0.89433
 C1278 C -0.02086 0.48377 0.91333
 H1279 H -0.02238 0.51083 0.81991
 H1280 H -0.00260 0.50236 0.85707
 H1281 H -0.05009 0.45317 0.87008
 H1282 H -0.06980 0.46157 0.83309
 H1283 H -0.08116 0.52752 0.85132
 H1284 H -0.06151 0.51914 0.88830
 C1285 C 0.05675 0.00638 0.82924
 C1286 C 0.05969 0.03080 0.83880
 C1287 C 0.04905 0.03368 0.85866
 C1288 C 0.03648 0.01187 0.86706
 C1289 C 0.05508 -0.00727 0.86740
 C1290 C 0.06570 -0.01014 0.84758
 C1291 C 0.03036 0.00241 0.82821
 C1292 C 0.01968 0.00530 0.84814
 C1293 C 0.06889 0.00341 0.80816
 C1294 C 0.08003 0.00166 0.79141
 C1295 C 0.02591 0.01455 0.88897
 C1296 C 0.01945 0.01542 0.90792
 H1297 H 0.06924 0.04465 0.83063
 H1298 H 0.04946 0.04998 0.86748
 H1299 H 0.05950 -0.01773 0.88199
 H1300 H 0.07918 -0.02304 0.84521
 H1301 H 0.02092 -0.00222 0.81320
 H1302 H 0.00109 0.00316 0.85020
 C1303 C 0.55884 0.50629 0.32983
 C1304 C 0.56116 0.53090 0.33909
 C1305 C 0.55030 0.53381 0.35884
 C1306 C 0.53816 0.51184 0.36743
 C1307 C 0.55719 0.49313 0.36814
 C1308 C 0.56802 0.49022 0.34843
 C1309 C 0.53255 0.50172 0.32868
 C1310 C 0.52166 0.50463 0.34850
 C1311 C 0.57119 0.50327 0.30886
 C1312 C 0.58244 0.50147 0.29220
 C1313 C 0.52736 0.51455 0.38922
 C1314 C 0.52073 0.51541 0.40812
 H1315 H 0.57046 0.54485 0.33080
 H1316 H 0.55028 0.55024 0.36745
 H1317 H 0.56174 0.48297 0.38289
 H1318 H 0.58181 0.47760 0.34631
 H1319 H 0.52334 0.49667 0.31367
 H1320 H 0.50311 0.50211 0.35046
 C1321 C 0.56690 0.49570 0.17027
 C1322 C 0.57910 0.50900 0.15155
 C1323 C 0.56817 0.50725 0.13145
 C1324 C 0.54604 0.49236 0.13192
 C1325 C 0.53090 0.50327 0.14979
 C1326 C 0.54185 0.50502 0.16995
 C1327 C 0.56486 0.47067 0.16201
 C1328 C 0.55391 0.46892 0.14187
 C1329 C 0.57873 0.49769 0.19200
 C1330 C 0.58792 0.49937 0.21008
 C1331 C 0.53488 0.49078 0.10983
 C1332 C 0.52776 0.49035 0.09087
 H1333 H 0.59494 0.51892 0.15386
 H1334 H 0.57470 0.51571 0.11656
 H1335 H 0.51315 0.50906 0.14691
 H1336 H 0.53345 0.51234 0.18430
 H1337 H 0.57143 0.45565 0.17118
 H1338 H 0.55109 0.45240 0.13382
 C1339 C 0.06664 0.99584 0.67083
 C1340 C 0.05379 0.97272 0.66768
 C1341 C 0.04300 0.97083 0.64745
 C1342 C 0.04611 0.99223 0.63233
 C1343 C 0.07254 0.99569 0.63104
 C1344 C 0.08330 0.99757 0.65121
 C1345 C 0.04818 1.01462 0.66617
 C1346 C 0.03741 1.01273 0.64596
 C1347 C 0.07828 0.99801 0.69263
 C1348 C 0.08734 0.99989 0.71075
 C1349 C 0.03514 0.99052 0.61017
 C1350 C 0.02813 0.98996 0.59117
 H1351 H 0.05320 0.95905 0.68024
 H1352 H 0.03319 0.95557 0.64271
 H1353 H 0.08202 0.99655 0.61556
 H1354 H 0.10192 1.00004 0.65301
 H1355 H 0.04392 1.02821 0.67776
 H1356 H 0.02394 1.02468 0.64027
 C1357 C -0.06705 0.51896 0.67407
 C1358 C -0.06860 0.54406 0.66521
 C1359 C -0.05825 0.54736 0.64512
 C1360 C -0.04734 0.52524 0.63585
 C1361 C -0.06719 0.50743 0.63551
 C1362 C -0.07751 0.50415 0.65553
 C1363 C -0.04096 0.51320 0.67425
 C1364 C -0.03062 0.51648 0.65418
 C1365 C -0.07821 0.51517 0.69572
 C1366 C -0.08695 0.51192 0.71365
 C1367 C -0.03668 0.52813 0.61385
 C1368 C -0.02955 0.52873 0.59504
 H1369 H -0.07707 0.55802 0.67395
 H1370 H -0.05784 0.56412 0.63670
 H1371 H -0.07269 0.49818 0.62076
 H1372 H -0.09180 0.49213 0.65790
 H1373 H -0.03144 0.50710 0.68888
 H1374 H -0.01227 0.51322 0.65165
 C1375 C 0.43311 0.01993 0.17457
 C1376 C 0.45936 0.01498 0.17495
 C1377 C 0.46973 0.01836 0.15491
 C1378 C 0.45287 0.02638 0.13640
 C1379 C 0.44120 0.04826 0.14537
 C1380 C 0.43083 0.04488 0.16543
 C1381 C 0.42324 0.00459 0.15614
 C1382 C 0.43358 0.00796 0.13615
 C1383 C 0.42191 0.01603 0.19618
 C1384 C 0.41315 0.01268 0.21409
 C1385 C 0.46356 0.02935 0.11442
 C1386 C 0.47071 0.02996 0.09562
 H1387 H 0.46897 0.00935 0.18970
 H1388 H 0.48819 0.01565 0.15251
 H1389 H 0.44115 0.06494 0.13676
 H1390 H 0.42187 0.05866 0.17397
 H1391 H 0.40931 -0.00785 0.15856
 H1392 H 0.42847 -0.00162 0.12147
 C1393 C 0.33979 0.40962 0.00005
 C1394 C 0.33968 0.43023 0.01598
 C1395 C 0.36081 0.44076 0.01832
 C1396 C 0.38004 0.42968 0.00451
 C1397 C 0.37045 0.43000 -0.01944
 C1398 C 0.34937 0.41950 -0.02177
 C1399 C 0.35903 0.39346 0.00916
 C1400 C 0.38012 0.40397 0.01149
 C1401 C 0.31711 0.39792 -0.00255
 C1402 C 0.29897 0.38746 -0.00448
 C1403 C 0.40297 0.44100 0.00653
 C1404 C 0.42183 0.45031 0.00676
 H1405 H 0.32436 0.43604 0.02466
 H1406 H 0.36355 0.45555 0.02900
 H1407 H 0.37945 0.43786 -0.03338
 H1408 H 0.34036 0.41838 -0.03768
 H1409 H 0.35629 0.37532 0.01345
 H1410 H 0.39539 0.39483 0.01778
 C1411 C -0.16001 0.90963 0.50036
 C1412 C -0.16009 0.93025 0.51627
 C1413 C -0.13895 0.94075 0.51861
 C1414 C -0.11972 0.92962 0.50482
 C1415 C -0.12930 0.92994 0.48087
 C1416 C -0.15039 0.91946 0.47853
 C1417 C -0.14081 0.89344 0.50950
 C1418 C -0.11970 0.90392 0.51183
 C1419 C -0.18270 0.89796 0.49774
 C1420 C -0.20084 0.88752 0.49577
 C1421 C -0.09677 0.94089 0.50684
 C1422 C -0.07787 0.95011 0.50707
 H1423 H -0.17541 0.93610 0.52493
 H1424 H -0.13619 0.95555 0.52928
 H1425 H -0.12028 0.93777 0.46693
 H1426 H -0.15939 0.91835 0.46262
 H1427 H -0.14357 0.87531 0.51380
 H1428 H -0.10444 0.89475 0.51814
 C1429 C -0.16863 0.09194 0.99568
 C1430 C -0.15477 0.09097 1.01761
 C1431 C -0.13342 0.08096 1.01582
 C1432 C -0.12791 0.07285 0.99226
 C1433 C -0.13123 0.09446 0.97741
 C1434 C -0.15260 0.10449 0.97920
 C1435 C -0.16951 0.06674 0.98777
 C1436 C -0.14812 0.05671 0.98598
 C1437 C -0.19154 0.10317 0.99766
 C1438 C -0.20975 0.11352 0.99901
 C1439 C -0.10476 0.06200 0.99077
 C1440 C -0.08585 0.05281 0.99084
 H1441 H -0.16116 0.09755 1.03320
 H1442 H -0.12157 0.07900 1.02989
 H1443 H -0.11800 0.10128 0.96642
 H1444 H -0.15762 0.11989 0.96973
 H1445 H -0.18550 0.05759 0.98392
 H1446 H -0.14583 0.03897 0.98057
 C1447 C 0.33266 0.59283 0.49554
 C1448 C 0.34658 0.59191 0.51744
 C1449 C 0.36789 0.58184 0.51564
 C1450 C 0.37333 0.57362 0.49209
 C1451 C 0.37003 0.59520 0.47718
 C1452 C 0.34869 0.60528 0.47898
 C1453 C 0.33171 0.56761 0.48772
 C1454 C 0.35307 0.55751 0.48591
 C1455 C 0.30979 0.60411 0.49753
 C1456 C 0.29157 0.61446 0.49889
 C1457 C 0.39644 0.56270 0.49060
 C1458 C 0.41531 0.55342 0.49069
 H1459 H 0.34024 0.59856 0.53303
 H1460 H 0.37977 0.57990 0.52970
 H1461 H 0.38325 0.60194 0.46614
 H1462 H 0.34368 0.62067 0.46947
 H1463 H 0.31569 0.55848 0.48393
 H1464 H 0.35530 0.53975 0.48055
 C1465 C 0.16169 0.60357 0.50751
 C1466 C 0.15431 0.58828 0.48801
 C1467 C 0.13263 0.57909 0.49007
 C1468 C 0.12026 0.58603 0.51146
 C1469 C 0.12062 0.61268 0.51118
 C1470 C 0.14236 0.62189 0.50911
 C1471 C 0.15882 0.58806 0.52827
 C1472 C 0.13709 0.57886 0.53033
 C1473 C 0.18528 0.61331 0.50509
 C1474 C 0.20474 0.62095 0.50296
 C1475 C 0.09685 0.57568 0.51318
 C1476 C 0.07802 0.56630 0.51323
 H1477 H 0.16517 0.58494 0.47379
 H1478 H 0.12499 0.56791 0.47759
 H1479 H 0.10518 0.62337 0.51253
 H1480 H 0.14549 0.64046 0.50869
 H1481 H 0.17263 0.58464 0.54031
 H1482 H 0.13235 0.56759 0.54414
 C1483 C 0.66203 0.10446 0.00767
 C1484 C 0.64973 0.09976 -0.01457
 C1485 C 0.62805 0.09059 -0.01241
 C1486 C 0.62061 0.08693 0.01180
 C1487 C 0.62340 0.11083 0.02249
 C1488 C 0.64515 0.12003 0.02032
 C1489 C 0.66164 0.08110 0.02025
 C1490 C 0.63994 0.07191 0.02241
 C1491 C 0.68562 0.11419 0.00512
 C1492 C 0.70506 0.12183 0.00283
 C1493 C 0.59720 0.07658 0.01362
 C1494 C 0.57838 0.06720 0.01373
 H1495 H 0.65737 0.10336 -0.03065
 H1496 H 0.61719 0.08635 -0.02666
 H1497 H 0.60956 0.11972 0.03102
 H1498 H 0.64987 0.13680 0.02701
 H1499 H 0.67708 0.07254 0.02692
 H1500 H 0.63685 0.05551 0.03094
 C1501 C 0.66857 0.89962 0.49236
 C1502 C 0.66720 0.92569 0.48691
 C1503 C 0.64519 0.93446 0.48723
 C1504 C 0.62656 0.91636 0.49297
 C1505 C 0.63468 0.90562 0.51525
 C1506 C 0.65669 0.89685 0.51492
 C1507 C 0.65185 0.88824 0.47565
 C1508 C 0.62980 0.89702 0.47598
 C1509 C 0.69246 0.89021 0.49218
 C1510 C 0.71207 0.88257 0.49227
 C1511 C 0.60283 0.92610 0.49367
 C1512 C 0.58368 0.93465 0.49510
 H1513 H 0.68221 0.93634 0.48310
 H1514 H 0.64140 0.95261 0.48370
 H1515 H 0.62404 0.90494 0.53000
 H1516 H 0.66484 0.88868 0.52939
 H1517 H 0.65688 0.87448 0.46455
 H1518 H 0.61600 0.89078 0.46516
 C1519 C 0.16831 0.39938 0.99228
 C1520 C 0.16683 0.42543 0.98678
 C1521 C 0.14478 0.43411 0.98706
 C1522 C 0.12623 0.41594 0.99282
 C1523 C 0.13437 0.40529 1.01513
 C1524 C 0.15641 0.39661 1.01484
 C1525 C 0.15166 0.38788 0.97559
 C1526 C 0.12957 0.39657 0.97588
 C1527 C 0.19223 0.39006 0.99215
 C1528 C 0.21187 0.38247 0.99227
 C1529 C 0.10246 0.42558 0.99348
 C1530 C 0.08327 0.43406 0.99489
 H1531 H 0.18181 0.43613 0.98296
 H1532 H 0.14092 0.45223 0.98348
 H1533 H 0.12371 0.40459 1.02987
 H1534 H 0.16458 0.38851 1.02934
 H1535 H 0.15676 0.37411 0.96453
 H1536 H 0.11581 0.39024 0.96506
 C1537 C -0.00593 0.33557 0.44400
 C1538 C -0.03019 0.34635 0.44585
 C1539 C -0.02988 0.36821 0.45407
 C1540 C -0.00535 0.37698 0.45958
 C1541 C 0.00829 0.37463 0.43806
 C1542 C 0.00799 0.35283 0.42985
 C1543 C 0.00482 0.33682 0.46739
 C1544 C 0.00512 0.35873 0.47564
 C1545 C -0.00614 0.31268 0.43428
 C1546 C -0.00595 0.29501 0.42408
 C1547 C -0.00503 0.40050 0.46786
 C1548 C -0.00487 0.42012 0.47408
 H1549 H -0.04617 0.33757 0.44122
 H1550 H -0.04561 0.37824 0.45650
 H1551 H 0.01743 0.38883 0.42998
 H1552 H 0.01689 0.34830 0.41471
 H1553 H 0.01151 0.32190 0.47664
 H1554 H 0.01210 0.36266 0.49200
 C1555 C 0.49521 -0.16427 -0.05364
 C1556 C 0.47106 -0.15301 -0.05346
 C1557 C 0.47118 -0.13106 -0.04548
 C1558 C 0.49545 -0.12267 -0.03853
 C1559 C 0.51052 -0.12555 -0.05908
 C1560 C 0.51040 -0.14745 -0.06704
 C1561 C 0.50435 -0.16292 -0.02966
 C1562 C 0.50447 -0.14090 -0.02165
 C1563 C 0.49519 -0.18725 -0.06318
 C1564 C 0.49547 -0.20490 -0.07339
 C1565 C 0.49560 -0.09904 -0.03052
 C1566 C 0.49566 -0.07934 -0.02452
 H1567 H 0.45526 -0.16156 -0.05899
 H1568 H 0.45549 -0.12072 -0.04416
 H1569 H 0.52047 -0.11163 -0.06669
 H1570 H 0.52028 -0.15234 -0.08150
 H1571 H 0.51013 -0.17784 -0.01987
 H1572 H 0.51038 -0.13687 -0.00495
 C1573 C 0.00456 -0.17487 1.06040
 C1574 C -0.00602 -0.17011 1.03732
 C1575 C -0.00542 -0.14726 1.03128
 C1576 C 0.00571 -0.13169 1.04900
 C1577 C 0.02985 -0.14207 1.05358
 C1578 C 0.02925 -0.16489 1.05960
 C1579 C -0.00872 -0.15906 1.07616
 C1580 C -0.00811 -0.13630 1.07015
 C1581 C 0.00392 -0.19884 1.06786
 C1582 C 0.00356 -0.21747 1.07679
 C1583 C 0.00609 -0.10736 1.04268
 C1584 C 0.00569 -0.08746 1.03688
 H1585 H -0.01326 -0.18342 1.02669
 H1586 H -0.01216 -0.14090 1.01541
 H1587 H 0.04596 -0.13241 1.05216
 H1588 H 0.04485 -0.17488 1.06335
 H1589 H -0.01786 -0.16523 1.09077
 H1590 H -0.01667 -0.12290 1.07957
 C1591 C 0.50378 0.32546 0.56142
 C1592 C 0.49298 0.33012 0.53842
 C1593 C 0.49377 0.35291 0.53219
 C1594 C 0.50526 0.36852 0.54967
 C1595 C 0.52934 0.35792 0.55408
 C1596 C 0.52856 0.33516 0.56030
 C1597 C 0.49085 0.34154 0.57719
 C1598 C 0.49163 0.36425 0.57099
 C1599 C 0.50298 0.30155 0.56907
 C1600 C 0.50257 0.28296 0.57808
 C1601 C 0.50584 0.39279 0.54314
 C1602 C 0.50565 0.41266 0.53721
 H1603 H 0.48548 0.31680 0.52797
 H1604 H 0.48691 0.35921 0.51633
 H1605 H 0.54552 0.36740 0.55242
 H1606 H 0.54410 0.32504 0.56396
 H1607 H 0.48182 0.33560 0.59194
 H1608 H 0.48332 0.37782 0.58039
 C1609 C 0.48889 1.15438 0.57852
 C1610 C 0.49739 1.13818 0.59740
 C1611 C 0.49804 1.11544 0.59164
 C1612 C 0.49012 1.11134 0.56762
 C1613 C 0.50565 1.12694 0.55330
 C1614 C 0.50500 1.14960 0.55904
 C1615 C 0.46510 1.14486 0.57143
 C1616 C 0.46575 1.12210 0.56566
 C1617 C 0.48885 1.17865 0.58454
 C1618 C 0.49032 1.19857 0.58967
 C1619 C 0.49118 1.08731 0.56086
 C1620 C 0.49257 1.06813 0.55367
 H1621 H 0.50239 1.14405 0.61384
 H1622 H 0.50359 1.10175 0.60309
 H1623 H 0.51625 1.12071 0.53982
 H1624 H 0.51501 1.16286 0.55049
 H1625 H 0.44921 1.15504 0.57101
 H1626 H 0.45040 1.11269 0.56030
 C1627 C -0.01095 0.65397 1.07758
 C1628 C -0.00273 0.63780 1.09660
 C1629 C -0.00227 0.61502 1.09096
 C1630 C -0.01008 0.61086 1.06692
 C1631 C 0.00570 0.62622 1.05262
 C1632 C 0.00524 0.64892 1.05824
 C1633 C -0.03479 0.64466 1.07040
 C1634 C -0.03433 0.62186 1.06476
 C1635 C -0.01077 0.67828 1.08348
 C1636 C -0.00909 0.69820 1.08852
 C1637 C -0.00919 0.58679 1.06028
 C1638 C -0.00788 0.56757 1.05316
 H1639 H 0.00221 0.64371 1.11304
 H1640 H 0.00306 0.60134 1.10252
 H1641 H 0.01633 0.61981 1.03923
 H1642 H 0.01544 0.66203 1.04968
 H1643 H -0.05057 0.65499 1.06984
 H1644 H -0.04974 0.61256 1.05936
 C1645 C 0.51162 0.66834 -0.07661
 C1646 C 0.50291 0.66311 -0.05315
 C1647 C 0.50524 0.64048 -0.04698
 C1648 C 0.51605 0.62533 -0.06490
 C1649 C 0.53923 0.63702 -0.07047
 C1650 C 0.53689 0.65975 -0.07666
 C1651 C 0.49826 0.65167 -0.09177
 C1652 C 0.50059 0.62898 -0.08559
 C1653 C 0.50869 0.69261 -0.08295
 C1654 C 0.50557 0.71257 -0.08798
 C1655 C 0.51791 0.60124 -0.05759
 C1656 C 0.51797 0.58197 -0.04986
 H1657 H 0.49559 0.67604 -0.04230
 H1658 H 0.49990 0.63399 -0.03082
 H1659 H 0.55593 0.62824 -0.06968
 H1660 H 0.55159 0.67053 -0.08119
 H1661 H 0.48796 0.65720 -0.10613
 H1662 H 0.49232 0.61500 -0.09463
 C1663 C 0.01432 1.16704 0.42307
 C1664 C 0.00145 1.15037 0.40753
 C1665 C 0.00362 1.12767 0.41374
 C1666 C 0.01843 1.12401 0.43485
 C1667 C 0.00704 1.13914 0.45246
 C1668 C 0.00488 1.16176 0.44626
 C1669 C 0.03960 1.15848 0.42373
 C1670 C 0.04177 1.13573 0.42997
 C1671 C 0.01141 1.19130 0.41669
 C1672 C 0.00797 1.21119 0.41161
 C1673 C 0.02003 1.09992 0.44220
 C1674 C 0.01980 1.08067 0.44997
 H1675 H -0.00840 1.15590 0.39289
 H1676 H -0.00435 1.11370 0.40446
 H1677 H 0.00120 1.13263 0.46846
 H1678 H -0.00279 1.17468 0.45691
 H1679 H 0.05442 1.16928 0.41964
 H1680 H 0.05845 1.12697 0.43122
 C1681 C 0.75083 0.69244 0.91554
 C1682 C 0.75482 0.71881 0.91562
 C1683 C 0.75030 0.72942 0.89556
 C1684 C 0.74222 0.71259 0.87747
 C1685 C 0.72116 0.70004 0.88728
 C1686 C 0.72566 0.68948 0.90725
 C1687 C 0.76587 0.68346 0.89667
 C1688 C 0.76137 0.69402 0.87671
 C1689 C 0.75531 0.68036 0.93685
 C1690 C 0.75773 0.66928 0.95390
 C1691 C 0.73754 0.72308 0.85544
 C1692 C 0.73457 0.72949 0.83643
 H1693 H 0.76066 0.72828 0.93011
 H1694 H 0.75224 0.74797 0.89288
 H1695 H 0.70415 0.69958 0.87931
 H1696 H 0.71249 0.67996 0.91635
 H1697 H 0.77899 0.67003 0.89879
 H1698 H 0.77066 0.68959 0.86176
 C1699 C 0.25019 0.19244 0.41562
 C1700 C 0.25418 0.21881 0.41571
 C1701 C 0.24953 0.22945 0.39570
 C1702 C 0.24135 0.21265 0.37762
 C1703 C 0.22035 0.20008 0.38753
 C1704 C 0.22498 0.18948 0.40747
 C1705 C 0.26512 0.18350 0.39664
 C1706 C 0.26049 0.19409 0.37673
 C1707 C 0.25482 0.18032 0.43688
 C1708 C 0.25736 0.16921 0.45390
 C1709 C 0.23656 0.22318 0.35563
 C1710 C 0.23356 0.22962 0.33663
 H1711 H 0.26010 0.22826 0.43019
 H1712 H 0.25146 0.24801 0.39304
 H1713 H 0.20329 0.19963 0.37965
 H1714 H 0.21186 0.17994 0.41662
 H1715 H 0.27825 0.17007 0.39868
 H1716 H 0.26969 0.18968 0.36172
 C1717 C 0.75598 0.30625 0.42125
 C1718 C 0.75159 0.27996 0.42231
 C1719 C 0.75446 0.26922 0.40243
 C1720 C 0.76146 0.28585 0.38352
 C1721 C 0.78342 0.29808 0.39202
 C1722 C 0.78055 0.30879 0.41184
 C1723 C 0.73972 0.31542 0.40279
 C1724 C 0.74258 0.30473 0.38301
 C1725 C 0.75302 0.31846 0.44229
 C1726 C 0.75129 0.32964 0.45899
 C1727 C 0.76414 0.27523 0.36166
 C1728 C 0.76503 0.26873 0.34272
 H1729 H 0.74668 0.27064 0.43732
 H1730 H 0.75204 0.25069 0.40040
 H1731 H 0.79981 0.29822 0.38331
 H1732 H 0.79450 0.31812 0.42008
 H1733 H 0.72700 0.32909 0.40505
 H1734 H 0.73229 0.30928 0.36835
 C1735 C 0.25602 0.80795 0.92077
 C1736 C 0.25169 0.78165 0.92173
 C1737 C 0.25454 0.77100 0.90180
 C1738 C 0.26145 0.78774 0.88294
 C1739 C 0.28341 0.79997 0.89144
 C1740 C 0.28056 0.81058 0.91131
 C1741 C 0.23970 0.81716 0.90237
 C1742 C 0.24254 0.80657 0.88255
 C1743 C 0.25308 0.82005 0.94187
 C1744 C 0.25135 0.83114 0.95863
 C1745 C 0.26410 0.77719 0.86103
 C1746 C 0.26498 0.77073 0.84208
 H1747 H 0.24684 0.77225 0.93671
 H1748 H 0.25216 0.75248 0.89970
 H1749 H 0.29978 0.80019 0.88269
 H1750 H 0.29451 0.81991 0.91956
 H1751 H 0.22696 0.83079 0.90472
 H1752 H 0.23220 0.81117 0.86792
 C1753 C 0.24549 0.81732 0.07917
 C1754 C 0.25407 0.79204 0.07941
 C1755 C 0.25222 0.78115 0.09959
 C1756 C 0.24197 0.79658 0.11758
 C1757 C 0.21863 0.80515 0.10789
 C1758 C 0.22048 0.81603 0.08771
 C1759 C 0.25939 0.82909 0.09774
 C1760 C 0.25754 0.81822 0.11787
 C1761 C 0.24762 0.82908 0.05740
 C1762 C 0.24948 0.83820 0.03930
 C1763 C 0.24030 0.78548 0.13970
 C1764 C 0.23978 0.77837 0.15868
 H1765 H 0.26096 0.78343 0.06498
 H1766 H 0.25751 0.76326 0.10242
 H1767 H 0.20211 0.80282 0.11611
 H1768 H 0.20554 0.82304 0.07870
 H1769 H 0.26977 0.84461 0.09531
 H1770 H 0.26638 0.82448 0.13266
 C1771 C 0.74553 0.31645 0.57955
 C1772 C 0.75436 0.29125 0.57997
 C1773 C 0.75247 0.28044 0.60018
 C1774 C 0.74193 0.29586 0.61803
 C1775 C 0.71858 0.30415 0.60815
 C1776 C 0.72047 0.31496 0.58794
 C1777 C 0.75917 0.32844 0.59815
 C1778 C 0.75729 0.31766 0.61832
 C1779 C 0.74770 0.32811 0.55774
 C1780 C 0.74958 0.33715 0.53961
 C1781 C 0.74022 0.28484 0.64018
 C1782 C 0.73968 0.27779 0.65918
 H1783 H 0.76145 0.28264 0.56562
 H1784 H 0.75792 0.26262 0.60313
 H1785 H 0.70202 0.30171 0.61628
 H1786 H 0.70553 0.32178 0.57880
 H1787 H 0.76942 0.34405 0.59572
 H1788 H 0.76596 0.32408 0.63313
 C1789 C 0.26962 0.18344 0.57582
 C1790 C 0.26415 0.20956 0.57560
 C1791 C 0.26747 0.21985 0.59568
 C1792 C 0.27596 0.20305 0.61405
 C1793 C 0.29803 0.19189 0.60485
 C1794 C 0.29470 0.18160 0.58476
 C1795 C 0.25458 0.17317 0.59432
 C1796 C 0.25790 0.18343 0.61434
 C1797 C 0.26578 0.17234 0.55418
 C1798 C 0.26248 0.16363 0.53626
 C1799 C 0.27888 0.21365 0.63605
 C1800 C 0.27945 0.22073 0.65485
 H1801 H 0.25822 0.21914 0.56094
 H1802 H 0.26441 0.23821 0.59818
 H1803 H 0.31478 0.19211 0.61333
 H1804 H 0.30861 0.17299 0.57607
 H1805 H 0.24240 0.15903 0.59192
 H1806 H 0.24851 0.17804 0.62907
 C1807 C 0.77040 0.68360 0.07576
 C1808 C 0.76565 0.70986 0.07541
 C1809 C 0.76916 0.72016 0.09545
 C1810 C 0.77709 0.70322 0.11393
 C1811 C 0.79888 0.69141 0.10490
 C1812 C 0.79537 0.68111 0.08484
 C1813 C 0.75498 0.67384 0.09422
 C1814 C 0.75848 0.68411 0.11421
 C1815 C 0.76636 0.67249 0.05415
 C1816 C 0.76291 0.66378 0.03625
 C1817 C 0.78019 0.71382 0.13591
 C1818 C 0.78090 0.72090 0.15472
 H1819 H 0.76007 0.71953 0.06068
 H1820 H 0.76660 0.73861 0.09787
 H1821 H 0.81559 0.69120 0.11346
 H1822 H 0.80909 0.67207 0.07625
 H1823 H 0.74241 0.66005 0.09181
 H1824 H 0.74887 0.67906 0.12891
 C1825 C 0.15943 0.59004 0.24930
 C1826 C 0.14672 0.60660 0.23299
 C1827 C 0.15716 0.62773 0.23065
 C1828 C 0.17933 0.63034 0.24481
 C1829 C 0.19483 0.60986 0.23830
 C1830 C 0.18439 0.58871 0.24065
 C1831 C 0.16140 0.60354 0.27102
 C1832 C 0.17182 0.62464 0.26868
 C1833 C 0.14782 0.56733 0.25192
 C1834 C 0.13741 0.54918 0.25389
 C1835 C 0.19056 0.65330 0.24279
 C1836 C 0.19978 0.67218 0.24257
 H1837 H 0.13092 0.60210 0.22403
 H1838 H 0.15028 0.64126 0.21969
 H1839 H 0.21245 0.61180 0.23232
 H1840 H 0.19308 0.57258 0.23670
 H1841 H 0.15517 0.59709 0.28689
 H1842 H 0.17447 0.63621 0.28256
 C1843 C 0.65938 0.08957 0.74988
 C1844 C 0.64657 0.10617 0.73367
 C1845 C 0.65697 0.12731 0.73134
 C1846 C 0.67921 0.12990 0.74541
 C1847 C 0.69470 0.10946 0.73877
 C1848 C 0.68429 0.08829 0.74111
 C1849 C 0.66143 0.10302 0.77163
 C1850 C 0.67182 0.12413 0.76929
 C1851 C 0.64779 0.06685 0.75249
 C1852 C 0.63741 0.04869 0.75446
 C1853 C 0.69040 0.15288 0.74339
 C1854 C 0.69960 0.17177 0.74317
 H1855 H 0.63072 0.10167 0.72477
 H1856 H 0.65002 0.14087 0.72045
 H1857 H 0.71228 0.11144 0.73272
 H1858 H 0.69298 0.07219 0.73708
 H1859 H 0.65530 0.09650 0.78751
 H1860 H 0.67454 0.13566 0.78320
 C1861 C 0.84195 0.08103 0.25501
 C1862 C 0.82725 0.08364 0.27597
 C1863 C 0.81713 0.10497 0.27777
 C1864 C 0.82269 0.12164 0.25844
 C1865 C 0.81534 0.10854 0.23742
 C1866 C 0.82544 0.08725 0.23563
 C1867 C 0.85941 0.10115 0.25591
 C1868 C 0.84931 0.12244 0.25771
 C1869 C 0.85326 0.05820 0.25303
 C1870 C 0.86369 0.04005 0.25167
 C1871 C 0.81177 0.14472 0.25993
 C1872 C 0.80254 0.16359 0.25986
 H1873 H 0.82498 0.06993 0.28830
 H1874 H 0.80622 0.10950 0.29164
 H1875 H 0.80321 0.11540 0.22503
 H1876 H 0.82196 0.07591 0.22173
 H1877 H 0.87811 0.09887 0.25522
 H1878 H 0.85936 0.13833 0.25856
 C1879 C 0.34208 0.58291 0.75447
 C1880 C 0.34191 0.59715 0.73275
 C1881 C 0.33193 0.61848 0.73458
 C1882 C 0.32304 0.62360 0.75797
 C1883 C 0.34417 0.61990 0.77340
 C1884 C 0.35416 0.59854 0.77156
 C1885 C 0.31658 0.58203 0.76161
 C1886 C 0.30658 0.60340 0.76344
 C1887 C 0.35327 0.56002 0.75245
 C1888 C 0.36360 0.54182 0.75109
 C1889 C 0.31223 0.64673 0.75949
 C1890 C 0.30304 0.66562 0.75941
 H1891 H 0.34899 0.59102 0.71726
 H1892 H 0.33050 0.63058 0.72065
 H1893 H 0.35069 0.63287 0.78479
 H1894 H 0.36925 0.59327 0.78141
 H1895 H 0.30722 0.56605 0.76493
 H1896 H 0.28865 0.60569 0.76836
 C1897 C 0.35315 0.41202 0.74250
 C1898 C 0.34861 0.39972 0.76479
 C1899 C 0.33956 0.37801 0.76269
 C1900 C 0.33588 0.37055 0.73850
 C1901 C 0.35975 0.37349 0.72772
 C1902 C 0.36883 0.39527 0.72982
 C1903 C 0.32973 0.41147 0.73001
 C1904 C 0.32068 0.38974 0.72792
 C1905 C 0.36274 0.43564 0.74497
 C1906 C 0.37028 0.45510 0.74712
 C1907 C 0.32567 0.34711 0.73674
 C1908 C 0.31638 0.32826 0.73667
 H1909 H 0.35221 0.40738 0.78084
 H1910 H 0.33544 0.36713 0.77697
 H1911 H 0.36872 0.35972 0.71917
 H1912 H 0.38556 0.40009 0.72307
 H1913 H 0.32103 0.42683 0.72335
 H1914 H 0.30425 0.38653 0.71945
 C1915 C 0.85509 0.91200 0.24284
 C1916 C 0.87015 0.89566 0.22905
 C1917 C 0.86103 0.87391 0.22682
 C1918 C 0.83773 0.87058 0.23860
 C1919 C 0.82200 0.88998 0.22917
 C1920 C 0.83110 0.91169 0.23140
 C1921 C 0.85167 0.89909 0.26501
 C1922 C 0.84258 0.87741 0.26280
 C1923 C 0.86472 0.93558 0.24546
 C1924 C 0.87229 0.95502 0.24781
 C1925 C 0.82748 0.84717 0.23673
 C1926 C 0.81817 0.82833 0.23660
 H1927 H 0.88652 0.90073 0.22167
 H1928 H 0.86960 0.86041 0.21754
 H1929 H 0.80519 0.88694 0.22138
 H1930 H 0.82205 0.92717 0.22550
 H1931 H 0.85604 0.90634 0.28108
 H1932 H 0.83920 0.86615 0.27699
 C1933 C 0.64972 0.91824 0.75765
 C1934 C 0.65604 0.91005 0.73433
 C1935 C 0.66480 0.88807 0.73399
 C1936 C 0.66644 0.87627 0.75699
 C1937 C 0.64174 0.87767 0.76624
 C1938 C 0.63296 0.89969 0.76659
 C1939 C 0.67206 0.91502 0.77157
 C1940 C 0.68083 0.89302 0.77123
 C1941 C 0.64031 0.94210 0.75785
 C1942 C 0.63265 0.96168 0.75779
 C1943 C 0.67616 0.85256 0.75628
 C1944 C 0.68469 0.83342 0.75484
 H1945 H 0.65380 0.92059 0.71937
 H1946 H 0.67004 0.87985 0.71872
 H1947 H 0.63200 0.86269 0.77203
 H1948 H 0.61572 0.90352 0.77267
 H1949 H 0.68026 0.92882 0.78092
 H1950 H 0.69652 0.88803 0.78029
 C1951 C 0.14950 0.41865 0.25739
 C1952 C 0.13130 0.40018 0.25151
 C1953 C 0.13997 0.37812 0.25124
 C1954 C 0.16603 0.37660 0.25688
 C1955 C 0.16866 0.38841 0.27949
 C1956 C 0.15999 0.41047 0.27976
 C1957 C 0.16898 0.41530 0.24056
 C1958 C 0.17764 0.39328 0.24030
 C1959 C 0.14019 0.44255 0.25751
 C1960 C 0.13259 0.46216 0.25738
 C1961 C 0.17564 0.35284 0.25625
 C1962 C 0.18412 0.33367 0.25487
 H1963 H 0.11317 0.40407 0.24791
 H1964 H 0.12925 0.36318 0.24742
 H1965 H 0.17660 0.38016 0.29403
 H1966 H 0.16052 0.42107 0.29453
 H1967 H 0.17544 0.42903 0.22979
 H1968 H 0.19149 0.38822 0.22928
 C1969 C 0.08474 0.24470 0.80391
 C1970 C 0.10350 0.24656 0.82213
 C1971 C 0.12545 0.24668 0.81425
 C1972 C 0.12647 0.24494 0.78894
 C1973 C 0.11149 0.26510 0.77991
 C1974 C 0.08943 0.26497 0.78783
 C1975 C 0.09083 0.22273 0.79112
 C1976 C 0.11289 0.22286 0.78319
 C1977 C 0.06168 0.24469 0.81336
 C1978 C 0.04397 0.24502 0.82354
 C1979 C 0.15016 0.24511 0.78100
 C1980 C 0.16991 0.24522 0.77504
 H1981 H 0.09984 0.24767 0.83975
 H1982 H 0.14065 0.24790 0.82505
 H1983 H 0.11762 0.27822 0.76829
 H1984 H 0.07658 0.27796 0.78302
 H1985 H 0.07889 0.20845 0.78844
 H1986 H 0.11994 0.20866 0.77371
 C1987 C 0.58687 0.74505 0.30468
 C1988 C 0.60575 0.74588 0.32286
 C1989 C 0.62767 0.74592 0.31486
 C1990 C 0.62851 0.74512 0.28948
 C1991 C 0.61385 0.76585 0.28124
 C1992 C 0.59184 0.76582 0.28927
 C1993 C 0.59247 0.72349 0.29108
 C1994 C 0.61449 0.72353 0.28304
 C1995 C 0.56386 0.74513 0.31422
 C1996 C 0.54615 0.74549 0.32439
 C1997 C 0.65215 0.74519 0.28141
 C1998 C 0.67185 0.74525 0.27534
 H1999 H 0.60221 0.74638 0.34053
 H2000 H 0.64294 0.74644 0.32562
 H2001 H 0.62017 0.77929 0.27005
 H2002 H 0.57921 0.77921 0.28499
 H2003 H 0.58026 0.70954 0.28798
 H2004 H 0.62123 0.70957 0.27303
 C2005 C 0.57548 0.25445 0.18839
 C2006 C 0.57966 0.24498 0.21199
 C2007 C 0.60243 0.24557 0.21838
 C2008 C 0.61852 0.25555 0.20044
 C2009 C 0.60855 0.27956 0.19458
 C2010 C 0.58581 0.27898 0.18820
 C2011 C 0.59141 0.24017 0.17355
 C2012 C 0.61409 0.24076 0.17991
 C2013 C 0.55159 0.25382 0.18060
 C2014 C 0.53301 0.25349 0.17154
 C2015 C 0.64277 0.25591 0.20714
 C2016 C 0.66262 0.25549 0.21319
 H2017 H 0.56603 0.23848 0.22270
 H2018 H 0.60841 0.23954 0.23464
 H2019 H 0.61843 0.29557 0.19540
 H2020 H 0.57611 0.29451 0.18356
 H2021 H 0.58537 0.23040 0.15930
 H2022 H 0.62757 0.23154 0.17114
 C2023 C 0.07549 0.75403 0.68790
 C2024 C 0.07987 0.74460 0.71149
 C2025 C 0.10265 0.74552 0.71782
 C2026 C 0.11854 0.75575 0.69984
 C2027 C 0.10821 0.77962 0.69401
 C2028 C 0.08546 0.77871 0.68770
 C2029 C 0.09158 0.74000 0.67301
 C2030 C 0.11427 0.74091 0.67931
 C2031 C 0.05159 0.75308 0.68018
 C2032 C 0.03299 0.75256 0.67116
 C2033 C 0.14280 0.75646 0.70648
 C2034 C 0.16265 0.75631 0.71251
 H2035 H 0.06637 0.73790 0.72224
 H2036 H 0.10875 0.73957 0.73406
 H2037 H 0.11785 0.79577 0.69482
 H2038 H 0.07552 0.79410 0.68310
 H2039 H 0.08565 0.73015 0.65877
 H2040 H 0.12786 0.73190 0.67049
 C2041 C 0.90435 0.73831 0.67103
 C2042 C 0.89987 0.75312 0.69148
 C2043 C 0.87719 0.75375 0.69731
 C2044 C 0.86129 0.73950 0.68211
 C2045 C 0.87165 0.71493 0.68256
 C2046 C 0.89442 0.71431 0.67669
 C2047 C 0.88825 0.74831 0.65273
 C2048 C 0.86550 0.74893 0.65859
 C2049 C 0.92863 0.73832 0.66491
 C2050 C 0.94856 0.73987 0.65971
 C2051 C 0.83725 0.74055 0.68897
 C2052 C 0.81806 0.74197 0.69622
 H2053 H 0.91333 0.76230 0.70059
 H2054 H 0.87117 0.76348 0.71145
 H2055 H 0.86197 0.69943 0.68701
 H2056 H 0.90434 0.69830 0.67611
 H2057 H 0.89419 0.75428 0.63660
 H2058 H 0.85188 0.75544 0.64752
 C2059 C 0.40426 0.23987 0.17158
 C2060 C 0.38977 0.25797 0.15856
 C2061 C 0.36707 0.25844 0.16448
 C2062 C 0.36124 0.24075 0.18280
 C2063 C 0.37811 0.24598 0.20201
 C2064 C 0.40079 0.24552 0.19610
 C2065 C 0.39176 0.21671 0.16798
 C2066 C 0.36899 0.21717 0.17393
 C2067 C 0.42853 0.24000 0.16538
 C2068 C 0.44845 0.24154 0.16015
 C2069 C 0.33721 0.24162 0.18972
 C2070 C 0.31801 0.24284 0.19697
 H2071 H 0.39673 0.26937 0.14576
 H2072 H 0.35449 0.27020 0.15680
 H2073 H 0.37272 0.24968 0.21882
 H2074 H 0.41488 0.24880 0.20780
 H2075 H 0.40000 0.20137 0.16137
 H2076 H 0.35764 0.20223 0.17241
 C2077 C 0.41750 0.76253 0.32603
 C2078 C 0.41187 0.75251 0.30317
 C2079 C 0.38919 0.75481 0.29712
 C2080 C 0.37437 0.76692 0.31454
 C2081 C 0.38648 0.79020 0.31866
 C2082 C 0.40927 0.78788 0.32474
 C2083 C 0.40078 0.75038 0.34207
 C2084 C 0.37803 0.75270 0.33601
 C2085 C 0.44183 0.75960 0.33224
 C2086 C 0.46181 0.75644 0.33719
 C2087 C 0.35022 0.76874 0.30734
 C2088 C 0.33093 0.76873 0.29964
 H2089 H 0.42459 0.74434 0.29262
 H2090 H 0.38244 0.74861 0.28136
 H2091 H 0.37792 0.80694 0.31704
 H2092 H 0.42032 0.80264 0.32833
 H2093 H 0.40633 0.74089 0.35692
 H2094 H 0.36401 0.74521 0.34563
 C2095 C 0.91712 0.26192 0.82690
 C2096 C 0.91166 0.25250 0.80376
 C2097 C 0.88900 0.25487 0.79766
 C2098 C 0.87404 0.26643 0.81530
 C2099 C 0.88601 0.28963 0.82007
 C2100 C 0.90879 0.28725 0.82621
 C2101 C 0.90037 0.24926 0.84256
 C2102 C 0.87763 0.25164 0.83643
 C2103 C 0.94142 0.25892 0.83317
 C2104 C 0.96139 0.25571 0.83817
 C2105 C 0.84991 0.26830 0.80804
 C2106 C 0.83064 0.26834 0.80029
 H2107 H 0.92447 0.24468 0.79309
 H2108 H 0.88236 0.24907 0.78171
 H2109 H 0.87740 0.30637 0.81882
 H2110 H 0.91975 0.30195 0.83022
 H2111 H 0.90587 0.23939 0.85720
 H2112 H 0.86360 0.24383 0.84580
 C2113 C 0.55450 0.99413 0.68097
 C2114 C 0.55282 1.01721 0.66801
 C2115 C 0.54241 1.01541 0.64768
 C2116 C 0.53463 0.99068 0.64219
 C2117 C 0.51895 0.98329 0.66151
 C2118 C 0.52941 0.98511 0.68194
 C2119 C 0.56703 0.97757 0.66537
 C2120 C 0.55662 0.97576 0.64504
 C2121 C 0.56646 0.99660 0.70255
 C2122 C 0.57764 0.99999 0.71930
 C2123 C 0.52415 0.98887 0.61985
 C2124 C 0.51726 0.98742 0.60089
 H2125 H 0.55921 1.03361 0.67430
 H2126 H 0.53988 1.03024 0.63659
 H2127 H 0.50124 0.97719 0.65934
 H2128 H 0.52068 0.98055 0.69726
 H2129 H 0.58269 0.96801 0.66993
 H2130 H 0.56338 0.96465 0.63220
 C2131 C 0.05440 0.49436 1.18049
 C2132 C 0.02898 0.48637 1.18163
 C2133 C 0.01845 0.48442 1.16125
 C2134 C 0.03441 0.49065 1.14179
 C2135 C 0.05580 0.47495 1.14503
 C2136 C 0.06628 0.47690 1.16532
 C2137 C 0.05364 0.51715 1.16697
 C2138 C 0.04316 0.51520 1.14669
 C2139 C 0.06643 0.49697 1.20202
 C2140 C 0.07764 0.50044 1.21874
 C2141 C 0.02386 0.48870 1.11950
 C2142 C 0.01693 0.48712 1.10056
 H2143 H 0.02007 0.48257 1.19704
 H2144 H 0.00052 0.47895 1.15921
 H2145 H 0.06212 0.46324 1.13249
 H2146 H 0.08154 0.46685 1.17014
 H2147 H 0.06067 0.53345 1.17287
 H2148 H 0.04123 0.52982 1.13525
 C2149 C -0.05609 -0.01069 1.17208
 C2150 C -0.06704 0.00549 1.15443
 C2151 C -0.05683 0.00427 1.13426
 C2152 C -0.03658 -0.01303 1.13352
 C2153 C -0.04685 -0.03620 1.14159
 C2154 C -0.05711 -0.03497 1.16188
 C2155 C -0.03017 -0.00432 1.17249
 C2156 C -0.01991 -0.00555 1.15221
 C2157 C -0.06771 -0.00870 1.19358
 C2158 C -0.07834 -0.00575 1.21047
 C2159 C -0.02626 -0.01358 1.11131
 C2160 C -0.01951 -0.01232 1.09242
 H2161 H -0.08160 0.01695 1.15751
 H2162 H -0.06268 0.01469 1.12010
 H2163 H -0.04604 -0.05216 1.13227
 H2164 H -0.06509 -0.04987 1.16991
 H2165 H -0.02071 0.00061 1.18740
 H2166 H -0.00167 -0.00167 1.14976
 C2167 C 0.44410 0.49063 0.67198
 C2168 C 0.44368 0.46610 0.66232
 C2169 C 0.45403 0.46463 0.64209
 C2170 C 0.46377 0.48785 0.63354
 C2171 C 0.48020 0.49615 0.65209
 C2172 C 0.46985 0.49761 0.67231
 C2173 C 0.43282 0.50614 0.65398
 C2174 C 0.44311 0.50469 0.63386
 C2175 C 0.43238 0.49285 0.69341
 C2176 C 0.42170 0.49592 0.71025
 C2177 C 0.47418 0.48705 0.61139
 C2178 C 0.48100 0.48814 0.59252
 H2179 H 0.43603 0.45119 0.67065
 H2180 H 0.45524 0.44848 0.63311
 H2181 H 0.49835 0.50039 0.64959
 H2182 H 0.47915 0.50311 0.68712
 H2183 H 0.41798 0.51734 0.65678
 H2184 H 0.43705 0.51465 0.61947
 C2185 C 0.45187 0.49659 -0.17550
 C2186 C 0.45022 0.52054 -0.16473
 C2187 C 0.46190 0.52205 -0.14501
 C2188 C 0.47415 0.49948 -0.13786
 C2189 C 0.48980 0.49333 -0.15744
 C2190 C 0.47806 0.49181 -0.17728
 C2191 C 0.44329 0.47947 -0.15773
 C2192 C 0.45496 0.48097 -0.13801
 C2193 C 0.43836 0.49553 -0.19635
 C2194 C 0.42564 0.49639 -0.21244
 C2195 C 0.48571 0.50100 -0.11601
 C2196 C 0.49277 0.50146 -0.09705
 H2197 H 0.44075 0.53512 -0.17204
 H2198 H 0.46243 0.53789 -0.13546
 H2199 H 0.50839 0.49044 -0.15586
 H2200 H 0.48659 0.48761 -0.19269
 H2201 H 0.42933 0.46714 -0.16042
 H2202 H 0.45095 0.46991 -0.12383
 C2203 C -0.04736 0.99518 0.32467
 C2204 C -0.02140 0.98919 0.32309
 C2205 C -0.00963 0.99069 0.34292
 C2206 C -0.02503 0.99804 0.36229
 C2207 C -0.04502 0.98040 0.36251
 C2208 C -0.05671 0.97891 0.34280
 C2209 C -0.04796 1.01945 0.33488
 C2210 C -0.03626 1.02095 0.35460
 C2211 C -0.06090 0.99412 0.30383
 C2212 C -0.07366 0.99499 0.28776
 C2213 C -0.01344 0.99956 0.38414
 C2214 C -0.00637 1.00005 0.40310
 H2215 H -0.01304 0.98422 0.30781
 H2216 H 0.00881 0.98702 0.34461
 H2217 H -0.04954 0.96990 0.37692
 H2218 H -0.07120 0.96714 0.34035
 H2219 H -0.05677 1.03425 0.32721
 H2220 H -0.03504 1.03699 0.36378
 C2221 C 0.05795 0.49687 0.33541
 C2222 C 0.03791 0.51421 0.33789
 C2223 C 0.02709 0.51268 0.35787
 C2224 C 0.03732 0.49394 0.37353
 C2225 C 0.06329 0.49974 0.37532
 C2226 C 0.07408 0.50128 0.35538
 C2227 C 0.04711 0.47296 0.34013
 C2228 C 0.03626 0.47142 0.36019
 C2229 C 0.07011 0.49918 0.31408
 C2230 C 0.08093 0.50227 0.29719
 C2231 C 0.02625 0.49311 0.39550
 C2232 C 0.01873 0.49432 0.41412
 H2233 H 0.03259 0.52655 0.32501
 H2234 H 0.01253 0.52370 0.36207
 H2235 H 0.07247 0.50235 0.39096
 H2236 H 0.09246 0.50520 0.35399
 H2237 H 0.04786 0.45856 0.32873
 H2238 H 0.02772 0.45571 0.36595
 C2239 C 0.55821 -0.00346 -0.16386
 C2240 C 0.56839 0.01289 -0.14639
 C2241 C 0.55770 0.01150 -0.12641
 C2242 C 0.53775 -0.00613 -0.12565
 C2243 C 0.54867 -0.02912 -0.13288
 C2244 C 0.55943 -0.02771 -0.15297
 C2245 C 0.53219 0.00248 -0.16501
 C2246 C 0.52144 0.00108 -0.14493
 C2247 C 0.57029 -0.00129 -0.18526
 C2248 C 0.58104 0.00174 -0.20219
 C2249 C 0.52676 -0.00682 -0.10364
 C2250 C 0.51926 -0.00549 -0.08501
 H2251 H 0.58282 0.02459 -0.14944
 H2252 H 0.56300 0.02201 -0.11240
 H2253 H 0.54794 -0.04508 -0.12315
 H2254 H 0.56790 -0.04249 -0.16040
 H2255 H 0.52299 0.00725 -0.18025
 H2256 H 0.50306 0.00465 -0.14301
 C2257 C 0.67933 0.58270 -0.00561
 C2258 C 0.68323 0.55753 -0.01281
 C2259 C 0.66315 0.54516 -0.01529
 C2260 C 0.64113 0.55916 -0.01035
 C2261 C 0.64240 0.58063 -0.02559
 C2262 C 0.66242 0.59297 -0.02311
 C2263 C 0.66513 0.58079 0.01571
 C2264 C 0.64509 0.56843 0.01323
 C2265 C 0.70073 0.59657 -0.00341
 C2266 C 0.71758 0.60909 -0.00331
 C2267 C 0.61921 0.54614 -0.01270
 C2268 C 0.60078 0.53608 -0.01329
 H2269 H 0.70024 0.55008 -0.01567
 H2270 H 0.66300 0.52714 -0.02030
 H2271 H 0.62879 0.58571 -0.03733
 H2272 H 0.66589 0.60861 -0.03276
 H2273 H 0.67036 0.58840 0.03139
 H2274 H 0.63318 0.56551 0.02683
 C2275 C 0.17988 1.08175 0.49439
 C2276 C 0.18371 1.05757 0.48460
 C2277 C 0.16375 1.04500 0.48217
 C2278 C 0.14189 1.05784 0.48973
 C2279 C 0.14176 1.08077 0.47652
 C2280 C 0.16166 1.09329 0.47895
 C2281 C 0.16720 1.07730 0.51628
 C2282 C 0.14727 1.06475 0.51384
 C2283 C 0.20114 1.09582 0.49654
 C2284 C 0.21785 1.10853 0.49662
 C2285 C 0.12008 1.04464 0.48743
 C2286 C 0.10169 1.03451 0.48688
 H2287 H 0.20061 1.05089 0.48004
 H2288 H 0.16358 1.02760 0.47550
 H2289 H 0.12731 1.08665 0.46613
 H2290 H 0.16418 1.10991 0.47063
 H2291 H 0.17335 1.08341 0.53228
 H2292 H 0.13638 1.06014 0.52781
 C2293 C 0.16980 -0.08581 1.00834
 C2294 C 0.15753 -0.08116 0.98593
 C2295 C 0.13721 -0.06922 0.98757
 C2296 C 0.13094 -0.06297 1.01147
 C2297 C 0.15221 -0.04977 1.02038
 C2298 C 0.17261 -0.06176 1.01874
 C2299 C 0.15154 -0.09818 1.02263
 C2300 C 0.13117 -0.08621 1.02427
 C2301 C 0.19165 -0.09900 1.00601
 C2302 C 0.20900 -0.11039 1.00297
 C2303 C 0.10874 -0.05017 1.01262
 C2304 C 0.09030 -0.03998 1.01220
 H2305 H 0.16425 -0.08676 0.97011
 H2306 H 0.12659 -0.06463 0.97313
 H2307 H 0.15131 -0.03255 1.02742
 H2308 H 0.18914 -0.05479 1.02437
 H2309 H 0.15441 -0.11486 1.03082
 H2310 H 0.11663 -0.09266 1.03385
 C2311 C 0.67000 0.41317 0.50857
 C2312 C 0.67300 0.43730 0.51876
 C2313 C 0.65267 0.44940 0.52044
 C2314 C 0.63128 0.43621 0.51177
 C2315 C 0.63149 0.41309 0.52475
 C2316 C 0.65179 0.40100 0.52308
 C2317 C 0.65759 0.41767 0.48621
 C2318 C 0.63734 0.42972 0.48788
 C2319 C 0.69177 0.39986 0.50620
 C2320 C 0.70907 0.38840 0.50315
 C2321 C 0.60915 0.44915 0.51296
 C2322 C 0.59078 0.45946 0.51254
 H2323 H 0.68960 0.44424 0.52422
 H2324 H 0.65190 0.46668 0.52734
 H2325 H 0.61699 0.40679 0.53449
 H2326 H 0.65464 0.38439 0.53138
 H2327 H 0.66416 0.41191 0.47038
 H2328 H 0.62663 0.43424 0.47348
 C2329 C -0.17124 0.41764 0.49908
 C2330 C -0.15855 0.42131 0.52131
 C2331 C -0.13844 0.43366 0.51940
 C2332 C -0.13291 0.44118 0.49544
 C2333 C -0.15460 0.45450 0.48729
 C2334 C -0.17472 0.44214 0.48920
 C2335 C -0.15311 0.40629 0.48413
 C2336 C -0.13303 0.41863 0.48223
 C2337 C -0.19275 0.40385 0.50067
 C2338 C -0.20971 0.39146 0.50037
 C2339 C -0.11103 0.45437 0.49366
 C2340 C -0.09293 0.46503 0.49340
 H2341 H -0.16481 0.41483 0.53715
 H2342 H -0.12752 0.43772 0.53365
 H2343 H -0.15420 0.47209 0.48062
 H2344 H -0.19151 0.44918 0.48418
 H2345 H -0.15583 0.38994 0.47575
 H2346 H -0.11862 0.41284 0.47224
 C2347 C 0.32894 -0.08136 -0.00053
 C2348 C 0.34677 -0.09231 -0.01605
 C2349 C 0.36691 -0.08005 -0.01783
 C2350 C 0.36739 -0.05797 -0.00393
 C2351 C 0.36213 -0.06625 0.01987
 C2352 C 0.34196 -0.07852 0.02165
 C2353 C 0.32550 -0.05653 -0.00961
 C2354 C 0.34569 -0.04425 -0.01139
 C2355 C 0.30735 -0.09506 0.00092
 C2356 C 0.29035 -0.10738 0.00049
 C2357 C 0.38933 -0.04485 -0.00559
 C2358 C 0.40746 -0.03424 -0.00580
 H2359 H 0.34382 -0.10834 -0.02491
 H2360 H 0.38114 -0.08559 -0.02819
 H2361 H 0.37328 -0.06274 0.03411
 H2362 H 0.33587 -0.08548 0.03738
 H2363 H 0.30870 -0.04923 -0.01420
 H2364 H 0.34613 -0.02646 -0.01752
 C2365 C 0.33472 1.08091 0.50891
 C2366 C 0.33836 1.07360 0.53338
 C2367 C 0.35748 1.05987 0.53701
 C2368 C 0.37107 1.05480 0.51582
 C2369 C 0.37668 1.07878 0.50584
 C2370 C 0.35765 1.09245 0.50222
 C2371 C 0.33405 1.05806 0.49613
 C2372 C 0.35310 1.04438 0.49975
 C2373 C 0.31429 1.09588 0.50452
 C2374 C 0.29796 1.10848 0.50021
 C2375 C 0.39196 1.04016 0.51893
 C2376 C 0.40957 1.02865 0.51950
 H2377 H 0.32695 1.07874 0.54666
 H2378 H 0.36240 1.05328 0.55338
 H2379 H 0.39414 1.08456 0.50200
 H2380 H 0.35884 1.10989 0.49529
 H2381 H 0.31982 1.05302 0.48523
 H2382 H 0.35513 1.02764 0.49194
 C2383 C -0.16561 0.58050 1.00885
 C2384 C -0.15884 0.57744 1.03351
 C2385 C -0.13977 0.56364 1.03707
 C2386 C -0.12933 0.55425 1.01562
 C2387 C -0.12457 0.57588 1.00122
 C2388 C -0.14356 0.58962 0.99768
 C2389 C -0.16857 0.55571 1.00024
 C2390 C -0.14955 0.54195 1.00379
 C2391 C -0.18599 0.59555 1.00453
 C2392 C -0.20226 0.60824 1.00024
 C2393 C -0.10848 0.53954 1.01866
 C2394 C -0.09089 0.52799 1.01919
 H2395 H -0.16821 0.58538 1.04698
 H2396 H -0.13283 0.55980 1.05356
 H2397 H -0.10769 0.58009 0.99442
 H2398 H -0.14290 0.60553 0.98785
 H2399 H -0.18427 0.54948 0.99213
 H2400 H -0.14900 0.52396 0.99871
 C2401 C -0.00615 0.68645 0.57709
 C2402 C -0.02199 0.66751 0.58656
 C2403 C -0.02252 0.64799 0.57422
 C2404 C -0.00715 0.64937 0.55365
 C2405 C 0.01718 0.65536 0.56248
 C2406 C 0.01770 0.67490 0.57483
 C2407 C -0.01489 0.69075 0.55318
 C2408 C -0.01542 0.67110 0.54076
 C2409 C -0.00534 0.70667 0.59121
 C2410 C -0.00417 0.72183 0.60456
 C2411 C -0.00754 0.62787 0.54136
 C2412 C -0.00758 0.60908 0.53312
 H2413 H -0.03204 0.66931 0.60159
 H2414 H -0.03301 0.63303 0.57866
 H2415 H 0.03265 0.64523 0.55921
 H2416 H 0.03363 0.68156 0.58218
 H2417 H -0.02016 0.70761 0.54662
 H2418 H -0.02115 0.67105 0.52351
 C2419 C 0.49364 0.18727 0.07754
 C2420 C 0.47761 0.16836 0.08677
 C2421 C 0.47715 0.14889 0.07437
 C2422 C 0.49277 0.15028 0.05396
 C2423 C 0.51701 0.15614 0.06307
 C2424 C 0.51747 0.17563 0.07550
 C2425 C 0.48519 0.19168 0.05355
 C2426 C 0.48473 0.17208 0.04106
 C2427 C 0.49440 0.20744 0.09173
 C2428 C 0.49559 0.22257 0.10511
 C2429 C 0.49246 0.12881 0.04160
 C2430 C 0.49251 0.11003 0.03336
 H2431 H 0.46740 0.17014 0.10170
 H2432 H 0.46654 0.13395 0.07864
 H2433 H 0.53248 0.14595 0.05994
 H2434 H 0.53335 0.18219 0.08304
 H2435 H 0.48007 0.20859 0.04700
 H2436 H 0.47921 0.17213 0.02375
 C2437 C -0.00268 0.17116 0.91165
 C2438 C 0.00969 0.14976 0.90265
 C2439 C 0.00917 0.13116 0.91670
 C2440 C -0.00366 0.13579 0.93836
 C2441 C -0.02790 0.14433 0.93109
 C2442 C -0.02738 0.16301 0.91698
 C2443 C 0.00892 0.17567 0.93429
 C2444 C 0.00840 0.15699 0.94840
 C2445 C -0.00164 0.19074 0.89620
 C2446 C 0.00033 0.20626 0.88291
 C2447 C -0.00388 0.11533 0.95277
 C2448 C -0.00350 0.09738 0.96306
 H2449 H 0.01812 0.14924 0.88663
 H2450 H 0.01717 0.11468 0.91272
 H2451 H -0.04400 0.13648 0.93659
 H2452 H -0.04303 0.17121 0.91035
 H2453 H 0.01676 0.19208 0.93885
 H2454 H 0.01578 0.15733 0.96507
 C2455 C 0.49909 0.67145 0.41203
 C2456 C 0.51115 0.67565 0.43452
 C2457 C 0.51056 0.65691 0.44854
 C2458 C 0.49798 0.63597 0.43859
 C2459 C 0.51036 0.63124 0.41670
 C2460 C 0.51095 0.64990 0.40274
 C2461 C 0.47436 0.66368 0.41770
 C2462 C 0.47377 0.64494 0.43173
 C2463 C 0.50021 0.69111 0.39667
 C2464 C 0.50224 0.70669 0.38346
 C2465 C 0.49768 0.61545 0.45292
 C2466 C 0.49798 0.59747 0.46316
 H2467 H 0.51934 0.69190 0.43904
 H2468 H 0.51822 0.65704 0.46511
 H2469 H 0.51802 0.61466 0.41252
 H2470 H 0.51910 0.64934 0.38659
 H2471 H 0.45875 0.67217 0.41135
 H2472 H 0.45763 0.63732 0.43743
 C2473 C 0.50697 0.82014 0.41385
 C2474 C 0.49121 0.83913 0.40382
 C2475 C 0.48973 0.85828 0.41663
 C2476 C 0.50416 0.85649 0.43817
 C2477 C 0.52898 0.85113 0.43080
 C2478 C 0.53046 0.83196 0.41798
 C2479 C 0.49725 0.81506 0.43703
 C2480 C 0.49576 0.83427 0.44988
 C2481 C 0.50863 0.79997 0.39974
 C2482 C 0.51014 0.78406 0.38726
 C2483 C 0.50262 0.87725 0.45151
 C2484 C 0.50141 0.89485 0.46178
 H2485 H 0.48196 0.83764 0.38807
 H2486 H 0.47921 0.87325 0.41189
 H2487 H 0.54406 0.86143 0.43532
 H2488 H 0.54682 0.82578 0.41147
 H2489 H 0.49201 0.79795 0.44281
 H2490 H 0.48924 0.83369 0.46672
 C2491 C 0.00580 0.31940 0.91362
 C2492 C -0.00999 0.33846 0.90375
 C2493 C -0.01128 0.35759 0.91661
 C2494 C 0.00335 0.35571 0.93803
 C2495 C 0.02807 0.35028 0.93044
 C2496 C 0.02937 0.33113 0.91756
 C2497 C -0.00372 0.31431 0.93687
 C2498 C -0.00502 0.33350 0.94977
 C2499 C 0.00725 0.29927 0.89943
 C2500 C 0.00860 0.28340 0.88688
 C2501 C 0.00199 0.37646 0.95140
 C2502 C 0.00087 0.39406 0.96169
 H2503 H -0.01938 0.33703 0.88808
 H2504 H -0.02178 0.37260 0.91198
 H2505 H 0.04323 0.36052 0.93483
 H2506 H 0.04564 0.32491 0.91090
 H2507 H -0.00896 0.29720 0.94266
 H2508 H -0.01138 0.33290 0.96667
 C2509 C 0.48644 0.33313 0.09137
 C2510 C 0.49934 0.32763 0.06990
 C2511 C 0.50217 0.34643 0.05630
 C2512 C 0.49179 0.36873 0.06560
 C2513 C 0.50314 0.37150 0.08857
 C2514 C 0.50032 0.35277 0.10213
 C2515 C 0.46338 0.34419 0.08379
 C2516 C 0.46620 0.36302 0.07015
 C2517 C 0.48436 0.31320 0.10618
 C2518 C 0.48494 0.29697 0.11877
 C2519 C 0.49521 0.38907 0.05157
 C2520 C 0.49842 0.40656 0.04114
 H2521 H 0.50560 0.31048 0.06572
 H2522 H 0.51085 0.34546 0.04043
 H2523 H 0.51255 0.38687 0.09375
 H2524 H 0.50731 0.35204 0.11897
 H2525 H 0.44642 0.33779 0.08861
 H2526 H 0.45165 0.37284 0.06323
 C2527 C -0.01419 0.83242 0.59177
 C2528 C -0.00071 0.82717 0.57057
 C2529 C 0.00217 0.84603 0.55708
 C2530 C -0.00874 0.86816 0.56621
 C2531 C 0.00203 0.87103 0.58941
 C2532 C -0.00083 0.85221 0.60287
 C2533 C -0.03723 0.84317 0.58373
 C2534 C -0.03435 0.86209 0.57020
 C2535 C -0.01627 0.81239 0.60646
 C2536 C -0.01562 0.79605 0.61892
 C2537 C -0.00523 0.88855 0.55227
 C2538 C -0.00187 0.90602 0.54184
 H2539 H 0.00589 0.81011 0.56648
 H2540 H 0.01123 0.84523 0.54141
 H2541 H 0.01110 0.88651 0.59482
 H2542 H 0.00577 0.85153 0.61985
 H2543 H -0.05421 0.83653 0.58819
 H2544 H -0.04888 0.87173 0.56300
 C2545 C 0.24448 0.30460 0.06930
 C2546 C 0.23689 0.27908 0.06827
 C2547 C 0.23502 0.26862 0.08870
 C2548 C 0.24095 0.28474 0.10809
 C2549 C 0.22490 0.30584 0.10471
 C2550 C 0.22676 0.31626 0.08437
 C2551 C 0.26726 0.30425 0.08287
 C2552 C 0.26540 0.29384 0.10320
 C2553 C 0.24699 0.31656 0.04772
 C2554 C 0.25039 0.32772 0.03095
 C2555 C 0.23908 0.27426 0.13042
 C2556 C 0.23754 0.26737 0.14939
 H2557 H 0.23327 0.27006 0.05290
 H2558 H 0.22982 0.25064 0.09082
 H2559 H 0.21303 0.31202 0.11720
 H2560 H 0.21648 0.33132 0.07946
 H2561 H 0.28349 0.31149 0.07697
 H2562 H 0.28003 0.29218 0.11468
 C2563 C 0.74443 0.80440 0.56913
 C2564 C 0.73708 0.77882 0.56799
 C2565 C 0.73518 0.76828 0.58839
 C2566 C 0.74083 0.78440 0.60785
 C2567 C 0.72461 0.80536 0.60442
 C2568 C 0.72650 0.81585 0.58412
 C2569 C 0.76712 0.80422 0.58283
 C2570 C 0.76523 0.79374 0.60312
 C2571 C 0.74699 0.81644 0.54759
 C2572 C 0.75043 0.82767 0.53087
 C2573 C 0.73893 0.77385 0.63015
 C2574 C 0.73741 0.76693 0.64911
 H2575 H 0.73365 0.76981 0.55258
 H2576 H 0.73013 0.75025 0.59043
 H2577 H 0.71259 0.81139 0.61685
 H2578 H 0.71611 0.83083 0.57918
 H2579 H 0.78333 0.81163 0.57705
 H2580 H 0.77980 0.79218 0.61468
 C2581 C 0.24047 0.69485 0.57801
 C2582 C 0.21730 0.70744 0.58169
 C2583 C 0.21593 0.71779 0.60195
 C2584 C 0.23788 0.71449 0.61646
 C2585 C 0.25787 0.72360 0.60216
 C2586 C 0.25923 0.71330 0.58197
 C2587 C 0.24296 0.67786 0.59772
 C2588 C 0.24160 0.68814 0.61785
 C2589 C 0.24260 0.68315 0.55657
 C2590 C 0.24561 0.67247 0.53973
 C2591 C 0.23718 0.72488 0.63863
 C2592 C 0.23830 0.73167 0.65750
 H2593 H 0.20326 0.70819 0.56949
 H2594 H 0.20073 0.72740 0.60709
 H2595 H 0.26985 0.73707 0.60738
 H2596 H 0.27238 0.71794 0.56993
 H2597 H 0.24550 0.65930 0.59602
 H2598 H 0.24298 0.67835 0.63336
 C2599 C 0.73937 0.19362 0.07848
 C2600 C 0.73814 0.22025 0.07715
 C2601 C 0.73696 0.23052 0.09745
 C2602 C 0.73714 0.21313 0.11702
 C2603 C 0.75911 0.19848 0.11392
 C2604 C 0.76027 0.18828 0.09375
 C2605 C 0.71806 0.18630 0.09195
 C2606 C 0.71688 0.19654 0.11220
 C2607 C 0.74131 0.18199 0.05699
 C2608 C 0.74423 0.17135 0.04011
 C2609 C 0.73663 0.22344 0.13922
 C2610 C 0.73790 0.23017 0.15811
 H2611 H 0.73811 0.23014 0.06168
 H2612 H 0.73593 0.24919 0.09935
 H2613 H 0.77265 0.19633 0.12650
 H2614 H 0.77480 0.17741 0.08911
 H2615 H 0.70498 0.17421 0.08606
 H2616 H 0.70280 0.19324 0.12364
 C2617 C 0.74503 0.20199 0.92575
 C2618 C 0.73902 0.22791 0.92725
 C2619 C 0.74051 0.23961 0.90738
 C2620 C 0.74786 0.22418 0.88805
 C2621 C 0.73021 0.20421 0.88793
 C2622 C 0.72873 0.19258 0.90768
 C2623 C 0.76933 0.20137 0.91551
 C2624 C 0.77081 0.21299 0.89575
 C2625 C 0.74400 0.18853 0.94666
 C2626 C 0.74491 0.17584 0.96278
 C2627 C 0.74937 0.23570 0.86616
 C2628 C 0.74986 0.24276 0.84719
 H2629 H 0.73405 0.23631 0.94251
 H2630 H 0.73683 0.25802 0.90562
 H2631 H 0.71968 0.19964 0.87355
 H2632 H 0.71695 0.17811 0.91020
 H2633 H 0.78415 0.19260 0.92319
 H2634 H 0.78687 0.21419 0.88654
 C2635 C 0.24579 0.70227 0.42523
 C2636 C 0.23955 0.72814 0.42668
 C2637 C 0.24094 0.73982 0.40679
 C2638 C 0.24845 0.72442 0.38749
 C2639 C 0.23099 0.70429 0.38740
 C2640 C 0.22960 0.69269 0.40717
 C2641 C 0.27011 0.70186 0.41501
 C2642 C 0.27150 0.71346 0.39523
 C2643 C 0.24486 0.68885 0.44616
 C2644 C 0.24584 0.67623 0.46232
 C2645 C 0.24986 0.73593 0.36559
 C2646 C 0.25027 0.74299 0.34662
 H2647 H 0.23449 0.73652 0.44192
 H2648 H 0.23709 0.75819 0.40500
 H2649 H 0.22052 0.69959 0.37302
 H2650 H 0.21796 0.67811 0.40971
 H2651 H 0.28501 0.69324 0.42271
 H2652 H 0.28756 0.71479 0.38602
 C2653 C 0.74745 0.80808 0.41421
 C2654 C 0.75468 0.78241 0.41525
 C2655 C 0.75337 0.77161 0.39523
 C2656 C 0.74496 0.78751 0.37607
 C2657 C 0.76162 0.80827 0.37643
 C2658 C 0.76293 0.81903 0.39637
 C2659 C 0.72292 0.80810 0.40383
 C2660 C 0.72161 0.79729 0.38378
 C2661 C 0.74952 0.82022 0.43555
 C2662 C 0.75246 0.83102 0.45244
 C2663 C 0.74436 0.77647 0.35411
 C2664 C 0.74574 0.76896 0.33550
 H2665 H 0.76023 0.77348 0.43041
 H2666 H 0.75779 0.75344 0.39326
 H2667 H 0.77157 0.81407 0.36219
 H2668 H 0.77398 0.83399 0.39915
 H2669 H 0.70790 0.81584 0.41157
 H2670 H 0.70547 0.79578 0.37438
 C2671 C 0.24654 0.30803 0.91424
 C2672 C 0.25357 0.28230 0.91524
 C2673 C 0.25201 0.27150 0.89523
 C2674 C 0.24356 0.28746 0.87613
 C2675 C 0.26039 0.30810 0.87636
 C2676 C 0.26195 0.31885 0.89629
 C2677 C 0.22192 0.30823 0.90405
 C2678 C 0.22035 0.29742 0.88401
 C2679 C 0.24887 0.32015 0.93557
 C2680 C 0.25200 0.33094 0.95245
 C2681 C 0.24271 0.27642 0.85417
 C2682 C 0.24394 0.26893 0.83555
 H2683 H 0.25917 0.27333 0.93036
 H2684 H 0.25627 0.25330 0.89323
 H2685 H 0.27026 0.31381 0.86205
 H2686 H 0.27313 0.33373 0.89898
 H2687 H 0.20703 0.31609 0.91190
 H2688 H 0.20413 0.29603 0.87474
 C2689 C 0.83150 0.42917 0.75580
 C2690 C 0.82879 0.41546 0.73428
 C2691 C 0.81637 0.39548 0.73677
 C2692 C 0.80782 0.39107 0.76056
 C2693 C 0.79413 0.41303 0.76634
 C2694 C 0.80657 0.43305 0.76385
 C2695 C 0.84221 0.41185 0.77268
 C2696 C 0.82981 0.39190 0.77516
 C2697 C 0.84544 0.45051 0.75359
 C2698 C 0.85804 0.46728 0.75346
 C2699 C 0.79474 0.36920 0.76292
 C2700 C 0.78466 0.35080 0.76349
 H2701 H 0.83593 0.42097 0.71847
 H2702 H 0.81291 0.38390 0.72304
 H2703 H 0.77626 0.41287 0.77189
 H2704 H 0.79933 0.45001 0.76724
 H2705 H 0.85819 0.41502 0.78191
 H2706 H 0.83516 0.37803 0.78650
 C2707 C 0.33170 0.92961 0.25584
 C2708 C 0.30734 0.93325 0.26538
 C2709 C 0.29490 0.91321 0.26776
 C2710 C 0.30803 0.89147 0.26037
 C2711 C 0.33084 0.89156 0.27379
 C2712 C 0.34324 0.91153 0.27142
 C2713 C 0.32760 0.91688 0.23394
 C2714 C 0.31518 0.89687 0.23631
 C2715 C 0.34563 0.95097 0.25375
 C2716 C 0.35820 0.96777 0.25371
 C2717 C 0.29494 0.86959 0.26260
 C2718 C 0.28487 0.85119 0.26310
 H2719 H 0.30046 0.95007 0.26984
 H2720 H 0.27740 0.91290 0.27426
 H2721 H 0.33674 0.87719 0.28427
 H2722 H 0.35977 0.91421 0.27989
 H2723 H 0.33384 0.92304 0.21798
 H2724 H 0.31082 0.88592 0.22233
 C2725 C 0.16344 0.92041 0.74163
 C2726 C 0.18730 0.92326 0.73077
 C2727 C 0.19938 0.90293 0.72906
 C2728 C 0.18644 0.88169 0.73839
 C2729 C 0.16293 0.88170 0.72602
 C2730 C 0.15088 0.90200 0.72772
 C2731 C 0.16858 0.90834 0.76405
 C2732 C 0.18061 0.88810 0.76235
 C2733 C 0.15016 0.94217 0.74403
 C2734 C 0.13871 0.95946 0.74711
 C2735 C 0.19934 0.85957 0.73717
 C2736 C 0.20961 0.84120 0.73759
 H2737 H 0.19409 0.93977 0.72488
 H2738 H 0.21648 0.90207 0.72172
 H2739 H 0.15637 0.86707 0.71667
 H2740 H 0.13401 0.90471 0.71982
 H2741 H 0.16325 0.91515 0.77993
 H2742 H 0.18554 0.87762 0.77679
 C2743 C 0.66525 0.41965 0.24257
 C2744 C 0.68931 0.42229 0.23208
 C2745 C 0.70113 0.40181 0.23032
 C2746 C 0.68774 0.38066 0.23923
 C2747 C 0.66443 0.38114 0.22653
 C2748 C 0.65263 0.40159 0.22828
 C2749 C 0.66987 0.40726 0.26493
 C2750 C 0.68163 0.38687 0.26318
 C2751 C 0.65224 0.44157 0.24502
 C2752 C 0.64101 0.45900 0.24811
 C2753 C 0.70036 0.35838 0.23796
 C2754 C 0.71042 0.33989 0.23833
 H2755 H 0.69642 0.43876 0.22647
 H2756 H 0.71832 0.40079 0.22321
 H2757 H 0.65781 0.36672 0.21692
 H2758 H 0.63593 0.40464 0.22017
 H2759 H 0.66439 0.41395 0.28080
 H2760 H 0.68619 0.37615 0.27756
 C2761 C 0.66998 0.57891 0.25114
 C2762 C 0.65648 0.59872 0.26197
 C2763 C 0.66876 0.61882 0.26373
 C2764 C 0.69342 0.61729 0.25451
 C2765 C 0.69011 0.60904 0.23048
 C2766 C 0.67781 0.58891 0.22872
 C2767 C 0.69239 0.57648 0.26514
 C2768 C 0.70469 0.59662 0.26690
 C2769 C 0.65625 0.55736 0.24971
 C2770 C 0.64390 0.54038 0.25017
 C2771 C 0.70656 0.63920 0.25616
 C2772 C 0.71716 0.65732 0.25635
 H2773 H 0.63877 0.59708 0.26776
 H2774 H 0.66156 0.63433 0.27103
 H2775 H 0.69689 0.61822 0.21610
 H2776 H 0.67408 0.58088 0.21287
 H2777 H 0.69812 0.56033 0.27294
 H2778 H 0.72092 0.59770 0.27622
 C2779 C 0.16793 0.07906 0.75086
 C2780 C 0.15650 0.09720 0.76572
 C2781 C 0.16881 0.11727 0.76756
 C2782 C 0.19143 0.11739 0.75438
 C2783 C 0.18396 0.11177 0.73043
 C2784 C 0.17163 0.09167 0.72859
 C2785 C 0.19244 0.07565 0.76079
 C2786 C 0.20478 0.09577 0.76262
 C2787 C 0.15415 0.05755 0.74935
 C2788 C 0.14177 0.04060 0.74972
 C2789 C 0.20460 0.13926 0.75609
 C2790 C 0.21523 0.15735 0.75632
 H2791 H 0.14011 0.09448 0.77410
 H2792 H 0.16297 0.13169 0.77749
 H2793 H 0.18804 0.12264 0.71614
 H2794 H 0.16518 0.08535 0.71276
 H2795 H 0.19950 0.05890 0.76587
 H2796 H 0.22237 0.09622 0.76931
 C2797 C 0.33029 0.08471 0.24144
 C2798 C 0.33226 0.09523 0.21792
 C2799 C 0.31858 0.11436 0.21433
 C2800 C 0.30426 0.12113 0.23461
 C2801 C 0.32218 0.12387 0.25350
 C2802 C 0.33580 0.10482 0.25707
 C2803 C 0.30423 0.08006 0.24439
 C2804 C 0.29058 0.09916 0.24081
 C2805 C 0.34522 0.06426 0.24578
 C2806 C 0.35781 0.04792 0.25009
 C2807 C 0.28966 0.14205 0.23153
 C2808 C 0.27818 0.15967 0.23096
 H2809 H 0.34337 0.08823 0.20520
 H2810 H 0.31801 0.12372 0.19857
 H2811 H 0.32405 0.13949 0.26324
 H2812 H 0.34927 0.10417 0.26985
 H2813 H 0.29712 0.06322 0.24885
 H2814 H 0.27180 0.09864 0.24220
 C2815 C 0.83031 0.58422 0.74099
 C2816 C 0.82359 0.59665 0.76234
 C2817 C 0.80999 0.61570 0.75878
 C2818 C 0.80429 0.62065 0.73418
 C2819 C 0.79341 0.59808 0.72567
 C2820 C 0.80707 0.57894 0.72924
 C2821 C 0.84168 0.60305 0.72646
 C2822 C 0.82803 0.62217 0.72289
 C2823 C 0.84523 0.56376 0.74533
 C2824 C 0.85781 0.54742 0.74964
 C2825 C 0.78971 0.64158 0.73111
 C2826 C 0.77826 0.65922 0.73056
 H2827 H 0.82905 0.59096 0.77887
 H2828 H 0.80383 0.62628 0.77229
 H2829 H 0.77651 0.59721 0.71751
 H2830 H 0.80185 0.56171 0.72414
 H2831 H 0.85892 0.60147 0.71953
 H2832 H 0.83361 0.63692 0.71291
 C2833 C 0.93812 0.74379 0.17169
 C2834 C 0.92655 0.76762 0.17387
 C2835 C 0.90718 0.76719 0.18653
 C2836 C 0.90136 0.74298 0.19571
 C2837 C 0.92332 0.73489 0.20836
 C2838 C 0.94280 0.73532 0.19563
 C2839 C 0.91904 0.72783 0.16268
 C2840 C 0.89970 0.72741 0.17532
 C2841 C 0.95813 0.74449 0.15726
 C2842 C 0.97311 0.74557 0.14367
 C2843 C 0.88001 0.74269 0.20830
 C2844 C 0.86126 0.74272 0.21669
 H2845 H 0.93308 0.78346 0.16626
 H2846 H 0.89707 0.78266 0.18979
 H2847 H 0.92356 0.72936 0.22567
 H2848 H 0.95979 0.73016 0.20199
 H2849 H 0.92062 0.71764 0.14774
 H2850 H 0.88467 0.71685 0.17122
 C2851 C 0.43675 0.24390 0.67258
 C2852 C 0.42515 0.26772 0.67477
 C2853 C 0.40569 0.26723 0.68729
 C2854 C 0.39981 0.24299 0.69634
 C2855 C 0.42167 0.23485 0.70911
 C2856 C 0.44125 0.23533 0.69652
 C2857 C 0.41773 0.22798 0.66338
 C2858 C 0.39830 0.22750 0.67588
 C2859 C 0.45687 0.24466 0.65829
 C2860 C 0.47194 0.24581 0.64480
 C2861 C 0.37836 0.24265 0.70879
 C2862 C 0.35956 0.24265 0.71708
 H2863 H 0.43173 0.28359 0.66726
 H2864 H 0.39554 0.28269 0.69053
 H2865 H 0.42178 0.22925 0.72640
 H2866 H 0.45820 0.23015 0.70297
 H2867 H 0.41943 0.21785 0.64841
 H2868 H 0.38330 0.21696 0.67164
 C2869 C 0.42128 0.74889 0.83853
 C2870 C 0.42569 0.76063 0.81592
 C2871 C 0.40695 0.76011 0.80188
 C2872 C 0.38581 0.74790 0.81193
 C2873 C 0.38116 0.76056 0.83367
 C2874 C 0.39982 0.76108 0.84765
 C2875 C 0.41323 0.72422 0.83311
 C2876 C 0.39449 0.72369 0.81906
 C2877 C 0.44094 0.74992 0.85391
 C2878 C 0.45651 0.75186 0.86715
 C2879 C 0.36529 0.74767 0.79756
 C2880 C 0.34733 0.74803 0.78728
 H2881 H 0.44207 0.76857 0.81134
 H2882 H 0.40722 0.76758 0.78523
 H2883 H 0.36463 0.76844 0.83774
 H2884 H 0.39931 0.76940 0.86371
 H2885 H 0.42153 0.70859 0.83964
 H2886 H 0.38669 0.70761 0.81352
 C2887 C 0.92116 0.24612 0.33922
 C2888 C 0.92563 0.25780 0.31659
 C2889 C 0.90690 0.25733 0.30254
 C2890 C 0.88569 0.24524 0.31260
 C2891 C 0.88109 0.25797 0.33431
 C2892 C 0.89974 0.25844 0.34830
 C2893 C 0.91299 0.22148 0.33385
 C2894 C 0.89426 0.22101 0.31979
 C2895 C 0.94081 0.24713 0.35460
 C2896 C 0.95643 0.24909 0.36779
 C2897 C 0.86519 0.24508 0.29821
 C2898 C 0.84724 0.24553 0.28791
 H2899 H 0.94205 0.26565 0.31201
 H2900 H 0.90721 0.26476 0.28588
 H2901 H 0.86460 0.26594 0.33835
 H2902 H 0.89926 0.26680 0.36435
 H2903 H 0.92122 0.20583 0.34042
 H2904 H 0.88639 0.20495 0.31427
 C2905 C 0.06765 0.25686 0.33398
 C2906 C 0.08625 0.24071 0.34414
 C2907 C 0.10576 0.23931 0.33176
 C2908 C 0.10469 0.25421 0.31048
 C2909 C 0.09936 0.27887 0.31820
 C2910 C 0.07984 0.28027 0.33059
 C2911 C 0.06309 0.24772 0.31051
 C2912 C 0.08266 0.24631 0.29809
 C2913 C 0.04714 0.25841 0.34771
 C2914 C 0.03108 0.25982 0.36008
 C2915 C 0.12582 0.25273 0.29761
 C2916 C 0.14367 0.25152 0.28766
 H2917 H 0.08424 0.23116 0.35967
 H2918 H 0.12051 0.22857 0.33666
 H2919 H 0.10995 0.29391 0.31424
 H2920 H 0.07364 0.29652 0.33728
 H2921 H 0.04606 0.24281 0.30422
 H2922 H 0.08246 0.24019 0.28111
 C2923 C 0.56996 0.75654 0.83662
 C2924 C 0.58884 0.74040 0.84630
 C2925 C 0.60798 0.73903 0.83341
 C2926 C 0.60630 0.75393 0.81216
 C2927 C 0.60118 0.77859 0.82002
 C2928 C 0.58202 0.77996 0.83292
 C2929 C 0.56475 0.74739 0.81327
 C2930 C 0.58395 0.74601 0.80034
 C2931 C 0.54981 0.75807 0.85083
 C2932 C 0.53391 0.75950 0.86338
 C2933 C 0.62705 0.75249 0.79874
 C2934 C 0.64465 0.75132 0.78841
 H2935 H 0.58728 0.73084 0.86188
 H2936 H 0.62287 0.72829 0.83792
 H2937 H 0.61163 0.79364 0.81578
 H2938 H 0.57600 0.79620 0.83977
 H2939 H 0.54756 0.74246 0.80742
 H2940 H 0.58327 0.73989 0.78337
 C2941 C 0.58235 0.23622 0.65802
 C2942 C 0.57675 0.24910 0.67946
 C2943 C 0.59550 0.25191 0.69312
 C2944 C 0.61787 0.24154 0.68390
 C2945 C 0.62076 0.25289 0.66094
 C2946 C 0.60206 0.25009 0.64731
 C2947 C 0.59338 0.21318 0.66565
 C2948 C 0.61218 0.21600 0.67935
 C2949 C 0.56244 0.23417 0.64316
 C2950 C 0.54619 0.23477 0.63058
 C2951 C 0.63817 0.24496 0.69801
 C2952 C 0.65561 0.24818 0.70853
 H2953 H 0.55955 0.25536 0.68358
 H2954 H 0.59446 0.26058 0.70898
 H2955 H 0.63618 0.26229 0.65581
 H2956 H 0.60141 0.25707 0.63046
 H2957 H 0.58699 0.19625 0.66081
 H2958 H 0.62197 0.20146 0.68631
 C2959 C 0.08302 0.73613 0.15704
 C2960 C 0.09502 0.71326 0.16369
 C2961 C 0.11367 0.71623 0.17754
 C2962 C 0.11827 0.74174 0.18321
 C2963 C 0.09548 0.75067 0.19283
 C2964 C 0.07686 0.74771 0.17902
 C2965 C 0.10213 0.75133 0.14697
 C2966 C 0.12068 0.75428 0.16075
 C2967 C 0.06326 0.73391 0.14202
 C2968 C 0.04711 0.73438 0.12933
 C2969 C 0.13843 0.74530 0.19745
 C2970 C 0.15581 0.74859 0.20804
 H2971 H 0.08937 0.69633 0.15811
 H2972 H 0.12407 0.70181 0.18388
 H2973 H 0.09406 0.75851 0.20906
 H2974 H 0.05941 0.75301 0.18338
 H2975 H 0.10118 0.75907 0.13044
 H2976 H 0.13567 0.76457 0.15605
   
