data_POSCAR
  _audit_creation_date              2014-09-24
  _audit_creation_method            'ToBaCCo'
  _symmetry_space_group_name_H-M    'P1'
  _symmetry_Int_Tables_number       1
  _symmetry_cell_setting            triclinic
  loop_
  _symmetry_equiv_pos_as_xyz
 x,y,z
_cell_length_a 51.0085
_cell_length_b 34.8793
_cell_length_c 36.0032
_cell_angle_alpha 89.924000
_cell_angle_beta 89.946300
_cell_angle_gamma 89.981300
loop_
  _atom_site_label
  _atom_site_type_symbol
  _atom_site_fract_x
  _atom_site_fract_y
  _atom_site_fract_z
C1 C 0.00120 -0.00042 0.11948
 C2 C 0.00077 -0.00015 -0.12356
 C3 C -0.05978 -0.06311 0.05518
 C4 C -0.05976 0.06237 0.05522
 C5 C -0.05986 -0.06319 -0.05818
 C6 C 0.06097 -0.05987 -0.06209
 C7 C 0.06095 0.05925 -0.06207
 C8 C 0.06094 -0.05963 0.05786
 C9 C -0.05982 0.06277 -0.05805
 C10 C 0.06098 0.05890 0.05783
 O11 O -0.03589 -0.07150 -0.06659
 O12 O -0.06714 -0.03709 -0.03499
 O13 O -0.03585 0.07108 -0.06649
 O14 O -0.06712 0.03660 -0.03492
 O15 O 0.03703 0.06726 0.06623
 O16 O 0.06820 0.03480 0.03266
 O17 O 0.00055 0.03251 -0.10701
 O18 O 0.00056 -0.03288 -0.10703
 O19 O 0.00092 0.03233 0.10299
 O20 O 0.00090 -0.03315 0.10304
 O21 O 0.03697 -0.06818 -0.07024
 O22 O 0.06818 -0.03559 -0.03709
 O23 O -0.03578 -0.07130 0.06352
 O24 O -0.06710 -0.03717 0.03177
 O25 O 0.03701 -0.06803 0.06626
 O26 O 0.06818 -0.03553 0.03266
 O27 O 0.03696 0.06762 -0.07023
 O28 O 0.06818 0.03492 -0.03708
 O29 O 0.00190 0.10718 0.05354
 O30 O 0.00145 0.10710 -0.05874
 O31 O 0.00144 -0.10765 -0.05868
 O32 O 0.00190 -0.10793 0.05371
 O33 O -0.02212 -0.05077 -0.00189
 O34 O -0.02212 0.05011 -0.00190
 O35 O 0.02287 -0.05047 -0.00206
 O36 O -0.02333 -0.00036 0.04759
 O37 O -0.06709 0.03650 0.03181
 O38 O -0.03575 0.07052 0.06351
 O39 O 0.02463 -0.00039 0.04760
 O40 O 0.02457 -0.00029 -0.05193
 O41 O 0.02289 0.04979 -0.00208
 O42 O -0.02346 -0.00026 -0.05133
 Zr43 Zr 0.00058 0.04719 0.04628
 Zr44 Zr 0.00049 -0.04782 -0.05029
 Zr45 Zr -0.04451 -0.00032 -0.00173
 Zr46 Zr 0.00056 -0.04794 0.04631
 Zr47 Zr 0.00050 0.04726 -0.05028
 Zr48 Zr 0.04553 -0.00035 -0.00220
 H49 H 0.03345 -0.07426 -0.00204
 H50 H -0.03499 -0.00039 0.06956
 H51 H 0.03347 0.07357 -0.00207
 H52 H -0.03522 -0.00021 -0.07318
 H53 H -0.00425 0.11823 0.02978
 H54 H 0.00240 0.11848 -0.03364
 H55 H -0.00415 -0.11897 0.02992
 H56 H 0.00213 -0.11907 -0.03355
 C57 C 0.25050 0.24956 0.12775
 C58 C 0.25019 0.25002 0.37079
 C59 C 0.18946 0.31274 0.19254
 C60 C 0.18954 0.18699 0.19249
 C61 C 0.18925 0.31255 0.30599
 C62 C 0.31002 0.30970 0.30889
 C63 C 0.31007 0.19007 0.30898
 C64 C 0.31015 0.30964 0.18991
 C65 C 0.18938 0.18691 0.30574
 C66 C 0.31032 0.18985 0.18994
 O67 O 0.21323 0.32073 0.31442
 O68 O 0.18199 0.28664 0.28257
 O69 O 0.21335 0.17862 0.31410
 O70 O 0.18206 0.21299 0.28252
 O71 O 0.28636 0.18160 0.18149
 O72 O 0.31748 0.21437 0.21476
 O73 O 0.24990 0.21730 0.35436
 O74 O 0.24991 0.28274 0.35427
 O75 O 0.25025 0.21688 0.14433
 O76 O 0.25015 0.28228 0.14420
 O77 O 0.28604 0.31797 0.31724
 O78 O 0.31730 0.28524 0.28408
 O79 O 0.21346 0.32100 0.18426
 O80 O 0.18210 0.28665 0.21575
 O81 O 0.28622 0.31793 0.18145
 O82 O 0.31739 0.28516 0.21471
 O83 O 0.28611 0.18174 0.31731
 O84 O 0.31735 0.21454 0.28415
 O85 O 0.25105 0.14224 0.19360
 O86 O 0.25057 0.14254 0.30633
 O87 O 0.25076 0.35740 0.30486
 O88 O 0.25064 0.35708 0.19220
 O89 O 0.22705 0.30027 0.24915
 O90 O 0.22712 0.19940 0.24933
 O91 O 0.27200 0.29989 0.24923
 O92 O 0.22588 0.24974 0.19976
 O93 O 0.18216 0.21295 0.21579
 O94 O 0.21354 0.17880 0.18416
 O95 O 0.27392 0.24976 0.19949
 O96 O 0.27375 0.24989 0.29914
 O97 O 0.27207 0.19970 0.24942
 O98 O 0.22572 0.24986 0.29872
 Zr99 Zr 0.24986 0.20220 0.20108
 Zr100 Zr 0.24963 0.29742 0.29750
 Zr101 Zr 0.20468 0.24983 0.24920
 Zr102 Zr 0.24977 0.29727 0.20089
 Zr103 Zr 0.24969 0.20235 0.29767
 Zr104 Zr 0.29472 0.24981 0.24936
 H105 H 0.28250 0.32375 0.24925
 H106 H 0.21422 0.24978 0.17780
 H107 H 0.28259 0.17586 0.24946
 H108 H 0.21401 0.24980 0.32064
 H109 H 0.24555 0.13113 0.21766
 H110 H 0.25079 0.13104 0.28125
 H111 H 0.25093 0.36858 0.21728
 H112 H 0.24512 0.36846 0.28085
 C113 C 0.49994 -0.00157 0.12135
 C114 C 0.49977 -0.00181 -0.12097
 C115 C 0.56124 0.06058 0.05721
 C116 C 0.56126 -0.06404 0.05762
 C117 C 0.56123 0.06081 -0.05734
 C118 C 0.44030 0.05820 -0.05915
 C119 C 0.44031 -0.06155 -0.05899
 C120 C 0.44044 0.05835 0.05994
 C121 C 0.56117 -0.06434 -0.05711
 C122 C 0.44027 -0.06169 0.06035
 O123 O 0.53717 0.06912 -0.06537
 O124 O 0.56852 0.03495 -0.03379
 O125 O 0.53712 -0.07268 -0.06508
 O126 O 0.56848 -0.03852 -0.03363
 O127 O 0.46431 -0.06992 0.06856
 O128 O 0.43309 -0.03716 0.03545
 O129 O 0.50016 -0.03453 -0.10452
 O130 O 0.50017 0.03092 -0.10464
 O131 O 0.50028 -0.03435 0.10509
 O132 O 0.50033 0.03114 0.10487
 O133 O 0.46427 0.06649 -0.06757
 O134 O 0.43307 0.03367 -0.03431
 O135 O 0.53724 0.06881 0.06562
 O136 O 0.56854 0.03494 0.03352
 O137 O 0.46444 0.06661 0.06816
 O138 O 0.43315 0.03379 0.03524
 O139 O 0.46427 -0.06993 -0.06734
 O140 O 0.43307 -0.03706 -0.03420
 O141 O 0.49975 -0.10933 0.05591
 O142 O 0.50010 -0.10924 -0.05595
 O143 O 0.50014 0.10570 -0.05642
 O144 O 0.49980 0.10592 0.05539
 O145 O 0.52357 0.04875 0.00002
 O146 O 0.52353 -0.05225 0.00027
 O147 O 0.47843 0.04837 0.00018
 O148 O 0.52469 -0.00173 0.04942
 O149 O 0.56851 -0.03848 0.03373
 O150 O 0.53724 -0.07219 0.06602
 O151 O 0.47674 -0.00168 0.05005
 O152 O 0.47668 -0.00175 -0.04937
 O153 O 0.47841 -0.05186 0.00042
 O154 O 0.52466 -0.00179 -0.04928
 Zr155 Zr 0.50079 -0.04933 0.04854
 Zr156 Zr 0.50078 0.04582 -0.04808
 Zr157 Zr 0.54594 -0.00177 0.00002
 Zr158 Zr 0.50084 0.04590 0.04827
 Zr159 Zr 0.50076 -0.04935 -0.04787
 Zr160 Zr 0.45572 -0.00173 0.00046
 H161 H 0.46793 0.07223 0.00023
 H162 H 0.53630 -0.00170 0.07141
 H163 H 0.46788 -0.07568 0.00056
 H164 H 0.53626 -0.00180 -0.07132
 H165 H 0.50634 -0.12030 0.03236
 H166 H 0.49871 -0.12052 -0.03082
 H167 H 0.50634 0.11684 0.03178
 H168 H 0.49864 0.11702 -0.03135
 C169 C 0.75140 0.24915 0.12940
 C170 C 0.75103 0.24890 0.37171
 C171 C 0.69009 0.31135 0.19308
 C172 C 0.69031 0.18658 0.19317
 C173 C 0.69000 0.31144 0.30745
 C174 C 0.81078 0.30858 0.31042
 C175 C 0.81106 0.18954 0.31054
 C176 C 0.81083 0.30860 0.19051
 C177 C 0.69026 0.18630 0.30735
 C178 C 0.81107 0.18983 0.19042
 O179 O 0.71399 0.31986 0.31564
 O180 O 0.68274 0.28558 0.28400
 O181 O 0.71424 0.17791 0.31555
 O182 O 0.68290 0.21218 0.28394
 O183 O 0.78710 0.18141 0.18218
 O184 O 0.81828 0.21397 0.21555
 O185 O 0.75081 0.21619 0.35532
 O186 O 0.75069 0.28164 0.35531
 O187 O 0.75111 0.21638 0.14578
 O188 O 0.75100 0.28188 0.14576
 O189 O 0.78679 0.31694 0.31860
 O190 O 0.81812 0.28434 0.28545
 O191 O 0.71409 0.31961 0.18475
 O192 O 0.68280 0.28566 0.21678
 O193 O 0.78686 0.31693 0.18224
 O194 O 0.81814 0.28442 0.21560
 O195 O 0.78706 0.18111 0.31868
 O196 O 0.81826 0.21387 0.28549
 O197 O 0.75194 0.14143 0.19535
 O198 O 0.75141 0.14151 0.30695
 O199 O 0.75110 0.35644 0.30684
 O200 O 0.75165 0.35672 0.19525
 O201 O 0.72769 0.29952 0.25048
 O202 O 0.72786 0.19851 0.25052
 O203 O 0.77284 0.29919 0.25052
 O204 O 0.72671 0.24901 0.20116
 O205 O 0.68293 0.21221 0.21682
 O206 O 0.71433 0.17841 0.18485
 O207 O 0.77460 0.24913 0.20093
 O208 O 0.77454 0.24904 0.30025
 O209 O 0.77302 0.19888 0.25054
 O210 O 0.72658 0.24891 0.29984
 Zr211 Zr 0.75065 0.20146 0.20237
 Zr212 Zr 0.75039 0.29656 0.29869
 Zr213 Zr 0.70542 0.24897 0.25043
 Zr214 Zr 0.75048 0.29668 0.20234
 Zr215 Zr 0.75058 0.20139 0.29871
 Zr216 Zr 0.79558 0.24908 0.25056
 H217 H 0.78338 0.32301 0.25047
 H218 H 0.71510 0.24902 0.17916
 H219 H 0.78364 0.17513 0.25050
 H220 H 0.71490 0.24887 0.32179
 H221 H 0.74513 0.13050 0.21882
 H222 H 0.75325 0.13024 0.28191
 H223 H 0.74476 0.36760 0.21866
 H224 H 0.75276 0.36775 0.28176
 C225 C 0.00020 0.50039 0.12079
 C226 C 0.00007 0.50047 -0.12224
 C227 C -0.06061 0.43752 0.05625
 C228 C -0.06073 0.56311 0.05613
 C229 C -0.06070 0.43737 -0.05705
 C230 C 0.06005 0.44111 -0.06042
 C231 C 0.05994 0.55992 -0.06058
 C232 C 0.06007 0.44111 0.05932
 C233 C -0.06076 0.56334 -0.05709
 C234 C 0.06002 0.56002 0.05925
 O235 O -0.03670 0.42912 -0.06536
 O236 O -0.06803 0.46348 -0.03388
 O237 O -0.03679 0.57168 -0.06542
 O238 O -0.06807 0.53719 -0.03392
 O239 O 0.03604 0.56833 0.06757
 O240 O 0.06727 0.53581 0.03418
 O241 O -0.00024 0.53315 -0.10573
 O242 O -0.00017 0.46776 -0.10567
 O243 O -0.00011 0.53314 0.10432
 O244 O -0.00007 0.46767 0.10436
 O245 O 0.03611 0.43268 -0.06870
 O246 O 0.06729 0.46535 -0.03544
 O247 O -0.03663 0.42941 0.06466
 O248 O -0.06798 0.46345 0.03288
 O249 O 0.03612 0.43269 0.06765
 O250 O 0.06729 0.46533 0.03422
 O251 O 0.03598 0.56829 -0.06886
 O252 O 0.06722 0.53572 -0.03553
 O253 O 0.00083 0.60796 0.05504
 O254 O 0.00048 0.60781 -0.05745
 O255 O 0.00066 0.39307 -0.05722
 O256 O 0.00104 0.39291 0.05526
 O257 O -0.02300 0.44995 -0.00057
 O258 O -0.02307 0.55082 -0.00065
 O259 O 0.02200 0.45036 -0.00063
 O260 O -0.02428 0.50040 0.04881
 O261 O -0.06804 0.53716 0.03281
 O262 O -0.03676 0.57131 0.06453
 O263 O 0.02370 0.50047 0.04911
 O264 O 0.02368 0.50047 -0.05043
 O265 O 0.02192 0.55062 -0.00072
 O266 O -0.02436 0.50041 -0.05012
 Zr267 Zr -0.00039 0.54800 0.04759
 Zr268 Zr -0.00037 0.45291 -0.04890
 Zr269 Zr -0.04543 0.50035 -0.00058
 Zr270 Zr -0.00032 0.45287 0.04766
 Zr271 Zr -0.00044 0.54796 -0.04898
 Zr272 Zr 0.04461 0.50052 -0.00064
 H273 H 0.03258 0.42657 -0.00057
 H274 H -0.03596 0.50036 0.07076
 H275 H 0.03247 0.57443 -0.00072
 H276 H -0.03607 0.50040 -0.07201
 H277 H -0.00498 0.61908 0.03114
 H278 H 0.00089 0.61920 -0.03233
 H279 H -0.00475 0.38178 0.03139
 H280 H 0.00103 0.38167 -0.03207
 C281 C 0.25095 0.75075 0.12850
 C282 C 0.25058 0.75111 0.37085
 C283 C 0.18999 0.81381 0.19266
 C284 C 0.18964 0.68835 0.19273
 C285 C 0.18969 0.81406 0.30602
 C286 C 0.31042 0.81069 0.30903
 C287 C 0.31034 0.69093 0.30927
 C288 C 0.31083 0.81065 0.18983
 C289 C 0.18956 0.68818 0.30639
 C290 C 0.31038 0.69085 0.19025
 O291 O 0.21369 0.82233 0.31423
 O292 O 0.18236 0.78795 0.28289
 O293 O 0.21355 0.67987 0.31467
 O294 O 0.18228 0.71426 0.28309
 O295 O 0.28642 0.68263 0.18190
 O296 O 0.31768 0.71533 0.21498
 O297 O 0.25025 0.71836 0.35454
 O298 O 0.25031 0.78380 0.35436
 O299 O 0.25052 0.71804 0.14495
 O300 O 0.25070 0.78351 0.14477
 O301 O 0.28646 0.81910 0.31729
 O302 O 0.31772 0.78615 0.28433
 O303 O 0.21399 0.82190 0.18427
 O304 O 0.18255 0.78795 0.21607
 O305 O 0.28685 0.81897 0.18145
 O306 O 0.31795 0.78615 0.21478
 O307 O 0.28635 0.68271 0.31760
 O308 O 0.31766 0.71542 0.28446
 O309 O 0.25112 0.64332 0.19422
 O310 O 0.25070 0.64360 0.30653
 O311 O 0.25090 0.85840 0.30600
 O312 O 0.25154 0.85842 0.19346
 O313 O 0.22746 0.80142 0.24944
 O314 O 0.22727 0.70049 0.24975
 O315 O 0.27252 0.80104 0.24953
 O316 O 0.22625 0.75100 0.20024
 O317 O 0.18234 0.71428 0.21612
 O318 O 0.21364 0.68012 0.18439
 O319 O 0.27423 0.75078 0.19990
 O320 O 0.27408 0.75094 0.29938
 O321 O 0.27234 0.70080 0.24977
 O322 O 0.22605 0.75106 0.29905
 Zr323 Zr 0.25003 0.70331 0.20157
 Zr324 Zr 0.25004 0.79855 0.29771
 Zr325 Zr 0.20497 0.75102 0.24959
 Zr326 Zr 0.25030 0.79848 0.20129
 Zr327 Zr 0.24993 0.70343 0.29797
 Zr328 Zr 0.29511 0.75085 0.24963
 H329 H 0.28306 0.82485 0.24943
 H330 H 0.21461 0.75100 0.17827
 H331 H 0.28281 0.67692 0.24980
 H332 H 0.21433 0.75111 0.32097
 H333 H 0.24511 0.63228 0.21807
 H334 H 0.25145 0.63216 0.28145
 H335 H 0.24590 0.86963 0.21739
 H336 H 0.25135 0.86979 0.28085
 C337 C 0.49900 0.50014 0.12131
 C338 C 0.49927 0.49982 -0.12102
 C339 C 0.56030 0.56241 0.05725
 C340 C 0.56037 0.43765 0.05768
 C341 C 0.56033 0.56242 -0.05681
 C342 C 0.43960 0.55994 -0.05950
 C343 C 0.43960 0.44000 -0.05914
 C344 C 0.43961 0.55991 0.05955
 C345 C 0.56029 0.43729 -0.05644
 C346 C 0.43964 0.44035 0.05980
 O347 O 0.53636 0.57084 -0.06504
 O348 O 0.56765 0.53657 -0.03336
 O349 O 0.53632 0.42890 -0.06463
 O350 O 0.56763 0.46320 -0.03313
 O351 O 0.46358 0.43203 0.06824
 O352 O 0.43238 0.46477 0.03493
 O353 O 0.49961 0.46713 -0.10453
 O354 O 0.49961 0.53257 -0.10472
 O355 O 0.49938 0.46738 0.10502
 O356 O 0.49937 0.53286 0.10486
 O357 O 0.46358 0.56825 -0.06780
 O358 O 0.43233 0.53541 -0.03470
 O359 O 0.53631 0.57069 0.06557
 O360 O 0.56764 0.53669 0.03369
 O361 O 0.46356 0.56820 0.06793
 O362 O 0.43235 0.53545 0.03477
 O363 O 0.46357 0.43163 -0.06741
 O364 O 0.43233 0.46463 -0.03450
 O365 O 0.49890 0.39248 0.05596
 O366 O 0.49927 0.39251 -0.05612
 O367 O 0.49933 0.60735 -0.05668
 O368 O 0.49888 0.60764 0.05549
 O369 O 0.52271 0.55047 0.00005
 O370 O 0.52272 0.44947 0.00030
 O371 O 0.47764 0.55016 0.00003
 O372 O 0.52384 0.50005 0.04958
 O373 O 0.56768 0.46330 0.03394
 O374 O 0.53636 0.42945 0.06603
 O375 O 0.47591 0.50007 0.04981
 O376 O 0.47593 0.49996 -0.04966
 O377 O 0.47765 0.44991 0.00030
 O378 O 0.52391 0.49991 -0.04919
 Zr379 Zr 0.50000 0.45247 0.04848
 Zr380 Zr 0.50001 0.54751 -0.04816
 Zr381 Zr 0.54506 0.49995 0.00025
 Zr382 Zr 0.49997 0.54765 0.04823
 Zr383 Zr 0.49999 0.45237 -0.04790
 Zr384 Zr 0.45499 0.50005 0.00009
 H385 H 0.46714 0.57402 0.00000
 H386 H 0.53543 0.50007 0.07158
 H387 H 0.46714 0.42606 0.00039
 H388 H 0.53557 0.49987 -0.07117
 H389 H 0.50526 0.38145 0.03231
 H390 H 0.49818 0.38116 -0.03099
 H391 H 0.50510 0.61864 0.03173
 H392 H 0.49832 0.61877 -0.03160
 C393 C 0.75064 0.75042 0.12857
 C394 C 0.75035 0.75119 0.37087
 C395 C 0.68938 0.81295 0.19197
 C396 C 0.68945 0.68828 0.19268
 C397 C 0.68940 0.81352 0.30639
 C398 C 0.81011 0.81037 0.30932
 C399 C 0.81017 0.69138 0.30981
 C400 C 0.81020 0.80998 0.18936
 C401 C 0.68938 0.68836 0.30689
 C402 C 0.81015 0.69123 0.18988
 O403 O 0.71338 0.82196 0.31450
 O404 O 0.68207 0.78761 0.28306
 O405 O 0.71338 0.68000 0.31509
 O406 O 0.68206 0.71419 0.28337
 O407 O 0.78619 0.68282 0.18167
 O408 O 0.81742 0.71546 0.21487
 O409 O 0.75006 0.71841 0.35462
 O410 O 0.75004 0.78386 0.35432
 O411 O 0.75027 0.71773 0.14509
 O412 O 0.75030 0.78323 0.14478
 O413 O 0.78614 0.81886 0.31748
 O414 O 0.81741 0.78604 0.28443
 O415 O 0.71339 0.82114 0.18359
 O416 O 0.68207 0.78741 0.21583
 O417 O 0.78623 0.81835 0.18105
 O418 O 0.81743 0.78587 0.21457
 O419 O 0.78618 0.68302 0.31806
 O420 O 0.81744 0.71560 0.28472
 O421 O 0.75101 0.64301 0.19486
 O422 O 0.75050 0.64349 0.30654
 O423 O 0.75049 0.85842 0.30556
 O424 O 0.75099 0.85830 0.19405
 O425 O 0.72700 0.80132 0.24945
 O426 O 0.72702 0.70031 0.24991
 O427 O 0.77216 0.80093 0.24946
 O428 O 0.72593 0.75067 0.20036
 O429 O 0.68211 0.71401 0.21624
 O430 O 0.71345 0.68002 0.18437
 O431 O 0.77381 0.75065 0.20007
 O432 O 0.77378 0.75093 0.29939
 O433 O 0.77217 0.70062 0.24990
 O434 O 0.72583 0.75094 0.29904
 Zr435 Zr 0.74979 0.70306 0.20174
 Zr436 Zr 0.74972 0.79851 0.29764
 Zr437 Zr 0.70466 0.75082 0.24965
 Zr438 Zr 0.74978 0.79828 0.20130
 Zr439 Zr 0.74974 0.70334 0.29808
 Zr440 Zr 0.79480 0.75076 0.24969
 H441 H 0.78274 0.82471 0.24931
 H442 H 0.71433 0.75058 0.17836
 H443 H 0.78274 0.67682 0.24994
 H444 H 0.71416 0.75101 0.32101
 H445 H 0.74427 0.63215 0.21840
 H446 H 0.75216 0.63211 0.28151
 H447 H 0.74401 0.86925 0.21738
 H448 H 0.75225 0.86962 0.28045
 C449 C 0.00024 0.00087 0.37819
 C450 C -0.00018 0.00090 0.62116
 C451 C -0.06090 0.06361 0.44248
 C452 C -0.06075 -0.06187 0.44288
 C453 C -0.06092 0.06382 0.55602
 C454 C 0.05981 0.06027 0.55961
 C455 C 0.05981 -0.05849 0.55969
 C456 C 0.05984 0.06018 0.43962
 C457 C -0.06092 -0.06199 0.55613
 C458 C 0.05998 -0.05842 0.43976
 O459 O -0.03695 0.07214 0.56434
 O460 O -0.06822 0.03777 0.53283
 O461 O -0.03695 -0.07032 0.56446
 O462 O -0.06822 -0.03588 0.53292
 O463 O 0.03603 -0.06680 0.43144
 O464 O 0.06717 -0.03427 0.46488
 O465 O -0.00045 -0.03180 0.60471
 O466 O -0.00046 0.03363 0.60464
 O467 O -0.00008 -0.03185 0.39471
 O468 O -0.00012 0.03362 0.39458
 O469 O 0.03583 0.06872 0.56780
 O470 O 0.06708 0.03607 0.53457
 O471 O -0.03690 0.07177 0.43406
 O472 O -0.06820 0.03774 0.46599
 O473 O 0.03591 0.06858 0.43125
 O474 O 0.06708 0.03608 0.46480
 O475 O 0.03584 -0.06691 0.56793
 O476 O 0.06708 -0.03427 0.53463
 O477 O 0.00090 -0.10663 0.44408
 O478 O 0.00034 -0.10647 0.55643
 O479 O 0.00034 0.10832 0.55610
 O480 O 0.00075 0.10846 0.44384
 O481 O -0.02323 0.05139 0.49954
 O482 O -0.02318 -0.04950 0.49967
 O483 O 0.02178 0.05105 0.49959
 O484 O -0.02439 0.00089 0.45015
 O485 O -0.06812 -0.03594 0.46620
 O486 O -0.03676 -0.07003 0.43448
 O487 O 0.02356 0.00093 0.44997
 O488 O 0.02346 0.00092 0.54947
 O489 O 0.02183 -0.04924 0.49975
 O490 O -0.02455 0.00093 0.54907
 Zr491 Zr -0.00044 -0.04666 0.45144
 Zr492 Zr -0.00061 0.04847 0.54787
 Zr493 Zr -0.04559 0.00095 0.49953
 Zr494 Zr -0.00053 0.04848 0.45129
 Zr495 Zr -0.00059 -0.04662 0.54799
 Zr496 Zr 0.04444 0.00091 0.49972
 H497 H 0.03236 0.07483 0.49954
 H498 H -0.03604 0.00087 0.42819
 H499 H 0.03242 -0.07302 0.49975
 H500 H -0.03628 0.00092 0.57097
 H501 H -0.00510 -0.11772 0.46792
 H502 H 0.00106 -0.11785 0.53132
 H503 H -0.00544 0.11952 0.46756
 H504 H 0.00108 0.11968 0.53095
 C505 C 0.25027 0.24867 0.87263
 C506 C 0.25034 0.24939 0.62963
 C507 C 0.18928 0.18615 0.80784
 C508 C 0.18943 0.31200 0.80756
 C509 C 0.18933 0.18636 0.69442
 C510 C 0.31006 0.18928 0.69154
 C511 C 0.31014 0.30884 0.69149
 C512 C 0.31009 0.18889 0.81062
 C513 C 0.18939 0.31198 0.69442
 C514 C 0.31015 0.30873 0.81057
 O515 O 0.21333 0.17803 0.68615
 O516 O 0.18202 0.21236 0.71770
 O517 O 0.21338 0.32014 0.68598
 O518 O 0.18206 0.28599 0.71778
 O519 O 0.28619 0.31703 0.81895
 O520 O 0.31739 0.28423 0.78579
 O521 O 0.25007 0.28208 0.64612
 O522 O 0.25002 0.21664 0.64608
 O523 O 0.24999 0.28141 0.85615
 O524 O 0.24998 0.21597 0.85616
 O525 O 0.28611 0.18101 0.68319
 O526 O 0.31733 0.21366 0.71638
 O527 O 0.21325 0.17793 0.81628
 O528 O 0.18200 0.21217 0.78450
 O529 O 0.28611 0.18064 0.81904
 O530 O 0.31733 0.21342 0.78580
 O531 O 0.28618 0.31715 0.68311
 O532 O 0.31737 0.28436 0.71636
 O533 O 0.25062 0.35621 0.80806
 O534 O 0.25094 0.35665 0.69540
 O535 O 0.25057 0.14177 0.69430
 O536 O 0.25080 0.14137 0.80711
 O537 O 0.22702 0.19857 0.75111
 O538 O 0.22708 0.29944 0.75118
 O539 O 0.27197 0.19888 0.75109
 O540 O 0.22575 0.24892 0.80062
 O541 O 0.18208 0.28589 0.78446
 O542 O 0.21341 0.32022 0.81587
 O543 O 0.27380 0.24883 0.80096
 O544 O 0.27380 0.24909 0.70133
 O545 O 0.27204 0.29907 0.75114
 O546 O 0.22578 0.24915 0.70165
 Zr547 Zr 0.24973 0.29641 0.79945
 Zr548 Zr 0.24967 0.20159 0.70279
 Zr549 Zr 0.20465 0.24904 0.75114
 Zr550 Zr 0.24966 0.20132 0.79942
 Zr551 Zr 0.24973 0.29667 0.70287
 Zr552 Zr 0.29470 0.24894 0.75113
 H553 H 0.28247 0.17501 0.75108
 H554 H 0.21405 0.24895 0.82256
 H555 H 0.28256 0.32290 0.75111
 H556 H 0.21410 0.24919 0.67972
 H557 H 0.25105 0.36774 0.78296
 H558 H 0.24535 0.36770 0.71942
 H559 H 0.24549 0.13023 0.78302
 H560 H 0.25014 0.13028 0.71941
 C561 C 0.49911 0.00058 0.37888
 C562 C 0.49887 0.00008 0.62121
 C563 C 0.56017 -0.06187 0.44282
 C564 C 0.56024 0.06268 0.44298
 C565 C 0.55995 -0.06233 0.55693
 C566 C 0.43930 -0.05940 0.55928
 C567 C 0.43937 0.06015 0.55944
 C568 C 0.43951 -0.05916 0.44029
 C569 C 0.56005 0.06263 0.55711
 C570 C 0.43956 0.06040 0.44035
 O571 O 0.53596 -0.07076 0.56506
 O572 O 0.56733 -0.03644 0.53356
 O573 O 0.53606 0.07111 0.56525
 O574 O 0.56739 0.03683 0.53366
 O575 O 0.46353 0.06870 0.43202
 O576 O 0.43226 0.03593 0.46516
 O577 O 0.49923 0.03286 0.60486
 O578 O 0.49919 -0.03259 0.60477
 O579 O 0.49945 0.03331 0.39524
 O580 O 0.49941 -0.03217 0.39525
 O581 O 0.46323 -0.06784 0.56765
 O582 O 0.43209 -0.03484 0.53453
 O583 O 0.53620 -0.07010 0.43444
 O584 O 0.56746 -0.03628 0.46652
 O585 O 0.46347 -0.06751 0.43195
 O586 O 0.43222 -0.03474 0.46511
 O587 O 0.46331 0.06847 0.56781
 O588 O 0.43213 0.03575 0.53462
 O589 O 0.49885 0.10808 0.44440
 O590 O 0.49903 0.10770 0.55664
 O591 O 0.49890 -0.10715 0.55646
 O592 O 0.49872 -0.10708 0.44440
 O593 O 0.52249 -0.05017 0.50001
 O594 O 0.52253 0.05087 0.50008
 O595 O 0.47741 -0.04970 0.49993
 O596 O 0.52371 0.00045 0.45069
 O597 O 0.56749 0.03697 0.46663
 O598 O 0.53629 0.07104 0.43457
 O599 O 0.47581 0.00054 0.45025
 O600 O 0.47565 0.00033 0.54972
 O601 O 0.47748 0.05059 0.50000
 O602 O 0.52360 0.00024 0.54945
 Zr603 Zr 0.49989 0.04809 0.45185
 Zr604 Zr 0.49969 -0.04727 0.54815
 Zr605 Zr 0.54481 0.00032 0.50007
 Zr606 Zr 0.49984 -0.04710 0.45181
 Zr607 Zr 0.49975 0.04786 0.54825
 Zr608 Zr 0.45482 0.00049 0.49992
 H609 H 0.46688 -0.07352 0.49985
 H610 H 0.53536 0.00048 0.42871
 H611 H 0.46698 0.07445 0.49997
 H612 H 0.53521 0.00016 0.57144
 H613 H 0.50499 0.11908 0.46816
 H614 H 0.49830 0.11913 0.53152
 H615 H 0.50502 -0.11815 0.46808
 H616 H 0.49785 -0.11847 0.53135
 C617 C 0.75029 0.24905 0.87187
 C618 C 0.74984 0.24897 0.62957
 C619 C 0.68894 0.18652 0.80866
 C620 C 0.68898 0.31129 0.80801
 C621 C 0.68897 0.18635 0.69412
 C622 C 0.80964 0.18990 0.69068
 C623 C 0.80952 0.30878 0.69055
 C624 C 0.80973 0.18991 0.81054
 C625 C 0.68874 0.31136 0.69395
 C626 C 0.80967 0.30867 0.81043
 O627 O 0.71295 0.17801 0.68586
 O628 O 0.68161 0.21212 0.71759
 O629 O 0.71271 0.31985 0.68568
 O630 O 0.68148 0.28547 0.71745
 O631 O 0.78570 0.31698 0.81878
 O632 O 0.81691 0.28449 0.78535
 O633 O 0.74948 0.28171 0.64590
 O634 O 0.74954 0.21626 0.64603
 O635 O 0.74986 0.28178 0.85544
 O636 O 0.74993 0.21629 0.85557
 O637 O 0.78568 0.18131 0.68262
 O638 O 0.81690 0.21417 0.71561
 O639 O 0.71299 0.17840 0.81691
 O640 O 0.68160 0.21212 0.78487
 O641 O 0.78581 0.18141 0.81896
 O642 O 0.81693 0.21411 0.78541
 O643 O 0.78552 0.31713 0.68241
 O644 O 0.81683 0.28451 0.71555
 O645 O 0.75040 0.35665 0.80602
 O646 O 0.74973 0.35650 0.69416
 O647 O 0.75013 0.14157 0.69462
 O648 O 0.75064 0.14138 0.80610
 O649 O 0.72655 0.19840 0.75095
 O650 O 0.72646 0.29942 0.75078
 O651 O 0.77170 0.19899 0.75077
 O652 O 0.72545 0.24899 0.80021
 O653 O 0.68162 0.28557 0.78450
 O654 O 0.71295 0.31959 0.81626
 O655 O 0.77333 0.24909 0.80027
 O656 O 0.77322 0.24912 0.70095
 O657 O 0.77159 0.29933 0.75057
 O658 O 0.72529 0.24896 0.70151
 Zr659 Zr 0.74929 0.29664 0.79883
 Zr660 Zr 0.74925 0.20146 0.70268
 Zr661 Zr 0.70415 0.24885 0.75100
 Zr662 Zr 0.74933 0.20142 0.79902
 Zr663 Zr 0.74912 0.29663 0.70249
 Zr664 Zr 0.79426 0.24924 0.75055
 H665 H 0.78232 0.17524 0.75078
 H666 H 0.71387 0.24898 0.82226
 H667 H 0.78212 0.32315 0.75055
 H668 H 0.71362 0.24892 0.67958
 H669 H 0.74388 0.36762 0.78243
 H670 H 0.75126 0.36783 0.71922
 H671 H 0.74362 0.13048 0.78279
 H672 H 0.75190 0.13031 0.71970
 C673 C 0.00044 0.50004 0.37938
 C674 C 0.00018 0.50019 0.62236
 C675 C -0.06051 0.56285 0.44378
 C676 C -0.06046 0.43728 0.44413
 C677 C -0.06056 0.56318 0.55714
 C678 C 0.06018 0.55952 0.56054
 C679 C 0.06020 0.44061 0.56079
 C680 C 0.06027 0.55949 0.44063
 C681 C -0.06061 0.43719 0.55749
 C682 C 0.06026 0.44062 0.44081
 O683 O -0.03657 0.57145 0.56542
 O684 O -0.06788 0.53703 0.53404
 O685 O -0.03662 0.42889 0.56579
 O686 O -0.06790 0.46330 0.53425
 O687 O 0.03629 0.43228 0.43257
 O688 O 0.06751 0.46480 0.46588
 O689 O -0.00007 0.46745 0.60594
 O690 O -0.00008 0.53288 0.60580
 O691 O 0.00014 0.46731 0.39590
 O692 O 0.00016 0.53278 0.39577
 O693 O 0.03622 0.56793 0.56880
 O694 O 0.06747 0.53527 0.53556
 O695 O -0.03651 0.57098 0.43534
 O696 O -0.06784 0.53696 0.46725
 O697 O 0.03630 0.56784 0.43233
 O698 O 0.06751 0.53531 0.46578
 O699 O 0.03622 0.43226 0.56908
 O700 O 0.06747 0.46483 0.53570
 O701 O 0.00118 0.39253 0.44530
 O702 O 0.00070 0.39273 0.55766
 O703 O 0.00073 0.60750 0.55725
 O704 O 0.00115 0.60763 0.44500
 O705 O -0.02285 0.55054 0.50071
 O706 O -0.02285 0.44967 0.50091
 O707 O 0.02217 0.55019 0.50071
 O708 O -0.02406 0.50008 0.45139
 O709 O -0.06782 0.46323 0.46746
 O710 O -0.03647 0.42913 0.43572
 O711 O 0.02391 0.50006 0.45107
 O712 O 0.02385 0.50010 0.55057
 O713 O 0.02217 0.44995 0.50092
 O714 O -0.02419 0.50013 0.55029
 Zr715 Zr -0.00014 0.45251 0.45264
 Zr716 Zr -0.00023 0.54765 0.54901
 Zr717 Zr -0.04526 0.50012 0.50079
 Zr718 Zr -0.00015 0.54765 0.45245
 Zr719 Zr -0.00024 0.45258 0.54922
 Zr720 Zr 0.04484 0.50006 0.50077
 H721 H 0.03274 0.57398 0.50062
 H722 H -0.03573 0.50006 0.42945
 H723 H 0.03274 0.42615 0.50090
 H724 H -0.03592 0.50017 0.57220
 H725 H -0.00480 0.38145 0.46915
 H726 H 0.00134 0.38134 0.53255
 H727 H -0.00499 0.61869 0.46875
 H728 H 0.00158 0.61886 0.53211
 C729 C 0.25035 0.75070 0.87105
 C730 C 0.25026 0.75113 0.62870
 C731 C 0.18927 0.68810 0.80655
 C732 C 0.18922 0.81364 0.80695
 C733 C 0.18924 0.68815 0.69351
 C734 C 0.30998 0.69092 0.69036
 C735 C 0.30998 0.81065 0.69047
 C736 C 0.30997 0.69076 0.80943
 C737 C 0.18930 0.81403 0.69345
 C738 C 0.31001 0.81036 0.80956
 O739 O 0.21322 0.67981 0.68521
 O740 O 0.18191 0.71427 0.71665
 O741 O 0.21329 0.82230 0.68518
 O742 O 0.18195 0.78791 0.71664
 O743 O 0.28605 0.81875 0.81793
 O744 O 0.31724 0.78596 0.78468
 O745 O 0.24995 0.78382 0.64512
 O746 O 0.24992 0.71838 0.64508
 O747 O 0.25002 0.78347 0.85471
 O748 O 0.24999 0.71800 0.85467
 O749 O 0.28600 0.68269 0.68206
 O750 O 0.31725 0.71538 0.71514
 O751 O 0.21323 0.67984 0.81494
 O752 O 0.18193 0.71415 0.78331
 O753 O 0.28599 0.68251 0.81780
 O754 O 0.31724 0.71526 0.78460
 O755 O 0.28604 0.81907 0.68217
 O756 O 0.31725 0.78609 0.71520
 O757 O 0.25084 0.85836 0.80568
 O758 O 0.25049 0.85837 0.69332
 O759 O 0.25039 0.64360 0.69313
 O760 O 0.25068 0.64329 0.80592
 O761 O 0.22689 0.70051 0.74992
 O762 O 0.22691 0.80145 0.74999
 O763 O 0.27191 0.70066 0.74986
 O764 O 0.22569 0.75085 0.79936
 O765 O 0.18192 0.78780 0.78350
 O766 O 0.21323 0.82173 0.81535
 O767 O 0.27366 0.75076 0.79963
 O768 O 0.27367 0.75092 0.70014
 O769 O 0.27196 0.80092 0.74994
 O770 O 0.22565 0.75102 0.70050
 Zr771 Zr 0.24960 0.79840 0.79815
 Zr772 Zr 0.24957 0.70341 0.70168
 Zr773 Zr 0.20453 0.75102 0.74999
 Zr774 Zr 0.24959 0.70323 0.79809
 Zr775 Zr 0.24960 0.79852 0.70175
 Zr776 Zr 0.29460 0.75073 0.74989
 H777 H 0.28239 0.67678 0.74988
 H778 H 0.21401 0.75080 0.82131
 H779 H 0.28249 0.82474 0.74999
 H780 H 0.21395 0.75108 0.67859
 H781 H 0.24490 0.86950 0.78185
 H782 H 0.25121 0.86975 0.71843
 H783 H 0.24547 0.63211 0.78181
 H784 H 0.25028 0.63209 0.71824
 C785 C 0.49900 0.49973 0.37892
 C786 C 0.49891 0.49948 0.62124
 C787 C 0.56026 0.43730 0.44280
 C788 C 0.56021 0.56201 0.44279
 C789 C 0.56008 0.43699 0.55712
 C790 C 0.43934 0.43963 0.55957
 C791 C 0.43932 0.55952 0.55948
 C792 C 0.43948 0.43983 0.44039
 C793 C 0.56009 0.56211 0.55708
 C794 C 0.43947 0.55954 0.44041
 O795 O 0.53607 0.42859 0.56525
 O796 O 0.56745 0.46286 0.53368
 O797 O 0.53608 0.57049 0.56521
 O798 O 0.56746 0.53627 0.53365
 O799 O 0.46345 0.56782 0.43206
 O800 O 0.43218 0.53504 0.46523
 O801 O 0.49925 0.53222 0.60484
 O802 O 0.49926 0.46678 0.60486
 O803 O 0.49934 0.53245 0.39529
 O804 O 0.49936 0.46697 0.39530
 O805 O 0.46331 0.43130 0.56787
 O806 O 0.43209 0.46419 0.53480
 O807 O 0.53627 0.42909 0.43444
 O808 O 0.56754 0.46292 0.46649
 O809 O 0.46346 0.43155 0.43206
 O810 O 0.43219 0.46426 0.46523
 O811 O 0.46329 0.56782 0.56779
 O812 O 0.43208 0.53498 0.53475
 O813 O 0.49875 0.60724 0.44453
 O814 O 0.49905 0.60699 0.55651
 O815 O 0.49907 0.39211 0.55657
 O816 O 0.49879 0.39205 0.44463
 O817 O 0.52255 0.44910 0.50009
 O818 O 0.52254 0.55010 0.50006
 O819 O 0.47745 0.44948 0.50006
 O820 O 0.52372 0.49964 0.45073
 O821 O 0.56752 0.53634 0.46648
 O822 O 0.53622 0.57024 0.43444
 O823 O 0.47578 0.49965 0.45037
 O824 O 0.47567 0.49956 0.54981
 O825 O 0.47744 0.54972 0.50004
 O826 O 0.52365 0.49955 0.54946
 Zr827 Zr 0.49984 0.54724 0.45188
 Zr828 Zr 0.49976 0.45199 0.54826
 Zr829 Zr 0.54491 0.49960 0.50007
 Zr830 Zr 0.49986 0.45205 0.45189
 Zr831 Zr 0.49975 0.54713 0.54824
 Zr832 Zr 0.45476 0.49960 0.50005
 H833 H 0.46693 0.42564 0.50001
 H834 H 0.53534 0.49967 0.42872
 H835 H 0.46693 0.57357 0.49997
 H836 H 0.53527 0.49953 0.57145
 H837 H 0.50513 0.61821 0.46817
 H838 H 0.49784 0.61836 0.53141
 H839 H 0.50525 0.38106 0.46825
 H840 H 0.49782 0.38079 0.53147
 C841 C 0.75032 0.75037 0.87101
 C842 C 0.74994 0.75122 0.62870
 C843 C 0.68919 0.68811 0.80715
 C844 C 0.68894 0.81273 0.80774
 C845 C 0.68899 0.68833 0.69298
 C846 C 0.80974 0.69154 0.68974
 C847 C 0.80964 0.81045 0.68990
 C848 C 0.80984 0.69133 0.80959
 C849 C 0.68896 0.81341 0.69335
 C850 C 0.80973 0.81001 0.80979
 O851 O 0.71298 0.67999 0.68472
 O852 O 0.68167 0.71412 0.71650
 O853 O 0.71292 0.82190 0.68510
 O854 O 0.68165 0.78749 0.71675
 O855 O 0.78577 0.81837 0.81820
 O856 O 0.81697 0.78594 0.78463
 O857 O 0.74959 0.78389 0.64518
 O858 O 0.74966 0.71844 0.64502
 O859 O 0.74993 0.78318 0.85472
 O860 O 0.74997 0.71769 0.85456
 O861 O 0.78578 0.68310 0.68157
 O862 O 0.81700 0.71576 0.71474
 O863 O 0.71318 0.67989 0.81542
 O864 O 0.68179 0.71384 0.78359
 O865 O 0.78590 0.68285 0.81792
 O866 O 0.81706 0.71559 0.78452
 O867 O 0.78566 0.81893 0.68181
 O868 O 0.81695 0.78612 0.71483
 O869 O 0.75048 0.85826 0.80529
 O870 O 0.75000 0.85843 0.69374
 O871 O 0.75012 0.64350 0.69325
 O872 O 0.75076 0.64299 0.80504
 O873 O 0.72666 0.70024 0.74987
 O874 O 0.72656 0.80127 0.75009
 O875 O 0.77179 0.70063 0.74969
 O876 O 0.72556 0.75057 0.79931
 O877 O 0.68165 0.78720 0.78394
 O878 O 0.71294 0.82100 0.81600
 O879 O 0.77343 0.75067 0.79942
 O880 O 0.77334 0.75097 0.70009
 O881 O 0.77170 0.80097 0.74993
 O882 O 0.72541 0.75091 0.70061
 Zr883 Zr 0.74934 0.79825 0.79817
 Zr884 Zr 0.74933 0.70335 0.70160
 Zr885 Zr 0.70427 0.75072 0.75009
 Zr886 Zr 0.74947 0.70303 0.79794
 Zr887 Zr 0.74927 0.79852 0.70183
 Zr888 Zr 0.79436 0.75083 0.74972
 H889 H 0.78239 0.67685 0.74968
 H890 H 0.71397 0.75044 0.82135
 H891 H 0.78226 0.82477 0.74998
 H892 H 0.71373 0.75098 0.67868
 H893 H 0.74349 0.86920 0.78194
 H894 H 0.75169 0.86963 0.71883
 H895 H 0.74414 0.63209 0.78150
 H896 H 0.75170 0.63211 0.71830
 C897 C 0.00142 -0.00039 0.15935
 C898 C 0.00148 -0.00023 0.19285
 C899 C 0.00142 0.00004 0.23209
 C900 C 0.00126 0.00031 0.26558
 C901 C 0.00098 0.00060 0.30482
 C902 C 0.00067 0.00079 0.33832
 C903 C 0.25077 0.24950 1.09154
 C904 C 0.25092 0.24937 1.05802
 C905 C 0.25098 0.24916 1.01877
 C906 C 0.25094 0.24896 0.98527
 C907 C 0.25079 0.24877 0.94601
 C908 C 0.25059 0.24866 0.91251
 C909 C 0.08115 0.07803 0.07843
 C910 C 0.09782 0.09417 0.09624
 C911 C 0.11713 0.11322 0.11737
 C912 C 0.13355 0.12967 0.13536
 C913 C 0.15284 0.14924 0.15608
 C914 C 0.16946 0.16627 0.17318
 C915 C 0.33032 0.32962 0.17016
 C916 C 0.34709 0.34659 0.15333
 C917 C 0.36659 0.36655 0.13347
 C918 C 0.38321 0.38363 0.11644
 C919 C 0.40271 0.40355 0.09655
 C920 C 0.41948 0.42046 0.07966
 C921 C 0.33061 0.16980 0.17018
 C922 C 0.34748 0.15279 0.15338
 C923 C 0.36711 0.13273 0.13355
 C924 C 0.38382 0.11558 0.11658
 C925 C 0.40342 0.09550 0.09670
 C926 C 0.42024 0.07846 0.07983
 C927 C 0.16935 0.33358 0.17336
 C928 C 0.15261 0.35065 0.15647
 C929 C 0.13314 0.37022 0.13605
 C930 C 0.11654 0.38667 0.11833
 C931 C 0.09704 0.40571 0.09748
 C932 C 0.08027 0.42188 0.07984
 C933 C 0.33022 0.17022 0.32894
 C934 C 0.34700 0.15343 0.34595
 C935 C 0.36651 0.13370 0.36605
 C936 C 0.38315 0.11682 0.38326
 C937 C 0.40266 0.09707 0.40335
 C938 C 0.41943 0.08027 0.42038
 C939 C 0.16907 0.33320 0.32532
 C940 C 0.15237 0.35017 0.34243
 C941 C 0.13299 0.36970 0.36316
 C942 C 0.11650 0.38614 0.38116
 C943 C 0.09713 0.40520 0.40231
 C944 C 0.08044 0.42139 0.42015
 C945 C 0.16925 0.16619 0.32489
 C946 C 0.15247 0.14929 0.34182
 C947 C 0.13296 0.13000 0.36234
 C948 C 0.11633 0.11383 0.38019
 C949 C 0.09681 0.09513 0.40120
 C950 C 0.08003 0.07920 0.41897
 C951 C 0.33019 0.32961 0.32884
 C952 C 0.34695 0.34647 0.34586
 C953 C 0.36645 0.36632 0.36598
 C954 C 0.38306 0.38328 0.38321
 C955 C 0.40255 0.40311 0.40334
 C956 C 0.41931 0.41995 0.42039
 C957 C 0.49944 -0.00141 0.16101
 C958 C 0.49910 -0.00109 0.19438
 C959 C 0.49880 -0.00059 0.23342
 C960 C 0.49867 -0.00015 0.26679
 C961 C 0.49866 0.00031 0.30584
 C962 C 0.49879 0.00055 0.33921
 C963 C 0.75174 0.24918 1.08974
 C964 C 0.75186 0.24919 1.05636
 C965 C 0.75182 0.24918 1.01732
 C966 C 0.75164 0.24915 0.98394
 C967 C 0.75128 0.24912 0.94490
 C968 C 0.75087 0.24908 0.91153
 C969 C 0.58140 0.08062 0.07707
 C970 C 0.59813 0.09691 0.09468
 C971 C 0.61756 0.11560 0.11596
 C972 C 0.63409 0.13146 0.13429
 C973 C 0.65350 0.15016 0.15559
 C974 C 0.67020 0.16648 0.17324
 C975 C -0.16905 0.32789 0.16990
 C976 C -0.15240 0.34415 0.15211
 C977 C -0.13309 0.36333 0.13106
 C978 C -0.11665 0.37990 0.11315
 C979 C -0.09734 0.39959 0.09253
 C980 C -0.08070 0.41672 0.07551
 C981 C 0.92010 0.08300 0.07469
 C982 C 0.90339 0.09992 0.09187
 C983 C 0.88398 0.11935 0.11265
 C984 C 0.86745 0.13569 0.13067
 C985 C 0.84802 0.15464 0.15184
 C986 C 0.83129 0.17071 0.16971
 C987 C 0.66989 0.33145 0.17318
 C988 C 0.65309 0.34779 0.15562
 C989 C 0.63354 0.36654 0.13448
 C990 C 0.61690 0.38244 0.11629
 C991 C 0.59735 0.40120 0.09514
 C992 C 0.58056 0.41754 0.07758
 C993 C -0.17058 0.17205 0.32923
 C994 C -0.15374 0.15589 0.34687
 C995 C -0.13415 0.13691 0.36776
 C996 C -0.11747 0.12057 0.38553
 C997 C -0.09790 0.10116 0.40606
 C998 C -0.08110 0.08425 0.42309
 C999 C 0.66979 0.33155 0.32725
 C1000 C 0.65299 0.34785 0.34477
 C1001 C 0.63344 0.36652 0.36593
 C1002 C 0.61680 0.38234 0.38416
 C1003 C 0.59725 0.40099 0.40534
 C1004 C 0.58046 0.41726 0.42291
 C1005 C 0.67013 0.16626 0.32717
 C1006 C 0.65330 0.15020 0.34475
 C1007 C 0.63369 0.13199 0.36598
 C1008 C 0.61695 0.11661 0.38428
 C1009 C 0.59731 0.09847 0.40552
 C1010 C 0.58045 0.08252 0.42312
 C1011 C -0.16912 0.32791 0.33098
 C1012 C -0.15246 0.34417 0.34869
 C1013 C -0.13310 0.36332 0.36965
 C1014 C -0.11661 0.37983 0.38746
 C1015 C -0.09725 0.39945 0.40798
 C1016 C -0.08057 0.41652 0.42493
 C1017 C 0.00051 0.50035 0.16064
 C1018 C 0.00070 0.50029 0.19412
 C1019 C 0.00085 0.50020 0.23334
 C1020 C 0.00089 0.50013 0.26683
 C1021 C 0.00084 0.50006 0.30605
 C1022 C 0.00071 0.50002 0.33954
 C1023 C 0.25129 0.75068 1.08885
 C1024 C 0.25145 0.75063 1.05548
 C1025 C 0.25148 0.75059 1.01645
 C1026 C 0.25137 0.75058 0.98309
 C1027 C 0.25112 0.75059 0.94406
 C1028 C 0.25080 0.75062 0.91070
 C1029 C 0.08024 0.57936 0.07976
 C1030 C 0.09702 0.59560 0.09737
 C1031 C 0.11654 0.61472 0.11822
 C1032 C 0.13316 0.63118 0.13595
 C1033 C 0.15268 0.65072 0.15642
 C1034 C 0.16945 0.66769 0.17340
 C1035 C 0.42183 0.92023 0.07861
 C1036 C 0.40485 0.90345 0.09562
 C1037 C 0.38501 0.88375 0.11567
 C1038 C 0.36810 0.86695 0.13278
 C1039 C 0.34824 0.84727 0.15281
 C1040 C 0.33123 0.83053 0.16979
 C1041 C 0.33051 0.67084 0.17040
 C1042 C 0.34724 0.65386 0.15347
 C1043 C 0.36668 0.63386 0.13347
 C1044 C 0.38325 0.61676 0.11634
 C1045 C 0.40270 0.59678 0.09634
 C1046 C 0.41944 0.57984 0.07940
 C1047 C 0.08112 0.92136 0.07850
 C1048 C 0.09786 0.90544 0.09633
 C1049 C 0.11730 0.88674 0.11746
 C1050 C 0.13385 0.87059 0.13545
 C1051 C 0.15326 0.85132 0.15617
 C1052 C 0.16994 0.83446 0.17329
 C1053 C 0.33047 0.67087 0.32919
 C1054 C 0.34718 0.65383 0.34618
 C1055 C 0.36661 0.63376 0.36624
 C1056 C 0.38316 0.61660 0.38342
 C1057 C 0.40259 0.59654 0.40349
 C1058 C 0.41932 0.57954 0.42048
 C1059 C 0.16954 -0.16515 0.32523
 C1060 C 0.15276 -0.14818 0.34219
 C1061 C 0.13323 -0.12877 0.36270
 C1062 C 0.11659 -0.11247 0.38051
 C1063 C 0.09704 -0.09359 0.40146
 C1064 C 0.08023 -0.07755 0.41917
 C1065 C 0.16937 0.66742 0.32569
 C1066 C 0.15264 0.65036 0.34273
 C1067 C 0.13320 0.63073 0.36334
 C1068 C 0.11666 0.61420 0.38121
 C1069 C 0.09722 0.59504 0.40224
 C1070 C 0.08048 0.57879 0.41999
 C1071 C 0.33055 -0.16941 0.32892
 C1072 C 0.34727 -0.15253 0.34591
 C1073 C 0.36668 -0.13265 0.36600
 C1074 C 0.38323 -0.11566 0.38321
 C1075 C 0.40265 -0.09581 0.40331
 C1076 C 0.41937 -0.07897 0.42033
 C1077 C 0.49853 0.50018 0.16099
 C1078 C 0.49827 0.50015 0.19437
 C1079 C 0.49812 0.50008 0.23343
 C1080 C 0.49813 0.49999 0.26681
 C1081 C 0.49829 0.49988 0.30587
 C1082 C 0.49856 0.49980 0.33925
 C1083 C 0.75105 0.75028 1.08890
 C1084 C 0.75127 0.75020 1.05552
 C1085 C 0.75137 0.75013 1.01647
 C1086 C 0.75132 0.75012 0.98309
 C1087 C 0.75111 0.75016 0.94405
 C1088 C 0.75080 0.75023 0.91067
 C1089 C 0.58043 0.58249 0.07707
 C1090 C 0.59716 0.59877 0.09463
 C1091 C 0.61660 0.61742 0.11584
 C1092 C 0.63316 0.63324 0.13410
 C1093 C 0.65260 0.65189 0.15531
 C1094 C 0.66933 0.66819 0.17287
 C1095 C 0.92003 0.91625 0.07456
 C1096 C 0.90321 0.89940 0.09159
 C1097 C 0.88361 0.88009 0.11214
 C1098 C 0.86690 0.86388 0.12995
 C1099 C 0.84728 0.84508 0.15091
 C1100 C 0.83044 0.82908 0.16865
 C1101 C 0.91912 0.58381 0.07534
 C1102 C 0.90240 0.60082 0.09230
 C1103 C 0.88298 0.62035 0.11282
 C1104 C 0.86644 0.63678 0.13064
 C1105 C 0.84702 0.65581 0.15160
 C1106 C 0.83030 0.67199 0.16932
 C1107 C 0.57962 0.91785 0.07576
 C1108 C 0.59647 0.90164 0.09334
 C1109 C 0.61608 0.88312 0.11458
 C1110 C 0.63277 0.86746 0.13288
 C1111 C 0.65236 0.84899 0.15419
 C1112 C 0.66918 0.83287 0.17189
 C1113 C -0.16965 0.67206 0.33042
 C1114 C -0.15291 0.65582 0.34813
 C1115 C -0.13344 0.63669 0.36908
 C1116 C -0.11687 0.62020 0.38689
 C1117 C -0.09741 0.60061 0.40743
 C1118 C -0.08067 0.58359 0.42445
 C1119 C 0.66927 -0.16640 0.32622
 C1120 C 0.65254 -0.15022 0.34389
 C1121 C 0.63310 -0.13179 0.36528
 C1122 C 0.61653 -0.11620 0.38373
 C1123 C 0.59708 -0.09783 0.40515
 C1124 C 0.58033 -0.08175 0.42288
 C1125 C 0.66923 0.66821 0.32675
 C1126 C 0.65251 0.65184 0.34436
 C1127 C 0.63308 0.63308 0.36564
 C1128 C 0.61653 0.61718 0.38397
 C1129 C 0.59710 0.59844 0.40526
 C1130 C 0.58037 0.58211 0.42290
 C1131 C -0.16975 -0.17039 0.32985
 C1132 C -0.15303 -0.15426 0.34752
 C1133 C -0.13358 -0.13531 0.36844
 C1134 C -0.11702 -0.11897 0.38623
 C1135 C -0.09758 -0.09953 0.40672
 C1136 C -0.08086 -0.08257 0.42367
 C1137 C 0.00085 -0.00007 0.84021
 C1138 C 0.00085 0.00008 0.80668
 C1139 C 0.00075 0.00031 0.76739
 C1140 C 0.00060 0.00051 0.73387
 C1141 C 0.00036 0.00073 0.69459
 C1142 C 0.00013 0.00086 0.66107
 C1143 C 0.25048 0.25001 0.41068
 C1144 C 0.25065 0.24995 0.44419
 C1145 C 0.25078 0.24984 0.48345
 C1146 C 0.25081 0.24973 0.51696
 C1147 C 0.25076 0.24959 0.55622
 C1148 C 0.25062 0.24949 0.58973
 C1149 C 0.07998 0.07933 0.58031
 C1150 C 0.09675 0.09524 0.59815
 C1151 C 0.11626 0.11388 0.61928
 C1152 C 0.13288 0.12995 0.63726
 C1153 C 0.15240 0.14908 0.65796
 C1154 C 0.16917 0.16582 0.67507
 C1155 C 0.33034 0.32875 0.67150
 C1156 C 0.34707 0.34567 0.65441
 C1157 C 0.36649 0.36563 0.63418
 C1158 C 0.38303 0.38271 0.61685
 C1159 C 0.40245 0.40269 0.59663
 C1160 C 0.41917 0.41965 0.57954
 C1161 C 0.33021 0.16950 0.67154
 C1162 C 0.34695 0.15277 0.65441
 C1163 C 0.36640 0.13311 0.63414
 C1164 C 0.38298 0.11630 0.61678
 C1165 C 0.40244 0.09665 0.59653
 C1166 C 0.41920 0.07992 0.57942
 C1167 C 0.16925 0.33277 0.67521
 C1168 C 0.15252 0.34984 0.65826
 C1169 C 0.13308 0.36945 0.63776
 C1170 C 0.11653 0.38594 0.61997
 C1171 C 0.09709 0.40506 0.59904
 C1172 C 0.08036 0.42130 0.58135
 C1173 C 0.42006 0.07820 0.92100
 C1174 C 0.40320 0.09511 0.90413
 C1175 C 0.38355 0.11501 0.88424
 C1176 C 0.36682 0.13202 0.86723
 C1177 C 0.34718 0.15193 0.84734
 C1178 C 0.33032 0.16886 0.83047
 C1179 C 0.08024 0.42181 0.91918
 C1180 C 0.09701 0.40556 0.90167
 C1181 C 0.11650 0.38641 0.88100
 C1182 C 0.13311 0.36985 0.86344
 C1183 C 0.15258 0.35014 0.84325
 C1184 C 0.16932 0.33295 0.82653
 C1185 C 0.07930 0.07686 0.91937
 C1186 C 0.09617 0.09313 0.90191
 C1187 C 0.11582 0.11224 0.88133
 C1188 C 0.13256 0.12872 0.86385
 C1189 C 0.15221 0.14830 0.84368
 C1190 C 0.16906 0.16535 0.82694
 C1191 C 0.41943 0.41994 0.92106
 C1192 C 0.40267 0.40293 0.90419
 C1193 C 0.38319 0.38288 0.88426
 C1194 C 0.36660 0.36574 0.86720
 C1195 C 0.34711 0.34571 0.84726
 C1196 C 0.33034 0.32872 0.83038
 C1197 C 0.49922 -0.00176 0.83932
 C1198 C 0.49885 -0.00155 0.80592
 C1199 C 0.49853 -0.00117 0.76683
 C1200 C 0.49839 -0.00080 0.73343
 C1201 C 0.49838 -0.00037 0.69433
 C1202 C 0.49852 -0.00009 0.66093
 C1203 C 0.75122 0.24887 0.41143
 C1204 C 0.75125 0.24886 0.44485
 C1205 C 0.75115 0.24886 0.48394
 C1206 C 0.75096 0.24888 0.51735
 C1207 C 0.75063 0.24891 0.55645
 C1208 C 0.75029 0.24894 0.58985
 C1209 C 0.58015 0.08248 0.57708
 C1210 C 0.59685 0.09847 0.59487
 C1211 C 0.61625 0.11667 0.61641
 C1212 C 0.63278 0.13210 0.63498
 C1213 C 0.65217 0.15034 0.65649
 C1214 C 0.66887 0.16639 0.67424
 C1215 C -0.17032 0.32815 0.66994
 C1216 C -0.15352 0.34437 0.65231
 C1217 C -0.13393 0.36343 0.63151
 C1218 C -0.11724 0.37984 0.61386
 C1219 C -0.09764 0.39937 0.59351
 C1220 C -0.08081 0.41639 0.57666
 C1221 C 0.91892 0.08445 0.57524
 C1222 C 0.90215 0.10124 0.59227
 C1223 C 0.88265 0.12040 0.61293
 C1224 C 0.86604 0.13647 0.63090
 C1225 C 0.84655 0.15507 0.65205
 C1226 C 0.82979 0.17092 0.66993
 C1227 C 0.66858 0.33137 0.67409
 C1228 C 0.65190 0.34760 0.65636
 C1229 C 0.63256 0.36620 0.63488
 C1230 C 0.61611 0.38198 0.61635
 C1231 C 0.59679 0.40060 0.59484
 C1232 C 0.58015 0.41689 0.57707
 C1233 C 0.92001 0.08363 0.92307
 C1234 C 0.90312 0.10061 0.90647
 C1235 C 0.88342 0.11995 0.88643
 C1236 C 0.86661 0.13616 0.86900
 C1237 C 0.84689 0.15490 0.84844
 C1238 C 0.82998 0.17085 0.83097
 C1239 C 0.58037 0.41710 0.92389
 C1240 C 0.59705 0.40074 0.90635
 C1241 C 0.61640 0.38206 0.88511
 C1242 C 0.63289 0.36623 0.86676
 C1243 C 0.65223 0.34761 0.84547
 C1244 C 0.66890 0.33133 0.82784
 C1245 C 0.57956 0.07920 0.92455
 C1246 C 0.59635 0.09576 0.90702
 C1247 C 0.61588 0.11478 0.88586
 C1248 C 0.63249 0.13089 0.86764
 C1249 C 0.65200 0.14986 0.84639
 C1250 C 0.66875 0.16633 0.82874
 C1251 C 0.91914 0.41650 0.92387
 C1252 C 0.90237 0.39941 0.90707
 C1253 C 0.88284 0.37979 0.88678
 C1254 C 0.86620 0.36331 0.86917
 C1255 C 0.84667 0.34421 0.84844
 C1256 C 0.82987 0.32798 0.83089
 C1257 C 0.00030 0.50047 0.84151
 C1258 C 0.00045 0.50045 0.80797
 C1259 C 0.00055 0.50040 0.76867
 C1260 C 0.00057 0.50035 0.73513
 C1261 C 0.00051 0.50028 0.69583
 C1262 C 0.00040 0.50023 0.66229
 C1263 C 0.25087 0.75117 0.41056
 C1264 C 0.25102 0.75121 0.44397
 C1265 C 0.25108 0.75124 0.48307
 C1266 C 0.25103 0.75125 0.51648
 C1267 C 0.25086 0.75124 0.55557
 C1268 C 0.25063 0.75121 0.58898
 C1269 C 0.08033 0.57881 0.58102
 C1270 C 0.09704 0.59504 0.59864
 C1271 C 0.11645 0.61415 0.61948
 C1272 C 0.13299 0.63065 0.63720
 C1273 C 0.15240 0.65026 0.65759
 C1274 C 0.16911 0.66734 0.67443
 C1275 C 0.41913 0.92075 0.57914
 C1276 C 0.40236 0.90392 0.59612
 C1277 C 0.38290 0.88411 0.61621
 C1278 C 0.36632 0.86716 0.63343
 C1279 C 0.34687 0.84735 0.65354
 C1280 C 0.33013 0.83051 0.67056
 C1281 C 0.33015 0.67088 0.67046
 C1282 C 0.34688 0.65386 0.65350
 C1283 C 0.36634 0.63379 0.63346
 C1284 C 0.38292 0.61663 0.61631
 C1285 C 0.40238 0.59656 0.59628
 C1286 C 0.41913 0.57955 0.57934
 C1287 C 0.07998 0.92234 0.58032
 C1288 C 0.09676 0.90629 0.59804
 C1289 C 0.11627 0.88743 0.61900
 C1290 C 0.13290 0.87116 0.63680
 C1291 C 0.15241 0.85176 0.65730
 C1292 C 0.16917 0.83480 0.67424
 C1293 C 0.41941 0.57994 0.92057
 C1294 C 0.40263 0.59688 0.90358
 C1295 C 0.38311 0.61682 0.88353
 C1296 C 0.36647 0.63387 0.86638
 C1297 C 0.34694 0.65381 0.84633
 C1298 C 0.33016 0.67075 0.82935
 C1299 C 0.07934 0.92256 0.91930
 C1300 C 0.09620 0.90633 0.90178
 C1301 C 0.11584 0.88726 0.88108
 C1302 C 0.13257 0.87084 0.86348
 C1303 C 0.15219 0.85133 0.84314
 C1304 C 0.16903 0.83436 0.82624
 C1305 C 0.08007 0.57917 0.91891
 C1306 C 0.09683 0.59533 0.90128
 C1307 C 0.11630 0.61433 0.88048
 C1308 C 0.13291 0.63074 0.86280
 C1309 C 0.15239 0.65027 0.84247
 C1310 C 0.16915 0.66731 0.82564
 C1311 C 0.42008 0.91869 0.92107
 C1312 C 0.40321 0.90208 0.90406
 C1313 C 0.38355 0.88261 0.88397
 C1314 C 0.36679 0.86600 0.86676
 C1315 C 0.34712 0.84657 0.84663
 C1316 C 0.33025 0.83001 0.82958
 C1317 C 0.49886 0.49975 0.83929
 C1318 C 0.49858 0.49968 0.80589
 C1319 C 0.49837 0.49959 0.76681
 C1320 C 0.49830 0.49953 0.73342
 C1321 C 0.49836 0.49947 0.69434
 C1322 C 0.49854 0.49946 0.66094
 C1323 C 0.75064 0.75133 0.41058
 C1324 C 0.75078 0.75141 0.44399
 C1325 C 0.75082 0.75147 0.48308
 C1326 C 0.75075 0.75148 0.51649
 C1327 C 0.75056 0.75144 0.55558
 C1328 C 0.75032 0.75137 0.58899
 C1329 C 0.58020 0.58225 0.57694
 C1330 C 0.59688 0.59859 0.59458
 C1331 C 0.61626 0.61732 0.61589
 C1332 C 0.63276 0.63319 0.63425
 C1333 C 0.65215 0.65190 0.65555
 C1334 C 0.66885 0.66822 0.67316
 C1335 C 0.91892 0.91727 0.57529
 C1336 C 0.90214 0.90033 0.59222
 C1337 C 0.88263 0.88094 0.61272
 C1338 C 0.86601 0.86465 0.63054
 C1339 C 0.84652 0.84577 0.65151
 C1340 C 0.82977 0.82968 0.66926
 C1341 C 0.91928 0.58406 0.57617
 C1342 C 0.90249 0.60114 0.59294
 C1343 C 0.88294 0.62071 0.61321
 C1344 C 0.86627 0.63714 0.63082
 C1345 C 0.84672 0.65615 0.65159
 C1346 C 0.82993 0.67230 0.66919
 C1347 C 0.58001 0.91765 0.57682
 C1348 C 0.59671 0.90155 0.59454
 C1349 C 0.61612 0.88326 0.61599
 C1350 C 0.63267 0.86777 0.63448
 C1351 C 0.65210 0.84948 0.65589
 C1352 C 0.66884 0.83340 0.67356
 C1353 C 0.91909 0.58414 0.92380
 C1354 C 0.90235 0.60117 0.90691
 C1355 C 0.88288 0.62069 0.88646
 C1356 C 0.86629 0.63708 0.86870
 C1357 C 0.84681 0.65604 0.84779
 C1358 C 0.83004 0.67216 0.83012
 C1359 C 0.57947 0.91745 0.92470
 C1360 C 0.59625 0.90120 0.90704
 C1361 C 0.61578 0.88267 0.88565
 C1362 C 0.63241 0.86702 0.86721
 C1363 C 0.65194 0.84861 0.84574
 C1364 C 0.66873 0.83255 0.82792
 C1365 C 0.58045 0.58251 0.92338
 C1366 C 0.59716 0.59878 0.90577
 C1367 C 0.61655 0.61737 0.88445
 C1368 C 0.63307 0.63313 0.86606
 C1369 C 0.65245 0.65173 0.84471
 C1370 C 0.66913 0.66801 0.82704
 C1371 C 0.91993 0.91608 0.92283
 C1372 C 0.90305 0.89921 0.90613
 C1373 C 0.88334 0.87994 0.88598
 C1374 C 0.86654 0.86377 0.86847
 C1375 C 0.84684 0.84505 0.84782
 C1376 C 0.82995 0.82910 0.83030
   
