data_POSCAR
  _audit_creation_date              2014-09-24
  _audit_creation_method            'ToBaCCo'
  _symmetry_space_group_name_H-M    'P1'
  _symmetry_Int_Tables_number       1
  _symmetry_cell_setting            triclinic
  loop_
  _symmetry_equiv_pos_as_xyz
 x,y,z
_cell_length_a 48.4844
_cell_length_b 47.5145
_cell_length_c 47.9806
_cell_angle_alpha 90.952400
_cell_angle_beta 90.207400
_cell_angle_gamma 88.444100
loop_
  _atom_site_label
  _atom_site_type_symbol
  _atom_site_fract_x
  _atom_site_fract_y
  _atom_site_fract_z
C1 C 0.10566 0.05066 0.21866
 H2 H 0.11261 0.06649 0.23335
 C3 C 0.09134 0.05874 0.19479
 H4 H 0.08761 0.08092 0.19109
 C5 C 0.10238 0.00245 0.20583
 H6 H 0.10689 -0.01943 0.21012
 C7 C 0.08822 0.00961 0.18149
 H8 H 0.08162 -0.00691 0.16736
 N9 N 0.11001 0.02293 0.22420
 C10 C 0.11080 0.02096 0.31467
 H11 H 0.13098 0.01182 0.31917
 C12 C 0.09165 0.02547 0.33617
 H13 H 0.09729 0.01982 0.35724
 C14 C 0.07830 0.03771 0.28148
 H15 H 0.07254 0.04152 0.26014
 C16 C 0.05877 0.04283 0.30222
 H17 H 0.03873 0.05123 0.29621
 Zn18 Zn 0.12733 0.01470 0.25839
 N19 N 0.10362 0.02655 0.28786
 C20 C 0.16282 0.05820 0.27452
 N21 N 0.16009 0.03491 0.25802
 C22 C 0.17721 0.02948 0.23611
 C23 C 0.19724 0.04861 0.22913
 C24 C 0.18246 0.07808 0.26812
 C25 C 0.10994 -0.03975 0.26257
 C26 C 0.11143 -0.06906 0.26237
 C27 C 0.16114 -0.06684 0.26059
 C28 C 0.15861 -0.03743 0.26077
 N29 N 0.13322 -0.02461 0.26106
 H30 H 0.14839 0.06250 0.29127
 H31 H 0.17385 0.01136 0.22271
 H32 H 0.20949 0.04443 0.21068
 H33 H 0.18342 0.09726 0.28055
 H34 H 0.09003 -0.02891 0.26315
 H35 H 0.09223 -0.08004 0.26310
 H36 H 0.18163 -0.07649 0.25976
 H37 H 0.17689 -0.02494 0.26014
 C38 C 0.06495 0.03577 0.32987
 C39 C 0.08193 0.03801 0.17619
 C40 C 0.13732 -0.08328 0.26077
 C41 C 0.19933 0.07384 0.24460
 C42 C 0.40797 0.04250 0.78577
 H43 H 0.40401 0.05515 0.76757
 C44 C 0.42238 0.05377 0.80839
 H45 H 0.42939 0.07514 0.80731
 C46 C 0.40295 -0.00060 0.80912
 H47 H 0.39500 -0.02163 0.80944
 C48 C 0.41712 0.00993 0.83235
 H49 H 0.42038 -0.00337 0.85024
 N50 N 0.39893 0.01566 0.78633
 C51 C 0.39073 0.00381 0.69619
 H52 H 0.36861 0.00299 0.69345
 C53 C 0.40817 0.00069 0.67300
 H54 H 0.39936 -0.00222 0.65242
 C55 C 0.42930 0.00637 0.72649
 H56 H 0.43758 0.00750 0.74740
 C57 C 0.44736 0.00279 0.70409
 H58 H 0.46937 0.00198 0.70802
 Zn59 Zn 0.37895 0.00357 0.75445
 N60 N 0.40153 0.00643 0.72232
 C61 C 0.34394 0.04907 0.73591
 N62 N 0.34710 0.02736 0.75386
 C63 C 0.32979 0.02460 0.77581
 C64 C 0.30835 0.04418 0.78060
 C65 C 0.32291 0.06946 0.74018
 C66 C 0.39135 -0.05352 0.75914
 C67 C 0.38709 -0.08243 0.75861
 C68 C 0.33826 -0.07286 0.75299
 C69 C 0.34347 -0.04399 0.75364
 N70 N 0.36973 -0.03493 0.75670
 H71 H 0.35860 0.05148 0.71926
 H72 H 0.33345 0.00776 0.79038
 H73 H 0.29555 0.04189 0.79878
 H74 H 0.32120 0.08718 0.72631
 H75 H 0.41207 -0.04581 0.76111
 H76 H 0.40484 -0.09650 0.76063
 H77 H 0.31728 -0.07971 0.75023
 H78 H 0.32661 -0.02894 0.75095
 C79 C 0.43686 -0.00072 0.67701
 C80 C 0.42726 0.03736 0.83206
 C81 C 0.36027 -0.09255 0.75521
 C82 C 0.30502 0.06733 0.76300
 C83 C 0.90632 0.53437 0.28637
 H84 H 0.90234 0.54787 0.26878
 C85 C 0.92231 0.54389 0.30864
 H86 H 0.93034 0.56484 0.30767
 C87 C 0.89999 0.49078 0.30839
 H88 H 0.89090 0.47027 0.30836
 C89 C 0.91562 0.49955 0.33130
 H90 H 0.91861 0.48532 0.34852
 N91 N 0.89603 0.50806 0.28636
 C92 C 0.88490 0.49770 0.19657
 H93 H 0.86269 0.49711 0.19449
 C94 C 0.90166 0.49330 0.17305
 H95 H 0.89227 0.48968 0.15284
 C96 C 0.92433 0.50059 0.22571
 H97 H 0.93322 0.50204 0.24633
 C98 C 0.94170 0.49585 0.20298
 H99 H 0.96379 0.49465 0.20638
 Zn100 Zn 0.87484 0.49748 0.25491
 N101 N 0.89647 0.50078 0.22231
 C102 C 0.84243 0.54559 0.23957
 N103 N 0.84358 0.52229 0.25571
 C104 C 0.82593 0.51945 0.27736
 C105 C 0.80640 0.54068 0.28382
 C106 C 0.82336 0.56756 0.24552
 C107 C 0.88914 0.44136 0.25742
 C108 C 0.88666 0.41223 0.25737
 C109 C 0.83716 0.41881 0.25539
 C110 C 0.84061 0.44807 0.25556
 N111 N 0.86639 0.45869 0.25671
 H112 H 0.85741 0.54797 0.22320
 H113 H 0.82810 0.50135 0.29065
 H114 H 0.79336 0.53818 0.30179
 H115 H 0.82329 0.58635 0.23305
 H116 H 0.90941 0.45031 0.25787
 H117 H 0.90531 0.39929 0.25780
 H118 H 0.81654 0.41063 0.25434
 H119 H 0.82278 0.46215 0.25430
 C120 C 0.93040 0.49124 0.17642
 C121 C 0.92739 0.52632 0.33157
 C122 C 0.86042 0.40045 0.25632
 C123 C 0.80533 0.56548 0.26821
 C124 C 0.59683 0.51721 0.70934
 H125 H 0.59624 0.53818 0.71838
 C126 C 0.59029 0.51342 0.68109
 H127 H 0.58452 0.53148 0.66866
 C128 C 0.60641 0.46832 0.71384
 H129 H 0.61320 0.45088 0.72660
 C130 C 0.60075 0.46373 0.68565
 H131 H 0.60283 0.44260 0.67698
 N132 N 0.60509 0.49482 0.72499
 C133 C 0.60163 0.49402 0.81595
 H134 H 0.61907 0.50697 0.82083
 C135 C 0.58591 0.48321 0.83741
 H136 H 0.59115 0.48832 0.85883
 C137 C 0.57413 0.47114 0.78199
 H138 H 0.56989 0.46624 0.76034
 C139 C 0.55798 0.45973 0.80280
 H140 H 0.54106 0.44658 0.79672
 Zn141 Zn 0.62030 0.49941 0.76134
 N142 N 0.59565 0.48765 0.78891
 C143 C 0.60667 0.55574 0.77174
 N144 N 0.62855 0.53774 0.76748
 C145 C 0.65470 0.54729 0.76602
 C146 C 0.65942 0.57620 0.76770
 C147 C 0.61044 0.58469 0.77368
 C148 C 0.65276 0.45316 0.78008
 C149 C 0.67071 0.43016 0.77504
 C150 C 0.68863 0.45445 0.73545
 C151 C 0.67030 0.47691 0.74116
 N152 N 0.65202 0.47533 0.76242
 H153 H 0.58610 0.54757 0.77284
 H154 H 0.67185 0.53262 0.76285
 H155 H 0.68029 0.58350 0.76586
 H156 H 0.59247 0.59838 0.77635
 H157 H 0.63785 0.45202 0.79664
 H158 H 0.66950 0.41176 0.78795
 H159 H 0.70191 0.45555 0.71746
 H160 H 0.66895 0.49446 0.72710
 C161 C 0.56399 0.46550 0.83099
 C162 C 0.59317 0.48655 0.66880
 C163 C 0.68776 0.43000 0.75153
 C164 C 0.63708 0.59536 0.77122
 C165 C 0.29824 0.09168 1.00156
 H166 H 0.28401 0.07466 0.99927
 C167 C 0.32673 0.08581 1.00182
 H168 H 0.33426 0.06417 1.00039
 C169 C 0.30595 0.14062 1.00555
 H170 H 0.29767 0.16197 1.00669
 C171 C 0.33435 0.13576 1.00576
 H172 H 0.34758 0.15370 1.00689
 N173 N 0.28852 0.11877 1.00389
 C174 C 0.20544 0.09617 0.98503
 H175 H 0.20222 0.11102 0.96841
 C176 C 0.18579 0.07574 0.98993
 H177 H 0.16775 0.07465 0.97661
 C178 C 0.23153 0.08099 1.02412
 H179 H 0.24875 0.08406 1.03814
 C180 C 0.21273 0.06014 1.02951
 H181 H 0.21608 0.04717 1.04757
 Zn182 Zn 0.25081 0.12970 1.00243
 N183 N 0.22758 0.09854 1.00232
 C184 C 0.24981 0.14127 0.94467
 N185 N 0.24709 0.15264 0.97077
 C186 C 0.24768 0.18097 0.97527
 C187 C 0.25195 0.19899 0.95326
 C188 C 0.25373 0.15872 0.92186
 C189 C 0.25782 0.15422 1.05673
 C190 C 0.24960 0.17103 1.07956
 C191 C 0.20634 0.18106 1.05604
 C192 C 0.21523 0.16366 1.03400
 N193 N 0.24080 0.15130 1.03438
 H194 H 0.25035 0.11864 0.94179
 H195 H 0.24686 0.18961 0.99620
 H196 H 0.25317 0.22139 0.95745
 H197 H 0.25692 0.14944 0.90131
 H198 H 0.27778 0.14353 1.05691
 H199 H 0.26373 0.17315 1.09698
 H200 H 0.18596 0.19069 1.05456
 H201 H 0.20195 0.16049 1.01611
 C202 C 0.18913 0.05769 1.01269
 C203 C 0.34514 0.10804 1.00433
 C204 C 0.22371 0.18533 1.07931
 C205 C 0.25574 0.18785 0.92632
 C206 C 0.69917 0.39650 0.97853
 H207 H 0.71000 0.39986 0.95925
 C208 C 0.67067 0.40202 0.98016
 H209 H 0.65958 0.41002 0.96220
 C210 C 0.69991 0.38015 1.02498
 H211 H 0.71101 0.37098 1.04226
 C212 C 0.67159 0.38478 1.02727
 H213 H 0.66140 0.37961 1.04650
 N214 N 0.71299 0.38519 1.00062
 C215 C 0.80132 0.38943 0.98507
 H216 H 0.80643 0.36717 0.98330
 C217 C 0.82235 0.40867 0.98837
 H218 H 0.84361 0.40108 0.98833
 C219 C 0.76727 0.42587 0.99044
 H220 H 0.74581 0.43220 0.99280
 C221 C 0.78769 0.44580 0.99425
 H222 H 0.78159 0.46753 0.99841
 Zn223 Zn 0.74922 0.37015 0.99625
 N224 N 0.77446 0.39815 0.98723
 C225 C 0.75887 0.34623 0.94227
 N226 N 0.74667 0.34253 0.96742
 C227 C 0.72754 0.32250 0.97076
 C228 C 0.71936 0.30577 0.94817
 C229 C 0.75123 0.32994 0.91903
 C230 C 0.76967 0.37782 1.04866
 C231 C 0.77352 0.37400 1.07702
 C232 C 0.76005 0.32577 1.07095
 C233 C 0.75649 0.33060 1.04228
 N234 N 0.76078 0.35660 1.03186
 H235 H 0.77328 0.36294 0.93973
 H236 H 0.71730 0.32071 0.99061
 H237 H 0.70362 0.29055 0.95154
 H238 H 0.76046 0.33386 0.89900
 H239 H 0.77236 0.39853 1.04042
 H240 H 0.78013 0.39197 1.08909
 H241 H 0.75557 0.30519 1.07891
 H242 H 0.74903 0.31401 1.02880
 C243 C 0.81560 0.43697 0.99453
 C244 C 0.65657 0.39504 1.00444
 C245 C 0.76772 0.34800 1.08908
 C246 C 0.73067 0.30990 0.92160
 C247 C 0.22069 0.92204 0.46415
 H248 H 0.24031 0.92274 0.45356
 C249 C 0.19744 0.93532 0.45263
 H250 H 0.19953 0.94630 0.43323
 C251 C 0.19441 0.90600 0.50198
 H252 H 0.19321 0.89400 0.52085
 C253 C 0.17058 0.91895 0.49116
 H254 H 0.15129 0.91732 0.50226
 N255 N 0.21892 0.90820 0.48863
 C256 C 0.30516 0.90652 0.51340
 H257 H 0.30892 0.88406 0.51503
 C258 C 0.32664 0.92498 0.51795
 H259 H 0.34705 0.91669 0.52299
 C260 C 0.27382 0.94471 0.50524
 H261 H 0.25313 0.95231 0.50069
 C262 C 0.29454 0.96396 0.51046
 H263 H 0.28976 0.98630 0.50932
 Zn264 Zn 0.25169 0.88991 0.50101
 N265 N 0.27955 0.91656 0.50644
 C266 C 0.28328 0.87159 0.45537
 N267 N 0.26135 0.86484 0.47131
 C268 C 0.24133 0.84790 0.46109
 C269 C 0.24144 0.83966 0.43289
 C270 C 0.28405 0.86404 0.42724
 C271 C 0.23923 0.89426 0.55555
 C272 C 0.23931 0.88857 0.58382
 C273 C 0.25449 0.84082 0.57302
 C274 C 0.25399 0.84746 0.54452
 N275 N 0.24685 0.87407 0.53654
 H276 H 0.29859 0.88569 0.46326
 H277 H 0.22363 0.84362 0.47385
 H278 H 0.22417 0.82835 0.42433
 H279 H 0.30055 0.87154 0.41440
 H280 H 0.23414 0.91535 0.54869
 H281 H 0.23333 0.90533 0.59828
 H282 H 0.26120 0.81996 0.57937
 H283 H 0.26061 0.83192 0.52905
 C284 C 0.32134 0.95403 0.51664
 C285 C 0.17199 0.93412 0.46634
 C286 C 0.24793 0.86189 0.59307
 C287 C 0.26212 0.84939 0.41540
 C288 C 0.80099 0.60947 0.49372
 H289 H 0.80295 0.63190 0.49705
 C290 C 0.82443 0.59244 0.48832
 H291 H 0.84453 0.60178 0.48736
 C292 C 0.77250 0.56976 0.49090
 H293 H 0.75253 0.56063 0.49314
 C294 C 0.79514 0.55218 0.48487
 H295 H 0.79218 0.52982 0.48187
 N296 N 0.77557 0.59801 0.49406
 C297 C 0.69183 0.59891 0.51168
 H298 H 0.69257 0.61164 0.53053
 C299 C 0.67032 0.58042 0.50760
 H300 H 0.65462 0.57879 0.52346
 C301 C 0.71118 0.58540 0.46796
 H302 H 0.72736 0.58745 0.45272
 C303 C 0.69066 0.56582 0.46354
 H304 H 0.69087 0.55284 0.44477
 Zn305 Zn 0.74376 0.62142 0.49982
 N306 N 0.71224 0.60022 0.49243
 C307 C 0.75755 0.64780 0.45014
 N308 N 0.74263 0.65110 0.47402
 C309 C 0.72348 0.67236 0.47702
 C310 C 0.71938 0.69188 0.45583
 C311 C 0.75364 0.66645 0.42819
 C312 C 0.74519 0.60972 0.55498
 C313 C 0.74375 0.61314 0.58377
 C314 C 0.74002 0.66345 0.57777
 C315 C 0.74160 0.65903 0.54879
 N316 N 0.74364 0.63235 0.53805
 H317 H 0.77163 0.62995 0.44754
 H318 H 0.71072 0.67361 0.49545
 H319 H 0.70390 0.70855 0.45849
 H320 H 0.76548 0.66337 0.40923
 H321 H 0.74701 0.58876 0.54593
 H322 H 0.74498 0.59452 0.59637
 H323 H 0.73795 0.68472 0.58609
 H324 H 0.74087 0.67682 0.53505
 C325 C 0.67036 0.56288 0.48386
 C326 C 0.82137 0.56359 0.48304
 C327 C 0.74071 0.64025 0.59565
 C328 C 0.73440 0.68882 0.43093
 C329 C 0.02954 0.22585 0.07715
 H330 H 0.02824 0.24776 0.07152
 C331 C 0.03911 0.20585 0.05766
 H332 H 0.04451 0.21246 0.03694
 C333 C 0.02385 0.19055 0.11086
 H334 H 0.01779 0.18485 0.13166
 C335 C 0.03274 0.16978 0.09184
 H336 H 0.03342 0.14795 0.09803
 N337 N 0.02128 0.21777 0.10283
 C338 C 0.00827 0.30301 0.10888
 H339 H 0.02425 0.30698 0.12412
 C340 C -0.00058 0.32433 0.09068
 H341 H 0.00880 0.34473 0.09219
 C342 C -0.02316 0.27159 0.08809
 H343 H -0.03160 0.25079 0.08681
 C344 C -0.03270 0.29203 0.06990
 H345 H -0.04855 0.28623 0.05520
 Zn346 Zn 0.00570 0.24474 0.12777
 N347 N -0.00304 0.27718 0.10699
 C348 C 0.05750 0.25726 0.15071
 N349 N 0.03155 0.24931 0.15708
 C350 C 0.02558 0.23930 0.18269
 C351 C 0.04634 0.23579 0.20268
 C352 C 0.07893 0.25410 0.17014
 C353 C -0.04175 0.21112 0.12786
 C354 C -0.06977 0.20696 0.13217
 C355 C -0.07062 0.24622 0.16481
 C356 C -0.04265 0.24998 0.15949
 N357 N -0.02891 0.23280 0.14096
 H358 H 0.06189 0.26444 0.12995
 H359 H 0.00507 0.23230 0.18713
 H360 H 0.04107 0.22706 0.22257
 H361 H 0.09967 0.25943 0.16428
 H362 H -0.03096 0.19834 0.11239
 H363 H -0.07985 0.19033 0.12069
 H364 H -0.08152 0.26075 0.17878
 H365 H -0.03225 0.26761 0.16895
 C366 C -0.02135 0.31892 0.07070
 C367 C 0.03999 0.17738 0.06476
 C368 C -0.08467 0.22516 0.15023
 C369 C 0.07365 0.24233 0.19618
 C370 C 0.01374 0.79194 0.40634
 H371 H 0.02827 0.77787 0.41664
 C372 C 0.01572 0.82119 0.41000
 H373 H 0.03151 0.82959 0.42355
 C374 C -0.02374 0.79845 0.37507
 H375 H -0.03867 0.78977 0.36082
 C376 C -0.02218 0.82753 0.37773
 H377 H -0.03662 0.84066 0.36618
 N378 N -0.00585 0.78121 0.38908
 C379 C -0.01154 0.69064 0.40110
 H380 H -0.01177 0.68520 0.37911
 C381 C -0.01576 0.66994 0.42057
 H382 H -0.01888 0.64851 0.41344
 C383 C -0.00835 0.72559 0.43674
 H384 H -0.00611 0.74744 0.44276
 C385 C -0.01325 0.70545 0.45709
 H386 H -0.01411 0.71183 0.47883
 Zn387 Zn -0.00648 0.74250 0.37867
 N388 N -0.00760 0.71777 0.40932
 C389 C 0.04423 0.71456 0.36886
 N390 N 0.02670 0.73462 0.35834
 C391 C 0.03576 0.75353 0.33962
 C392 C 0.06388 0.75399 0.33261
 C393 C 0.07220 0.71439 0.36259
 C394 C -0.06033 0.73802 0.38111
 C395 C -0.08779 0.73354 0.37537
 C396 C -0.07646 0.72881 0.32653
 C397 C -0.04838 0.73209 0.33360
 N398 N -0.04103 0.73660 0.36072
 H399 H 0.03737 0.70007 0.38417
 H400 H 0.02175 0.76984 0.33212
 H401 H 0.07121 0.77028 0.31920
 H402 H 0.08586 0.69912 0.37246
 H403 H -0.05433 0.74283 0.40233
 H404 H -0.10173 0.73528 0.39283
 H405 H -0.08210 0.72560 0.30487
 H406 H -0.03275 0.73144 0.31756
 C407 C -0.01709 0.67725 0.44888
 C408 C -0.00203 0.83928 0.39501
 C409 C -0.09669 0.72889 0.34775
 C410 C 0.08256 0.73512 0.34543
 C411 C 0.51822 0.27983 0.90444
 H412 H 0.53562 0.26520 0.90467
 C413 C 0.51618 0.30074 0.92498
 H414 H 0.53247 0.30256 0.94038
 C415 C 0.47449 0.29349 0.88614
 H416 H 0.45753 0.28970 0.87211
 C417 C 0.47194 0.31531 0.90604
 H418 H 0.45332 0.32842 0.90678
 N419 N 0.49729 0.27604 0.88592
 C420 C 0.52539 0.19252 0.89093
 H421 H 0.53819 0.19016 0.87259
 C422 C 0.52836 0.17343 0.91277
 H423 H 0.54346 0.15627 0.91119
 C424 C 0.48956 0.21721 0.91535
 H425 H 0.47420 0.23414 0.91602
 C426 C 0.49232 0.19922 0.93777
 H427 H 0.47874 0.20222 0.95548
 Zn428 Zn 0.49996 0.24151 0.86541
 N429 N 0.50612 0.21384 0.89269
 C430 C 0.52334 0.24151 0.81174
 N431 N 0.52955 0.24210 0.83941
 C432 C 0.55617 0.24395 0.84829
 C433 C 0.57756 0.24644 0.82905
 C434 C 0.54396 0.24426 0.79188
 C435 C 0.45678 0.20688 0.84918
 C436 C 0.43362 0.19850 0.83420
 C437 C 0.42996 0.24496 0.81464
 C438 C 0.45370 0.25225 0.82943
 N439 N 0.46649 0.23330 0.84648
 H440 H 0.50229 0.23936 0.80488
 H441 H 0.56090 0.24363 0.87028
 H442 H 0.59856 0.24840 0.83647
 H443 H 0.53835 0.24406 0.77003
 H444 H 0.46743 0.19193 0.86242
 H445 H 0.42641 0.17728 0.83640
 H446 H 0.42008 0.26011 0.80097
 H447 H 0.46226 0.27282 0.82677
 C448 C 0.51191 0.17704 0.93666
 C449 C 0.49256 0.31829 0.92628
 C450 C 0.41999 0.21767 0.81667
 C451 C 0.57142 0.24734 0.80048
 C452 C 0.53581 0.72207 0.58880
 H453 H 0.54640 0.74176 0.58745
 C454 C 0.54758 0.69755 0.57694
 H455 H 0.56705 0.69892 0.56625
 C456 C 0.49790 0.69674 0.60517
 H457 H 0.47896 0.69628 0.61690
 C458 C 0.50889 0.67172 0.59354
 H459 H 0.49781 0.65242 0.59589
 N460 N 0.51121 0.72138 0.60225
 C461 C 0.48368 0.81001 0.60368
 H462 H 0.48045 0.81287 0.62585
 C463 C 0.47900 0.83259 0.58587
 H464 H 0.47222 0.85286 0.59439
 C465 C 0.49600 0.77994 0.56557
 H466 H 0.50233 0.75933 0.55774
 C467 C 0.49062 0.80173 0.54689
 H468 H 0.49324 0.79782 0.52475
 Zn469 Zn 0.49800 0.75531 0.61974
 N470 N 0.49269 0.78450 0.59344
 C471 C 0.54007 0.78912 0.64052
 N472 N 0.52607 0.76529 0.64552
 C473 C 0.53697 0.74490 0.66224
 C474 C 0.56412 0.74681 0.67222
 C475 C 0.56706 0.79177 0.64990
 C476 C 0.44478 0.74269 0.61387
 C477 C 0.41677 0.74087 0.61894
 C478 C 0.42501 0.75427 0.66697
 C479 C 0.45337 0.75552 0.66096
 N480 N 0.46247 0.75003 0.63455
 H481 H 0.53178 0.80483 0.62669
 H482 H 0.52582 0.72578 0.66526
 H483 H 0.57350 0.72933 0.68333
 H484 H 0.57856 0.80989 0.64379
 H485 H 0.45254 0.73880 0.59300
 H486 H 0.40359 0.73474 0.60181
 H487 H 0.41775 0.75943 0.68779
 H488 H 0.46780 0.76182 0.67699
 C489 C 0.48220 0.82845 0.55712
 C490 C 0.53399 0.67188 0.57907
 C491 C 0.40627 0.74750 0.64553
 C492 C 0.57989 0.76971 0.66447
 C493 C 0.92105 0.95153 0.72092
 H494 H 0.91924 0.93765 0.73842
 C495 C 0.93632 0.94354 0.69894
 H496 H 0.94636 0.92295 0.69888
 C497 C 0.90769 0.99528 0.70049
 H498 H 0.89677 1.01535 0.70114
 C499 C 0.92388 0.98717 0.67556
 H500 H 0.92457 1.00192 0.65861
 N501 N 0.90770 0.97893 0.72197
 C502 C 0.90954 0.99896 0.81238
 H503 H 0.88899 1.00753 0.81629
 C504 C 0.92679 0.99383 0.83366
 H505 H 0.92008 0.99857 0.85477
 C506 C 0.94300 0.98351 0.77877
 H507 H 0.94930 0.97889 0.75766
 C508 C 0.96238 0.97683 0.80148
 H509 H 0.98244 0.96801 0.79595
 Zn510 Zn 0.89047 0.98926 0.75609
 N511 N 0.91779 0.99185 0.78432
 C512 C 0.87628 0.94119 0.78488
 N513 N 0.86782 0.95846 0.76398
 C514 C 0.84925 0.94982 0.74448
 C515 C 0.84020 0.92204 0.74433
 C516 C 0.86821 0.91331 0.78515
 C517 C 0.88718 1.04683 0.74661
 C518 C 0.87479 1.07264 0.73965
 C519 C 0.83031 1.05323 0.74910
 C520 C 0.84354 1.02747 0.75525
 N521 N 0.87144 1.02454 0.75298
 H522 H 0.89148 0.94790 0.79982
 H523 H 0.84350 0.96361 0.72758
 H524 H 0.82693 0.91477 0.72765
 H525 H 0.87669 0.89933 0.80080
 H526 H 0.90936 1.04398 0.74528
 H527 H 0.88744 1.08965 0.73281
 H528 H 0.80801 1.05514 0.74975
 H529 H 0.83148 1.00961 0.76078
 C530 C 0.95431 0.98037 0.82816
 C531 C 0.93875 0.96278 0.67504
 C532 C 0.84602 1.07578 0.74042
 C533 C 0.85102 0.90317 0.76398
 C534 C 0.42834 0.49948 0.22588
 H535 H 0.43613 0.50138 0.24695
 C536 C 0.44543 0.50548 0.20350
 H537 H 0.46668 0.51061 0.20762
 C538 C 0.39041 0.49369 0.19513
 H539 H 0.36844 0.49137 0.19224
 C540 C 0.40686 0.49923 0.17215
 H541 H 0.39759 0.50000 0.15159
 N542 N 0.40106 0.49530 0.22138
 C543 C 0.39158 0.53638 0.29697
 H544 H 0.38421 0.55415 0.28510
 C545 C 0.39762 0.54033 0.32509
 H546 H 0.39518 0.56121 0.33429
 C547 C 0.40251 0.48759 0.29987
 H548 H 0.40320 0.46691 0.29010
 C549 C 0.40917 0.49073 0.32822
 H550 H 0.41534 0.47244 0.34014
 Zn551 Zn 0.37577 0.50510 0.24993
 N552 N 0.39311 0.51018 0.28513
 C553 C 0.33185 0.48137 0.27673
 N554 N 0.34909 0.47738 0.25469
 C555 C 0.34944 0.45293 0.23952
 C556 C 0.33194 0.43122 0.24652
 C557 C 0.31404 0.46035 0.28439
 C558 C 0.37795 0.55702 0.22554
 C559 C 0.37215 0.58547 0.22199
 C560 C 0.32916 0.58015 0.24630
 C561 C 0.33576 0.55146 0.24929
 N562 N 0.36025 0.54065 0.23957
 H563 H 0.33286 0.50044 0.28926
 H564 H 0.36399 0.44974 0.22270
 H565 H 0.33287 0.41168 0.23458
 H566 H 0.30109 0.46408 0.30241
 H567 H 0.39760 0.54858 0.21848
 H568 H 0.38704 0.59792 0.21131
 H569 H 0.31025 0.58883 0.25527
 H570 H 0.32200 0.53835 0.26061
 C571 C 0.40556 0.51720 0.34129
 C572 C 0.43423 0.50698 0.17645
 C573 C 0.34808 0.59763 0.23346
 C574 C 0.31418 0.43465 0.26946
 C575 C 0.60105 0.99196 0.30183
 H576 H 0.61849 0.97769 0.30505
 C577 C 0.58410 0.99895 0.32318
 H578 H 0.58800 0.99006 0.34349
 C579 C 0.57551 1.02106 0.27042
 H580 H 0.57244 1.03003 0.25007
 C581 C 0.55649 1.02928 0.29304
 H582 H 0.53977 1.04376 0.28791
 N583 N 0.59634 1.00387 0.27476
 C584 C 0.60992 0.99030 0.18621
 H585 H 0.62913 1.00103 0.18371
 C586 C 0.59643 0.97922 0.16288
 H587 H 0.60513 0.98186 0.14236
 C588 C 0.57556 0.97327 0.21611
 H589 H 0.56783 0.97056 0.23698
 C590 C 0.56165 0.96147 0.19343
 H591 H 0.54278 0.95049 0.19710
 Zn592 Zn 0.61980 1.00004 0.24317
 N593 N 0.59913 0.98751 0.21211
 C594 C 0.67322 0.97759 0.23405
 N595 N 0.64857 0.97258 0.24617
 C596 C 0.64159 0.94602 0.25298
 C597 C 0.65935 0.92309 0.24670
 C598 C 0.69155 0.95534 0.22744
 C599 C 0.61700 1.05369 0.22027
 C600 C 0.62225 1.08228 0.21843
 C601 C 0.66144 1.07550 0.24903
 C602 C 0.65479 1.04708 0.25105
 N603 N 0.63295 1.03673 0.23661
 H604 H 0.67785 0.99856 0.22744
 H605 H 0.62136 0.94240 0.26143
 H606 H 0.65294 0.90200 0.25124
 H607 H 0.71062 0.96001 0.21711
 H608 H 0.59933 1.04529 0.20951
 H609 H 0.60877 1.09498 0.20545
 H610 H 0.67875 1.08332 0.26091
 H611 H 0.66660 1.03349 0.26477
 C612 C 0.57212 0.96437 0.16639
 C613 C 0.56050 1.01924 0.31890
 C614 C 0.64452 1.09380 0.23325
 C615 C 0.68428 0.92751 0.23283
 C616 C 0.09680 0.48424 0.79441
 H617 H 0.09828 0.46353 0.78479
 C618 C 0.08026 0.48849 0.81810
 H619 H 0.06968 0.47093 0.82688
 C620 C 0.10631 0.53284 0.79354
 H621 H 0.11592 0.55040 0.78395
 C622 C 0.08966 0.53805 0.81668
 H623 H 0.08697 0.55943 0.82458
 N624 N 0.10889 0.50647 0.78215
 C625 C 0.10820 0.49149 0.69198
 H626 H 0.12856 0.49832 0.68664
 C627 C 0.09023 0.48286 0.67093
 H628 H 0.09694 0.48301 0.64942
 C629 C 0.07440 0.48369 0.72633
 H630 H 0.06794 0.48462 0.74779
 C631 C 0.05598 0.47431 0.70597
 H632 H 0.03559 0.46813 0.71212
 Zn633 Zn 0.12605 0.50390 0.74624
 N634 N 0.10009 0.49179 0.71910
 C635 C 0.17459 0.48054 0.72319
 N636 N 0.15659 0.47785 0.74460
 C637 C 0.15775 0.45475 0.76100
 C638 C 0.17648 0.43255 0.75514
 C639 C 0.19384 0.45899 0.71678
 C640 C 0.11795 0.55744 0.72379
 C641 C 0.12170 0.58635 0.72195
 C642 C 0.16515 0.58052 0.74619
 C643 C 0.16053 0.55159 0.74767
 N644 N 0.13695 0.54077 0.73697
 H645 H 0.17322 0.49895 0.71027
 H646 H 0.14347 0.45284 0.77796
 H647 H 0.17636 0.41392 0.76783
 H648 H 0.20714 0.46137 0.69900
 H649 H 0.09904 0.54857 0.71606
 H650 H 0.10591 0.59911 0.71187
 H651 H 0.18353 0.58897 0.75569
 H652 H 0.17501 0.53803 0.75866
 C653 C 0.06386 0.47391 0.67787
 C654 C 0.07575 0.51589 0.82868
 C655 C 0.14512 0.59842 0.73402
 C656 C 0.19441 0.43419 0.73238
 C657 C 0.78369 0.93679 0.00074
 H658 H 0.76273 0.94249 -0.00499
 C659 C 0.80474 0.95551 -0.00429
 H660 H 0.79943 0.97579 -0.01302
 C661 C 0.81613 0.90268 0.01716
 H662 H 0.82053 0.88145 0.02402
 C663 C 0.83783 0.92084 0.01257
 H664 H 0.85882 0.91362 0.01662
 N665 N 0.78982 0.91058 0.01029
 C666 C 0.71949 0.90751 -0.02290
 H667 H 0.73479 0.90951 -0.03904
 C668 C 0.69182 0.91325 -0.02898
 H669 H 0.68595 0.91987 -0.04972
 C670 C 0.70817 0.89459 0.02309
 H671 H 0.71439 0.88620 0.04297
 C672 C 0.68022 0.90098 0.01811
 H673 H 0.66517 0.89769 0.03427
 Zn674 Zn 0.76370 0.88214 0.00463
 N675 N 0.72711 0.89749 0.00248
 C676 C 0.76280 0.86224 0.06011
 N677 N 0.76632 0.85454 0.03287
 C678 C 0.76996 0.82702 0.02520
 C679 C 0.76794 0.80591 0.04488
 C680 C 0.76072 0.84172 0.08058
 C681 C 0.79099 0.87662 -0.04709
 C682 C 0.79243 0.87033 -0.07551
 C683 C 0.75342 0.84024 -0.07066
 C684 C 0.75239 0.84751 -0.04231
 N685 N 0.77068 0.86589 -0.03124
 H686 H 0.76047 0.88430 0.06578
 H687 H 0.77358 0.82126 0.00365
 H688 H 0.77024 0.78417 0.03804
 H689 H 0.75670 0.84814 0.10197
 H690 H 0.80519 0.89141 -0.03822
 H691 H 0.80809 0.87993 -0.08795
 H692 H 0.73805 0.82654 -0.07947
 H693 H 0.73600 0.83982 -0.02949
 C694 C 0.67184 0.90939 -0.00852
 C695 C 0.83235 0.94709 0.00044
 C696 C 0.77298 0.85262 -0.08771
 C697 C 0.76231 0.81311 0.07284
 C698 C 0.27968 0.42102 0.53637
 H699 H 0.26036 0.42153 0.54758
 C700 C 0.29927 0.44132 0.54225
 H701 H 0.29520 0.45707 0.55838
 C702 C 0.30788 0.40090 0.50061
 H703 H 0.31082 0.38583 0.48374
 C704 C 0.32833 0.42028 0.50635
 H705 H 0.34698 0.41975 0.49397
 N706 N 0.28396 0.40179 0.51535
 C707 C 0.19710 0.39097 0.50149
 H708 H 0.19482 0.36848 0.50207
 C709 C 0.17399 0.40874 0.50570
 H710 H 0.15403 0.39975 0.50932
 C711 C 0.22586 0.43023 0.49773
 H712 H 0.24612 0.43859 0.49472
 C713 C 0.20347 0.44870 0.50247
 H714 H 0.20669 0.47116 0.50296
 Zn715 Zn 0.25444 0.37849 0.50438
 N716 N 0.22259 0.40191 0.49881
 C717 C 0.23075 0.33053 0.52505
 N718 N 0.24651 0.35270 0.53250
 C719 C 0.25571 0.35615 0.55908
 C720 C 0.24803 0.33753 0.57964
 C721 C 0.22249 0.31148 0.54495
 C722 C 0.25158 0.36045 0.44732
 C723 C 0.25946 0.34337 0.42450
 C724 C 0.29297 0.31960 0.45391
 C725 C 0.28441 0.33697 0.47607
 N726 N 0.26428 0.35704 0.47238
 H727 H 0.22437 0.32785 0.50358
 H728 H 0.26866 0.37352 0.56452
 H729 H 0.25509 0.34087 0.60083
 H730 H 0.20976 0.29417 0.53856
 H731 H 0.23538 0.37636 0.44506
 H732 H 0.24921 0.34631 0.40463
 H733 H 0.30894 0.30378 0.45760
 H734 H 0.29384 0.33452 0.49640
 C735 C 0.17739 0.43789 0.50754
 C736 C 0.32372 0.44128 0.52678
 C737 C 0.28052 0.32271 0.42762
 C738 C 0.23082 0.31517 0.57276
 C739 C 0.21707 0.56218 -0.01788
 H740 H 0.23811 0.55816 -0.02456
 C741 C 0.19691 0.54254 -0.02400
 H742 H 0.20320 0.52333 -0.03485
 C743 C 0.18365 0.59289 0.00320
 H744 H 0.17849 0.61307 0.01286
 C745 C 0.16293 0.57371 -0.00210
 H746 H 0.14200 0.57928 0.00410
 N747 N 0.21007 0.58694 -0.00489
 C748 C 0.28565 0.60073 -0.02994
 H749 H 0.27445 0.60664 -0.04855
 C750 C 0.31392 0.59486 -0.03147
 H751 H 0.32432 0.59650 -0.05129
 C752 C 0.28600 0.59209 0.01856
 H753 H 0.27514 0.59185 0.03818
 C754 C 0.31432 0.58542 0.01784
 H755 H 0.32515 0.58012 0.03690
 Zn756 Zn 0.23604 0.61600 -0.00257
 N757 N 0.27249 0.60041 -0.00499
 C758 C 0.24354 0.66005 0.03877
 N759 N 0.23287 0.63439 0.03277
 C760 C 0.22381 0.61768 0.05337
 C761 C 0.22600 0.62597 0.08111
 C762 C 0.24606 0.66931 0.06664
 C763 C 0.20901 0.63177 -0.05162
 C764 C 0.20890 0.63987 -0.07933
 C765 C 0.24923 0.66721 -0.07008
 C766 C 0.24876 0.65830 -0.04230
 N767 N 0.22968 0.63959 -0.03408
 H768 H 0.25139 0.67266 0.02216
 H769 H 0.21663 0.59686 0.04851
 H770 H 0.21936 0.61179 0.09706
 H771 H 0.25568 0.68913 0.07138
 H772 H 0.19381 0.61717 -0.04508
 H773 H 0.19342 0.63167 -0.09340
 H774 H 0.26582 0.68015 -0.07708
 H775 H 0.26530 0.66393 -0.02827
 C776 C 0.32868 0.58794 -0.00723
 C777 C 0.16919 0.54841 -0.01658
 C778 C 0.23000 0.65651 -0.08917
 C779 C 0.23811 0.65156 0.08812
 C780 C 0.69704 0.10025 0.50426
 H781 H 0.69520 0.11741 0.51929
 C782 C 0.67383 0.08458 0.49704
 H783 H 0.65421 0.08965 0.50684
 C784 C 0.72447 0.07332 0.47232
 H785 H 0.74427 0.06922 0.46255
 C786 C 0.70209 0.05727 0.46461
 H787 H 0.70532 0.04071 0.44918
 N788 N 0.72169 0.09436 0.49168
 C789 C 0.80945 0.10094 0.50734
 H790 H 0.81292 0.12175 0.49948
 C791 C 0.83147 0.08488 0.51801
 H792 H 0.85201 0.09329 0.51792
 C793 C 0.77824 0.06504 0.51768
 H794 H 0.75735 0.05769 0.51812
 C795 C 0.79959 0.04841 0.52881
 H796 H 0.79488 0.02797 0.53687
 Zn797 Zn 0.75433 0.11494 0.49564
 N798 N 0.78353 0.09070 0.50710
 C799 C 0.76510 0.16856 0.51741
 N800 N 0.75305 0.14379 0.52302
 C801 C 0.74702 0.13660 0.54959
 C802 C 0.75415 0.15422 0.57193
 C803 C 0.77275 0.18667 0.53912
 C804 C 0.77935 0.11520 0.44281
 C805 C 0.77997 0.12094 0.41442
 C806 C 0.74408 0.15658 0.42159
 C807 C 0.74372 0.14973 0.44982
 N808 N 0.76099 0.12914 0.45976
 H809 H 0.77079 0.17332 0.49629
 H810 H 0.73849 0.11625 0.55355
 H811 H 0.75025 0.14764 0.59303
 H812 H 0.78309 0.20583 0.53415
 H813 H 0.79226 0.09832 0.45090
 H814 H 0.79398 0.10888 0.40103
 H815 H 0.72958 0.17229 0.41374
 H816 H 0.72876 0.15990 0.46359
 C817 C 0.82663 0.05835 0.52912
 C818 C 0.67616 0.06299 0.47665
 C819 C 0.76167 0.14134 0.40343
 C820 C 0.76817 0.17907 0.56686
 C821 C 0.97216 0.70790 0.91522
 H822 H 0.95469 0.72258 0.91529
 C823 C 0.97302 0.68654 0.93290
 H824 H 0.95594 0.68379 0.94699
 C825 C 1.01484 0.69363 0.89423
 H826 H 1.03198 0.69736 0.88057
 C827 C 1.01518 0.66794 0.91124
 H828 H 1.03249 0.65314 0.90935
 N829 N 0.99549 0.71293 0.89784
 C830 C 1.00228 0.80573 0.90502
 H831 H 1.01070 0.80987 0.88468
 C832 C 0.99851 0.82687 0.92352
 H833 H 1.00379 0.84800 0.91780
 C834 C 0.98704 0.77173 0.93699
 H835 H 0.98350 0.75053 0.94302
 C836 C 0.98176 0.79437 0.95775
 H837 H 0.97386 0.78857 0.97783
 Zn838 Zn 0.99841 0.74946 0.88271
 N839 N 0.99511 0.77749 0.91187
 C840 C 0.95503 0.78046 0.85761
 N841 N 0.96845 0.75493 0.85728
 C842 C 0.95611 0.73172 0.84644
 C843 C 0.92850 0.73329 0.83759
 C844 C 0.92740 0.78282 0.84957
 C845 C 1.05353 0.75134 0.88870
 C846 C 1.08129 0.75475 0.88311
 C847 C 1.06980 0.76117 0.83457
 C848 C 1.04182 0.75770 0.84119
 N849 N 1.03439 0.75299 0.86803
 H850 H 0.96479 0.79867 0.86641
 H851 H 0.96679 0.71146 0.84705
 H852 H 0.91829 0.71428 0.83103
 H853 H 0.91643 0.80286 0.85207
 H854 H 1.04705 0.74753 0.90983
 H855 H 1.09586 0.75301 0.90016
 H856 H 1.07563 0.76522 0.81327
 H857 H 1.02618 0.75908 0.82510
 C858 C 0.98661 0.82123 0.95130
 C859 C 0.99653 0.66590 0.93174
 C860 C 1.08984 0.76017 0.85586
 C861 C 0.91354 0.75880 0.84063
 C862 C 0.49544 0.20263 0.38923
 H863 H 0.48055 0.19998 0.37261
 C864 C 0.50254 0.17991 0.40649
 H865 H 0.49287 0.15985 0.40310
 C866 C 0.52668 0.23164 0.41362
 H867 H 0.53607 0.25190 0.41627
 C868 C 0.53432 0.20975 0.43115
 H869 H 0.54936 0.21382 0.44730
 N870 N 0.50768 0.22784 0.39311
 C871 C 0.49021 0.31730 0.38488
 H872 H 0.49906 0.32133 0.36472
 C873 C 0.47927 0.33960 0.40111
 H874 H 0.48010 0.36090 0.39351
 C875 C 0.47801 0.28455 0.41915
 H876 H 0.47712 0.26301 0.42590
 C877 C 0.46641 0.30610 0.43576
 H878 H 0.45748 0.30086 0.45558
 Zn879 Zn 0.50264 0.26037 0.37112
 N880 N 0.48979 0.29047 0.39433
 C881 C 0.44977 0.25089 0.35011
 N882 N 0.47585 0.25728 0.34258
 C883 C 0.48127 0.26728 0.31683
 C884 C 0.45981 0.27233 0.29790
 C885 C 0.42769 0.25552 0.33176
 C886 C 0.55407 0.28673 0.36976
 C887 C 0.58221 0.28765 0.36398
 C888 C 0.57699 0.24969 0.33044
 C889 C 0.54897 0.24914 0.33722
 N890 N 0.53815 0.26736 0.35675
 H891 H 0.44588 0.24384 0.37102
 H892 H 0.50196 0.27314 0.31154
 H893 H 0.46461 0.28103 0.27787
 H894 H 0.40694 0.25136 0.33854
 H895 H 0.54541 0.30030 0.38595
 H896 H 0.59469 0.30259 0.37526
 H897 H 0.58551 0.23445 0.31557
 H898 H 0.53608 0.23332 0.32785
 C899 C 0.46697 0.33405 0.42678
 C900 C 0.52250 0.18328 0.42761
 C901 C 0.59409 0.26847 0.34462
 C902 C 0.43247 0.26732 0.30564
 C903 C 0.98603 0.29852 0.59350
 H904 H 0.97096 0.30294 0.60966
 C905 C 0.99177 0.31918 0.57402
 H906 H 0.98031 0.33905 0.57505
 C907 C 1.02119 0.26847 0.57457
 H908 H 1.03379 0.24943 0.57604
 C909 C 1.02730 0.28824 0.55451
 H910 H 1.04405 0.28327 0.54032
 N911 N 1.00113 0.27400 0.59374
 C912 C 1.00726 0.19599 0.64037
 H913 H 1.00991 0.20573 0.66071
 C914 C 1.00646 0.16680 0.63785
 H915 H 1.00872 0.15457 0.65653
 C916 C 0.99997 0.20087 0.59184
 H917 H 0.99662 0.21432 0.57413
 C918 C 0.99901 0.17155 0.58835
 H919 H 0.99553 0.16266 0.56776
 Zn920 Zn 1.00261 0.25155 0.62578
 N921 N 1.00431 0.21241 0.61759
 C922 C 0.94592 0.25327 0.64020
 N923 N 0.97203 0.25689 0.64985
 C924 C 0.97749 0.25831 0.67768
 C925 C 0.95660 0.25477 0.69700
 C926 C 0.92421 0.24992 0.65895
 C927 C 1.03394 0.29024 0.65431
 C928 C 1.05575 0.30058 0.67006
 C929 C 1.07921 0.25527 0.66465
 C930 C 1.05674 0.24572 0.64924
 N931 N 1.03447 0.26308 0.64495
 H932 H 0.94225 0.25133 0.61801
 H933 H 0.99843 0.26010 0.68507
 H934 H 0.96169 0.25505 0.71898
 H935 H 0.90370 0.24593 0.65105
 H936 H 1.01608 0.30368 0.65014
 H937 H 1.05425 0.32211 0.67764
 H938 H 1.09654 0.24090 0.66818
 H939 H 1.05705 0.22444 0.64091
 C940 C 1.00232 0.15410 0.61157
 C941 C 1.01329 0.31459 0.55466
 C942 C 1.07873 0.28288 0.67584
 C943 C 0.92975 0.24958 0.68770
 C944 C 0.49100 0.76991 0.06155
 H945 H 0.49586 0.74818 0.05646
 C946 C 0.48871 0.78921 0.04008
 H947 H 0.49279 0.78197 0.01899
 C948 C 0.47922 0.80537 0.09498
 H949 H 0.47553 0.81143 0.11650
 C950 C 0.47688 0.82546 0.07415
 H951 H 0.47145 0.84705 0.07982
 N952 N 0.48746 0.77846 0.08853
 C953 C 0.48915 0.69427 0.10466
 H954 H 0.47122 0.69448 0.11796
 C955 C 0.49518 0.67064 0.08784
 H956 H 0.48167 0.65287 0.08813
 C957 C 0.52805 0.71737 0.08724
 H958 H 0.54038 0.73598 0.08670
 C959 C 0.53440 0.69454 0.06955
 H960 H 0.55190 0.69550 0.05568
 Zn961 Zn 0.49293 0.75289 0.11826
 N962 N 0.50464 0.71761 0.10279
 C963 C 0.43890 0.74261 0.11460
 N964 N 0.45741 0.75030 0.13442
 C965 C 0.44906 0.75806 0.16059
 C966 C 0.42071 0.75903 0.16713
 C967 C 0.41085 0.74315 0.12017
 C968 C 0.53644 0.78795 0.13271
 C969 C 0.56326 0.79242 0.14186
 C970 C 0.56012 0.75221 0.17158
 C971 C 0.53313 0.74833 0.16166
 N972 N 0.52231 0.76545 0.14164
 H973 H 0.44600 0.73692 0.09386
 H974 H 0.46410 0.76461 0.17592
 H975 H 0.41405 0.76614 0.18764
 H976 H 0.39685 0.73702 0.10368
 H977 H 0.52826 0.80098 0.11635
 H978 H 0.57475 0.80927 0.13289
 H979 H 0.56933 0.73716 0.18579
 H980 H 0.52190 0.73015 0.16797
 C981 C 0.51711 0.67138 0.06893
 C982 C 0.48230 0.81758 0.04636
 C983 C 0.57592 0.77359 0.16037
 C984 C 0.40121 0.75232 0.14639
 O985 O 0.04939 1.00908 1.07627
 O986 O 0.04000 0.95896 1.07173
 O987 O 0.08606 1.03021 0.99928
 O988 O 0.07577 1.02741 0.95365
 O989 O 0.01616 1.07835 1.03228
 O990 O -0.03295 1.07077 1.03170
 O991 O 0.00834 0.95785 0.93363
 O992 O 0.05444 0.95913 0.94142
 O993 O -0.02517 0.92855 1.01034
 O994 O -0.01950 0.94754 1.06100
 O995 O -0.06274 0.99916 0.97187
 O996 O -0.04972 1.04974 0.96816
 O997 O -0.02520 0.99231 0.93202
 O998 O -0.02436 1.04216 0.93639
 O999 O -0.06258 0.96901 1.00819
 O1000 O -0.05258 0.97375 1.05516
 O1001 O 0.00462 0.92419 0.97391
 O1002 O 0.05504 0.93057 0.98166
 O1003 O 0.01656 1.04424 1.07382
 O1004 O -0.03242 1.04315 1.06581
 O1005 O 0.04859 1.07312 0.99828
 O1006 O 0.04194 1.05729 0.94962
 O1007 O 0.08604 1.00069 1.03627
 O1008 O 0.07350 0.95187 1.03593
 Zr1009 Zr 0.04524 0.98683 1.03809
 O1010 O 0.01929 0.95888 1.01672
 Zr1011 Zr 0.04500 1.03098 0.98473
 O1012 O 0.01925 1.00463 0.96144
 Zr1013 Zr -0.00186 1.03888 1.03458
 O1014 O -0.02975 1.01303 1.01342
 Zr1015 Zr 0.02483 0.96268 0.97371
 O1016 O 0.05303 0.98860 0.99492
 Zr1017 Zr -0.02208 0.97076 1.02376
 O1018 O 0.00374 0.99715 1.04765
 Zr1019 Zr -0.02235 1.01436 0.97037
 O1020 O 0.00345 1.04325 0.99140
 O1021 O 0.03943 1.02877 1.02734
 O1022 O -0.01693 0.97214 0.98063
 C1023 C 0.03619 1.03081 1.08631
 C1024 C 0.09810 1.01703 1.01932
 C1025 C 0.03549 1.08763 1.01704
 C1026 C -0.01084 0.97188 0.92107
 C1027 C -0.01339 0.91444 0.99044
 C1028 C -0.07466 0.98213 0.98821
 H1029 H 0.02355 0.93944 1.02278
 H1030 H -0.04873 1.01940 1.01829
 H1031 H 0.05228 1.04114 1.03750
 H1032 H 0.02352 1.00683 0.94148
 H1033 H 0.07213 0.96538 0.94947
 H1034 H 0.07028 1.01227 0.94057
 H1035 H -0.05927 0.99358 1.05605
 H1036 H -0.03072 1.02614 1.07739
 H1037 H 0.05309 0.91551 0.96728
 H1038 H 0.08731 0.95364 1.05112
 H1039 H -0.06159 1.04980 0.98488
 H1040 H -0.03165 1.07858 1.01276
 H1041 H 0.05574 0.96070 1.08485
 H1042 H -0.00616 0.93168 1.05792
 H1043 H 0.02520 1.06943 0.95224
 H1044 H -0.00615 1.04126 0.92716
 O1045 O 0.45912 0.49226 0.43401
 O1046 O 0.50567 0.49242 0.42111
 O1047 O 0.45819 0.43096 0.49980
 O1048 O 0.47738 0.42479 0.54153
 O1049 O 0.41683 0.51294 0.51160
 O1050 O 0.43245 0.55848 0.52166
 O1051 O 0.56173 0.47817 0.55091
 O1052 O 0.54788 0.43631 0.53230
 O1053 O 0.56703 0.53533 0.48609
 O1054 O 0.53910 0.54711 0.44806
 O1055 O 0.52316 0.56150 0.55695
 O1056 O 0.48168 0.55193 0.57785
 O1057 O 0.53702 0.51019 0.57723
 O1058 O 0.48576 0.51228 0.59039
 O1059 O 0.53885 0.57111 0.51362
 O1060 O 0.51210 0.57719 0.46941
 O1061 O 0.57770 0.49158 0.50218
 O1062 O 0.55927 0.44697 0.48525
 O1063 O 0.43472 0.52500 0.45975
 O1064 O 0.44729 0.56842 0.48280
 O1065 O 0.42711 0.46910 0.52759
 O1066 O 0.45926 0.45771 0.56658
 O1067 O 0.47201 0.44134 0.45591
 O1068 O 0.52010 0.45054 0.44253
 Zr1069 Zr 0.49167 0.48018 0.46094
 O1070 O 0.52884 0.49617 0.47654
 Zr1071 Zr 0.47025 0.46520 0.52474
 O1072 O 0.50716 0.47937 0.54257
 Zr1073 Zr 0.45514 0.52761 0.49844
 O1074 O 0.49087 0.54485 0.51597
 Zr1075 Zr 0.53942 0.47569 0.51358
 O1076 O 0.50327 0.45792 0.49698
 Zr1077 Zr 0.52389 0.53862 0.48818
 O1078 O 0.48741 0.52385 0.46932
 Zr1079 Zr 0.50326 0.52272 0.55167
 O1080 O 0.46500 0.50796 0.53629
 O1081 O 0.45849 0.48502 0.48820
 O1082 O 0.53656 0.51841 0.52448
 C1083 C 0.43957 0.51085 0.43712
 C1084 C 0.46120 0.42507 0.47375
 C1085 C 0.41013 0.48945 0.52218
 C1086 C 0.55714 0.49224 0.57360
 C1087 C 0.58418 0.51524 0.49191
 C1088 C 0.53571 0.57700 0.53960
 H1089 H 0.54339 0.49360 0.46224
 H1090 H 0.48703 0.56500 0.52022
 H1091 H 0.44138 0.47745 0.48002
 H1092 H 0.51135 0.46828 0.55938
 H1093 H 0.53629 0.42241 0.52249
 H1094 H 0.49685 0.42384 0.54768
 H1095 H 0.50146 0.58866 0.48324
 H1096 H 0.45873 0.57003 0.46588
 H1097 H 0.57783 0.44200 0.49275
 H1098 H 0.51091 0.44002 0.42726
 H1099 H 0.47151 0.56514 0.56556
 H1100 H 0.43292 0.55235 0.54129
 H1101 H 0.49766 0.48001 0.40652
 H1102 H 0.52621 0.53842 0.43464
 H1103 H 0.44972 0.47503 0.57373
 H1104 H 0.49312 0.49344 0.59552
 O1105 O 0.49581 -0.06532 0.53352
 O1106 O 0.54348 -0.05807 0.53044
 O1107 O 0.46397 0.01188 0.57140
 O1108 O 0.46541 0.05776 0.56258
 O1109 O 0.42447 -0.02336 0.49943
 O1110 O 0.43416 -0.02273 0.45056
 O1111 O 0.53669 0.08003 0.49331
 O1112 O 0.53105 0.07445 0.54115
 O1113 O 0.57079 0.00594 0.46075
 O1114 O 0.56241 -0.04198 0.46556
 O1115 O 0.50125 0.04094 0.42286
 O1116 O 0.45130 0.04310 0.43371
 O1117 O 0.50317 0.08080 0.45992
 O1118 O 0.45300 0.07399 0.46227
 O1119 O 0.53365 0.00545 0.42302
 O1120 O 0.52935 -0.04515 0.43560
 O1121 O 0.57216 0.04078 0.49380
 O1122 O 0.56293 0.03471 0.54355
 O1123 O 0.46396 -0.06509 0.49851
 O1124 O 0.46346 -0.05519 0.45023
 O1125 O 0.42503 0.01293 0.53095
 O1126 O 0.43808 0.06196 0.52700
 O1127 O 0.49612 -0.02397 0.57193
 O1128 O 0.54584 -0.01872 0.56032
 Zr1129 Zr 0.51304 -0.02504 0.53152
 O1130 O 0.53982 -0.00284 0.50584
 Zr1131 Zr 0.46572 0.02688 0.53033
 O1132 O 0.49100 0.05149 0.50535
 Zr1133 Zr 0.46446 -0.02422 0.48234
 O1134 O 0.48918 -0.00167 0.45500
 Zr1135 Zr 0.53272 0.04061 0.51188
 O1136 O 0.50755 0.01850 0.53964
 Zr1137 Zr 0.53103 -0.01033 0.46366
 O1138 O 0.50624 -0.03531 0.48912
 Zr1139 Zr 0.48397 0.04172 0.46309
 O1140 O 0.45643 0.01922 0.48805
 O1141 O 0.47133 -0.01629 0.52444
 O1142 O 0.52577 0.03298 0.46953
 C1143 C 0.47781 -0.07734 0.51795
 C1144 C 0.47781 -0.00776 0.58376
 C1145 C 0.41279 -0.00662 0.51738
 C1146 C 0.52322 0.09191 0.47335
 C1147 C 0.58310 0.02561 0.47420
 C1148 C 0.52011 0.02543 0.41103
 H1149 H 0.55915 -0.00843 0.51023
 H1150 H 0.48427 -0.00678 0.43560
 H1151 H 0.45930 -0.02740 0.53645
 H1152 H 0.48739 0.07167 0.50964
 H1153 H 0.52541 0.06645 0.55912
 H1154 H 0.47887 0.07201 0.55740
 H1155 H 0.51385 -0.04165 0.42254
 H1156 H 0.48169 -0.06509 0.45037
 H1157 H 0.57581 0.05055 0.54290
 H1158 H 0.54382 -0.03134 0.57639
 H1159 H 0.45248 0.02555 0.42234
 H1160 H 0.42565 -0.00356 0.45136
 H1161 H 0.54218 -0.06923 0.54767
 H1162 H 0.55673 -0.05512 0.48011
 H1163 H 0.42791 0.05959 0.50923
 H1164 H 0.45579 0.08652 0.47865
 O1165 O -0.07942 0.45681 0.99457
 O1166 O -0.06649 0.45460 0.94789
 O1167 O -0.00736 0.41933 1.03586
 O1168 O 0.03766 0.42733 1.03817
 O1169 O -0.04519 0.49516 1.06932
 O1170 O -0.04390 0.54297 1.05708
 O1171 O 0.06793 0.48857 0.96471
 O1172 O 0.05944 0.44184 0.97038
 O1173 O -0.00063 0.52425 0.92314
 O1174 O -0.04848 0.51899 0.92730
 O1175 O 0.02472 0.56642 0.99487
 O1176 O 0.02659 0.55890 1.04214
 O1177 O 0.06561 0.52620 0.99476
 O1178 O 0.05270 0.52638 1.04670
 O1179 O -0.00566 0.56346 0.95874
 O1180 O -0.05522 0.55150 0.95887
 O1181 O 0.03353 0.49067 0.92582
 O1182 O 0.02423 0.44049 0.93520
 O1183 O -0.08201 0.49339 1.02582
 O1184 O -0.07131 0.54240 1.02432
 O1185 O -0.01001 0.46281 1.07285
 O1186 O 0.03984 0.46461 1.06281
 O1187 O -0.04038 0.41729 1.00203
 O1188 O -0.02796 0.42398 0.95169
 Zr1189 Zr -0.03803 0.45608 0.98164
 O1190 O -0.01356 0.47969 0.95489
 Zr1191 Zr 0.00786 0.46013 1.03303
 O1192 O 0.03477 0.48259 1.00789
 Zr1193 Zr -0.04177 0.50906 1.02800
 O1194 O -0.01662 0.53416 1.00367
 Zr1195 Zr 0.02802 0.47324 0.96551
 O1196 O 0.00379 0.44760 0.99095
 Zr1197 Zr -0.02110 0.52282 0.96142
 O1198 O -0.04837 0.49940 0.98557
 Zr1199 Zr 0.02543 0.52586 1.01214
 O1200 O -0.00002 0.50348 1.03954
 O1201 O -0.03376 0.46617 1.02386
 O1202 O 0.02078 0.51661 0.96991
 C1203 C -0.09285 0.47370 1.01106
 C1204 C -0.02623 0.40658 1.02217
 C1205 C -0.03003 0.47778 1.08320
 C1206 C 0.07862 0.50953 0.97754
 C1207 C 0.02038 0.51054 0.91319
 C1208 C 0.01075 0.57707 0.97463
 H1209 H -0.01710 0.47426 0.93521
 H1210 H -0.02211 0.55400 1.00761
 H1211 H -0.04611 0.45538 1.03585
 H1212 H 0.05399 0.47782 1.01336
 H1213 H 0.05021 0.42451 0.97606
 H1214 H 0.05151 0.42945 1.02334
 H1215 H -0.05356 0.56548 0.97425
 H1216 H -0.07998 0.54028 1.00572
 H1217 H 0.04083 0.44042 0.92318
 H1218 H -0.04034 0.40793 0.95401
 H1219 H 0.00743 0.56623 1.04437
 H1220 H -0.02607 0.54282 1.06720
 H1221 H -0.07741 0.43730 0.94921
 H1222 H -0.06214 0.50500 0.93270
 H1223 H 0.03626 0.48272 1.07282
 H1224 H 0.06706 0.51147 1.04361
 O1225 O 0.03353 0.42048 0.49958
 O1226 O 0.03042 0.43244 0.45213
 O1227 O 0.07191 0.49512 0.53497
 O1228 O 0.06100 0.54007 0.54342
 O1229 O -0.00045 0.45730 0.57497
 O1230 O -0.04830 0.46001 0.56468
 O1231 O -0.00391 0.57209 0.47216
 O1232 O 0.04290 0.56179 0.47523
 O1233 O -0.03844 0.50182 0.43002
 O1234 O -0.03365 0.45349 0.43442
 O1235 O -0.07504 0.53382 0.50153
 O1236 O -0.06759 0.53042 0.55042
 O1237 O -0.03631 0.57148 0.50641
 O1238 O -0.03562 0.55571 0.55647
 O1239 O -0.07479 0.49996 0.46747
 O1240 O -0.06269 0.44818 0.46772
 O1241 O -0.00776 0.53712 0.43305
 O1242 O 0.04235 0.52633 0.43924
 O1243 O -0.00002 0.41937 0.53265
 O1244 O -0.04856 0.43108 0.53155
 O1245 O 0.03324 0.48968 0.57633
 O1246 O 0.02697 0.54129 0.56883
 O1247 O 0.07186 0.45975 0.50237
 O1248 O 0.06012 0.47057 0.45304
 Zr1249 Zr 0.03178 0.46236 0.48549
 O1250 O 0.00654 0.48844 0.46040
 Zr1251 Zr 0.03060 0.50949 0.53754
 O1252 O 0.00617 0.53776 0.51424
 Zr1253 Zr -0.01679 0.46064 0.53438
 O1254 O -0.04369 0.48703 0.51141
 Zr1255 Zr 0.01248 0.53079 0.47138
 O1256 O 0.03977 0.50491 0.49486
 Zr1257 Zr -0.03502 0.48195 0.46873
 O1258 O -0.01007 0.45326 0.49149
 Zr1259 Zr -0.03573 0.52953 0.52034
 O1260 O -0.01125 0.50293 0.54622
 O1261 O 0.02494 0.46729 0.52813
 O1262 O -0.02935 0.52451 0.47769
 C1263 C 0.01901 0.40764 0.51756
 C1264 C 0.08398 0.47564 0.52021
 C1265 C 0.01895 0.47056 0.58743
 C1266 C -0.02231 0.58407 0.48785
 C1267 C -0.02665 0.52343 0.42031
 C1268 C -0.08653 0.51999 0.48159
 H1269 H 0.01063 0.48467 0.44046
 H1270 H -0.06296 0.48245 0.51567
 H1271 H 0.03718 0.45462 0.53910
 H1272 H 0.01095 0.55709 0.52002
 H1273 H 0.06043 0.55176 0.47993
 H1274 H 0.05947 0.55272 0.52732
 H1275 H -0.07612 0.45127 0.48301
 H1276 H -0.04719 0.42217 0.51279
 H1277 H 0.04100 0.54339 0.42762
 H1278 H 0.07598 0.45699 0.45383
 H1279 H -0.07600 0.51170 0.55013
 H1280 H -0.04851 0.47869 0.57415
 H1281 H 0.04740 0.42031 0.45257
 H1282 H -0.01913 0.43920 0.43875
 H1283 H 0.01075 0.53686 0.58028
 H1284 H -0.02020 0.56877 0.55470
 O1285 O 0.50430 0.91737 -0.01708
 O1286 O 0.49299 0.93562 -0.06087
 O1287 O 0.57688 0.96160 0.00764
 O1288 O 0.58928 1.00545 0.01446
 O1289 O 0.50871 0.95470 0.06550
 O1290 O 0.46554 0.97710 0.07015
 O1291 O 0.52186 1.07217 -0.03460
 O1292 O 0.56185 1.04564 -0.04322
 O1293 O 0.45528 1.02551 -0.06286
 O1294 O 0.43769 0.98261 -0.05561
 O1295 O 0.45696 1.06327 0.01901
 O1296 O 0.47689 1.04950 0.06350
 O1297 O 0.50426 1.08043 0.00878
 O1298 O 0.51569 1.06097 0.05641
 O1299 O 0.43300 1.03906 -0.01393
 O1300 O 0.42181 0.98628 -0.01543
 O1301 O 0.49740 1.04389 -0.07057
 O1302 O 0.54003 1.01488 -0.07674
 O1303 O 0.48416 0.92527 0.02525
 O1304 O 0.44466 0.95613 0.03790
 O1305 O 0.55113 0.97271 0.05871
 O1306 O 0.56721 1.02077 0.04897
 O1307 O 0.55429 0.93662 -0.02588
 O1308 O 0.53519 0.95731 -0.06928
 Zr1309 Zr 0.51562 0.95746 -0.02967
 O1310 O 0.49681 0.99409 -0.04570
 Zr1311 Zr 0.54811 0.99332 0.02004
 O1312 O 0.53215 1.03173 0.00455
 Zr1313 Zr 0.48546 0.96928 0.03158
 O1314 O 0.46670 1.00733 0.01842
 Zr1315 Zr 0.52251 1.02816 -0.03807
 O1316 O 0.54260 0.99102 -0.02358
 Zr1317 Zr 0.45993 1.00472 -0.02473
 O1318 O 0.47671 0.96563 -0.01119
 Zr1319 Zr 0.49410 1.04059 0.02374
 O1320 O 0.51109 1.00332 0.04101
 O1321 O 0.52319 0.95912 0.01309
 O1322 O 0.48522 1.03902 -0.01876
 C1323 C 0.49204 0.90911 0.00485
 C1324 C 0.57572 0.94195 -0.01102
 C1325 C 0.53351 0.95944 0.07318
 C1326 C 0.51400 1.08863 -0.01453
 C1327 C 0.47218 1.03946 -0.07738
 C1328 C 0.43580 1.05974 0.00343
 H1329 H 0.49364 0.99087 -0.06588
 H1330 H 0.44934 1.01088 0.02878
 H1331 H 0.53169 0.94152 0.02037
 H1332 H 0.54549 1.04680 0.00791
 H1333 H 0.57537 1.02964 -0.04380
 H1334 H 0.58872 1.02014 0.00011
 H1335 H 0.41516 0.99431 0.00255
 H1336 H 0.43805 0.94853 0.01982
 H1337 H 0.54271 1.03183 -0.08812
 H1338 H 0.54348 0.93839 -0.07335
 H1339 H 0.45969 1.03891 0.06493
 H1340 H 0.47451 0.99361 0.07871
 H1341 H 0.50307 0.91784 -0.06602
 H1342 H 0.44864 0.96516 -0.05963
 H1343 H 0.55430 1.02363 0.06476
 H1344 H 0.53321 1.06767 0.04875
 O1345 O 0.42268 0.53247 0.01798
 O1346 O 0.41053 0.48532 0.01480
 O1347 O 0.49320 0.52881 0.07553
 O1348 O 0.53606 0.51237 0.07627
 O1349 O 0.49741 0.57565 -0.00368
 O1350 O 0.50327 0.56113 -0.05056
 O1351 O 0.54114 0.42726 0.01711
 O1352 O 0.52547 0.44066 0.06116
 O1353 O 0.47533 0.42279 -0.03674
 O1354 O 0.43449 0.45057 -0.04234
 O1355 O 0.54014 0.46954 -0.06214
 O1356 O 0.56030 0.51248 -0.05019
 O1357 O 0.56411 0.45339 -0.01425
 O1358 O 0.57664 0.50501 -0.01291
 O1359 O 0.49678 0.45457 -0.07116
 O1360 O 0.45130 0.48064 -0.07120
 O1361 O 0.49473 0.41140 0.00491
 O1362 O 0.47881 0.42800 0.05131
 O1363 O 0.44560 0.55839 -0.01353
 O1364 O 0.46439 0.54670 -0.05867
 O1365 O 0.51546 0.56421 0.03854
 O1366 O 0.55634 0.53130 0.04367
 O1367 O 0.44918 0.51534 0.06707
 O1368 O 0.43475 0.46797 0.05313
 Zr1369 Zr 0.45073 0.49846 0.02593
 O1370 O 0.46581 0.46096 0.00639
 Zr1371 Zr 0.51466 0.52002 0.03858
 O1372 O 0.53201 0.48293 0.02085
 Zr1373 Zr 0.48348 0.53720 -0.02012
 O1374 O 0.50012 0.50139 -0.04092
 Zr1375 Zr 0.50427 0.45000 0.02363
 O1376 O 0.48845 0.48612 0.04471
 Zr1377 Zr 0.47400 0.46724 -0.03580
 O1378 O 0.45574 0.50402 -0.01733
 Zr1379 Zr 0.53748 0.48845 -0.02211
 O1380 O 0.52261 0.52685 -0.00377
 O1381 O 0.47661 0.53254 0.02231
 O1382 O 0.51174 0.45437 -0.01884
 C1383 C 0.42425 0.55311 0.00105
 C1384 C 0.46836 0.52458 0.08317
 C1385 C 0.50899 0.58195 0.01962
 C1386 C 0.56208 0.43209 0.00181
 C1387 C 0.48430 0.40488 -0.01883
 C1388 C 0.52201 0.45804 -0.07793
 H1389 H 0.45250 0.44572 0.00856
 H1390 H 0.50254 0.50615 -0.06072
 H1391 H 0.46877 0.54956 0.03186
 H1392 H 0.54953 0.47824 0.03053
 H1393 H 0.51596 0.45165 0.07617
 H1394 H 0.54005 0.49189 0.07677
 H1395 H 0.46336 0.49264 -0.08226
 H1396 H 0.44759 0.53536 -0.05993
 H1397 H 0.48735 0.40907 0.05426
 H1398 H 0.42047 0.47686 0.06540
 H1399 H 0.54691 0.52164 -0.06298
 H1400 H 0.52319 0.56052 -0.04590
 H1401 H 0.39695 0.49311 0.02852
 H1402 H 0.42141 0.46305 -0.03187
 H1403 H 0.56137 0.54206 0.02703
 H1404 H 0.58275 0.49758 0.00530
 O1405 O 0.00439 -0.01624 0.58293
 O1406 O 0.05190 -0.02136 0.56816
 O1407 O -0.01757 0.06468 0.54657
 O1408 O -0.02253 0.08271 0.50471
 O1409 O -0.07252 -0.00774 0.53833
 O1410 O -0.07129 -0.04864 0.50960
 O1411 O 0.03632 0.02693 0.43668
 O1412 O 0.03964 0.06335 0.47021
 O1413 O 0.06487 -0.04699 0.47563
 O1414 O 0.05647 -0.06927 0.51631
 O1415 O -0.01078 -0.04485 0.43228
 O1416 O -0.05834 -0.02781 0.44421
 O1417 O -0.00398 0.00785 0.42228
 O1418 O -0.05252 0.01226 0.43587
 O1419 O 0.01946 -0.07139 0.45780
 O1420 O 0.01876 -0.08862 0.50656
 O1421 O 0.07047 -0.00151 0.46314
 O1422 O 0.07241 0.03653 0.49791
 O1423 O -0.03531 -0.03597 0.56777
 O1424 O -0.04157 -0.07146 0.53226
 O1425 O -0.06625 0.03825 0.52820
 O1426 O -0.05358 0.06131 0.48450
 O1427 O 0.01176 0.03776 0.57287
 O1428 O 0.05722 0.02382 0.55830
 Zr1429 Zr 0.02074 0.00257 0.54729
 O1430 O 0.04211 -0.00992 0.51088
 Zr1431 Zr -0.02615 0.03911 0.51123
 O1432 O -0.00627 0.02856 0.47334
 Zr1433 Zr -0.03602 -0.02821 0.52496
 O1434 O -0.01711 -0.04168 0.48759
 Zr1435 Zr 0.03596 0.02029 0.47988
 O1436 O 0.01672 0.03448 0.51732
 Zr1437 Zr 0.02558 -0.04682 0.49407
 O1438 O 0.00624 -0.03632 0.53249
 Zr1439 Zr -0.02106 -0.00982 0.45790
 O1440 O -0.04317 0.00229 0.49429
 O1441 O -0.02159 0.00917 0.54200
 O1442 O 0.02121 -0.01703 0.46280
 C1443 C -0.01751 -0.03026 0.58666
 C1444 C -0.00252 0.06039 0.56834
 C1445 C -0.08092 0.01800 0.53675
 C1446 C 0.01837 0.02094 0.41791
 C1447 C 0.07870 -0.02732 0.46474
 C1448 C 0.00445 -0.06701 0.43614
 H1449 H 0.06191 -0.01260 0.51548
 H1450 H -0.02559 -0.05932 0.48117
 H1451 H -0.03121 0.01502 0.55941
 H1452 H -0.00923 0.04411 0.46011
 H1453 H 0.03852 0.07400 0.48811
 H1454 H -0.00708 0.08469 0.49156
 H1455 H 0.00076 -0.09432 0.49888
 H1456 H -0.02389 -0.07904 0.53978
 H1457 H 0.08430 0.04296 0.48262
 H1458 H 0.05668 0.04205 0.54860
 H1459 H -0.05824 -0.04763 0.45023
 H1460 H -0.07899 -0.03672 0.49457
 H1461 H 0.05257 -0.01524 0.58804
 H1462 H 0.05473 -0.06298 0.53599
 H1463 H -0.06742 0.04774 0.47794
 H1464 H -0.04747 0.03228 0.43531
 O1465 O 0.79737 0.23684 0.17671
 O1466 O 0.75922 0.20863 0.16705
 O1467 O 0.75836 0.31523 0.20373
 O1468 O 0.72618 0.32822 0.23619
 O1469 O 0.82556 0.28222 0.25055
 O1470 O 0.83117 0.24427 0.28259
 O1471 O 0.67941 0.24976 0.27787
 O1472 O 0.67559 0.27968 0.24117
 O1473 O 0.71549 0.17342 0.24617
 O1474 O 0.75292 0.16232 0.21796
 O1475 O 0.74902 0.21036 0.31902
 O1476 O 0.77836 0.25074 0.32826
 O1477 O 0.71046 0.25058 0.31359
 O1478 O 0.74927 0.28044 0.32509
 O1479 O 0.75108 0.17484 0.28671
 O1480 O 0.78474 0.16367 0.24892
 O1481 O 0.68288 0.20848 0.24238
 O1482 O 0.68044 0.24383 0.20583
 O1483 O 0.82813 0.23940 0.21263
 O1484 O 0.83319 0.21155 0.25333
 O1485 O 0.79276 0.31710 0.24669
 O1486 O 0.75184 0.32685 0.27420
 O1487 O 0.76171 0.27959 0.17146
 O1488 O 0.72449 0.24412 0.16763
 Zr1489 Zr 0.75854 0.24322 0.19569
 O1490 O 0.73129 0.21915 0.21890
 Zr1491 Zr 0.75578 0.29541 0.24256
 O1492 O 0.72798 0.27358 0.26732
 Zr1493 Zr 0.80347 0.24451 0.24846
 O1494 O 0.77781 0.22055 0.27354
 Zr1495 Zr 0.70498 0.24593 0.24253
 O1496 O 0.73051 0.27045 0.21713
 Zr1497 Zr 0.75285 0.19506 0.24832
 O1498 O 0.78076 0.21672 0.22314
 Zr1499 Zr 0.74972 0.24727 0.29506
 O1500 O 0.77774 0.27166 0.27245
 O1501 O 0.78293 0.26963 0.21983
 O1502 O 0.72524 0.22031 0.27155
 C1503 C 0.82199 0.23576 0.18677
 C1504 C 0.76089 0.30579 0.17852
 C1505 C 0.81778 0.30834 0.24995
 C1506 C 0.68572 0.25193 0.30386
 C1507 C 0.69043 0.18238 0.24319
 C1508 C 0.75042 0.18415 0.31195
 H1509 H 0.72082 0.20702 0.20591
 H1510 H 0.78959 0.20940 0.28634
 H1511 H 0.79611 0.28021 0.20862
 H1512 H 0.71576 0.28740 0.27719
 H1513 H 0.68081 0.29155 0.22535
 H1514 H 0.70916 0.32307 0.24595
 H1515 H 0.79664 0.16738 0.26528
 H1516 H 0.82758 0.19600 0.24074
 H1517 H 0.66101 0.24120 0.21139
 H1518 H 0.73075 0.24985 0.14897
 H1519 H 0.79278 0.23583 0.32551
 H1520 H 0.82384 0.25835 0.29628
 H1521 H 0.76392 0.21549 0.14827
 H1522 H 0.76224 0.16970 0.20141
 H1523 H 0.76441 0.32113 0.28952
 H1524 H 0.73581 0.29503 0.31882
 O1525 O 0.74002 0.67649 0.71347
 O1526 O 0.77639 0.66720 0.74561
 O1527 O 0.67529 0.71158 0.76462
 O1528 O 0.66842 0.74824 0.79355
 O1529 O 0.69807 0.75347 0.68849
 O1530 O 0.73529 0.78114 0.67534
 O1531 O 0.75655 0.78423 0.82794
 O1532 O 0.72683 0.74810 0.83790
 O1533 O 0.82252 0.74716 0.78154
 O1534 O 0.82535 0.71611 0.74380
 O1535 O 0.78291 0.82080 0.75328
 O1536 O 0.73995 0.83147 0.72848
 O1537 O 0.75412 0.81893 0.79574
 O1538 O 0.71436 0.82955 0.76184
 O1539 O 0.81611 0.78628 0.74873
 O1540 O 0.81848 0.74666 0.71097
 O1541 O 0.79435 0.75046 0.81934
 O1542 O 0.76098 0.71173 0.82855
 O1543 O 0.73662 0.71117 0.68129
 O1544 O 0.76557 0.75004 0.67105
 O1545 O 0.66947 0.75257 0.72595
 O1546 O 0.66943 0.78389 0.76786
 O1547 O 0.70734 0.67637 0.75709
 O1548 O 0.74952 0.67113 0.78653
 Zr1549 Zr 0.74438 0.69805 0.75183
 O1550 O 0.77413 0.72098 0.77421
 Zr1551 Zr 0.69668 0.74908 0.76019
 O1552 O 0.72394 0.77346 0.78413
 Zr1553 Zr 0.73806 0.74886 0.70508
 O1554 O 0.76664 0.77430 0.72609
 Zr1555 Zr 0.75391 0.74753 0.80337
 O1556 O 0.72413 0.72287 0.78270
 Zr1557 Zr 0.79463 0.74828 0.74791
 O1558 O 0.76758 0.72261 0.72467
 Zr1559 Zr 0.74636 0.79861 0.75723
 O1560 O 0.71720 0.77615 0.73342
 O1561 O 0.71559 0.72298 0.73047
 O1562 O 0.77562 0.77400 0.77794
 C1563 C 0.73795 0.68515 0.68827
 C1564 C 0.68273 0.68544 0.76276
 C1565 C 0.67406 0.75505 0.69977
 C1566 C 0.75746 0.81009 0.82076
 C1567 C 0.81831 0.74988 0.80784
 C1568 C 0.80812 0.81223 0.75130
 H1569 H 0.78745 0.70791 0.78334
 H1570 H 0.77604 0.78621 0.71259
 H1571 H 0.70208 0.71179 0.71983
 H1572 H 0.71344 0.78477 0.79817
 H1573 H 0.71440 0.73209 0.83511
 H1574 H 0.67898 0.75261 0.81066
 H1575 H 0.81636 0.76507 0.70175
 H1576 H 0.78067 0.73620 0.67491
 H1577 H 0.76812 0.71842 0.84681
 H1578 H 0.74226 0.65234 0.78177
 H1579 H 0.75193 0.82733 0.71220
 H1580 H 0.72536 0.79722 0.68453
 H1581 H 0.76807 0.64850 0.74290
 H1582 H 0.81591 0.69936 0.73642
 H1583 H 0.67239 0.79749 0.75283
 H1584 H 0.70613 0.82756 0.78051
 O1585 O 0.24543 0.21392 0.82146
 O1586 O 0.19808 0.22225 0.81140
 O1587 O 0.27642 0.17185 0.74733
 O1588 O 0.28069 0.18063 0.70216
 O1589 O 0.31962 0.24242 0.78445
 O1590 O 0.31243 0.29213 0.78276
 O1591 O 0.21146 0.25211 0.67426
 O1592 O 0.21407 0.20475 0.68243
 O1593 O 0.17751 0.29333 0.74351
 O1594 O 0.18271 0.28861 0.79168
 O1595 O 0.24974 0.32351 0.71311
 O1596 O 0.29608 0.31090 0.71222
 O1597 O 0.24591 0.28380 0.67473
 O1598 O 0.29801 0.27638 0.68689
 O1599 O 0.21692 0.32721 0.74681
 O1600 O 0.21795 0.31493 0.79751
 O1601 O 0.17550 0.25827 0.71074
 O1602 O 0.18086 0.20748 0.71971
 O1603 O 0.27889 0.24670 0.82275
 O1604 O 0.28183 0.29587 0.81195
 O1605 O 0.31795 0.20760 0.75143
 O1606 O 0.30836 0.21400 0.70039
 O1607 O 0.24409 0.17474 0.78167
 O1608 O 0.19551 0.19045 0.77332
 Zr1609 Zr 0.22946 0.21699 0.78080
 O1610 O 0.20487 0.24446 0.75655
 Zr1611 Zr 0.27888 0.21311 0.73276
 O1612 O 0.25552 0.23911 0.70598
 Zr1613 Zr 0.28053 0.26263 0.78213
 O1614 O 0.25831 0.29129 0.75711
 Zr1615 Zr 0.21327 0.23606 0.71441
 O1616 O 0.23640 0.20698 0.73844
 Zr1617 Zr 0.21585 0.28643 0.76319
 O1618 O 0.23813 0.25946 0.79041
 Zr1619 Zr 0.26435 0.28138 0.71468
 O1620 O 0.29002 0.25517 0.73985
 O1621 O 0.27171 0.22063 0.77485
 O1622 O 0.22216 0.27844 0.72086
 C1623 C 0.26393 0.22813 0.83415
 C1624 C 0.26185 0.16101 0.76647
 C1625 C 0.33022 0.22123 0.77100
 C1626 C 0.22603 0.27076 0.66277
 C1627 C 0.16544 0.28005 0.72357
 C1628 C 0.23158 0.33757 0.72749
 H1629 H 0.18513 0.24197 0.76086
 H1630 H 0.26424 0.31053 0.76186
 H1631 H 0.28246 0.20763 0.78691
 H1632 H 0.25969 0.23361 0.68645
 H1633 H 0.21804 0.18654 0.69157
 H1634 H 0.26472 0.18386 0.68968
 H1635 H 0.23452 0.32632 0.79508
 H1636 H 0.26383 0.29639 0.82165
 H1637 H 0.16853 0.20872 0.70321
 H1638 H 0.19604 0.17487 0.78682
 H1639 H 0.29970 0.31771 0.73144
 H1640 H 0.32176 0.29039 0.76447
 H1641 H 0.19789 0.20524 0.82311
 H1642 H 0.18648 0.27365 0.80537
 H1643 H 0.32077 0.22968 0.70484
 H1644 H 0.29277 0.26269 0.67217
 O1645 O 0.19950 0.75182 0.31883
 O1646 O 0.23607 0.71812 0.32490
 O1647 O 0.24532 0.82555 0.29602
 O1648 O 0.26973 0.84048 0.26023
 O1649 O 0.17076 0.79969 0.25048
 O1650 O 0.16431 0.76512 0.21431
 O1651 O 0.31645 0.75694 0.21655
 O1652 O 0.32098 0.78605 0.25568
 O1653 O 0.27861 0.68344 0.24260
 O1654 O 0.24158 0.67417 0.27175
 O1655 O 0.24602 0.72541 0.17361
 O1656 O 0.21812 0.76629 0.16615
 O1657 O 0.28489 0.76091 0.18146
 O1658 O 0.24503 0.79719 0.17448
 O1659 O 0.24490 0.68915 0.20389
 O1660 O 0.20932 0.67904 0.24029
 O1661 O 0.31223 0.71583 0.24605
 O1662 O 0.31605 0.74785 0.28761
 O1663 O 0.16822 0.75556 0.28343
 O1664 O 0.16242 0.73020 0.24034
 O1665 O 0.20426 0.83187 0.25635
 O1666 O 0.24485 0.83913 0.22528
 O1667 O 0.23901 0.78963 0.32599
 O1668 O 0.27236 0.74974 0.32723
 Zr1669 Zr 0.23834 0.75407 0.29934
 O1670 O 0.26475 0.72881 0.27405
 Zr1671 Zr 0.24137 0.80773 0.25576
 O1672 O 0.26856 0.78484 0.22915
 Zr1673 Zr 0.19249 0.76086 0.24781
 O1674 O 0.21720 0.73608 0.22040
 Zr1675 Zr 0.29109 0.75455 0.25178
 O1676 O 0.26646 0.77992 0.27901
 Zr1677 Zr 0.24185 0.70786 0.24354
 O1678 O 0.21488 0.73047 0.27076
 Zr1679 Zr 0.24557 0.76139 0.20019
 O1680 O 0.21819 0.78685 0.22494
 O1681 O 0.21429 0.78340 0.27773
 O1682 O 0.26942 0.73198 0.22173
 C1683 C 0.17470 0.75188 0.30909
 C1684 C 0.24386 0.81540 0.32067
 C1685 C 0.17894 0.82504 0.25371
 C1686 C 0.30985 0.75909 0.19072
 C1687 C 0.30398 0.69054 0.24300
 C1688 C 0.24621 0.69904 0.17924
 H1689 H 0.27523 0.71523 0.28571
 H1690 H 0.20525 0.72623 0.20689
 H1691 H 0.20234 0.79470 0.29060
 H1692 H 0.28104 0.79797 0.22005
 H1693 H 0.31656 0.79689 0.27298
 H1694 H 0.28822 0.83187 0.25685
 H1695 H 0.19861 0.68333 0.22323
 H1696 H 0.16798 0.71362 0.25146
 H1697 H 0.33520 0.74382 0.28121
 H1698 H 0.26633 0.75442 0.34652
 H1699 H 0.20136 0.75585 0.17054
 H1700 H 0.17167 0.77962 0.20197
 H1701 H 0.23146 0.72429 0.34423
 H1702 H 0.23077 0.68096 0.28809
 H1703 H 0.22974 0.83630 0.21167
 H1704 H 0.26202 0.80766 0.17834
 O1705 O 0.24277 0.72195 0.82510
 O1706 O 0.27465 0.75848 0.83207
 O1707 O 0.17381 0.75952 0.78413
 O1708 O 0.16607 0.78569 0.74656
 O1709 O 0.21111 0.68263 0.74939
 O1710 O 0.25127 0.67162 0.72474
 O1711 O 0.25226 0.82594 0.70972
 O1712 O 0.21803 0.83664 0.74196
 O1713 O 0.31974 0.79178 0.75219
 O1714 O 0.32631 0.75765 0.78566
 O1715 O 0.29031 0.75180 0.68147
 O1716 O 0.25153 0.72012 0.67110
 O1717 O 0.25265 0.79040 0.67729
 O1718 O 0.22215 0.75023 0.66857
 O1719 O 0.32204 0.75187 0.71647
 O1720 O 0.32636 0.72085 0.75859
 O1721 O 0.28714 0.82690 0.74874
 O1722 O 0.24834 0.83503 0.78162
 O1723 O 0.24524 0.68588 0.79322
 O1724 O 0.28015 0.67500 0.75709
 O1725 O 0.17772 0.71694 0.74553
 O1726 O 0.17266 0.75635 0.71267
 O1727 O 0.20512 0.76176 0.81955
 O1728 O 0.24275 0.79603 0.82434
 Zr1729 Zr 0.24400 0.75801 0.80032
 O1730 O 0.27175 0.78127 0.77685
 Zr1731 Zr 0.19868 0.75533 0.74818
 O1732 O 0.22400 0.77998 0.72322
 Zr1733 Zr 0.24750 0.70523 0.75398
 O1734 O 0.27434 0.72696 0.72800
 Zr1735 Zr 0.24946 0.80549 0.74793
 O1736 O 0.22117 0.78388 0.77290
 Zr1737 Zr 0.29751 0.75455 0.75268
 O1738 O 0.27236 0.73089 0.77911
 Zr1739 Zr 0.25165 0.75336 0.70104
 O1740 O 0.22469 0.72839 0.72420
 O1741 O 0.22003 0.73073 0.77666
 O1742 O 0.27647 0.78006 0.72432
 C1743 C 0.24348 0.69568 0.81839
 C1744 C 0.18028 0.76222 0.81004
 C1745 C 0.18600 0.69096 0.74576
 C1746 C 0.25295 0.81660 0.68442
 C1747 C 0.31230 0.81786 0.75063
 C1748 C 0.31526 0.75131 0.69058
 H1749 H 0.28268 0.79321 0.78961
 H1750 H 0.28622 0.71322 0.71763
 H1751 H 0.20723 0.71972 0.78791
 H1752 H 0.21231 0.79156 0.71069
 H1753 H 0.20424 0.83410 0.75683
 H1754 H 0.17394 0.80300 0.73912
 H1755 H 0.32462 0.70748 0.74270
 H1756 H 0.29217 0.68129 0.77258
 H1757 H 0.25264 0.85378 0.77423
 H1758 H 0.23482 0.79243 0.84292
 H1759 H 0.26657 0.70656 0.67591
 H1760 H 0.24232 0.67832 0.70741
 H1761 H 0.26564 0.75715 0.85052
 H1762 H 0.31685 0.75113 0.80250
 H1763 H 0.17884 0.74062 0.70022
 H1764 H 0.20882 0.76625 0.67071
 O1765 O 0.24733 0.21766 0.17834
 O1766 O 0.29611 0.22566 0.18506
 O1767 O 0.22131 0.18052 0.25354
 O1768 O 0.21959 0.19036 0.29885
 O1769 O 0.17753 0.25579 0.22088
 O1770 O 0.18830 0.30457 0.22192
 O1771 O 0.29348 0.25778 0.32291
 O1772 O 0.28809 0.21012 0.31592
 O1773 O 0.32577 0.28931 0.24953
 O1774 O 0.30926 0.28602 0.19820
 O1775 O 0.25609 0.32965 0.28767
 O1776 O 0.20715 0.32060 0.28903
 O1777 O 0.25938 0.29166 0.32512
 O1778 O 0.20839 0.29023 0.31734
 O1779 O 0.28738 0.32936 0.25247
 O1780 O 0.28495 0.32090 0.20482
 O1781 O 0.32777 0.25679 0.28379
 O1782 O 0.31772 0.20644 0.27581
 O1783 O 0.21394 0.25235 0.18006
 O1784 O 0.21703 0.30236 0.18921
 O1785 O 0.17976 0.22205 0.25395
 O1786 O 0.19406 0.22632 0.30361
 O1787 O 0.25187 0.17990 0.21753
 O1788 O 0.29999 0.19079 0.22040
 Zr1789 Zr 0.26691 0.22093 0.21748
 O1790 O 0.29429 0.24584 0.24065
 Zr1791 Zr 0.22080 0.22239 0.26888
 O1792 O 0.24678 0.24674 0.29426
 Zr1793 Zr 0.21778 0.27099 0.21997
 O1794 O 0.24307 0.29786 0.24343
 Zr1795 Zr 0.28827 0.23957 0.28327
 O1796 O 0.26254 0.21249 0.26026
 Zr1797 Zr 0.28478 0.28864 0.23466
 O1798 O 0.25922 0.26378 0.20877
 Zr1799 Zr 0.23918 0.28953 0.28615
 O1800 O 0.21097 0.26524 0.26279
 O1801 O 0.22531 0.22837 0.22654
 O1802 O 0.28090 0.28251 0.27733
 C1803 C 0.22719 0.23199 0.16762
 C1804 C 0.23495 0.16793 0.23380
 C1805 C 0.16661 0.23697 0.23584
 C1806 C 0.27998 0.27780 0.33553
 C1807 C 0.33868 0.27537 0.26853
 C1808 C 0.27436 0.34141 0.27288
 H1809 H 0.31339 0.24065 0.23504
 H1810 H 0.23803 0.31761 0.23915
 H1811 H 0.21299 0.21598 0.21571
 H1812 H 0.24374 0.24226 0.31404
 H1813 H 0.28199 0.19211 0.30760
 H1814 H 0.23560 0.19306 0.31132
 H1815 H 0.26566 0.32781 0.20263
 H1816 H 0.23439 0.29990 0.17854
 H1817 H 0.33170 0.20697 0.29095
 H1818 H 0.29872 0.17698 0.20475
 H1819 H 0.20709 0.33137 0.27157
 H1820 H 0.18025 0.30440 0.24085
 H1821 H 0.29498 0.20952 0.17177
 H1822 H 0.32371 0.27124 0.20105
 H1823 H 0.18263 0.24367 0.30099
 H1824 H 0.21190 0.27386 0.32943
 O1825 O 0.78286 0.67437 0.26140
 O1826 O 0.79701 0.68615 0.21665
 O1827 O 0.79845 0.75119 0.30836
 O1828 O 0.78796 0.79742 0.30330
 O1829 O 0.72412 0.71103 0.32072
 O1830 O 0.68194 0.70841 0.29517
 O1831 O 0.74542 0.82072 0.21466
 O1832 O 0.78876 0.81590 0.23380
 O1833 O 0.73478 0.74349 0.16836
 O1834 O 0.73867 0.69617 0.17862
 O1835 O 0.67109 0.77557 0.22174
 O1836 O 0.66247 0.77640 0.26896
 O1837 O 0.70351 0.81813 0.23567
 O1838 O 0.68904 0.80439 0.28480
 O1839 O 0.68745 0.74319 0.19006
 O1840 O 0.70036 0.69168 0.19943
 O1841 O 0.75855 0.78297 0.17859
 O1842 O 0.80353 0.77863 0.20267
 O1843 O 0.74086 0.67154 0.28221
 O1844 O 0.69444 0.67854 0.26537
 O1845 O 0.74814 0.75040 0.33077
 O1846 O 0.74610 0.79946 0.31749
 O1847 O 0.81438 0.71676 0.27845
 O1848 O 0.82053 0.72763 0.22760
 Zr1849 Zr 0.78334 0.71616 0.24724
 O1850 O 0.76584 0.73793 0.21325
 Zr1851 Zr 0.76048 0.76533 0.29201
 O1852 O 0.74327 0.78961 0.25983
 Zr1853 Zr 0.72124 0.71122 0.27664
 O1854 O 0.70164 0.73349 0.24411
 Zr1855 Zr 0.76430 0.78132 0.22222
 O1856 O 0.78413 0.75985 0.25558
 Zr1857 Zr 0.72455 0.72746 0.20734
 O1858 O 0.74275 0.70293 0.23922
 Zr1859 Zr 0.70267 0.77709 0.25207
 O1860 O 0.71895 0.75457 0.28650
 O1861 O 0.76162 0.72218 0.28437
 O1862 O 0.72348 0.77087 0.21445
 C1863 C 0.76420 0.66079 0.27407
 C1864 C 0.81623 0.73208 0.30071
 C1865 C 0.73438 0.72905 0.33790
 C1866 C 0.72199 0.83145 0.22241
 C1867 C 0.74742 0.76567 0.16131
 C1868 C 0.66940 0.76152 0.19873
 H1869 H 0.77689 0.73353 0.19634
 H1870 H 0.68249 0.72718 0.24187
 H1871 H 0.76946 0.71094 0.29982
 H1872 H 0.74422 0.80965 0.26552
 H1873 H 0.80448 0.80820 0.24479
 H1874 H 0.78679 0.81164 0.28851
 H1875 H 0.68176 0.69547 0.20726
 H1876 H 0.70195 0.66976 0.24806
 H1877 H 0.80504 0.79495 0.19019
 H1878 H 0.83611 0.71595 0.23487
 H1879 H 0.65774 0.75641 0.27077
 H1880 H 0.67760 0.72711 0.30374
 H1881 H 0.81381 0.67614 0.22366
 H1882 H 0.75264 0.68462 0.18866
 H1883 H 0.72660 0.79596 0.32200
 H1884 H 0.70213 0.81997 0.28628
 O1885 O 0.67699 0.23897 0.77589
 O1886 O 0.69587 0.19221 0.77729
 O1887 O 0.74008 0.28902 0.81284
 O1888 O 0.78288 0.30018 0.80494
 O1889 O 0.70650 0.31280 0.72821
 O1890 O 0.70514 0.29285 0.68554
 O1891 O 0.82963 0.22414 0.75022
 O1892 O 0.81713 0.23322 0.79574
 O1893 O 0.77341 0.17075 0.71412
 O1894 O 0.72562 0.16616 0.71825
 O1895 O 0.78977 0.24000 0.67153
 O1896 O 0.77779 0.29191 0.67726
 O1897 O 0.82490 0.25071 0.71131
 O1898 O 0.80679 0.29835 0.70566
 O1899 O 0.76183 0.20239 0.67314
 O1900 O 0.71285 0.19467 0.68560
 O1901 O 0.80160 0.17995 0.75100
 O1902 O 0.78747 0.19388 0.79907
 O1903 O 0.67268 0.26707 0.73808
 O1904 O 0.68596 0.25650 0.68963
 O1905 O 0.73339 0.32412 0.76543
 O1906 O 0.78404 0.32023 0.76676
 O1907 O 0.71261 0.25102 0.81504
 O1908 O 0.73070 0.20216 0.81068
 Zr1909 Zr 0.71965 0.22911 0.77727
 O1910 O 0.75017 0.20383 0.75684
 Zr1911 Zr 0.75690 0.28660 0.77222
 O1912 O 0.78924 0.26331 0.75271
 Zr1913 Zr 0.71283 0.26946 0.72196
 O1914 O 0.74346 0.24674 0.69963
 Zr1915 Zr 0.78896 0.22087 0.76431
 O1916 O 0.75883 0.24499 0.78675
 Zr1917 Zr 0.74509 0.20504 0.71350
 O1918 O 0.71224 0.22721 0.73397
 Zr1919 Zr 0.78265 0.26213 0.70936
 O1920 O 0.75153 0.28749 0.72867
 O1921 O 0.71789 0.27114 0.76498
 O1922 O 0.78434 0.22024 0.72103
 C1923 C 0.66262 0.25366 0.75857
 C1924 C 0.72350 0.27306 0.82575
 C1925 C 0.71688 0.33058 0.74537
 C1926 C 0.83939 0.23664 0.72900
 C1927 C 0.79366 0.16448 0.73043
 C1928 C 0.77882 0.21806 0.66062
 H1929 H 0.74962 0.18421 0.76339
 H1930 H 0.73889 0.24825 0.67961
 H1931 H 0.70367 0.28303 0.77465
 H1932 H 0.80699 0.27183 0.75779
 H1933 H 0.80591 0.23994 0.81186
 H1934 H 0.79868 0.28662 0.80544
 H1935 H 0.71160 0.20962 0.67151
 H1936 H 0.67797 0.23854 0.69538
 H1937 H 0.80573 0.18416 0.80093
 H1938 H 0.71591 0.20294 0.82491
 H1939 H 0.76505 0.28405 0.66318
 H1940 H 0.72308 0.30039 0.67995
 H1941 H 0.68304 0.19316 0.79336
 H1942 H 0.71086 0.16958 0.73216
 H1943 H 0.78106 0.32708 0.74758
 H1944 H 0.81665 0.30123 0.72352
 C1945 C 0.06508 1.04559 1.15170
 C1946 C 0.04999 1.07049 1.14892
 C1947 C 0.03675 1.06807 1.12399
 C1948 C 0.04480 1.04197 1.11345
 O1949 O 0.06192 1.02826 1.13016
 H1950 H 0.04835 1.08811 1.16344
 H1951 H 0.02303 1.08354 1.11451
 C1952 C 0.59010 0.48249 0.63835
 C1953 C 0.60598 0.46354 0.62281
 C1954 C 0.59656 0.46585 0.59621
 C1955 C 0.57550 0.48597 0.59737
 O1956 O 0.57161 0.49629 0.62294
 H1957 H 0.62239 0.44958 0.63006
 H1958 H 0.60358 0.45363 0.57824
 C1959 C 0.45572 -0.00819 0.65367
 C1960 C 0.47925 -0.02493 0.65655
 C1961 C 0.49020 -0.02748 0.63055
 C1962 C 0.47273 -0.01195 0.61364
 O1963 O 0.45163 -0.00029 0.62756
 H1964 H 0.48727 -0.03452 0.67533
 H1965 H 0.50892 -0.03898 0.62465
 C1966 C -0.05154 0.48165 1.15319
 C1967 C -0.02839 0.46450 1.15671
 C1968 C -0.01790 0.46012 1.13075
 C1969 C -0.03528 0.47499 1.11320
 O1970 O -0.05589 0.48801 1.12670
 H1971 H -0.02026 0.45596 1.17592
 H1972 H 0.00056 0.44796 1.12530
 C1973 C -0.05620 0.53478 0.35432
 C1974 C -0.04191 0.55962 0.35653
 C1975 C -0.02857 0.55855 0.38155
 C1976 C -0.03572 0.53335 0.39289
 O1977 O -0.05240 0.51894 0.37654
 H1978 H -0.04086 0.57653 0.34182
 H1979 H -0.01537 0.57435 0.39055
 C1980 C 0.44335 1.04817 -0.14386
 C1981 C 0.46084 1.07070 -0.14442
 C1982 C 0.47346 1.07122 -0.11895
 C1983 C 0.46250 1.04931 -0.10462
 O1984 O 0.44435 1.03528 -0.11963
 H1985 H 0.46497 1.08435 -0.16165
 H1986 H 0.48933 1.08532 -0.11195
 C1987 C 0.54739 0.45400 -0.14616
 C1988 C 0.52722 0.43413 -0.14921
 C1989 C 0.51584 0.43180 -0.12343
 C1990 C 0.53008 0.45011 -0.10649
 O1991 O 0.54923 0.46349 -0.12014
 H1992 H 0.52089 0.42312 -0.16796
 H1993 H 0.49860 0.41907 -0.11784
 C1994 C 0.04315 0.03658 0.35148
 C1995 C 0.01522 0.04049 0.34615
 C1996 C 0.00241 0.03574 0.37068
 C1997 C 0.02329 0.02962 0.38928
 O1998 O 0.04803 0.03008 0.37783
 H1999 H 0.00502 0.04492 0.32658
 H2000 H -0.01959 0.03603 0.37446
 C2001 C 0.16707 1.03813 1.02011
 C2002 C 0.16973 1.01677 1.03927
 C2003 C 0.14417 1.00586 1.04139
 C2004 C 0.12777 1.02120 1.02336
 O2005 O 0.14156 1.04068 1.01032
 H2006 H 0.18795 1.00996 1.05064
 H2007 H 0.13816 0.98883 1.05459
 C2008 C 0.64996 0.54081 0.48134
 C2009 C 0.65603 0.51314 0.47397
 C2010 C 0.63200 0.49938 0.47751
 C2011 C 0.61320 0.51989 0.48631
 O2012 O 0.62401 0.54496 0.48879
 H2013 H 0.67581 0.50400 0.46778
 H2014 H 0.62850 0.47721 0.47395
 C2015 C 0.62623 0.39664 0.00580
 C2016 C 0.61073 0.37688 0.01890
 C2017 C 0.58431 0.38698 0.01771
 C2018 C 0.58560 0.41218 0.00398
 O2019 O 0.61104 0.41807 -0.00352
 H2020 H 0.61796 0.35770 0.02874
 H2021 H 0.56635 0.37764 0.02672
 C2022 C 0.14708 -0.05074 0.45579
 C2023 C 0.14679 -0.03027 0.43560
 C2024 C 0.12044 -0.01951 0.43521
 C2025 C 0.10657 -0.03442 0.45488
 O2026 O 0.12259 -0.05329 0.46736
 H2027 H 0.16389 -0.02285 0.42361
 H2028 H 0.11255 -0.00212 0.42294
 C2029 C 0.34383 -0.02634 0.52177
 C2030 C 0.34073 -0.00030 0.53470
 C2031 C 0.36653 0.01035 0.53547
 C2032 C 0.38331 -0.00988 0.52270
 O2033 O 0.36965 -0.03221 0.51445
 H2034 H 0.32199 0.00957 0.54283
 H2035 H 0.37236 0.03063 0.54385
 C2036 C -0.16240 0.45606 1.00373
 C2037 C -0.16649 0.48018 1.01987
 C2038 C -0.14076 0.48970 1.02549
 C2039 C -0.12288 0.47075 1.01240
 O2040 O -0.13590 0.45033 0.99925
 H2041 H -0.18579 0.48940 1.02730
 H2042 H -0.13563 0.50836 1.03744
 C2043 C -0.15485 0.54533 0.47522
 C2044 C -0.15626 0.52333 0.45619
 C2045 C -0.13050 0.51141 0.45559
 C2046 C -0.11532 0.52690 0.47444
 O2047 O -0.12998 0.54767 0.48632
 H2048 H -0.17399 0.51676 0.44422
 H2049 H -0.12368 0.49325 0.44326
 C2050 C 0.37530 1.10247 0.00638
 C2051 C 0.39369 1.12165 0.01703
 C2052 C 0.41864 1.10809 0.01670
 C2053 C 0.41389 1.08162 0.00587
 O2054 O 0.38759 1.07800 -0.00042
 H2055 H 0.38951 1.14274 0.02500
 H2056 H 0.43803 1.11639 0.02388
 C2057 C 0.04592 1.15523 1.04371
 C2058 C 0.06196 1.15772 1.02018
 C2059 C 0.06062 1.13225 1.00661
 C2060 C 0.04359 1.11652 1.02280
 O2061 O 0.03483 1.13031 1.04524
 H2062 H 0.07331 1.17578 1.01376
 H2063 H 0.07059 1.12601 0.98724
 C2064 C 0.54502 0.64551 0.56563
 C2065 C 0.56840 0.64336 0.54918
 C2066 C 0.56884 0.61662 0.53847
 C2067 C 0.54604 0.60419 0.54942
 O2068 O 0.53154 0.62160 0.56584
 H2069 H 0.58282 0.65950 0.54433
 H2070 H 0.58335 0.60760 0.52350
 C2071 C -0.02295 0.65502 0.46896
 C2072 C -0.03622 0.65888 0.49420
 C2073 C -0.03874 0.63242 0.50452
 C2074 C -0.02664 0.61456 0.48488
 O2075 O -0.01710 0.62818 0.46338
 H2076 H -0.04360 0.67848 0.50368
 H2077 H -0.04779 0.62686 0.52421
 C2078 C 0.51402 1.15712 -0.04015
 C2079 C 0.50867 1.16414 -0.01260
 C2080 C 0.50929 1.13928 0.00112
 C2081 C 0.51502 1.11899 -0.01906
 O2082 O 0.51807 1.12973 -0.04408
 H2083 H 0.50400 1.18481 -0.00374
 H2084 H 0.50502 1.13619 0.02297
 C2085 C 0.48878 0.33770 -0.04980
 C2086 C 0.49395 0.32993 -0.02269
 C2087 C 0.49098 0.35401 -0.00728
 C2088 C 0.48434 0.37477 -0.02613
 O2089 O 0.48282 0.36492 -0.05205
 H2090 H 0.50009 0.30930 -0.01527
 H2091 H 0.49464 0.35645 0.01489
 C2092 C 0.00011 -0.12976 0.39723
 C2093 C -0.00789 -0.11139 0.37648
 C2094 C -0.00589 -0.08517 0.38798
 C2095 C 0.00341 -0.08939 0.41478
 O2096 O 0.00726 -0.11640 0.42047
 H2097 H -0.01514 -0.11648 0.35570
 H2098 H -0.01154 -0.06537 0.37836
 C2099 C 0.47611 -0.14815 0.53802
 C2100 C 0.46306 -0.15112 0.51260
 C2101 C 0.46097 -0.12464 0.50222
 C2102 C 0.47320 -0.10750 0.52192
 O2103 O 0.48234 -0.12169 0.54375
 H2104 H 0.45574 -0.17027 0.50295
 H2105 H 0.45226 -0.11862 0.48231
 C2106 C -0.03016 0.33975 1.05183
 C2107 C -0.05070 0.33681 1.03180
 C2108 C -0.05199 0.36161 1.01807
 C2109 C -0.03230 0.37792 1.03053
 O2110 O -0.01907 0.36488 1.05097
 H2111 H -0.06346 0.31900 1.02733
 H2112 H -0.06561 0.36711 1.00096
 C2113 C 0.76835 0.34479 0.11717
 C2114 C 0.77338 0.36602 0.13672
 C2115 C 0.77067 0.35415 0.16205
 C2116 C 0.76446 0.32656 0.15657
 O2117 O 0.76306 0.32068 0.12949
 H2118 H 0.77803 0.38784 0.13357
 H2119 H 0.77322 0.36436 0.18220
 C2120 C 0.25138 0.85713 0.62343
 C2121 C 0.25560 0.87855 0.64273
 C2122 C 0.25708 0.86598 0.66787
 C2123 C 0.25385 0.83772 0.66234
 O2124 O 0.25058 0.83213 0.63533
 H2125 H 0.25759 0.90080 0.63904
 H2126 H 0.26003 0.87622 0.68793
 C2127 C 0.73828 0.64423 0.62636
 C2128 C 0.73530 0.62269 0.64513
 C2129 C 0.73454 0.63530 0.67075
 C2130 C 0.73690 0.66362 0.66596
 O2131 O 0.73909 0.66919 0.63909
 H2132 H 0.73378 0.60036 0.64098
 H2133 H 0.73257 0.62506 0.69060
 C2134 C 0.21624 0.20258 0.10089
 C2135 C 0.19242 0.21949 0.10242
 C2136 C 0.19372 0.23326 0.12749
 C2137 C 0.21794 0.22378 0.13959
 O2138 O 0.23163 0.20534 0.12362
 H2139 H 0.17603 0.22208 0.08729
 H2140 H 0.17862 0.24814 0.13610
 C2141 C 0.26390 0.20634 0.90357
 C2142 C 0.28028 0.22947 0.90720
 C2143 C 0.28310 0.24033 0.88136
 C2144 C 0.26815 0.22312 0.86392
 O2145 O 0.25658 0.20235 0.87726
 H2146 H 0.28927 0.23735 0.92637
 H2147 H 0.29428 0.25887 0.87593
 C2148 C 0.73019 0.70876 0.40790
 C2149 C 0.72329 0.73693 0.41165
 C2150 C 0.72357 0.74800 0.38569
 C2151 C 0.73013 0.72574 0.36794
 O2152 O 0.73436 0.70186 0.38129
 H2153 H 0.71956 0.74825 0.43109
 H2154 H 0.71980 0.76980 0.38029
 C2155 C 0.25896 0.84818 0.38480
 C2156 C 0.26534 0.87015 0.36769
 C2157 C 0.25916 0.86119 0.34142
 C2158 C 0.24952 0.83437 0.34435
 O2159 O 0.24917 0.82642 0.37071
 H2160 H 0.27346 0.89036 0.37371
 H2161 H 0.26214 0.87249 0.32231
 C2162 C 0.72044 0.29444 0.89652
 C2163 C 0.69859 0.27630 0.89636
 C2164 C 0.69639 0.26671 0.86960
 C2165 C 0.71684 0.27970 0.85514
 O2166 O 0.73147 0.29659 0.87135
 H2167 H 0.68573 0.27038 0.91353
 H2168 H 0.68188 0.25161 0.86165
 C2169 C 0.85725 0.36935 0.25579
 C2170 C 0.87856 0.34957 0.25862
 C2171 C 0.86660 0.32400 0.25669
 C2172 C 0.83891 0.32985 0.25287
 O2173 O 0.83312 0.35727 0.25235
 H2174 H 0.90028 0.35302 0.26185
 H2175 H 0.87682 0.30353 0.25802
 C2176 C 0.35518 0.87673 0.75356
 C2177 C 0.37558 0.85578 0.75287
 C2178 C 0.36209 0.83110 0.75145
 C2179 C 0.33443 0.83852 0.75130
 O2180 O 0.33009 0.86618 0.75251
 H2181 H 0.39771 0.85789 0.75324
 H2182 H 0.37135 0.81011 0.75068
 C2183 C 0.13964 0.88825 0.25901
 C2184 C 0.11794 0.86972 0.25792
 C2185 C 0.12986 0.84352 0.25553
 C2186 C 0.15782 0.84771 0.25541
 O2187 O 0.16386 0.87464 0.25753
 H2188 H 0.09598 0.87422 0.25850
 H2189 H 0.11941 0.82371 0.25413
 C2190 C 0.70085 0.40323 0.74145
 C2191 C 0.70686 0.39778 0.71371
 C2192 C 0.71367 0.36997 0.71213
 C2193 C 0.71161 0.36032 0.73891
 O2194 O 0.70378 0.38035 0.75693
 H2195 H 0.70494 0.41188 0.69629
 H2196 H 0.71908 0.35791 0.69350
 C2197 C 0.64167 0.62614 0.77147
 C2198 C 0.62165 0.64678 0.77697
 C2199 C 0.63445 0.67169 0.77429
 C2200 C 0.66134 0.66464 0.76738
 O2201 O 0.66586 0.63706 0.76570
 H2202 H 0.60025 0.64429 0.78238
 H2203 H 0.62528 0.69256 0.77712
 C2204 C 0.21673 0.09687 0.23490
 C2205 C 0.23601 0.09458 0.21374
 C2206 C 0.24535 0.12107 0.21039
 C2207 C 0.23114 0.13760 0.22967
 O2208 O 0.21387 0.12304 0.24461
 H2209 H 0.24250 0.07601 0.20192
 H2210 H 0.26069 0.12757 0.19566
 C2211 C 0.28469 0.09034 0.76957
 C2212 C 0.26306 0.08878 0.78818
 C2213 C 0.25121 0.11513 0.78933
 C2214 C 0.26642 0.13082 0.77139
 O2215 O 0.28659 0.11588 0.75929
 H2216 H 0.25669 0.07076 0.79975
 H2217 H 0.23374 0.12213 0.80188
 C2218 C 0.78664 0.58957 0.27628
 C2219 C 0.76427 0.58791 0.29392
 C2220 C 0.75318 0.61452 0.29577
 C2221 C 0.76957 0.63063 0.27932
 O2222 O 0.78984 0.61558 0.26738
 H2223 H 0.75655 0.56953 0.30400
 H2224 H 0.73511 0.62134 0.30749
 C2225 C 0.88501 0.22377 0.15229
 C2226 C 0.86792 0.21476 0.13102
 C2227 C 0.84177 0.21870 0.14089
 C2228 C 0.84485 0.22962 0.16748
 O2229 O 0.87101 0.23284 0.17443
 H2230 H 0.87377 0.20689 0.11053
 H2231 H 0.82276 0.21393 0.13013
 C2232 C 0.37592 0.74842 0.65008
 C2233 C 0.35666 0.74918 0.62871
 C2234 C 0.33168 0.75021 0.64127
 C2235 C 0.33719 0.75016 0.66944
 O2236 O 0.36404 0.74923 0.67499
 H2237 H 0.36007 0.74951 0.60648
 H2238 H 0.31173 0.75116 0.63108
 C2239 C 0.39585 0.20916 0.80007
 C2240 C 0.39279 0.18279 0.78810
 C2241 C 0.36805 0.18415 0.77454
 C2242 C 0.35774 0.21107 0.77959
 O2243 O 0.37458 0.22635 0.79499
 H2244 H 0.40692 0.16480 0.78906
 H2245 H 0.35832 0.16733 0.76301
 C2246 C 0.87606 0.72565 0.34213
 C2247 C 0.85595 0.72204 0.36230
 C2248 C 0.83158 0.72237 0.34861
 C2249 C 0.83802 0.72582 0.32108
 O2250 O 0.86498 0.72749 0.31675
 H2251 H 0.85812 0.71954 0.38454
 H2252 H 0.81124 0.72121 0.35772
 C2253 C 0.11275 0.73853 0.34368
 C2254 C 0.13066 0.73350 0.36563
 C2255 C 0.15621 0.73888 0.35581
 C2256 C 0.15214 0.74670 0.32856
 O2257 O 0.12575 0.74672 0.32111
 H2258 H 0.12565 0.72676 0.38639
 H2259 H 0.17558 0.73669 0.36696
 C2260 C 0.59340 0.25226 0.77996
 C2261 C 0.58894 0.26321 0.75376
 C2262 C 0.61442 0.26540 0.74238
 C2263 C 0.63259 0.25554 0.76234
 O2264 O 0.61997 0.24761 0.78521
 H2265 H 0.56953 0.26942 0.74421
 H2266 H 0.61919 0.27315 0.72191
 C2267 C 0.61027 0.76862 0.66682
 C2268 C 0.62733 0.77628 0.64542
 C2269 C 0.65340 0.77121 0.65475
 C2270 C 0.65047 0.76099 0.68127
 O2271 O 0.62425 0.75918 0.68870
 H2272 H 0.62138 0.78426 0.62521
 H2273 H 0.67237 0.77506 0.64378
 C2274 C 0.09684 0.23530 0.21541
 C2275 C 0.09532 0.21752 0.23789
 C2276 C 0.12142 0.21555 0.24846
 C2277 C 0.13699 0.23225 0.23180
 O2278 O 0.12221 0.24420 0.21173
 H2279 H 0.07759 0.20668 0.24545
 H2280 H 0.12828 0.20340 0.26619
 C2281 C -0.02926 0.97107 0.85052
 C2282 C -0.00605 0.95344 0.84853
 C2283 C 0.00288 0.94986 0.87518
 C2284 C -0.01526 0.96566 0.89146
 O2285 O -0.03481 0.97837 0.87667
 H2286 H 0.00335 0.94399 0.83010
 H2287 H 0.02112 0.93813 0.88186
 C2288 C 0.40786 0.52067 0.37187
 C2289 C 0.39138 0.53922 0.38728
 C2290 C 0.40038 0.53693 0.41399
 C2291 C 0.42174 0.51718 0.41304
 O2292 O 0.42627 0.50707 0.38749
 H2293 H 0.37489 0.55297 0.37987
 H2294 H 0.39284 0.54889 0.43192
 C2295 C 0.54324 0.02787 0.34135
 C2296 C 0.52220 0.04826 0.34002
 C2297 C 0.51125 0.05013 0.36600
 C2298 C 0.52605 0.03087 0.38153
 O2299 O 0.54552 0.01734 0.36677
 H2300 H 0.51542 0.06075 0.32253
 H2301 H 0.49429 0.06382 0.37278
 C2302 C 0.05485 0.52207 0.85032
 C2303 C 0.03742 0.54551 0.85004
 C2304 C 0.02153 0.54363 0.87313
 C2305 C 0.03053 0.51928 0.88596
 O2306 O 0.05070 0.50597 0.87209
 H2307 H 0.03642 0.56201 0.83476
 H2308 H 0.00573 0.55860 0.88019
 C2309 C 0.04460 0.46540 0.65556
 C2310 C 0.02296 0.44737 0.65850
 C2311 C 0.01060 0.44611 0.63291
 C2312 C 0.02552 0.46360 0.61642
 O2313 O 0.04618 0.47519 0.63003
 H2314 H 0.01690 0.43644 0.67701
 H2315 H -0.00739 0.43431 0.62710
 C2316 C 0.55744 0.95300 0.14176
 C2317 C 0.53819 0.93209 0.14238
 C2318 C 0.52784 0.93043 0.11599
 C2319 C 0.54165 0.95025 0.10115
 O2320 O 0.55970 0.96385 0.11666
 H2321 H 0.53180 0.92004 0.16004
 H2322 H 0.51134 0.91726 0.10871
 C2323 C 0.44991 0.51909 0.15334
 C2324 C 0.47148 0.53721 0.15692
 C2325 C 0.47986 0.54333 0.13076
 C2326 C 0.46269 0.52876 0.11303
 O2327 O 0.44437 0.51412 0.12665
 H2328 H 0.48026 0.54495 0.17624
 H2329 H 0.49720 0.55597 0.12524
 C2330 C -0.04357 -0.04370 0.65262
 C2331 C -0.02506 -0.06642 0.65090
 C2332 C -0.01186 -0.06380 0.62605
 C2333 C -0.02331 -0.03987 0.61457
 O2334 O -0.04252 -0.02774 0.63035
 H2335 H -0.02130 -0.08293 0.66579
 H2336 H 0.00371 -0.07794 0.61706
 C2337 C -0.14458 0.96428 0.99072
 C2338 C -0.14695 0.98483 0.97071
 C2339 C -0.12086 0.99383 0.96665
 C2340 C -0.10443 0.97820 0.98444
 O2341 O -0.11870 0.96021 0.99902
 H2342 H -0.16530 0.99207 0.95981
 H2343 H -0.11458 1.01001 0.95258
 C2344 C 0.34390 0.46367 0.53051
 C2345 C 0.33738 0.49152 0.53687
 C2346 C 0.36159 0.50533 0.53456
 C2347 C 0.38098 0.48474 0.52747
 O2348 O 0.37034 0.45956 0.52490
 H2349 H 0.31723 0.50083 0.54136
 H2350 H 0.36472 0.52766 0.53744
 C2351 C 0.35910 0.58624 -0.00792
 C2352 C 0.37461 0.60503 -0.02232
 C2353 C 0.40115 0.59588 -0.01919
 C2354 C 0.40007 0.57206 -0.00319
 O2355 O 0.37446 0.56618 0.00393
 H2356 H 0.36729 0.62298 -0.03412
 H2357 H 0.41915 0.60487 -0.02850
 C2358 C -0.15000 0.04100 0.53990
 C2359 C -0.15231 0.01749 0.55624
 C2360 C -0.12617 0.00653 0.55867
 C2361 C -0.10982 0.02427 0.54392
 O2362 O -0.12416 0.04522 0.53263
 H2363 H -0.17080 0.00877 0.56472
 H2364 H -0.11992 -0.01274 0.56893
 C2365 C 0.65176 0.04677 0.46776
 C2366 C 0.65127 0.02805 0.44532
 C2367 C 0.62538 0.01779 0.44475
 C2368 C 0.61181 0.03096 0.46669
 O2369 O 0.62764 0.04862 0.48067
 H2370 H 0.66759 0.02245 0.43081
 H2371 H 0.61734 0.00252 0.43006
 C2372 C 0.14782 0.53023 0.97602
 C2373 C 0.15062 0.50623 0.95936
 C2374 C 0.12484 0.49579 0.95719
 C2375 C 0.10811 0.51392 0.97270
 O2376 O 0.12190 0.53481 0.98410
 H2377 H 0.16896 0.49727 0.94956
 H2378 H 0.11898 0.47694 0.94592
 C2379 C 0.15420 0.45659 0.51646
 C2380 C 0.15690 0.48088 0.53235
 C2381 C 0.13064 0.49082 0.53681
 C2382 C 0.11396 0.47195 0.52320
 O2383 O 0.12814 0.45109 0.51094
 H2384 H 0.17570 0.49011 0.54000
 H2385 H 0.12442 0.50983 0.54814
 C2386 C 0.64240 0.91173 -0.01591
 C2387 C 0.63105 0.89818 -0.03866
 C2388 C 0.60402 0.90662 -0.03893
 C2389 C 0.60093 0.92492 -0.01647
 O2390 O 0.62421 0.92800 -0.00232
 H2391 H 0.64144 0.88414 -0.05346
 H2392 H 0.58864 0.90102 -0.05432
 C2393 C -0.01922 0.84376 0.96987
 C2394 C -0.03362 0.84243 0.99474
 C2395 C -0.03430 0.86920 1.00543
 C2396 C -0.02016 0.88481 0.98654
 O2397 O -0.01116 0.86958 0.96501
 H2398 H -0.04283 0.82441 1.00409
 H2399 H -0.04341 0.87635 1.02495
 C2400 C 0.45593 0.35746 0.44452
 C2401 C 0.43705 0.35467 0.46575
 C2402 C 0.43518 0.38042 0.47858
 C2403 C 0.45286 0.39709 0.46416
 O2404 O 0.46536 0.38330 0.44342
 H2405 H 0.42651 0.33596 0.47176
 H2406 H 0.42327 0.38608 0.49697
 C2407 C 0.02150 0.33661 0.53741
 C2408 C 0.04246 0.33498 0.51777
 C2409 C 0.04429 0.36146 0.50753
 C2410 C 0.02449 0.37738 0.52154
 O2411 O 0.01060 0.36244 0.53950
 H2412 H 0.05529 0.31700 0.51159
 H2413 H 0.05852 0.36837 0.49189
 C2414 C 0.48311 0.83935 0.02474
 C2415 C 0.48594 0.83427 -0.00359
 C2416 C 0.48899 0.86003 -0.01502
 C2417 C 0.48761 0.87889 0.00708
 O2418 O 0.48393 0.86650 0.03115
 H2419 H 0.48641 0.81429 -0.01471
 H2420 H 0.49234 0.86453 -0.03678
 C2421 C 0.51995 0.64952 0.04693
 C2422 C 0.52658 0.65491 0.01959
 C2423 C 0.52307 0.63014 0.00547
 C2424 C 0.51495 0.61149 0.02532
 O2425 O 0.51290 0.62315 0.05045
 H2426 H 0.53207 0.67482 0.01082
 H2427 H 0.52601 0.62611 -0.01660
 C2428 C 0.00160 0.12295 0.60830
 C2429 C 0.00840 0.10402 0.62901
 C2430 C 0.00681 0.07808 0.61686
 C2431 C -0.00105 0.08284 0.58971
 O2432 O -0.00426 0.11000 0.58437
 H2433 H 0.01473 0.10829 0.65024
 H2434 H 0.01148 0.05804 0.62646
 C2435 C 0.53093 0.15949 0.44580
 C2436 C 0.55320 0.15952 0.46397
 C2437 C 0.55329 0.13412 0.47663
 C2438 C 0.53120 0.12029 0.46533
 O2439 O 0.51763 0.13551 0.44658
 H2440 H 0.56793 0.17585 0.46762
 H2441 H 0.56776 0.12656 0.49222
 C2442 C -0.00039 0.64543 0.95220
 C2443 C -0.00963 0.64887 0.97926
 C2444 C -0.00253 0.62445 0.99212
 C2445 C 0.00983 0.60760 0.97187
 O2446 O 0.01128 0.62026 0.94759
 H2447 H -0.02026 0.66700 0.98857
 H2448 H -0.00807 0.61860 1.01304
 C2449 C 0.23374 0.65902 0.88044
 C2450 C 0.23113 0.63664 0.86200
 C2451 C 0.23562 0.64725 0.83633
 C2452 C 0.24044 0.67541 0.84092
 O2453 O 0.23950 0.68267 0.86774
 H2454 H 0.22640 0.61512 0.86677
 H2455 H 0.23467 0.63602 0.81656
 C2456 C 0.75936 0.14491 0.37300
 C2457 C 0.76266 0.12308 0.35389
 C2458 C 0.75846 0.13484 0.32857
 C2459 C 0.75302 0.16305 0.33398
 O2460 O 0.75338 0.16927 0.36100
 H2461 H 0.76742 0.10114 0.35795
 H2462 H 0.75995 0.12426 0.30846
 C2463 C 0.28892 0.30441 0.40361
 C2464 C 0.31116 0.28550 0.40326
 C2465 C 0.31085 0.27305 0.37751
 C2466 C 0.28859 0.28526 0.36398
 O2467 O 0.27528 0.30428 0.37965
 H2468 H 0.32600 0.28116 0.41960
 H2469 H 0.32508 0.25693 0.36955
 C2470 C 0.77178 0.84868 0.88176
 C2471 C 0.77871 0.86890 0.86285
 C2472 C 0.77337 0.85737 0.83731
 C2473 C 0.76377 0.83094 0.84253
 O2474 O 0.76269 0.82559 0.86946
 H2475 H 0.78630 0.88974 0.86716
 H2476 H 0.77661 0.86683 0.81725
 C2477 C 0.75653 0.79103 0.09338
 C2478 C 0.74776 0.76440 0.08630
 C2479 C 0.74313 0.75156 0.11087
 C2480 C 0.74946 0.77112 0.13127
 O2481 O 0.75750 0.79518 0.12078
 H2482 H 0.74434 0.75553 0.06571
 H2483 H 0.73590 0.73044 0.11362
 C2484 C 0.22187 0.29620 0.59481
 C2485 C 0.20106 0.27695 0.59239
 C2486 C 0.19970 0.26471 0.61781
 C2487 C 0.21969 0.27745 0.63376
 O2488 O 0.23308 0.29650 0.61995
 H2489 H 0.18813 0.27255 0.57451
 H2490 H 0.18581 0.24851 0.62402
 C2491 C 0.77903 0.19593 0.59052
 C2492 C 0.79929 0.21575 0.58865
 C2493 C 0.80282 0.22593 0.61509
 C2494 C 0.78463 0.21154 0.63119
 O2495 O 0.77027 0.19326 0.61641
 H2496 H 0.81027 0.22213 0.57033
 H2497 H 0.81653 0.24236 0.62177
 C2498 C 0.24459 0.65767 0.11769
 C2499 C 0.25231 0.63688 0.13613
 C2500 C 0.25458 0.65003 0.16122
 C2501 C 0.24818 0.67800 0.15646
 O2502 O 0.24232 0.68290 0.12990
 H2503 H 0.25559 0.61461 0.13181
 H2504 H 0.25985 0.64031 0.18086
 C2505 C 0.14801 0.62948 0.73530
 C2506 C 0.12665 0.64896 0.73152
 C2507 C 0.13797 0.67466 0.73539
 C2508 C 0.16539 0.66914 0.74127
 O2509 O 0.17156 0.64179 0.74133
 H2510 H 0.10522 0.64510 0.72695
 H2511 H 0.12752 0.69501 0.73395
 C2512 C 0.64936 0.12292 0.23304
 C2513 C 0.63084 0.14333 0.22348
 C2514 C 0.64343 0.16828 0.22742
 C2515 C 0.66885 0.16156 0.23876
 O2516 O 0.67253 0.13412 0.24237
 H2517 H 0.61035 0.14078 0.21503
 H2518 H 0.63537 0.18891 0.22187
 C2519 C 0.83242 0.10083 0.72844
 C2520 C 0.83082 0.10510 0.70015
 C2521 C 0.81570 0.12939 0.69727
 C2522 C 0.80950 0.13838 0.72409
 O2523 O 0.81967 0.12108 0.74322
 H2524 H 0.83966 0.09196 0.68364
 H2525 H 0.81035 0.13963 0.67791
 C2526 C 0.34391 0.62854 0.23395
 C2527 C 0.36485 0.64753 0.23131
 C2528 C 0.35258 0.67337 0.23466
 C2529 C 0.32511 0.66832 0.23907
 O2530 O 0.31973 0.64119 0.23874
 H2531 H 0.38664 0.64322 0.22809
 H2532 H 0.36245 0.69352 0.23397
 C2533 C 0.29691 0.41107 0.27821
 C2534 C 0.27848 0.41214 0.30018
 C2535 C 0.26776 0.38604 0.30115
 C2536 C 0.28034 0.37086 0.27979
 O2537 O 0.29800 0.38593 0.26581
 H2538 H 0.27326 0.42964 0.31403
 H2539 H 0.25250 0.37893 0.31567
 C2540 C 0.84733 0.87258 0.76069
 C2541 C 0.86844 0.85278 0.76385
 C2542 C 0.85674 0.82742 0.75920
 C2543 C 0.82933 0.83360 0.75374
 O2544 O 0.82353 0.86102 0.75450
 H2545 H 0.88980 0.85644 0.76904
 H2546 H 0.86672 0.80684 0.76070
 C2547 C 0.70161 0.90311 0.22283
 C2548 C 0.72356 0.90467 0.20462
 C2549 C 0.73345 0.87775 0.20118
 C2550 C 0.71679 0.86158 0.21729
 O2551 O 0.69742 0.87685 0.23039
 H2552 H 0.73164 0.92309 0.19493
 H2553 H 0.75108 0.87080 0.18885
 C2554 C 0.21226 0.40948 0.72434
 C2555 C 0.23328 0.40953 0.70492
 C2556 C 0.24322 0.38244 0.70333
 C2557 C 0.22766 0.36778 0.72183
 O2558 O 0.20896 0.38409 0.73468
 H2559 H 0.24074 0.42709 0.69333
 H2560 H 0.25995 0.37434 0.69038
 C2561 C 0.11947 0.76501 0.85035
 C2562 C 0.13789 0.77364 0.87063
 C2563 C 0.16282 0.77392 0.85795
 C2564 C 0.15803 0.76572 0.83074
 O2565 O 0.13167 0.76045 0.82588
 H2566 H 0.13380 0.77909 0.89222
 H2567 H 0.18229 0.77935 0.86745
 C2568 C 0.62439 0.26630 0.34123
 C2569 C 0.64292 0.27177 0.36242
 C2570 C 0.66826 0.26616 0.35132
 C2571 C 0.66347 0.25776 0.32412
 O2572 O 0.63682 0.25767 0.31789
 H2573 H 0.63851 0.27865 0.38359
 H2574 H 0.68797 0.26840 0.36169
 C2575 C 0.60630 0.77366 0.16383
 C2576 C 0.62399 0.77806 0.14191
 C2577 C 0.64982 0.77393 0.15235
 C2578 C 0.64614 0.76773 0.17998
 O2579 O 0.61974 0.76728 0.18714
 H2580 H 0.61861 0.78270 0.12053
 H2581 H 0.66911 0.77521 0.14121
 C2582 C 0.10069 0.29186 0.69269
 C2583 C 0.10225 0.31754 0.70673
 C2584 C 0.12673 0.31646 0.72085
 C2585 C 0.13834 0.29046 0.71426
 O2586 O 0.12273 0.27558 0.69730
 H2587 H 0.08753 0.33505 0.70699
 H2588 H 0.13526 0.33278 0.73401
 C2589 C 0.90817 0.24201 0.70770
 C2590 C 0.91328 0.22962 0.73314
 C2591 C 0.88802 0.22529 0.74431
 C2592 C 0.86937 0.23545 0.72496
 O2593 O 0.88146 0.24549 0.70268
 H2594 H 0.93302 0.22397 0.74234
 H2595 H 0.88370 0.21617 0.76429
 C2596 C 0.37101 0.75610 0.15093
 C2597 C 0.35223 0.76039 0.12954
 C2598 C 0.32711 0.76233 0.14182
 C2599 C 0.33209 0.75925 0.16989
 O2600 O 0.35878 0.75560 0.17563
 H2601 H 0.35625 0.76220 0.10750
 H2602 H 0.30740 0.76548 0.13149
 C2603 C 0.40882 0.27583 0.28762
 C2604 C 0.41009 0.29427 0.26567
 C2605 C 0.38374 0.29713 0.25594
 C2606 C 0.36828 0.28024 0.27254
 O2607 O 0.38337 0.26736 0.29179
 H2608 H 0.42790 0.30480 0.25783
 H2609 H 0.37668 0.30980 0.23864
 C2610 C 0.88310 0.75957 0.83933
 C2611 C 0.86683 0.77020 0.86076
 C2612 C 0.84037 0.76663 0.85221
 C2613 C 0.84237 0.75432 0.82604
 O2614 O 0.86836 0.74986 0.81812
 H2615 H 0.87356 0.77939 0.88035
 H2616 H 0.82180 0.77314 0.86330
   
