data_POSCAR
  _audit_creation_date              2014-09-24
  _audit_creation_method            'ToBaCCo'
  _symmetry_space_group_name_H-M    'P1'
  _symmetry_Int_Tables_number       1
  _symmetry_cell_setting            triclinic
  loop_
  _symmetry_equiv_pos_as_xyz
 x,y,z
_cell_length_a 57.2185
_cell_length_b 55.7107
_cell_length_c 54.3444
_cell_angle_alpha 90.247700
_cell_angle_beta 90.085500
_cell_angle_gamma 89.818800
loop_
  _atom_site_label
  _atom_site_type_symbol
  _atom_site_fract_x
  _atom_site_fract_y
  _atom_site_fract_z
O1 O 0.35784 0.32938 -0.02681
 O2 O 0.33756 0.36639 0.02541
 O3 O 0.36851 0.33259 0.01979
 O4 O 0.32789 0.36457 -0.02092
 O5 O 0.30073 0.33733 -0.01407
 O6 O 0.34120 0.30588 0.02804
 O7 O 0.30992 0.33979 0.03277
 O8 O 0.33085 0.30236 -0.01848
 Cu9 Cu 0.35075 0.35084 -0.00151
 Cu10 Cu 0.31795 0.31862 0.00785
 C11 C 0.34789 0.30947 -0.03137
 C12 C 0.32003 0.35948 0.03775
 C13 C 0.36179 0.31393 0.03098
 C14 C 0.30738 0.35664 -0.02430
 O15 O 0.66304 0.63623 0.02440
 O16 O 0.63266 0.67003 -0.02362
 O17 O 0.66192 0.63395 -0.02337
 O18 O 0.63542 0.67322 0.02386
 O19 O 0.66567 0.69761 0.02142
 O20 O 0.69173 0.65881 -0.02629
 O21 O 0.66230 0.69518 -0.02634
 O22 O 0.69354 0.66026 0.02160
 Cu23 Cu 0.64529 0.65089 0.00051
 Cu24 Cu 0.68134 0.68043 -0.00274
 C25 C 0.68340 0.64228 0.03115
 C26 C 0.64195 0.68853 -0.03286
 C27 C 0.68148 0.63957 -0.03273
 C28 C 0.64605 0.69213 0.03066
 O29 O 0.70290 0.33194 0.98816
 O30 O 0.66007 0.30347 1.02850
 O31 O 0.69607 0.33210 1.03514
 O32 O 0.66835 0.30254 0.98179
 O33 O 0.69183 0.27134 0.98649
 O34 O 0.71983 0.30109 1.03936
 O35 O 0.68370 0.27244 1.03353
 O36 O 0.72671 0.30092 0.99208
 Cu37 Cu 0.67947 0.32063 1.00809
 Cu38 Cu 0.70788 0.28332 1.01344
 C39 C 0.72206 0.32146 0.98320
 C40 C 0.66430 0.28297 1.03749
 C41 C 0.71312 0.32187 1.04594
 C42 C 0.67531 0.28181 0.97517
 O43 O 0.37359 0.66345 1.01696
 O44 O 0.34469 0.63235 0.96568
 O45 O 0.37252 0.66931 0.96937
 O46 O 0.34487 0.62767 1.01320
 O47 O 0.31485 0.65243 1.01668
 O48 O 0.34221 0.69372 0.97281
 O49 O 0.31425 0.65660 0.96924
 O50 O 0.34355 0.68823 1.02051
 Cu51 Cu 0.36198 0.64580 0.99088
 Cu52 Cu 0.32573 0.67529 0.99503
 C53 C 0.36352 0.68094 1.02760
 C54 C 0.32439 0.63882 0.95903
 C55 C 0.36204 0.68868 0.96372
 C56 C 0.32511 0.63299 1.02243
 O57 O 0.02875 0.31134 0.33738
 O58 O -0.01616 0.34529 0.30335
 O59 O -0.01654 0.31503 0.33970
 O60 O 0.02902 0.34279 0.30207
 O61 O 0.02558 0.31389 0.27439
 O62 O -0.01879 0.28470 0.31351
 O63 O -0.01995 0.31507 0.27722
 O64 O 0.02673 0.28225 0.30973
 Cu65 Cu 0.00656 0.33154 0.32335
 Cu66 Cu 0.00314 0.29596 0.29103
 C67 C 0.03551 0.29106 0.32921
 C68 C -0.02576 0.33590 0.28454
 C69 C -0.02538 0.29514 0.33320
 C70 C 0.03488 0.33334 0.28170
 O71 O 0.01650 0.68034 0.65793
 O72 O -0.02575 0.65260 0.69989
 O73 O -0.02835 0.68363 0.66454
 O74 O 0.01911 0.64955 0.69384
 O75 O 0.02440 0.67911 0.72046
 O76 O -0.02319 0.71325 0.69110
 O77 O -0.02058 0.68204 0.72668
 O78 O 0.02167 0.71006 0.68439
 Cu79 Cu -0.00510 0.66357 0.67637
 Cu80 Cu 0.00116 0.69909 0.70834
 C81 C 0.02609 0.70004 0.66385
 C82 C -0.03034 0.66249 0.72043
 C83 C -0.03384 0.70428 0.67275
 C84 C 0.02968 0.65842 0.71230
 O85 O 0.97237 0.68498 0.35066
 O86 O 1.02030 0.64685 0.32785
 O87 O 1.01607 0.67957 0.36197
 O88 O 0.97621 0.65201 0.31702
 O89 O 0.98534 0.67958 0.28963
 O90 O 1.02483 0.70768 0.33503
 O91 O 1.02949 0.67467 0.30074
 O92 O 0.98121 0.71269 0.32328
 Cu93 Cu 0.99536 0.66302 0.34205
 Cu94 Cu 1.00624 0.69640 0.30940
 C95 C 0.96867 0.70535 0.34094
 C96 C 1.03300 0.65423 0.31034
 C97 C 1.02692 0.69860 0.35636
 C98 C 0.97388 0.66107 0.29575
 O99 O 0.97513 0.32161 0.63127
 O100 O 1.01590 0.36331 0.66184
 O101 O 1.02018 0.32822 0.63061
 O102 O 0.97082 0.35759 0.66151
 O103 O 0.97437 0.33291 0.69300
 O104 O 1.02395 0.30290 0.66152
 O105 O 1.01953 0.33803 0.69282
 O106 O 0.97881 0.29641 0.66231
 Cu107 Cu 0.99511 0.34516 0.64319
 Cu108 Cu 0.99941 0.31498 0.68053
 C109 C 0.97013 0.30184 0.64157
 C110 C 1.02470 0.35772 0.68252
 C111 C 1.03059 0.31070 0.64070
 C112 C 0.96434 0.35057 0.68256
 O113 O 0.31012 -0.01665 0.34835
 O114 O 0.33488 0.02625 0.30472
 O115 O 0.30513 0.02912 0.34079
 O116 O 0.33828 -0.01991 0.31067
 O117 O 0.30829 -0.02656 0.28598
 O118 O 0.27593 0.02311 0.31487
 O119 O 0.30589 0.01959 0.27874
 O120 O 0.27998 -0.02244 0.32360
 Cu121 Cu 0.32508 0.00530 0.32865
 Cu122 Cu 0.28959 -0.00225 0.29823
 C123 C 0.29067 -0.02652 0.34371
 C124 C 0.32485 0.03017 0.28429
 C125 C 0.28481 0.03437 0.33290
 C126 C 0.32884 -0.03154 0.29311
 O127 O 0.66453 -0.01607 0.62858
 O128 O 0.63019 0.03012 0.66014
 O129 O 0.65967 0.02988 0.62362
 O130 O 0.63718 -0.01551 0.66661
 O131 O 0.66740 -0.00928 0.69112
 O132 O 0.68870 0.03752 0.64928
 O133 O 0.65925 0.03660 0.68611
 O134 O 0.69475 -0.00865 0.65277
 Cu135 Cu 0.64490 0.00645 0.64227
 Cu136 Cu 0.68049 0.01480 0.67238
 C137 C 0.68547 -0.02010 0.63498
 C138 C 0.63860 0.04101 0.67862
 C139 C 0.67811 0.04136 0.62913
 C140 C 0.64860 -0.02025 0.68609
 O141 O 0.33396 1.03156 0.63635
 O142 O 0.37058 0.98213 0.66032
 O143 O 0.33472 0.98527 0.63115
 O144 O 0.37153 1.02883 0.66348
 O145 O 0.34928 1.02630 0.69654
 O146 O 0.31139 0.98291 0.66341
 O147 O 0.34748 0.97948 0.69270
 O148 O 0.31157 1.02918 0.66932
 Cu149 Cu 0.35502 1.00725 0.64463
 Cu150 Cu 0.32771 1.00424 0.68382
 C151 C 0.31636 1.03858 0.64875
 C152 C 0.36509 0.97226 0.68054
 C153 C 0.31673 0.97683 0.64151
 C154 C 0.36689 1.03495 0.68542
 O155 O 0.66544 1.01070 0.36856
 O156 O 0.62978 0.96783 0.33348
 O157 O 0.66032 0.96450 0.36919
 O158 O 0.63510 1.01390 0.33309
 O159 O 0.66303 1.00959 0.30539
 O160 O 0.68905 0.96105 0.34229
 O161 O 0.65843 0.96310 0.30665
 O162 O 0.69361 1.00743 0.34100
 Cu163 Cu 0.64482 0.98956 0.35382
 Cu164 Cu 0.67889 0.98487 0.32108
 C165 C 0.68556 1.01644 0.36080
 C166 C 0.63793 0.95826 0.31407
 C167 C 0.67919 0.95464 0.36212
 C168 C 0.64462 1.02001 0.31298
 C169 C 0.88683 0.78000 0.52420
 C170 C 0.88535 0.77608 0.49934
 C171 C 0.86497 0.78720 0.49149
 N172 N 0.85390 0.79767 0.51072
 C173 C 0.86724 0.79325 0.53076
 C174 C 0.85625 0.78641 0.46721
 C175 C 0.83749 0.80096 0.45919
 C176 C 0.82447 0.79707 0.43801
 C177 C 0.80919 0.81608 0.43599
 C178 C 0.81326 0.83098 0.45604
 N179 N 0.83054 0.82163 0.47008
 C180 C 0.80217 0.85329 0.46015
 C181 C 0.80334 0.86554 0.48291
 C182 C 0.79721 0.88937 0.48665
 C183 C 0.79919 0.89362 0.51144
 C184 C 0.80641 0.87224 0.52201
 N185 N 0.80902 0.85512 0.50453
 C186 C 0.80876 0.86819 0.54754
 C187 C 0.82074 0.84814 0.55722
 C188 C 0.81989 0.84089 0.58158
 C189 C 0.83471 0.82152 0.58370
 C190 C 0.84419 0.81748 0.56057
 N191 N 0.83568 0.83386 0.54457
 C192 C 0.86120 0.79985 0.55508
 H193 H 0.90081 0.77384 0.53604
 H194 H 0.89790 0.76625 0.48832
 H195 H 0.84158 0.83670 0.52674
 H196 H 0.82588 0.78217 0.42526
 H197 H 0.79660 0.81867 0.42134
 H198 H 0.79186 0.90234 0.47297
 H199 H 0.79563 0.91051 0.52063
 H200 H 0.83813 0.81160 0.60041
 H201 H 0.83894 0.83023 0.48462
 H202 H 0.80971 0.84875 0.59634
 C203 C 0.24855 0.15717 0.48096
 C204 C 0.25108 0.15680 0.50604
 C205 C 0.22977 0.16383 0.51589
 N206 N 0.21433 0.16837 0.49763
 C207 C 0.22578 0.16444 0.47625
 C208 C 0.22422 0.16349 0.54122
 C209 C 0.20290 0.17230 0.55103
 C210 C 0.19559 0.16933 0.57516
 C211 C 0.17476 0.18149 0.57758
 C212 C 0.16991 0.19171 0.55491
 N213 N 0.18727 0.18625 0.53895
 C214 C 0.15074 0.20706 0.55008
 C215 C 0.14394 0.21432 0.52617
 C216 C 0.12636 0.23078 0.52113
 C217 C 0.12421 0.23171 0.49606
 C218 C 0.14029 0.21552 0.48648
 N219 N 0.15228 0.20485 0.50494
 C220 C 0.14255 0.20983 0.46119
 C221 C 0.16018 0.19442 0.45180
 C222 C 0.15973 0.18359 0.42878
 C223 C 0.18028 0.17094 0.42635
 C224 C 0.19265 0.17406 0.44810
 N225 N 0.18036 0.18860 0.46340
 C226 C 0.21527 0.16470 0.45274
 H227 H 0.26180 0.15201 0.46774
 H228 H 0.26666 0.15130 0.51586
 H229 H 0.18644 0.19617 0.47969
 H230 H 0.20445 0.15978 0.58976
 H231 H 0.16457 0.18298 0.59428
 H232 H 0.11589 0.24096 0.53406
 H233 H 0.11196 0.24289 0.48612
 H234 H 0.18546 0.16071 0.41030
 H235 H 0.18961 0.19383 0.52174
 H236 H 0.14602 0.18461 0.41509
 C237 C 0.09030 0.80991 0.49961
 C238 C 0.09112 0.81025 0.52485
 C239 C 0.11285 0.81927 0.53133
 N240 N 0.12528 0.82445 0.51092
 C241 C 0.11153 0.81875 0.49151
 C242 C 0.12137 0.82160 0.55566
 C243 C 0.14137 0.83527 0.56168
 C244 C 0.15305 0.83430 0.58404
 C245 C 0.17033 0.85136 0.58326
 C246 C 0.16875 0.86234 0.56045
 N247 N 0.15104 0.85243 0.54741
 C248 C 0.18253 0.88200 0.55292
 C249 C 0.18360 0.88987 0.52825
 C250 C 0.19278 0.91159 0.52061
 C251 C 0.19154 0.91168 0.49538
 C252 C 0.18171 0.88997 0.48845
 N253 N 0.17688 0.87668 0.50856
 C254 C 0.17822 0.88218 0.46394
 C255 C 0.16465 0.86187 0.45787
 C256 C 0.16486 0.85044 0.43515
 C257 C 0.14801 0.83296 0.43594
 C258 C 0.13791 0.83422 0.45911
 N259 N 0.14823 0.85183 0.47241
 C260 C 0.11840 0.82063 0.46663
 H261 H 0.07564 0.80406 0.48854
 H262 H 0.07720 0.80470 0.53699
 H263 H 0.14238 0.85862 0.48915
 H264 H 0.14942 0.82261 0.59941
 H265 H 0.18256 0.85534 0.59793
 H266 H 0.19949 0.92599 0.53200
 H267 H 0.19711 0.92615 0.48356
 H268 H 0.14351 0.82092 0.42100
 H269 H 0.14423 0.85886 0.53097
 H270 H 0.17585 0.85444 0.41951
 C271 C 0.87720 0.22631 0.46846
 C272 C 0.87365 0.23144 0.49287
 C273 C 0.85829 0.21431 0.50165
 N274 N 0.85229 0.19896 0.48338
 C275 C 0.86365 0.20639 0.46297
 C276 C 0.85123 0.21223 0.52648
 C277 C 0.83377 0.19621 0.53453
 C278 C 0.83015 0.18981 0.55886
 C279 C 0.81144 0.17436 0.55908
 C280 C 0.80398 0.17192 0.53490
 N281 N 0.81762 0.18543 0.52008
 C282 C 0.78440 0.15838 0.52720
 C283 C 0.77954 0.15375 0.50214
 C284 C 0.75808 0.14657 0.49287
 C285 C 0.76140 0.14172 0.46836
 C286 C 0.78477 0.14610 0.46350
 N287 N 0.79580 0.15358 0.48414
 C288 C 0.79605 0.14144 0.44087
 C289 C 0.81799 0.15135 0.43488
 C290 C 0.83150 0.14462 0.41482
 C291 C 0.85057 0.15961 0.41460
 C292 C 0.84827 0.17495 0.43464
 N293 N 0.82829 0.16989 0.44678
 C294 C 0.86334 0.19431 0.44002
 H295 H 0.88876 0.23602 0.45635
 H296 H 0.88172 0.24598 0.50301
 H297 H 0.82073 0.18030 0.46056
 H298 H 0.84009 0.19553 0.57479
 H299 H 0.80417 0.16597 0.57526
 H300 H 0.74178 0.14489 0.50277
 H301 H 0.74813 0.13557 0.45561
 H302 H 0.86440 0.15939 0.40103
 H303 H 0.81466 0.18897 0.50158
 H304 H 0.82787 0.13061 0.40152
 C305 C 0.50489 0.75843 0.85008
 C306 C 0.52850 0.76255 0.85051
 C307 C 0.53169 0.78618 0.84336
 N308 N 0.51082 0.79654 0.83840
 C309 C 0.49441 0.77959 0.84242
 C310 C 0.55337 0.79834 0.84347
 C311 C 0.55686 0.82069 0.83179
 C312 C 0.57649 0.83495 0.83483
 C313 C 0.57342 0.85474 0.82011
 C314 C 0.55200 0.85206 0.80846
 N315 N 0.54213 0.83114 0.81550
 C316 C 0.54237 0.86858 0.79151
 C317 C 0.51855 0.86887 0.78453
 C318 C 0.50914 0.88390 0.76679
 C319 C 0.48552 0.88024 0.76686
 C320 C 0.48114 0.86277 0.78435
 N321 N 0.50139 0.85601 0.79529
 C322 C 0.45861 0.85486 0.79131
 C323 C 0.45467 0.83619 0.80835
 C324 C 0.43313 0.83070 0.81851
 C325 C 0.43630 0.81053 0.83267
 C326 C 0.45974 0.80429 0.83092
 N327 N 0.47070 0.81986 0.81581
 C328 C 0.47004 0.78365 0.84158
 H329 H 0.49642 0.74184 0.85518
 H330 H 0.54176 0.74968 0.85580
 H331 H 0.48743 0.81779 0.80876
 H332 H 0.59143 0.83157 0.84657
 H333 H 0.58549 0.86956 0.81844
 H334 H 0.51822 0.89654 0.75520
 H335 H 0.47313 0.88984 0.75551
 H336 H 0.42270 0.80134 0.84267
 H337 H 0.52724 0.82344 0.80791
 H338 H 0.41669 0.83996 0.81567
 C339 C 0.48532 0.10389 0.21831
 C340 C 0.50925 0.10314 0.21892
 C341 C 0.51699 0.12432 0.20843
 N342 N 0.49859 0.13783 0.20118
 C343 C 0.47923 0.12535 0.20716
 C344 C 0.54058 0.13162 0.20707
 C345 C 0.54798 0.15135 0.19289
 C346 C 0.56977 0.16200 0.19474
 C347 C 0.57068 0.17939 0.17692
 C348 C 0.54936 0.17897 0.16467
 N349 N 0.53568 0.16173 0.17448
 C350 C 0.54394 0.19275 0.14359
 C351 C 0.52097 0.19520 0.13414
 C352 C 0.51503 0.20663 0.11237
 C353 C 0.49110 0.20624 0.11079
 C354 C 0.48308 0.19523 0.13196
 N355 N 0.50136 0.18851 0.14618
 C356 C 0.45929 0.19294 0.13871
 C357 C 0.45186 0.17972 0.15938
 C358 C 0.43015 0.18217 0.17046
 C359 C 0.42930 0.16567 0.18915
 C360 C 0.45039 0.15333 0.18880
 N361 N 0.46408 0.16207 0.17062
 C362 C 0.45616 0.13382 0.20425
 H363 H 0.47372 0.09017 0.22520
 H364 H 0.51970 0.08865 0.22634
 H365 H 0.47978 0.15472 0.16451
 H366 H 0.58371 0.15755 0.20743
 H367 H 0.58559 0.19069 0.17321
 H368 H 0.52652 0.21473 0.09904
 H369 H 0.48088 0.21359 0.09584
 H370 H 0.41476 0.16311 0.20155
 H371 H 0.52006 0.15543 0.16716
 H372 H 0.41640 0.19470 0.16569
 C373 C 0.51631 0.11971 0.79766
 C374 C 0.49233 0.11977 0.79773
 C375 C 0.48539 0.14331 0.80187
 N376 N 0.50431 0.15756 0.80457
 C377 C 0.52322 0.14316 0.80199
 C378 C 0.46203 0.15171 0.80142
 C379 C 0.45559 0.17476 0.81007
 C380 C 0.43434 0.18589 0.80538
 C381 C 0.43457 0.20743 0.81786
 C382 C 0.45588 0.20880 0.82997
 N383 N 0.46858 0.18881 0.82513
 C384 C 0.46255 0.22753 0.84615
 C385 C 0.48577 0.23107 0.85418
 C386 C 0.49231 0.24651 0.87304
 C387 C 0.51620 0.24560 0.87438
 C388 C 0.52351 0.22974 0.85622
 N389 N 0.50487 0.22090 0.84384
 C390 C 0.54706 0.22460 0.85051
 C391 C 0.55359 0.20657 0.83349
 C392 C 0.57513 0.20506 0.82194
 C393 C 0.57497 0.18432 0.80815
 C394 C 0.55332 0.17374 0.81167
 N395 N 0.54038 0.18743 0.82712
 C396 C 0.54657 0.15128 0.80190
 H397 H 0.52740 0.10417 0.79480
 H398 H 0.48132 0.10424 0.79495
 H399 H 0.52457 0.18262 0.83508
 H400 H 0.42014 0.17920 0.79413
 H401 H 0.42055 0.22051 0.81808
 H402 H 0.48106 0.25721 0.88476
 H403 H 0.52690 0.25552 0.88731
 H404 H 0.58925 0.17774 0.79693
 H405 H 0.48408 0.18386 0.83375
 H406 H 0.58950 0.21758 0.82332
 C407 C 0.51361 0.86784 0.23629
 C408 C 0.48990 0.87066 0.23818
 C409 C 0.47988 0.85270 0.22401
 N410 N 0.49673 0.83894 0.21358
 C411 C 0.51744 0.84835 0.22079
 C412 C 0.45555 0.84877 0.22193
 C413 C 0.44553 0.83159 0.20582
 C414 C 0.42258 0.82368 0.20701
 C415 C 0.41943 0.80790 0.18778
 C416 C 0.44058 0.80642 0.17547
 N417 N 0.45636 0.82102 0.18646
 C418 C 0.44458 0.79240 0.15416
 C419 C 0.46718 0.78705 0.14516
 C420 C 0.47188 0.77656 0.12250
 C421 C 0.49546 0.77230 0.12182
 C422 C 0.50446 0.78064 0.14393
 N423 N 0.48716 0.78962 0.15821
 C424 C 0.52809 0.77854 0.15108
 C425 C 0.53771 0.79118 0.17131
 C426 C 0.55956 0.78688 0.18148
 C427 C 0.56295 0.80404 0.19941
 C428 C 0.54288 0.81807 0.20005
 N429 N 0.52768 0.81021 0.18276
 C430 C 0.53970 0.83853 0.21513
 H431 H 0.52639 0.87866 0.24588
 H432 H 0.48110 0.88429 0.24903
 H433 H 0.51258 0.81907 0.17720
 H434 H 0.40944 0.82867 0.22040
 H435 H 0.40343 0.79845 0.18348
 H436 H 0.45962 0.77225 0.10797
 H437 H 0.50491 0.76408 0.10672
 H438 H 0.57845 0.80591 0.21068
 H439 H 0.47275 0.82533 0.17962
 H440 H 0.57195 0.77302 0.17639
 C441 C 0.89178 0.47600 0.79676
 C442 C 0.89184 0.50049 0.79443
 C443 C 0.87074 0.50865 0.80382
 N444 N 0.85774 0.48998 0.81170
 C445 C 0.87055 0.46998 0.80729
 C446 C 0.86309 0.53276 0.80330
 C447 C 0.84338 0.54099 0.81660
 C448 C 0.83183 0.56256 0.81256
 C449 C 0.81471 0.56442 0.83022
 C450 C 0.81610 0.54384 0.84440
 N451 N 0.83364 0.52968 0.83602
 C452 C 0.80215 0.53918 0.86525
 C453 C 0.80023 0.51603 0.87560
 C454 C 0.79035 0.51097 0.89826
 C455 C 0.79014 0.48646 0.90037
 C456 C 0.80017 0.47735 0.87908
 N457 N 0.80633 0.49543 0.86394
 C458 C 0.80188 0.45270 0.87320
 C459 C 0.81577 0.44384 0.85365
 C460 C 0.81410 0.42103 0.84347
 C461 C 0.83141 0.41917 0.82601
 C462 C 0.84302 0.44097 0.82584
 N463 N 0.83345 0.45587 0.84282
 C464 C 0.86252 0.44628 0.81097
 H465 H 0.90574 0.46403 0.79118
 H466 H 0.90582 0.51107 0.78666
 H467 H 0.84009 0.47238 0.84842
 H468 H 0.83532 0.57565 0.79840
 H469 H 0.80255 0.57922 0.83229
 H470 H 0.78390 0.52355 0.91188
 H471 H 0.78338 0.47648 0.91585
 H472 H 0.83494 0.40359 0.81464
 H473 H 0.84022 0.51445 0.84466
 H474 H 0.80170 0.40713 0.84806
 C475 C 0.11611 0.52367 0.21419
 C476 C 0.11592 0.49924 0.21722
 C477 C 0.13716 0.49079 0.20849
 N478 N 0.15037 0.50921 0.20040
 C479 C 0.13754 0.52936 0.20390
 C480 C 0.14458 0.46662 0.20934
 C481 C 0.16469 0.45832 0.19680
 C482 C 0.17632 0.43697 0.20161
 C483 C 0.19361 0.43472 0.18418
 C484 C 0.19215 0.45485 0.16933
 N485 N 0.17454 0.46917 0.17718
 C486 C 0.20570 0.45872 0.14805
 C487 C 0.20721 0.48138 0.13662
 C488 C 0.21546 0.48544 0.11303
 C489 C 0.21548 0.50984 0.10980
 C490 C 0.20724 0.51986 0.13151
 N491 N 0.20212 0.50243 0.14785
 C492 C 0.20569 0.54469 0.13660
 C493 C 0.19210 0.55401 0.15613
 C494 C 0.19316 0.57745 0.16477
 C495 C 0.17611 0.57976 0.18245
 C496 C 0.16510 0.55767 0.18413
 N497 N 0.17495 0.54209 0.16801
 C498 C 0.14550 0.55289 0.19909
 H499 H 0.10199 0.53578 0.21894
 H500 H 0.10170 0.48891 0.22485
 H501 H 0.16856 0.52523 0.16335
 H502 H 0.17266 0.42421 0.21605
 H503 H 0.20576 0.41987 0.18253
 H504 H 0.22076 0.47223 0.09948
 H505 H 0.22081 0.51910 0.09328
 H506 H 0.17217 0.59594 0.19275
 H507 H 0.16784 0.48398 0.16790
 H508 H 0.20485 0.59150 0.15882
 C509 C 0.88041 0.48578 0.22782
 C510 C 0.88049 0.51032 0.22876
 C511 C 0.86213 0.51807 0.21414
 N512 N 0.85073 0.49903 0.20443
 C513 C 0.86204 0.47920 0.21252
 C514 C 0.85566 0.54239 0.21117
 C515 C 0.83876 0.55054 0.19409
 C516 C 0.82971 0.57366 0.19350
 C517 C 0.81434 0.57455 0.17404
 C518 C 0.81426 0.55189 0.16339
 N519 N 0.82940 0.53745 0.17552
 C520 C 0.80078 0.54529 0.14267
 C521 C 0.79673 0.52109 0.13587
 C522 C 0.78647 0.51368 0.11400
 C523 C 0.78367 0.48932 0.11561
 C524 C 0.79268 0.48254 0.13823
 N525 N 0.80063 0.50198 0.15062
 C526 C 0.79215 0.45894 0.14760
 C527 C 0.80604 0.45145 0.16779
 C528 C 0.80370 0.42984 0.18015
 C529 C 0.82178 0.42853 0.19681
 C530 C 0.83430 0.44967 0.19471
 N531 N 0.82470 0.46346 0.17691
 C532 C 0.85473 0.45527 0.20813
 H533 H 0.89210 0.47429 0.23809
 H534 H 0.89257 0.52119 0.23931
 H535 H 0.83210 0.47884 0.16950
 H536 H 0.83367 0.58839 0.20585
 H537 H 0.80416 0.59005 0.16857
 H538 H 0.78135 0.52466 0.09851
 H539 H 0.77602 0.47787 0.10163
 H540 H 0.82510 0.41377 0.20922
 H541 H 0.83456 0.52037 0.17000
 H542 H 0.79049 0.41624 0.17739
 C543 C 0.10374 0.48180 0.79855
 C544 C 0.10369 0.50641 0.79856
 C545 C 0.12591 0.51350 0.80561
 N546 N 0.13951 0.49409 0.80995
 C547 C 0.12599 0.47469 0.80560
 C548 C 0.13379 0.53747 0.80667
 C549 C 0.15443 0.54425 0.81911
 C550 C 0.16505 0.56650 0.81710
 C551 C 0.18346 0.56660 0.83335
 C552 C 0.18365 0.54438 0.84479
 N553 N 0.16587 0.53087 0.83603
 C554 C 0.19923 0.53779 0.86379
 C555 C 0.20274 0.51378 0.87143
 C556 C 0.21617 0.50685 0.89142
 C557 C 0.21624 0.48226 0.89160
 C558 C 0.20232 0.47481 0.87208
 N559 N 0.19440 0.49417 0.85959
 C560 C 0.19848 0.45060 0.86500
 C561 C 0.18349 0.44386 0.84543
 C562 C 0.18310 0.42134 0.83441
 C563 C 0.16490 0.42140 0.81786
 C564 C 0.15449 0.44386 0.81934
 N565 N 0.16591 0.45742 0.83619
 C566 C 0.13396 0.45069 0.80661
 H567 H 0.08900 0.47047 0.79404
 H568 H 0.08892 0.51774 0.79403
 H569 H 0.16025 0.47382 0.84317
 H570 H 0.15998 0.58123 0.80530
 H571 H 0.19532 0.58141 0.83645
 H572 H 0.22523 0.51823 0.90446
 H573 H 0.22588 0.47136 0.90453
 H574 H 0.15972 0.40642 0.80635
 H575 H 0.16020 0.51468 0.84326
 H576 H 0.19450 0.40624 0.83807
 C577 C 0.31108 0.37499 0.05757
 C578 C 0.29054 0.36952 0.07017
 C579 C 0.27867 0.38656 0.08698
 C580 C 0.25451 0.38424 0.09054
 C581 C 0.24224 0.40090 0.10485
 C582 C 0.25403 0.42010 0.11627
 C583 C 0.27832 0.42195 0.11334
 C584 C 0.29058 0.40532 0.09895
 C585 C 0.24154 0.43930 0.12990
 C586 C 0.21821 0.43786 0.13717
 H587 H 0.28150 0.35301 0.06563
 H588 H 0.24494 0.36992 0.08155
 H589 H 0.22351 0.39898 0.10613
 H590 H 0.28783 0.43652 0.12199
 H591 H 0.30930 0.40730 0.09726
 H592 H 0.25098 0.45571 0.13391
 H593 H 0.31986 0.39188 0.06073
 H594 H 0.20906 0.42093 0.13627
 C595 C 0.69490 0.62768 0.05012
 C596 C 0.71846 0.62991 0.05641
 C597 C 0.73036 0.61332 0.07375
 C598 C 0.75164 0.62020 0.08457
 C599 C 0.76346 0.60477 0.10068
 C600 C 0.75423 0.58202 0.10614
 C601 C 0.73300 0.57519 0.09534
 C602 C 0.72132 0.59047 0.07916
 C603 C 0.76595 0.56476 0.12276
 C604 C 0.78984 0.56481 0.12801
 H605 H 0.72853 0.64434 0.04840
 H606 H 0.75907 0.63762 0.08065
 H607 H 0.77958 0.61087 0.10897
 H608 H 0.72561 0.55770 0.09906
 H609 H 0.70550 0.58392 0.07063
 H610 H 0.75556 0.55008 0.12982
 H611 H 0.68421 0.61427 0.05891
 H612 H 0.80080 0.57943 0.12204
 C613 C 0.73915 0.33348 0.96723
 C614 C 0.73515 0.35692 0.95918
 C615 C 0.75144 0.37120 0.94405
 C616 C 0.74735 0.39597 0.94230
 C617 C 0.76156 0.41038 0.92776
 C618 C 0.78008 0.40026 0.91424
 C619 C 0.78458 0.37557 0.91635
 C620 C 0.77031 0.36108 0.93101
 C621 C 0.79500 0.41518 0.89822
 C622 C 0.78672 0.43613 0.88720
 H623 H 0.71925 0.36586 0.96508
 H624 H 0.73309 0.40429 0.95234
 H625 H 0.75809 0.42947 0.92746
 H626 H 0.79887 0.36742 0.90626
 H627 H 0.77390 0.34203 0.93163
 H628 H 0.81277 0.40935 0.89467
 H629 H 0.75519 0.32413 0.96276
 H630 H 0.76882 0.44174 0.89018
 C631 C 0.31252 0.62482 0.93977
 C632 C 0.28883 0.62784 0.93449
 C633 C 0.27546 0.61087 0.91888
 C634 C 0.25133 0.60872 0.92272
 C635 C 0.23827 0.59183 0.90956
 C636 C 0.24907 0.57693 0.89192
 C637 C 0.27312 0.57947 0.88767
 C638 C 0.28619 0.59636 0.90087
 C639 C 0.23613 0.55792 0.87853
 C640 C 0.21183 0.55750 0.87654
 H641 H 0.27916 0.64163 0.94429
 H642 H 0.24265 0.61965 0.93650
 H643 H 0.21993 0.59010 0.91390
 H644 H 0.28185 0.56828 0.87415
 H645 H 0.30462 0.59794 0.89686
 H646 H 0.24608 0.54373 0.86968
 H647 H 0.32223 0.61022 0.93146
 H648 H 0.20164 0.57287 0.88241
 C649 C 0.05372 0.27745 0.34230
 C650 C 0.06067 0.28351 0.36614
 C651 C 0.07829 0.26963 0.38010
 C652 C 0.07673 0.26903 0.40584
 C653 C 0.09313 0.25627 0.41969
 C654 C 0.11167 0.24411 0.40804
 C655 C 0.11362 0.24525 0.38235
 C656 C 0.09697 0.25771 0.36843
 C657 C 0.12964 0.23120 0.42246
 C658 C 0.12431 0.21942 0.44434
 H659 H 0.05173 0.29805 0.37557
 H660 H 0.06270 0.27838 0.41525
 H661 H 0.09157 0.25643 0.43954
 H662 H 0.12799 0.23636 0.37304
 H663 H 0.09903 0.25841 0.34866
 H664 H 0.14744 0.23102 0.41572
 H665 H 0.06092 0.26165 0.33342
 H666 H 0.10632 0.21904 0.45050
 C667 C 0.04214 0.71129 0.64625
 C668 C 0.05098 0.73437 0.64980
 C669 C 0.06501 0.74708 0.63105
 C670 C 0.06536 0.77226 0.63135
 C671 C 0.07766 0.78499 0.61346
 C672 C 0.09023 0.77271 0.59503
 C673 C 0.09018 0.74752 0.59497
 C674 C 0.07784 0.73480 0.61284
 C675 C 0.10283 0.78538 0.57514
 C676 C 0.10882 0.80964 0.57613
 H677 H 0.04588 0.74425 0.66617
 H678 H 0.05562 0.78215 0.64518
 H679 H 0.07673 0.80436 0.61390
 H680 H 0.09975 0.73761 0.58104
 H681 H 0.07859 0.71541 0.61237
 H682 H 0.10812 0.77505 0.55914
 H683 H 0.04565 0.70166 0.62933
 H684 H 0.10628 0.81976 0.59294
 C685 C 0.95006 0.72103 0.35049
 C686 C 0.93591 0.71405 0.37007
 C687 C 0.91910 0.73015 0.38273
 C688 C 0.90276 0.71997 0.39880
 C689 C 0.88782 0.73450 0.41270
 C690 C 0.88912 0.75964 0.41101
 C691 C 0.90485 0.76983 0.39432
 C692 C 0.91983 0.75530 0.38043
 C693 C 0.87490 0.77567 0.42679
 C694 C 0.86689 0.76885 0.44996
 H695 H 0.93753 0.69586 0.37688
 H696 H 0.90173 0.70066 0.40083
 H697 H 0.87537 0.72596 0.42478
 H698 H 0.90611 0.78916 0.39264
 H699 H 0.93240 0.76399 0.36865
 H700 H 0.87270 0.79420 0.42122
 H701 H 0.94800 0.73850 0.34218
 H702 H 0.87125 0.75126 0.45701
 C703 C 0.95450 0.28467 0.62925
 C704 C 0.94077 0.29119 0.60913
 C705 C 0.92633 0.27381 0.59528
 C706 C 0.90594 0.28183 0.58352
 C707 C 0.89254 0.26606 0.56928
 C708 C 0.89958 0.24203 0.56620
 C709 C 0.92010 0.23407 0.57774
 C710 C 0.93328 0.24973 0.59235
 C711 C 0.88683 0.22552 0.54965
 C712 C 0.86290 0.22743 0.54523
 H713 H 0.94004 0.30989 0.60373
 H714 H 0.90045 0.30039 0.58524
 H715 H 0.87716 0.27293 0.56003
 H716 H 0.92604 0.21573 0.57530
 H717 H 0.94928 0.24316 0.60061
 H718 H 0.89656 0.21132 0.54056
 H719 H 0.95360 0.26659 0.63641
 H720 H 0.85224 0.23937 0.55632
 C721 C 0.33560 0.04683 0.26668
 C722 C 0.35464 0.06094 0.27364
 C723 C 0.36846 0.07606 0.25675
 C724 C 0.38334 0.09336 0.26706
 C725 C 0.39846 0.10653 0.25226
 C726 C 0.39933 0.10241 0.22674
 C727 C 0.38378 0.08582 0.21622
 C728 C 0.36854 0.07263 0.23108
 C729 C 0.41651 0.11480 0.21092
 C730 C 0.43795 0.12284 0.22001
 H731 H 0.35998 0.06080 0.29279
 H732 H 0.38350 0.09649 0.28675
 H733 H 0.40951 0.11983 0.26095
 H734 H 0.38399 0.08247 0.19657
 H735 H 0.35758 0.05923 0.22246
 H736 H 0.41303 0.11612 0.19137
 H737 H 0.32852 0.04780 0.24824
 H738 H 0.44275 0.11883 0.23882
 C739 C 0.62370 0.05865 0.69121
 C740 C 0.62969 0.06941 0.71355
 C741 C 0.61330 0.08539 0.72693
 C742 C 0.61460 0.08691 0.75267
 C743 C 0.59841 0.10072 0.76589
 C744 C 0.58077 0.11353 0.75348
 C745 C 0.57987 0.11247 0.72772
 C746 C 0.59605 0.09875 0.71454
 C747 C 0.56258 0.12749 0.76657
 C748 C 0.56493 0.13597 0.79062
 H749 H 0.64595 0.06440 0.72241
 H750 H 0.62777 0.07684 0.76263
 H751 H 0.59943 0.10072 0.78576
 H752 H 0.56657 0.12231 0.71772
 H753 H 0.59497 0.09875 0.69467
 H754 H 0.54694 0.13236 0.75643
 H755 H 0.60668 0.06198 0.68320
 H756 H 0.58134 0.13389 0.80030
 C757 C 0.37948 0.95231 0.68987
 C758 C 0.37391 0.94036 0.71165
 C759 C 0.38830 0.92090 0.72251
 C760 C 0.38510 0.91518 0.74741
 C761 C 0.39885 0.89759 0.75871
 C762 C 0.41613 0.88527 0.74524
 C763 C 0.41860 0.89022 0.72008
 C764 C 0.40489 0.90784 0.70879
 C765 C 0.43239 0.86786 0.75677
 C766 C 0.43803 0.86815 0.78177
 H767 H 0.35878 0.94637 0.72198
 H768 H 0.37215 0.92464 0.75831
 H769 H 0.39584 0.89379 0.77794
 H770 H 0.43157 0.88076 0.70920
 H771 H 0.40737 0.91102 0.68937
 H772 H 0.44269 0.85643 0.74474
 H773 H 0.39495 0.94750 0.67956
 H774 H 0.42847 0.87930 0.79461
 C775 C 0.62283 0.94217 0.29978
 C776 C 0.63123 0.92720 0.28118
 C777 C 0.61504 0.91346 0.26539
 C778 C 0.62035 0.88973 0.25863
 C779 C 0.60461 0.87640 0.24435
 C780 C 0.58366 0.88693 0.23613
 C781 C 0.57891 0.91096 0.24204
 C782 C 0.59431 0.92405 0.25675
 C783 C 0.56624 0.87349 0.22165
 C784 C 0.56075 0.84959 0.22634
 H785 H 0.64989 0.92490 0.27870
 H786 H 0.63641 0.88138 0.26486
 H787 H 0.60889 0.85802 0.23959
 H788 H 0.56295 0.91947 0.23572
 H789 H 0.59010 0.94252 0.26122
 H790 H 0.55496 0.88355 0.20936
 H791 H 0.60430 0.94229 0.30391
 H792 H 0.57139 0.83905 0.23877
 C793 C 0.35633 0.29390 0.94864
 C794 C 0.37441 0.30069 0.93301
 C795 C 0.38534 0.28412 0.91501
 C796 C 0.39772 0.29372 0.89513
 C797 C 0.40986 0.27870 0.87889
 C798 C 0.41021 0.25370 0.88255
 C799 C 0.39716 0.24405 0.90194
 C800 C 0.38495 0.25906 0.91811
 C801 C 0.42480 0.23729 0.86748
 C802 C 0.44473 0.24488 0.85502
 H803 H 0.38097 0.31890 0.93407
 H804 H 0.39820 0.31295 0.89228
 H805 H 0.41903 0.28682 0.86369
 H806 H 0.39713 0.22487 0.90517
 H807 H 0.37608 0.25096 0.93352
 H808 H 0.42161 0.21817 0.86882
 H809 H 0.34823 0.27648 0.94655
 H810 H 0.44957 0.26362 0.85543
 C811 C 0.62806 0.70243 0.94944
 C812 C 0.63554 0.72376 0.93871
 C813 C 0.61923 0.73889 0.92428
 C814 C 0.62740 0.75227 0.90425
 C815 C 0.61188 0.76612 0.89016
 C816 C 0.58797 0.76707 0.89623
 C817 C 0.58011 0.75442 0.91686
 C818 C 0.59549 0.74046 0.93069
 C819 C 0.57050 0.78078 0.88184
 C820 C 0.57324 0.78763 0.85733
 H821 H 0.65357 0.72932 0.94070
 H822 H 0.64571 0.75167 0.89925
 H823 H 0.61872 0.77613 0.87478
 H824 H 0.56186 0.75508 0.92215
 H825 H 0.58876 0.73110 0.94658
 H826 H 0.55363 0.78397 0.89035
 H827 H 0.61060 0.69599 0.94553
 H828 H 0.58988 0.78565 0.84814
 C829 C 0.37545 0.69243 0.04847
 C830 C 0.36656 0.71250 0.06075
 C831 C 0.37926 0.72387 0.08145
 C832 C 0.37750 0.74873 0.08515
 C833 C 0.39086 0.76012 0.10335
 C834 C 0.40597 0.74665 0.11847
 C835 C 0.40673 0.72163 0.11553
 C836 C 0.39351 0.71032 0.09729
 C837 C 0.42264 0.75781 0.13596
 C838 C 0.42403 0.78235 0.14100
 H839 H 0.35081 0.72106 0.05394
 H840 H 0.36643 0.75950 0.07331
 H841 H 0.38976 0.77943 0.10483
 H842 H 0.41806 0.71079 0.12701
 H843 H 0.39463 0.69100 0.09555
 H844 H 0.43591 0.74628 0.14396
 H845 H 0.39216 0.68499 0.05392
 H846 H 0.41006 0.79444 0.13590
 C847 C 0.64573 0.27118 0.05154
 C848 C 0.64922 0.25029 0.06503
 C849 C 0.62927 0.23749 0.07599
 C850 C 0.63088 0.22857 0.10001
 C851 C 0.61177 0.21699 0.11072
 C852 C 0.59104 0.21359 0.09722
 C853 C 0.58979 0.22168 0.07289
 C854 C 0.60863 0.23384 0.06245
 C855 C 0.57075 0.20129 0.10804
 C856 C 0.56337 0.20609 0.13197
 H857 H 0.66678 0.24370 0.06828
 H858 H 0.64674 0.23097 0.11063
 H859 H 0.61329 0.21040 0.12937
 H860 H 0.57406 0.21897 0.06213
 H861 H 0.60718 0.24013 0.04368
 H862 H 0.56071 0.18915 0.09657
 H863 H 0.62835 0.27892 0.05064
 H864 H 0.57318 0.21862 0.14320
 C865 C 0.30068 0.05731 0.63918
 C866 C 0.30449 0.06872 0.61677
 C867 C 0.28716 0.08516 0.60551
 C868 C 0.29474 0.10247 0.58867
 C869 C 0.27866 0.11751 0.57688
 C870 C 0.25458 0.11532 0.58158
 C871 C 0.24700 0.09784 0.59821
 C872 C 0.26307 0.08296 0.61015
 C873 C 0.23687 0.12970 0.56828
 C874 C 0.24140 0.15205 0.55793
 H875 H 0.32079 0.06560 0.60712
 H876 H 0.31316 0.10423 0.58447
 H877 H 0.28512 0.13023 0.56355
 H878 H 0.22852 0.09553 0.60181
 H879 H 0.25647 0.06929 0.62235
 H880 H 0.21943 0.12233 0.56643
 H881 H 0.28536 0.06172 0.64997
 H882 H 0.25850 0.16011 0.55963
 C883 C 0.69875 0.03253 0.37466
 C884 C 0.72094 0.04033 0.36765
 C885 C 0.73520 0.05618 0.38354
 C886 C 0.75113 0.07209 0.37280
 C887 C 0.76455 0.08749 0.38750
 C888 C 0.76241 0.08695 0.41329
 C889 C 0.74709 0.07042 0.42399
 C890 C 0.73357 0.05524 0.40932
 C891 C 0.77584 0.10301 0.42974
 C892 C 0.78469 0.12526 0.42269
 H893 H 0.72773 0.03545 0.34970
 H894 H 0.75298 0.07281 0.35298
 H895 H 0.77670 0.09946 0.37861
 H896 H 0.74539 0.06942 0.44381
 H897 H 0.72212 0.04256 0.41826
 H898 H 0.77743 0.09787 0.44889
 H899 H 0.69122 0.03920 0.39165
 H900 H 0.78392 0.13089 0.40369
 C901 C 0.69873 0.96191 0.62097
 C902 C 0.72256 0.95774 0.62436
 C903 C 0.73593 0.94103 0.60841
 C904 C 0.75658 0.93052 0.61730
 C905 C 0.76936 0.91447 0.60264
 C906 C 0.76176 0.90887 0.57865
 C907 C 0.74131 0.91966 0.56970
 C908 C 0.72865 0.93571 0.58426
 C909 C 0.77417 0.89172 0.56242
 C910 C 0.79757 0.88513 0.56511
 H911 H 0.73157 0.96662 0.63938
 H912 H 0.76263 0.93445 0.63578
 H913 H 0.78482 0.90622 0.61039
 H914 H 0.73520 0.91582 0.55122
 H915 H 0.71338 0.94413 0.57628
 H916 H 0.76461 0.88458 0.54680
 H917 H 0.68920 0.95194 0.60712
 H918 H 0.80765 0.89129 0.58073
 C919 C 0.28056 0.95760 0.36238
 C920 C 0.25744 0.94979 0.36132
 C921 C 0.24614 0.93668 0.38175
 C922 C 0.22183 0.93837 0.38452
 C923 C 0.21060 0.92702 0.40409
 C924 C 0.22349 0.91333 0.42113
 C925 C 0.24778 0.91144 0.41818
 C926 C 0.25901 0.92284 0.39864
 C927 C 0.21237 0.90122 0.44231
 C928 C 0.18860 0.89582 0.44328
 H929 H 0.24663 0.95537 0.34597
 H930 H 0.21153 0.94897 0.37181
 H931 H 0.19195 0.92950 0.40600
 H932 H 0.25811 0.90096 0.43098
 H933 H 0.27770 0.92054 0.39675
 H934 H 0.22348 0.89520 0.45725
 H935 H 0.29112 0.95383 0.37844
 H936 H 0.17766 0.89904 0.42738
 C937 C 0.04106 0.37441 0.69449
 C938 C 0.05103 0.36948 0.71740
 C939 C 0.06722 0.38594 0.73038
 C940 C 0.07013 0.38349 0.75589
 C941 C 0.08497 0.39884 0.76896
 C942 C 0.09752 0.41683 0.75664
 C943 C 0.09485 0.41905 0.73107
 C944 C 0.07998 0.40373 0.71802
 C945 C 0.11262 0.43427 0.76976
 C946 C 0.12019 0.43165 0.79405
 H947 H 0.04593 0.35322 0.72684
 H948 H 0.06055 0.36990 0.76584
 H949 H 0.08606 0.39679 0.78869
 H950 H 0.10433 0.43273 0.72112
 H951 H 0.07879 0.40580 0.69829
 H952 H 0.11807 0.45012 0.75981
 H953 H 0.04475 0.39110 0.68520
 H954 H 0.11745 0.41496 0.80367
 C955 C 0.05170 0.63849 0.30108
 C956 C 0.06449 0.64393 0.27999
 C957 C 0.08148 0.62702 0.26884
 C958 C 0.08567 0.62819 0.24346
 C959 C 0.10058 0.61167 0.23201
 C960 C 0.11195 0.59379 0.24588
 C961 C 0.10833 0.59319 0.27142
 C962 C 0.09332 0.60963 0.28282
 C963 C 0.12670 0.57479 0.23456
 C964 C 0.13264 0.57371 0.20966
 H965 H 0.06043 0.66026 0.27008
 H966 H 0.07685 0.64152 0.23232
 H967 H 0.10258 0.61281 0.21230
 H968 H 0.11694 0.57974 0.28259
 H969 H 0.09112 0.60866 0.30256
 H970 H 0.13271 0.56036 0.24633
 H971 H 0.05428 0.62149 0.31026
 H972 H 0.12917 0.58873 0.19769
 C973 C 0.95631 0.34926 0.27080
 C974 C 0.95437 0.37414 0.27274
 C975 C 0.93803 0.38832 0.25755
 C976 C 0.91556 0.37996 0.25150
 C977 C 0.90029 0.39426 0.23764
 C978 C 0.90746 0.41693 0.22935
 C979 C 0.93000 0.42502 0.23510
 C980 C 0.94500 0.41103 0.24941
 C981 C 0.89204 0.43270 0.21479
 C982 C 0.86818 0.43528 0.21943
 H983 H 0.96679 0.38379 0.28412
 H984 H 0.90965 0.36262 0.25785
 H985 H 0.88306 0.38751 0.23322
 H986 H 0.93586 0.44246 0.22892
 H987 H 0.96220 0.41784 0.25392
 H988 H 0.90025 0.44527 0.20233
 H989 H 0.94568 0.33962 0.25757
 H990 H 0.85945 0.42318 0.23190
 C991 C 0.95309 0.65107 0.73741
 C992 C 0.94100 0.63031 0.73072
 C993 C 0.92535 0.61681 0.74732
 C994 C 0.90996 0.60006 0.73687
 C995 C 0.89586 0.58578 0.75173
 C996 C 0.89710 0.58768 0.77751
 C997 C 0.91200 0.60488 0.78800
 C998 C 0.92612 0.61924 0.77310
 C999 C 0.88326 0.57194 0.79382
 C1000 C 0.87547 0.54930 0.78645
 H1001 H 0.94296 0.62356 0.71210
 H1002 H 0.90891 0.59793 0.71707
 H1003 H 0.88399 0.57337 0.74289
 H1004 H 0.91318 0.60677 0.80781
 H1005 H 0.93802 0.63161 0.78194
 H1006 H 0.88046 0.57755 0.81271
 H1007 H 0.95048 0.65926 0.75528
 H1008 H 0.88058 0.54229 0.76865
 C1009 C 0.69181 0.62406 0.95019
 C1010 C 0.71392 0.62833 0.94014
 C1011 C 0.72665 0.61088 0.92435
 C1012 C 0.75105 0.61269 0.92263
 C1013 C 0.76396 0.59605 0.90887
 C1014 C 0.75264 0.57732 0.89617
 C1015 C 0.72818 0.57583 0.89745
 C1016 C 0.71527 0.59245 0.91126
 C1017 C 0.76566 0.55833 0.88266
 C1018 C 0.78936 0.55968 0.87663
 H1019 H 0.72323 0.64441 0.94563
 H1020 H 0.76027 0.62671 0.93249
 H1021 H 0.78277 0.59765 0.90890
 H1022 H 0.71900 0.56162 0.88783
 H1023 H 0.69646 0.59079 0.91149
 H1024 H 0.75622 0.54224 0.87748
 H1025 H 0.68265 0.60764 0.94575
 H1026 H 0.79863 0.57644 0.87874
 C1027 C 0.29214 0.36995 0.96113
 C1028 C 0.26982 0.36221 0.95460
 C1029 C 0.25368 0.37849 0.94165
 C1030 C 0.24226 0.37091 0.92014
 C1031 C 0.22777 0.38681 0.90726
 C1032 C 0.22397 0.41018 0.91626
 C1033 C 0.23463 0.41736 0.93830
 C1034 C 0.24967 0.40177 0.95072
 C1035 C 0.20914 0.42747 0.90298
 C1036 C 0.21147 0.43120 0.87778
 H1037 H 0.26443 0.34392 0.95812
 H1038 H 0.24505 0.35294 0.91301
 H1039 H 0.21940 0.38083 0.89044
 H1040 H 0.23178 0.43527 0.94557
 H1041 H 0.25807 0.40781 0.96750
 H1042 H 0.19816 0.43950 0.91364
 H1043 H 0.29793 0.38736 0.95473
 H1044 H 0.22271 0.41949 0.86708
 C1045 C 0.31471 0.61713 0.03891
 C1046 C 0.29295 0.62189 0.04967
 C1047 C 0.28065 0.60547 0.06671
 C1048 C 0.26107 0.61424 0.07948
 C1049 C 0.24841 0.59940 0.09523
 C1050 C 0.25498 0.57527 0.09840
 C1051 C 0.27474 0.56655 0.08593
 C1052 C 0.28737 0.58138 0.07011
 C1053 C 0.24190 0.55878 0.11460
 C1054 C 0.21841 0.56199 0.12081
 H1055 H 0.28439 0.63881 0.04561
 H1056 H 0.25553 0.63273 0.07731
 H1057 H 0.23374 0.60705 0.10505
 H1058 H 0.28018 0.54804 0.08811
 H1059 H 0.30203 0.57364 0.06039
 H1060 H 0.25082 0.54278 0.12099
 H1061 H 0.32413 0.60086 0.04333
 H1062 H 0.20908 0.57785 0.11489
 C1063 C 0.72540 0.33366 0.06456
 C1064 C 0.72007 0.35708 0.07204
 C1065 C 0.73567 0.37162 0.08793
 C1066 C 0.72626 0.39116 0.10094
 C1067 C 0.74071 0.40636 0.11468
 C1068 C 0.76506 0.40261 0.11526
 C1069 C 0.77439 0.38276 0.10264
 C1070 C 0.75992 0.36746 0.08904
 C1071 C 0.78127 0.41894 0.12852
 C1072 C 0.77516 0.44209 0.13615
 H1073 H 0.70408 0.36543 0.06555
 H1074 H 0.70765 0.39474 0.10039
 H1075 H 0.73259 0.42092 0.12474
 H1076 H 0.79305 0.37938 0.10281
 H1077 H 0.76794 0.35296 0.07877
 H1078 H 0.79918 0.41309 0.13113
 H1079 H 0.74027 0.32452 0.07259
 H1080 H 0.75823 0.44933 0.13132
 C1081 C 0.94860 0.71762 0.66138
 C1082 C 0.93600 0.70880 0.64126
 C1083 C 0.91944 0.72351 0.62678
 C1084 C 0.90287 0.71187 0.61196
 C1085 C 0.88815 0.72504 0.59653
 C1086 C 0.88977 0.75014 0.59546
 C1087 C 0.90628 0.76187 0.61047
 C1088 C 0.92094 0.74869 0.62598
 C1089 C 0.87532 0.76306 0.57715
 C1090 C 0.87330 0.78800 0.57594
 H1091 H 0.93840 0.69025 0.63566
 H1092 H 0.90152 0.69248 0.61205
 H1093 H 0.87577 0.71553 0.58500
 H1094 H 0.90866 0.78108 0.60974
 H1095 H 0.93402 0.75828 0.63647
 H1096 H 0.86642 0.75246 0.56326
 H1097 H 0.94497 0.73544 0.66845
 H1098 H 0.87948 0.79918 0.59088
 C1099 C 0.95747 0.28513 0.34808
 C1100 C 0.94703 0.26297 0.34323
 C1101 C 0.92876 0.25296 0.35943
 C1102 C 0.92668 0.22799 0.36177
 C1103 C 0.91014 0.21814 0.37773
 C1104 C 0.89521 0.23319 0.39146
 C1105 C 0.89663 0.25810 0.38826
 C1106 C 0.91324 0.26792 0.37247
 C1107 C 0.87798 0.22377 0.40921
 C1108 C 0.88018 0.20162 0.42083
 H1109 H 0.95332 0.25204 0.32807
 H1110 H 0.93816 0.21610 0.35156
 H1111 H 0.90904 0.19882 0.37908
 H1112 H 0.88507 0.27005 0.39830
 H1113 H 0.91374 0.28722 0.37040
 H1114 H 0.86387 0.23554 0.41496
 H1115 H 0.95245 0.29504 0.36445
 H1116 H 0.89408 0.18929 0.41603
 C1117 C 0.04950 0.30037 0.62844
 C1118 C 0.06210 0.28072 0.63740
 C1119 C 0.08208 0.27028 0.62368
 C1120 C 0.08698 0.24568 0.62569
 C1121 C 0.10486 0.23516 0.61172
 C1122 C 0.11831 0.24920 0.59561
 C1123 C 0.11421 0.27402 0.59468
 C1124 C 0.09630 0.28447 0.60851
 C1125 C 0.13615 0.23880 0.57892
 C1126 C 0.13615 0.21492 0.57114
 H1127 H 0.05634 0.27183 0.65401
 H1128 H 0.07657 0.23446 0.63763
 H1129 H 0.10797 0.21610 0.61359
 H1130 H 0.12454 0.28531 0.58274
 H1131 H 0.09366 0.30367 0.60726
 H1132 H 0.14808 0.25101 0.56989
 H1133 H 0.05425 0.30795 0.61083
 H1134 H 0.12443 0.20193 0.57913
 C1135 C 0.04078 0.70961 0.37422
 C1136 C 0.05144 0.73184 0.37055
 C1137 C 0.06378 0.74494 0.39040
 C1138 C 0.06423 0.77009 0.38975
 C1139 C 0.07522 0.78318 0.40843
 C1140 C 0.08650 0.77130 0.42798
 C1141 C 0.08617 0.74611 0.42850
 C1142 C 0.07500 0.73302 0.40990
 C1143 C 0.09857 0.78437 0.44815
 C1144 C 0.10449 0.80864 0.44706
 H1145 H 0.04882 0.74104 0.35322
 H1146 H 0.05563 0.77967 0.37496
 H1147 H 0.07442 0.80252 0.40749
 H1148 H 0.09473 0.73648 0.44328
 H1149 H 0.07550 0.71363 0.41069
 H1150 H 0.10411 0.77422 0.46411
 H1151 H 0.04196 0.70112 0.39206
 H1152 H 0.10138 0.81867 0.43041
 C1153 C 0.64006 0.96143 0.70325
 C1154 C 0.61761 0.95200 0.70127
 C1155 C 0.60796 0.93457 0.71894
 C1156 C 0.58377 0.93436 0.72289
 C1157 C 0.57385 0.91804 0.73918
 C1158 C 0.58794 0.90132 0.75169
 C1159 C 0.61209 0.90109 0.74732
 C1160 C 0.62210 0.91773 0.73125
 C1161 C 0.57744 0.88313 0.76800
 C1162 C 0.55726 0.88795 0.78150
 H1163 H 0.60601 0.95894 0.68720
 H1164 H 0.57250 0.94692 0.71335
 H1165 H 0.55507 0.91814 0.74141
 H1166 H 0.62320 0.88806 0.75639
 H1167 H 0.64075 0.91700 0.72806
 H1168 H 0.58510 0.86533 0.76851
 H1169 H 0.65125 0.95627 0.71842
 H1170 H 0.55029 0.90605 0.78171
 C1171 C 0.34165 0.94921 0.28027
 C1172 C 0.36499 0.94378 0.28535
 C1173 C 0.37887 0.92599 0.27108
 C1174 C 0.39976 0.91716 0.28120
 C1175 C 0.41377 0.90099 0.26804
 C1176 C 0.40716 0.89330 0.24432
 C1177 C 0.38641 0.90233 0.23411
 C1178 C 0.37241 0.91849 0.24726
 C1179 C 0.42178 0.87689 0.22917
 C1180 C 0.44001 0.86288 0.23845
 H1181 H 0.37350 0.95290 0.30055
 H1182 H 0.40535 0.92292 0.29934
 H1183 H 0.42994 0.89514 0.27640
 H1184 H 0.38107 0.89701 0.21575
 H1185 H 0.35693 0.92541 0.23834
 H1186 H 0.41806 0.87578 0.20963
 H1187 H 0.33233 0.93947 0.26611
 H1188 H 0.44438 0.86344 0.25779
 C1189 C 0.63401 0.03895 0.29785
 C1190 C 0.61393 0.05120 0.30541
 C1191 C 0.60078 0.06813 0.28964
 C1192 C 0.58473 0.08388 0.30072
 C1193 C 0.57077 0.09897 0.28639
 C1194 C 0.57250 0.09863 0.26065
 C1195 C 0.58863 0.08289 0.24949
 C1196 C 0.60263 0.06782 0.26383
 C1197 C 0.55615 0.11365 0.24617
 C1198 C 0.55860 0.11816 0.22107
 H1199 H 0.60733 0.04809 0.32380
 H1200 H 0.58277 0.08430 0.32055
 H1201 H 0.55833 0.11073 0.29546
 H1202 H 0.59000 0.08142 0.22971
 H1203 H 0.61417 0.05538 0.25450
 H1204 H 0.54120 0.12133 0.25562
 H1205 H 0.64201 0.04287 0.28031
 H1206 H 0.57459 0.11337 0.21165
 C1207 C 0.38263 0.05214 0.69756
 C1208 C 0.38001 0.05985 0.72188
 C1209 C 0.39691 0.07636 0.73388
 C1210 C 0.38966 0.09058 0.75386
 C1211 C 0.40520 0.10652 0.76531
 C1212 C 0.42847 0.10831 0.75709
 C1213 C 0.43573 0.09383 0.73734
 C1214 C 0.42027 0.07793 0.72599
 C1215 C 0.44577 0.12493 0.76820
 C1216 C 0.44334 0.13609 0.79112
 H1217 H 0.36477 0.05425 0.73215
 H1218 H 0.37181 0.08962 0.76039
 H1219 H 0.39873 0.11753 0.78023
 H1220 H 0.45358 0.09465 0.73078
 H1221 H 0.42688 0.06667 0.71130
 H1222 H 0.46185 0.12787 0.75816
 H1223 H 0.39685 0.05900 0.68658
 H1224 H 0.42730 0.13448 0.80145
 C1225 C 0.63559 0.70823 0.04920
 C1226 C 0.61359 0.70381 0.05930
 C1227 C 0.60141 0.72021 0.07668
 C1228 C 0.57736 0.71705 0.08035
 C1229 C 0.56493 0.73208 0.09630
 C1230 C 0.57639 0.75051 0.10930
 C1231 C 0.60044 0.75375 0.10563
 C1232 C 0.61291 0.73868 0.08964
 C1233 C 0.56361 0.76707 0.12600
 C1234 C 0.54258 0.76094 0.13728
 H1235 H 0.60422 0.68799 0.05319
 H1236 H 0.56802 0.70308 0.07053
 H1237 H 0.54628 0.72946 0.09786
 H1238 H 0.60965 0.76787 0.11535
 H1239 H 0.63149 0.74150 0.08780
 H1240 H 0.57097 0.78465 0.12955
 H1241 H 0.64512 0.72430 0.05402
 H1242 H 0.53516 0.74334 0.13426
 C1243 C 0.37840 0.30180 0.04746
 C1244 C 0.37355 0.27981 0.05848
 C1245 C 0.39068 0.26710 0.07421
 C1246 C 0.38979 0.24201 0.07565
 C1247 C 0.40607 0.22936 0.08981
 C1248 C 0.42340 0.24168 0.10326
 C1249 C 0.42400 0.26684 0.10210
 C1250 C 0.40780 0.27945 0.08781
 C1251 C 0.44146 0.22915 0.11809
 C1252 C 0.44084 0.20475 0.12375
 H1253 H 0.35727 0.27085 0.05411
 H1254 H 0.37673 0.23210 0.06536
 H1255 H 0.40513 0.21001 0.08966
 H1256 H 0.43707 0.27681 0.11230
 H1257 H 0.40862 0.29884 0.08772
 H1258 H 0.45587 0.23969 0.12523
 H1259 H 0.39531 0.31007 0.05006
 H1260 H 0.42553 0.19424 0.11942
 C1261 C 0.66384 0.26924 0.95465
 C1262 C 0.64546 0.27952 0.94146
 C1263 C 0.63133 0.26620 0.92312
 C1264 C 0.61815 0.27915 0.90588
 C1265 C 0.60336 0.26730 0.88936
 C1266 C 0.60117 0.24216 0.89005
 C1267 C 0.61478 0.22918 0.90691
 C1268 C 0.62961 0.24101 0.92337
 C1269 C 0.58462 0.22882 0.87411
 C1270 C 0.56544 0.23940 0.86245
 H1271 H 0.64102 0.29817 0.94487
 H1272 H 0.61921 0.29856 0.90529
 H1273 H 0.59376 0.27798 0.87620
 H1274 H 0.61344 0.20980 0.90783
 H1275 H 0.63899 0.23037 0.93674
 H1276 H 0.58628 0.20945 0.87332
 H1277 H 0.66976 0.25124 0.95035
 H1278 H 0.56209 0.25837 0.86472
 C1279 C 0.37286 0.70592 0.94680
 C1280 C 0.39424 0.70148 0.93529
 C1281 C 0.40611 0.71929 0.91948
 C1282 C 0.42262 0.71127 0.90221
 C1283 C 0.43469 0.72761 0.88749
 C1284 C 0.43056 0.75243 0.88990
 C1285 C 0.41431 0.76046 0.90742
 C1286 C 0.40216 0.74412 0.92203
 C1287 C 0.44370 0.77047 0.87557
 C1288 C 0.45481 0.76554 0.85329
 H1289 H 0.40241 0.68405 0.93752
 H1290 H 0.42627 0.69227 0.90017
 H1291 H 0.44762 0.72071 0.87480
 H1292 H 0.41110 0.77949 0.90993
 H1293 H 0.39020 0.75111 0.93570
 H1294 H 0.44454 0.78863 0.88277
 H1295 H 0.36355 0.72250 0.94336
 H1296 H 0.45424 0.74776 0.84525
 C1297 C 0.68990 0.93613 0.37771
 C1298 C 0.71168 0.92609 0.37223
 C1299 C 0.72495 0.91071 0.38953
 C1300 C 0.74924 0.90869 0.38657
 C1301 C 0.76271 0.89573 0.40340
 C1302 C 0.75207 0.88426 0.42345
 C1303 C 0.72772 0.88573 0.42605
 C1304 C 0.71423 0.89864 0.40919
 C1305 C 0.76580 0.87193 0.44274
 C1306 C 0.78879 0.86410 0.43957
 H1307 H 0.72038 0.93154 0.35547
 H1308 H 0.75793 0.91778 0.37158
 H1309 H 0.78147 0.89549 0.40102
 H1310 H 0.71910 0.87698 0.44130
 H1311 H 0.69551 0.89909 0.41175
 H1312 H 0.75747 0.86881 0.46034
 H1313 H 0.68118 0.93195 0.39478
 H1314 H 0.79667 0.86415 0.42149
 C1315 C 0.30218 0.96002 0.62737
 C1316 C 0.28022 0.95233 0.63512
 C1317 C 0.26496 0.93738 0.61923
 C1318 C 0.24061 0.93924 0.62163
 C1319 C 0.22577 0.92654 0.60577
 C1320 C 0.23509 0.91143 0.58738
 C1321 C 0.25943 0.90906 0.58551
 C1322 C 0.27422 0.92172 0.60133
 C1323 C 0.22026 0.89875 0.56915
 C1324 C 0.19635 0.89482 0.57202
 H1325 H 0.27323 0.95919 0.65229
 H1326 H 0.23305 0.95113 0.63531
 H1327 H 0.20714 0.92923 0.60757
 H1328 H 0.26706 0.89743 0.57163
 H1329 H 0.29288 0.91914 0.59946
 H1330 H 0.22864 0.89170 0.55275
 H1331 H 0.30850 0.95490 0.60933
 H1332 H 0.18790 0.89908 0.58929
 C1333 C 0.27080 0.05324 0.34489
 C1334 C 0.27907 0.06676 0.36471
 C1335 C 0.26414 0.08380 0.37866
 C1336 C 0.27469 0.10245 0.39202
 C1337 C 0.26118 0.11815 0.40632
 C1338 C 0.23678 0.11533 0.40767
 C1339 C 0.22628 0.09656 0.39446
 C1340 C 0.23975 0.08099 0.38005
 C1341 C 0.22202 0.13033 0.42402
 C1342 C 0.22835 0.15308 0.43241
 H1343 H 0.29722 0.06494 0.37013
 H1344 H 0.29348 0.10475 0.39158
 H1345 H 0.27004 0.13188 0.41688
 H1346 H 0.20758 0.09375 0.39554
 H1347 H 0.23103 0.06634 0.37072
 H1348 H 0.20551 0.12297 0.43015
 H1349 H 0.25328 0.05620 0.33800
 H1350 H 0.24451 0.16125 0.42652
 C1351 C 0.68760 0.05863 0.61140
 C1352 C 0.70703 0.07280 0.61682
 C1353 C 0.71950 0.08700 0.59803
 C1354 C 0.73300 0.10676 0.60543
 C1355 C 0.74627 0.11950 0.58828
 C1356 C 0.74648 0.11243 0.56342
 C1357 C 0.73306 0.09262 0.55607
 C1358 C 0.71962 0.08008 0.57312
 C1359 C 0.76145 0.12416 0.54491
 C1360 C 0.76888 0.14800 0.54634
 H1361 H 0.71361 0.07329 0.63553
 H1362 H 0.73349 0.11218 0.62460
 H1363 H 0.75690 0.13428 0.59473
 H1364 H 0.73318 0.08665 0.53707
 H1365 H 0.71006 0.06449 0.56684
 H1366 H 0.76643 0.11357 0.52897
 H1367 H 0.67951 0.05956 0.59342
 H1368 H 0.76439 0.15888 0.56218
 C1369 C 0.95776 0.65004 0.27787
 C1370 C 0.94427 0.63014 0.28415
 C1371 C 0.92809 0.61746 0.26723
 C1372 C 0.91941 0.59511 0.27459
 C1373 C 0.90419 0.58220 0.25950
 C1374 C 0.89699 0.59152 0.23669
 C1375 C 0.90570 0.61384 0.22921
 C1376 C 0.92099 0.62681 0.24436
 C1377 C 0.88150 0.57779 0.21993
 C1378 C 0.86655 0.55987 0.22824
 H1379 H 0.94618 0.62287 0.30251
 H1380 H 0.92467 0.58738 0.29201
 H1381 H 0.89867 0.56467 0.26561
 H1382 H 0.90056 0.62132 0.21164
 H1383 H 0.92694 0.64411 0.23808
 H1384 H 0.88232 0.58142 0.20037
 H1385 H 0.95693 0.65762 0.25962
 H1386 H 0.86493 0.55636 0.24771
 C1387 C 0.94524 0.36376 0.69467
 C1388 C 0.94004 0.36150 0.71965
 C1389 C 0.92353 0.37775 0.73276
 C1390 C 0.91505 0.37114 0.75600
 C1391 C 0.90032 0.38656 0.76934
 C1392 C 0.89392 0.40906 0.75969
 C1393 C 0.90223 0.41551 0.73640
 C1394 C 0.91698 0.40023 0.72316
 C1395 C 0.87922 0.42668 0.77318
 C1396 C 0.87471 0.42605 0.79842
 H1397 H 0.94880 0.34764 0.73016
 H1398 H 0.91989 0.35401 0.76390
 H1399 H 0.89407 0.38068 0.78706
 H1400 H 0.89774 0.43279 0.72858
 H1401 H 0.92363 0.40658 0.70579
 H1402 H 0.87294 0.44212 0.76301
 H1403 H 0.93592 0.37663 0.68351
 H1404 H 0.87956 0.41064 0.80932
 C1405 C 0.04783 0.64443 0.72498
 C1406 C 0.05439 0.62158 0.71691
 C1407 C 0.07009 0.60556 0.73098
 C1408 C 0.08141 0.58668 0.71864
 C1409 C 0.09537 0.57042 0.73156
 C1410 C 0.09821 0.57258 0.75713
 C1411 C 0.08669 0.59140 0.76956
 C1412 C 0.07282 0.60774 0.75662
 C1413 C 0.11236 0.55429 0.77015
 C1414 C 0.11993 0.55659 0.79448
 H1415 H 0.04763 0.61501 0.69950
 H1416 H 0.07934 0.58444 0.69895
 H1417 H 0.10383 0.55596 0.72155
 H1418 H 0.08767 0.59331 0.78933
 H1419 H 0.06366 0.62148 0.76692
 H1420 H 0.11736 0.53828 0.76003
 H1421 H 0.05566 0.65214 0.74132
 H1422 H 0.11757 0.57334 0.80429
 C1423 C 0.05239 0.34527 0.26617
 C1424 C 0.06371 0.36608 0.27420
 C1425 C 0.08006 0.38039 0.25914
 C1426 C 0.09396 0.39761 0.27106
 C1427 C 0.10862 0.41264 0.25764
 C1428 C 0.10947 0.41100 0.23183
 C1429 C 0.09605 0.39339 0.21991
 C1430 C 0.08137 0.37829 0.23336
 C1431 C 0.12410 0.42729 0.21691
 C1432 C 0.13125 0.44988 0.22518
 H1433 H 0.06041 0.37235 0.29279
 H1434 H 0.09339 0.39952 0.29090
 H1435 H 0.11928 0.42538 0.26762
 H1436 H 0.09651 0.39168 0.20005
 H1437 H 0.07069 0.36557 0.22339
 H1438 H 0.12820 0.42202 0.19819
 H1439 H 0.05620 0.33754 0.24834
 H1440 H 0.12502 0.45663 0.24268
   
