data_POSCAR
  _audit_creation_date              2014-09-24
  _audit_creation_method            'ToBaCCo'
  _symmetry_space_group_name_H-M    'P1'
  _symmetry_Int_Tables_number       1
  _symmetry_cell_setting            triclinic
  loop_
  _symmetry_equiv_pos_as_xyz
 x,y,z
_cell_length_a 61.0979
_cell_length_b 60.9729
_cell_length_c 61.0000
_cell_angle_alpha 89.993900
_cell_angle_beta 89.997000
_cell_angle_gamma 89.983200
loop_
  _atom_site_label
  _atom_site_type_symbol
  _atom_site_fract_x
  _atom_site_fract_y
  _atom_site_fract_z
N1 N 0.32797 0.42183 0.92215
 N2 N 0.42230 0.82770 0.42280
 N3 N 0.92043 0.92076 0.82931
 N4 N 0.42234 -0.07746 0.32730
 N5 N 0.82788 0.32719 0.32707
 N6 N -0.17268 0.82737 0.82747
 N7 N 0.92274 0.32772 0.42199
 N8 N 0.42076 0.42129 0.82902
 N9 N 0.82783 0.92235 0.92272
 N10 N 0.32597 0.82575 0.32584
 N11 N 0.82968 0.42074 0.42036
 N12 N 0.92202 0.82766 -0.07724
 N13 N 0.32743 0.32769 0.82773
 N14 N 0.17436 0.57570 0.57554
 N15 N 0.57592 0.67387 0.07607
 N16 N 0.67606 0.17643 0.67597
 N17 N 1.07811 0.07742 0.17208
 N18 N 0.07738 0.17265 1.07707
 N19 N 0.17412 0.67467 0.67455
 N20 N 1.17061 0.17077 0.17043
 N21 N 0.67590 1.07429 0.57403
 N22 N 0.57421 0.57382 0.17602
 N23 N 0.67416 0.67429 0.17442
 N24 N 0.17218 0.07720 1.07747
 N25 N 0.57426 0.17644 0.57391
 N26 N 0.07410 0.57416 0.67589
 N27 N 0.67439 0.57535 0.07538
 N28 N 0.07586 0.67423 0.57604
 N29 N 0.57444 1.07440 0.67588
 N30 N 0.42239 0.32714 0.92284
 N31 N 0.92286 0.42242 0.32740
 N32 N 0.32581 0.92466 0.42438
 O33 O 0.19186 0.52876 0.74876
 O34 O 0.19893 0.52570 0.78641
 O35 O 0.24879 0.55862 0.72205
 O36 O 0.28512 0.55241 0.72194
 O37 O 0.22176 0.50158 0.69179
 O38 O 0.22371 0.46314 0.69968
 O39 O 0.30700 0.49874 0.77926
 O40 O 0.30115 0.53648 0.77447
 O41 O 0.25222 0.47158 0.80716
 O42 O 0.21241 0.47354 0.79991
 O43 O 0.27866 0.44316 0.75200
 O44 O 0.27711 0.45050 0.71246
 O45 O 0.30703 0.47230 0.75294
 O46 O 0.29947 0.47515 0.71193
 O47 O 0.25234 0.44297 0.77829
 O48 O 0.21174 0.45090 0.77550
 O49 O 0.27883 0.49760 0.80701
 O50 O 0.27126 0.53753 0.80035
 O51 O 0.19167 0.50197 0.72272
 O52 O 0.19979 0.46289 0.72466
 O53 O 0.24812 0.52789 0.69162
 O54 O 0.28782 0.52421 0.70035
 O55 O 0.22209 0.55854 0.74803
 O56 O 0.22735 0.55016 0.78770
 Zr57 Zr 0.22359 0.52697 0.76204
 O58 O 0.24265 0.50734 0.78309
 Zr59 Zr 0.26191 0.52674 0.72326
 O60 O 0.28293 0.50773 0.74297
 Zr61 Zr 0.22337 0.48823 0.72358
 O62 O 0.24289 0.46715 0.74273
 Zr63 Zr 0.27584 0.51285 0.77624
 O64 O 0.25688 0.53427 0.75661
 Zr65 Zr 0.23756 0.47405 0.77604
 O66 O 0.21629 0.49357 0.75688
 Zr67 Zr 0.27616 0.47439 0.73761
 O68 O 0.25662 0.49338 0.71608
 O69 O 0.22892 0.52132 0.72890
 O70 O 0.27066 0.47959 0.77078
 C71 C 0.18250 0.51774 0.73338
 C72 C 0.23303 0.56784 0.73259
 C73 C 0.23251 0.51711 0.68243
 C74 C 0.31594 0.48260 0.76906
 C75 C 0.26847 0.48163 0.81602
 C76 C 0.26841 0.43408 0.76800
 H77 H 0.23926 0.51089 0.79854
 H78 H 0.23947 0.45173 0.73913
 H79 H 0.21956 0.53066 0.71954
 H80 H 0.29837 0.51138 0.73977
 H81 H 0.29418 0.55042 0.76992
 H82 H 0.29669 0.54881 0.73267
 H83 H 0.21461 0.44048 0.76341
 H84 H 0.19235 0.46413 0.73902
 H85 H 0.28378 0.53675 0.81067
 H86 H 0.21570 0.56142 0.78630
 H87 H 0.26352 0.44176 0.71347
 H88 H 0.23838 0.46357 0.69280
 H89 H 0.19277 0.51069 0.78604
 H90 H 0.21407 0.48676 0.80915
 H91 H 0.28518 0.51075 0.69168
 H92 H 0.31010 0.48693 0.71520
 O93 O 0.30839 -0.00130 0.27841
 O94 O 0.30137 0.03645 0.27505
 O95 O 0.25158 -0.02790 0.30817
 O96 O 0.21524 -0.02813 0.30196
 O97 O 0.27864 -0.05825 0.25111
 O98 O 0.27675 -0.05034 0.21270
 O99 O 0.19321 0.02901 0.24836
 O100 O 0.19920 0.02444 0.28606
 O101 O 0.24794 0.05705 0.22097
 O102 O 0.28778 0.04994 0.22300
 O103 O 0.22164 0.00188 0.19274
 O104 O 0.22330 -0.03771 0.20009
 O105 O 0.19324 0.00267 0.22194
 O106 O 0.20095 -0.03828 0.22470
 O107 O 0.24798 0.02815 0.19247
 O108 O 0.28858 0.02543 0.20044
 O109 O 0.22128 0.05687 0.24693
 O110 O 0.22897 0.05041 0.28689
 O111 O 0.30863 -0.02740 0.25168
 O112 O 0.30066 -0.02528 0.21253
 O113 O 0.25232 -0.05842 0.27746
 O114 O 0.21259 -0.04975 0.27384
 O115 O 0.27819 -0.00182 0.30805
 O116 O 0.27293 0.03783 0.29956
 Zr117 Zr 0.27671 0.01209 0.27645
 O118 O 0.25760 0.03308 0.25681
 Zr119 Zr 0.23845 -0.02679 0.27629
 O120 O 0.21741 -0.00713 0.25727
 Zr121 Zr 0.27700 -0.02645 0.23780
 O122 O 0.25744 -0.00736 0.21670
 Zr123 Zr 0.22443 0.02618 0.26234
 O124 O 0.24343 0.00660 0.28377
 Zr125 Zr 0.26272 0.02598 0.22354
 O126 O 0.28403 0.00688 0.24308
 Zr127 Zr 0.22419 -0.01253 0.22395
 O128 O 0.24377 -0.03400 0.24296
 O129 O 0.27141 -0.02108 0.27086
 O130 O 0.22962 0.02066 0.22910
 C131 C 0.31773 -0.01680 0.26753
 C132 C 0.26729 -0.01727 0.31738
 C133 C 0.26793 -0.06760 0.26667
 C134 C 0.18426 0.01874 0.23229
 C135 C 0.23161 0.06586 0.23093
 C136 C 0.23189 0.01786 0.18362
 H137 H 0.26095 0.04856 0.26032
 H138 H 0.26088 -0.01098 0.20129
 H139 H 0.28074 -0.03044 0.28024
 H140 H 0.20198 -0.01036 0.26095
 H141 H 0.20622 0.01994 0.29998
 H142 H 0.20370 -0.01734 0.29840
 H143 H 0.28576 0.01328 0.19007
 H144 H 0.30816 -0.01096 0.21389
 H145 H 0.21645 0.06073 0.28607
 H146 H 0.28462 0.03649 0.31078
 H147 H 0.23684 -0.03661 0.19127
 H148 H 0.26208 -0.05721 0.21308
 H149 H 0.30760 0.03593 0.26008
 H150 H 0.28613 0.05915 0.23624
 H151 H 0.21525 -0.05844 0.26039
 H152 H 0.19040 -0.03511 0.23658
 O153 O 0.55822 0.72125 0.24894
 O154 O 0.55120 0.72448 0.28663
 O155 O 0.50127 0.69141 0.22241
 O156 O 0.46498 0.69771 0.22204
 O157 O 0.52843 0.74850 0.19202
 O158 O 0.52647 0.78692 0.19988
 O159 O 0.44298 0.75119 0.27920
 O160 O 0.44902 0.71354 0.27473
 O161 O 0.49790 0.77853 0.30734
 O162 O 0.53765 0.77662 0.30011
 O163 O 0.47141 0.80690 0.25220
 O164 O 0.47304 0.79965 0.21266
 O165 O 0.44297 0.77758 0.25283
 O166 O 0.45079 0.77500 0.21196
 O167 O 0.49777 0.80714 0.27843
 O168 O 0.53838 0.79918 0.27564
 O169 O 0.47119 0.75263 0.30715
 O170 O 0.47882 0.71268 0.30063
 O171 O 0.55844 0.74804 0.22291
 O172 O 0.55037 0.78716 0.22491
 O173 O 0.50212 0.72214 0.19185
 O174 O 0.46237 0.72585 0.20051
 O175 O 0.52796 0.69151 0.24840
 O176 O 0.52277 0.70001 0.28802
 Zr177 Zr 0.52652 0.72314 0.26229
 O178 O 0.50743 0.74278 0.28329
 Zr179 Zr 0.48824 0.72334 0.22346
 O180 O 0.46722 0.74236 0.24313
 Zr181 Zr 0.52677 0.76184 0.22379
 O182 O 0.50723 0.78294 0.24290
 Zr183 Zr 0.47425 0.73727 0.27643
 O184 O 0.49323 0.71584 0.25683
 Zr185 Zr 0.51253 0.77606 0.27621
 O186 O 0.53382 0.75653 0.25710
 Zr187 Zr 0.47397 0.77569 0.23775
 O188 O 0.49353 0.75668 0.21626
 O189 O 0.52121 0.72874 0.22914
 O190 O 0.47941 0.77053 0.27094
 C191 C 0.56757 0.73222 0.23353
 C192 C 0.51697 0.68217 0.23302
 C193 C 0.51773 0.73293 0.18267
 C194 C 0.43397 0.76719 0.26885
 C195 C 0.48162 0.76854 0.31619
 C196 C 0.48169 0.81601 0.26816
 H197 H 0.51081 0.73925 0.29875
 H198 H 0.51066 0.79836 0.23929
 H199 H 0.53056 0.71935 0.21980
 H200 H 0.45180 0.73867 0.23989
 H201 H 0.45603 0.69962 0.27018
 H202 H 0.45353 0.70120 0.23293
 H203 H 0.53550 0.80961 0.26356
 H204 H 0.55785 0.78586 0.23925
 H205 H 0.46631 0.71350 0.31096
 H206 H 0.53444 0.68877 0.28666
 H207 H 0.48664 0.80838 0.21368
 H208 H 0.51179 0.78652 0.19302
 H209 H 0.55743 0.73946 0.28614
 H210 H 0.53611 0.76331 0.30924
 H211 H 0.46509 0.73925 0.19176
 H212 H 0.44031 0.76302 0.21502
 O213 O 0.05795 0.72158 0.74875
 O214 O 0.05092 0.72476 0.78644
 O215 O 0.00103 0.69176 0.72215
 O216 O -0.03526 0.69805 0.72179
 O217 O 0.02818 0.74891 0.69186
 O218 O 0.02620 0.78732 0.69977
 O219 O -0.05725 0.75158 0.77911
 O220 O -0.05131 0.71388 0.77446
 O221 O -0.00235 0.77873 0.80722
 O222 O 0.03739 0.77690 0.79995
 O223 O -0.02896 0.80717 0.75214
 O224 O -0.02718 0.79998 0.71250
 O225 O -0.05728 0.77796 0.75272
 O226 O -0.04950 0.77533 0.71182
 O227 O -0.00266 0.80736 0.77844
 O228 O 0.03803 0.79954 0.77550
 O229 O -0.02906 0.75282 0.80699
 O230 O -0.02149 0.71288 0.80036
 O231 O 0.05818 0.74841 0.72275
 O232 O 0.05010 0.78753 0.72482
 O233 O 0.00187 0.72254 0.69165
 O234 O -0.03788 0.72623 0.70029
 O235 O 0.02770 0.69184 0.74816
 O236 O 0.02250 0.70029 0.78780
 Zr237 Zr 0.02625 0.72345 0.76209
 O238 O 0.00715 0.74306 0.78311
 Zr239 Zr -0.01202 0.72369 0.72325
 O240 O -0.03306 0.74267 0.74294
 Zr241 Zr 0.02650 0.76220 0.72365
 O242 O 0.00694 0.78328 0.74277
 Zr243 Zr -0.02603 0.73754 0.77623
 O244 O -0.00704 0.71614 0.75661
 Zr245 Zr 0.01224 0.77635 0.77608
 O246 O 0.03355 0.75685 0.75695
 Zr247 Zr -0.02630 0.77602 0.73760
 O248 O -0.00673 0.75704 0.71609
 O249 O 0.02095 0.72910 0.72895
 O250 O -0.02086 0.77080 0.77078
 C251 C 0.06731 0.73258 0.73335
 C252 C 0.01673 0.68251 0.73276
 C253 C 0.01749 0.73334 0.68249
 C254 C -0.06623 0.76763 0.76880
 C255 C -0.01863 0.76872 0.81605
 C256 C -0.01879 0.81621 0.76821
 H257 H 0.01052 0.73950 0.79857
 H258 H 0.01036 0.79871 0.73920
 H259 H 0.03030 0.71972 0.71960
 H260 H -0.04849 0.73900 0.73970
 H261 H -0.04432 0.69995 0.76990
 H262 H -0.04675 0.70154 0.73265
 H263 H 0.03503 0.81007 0.76354
 H264 H 0.05753 0.78624 0.73918
 H265 H -0.03400 0.71368 0.81068
 H266 H 0.03417 0.68905 0.78642
 H267 H -0.01368 0.80885 0.71369
 H268 H 0.01151 0.78696 0.69295
 H269 H 0.05717 0.73973 0.78595
 H270 H 0.03587 0.76357 0.80905
 H271 H -0.03517 0.73965 0.69158
 H272 H -0.06002 0.76340 0.71492
 O273 O 0.05816 0.02853 0.00134
 O274 O 0.05107 0.02528 -0.03640
 O275 O 0.00141 0.05830 0.02810
 O276 O -0.03497 0.05213 0.02825
 O277 O 0.02851 0.00128 0.05825
 O278 O 0.02649 -0.03719 0.05039
 O279 O -0.05705 -0.00143 -0.02885
 O280 O -0.05107 0.03628 -0.02424
 O281 O -0.00234 -0.02880 -0.05695
 O282 O 0.03751 -0.02678 -0.04989
 O283 O -0.02859 -0.05712 -0.00181
 O284 O -0.02694 -0.04984 0.03774
 O285 O -0.05700 -0.02789 -0.00256
 O286 O -0.04925 -0.02516 0.03840
 O287 O -0.00228 -0.05735 -0.02810
 O288 O 0.03832 -0.04938 -0.02542
 O289 O -0.02900 -0.00282 -0.05673
 O290 O -0.02131 0.03715 -0.05023
 O291 O 0.05842 0.00175 0.02739
 O292 O 0.05039 -0.03741 0.02530
 O293 O 0.00218 0.02764 0.05849
 O294 O -0.03759 0.02394 0.04992
 O295 O 0.02802 0.05820 0.00202
 O296 O 0.02264 0.04984 -0.03764
 Zr297 Zr 0.02646 0.02664 -0.01199
 O298 O 0.00733 0.00702 -0.03297
 Zr299 Zr -0.01177 0.02644 0.02691
 O300 O -0.03283 0.00744 0.00727
 Zr301 Zr 0.02677 -0.01209 0.02649
 O302 O 0.00720 -0.03317 0.00741
 Zr303 Zr -0.02583 0.01255 -0.02603
 O304 O -0.00682 0.03397 -0.00646
 Zr305 Zr 0.01246 -0.02626 -0.02591
 O306 O 0.03379 -0.00676 -0.00682
 Zr307 Zr -0.02605 -0.02590 0.01262
 O308 O -0.00646 -0.00692 0.03409
 O309 O 0.02118 0.02098 0.02115
 O310 O -0.02064 -0.02070 -0.02056
 C311 C 0.06751 0.01761 0.01680
 C312 C 0.01717 0.06749 0.01754
 C313 C 0.01786 0.01689 0.06761
 C314 C -0.06599 -0.01753 -0.01860
 C315 C -0.01867 -0.01882 -0.06574
 C316 C -0.01835 -0.06622 -0.01780
 H317 H 0.01067 0.01056 -0.04844
 H318 H 0.01064 -0.04859 0.01101
 H319 H 0.03055 0.03034 0.03049
 H320 H -0.04825 0.01111 0.01052
 H321 H -0.04404 0.05020 -0.01970
 H322 H -0.04659 0.04850 0.01758
 H323 H 0.03551 -0.05978 -0.01330
 H324 H 0.05788 -0.03605 0.01098
 H325 H -0.03385 0.03634 -0.06053
 H326 H 0.03433 0.06105 -0.03629
 H327 H -0.01333 -0.05856 0.03671
 H328 H 0.01185 -0.03672 0.05734
 H329 H 0.05731 0.01031 -0.03591
 H330 H 0.03584 -0.01353 -0.05909
 H331 H -0.03488 0.01050 0.05862
 H332 H -0.05983 -0.01330 0.03523
 O333 O 0.00155 0.55834 0.52847
 O334 O -0.03608 0.55138 0.52524
 O335 O 0.02800 0.50118 0.55819
 O336 O 0.02832 0.46483 0.55182
 O337 O 0.05835 0.52847 0.50115
 O338 O 0.05047 0.52662 0.46275
 O339 O -0.02886 0.44302 0.49828
 O340 O -0.02427 0.44894 0.53598
 O341 O -0.05677 0.49799 0.47101
 O342 O -0.04960 0.53791 0.47315
 O343 O -0.00179 0.47158 0.44268
 O344 O 0.03772 0.47313 0.44998
 O345 O -0.00260 0.44305 0.47183
 O346 O 0.03829 0.45070 0.47457
 O347 O -0.02796 0.49804 0.44250
 O348 O -0.02518 0.53868 0.45055
 O349 O -0.05662 0.47122 0.49692
 O350 O -0.05014 0.47883 0.53689
 O351 O 0.02756 0.55859 0.50171
 O352 O 0.02551 0.55061 0.46258
 O353 O 0.05850 0.50205 0.52746
 O354 O 0.04981 0.46224 0.52368
 O355 O 0.00206 0.52794 0.55814
 O356 O -0.03751 0.52283 0.54963
 Zr357 Zr -0.01182 0.52660 0.52653
 O358 O -0.03281 0.50754 0.50686
 Zr359 Zr 0.02692 0.48819 0.52625
 O360 O 0.00726 0.46718 0.50720
 Zr361 Zr 0.02662 0.52689 0.48784
 O362 O 0.00752 0.50738 0.46671
 Zr363 Zr -0.02597 0.47428 0.51231
 O364 O -0.00638 0.49322 0.53376
 Zr365 Zr -0.02574 0.51273 0.47360
 O366 O -0.00663 0.53399 0.49316
 Zr367 Zr 0.01262 0.47403 0.47389
 O368 O 0.03411 0.49356 0.49292
 O369 O 0.02128 0.52125 0.52091
 O370 O -0.02049 0.47953 0.47908
 C371 C 0.01696 0.56772 0.51753
 C372 C 0.01741 0.51690 0.56745
 C373 C 0.06768 0.51769 0.51669
 C374 C -0.01863 0.43407 0.48217
 C375 C -0.06558 0.48162 0.48095
 C376 C -0.01773 0.48192 0.43360
 H377 H -0.04825 0.51092 0.51039
 H378 H 0.01112 0.51085 0.45131
 H379 H 0.03062 0.53057 0.53031
 H380 H 0.01046 0.45171 0.51084
 H381 H -0.01975 0.45594 0.54991
 H382 H 0.01745 0.45336 0.54830
 H383 H -0.01307 0.53585 0.44016
 H384 H 0.01121 0.55813 0.46392
 H385 H -0.06045 0.46631 0.53605
 H386 H -0.03614 0.53449 0.56090
 H387 H 0.03667 0.48675 0.44124
 H388 H 0.05731 0.51191 0.46311
 H389 H -0.03565 0.55758 0.51025
 H390 H -0.05884 0.53619 0.48635
 H391 H 0.05850 0.46496 0.51026
 H392 H 0.03512 0.44010 0.48642
 O393 O 0.55827 0.02879 0.50112
 O394 O 0.55118 0.02565 0.46348
 O395 O 0.50136 0.05870 0.52781
 O396 O 0.46507 0.05246 0.52811
 O397 O 0.52843 0.00154 0.55815
 O398 O 0.52655 -0.03684 0.55024
 O399 O 0.44299 -0.00104 0.47098
 O400 O 0.44903 0.03661 0.47547
 O401 O 0.49790 -0.02839 0.44282
 O402 O 0.53766 -0.02650 0.45003
 O403 O 0.47143 -0.05676 0.49796
 O404 O 0.47312 -0.04948 0.53754
 O405 O 0.44299 -0.02744 0.49735
 O406 O 0.45080 -0.02488 0.53819
 O407 O 0.49778 -0.05701 0.47171
 O408 O 0.53838 -0.04908 0.47447
 O409 O 0.47119 -0.00247 0.44302
 O410 O 0.47881 0.03747 0.44955
 O411 O 0.55850 0.00201 0.52718
 O412 O 0.55041 -0.03708 0.52522
 O413 O 0.50211 0.02791 0.55834
 O414 O 0.46241 0.02434 0.54966
 O415 O 0.52802 0.05859 0.50178
 O416 O 0.52275 0.05013 0.46216
 Zr417 Zr 0.52654 0.02698 0.48786
 O418 O 0.50744 0.00735 0.46687
 Zr419 Zr 0.48829 0.02679 0.52671
 O420 O 0.46725 0.00779 0.50705
 Zr421 Zr 0.52681 -0.01174 0.52635
 O422 O 0.50726 -0.03282 0.50725
 Zr423 Zr 0.47426 0.01287 0.47375
 O424 O 0.49326 0.03429 0.49334
 Zr425 Zr 0.51254 -0.02594 0.47393
 O426 O 0.53384 -0.00642 0.49304
 Zr427 Zr 0.47400 -0.02556 0.51241
 O428 O 0.49358 -0.00656 0.53389
 O429 O 0.52127 0.02137 0.52103
 O430 O 0.47942 -0.02039 0.47922
 C431 C 0.56766 0.01778 0.51649
 C432 C 0.51705 0.06793 0.51718
 C433 C 0.51767 0.01706 0.56754
 C434 C 0.43398 -0.01704 0.48134
 C435 C 0.48161 -0.01839 0.43398
 C436 C 0.48170 -0.06587 0.48199
 H437 H 0.51081 0.01088 0.45141
 H438 H 0.51069 -0.04824 0.51085
 H439 H 0.53063 0.03072 0.53038
 H440 H 0.45183 0.01149 0.51030
 H441 H 0.45604 0.05053 0.48001
 H442 H 0.45358 0.04897 0.51725
 H443 H 0.53552 -0.05951 0.48657
 H444 H 0.55785 -0.03581 0.51086
 H445 H 0.46630 0.03666 0.43923
 H446 H 0.53442 0.06137 0.46351
 H447 H 0.48664 -0.05832 0.53642
 H448 H 0.51185 -0.03650 0.55706
 H449 H 0.55737 0.01065 0.46391
 H450 H 0.53607 -0.01323 0.44085
 H451 H 0.46506 0.01088 0.55834
 H452 H 0.44035 -0.01287 0.53516
 O453 O 0.50157 0.55801 0.02860
 O454 O 0.46392 0.55108 0.02544
 O455 O 0.52802 0.50086 0.05832
 O456 O 0.52830 0.46450 0.05198
 O457 O 0.55828 0.52806 0.00119
 O458 O 0.55033 0.52618 -0.03719
 O459 O 0.47098 0.44270 -0.00147
 O460 O 0.47565 0.44860 0.03622
 O461 O 0.44302 0.49779 -0.02858
 O462 O 0.45034 0.53762 -0.02665
 O463 O 0.49789 0.47107 -0.05705
 O464 O 0.53748 0.47273 -0.04990
 O465 O 0.49727 0.44265 -0.02789
 O466 O 0.53813 0.45032 -0.02530
 O467 O 0.47173 0.49754 -0.05720
 O468 O 0.47472 0.53826 -0.04930
 O469 O 0.44321 0.47099 -0.00270
 O470 O 0.44986 0.47854 0.03723
 O471 O 0.52752 0.55821 0.00177
 O472 O 0.52538 0.55019 -0.03734
 O473 O 0.55846 0.50168 0.02753
 O474 O 0.54973 0.46187 0.02380
 O475 O 0.50210 0.52764 0.05829
 O476 O 0.46251 0.52256 0.04987
 Zr477 Zr 0.48817 0.52628 0.02671
 O478 O 0.46712 0.50723 0.00711
 Zr479 Zr 0.52687 0.48783 0.02639
 O480 O 0.50714 0.46683 0.00740
 Zr481 Zr 0.52652 0.52650 -0.01206
 O482 O 0.50736 0.50698 -0.03313
 Zr483 Zr 0.47393 0.47396 0.01257
 O484 O 0.49358 0.49290 0.03397
 Zr485 Zr 0.47413 0.51237 -0.02617
 O486 O 0.49329 0.53364 -0.00667
 Zr487 Zr 0.51245 0.47364 -0.02593
 O488 O 0.53399 0.49317 -0.00695
 O489 O 0.52125 0.52090 0.02103
 O490 O 0.47935 0.47918 -0.02067
 C491 C 0.51696 0.56736 0.01762
 C492 C 0.51746 0.51659 0.06759
 C493 C 0.56763 0.51730 0.01673
 C494 C 0.48122 0.43370 -0.01754
 C495 C 0.43419 0.48147 -0.01860
 C496 C 0.48189 0.48136 -0.06608
 H497 H 0.45170 0.51064 0.01067
 H498 H 0.51093 0.51043 -0.04855
 H499 H 0.53061 0.53022 0.03040
 H500 H 0.51034 0.45136 0.01106
 H501 H 0.48023 0.45558 0.05014
 H502 H 0.51741 0.45303 0.04850
 H503 H 0.48669 0.53529 -0.05981
 H504 H 0.51107 0.55769 -0.03601
 H505 H 0.43952 0.46604 0.03643
 H506 H 0.46392 0.53423 0.06112
 H507 H 0.53632 0.48627 -0.05875
 H508 H 0.55710 0.51143 -0.03687
 H509 H 0.46439 0.55734 0.01047
 H510 H 0.44122 0.53605 -0.01335
 H511 H 0.55842 0.46458 0.01037
 H512 H 0.53502 0.43977 -0.01337
 O513 O 0.74884 0.19207 0.52846
 O514 O 0.78643 0.19903 0.52536
 O515 O 0.72233 0.24927 0.55819
 O516 O 0.72219 0.28562 0.55186
 O517 O 0.69202 0.22211 0.50114
 O518 O 0.69995 0.22388 0.46275
 O519 O 0.77952 0.30728 0.49816
 O520 O 0.77472 0.30155 0.53590
 O521 O 0.80728 0.25228 0.47116
 O522 O 0.79997 0.21241 0.47319
 O523 O 0.75225 0.27881 0.44268
 O524 O 0.71274 0.27734 0.45005
 O525 O 0.75324 0.30731 0.47174
 O526 O 0.71231 0.29985 0.47459
 O527 O 0.77846 0.25240 0.44255
 O528 O 0.77559 0.21173 0.45057
 O529 O 0.80719 0.27899 0.49713
 O530 O 0.80049 0.27154 0.53704
 O531 O 0.72285 0.19186 0.50168
 O532 O 0.72483 0.19987 0.46261
 O533 O 0.69188 0.24857 0.52740
 O534 O 0.70071 0.28831 0.52368
 O535 O 0.74823 0.22247 0.55817
 O536 O 0.78783 0.22758 0.54973
 Zr537 Zr 0.76217 0.22382 0.52658
 O538 O 0.78322 0.24283 0.50692
 Zr539 Zr 0.72352 0.26230 0.52626
 O540 O 0.74324 0.28327 0.50721
 Zr541 Zr 0.72378 0.22358 0.48786
 O542 O 0.74293 0.24305 0.46674
 Zr543 Zr 0.77645 0.27611 0.51235
 O544 O 0.75681 0.25721 0.53380
 Zr545 Zr 0.77618 0.23766 0.47365
 O546 O 0.75701 0.21644 0.49321
 Zr547 Zr 0.73788 0.27641 0.47390
 O548 O 0.71636 0.25693 0.49293
 O549 O 0.72908 0.22921 0.52093
 O550 O 0.77099 0.27085 0.47912
 C551 C 0.73348 0.18269 0.51747
 C552 C 0.73288 0.23352 0.56746
 C553 C 0.68267 0.23297 0.51661
 C554 C 0.76936 0.31622 0.48200
 C555 C 0.81617 0.26855 0.48119
 C556 C 0.76820 0.26849 0.43363
 H557 H 0.79864 0.23941 0.51048
 H558 H 0.73933 0.23959 0.45134
 H559 H 0.71971 0.21988 0.53030
 H560 H 0.74008 0.29875 0.51083
 H561 H 0.77017 0.29461 0.54985
 H562 H 0.73300 0.29714 0.54829
 H563 H 0.76353 0.21461 0.44015
 H564 H 0.73916 0.19240 0.46387
 H565 H 0.81082 0.28405 0.53625
 H566 H 0.78642 0.21594 0.56101
 H567 H 0.71380 0.26375 0.44127
 H568 H 0.69314 0.23861 0.46310
 H569 H 0.78605 0.19284 0.51036
 H570 H 0.80918 0.21407 0.48642
 H571 H 0.69207 0.28567 0.51021
 H572 H 0.71558 0.31050 0.48636
 O573 O 0.75140 0.77888 -0.05811
 O574 O 0.71369 0.77570 -0.05113
 O575 O 0.77800 0.80847 -0.00113
 O576 O 0.77793 0.80223 0.03531
 O577 O 0.80810 0.75150 -0.02827
 O578 O 0.80020 0.71303 -0.02636
 O579 O 0.72086 0.74872 0.05715
 O580 O 0.72547 0.78635 0.05126
 O581 O 0.69284 0.72163 0.00200
 O582 O 0.70015 0.72352 -0.03774
 O583 O 0.74793 0.69297 0.02852
 O584 O 0.78731 0.70022 0.02714
 O585 O 0.74713 0.72227 0.05716
 O586 O 0.78799 0.72485 0.04943
 O587 O 0.72175 0.69286 0.00210
 O588 O 0.72453 0.70097 -0.03850
 O589 O 0.69299 0.74753 0.02876
 O590 O 0.69971 0.78744 0.02133
 O591 O 0.77738 0.75207 -0.05834
 O592 O 0.77525 0.71290 -0.05038
 O593 O 0.80827 0.77776 -0.00181
 O594 O 0.79956 0.77399 0.03796
 O595 O 0.75206 0.80848 -0.02788
 O596 O 0.71242 0.80019 -0.02261
 Zr597 Zr 0.73800 0.77694 -0.02641
 O598 O 0.71697 0.75730 -0.00738
 Zr599 Zr 0.77668 0.77658 0.01202
 O600 O 0.75697 0.75755 0.03299
 Zr601 Zr 0.77637 0.73816 -0.02667
 O602 O 0.75722 0.71707 -0.00718
 Zr603 Zr 0.72375 0.76273 0.02588
 O604 O 0.74339 0.78417 0.00696
 Zr605 Zr 0.72397 0.72401 -0.01254
 O606 O 0.74313 0.74355 -0.03380
 Zr607 Zr 0.76229 0.72422 0.02616
 O608 O 0.78383 0.74323 0.00665
 O609 O 0.77106 0.77122 -0.02102
 O610 O 0.72916 0.72944 0.02066
 C611 C 0.76685 0.76796 -0.06746
 C612 C 0.76754 0.81771 -0.01695
 C613 C 0.81742 0.76706 -0.01751
 C614 C 0.73115 0.73268 0.06616
 C615 C 0.68394 0.73169 0.01824
 C616 C 0.73205 0.68388 0.01813
 H617 H 0.70155 0.76088 -0.01079
 H618 H 0.76081 0.70165 -0.01066
 H619 H 0.78043 0.78058 -0.03035
 H620 H 0.76017 0.76119 0.04845
 H621 H 0.73010 0.80027 0.04430
 H622 H 0.76729 0.79854 0.04694
 H623 H 0.73665 0.69058 -0.03570
 H624 H 0.76097 0.71429 -0.05794
 H625 H 0.68937 0.78665 0.03384
 H626 H 0.71383 0.81142 -0.03429
 H627 H 0.78649 0.69170 0.01338
 H628 H 0.80713 0.71350 -0.01170
 H629 H 0.71425 0.76077 -0.05749
 H630 H 0.69114 0.73692 -0.03627
 H631 H 0.80824 0.76055 0.03524
 H632 H 0.78488 0.73675 0.06000
 O633 O 0.94228 0.25136 0.27857
 O634 O 0.94935 0.21360 0.27533
 O635 O 0.99908 0.27811 0.30821
 O636 O 1.03547 0.27810 0.30201
 O637 O 0.97196 0.30828 0.25130
 O638 O 0.97389 0.30042 0.21283
 O639 O 1.05733 0.22087 0.24825
 O640 O 1.05159 0.22567 0.28598
 O641 O 1.00254 0.19292 0.22123
 O642 O 0.96276 0.20013 0.22319
 O643 O 1.02886 0.24819 0.19276
 O644 O 1.02729 0.28772 0.20012
 O645 O 1.05728 0.24723 0.22183
 O646 O 1.04968 0.28826 0.22474
 O647 O 1.00261 0.22183 0.19261
 O648 O 0.96199 0.22459 0.20061
 O649 O 1.02919 0.19308 0.24721
 O650 O 1.02173 0.19977 0.28712
 O651 O 0.94200 0.27743 0.25180
 O652 O 0.94996 0.27536 0.21266
 O653 O 0.99837 0.30847 0.27756
 O654 O 1.03810 0.29982 0.27379
 O655 O 0.97245 0.25205 0.30816
 O656 O 0.97782 0.21235 0.29982
 Zr657 Zr 0.97397 0.23800 0.27662
 O658 O 0.99303 0.21699 0.25697
 Zr659 Zr 1.01225 0.27685 0.27635
 O660 O 1.03325 0.25717 0.25730
 Zr661 Zr 0.97363 0.27650 0.23791
 O662 O 0.99314 0.25738 0.21680
 Zr663 Zr 1.02621 0.22387 0.26243
 O664 O 1.00726 0.24348 0.28389
 Zr665 Zr 0.98786 0.22405 0.22370
 O666 O 0.96659 0.24318 0.24325
 Zr667 Zr 1.02641 0.26254 0.22399
 O668 O 1.00687 0.28405 0.24302
 O669 O 0.97927 0.27115 0.27096
 O670 O 1.02097 0.22935 0.22919
 C671 C 0.93292 0.26683 0.26767
 C672 C 0.98331 0.26758 0.31742
 C673 C 0.98267 0.31762 0.26687
 C674 C 1.06623 0.23109 0.23209
 C675 C 1.01880 0.18406 0.23127
 C676 C 1.01863 0.23217 0.18370
 H677 H 0.98966 0.20152 0.26052
 H678 H 0.98968 0.26100 0.20140
 H679 H 0.96993 0.28051 0.28031
 H680 H 1.04869 0.26038 0.26093
 H681 H 1.04465 0.23024 0.29993
 H682 H 1.04714 0.26752 0.29829
 H683 H 0.96484 0.23670 0.19019
 H684 H 0.94249 0.26102 0.21399
 H685 H 1.03425 0.18944 0.28633
 H686 H 0.96615 0.21372 0.31105
 H687 H 1.01366 0.28674 0.19145
 H688 H 0.98852 0.30737 0.21329
 H689 H 0.94304 0.21412 0.26039
 H690 H 0.96435 0.19099 0.23649
 H691 H 1.03540 0.30850 0.26035
 H692 H 1.06036 0.28497 0.23647
 O693 O 0.69202 1.02879 0.74885
 O694 O 0.69909 1.02567 0.78648
 O695 O 0.74895 1.05862 0.72214
 O696 O 0.78524 1.05235 0.72189
 O697 O 0.72186 1.00150 0.69184
 O698 O 0.72371 0.96311 0.69977
 O699 O 0.80714 0.99863 0.77925
 O700 O 0.80135 1.03638 0.77446
 O701 O 0.75238 0.97154 0.80719
 O702 O 0.71258 0.97348 0.79999
 O703 O 0.77874 0.94310 0.75197
 O704 O 0.77713 0.95050 0.71241
 O705 O 0.80712 0.97220 0.75291
 O706 O 0.79956 0.97508 0.71193
 O707 O 0.75247 0.94292 0.77830
 O708 O 0.71185 0.95088 0.77555
 O709 O 0.77899 0.99755 0.80703
 O710 O 0.77147 1.03748 0.80035
 O711 O 0.69177 1.00201 0.72281
 O712 O 0.69983 0.96292 0.72477
 O713 O 0.74823 1.02781 0.69164
 O714 O 0.78792 1.02418 0.70037
 O715 O 0.72229 1.05855 0.74816
 O716 O 0.72754 1.05010 0.78781
 Zr717 Zr 0.72374 1.02695 0.76211
 O718 O 0.74281 1.00730 0.78313
 Zr719 Zr 0.76202 1.02670 0.72328
 O720 O 0.78304 1.00767 0.74297
 Zr721 Zr 0.72345 0.98822 0.72365
 O722 O 0.74298 0.96712 0.74276
 Zr723 Zr 0.77599 1.01279 0.77625
 O724 O 0.75703 1.03422 0.75664
 Zr725 Zr 0.73769 0.97400 0.77608
 O726 O 0.71642 0.99355 0.75696
 Zr727 Zr 0.77625 0.97434 0.73761
 O728 O 0.75670 0.99335 0.71611
 O729 O 0.72903 1.02132 0.72895
 O730 O 0.77079 0.97953 0.77079
 C731 C 0.68263 1.01778 0.73348
 C732 C 0.73326 1.06787 0.73276
 C733 C 0.73265 1.01699 0.68245
 C734 C 0.81605 0.98247 0.76904
 C735 C 0.76862 0.98159 0.81605
 C736 C 0.76850 0.93401 0.76797
 H737 H 0.73944 1.01084 0.79859
 H738 H 0.73954 0.95170 0.73916
 H739 H 0.71968 1.03068 0.71960
 H740 H 0.79848 1.01132 0.73976
 H741 H 0.79439 1.05033 0.76993
 H742 H 0.79677 1.04881 0.73269
 H743 H 0.71472 0.94045 0.76347
 H744 H 0.69241 0.96418 0.73914
 H745 H 0.78399 1.03670 0.81067
 H746 H 0.71590 1.06137 0.78643
 H747 H 0.76360 0.94168 0.71350
 H748 H 0.73838 0.96347 0.69291
 H749 H 0.69293 1.01067 0.78611
 H750 H 0.71421 0.98674 0.80919
 H751 H 0.78528 1.01070 0.69172
 H752 H 0.81019 0.98687 0.71519
 O753 O 0.74881 0.55811 0.22116
 O754 O 0.78647 0.55114 0.22430
 O755 O 0.72227 0.50108 0.19147
 O756 O 0.72227 0.46467 0.19768
 O757 O 0.69204 0.52805 0.24861
 O758 O 0.70006 0.52630 0.28696
 O759 O 0.77947 0.44281 0.25126
 O760 O 0.77479 0.44870 0.21356
 O761 O 0.80738 0.49794 0.27833
 O762 O 0.79999 0.53775 0.27642
 O763 O 0.75252 0.47116 0.30680
 O764 O 0.71287 0.47287 0.29960
 O765 O 0.75314 0.44275 0.27764
 O766 O 0.71233 0.45037 0.27509
 O767 O 0.77868 0.49761 0.30695
 O768 O 0.77561 0.53835 0.29907
 O769 O 0.80722 0.47113 0.25246
 O770 O 0.80057 0.47865 0.21253
 O771 O 0.72283 0.55830 0.24795
 O772 O 0.72495 0.55030 0.28707
 O773 O 0.69190 0.50165 0.22229
 O774 O 0.70074 0.46192 0.22586
 O775 O 0.74820 0.52784 0.19149
 O776 O 0.78781 0.52263 0.19984
 Zr777 Zr 0.76220 0.52639 0.22304
 O778 O 0.78326 0.50734 0.24265
 Zr779 Zr 0.72355 0.48793 0.22334
 O780 O 0.74328 0.46693 0.24235
 Zr781 Zr 0.72384 0.52659 0.26181
 O782 O 0.74301 0.50708 0.28289
 Zr783 Zr 0.77649 0.47407 0.23719
 O784 O 0.75683 0.49301 0.21578
 Zr785 Zr 0.77624 0.51248 0.27593
 O786 O 0.75706 0.53374 0.25642
 Zr787 Zr 0.73795 0.47374 0.27567
 O788 O 0.71641 0.49326 0.25669
 O789 O 0.72912 0.52099 0.22873
 O790 O 0.77105 0.47928 0.27043
 C791 C 0.73340 0.56747 0.23213
 C792 C 0.73279 0.51686 0.18222
 C793 C 0.68269 0.51722 0.23313
 C794 C 0.76921 0.43380 0.26731
 C795 C 0.81624 0.48163 0.26834
 C796 C 0.76852 0.48143 0.31581
 H797 H 0.79868 0.51076 0.23908
 H798 H 0.73944 0.51051 0.29831
 H799 H 0.71971 0.53032 0.21939
 H800 H 0.74010 0.45146 0.23870
 H801 H 0.77022 0.45567 0.19964
 H802 H 0.73304 0.45311 0.20126
 H803 H 0.76367 0.53535 0.30960
 H804 H 0.73927 0.55778 0.28575
 H805 H 0.81091 0.46614 0.21334
 H806 H 0.78640 0.53432 0.18861
 H807 H 0.71415 0.48631 0.30858
 H808 H 0.69335 0.51152 0.28671
 H809 H 0.78597 0.55744 0.23925
 H810 H 0.80912 0.53620 0.26312
 H811 H 0.69212 0.46452 0.23935
 H812 H 0.71539 0.43988 0.26311
 O813 O 0.50151 0.19225 0.72134
 O814 O 0.46392 0.19921 0.72442
 O815 O 0.52799 0.24944 0.69159
 O816 O 0.52813 0.28580 0.69791
 O817 O 0.55830 0.22229 0.74866
 O818 O 0.55036 0.22409 0.78705
 O819 O 0.47074 0.30748 0.75153
 O820 O 0.47557 0.30172 0.71381
 O821 O 0.44300 0.25247 0.77855
 O822 O 0.45035 0.21260 0.77656
 O823 O 0.49799 0.27902 0.80707
 O824 O 0.53749 0.27757 0.79974
 O825 O 0.49701 0.30752 0.77797
 O826 O 0.53795 0.30005 0.77517
 O827 O 0.47181 0.25259 0.80719
 O828 O 0.47470 0.21194 0.79920
 O829 O 0.44309 0.27918 0.75258
 O830 O 0.44982 0.27171 0.71267
 O831 O 0.52749 0.19205 0.74813
 O832 O 0.52549 0.20008 0.78721
 O833 O 0.55844 0.24874 0.72239
 O834 O 0.54959 0.28849 0.72609
 O835 O 0.50211 0.22264 0.69162
 O836 O 0.46251 0.22775 0.70003
 Zr837 Zr 0.48816 0.22400 0.72319
 O838 O 0.46709 0.24301 0.74283
 Zr839 Zr 0.52680 0.26248 0.72351
 O840 O 0.50704 0.28345 0.74253
 Zr841 Zr 0.52653 0.22378 0.76193
 O842 O 0.50736 0.24326 0.78303
 Zr843 Zr 0.47384 0.27629 0.73738
 O844 O 0.49351 0.25739 0.71595
 Zr845 Zr 0.47411 0.23786 0.77610
 O846 O 0.49331 0.21663 0.75657
 Zr847 Zr 0.51238 0.27662 0.77585
 O848 O 0.53394 0.25713 0.75685
 O849 O 0.52124 0.22939 0.72885
 O850 O 0.47928 0.27106 0.77062
 C851 C 0.51687 0.18287 0.73235
 C852 C 0.51745 0.23370 0.68232
 C853 C 0.56765 0.23313 0.73318
 C854 C 0.48090 0.31644 0.76768
 C855 C 0.43410 0.26873 0.76851
 C856 C 0.48205 0.26869 0.81612
 H857 H 0.45167 0.23959 0.73926
 H858 H 0.51095 0.23980 0.79844
 H859 H 0.53062 0.22006 0.71949
 H860 H 0.51020 0.29894 0.73890
 H861 H 0.48013 0.29478 0.69987
 H862 H 0.51731 0.29731 0.70145
 H863 H 0.48678 0.21481 0.80961
 H864 H 0.51117 0.19260 0.78594
 H865 H 0.43948 0.28422 0.71346
 H866 H 0.46393 0.21610 0.68876
 H867 H 0.53647 0.26396 0.80849
 H868 H 0.55716 0.23882 0.78669
 H869 H 0.46430 0.19302 0.73942
 H870 H 0.44114 0.21426 0.76333
 H871 H 0.55823 0.28584 0.73957
 H872 H 0.53468 0.31070 0.76338
 O873 O 0.25151 0.77902 0.44201
 O874 O 0.21386 0.77590 0.44900
 O875 O 0.27802 0.80877 0.49911
 O876 O 0.27814 0.80247 0.53549
 O877 O 0.30824 0.75178 0.47189
 O878 O 0.30041 0.71331 0.47391
 O879 O 0.22098 0.74902 0.55732
 O880 O 0.22557 0.78664 0.55139
 O881 O 0.19299 0.72186 0.50219
 O882 O 0.20033 0.72371 0.46245
 O883 O 0.24809 0.69325 0.52876
 O884 O 0.28744 0.70050 0.52741
 O885 O 0.24726 0.72258 0.55737
 O886 O 0.28814 0.72519 0.54964
 O887 O 0.22192 0.69310 0.50233
 O888 O 0.22470 0.70116 0.46173
 O889 O 0.19311 0.74779 0.52893
 O890 O 0.19983 0.78769 0.52145
 O891 O 0.27746 0.75217 0.44182
 O892 O 0.27547 0.71307 0.44990
 O893 O 0.30839 0.77808 0.49831
 O894 O 0.29969 0.77426 0.53811
 O895 O 0.25213 0.80873 0.47231
 O896 O 0.21252 0.80037 0.47749
 Zr897 Zr 0.23814 0.77716 0.47374
 O898 O 0.21711 0.75753 0.49279
 Zr899 Zr 0.27681 0.77685 0.51218
 O900 O 0.25709 0.75784 0.53316
 Zr901 Zr 0.27653 0.73839 0.47354
 O902 O 0.25738 0.71731 0.49304
 Zr903 Zr 0.22388 0.76299 0.52604
 O904 O 0.24352 0.78442 0.50711
 Zr905 Zr 0.22413 0.72423 0.48766
 O906 O 0.24329 0.74376 0.46640
 Zr907 Zr 0.26243 0.72450 0.52637
 O908 O 0.28397 0.74350 0.50686
 O909 O 0.27121 0.77148 0.47913
 O910 O 0.22930 0.72971 0.52086
 C911 C 0.26689 0.76801 0.43266
 C912 C 0.26753 0.81801 0.48332
 C913 C 0.31754 0.76737 0.48262
 C914 C 0.23127 0.73299 0.56636
 C915 C 0.18408 0.73193 0.51841
 C916 C 0.23221 0.68414 0.51837
 H917 H 0.20169 0.76110 0.48936
 H918 H 0.26098 0.70190 0.48958
 H919 H 0.28055 0.78085 0.46978
 H920 H 0.26029 0.76150 0.54862
 H921 H 0.23020 0.80056 0.54443
 H922 H 0.26738 0.79888 0.54704
 H923 H 0.23681 0.69077 0.46455
 H924 H 0.26118 0.71438 0.44237
 H925 H 0.18948 0.78691 0.53395
 H926 H 0.21393 0.81162 0.46582
 H927 H 0.28669 0.69202 0.51362
 H928 H 0.30734 0.71382 0.48857
 H929 H 0.21435 0.76094 0.44272
 H930 H 0.19127 0.73708 0.46393
 H931 H 0.30842 0.76086 0.53536
 H932 H 0.28500 0.73709 0.56020
 O933 O 0.30805 0.25120 0.97125
 O934 O 0.30098 0.21342 0.97449
 O935 O 0.25128 0.27796 0.94152
 O936 O 0.21490 0.27805 0.94770
 O937 O 0.27836 0.30811 0.99850
 O938 O 0.27634 0.30024 1.03696
 O939 O 0.19287 0.22089 1.00131
 O940 O 0.19879 0.22554 0.96361
 O941 O 0.24777 0.19275 1.02845
 O942 O 0.28751 0.19999 1.02660
 O943 O 0.22120 0.24789 1.05684
 O944 O 0.22298 0.28752 1.04964
 O945 O 0.19287 0.24730 1.02767
 O946 O 0.20066 0.28823 1.02499
 O947 O 0.24749 0.22156 1.05704
 O948 O 0.28818 0.22447 1.04921
 O949 O 0.22105 0.19298 1.00256
 O950 O 0.22859 0.19960 0.96263
 O951 O 0.30830 0.27725 0.99804
 O952 O 0.30026 0.27515 1.03718
 O953 O 0.25201 0.30833 0.97217
 O954 O 0.21226 0.29974 0.97588
 O955 O 0.27793 0.25190 0.94161
 O956 O 0.27255 0.21221 0.94995
 Zr957 Zr 0.27636 0.23785 0.97315
 O958 O 0.25726 0.21685 0.99277
 Zr959 Zr 0.23810 0.27673 0.97337
 O960 O 0.21706 0.25706 0.99238
 Zr961 Zr 0.27665 0.27633 1.01188
 O962 O 0.25709 0.25722 1.03295
 Zr963 Zr 0.22408 0.22375 0.98726
 O964 O 0.24307 0.24335 0.96584
 Zr965 Zr 0.26238 0.22390 1.02604
 O966 O 0.28369 0.24301 1.00653
 Zr967 Zr 0.22384 0.26242 1.02570
 O968 O 0.24341 0.28391 1.00671
 O969 O 0.27105 0.27100 0.97882
 O970 O 0.22928 0.22922 1.02050
 C971 C 0.31740 0.26666 0.98217
 C972 C 0.26707 0.26742 0.93234
 C973 C 0.26770 0.31746 0.98289
 C974 C 0.18390 0.23122 1.01736
 C975 C 0.23148 0.18392 1.01846
 C976 C 0.23138 0.23182 1.06589
 H977 H 0.26063 0.20138 0.98922
 H978 H 0.26052 0.26080 1.04837
 H979 H 0.28041 0.28035 0.96947
 H980 H 0.20163 0.26031 0.98871
 H981 H 0.20577 0.23011 0.94970
 H982 H 0.20327 0.26739 0.95134
 H983 H 0.28520 0.23645 1.05973
 H984 H 0.30772 0.26080 1.03586
 H985 H 0.21608 0.18928 0.96344
 H986 H 0.28424 0.21357 0.93874
 H987 H 0.23651 0.28638 1.05845
 H988 H 0.26167 0.30713 1.03653
 H989 H 0.30731 0.21399 0.98941
 H990 H 0.28600 0.19090 1.01326
 H991 H 0.21498 0.30845 0.98930
 H992 H 0.19012 0.28512 1.01308
 C993 C 0.29486 0.37445 0.79439
 C994 C 0.27576 0.38344 0.80330
 C995 C 0.26652 0.40228 0.79408
 C996 C 0.31572 0.34297 0.81565
 C997 C 0.29507 0.40277 0.76649
 C998 C 0.30428 0.38393 0.77576
 C999 C 0.30591 0.35688 0.80559
 C1000 C 0.27633 0.41246 0.77583
 H1001 H 0.26842 0.37634 0.81783
 H1002 H 0.25215 0.40930 0.80176
 H1003 H 0.30314 0.41019 0.75252
 H1004 H 0.31917 0.37720 0.76883
 C1005 C 0.29310 -0.12824 0.29181
 C1006 C 0.30267 -0.11864 0.27332
 C1007 C 0.29375 -0.09956 0.26430
 C1008 C 0.31412 -0.15935 0.31343
 C1009 C 0.26502 -0.10014 0.29172
 C1010 C 0.27399 -0.11923 0.30069
 C1011 C 0.30420 -0.14568 0.30315
 C1012 C 0.27515 -0.08972 0.27377
 H1013 H 0.31757 -0.12539 0.26642
 H1014 H 0.30201 -0.09199 0.25053
 H1015 H 0.25073 -0.09304 0.29946
 H1016 H 0.26653 -0.12643 0.31510
 C1017 C 0.79489 0.87428 0.79420
 C1018 C 0.77580 0.88327 0.80314
 C1019 C 0.76659 0.90215 0.79398
 C1020 C 0.81568 0.84269 0.81538
 C1021 C 0.79514 0.90268 0.76638
 C1022 C 0.80432 0.88380 0.77559
 C1023 C 0.80591 0.85665 0.80535
 C1024 C 0.77641 0.91237 0.77575
 H1025 H 0.76846 0.87613 0.81764
 H1026 H 0.75223 0.90917 0.80168
 H1027 H 0.80321 0.91013 0.75244
 H1028 H 0.81920 0.87707 0.76864
 C1029 C 0.45528 0.87573 0.29441
 C1030 C 0.47421 0.86659 0.30352
 C1031 C 0.48344 0.84772 0.29436
 C1032 C 0.43426 0.90725 0.31544
 C1033 C 0.45522 0.84749 0.26642
 C1034 C 0.44603 0.86636 0.27563
 C1035 C 0.44418 0.89332 0.30552
 C1036 C 0.47378 0.83765 0.27596
 H1037 H 0.48141 0.87360 0.31816
 H1038 H 0.49766 0.84058 0.30220
 H1039 H 0.44729 0.84017 0.25233
 H1040 H 0.43127 0.87321 0.26854
 C1041 C -0.04608 0.87508 0.79538
 C1042 C -0.02691 0.86620 0.80423
 C1043 C -0.01736 0.84765 0.79473
 C1044 C -0.06755 0.90585 0.81707
 C1045 C -0.04575 0.84728 0.76697
 C1046 C -0.05526 0.86582 0.77651
 C1047 C -0.05747 0.89226 0.80684
 C1048 C -0.02694 0.83767 0.77625
 H1049 H -0.01976 0.87314 0.81893
 H1050 H -0.00296 0.84068 0.80238
 H1051 H -0.05363 0.84000 0.75283
 H1052 H -0.07020 0.87247 0.76962
 C1053 C -0.04490 -0.12577 -0.04418
 C1054 C -0.05412 -0.11643 -0.02537
 C1055 C -0.04487 -0.09762 -0.01611
 C1056 C -0.06603 -0.15713 -0.06532
 C1057 C -0.01665 -0.09787 -0.04405
 C1058 C -0.02594 -0.11668 -0.05327
 C1059 C -0.05606 -0.14328 -0.05535
 C1060 C -0.02628 -0.08783 -0.02563
 H1061 H -0.06891 -0.12324 -0.01831
 H1062 H -0.05279 -0.09031 -0.00201
 H1063 H -0.00241 -0.09077 -0.05187
 H1064 H -0.01877 -0.12368 -0.06793
 C1065 C -0.04496 0.37452 0.45551
 C1066 C -0.02575 0.38346 0.44680
 C1067 C -0.01656 0.40227 0.45610
 C1068 C -0.06564 0.34302 0.43412
 C1069 C -0.04541 0.40286 0.48338
 C1070 C -0.05456 0.38404 0.47403
 C1071 C -0.05591 0.35694 0.44422
 C1072 C -0.02654 0.41248 0.47425
 H1073 H -0.01827 0.37631 0.43236
 H1074 H -0.00209 0.40924 0.44858
 H1075 H -0.05361 0.41030 0.49725
 H1076 H -0.06954 0.37736 0.48080
 C1077 C 0.45527 -0.12554 0.45572
 C1078 C 0.44602 -0.11618 0.47451
 C1079 C 0.45522 -0.09732 0.48372
 C1080 C 0.43422 -0.15703 0.43467
 C1081 C 0.48344 -0.09757 0.45578
 C1082 C 0.47420 -0.11642 0.44661
 C1083 C 0.44415 -0.14312 0.44460
 C1084 C 0.47379 -0.08750 0.47418
 H1085 H 0.43126 -0.12301 0.48159
 H1086 H 0.44730 -0.09000 0.49782
 H1087 H 0.49767 -0.09044 0.44794
 H1088 H 0.48139 -0.12344 0.43196
 C1089 C 0.45494 0.37404 -0.04402
 C1090 C 0.47403 0.38308 -0.05290
 C1091 C 0.48320 0.40194 -0.04366
 C1092 C 0.43416 0.34247 -0.06521
 C1093 C 0.45458 0.40237 -0.01613
 C1094 C 0.44545 0.38351 -0.02542
 C1095 C 0.44396 0.35643 -0.05522
 C1096 C 0.47332 0.41209 -0.02542
 H1097 H 0.48142 0.37598 -0.06741
 H1098 H 0.49757 0.40898 -0.05130
 H1099 H 0.44647 0.40976 -0.00218
 H1100 H 0.43056 0.37675 -0.01852
 C1101 C 0.79650 0.37500 0.45450
 C1102 C 0.77716 0.36622 0.44592
 C1103 C 0.76768 0.34771 0.45553
 C1104 C 0.81775 0.40579 0.43263
 C1105 C 0.79649 0.34714 0.48286
 C1106 C 0.80593 0.36566 0.47320
 C1107 C 0.80776 0.39219 0.44292
 C1108 C 0.77750 0.33764 0.47385
 H1109 H 0.76981 0.37323 0.43135
 H1110 H 0.75313 0.34082 0.44809
 H1111 H 0.80457 0.33979 0.49685
 H1112 H 0.82100 0.37222 0.47988
 C1113 C 0.79371 0.87756 -0.04285
 C1114 C 0.77461 0.86862 -0.05180
 C1115 C 0.76527 0.84985 -0.04255
 C1116 C 0.81553 0.90787 -0.06481
 C1117 C 0.79356 0.84949 -0.01470
 C1118 C 0.80287 0.86826 -0.02399
 C1119 C 0.80524 0.89458 -0.05441
 C1120 C 0.77500 0.83968 -0.02425
 H1121 H 0.76747 0.87560 -0.06649
 H1122 H 0.75102 0.84277 -0.05037
 H1123 H 0.80154 0.84210 -0.00067
 H1124 H 0.81775 0.87496 -0.01702
 C1125 C 0.79454 0.29477 0.37392
 C1126 C 0.77597 0.30428 0.38339
 C1127 C 0.76672 0.29513 0.40226
 C1128 C 0.81578 0.31554 0.34238
 C1129 C 0.79422 0.26646 0.40183
 C1130 C 0.80342 0.27564 0.38296
 C1131 C 0.80573 0.30577 0.35632
 C1132 C 0.77602 0.27636 0.41199
 H1133 H 0.76907 0.31919 0.37663
 H1134 H 0.75280 0.30326 0.40966
 H1135 H 0.80187 0.25207 0.40887
 H1136 H 0.81790 0.26825 0.37586
 C1137 C 0.79288 0.79369 -0.12743
 C1138 C 0.77420 0.80314 -0.11810
 C1139 C 0.76487 0.79400 -0.09928
 C1140 C 0.81488 0.81520 -0.15792
 C1141 C 0.79233 0.76529 -0.09962
 C1142 C 0.80162 0.77448 -0.11845
 C1143 C 0.80448 0.80503 -0.14454
 C1144 C 0.77421 0.77530 -0.08944
 H1145 H 0.76739 0.81811 -0.12483
 H1146 H 0.75098 0.80218 -0.09189
 H1147 H 0.79999 0.75093 -0.09251
 H1148 H 0.81617 0.76711 -0.12545
 C1149 C 0.29515 0.45485 0.87535
 C1150 C 0.27621 0.44577 0.86621
 C1151 C 0.26690 0.45506 0.84744
 C1152 C 0.31616 0.43375 0.90684
 C1153 C 0.29511 0.48302 0.84732
 C1154 C 0.30437 0.47369 0.86608
 C1155 C 0.30626 0.44369 0.89291
 C1156 C 0.27650 0.47356 0.83751
 H1157 H 0.26904 0.43107 0.87316
 H1158 H 0.25265 0.44728 0.84031
 H1159 H 0.30300 0.49719 0.84009
 H1160 H 0.31914 0.48075 0.87292
 C1161 C 0.29239 -0.04223 0.37811
 C1162 C 0.27372 -0.05164 0.36874
 C1163 C 0.26473 -0.04277 0.34961
 C1164 C 0.31370 -0.06331 0.40938
 C1165 C 0.29255 -0.01443 0.34970
 C1166 C 0.30149 -0.02334 0.36883
 C1167 C 0.30360 -0.05332 0.39564
 C1168 C 0.27441 -0.02440 0.33951
 H1169 H 0.26663 -0.06636 0.37570
 H1170 H 0.25082 -0.05091 0.34222
 H1171 H 0.30046 -0.00031 0.34240
 H1172 H 0.31604 -0.01601 0.37586
 C1173 C -0.04601 -0.04611 -0.12451
 C1174 C -0.02705 -0.05521 -0.11542
 C1175 C -0.01751 -0.04574 -0.09687
 C1176 C -0.06748 -0.06736 -0.15557
 C1177 C -0.04551 -0.01755 -0.09687
 C1178 C -0.05500 -0.02706 -0.11542
 C1179 C -0.05737 -0.05739 -0.14183
 C1180 C -0.02688 -0.02704 -0.08709
 H1181 H -0.02006 -0.07006 -0.12223
 H1182 H -0.00327 -0.05356 -0.08974
 H1183 H -0.05323 -0.00324 -0.08976
 H1184 H -0.06978 -0.01997 -0.12223
 C1185 C -0.04414 0.45548 0.37402
 C1186 C -0.05320 0.47446 0.38318
 C1187 C -0.04398 0.48371 0.40199
 C1188 C -0.06526 0.43439 0.34262
 C1189 C -0.01608 0.45542 0.40213
 C1190 C -0.02535 0.44621 0.38331
 C1191 C -0.05530 0.44435 0.35649
 C1192 C -0.02557 0.47403 0.41199
 H1193 H -0.06784 0.48167 0.37622
 H1194 H -0.05178 0.49796 0.40915
 H1195 H -0.00199 0.44747 0.40940
 H1196 H -0.01830 0.43141 0.37645
 C1197 C 0.45519 -0.04500 0.37445
 C1198 C 0.47400 -0.05422 0.38375
 C1199 C 0.48321 -0.04500 0.40260
 C1200 C 0.43426 -0.06581 0.34274
 C1201 C 0.45518 -0.01685 0.40251
 C1202 C 0.44601 -0.02611 0.38367
 C1203 C 0.44417 -0.05604 0.35678
 C1204 C 0.47365 -0.02644 0.41247
 H1205 H 0.48114 -0.06895 0.37685
 H1206 H 0.49735 -0.05288 0.40984
 H1207 H 0.44732 -0.00263 0.40968
 H1208 H 0.43135 -0.01894 0.37670
 C1209 C 0.45471 0.45439 -0.12506
 C1210 C 0.44600 0.47365 -0.11616
 C1211 C 0.45550 0.48308 -0.09757
 C1212 C 0.43300 0.43318 -0.15598
 C1213 C 0.48299 0.45441 -0.09718
 C1214 C 0.47345 0.44502 -0.11578
 C1215 C 0.44324 0.44315 -0.14233
 C1216 C 0.47384 0.47330 -0.08756
 H1217 H 0.43140 0.48095 -0.12312
 H1218 H 0.44795 0.49755 -0.09058
 H1219 H 0.49702 0.44637 -0.08989
 H1220 H 0.48023 0.43001 -0.12244
 C1221 C 0.45518 0.79518 0.37570
 C1222 C 0.47398 0.80441 0.36639
 C1223 C 0.48320 0.79517 0.34755
 C1224 C 0.43422 0.81603 0.40738
 C1225 C 0.45519 0.76701 0.34767
 C1226 C 0.44602 0.77628 0.36650
 C1227 C 0.44414 0.80623 0.39336
 C1228 C 0.47365 0.77660 0.33770
 H1229 H 0.48110 0.81915 0.37328
 H1230 H 0.49733 0.80306 0.34030
 H1231 H 0.44736 0.75278 0.34052
 H1232 H 0.43137 0.76910 0.37348
 C1233 C -0.04509 0.79526 0.87559
 C1234 C -0.02630 0.80451 0.86629
 C1235 C -0.01707 0.79531 0.84745
 C1236 C -0.06605 0.81603 0.90731
 C1237 C -0.04505 0.76711 0.84753
 C1238 C -0.05423 0.77635 0.86638
 C1239 C -0.05614 0.80627 0.89327
 C1240 C -0.02660 0.77673 0.83758
 H1241 H -0.01920 0.81926 0.87319
 H1242 H -0.00295 0.80322 0.84020
 H1243 H -0.05287 0.75288 0.84036
 H1244 H -0.06887 0.76916 0.87335
 C1245 C 0.37370 0.79298 0.29421
 C1246 C 0.38335 0.77464 0.30404
 C1247 C 0.40246 0.76559 0.29524
 C1248 C 0.34157 0.81386 0.31438
 C1249 C 0.40192 0.79284 0.26628
 C1250 C 0.38281 0.80183 0.27513
 C1251 C 0.35577 0.80398 0.30486
 C1252 C 0.41223 0.77487 0.27649
 H1253 H 0.37653 0.76777 0.31893
 H1254 H 0.40997 0.75185 0.30359
 H1255 H 0.40899 0.80045 0.25189
 H1256 H 0.37557 0.81614 0.26749
 C1257 C -0.12583 0.79418 0.79495
 C1258 C -0.11640 0.77558 0.80452
 C1259 C -0.09756 0.76627 0.79543
 C1260 C -0.15737 0.81542 0.81569
 C1261 C -0.09794 0.79374 0.76669
 C1262 C -0.11678 0.80301 0.77582
 C1263 C -0.14343 0.80541 0.80589
 C1264 C -0.08782 0.77552 0.77665
 H1265 H -0.12317 0.76872 0.81943
 H1266 H -0.09018 0.75234 0.80360
 H1267 H -0.09089 0.80136 0.75229
 H1268 H -0.12385 0.81751 0.76838
 C1269 C 0.87562 0.29500 0.45460
 C1270 C 0.86637 0.27613 0.44542
 C1271 C 0.84755 0.26690 0.45464
 C1272 C 0.90731 0.31590 0.43375
 C1273 C 0.84758 0.29504 0.48271
 C1274 C 0.86640 0.30422 0.47346
 C1275 C 0.89329 0.30603 0.44357
 C1276 C 0.83767 0.27650 0.47316
 H1277 H 0.87328 0.26895 0.43072
 H1278 H 0.84033 0.25271 0.44678
 H1279 H 0.84040 0.30293 0.49690
 H1280 H 0.87333 0.31893 0.48060
 C1281 C 0.87725 0.79306 -0.04336
 C1282 C 0.86833 0.80183 -0.02414
 C1283 C 0.84957 0.79253 -0.01490
 C1284 C 0.90754 0.81516 -0.06500
 C1285 C 0.84916 0.76499 -0.04356
 C1286 C 0.86793 0.77433 -0.05275
 C1287 C 0.89425 0.80471 -0.05478
 C1288 C 0.83937 0.77437 -0.02487
 H1289 H 0.87533 0.81642 -0.01681
 H1290 H 0.84250 0.80022 -0.00055
 H1291 H 0.84176 0.75107 -0.05171
 H1292 H 0.87461 0.76750 -0.06773
 C1293 C -0.12547 -0.04415 -0.04489
 C1294 C -0.11599 -0.02561 -0.05450
 C1295 C -0.09719 -0.01627 -0.04536
 C1296 C -0.15691 -0.06554 -0.06562
 C1297 C -0.09773 -0.04359 -0.01648
 C1298 C -0.11653 -0.05288 -0.02566
 C1299 C -0.14302 -0.05543 -0.05586
 C1300 C -0.08756 -0.02543 -0.02648
 H1301 H -0.12268 -0.01883 -0.06949
 H1302 H -0.08977 -0.00239 -0.05357
 H1303 H -0.09076 -0.05113 -0.00201
 H1304 H -0.12364 -0.06733 -0.01818
 C1305 C -0.12426 0.45436 0.45355
 C1306 C -0.11511 0.47331 0.44444
 C1307 C -0.09659 0.48284 0.45395
 C1308 C -0.15524 0.43286 0.43225
 C1309 C -0.09675 0.45484 0.48218
 C1310 C -0.11527 0.44536 0.47263
 C1311 C -0.14154 0.44300 0.44224
 C1312 C -0.08691 0.47345 0.47269
 H1313 H -0.12184 0.48031 0.42957
 H1314 H -0.08941 0.49707 0.44613
 H1315 H -0.08972 0.44711 0.49653
 H1316 H -0.12213 0.43059 0.47973
 C1317 C 0.37367 -0.04276 0.45600
 C1318 C 0.38331 -0.02440 0.44620
 C1319 C 0.40243 -0.01539 0.45500
 C1320 C 0.34146 -0.06353 0.43585
 C1321 C 0.40195 -0.04271 0.48387
 C1322 C 0.38283 -0.05167 0.47504
 C1323 C 0.35570 -0.05371 0.44538
 C1324 C 0.41224 -0.02471 0.47370
 H1325 H 0.37646 -0.01748 0.43135
 H1326 H 0.40993 -0.00162 0.44667
 H1327 H 0.40905 -0.05036 0.49823
 H1328 H 0.37560 -0.06600 0.48266
 C1329 C 0.37486 0.45491 -0.04531
 C1330 C 0.38399 0.44578 -0.02636
 C1331 C 0.40276 0.45501 -0.01705
 C1332 C 0.34333 0.43382 -0.06618
 C1333 C 0.40292 0.48302 -0.04527
 C1334 C 0.38415 0.47374 -0.05454
 C1335 C 0.35728 0.44380 -0.05638
 C1336 C 0.41271 0.47350 -0.02666
 H1337 H 0.37703 0.43110 -0.01917
 H1338 H 0.40987 0.44719 -0.00279
 H1339 H 0.41017 0.49716 -0.05317
 H1340 H 0.37731 0.48083 -0.06932
 C1341 C 0.37483 0.45532 0.79603
 C1342 C 0.36543 0.47396 0.80554
 C1343 C 0.34687 0.48354 0.79616
 C1344 C 0.40575 0.43354 0.81716
 C1345 C 0.34748 0.45626 0.76726
 C1346 C 0.36604 0.44672 0.77667
 C1347 C 0.39209 0.44380 0.80723
 C1348 C 0.33737 0.47452 0.77715
 H1349 H 0.37200 0.48064 0.82062
 H1350 H 0.33948 0.49749 0.80430
 H1351 H 0.34060 0.44881 0.75269
 H1352 H 0.37309 0.43220 0.76927
 C1353 C 0.37754 -0.04289 0.29337
 C1354 C 0.36861 -0.05167 0.27417
 C1355 C 0.34984 -0.04235 0.26493
 C1356 C 0.40785 -0.06498 0.31503
 C1357 C 0.34948 -0.01478 0.29356
 C1358 C 0.36825 -0.02414 0.30276
 C1359 C 0.39456 -0.05454 0.30479
 C1360 C 0.33967 -0.02416 0.27489
 H1361 H 0.37559 -0.06628 0.26686
 H1362 H 0.34276 -0.05004 0.25059
 H1363 H 0.34211 -0.00083 0.30170
 H1364 H 0.37494 -0.01730 0.31772
 C1365 C 0.12126 0.54191 0.70887
 C1366 C 0.13087 0.55167 0.72727
 C1367 C 0.15021 0.54310 0.73603
 C1368 C 0.08940 0.56241 0.68789
 C1369 C 0.14991 0.51440 0.70852
 C1370 C 0.13057 0.52301 0.69981
 C1371 C 0.10342 0.55268 0.69785
 C1372 C 0.16029 0.52469 0.72640
 H1373 H 0.12389 0.56641 0.73431
 H1374 H 0.15773 0.55147 0.74975
 H1375 H 0.15719 0.50025 0.70066
 H1376 H 0.12336 0.51543 0.68546
 C1377 C 0.12479 0.04504 0.20564
 C1378 C 0.13429 0.05469 0.22414
 C1379 C 0.15308 0.04554 0.23350
 C1380 C 0.09337 0.06576 0.18422
 C1381 C 0.15250 0.01659 0.20626
 C1382 C 0.13371 0.02578 0.19696
 C1383 C 0.10725 0.05601 0.19434
 C1384 C 0.16269 0.02663 0.22438
 H1385 H 0.12761 0.06971 0.23089
 H1386 H 0.16052 0.05378 0.24735
 H1387 H 0.15946 0.00208 0.19876
 H1388 H 0.12658 0.01826 0.18253
 C1389 C 0.62816 0.70733 0.20822
 C1390 C 0.61903 0.72642 0.19935
 C1391 C 0.59995 0.73530 0.20838
 C1392 C 0.65926 0.68631 0.18665
 C1393 C 0.59962 0.70653 0.23582
 C1394 C 0.61869 0.69770 0.22675
 C1395 C 0.64560 0.69628 0.19686
 C1396 C 0.58966 0.72510 0.22636
 H1397 H 0.62613 0.73392 0.18491
 H1398 H 0.59277 0.74957 0.20065
 H1399 H 0.59216 0.69822 0.24962
 H1400 H 0.62554 0.68282 0.23365
 C1401 C 0.12795 0.70771 0.70815
 C1402 C 0.11877 0.72672 0.69919
 C1403 C 0.09967 0.73559 0.70817
 C1404 C 0.15916 0.68669 0.68671
 C1405 C 0.09941 0.70697 0.73575
 C1406 C 0.11851 0.69814 0.72672
 C1407 C 0.14545 0.69666 0.69686
 C1408 C 0.08941 0.72547 0.72620
 H1409 H 0.12585 0.73417 0.68470
 H1410 H 0.09245 0.74981 0.70036
 H1411 H 0.09198 0.69871 0.74959
 H1412 H 0.12540 0.68332 0.73370
 C1413 C 0.62141 0.20874 0.54098
 C1414 C 0.63071 0.22760 0.55012
 C1415 C 0.65006 0.23623 0.54145
 C1416 C 0.58955 0.18820 0.56191
 C1417 C 0.65037 0.20765 0.51383
 C1418 C 0.63102 0.19906 0.52255
 C1419 C 0.60356 0.19794 0.55196
 C1420 C 0.66045 0.22601 0.52354
 H1421 H 0.62350 0.23513 0.56450
 H1422 H 0.65733 0.25035 0.54937
 H1423 H 0.65790 0.19933 0.50008
 H1424 H 0.62405 0.18435 0.51544
 C1425 C 0.62381 0.70584 0.04390
 C1426 C 0.63321 0.69653 0.02517
 C1427 C 0.65229 0.70548 0.01622
 C1428 C 0.59159 0.68541 0.06438
 C1429 C 0.65226 0.73354 0.04439
 C1430 C 0.63318 0.72455 0.05328
 C1431 C 0.60585 0.69504 0.05467
 C1432 C 0.66230 0.72386 0.02599
 H1433 H 0.62619 0.68193 0.01788
 H1434 H 0.65959 0.69755 0.00212
 H1435 H 0.65952 0.74763 0.05238
 H1436 H 0.62614 0.73178 0.06789
 C1437 C 0.12735 0.04337 0.04289
 C1438 C 0.11802 0.05283 0.02419
 C1439 C 0.09925 0.04367 0.01483
 C1440 C 0.15767 0.06496 0.06500
 C1441 C 0.09966 0.01491 0.04227
 C1442 C 0.11843 0.02412 0.05160
 C1443 C 0.14437 0.05475 0.05455
 C1444 C 0.08947 0.02494 0.02415
 H1445 H 0.12471 0.06783 0.01741
 H1446 H 0.09186 0.05187 0.00093
 H1447 H 0.09260 0.00054 0.04992
 H1448 H 0.12543 0.01675 0.06616
 C1449 C 0.12829 0.54276 0.54175
 C1450 C 0.11876 0.55231 0.52321
 C1451 C 0.09967 0.54341 0.51423
 C1452 C 0.15944 0.56379 0.56323
 C1453 C 0.10011 0.51477 0.54179
 C1454 C 0.11920 0.52371 0.55072
 C1455 C 0.14576 0.55385 0.55302
 C1456 C 0.08977 0.52487 0.52379
 H1457 H 0.12557 0.56716 0.51623
 H1458 H 0.09217 0.55166 0.50041
 H1459 H 0.09297 0.50052 0.54960
 H1460 H 0.12635 0.51627 0.56518
 C1461 C 0.62887 0.04198 0.54097
 C1462 C 0.61925 0.05173 0.52258
 C1463 C 0.59991 0.04315 0.51382
 C1464 C 0.66066 0.06252 0.56199
 C1465 C 0.60027 0.01444 0.54131
 C1466 C 0.61961 0.02306 0.55002
 C1467 C 0.64668 0.05277 0.55200
 C1468 C 0.58987 0.02473 0.52345
 H1469 H 0.62619 0.06649 0.51554
 H1470 H 0.59238 0.05152 0.50010
 H1471 H 0.59303 0.00027 0.54917
 H1472 H 0.62683 0.01548 0.56437
 C1473 C 0.62828 0.54237 0.04168
 C1474 C 0.61873 0.55191 0.02314
 C1475 C 0.59963 0.54301 0.01420
 C1476 C 0.65946 0.56343 0.06310
 C1477 C 0.60010 0.51439 0.04178
 C1478 C 0.61920 0.52333 0.05068
 C1479 C 0.64576 0.55347 0.05293
 C1480 C 0.58974 0.52448 0.02379
 H1481 H 0.62553 0.56676 0.01615
 H1482 H 0.59211 0.55125 0.00039
 H1483 H 0.59296 0.50015 0.04961
 H1484 H 0.62637 0.51590 0.06513
 C1485 C 0.04402 0.04286 0.12740
 C1486 C 0.02484 0.05172 0.11853
 C1487 C 0.01550 0.04244 0.09978
 C1488 C 0.06582 0.06492 0.15763
 C1489 C 0.04398 0.01475 0.09930
 C1490 C 0.05328 0.02407 0.11805
 C1491 C 0.05553 0.05448 0.14438
 C1492 C 0.02532 0.02421 0.08956
 H1493 H 0.01762 0.06636 0.12555
 H1494 H 0.00118 0.05019 0.09275
 H1495 H 0.05202 0.00077 0.09188
 H1496 H 0.06822 0.01717 0.12470
 C1497 C 0.04175 0.54119 0.62877
 C1498 C 0.05131 0.52269 0.61916
 C1499 C 0.04268 0.51399 0.59980
 C1500 C 0.06235 0.56212 0.66062
 C1501 C 0.01430 0.54178 0.60009
 C1502 C 0.02297 0.55043 0.61946
 C1503 C 0.05259 0.55216 0.64661
 C1504 C 0.02440 0.52380 0.58970
 H1505 H 0.06597 0.51551 0.62614
 H1506 H 0.05091 0.50018 0.59227
 H1507 H 0.00023 0.54977 0.59281
 H1508 H 0.01553 0.56486 0.62667
 C1509 C 0.54208 0.04140 0.62881
 C1510 C 0.55172 0.02297 0.61913
 C1511 C 0.54308 0.01426 0.59978
 C1512 C 0.56269 0.06236 0.66062
 C1513 C 0.51452 0.04188 0.60023
 C1514 C 0.52321 0.05054 0.61957
 C1515 C 0.55292 0.05239 0.64663
 C1516 C 0.52470 0.02398 0.58977
 H1517 H 0.56644 0.01587 0.62604
 H1518 H 0.55136 0.00052 0.59219
 H1519 H 0.50039 0.04979 0.59301
 H1520 H 0.51571 0.06491 0.62684
 C1521 C 0.54184 0.54090 0.12889
 C1522 C 0.55142 0.52241 0.11926
 C1523 C 0.54277 0.51371 0.09990
 C1524 C 0.56245 0.56181 0.16074
 C1525 C 0.51436 0.54146 0.10024
 C1526 C 0.52304 0.55011 0.11960
 C1527 C 0.55268 0.55186 0.14673
 C1528 C 0.52447 0.52350 0.08983
 H1529 H 0.56609 0.51525 0.12622
 H1530 H 0.55102 0.49992 0.09235
 H1531 H 0.50028 0.54944 0.09298
 H1532 H 0.51559 0.56453 0.12682
 C1533 C 0.20751 0.54217 0.62171
 C1534 C 0.19805 0.52355 0.63119
 C1535 C 0.20693 0.51458 0.65032
 C1536 C 0.18641 0.56355 0.59049
 C1537 C 0.23537 0.54229 0.65000
 C1538 C 0.22645 0.55123 0.63087
 C1539 C 0.19641 0.55342 0.60421
 C1540 C 0.22536 0.52421 0.66030
 H1541 H 0.18329 0.51651 0.62432
 H1542 H 0.19876 0.50070 0.65779
 H1543 H 0.24953 0.55016 0.65721
 H1544 H 0.23382 0.56574 0.62376
 C1545 C 0.20530 0.04418 0.12406
 C1546 C 0.19612 0.02535 0.13340
 C1547 C 0.20538 0.01611 0.15221
 C1548 C 0.18414 0.06529 0.09268
 C1549 C 0.23354 0.04412 0.15197
 C1550 C 0.22423 0.05332 0.13316
 C1551 C 0.19411 0.05533 0.10654
 C1552 C 0.22395 0.02567 0.16201
 H1553 H 0.18135 0.01825 0.12659
 H1554 H 0.19750 0.00198 0.15952
 H1555 H 0.24776 0.05198 0.15908
 H1556 H 0.23137 0.06800 0.12616
 C1557 C 0.70846 0.20927 0.62878
 C1558 C 0.69892 0.22778 0.61915
 C1559 C 0.70758 0.23646 0.59978
 C1560 C 0.68783 0.18842 0.66067
 C1561 C 0.73593 0.20863 0.60011
 C1562 C 0.72723 0.20001 0.61948
 C1563 C 0.69761 0.19834 0.64665
 C1564 C 0.72586 0.22663 0.58971
 H1565 H 0.68427 0.23498 0.62612
 H1566 H 0.69937 0.25027 0.59224
 H1567 H 0.74998 0.20062 0.59284
 H1568 H 0.73465 0.18557 0.62671
 C1569 C 0.70574 0.70694 0.12653
 C1570 C 0.69596 0.72529 0.11685
 C1571 C 0.70477 0.73431 0.09770
 C1572 C 0.68560 0.68614 0.15876
 C1573 C 0.73362 0.70700 0.09825
 C1574 C 0.72477 0.69804 0.11739
 C1575 C 0.69511 0.69598 0.14450
 C1576 C 0.72347 0.72499 0.08792
 H1577 H 0.68111 0.73220 0.12368
 H1578 H 0.69646 0.74807 0.09018
 H1579 H 0.74797 0.69936 0.09117
 H1580 H 0.73237 0.68372 0.12465
 C1581 C 0.54292 0.70775 0.12209
 C1582 C 0.55244 0.72630 0.13163
 C1583 C 0.54350 0.73533 0.15071
 C1584 C 0.56400 0.68620 0.09098
 C1585 C 0.51488 0.70780 0.15020
 C1586 C 0.52386 0.69883 0.13113
 C1587 C 0.55404 0.69643 0.10465
 C1588 C 0.52495 0.72580 0.16057
 H1589 H 0.56730 0.73325 0.12486
 H1590 H 0.55172 0.74914 0.15823
 H1591 H 0.50062 0.70002 0.15732
 H1592 H 0.51644 0.68437 0.12396
 C1593 C 0.04277 0.70818 0.62194
 C1594 C 0.05228 0.72672 0.63151
 C1595 C 0.04331 0.73575 0.65056
 C1596 C 0.06392 0.68659 0.59091
 C1597 C 0.01467 0.70824 0.64999
 C1598 C 0.02368 0.69926 0.63094
 C1599 C 0.05393 0.69684 0.60454
 C1600 C 0.02473 0.72624 0.66039
 H1601 H 0.06716 0.73366 0.62477
 H1602 H 0.05152 0.74956 0.65811
 H1603 H 0.00040 0.70047 0.65708
 H1604 H 0.01627 0.68481 0.62375
 C1605 C 0.54133 0.62088 0.20858
 C1606 C 0.55062 0.63026 0.22732
 C1607 C 0.54196 0.64961 0.23604
 C1608 C 0.56222 0.58907 0.18785
 C1609 C 0.51406 0.64976 0.20778
 C1610 C 0.52277 0.63041 0.19911
 C1611 C 0.55228 0.60306 0.19767
 C1612 C 0.52391 0.65992 0.22602
 H1613 H 0.56510 0.62312 0.23469
 H1614 H 0.54999 0.65695 0.25006
 H1615 H 0.50020 0.65723 0.19961
 H1616 H 0.51555 0.62338 0.18448
 C1617 C 0.04115 0.62125 0.70833
 C1618 C 0.02265 0.63082 0.69877
 C1619 C 0.01392 0.65016 0.70744
 C1620 C 0.06209 0.58943 0.68768
 C1621 C 0.04166 0.64993 0.73585
 C1622 C 0.05035 0.63058 0.72715
 C1623 C 0.05213 0.60342 0.69747
 C1624 C 0.02368 0.66028 0.72575
 H1625 H 0.01551 0.62382 0.68410
 H1626 H 0.00011 0.65767 0.69920
 H1627 H 0.04962 0.65723 0.74993
 H1628 H 0.06477 0.62340 0.73459
 C1629 C 0.04305 0.12751 0.04333
 C1630 C 0.02428 0.11824 0.05264
 C1631 C 0.01500 0.09939 0.04347
 C1632 C 0.06496 0.15804 0.06489
 C1633 C 0.04270 0.09963 0.01502
 C1634 C 0.05194 0.11847 0.02423
 C1635 C 0.05459 0.14464 0.05472
 C1636 C 0.02448 0.08949 0.02489
 H1637 H 0.01736 0.12501 0.06753
 H1638 H 0.00103 0.09204 0.05155
 H1639 H 0.05047 0.09247 0.00075
 H1640 H 0.06655 0.12543 0.01697
 C1641 C 0.04228 0.62829 0.54265
 C1642 C 0.02367 0.61888 0.55213
 C1643 C 0.01461 0.59981 0.54321
 C1644 C 0.06374 0.65936 0.56388
 C1645 C 0.04222 0.60006 0.51467
 C1646 C 0.05124 0.61912 0.52364
 C1647 C 0.05360 0.64572 0.55380
 C1648 C 0.02415 0.58982 0.52472
 H1649 H 0.01669 0.62575 0.56695
 H1650 H 0.00074 0.59239 0.55141
 H1651 H 0.05002 0.59284 0.50046
 H1652 H 0.06575 0.62619 0.51625
 C1653 C 0.54142 0.12925 0.54152
 C1654 C 0.52290 0.11970 0.55107
 C1655 C 0.51420 0.10034 0.54244
 C1656 C 0.56229 0.16114 0.56213
 C1657 C 0.54200 0.10050 0.51408
 C1658 C 0.55066 0.11986 0.52275
 C1659 C 0.55236 0.14711 0.55236
 C1660 C 0.52400 0.09017 0.52417
 H1661 H 0.51572 0.12674 0.56571
 H1662 H 0.50038 0.09286 0.55066
 H1663 H 0.54999 0.09316 0.50003
 H1664 H 0.56510 0.12703 0.51532
 C1665 C 0.54232 0.62794 0.04268
 C1666 C 0.52366 0.61859 0.05212
 C1667 C 0.51459 0.59952 0.04322
 C1668 C 0.56378 0.65900 0.06392
 C1669 C 0.54230 0.59964 0.01477
 C1670 C 0.55133 0.61871 0.02372
 C1671 C 0.55364 0.64536 0.05384
 C1672 C 0.52417 0.58946 0.02477
 H1673 H 0.51665 0.62551 0.06690
 H1674 H 0.50067 0.59215 0.05138
 H1675 H 0.55014 0.59238 0.00060
 H1676 H 0.56588 0.62572 0.01637
 C1677 C 0.70892 0.12142 0.54174
 C1678 C 0.69989 0.13072 0.52282
 C1679 C 0.70862 0.15007 0.51418
 C1680 C 0.68792 0.08958 0.56227
 C1681 C 0.73607 0.15039 0.54288
 C1682 C 0.72729 0.13104 0.55148
 C1683 C 0.69789 0.10358 0.55252
 C1684 C 0.72647 0.16046 0.52445
 H1685 H 0.68557 0.12350 0.51524
 H1686 H 0.70079 0.15733 0.50001
 H1687 H 0.74978 0.15792 0.55124
 H1688 H 0.73431 0.12407 0.56623
 C1689 C 0.70662 0.62336 0.04353
 C1690 C 0.72515 0.63289 0.05305
 C1691 C 0.73405 0.65208 0.04423
 C1692 C 0.68609 0.59104 0.06384
 C1693 C 0.70627 0.65189 0.01585
 C1694 C 0.69742 0.63270 0.02471
 C1695 C 0.69581 0.60533 0.05424
 C1696 C 0.72444 0.66207 0.02576
 H1697 H 0.73230 0.62589 0.06773
 H1698 H 0.74798 0.65947 0.05234
 H1699 H 0.69840 0.65913 0.00168
 H1700 H 0.68296 0.62556 0.01731
 C1701 C 0.20794 0.62854 0.70747
 C1702 C 0.22650 0.61903 0.69797
 C1703 C 0.23549 0.59992 0.70688
 C1704 C 0.18645 0.65973 0.68643
 C1705 C 0.20791 0.60030 0.73545
 C1706 C 0.19897 0.61941 0.72650
 C1707 C 0.19667 0.64603 0.69637
 C1708 C 0.22593 0.58997 0.72539
 H1709 H 0.23348 0.62587 0.68314
 H1710 H 0.24932 0.59242 0.69867
 H1711 H 0.20009 0.59312 0.74968
 H1712 H 0.18450 0.62654 0.73390
 C1713 C 0.20423 0.12463 0.20358
 C1714 C 0.19531 0.11559 0.22267
 C1715 C 0.20482 0.09705 0.23220
 C1716 C 0.18272 0.15566 0.18232
 C1717 C 0.23272 0.09694 0.20393
 C1718 C 0.22315 0.11548 0.19444
 C1719 C 0.19285 0.14193 0.19230
 C1720 C 0.22340 0.08721 0.22269
 H1721 H 0.18056 0.12244 0.22979
 H1722 H 0.19714 0.08999 0.24656
 H1723 H 0.24692 0.08977 0.19609
 H1724 H 0.23010 0.12225 0.17957
 C1725 C 0.70889 1.12920 0.70837
 C1726 C 0.72738 1.11962 0.69881
 C1727 C 0.73609 1.10025 0.70745
 C1728 C 0.68803 1.16111 0.68776
 C1729 C 0.70833 1.10047 0.73585
 C1730 C 0.69967 1.11984 0.72717
 C1731 C 0.69795 1.14707 0.69754
 C1732 C 0.72631 1.09012 0.72575
 H1733 H 0.73455 1.12663 0.68415
 H1734 H 0.74989 1.09274 0.69921
 H1735 H 0.70036 1.09316 0.74992
 H1736 H 0.68525 1.12703 0.73461
 C1737 C 0.70812 0.62815 0.20718
 C1738 C 0.69928 0.61903 0.22627
 C1739 C 0.70828 0.59992 0.23516
 C1740 C 0.68652 0.65934 0.18625
 C1741 C 0.73565 0.59953 0.20639
 C1742 C 0.72660 0.61864 0.19754
 C1743 C 0.69678 0.64564 0.19614
 C1744 C 0.72622 0.58959 0.22498
 H1745 H 0.68487 0.62617 0.23378
 H1746 H 0.70057 0.59274 0.24945
 H1747 H 0.74942 0.59204 0.19809
 H1748 H 0.73348 0.62547 0.18266
 C1749 C 0.54143 0.12158 0.70813
 C1750 C 0.52304 0.13118 0.69840
 C1751 C 0.51427 0.15055 0.70698
 C1752 C 0.56243 0.08970 0.68763
 C1753 C 0.54175 0.15026 0.73565
 C1754 C 0.55048 0.13090 0.72703
 C1755 C 0.55246 0.10372 0.69736
 C1756 C 0.52388 0.16064 0.72538
 H1757 H 0.51601 0.12420 0.68367
 H1758 H 0.50055 0.15807 0.69863
 H1759 H 0.54959 0.15754 0.74980
 H1760 H 0.56482 0.12368 0.73460
 C1761 C 1.04536 0.12455 0.20472
 C1762 C 1.02648 0.13376 0.19554
 C1763 C 1.01722 0.15259 0.20475
 C1764 C 1.06630 0.09286 0.18385
 C1765 C 1.04533 0.15266 0.23280
 C1766 C 1.05455 0.13383 0.22355
 C1767 C 1.05642 0.10688 0.19368
 C1768 C 1.02679 0.16253 0.22326
 H1769 H 1.01933 0.12680 0.18085
 H1770 H 1.00303 0.15977 0.19691
 H1771 H 1.05320 0.15988 0.24697
 H1772 H 1.06926 0.12693 0.23069
 C1773 C 0.20673 0.62364 0.54375
 C1774 C 0.19765 0.63291 0.52485
 C1775 C 0.20653 0.65209 0.51599
 C1776 C 0.18611 0.59137 0.56402
 C1777 C 0.23411 0.65241 0.54456
 C1778 C 0.22518 0.63323 0.55338
 C1779 C 0.19588 0.60564 0.55444
 C1780 C 0.22461 0.66234 0.52600
 H1781 H 0.18325 0.62573 0.51736
 H1782 H 0.19874 0.65928 0.50175
 H1783 H 0.24796 0.65986 0.55275
 H1784 H 0.23224 0.62629 0.56812
 C1785 C 0.20503 0.12439 1.04505
 C1786 C 0.22383 0.13368 1.05427
 C1787 C 0.23306 0.15252 1.04505
 C1788 C 0.18408 0.09266 1.06583
 C1789 C 0.20504 0.15245 1.01690
 C1790 C 0.19587 0.13361 1.02615
 C1791 C 0.19399 0.10671 1.05607
 C1792 C 0.22352 0.16240 1.02649
 H1793 H 0.23095 0.12677 1.06900
 H1794 H 0.24719 0.15976 1.05294
 H1795 H 0.19721 0.15963 1.00268
 H1796 H 0.18121 0.12665 1.01898
 C1797 C 0.20580 0.70729 0.62671
 C1798 C 0.19606 0.72566 0.61703
 C1799 C 0.20489 0.73466 0.59789
 C1800 C 0.18560 0.68650 0.65891
 C1801 C 0.23369 0.70731 0.59845
 C1802 C 0.22483 0.69836 0.61758
 C1803 C 0.19514 0.69634 0.64467
 C1804 C 0.22358 0.72532 0.58811
 H1805 H 0.18122 0.73259 0.62386
 H1806 H 0.19661 0.74845 0.59037
 H1807 H 0.24804 0.69965 0.59137
 H1808 H 0.23240 0.68402 0.62484
 C1809 C 0.20409 0.20469 1.12475
 C1810 C 0.19493 0.22357 1.11550
 C1811 C 0.20444 0.23310 1.09695
 C1812 C 0.18262 0.18300 1.15551
 C1813 C 0.23281 0.20529 1.09733
 C1814 C 0.22326 0.19581 1.11588
 C1815 C 0.19270 0.19323 1.14193
 C1816 C 0.22323 0.22379 1.08734
 H1817 H 0.18000 0.23048 1.12214
 H1818 H 0.19656 0.24725 1.08967
 H1819 H 0.24719 0.19761 1.09036
 H1820 H 0.23039 0.18109 1.12281
 C1821 C 0.70766 0.54190 0.12154
 C1822 C 0.69831 0.52321 0.13098
 C1823 C 0.70723 0.51424 0.15009
 C1824 C 0.68648 0.56323 0.09033
 C1825 C 0.73550 0.54213 0.14984
 C1826 C 0.72654 0.55105 0.13073
 C1827 C 0.69651 0.55312 0.10404
 C1828 C 0.72559 0.52397 0.16010
 H1829 H 0.68359 0.51609 0.12408
 H1830 H 0.69914 0.50030 0.15753
 H1831 H 0.74961 0.55007 0.15707
 H1832 H 0.73382 0.56562 0.12365
 C1833 C 0.70825 1.04132 0.62115
 C1834 C 0.69863 1.02288 0.63082
 C1835 C 0.70728 1.01418 0.65018
 C1836 C 0.68765 1.06226 0.58931
 C1837 C 0.73578 1.04182 0.64976
 C1838 C 0.72710 1.05048 0.63040
 C1839 C 0.69741 1.05229 0.60331
 C1840 C 0.72563 1.02391 0.66021
 H1841 H 0.68393 1.01576 0.62389
 H1842 H 0.69900 1.00042 0.65776
 H1843 H 0.74990 1.04975 0.65699
 H1844 H 0.73458 1.06486 0.62314
 C1845 C 0.54188 0.20940 0.62102
 C1846 C 0.55145 0.22787 0.63067
 C1847 C 0.54280 0.23657 0.65003
 C1848 C 0.56250 0.18847 0.58918
 C1849 C 0.51437 0.20885 0.64965
 C1850 C 0.52306 0.20020 0.63030
 C1851 C 0.55273 0.19843 0.60318
 C1852 C 0.52448 0.22680 0.66008
 H1853 H 0.56613 0.23502 0.62372
 H1854 H 0.55104 0.25035 0.65759
 H1855 H 0.50028 0.20088 0.65690
 H1856 H 0.51561 0.18579 0.62306
 C1857 C 1.04496 0.20594 0.12396
 C1858 C 1.02590 0.19698 0.13298
 C1859 C 1.01670 0.20614 0.15186
 C1860 C 1.06574 0.18475 0.09239
 C1861 C 1.04523 0.23377 0.15235
 C1862 C 1.05439 0.22456 0.13347
 C1863 C 1.05598 0.19479 0.10634
 C1864 C 1.02652 0.22438 0.16205
 H1865 H 1.01857 0.18246 0.12586
 H1866 H 1.00236 0.19843 0.15889
 H1867 H 1.05329 0.24773 0.15977
 H1868 H 1.06925 0.23152 0.12672
 C1869 C 0.62891 0.20881 0.70884
 C1870 C 0.61959 0.22765 0.69964
 C1871 C 0.60024 0.23631 0.70830
 C1872 C 0.66077 0.18821 0.68795
 C1873 C 0.59996 0.20781 0.73601
 C1874 C 0.61931 0.19919 0.72731
 C1875 C 0.64676 0.19799 0.69788
 C1876 C 0.58987 0.22615 0.72625
 H1877 H 0.62679 0.23514 0.68524
 H1878 H 0.59296 0.25041 0.70035
 H1879 H 0.59245 0.19953 0.74980
 H1880 H 0.62629 0.18450 0.73445
 C1881 C 1.12494 0.20400 0.20458
 C1882 C 1.11612 0.22335 0.19598
 C1883 C 1.09762 0.23282 0.20560
 C1884 C 1.15569 0.18273 0.18270
 C1885 C 1.09717 0.20399 0.23297
 C1886 C 1.11567 0.19456 0.22331
 C1887 C 1.14211 0.19274 0.19300
 C1888 C 1.08762 0.22298 0.22394
 H1889 H 1.12307 0.23071 0.18139
 H1890 H 1.09070 0.24737 0.19814
 H1891 H 1.08987 0.19590 0.24698
 H1892 H 1.12227 0.17948 0.23000
 C1893 C 0.12389 0.70613 0.54398
 C1894 C 0.13328 0.72481 0.55340
 C1895 C 0.15238 0.73378 0.54454
 C1896 C 0.09158 0.68575 0.56438
 C1897 C 0.15241 0.70576 0.51634
 C1898 C 0.13330 0.69682 0.52525
 C1899 C 0.10589 0.69535 0.55471
 C1900 C 0.16242 0.72411 0.52614
 H1901 H 0.12622 0.73204 0.56801
 H1902 H 0.15964 0.74785 0.55256
 H1903 H 0.15971 0.69783 0.50224
 H1904 H 0.12627 0.68225 0.51793
 C1905 C 0.12429 0.20512 1.04392
 C1906 C 0.13372 0.19553 1.02534
 C1907 C 0.15256 0.20460 1.01603
 C1908 C 0.09272 0.18442 1.06514
 C1909 C 0.15221 0.23336 1.04347
 C1910 C 0.13336 0.22425 1.05274
 C1911 C 0.10667 0.19420 1.05514
 C1912 C 0.16231 0.22338 1.02526
 H1913 H 0.12693 0.18062 1.01849
 H1914 H 0.15993 0.19642 1.00210
 H1915 H 0.15927 0.24776 1.05107
 H1916 H 0.12630 0.23171 1.06722
 C1917 C 0.62139 0.54148 0.20887
 C1918 C 0.63068 0.52261 0.19971
 C1919 C 0.65004 0.51397 0.20835
 C1920 C 0.58951 0.56204 0.18799
 C1921 C 0.65039 0.54255 0.23598
 C1922 C 0.63103 0.55115 0.22729
 C1923 C 0.60353 0.55228 0.19791
 C1924 C 0.66046 0.52419 0.22624
 H1925 H 0.62345 0.51509 0.18534
 H1926 H 0.65730 0.49985 0.20042
 H1927 H 0.65794 0.55087 0.24972
 H1928 H 0.62407 0.56586 0.23441
 C1929 C 0.62143 1.04205 0.70899
 C1930 C 0.63069 1.02312 0.69995
 C1931 C 0.65001 1.01447 0.70867
 C1932 C 0.58967 1.06263 0.68794
 C1933 C 0.65039 1.04320 0.73613
 C1934 C 0.63106 1.05180 0.72737
 C1935 C 0.60364 1.05286 0.69794
 C1936 C 0.66042 1.02476 0.72652
 H1937 H 0.62346 1.01553 0.68561
 H1938 H 0.65725 1.00029 0.70082
 H1939 H 0.65793 1.05157 0.74984
 H1940 H 0.62413 1.06657 0.73440
 C1941 C 0.87573 0.45529 0.29495
 C1942 C 0.86640 0.47411 0.30416
 C1943 C 0.84757 0.48330 0.29494
 C1944 C 0.90742 0.43435 0.31576
 C1945 C 0.84774 0.45523 0.26679
 C1946 C 0.86657 0.44608 0.27606
 C1947 C 0.89340 0.44426 0.30599
 C1948 C 0.83775 0.47371 0.27637
 H1949 H 0.87326 0.48126 0.31890
 H1950 H 0.84029 0.49745 0.30282
 H1951 H 0.84061 0.44735 0.25257
 H1952 H 0.87356 0.43141 0.26889
 C1953 C 0.87477 0.95496 0.79611
 C1954 C 0.86598 0.94639 0.77674
 C1955 C 0.84749 0.95601 0.76728
 C1956 C 0.90551 0.93305 0.81736
 C1957 C 0.84696 0.98333 0.79615
 C1958 C 0.86546 0.97367 0.80557
 C1959 C 0.89194 0.94336 0.80736
 C1960 C 0.83745 0.97433 0.77714
 H1961 H 0.87297 0.93181 0.76937
 H1962 H 0.84059 0.94857 0.75272
 H1963 H 0.83964 0.99733 0.80426
 H1964 H 0.87204 0.98034 0.82066
 C1965 C 0.37458 0.29510 0.79505
 C1966 C 0.38382 0.27619 0.80418
 C1967 C 0.40266 0.26699 0.79498
 C1968 C 0.34287 0.31593 0.81593
 C1969 C 0.40270 0.29524 0.76701
 C1970 C 0.38386 0.30439 0.77625
 C1971 C 0.35691 0.30610 0.80609
 C1972 C 0.41259 0.27666 0.77652
 H1973 H 0.37687 0.26896 0.81884
 H1974 H 0.40986 0.25277 0.80280
 H1975 H 0.40991 0.30319 0.75287
 H1976 H 0.37694 0.31914 0.76915
 C1977 C 0.87298 0.29275 0.29342
 C1978 C 0.88234 0.27406 0.30285
 C1979 C 0.90116 0.26476 0.29370
 C1980 C 0.84248 0.31473 0.31492
 C1981 C 0.90073 0.29229 0.26502
 C1982 C 0.88191 0.30154 0.27421
 C1983 C 0.85587 0.30433 0.30477
 C1984 C 0.91095 0.27415 0.27502
 H1985 H 0.87564 0.26721 0.31781
 H1986 H 0.90857 0.25085 0.30187
 H1987 H 0.90780 0.29998 0.25068
 H1988 H 0.87488 0.31611 0.26686
 C1989 C 0.37741 0.79328 0.45674
 C1990 C 0.36812 0.77450 0.44742
 C1991 C 0.34933 0.76520 0.45663
 C1992 C 0.40778 0.81526 0.43507
 C1993 C 0.34966 0.79290 0.48514
 C1994 C 0.36845 0.80215 0.47589
 C1995 C 0.39446 0.80487 0.44530
 C1996 C 0.33950 0.77467 0.47525
 H1997 H 0.37484 0.76759 0.43250
 H1998 H 0.34196 0.75123 0.44854
 H1999 H 0.34256 0.80066 0.49943
 H2000 H 0.37542 0.81678 0.48315
 C2001 C 0.37733 0.29264 0.95648
 C2002 C 0.36838 0.30140 0.97569
 C2003 C 0.34957 0.29212 0.98486
 C2004 C 0.40781 0.31466 0.93499
 C2005 C 0.34918 0.26463 0.95615
 C2006 C 0.36799 0.27395 0.94702
 C2007 C 0.39443 0.30424 0.94514
 C2008 C 0.33937 0.27399 0.97484
 H2009 H 0.37539 0.31596 0.98306
 H2010 H 0.34248 0.29980 0.99921
 H2011 H 0.34178 0.25073 0.94796
 H2012 H 0.37470 0.26713 0.93206
 C2013 C 0.79576 0.45423 0.37467
 C2014 C 0.77691 0.44501 0.36548
 C2015 C 0.76735 0.45449 0.34694
 C2016 C 0.81747 0.43277 0.40544
 C2017 C 0.79506 0.48294 0.34719
 C2018 C 0.80458 0.47342 0.36574
 C2019 C 0.80724 0.44286 0.39186
 C2020 C 0.77660 0.47331 0.33727
 H2021 H 0.77004 0.43006 0.37217
 H2022 H 0.75322 0.44657 0.33971
 H2023 H 0.80269 0.49735 0.34017
 H2024 H 0.81927 0.48059 0.37263
 C2025 C 0.79516 0.95501 0.87555
 C2026 C 0.80440 0.97382 0.86624
 C2027 C 0.79519 0.98308 0.84741
 C2028 C 0.81604 0.93414 0.90727
 C2029 C 0.76701 0.95509 0.84754
 C2030 C 0.77626 0.94587 0.86637
 C2031 C 0.80620 0.94397 0.89323
 C2032 C 0.77662 0.97357 0.83757
 H2033 H 0.81913 0.98093 0.87311
 H2034 H 0.80309 0.99723 0.84016
 H2035 H 0.75280 0.94727 0.84038
 H2036 H 0.76908 0.93121 0.87336
 C2037 C 0.29223 0.79282 0.37199
 C2038 C 0.27373 0.80248 0.38144
 C2039 C 0.26466 0.79368 0.40055
 C2040 C 0.31377 0.81377 0.34079
 C2041 C 0.29203 0.76489 0.40026
 C2042 C 0.30106 0.77374 0.38115
 C2043 C 0.30358 0.80383 0.35450
 C2044 C 0.27408 0.77511 0.41054
 H2045 H 0.26686 0.81736 0.37456
 H2046 H 0.25088 0.80201 0.40800
 H2047 H 0.29974 0.75061 0.40747
 H2048 H 0.31548 0.76621 0.37406
 C2049 C 0.29306 0.29350 0.87251
 C2050 C 0.27419 0.30268 0.88171
 C2051 C 0.26487 0.29340 0.90048
 C2052 C 0.31501 0.31534 0.84221
 C2053 C 0.29274 0.26508 0.90029
 C2054 C 0.30201 0.27441 0.88153
 C2055 C 0.30463 0.30503 0.85550
 C2056 C 0.27441 0.27484 0.91037
 H2057 H 0.26722 0.31756 0.87495
 H2058 H 0.25082 0.30139 0.90779
 H2059 H 0.30055 0.25084 0.90745
 H2060 H 0.31671 0.26725 0.87463
 C2061 C 0.45570 0.29485 0.87587
 C2062 C 0.47423 0.30442 0.86638
 C2063 C 0.48348 0.29532 0.84749
 C2064 C 0.43447 0.31552 0.90749
 C2065 C 0.45608 0.26657 0.84795
 C2066 C 0.44688 0.27571 0.86684
 C2067 C 0.44451 0.30580 0.89352
 C2068 C 0.47422 0.27653 0.83777
 H2069 H 0.48108 0.31935 0.87314
 H2070 H 0.49736 0.30349 0.84007
 H2071 H 0.44847 0.25217 0.84090
 H2072 H 0.43243 0.26826 0.87396
 C2073 C 0.95727 0.29365 0.37724
 C2074 C 0.97606 0.30292 0.36797
 C2075 C 0.98541 0.29364 0.34921
 C2076 C 0.93522 0.31542 0.40752
 C2077 C 0.95773 0.26516 0.34953
 C2078 C 0.94843 0.27448 0.36828
 C2079 C 0.94565 0.30514 0.39424
 C2080 C 0.97597 0.27500 0.33938
 H2081 H 0.98295 0.31785 0.37468
 H2082 H 0.99938 0.30170 0.34184
 H2083 H 0.95000 0.25085 0.34243
 H2084 H 0.93380 0.26725 0.37524
 C2085 C 0.45381 0.37536 0.79498
 C2086 C 0.47313 0.36657 0.80359
 C2087 C 0.48258 0.34799 0.79406
 C2088 C 0.43263 0.40628 0.81675
 C2089 C 0.45379 0.34739 0.76673
 C2090 C 0.44437 0.36596 0.77631
 C2091 C 0.44258 0.39262 0.80648
 C2092 C 0.47276 0.33788 0.77578
 H2093 H 0.48049 0.37361 0.81814
 H2094 H 0.49712 0.34111 0.80153
 H2095 H 0.44570 0.34001 0.75276
 H2096 H 0.42931 0.37254 0.76960
 C2097 C 0.95674 0.37753 0.29287
 C2098 C 0.97593 0.36861 0.30166
 C2099 C 0.98519 0.34982 0.29237
 C2100 C 0.93509 0.40789 0.31493
 C2101 C 0.95662 0.34940 0.26480
 C2102 C 0.94740 0.36819 0.27413
 C2103 C 0.94532 0.39457 0.30450
 C2104 C 0.97528 0.33960 0.27419
 H2105 H 0.98321 0.37562 0.31626
 H2106 H 0.99951 0.34275 0.30007
 H2107 H 0.94851 0.34198 0.25086
 H2108 H 0.93245 0.37487 0.26729
 C2109 C 0.29278 0.87865 0.45825
 C2110 C 0.30220 0.86913 0.47687
 C2111 C 0.29323 0.85004 0.48586
 C2112 C 0.31390 0.90977 0.43674
 C2113 C 0.26479 0.85048 0.45815
 C2114 C 0.27379 0.86956 0.44922
 C2115 C 0.30394 0.89610 0.44697
 C2116 C 0.27476 0.84013 0.47623
 H2117 H 0.31700 0.87593 0.48390
 H2118 H 0.30138 0.84253 0.49972
 H2119 H 0.25059 0.84333 0.45029
 H2120 H 0.26645 0.87671 0.43470
 C2121 C 0.29385 0.37721 0.95678
 C2122 C 0.30313 0.36788 0.97556
 C2123 C 0.29383 0.34915 0.98494
 C2124 C 0.31566 0.40739 0.93465
 C2125 C 0.26530 0.34962 0.95733
 C2126 C 0.27464 0.36835 0.94799
 C2127 C 0.30536 0.39416 0.94511
 C2128 C 0.27515 0.33941 0.97554
 H2129 H 0.31809 0.37452 0.98241
 H2130 H 0.30189 0.34174 0.99891
 H2131 H 0.25096 0.34259 0.94962
 H2132 H 0.26740 0.37535 0.93336
 C2133 C 0.79542 0.37413 0.29387
 C2134 C 0.77627 0.38314 0.30265
 C2135 C 0.76713 0.40200 0.29338
 C2136 C 0.81613 0.34254 0.31512
 C2137 C 0.79590 0.40250 0.26601
 C2138 C 0.80501 0.38363 0.27533
 C2139 C 0.80636 0.35650 0.30510
 C2140 C 0.77710 0.41219 0.27521
 H2141 H 0.76881 0.37602 0.31711
 H2142 H 0.75271 0.40902 0.30095
 H2143 H 0.80408 0.40992 0.25212
 H2144 H 0.81994 0.37689 0.26851
   
