data_POSCAR
  _audit_creation_date              2014-09-24
  _audit_creation_method            'ToBaCCo'
  _symmetry_space_group_name_H-M    'P1'
  _symmetry_Int_Tables_number       1
  _symmetry_cell_setting            triclinic
  loop_
  _symmetry_equiv_pos_as_xyz
 x,y,z
_cell_length_a 34.3886
_cell_length_b 34.2024
_cell_length_c 33.0066
_cell_angle_alpha 86.558000
_cell_angle_beta 89.330400
_cell_angle_gamma 87.777500
loop_
  _atom_site_label
  _atom_site_type_symbol
  _atom_site_fract_x
  _atom_site_fract_y
  _atom_site_fract_z
C1 C 0.68949 0.62772 0.94859
 H2 H 0.70068 0.60267 0.93305
 C3 C 0.65506 0.64720 0.93503
 H4 H 0.64060 0.63775 0.90853
 C5 C 0.69326 0.66954 1.00298
 H6 H 0.70779 0.67751 1.03001
 C7 C 0.65901 0.68999 0.99029
 H8 H 0.64762 0.71419 1.00715
 N9 N 0.70809 0.63926 0.98186
 C10 C 0.82353 0.61987 1.03785
 H11 H 0.82191 0.58858 1.04425
 C12 C 0.85410 0.63990 1.05355
 H13 H 0.87581 0.62391 1.07218
 C14 C 0.79600 0.67896 1.00756
 H15 H 0.77308 0.69409 0.98997
 C16 C 0.82660 0.70010 1.02208
 H17 H 0.82695 0.73153 1.01581
 Zn18 Zn 0.75189 0.60865 1.00317
 N19 N 0.79452 0.63966 1.01657
 C20 C 0.78083 0.59244 0.92748
 N21 N 0.77091 0.57409 0.96363
 C22 C 0.77668 0.53459 0.97034
 C23 C 0.79276 0.51207 0.93973
 C24 C 0.79691 0.57116 0.89625
 C25 C 0.73723 0.60275 1.08625
 C26 C 0.71697 0.59157 1.12162
 C27 C 0.69256 0.53707 1.08773
 C28 C 0.71230 0.55017 1.05239
 N29 N 0.73378 0.58279 1.05213
 H30 H 0.77666 0.62393 0.92316
 H31 H 0.77020 0.52062 0.99971
 H32 H 0.79832 0.48087 0.94559
 H33 H 0.80550 0.58633 0.86800
 H34 H 0.75367 0.62908 1.08535
 H35 H 0.71918 0.60887 1.14791
 H36 H 0.67416 0.51217 1.08642
 H37 H 0.70839 0.53566 1.02462
 C38 C 0.85524 0.68068 1.04682
 C39 C 0.63955 0.67872 0.95597
 C40 C 0.69222 0.55971 1.12210
 C41 C 0.80337 0.53061 0.90238
 C42 C 0.69647 0.33262 0.55199
 H43 H 0.72308 0.32521 0.56832
 C44 C 0.66291 0.31217 0.56185
 H45 H 0.66426 0.28856 0.58522
 C46 C 0.66175 0.37375 0.50355
 H47 H 0.66107 0.39829 0.48141
 C48 C 0.62725 0.35501 0.51351
 H49 H 0.60038 0.36583 0.49933
 N50 N 0.69553 0.36251 0.52285
 C51 C 0.81427 0.37800 0.47860
 H52 H 0.81151 0.40922 0.47164
 C53 C 0.84790 0.35762 0.46694
 H54 H 0.87090 0.37354 0.45153
 C55 C 0.78627 0.31899 0.50343
 H56 H 0.76187 0.30376 0.51651
 C57 C 0.81973 0.29730 0.49230
 H58 H 0.82089 0.26570 0.49738
 Zn59 Zn 0.74075 0.39184 0.51031
 N60 N 0.78444 0.35880 0.49712
 C61 C 0.78674 0.44178 0.55351
 N62 N 0.75362 0.42119 0.55551
 C63 C 0.73278 0.41723 0.59081
 C64 C 0.74747 0.43039 0.62678
 C65 C 0.80271 0.45484 0.58873
 C66 C 0.72756 0.40555 0.42859
 C67 C 0.71285 0.42509 0.39353
 C68 C 0.70630 0.48444 0.42977
 C69 C 0.72134 0.46367 0.46434
 N70 N 0.73011 0.42460 0.46339
 H71 H 0.80236 0.44577 0.52517
 H72 H 0.70615 0.40146 0.59183
 H73 H 0.73246 0.42400 0.65529
 H74 H 0.83099 0.46780 0.58729
 H75 H 0.73451 0.37442 0.42890
 H76 H 0.70794 0.40882 0.36701
 H77 H 0.69612 0.51465 0.43155
 H78 H 0.72337 0.47800 0.49253
 C79 C 0.85125 0.31684 0.47429
 C80 C 0.62753 0.32348 0.54276
 C81 C 0.70049 0.46446 0.39452
 C82 C 0.78404 0.44722 0.62613
 C83 C 0.19426 -0.19751 0.04396
 H84 H 0.22110 -0.21147 0.05491
 C85 C 0.15893 -0.21407 0.05519
 H86 H 0.15910 -0.24123 0.07387
 C87 C 0.16089 -0.14357 0.00991
 H88 H 0.16164 -0.11571 -0.00715
 C89 C 0.12495 -0.15848 0.02151
 H90 H 0.09851 -0.14146 0.01405
 N91 N 0.19472 -0.16317 0.02096
 C92 C 0.31964 -0.15297 -0.00301
 H93 H 0.31787 -0.12136 -0.00587
 C94 C 0.35563 -0.17226 -0.00670
 H95 H 0.38075 -0.15478 -0.01275
 C96 C 0.28826 -0.21331 0.00446
 H97 H 0.26187 -0.22937 0.00655
 C98 C 0.32418 -0.23401 0.00152
 H99 H 0.32475 -0.26571 0.00278
 Zn100 Zn 0.24171 -0.13892 0.00423
 N101 N 0.28672 -0.17335 0.00260
 C102 C 0.26945 -0.06604 0.02653
 N103 N 0.25371 -0.10030 0.04053
 C104 C 0.25284 -0.11107 0.08087
 C105 C 0.26945 -0.08767 0.10875
 C106 C 0.28628 -0.04177 0.05337
 C107 C 0.24487 -0.13821 -0.08014
 C108 C 0.23704 -0.12471 -0.11997
 C109 C 0.20792 -0.06544 -0.09469
 C110 C 0.21577 -0.08045 -0.05529
 N111 N 0.23414 -0.11614 -0.04878
 H112 H 0.27180 -0.05889 -0.00568
 H113 H 0.24125 -0.13895 0.09109
 H114 H 0.27043 -0.09741 0.14058
 H115 H 0.30060 -0.01569 0.04178
 H116 H 0.25884 -0.16682 -0.07420
 H117 H 0.24646 -0.14300 -0.14419
 H118 H 0.19122 -0.03798 -0.09853
 H119 H 0.20606 -0.06406 -0.02980
 C120 C 0.35867 -0.21339 -0.00441
 C121 C 0.12361 -0.19444 0.04406
 C122 C 0.21848 -0.08753 -0.12817
 C123 C 0.28722 -0.05320 0.09475
 C124 C 0.19339 0.18076 0.42521
 H125 H 0.21294 0.17096 0.40180
 C126 C 0.15720 0.19742 0.41421
 H127 H 0.14909 0.19988 0.38252
 C128 C 0.17965 0.18957 0.49461
 H129 H 0.18817 0.18628 0.52595
 C130 C 0.14320 0.20696 0.48483
 H131 H 0.12406 0.21707 0.50863
 N132 N 0.20318 0.17518 0.46503
 C133 C 0.30886 0.15023 0.53056
 H134 H 0.30088 0.12183 0.54337
 C135 C 0.34022 0.16848 0.54666
 H136 H 0.35534 0.15467 0.57267
 C137 C 0.29946 0.20265 0.48086
 H138 H 0.28345 0.21556 0.45505
 C139 C 0.33134 0.22158 0.49554
 H140 H 0.33955 0.24952 0.48149
 Zn141 Zn 0.24687 0.14084 0.47791
 N142 N 0.28858 0.16787 0.49889
 C143 C 0.30037 0.12514 0.41485
 N144 N 0.26404 0.11794 0.42959
 C145 C 0.23897 0.09676 0.40892
 C146 C 0.25018 0.08183 0.37195
 C147 C 0.31255 0.11115 0.37781
 C148 C 0.22243 0.11383 0.55538
 C149 C 0.21022 0.08733 0.58616
 C150 C 0.21616 0.03581 0.53928
 C151 C 0.22848 0.06336 0.50928
 N152 N 0.23098 0.10173 0.51763
 H153 H 0.31994 0.14190 0.43162
 H154 H 0.21002 0.09198 0.42092
 H155 H 0.23033 0.06451 0.35595
 H156 H 0.34167 0.11660 0.36649
 H157 H 0.22632 0.14392 0.56209
 H158 H 0.20399 0.09726 0.61619
 H159 H 0.21449 0.00532 0.53256
 H160 H 0.23631 0.05384 0.47961
 C161 C 0.35130 0.20485 0.52958
 C162 C 0.13107 0.20917 0.44436
 C163 C 0.20707 0.04793 0.57815
 C164 C 0.28720 0.08942 0.35606
 C165 C 0.18760 0.44454 0.21524
 H166 H 0.18462 0.42819 0.24410
 C167 C 0.20699 0.42720 0.18321
 H168 H 0.21838 0.39727 0.18735
 C169 C 0.17292 0.50185 0.17337
 H170 H 0.15898 0.53066 0.16947
 C171 C 0.19183 0.48544 0.14031
 H172 H 0.19142 0.50117 0.11084
 N173 N 0.16937 0.48038 0.20925
 C174 C 0.13921 0.51166 0.33231
 H175 H 0.10792 0.50946 0.33192
 C176 C 0.15728 0.52363 0.36691
 H177 H 0.13978 0.53167 0.39282
 C178 C 0.19993 0.50701 0.29776
 H179 H 0.21626 0.50147 0.27039
 C180 C 0.21923 0.51842 0.33187
 H181 H 0.25031 0.52248 0.33037
 Zn182 Zn 0.13363 0.49513 0.25029
 N183 N 0.16047 0.50527 0.29813
 C184 C 0.11363 0.42532 0.29240
 N185 N 0.10150 0.45215 0.26263
 C186 C 0.06741 0.44834 0.24288
 C187 C 0.04351 0.41732 0.25374
 C188 C 0.09055 0.39396 0.30431
 C189 C 0.09826 0.57186 0.25498
 C190 C 0.07452 0.60424 0.24200
 C191 C 0.05988 0.57121 0.18175
 C192 C 0.08377 0.53950 0.19584
 N193 N 0.10225 0.54009 0.23206
 H194 H 0.14094 0.42868 0.30745
 H195 H 0.05808 0.46959 0.21930
 H196 H 0.01586 0.41514 0.23881
 H197 H 0.09978 0.37346 0.32895
 H198 H 0.11366 0.57246 0.28320
 H199 H 0.07217 0.62962 0.26010
 H200 H 0.04589 0.57049 0.15259
 H201 H 0.08808 0.51460 0.17741
 C202 C 0.19752 0.52845 0.36622
 C203 C 0.20744 0.44701 0.14483
 C204 C 0.05490 0.60396 0.20506
 C205 C 0.05488 0.39030 0.28524
 C206 C -0.15942 0.06638 0.19480
 H207 H -0.14927 0.08719 0.21521
 C208 C -0.17456 0.07999 0.15745
 H209 H -0.17561 0.11128 0.14992
 C210 C -0.16822 0.00063 0.17927
 H211 H -0.16502 -0.03033 0.18788
 C212 C -0.18344 0.01304 0.14123
 H213 H -0.19336 -0.00859 0.12144
 N214 N -0.15595 0.02731 0.20481
 C215 C -0.14071 -0.01082 0.33187
 H216 H -0.10976 -0.00646 0.33289
 C217 C -0.16050 -0.02316 0.36697
 H218 H -0.14466 -0.02874 0.39504
 C219 C -0.19867 -0.01025 0.29348
 H220 H -0.21311 -0.00535 0.26458
 C221 C -0.21967 -0.02317 0.32808
 H222 H -0.25036 -0.02859 0.32585
 Zn223 Zn -0.12741 0.01082 0.25191
 N224 N -0.15981 -0.00484 0.29607
 C225 C -0.12117 0.07787 0.29336
 N226 N -0.10002 0.05436 0.26876
 C227 C -0.06384 0.06413 0.25541
 C228 C -0.04806 0.09920 0.26633
 C229 C -0.10644 0.11263 0.30525
 C230 C -0.10263 -0.06852 0.25819
 C231 C -0.08485 -0.10294 0.24519
 C232 C -0.05040 -0.06432 0.19383
 C233 C -0.06934 -0.03053 0.20745
 N234 N -0.09501 -0.03318 0.23909
 H235 H -0.15018 0.07017 0.30294
 H236 H -0.04751 0.04532 0.23571
 H237 H -0.01956 0.10713 0.25508
 H238 H -0.12379 0.13084 0.32488
 H239 H -0.12419 -0.07057 0.28214
 H240 H -0.09274 -0.13091 0.25947
 H241 H -0.03078 -0.06196 0.16798
 H242 H -0.06502 -0.00250 0.19145
 C243 C -0.20037 -0.02957 0.36530
 C244 C -0.18569 0.05329 0.12924
 C245 C -0.05845 -0.10114 0.21259
 C246 C -0.06996 0.12423 0.29088
 C247 C 0.34729 0.56223 0.70717
 H248 H 0.36026 0.58380 0.72483
 C249 C 0.32823 0.57421 0.67122
 H250 H 0.32670 0.60503 0.66139
 C251 C 0.33273 0.49612 0.69838
 H252 H 0.33445 0.46568 0.70910
 C253 C 0.31348 0.50687 0.66200
 H254 H 0.30026 0.48479 0.64508
 N255 N 0.34935 0.52370 0.72006
 C256 C 0.36146 0.47357 0.84356
 H257 H 0.39288 0.47227 0.84526
 C258 C 0.33944 0.45608 0.87471
 H259 H 0.35395 0.44088 0.90038
 C260 C 0.30436 0.49261 0.80656
 H261 H 0.29108 0.50620 0.77944
 C262 C 0.28107 0.47512 0.83714
 H263 H 0.24986 0.47473 0.83340
 Zn264 Zn 0.37782 0.50817 0.76792
 N265 N 0.34381 0.49088 0.81011
 C266 C 0.39789 0.56401 0.82252
 N267 N 0.40642 0.55083 0.78522
 C268 C 0.43262 0.56925 0.76009
 C269 C 0.45092 0.60253 0.77210
 C270 C 0.41544 0.59694 0.83562
 C271 C 0.39238 0.42990 0.75617
 C272 C 0.41063 0.39753 0.73954
 C273 C 0.46788 0.43544 0.72694
 C274 C 0.44831 0.46739 0.74365
 N275 N 0.41061 0.46450 0.75617
 H276 H 0.37637 0.54998 0.84178
 H277 H 0.43809 0.55915 0.73006
 H278 H 0.47062 0.61785 0.75144
 H279 H 0.40742 0.60778 0.86486
 H280 H 0.36255 0.42816 0.76663
 H281 H 0.39463 0.37116 0.73677
 H282 H 0.49683 0.43868 0.71420
 H283 H 0.46252 0.49491 0.74430
 C284 C 0.29894 0.45605 0.87122
 C285 C 0.31093 0.54640 0.64834
 C286 C 0.44802 0.40084 0.72299
 C287 C 0.44177 0.61683 0.81006
 C288 C 0.64250 0.94659 0.71286
 H289 H 0.63066 0.92695 0.73631
 C290 C 0.66533 0.93143 0.68194
 H291 H 0.67063 0.90003 0.68147
 C292 C 0.64918 1.01123 0.68411
 H293 H 0.64240 1.04226 0.68485
 C294 C 0.67241 0.99727 0.65265
 H295 H 0.68357 1.01763 0.62937
 N296 N 0.63452 0.98581 0.71321
 C297 C 0.60825 1.04192 0.82441
 H298 H 0.57774 1.04925 0.81932
 C299 C 0.62707 1.05682 0.85683
 H300 H 0.61128 1.07648 0.87628
 C301 C 0.66649 1.00874 0.80396
 H302 H 0.68155 0.99033 0.78284
 C303 C 0.68640 1.02244 0.83661
 H304 H 0.71722 1.01537 0.84006
 Zn305 Zn 0.60021 1.00384 0.75380
 N306 N 0.62838 1.01943 0.79814
 C307 C 0.57352 0.94944 0.81276
 N308 N 0.56912 0.96195 0.77309
 C309 C 0.54723 0.94206 0.74766
 C310 C 0.52864 0.90817 0.76219
 C311 C 0.55564 0.91605 0.82835
 C312 C 0.59070 1.08289 0.73305
 C313 C 0.57319 1.11822 0.71851
 C314 C 0.51582 1.08353 0.70313
 C315 C 0.53432 1.04864 0.71873
 N316 N 0.57132 1.04896 0.73294
 H317 H 0.59174 0.96460 0.83246
 H318 H 0.54515 0.95183 0.71595
 H319 H 0.51126 0.89236 0.74199
 H320 H 0.55955 0.90644 0.85998
 H321 H 0.62014 1.08246 0.74430
 H322 H 0.58928 1.14484 0.71856
 H323 H 0.48687 1.08294 0.69067
 H324 H 0.51943 1.02139 0.71885
 C325 C 0.66684 1.04797 0.86243
 C326 C 0.68065 0.95690 0.65144
 C327 C 0.53538 1.11888 0.70319
 C328 C 0.53286 0.89518 0.80306
 C329 C 0.08171 0.14125 -0.15836
 H330 H 0.10039 0.14985 -0.13471
 C331 C 0.09271 0.10839 -0.17941
 H332 H 0.12000 0.09267 -0.17238
 C333 C 0.02261 0.14892 -0.19461
 H334 H -0.00562 0.16328 -0.19904
 C335 C 0.03261 0.11606 -0.21653
 H336 H 0.01256 0.10617 -0.23846
 N337 N 0.04712 0.16100 -0.16602
 C338 C 0.02671 0.28389 -0.13912
 H339 H 0.04510 0.28142 -0.11272
 C340 C 0.01009 0.32056 -0.15119
 H341 H 0.01635 0.34592 -0.13453
 C342 C -0.00777 0.25364 -0.18982
 H343 H -0.01609 0.22757 -0.20379
 C344 C -0.02505 0.28982 -0.20291
 H345 H -0.04626 0.29129 -0.22707
 Zn346 Zn 0.03259 0.20218 -0.13067
 N347 N 0.01728 0.25113 -0.15801
 C348 C 0.10696 0.22589 -0.12167
 N349 N 0.07613 0.21241 -0.09953
 C350 C 0.07538 0.21218 -0.05831
 C351 C 0.10548 0.22888 -0.03801
 C352 C 0.13772 0.24226 -0.10267
 C353 C -0.02846 0.21348 -0.07313
 C354 C -0.06592 0.20683 -0.05741
 C355 C -0.06480 0.14626 -0.09150
 C356 C -0.02710 0.15316 -0.10479
 N357 N -0.01066 0.18747 -0.09776
 H358 H 0.10631 0.22622 -0.15445
 H359 H 0.05034 0.20161 -0.04150
 H360 H 0.10352 0.23151 -0.00551
 H361 H 0.16082 0.25535 -0.12078
 H362 H -0.01474 0.24065 -0.06790
 H363 H -0.08042 0.22912 -0.04006
 H364 H -0.07781 0.11932 -0.09916
 H365 H -0.01207 0.13206 -0.12296
 C366 C -0.01694 0.32345 -0.18262
 C367 C 0.06783 0.09527 -0.20847
 C368 C -0.08598 0.17448 -0.06976
 C369 C 0.13621 0.24526 -0.06065
 C370 C 0.52521 0.17913 0.15230
 H371 H 0.55142 0.17737 0.13400
 C372 C 0.50898 0.14466 0.16845
 H373 H 0.52307 0.11653 0.16306
 C374 C 0.47247 0.21722 0.17815
 H375 H 0.45716 0.24534 0.17964
 C376 C 0.45544 0.18353 0.19506
 H377 H 0.42749 0.18590 0.21040
 N378 N 0.50646 0.21443 0.15677
 C379 C 0.55078 0.33153 0.13211
 H380 H 0.55983 0.32772 0.10106
 C381 C 0.55653 0.36698 0.14942
 H382 H 0.57110 0.39009 0.13208
 C383 C 0.52062 0.30605 0.19254
 H384 H 0.50645 0.28234 0.20910
 C385 C 0.52548 0.34127 0.21093
 H386 H 0.51542 0.34438 0.24182
 Zn387 Zn 0.52070 0.25887 0.12371
 N388 N 0.53265 0.30217 0.15354
 C389 C 0.45982 0.30961 0.09496
 N390 N 0.47617 0.27295 0.09255
 C391 C 0.45747 0.24448 0.07424
 C392 C 0.42017 0.25217 0.05853
 C393 C 0.42282 0.31850 0.07967
 C394 C 0.59942 0.24125 0.11036
 C395 C 0.63298 0.23070 0.08876
 C396 C 0.59463 0.23233 0.02775
 C397 C 0.56180 0.24323 0.05045
 N398 N 0.56465 0.24657 0.09115
 H399 H 0.47457 0.33162 0.11033
 H400 H 0.47077 0.21532 0.07366
 H401 H 0.40499 0.22926 0.04477
 H402 H 0.40971 0.34753 0.08257
 H403 H 0.60083 0.24435 0.14272
 H404 H 0.66018 0.22491 0.10462
 H405 H 0.59185 0.22785 -0.00426
 H406 H 0.53393 0.24790 0.03579
 C407 C 0.54286 0.37245 0.18888
 C408 C 0.47339 0.14675 0.18946
 C409 C 0.63057 0.22563 0.04712
 C410 C 0.40235 0.28935 0.06216
 C411 C 0.95050 0.65730 0.63134
 H412 H 0.93589 0.66797 0.60384
 C413 C 0.94045 0.62139 0.65003
 H414 H 0.91759 0.60509 0.63739
 C415 C 0.99875 0.66460 0.68070
 H416 H 1.02239 0.68071 0.69182
 C417 C 0.98930 0.62882 0.70063
 H418 H 1.00493 0.61818 0.72763
 N419 N 0.97915 0.67829 0.64675
 C420 C 1.02324 0.79516 0.61408
 H421 H 1.01833 0.79289 0.58202
 C422 C 1.04189 0.82741 0.62716
 H423 H 1.05171 0.84978 0.60517
 C424 C 1.01763 0.76802 0.68162
 H425 H 1.00794 0.74500 0.70270
 C426 C 1.03658 0.79993 0.69610
 H427 H 1.04220 0.80096 0.72822
 Zn428 Zn 0.99304 0.72352 0.61368
 N429 N 1.01247 0.76576 0.64099
 C430 C 0.92515 0.76757 0.60833
 N431 N 0.94818 0.74360 0.58612
 C432 C 0.93857 0.73552 0.54768
 C433 C 0.90580 0.75404 0.52929
 C434 C 0.89190 0.78598 0.59150
 C435 C 1.06361 0.68839 0.59841
 C436 C 1.09789 0.67889 0.57812
 C437 C 1.07167 0.71186 0.51705
 C438 C 1.03787 0.72149 0.53890
 N439 N 1.03420 0.70888 0.57870
 H440 H 0.93301 0.77280 0.63910
 H441 H 0.95610 0.71476 0.53130
 H442 H 0.89904 0.74868 0.49819
 H443 H 0.87419 0.80556 0.60933
 H444 H 1.06084 0.68013 0.63033
 H445 H 1.12101 0.66246 0.59435
 H446 H 1.07431 0.72135 0.48527
 H447 H 1.01548 0.74010 0.52434
 C448 C 1.04955 0.82948 0.66840
 C449 C 0.96018 0.60668 0.68484
 C450 C 1.10222 0.69072 0.53707
 C451 C 0.88216 0.77958 0.55146
 C452 C 0.52072 0.72502 0.33432
 H453 H 0.52925 0.75305 0.32090
 C454 C 0.53056 0.69087 0.31486
 H455 H 0.54718 0.69259 0.28677
 C456 C 0.48924 0.68823 0.38735
 H457 H 0.47362 0.68697 0.41579
 C458 C 0.49864 0.65338 0.36905
 H459 H 0.49048 0.62568 0.38374
 N460 N 0.50062 0.72317 0.37010
 C461 C 0.47791 0.84789 0.36805
 H462 H 0.49129 0.85343 0.39651
 C463 C 0.46323 0.87910 0.34308
 H464 H 0.46526 0.90862 0.35290
 C465 C 0.45702 0.80237 0.32223
 H466 H 0.45397 0.77230 0.31477
 C467 C 0.44208 0.83279 0.29619
 H468 H 0.42874 0.82593 0.26803
 Zn469 Zn 0.48900 0.77030 0.39624
 N470 N 0.47395 0.81046 0.35764
 C471 C 0.53014 0.79991 0.46070
 N472 N 0.53329 0.78576 0.42307
 C473 C 0.56782 0.78462 0.40266
 C474 C 0.60116 0.79767 0.42020
 C475 C 0.56282 0.81346 0.47934
 C476 C 0.41098 0.77350 0.42091
 C477 C 0.37875 0.75699 0.44018
 C478 C 0.42208 0.72107 0.48749
 C479 C 0.45351 0.73841 0.46743
 N480 N 0.44748 0.76203 0.43324
 H481 H 0.50213 0.80173 0.47578
 H482 H 0.56947 0.77410 0.37251
 H483 H 0.62851 0.79700 0.40358
 H484 H 0.56011 0.82539 0.50895
 H485 H 0.40687 0.79219 0.39362
 H486 H 0.35010 0.76272 0.42733
 H487 H 0.42736 0.69862 0.51157
 H488 H 0.48286 0.72946 0.47629
 C489 C 0.44331 0.87173 0.30750
 C490 C 0.51955 0.65459 0.33242
 C491 C 0.38463 0.72852 0.47199
 C492 C 0.59872 0.81219 0.45891
 C493 C 0.37207 0.01324 0.22562
 C494 C 0.14422 0.95922 0.71931
 C495 C 0.59284 0.51607 0.26101
 C496 C 0.89012 0.46525 0.76375
 C497 C 0.24737 0.35027 0.00638
 C498 C 0.75774 0.13054 0.97549
 C499 C 0.25432 0.62406 0.49485
 C500 C 0.74498 0.87842 0.51008
 C501 C -0.02027 0.26255 0.37258
 C502 C 0.98295 0.75251 0.13341
 C503 C 0.48013 0.26950 0.61890
 C504 C 0.49080 0.75251 0.89524
 C505 C 0.38494 -0.09657 0.27287
 C506 C 0.42467 -0.09687 0.28466
 C507 C 0.44599 -0.06355 0.27549
 C508 C 0.42944 -0.03032 0.25579
 C509 C 0.38960 -0.02699 0.24554
 C510 C 0.36740 -0.06194 0.25287
 C511 C 0.36108 -0.12851 0.28396
 C512 C 0.32224 -0.12824 0.27287
 C513 C 0.30539 -0.09540 0.25272
 C514 C 0.32714 -0.06249 0.24397
 H515 H 0.37131 -0.15374 0.30247
 H516 H 0.30477 -0.15317 0.28128
 H517 H 0.27472 -0.09467 0.24554
 H518 H 0.31073 -0.03699 0.23305
 H519 H 0.47662 -0.06341 0.28298
 H520 H 0.44919 -0.00716 0.24868
 C521 C 0.91946 0.36263 0.81841
 C522 C 0.95961 0.36021 0.80904
 C523 C 0.97715 0.39219 0.78942
 C524 C 0.95523 0.42560 0.77658
 C525 C 0.91419 0.42826 0.78134
 C526 C 0.89616 0.39573 0.80339
 C527 C 0.90188 0.33188 0.84163
 C528 C 0.86185 0.33218 0.84792
 C529 C 0.83855 0.36248 0.83047
 C530 C 0.85529 0.39343 0.80810
 H531 H 0.91889 0.30724 0.85505
 H532 H 0.84877 0.30826 0.86546
 H533 H 0.80723 0.36177 0.83382
 H534 H 0.83535 0.41408 0.79305
 H535 H 1.00817 0.39098 0.78320
 H536 H 0.97120 0.44932 0.76239
 C537 C 0.07742 1.02150 0.79179
 C538 C 0.07857 1.05885 0.77125
 C539 C 0.09378 1.06220 0.73210
 C540 C 0.11143 1.03007 0.71443
 C541 C 0.11497 0.99241 0.73511
 C542 C 0.09445 0.98791 0.77352
 C543 C 0.05954 1.01709 0.83046
 C544 C 0.05768 0.98041 0.85081
 C545 C 0.07301 0.94745 0.83290
 C546 C 0.09083 0.95098 0.79481
 H547 H 0.04640 1.04191 0.84509
 H548 H 0.04379 0.97747 0.88038
 H549 H 0.07088 0.91885 0.84851
 H550 H 0.10079 0.92407 0.78228
 H551 H 0.09444 1.09072 0.71595
 H552 H 0.12537 1.03705 0.68580
 C553 C 0.50915 0.58943 0.30114
 C554 C 0.53386 0.61787 0.31493
 C555 C 0.57383 0.61125 0.31368
 C556 C 0.58998 0.57812 0.29748
 C557 C 0.56734 0.54876 0.28158
 C558 C 0.52536 0.55364 0.28597
 C559 C 0.46839 0.59637 0.30189
 C560 C 0.44341 0.56816 0.29052
 C561 C 0.45841 0.53246 0.27854
 C562 C 0.49851 0.52515 0.27652
 H563 H 0.45537 0.62369 0.31133
 H564 H 0.41224 0.57377 0.29168
 H565 H 0.43879 0.51007 0.27088
 H566 H 0.50688 0.49611 0.26905
 H567 H 0.59308 0.63257 0.32466
 H568 H 0.62140 0.57670 0.29521
 C569 C 0.53635 0.44681 0.19124
 C570 C 0.54948 0.40968 0.20802
 C571 C 0.57224 0.40753 0.24249
 C572 C 0.58383 0.44103 0.25960
 C573 C 0.57219 0.47953 0.24445
 C574 C 0.54794 0.48181 0.20889
 C575 C 0.51139 0.44973 0.15739
 C576 C 0.49880 0.48611 0.14029
 C577 C 0.51021 0.52014 0.15688
 C578 C 0.53414 0.51800 0.19075
 H579 H 0.50094 0.42397 0.14414
 H580 H 0.47974 0.48790 0.11432
 H581 H 0.49984 0.54841 0.14392
 H582 H 0.54003 0.54494 0.20355
 H583 H 0.58319 0.37931 0.25520
 H584 H 0.60434 0.43519 0.28374
 C585 C 0.11545 0.85773 0.67663
 C586 C 0.07463 0.86048 0.68135
 C587 C 0.05710 0.89462 0.69487
 C588 C 0.07929 0.92555 0.70531
 C589 C 0.12065 0.92343 0.70483
 C590 C 0.13868 0.88920 0.68761
 C591 C 0.13362 0.82389 0.66103
 C592 C 0.17372 0.82094 0.65561
 C593 C 0.19652 0.85129 0.66594
 C594 C 0.17936 0.88469 0.68180
 H595 H 0.11704 0.79933 0.65288
 H596 H 0.18718 0.79490 0.64355
 H597 H 0.22780 0.84879 0.66208
 H598 H 0.19875 0.90608 0.69036
 H599 H 0.02565 0.89773 0.69665
 H600 H 0.06284 0.95128 0.71386
 C601 C 0.95446 0.53257 0.68815
 C602 C 0.94864 0.56912 0.70550
 C603 C 0.92748 0.57110 0.74130
 C604 C 0.91061 0.53824 0.75940
 C605 C 0.91527 0.50016 0.74416
 C606 C 0.93787 0.49803 0.70706
 C607 C 0.97642 0.52993 0.65192
 C608 C 0.98164 0.49445 0.63378
 C609 C 0.96536 0.46101 0.65143
 C610 C 0.94394 0.46278 0.68740
 H611 H 0.98986 0.55527 0.63736
 H612 H 0.99847 0.49286 0.60596
 H613 H 0.96961 0.43336 0.63736
 H614 H 0.93320 0.43591 0.69981
 H615 H 0.92193 0.59915 0.75432
 H616 H 0.89196 0.54471 0.78471
 C617 C 0.44505 0.09790 0.24174
 C618 C 0.45247 0.11064 0.20105
 C619 C 0.43775 0.09009 0.16991
 C620 C 0.41407 0.05861 0.17807
 C621 C 0.40438 0.04487 0.21818
 C622 C 0.42190 0.06447 0.25072
 C623 C 0.46069 0.11774 0.27377
 C624 C 0.45414 0.10514 0.31402
 C625 C 0.43264 0.07222 0.32314
 C626 C 0.41712 0.05195 0.29213
 H627 H 0.47845 0.14295 0.26800
 H628 H 0.46633 0.12064 0.33824
 H629 H 0.42830 0.06200 0.35449
 H630 H 0.40245 0.02576 0.30148
 H631 H 0.44303 0.09985 0.13854
 H632 H 0.40176 0.04682 0.15176
 C633 C 0.27730 0.38961 -0.10483
 C634 C 0.27726 0.43022 -0.09991
 C635 C 0.26414 0.44482 -0.06359
 C636 C 0.25292 0.41970 -0.03119
 C637 C 0.25626 0.37829 -0.03259
 C638 C 0.26892 0.36324 -0.07096
 C639 C 0.28793 0.37473 -0.14265
 C640 C 0.29207 0.33464 -0.14698
 C641 C 0.28718 0.30876 -0.11355
 C642 C 0.27659 0.32278 -0.07606
 H643 H 0.29335 0.39399 -0.16917
 H644 H 0.30038 0.32368 -0.17605
 H645 H 0.29238 0.27762 -0.11643
 H646 H 0.27693 0.30133 -0.05119
 H647 H 0.26381 0.47608 -0.05977
 H648 H 0.24192 0.43381 -0.00489
 C649 C 0.77926 0.97048 0.43937
 C650 C 0.78012 0.95271 0.40177
 C651 C 0.76990 0.91401 0.40036
 C652 C 0.75949 0.89248 0.43531
 C653 C 0.75756 0.90830 0.47406
 C654 C 0.77069 0.94788 0.47626
 C655 C 0.78845 1.01026 0.44080
 C656 C 0.79225 1.02720 0.47767
 C657 C 0.78833 1.00456 0.51363
 C658 C 0.77858 0.96542 0.51304
 H659 H 0.79308 1.02846 0.41332
 H660 H 0.79968 1.05763 0.47833
 H661 H 0.79349 1.01723 0.54228
 H662 H 0.77967 0.94960 0.54197
 H663 H 0.77170 0.89959 0.37201
 H664 H 0.75262 0.86244 0.43171
 C665 C 0.81310 0.05337 1.05300
 C666 C 0.80005 0.06755 1.09074
 C667 C 0.77343 0.09933 1.08995
 C668 C 0.75982 0.11719 1.05403
 C669 C 0.77016 0.10390 1.01521
 C670 C 0.79778 0.07092 1.01538
 C671 C 0.84375 0.02457 1.05149
 C672 C 0.85703 0.01094 1.01480
 C673 C 0.84089 0.02617 0.97871
 C674 C 0.81208 0.05584 0.97899
 H675 H 0.85881 0.01299 1.07834
 H676 H 0.88027 -0.01133 1.01437
 H677 H 0.85123 0.01543 0.95018
 H678 H 0.80119 0.06634 0.95020
 H679 H 0.76297 0.11126 1.11797
 H680 H 0.74218 0.14334 1.05832
 C681 C 0.25786 0.58726 0.61275
 C682 C 0.28929 0.55979 0.61106
 C683 C 0.30481 0.55084 0.57354
 C684 C 0.29108 0.57019 0.53795
 C685 C 0.26181 0.60058 0.53748
 C686 C 0.24654 0.61080 0.57715
 C687 C 0.23913 0.59311 0.65040
 C688 C 0.21250 0.62410 0.65462
 C689 C 0.20548 0.65066 0.62204
 C690 C 0.22284 0.64474 0.58442
 H691 H 0.24547 0.57398 0.67704
 H692 H 0.19877 0.62859 0.68374
 H693 H 0.18698 0.67651 0.62606
 H694 H 0.21857 0.66890 0.56301
 H695 H 0.32915 0.52990 0.57184
 H696 H 0.30520 0.56207 0.51033
 C697 C 0.22302 0.59186 0.38729
 C698 C 0.21506 0.55220 0.39672
 C699 C 0.22244 0.53569 0.43558
 C700 C 0.23694 0.55799 0.46559
 C701 C 0.24607 0.59792 0.45802
 C702 C 0.24007 0.61440 0.41700
 C703 C 0.21353 0.60980 0.34862
 C704 C 0.22261 0.64831 0.33824
 C705 C 0.24158 0.66957 0.36579
 C706 C 0.25025 0.65285 0.40426
 H707 H 0.19881 0.59447 0.32594
 H708 H 0.21548 0.66147 0.30847
 H709 H 0.24987 0.69920 0.35732
 H710 H 0.26667 0.67020 0.42246
 H711 H 0.21551 0.50549 0.44321
 H712 H 0.23842 0.54381 0.49562
 C713 C 0.69374 0.10960 0.88133
 C714 C 0.68792 0.06907 0.88908
 C715 C 0.70392 0.04944 0.92359
 C716 C 0.72480 0.06929 0.95117
 C717 C 0.73387 0.10908 0.94380
 C718 C 0.71682 0.12974 0.90836
 C719 C 0.67907 0.13000 0.84565
 C720 C 0.68606 0.16937 0.83710
 C721 C 0.70877 0.18900 0.86296
 C722 C 0.72435 0.16939 0.89754
 H723 H 0.66272 0.11574 0.82341
 H724 H 0.67459 0.18444 0.80976
 H725 H 0.71524 0.21936 0.85567
 H726 H 0.74383 0.18540 0.91428
 H727 H 0.69891 0.01859 0.93014
 H728 H 0.73361 0.05273 0.97856
 C729 C 0.73558 0.91438 0.62371
 C730 C 0.70322 0.94060 0.61733
 C731 C 0.68906 0.94815 0.57836
 C732 C 0.70469 0.92854 0.54616
 C733 C 0.73453 0.89879 0.55075
 C734 C 0.75019 0.89117 0.59153
 C735 C 0.75334 0.91086 0.66225
 C736 C 0.78303 0.88316 0.67080
 C737 C 0.79499 0.85792 0.64155
 C738 C 0.77872 0.86142 0.60298
 H739 H 0.74445 0.92971 0.68616
 H740 H 0.79607 0.88057 0.70058
 H741 H 0.81687 0.83506 0.64889
 H742 H 0.78824 0.83854 0.58436
 H743 H 0.66469 0.96875 0.57284
 H744 H 0.69251 0.93672 0.51669
 C745 C 0.18590 0.39972 0.09523
 C746 C 0.21474 0.42398 0.10884
 C747 C 0.25173 0.42244 0.09166
 C748 C 0.26032 0.39825 0.06015
 C749 C 0.23278 0.37331 0.04453
 C750 C 0.19541 0.37155 0.06589
 C751 C 0.14782 0.40216 0.11200
 C752 C 0.12024 0.37552 0.10321
 C753 C 0.13041 0.34505 0.07907
 C754 C 0.16741 0.34244 0.06162
 H755 H 0.13905 0.42447 0.13251
 H756 H 0.09141 0.37755 0.11662
 H757 H 0.10966 0.32278 0.07428
 H758 H 0.17293 0.31579 0.04696
 H759 H 0.27421 0.44040 0.10255
 H760 H 0.28919 0.39989 0.04692
 C761 C -0.07581 0.30851 0.46550
 C762 C -0.11355 0.29541 0.45922
 C763 C -0.11840 0.26642 0.43214
 C764 C -0.08775 0.25411 0.40764
 C765 C -0.05124 0.27219 0.40659
 C766 C -0.04490 0.29897 0.43803
 C767 C -0.06894 0.33255 0.49779
 C768 C -0.03323 0.34954 0.50162
 C769 C -0.00425 0.34376 0.47280
 C770 C -0.01016 0.31943 0.44123
 H771 H -0.09133 0.33848 0.52018
 H772 H -0.02847 0.36826 0.52626
 H773 H 0.02282 0.35868 0.47453
 H774 H 0.01204 0.31928 0.41849
 H775 H -0.14681 0.25463 0.42814
 H776 H -0.09407 0.23082 0.38858
 C777 C 0.43278 0.78305 0.99369
 C778 C 0.39680 0.76676 0.98516
 C779 C 0.39725 0.73618 0.95902
 C780 C 0.43009 0.72797 0.93559
 C781 C 0.46180 0.75339 0.93287
 C782 C 0.46519 0.77806 0.96660
 C783 C 0.43637 0.80552 1.02783
 C784 C 0.47022 0.82514 1.03412
 C785 C 0.50081 0.82287 1.00645
 C786 C 0.49826 0.79991 0.97314
 H787 H 0.41281 0.80808 1.04968
 H788 H 0.47250 0.84264 1.06019
 H789 H 0.52681 0.83890 1.01087
 H790 H 0.52254 0.79998 0.95314
 H791 H 0.37129 0.72030 0.95405
 H792 H 0.42847 0.70300 0.91740
 C793 C 1.05132 0.78889 0.04015
 C794 C 1.08623 0.79200 0.06215
 C795 C 1.08533 0.78563 0.10404
 C796 C 1.05187 0.77459 0.12413
 C797 C 1.01636 0.76917 0.10420
 C798 C 1.01546 0.78021 0.06130
 C799 C 1.05135 0.79454 -0.00254
 C800 C 1.01674 0.79572 -0.02403
 C801 C 0.98155 0.79197 -0.00343
 C802 C 0.98075 0.78483 0.03859
 H803 H 1.07809 0.79822 -0.01969
 H804 H 1.01716 0.80061 -0.05673
 H805 H 0.95457 0.79466 -0.02014
 H806 H 0.95233 0.78433 0.05229
 H807 H 1.11110 0.78923 0.12185
 H808 H 1.05460 0.76880 0.15631
 C809 C 0.56046 0.29502 0.53181
 C810 C 0.59029 0.30628 0.55759
 C811 C 0.58374 0.30428 0.59918
 C812 C 0.54895 0.29207 0.61558
 C813 C 0.51662 0.28291 0.59185
 C814 C 0.52252 0.28578 0.54813
 C815 C 0.56796 0.29261 0.48987
 C816 C 0.53850 0.28502 0.46339
 C817 C 0.50095 0.28036 0.47799
 C818 C 0.49292 0.28114 0.51941
 H819 H 0.59680 0.29636 0.47716
 H820 H 0.54464 0.28375 0.43124
 H821 H 0.47769 0.27633 0.45700
 H822 H 0.46271 0.28016 0.52701
 H823 H 0.60589 0.31261 0.61975
 H824 H 0.54752 0.28949 0.64837
 C825 C 0.37359 0.25901 0.57199
 C826 C 0.38214 0.22581 0.54949
 C827 C 0.41934 0.20851 0.55078
 C828 C 0.44854 0.22382 0.57291
 C829 C 0.44263 0.25741 0.59579
 C830 C 0.40272 0.27380 0.59742
 C831 C 0.33542 0.27622 0.57144
 C832 C 0.32499 0.30661 0.59574
 C833 C 0.35148 0.31906 0.62277
 C834 C 0.38899 0.30231 0.62453
 H835 H 0.31275 0.26611 0.55281
 H836 H 0.29566 0.31932 0.59489
 H837 H 0.34257 0.34112 0.64355
 H838 H 0.40467 0.31114 0.64979
 H839 H 0.42597 0.18256 0.53430
 H840 H 0.47703 0.20954 0.57085
 C841 C 0.87444 0.72878 0.09871
 C842 C 0.88475 0.70269 0.06825
 C843 C 0.92390 0.69448 0.06038
 C844 C 0.95289 0.71160 0.08142
 C845 C 0.94517 0.73886 0.11153
 C846 C 0.90406 0.74718 0.12086
 C847 C 0.83465 0.73538 0.10871
 C848 C 0.82312 0.76026 0.13852
 C849 C 0.85079 0.77832 0.15994
 C850 C 0.89021 0.77162 0.15186
 H851 H 0.81170 0.72095 0.09417
 H852 H 0.79253 0.76500 0.14553
 H853 H 0.84168 0.79712 0.18384
 H854 H 0.90799 0.78551 0.17235
 H855 H 0.93230 0.67406 0.03768
 H856 H 0.98247 0.70366 0.07305
 C857 C 0.60470 0.73743 0.91997
 C858 C 0.60359 0.70050 0.94142
 C859 C 0.56771 0.68478 0.95124
 C860 C 0.53314 0.70379 0.93822
 C861 C 0.53220 0.73970 0.91427
 C862 C 0.56920 0.75872 0.90879
 C863 C 0.64095 0.75404 0.91045
 C864 C 0.64287 0.79207 0.89351
 C865 C 0.60897 0.81470 0.88725
 C866 C 0.57290 0.79871 0.89563
 H867 H 0.66819 0.73801 0.91662
 H868 H 0.67084 0.80457 0.88684
 H869 H 0.61059 0.84514 0.87650
 H870 H 0.54878 0.81945 0.89393
 H871 H 0.56643 0.65688 0.96849
 H872 H 0.50651 0.68870 0.94494
 C873 C 0.05743 0.20310 0.44334
 C874 C 0.09138 0.22356 0.43256
 C875 C 0.08854 0.25654 0.40609
 C876 C 0.05350 0.26881 0.38866
 C877 C 0.01847 0.24873 0.39622
 C878 C 0.02079 0.21553 0.42549
 C879 C 0.05957 0.16929 0.47017
 C880 C 0.02661 0.14835 0.48013
 C881 C -0.00885 0.15988 0.46283
 C882 C -0.01170 0.19254 0.43559
 H883 H 0.08669 0.15835 0.48349
 H884 H 0.02877 0.12259 0.50082
 H885 H -0.03424 0.14289 0.46987
 H886 H -0.03938 0.19794 0.42152
 H887 H 0.11423 0.27286 0.39816
 H888 H 0.05478 0.29566 0.37011
 C889 C 0.48369 0.17479 0.69679
 C890 C 0.51865 0.15607 0.68390
 C891 C 0.53927 0.17310 0.65145
 C892 C 0.52675 0.20829 0.63218
 C893 C 0.49304 0.23002 0.64466
 C894 C 0.47008 0.21108 0.67659
 C895 C 0.46215 0.15829 0.72982
 C896 C 0.42698 0.17564 0.74179
 C897 C 0.41277 0.20977 0.72141
 C898 C 0.43400 0.22719 0.68946
 H899 H 0.47227 0.13192 0.74682
 H900 H 0.41067 0.16253 0.76700
 H901 H 0.38535 0.22321 0.73076
 H902 H 0.42207 0.25381 0.67591
 H903 H 0.56547 0.15852 0.64028
 H904 H 0.54388 0.21714 0.60586
 C905 C 0.99966 0.65609 0.20696
 C906 C 1.03316 0.63953 0.18837
 C907 C 1.04708 0.65713 0.15244
 C908 C 1.03019 0.69168 0.13593
 C909 C 0.99922 0.71251 0.15524
 C910 C 0.98219 0.69233 0.19033
 C911 C 0.98281 0.63684 0.24149
 C912 C 0.94983 0.65285 0.26000
 C913 C 0.93322 0.68822 0.24464
 C914 C 0.94925 0.70764 0.21045
 H915 H 0.99473 0.60910 0.25423
 H916 H 0.93723 0.63783 0.28651
 H917 H 0.90791 0.70091 0.25947
 H918 H 0.93633 0.73527 0.20114
 H919 H 1.07178 0.64404 0.13684
 H920 H 1.04232 0.70163 0.10698
 C921 C 0.97718 0.83166 0.21827
 C922 C 0.95685 0.86208 0.19526
 C923 C 0.94966 0.85743 0.15454
 C924 C 0.95931 0.82257 0.13709
 C925 C 0.97583 0.78935 0.15935
 C926 C 0.98831 0.79553 0.20021
 C927 C 0.98848 0.83757 0.25842
 C928 C 1.01049 0.80922 0.28074
 C929 C 1.02306 0.77519 0.26312
 C930 C 1.01297 0.76878 0.22338
 H931 H 0.98143 0.86462 0.27267
 H932 H 1.01899 0.81429 0.31141
 H933 H 1.04164 0.75393 0.28003
 H934 H 1.02685 0.74338 0.21160
 H935 H 0.93487 0.88063 0.13615
 H936 H 0.95143 0.82093 0.10578
 C937 C 0.45811 0.37713 0.65285
 C938 C 0.46225 0.37102 0.69532
 C939 C 0.47450 0.33431 0.71189
 C940 C 0.48106 0.30299 0.68742
 C941 C 0.47328 0.30607 0.64526
 C942 C 0.46382 0.34494 0.62754
 C943 C 0.44658 0.41449 0.63520
 C944 C 0.44123 0.42044 0.59359
 C945 C 0.44622 0.38929 0.56887
 C946 C 0.45681 0.35215 0.58562
 H947 H 0.44132 0.43955 0.65316
 H948 H 0.43249 0.44920 0.58059
 H949 H 0.44105 0.39369 0.53659
 H950 H 0.45756 0.32917 0.56540
 H951 H 0.47843 0.32965 0.74437
 H952 H 0.49242 0.27621 0.70246
 C953 C 0.43021 0.68795 0.82353
 C954 C 0.45569 0.65482 0.82202
 C955 C 0.49361 0.65691 0.83556
 C956 C 0.50514 0.68946 0.85508
 C957 C 0.47852 0.72051 0.86470
 C958 C 0.44148 0.72126 0.84416
 C959 C 0.39335 0.68823 0.80488
 C960 C 0.36772 0.72052 0.80627
 C961 C 0.37825 0.75299 0.82615
 C962 C 0.41440 0.75329 0.84472
 H963 H 0.38423 0.66368 0.78857
 H964 H 0.33966 0.72040 0.79176
 H965 H 0.35828 0.77817 0.82727
 H966 H 0.42025 0.77895 0.85934
 H967 H 0.51418 0.63244 0.83238
 H968 H 0.53540 0.68905 0.86339
 C969 C -0.07721 0.19776 0.29788
 C970 C -0.05511 0.16210 0.30283
 C971 C -0.01951 0.16190 0.32230
 C972 C -0.00791 0.19471 0.34114
 C973 C -0.03262 0.22873 0.34452
 C974 C -0.06619 0.23128 0.31846
 C975 C -0.10985 0.20075 0.27208
 C976 C -0.13202 0.23552 0.26712
 C977 C -0.12203 0.26794 0.28744
 C978 C -0.08965 0.26590 0.31254
 H979 H -0.11804 0.17649 0.25483
 H980 H -0.15695 0.23736 0.24727
 H981 H -0.13937 0.29498 0.28361
 H982 H -0.08371 0.29183 0.32706
 H983 H -0.00089 0.13557 0.32423
 H984 H 0.02089 0.19207 0.35373
 C985 C -0.00289 0.36994 0.32788
 C986 C 0.02802 0.36055 0.30125
 C987 C 0.03409 0.32214 0.29032
 C988 C 0.01378 0.29207 0.30987
 C989 C -0.01259 0.29910 0.34223
 C990 C -0.02571 0.33946 0.34609
 C991 C -0.01173 0.40936 0.33636
 C992 C -0.04459 0.41930 0.35893
 C993 C -0.06967 0.39048 0.37248
 C994 C -0.06084 0.35130 0.36568
 H995 H 0.00616 0.43299 0.32494
 H996 H -0.05136 0.44965 0.36465
 H997 H -0.09633 0.39853 0.38818
 H998 H -0.08294 0.33136 0.37522
 H999 H 0.05673 0.31497 0.26857
 H1000 H 0.02292 0.26252 0.30322
 C1001 C 0.48483 0.86389 0.85179
 C1002 C 0.51314 0.86050 0.82081
 C1003 C 0.52587 0.82360 0.80964
 C1004 C 0.51521 0.79017 0.83240
 C1005 C 0.49142 0.79190 0.86778
 C1006 C 0.47194 0.82959 0.87434
 C1007 C 0.46822 0.90123 0.85954
 C1008 C 0.43797 0.90521 0.88725
 C1009 C 0.42278 0.87219 0.90663
 C1010 C 0.43898 0.83510 0.90003
 H1011 H 0.47744 0.92767 0.84314
 H1012 H 0.42509 0.93391 0.89230
 H1013 H 0.39736 0.87532 0.92587
 H1014 H 0.42250 0.81155 0.91298
 H1015 H 0.54695 0.82073 0.78522
 H1016 H 0.52925 0.76278 0.82447
 C1017 C 0.64116 0.58203 0.16888
 C1018 C 0.66688 0.55246 0.15349
 C1019 C 0.66431 0.51407 0.16993
 C1020 C 0.64136 0.50527 0.20381
 C1021 C 0.61658 0.53328 0.22228
 C1022 C 0.61449 0.57245 0.20186
 C1023 C 0.63783 0.61982 0.14835
 C1024 C 0.61129 0.64834 0.16048
 C1025 C 0.58506 0.63935 0.19109
 C1026 C 0.58554 0.60200 0.21009
 H1027 H 0.65410 0.62770 0.12118
 H1028 H 0.60966 0.67691 0.14447
 H1029 H 0.56274 0.66093 0.19886
 H1030 H 0.56052 0.59757 0.22871
 H1031 H 0.68269 0.49066 0.15843
 H1032 H 0.64374 0.47537 0.21647
 C1033 C 0.22193 1.00774 0.64320
 C1034 C 0.19620 1.01944 0.61136
 C1035 C 0.15914 1.00468 0.61140
 C1036 C 0.14538 0.98269 0.64487
 C1037 C 0.16784 0.97473 0.68040
 C1038 C 0.20894 0.98294 0.67680
 C1039 C 0.26097 1.01938 0.64124
 C1040 C 0.28769 1.00544 0.67033
 C1041 C 0.27654 0.97858 0.70090
 C1042 C 0.23821 0.96683 0.70366
 H1043 H 0.27151 1.03857 0.61663
 H1044 H 0.31756 1.01433 0.66822
 H1045 H 0.29792 0.96614 0.72230
 H1046 H 0.23352 0.94354 0.72608
 H1047 H 0.13967 1.01242 0.58637
 H1048 H 0.11508 0.97528 0.64437
 C1049 C 0.20790 0.96468 0.81794
 C1050 C 0.20766 0.92481 0.83336
 C1051 C 0.19291 0.89722 0.80846
 C1052 C 0.17402 0.90840 0.77268
 C1053 C 0.17056 0.94780 0.75727
 C1054 C 0.18946 0.97633 0.78010
 C1055 C 0.22956 0.99250 0.83738
 C1056 C 0.23045 1.03129 0.82240
 C1057 C 0.21154 1.04304 0.78668
 C1058 C 0.19211 1.01596 0.76542
 H1059 H 0.24720 0.98436 0.86366
 H1060 H 0.24686 1.05210 0.83801
 H1061 H 0.21317 1.07303 0.77447
 H1062 H 0.18134 1.02647 0.73629
 H1063 H 0.19154 0.86661 0.81874
 H1064 H 0.15969 0.88509 0.75930
 C1065 C 0.63249 0.47572 0.36877
 C1066 C 0.67281 0.48045 0.36329
 C1067 C 0.68687 0.49642 0.32646
 C1068 C 0.66171 0.50755 0.29464
 C1069 C 0.62113 0.50149 0.29729
 C1070 C 0.60655 0.48566 0.33601
 C1071 C 0.61757 0.46017 0.40634
 C1072 C 0.57810 0.45426 0.41182
 C1073 C 0.55278 0.46296 0.37998
 C1074 C 0.56679 0.47799 0.34274
 H1075 H 0.63615 0.45231 0.43194
 H1076 H 0.56722 0.44232 0.44071
 H1077 H 0.52212 0.45750 0.38390
 H1078 H 0.54608 0.48182 0.31915
 H1079 H 0.71781 0.50038 0.32226
 H1080 H 0.67492 0.52181 0.26824
 C1081 C 0.82777 0.41451 0.67973
 C1082 C 0.80700 0.44835 0.66381
 C1083 C 0.81362 0.48439 0.67917
 C1084 C 0.83965 0.48748 0.71063
 C1085 C 0.86190 0.45502 0.72806
 C1086 C 0.85763 0.41768 0.70936
 C1087 C 0.82079 0.37760 0.66436
 C1088 C 0.84361 0.34458 0.67559
 C1089 C 0.87510 0.34789 0.70047
 C1090 C 0.88271 0.38375 0.71594
 H1091 H 0.79800 0.37371 0.64292
 H1092 H 0.83794 0.31672 0.66333
 H1093 H 0.89457 0.32270 0.70698
 H1094 H 0.91026 0.38338 0.73030
 H1095 H 0.79861 0.51065 0.66643
 H1096 H 0.84236 0.51637 0.72177
 C1097 C 0.35153 -0.04129 0.12683
 C1098 C 0.31132 -0.03236 0.12251
 C1099 C 0.29332 -0.00450 0.14608
 C1100 C 0.31367 0.01254 0.17612
 C1101 C 0.35329 0.00225 0.18448
 C1102 C 0.37307 -0.02322 0.15690
 C1103 C 0.37065 -0.06844 0.10194
 C1104 C 0.41038 -0.07689 0.10544
 C1105 C 0.43189 -0.05830 0.13338
 C1106 C 0.41369 -0.03177 0.15857
 H1107 H 0.35515 -0.08325 0.07937
 H1108 H 0.42463 -0.09758 0.08603
 H1109 H 0.46297 -0.06433 0.13547
 H1110 H 0.43234 -0.01745 0.17840
 H1111 H 0.26253 0.00273 0.14259
 H1112 H 0.29633 0.03105 0.19510
 C1113 C 0.30840 0.09229 0.28208
 C1114 C 0.30132 0.07101 0.31918
 C1115 C 0.31100 0.03133 0.32309
 C1116 C 0.33086 0.01296 0.29253
 C1117 C 0.34113 0.03279 0.25509
 C1118 C 0.32705 0.07314 0.24926
 C1119 C 0.29717 0.13241 0.27713
 C1120 C 0.30341 0.15353 0.24043
 C1121 C 0.32029 0.13503 0.20793
 C1122 C 0.33167 0.09545 0.21207
 H1123 H 0.28315 0.14766 0.30147
 H1124 H 0.29459 0.18426 0.23701
 H1125 H 0.32435 0.15137 0.17916
 H1126 H 0.34308 0.08264 0.18527
 H1127 H 0.30579 0.01485 0.35162
 H1128 H 0.34090 -0.01628 0.30144
 C1129 C 0.86609 0.50275 0.87353
 C1130 C 0.82540 0.50922 0.87118
 C1131 C 0.80620 0.50034 0.83620
 C1132 C 0.82647 0.48572 0.80325
 C1133 C 0.86760 0.48042 0.80266
 C1134 C 0.88762 0.48976 0.83913
 C1135 C 0.88602 0.51092 0.90913
 C1136 C 0.92635 0.50751 0.91096
 C1137 C 0.94767 0.49729 0.87708
 C1138 C 0.92876 0.48929 0.84161
 H1139 H 0.87074 0.52035 0.93586
 H1140 H 0.94116 0.51397 0.93840
 H1141 H 0.97916 0.49633 0.87797
 H1142 H 0.94728 0.48498 0.81592
 H1143 H 0.77494 0.50517 0.83420
 H1144 H 0.80870 0.47814 0.77848
 C1145 C 0.16722 0.70474 0.50224
 C1146 C 0.13837 0.67853 0.51592
 C1147 C 0.14594 0.63854 0.51540
 C1148 C 0.18259 0.62387 0.50648
 C1149 C 0.21428 0.64804 0.49613
 C1150 C 0.20525 0.68991 0.49044
 C1151 C 0.15919 0.74559 0.50151
 C1152 C 0.18670 0.77189 0.48749
 C1153 C 0.22272 0.75815 0.47416
 C1154 C 0.23193 0.71807 0.47564
 H1155 H 0.13154 0.75774 0.51162
 H1156 H 0.17996 0.80310 0.48677
 H1157 H 0.24397 0.77877 0.46286
 H1158 H 0.26034 0.71103 0.46470
 H1159 H 0.12393 0.61816 0.52544
 H1160 H 0.18673 0.59248 0.51118
 C1161 C 0.69715 0.22590 1.01172
 C1162 C 0.66353 0.20654 1.02574
 C1163 C 0.66063 0.16700 1.02048
 C1164 C 0.69080 0.14579 1.00353
 C1165 C 0.72607 0.16260 0.98922
 C1166 C 0.72817 0.20472 0.99163
 C1167 C 0.69980 0.26639 1.01660
 C1168 C 0.73135 0.28671 1.00102
 C1169 C 0.76018 0.26739 0.97935
 C1170 C 0.75843 0.22735 0.97417
 H1171 H 0.67718 0.28280 1.03204
 H1172 H 0.73287 0.31785 1.00475
 H1173 H 0.78383 0.28373 0.96572
 H1174 H 0.78008 0.21610 0.95409
 H1175 H 0.63510 0.15177 1.03130
 H1176 H 0.68703 0.11453 1.00370
 C1177 C 0.85085 0.15727 0.90671
 C1178 C 0.87512 0.17071 0.93699
 C1179 C 0.85883 0.17638 0.97529
 C1180 C 0.82165 0.16371 0.98525
 C1181 C 0.79800 0.14519 0.95758
 C1182 C 0.81497 0.13956 0.91748
 C1183 C 0.86169 0.16227 0.86515
 C1184 C 0.84222 0.14382 0.83560
 C1185 C 0.81263 0.11919 0.84708
 C1186 C 0.79993 0.11619 0.88736
 H1187 H 0.88584 0.18008 0.85544
 H1188 H 0.85146 0.14701 0.80414
 H1189 H 0.79941 0.10211 0.82472
 H1190 H 0.77980 0.09356 0.89319
 H1191 H 0.87587 0.18784 0.99898
 H1192 H 0.81108 0.16847 1.01565
 C1193 C 0.35377 0.66664 0.45442
 C1194 C 0.35519 0.69877 0.47934
 C1195 C 0.32954 0.70160 0.51192
 C1196 C 0.29953 0.67567 0.51734
 C1197 C 0.29299 0.64674 0.48950
 C1198 C 0.32453 0.63846 0.46141
 C1199 C 0.38180 0.66166 0.42316
 C1200 C 0.38315 0.62834 0.40111
 C1201 C 0.35737 0.59895 0.41030
 C1202 C 0.32893 0.60352 0.44024
 H1203 H 0.40339 0.68312 0.41579
 H1204 H 0.40508 0.62478 0.37766
 H1205 H 0.35954 0.57222 0.39430
 H1206 H 0.31204 0.57825 0.44655
 H1207 H 0.33174 0.72505 0.53234
 H1208 H 0.27933 0.68074 0.54176
 C1209 C 0.65311 0.81101 0.51022
 C1210 C 0.63339 0.82861 0.47621
 C1211 C 0.64707 0.86266 0.45707
 C1212 C 0.68113 0.87834 0.46932
 C1213 C 0.70496 0.85973 0.50018
 C1214 C 0.68840 0.82707 0.52319
 C1215 C 0.63876 0.77720 0.53111
 C1216 C 0.65777 0.76004 0.56502
 C1217 C 0.69146 0.77593 0.57843
 C1218 C 0.70651 0.80877 0.55776
 H1219 H 0.61277 0.76369 0.52152
 H1220 H 0.64640 0.73425 0.58087
 H1221 H 0.70639 0.76242 0.60469
 H1222 H 0.73294 0.81867 0.56865
 H1223 H 0.63108 0.87742 0.43209
 H1224 H 0.68824 0.90589 0.45387
 C1225 C 0.15407 0.31316 -0.04514
 C1226 C 0.16215 0.27231 -0.04227
 C1227 C 0.19564 0.25718 -0.02306
 C1228 C 0.22194 0.28187 -0.00722
 C1229 C 0.21580 0.32318 -0.00925
 C1230 C 0.18026 0.33885 -0.02807
 C1231 C 0.11971 0.32884 -0.06414
 C1232 C 0.11061 0.36883 -0.06562
 C1233 C 0.13490 0.39386 -0.04744
 C1234 C 0.16886 0.37917 -0.02854
 H1235 H 0.09924 0.31037 -0.07763
 H1236 H 0.08413 0.38030 -0.08011
 H1237 H 0.12710 0.42482 -0.04738
 H1238 H 0.18467 0.39989 -0.01284
 H1239 H 0.20209 0.22586 -0.02129
 H1240 H 0.24817 0.26782 0.00499
 C1241 C 0.32886 0.28627 0.06856
 C1242 C 0.36253 0.29882 0.04746
 C1243 C 0.35885 0.32571 0.01461
 C1244 C 0.32279 0.34073 0.00231
 C1245 C 0.28721 0.32850 0.02069
 C1246 C 0.29111 0.30120 0.05569
 C1247 C 0.33223 0.26022 0.10333
 C1248 C 0.29943 0.24871 0.12527
 C1249 C 0.26282 0.26306 0.11323
 C1250 C 0.25877 0.28895 0.07918
 H1251 H 0.36023 0.24871 0.11408
 H1252 H 0.30246 0.22869 0.15182
 H1253 H 0.23731 0.25406 0.13035
 H1254 H 0.22991 0.29847 0.07134
 H1255 H 0.38461 0.33679 -0.00071
 H1256 H 0.32438 0.36392 -0.02108
 C1257 C 0.81566 0.78427 0.51778
 C1258 C 0.84861 0.80194 0.53291
 C1259 C 0.84980 0.84266 0.53143
 C1260 C 0.81710 0.86579 0.52109
 C1261 C 0.78138 0.84931 0.51173
 C1262 C 0.78328 0.80842 0.50312
 C1263 C 0.81428 0.74315 0.51657
 C1264 C 0.78421 0.72626 0.49681
 C1265 C 0.75572 0.74997 0.47720
 C1266 C 0.75557 0.79052 0.47961
 H1267 H 0.83657 0.72369 0.53027
 H1268 H 0.78378 0.69474 0.49549
 H1269 H 0.73351 0.73689 0.46001
 H1270 H 0.73390 0.80697 0.46191
 H1271 H 0.87554 0.85673 0.54114
 H1272 H 0.81899 0.89679 0.52439
   
