data_POSCAR
  _audit_creation_date              2014-09-24
  _audit_creation_method            'ToBaCCo'
  _symmetry_space_group_name_H-M    'P1'
  _symmetry_Int_Tables_number       1
  _symmetry_cell_setting            triclinic
  loop_
  _symmetry_equiv_pos_as_xyz
 x,y,z
_cell_length_a 41.2144
_cell_length_b 41.4047
_cell_length_c 41.4506
_cell_angle_alpha 90.371200
_cell_angle_beta 90.108500
_cell_angle_gamma 90.153800
loop_
  _atom_site_label
  _atom_site_type_symbol
  _atom_site_fract_x
  _atom_site_fract_y
  _atom_site_fract_z
N1 N 0.34932 1.34265 0.34849
 N2 N 0.33331 0.83386 0.83904
 N3 N 0.85677 1.35888 0.85595
 N4 N 0.84138 0.83732 0.34089
 N5 N 0.66170 0.66220 0.34138
 N6 N 0.64105 0.14066 0.85862
 N7 N 1.16199 0.66053 0.83983
 N8 N 1.16427 0.16257 0.33461
 N9 N 0.64397 1.35750 0.64469
 N10 N 0.64789 0.85178 1.15094
 N11 N 1.14374 1.35746 1.14121
 N12 N 1.14056 0.85616 0.64483
 N13 N 0.33971 0.65660 0.65735
 N14 N 0.33659 0.16571 1.16596
 N15 N 0.82627 0.67289 1.17600
 N16 N 0.86253 0.13428 0.64062
 N17 N 1.34278 0.34445 0.65654
 N18 N 1.35803 0.85458 1.14561
 N19 N 0.84447 0.34319 1.15552
 N20 N 0.86036 0.86030 0.63927
 N21 N 0.66417 0.66370 0.66371
 N22 N 0.64914 1.14552 1.14813
 N23 N 0.15823 0.65554 1.16248
 N24 N 0.15001 1.14288 0.65217
 N25 N 1.33829 0.65866 0.34006
 N26 N 1.34747 1.15096 0.84507
 N27 N 0.85937 0.63846 0.86064
 N28 N 0.83984 1.15890 0.33809
 N29 N 0.65122 0.35101 0.34875
 N30 N 0.66096 0.83891 0.83936
 N31 N 0.14503 0.35548 0.85209
 N32 N 0.15909 0.83965 0.34047
 O33 O 0.94970 0.88197 0.84279
 O34 O 0.94622 0.84411 0.80522
 C35 C 0.93753 0.87126 0.81665
 C36 C 0.91376 0.89088 0.79874
 C37 C 0.90816 0.88473 0.76599
 H38 H 0.92104 0.86526 0.75400
 O39 O 1.02821 1.12264 0.84183
 O40 O 1.02820 1.16026 0.80440
 C41 C 1.03797 1.13315 0.81476
 C42 C 1.06078 1.11323 0.79553
 C43 C 1.06935 1.12140 0.76366
 H44 H 1.05944 1.14284 0.75254
 O45 O 0.83420 0.97574 0.88756
 O46 O 0.79494 0.97767 0.85146
 C47 C 0.80698 0.96573 0.87714
 C48 C 0.78960 0.93942 0.89460
 C49 C 0.75904 0.92879 0.88386
 H50 H 0.74777 0.94039 0.86336
 O51 O 1.14978 1.02448 0.87440
 O52 O 1.18443 1.02226 0.83398
 C53 C 1.17603 1.03374 0.86116
 C54 C 1.19678 1.05855 0.87703
 C55 C 1.22636 1.06773 0.86300
 H56 H 1.23395 1.05557 0.84121
 O57 O 0.87161 0.84273 0.97564
 O58 O 0.83192 0.80703 0.97845
 C59 C 0.85855 0.81645 0.96632
 C60 C 0.87433 0.79733 0.94055
 C61 C 0.86533 0.76518 0.93435
 H62 H 0.84669 0.75407 0.94895
 O63 O 1.12742 1.15742 0.96293
 O64 O 1.16813 1.19197 0.96029
 C65 C 1.14005 1.18288 0.95132
 C66 C 1.12211 1.20149 0.92659
 C67 C 1.13553 1.22966 0.91314
 H68 H 1.15877 1.23874 0.92152
 O69 O 0.87904 1.03770 0.84215
 O70 O 0.84032 1.04037 0.80551
 C71 C 0.86765 1.04990 0.81647
 C72 C 0.88648 1.07583 0.80005
 C73 C 0.88125 1.08381 0.76728
 H74 H 0.86335 1.07067 0.75321
 O75 O 1.09874 0.96371 0.83252
 O76 O 1.13381 0.96186 0.79244
 C77 C 1.10798 0.95183 0.80565
 C78 C 1.08917 0.92530 0.79019
 C79 C 1.09788 0.91324 0.75956
 H80 H 1.11760 0.92440 0.74645
 O81 O 1.01366 0.83563 0.88381
 O82 O 1.00973 0.79803 0.84607
 C83 C 1.02309 0.80912 0.87147
 C84 C 1.05075 0.79151 0.88571
 C85 C 1.06326 0.76445 0.86953
 H86 H 1.05143 0.75551 0.84788
 O87 O 0.97033 1.16907 0.89058
 O88 O 0.96942 1.20684 0.85338
 C89 C 0.95911 1.19546 0.87987
 C90 C 0.93254 1.21186 0.89767
 C91 C 0.91779 1.23981 0.88530
 H92 H 0.92710 1.25094 0.86360
 O93 O 0.84290 1.12087 0.97613
 O94 O 0.80610 1.15934 0.97919
 C95 C 0.81640 1.13316 0.96668
 C96 C 0.79750 1.11711 0.94068
 C97 C 0.76592 1.12740 0.93373
 H98 H 0.75554 1.14701 0.94765
 O99 O 1.15027 0.87313 0.95977
 O100 O 1.18658 0.83438 0.95502
 C101 C 1.17488 0.86125 0.94576
 C102 C 1.18920 0.87879 0.91798
 C103 C 1.21738 0.86740 0.90238
 H104 H 1.22941 0.84584 0.91091
 O105 O 0.96577 1.12368 0.84743
 O106 O 0.96589 1.16109 0.80978
 C107 C 0.95459 1.13497 0.82128
 C108 C 0.92884 1.11737 0.80332
 C109 C 0.92330 1.12480 0.77095
 H110 H 0.93735 1.14389 0.75993
 O111 O 1.01245 0.87915 0.83933
 O112 O 1.00869 0.84145 0.80165
 C113 C 1.02131 0.86744 0.81237
 C114 C 1.04690 0.88397 0.79361
 C115 C 1.05568 0.87254 0.76290
 H116 H 1.04319 0.85181 0.75272
 O117 O 1.14334 0.96178 0.87654
 O118 O 1.17827 0.96005 0.83634
 C119 C 1.16817 0.94954 0.86329
 C120 C 1.18544 0.92226 0.87835
 C121 C 1.21349 0.91064 0.86355
 H122 H 1.22313 0.92290 0.84263
 O123 O 0.83524 1.03878 0.88716
 O124 O 0.79582 1.04140 0.85127
 C125 C 0.80882 1.05118 0.87743
 C126 C 0.79360 1.07742 0.89679
 C127 C 0.76196 1.08831 0.89005
 H128 H 0.74814 1.07709 0.87074
 O129 O 0.88679 1.16565 0.97635
 O130 O 0.85018 1.20424 0.97990
 C131 C 0.87550 1.19255 0.96698
 C132 C 0.89118 1.20981 0.93997
 C133 C 0.87646 1.23726 0.92679
 H134 H 0.85420 1.24665 0.93705
 O135 O 1.10535 0.82979 0.96335
 O136 O 1.14119 0.79052 0.95961
 C137 C 1.11463 0.80332 0.95085
 C138 C 1.09526 0.78826 0.92461
 C139 C 1.10724 0.76106 0.90807
 H140 H 1.12982 0.75014 0.91568
 O141 O 1.10087 1.02748 0.83453
 O142 O 1.13579 1.02485 0.79435
 C143 C 1.11122 1.03770 0.80762
 C144 C 1.09535 1.06548 0.79198
 C145 C 1.10281 1.07338 0.76006
 H146 H 1.11923 1.05819 0.74636
 O147 O 0.87389 0.97452 0.83941
 O148 O 0.83525 0.97693 0.80266
 C149 C 0.86113 0.96425 0.81330
 C150 C 0.87652 0.93664 0.79624
 C151 C 0.87080 0.92988 0.76322
 H152 H 0.85501 0.94530 0.74922
 O153 O 1.03420 1.16556 0.88728
 O154 O 1.03369 1.20327 0.85000
 C155 C 1.04631 1.19091 0.87504
 C156 C 1.07615 1.20533 0.88927
 C157 C 1.09041 1.23291 0.87563
 H158 H 1.07893 1.24462 0.85529
 O159 O 0.95042 0.83718 0.88666
 O160 O 0.94658 0.79905 0.84944
 C161 C 0.93791 0.81101 0.87634
 C162 C 0.91289 0.79477 0.89602
 C163 C 0.90356 0.76264 0.88990
 H164 H 0.91520 0.74924 0.87064
 O165 O 1.16607 1.10813 0.96016
 O166 O 1.20698 1.14245 0.95797
 C167 C 1.19237 1.11737 0.94738
 C168 C 1.20513 1.09927 0.91919
 C169 C 1.23459 1.10818 0.90470
 H170 H 1.24858 1.12767 0.91528
 O171 O 0.83153 0.89074 0.97451
 O172 O 0.79144 0.85546 0.97609
 C173 C 0.80449 0.88047 0.96380
 C174 C 0.78852 0.89743 0.93638
 C175 C 0.75830 0.88674 0.92442
 H176 H 0.74617 0.86636 0.93543
 Cu177 Cu 0.98173 0.86221 0.86705
 Cu178 Cu 0.97725 0.81674 0.82192
 Cu179 Cu 0.99979 1.14174 0.87075
 Cu180 Cu 0.99910 1.18697 0.82594
 Cu181 Cu 0.85954 1.00657 0.86744
 Cu182 Cu 0.81262 1.00942 0.82421
 Cu183 Cu 1.11947 0.99475 0.85836
 Cu184 Cu 1.16154 0.99205 0.81029
 C185 C 0.89806 0.91693 0.81361
 H186 H 0.90258 0.92178 0.83894
 C187 C 0.88725 0.90420 0.74796
 C188 C 1.07398 1.08522 0.80936
 H189 H 1.06817 1.07908 0.83405
 C190 C 1.08998 1.10113 0.74574
 C191 C 0.80396 0.92380 0.92121
 H192 H 0.82753 0.93178 0.92972
 C193 C 0.74334 0.90252 0.89848
 C194 C 1.18655 1.07422 0.90529
 H195 H 1.16353 1.06753 0.91594
 C196 C 1.24551 1.09261 0.87644
 C197 C 0.89830 0.81174 0.92149
 H198 H 0.90514 0.83664 0.92606
 C199 C 0.88010 0.74748 0.90930
 C200 C 1.09215 1.18994 0.91488
 H201 H 1.08180 1.16815 0.92495
 C202 C 1.11989 1.24519 0.88752
 C203 C 0.91063 1.09264 0.81763
 H204 H 0.91498 1.08681 0.84271
 C205 C 0.90039 1.10783 0.75241
 C206 C 1.06351 0.91061 0.80687
 H207 H 1.05705 0.91935 0.83068
 C208 C 1.08108 0.88700 0.74566
 C209 C 1.06674 0.80317 0.91342
 H210 H 1.05775 0.82463 0.92547
 C211 C 1.09169 0.74953 0.88015
 C212 C 0.91934 1.19743 0.92540
 H213 H 0.93020 1.17567 0.93490
 C214 C 0.88965 1.25227 0.89968
 C215 C 0.81103 1.09190 0.92234
 H216 H 0.83549 1.08397 0.92757
 C217 C 0.74781 1.11304 0.90878
 C218 C 1.17347 0.90644 0.90576
 H219 H 1.15143 0.91515 0.91697
 C220 C 1.22921 0.88319 0.87485
 O221 O 1.03554 0.88180 1.15846
 O222 O 1.03554 0.84441 1.19612
 C223 C 1.04768 0.86970 1.18385
 C224 C 1.07721 0.88445 1.19798
 C225 C 1.09312 0.87049 1.22462
 H226 H 1.08287 0.84951 1.23634
 O227 O 0.98664 1.11663 1.16059
 O228 O 0.99137 1.15390 1.19857
 C229 C 0.97777 1.12859 1.18748
 C230 C 0.95011 1.11417 1.20517
 C231 C 0.93751 1.13001 1.23244
 H232 H 0.94949 1.15145 1.24172
 O233 O 0.84702 1.03851 1.12537
 O234 O 0.81128 1.04014 1.16494
 C235 C 0.82130 1.04996 1.13782
 C236 C 0.80277 1.07457 1.12018
 C237 C 0.77004 1.08056 1.12747
 H238 H 0.75817 1.06742 1.14668
 O239 O 1.16907 0.95690 1.10350
 O240 O 1.20872 0.95510 1.13928
 C241 C 1.19539 0.94462 1.11367
 C242 C 1.21018 0.91746 1.09581
 C243 C 1.24102 0.90581 1.10414
 H244 H 1.25464 0.91759 1.12325
 O245 O 1.11131 0.82995 1.02618
 O246 O 1.14759 0.79103 1.02338
 C247 C 1.12292 0.80374 1.03685
 C248 C 1.10795 0.78924 1.06606
 C249 C 1.12298 0.76377 1.08302
 H250 H 1.14525 0.75318 1.07409
 O251 O 0.89085 1.16168 1.03920
 O252 O 0.85403 1.20003 1.04299
 C253 C 0.88067 1.18757 1.05218
 C254 C 0.89978 1.20283 1.07860
 C255 C 0.88824 1.23056 1.09463
 H256 H 0.86539 1.24101 1.08727
 O257 O 0.89189 0.97399 1.16603
 O258 O 0.85653 0.97633 1.20585
 C259 C 0.88123 0.96359 1.19273
 C260 C 0.89631 0.93515 1.20787
 C261 C 0.88012 0.91961 1.23304
 H262 H 0.85794 0.92983 1.24266
 O263 O 1.13014 1.02277 1.14883
 O264 O 1.16986 1.02079 1.18452
 C265 C 1.14374 1.03338 1.17434
 C266 C 1.12971 1.06124 1.19189
 C267 C 1.14484 1.07302 1.21994
 H268 H 1.16592 1.06075 1.22948
 O269 O 0.96714 0.84295 1.11642
 O270 O 0.96719 0.80562 1.15413
 C271 C 0.95490 0.81780 1.12882
 C272 C 0.92482 0.80348 1.11537
 C273 C 0.90947 0.77899 1.13261
 H274 H 0.92109 0.76914 1.15385
 O275 O 1.04853 1.15958 1.11312
 O276 O 1.05252 1.19729 1.15074
 C277 C 1.06114 1.18569 1.12371
 C278 C 1.08656 1.20206 1.10450
 C279 C 1.09625 1.23408 1.11118
 H280 H 1.08442 1.24752 1.13030
 O281 O 0.83255 0.89231 1.03801
 O282 O 0.79179 0.85777 1.03991
 C283 C 0.80584 0.88317 1.05023
 C284 C 0.79185 0.90158 1.07761
 C285 C 0.76117 0.89358 1.09002
 H286 H 0.74684 0.87485 1.07843
 O287 O 1.17233 1.11022 1.02309
 O288 O 1.21257 1.14537 1.02183
 C289 C 1.19966 1.12017 1.03353
 C290 C 1.21560 1.10265 1.06033
 C291 C 1.24054 1.11722 1.07899
 H292 H 1.24897 1.14134 1.07340
 O293 O 1.04988 1.11300 1.15502
 O294 O 1.05452 1.15046 1.19281
 C295 C 1.06346 1.12374 1.18043
 C296 C 1.09052 1.10538 1.19508
 C297 C 1.10588 1.11661 1.22333
 H298 H 1.09732 1.13843 1.23503
 O299 O 0.97230 0.88509 1.16247
 O300 O 0.97235 0.84750 1.19995
 C301 C 0.96182 0.87405 1.18908
 C302 C 0.93569 0.89122 1.20647
 C303 C 0.91909 0.87604 1.23197
 H304 H 0.92658 0.85245 1.24030
 O305 O 1.17091 1.01995 1.10155
 O306 O 1.21029 1.01739 1.13753
 C307 C 1.19821 1.02949 1.11218
 C308 C 1.21519 1.05694 1.09725
 C309 C 1.24099 1.07090 1.11417
 H310 H 1.25065 1.05896 1.13529
 O311 O 0.84504 0.97605 1.12439
 O312 O 0.80961 0.97800 1.16420
 C313 C 0.81866 0.96662 1.13711
 C314 C 0.79845 0.94204 1.12036
 C315 C 0.76765 0.93389 1.13224
 H316 H 0.75862 0.94592 1.15366
 O317 O 1.12912 1.15497 1.02516
 O318 O 1.16881 1.19077 1.02286
 C319 C 1.14227 1.18090 1.03505
 C320 C 1.12641 1.19945 1.06108
 C321 C 1.13568 1.23134 1.06782
 H322 H 1.15487 1.24229 1.05381
 O323 O 0.87414 0.84580 1.03831
 O324 O 0.83369 0.81103 1.04156
 C325 C 0.86126 0.82115 1.05124
 C326 C 0.87834 0.80503 1.07843
 C327 C 0.86315 0.78048 1.09662
 H328 H 0.83891 0.77233 1.09046
 O329 O 1.12578 0.95981 1.14889
 O330 O 1.16573 0.95840 1.18433
 C331 C 1.13822 0.94867 1.17455
 C332 C 1.12147 0.92318 1.19276
 C333 C 1.13693 0.90910 1.21920
 H334 H 1.16008 0.91856 1.22735
 O335 O 0.89544 1.03709 1.16561
 O336 O 0.85986 1.03958 1.20520
 C337 C 0.88606 1.04919 1.19220
 C338 C 0.90513 1.07557 1.20747
 C339 C 0.89310 1.09172 1.23487
 H340 H 0.87043 1.08400 1.24555
 O341 O 0.98507 1.15915 1.11560
 O342 O 0.98905 1.19642 1.15367
 C343 C 0.97528 1.18525 1.12843
 C344 C 0.94654 1.20198 1.11505
 C345 C 0.93488 1.22994 1.13024
 H346 H 0.94872 1.24037 1.14989
 O347 O 1.03058 0.83794 1.11399
 O348 O 1.03015 0.80077 1.15186
 C349 C 1.04091 0.81142 1.12529
 C350 C 1.06722 0.79353 1.10885
 C351 C 1.08240 0.76824 1.12507
 H352 H 1.07320 0.76053 1.14828
 O353 O 1.15837 0.87106 1.02178
 O354 O 1.19485 0.83240 1.01753
 C355 C 1.18551 0.85893 1.02980
 C356 C 1.20564 0.87563 1.05437
 C357 C 1.23675 0.86443 1.06263
 H358 H 1.24672 0.84365 1.05018
 O359 O 0.84304 1.12060 1.03903
 O360 O 0.80592 1.15882 1.04182
 C361 C 0.81702 1.13189 1.05107
 C362 C 0.80019 1.11377 1.07668
 C363 C 0.76716 1.11882 1.08346
 H364 H 0.75322 1.13563 1.06911
 Cu365 Cu 1.00148 0.86583 1.13413
 Cu366 Cu 1.00126 0.82070 1.17916
 Cu367 Cu 1.01738 1.13334 1.13230
 Cu368 Cu 1.02243 1.17824 1.17773
 Cu369 Cu 0.85637 0.87142 1.00635
 Cu370 Cu 0.80805 0.82944 1.00913
 Cu371 Cu 1.12770 0.85474 0.99328
 Cu372 Cu 1.17101 0.80799 0.98837
 Cu373 Cu 0.86960 1.13840 1.00748
 Cu374 Cu 0.82549 1.18457 1.01129
 Cu375 Cu 1.14492 1.12907 0.99296
 Cu376 Cu 1.19340 1.17096 0.99055
 Cu377 Cu 0.87353 1.00634 1.14144
 Cu378 Cu 0.83101 1.00873 1.18931
 Cu379 Cu 1.14491 0.98986 1.12202
 Cu380 Cu 1.19265 0.98774 1.16501
 C381 C 1.09149 0.91102 1.18250
 H382 H 1.07986 0.92154 1.16161
 C383 C 1.12334 0.88257 1.23492
 C384 C 0.93387 1.08679 1.19298
 H385 H 0.94291 1.07496 1.17143
 C386 C 0.90881 1.11931 1.24704
 C387 C 0.81757 1.09126 1.09485
 H388 H 0.84296 1.08707 1.08956
 C389 C 0.75200 1.10208 1.10873
 C390 C 1.19286 0.90237 1.07083
 H391 H 1.16883 0.91099 1.06477
 C392 C 1.25462 0.87947 1.08751
 C393 C 1.07988 0.80369 1.07922
 H394 H 1.06853 0.82379 1.06705
 C395 C 1.11042 0.75376 1.11293
 C396 C 0.92900 1.18873 1.08903
 H397 H 0.93770 1.16691 1.07742
 C398 C 0.90552 1.24412 1.12073
 C399 C 0.92430 0.92098 1.19485
 H400 H 0.93633 0.93238 1.17467
 C401 C 0.89084 0.88988 1.24463
 C402 C 1.10244 1.07744 1.17972
 H403 H 1.09106 1.06881 1.15771
 C404 C 1.13324 1.10068 1.23569
 C405 C 0.90929 0.81628 1.08812
 H406 H 0.92087 0.83576 1.07512
 C407 C 0.87856 0.76805 1.12419
 C408 C 1.10166 1.18516 1.07928
 H409 H 1.09459 1.16042 1.07421
 C410 C 1.12047 1.24905 1.09248
 C411 C 0.81016 0.92603 1.09280
 H412 H 0.83406 0.93197 1.08372
 C413 C 0.74879 0.90982 1.11718
 C414 C 1.20293 1.07255 1.06997
 H415 H 1.18258 1.06193 1.05713
 C416 C 1.25243 1.10157 1.10664
 O417 O 0.95209 0.38516 0.33982
 O418 O 0.94685 0.34786 0.30192
 C419 C 0.93838 0.37465 0.31435
 C420 C 0.91143 0.39317 0.29988
 C421 C 0.89674 0.38279 0.27099
 H422 H 0.90617 0.36195 0.25817
 O423 O 1.02949 0.61373 0.34019
 O424 O 1.02923 0.65102 0.30249
 C425 C 1.03948 0.62420 0.31320
 C426 C 1.06379 0.60512 0.29475
 C427 C 1.07478 0.61501 0.26412
 H428 H 1.06516 0.63668 0.25321
 O429 O 0.83063 0.47582 0.39742
 O430 O 0.79048 0.47894 0.36230
 C431 C 0.80269 0.46710 0.38775
 C432 C 0.78459 0.44215 0.40552
 C433 C 0.75299 0.43385 0.39613
 H434 H 0.74127 0.44691 0.37679
 O435 O 1.15370 0.51902 0.37776
 O436 O 1.18943 0.51787 0.33825
 C437 C 1.17991 0.52906 0.36523
 C438 C 1.19912 0.55485 0.38128
 C439 C 1.22713 0.56652 0.36621
 H440 H 1.23559 0.55489 0.34436
 O441 O 0.87325 0.34535 0.47455
 O442 O 0.83304 0.31007 0.47549
 C443 C 0.85944 0.32030 0.46338
 C444 C 0.87366 0.30311 0.43564
 C445 C 0.85887 0.27489 0.42408
 H446 H 0.83785 0.26512 0.43632
 O447 O 1.12475 0.65174 0.46646
 O448 O 1.16547 0.68635 0.46465
 C449 C 1.13772 0.67699 0.45481
 C450 C 1.12090 0.69478 0.42868
 C451 C 1.13553 0.72189 0.41438
 H452 H 1.15864 0.73086 0.42324
 O453 O 0.87757 0.53554 0.35164
 O454 O 0.83739 0.53784 0.31654
 C455 C 0.86505 0.54738 0.32640
 C456 C 0.88137 0.57393 0.30911
 C457 C 0.86489 0.58879 0.28386
 H458 H 0.84218 0.57857 0.27536
 O459 O 1.10530 0.45866 0.33311
 O460 O 1.14127 0.45749 0.29380
 C461 C 1.11490 0.44763 0.30606
 C462 C 1.09530 0.42273 0.28916
 C463 C 1.10371 0.41157 0.25816
 H464 H 1.12438 0.42199 0.24590
 O465 O 1.01567 0.33739 0.37926
 O466 O 1.01067 0.30022 0.34121
 C467 C 1.02450 0.31085 0.36658
 C468 C 1.05210 0.29287 0.38051
 C469 C 1.06491 0.26623 0.36388
 H470 H 1.05331 0.25775 0.34193
 O471 O 0.97221 0.66104 0.38948
 O472 O 0.97257 0.69907 0.35250
 C473 C 0.96218 0.68806 0.37916
 C474 C 0.93719 0.70623 0.39755
 C475 C 0.92703 0.73666 0.38693
 H476 H 0.93869 0.74770 0.36632
 O477 O 0.84460 0.62272 0.48130
 O478 O 0.80844 0.66181 0.48421
 C479 C 0.81808 0.63528 0.47220
 C480 C 0.79883 0.61997 0.44633
 C481 C 0.77107 0.63551 0.43476
 H482 H 0.76260 0.65729 0.44658
 O483 O 1.15333 0.36977 0.45932
 O484 O 1.18966 0.33087 0.45648
 C485 C 1.17891 0.35784 0.44691
 C486 C 1.19537 0.37505 0.42025
 C487 C 1.22443 0.36325 0.40667
 H488 H 1.23599 0.34201 0.41653
 O489 O 0.96623 0.61788 0.34452
 O490 O 0.96552 0.65576 0.30741
 C491 C 0.95347 0.63030 0.31957
 C492 C 0.92365 0.61538 0.30567
 C493 C 0.90590 0.63060 0.28080
 H494 H 0.91436 0.65318 0.27074
 O495 O 1.01494 0.38102 0.33514
 O496 O 1.00974 0.34394 0.29700
 C497 C 1.02336 0.36924 0.30806
 C498 C 1.05002 0.38468 0.28998
 C499 C 1.05851 0.37393 0.25896
 H500 H 1.04470 0.35460 0.24777
 O501 O 1.15106 0.45598 0.37621
 O502 O 1.18700 0.45510 0.33686
 C503 C 1.17644 0.44418 0.36343
 C504 C 1.19351 0.41706 0.37913
 C505 C 1.22204 0.40462 0.36561
 H506 H 1.23217 0.41565 0.34422
 O507 O 0.83327 0.53869 0.39581
 O508 O 0.79331 0.54145 0.36045
 C509 C 0.80713 0.55163 0.38593
 C510 C 0.79340 0.57948 0.40373
 C511 C 0.76573 0.59564 0.39217
 H512 H 0.75369 0.58704 0.37051
 O513 O 0.89027 0.66560 0.47829
 O514 O 0.85410 0.70467 0.48053
 C515 C 0.87920 0.69216 0.46771
 C516 C 0.89562 0.70804 0.43990
 C517 C 0.88496 0.73804 0.42787
 H518 H 0.86463 0.75031 0.43899
 O519 O 1.10484 0.32946 0.45990
 O520 O 1.14106 0.29050 0.45649
 C521 C 1.11473 0.30342 0.44706
 C522 C 1.09618 0.28899 0.41988
 C523 C 1.10850 0.26224 0.40292
 H524 H 1.13099 0.25124 0.41068
 O525 O 1.10731 0.52162 0.33537
 O526 O 1.14312 0.52013 0.29591
 C527 C 1.11787 0.53222 0.30867
 C528 C 1.10134 0.55946 0.29259
 C529 C 1.11103 0.56900 0.26170
 H530 H 1.12968 0.55550 0.24912
 O531 O 0.87039 0.47285 0.34893
 O532 O 0.83016 0.47544 0.31389
 C533 C 0.85642 0.46272 0.32341
 C534 C 0.87061 0.43557 0.30493
 C535 C 0.85554 0.42409 0.27664
 H536 H 0.83354 0.43533 0.26787
 O537 O 1.03545 0.65713 0.38527
 O538 O 1.03598 0.69464 0.34778
 C539 C 1.04791 0.68242 0.37326
 C540 C 1.07720 0.69707 0.38850
 C541 C 1.09263 0.72368 0.37429
 H542 H 1.08274 0.73421 0.35252
 O543 O 0.95274 0.34080 0.38356
 O544 O 0.94754 0.30330 0.34586
 C545 C 0.93924 0.31529 0.37290
 C546 C 0.91286 0.30017 0.39165
 C547 C 0.89788 0.27165 0.38062
 H548 H 0.90644 0.25988 0.35884
 O549 O 1.16546 0.60437 0.46405
 O550 O 1.20629 0.63882 0.46260
 C551 C 1.19193 0.61386 0.45157
 C552 C 1.20528 0.59642 0.42311
 C553 C 1.23306 0.60810 0.40712
 H554 H 1.24541 0.62938 0.41626
 O555 O 0.82899 0.38905 0.47923
 O556 O 0.78867 0.35392 0.48037
 C557 C 0.80118 0.37965 0.46954
 C558 C 0.78385 0.39860 0.44485
 C559 C 0.75252 0.38977 0.43430
 H560 H 0.74023 0.36919 0.44475
 Cu561 Cu 0.98432 0.36488 0.36323
 Cu562 Cu 0.97810 0.31999 0.31773
 Cu563 Cu 1.00090 0.63365 0.36846
 Cu564 Cu 1.00089 0.67892 0.32385
 Cu565 Cu 0.85697 0.50534 0.37704
 Cu566 Cu 0.80890 0.50862 0.33466
 Cu567 Cu 1.12568 0.48881 0.35955
 Cu568 Cu 1.16889 0.48760 0.31234
 C569 C 0.89857 0.42000 0.31630
 H570 H 0.90973 0.42813 0.33860
 C571 C 0.86870 0.39801 0.25951
 C572 C 1.07728 0.57724 0.30866
 H573 H 1.06978 0.56991 0.33255
 C574 C 1.09811 0.59668 0.24737
 C575 C 0.79957 0.42490 0.43035
 H576 H 0.82405 0.43124 0.43758
 C577 C 0.73693 0.40768 0.41022
 C578 C 1.18850 0.56969 0.40995
 H579 H 1.16656 0.56107 0.42141
 C580 C 1.24376 0.59353 0.37831
 C581 C 0.90082 0.31555 0.41948
 H582 H 0.91189 0.33780 0.42797
 C583 C 0.87067 0.25925 0.39663
 C584 C 1.09144 0.68293 0.41587
 H585 H 1.08023 0.66183 0.42647
 C586 C 1.12162 0.73613 0.38712
 C587 C 0.91098 0.58704 0.31968
 H588 H 0.92354 0.57577 0.33962
 C589 C 0.87601 0.61758 0.27048
 C590 C 1.06831 0.40930 0.30465
 H591 H 1.06202 0.41746 0.32871
 C592 C 1.08523 0.38732 0.24277
 C593 C 1.06773 0.30396 0.40865
 H594 H 1.05841 0.32503 0.42114
 C595 C 1.09327 0.25115 0.37460
 C596 C 0.92174 0.69240 0.42440
 H597 H 0.92953 0.66891 0.43271
 C598 C 0.90093 0.75252 0.40164
 C599 C 0.80964 0.59175 0.43100
 H600 H 0.83145 0.58003 0.43959
 C601 C 0.75480 0.62401 0.40740
 C602 C 1.18049 0.40229 0.40658
 H603 H 1.15801 0.41133 0.41663
 C604 C 1.23760 0.37783 0.37911
 O605 O 1.03188 0.37258 0.65375
 O606 O 1.03116 0.33567 0.69193
 C607 C 1.04253 0.36164 0.68023
 C608 C 1.06800 0.37953 0.69790
 C609 C 1.07391 0.37269 0.73034
 H610 H 1.05999 0.35385 0.74192
 O611 O 0.98237 0.61789 0.66296
 O612 O 0.98706 0.65461 0.70145
 C613 C 0.97382 0.62907 0.69019
 C614 C 0.94804 0.61241 0.70879
 C615 C 0.94005 0.62309 0.73994
 H616 H 0.95303 0.64341 0.75034
 O617 O 0.85044 0.53456 0.62652
 O618 O 0.81464 0.53596 0.66601
 C619 C 0.82505 0.54636 0.63909
 C620 C 0.80764 0.57267 0.62250
 C621 C 0.77612 0.58081 0.63195
 H622 H 0.76422 0.56727 0.65087
 O623 O 1.16050 0.45385 0.60944
 O624 O 1.19929 0.45073 0.64598
 C625 C 1.18637 0.44088 0.61984
 C626 C 1.20103 0.41346 0.60188
 C627 C 1.22953 0.39873 0.61320
 H628 H 1.24170 0.40811 0.63450
 O629 O 1.10960 0.32593 0.52297
 O630 O 1.14571 0.28682 0.51975
 C631 C 1.12092 0.29926 0.53300
 C632 C 1.10629 0.28357 0.56156
 C633 C 1.12253 0.25820 0.57700
 H634 H 1.14476 0.24874 0.56678
 O635 O 0.89472 0.66536 0.54137
 O636 O 0.85832 0.70427 0.54355
 C637 C 0.88494 0.69210 0.55281
 C638 C 0.90439 0.70936 0.57728
 C639 C 0.89774 0.74165 0.58426
 H640 H 0.87872 0.75399 0.57112
 O641 O 0.89355 0.46935 0.66780
 O642 O 0.85835 0.47054 0.70778
 C643 C 0.88316 0.45821 0.69430
 C644 C 0.89976 0.43012 0.70887
 C645 C 0.89325 0.42069 0.74077
 H646 H 0.87635 0.43442 0.75537
 O647 O 1.12236 0.52045 0.65513
 O648 O 1.16164 0.51761 0.69117
 C649 C 1.13598 0.53093 0.68067
 C650 C 1.12273 0.55952 0.69790
 C651 C 1.13817 0.57090 0.72596
 H652 H 1.15867 0.55785 0.73571
 O653 O 0.96537 0.33002 0.61318
 O654 O 0.96531 0.29199 0.65019
 C655 C 0.95366 0.30416 0.62466
 C656 C 0.92581 0.28888 0.60810
 C657 C 0.91683 0.25663 0.61386
 H658 H 0.93066 0.24218 0.63066
 O659 O 1.04565 0.65951 0.61668
 O660 O 1.05033 0.69695 0.65449
 C661 C 1.05902 0.68503 0.62751
 C662 C 1.08520 0.70045 0.60852
 C663 C 1.09553 0.73221 0.61515
 H664 H 1.08375 0.74595 0.63409
 O665 O 0.83620 0.38920 0.54179
 O666 O 0.79588 0.35403 0.54273
 C667 C 0.80978 0.37924 0.55377
 C668 C 0.79491 0.39719 0.58069
 C669 C 0.76255 0.39146 0.58880
 H670 H 0.74833 0.37404 0.57512
 O671 O 1.16843 0.60412 0.52738
 O672 O 1.20904 0.63884 0.52638
 C673 C 1.19595 0.61349 0.53773
 C674 C 1.21235 0.59498 0.56372
 C675 C 1.24247 0.60511 0.57637
 H676 H 1.25436 0.62635 0.56680
 O677 O 1.04539 0.61492 0.66017
 O678 O 1.05062 0.65179 0.69844
 C679 C 1.05902 0.62495 0.68586
 C680 C 1.08538 0.60546 0.70064
 C681 C 1.10113 0.61617 0.72893
 H682 H 1.09350 0.63841 0.74049
 O683 O 0.96954 0.37530 0.65653
 O684 O 0.96895 0.33764 0.69395
 C685 C 0.95953 0.36485 0.68349
 C686 C 0.93704 0.38456 0.70317
 C687 C 0.93088 0.37609 0.73524
 H688 H 0.94265 0.35514 0.74546
 O689 O 1.16528 0.51665 0.60985
 O690 O 1.20454 0.51346 0.64590
 C691 C 1.19292 0.52554 0.62024
 C692 C 1.21112 0.55119 0.60320
 C693 C 1.24170 0.56098 0.61456
 H694 H 1.25271 0.54861 0.63476
 O695 O 0.84470 0.47213 0.62850
 O696 O 0.80913 0.47347 0.66817
 C697 C 0.81827 0.46240 0.64104
 C698 C 0.79856 0.43773 0.62367
 C699 C 0.76588 0.43143 0.63178
 H700 H 0.75427 0.44482 0.65108
 O701 O 1.12759 0.65184 0.52917
 O702 O 1.16786 0.68696 0.52743
 C703 C 1.14103 0.67763 0.53929
 C704 C 1.12527 0.69673 0.56524
 C705 C 1.13512 0.72855 0.57200
 H706 H 1.15453 0.73918 0.55803
 O707 O 0.87487 0.34007 0.53672
 O708 O 0.83478 0.30464 0.53766
 C709 C 0.86273 0.31375 0.54682
 C710 C 0.88140 0.29378 0.56954
 C711 C 0.87311 0.26142 0.57485
 H712 H 0.85277 0.25081 0.56196
 O713 O 1.11847 0.45711 0.65619
 O714 O 1.15709 0.45456 0.69298
 C715 C 1.12963 0.44550 0.68227
 C716 C 1.11054 0.42064 0.69955
 C717 C 1.11647 0.41321 0.73222
 H718 H 1.13504 0.42621 0.74555
 O719 O 0.89552 0.53298 0.66989
 O720 O 0.86037 0.53447 0.70988
 C721 C 0.88624 0.54475 0.69675
 C722 C 0.90532 0.57124 0.71222
 C723 C 0.89750 0.58266 0.74334
 H724 H 0.87807 0.57130 0.75671
 O725 O 0.98284 0.66497 0.62197
 O726 O 0.98709 0.70229 0.65990
 C727 C 0.97393 0.69182 0.63412
 C728 C 0.94754 0.71000 0.61778
 C729 C 0.94021 0.74272 0.62495
 H730 H 0.95418 0.75588 0.64289
 O731 O 1.02877 0.32729 0.61061
 O732 O 1.02905 0.29023 0.64858
 C733 C 1.03975 0.30110 0.62207
 C734 C 1.06638 0.28413 0.60513
 C735 C 1.08259 0.25819 0.61984
 H736 H 1.07436 0.24908 0.64288
 O737 O 1.15344 0.37019 0.52216
 O738 O 1.18970 0.33116 0.51958
 C739 C 1.17949 0.35738 0.53208
 C740 C 1.19742 0.37246 0.55921
 C741 C 1.22525 0.35754 0.57159
 H742 H 1.23428 0.33545 0.56075
 O743 O 0.84861 0.62267 0.54398
 O744 O 0.81196 0.66128 0.54683
 C745 C 0.82316 0.63445 0.55666
 C746 C 0.80678 0.61650 0.58305
 C747 C 0.77552 0.62507 0.59383
 H748 H 0.76295 0.64527 0.58307
 Cu749 Cu 0.99880 0.35478 0.62943
 Cu750 Cu 0.99851 0.30992 0.67483
 Cu751 Cu 1.01353 0.63582 0.63658
 Cu752 Cu 1.01926 0.68004 0.68250
 Cu753 Cu 0.85727 0.36955 0.50810
 Cu754 Cu 0.80904 0.32709 0.50928
 Cu755 Cu 1.12662 0.35263 0.49118
 Cu756 Cu 1.17007 0.30585 0.48770
 Cu757 Cu 0.87324 0.64023 0.51105
 Cu758 Cu 0.82960 0.68696 0.51418
 Cu759 Cu 1.14264 0.62448 0.49702
 Cu760 Cu 1.19137 0.66607 0.49525
 Cu761 Cu 0.87468 0.50197 0.64441
 Cu762 Cu 0.83227 0.50389 0.69212
 Cu763 Cu 1.13765 0.48711 0.62911
 Cu764 Cu 1.18452 0.48374 0.67266
 C765 C 1.08605 0.40379 0.68278
 H766 H 1.08147 0.40908 0.65761
 C767 C 1.09756 0.38966 0.74790
 C768 C 0.93078 0.58623 0.69527
 H769 H 0.93669 0.57798 0.67114
 C770 C 0.91500 0.60837 0.75746
 C771 C 0.82259 0.59021 0.59765
 H772 H 0.84690 0.58377 0.59013
 C773 C 0.75998 0.60683 0.61787
 C774 C 1.18548 0.40046 0.57447
 H775 H 1.16343 0.41154 0.56564
 C776 C 1.24137 0.37064 0.59833
 C777 C 1.07814 0.29625 0.57574
 H778 H 1.06609 0.31652 0.56452
 C779 C 1.11103 0.24565 0.60621
 C780 C 0.92935 0.69380 0.59385
 H781 H 0.93428 0.66868 0.58832
 C782 C 0.91546 0.75862 0.60761
 C783 C 0.92179 0.41190 0.69030
 H784 H 0.92658 0.41860 0.66554
 C785 C 0.90924 0.39401 0.75418
 C786 C 1.09622 0.57688 0.68547
 H787 H 1.08462 0.56859 0.66344
 C788 C 1.12776 0.59916 0.74146
 C789 C 0.90795 0.30713 0.58594
 H790 H 0.91441 0.33215 0.58182
 C791 C 0.89086 0.24263 0.59670
 C792 C 1.10010 0.68307 0.58340
 H793 H 1.09247 0.65849 0.57835
 C794 C 1.12014 0.74666 0.59662
 C795 C 0.81271 0.42044 0.59801
 H796 H 0.83781 0.42485 0.59166
 C797 C 0.74789 0.40850 0.61396
 C798 C 1.19693 0.56792 0.57736
 H799 H 1.17326 0.56052 0.56858
 C800 C 1.25727 0.58805 0.60164
 O801 O 0.62121 1.02201 0.65766
 O802 O 0.66002 1.01914 0.69426
 C803 C 0.63382 1.03144 0.68413
 C804 C 0.61833 1.05745 0.70301
 C805 C 0.62809 1.06385 0.73485
 H806 H 0.64668 1.04905 0.74576
 O807 O 0.38975 0.96852 0.67038
 O808 O 0.35433 0.96925 0.71012
 C809 C 0.37877 0.95652 0.69633
 C810 C 0.39428 0.92682 0.70945
 C811 C 0.38104 0.90992 0.73601
 H812 H 0.35943 0.91886 0.74785
 O813 O 0.54732 1.15895 0.62013
 O814 O 0.55079 1.19548 0.65892
 C815 C 0.56062 1.18402 0.63215
 C816 C 0.58817 1.19978 0.61529
 C817 C 0.60184 1.22824 0.62786
 H818 H 0.59181 1.23914 0.64948
 O819 O 0.46454 0.83533 0.61281
 O820 O 0.46389 0.79602 0.64840
 C821 C 0.45186 0.80963 0.62370
 C822 C 0.42185 0.79678 0.60821
 C823 C 0.40611 0.76896 0.62006
 H824 H 0.41663 0.75556 0.63983
 O825 O 0.67051 1.11032 0.52879
 O826 O 0.71209 1.14390 0.52851
 C827 C 0.69832 1.11862 0.53919
 C828 C 0.71387 1.09879 0.56455
 C829 C 0.74593 1.10474 0.57513
 H830 H 0.76018 1.12376 0.56421
 O831 O 0.32942 0.89557 0.53829
 O832 O 0.28905 0.86053 0.53916
 C833 C 0.30298 0.88554 0.55047
 C834 C 0.28904 0.90262 0.57871
 C835 C 0.25796 0.89487 0.59032
 H836 H 0.24336 0.87694 0.57781
 O837 O 0.48184 1.11792 0.66495
 O838 O 0.48548 1.15462 0.70360
 C839 C 0.47259 1.12913 0.69204
 C840 C 0.44669 1.11238 0.71038
 C841 C 0.43816 1.12311 0.74150
 H842 H 0.45043 1.14367 0.75235
 O843 O 0.53240 0.87369 0.65578
 O844 O 0.53280 0.83470 0.69178
 C845 C 0.54447 0.86088 0.68086
 C846 C 0.57302 0.87646 0.69635
 C847 C 0.58953 0.86205 0.72247
 H848 H 0.58085 0.83958 0.73259
 O849 O 0.66187 0.95893 0.60971
 O850 O 0.70101 0.95734 0.64610
 C851 C 0.68858 0.94743 0.61982
 C852 C 0.70555 0.92230 0.60098
 C853 C 0.73804 0.91539 0.60754
 H854 H 0.75072 0.92890 0.62622
 O855 O 0.34785 1.03567 0.63060
 O856 O 0.31186 1.03734 0.66991
 C857 C 0.32238 1.04766 0.64301
 C858 C 0.30496 1.07348 0.62539
 C859 C 0.27202 1.08023 0.63156
 H860 H 0.25907 1.06697 0.64997
 O861 O 0.39268 1.16473 0.54354
 O862 O 0.35591 1.20318 0.54706
 C863 C 0.38276 1.19110 0.55585
 C864 C 0.40247 1.20771 0.58083
 C865 C 0.39326 1.23812 0.59271
 H866 H 0.37195 1.24988 0.58300
 O867 O 0.61158 0.83674 0.52417
 O868 O 0.64816 0.79807 0.52084
 C869 C 0.62290 0.80998 0.53362
 C870 C 0.60796 0.79308 0.56091
 C871 C 0.62538 0.76854 0.57599
 H872 H 0.64858 0.76092 0.56632
 O873 O 0.39521 1.03213 0.67154
 O874 O 0.36003 1.03370 0.71149
 C875 C 0.38611 1.04367 0.69846
 C876 C 0.40538 1.06983 0.71405
 C877 C 0.39786 1.08052 0.74538
 H878 H 0.37891 1.06864 0.75903
 O879 O 0.61728 0.95889 0.65372
 O880 O 0.65676 0.95680 0.68963
 C881 C 0.62980 0.94658 0.67877
 C882 C 0.61415 0.91902 0.69490
 C883 C 0.62997 0.90454 0.72081
 H884 H 0.65213 0.91516 0.73024
 O885 O 0.52830 0.83183 0.60962
 O886 O 0.52827 0.79287 0.64563
 C887 C 0.53930 0.80516 0.61991
 C888 C 0.56687 0.78976 0.60301
 C889 C 0.58474 0.76486 0.61780
 H890 H 0.57698 0.75501 0.64069
 O891 O 0.48390 1.16305 0.62190
 O892 O 0.48724 1.19998 0.66035
 C893 C 0.47468 1.18961 0.63422
 C894 C 0.44810 1.20762 0.61856
 C895 C 0.43891 1.23838 0.62972
 H896 H 0.45236 1.24991 0.64912
 O897 O 0.34766 1.12055 0.54462
 O898 O 0.31059 1.15881 0.54735
 C899 C 0.32187 1.13193 0.55686
 C900 C 0.30478 1.11379 0.58241
 C901 C 0.27187 1.11955 0.58836
 H902 H 0.25897 1.13712 0.57395
 O903 O 0.66016 0.87680 0.52297
 O904 O 0.69681 0.83821 0.51994
 C905 C 0.68688 0.86452 0.53231
 C906 C 0.70552 0.88123 0.55838
 C907 C 0.73841 0.87417 0.56559
 H908 H 0.75137 0.85615 0.55166
 O909 O 0.46986 0.87903 0.65740
 O910 O 0.47004 0.83993 0.69325
 C911 C 0.45988 0.86725 0.68376
 C912 C 0.43492 0.88420 0.70305
 C913 C 0.42253 0.86897 0.73028
 H914 H 0.43390 0.84703 0.73860
 O915 O 0.54451 1.11399 0.66318
 O916 O 0.54820 1.15024 0.70226
 C917 C 0.55668 1.12347 0.68975
 C918 C 0.58111 1.10302 0.70576
 C919 C 0.59126 1.10933 0.73757
 H920 H 0.58061 1.12920 0.75090
 O921 O 0.34327 0.97359 0.62873
 O922 O 0.30758 0.97521 0.66830
 C923 C 0.31647 0.96461 0.64087
 C924 C 0.29575 0.94134 0.62299
 C925 C 0.26437 0.93386 0.63382
 H926 H 0.25493 0.94567 0.65522
 O927 O 0.66260 1.02183 0.61030
 O928 O 0.70120 1.01931 0.64714
 C929 C 0.68987 1.03108 0.62129
 C930 C 0.70906 1.05575 0.60428
 C931 C 0.74103 1.06155 0.61395
 H932 H 0.75129 1.04762 0.63348
 O933 O 0.37232 0.84996 0.53510
 O934 O 0.33194 0.81492 0.53616
 C935 C 0.35971 0.82421 0.54591
 C936 C 0.37678 0.80491 0.57055
 C937 C 0.36161 0.77741 0.58282
 H938 H 0.33825 0.76987 0.57332
 O939 O 0.63019 1.15793 0.53267
 O940 O 0.67107 1.19233 0.53241
 C941 C 0.64418 1.18283 0.54423
 C942 C 0.62906 1.19987 0.57227
 C943 C 0.64199 1.22894 0.58502
 H944 H 0.66292 1.24012 0.57388
 Cu945 Cu 0.63664 0.99074 0.62922
 Cu946 Cu 0.68356 0.98803 0.67306
 Cu947 Cu 0.37278 1.00230 0.64664
 Cu948 Cu 0.33025 1.00417 0.69433
 Cu949 Cu 0.51403 1.13493 0.63856
 Cu950 Cu 0.51830 1.17893 0.68503
 Cu951 Cu 0.49887 0.85863 0.63007
 Cu952 Cu 0.49845 0.81178 0.67323
 C953 C 0.59460 1.07688 0.68882
 H954 H 0.58726 1.07212 0.66413
 C955 C 0.61453 1.08955 0.75241
 C956 C 0.42110 0.91339 0.69303
 H957 H 0.43067 0.92510 0.67176
 C958 C 0.39485 0.88042 0.74597
 C959 C 0.60184 1.18588 0.58746
 H960 H 0.59172 1.16354 0.57810
 C961 C 0.62840 1.24303 0.61292
 C962 C 0.40701 0.81439 0.58315
 H963 H 0.41846 0.83609 0.57412
 C964 C 0.37571 0.75959 0.60759
 C965 C 0.69575 1.07403 0.57927
 H966 H 0.67091 1.06951 0.57191
 C967 C 0.75967 1.08568 0.59962
 C968 C 0.30763 0.92596 0.59517
 H969 H 0.33186 0.93156 0.58675
 C970 C 0.24533 0.91071 0.61763
 C971 C 0.43019 1.08567 0.69690
 H972 H 0.43616 1.07766 0.67271
 C973 C 0.41412 1.10707 0.75905
 C974 C 0.58554 0.90511 0.68296
 H975 H 0.57364 0.91608 0.66246
 C976 C 0.61843 0.87595 0.73426
 C977 C 0.68959 0.90537 0.57634
 H978 H 0.66437 0.91084 0.57143
 C979 C 0.75485 0.89184 0.58997
 C980 C 0.32103 1.09041 0.60070
 H981 H 0.34640 1.08559 0.59589
 C982 C 0.25525 1.10267 0.61247
 C983 C 0.43005 1.19277 0.59373
 H984 H 0.43681 1.16896 0.58517
 C985 C 0.41139 1.25362 0.61700
 C986 C 0.57856 0.80343 0.57428
 H987 H 0.56559 0.82317 0.56312
 C988 C 0.61441 0.75489 0.60456
 O989 O 0.60380 0.96551 0.33439
 O990 O 0.63957 0.96425 0.29494
 C991 C 0.61349 0.95395 0.30766
 C992 C 0.59526 0.92701 0.29220
 C993 C 0.60763 0.91138 0.26463
 H994 H 0.62952 0.92025 0.25322
 O995 O 0.37767 1.04153 0.34712
 O996 O 0.33925 1.04557 0.31031
 C997 C 0.36635 1.05479 0.32192
 C998 C 0.38443 1.08200 0.30696
 C999 C 0.37206 1.09808 0.27960
 H1000 H 0.34964 1.09001 0.26846
 O1001 O 0.47439 1.16772 0.39540
 O1002 O 0.47417 1.20650 0.35921
 C1003 C 0.46377 1.19472 0.38548
 C1004 C 0.43804 1.21175 0.40402
 C1005 C 0.42770 1.24286 0.39529
 H1006 H 0.43972 1.25552 0.37586
 O1007 O 0.51526 0.84030 0.38362
 O1008 O 0.51112 0.80261 0.34600
 C1009 C 0.52475 0.81381 0.37129
 C1010 C 0.55307 0.79670 0.38523
 C1011 C 0.56536 0.76922 0.36953
 H1012 H 0.55276 0.75943 0.34869
 O1013 O 0.65407 0.88080 0.46027
 O1014 O 0.69003 0.84153 0.45753
 C1015 C 0.67904 0.86827 0.44756
 C1016 C 0.69494 0.88366 0.41987
 C1017 C 0.72164 0.86850 0.40586
 H1018 H 0.73167 0.84693 0.41668
 O1019 O 0.34334 1.12349 0.48151
 O1020 O 0.30716 1.16253 0.48463
 C1021 C 0.31714 1.13644 0.47189
 C1022 C 0.29881 1.12193 0.44464
 C1023 C 0.27140 1.13770 0.43224
 H1024 H 0.26254 1.15932 0.44405
 O1025 O 0.53227 1.12110 0.34585
 O1026 O 0.53137 1.15938 0.30912
 C1027 C 0.54157 1.13217 0.31884
 C1028 C 0.56482 1.11344 0.29880
 C1029 C 0.57243 1.12334 0.26736
 H1030 H 0.56061 1.14434 0.25730
 O1031 O 0.45239 0.88728 0.34165
 O1032 O 0.44869 0.85003 0.30356
 C1033 C 0.43997 0.87702 0.31542
 C1034 C 0.41496 0.89671 0.29893
 C1035 C 0.40447 0.88917 0.26742
 H1036 H 0.41526 0.86898 0.25469
 O1037 O 0.65262 1.02548 0.37923
 O1038 O 0.68814 1.02440 0.33954
 C1039 C 0.67886 1.03537 0.36679
 C1040 C 0.69854 1.06073 0.38307
 C1041 C 0.72720 1.07088 0.36835
 H1042 H 0.73572 1.05819 0.34711
 O1043 O 0.33007 0.97952 0.38938
 O1044 O 0.29149 0.98277 0.35265
 C1045 C 0.30272 0.97039 0.37834
 C1046 C 0.28454 0.94449 0.39531
 C1047 C 0.25424 0.93338 0.38401
 H1048 H 0.24319 0.94455 0.36315
 O1049 O 0.62768 1.16019 0.47008
 O1050 O 0.66870 1.19443 0.46887
 C1051 C 0.64087 1.18550 0.45894
 C1052 C 0.62400 1.20339 0.43304
 C1053 C 0.63864 1.23005 0.41788
 H1054 H 0.66187 1.23915 0.42626
 O1055 O 0.36861 0.85008 0.47270
 O1056 O 0.32857 0.81464 0.47399
 C1057 C 0.35520 0.82446 0.46211
 C1058 C 0.37022 0.80629 0.43521
 C1059 C 0.35583 0.77768 0.42388
 H1060 H 0.33453 0.76825 0.43587
 O1061 O 0.37429 0.97829 0.34495
 O1062 O 0.33611 0.98206 0.30785
 C1063 C 0.36184 0.96895 0.31845
 C1064 C 0.37712 0.94208 0.30032
 C1065 C 0.36705 0.93432 0.26884
 H1066 H 0.34820 0.94854 0.25763
 O1067 O 0.60933 1.02905 0.33416
 O1068 O 0.64442 1.02795 0.29410
 C1069 C 0.61979 1.04040 0.30766
 C1070 C 0.60345 1.06887 0.29324
 C1071 C 0.61156 1.07988 0.26214
 H1072 H 0.62954 1.06715 0.24793
 O1073 O 0.45153 0.84263 0.38563
 O1074 O 0.44727 0.80513 0.34786
 C1075 C 0.43813 0.81717 0.37459
 C1076 C 0.41089 0.80228 0.39255
 C1077 C 0.39618 0.77346 0.38162
 H1078 H 0.40552 0.76124 0.36042
 O1079 O 0.53827 1.16452 0.39135
 O1080 O 0.53764 1.20260 0.35443
 C1081 C 0.55018 1.19015 0.37939
 C1082 C 0.57964 1.20501 0.39378
 C1083 C 0.59493 1.23110 0.37860
 H1084 H 0.58443 1.24137 0.35699
 O1085 O 0.32679 0.89651 0.47463
 O1086 O 0.28688 0.86097 0.47577
 C1087 C 0.29962 0.88626 0.46413
 C1088 C 0.28329 0.90319 0.43728
 C1089 C 0.25352 0.89183 0.42504
 H1090 H 0.24167 0.87126 0.43602
 O1091 O 0.66652 1.11158 0.46580
 O1092 O 0.70794 1.14530 0.46456
 C1093 C 0.69303 1.12072 0.45315
 C1094 C 0.70576 1.10295 0.42434
 C1095 C 0.73404 1.11342 0.40817
 H1096 H 0.74712 1.13443 0.41695
 O1097 O 0.51541 0.88352 0.33925
 O1098 O 0.51168 0.84572 0.30165
 C1099 C 0.52494 0.87121 0.31276
 C1100 C 0.55250 0.88597 0.29532
 C1101 C 0.56591 0.87021 0.26840
 H1102 H 0.55559 0.84768 0.25967
 O1103 O 0.46935 1.12324 0.35130
 O1104 O 0.46898 1.16209 0.31517
 C1105 C 0.45730 1.13598 0.32621
 C1106 C 0.42888 1.12132 0.30975
 C1107 C 0.41623 1.13660 0.28254
 H1108 H 0.42840 1.15767 0.27296
 O1109 O 0.33519 1.04200 0.39280
 O1110 O 0.29649 1.04574 0.35621
 C1111 C 0.30936 1.05507 0.38258
 C1112 C 0.29496 1.08224 0.40092
 C1113 C 0.26759 1.09837 0.38892
 H1114 H 0.25635 1.09002 0.36675
 O1115 O 0.65336 0.96283 0.37342
 O1116 O 0.68899 0.96161 0.33383
 C1117 C 0.67864 0.95078 0.36048
 C1118 C 0.69517 0.92336 0.37656
 C1119 C 0.72228 0.90761 0.36268
 H1120 H 0.73240 0.91598 0.34013
 O1121 O 0.60903 0.83708 0.46143
 O1122 O 0.64508 0.79793 0.45813
 C1123 C 0.61857 0.81064 0.44893
 C1124 C 0.59912 0.79520 0.42275
 C1125 C 0.61081 0.76758 0.40662
 H1126 H 0.63362 0.75697 0.41399
 O1127 O 0.38963 1.16575 0.48087
 O1128 O 0.35343 1.20475 0.48436
 C1129 C 0.37874 1.19281 0.47154
 C1130 C 0.39560 1.21029 0.44532
 C1131 C 0.38498 1.24095 0.43549
 H1132 H 0.36450 1.25233 0.44728
 Cu1133 Cu 0.62608 0.99560 0.35902
 Cu1134 Cu 0.66871 0.99466 0.31159
 Cu1135 Cu 0.35819 1.00986 0.37211
 Cu1136 Cu 0.31201 1.01433 0.32800
 Cu1137 Cu 0.64475 1.13166 0.49947
 Cu1138 Cu 0.69417 1.17233 0.49860
 Cu1139 Cu 0.63018 0.86186 0.49264
 Cu1140 Cu 0.67362 0.81495 0.48875
 Cu1141 Cu 0.37193 1.13969 0.51241
 Cu1142 Cu 0.32805 1.18613 0.51637
 Cu1143 Cu 0.35310 0.87689 0.50509
 Cu1144 Cu 0.30500 0.83432 0.50648
 Cu1145 Cu 0.50379 1.14048 0.37485
 Cu1146 Cu 0.50298 1.18656 0.33094
 Cu1147 Cu 0.48378 0.86712 0.36640
 Cu1148 Cu 0.47911 0.82197 0.32114
 C1149 C 0.56729 0.91441 0.30701
 H1150 H 0.55773 0.92606 0.32843
 C1151 C 0.59326 0.88285 0.25303
 C1152 C 0.41303 1.09384 0.32176
 H1153 H 0.42245 1.08229 0.34319
 C1154 C 0.38773 1.12577 0.26774
 C1155 C 0.42212 1.19596 0.42944
 H1156 H 0.42987 1.17200 0.43635
 C1157 C 0.40117 1.25743 0.41086
 C1158 C 0.57003 0.80945 0.41197
 H1159 H 0.56117 0.83114 0.42371
 C1160 C 0.59432 0.75484 0.37969
 C1161 C 0.68201 0.91124 0.40541
 H1162 H 0.66086 0.92253 0.41604
 C1163 C 0.73515 0.87983 0.37736
 C1164 C 0.31022 1.09402 0.42900
 H1165 H 0.33177 1.08216 0.43802
 C1166 C 0.25594 1.12637 0.40418
 C1167 C 0.58007 1.08589 0.31128
 H1168 H 0.57423 1.07807 0.33547
 C1169 C 0.59570 1.10679 0.24892
 C1170 C 0.40128 0.92334 0.31498
 H1171 H 0.40895 0.92909 0.33937
 C1172 C 0.38075 0.90811 0.25203
 C1173 C 0.68809 1.07657 0.41132
 H1174 H 0.66572 1.06889 0.42263
 C1175 C 0.74447 1.09768 0.37973
 C1176 C 0.29850 0.92952 0.42231
 H1177 H 0.32184 0.93778 0.43119
 C1178 C 0.23874 0.90692 0.39870
 C1179 C 0.59420 1.19153 0.42113
 H1180 H 0.58291 1.17083 0.43240
 C1181 C 0.62427 1.24365 0.39044
 C1182 C 0.39789 0.81826 0.41961
 H1183 H 0.40871 0.84069 0.42793
 C1184 C 0.36843 0.76124 0.39707
 O1185 O 0.45567 0.38822 0.83995
 O1186 O 0.45101 0.35166 0.80127
 C1187 C 0.44205 0.37809 0.81432
 C1188 C 0.41508 0.39689 0.80005
 C1189 C 0.39989 0.38630 0.77148
 H1190 H 0.40844 0.36454 0.75974
 O1191 O 0.52709 0.62274 0.84717
 O1192 O 0.52662 0.66250 0.81199
 C1193 C 0.53742 0.63538 0.82130
 C1194 C 0.56334 0.61938 0.80248
 C1195 C 0.57794 0.63593 0.77698
 H1196 H 0.56840 0.65915 0.76991
 O1197 O 0.33123 0.48100 0.89105
 O1198 O 0.29165 0.48405 0.85529
 C1199 C 0.30359 0.47194 0.88071
 C1200 C 0.28569 0.44646 0.89802
 C1201 C 0.25405 0.43792 0.88885
 H1202 H 0.24208 0.45093 0.86962
 O1203 O 0.65365 0.52752 0.87360
 O1204 O 0.68900 0.52755 0.83365
 C1205 C 0.68015 0.53725 0.86139
 C1206 C 0.70072 0.56029 0.87953
 C1207 C 0.73270 0.56634 0.86979
 H1208 H 0.74249 0.55368 0.84906
 O1209 O 0.37238 0.34829 0.96739
 O1210 O 0.33258 0.31262 0.96871
 C1211 C 0.35889 0.32284 0.95643
 C1212 C 0.37382 0.30516 0.92897
 C1213 C 0.35947 0.27681 0.91672
 H1214 H 0.33759 0.26742 0.92772
 O1215 O 0.62411 0.65387 0.96728
 O1216 O 0.66448 0.68892 0.96566
 C1217 C 0.63653 0.67978 0.95654
 C1218 C 0.61882 0.69898 0.93245
 C1219 C 0.63419 0.72510 0.91725
 H1220 H 0.65866 0.73209 0.92398
 O1221 O 0.37651 0.54258 0.84657
 O1222 O 0.33733 0.54544 0.81042
 C1223 C 0.36452 0.55501 0.82124
 C1224 C 0.38195 0.58179 0.80533
 C1225 C 0.36949 0.59663 0.77739
 H1226 H 0.34746 0.58758 0.76622
 O1227 O 0.60287 0.46929 0.82927
 O1228 O 0.63766 0.46981 0.78893
 C1229 C 0.61190 0.45903 0.80181
 C1230 C 0.59285 0.43346 0.78529
 C1231 C 0.59982 0.42457 0.75338
 H1232 H 0.61826 0.43755 0.74003
 O1233 O 0.51985 0.34026 0.87800
 O1234 O 0.51553 0.30333 0.83965
 C1235 C 0.52896 0.31383 0.86533
 C1236 C 0.55587 0.29558 0.88038
 C1237 C 0.56297 0.26393 0.87042
 H1238 H 0.54831 0.25272 0.85175
 O1239 O 0.46727 0.66730 0.89577
 O1240 O 0.46622 0.70653 0.86005
 C1241 C 0.45584 0.69398 0.88591
 C1242 C 0.42901 0.70946 0.90390
 C1243 C 0.41119 0.73499 0.89019
 H1244 H 0.41808 0.74461 0.86694
 O1245 O 0.34197 0.62142 0.98614
 O1246 O 0.30540 0.65998 0.99056
 C1247 C 0.31560 0.63435 0.97700
 C1248 C 0.29762 0.62048 0.94914
 C1249 C 0.27005 0.63616 0.93690
 H1250 H 0.26065 0.65726 0.94924
 O1251 O 0.65768 0.37978 0.95331
 O1252 O 0.69519 0.34207 0.94932
 C1253 C 0.68325 0.36876 0.94024
 C1254 C 0.69879 0.38732 0.91411
 C1255 C 0.73145 0.38227 0.90560
 H1256 H 0.74570 0.36448 0.91836
 O1257 O 0.46422 0.62450 0.84995
 O1258 O 0.46401 0.66387 0.81435
 C1259 C 0.45273 0.63733 0.82467
 C1260 C 0.42525 0.62202 0.80757
 C1261 C 0.41268 0.63635 0.77981
 H1262 H 0.42465 0.65739 0.76994
 O1263 O 0.51831 0.38405 0.83356
 O1264 O 0.51402 0.34749 0.79487
 C1265 C 0.52683 0.37311 0.80613
 C1266 C 0.55207 0.39049 0.78756
 C1267 C 0.56004 0.38131 0.75576
 H1268 H 0.54757 0.36131 0.74413
 O1269 O 0.65033 0.46551 0.87026
 O1270 O 0.68560 0.46591 0.83025
 C1271 C 0.67590 0.45472 0.85704
 C1272 C 0.69486 0.42939 0.87336
 C1273 C 0.72750 0.42443 0.86542
 H1274 H 0.73850 0.43882 0.84664
 O1275 O 0.33648 0.54331 0.89464
 O1276 O 0.29710 0.54646 0.85870
 C1277 C 0.31021 0.55590 0.88494
 C1278 C 0.29525 0.58236 0.90389
 C1279 C 0.26758 0.59820 0.89223
 H1280 H 0.25671 0.59033 0.86971
 O1281 O 0.38811 0.66353 0.98527
 O1282 O 0.35135 0.70194 0.98980
 C1283 C 0.37635 0.69031 0.97622
 C1284 C 0.39037 0.70734 0.94837
 C1285 C 0.37316 0.73283 0.93452
 H1286 H 0.35115 0.74144 0.94590
 O1287 O 0.61222 0.33647 0.95522
 O1288 O 0.64912 0.29820 0.95116
 C1289 C 0.62205 0.31019 0.94271
 C1290 C 0.60171 0.29384 0.91792
 C1291 C 0.60856 0.26220 0.90752
 H1292 H 0.62864 0.24927 0.91822
 O1293 O 0.60651 0.53279 0.83302
 O1294 O 0.64182 0.53359 0.79313
 C1295 C 0.61737 0.54557 0.80743
 C1296 C 0.60241 0.57564 0.79529
 C1297 C 0.61697 0.59292 0.76994
 H1298 H 0.63838 0.58342 0.75816
 O1299 O 0.37571 0.47936 0.84701
 O1300 O 0.33622 0.48207 0.81117
 C1301 C 0.36239 0.46930 0.82123
 C1302 C 0.37667 0.44172 0.80331
 C1303 C 0.36230 0.43103 0.77448
 H1304 H 0.34227 0.44460 0.76468
 O1305 O 0.53094 0.66506 0.89299
 O1306 O 0.52991 0.70467 0.85767
 C1307 C 0.54256 0.69122 0.88205
 C1308 C 0.57245 0.70492 0.89634
 C1309 C 0.58840 0.73063 0.88112
 H1310 H 0.57777 0.74186 0.86006
 O1311 O 0.45636 0.34176 0.88112
 O1312 O 0.45197 0.30490 0.84271
 C1313 C 0.44300 0.31643 0.86972
 C1314 C 0.41573 0.30126 0.88737
 C1315 C 0.40147 0.27242 0.87604
 H1316 H 0.41152 0.26010 0.85521
 O1317 O 0.66634 0.60748 0.96290
 O1318 O 0.70672 0.64252 0.96192
 C1319 C 0.69283 0.61740 0.95079
 C1320 C 0.70705 0.59974 0.92310
 C1321 C 0.73889 0.60603 0.91266
 H1322 H 0.75369 0.62360 0.92544
 O1323 O 0.33034 0.39458 0.97245
 O1324 O 0.29054 0.35891 0.97359
 C1325 C 0.30275 0.38478 0.96271
 C1326 C 0.28529 0.40331 0.93782
 C1327 C 0.25391 0.39435 0.92766
 H1328 H 0.24164 0.37406 0.93870
 Cu1329 Cu 0.48813 0.36713 0.86204
 Cu1330 Cu 0.48275 0.32311 0.81580
 Cu1331 Cu 0.49734 0.64109 0.87530
 Cu1332 Cu 0.49659 0.68847 0.83254
 Cu1333 Cu 0.35902 0.51130 0.87331
 Cu1334 Cu 0.31171 0.51477 0.83019
 Cu1335 Cu 0.62451 0.49866 0.85531
 Cu1336 Cu 0.66671 0.49907 0.80707
 C1337 C 0.40330 0.42470 0.81578
 H1338 H 0.41434 0.43265 0.83821
 C1339 C 0.37333 0.40313 0.75856
 C1340 C 0.57553 0.58910 0.81138
 H1341 H 0.56471 0.57648 0.83150
 C1342 C 0.60517 0.62340 0.76115
 C1343 C 0.30085 0.42943 0.92291
 H1344 H 0.32533 0.43592 0.93004
 C1345 C 0.23809 0.41192 0.90350
 C1346 C 0.68826 0.57672 0.90644
 H1347 H 0.66352 0.57212 0.91397
 C1348 C 0.75198 0.58901 0.88628
 C1349 C 0.40201 0.31712 0.91417
 H1350 H 0.41275 0.33942 0.92293
 C1351 C 0.37319 0.26030 0.89041
 C1352 C 0.58769 0.68947 0.92229
 H1353 H 0.57603 0.66894 0.93351
 C1354 C 0.61920 0.74055 0.89140
 C1355 C 0.41003 0.59454 0.81998
 H1356 H 0.41942 0.58378 0.84183
 C1357 C 0.38466 0.62426 0.76486
 C1358 C 0.56863 0.41659 0.80200
 H1359 H 0.56318 0.42336 0.82669
 C1360 C 0.58360 0.39863 0.73857
 C1361 C 0.57518 0.31017 0.90435
 H1362 H 0.56995 0.33468 0.91198
 C1363 C 0.58903 0.24690 0.88406
 C1364 C 0.41849 0.69599 0.93315
 H1365 H 0.43139 0.67573 0.94341
 C1366 C 0.38276 0.74614 0.90515
 C1367 C 0.30987 0.59343 0.93258
 H1368 H 0.33155 0.58167 0.94141
 C1369 C 0.25509 0.62534 0.90832
 C1370 C 0.68081 0.41101 0.89792
 H1371 H 0.65563 0.41495 0.90425
 C1372 C 0.74613 0.40133 0.88172
 O1373 O 0.53755 0.37475 1.15010
 O1374 O 0.53760 0.33556 1.18593
 C1375 C 0.54884 0.36219 1.17559
 C1376 C 0.57512 0.37875 1.19358
 C1377 C 0.58146 0.37045 1.22560
 H1378 H 0.56723 0.35152 1.23667
 O1379 O 0.48592 0.61280 1.16560
 O1380 O 0.49021 0.65000 1.20371
 C1381 C 0.47698 0.62447 1.19253
 C1382 C 0.44988 0.60932 1.21043
 C1383 C 0.43651 0.62559 1.23692
 H1384 H 0.44763 0.64781 1.24539
 O1385 O 0.34979 0.53269 1.13326
 O1386 O 0.31480 0.53259 1.17345
 C1387 C 0.32469 0.54416 1.14690
 C1388 C 0.30776 0.57190 1.13200
 C1389 C 0.28065 0.58639 1.14691
 H1390 H 0.27091 0.57667 1.16909
 O1391 O 0.66687 0.45873 1.10713
 O1392 O 0.70662 0.45575 1.14263
 C1393 C 0.69356 0.44663 1.11626
 C1394 C 0.70926 0.42133 1.09631
 C1395 C 0.73969 0.40918 1.10513
 H1396 H 0.75208 0.41893 1.12613
 O1397 O 0.61694 0.33498 1.01784
 O1398 O 0.65422 0.29704 1.01413
 C1399 C 0.62893 0.30850 1.02742
 C1400 C 0.61403 0.29151 1.05508
 C1401 C 0.62941 0.26459 1.06854
 H1402 H 0.65107 0.25520 1.05719
 O1403 O 0.39209 0.66203 1.04773
 O1404 O 0.35571 0.70080 1.05200
 C1405 C 0.38262 0.68847 1.06025
 C1406 C 0.40302 0.70470 1.08490
 C1407 C 0.39529 0.73575 1.09632
 H1408 H 0.37461 0.74827 1.08629
 O1409 O 0.39465 0.46588 1.17021
 O1410 O 0.35991 0.46503 1.21053
 C1411 C 0.38440 0.45321 1.19612
 C1412 C 0.40053 0.42365 1.20848
 C1413 C 0.38908 0.40767 1.23628
 H1414 H 0.36876 0.41756 1.24953
 O1415 O 0.62733 0.52027 1.15745
 O1416 O 0.66669 0.51703 1.19342
 C1417 C 0.64052 0.52978 1.18355
 C1418 C 0.62621 0.55709 1.20164
 C1419 C 0.64123 0.56885 1.22978
 H1420 H 0.66225 0.55657 1.23946
 O1421 O 0.47032 0.33440 1.10751
 O1422 O 0.47044 0.29484 1.14284
 C1423 C 0.45802 0.30851 1.11840
 C1424 C 0.42795 0.29542 1.10340
 C1425 C 0.41100 0.26938 1.11746
 H1426 H 0.42058 0.25772 1.13876
 O1427 O 0.54855 0.65578 1.11930
 O1428 O 0.55286 0.69308 1.15729
 C1429 C 0.56143 0.68159 1.13014
 C1430 C 0.58681 0.69801 1.11092
 C1431 C 0.59666 0.72988 1.11802
 H1432 H 0.58525 0.74295 1.13764
 O1433 O 0.33531 0.39212 1.03569
 O1434 O 0.29507 0.35694 1.03668
 C1435 C 0.30914 0.38182 1.04823
 C1436 C 0.29542 0.39865 1.07690
 C1437 C 0.26391 0.39155 1.08798
 H1438 H 0.24906 0.37412 1.07505
 O1439 O 0.66867 0.60462 1.02617
 O1440 O 0.70804 0.64076 1.02489
 C1441 C 0.69568 0.61523 1.03651
 C1442 C 0.71174 0.60008 1.06444
 C1443 C 0.73518 0.61807 1.08097
 H1444 H 0.74383 0.64058 1.07086
 O1445 O 0.54878 0.61062 1.16271
 O1446 O 0.55330 0.64770 1.20090
 C1447 C 0.56187 0.62090 1.18857
 C1448 C 0.58788 0.60189 1.20393
 C1449 C 0.60294 0.61306 1.23227
 H1450 H 0.59473 0.63526 1.24352
 O1451 O 0.47478 0.37643 1.15401
 O1452 O 0.47528 0.33658 1.18905
 C1453 C 0.46486 0.36396 1.18016
 C1454 C 0.44015 0.38054 1.20022
 C1455 C 0.42917 0.36574 1.22843
 H1456 H 0.44095 0.34388 1.23621
 O1457 O 0.66996 0.52159 1.11240
 O1458 O 0.70936 0.51932 1.14839
 C1459 C 0.69666 0.53224 1.12365
 C1460 C 0.71193 0.56082 1.10830
 C1461 C 0.73452 0.58036 1.12530
 H1462 H 0.74179 0.57411 1.14959
 O1463 O 0.34885 0.47045 1.12790
 O1464 O 0.31339 0.47025 1.16769
 C1465 C 0.32241 0.46047 1.13994
 C1466 C 0.30207 0.43715 1.12157
 C1467 C 0.27043 0.43015 1.13180
 H1468 H 0.26086 0.44209 1.15306
 O1469 O 0.62823 0.65218 1.02951
 O1470 O 0.66764 0.68832 1.02774
 C1471 C 0.64131 0.67806 1.03991
 C1472 C 0.62571 0.69618 1.06655
 C1473 C 0.63502 0.72805 1.07371
 H1474 H 0.65386 0.73937 1.05951
 O1475 O 0.37846 0.34705 1.02962
 O1476 O 0.33834 0.31174 1.03093
 C1477 C 0.36627 0.32106 1.04020
 C1478 C 0.38363 0.30197 1.06472
 C1479 C 0.36793 0.27545 1.07827
 H1480 H 0.34488 0.26759 1.06840
 O1481 O 0.62572 0.45744 1.15460
 O1482 O 0.66485 0.45397 1.19074
 C1483 C 0.63745 0.44475 1.17989
 C1484 C 0.61874 0.41885 1.19618
 C1485 C 0.62495 0.41001 1.22845
 H1486 H 0.64381 0.42227 1.24208
 O1487 O 0.39855 0.52962 1.17255
 O1488 O 0.36356 0.52969 1.21268
 C1489 C 0.38906 0.54086 1.19948
 C1490 C 0.40689 0.56852 1.21437
 C1491 C 0.39371 0.58558 1.24082
 H1492 H 0.37121 0.57750 1.25158
 O1493 O 0.48535 0.65869 1.12373
 O1494 O 0.48991 0.69593 1.16179
 C1495 C 0.47637 0.68526 1.13633
 C1496 C 0.44927 0.70334 1.12170
 C1497 C 0.44131 0.73444 1.13277
 H1498 H 0.45573 0.74553 1.15169
 O1499 O 0.53450 0.33146 1.10498
 O1500 O 0.53483 0.29213 1.14055
 C1501 C 0.54579 0.30476 1.11498
 C1502 C 0.57316 0.28925 1.09768
 C1503 C 0.58903 0.26222 1.11085
 H1504 H 0.58012 0.25157 1.13293
 O1505 O 0.66183 0.37865 1.01610
 O1506 O 0.69926 0.34087 1.01218
 C1507 C 0.68881 0.36684 1.02494
 C1508 C 0.70748 0.38287 1.05119
 C1509 C 0.73838 0.37158 1.06005
 H1510 H 0.74944 0.35188 1.04675
 O1511 O 0.34698 0.61808 1.04943
 O1512 O 0.31068 0.65691 1.05354
 C1513 C 0.32211 0.63011 1.06290
 C1514 C 0.30691 0.61371 1.09062
 C1515 C 0.28032 0.62795 1.10601
 H1516 H 0.26999 0.65004 1.09662
 Cu1517 Cu 0.50422 0.35792 1.12524
 Cu1518 Cu 0.50464 0.31058 1.16789
 Cu1519 Cu 0.51691 0.63085 1.13888
 Cu1520 Cu 0.52212 0.67533 1.18484
 Cu1521 Cu 0.35792 0.37432 1.00106
 Cu1522 Cu 0.31011 0.33150 1.00270
 Cu1523 Cu 0.63349 0.36129 0.98587
 Cu1524 Cu 0.67815 0.31567 0.98119
 Cu1525 Cu 0.37085 0.63721 1.01687
 Cu1526 Cu 0.32697 0.68365 1.02207
 Cu1527 Cu 0.64290 0.62580 0.99638
 Cu1528 Cu 0.69095 0.66850 0.99489
 Cu1529 Cu 0.37668 0.49973 1.14726
 Cu1530 Cu 0.33471 0.49907 1.19541
 Cu1531 Cu 0.64357 0.48962 1.12934
 Cu1532 Cu 0.69098 0.48585 1.17231
 C1533 C 0.59358 0.40317 1.17915
 H1534 H 0.58864 0.40963 1.15434
 C1535 C 0.60573 0.38625 1.24350
 C1536 C 0.43513 0.58061 1.19946
 H1537 H 0.44496 0.56836 1.17849
 C1538 C 0.40810 0.61456 1.25167
 C1539 C 0.32035 0.58555 1.10359
 H1540 H 0.34143 0.57494 1.09215
 C1541 C 0.26724 0.61465 1.13403
 C1542 C 0.69338 0.40814 1.06918
 H1543 H 0.66949 0.41684 1.06272
 C1544 C 0.75436 0.38446 1.08716
 C1545 C 0.58578 0.30353 1.06968
 H1546 H 0.57415 0.32471 1.05978
 C1547 C 0.61749 0.25008 1.09669
 C1548 C 0.43020 0.68884 1.09755
 H1549 H 0.43605 0.66472 1.08916
 C1550 C 0.41445 0.75091 1.12011
 C1551 C 0.42604 0.40970 1.19061
 H1552 H 0.43438 0.42106 1.16866
 C1553 C 0.40313 0.37832 1.24621
 C1554 C 0.59935 0.57359 1.18907
 H1555 H 0.58815 0.56512 1.16690
 C1556 C 0.62983 0.59687 1.24508
 C1557 C 0.41390 0.31160 1.07701
 H1558 H 0.42589 0.33247 1.06680
 C1559 C 0.38053 0.25991 1.10529
 C1560 C 0.60138 0.68154 1.08503
 H1561 H 0.59418 0.65690 1.07963
 C1562 C 0.62041 0.74526 1.09912
 C1563 C 0.31421 0.42161 1.09385
 H1564 H 0.33864 0.42692 1.08583
 C1565 C 0.25112 0.40762 1.11511
 C1566 C 0.70046 0.57120 1.07796
 H1567 H 0.68178 0.55753 1.06545
 C1568 C 0.74523 0.60965 1.11189
 N1569 N 1.18332 1.11163 1.26816
 N1570 N 1.19157 1.12813 1.29430
 C1571 C 1.16452 1.14090 1.30729
 C1572 C 1.13789 1.13222 1.28868
 C1573 C 1.15092 1.11380 1.26393
 H1574 H 1.11279 1.13893 1.29224
 H1575 H 1.19993 1.10037 1.25280
 H1576 H 1.21545 1.13160 1.30205
 N1577 N 1.17851 0.60859 0.77340
 N1578 N 1.18763 0.62488 0.79940
 C1579 C 1.16118 0.63845 0.81279
 C1580 C 1.13403 0.63053 0.79451
 C1581 C 1.14614 0.61173 0.76957
 H1582 H 1.10920 0.63805 0.79830
 H1583 H 1.19456 0.59687 0.75780
 H1584 H 1.21173 0.62774 0.80671
 N1585 N 0.63728 1.07295 0.80589
 N1586 N 0.64431 1.08651 0.83398
 C1587 C 0.63664 1.11804 0.83249
 C1588 C 0.62407 1.12497 0.80235
 C1589 C 0.62496 1.09563 0.78609
 H1590 H 0.61609 1.14814 0.79344
 H1591 H 0.64039 1.04842 0.80084
 H1592 H 0.65366 1.07415 0.85379
 N1593 N 0.68018 0.60936 1.27625
 N1594 N 0.68869 0.62723 1.30138
 C1595 C 0.66169 0.64015 1.31437
 C1596 C 0.63484 0.63018 1.29687
 C1597 C 0.64769 0.61079 1.27272
 H1598 H 0.60971 0.63663 1.30072
 H1599 H 0.69664 0.59774 1.26100
 H1600 H 0.71267 0.63138 1.30847
 N1601 N 0.83701 0.87103 1.26269
 N1602 N 0.82396 0.85729 1.28811
 C1603 C 0.84780 0.84940 1.30895
 C1604 C 0.87767 0.85774 1.29565
 C1605 C 0.86942 0.87200 1.26657
 H1606 H 0.90166 0.85590 1.30591
 H1607 H 0.82372 0.88026 1.24336
 H1608 H 0.79901 0.85418 1.29117
 N1609 N 0.92616 0.37077 0.80696
 N1610 N 0.91235 0.36150 0.83409
 C1611 C 0.88058 0.36891 0.83269
 C1612 C 0.87383 0.38355 0.80344
 C1613 C 0.90345 0.38415 0.78780
 H1614 H 0.85041 0.39060 0.79400
 H1615 H 0.95069 0.36751 0.80162
 H1616 H 0.92472 0.35017 0.85279
 N1617 N 0.38383 0.82669 0.77071
 N1618 N 0.36854 0.81447 0.79571
 C1619 C 0.35449 0.83877 0.81204
 C1620 C 0.36084 0.86794 0.79673
 C1621 C 0.38000 0.85914 0.77062
 H1622 H 0.35266 0.89183 0.80356
 H1623 H 0.39575 0.81253 0.75352
 H1624 H 0.36682 0.78982 0.80058
 N1625 N 0.39784 0.32828 1.27979
 N1626 N 0.38390 0.31910 1.30681
 C1627 C 0.36699 0.34407 1.31875
 C1628 C 0.37028 0.37063 1.29874
 C1629 C 0.39052 0.35963 1.27416
 H1630 H 0.36011 0.39446 1.30214
 H1631 H 0.41164 0.31272 1.26551
 H1632 H 0.38573 0.29601 1.31662
 N1633 N 0.92367 1.12665 0.70018
 N1634 N 0.91366 1.13440 0.67100
 C1635 C 0.88173 1.12813 0.66894
 C1636 C 0.87077 1.11549 0.69803
 C1637 C 0.89829 1.11540 0.71747
 H1638 H 0.84622 1.10887 0.70448
 H1639 H 0.94767 1.12914 0.70793
 H1640 H 0.92858 1.14365 0.65292
 N1641 N 0.82124 0.63251 0.25050
 N1642 N 0.80801 0.64606 0.22505
 C1643 C 0.83195 0.65696 0.20606
 C1644 C 0.86192 0.65047 0.21994
 C1645 C 0.85390 0.63435 0.24808
 H1646 H 0.88579 0.65526 0.21023
 H1647 H 0.80789 0.62198 0.26909
 H1648 H 0.78306 0.64781 0.22095
 N1649 N 0.37688 1.17806 0.24056
 N1650 N 0.36408 1.18863 0.21346
 C1651 C 0.35289 1.16308 0.19655
 C1652 C 0.35859 1.13487 0.21367
 C1653 C 0.37407 1.14558 0.24150
 H1654 H 0.35301 1.11027 0.20662
 H1655 H 0.38704 1.19310 0.25823
 H1656 H 0.36265 1.21296 0.20718
 N1657 N 0.37467 0.67432 0.73376
 N1658 N 0.36342 0.68269 0.70529
 C1659 C 0.35260 0.65601 0.68977
 C1660 C 0.35637 0.62941 0.70985
 C1661 C 0.37120 0.64216 0.73723
 H1662 H 0.35040 0.60439 0.70538
 H1663 H 0.38460 0.69062 0.75041
 H1664 H 0.36335 0.70643 0.69696
 N1665 N 1.06941 0.85906 0.69303
 N1666 N 1.08514 0.85090 0.66647
 C1667 C 1.11620 0.86068 0.66938
 C1668 C 1.12050 0.87577 0.69907
 C1669 C 1.09010 0.87429 0.71337
 H1670 H 1.14263 0.88588 0.70900
 H1671 H 1.04471 0.85477 0.69667
 H1672 H 1.07448 0.83943 0.64659
 N1673 N 1.07250 0.36228 0.18899
 N1674 N 1.08798 0.35447 0.16220
 C1675 C 1.11942 0.36273 0.16560
 C1676 C 1.12430 0.37641 0.19584
 C1677 C 1.09379 0.37568 0.20999
 H1678 H 1.14686 0.38496 0.20623
 H1679 H 1.04763 0.35891 0.19237
 H1680 H 1.07696 0.34413 0.14190
 N1681 N 0.62414 0.83606 0.23140
 N1682 N 0.63900 0.82798 0.20432
 C1683 C 0.63298 0.85090 0.18224
 C1684 C 0.61366 0.87473 0.19572
 C1685 C 0.60884 0.86440 0.22699
 H1686 H 0.60478 0.89665 0.18480
 H1687 H 0.62573 0.82313 0.25290
 H1688 H 0.65408 0.80792 0.20159
 N1689 N 0.58993 0.41282 0.68112
 N1690 N 0.60641 0.40202 0.65604
 C1691 C 0.61875 0.37281 0.66324
 C1692 C 0.60936 0.36449 0.69430
 C1693 C 0.59129 0.39078 0.70479
 H1694 H 0.61779 0.34453 0.70870
 H1695 H 0.57983 0.43588 0.68273
 H1696 H 0.61049 0.41546 0.63525
 N1697 N 1.26877 1.11338 1.16321
 N1698 N 1.29151 1.12935 1.17905
 C1699 C 1.31071 1.14398 1.15741
 C1700 C 1.29948 1.13759 1.12632
 C1701 C 1.27292 1.11771 1.13119
 H1702 H 1.30933 1.14594 1.10367
 H1703 H 1.25032 1.10024 1.17438
 H1704 H 1.29290 1.13093 1.20416
 N1705 N 1.31128 0.58066 0.62832
 N1706 N 1.33292 0.59881 0.64360
 C1707 C 1.32285 0.62971 0.64274
 C1708 C 1.29427 0.63150 0.62510
 C1709 C 1.28756 0.59980 0.61678
 H1710 H 1.27943 0.65237 0.62027
 H1711 H 1.31283 0.55559 0.62587
 H1712 H 1.35442 0.59006 0.65352
 N1713 N 0.81162 1.06721 0.62440
 N1714 N 0.83834 1.08021 0.63637
 C1715 C 0.83716 1.11224 0.63150
 C1716 C 0.80864 1.12017 0.61564
 C1717 C 0.79301 1.09080 0.61172
 H1718 H 0.80007 1.14390 0.60901
 H1719 H 0.80639 1.04253 0.62501
 H1720 H 0.85704 1.06724 0.64727
 N1721 N 0.75587 0.66654 1.12772
 N1722 N 0.77788 0.68349 1.14353
 C1723 C 0.79910 0.66284 1.15672
 C1724 C 0.79011 0.63118 1.14957
 C1725 C 0.76267 0.63476 1.13054
 H1726 H 0.80255 0.60913 1.15592
 H1727 H 0.73664 0.67675 1.11492
 H1728 H 0.77805 0.70866 1.14531
 N1729 N 1.25888 0.87310 0.82360
 N1730 N 1.28680 0.86089 0.81412
 C1731 C 1.30304 0.85088 0.84037
 C1732 C 1.28474 0.85675 0.86784
 C1733 C 1.25684 0.87089 0.85602
 H1734 H 1.29082 0.85151 0.89267
 H1735 H 1.24129 0.88208 0.80788
 H1736 H 1.29386 0.85858 0.79003
 N1737 N 1.26776 0.36188 0.32980
 N1738 N 1.29723 0.35270 0.32162
 C1739 C 1.31500 0.34907 0.34867
 C1740 C 1.29583 0.35575 0.37547
 C1741 C 1.26600 0.36416 0.36220
 H1742 H 1.30309 0.35664 0.40056
 H1743 H 1.24937 0.36713 0.31329
 H1744 H 1.30497 0.34970 0.29782
 N1745 N 0.75857 0.82762 0.35965
 N1746 N 0.78741 0.81572 0.35271
 C1747 C 0.80882 0.84023 0.35249
 C1748 C 0.79292 0.86920 0.35833
 C1749 C 0.76099 0.86000 0.36298
 H1750 H 0.80327 0.89321 0.35973
 H1751 H 0.73763 0.81368 0.36251
 H1752 H 0.79195 0.79148 0.34740
 N1753 N 0.79970 0.42258 0.86329
 N1754 N 0.82888 0.41138 0.85663
 C1755 C 0.82933 0.37944 0.86263
 C1756 C 0.79927 0.37002 0.87456
 C1757 C 0.78100 0.39811 0.87398
 H1758 H 0.79125 0.34616 0.88143
 H1759 H 0.79293 0.44670 0.86058
 H1760 H 0.84796 0.42556 0.84809
 N1761 N 0.69766 0.92204 1.14732
 N1762 N 0.67089 0.90688 1.15605
 C1763 C 0.67184 0.87641 1.14439
 C1764 C 0.70070 0.87194 1.12778
 C1765 C 0.71638 0.90156 1.13017
 H1766 H 0.70962 0.84993 1.11677
 H1767 H 0.70268 0.94616 1.15297
 H1768 H 0.65261 0.91772 1.16958
 N1769 N 0.69026 0.41151 0.59761
 N1770 N 0.66296 0.39622 0.60433
 C1771 C 0.66825 0.37734 0.63004
 C1772 C 0.70004 0.38066 0.64039
 C1773 C 0.71312 0.40299 0.61925
 H1774 H 0.71222 0.36755 0.65936
 H1775 H 0.69362 0.42625 0.57753
 H1776 H 0.64164 0.39784 0.59080
 N1777 N 0.19216 0.92513 0.64285
 N1778 N 0.16437 0.91080 0.64980
 C1779 C 0.16640 0.87945 0.64110
 C1780 C 0.19668 0.87360 0.62774
 C1781 C 0.21227 0.90329 0.62929
 H1782 H 0.20616 0.85100 0.61856
 H1783 H 0.19682 0.94967 0.64664
 H1784 H 0.14431 0.92266 0.65957
 N1785 N 0.19844 0.42397 1.14020
 N1786 N 0.17008 0.41079 1.14708
 C1787 C 0.17061 0.37958 1.13773
 C1788 C 0.20052 0.37261 1.12400
 C1789 C 0.21751 0.40151 1.12611
 H1790 H 0.20891 0.34976 1.11438
 H1791 H 0.20422 0.44818 1.14454
 H1792 H 0.15067 0.42332 1.15731
 N1793 N 0.69495 1.13785 0.92536
 N1794 N 0.66685 1.14538 0.91206
 C1795 C 0.66767 1.13665 0.88075
 C1796 C 0.69747 1.12282 0.87372
 C1797 C 0.71419 1.12413 0.90277
 H1798 H 0.70590 1.11368 0.85071
 H1799 H 0.70036 1.14156 0.94972
 H1800 H 0.64741 1.15567 0.92450
 N1801 N 0.72642 0.67596 0.39605
 N1802 N 0.70171 0.68611 0.37859
 C1803 C 0.68733 0.66025 0.36484
 C1804 C 0.70348 0.63241 0.37380
 C1805 C 0.72829 0.64347 0.39353
 H1806 H 0.69853 0.60785 0.36614
 H1807 H 0.74258 0.69138 0.40802
 H1808 H 0.69606 0.71039 0.37498
 N1809 N 0.22607 1.17754 0.39255
 N1810 N 0.20209 1.18716 0.37379
 C1811 C 0.18965 1.16114 0.35847
 C1812 C 0.20630 1.13376 0.36779
 C1813 C 0.22941 1.14524 0.38941
 H1814 H 0.20253 1.10922 0.35947
 H1815 H 0.24072 1.19324 0.40599
 H1816 H 0.19544 1.21126 0.37069
 N1817 N 0.22449 0.67613 0.89702
 N1818 N 0.20027 0.68549 0.87843
 C1819 C 0.18796 0.65936 0.86315
 C1820 C 0.20501 0.63217 0.87235
 C1821 C 0.22817 0.64389 0.89382
 H1822 H 0.20141 0.60755 0.86417
 H1823 H 0.23907 0.69194 0.91043
 H1824 H 0.19330 0.70952 0.87549
 N1825 N 1.14256 1.30260 1.07516
 N1826 N 1.14880 1.33119 1.08804
 C1827 C 1.14034 1.33051 1.11935
 C1828 C 1.12791 1.30032 1.12683
 C1829 C 1.12993 1.28318 1.09803
 H1830 H 1.11933 1.29195 1.14998
 H1831 H 1.14642 1.29691 1.05089
 H1832 H 1.15813 1.35082 1.07533
 N1833 N 1.14254 0.80023 0.57948
 N1834 N 1.14772 0.82915 0.59214
 C1835 C 1.13847 0.82874 0.62326
 C1836 C 1.12667 0.79830 0.63080
 C1837 C 1.12978 0.78080 0.60226
 H1838 H 1.11755 0.79007 0.65379
 H1839 H 1.14699 0.79436 0.55536
 H1840 H 1.15673 0.84886 0.57933
 N1841 N 0.65180 1.27377 0.65919
 N1842 N 0.65511 1.30431 0.66812
 C1843 C 0.64709 1.32302 0.64299
 C1844 C 0.63870 1.30378 0.61671
 C1845 C 0.64202 1.27249 0.62811
 H1846 H 0.62880 1.31142 0.59381
 H1847 H 0.65469 1.25415 0.67464
 H1848 H 0.66182 1.31201 0.69122
 N1849 N 0.64189 0.79941 1.08282
 N1850 N 0.64910 0.82743 1.09648
 C1851 C 0.64238 0.82570 1.12822
 C1852 C 0.62945 0.79542 1.13491
 C1853 C 0.63006 0.77928 1.10545
 H1854 H 0.62150 0.78603 1.15785
 H1855 H 0.64465 0.79454 1.05823
 H1856 H 0.65799 0.84736 1.08395
 N1857 N 0.84334 1.27550 0.86927
 N1858 N 0.83446 1.30387 0.85789
 C1859 C 0.85706 1.32587 0.86643
 C1860 C 0.88170 1.31093 0.88353
 C1861 C 0.87195 1.27898 0.88466
 H1862 H 0.90334 1.32154 0.89394
 H1863 H 0.83039 1.25403 0.86586
 H1864 H 0.81388 1.30774 0.84372
 N1865 N 0.91078 0.80872 0.38273
 N1866 N 0.89530 0.83094 0.36594
 C1867 C 0.86502 0.82023 0.35986
 C1868 C 0.86061 0.79036 0.37437
 C1869 C 0.89043 0.78384 0.38839
 H1870 H 0.83970 0.77459 0.37313
 H1871 H 0.93508 0.81039 0.38976
 H1872 H 0.90535 0.85309 0.35940
 N1873 N 0.41079 1.31553 0.39972
 N1874 N 0.39601 1.33906 0.38422
 C1875 C 0.36604 1.32910 0.37561
 C1876 C 0.36149 1.29770 0.38636
 C1877 C 0.39062 1.29000 0.40133
 H1878 H 0.34202 1.28130 0.37988
 H1879 H 0.43505 1.31623 0.40705
 H1880 H 0.40739 1.36036 0.37693
 N1881 N 0.32788 0.76638 0.89093
 N1882 N 0.31471 0.78943 0.87353
 C1883 C 0.33869 0.80704 0.86030
 C1884 C 0.36855 0.79438 0.86917
 C1885 C 0.36048 0.76867 0.88891
 H1886 H 0.39248 0.80271 0.86242
 H1887 H 0.31454 0.74882 0.90315
 H1888 H 0.28976 0.79213 0.87014
 N1889 N 1.10558 0.72375 0.82745
 N1890 N 1.12461 0.70049 0.81669
 C1891 C 1.13805 0.68565 0.84223
 C1892 C 1.12735 0.70009 0.87047
 C1893 C 1.10684 0.72429 0.85999
 H1894 H 1.13426 0.69443 0.89499
 H1895 H 1.09339 0.73997 0.81255
 H1896 H 1.12931 0.69610 0.79232
 N1897 N 1.10733 0.22530 0.32191
 N1898 N 1.12650 0.20210 0.31125
 C1899 C 1.14003 0.18743 0.33685
 C1900 C 1.12918 0.20188 0.36501
 C1901 C 1.10856 0.22596 0.35445
 H1902 H 1.13610 0.19634 0.38955
 H1903 H 1.09507 0.24139 0.30694
 H1904 H 1.13127 0.19767 0.28689
 N1905 N 0.60546 0.72556 0.32797
 N1906 N 0.62347 0.70124 0.31775
 C1907 C 0.63819 0.68786 0.34342
 C1908 C 0.62932 0.70445 0.37120
 C1909 C 0.60857 0.72832 0.36030
 H1910 H 0.63740 0.70026 0.39567
 H1911 H 0.59257 0.74086 0.31270
 H1912 H 0.62662 0.69515 0.29348
 N1913 N 0.57299 0.19297 0.86114
 N1914 N 0.58672 0.16491 0.85457
 C1915 C 0.61825 0.16664 0.86294
 C1916 C 0.62500 0.19704 0.87548
 C1917 C 0.59552 0.21314 0.87382
 H1918 H 0.64815 0.20625 0.88385
 H1919 H 0.54841 0.19776 0.85744
 H1920 H 0.57446 0.14494 0.84496
 N1921 N 0.86558 0.74888 1.17925
 N1922 N 0.85298 0.72318 1.19309
 C1923 C 0.84165 0.70339 1.16980
 C1924 C 0.84683 0.71713 1.13971
 C1925 C 0.86243 0.74598 1.14693
 H1926 H 0.84159 0.70690 1.11618
 H1927 H 0.87665 0.76786 1.19187
 H1928 H 0.85226 0.71951 1.21797
 N1929 N 0.87186 0.18923 0.57606
 N1930 N 0.86465 0.16048 0.58757
 C1931 C 0.87040 0.16068 0.61957
 C1932 C 0.88230 0.19070 0.62889
 C1933 C 0.88253 0.20819 0.60044
 H1934 H 0.88823 0.19908 0.65298
 H1935 H 0.86942 0.19564 0.55184
 H1936 H 0.85583 0.14128 0.57361
 N1937 N 0.32424 0.73366 0.62514
 N1938 N 0.31442 0.70598 0.63733
 C1939 C 0.34040 0.68675 0.64062
 C1940 C 0.36822 0.70303 0.63118
 C1941 C 0.35673 0.73273 0.62121
 H1942 H 0.39306 0.69468 0.63203
 H1943 H 0.30895 0.75321 0.62063
 H1944 H 0.29070 0.70119 0.64470
 N1945 N 0.32692 0.23663 1.12027
 N1946 N 0.31530 0.21150 1.13578
 C1947 C 0.34041 0.19452 1.14738
 C1948 C 0.36945 0.20938 1.13930
 C1949 C 0.35969 0.23597 1.12159
 H1950 H 0.39386 0.20157 1.14482
 H1951 H 0.31233 0.25412 1.10952
 H1952 H 0.29064 0.20653 1.13874
 N1953 N 1.09995 1.08468 0.68904
 N1954 N 1.11648 1.09559 0.66415
 C1955 C 1.12599 1.12606 0.67067
 C1956 C 1.11482 1.13520 0.70095
 C1957 C 1.09866 1.10791 0.71195
 H1958 H 1.12112 1.15674 0.71452
 H1959 H 1.09151 1.06097 0.69108
 H1960 H 1.12260 1.08171 0.64395
 N1961 N 1.11867 0.58573 0.19179
 N1962 N 1.13507 0.60128 0.16934
 C1963 C 1.13813 0.63232 0.17859
 C1964 C 1.12257 0.63702 0.20792
 C1965 C 1.11078 0.60665 0.21561
 H1966 H 1.12247 0.65846 0.22294
 H1967 H 1.11392 0.56094 0.19123
 H1968 H 1.14432 0.59057 0.14845
 N1969 N 0.57948 1.12759 0.19490
 N1970 N 0.59346 1.13776 0.16816
 C1971 C 0.62580 1.13515 0.17165
 C1972 C 0.63286 1.12174 0.20147
 C1973 C 0.60259 1.11773 0.21568
 H1974 H 0.65649 1.11707 0.21183
 H1975 H 0.55443 1.12722 0.19868
 H1976 H 0.58083 1.14546 0.14780
 N1977 N 0.62006 0.67593 0.73600
 N1978 N 0.63556 0.68636 0.71034
 C1979 C 0.64766 0.66078 0.69417
 C1980 C 0.64002 0.63265 0.71067
 C1981 C 0.62183 0.64342 0.73678
 H1982 H 0.64551 0.60794 0.70444
 H1983 H 0.60871 0.69116 0.75265
 H1984 H 0.63762 0.71069 0.70416
 N1985 N 0.91414 0.89701 0.69520
 N1986 N 0.90746 0.88405 0.66681
 C1987 C 0.87554 0.87737 0.66561
 C1988 C 0.86096 0.88678 0.69440
 C1989 C 0.88664 0.89898 0.71269
 H1990 H 0.83622 0.88249 0.70198
 H1991 H 0.93754 0.90275 0.70313
 H1992 H 0.92473 0.87896 0.64909
 N1993 N 0.82047 0.37512 0.23132
 N1994 N 0.81415 0.35985 0.20392
 C1995 C 0.84109 0.36035 0.18559
 C1996 C 0.86579 0.37610 0.20206
 C1997 C 0.85167 0.38493 0.23106
 H1998 H 0.89082 0.37905 0.19477
 H1999 H 0.80429 0.37694 0.25060
 H2000 H 0.79248 0.34770 0.19894
 N2001 N 0.35732 0.92274 0.19810
 N2002 N 0.35130 0.90860 0.17004
 C2003 C 0.36023 0.87743 0.17193
 C2004 C 0.37264 0.87140 0.20243
 C2005 C 0.37032 0.90088 0.21842
 H2006 H 0.38177 0.84877 0.21162
 H2007 H 0.35331 0.94722 0.20271
 H2008 H 0.34206 0.92046 0.14987
 N2009 N 0.32718 0.40167 0.71899
 N2010 N 0.31933 0.38640 0.69206
 C2011 C 0.34370 0.36627 0.68390
 C2012 C 0.36778 0.36830 0.70728
 C2013 C 0.35662 0.39148 0.72890
 H2014 H 0.38981 0.35439 0.70896
 H2015 H 0.31181 0.41802 0.73053
 H2016 H 0.29714 0.38947 0.68037
 N2017 N 1.17494 0.86679 1.26178
 N2018 N 1.18443 0.85561 1.28995
 C2019 C 1.15791 0.84849 1.30723
 C2020 C 1.13015 0.85525 1.28972
 C2021 C 1.14217 0.86721 1.26092
 H2022 H 1.10520 0.85403 1.29767
 H2023 H 1.19082 0.87466 1.24384
 H2024 H 1.20856 0.85383 1.29747
 N2025 N 1.07816 0.36955 0.80118
 N2026 N 1.09086 0.36021 0.82881
 C2027 C 1.12271 0.36696 0.82835
 C2028 C 1.13103 0.38105 0.79927
 C2029 C 1.10191 0.38192 0.78245
 H2030 H 1.15507 0.38692 0.79063
 H2031 H 1.05373 0.36654 0.79512
 H2032 H 1.07814 0.34844 0.84707
 N2033 N 0.67148 0.86137 0.75830
 N2034 N 0.68291 0.85299 0.78674
 C2035 C 0.65761 0.84687 0.80605
 C2036 C 0.62868 0.85108 0.78955
 C2037 C 0.63870 0.86078 0.75921
 H2038 H 0.60426 0.84996 0.79900
 H2039 H 0.68600 0.86865 0.73902
 H2040 H 0.70747 0.85230 0.79294
 N2041 N 0.58559 0.36585 1.29640
 N2042 N 0.59769 0.35641 1.32425
 C2043 C 0.62967 0.36249 1.32427
 C2044 C 0.63873 0.37628 1.29522
 C2045 C 0.60983 0.37767 1.27794
 H2046 H 0.66298 0.38191 1.28700
 H2047 H 0.56116 0.36349 1.29009
 H2048 H 0.58441 0.34515 1.34245
 N2049 N 0.89555 1.17156 1.27411
 N2050 N 0.87687 1.18211 1.29772
 C2051 C 0.86282 1.15649 1.31199
 C2052 C 0.87275 1.12836 1.29664
 C2053 C 0.89358 1.13906 1.27267
 H2054 H 0.86548 1.10380 1.30182
 H2055 H 0.90817 1.18666 1.25840
 H2056 H 0.87299 1.20651 1.30284
 N2057 N 0.92888 0.63491 0.81027
 N2058 N 0.91415 0.64294 0.83743
 C2059 C 0.88290 0.63363 0.83539
 C2060 C 0.87739 0.61896 0.80567
 C2061 C 0.90730 0.62027 0.79039
 H2062 H 0.85479 0.60939 0.79629
 H2063 H 0.95348 0.63898 0.80587
 H2064 H 0.92559 0.65411 0.85705
 N2065 N 0.40900 1.09954 0.81810
 N2066 N 0.39158 1.11213 0.84172
 C2067 C 0.37675 1.13890 0.83088
 C2068 C 0.38510 1.14359 0.79887
 C2069 C 0.40554 1.11801 0.79173
 H2070 H 0.37392 1.16002 0.78199
 H2071 H 0.42083 1.07731 0.81930
 H2072 H 0.38741 1.10084 0.86380
 N2073 N 0.39390 0.66812 1.27563
 N2074 N 0.37554 0.67986 1.29892
 C2075 C 0.36192 0.65500 1.31473
 C2076 C 0.37177 0.62608 1.30071
 C2077 C 0.39216 0.63555 1.27593
 H2078 H 0.36461 0.60181 1.30718
 H2079 H 0.40616 0.68247 1.25896
 H2080 H 0.37140 0.70446 1.30268
 N2081 N 1.14225 1.27169 0.83897
 N2082 N 1.14987 1.30115 0.82967
 C2083 C 1.14834 1.32116 0.85537
 C2084 C 1.13931 1.30365 0.88238
 C2085 C 1.13559 1.27229 0.87074
 H2086 H 1.13233 1.31298 0.90579
 H2087 H 1.13968 1.25193 0.82336
 H2088 H 1.15361 1.30782 0.80571
 N2089 N 1.15086 0.75477 0.33873
 N2090 N 1.16122 0.78217 0.32640
 C2091 C 1.15682 0.80596 0.34831
 C2092 C 1.14318 0.79313 0.37606
 C2093 C 1.13968 0.76048 0.36869
 H2094 H 1.13422 0.80600 0.39700
 H2095 H 1.15012 0.73279 0.32624
 H2096 H 1.16969 0.78460 0.30280
 N2097 N 0.64584 1.26671 0.33987
 N2098 N 0.65330 1.29553 0.32868
 C2099 C 0.65325 1.31677 0.35339
 C2100 C 0.64553 1.30081 0.38172
 C2101 C 0.64079 1.26902 0.37190
 H2102 H 0.63979 1.31144 0.40493
 H2103 H 0.64206 1.24629 0.32540
 H2104 H 0.65602 1.30090 0.30425
 N2105 N 0.64707 0.75497 0.84099
 N2106 N 0.65864 0.78111 0.82714
 C2107 C 0.65692 0.80582 0.84839
 C2108 C 0.64389 0.79506 0.87718
 C2109 C 0.63784 0.76263 0.87118
 H2110 H 0.63688 0.80926 0.89802
 H2111 H 0.64416 0.73266 0.82942
 H2112 H 0.66606 0.78216 0.80309
 N2113 N 0.90293 1.28148 1.16852
 N2114 N 0.88704 1.30762 1.17753
 C2115 C 0.86663 1.31620 1.15362
 C2116 C 0.86907 1.29381 1.12863
 C2117 C 0.89288 1.27250 1.13877
 H2118 H 0.85519 1.29257 1.10654
 H2119 H 0.91968 1.26977 1.18326
 H2120 H 0.88999 1.31854 1.20008
 N2121 N 0.90638 0.81284 0.58492
 N2122 N 0.88919 0.83869 0.59224
 C2123 C 0.87935 0.83617 0.62298
 C2124 C 0.89122 0.80776 0.63620
 C2125 C 0.90812 0.79338 0.61090
 H2126 H 0.88586 0.79777 0.65965
 H2127 H 0.91507 0.80763 0.56181
 H2128 H 0.88386 0.85731 0.57621
 N2129 N 0.41975 1.30906 0.64033
 N2130 N 0.40146 1.33324 0.65056
 C2131 C 0.37003 1.32439 0.64789
 C2132 C 0.36826 1.29380 0.63434
 C2133 C 0.40026 1.28481 0.63026
 H2134 H 0.34701 1.27958 0.62857
 H2135 H 0.44507 1.30961 0.63952
 H2136 H 0.41055 1.35563 0.65801
 N2137 N 0.42794 0.80467 1.14514
 N2138 N 0.41296 0.83208 1.15183
 C2139 C 0.38166 0.82915 1.14293
 C2140 C 0.37634 0.79866 1.13008
 C2141 C 0.40643 0.78383 1.13179
 H2142 H 0.35378 0.78879 1.12092
 H2143 H 0.45269 0.80089 1.14889
 H2144 H 0.42432 0.85254 1.16150
 N2145 N 0.85916 0.69344 0.92671
 N2146 N 0.85398 0.66459 0.91390
 C2147 C 0.86268 0.66536 0.88263
 C2148 C 0.87405 0.69590 0.87510
 C2149 C 0.87128 0.71314 0.90383
 H2150 H 0.88233 0.70445 0.85192
 H2151 H 0.85490 0.69913 0.95090
 H2152 H 0.84501 0.64478 0.92658
 N2153 N 0.82035 0.22825 0.38438
 N2154 N 0.81212 0.20168 0.36867
 C2155 C 0.83941 0.18734 0.35805
 C2156 C 0.86617 0.20541 0.36718
 C2157 C 0.85293 0.23127 0.38368
 H2158 H 0.89146 0.20078 0.36198
 H2159 H 0.80375 0.24462 0.39414
 H2160 H 0.78821 0.19446 0.36430
 N2161 N 0.31865 0.72839 0.38619
 N2162 N 0.31066 0.70131 0.37116
 C2163 C 0.33789 0.68754 0.35967
 C2164 C 0.36443 0.70673 0.36759
 C2165 C 0.35108 0.73253 0.38437
 H2166 H 0.38967 0.70273 0.36165
 H2167 H 0.30183 0.74428 0.39635
 H2168 H 0.28682 0.69334 0.36788
 N2169 N 0.32431 0.22816 0.87485
 N2170 N 0.31745 0.19952 0.86238
 C2171 C 0.34547 0.18373 0.85683
 C2172 C 0.37142 0.20348 0.86537
 C2173 C 0.35679 0.23138 0.87706
 H2174 H 0.39705 0.19798 0.86430
 H2175 H 0.30692 0.24532 0.88129
 H2176 H 0.29393 0.19144 0.85749
 N2177 N 1.13103 0.73619 1.16628
 N2178 N 1.14231 0.70977 1.17983
 C2179 C 1.14561 0.68715 1.15674
 C2180 C 1.13696 0.69963 1.12696
 C2181 C 1.12742 0.73094 1.13427
 H2182 H 1.13627 0.68733 1.10386
 H2183 H 1.12541 0.75735 1.17892
 H2184 H 1.14769 0.70747 1.20432
 N2185 N 1.16326 0.22191 0.62439
 N2186 N 1.17358 0.19497 0.63769
 C2187 C 1.14770 0.17684 0.64575
 C2188 C 1.11946 0.19306 0.63744
 C2189 C 1.13058 0.22145 0.62352
 H2190 H 1.09483 0.18398 0.63794
 H2191 H 1.17850 0.23967 0.61492
 H2192 H 1.19796 0.18836 0.63939
 N2193 N 0.66865 0.73932 0.62509
 N2194 N 0.68226 0.71482 0.64004
 C2195 C 0.65913 0.69263 0.64571
 C2196 C 0.62931 0.70370 0.63507
 C2197 C 0.63662 0.73334 0.62177
 H2198 H 0.60596 0.69179 0.63650
 H2199 H 0.68108 0.76006 0.61784
 H2200 H 0.70647 0.71429 0.64731
 N2201 N 0.66771 0.21792 1.10681
 N2202 N 0.67594 0.19059 1.12071
 C2203 C 0.64956 0.17773 1.13492
 C2204 C 0.62326 0.19820 1.13017
 C2205 C 0.63578 0.22315 1.11157
 H2206 H 0.59829 0.19492 1.13716
 H2207 H 0.68393 0.23242 1.09406
 H2208 H 0.69921 0.18075 1.11973
 N2209 N 1.28781 1.09025 0.83255
 N2210 N 1.31440 1.10595 0.82429
 C2211 C 1.32009 1.12932 0.84627
 C2212 C 1.29650 1.12817 0.86996
 C2213 C 1.27603 1.10312 0.86024
 H2214 H 1.29482 1.14338 0.89119
 H2215 H 1.27826 1.07120 0.81895
 H2216 H 1.32807 1.10082 0.80370
 N2217 N 1.27341 0.60392 0.32679
 N2218 N 1.29843 0.62100 0.31671
 C2219 C 1.31207 0.63579 0.34236
 C2220 C 1.29506 0.62792 0.37007
 C2221 C 1.27057 0.60754 0.35909
 H2222 H 1.29947 0.63640 0.39443
 H2223 H 1.25784 0.59130 0.31130
 H2224 H 1.30493 0.62350 0.29252
 N2225 N 0.77396 1.10512 0.32757
 N2226 N 0.79959 1.12068 0.31661
 C2227 C 0.81424 1.13555 0.34160
 C2228 C 0.79726 1.12924 0.36982
 C2229 C 0.77170 1.10984 0.35982
 H2230 H 0.80206 1.13859 0.39380
 H2231 H 0.75746 1.09303 0.31262
 H2232 H 0.80554 1.12256 0.29222
 N2233 N 0.80499 0.57182 0.86250
 N2234 N 0.83344 0.58487 0.85577
 C2235 C 0.83267 0.61628 0.86437
 C2236 C 0.80260 0.62355 0.87742
 C2237 C 0.78573 0.59463 0.87574
 H2238 H 0.79404 0.64665 0.88627
 H2239 H 0.79924 0.54752 0.85861
 H2240 H 0.85303 0.57217 0.84609
 N2241 N 1.30814 0.85346 1.07547
 N2242 N 1.33560 0.84730 1.09074
 C2243 C 1.33283 0.85744 1.12157
 C2244 C 1.30238 0.87077 1.12615
 C2245 C 1.28743 0.86782 1.09621
 H2246 H 1.29244 0.88082 1.14816
 H2247 H 1.30417 0.84863 1.05102
 H2248 H 1.35595 0.83700 1.07985
 N2249 N 1.26737 0.32216 0.62189
 N2250 N 1.29418 0.31524 0.63789
 C2251 C 1.31333 0.34162 0.63817
 C2252 C 1.29805 0.36659 0.62222
 C2253 C 1.26886 0.35320 0.61245
 H2254 H 1.30614 0.39134 0.61979
 H2255 H 1.24762 0.30649 0.61927
 H2256 H 1.29814 0.29358 0.65001
 N2257 N 0.80946 0.91542 0.59851
 N2258 N 0.83667 0.90778 0.61340
 C2259 C 0.83533 0.87641 0.62132
 C2260 C 0.80607 0.86315 0.61069
 C2261 C 0.79011 0.88909 0.59647
 H2262 H 0.79665 0.83922 0.61533
 H2263 H 0.80346 0.93885 0.59149
 H2264 H 0.85537 0.92404 0.61875
 N2265 N 0.81001 0.36163 1.07895
 N2266 N 0.83408 0.35112 1.09722
 C2267 C 0.82476 0.35270 1.12838
 C2268 C 0.79400 0.36590 1.13005
 C2269 C 0.78541 0.37085 1.09823
 H2270 H 0.77942 0.37097 1.15108
 H2271 H 0.81089 0.36328 1.05384
 H2272 H 0.85672 0.34424 1.08832
 N2273 N 0.69435 1.10277 1.09109
 N2274 N 0.66622 1.11269 1.10258
 C2275 C 0.67024 1.12225 1.13346
 C2276 C 0.70251 1.11809 1.14210
 C2277 C 0.71694 1.10587 1.11439
 H2278 H 0.71456 1.12695 1.16363
 H2279 H 0.69833 1.09587 1.06714
 H2280 H 0.64536 1.11578 1.08859
 N2281 N 0.70363 0.59305 0.63509
 N2282 N 0.67840 0.60802 0.64787
 C2283 C 0.68587 0.63954 0.65121
 C2284 C 0.71671 0.64511 0.63902
 C2285 C 0.72716 0.61493 0.62931
 H2286 H 0.73048 0.66729 0.63848
 H2287 H 0.70454 0.56829 0.63021
 H2288 H 0.65632 0.59684 0.65302
 N2289 N 0.19980 1.11181 0.59073
 N2290 N 0.17150 1.12208 0.60142
 C2291 C 0.17307 1.12472 0.63371
 C2292 C 0.20373 1.11587 0.64428
 C2293 C 0.22003 1.10796 0.61604
 H2294 H 0.21374 1.11843 0.66831
 H2295 H 0.20560 1.10910 0.56634
 H2296 H 0.15221 1.12912 0.58670
 N2297 N 0.24341 0.66460 1.15650
 N2298 N 0.21422 0.67581 1.16295
 C2299 C 0.19283 0.65120 1.16100
 C2300 C 0.20923 0.62287 1.15333
 C2301 C 0.24130 0.63266 1.15044
 H2302 H 0.19926 0.59947 1.14724
 H2303 H 0.26413 0.67901 1.15440
 H2304 H 0.20910 0.70014 1.16728
 N2305 N 0.68898 0.91164 0.87382
 N2306 N 0.66662 0.89446 0.85861
 C2307 C 0.67430 0.86297 0.86071
 C2308 C 0.70287 0.85983 0.87822
 C2309 C 0.71159 0.89149 0.88576
 H2310 H 0.71734 0.83828 0.88123
 H2311 H 0.68957 0.93685 0.87442
 H2312 H 0.64767 0.90434 0.84515
 N2313 N 0.68218 0.42018 0.38863
 N2314 N 0.65953 0.40513 0.37172
 C2315 C 0.66729 0.37361 0.36979
 C2316 C 0.69586 0.36812 0.38656
 C2317 C 0.70469 0.39852 0.39783
 H2318 H 0.70996 0.34613 0.38729
 H2319 H 0.68299 0.44515 0.39233
 H2320 H 0.64006 0.41665 0.36051
 N2321 N 0.18367 0.91347 0.37463
 N2322 N 0.16153 0.89506 0.36054
 C2323 C 0.17067 0.86389 0.36265
 C2324 C 0.19999 0.86240 0.37912
 C2325 C 0.20753 0.89451 0.38596
 H2326 H 0.21564 0.84163 0.38174
 H2327 H 0.18315 0.93869 0.37493
 H2328 H 0.14186 0.90393 0.34742
 N2329 N 0.18251 0.42525 0.88471
 N2330 N 0.15773 0.41020 0.87113
 C2331 C 0.16414 0.37832 0.87019
 C2332 C 0.19414 0.37261 0.88423
 C2333 C 0.20510 0.40326 0.89277
 H2334 H 0.20735 0.35008 0.88520
 H2335 H 0.18432 0.45031 0.88729
 H2336 H 0.13749 0.42186 0.86153
   
