data_POSCAR
  _audit_creation_date              2014-09-24
  _audit_creation_method            'ToBaCCo'
  _symmetry_space_group_name_H-M    'P1'
  _symmetry_Int_Tables_number       1
  _symmetry_cell_setting            triclinic
  loop_
  _symmetry_equiv_pos_as_xyz
 x,y,z
_cell_length_a 54.9758
_cell_length_b 55.0149
_cell_length_c 55.2525
_cell_angle_alpha 87.390900
_cell_angle_beta 87.400700
_cell_angle_gamma 87.776200
loop_
  _atom_site_label
  _atom_site_type_symbol
  _atom_site_fract_x
  _atom_site_fract_y
  _atom_site_fract_z
C1 C 0.79196 0.64080 1.00206
 C2 C 0.79716 0.62255 0.98217
 C3 C 0.77757 0.60923 0.97769
 C4 C 0.75466 0.61516 0.99363
 C5 C 0.76976 0.65629 0.99370
 C6 C 0.75026 0.64273 0.98931
 C7 C 0.78255 0.62567 1.02423
 C8 C 0.76301 0.61233 1.01982
 H9 H 0.81391 0.62204 0.97095
 H10 H 0.73880 0.60410 0.99012
 H11 H 0.76979 0.67593 0.99063
 H12 H 0.78954 0.62683 1.04222
 C13 C 0.79019 0.36671 0.47647
 C14 C 0.79508 0.38261 0.49761
 C15 C 0.77541 0.39672 0.50485
 C16 C 0.75259 0.39378 0.49031
 C17 C 0.76800 0.35203 0.48507
 C18 C 0.74834 0.36628 0.49228
 C19 C 0.78094 0.38443 0.45647
 C20 C 0.76125 0.39854 0.46371
 H21 H 0.81230 0.38218 0.50656
 H22 H 0.73662 0.40539 0.49621
 H23 H 0.76786 0.33227 0.48549
 H24 H 0.78826 0.38466 0.43786
 C25 C 0.28881 -0.13315 -0.02587
 C26 C 0.29425 -0.11882 -0.00538
 C27 C 0.27391 -0.10389 0.00293
 C28 C 0.25202 -0.10607 -0.01078
 C29 C 0.26770 -0.14718 -0.01782
 C30 C 0.24737 -0.13211 -0.00951
 C31 C 0.28013 -0.11567 -0.04445
 C32 C 0.25980 -0.10071 -0.03607
 H33 H 0.31157 -0.11996 0.00348
 H34 H 0.23630 -0.09435 -0.00430
 H35 H 0.26730 -0.16693 -0.01782
 H36 H 0.28680 -0.11534 -0.06330
 C37 C 0.29319 0.13530 0.50229
 C38 C 0.29832 0.11708 0.48237
 C39 C 0.27869 0.10381 0.47788
 C40 C 0.25581 0.10976 0.49388
 C41 C 0.27100 0.15084 0.49399
 C42 C 0.25147 0.13734 0.48959
 C43 C 0.28378 0.12016 0.52445
 C44 C 0.26420 0.10687 0.52006
 H45 H 0.31503 0.11661 0.47108
 H46 H 0.23993 0.09873 0.49037
 H47 H 0.27108 0.17048 0.49090
 H48 H 0.29074 0.12135 0.54244
 C49 C 0.13492 0.50629 0.29221
 C50 C 0.11696 0.48582 0.29687
 C51 C 0.10467 0.48073 0.27693
 C52 C 0.11126 0.49671 0.25421
 C53 C 0.15157 0.49811 0.27076
 C54 C 0.13903 0.49311 0.25088
 C55 C 0.11977 0.52805 0.28210
 C56 C 0.10746 0.52304 0.26219
 H57 H 0.11599 0.47466 0.31361
 H58 H 0.10102 0.49271 0.23805
 H59 H 0.17122 0.49557 0.27154
 H60 H 0.12023 0.54624 0.28893
 C61 C -0.13581 -0.02659 0.28919
 C62 C -0.12083 -0.00453 0.29407
 C63 C -0.10666 0.00316 0.27452
 C64 C -0.10871 -0.01193 0.25193
 C65 C -0.15051 -0.01857 0.26699
 C66 C -0.13620 -0.01089 0.24746
 C67 C -0.11828 -0.04507 0.28073
 C68 C -0.10342 -0.03701 0.26026
 H69 H -0.12173 0.00448 0.31120
 H70 H -0.09706 -0.00557 0.23608
 H71 H -0.17024 -0.01892 0.26675
 H72 H -0.11800 -0.06389 0.28768
 C73 C 0.36465 0.47779 0.78854
 C74 C 0.38078 0.49912 0.79276
 C75 C 0.39454 0.50627 0.77275
 C76 C 0.39103 0.49146 0.75030
 C77 C 0.34952 0.48619 0.76682
 C78 C 0.36342 0.49331 0.74683
 C79 C 0.38211 0.45767 0.77902
 C80 C 0.39586 0.46484 0.75901
 H81 H 0.38089 0.50814 0.80985
 H82 H 0.40235 0.49731 0.73405
 H83 H 0.32974 0.48633 0.76715
 H84 H 0.38242 0.43904 0.78647
 C85 C 0.63765 1.00839 0.79140
 C86 C 0.62012 0.98758 0.79677
 C87 C 0.60672 0.98275 0.77746
 C88 C 0.61195 0.99930 0.75474
 C89 C 0.65324 1.00053 0.76904
 C90 C 0.63961 0.99575 0.74982
 C91 C 0.62266 1.02907 0.78299
 C92 C 0.60858 1.02407 0.76284
 H93 H 0.62012 0.97617 0.81336
 H94 H 0.60082 0.99541 0.73914
 H95 H 0.67292 0.99779 0.76884
 H96 H 0.62387 1.04728 0.78963
 C97 C -0.02082 0.29138 -0.13284
 C98 C 0.00040 0.29621 -0.11692
 C99 C 0.00791 0.27630 -0.10327
 C100 C -0.00643 0.25335 -0.10668
 C101 C -0.01196 0.26976 -0.14793
 C102 C -0.00447 0.24988 -0.13415
 C103 C -0.04078 0.28130 -0.11534
 C104 C -0.03322 0.26139 -0.10169
 H105 H 0.00905 0.31364 -0.11683
 H106 H -0.00029 0.23718 -0.09545
 H107 H -0.01170 0.27011 -0.16762
 H108 H -0.05952 0.28837 -0.11480
 C109 C 0.50719 0.29059 0.13954
 C110 C 0.48720 0.29593 0.12142
 C111 C 0.48246 0.27646 0.10819
 C112 C 0.49830 0.25350 0.11409
 C113 C 0.49864 0.26835 0.15502
 C114 C 0.49401 0.24896 0.14155
 C115 C 0.52935 0.28123 0.12444
 C116 C 0.52470 0.26180 0.11119
 H117 H 0.47604 0.31268 0.12095
 H118 H 0.49459 0.23774 0.10309
 H119 H 0.49562 0.26826 0.17459
 H120 H 0.54750 0.28814 0.12556
 C121 C 1.00404 0.79533 0.64041
 C122 C 0.98465 0.80051 0.62358
 C123 C 0.97973 0.78008 0.60957
 C124 C 0.99521 0.75848 0.61502
 C125 C 0.99644 0.77409 0.65532
 C126 C 0.99160 0.75371 0.64115
 C127 C 1.02511 0.78694 0.62569
 C128 C 1.02021 0.76655 0.61167
 H129 H 0.97294 0.81692 0.62376
 H130 H 0.99150 0.74272 0.60393
 H131 H 0.99350 0.77395 0.67493
 H132 H 1.04337 0.79355 0.62710
 C133 C 0.47747 0.78755 0.36826
 C134 C 0.49832 0.79222 0.38469
 C135 C 0.50521 0.77233 0.39869
 C136 C 0.49064 0.74955 0.39511
 C137 C 0.48641 0.76569 0.35356
 C138 C 0.49327 0.74582 0.36769
 C139 C 0.45696 0.77792 0.38532
 C140 C 0.46386 0.75803 0.39933
 H141 H 0.50730 0.80948 0.38474
 H142 H 0.49626 0.73340 0.40663
 H143 H 0.48729 0.76590 0.33387
 H144 H 0.43830 0.78522 0.38526
 C145 C 0.39081 -0.00958 0.26454
 H146 H 0.38915 0.00776 0.27307
 C147 C 0.40352 -0.02917 0.27574
 H148 H 0.41155 -0.02674 0.29296
 C149 C 0.38091 -0.03415 0.23253
 H150 H 0.37162 -0.03627 0.21600
 C151 C 0.39344 -0.05417 0.24306
 H152 H 0.39407 -0.07133 0.23416
 N153 N 0.37972 -0.01242 0.24340
 C154 C 0.36684 0.05957 0.20893
 H155 H 0.34764 0.05858 0.20575
 C156 C 0.37927 0.08041 0.20142
 H157 H 0.36953 0.09532 0.19220
 C158 C 0.40285 0.04102 0.22448
 H159 H 0.41197 0.02560 0.23343
 C160 C 0.41603 0.06153 0.21722
 H161 H 0.43517 0.06180 0.22099
 Zn162 Zn 0.35978 0.01368 0.23101
 N163 N 0.37862 0.04060 0.22060
 C164 C 0.33684 0.04578 0.26423
 N165 N 0.33762 0.02258 0.25662
 C166 C 0.32517 0.00477 0.26908
 C167 C 0.31191 0.00982 0.29058
 C168 C 0.32367 0.05166 0.28545
 C169 C 0.35801 -0.00008 0.18365
 C170 C 0.34829 -0.00909 0.16316
 C171 C 0.30884 -0.00953 0.18431
 C172 C 0.31938 -0.00047 0.20451
 N173 N 0.34366 0.00355 0.20393
 H174 H 0.34732 0.05957 0.25455
 H175 H 0.32648 -0.01363 0.26289
 H176 H 0.30267 -0.00470 0.30066
 H177 H 0.32421 0.06999 0.29171
 H178 H 0.37721 0.00354 0.18364
 H179 H 0.36012 -0.01208 0.14728
 H180 H 0.28966 -0.01341 0.18527
 H181 H 0.30828 0.00279 0.22077
 C182 C 0.40415 0.08169 0.20577
 C183 C 0.40464 -0.05195 0.26516
 C184 C 0.32350 -0.01438 0.16345
 C185 C 0.31143 0.03346 0.29923
 C186 C 0.08037 1.04067 0.78283
 H187 H 0.07874 1.02279 0.79161
 C188 C 0.06812 1.06081 0.79290
 H189 H 0.05707 1.05825 0.80948
 C190 C 0.09809 1.06587 0.75143
 H191 H 0.11027 1.06795 0.73566
 C192 C 0.08618 1.08645 0.76085
 H193 H 0.08891 1.10406 0.75177
 N194 N 0.09513 1.04355 0.76256
 C195 C 0.10780 0.97196 0.73276
 H196 H 0.12749 0.97206 0.73132
 C197 C 0.09574 0.95210 0.72510
 H198 H 0.10630 0.93703 0.71751
 C199 C 0.07025 0.99196 0.74389
 H200 H 0.06046 1.00764 0.75111
 C201 C 0.05736 0.97243 0.73625
 H202 H 0.03765 0.97308 0.73789
 Zn203 Zn 0.11431 1.01644 0.75191
 N204 N 0.09503 0.99120 0.74224
 C205 C 0.12971 0.98210 0.78812
 N206 N 0.13315 1.00487 0.77823
 C207 C 0.14859 1.02010 0.78799
 C208 C 0.16163 1.01241 0.80829
 C209 C 0.14227 0.97374 0.80840
 C210 C 0.12219 1.03227 0.70397
 C211 C 0.13511 1.03905 0.68259
 C212 C 0.17260 1.03159 0.70334
 C213 C 0.15891 1.02493 0.72440
 N214 N 0.13415 1.02568 0.72438
 H215 H 0.11689 0.97046 0.78062
 H216 H 0.15056 1.03834 0.78014
 H217 H 0.17366 1.02483 0.81598
 H218 H 0.13942 0.95545 0.81580
 H219 H 0.10250 1.03224 0.70436
 H220 H 0.12518 1.04408 0.66652
 H221 H 0.19228 1.03132 0.70377
 H222 H 0.16810 1.01914 0.74066
 C223 C 0.07020 0.95207 0.72693
 C224 C 0.07128 1.08415 0.78208
 C225 C 0.16067 1.03891 0.68209
 C226 C 0.15841 0.98897 0.81883
 C227 C 0.58076 0.53834 0.28226
 H228 H 0.57964 0.52026 0.29068
 C229 C 0.56830 0.55802 0.29298
 H230 H 0.55759 0.55491 0.30968
 C231 C 0.59742 0.56456 0.25111
 H232 H 0.60928 0.56721 0.23518
 C233 C 0.58530 0.58468 0.26118
 H234 H 0.58753 0.60252 0.25244
 N235 N 0.59510 0.54195 0.26179
 C236 C 0.60892 0.47165 0.22957
 H237 H 0.62853 0.47249 0.22744
 C238 C 0.59730 0.45154 0.22186
 H239 H 0.60810 0.43705 0.21352
 C240 C 0.57112 0.48994 0.24266
 H241 H 0.56107 0.50502 0.25073
 C242 C 0.55867 0.47012 0.23502
 H243 H 0.53902 0.46995 0.23749
 Zn244 Zn 0.61466 0.51554 0.25016
 N245 N 0.59585 0.49012 0.24010
 C246 C 0.63217 0.48029 0.28454
 N247 N 0.63423 0.50368 0.27582
 C248 C 0.64909 0.51912 0.28610
 C249 C 0.66307 0.51100 0.30560
 C250 C 0.64582 0.47143 0.30389
 C251 C 0.62186 0.53274 0.20245
 C252 C 0.63458 0.54021 0.18117
 C253 C 0.67225 0.53290 0.20165
 C254 C 0.65876 0.52557 0.22260
 N255 N 0.63401 0.52589 0.22268
 H256 H 0.61965 0.46849 0.27681
 H257 H 0.65002 0.53778 0.27914
 H258 H 0.67505 0.52342 0.31337
 H259 H 0.64367 0.45283 0.31069
 H260 H 0.60218 0.53237 0.20291
 H261 H 0.62452 0.54543 0.16523
 H262 H 0.69192 0.53293 0.20202
 H263 H 0.66811 0.51958 0.23871
 C264 C 0.57187 0.45046 0.22474
 C265 C 0.57083 0.58164 0.28262
 C266 C 0.66012 0.54046 0.18059
 C267 C 0.66161 0.48679 0.31463
 C268 C 0.89191 0.49521 0.76528
 H269 H 0.89027 0.51251 0.77389
 C270 C 0.90454 0.47554 0.77643
 H271 H 0.91257 0.47786 0.79367
 C272 C 0.88196 0.47079 0.73317
 H273 H 0.87266 0.46876 0.71663
 C274 C 0.89442 0.45070 0.74364
 H275 H 0.89500 0.43358 0.73468
 N276 N 0.88080 0.49247 0.74413
 C277 C 0.86731 0.56443 0.70980
 H278 H 0.84813 0.56319 0.70664
 C279 C 0.87949 0.58538 0.70219
 H280 H 0.86957 0.60014 0.69291
 C281 C 0.90352 0.54634 0.72536
 H282 H 0.91280 0.53105 0.73436
 C283 C 0.91645 0.56699 0.71800
 H284 H 0.93559 0.56750 0.72172
 Zn285 Zn 0.86072 0.51853 0.73188
 N286 N 0.87930 0.54562 0.72150
 C287 C 0.83742 0.55042 0.76507
 N288 N 0.83849 0.52721 0.75750
 C289 C 0.82617 0.50928 0.76991
 C290 C 0.81269 0.51425 0.79130
 C291 C 0.82402 0.55621 0.78618
 C292 C 0.85891 0.50505 0.68442
 C293 C 0.84920 0.49605 0.66393
 C294 C 0.80986 0.49507 0.68527
 C295 C 0.82038 0.50415 0.70546
 N296 N 0.84462 0.50842 0.70479
 H297 H 0.84780 0.56431 0.75542
 H298 H 0.82770 0.49087 0.76374
 H299 H 0.80353 0.49964 0.80135
 H300 H 0.82430 0.57458 0.79241
 H301 H 0.87807 0.50887 0.68435
 H302 H 0.86099 0.49326 0.64799
 H303 H 0.79074 0.49095 0.68631
 H304 H 0.80932 0.50720 0.72179
 C305 C 0.90434 0.58697 0.70648
 C306 C 0.90558 0.45279 0.76577
 C307 C 0.82448 0.49047 0.66432
 C308 C 0.81186 0.53792 0.79989
 C309 C 0.26711 0.39213 -0.00417
 H310 H 0.27544 0.39105 0.01323
 C311 C 0.27809 0.40520 -0.02370
 H312 H 0.29468 0.41452 -0.02107
 C313 C 0.23567 0.38069 -0.02883
 H314 H 0.21954 0.37055 -0.03097
 C315 C 0.24603 0.39353 -0.04883
 H316 H 0.23767 0.39308 -0.06617
 N317 N 0.24634 0.38015 -0.00706
 C318 C 0.21269 0.36664 0.06507
 H319 H 0.21015 0.34728 0.06443
 C320 C 0.20495 0.37900 0.08569
 H321 H 0.19620 0.36902 0.10081
 C322 C 0.22679 0.40314 0.04581
 H323 H 0.23521 0.41249 0.03018
 C324 C 0.21927 0.41624 0.06608
 H325 H 0.22234 0.43557 0.06597
 Zn326 Zn 0.23442 0.36003 0.01917
 N327 N 0.22375 0.37871 0.04584
 C328 C 0.26850 0.33800 0.05102
 N329 N 0.26056 0.33852 0.02804
 C330 C 0.27285 0.32600 0.01036
 C331 C 0.29441 0.31276 0.01537
 C332 C 0.28980 0.32488 0.05685
 C333 C 0.18676 0.35669 0.00582
 C334 C 0.16610 0.34598 -0.00198
 C335 C 0.18825 0.30715 -0.00143
 C336 C 0.20852 0.31863 0.00651
 N337 N 0.20749 0.34305 0.00959
 H338 H 0.25896 0.34857 0.06469
 H339 H 0.26640 0.32709 -0.00788
 H340 H 0.30428 0.30336 0.00096
 H341 H 0.29628 0.32553 0.07501
 H342 H 0.18646 0.37606 0.00850
 H343 H 0.15002 0.35733 -0.00553
 H344 H 0.18936 0.28774 -0.00401
 H345 H 0.22510 0.30809 0.00993
 C346 C 0.20842 0.40410 0.08648
 C347 C 0.26770 0.40575 -0.04650
 C348 C 0.16672 0.32092 -0.00590
 C349 C 0.30330 0.31242 0.03881
 C350 C 0.78442 0.07616 1.03735
 H351 H 0.79290 0.07530 1.01934
 C352 C 0.79444 0.06252 1.05668
 H353 H 0.81043 0.05085 1.05331
 C354 C 0.75365 0.09298 1.06369
 H355 H 0.73824 0.10544 1.06656
 C356 C 0.76301 0.07965 1.08348
 H357 H 0.75456 0.08202 1.10134
 N358 N 0.76444 0.09107 1.04118
 C359 C 0.73346 0.10745 0.97084
 H360 H 0.73233 0.12708 0.97168
 C361 C 0.72519 0.09641 0.95074
 H362 H 0.71746 0.10769 0.93625
 C363 C 0.74439 0.06903 0.98920
 H364 H 0.75176 0.05850 1.00434
 C365 C 0.73617 0.05716 0.96940
 H366 H 0.73754 0.03748 0.96930
 Zn367 Zn 0.75367 0.11165 1.01511
 N368 N 0.74313 0.09377 0.98938
 C369 C 0.78972 0.12829 0.98093
 N370 N 0.78029 0.13063 1.00393
 C371 C 0.79061 0.14520 1.01954
 C372 C 0.81097 0.15853 1.01201
 C373 C 0.81004 0.14117 0.97270
 C374 C 0.70587 0.11956 1.03203
 C375 C 0.68477 0.13253 1.03948
 C376 C 0.70636 0.16983 1.03275
 C377 C 0.72712 0.15610 1.02542
 N378 N 0.72656 0.13140 1.02548
 H379 H 0.78176 0.11615 0.96895
 H380 H 0.78312 0.14631 1.03792
 H381 H 0.81907 0.16991 1.02470
 H382 H 0.81704 0.13923 0.95423
 H383 H 0.70583 0.09994 1.03143
 H384 H 0.66847 0.12272 1.04446
 H385 H 0.70723 0.18945 1.03300
 H386 H 0.74357 0.16522 1.01963
 C387 C 0.72663 0.07095 0.94974
 C388 C 0.78383 0.06436 1.08017
 C389 C 0.68484 0.15802 1.04003
 C390 C 0.82099 0.15649 0.98831
 C391 C 0.27830 0.57864 0.53848
 H392 H 0.28631 0.57781 0.52028
 C393 C 0.28899 0.56519 0.55756
 H394 H 0.30502 0.55369 0.55381
 C395 C 0.24807 0.59522 0.56556
 H396 H 0.23260 0.60751 0.56880
 C397 C 0.25810 0.58206 0.58510
 H398 H 0.25010 0.58440 0.60316
 N399 N 0.25826 0.59334 0.54280
 C400 C 0.22308 0.60898 0.47450
 H401 H 0.22154 0.62858 0.47545
 C402 C 0.21329 0.59771 0.45530
 H403 H 0.20447 0.60883 0.44134
 C404 C 0.23682 0.57085 0.49155
 H405 H 0.24577 0.56050 0.50590
 C406 C 0.22734 0.55878 0.47250
 H407 H 0.22904 0.53911 0.47235
 Zn408 Zn 0.24641 0.61367 0.51703
 N409 N 0.23468 0.59555 0.49204
 C410 C 0.28016 0.63127 0.48089
 N411 N 0.27250 0.63268 0.50455
 C412 C 0.28410 0.64654 0.51987
 C413 C 0.30402 0.66005 0.51140
 C414 C 0.29990 0.64448 0.47167
 C415 C 0.19915 0.62199 0.53555
 C416 C 0.17835 0.63524 0.54335
 C417 C 0.20019 0.67227 0.53564
 C418 C 0.22064 0.65827 0.52799
 N419 N 0.21980 0.63358 0.52829
 H420 H 0.27123 0.61961 0.46913
 H421 H 0.27790 0.64702 0.53872
 H422 H 0.31287 0.67121 0.52377
 H423 H 0.30588 0.64283 0.45285
 H424 H 0.19886 0.60236 0.53514
 H425 H 0.16203 0.62564 0.54881
 H426 H 0.20126 0.69188 0.53559
 H427 H 0.23706 0.66717 0.52168
 C428 C 0.21531 0.57228 0.45412
 C429 C 0.27898 0.56698 0.58129
 C430 C 0.17868 0.66074 0.54351
 C431 C 0.31210 0.65916 0.48696
 C432 C 0.76418 0.88920 0.49588
 H433 H 0.77233 0.88864 0.51337
 C434 C 0.77534 0.90175 0.47611
 H435 H 0.79187 0.91122 0.47865
 C436 C 0.73303 0.87697 0.47129
 H437 H 0.71694 0.86672 0.46929
 C438 C 0.74358 0.88928 0.45105
 H439 H 0.73540 0.88834 0.43367
 N440 N 0.74347 0.87707 0.49314
 C441 C 0.70902 0.86554 0.56521
 H442 H 0.70644 0.84615 0.56501
 C443 C 0.70119 0.87840 0.58547
 H444 H 0.69231 0.86879 0.60075
 C445 C 0.72342 0.90156 0.54523
 H446 H 0.73203 0.91052 0.52948
 C447 C 0.71581 0.91516 0.56514
 H448 H 0.71899 0.93448 0.56462
 Zn449 Zn 0.73131 0.85767 0.51981
 N450 N 0.72031 0.87712 0.54581
 C451 C 0.76513 0.83694 0.55263
 N452 N 0.75741 0.83654 0.52962
 C453 C 0.76996 0.82347 0.51251
 C454 C 0.79159 0.81065 0.51813
 C455 C 0.78649 0.82427 0.55906
 C456 C 0.68381 0.85384 0.50625
 C457 C 0.66319 0.84288 0.49872
 C458 C 0.68532 0.80405 0.50043
 C459 C 0.70556 0.81579 0.50810
 N460 N 0.70451 0.84032 0.51050
 H461 H 0.75539 0.84793 0.56582
 H462 H 0.76369 0.82384 0.49421
 H463 H 0.80168 0.80083 0.50416
 H464 H 0.79280 0.82570 0.57720
 H465 H 0.68350 0.87330 0.50839
 H466 H 0.64713 0.85412 0.49481
 H467 H 0.68643 0.78455 0.49840
 H468 H 0.72212 0.80536 0.51188
 C469 C 0.70479 0.90351 0.58574
 C470 C 0.76519 0.90165 0.45323
 C471 C 0.66381 0.81768 0.49554
 C472 C 0.80030 0.81131 0.54159
 C473 C -0.00476 0.26476 0.39047
 H474 H 0.01297 0.27269 0.38893
 C475 C -0.02386 0.27627 0.40360
 H476 H -0.02054 0.29287 0.41252
 C477 C -0.03073 0.23383 0.38007
 H478 H -0.03360 0.21772 0.37028
 C479 C -0.05031 0.24472 0.39301
 H480 H -0.06802 0.23676 0.39300
 N481 N -0.00852 0.24398 0.37897
 C482 C 0.06299 0.20904 0.36462
 H483 H 0.06194 0.20643 0.34541
 C484 C 0.08379 0.20103 0.37665
 H485 H 0.09862 0.19202 0.36659
 C486 C 0.04459 0.22355 0.40107
 H487 H 0.02923 0.23222 0.41054
 C488 C 0.06506 0.21578 0.41385
 H489 H 0.06536 0.21892 0.43303
 Zn490 Zn 0.01710 0.23129 0.35863
 N491 N 0.04411 0.22041 0.37682
 C492 C 0.04928 0.26487 0.33556
 N493 N 0.02611 0.25699 0.33649
 C494 C 0.00826 0.26926 0.32415
 C495 C 0.01327 0.29084 0.31081
 C496 C 0.05511 0.28621 0.32234
 C497 C 0.00184 0.18414 0.35714
 C498 C -0.00769 0.16374 0.34757
 C499 C -0.00708 0.18471 0.30816
 C500 C 0.00247 0.20483 0.31855
 N501 N 0.00622 0.20431 0.34274
 H502 H 0.06309 0.25534 0.34599
 H503 H -0.01013 0.26286 0.32557
 H504 H -0.00129 0.30074 0.30164
 H505 H 0.07342 0.29271 0.32277
 H506 H 0.00528 0.18417 0.37626
 H507 H -0.01127 0.14795 0.35944
 H508 H -0.01072 0.18564 0.28904
 H509 H 0.00636 0.22098 0.30739
 C510 C 0.08511 0.20456 0.40157
 C511 C -0.04709 0.26640 0.40474
 C512 C -0.01270 0.16399 0.32287
 C513 C 0.03688 0.29980 0.31019
 C514 C 1.03882 0.78511 0.07772
 H515 H 1.02080 0.79352 0.07624
 C516 C 1.05881 0.79574 0.06543
 H517 H 1.05601 0.81237 0.05451
 C518 C 1.06452 0.75406 0.09500
 H519 H 1.06684 0.73818 0.10700
 C520 C 1.08495 0.76404 0.08307
 H521 H 1.10269 0.75530 0.08561
 N522 N 1.04202 0.76471 0.09224
 C523 C 0.97126 0.73226 0.10485
 H524 H 0.97160 0.73021 0.12440
 C525 C 0.95141 0.72442 0.09295
 H526 H 0.93661 0.71608 0.10348
 C527 C 0.99053 0.74524 0.06749
 H528 H 1.00590 0.75330 0.05772
 C529 C 0.97099 0.73747 0.05477
 H530 H 0.97133 0.73983 0.03519
 Zn531 Zn 1.01508 0.75300 0.11129
 N532 N 0.99009 0.74279 0.09212
 C533 C 0.97952 0.78746 0.12806
 N534 N 1.00279 0.77873 0.13060
 C535 C 1.01779 0.78895 0.14588
 C536 C 1.00926 0.80831 0.15989
 C537 C 0.97026 0.80667 0.14172
 C538 C 1.03199 0.70513 0.11875
 C539 C 1.03903 0.68377 0.13155
 C540 C 1.03072 0.70429 0.16894
 C541 C 1.02383 0.72532 0.15539
 N542 N 1.02486 0.72542 0.13074
 H543 H 0.96809 0.77979 0.11522
 H544 H 1.03639 0.78200 0.14720
 H545 H 1.02131 0.81597 0.17226
 H546 H 0.95174 0.81344 0.13924
 H547 H 1.03217 0.70560 0.09915
 H548 H 1.04449 0.66779 0.12163
 H549 H 1.03019 0.70465 0.18853
 H550 H 1.01761 0.74146 0.16460
 C551 C 0.95097 0.72718 0.06761
 C552 C 1.08232 0.78537 0.06834
 C553 C 1.03856 0.68317 0.15700
 C554 C 0.98512 0.81728 0.15801
 C555 C 0.53791 0.28322 0.57818
 H556 H 0.51991 0.29164 0.57654
 C557 C 0.55798 0.29372 0.56591
 H558 H 0.55526 0.31027 0.55484
 C559 C 0.56347 0.25229 0.59586
 H560 H 0.56572 0.23652 0.60802
 C561 C 0.58397 0.26214 0.58396
 H562 H 0.60168 0.25340 0.58667
 N563 N 0.54101 0.26295 0.59291
 C564 C 0.47019 0.23059 0.60565
 H565 H 0.47035 0.22891 0.62523
 C566 C 0.45056 0.22234 0.59371
 H567 H 0.43573 0.21406 0.60425
 C568 C 0.48979 0.24295 0.56825
 H569 H 0.50522 0.25091 0.55848
 C570 C 0.47048 0.23475 0.55549
 H571 H 0.47104 0.23669 0.53589
 Zn572 Zn 0.51402 0.25147 0.61202
 N573 N 0.48910 0.24099 0.59291
 C574 C 0.47843 0.28608 0.62856
 N575 N 0.50175 0.27743 0.63102
 C576 C 0.51686 0.28789 0.64602
 C577 C 0.50843 0.30746 0.65979
 C578 C 0.46927 0.30551 0.64198
 C579 C 0.53088 0.20369 0.62002
 C580 C 0.53820 0.18256 0.63303
 C581 C 0.53022 0.20360 0.67017
 C582 C 0.52304 0.22439 0.65641
 N583 N 0.52381 0.22414 0.63178
 H584 H 0.46692 0.27819 0.61594
 H585 H 0.53547 0.28098 0.64729
 H586 H 0.52057 0.31532 0.67194
 H587 H 0.45073 0.31223 0.63955
 H588 H 0.53086 0.20388 0.60043
 H589 H 0.54365 0.16646 0.62329
 H590 H 0.52996 0.20426 0.68973
 H591 H 0.51688 0.24066 0.66544
 C592 C 0.45042 0.22452 0.56832
 C593 C 0.58145 0.28336 0.56904
 C594 C 0.53808 0.18236 0.65845
 C595 C 0.48426 0.31639 0.65796
 C596 C 0.49269 0.76585 0.88870
 H597 H 0.51035 0.77395 0.88774
 C598 C 0.47315 0.77709 0.90141
 H599 H 0.47605 0.79362 0.91062
 C600 C 0.46739 0.73481 0.87721
 H601 H 0.46502 0.71876 0.86716
 C602 C 0.44736 0.74544 0.88971
 H603 H 0.42976 0.73736 0.88912
 N604 N 0.48948 0.74518 0.87683
 C605 C 0.56156 0.71111 0.86366
 H606 H 0.56083 0.70859 0.84440
 C607 C 0.58229 0.70340 0.87592
 H608 H 0.59739 0.69466 0.86600
 C609 C 0.54247 0.72527 0.89994
 H610 H 0.52689 0.73376 0.90923
 C611 C 0.56286 0.71778 0.91296
 H612 H 0.56288 0.72092 0.93216
 Zn613 Zn 0.51577 0.73319 0.85694
 N614 N 0.54239 0.72223 0.87565
 C615 C 0.54833 0.76725 0.83534
 N616 N 0.52515 0.75943 0.83562
 C617 C 0.50759 0.77197 0.82311
 C618 C 0.51292 0.79370 0.81019
 C619 C 0.55448 0.78872 0.82254
 C620 C 0.50171 0.68572 0.85344
 C621 C 0.49401 0.66514 0.84260
 C622 C 0.49543 0.68751 0.80391
 C623 C 0.50327 0.70770 0.81552
 N624 N 0.50592 0.70650 0.83991
 H625 H 0.56189 0.75751 0.84590
 H626 H 0.48919 0.76559 0.82400
 H627 H 0.49860 0.80379 0.80083
 H628 H 0.57278 0.79512 0.82343
 H629 H 0.50407 0.68529 0.87279
 H630 H 0.49018 0.64898 0.85383
 H631 H 0.49326 0.68873 0.78451
 H632 H 0.50704 0.72432 0.80508
 C633 C 0.58325 0.70695 0.90086
 C634 C 0.45001 0.76707 0.90174
 C635 C 0.49063 0.66589 0.81754
 C636 C 0.53656 0.80252 0.81016
 C637 C 0.44828 -0.09190 0.30239
 C638 C 0.43712 -0.11437 0.30267
 C639 C 0.41570 -0.11652 0.29034
 C640 C 0.40534 -0.09629 0.27792
 C641 C 0.46987 -0.19099 0.35333
 C642 C 0.43793 -0.07160 0.28997
 C643 C 0.44708 -0.13511 0.31618
 C644 C 0.45481 -0.15266 0.32767
 C645 C 0.46319 -0.17332 0.34137
 C646 C 0.41628 -0.07356 0.27766
 H647 H 0.46486 -0.09004 0.31191
 H648 H 0.40683 -0.13378 0.29057
 H649 H 0.38845 -0.09832 0.26901
 H650 H 0.44689 -0.05442 0.28991
 C651 C 0.94896 0.41240 0.80290
 C652 C 0.93769 0.39000 0.80302
 C653 C 0.91625 0.38805 0.79067
 C654 C 0.90599 0.40841 0.77838
 C655 C 0.97100 0.31288 0.85261
 C656 C 0.93871 0.43283 0.79059
 C657 C 0.94763 0.36908 0.81629
 C658 C 0.95542 0.35141 0.82754
 C659 C 0.96401 0.33062 0.84094
 C660 C 0.91706 0.43107 0.77824
 H661 H 0.96556 0.41410 0.81242
 H662 H 0.90729 0.37084 0.79077
 H663 H 0.88909 0.40652 0.76943
 H664 H 0.94777 0.44995 0.79064
 C665 C 0.02612 1.12675 0.81488
 C666 C 0.03958 1.14780 0.81543
 C667 C 0.06325 1.14805 0.80504
 C668 C 0.07346 1.12740 0.79414
 C669 C 0.00445 1.22754 0.85538
 C670 C 0.03633 1.10601 0.80399
 C671 C 0.02930 1.16921 0.82664
 C672 C 0.02116 1.18741 0.83586
 C673 C 0.01203 1.20897 0.84648
 C674 C 0.06012 1.10613 0.79345
 H675 H 0.00776 1.12637 0.82285
 H676 H 0.07387 1.16420 0.80544
 H677 H 0.09197 1.12796 0.78661
 H678 H 0.02554 1.09000 0.80357
 C679 C 0.52535 0.62282 0.31676
 C680 C 0.53844 0.64409 0.31750
 C681 C 0.56200 0.64491 0.30691
 C682 C 0.57245 0.62462 0.29558
 C683 C 0.50236 0.72338 0.35757
 C684 C 0.53581 0.60244 0.30543
 C685 C 0.52784 0.66524 0.32894
 C686 C 0.51946 0.68330 0.33825
 C687 C 0.51010 0.70479 0.34883
 C688 C 0.55947 0.60315 0.29463
 H689 H 0.50706 0.62201 0.32486
 H690 H 0.57233 0.66124 0.30745
 H691 H 0.59086 0.62562 0.28785
 H692 H 0.52530 0.58625 0.30483
 C693 C 0.55955 0.38512 0.21208
 C694 C 0.53889 0.38800 0.19822
 C695 C 0.52805 0.41122 0.19424
 C696 C 0.53825 0.43158 0.20357
 C697 C 0.51238 0.31166 0.15356
 C698 C 0.56979 0.40539 0.22133
 C699 C 0.53002 0.36728 0.18682
 C700 C 0.52364 0.34975 0.17680
 C701 C 0.51719 0.32916 0.16454
 C702 C 0.55952 0.42889 0.21680
 H703 H 0.56809 0.36725 0.21527
 H704 H 0.51211 0.41366 0.18342
 H705 H 0.53007 0.44947 0.19966
 H706 H 0.58596 0.40273 0.23176
 C707 C 0.05590 0.88717 0.71438
 C708 C 0.03604 0.89073 0.69951
 C709 C 0.02629 0.91429 0.69483
 C710 C 0.03682 0.93430 0.70446
 C711 C 0.00898 0.81524 0.65381
 C712 C 0.06647 0.90710 0.72394
 C713 C 0.02696 0.87030 0.68778
 C714 C 0.02042 0.85299 0.67751
 C715 C 0.01385 0.83262 0.66498
 C716 C 0.05735 0.93092 0.71871
 H717 H 0.06360 0.86903 0.71811
 H718 H 0.01099 0.91725 0.68323
 H719 H 0.02955 0.95244 0.69999
 H720 H 0.08204 0.90392 0.73514
 C721 C 0.91788 0.65366 0.69467
 C722 C 0.94146 0.65215 0.68409
 C723 C 0.95316 0.62934 0.68120
 C724 C 0.94123 0.60810 0.68869
 C725 C 0.98204 0.73276 0.65094
 C726 C 0.90592 0.63248 0.70213
 C727 C 0.95327 0.67403 0.67559
 C728 C 0.96271 0.69249 0.66819
 C729 C 0.97332 0.71421 0.65911
 C730 C 0.91739 0.60943 0.69908
 H731 H 0.90866 0.67122 0.69701
 H732 H 0.97138 0.62797 0.67292
 H733 H 0.95044 0.59063 0.68588
 H734 H 0.88774 0.63413 0.71042
 C735 C 0.41854 0.14826 0.19457
 C736 C 0.44218 0.14655 0.18415
 C737 C 0.45360 0.12363 0.18111
 C738 C 0.44136 0.10250 0.18830
 C739 C 0.48384 0.22687 0.15188
 C740 C 0.40627 0.12718 0.20174
 C741 C 0.45433 0.16832 0.17596
 C742 C 0.46405 0.18671 0.16879
 C743 C 0.47494 0.20836 0.15993
 C744 C 0.41748 0.10404 0.19856
 H745 H 0.40953 0.16590 0.19703
 H746 H 0.47186 0.12210 0.17295
 H747 H 0.45037 0.08496 0.18539
 H748 H 0.38805 0.12899 0.20993
 C749 C 0.27809 0.44090 -0.10663
 C750 C 0.30341 0.43825 -0.11011
 C751 C 0.31710 0.42573 -0.09246
 C752 C 0.30553 0.41559 -0.07156
 C753 C 0.35010 0.46999 -0.18978
 C754 C 0.26646 0.43076 -0.08572
 C755 C 0.31540 0.44768 -0.13206
 C756 C 0.32588 0.45510 -0.15039
 C757 C 0.33867 0.46331 -0.17173
 C758 C 0.28004 0.41782 -0.06803
 H759 H 0.26732 0.45058 -0.12018
 H760 H 0.33671 0.42348 -0.09502
 H761 H 0.31647 0.40542 -0.05850
 H762 H 0.24685 0.43300 -0.08341
 C763 C 0.77608 0.93557 0.39249
 C764 C 0.80145 0.93304 0.38935
 C765 C 0.81498 0.92091 0.40736
 C766 C 0.80322 0.91108 0.42830
 C767 C 0.84922 0.96512 0.31043
 C768 C 0.76426 0.92573 0.41344
 C769 C 0.81367 0.94238 0.36749
 C770 C 0.82438 0.94982 0.34930
 C771 C 0.83750 0.95818 0.32820
 C772 C 0.77770 0.91323 0.43153
 H773 H 0.76544 0.94497 0.37868
 H774 H 0.83461 0.91878 0.40508
 H775 H 0.81406 0.90124 0.44168
 H776 H 0.74463 0.92791 0.41551
 C777 C 0.79078 0.03070 1.14114
 C778 C 0.81607 0.03023 1.14317
 C779 C 0.83091 0.03992 1.12415
 C780 C 0.82048 0.05045 1.10337
 C781 C 0.85388 -0.00251 1.22473
 C782 C 0.78030 0.04124 1.12039
 C783 C 0.82668 0.02070 1.16516
 C784 C 0.83541 0.01312 1.18379
 C785 C 0.84546 0.00459 1.20580
 C786 C 0.79502 0.05149 1.10138
 H787 H 0.77911 0.02323 1.15573
 H788 H 0.85051 0.03975 1.12557
 H789 H 0.83228 0.05847 1.08921
 H790 H 0.76068 0.04150 1.11928
 C791 C 0.28776 0.53359 0.64209
 C792 C 0.31311 0.53346 0.64352
 C793 C 0.32740 0.54325 0.62412
 C794 C 0.31636 0.55356 0.60358
 C795 C 0.35297 0.50154 0.72431
 C796 C 0.27668 0.54391 0.62159
 C797 C 0.32433 0.52419 0.66528
 C798 C 0.33353 0.51681 0.68373
 C799 C 0.34410 0.50849 0.70555
 C800 C 0.29083 0.55429 0.60221
 H801 H 0.27652 0.52604 0.65698
 H802 H 0.34704 0.54333 0.62508
 H803 H 0.32774 0.56168 0.58913
 H804 H 0.25702 0.54393 0.62095
 C805 C 0.20857 0.53127 0.40152
 C806 C 0.18611 0.53988 0.39292
 C807 C 0.17279 0.55820 0.40498
 C808 C 0.18206 0.56829 0.42521
 C809 C 0.14784 0.51190 0.31382
 C810 C 0.21788 0.54134 0.42186
 C811 C 0.17686 0.53072 0.37129
 C812 C 0.16841 0.52400 0.35309
 C813 C 0.15770 0.51710 0.33183
 C814 C 0.20485 0.56021 0.43369
 H815 H 0.21905 0.51712 0.39229
 H816 H 0.15536 0.56494 0.39853
 H817 H 0.17144 0.58252 0.43417
 H818 H 0.23556 0.53490 0.42788
 C819 C 0.71280 0.05955 0.88476
 C820 C 0.69795 0.03947 0.88780
 C821 C 0.69356 0.02875 0.91099
 C822 C 0.70352 0.03848 0.93116
 C823 C 0.65189 0.01366 0.81227
 C824 C 0.72270 0.06931 0.90485
 C825 C 0.68607 0.03099 0.86726
 C826 C 0.67572 0.02480 0.84991
 C827 C 0.66310 0.01846 0.82957
 C828 C 0.71784 0.05915 0.92832
 H829 H 0.71632 0.06798 0.86691
 H830 H 0.68198 0.01327 0.91355
 H831 H 0.69931 0.03040 0.94902
 H832 H 0.73396 0.08500 0.90208
 C833 C 0.67889 0.95344 0.62581
 C834 C 0.68249 0.94287 0.64896
 C835 C 0.69367 0.91967 0.65143
 C836 C 0.70105 0.90697 0.63088
 C837 C 0.64990 0.98556 0.72791
 C838 C 0.68630 0.94076 0.60519
 C839 C 0.67414 0.95543 0.67025
 C840 C 0.66687 0.96543 0.68829
 C841 C 0.65795 0.97655 0.70961
 C842 C 0.69732 0.91730 0.60751
 H843 H 0.67014 0.97135 0.62369
 H844 H 0.69657 0.91133 0.66927
 H845 H 0.70984 0.88912 0.63327
 H846 H 0.68296 0.94910 0.58746
 C847 C 0.18195 0.45297 0.12749
 C848 C 0.18553 0.44198 0.15047
 C849 C 0.19696 0.41887 0.15253
 C850 C 0.20458 0.40666 0.13173
 C851 C 0.15048 0.48312 0.22938
 C852 C 0.18958 0.44079 0.10664
 C853 C 0.17675 0.45398 0.17195
 C854 C 0.16899 0.46359 0.19004
 C855 C 0.15933 0.47434 0.21128
 C856 C 0.20084 0.41740 0.10853
 H857 H 0.17299 0.47081 0.12569
 H858 H 0.19983 0.41019 0.17023
 H859 H 0.21352 0.38884 0.13380
 H860 H 0.18622 0.44943 0.08905
 C861 C -0.09171 0.31684 0.42426
 C862 C -0.10968 0.30363 0.43718
 C863 C -0.10678 0.27831 0.44032
 C864 C -0.08617 0.26620 0.43024
 C865 C -0.18845 0.35178 0.46863
 C866 C -0.07110 0.30478 0.41418
 C867 C -0.13138 0.31608 0.44650
 C868 C -0.14952 0.32689 0.45383
 C869 C -0.17062 0.34006 0.46197
 C870 C -0.06819 0.27929 0.41686
 H871 H -0.09383 0.33643 0.42164
 H872 H -0.12057 0.26792 0.45032
 H873 H -0.08431 0.24660 0.43284
 H874 H -0.05781 0.31535 0.40368
 C875 C 0.40488 0.81724 0.92086
 C876 C 0.38673 0.80392 0.93335
 C877 C 0.38952 0.77857 0.93614
 C878 C 0.41028 0.76654 0.92621
 C879 C 0.30872 0.85255 0.96604
 C880 C 0.42562 0.80528 0.91094
 C881 C 0.36509 0.81637 0.94282
 C882 C 0.34710 0.82729 0.95039
 C883 C 0.32627 0.84064 0.95892
 C884 C 0.42851 0.77977 0.91338
 H885 H 0.40285 0.83686 0.91851
 H886 H 0.37560 0.76808 0.94582
 H887 H 0.41209 0.74692 0.92860
 H888 H 0.43909 0.81596 0.90083
 C889 C 1.12452 0.81868 0.02274
 C890 C 1.14566 0.81954 0.03585
 C891 C 1.14604 0.80935 0.05949
 C892 C 1.12545 0.79828 0.07000
 C893 C 1.22594 0.85850 -0.00071
 C894 C 1.10384 0.80762 0.03325
 C895 C 1.16712 0.83065 0.02517
 C896 C 1.18542 0.83970 0.01669
 C897 C 1.20716 0.84998 0.00718
 C898 C 1.10412 0.79720 0.05698
 H899 H 1.12404 0.82647 0.00440
 H900 H 1.16226 0.80998 0.06984
 H901 H 1.12613 0.79084 0.08845
 H902 H 1.08777 0.80690 0.02271
 C903 C 0.62406 0.31633 0.52359
 C904 C 0.64506 0.31727 0.53689
 C905 C 0.64521 0.30726 0.56061
 C906 C 0.62453 0.29628 0.57100
 C907 C 0.72566 0.35624 0.50120
 C908 C 0.60329 0.30534 0.53398
 C909 C 0.66661 0.32834 0.52637
 C910 C 0.68499 0.33736 0.51807
 C911 C 0.70682 0.34766 0.50883
 C912 C 0.60334 0.29510 0.55779
 H913 H 0.62376 0.32399 0.50519
 H914 H 0.66133 0.30797 0.57111
 H915 H 0.62503 0.28898 0.58951
 H916 H 0.58732 0.30456 0.52330
 C917 C 0.38579 0.21033 0.55447
 C918 C 0.38959 0.19586 0.53438
 C919 C 0.41322 0.19194 0.52440
 C920 C 0.43305 0.20196 0.53489
 C921 C 0.31433 0.14945 0.50730
 C922 C 0.40553 0.22026 0.56500
 C923 C 0.36934 0.18381 0.52524
 C924 C 0.35211 0.17335 0.51868
 C925 C 0.33176 0.16066 0.51211
 C926 C 0.42943 0.21583 0.55560
 H927 H 0.36759 0.21347 0.56235
 H928 H 0.41638 0.18066 0.50891
 H929 H 0.45126 0.19810 0.52739
 H930 H 0.40216 0.23117 0.58072
 C931 C 0.91267 0.69615 0.02349
 C932 C 0.88921 0.70019 0.03385
 C933 C 0.88589 0.71428 0.05426
 C934 C 0.90594 0.72368 0.06474
 C935 C 0.81312 0.65493 0.00705
 C936 C 0.93281 0.70564 0.03393
 C937 C 0.86866 0.68860 0.02479
 C938 C 0.85120 0.67844 0.01829
 C939 C 0.83065 0.66602 0.01181
 C940 C 0.92967 0.71909 0.05497
 H941 H 0.91545 0.68515 0.00776
 H942 H 0.86783 0.71751 0.06244
 H943 H 0.90294 0.73429 0.08071
 H944 H 0.95088 0.70168 0.02614
 C945 C 0.64978 0.69637 0.91518
 C946 C 0.64794 0.68517 0.93839
 C947 C 0.62495 0.68136 0.94956
 C948 C 0.60386 0.68859 0.93748
 C949 C 0.72820 0.65303 0.97935
 C950 C 0.62875 0.70358 0.90307
 C951 C 0.66968 0.67699 0.95036
 C952 C 0.68806 0.66985 0.95993
 C953 C 0.70969 0.66104 0.97062
 C954 C 0.60554 0.69965 0.91401
 H955 H 0.66748 0.69943 0.90637
 H956 H 0.62332 0.67259 0.96749
 H957 H 0.58626 0.68510 0.94628
 H958 H 0.63066 0.71239 0.88519
 C959 C 0.15156 0.19231 0.41540
 C960 C 0.14963 0.18117 0.43864
 C961 C 0.12661 0.17793 0.44996
 C962 C 0.10559 0.18568 0.43801
 C963 C 0.22947 0.14774 0.47958
 C964 C 0.13060 0.20004 0.40342
 C965 C 0.17128 0.17255 0.45053
 C966 C 0.18955 0.16507 0.46008
 C967 C 0.21106 0.15594 0.47080
 C968 C 0.10735 0.19670 0.41454
 H969 H 0.16929 0.19493 0.40647
 H970 H 0.12490 0.16923 0.46791
 H971 H 0.08797 0.18262 0.44694
 H972 H 0.13258 0.20879 0.38553
 C973 C 0.57437 0.12509 0.67735
 C974 C 0.56207 0.11801 0.69910
 C975 C 0.54187 0.13191 0.70761
 C976 C 0.53401 0.15286 0.69444
 C977 C 0.59749 0.04243 0.74949
 C978 C 0.56655 0.14599 0.66416
 C979 C 0.57068 0.09683 0.71289
 C980 C 0.57849 0.07931 0.72438
 C981 C 0.58837 0.05917 0.73786
 C982 C 0.54629 0.16014 0.67255
 H983 H 0.59013 0.11456 0.67068
 H984 H 0.53223 0.12661 0.72445
 H985 H 0.51819 0.16320 0.70122
 H986 H 0.57662 0.15129 0.64758
 C987 C 1.07387 0.62520 0.17565
 C988 C 1.06118 0.61798 0.19713
 C989 C 1.04102 0.63201 0.20553
 C990 C 1.03360 0.65322 0.19251
 C991 C 1.09565 0.54214 0.24778
 C992 C 1.06649 0.64636 0.16261
 C993 C 1.06942 0.59661 0.21087
 C994 C 1.07697 0.57899 0.22239
 C995 C 1.08662 0.55881 0.23598
 C996 C 1.04629 0.66065 0.17090
 H997 H 1.08962 0.61458 0.16908
 H998 H 1.03109 0.62662 0.22217
 H999 H 1.01780 0.66365 0.19920
 H1000 H 1.07686 0.65175 0.14624
 C1001 C 0.94162 0.85662 0.19597
 C1002 C 0.95554 0.87691 0.19903
 C1003 C 0.97947 0.87750 0.18927
 C1004 C 0.98934 0.85793 0.17623
 C1005 C 0.91059 0.94690 0.24710
 C1006 C 0.95140 0.83712 0.18295
 C1007 C 0.94486 0.89710 0.21195
 C1008 C 0.93493 0.91347 0.22284
 C1009 C 0.92225 0.93190 0.23579
 C1010 C 0.97529 0.83762 0.17275
 H1011 H 0.92312 0.85592 0.20354
 H1012 H 0.99040 0.89314 0.19152
 H1013 H 1.00770 0.85894 0.16839
 H1014 H 0.94027 0.82159 0.18091
 C1015 C 0.44113 0.35640 0.69562
 C1016 C 0.45513 0.37672 0.69826
 C1017 C 0.47900 0.37712 0.68830
 C1018 C 0.48871 0.35735 0.67548
 C1019 C 0.41070 0.44762 0.74543
 C1020 C 0.45075 0.33668 0.68282
 C1021 C 0.44461 0.39713 0.71096
 C1022 C 0.43482 0.41370 0.72166
 C1023 C 0.42228 0.43239 0.73435
 C1024 C 0.47458 0.33699 0.67243
 H1025 H 0.42267 0.35584 0.70335
 H1026 H 0.48999 0.39279 0.69022
 H1027 H 0.50702 0.35821 0.66749
 H1028 H 0.43956 0.32113 0.68111
 C1029 C 0.47911 0.60044 0.80430
 C1030 C 0.46016 0.60343 0.78824
 C1031 C 0.45234 0.62689 0.78040
 C1032 C 0.46291 0.64728 0.78918
 C1033 C 0.40992 0.52687 0.77289
 C1034 C 0.48965 0.62077 0.81314
 C1035 C 0.44734 0.58253 0.78174
 C1036 C 0.43606 0.56493 0.77762
 C1037 C 0.42225 0.54434 0.77435
 C1038 C 0.48133 0.64442 0.80607
 H1039 H 0.48526 0.58238 0.81056
 H1040 H 0.43753 0.62942 0.76813
 H1041 H 0.45596 0.66525 0.78359
 H1042 H 0.50402 0.61801 0.82586
 C1043 C -0.05435 0.11142 0.31777
 C1044 C -0.04664 0.10245 0.29531
 C1045 C -0.02807 0.11391 0.28144
 C1046 C -0.01710 0.13416 0.29018
 C1047 C -0.09209 0.02430 0.27530
 C1048 C -0.04343 0.13153 0.32652
 C1049 C -0.05777 0.08121 0.28715
 C1050 C -0.06787 0.06326 0.28187
 C1051 C -0.08056 0.04220 0.27749
 C1052 C -0.02454 0.14302 0.31295
 H1053 H -0.06877 0.10277 0.32862
 H1054 H -0.02193 0.10708 0.26403
 H1055 H -0.00251 0.14256 0.27940
 H1056 H -0.04989 0.13819 0.34390
 C1057 C 0.03238 0.36775 0.29570
 C1058 C 0.05519 0.37173 0.28421
 C1059 C 0.07103 0.35189 0.27915
 C1060 C 0.06456 0.32827 0.28648
 C1061 C 0.09160 0.45859 0.27617
 C1062 C 0.02585 0.34413 0.30300
 C1063 C 0.06349 0.39612 0.28008
 C1064 C 0.07138 0.41627 0.27781
 C1065 C 0.08174 0.43939 0.27640
 C1066 C 0.04215 0.32420 0.29904
 H1067 H 0.02008 0.38299 0.29992
 H1068 H 0.08877 0.35476 0.27037
 H1069 H 0.07737 0.31326 0.28296
 H1070 H 0.00862 0.34163 0.31292
 C1071 C 0.53291 0.87057 0.79615
 C1072 C 0.55589 0.87437 0.78498
 C1073 C 0.57159 0.85442 0.77998
 C1074 C 0.56480 0.83084 0.78705
 C1075 C 0.59342 0.96073 0.77707
 C1076 C 0.52605 0.84698 0.80319
 C1077 C 0.56448 0.89866 0.78105
 C1078 C 0.57264 0.91870 0.77886
 C1079 C 0.58332 0.94166 0.77745
 C1080 C 0.54220 0.82693 0.79929
 H1081 H 0.52070 0.88590 0.80031
 H1082 H 0.58946 0.85715 0.77143
 H1083 H 0.57750 0.81573 0.78358
 H1084 H 0.50867 0.84459 0.81286
 C1085 C 0.67807 0.57647 0.12275
 C1086 C 0.69987 0.56437 0.11555
 C1087 C 0.70875 0.54442 0.12958
 C1088 C 0.69587 0.53660 0.15076
 C1089 C 0.74920 0.60017 0.03924
 C1090 C 0.66517 0.56869 0.14388
 C1091 C 0.71338 0.57298 0.09414
 C1092 C 0.72463 0.58083 0.07644
 C1093 C 0.73782 0.59084 0.05611
 C1094 C 0.67392 0.54867 0.15815
 H1095 H 0.67112 0.59205 0.11213
 H1096 H 0.72564 0.53495 0.12420
 H1097 H 0.70293 0.52096 0.16119
 H1098 H 0.64854 0.57859 0.14926
 C1099 C 0.17914 1.07352 0.62358
 C1100 C 0.20078 1.06099 0.61662
 C1101 C 0.20941 1.04123 0.63107
 C1102 C 0.19644 1.03402 0.65241
 C1103 C 0.25027 1.09497 0.53957
 C1104 C 0.16616 1.06635 0.64486
 C1105 C 0.21435 1.06897 0.59500
 C1106 C 0.22562 1.07637 0.57711
 C1107 C 0.23884 1.08595 0.55658
 C1108 C 0.17464 1.04651 0.65954
 H1109 H 0.17238 1.08895 0.61263
 H1110 H 0.22618 1.03144 0.62588
 H1111 H 0.20330 1.01852 0.66317
 H1112 H 0.14966 1.07658 0.65002
 C1113 C 0.20914 0.97539 0.86241
 C1114 C 0.19722 0.96111 0.88057
 C1115 C 0.17242 0.95688 0.87907
 C1116 C 0.15969 0.96642 0.85927
 C1117 C 0.24651 0.91363 0.94820
 C1118 C 0.19641 0.98500 0.84257
 C1119 C 0.21066 0.94950 0.89994
 C1120 C 0.22186 0.93894 0.91573
 C1121 C 0.23505 0.92568 0.93360
 C1122 C 0.17162 0.98029 0.84061
 H1123 H 0.22838 0.97864 0.86332
 H1124 H 0.16302 0.94584 0.89300
 H1125 H 0.14053 0.96281 0.85847
 H1126 H 0.20612 0.99543 0.82840
 C1127 C 0.69142 0.48205 0.37547
 C1128 C 0.70176 0.45839 0.37526
 C1129 C 0.69967 0.44443 0.35497
 C1130 C 0.68699 0.45386 0.33512
 C1131 C 0.74788 0.41368 0.44659
 C1132 C 0.67873 0.49157 0.35555
 C1133 C 0.71416 0.44796 0.39586
 C1134 C 0.72461 0.43814 0.41256
 C1135 C 0.73702 0.42546 0.43134
 C1136 C 0.67617 0.47744 0.33527
 H1137 H 0.69292 0.49300 0.39110
 H1138 H 0.70768 0.42613 0.35457
 H1139 H 0.68565 0.44269 0.31963
 H1140 H 0.67040 0.50969 0.35627
 C1141 C 0.81947 0.45011 0.61121
 C1142 C 0.79657 0.45732 0.60283
 C1143 C 0.78242 0.47520 0.61477
 C1144 C 0.79130 0.48595 0.63497
 C1145 C 0.77613 0.41161 0.52557
 C1146 C 0.82836 0.46080 0.63127
 C1147 C 0.78819 0.44626 0.58177
 C1148 C 0.78278 0.43614 0.56399
 C1149 C 0.77833 0.42332 0.54319
 C1150 C 0.81448 0.47898 0.64329
 H1151 H 0.83053 0.43621 0.60219
 H1152 H 0.76466 0.48093 0.60840
 H1153 H 0.78028 0.49999 0.64379
 H1154 H 0.84606 0.45469 0.63750
 C1155 C 0.28156 -0.02889 0.11352
 C1156 C 0.29554 -0.04694 0.10162
 C1157 C 0.31824 -0.05457 0.11022
 C1158 C 0.32713 -0.04410 0.13041
 C1159 C 0.27494 -0.09063 0.02311
 C1160 C 0.29044 -0.01838 0.13385
 C1161 C 0.28722 -0.05761 0.08031
 C1162 C 0.28181 -0.06732 0.06229
 C1163 C 0.27727 -0.07952 0.04112
 C1164 C 0.31345 -0.02574 0.14236
 H1165 H 0.26396 -0.02283 0.10699
 H1166 H 0.32918 -0.06858 0.10122
 H1167 H 0.34469 -0.05049 0.13678
 H1168 H 0.27957 -0.00419 0.14261
 C1169 C 0.28062 0.06790 0.35069
 C1170 C 0.28590 0.05234 0.37066
 C1171 C 0.29740 0.02957 0.36702
 C1172 C 0.30451 0.02281 0.34357
 C1173 C 0.27816 0.09023 0.45623
 C1174 C 0.28775 0.06121 0.32725
 C1175 C 0.28198 0.06094 0.39480
 C1176 C 0.27982 0.06915 0.41467
 C1177 C 0.27846 0.07996 0.43740
 C1178 C 0.30036 0.03886 0.32349
 H1179 H 0.27182 0.08561 0.35329
 H1180 H 0.30178 0.01748 0.38237
 H1181 H 0.31445 0.00563 0.34129
 H1182 H 0.28410 0.07382 0.31211
 C1183 C 0.79727 0.53421 0.86757
 C1184 C 0.78546 0.55687 0.87100
 C1185 C 0.78012 0.57223 0.85090
 C1186 C 0.78754 0.56549 0.82756
 C1187 C 0.77714 0.59545 0.95617
 C1188 C 0.80466 0.52739 0.84421
 C1189 C 0.78133 0.56561 0.89505
 C1190 C 0.77903 0.57399 0.91484
 C1191 C 0.77754 0.58500 0.93745
 C1192 C 0.80047 0.54328 0.82401
 H1193 H 0.80170 0.52227 0.88301
 H1194 H 0.77108 0.58986 0.85335
 H1195 H 0.78385 0.57797 0.81233
 H1196 H 0.81485 0.51032 0.84209
 C1197 C 0.12892 0.71050 0.54720
 C1198 C 0.11460 0.70198 0.56716
 C1199 C 0.12126 0.68010 0.57944
 C1200 C 0.14212 0.66674 0.57179
 C1201 C 0.03868 0.75295 0.60105
 C1202 C 0.14983 0.69717 0.53952
 C1203 C 0.09336 0.71587 0.57546
 C1204 C 0.07577 0.72747 0.58293
 C1205 C 0.05552 0.74113 0.59234
 C1206 C 0.15665 0.67511 0.55173
 H1207 H 0.12394 0.72743 0.53758
 H1208 H 0.11040 0.67342 0.59502
 H1209 H 0.14707 0.65003 0.58179
 H1210 H 0.16046 0.70394 0.52384
 C1211 C 0.63468 0.20737 1.04412
 C1212 C 0.62021 0.19837 1.06378
 C1213 C 0.62688 0.17628 1.07566
 C1214 C 0.64789 0.16321 1.06795
 C1215 C 0.54408 0.24797 1.09914
 C1216 C 0.65574 0.19431 1.03637
 C1217 C 0.59888 0.21200 1.07227
 C1218 C 0.58122 0.22332 1.08002
 C1219 C 0.56092 0.23656 1.08991
 C1220 C 0.66258 0.17206 1.04821
 H1221 H 0.62970 0.22448 1.03482
 H1222 H 0.61593 0.16923 1.09101
 H1223 H 0.65284 0.14633 1.07767
 H1224 H 0.66649 0.20146 1.02095
 C1225 C 0.86459 0.20789 0.97580
 C1226 C 0.88245 0.19677 0.96069
 C1227 C 0.88079 0.17224 0.95556
 C1228 C 0.86110 0.15901 0.96502
 C1229 C 0.94997 0.24743 0.91351
 C1230 C 0.84486 0.19465 0.98534
 C1231 C 0.90168 0.21077 0.94920
 C1232 C 0.91740 0.22236 0.93872
 C1233 C 0.93527 0.23586 0.92552
 C1234 C 0.84272 0.17016 0.97972
 H1235 H 0.86562 0.22692 0.97977
 H1236 H 0.89450 0.16346 0.94388
 H1237 H 0.86016 0.14008 0.96069
 H1238 H 0.83089 0.20377 0.99643
 C1239 C 0.35301 0.69722 0.44458
 C1240 C 0.37390 0.69820 0.45800
 C1241 C 0.37442 0.68697 0.48123
 C1242 C 0.35419 0.67455 0.49088
 C1243 C 0.44633 0.74445 0.41401
 C1244 C 0.33283 0.68483 0.45416
 C1245 C 0.39475 0.71052 0.44754
 C1246 C 0.41169 0.72097 0.43785
 C1247 C 0.43078 0.73346 0.42545
 C1248 C 0.33324 0.67318 0.47734
 H1249 H 0.35237 0.70594 0.42663
 H1250 H 0.39052 0.68759 0.49176
 H1251 H 0.35514 0.66555 0.50867
 H1252 H 0.31685 0.68441 0.44344
 C1253 C 0.62496 0.78034 0.45731
 C1254 C 0.60146 0.78831 0.46490
 C1255 C 0.59835 0.80448 0.48371
 C1256 C 0.61864 0.81331 0.49434
 C1257 C 0.52554 0.77275 0.41421
 C1258 C 0.64530 0.78911 0.46797
 C1259 C 0.58067 0.78184 0.45197
 C1260 C 0.56320 0.77771 0.44060
 C1261 C 0.54280 0.77436 0.42666
 C1262 C 0.64235 0.80612 0.48624
 H1263 H 0.62758 0.76799 0.44262
 H1264 H 0.58026 0.81084 0.48968
 H1265 H 0.61579 0.82613 0.50859
 H1266 H 0.66332 0.78344 0.46119
 C1267 C 0.12789 0.28460 -0.04512
 C1268 C 0.10439 0.29235 -0.03732
 C1269 C 0.10127 0.30805 -0.01812
 C1270 C 0.12154 0.31663 -0.00727
 C1271 C 0.02839 0.27694 -0.08797
 C1272 C 0.14823 0.29313 -0.03424
 C1273 C 0.08360 0.28605 -0.05034
 C1274 C 0.06613 0.28199 -0.06174
 C1275 C 0.04571 0.27863 -0.07564
 C1276 C 0.14526 0.30966 -0.01554
 H1277 H 0.13053 0.27261 -0.06011
 H1278 H 0.08317 0.31423 -0.01198
 H1279 H 0.11869 0.32908 0.00731
 H1280 H 0.16625 0.28764 -0.04117
 C1281 C 0.37111 0.29711 0.03459
 C1282 C 0.37465 0.28560 0.05734
 C1283 C 0.35455 0.28082 0.07306
 C1284 C 0.33112 0.28844 0.06653
 C1285 C 0.46068 0.27617 0.09467
 C1286 C 0.34766 0.30471 0.02799
 C1287 C 0.39888 0.28115 0.06574
 C1288 C 0.41887 0.27857 0.07381
 C1289 C 0.44174 0.27677 0.08448
 C1290 C 0.32749 0.30103 0.04417
 H1291 H 0.38655 0.30112 0.02238
 H1292 H 0.35708 0.27202 0.09076
 H1293 H 0.31591 0.28514 0.07924
 H1294 H 0.34548 0.31462 0.01079
 C1295 C 0.85181 0.78197 0.57719
 C1296 C 0.87189 0.78640 0.56134
 C1297 C 0.86829 0.79689 0.53817
 C1298 C 0.84478 0.80384 0.53122
 C1299 C 0.95853 0.77930 0.59775
 C1300 C 0.82831 0.78894 0.57031
 C1301 C 0.89616 0.78258 0.56986
 C1302 C 0.91622 0.78054 0.57782
 C1303 C 0.93929 0.77937 0.58811
 C1304 C 0.82460 0.80052 0.54748
 H1305 H 0.85439 0.77395 0.59521
 H1306 H 0.88372 0.80061 0.52583
 H1307 H 0.84255 0.81299 0.51365
 H1308 H 0.81310 0.78592 0.58310
   
