data_POSCAR
  _audit_creation_date              2014-09-24
  _audit_creation_method            'ToBaCCo'
  _symmetry_space_group_name_H-M    'P1'
  _symmetry_Int_Tables_number       1
  _symmetry_cell_setting            triclinic
  loop_
  _symmetry_equiv_pos_as_xyz
 x,y,z
_cell_length_a 70.0966
_cell_length_b 70.1119
_cell_length_c 70.1229
_cell_angle_alpha 89.994400
_cell_angle_beta 90.001100
_cell_angle_gamma 89.993800
loop_
  _atom_site_label
  _atom_site_type_symbol
  _atom_site_fract_x
  _atom_site_fract_y
  _atom_site_fract_z
C1 C 0.19258 0.21899 0.21374
 C2 C 0.20323 0.22438 0.19769
 C3 C 0.21906 0.21389 0.19238
 C4 C 0.22443 0.19781 0.20301
 C5 C 0.21395 0.19252 0.21885
 C6 C 0.19791 0.20319 0.22426
 C7 C 0.17655 0.22651 0.22222
 N8 N 0.17202 0.21567 0.23766
 C9 C 0.18506 0.20137 0.23898
 C10 C 0.22245 0.17652 0.22639
 N11 N 0.23784 0.17193 0.21550
 C12 C 0.23912 0.18493 0.20116
 C13 C 0.22658 0.22237 0.17637
 N14 N 0.21570 0.23777 0.17180
 C15 C 0.20137 0.23906 0.18481
 H16 H 0.16894 0.23912 0.21760
 H17 H 0.18509 0.19025 0.24969
 H18 H 0.21758 0.16866 0.23875
 H19 H 0.25008 0.18521 0.19030
 H20 H 0.23893 0.21748 0.16849
 H21 H 0.19051 0.25003 0.18508
 C22 C 0.69244 0.71884 0.71365
 C23 C 0.70313 0.72425 0.69762
 C24 C 0.71893 0.71372 0.69230
 C25 C 0.72431 0.69766 0.70295
 C26 C 0.71382 0.69238 0.71878
 C27 C 0.69777 0.70304 0.72417
 C28 C 0.67642 0.72637 0.72212
 N29 N 0.67188 0.71554 0.73756
 C30 C 0.68491 0.70123 0.73888
 C31 C 0.72230 0.67637 0.72633
 N32 N 0.73770 0.67178 0.71546
 C33 C 0.73899 0.68477 0.70111
 C34 C 0.72645 0.72218 0.67627
 N35 N 0.71562 0.73762 0.67173
 C36 C 0.70131 0.73895 0.68476
 H37 H 0.66882 0.73899 0.71750
 H38 H 0.68494 0.69012 0.74960
 H39 H 0.71742 0.66852 0.73869
 H40 H 0.74996 0.68504 0.69025
 H41 H 0.73906 0.71755 0.66866
 H42 H 0.69019 0.74967 0.68478
 C43 C 0.30711 0.78094 0.71414
 C44 C 0.29645 0.77556 0.69809
 C45 C 0.28068 0.78613 0.69276
 C46 C 0.27532 0.80219 0.70343
 C47 C 0.28579 0.80746 0.71920
 C48 C 0.30184 0.79679 0.72460
 C49 C 0.32310 0.77337 0.72264
 N50 N 0.32769 0.78425 0.73802
 C51 C 0.31472 0.79862 0.73929
 C52 C 0.27736 0.82350 0.72669
 N53 N 0.26185 0.82830 0.71589
 C54 C 0.26068 0.81510 0.70158
 C55 C 0.27314 0.77769 0.67673
 N56 N 0.28394 0.76223 0.67219
 C57 C 0.29824 0.76085 0.68524
 H58 H 0.33094 0.76099 0.71778
 H59 H 0.31446 0.80950 0.75024
 H60 H 0.28252 0.83092 0.73915
 H61 H 0.25006 0.81456 0.69044
 H62 H 0.26055 0.78235 0.66912
 H63 H 0.30932 0.75011 0.68526
 C64 C 0.80759 0.28098 0.21387
 C65 C 0.79697 0.27558 0.19780
 C66 C 0.78114 0.28607 0.19246
 C67 C 0.77568 0.30205 0.20317
 C68 C 0.78618 0.30735 0.21899
 C69 C 0.80225 0.29671 0.22436
 C70 C 0.82360 0.27347 0.22236
 N71 N 0.82832 0.28424 0.23791
 C72 C 0.81510 0.29854 0.23905
 C73 C 0.77767 0.32335 0.22653
 N74 N 0.76223 0.32789 0.21569
 C75 C 0.76094 0.31489 0.20136
 C76 C 0.77366 0.27760 0.17642
 N77 N 0.78455 0.26220 0.17187
 C78 C 0.79885 0.26090 0.18492
 H79 H 0.83109 0.26105 0.21718
 H80 H 0.81446 0.30961 0.24974
 H81 H 0.78227 0.33094 0.23916
 H82 H 0.75025 0.31488 0.19023
 H83 H 0.76104 0.28219 0.16882
 H84 H 0.80999 0.25021 0.18494
 C85 C 0.80752 0.71923 0.28566
 C86 C 0.79687 0.72465 0.30171
 C87 C 0.78107 0.71415 0.30707
 C88 C 0.77572 0.69805 0.29649
 C89 C 0.78622 0.69274 0.28066
 C90 C 0.80224 0.70344 0.27524
 C91 C 0.82349 0.72676 0.27715
 N92 N 0.82824 0.71595 0.26162
 C93 C 0.81508 0.70161 0.26054
 C94 C 0.77775 0.67670 0.27317
 N95 N 0.76237 0.67211 0.28407
 C96 C 0.76107 0.68514 0.29838
 C97 C 0.77354 0.72267 0.32306
 N98 N 0.78439 0.73810 0.32757
 C99 C 0.79871 0.73938 0.31455
 H100 H 0.83082 0.73935 0.28214
 H101 H 0.81460 0.69037 0.25002
 H102 H 0.78263 0.66883 0.26083
 H103 H 0.75010 0.68542 0.30924
 H104 H 0.76121 0.71778 0.33096
 H105 H 0.80956 0.75036 0.31423
 C106 C 0.30747 0.21924 -0.21413
 C107 C 0.29679 0.22467 -0.19810
 C108 C 0.28098 0.21417 -0.19279
 C109 C 0.27566 0.19806 -0.20339
 C110 C 0.28617 0.19275 -0.21912
 C111 C 0.30220 0.20344 -0.22454
 C112 C 0.32347 0.22675 -0.22261
 N113 N 0.32825 0.21592 -0.23811
 C114 C 0.31508 0.20158 -0.23921
 C115 C 0.27774 0.17671 -0.22660
 N116 N 0.26219 0.17194 -0.21582
 C117 C 0.26101 0.18517 -0.20154
 C118 C 0.27341 0.22268 -0.17682
 N119 N 0.28425 0.23811 -0.17227
 C120 C 0.29860 0.23940 -0.18527
 H121 H 0.33080 0.23933 -0.21760
 H122 H 0.31462 0.19033 -0.24971
 H123 H 0.28291 0.16926 -0.23904
 H124 H 0.25035 0.18576 -0.19044
 H125 H 0.26106 0.21780 -0.16895
 H126 H 0.30945 0.25038 -0.18556
 C127 C 0.69264 0.28074 -0.21418
 C128 C 0.70333 0.27530 -0.19816
 C129 C 0.71914 0.28580 -0.19285
 C130 C 0.72452 0.30185 -0.20351
 C131 C 0.71402 0.30716 -0.21925
 C132 C 0.69794 0.29652 -0.22462
 C133 C 0.67663 0.27325 -0.22264
 N134 N 0.67185 0.28407 -0.23815
 C135 C 0.68505 0.29838 -0.23927
 C136 C 0.72249 0.32317 -0.22676
 N137 N 0.73804 0.32792 -0.21599
 C138 C 0.73920 0.31472 -0.20169
 C139 C 0.72668 0.27732 -0.17684
 N140 N 0.71584 0.26189 -0.17229
 C141 C 0.70151 0.26058 -0.18531
 H142 H 0.66917 0.26080 -0.21750
 H143 H 0.68564 0.30949 -0.24992
 H144 H 0.71731 0.33063 -0.23919
 H145 H 0.74986 0.31412 -0.19059
 H146 H 0.73930 0.28193 -0.16924
 H147 H 0.69038 0.24988 -0.18532
 C148 C 0.19260 0.78103 0.28579
 C149 C 0.20324 0.77564 0.30184
 C150 C 0.21904 0.78615 0.30716
 C151 C 0.22445 0.80218 0.29648
 C152 C 0.21400 0.80748 0.28071
 C153 C 0.19792 0.79686 0.27531
 C154 C 0.17659 0.77351 0.27728
 N155 N 0.17204 0.78439 0.26188
 C156 C 0.18506 0.79872 0.26061
 C157 C 0.22249 0.82348 0.27321
 N158 N 0.23802 0.82823 0.28400
 C159 C 0.23914 0.81503 0.29832
 C160 C 0.22655 0.77769 0.32320
 N161 N 0.21570 0.76227 0.32775
 C162 C 0.20140 0.76094 0.31471
 H163 H 0.16871 0.76116 0.28215
 H164 H 0.18535 0.80958 0.24965
 H165 H 0.21739 0.83088 0.26070
 H166 H 0.24972 0.81449 0.30950
 H167 H 0.23915 0.78231 0.33081
 H168 H 0.19028 0.75023 0.31469
 C169 C 0.46901 0.44276 0.46421
 C170 C 0.47444 0.45346 0.44820
 C171 C 0.46391 0.46926 0.44287
 C172 C 0.44784 0.47462 0.45350
 C173 C 0.44252 0.46412 0.46931
 C174 C 0.45318 0.44807 0.47471
 C175 C 0.47652 0.42673 0.47268
 N176 N 0.46565 0.42217 0.48808
 C177 C 0.45133 0.43520 0.48940
 C178 C 0.42649 0.47259 0.47682
 N179 N 0.42191 0.48799 0.46594
 C180 C 0.43494 0.48929 0.45163
 C181 C 0.47239 0.47677 0.42685
 N182 N 0.48784 0.46594 0.42232
 C183 C 0.48916 0.45164 0.43536
 H184 H 0.48915 0.41914 0.46808
 H185 H 0.44020 0.43521 0.50009
 H186 H 0.41861 0.46770 0.48916
 H187 H 0.43521 0.50026 0.44077
 H188 H 0.46775 0.48937 0.41922
 H189 H 0.49987 0.44052 0.43538
 C190 C -0.03074 -0.05745 0.96401
 C191 C -0.02528 -0.04677 0.94799
 C192 C -0.03574 -0.03091 0.94271
 C193 C -0.05183 -0.02556 0.95332
 C194 C -0.05717 -0.03606 0.96904
 C195 C -0.04653 -0.05214 0.97443
 C196 C -0.02328 -0.07349 0.97246
 N197 N -0.03412 -0.07825 0.98796
 C198 C -0.04842 -0.06503 0.98908
 C199 C -0.07318 -0.02759 0.97653
 N200 N -0.07791 -0.01203 0.96578
 C201 C -0.06468 -0.01086 0.95150
 C202 C -0.02720 -0.02335 0.92674
 N203 N -0.01180 -0.03424 0.92217
 C204 C -0.01056 -0.04861 0.93515
 H205 H -0.01073 -0.08085 0.96743
 H206 H -0.05966 -0.06454 0.99960
 H207 H -0.08066 -0.03277 0.98896
 H208 H -0.06405 -0.00018 0.94042
 H209 H -0.03205 -0.01098 0.91888
 H210 H 0.00038 -0.05950 0.93542
 C211 C 1.03067 0.55728 0.96434
 C212 C 1.02523 0.54659 0.94833
 C213 C 1.03574 0.53078 0.94302
 C214 C 1.05181 0.52542 0.95368
 C215 C 1.05711 0.53592 0.96941
 C216 C 1.04646 0.55200 0.97478
 C217 C 1.02318 0.57330 0.97279
 N218 N 1.03401 0.57809 0.98829
 C219 C 1.04833 0.56490 0.98942
 C220 C 1.07314 0.52747 0.97691
 N221 N 1.07790 0.51192 0.96614
 C222 C 1.06468 0.51075 0.95185
 C223 C 1.02726 0.52324 0.92702
 N224 N 1.01182 0.53408 0.92247
 C225 C 1.01051 0.54840 0.93548
 H226 H 1.01068 0.58071 0.96768
 H227 H 1.05950 0.56436 1.00001
 H228 H 1.08062 0.53266 0.98933
 H229 H 1.06408 0.50008 0.94076
 H230 H 1.03188 0.51062 0.91942
 H231 H 0.99980 0.55952 0.93549
 C232 C 0.53091 0.05715 0.46427
 C233 C 0.52551 0.04649 0.44823
 C234 C 0.53605 0.03070 0.44291
 C235 C 0.55210 0.02532 0.45358
 C236 C 0.55740 0.03578 0.46933
 C237 C 0.54676 0.05185 0.47473
 C238 C 0.52338 0.07315 0.47276
 N239 N 0.53428 0.07773 0.48814
 C240 C 0.54863 0.06473 0.48941
 C241 C 0.57343 0.02732 0.47682
 N242 N 0.57819 0.01180 0.46603
 C243 C 0.56499 0.01065 0.45172
 C244 C 0.52758 0.02317 0.42689
 N245 N 0.51213 0.03400 0.42235
 C246 C 0.51079 0.04830 0.43538
 H247 H 0.51101 0.08101 0.46791
 H248 H 0.55951 0.06446 0.50036
 H249 H 0.58088 0.03248 0.48927
 H250 H 0.56441 0.00003 0.44060
 H251 H 0.53222 0.01057 0.41928
 H252 H 0.50007 0.05940 0.43540
 C253 C -0.03095 0.05770 0.53626
 C254 C -0.02556 0.04707 0.55233
 C255 C -0.03603 0.03123 0.55763
 C256 C -0.05208 0.02582 0.54698
 C257 C -0.05739 0.03630 0.53114
 C258 C -0.04677 0.05237 0.52577
 C259 C -0.02343 0.07372 0.52776
 N260 N -0.03431 0.07827 0.51236
 C261 C -0.04863 0.06524 0.51107
 C262 C -0.07337 0.02777 0.52359
 N263 N -0.07793 0.01237 0.53446
 C264 C -0.06493 0.01111 0.54881
 C265 C -0.02753 0.02370 0.57363
 N266 N -0.01214 0.03460 0.57820
 C267 C -0.01087 0.04894 0.56520
 H268 H -0.01110 0.08161 0.53264
 H269 H -0.05948 0.06494 0.50010
 H270 H -0.08123 0.03263 0.51123
 H271 H -0.06464 0.00014 0.55967
 H272 H -0.03238 0.01134 0.58149
 H273 H 0.00009 0.05980 0.56492
 C274 C 0.46905 0.55758 0.03604
 C275 C 0.47444 0.54693 0.05210
 C276 C 0.46393 0.53112 0.05742
 C277 C 0.44786 0.52577 0.04678
 C278 C 0.44259 0.53626 0.03095
 C279 C 0.45328 0.55230 0.02557
 C280 C 0.47658 0.57357 0.02756
 N281 N 0.46580 0.57833 0.01201
 C282 C 0.45147 0.56515 0.01088
 C283 C 0.42658 0.52780 0.02340
 N284 N 0.42197 0.51240 0.03427
 C285 C 0.43496 0.51109 0.04862
 C286 C 0.47242 0.52359 0.07342
 N287 N 0.48783 0.53445 0.07799
 C288 C 0.48913 0.54878 0.06498
 H289 H 0.48911 0.58094 0.03264
 H290 H 0.44030 0.56463 0.00030
 H291 H 0.41873 0.53268 0.01104
 H292 H 0.43522 0.50012 0.05947
 H293 H 0.46752 0.51125 0.08130
 H294 H 0.50011 0.55963 0.06469
 C295 C 0.53124 -0.05763 0.03626
 C296 C 0.52584 -0.04696 0.05230
 C297 C 0.53637 -0.03116 0.05762
 C298 C 0.55240 -0.02576 0.04694
 C299 C 0.55772 -0.03628 0.03114
 C300 C 0.54704 -0.05231 0.02574
 C301 C 0.52371 -0.07364 0.02780
 N302 N 0.53454 -0.07819 0.01236
 C303 C 0.54886 -0.06516 0.01103
 C304 C 0.57375 -0.02781 0.02362
 N305 N 0.57830 -0.01238 0.03445
 C306 C 0.56527 -0.01105 0.04876
 C307 C 0.52790 -0.02363 0.07364
 N308 N 0.51246 -0.03447 0.07819
 C309 C 0.51113 -0.04878 0.06515
 H310 H 0.51109 -0.08124 0.03241
 H311 H 0.55997 -0.06515 0.00032
 H312 H 0.58135 -0.03243 0.01100
 H313 H 0.56526 -0.00034 0.05987
 H314 H 0.53252 -0.01102 0.08124
 H315 H 0.50043 -0.05990 0.06514
 C316 C 1.03090 0.44276 0.53605
 C317 C 1.02554 0.45336 0.55214
 C318 C 1.03604 0.46917 0.55745
 C319 C 1.05203 0.47463 0.54673
 C320 C 1.05730 0.46421 0.53093
 C321 C 1.04669 0.44813 0.52553
 C322 C 1.02337 0.42676 0.52754
 N323 N 1.03422 0.42225 0.51210
 C324 C 1.04852 0.43529 0.51081
 C325 C 1.07327 0.47273 0.52339
 N326 N 1.07803 0.48825 0.53419
 C327 C 1.06487 0.48933 0.54855
 C328 C 1.02761 0.47663 0.57352
 N329 N 1.01221 0.46575 0.57810
 C330 C 1.01087 0.45148 0.56504
 H331 H 1.01104 0.41886 0.53243
 H332 H 1.05935 0.43562 0.49981
 H333 H 1.08063 0.46768 0.51084
 H334 H 1.06436 0.49988 0.55976
 H335 H 1.03223 0.48924 0.58114
 H336 H 1.00018 0.44034 0.56503
 C337 C 0.40426 0.00869 0.22449
 H338 H 0.40501 0.02164 0.23285
 C339 C 0.41675 0.00598 0.20921
 H340 H 0.42712 0.01689 0.20571
 C341 C 0.39003 -0.02150 0.21897
 H342 H 0.37982 -0.03231 0.22298
 C343 C 0.40225 -0.02478 0.20358
 H344 H 0.40129 -0.03803 0.19568
 N345 N 0.39110 -0.00487 0.22893
 C346 C 0.34587 0.02557 0.25897
 H347 H 0.34508 0.01724 0.27193
 C348 C 0.33344 0.04089 0.25621
 H349 H 0.32306 0.04445 0.26710
 C350 C 0.36015 0.03099 0.22878
 H351 H 0.37035 0.02691 0.21798
 C352 C 0.34797 0.04641 0.22545
 H353 H 0.34898 0.05428 0.21219
 Zn354 Zn 0.37502 -0.00020 0.25012
 N355 N 0.35903 0.02106 0.24543
 C356 C 0.38993 0.02105 0.28136
 N357 N 0.39100 0.00441 0.27140
 C358 C 0.40411 -0.00918 0.27590
 C359 C 0.41653 -0.00651 0.29124
 C360 C 0.40209 0.02430 0.29681
 C361 C 0.34584 -0.02587 0.24111
 C362 C 0.33338 -0.04118 0.24377
 C363 C 0.34776 -0.04680 0.27459
 C364 C 0.35997 -0.03139 0.27136
 N365 N 0.35895 -0.02142 0.25472
 H366 H 0.37977 0.03189 0.27730
 H367 H 0.40486 -0.02213 0.26754
 H368 H 0.42686 -0.01745 0.29478
 H369 H 0.40113 0.03754 0.30470
 H370 H 0.34513 -0.01751 0.22816
 H371 H 0.32305 -0.04469 0.23282
 H372 H 0.34869 -0.05471 0.28783
 H373 H 0.37013 -0.02736 0.28220
 C374 C 0.33454 0.05143 0.23931
 C375 C 0.41569 -0.01089 0.19864
 C376 C 0.33439 -0.05176 0.26064
 C377 C 0.41547 0.01037 0.30181
 C378 C 0.09617 -0.00865 0.72443
 H379 H 0.09543 -0.02160 0.73279
 C380 C 0.08369 -0.00594 0.70915
 H381 H 0.07333 -0.01685 0.70565
 C382 C 0.11038 0.02156 0.71892
 H383 H 0.12058 0.03238 0.72294
 C384 C 0.09816 0.02484 0.70353
 H385 H 0.09912 0.03809 0.69563
 N386 N 0.10932 0.00492 0.72888
 C387 C 0.15459 -0.02546 0.75893
 H388 H 0.15538 -0.01710 0.77188
 C389 C 0.16702 -0.04078 0.75620
 H390 H 0.17740 -0.04431 0.76710
 C391 C 0.14029 -0.03094 0.72876
 H392 H 0.13008 -0.02689 0.71797
 C393 C 0.15247 -0.04637 0.72546
 H394 H 0.15146 -0.05427 0.71223
 Zn395 Zn 0.12540 0.00026 0.75008
 N396 N 0.14142 -0.02098 0.74539
 C397 C 0.11051 -0.02106 0.78128
 N398 N 0.10941 -0.00441 0.77135
 C399 C 0.09628 0.00916 0.77586
 C400 C 0.08385 0.00643 0.79118
 C401 C 0.09834 -0.02436 0.79671
 C402 C 0.15455 0.02597 0.74112
 C403 C 0.16701 0.04128 0.74381
 C404 C 0.15260 0.04684 0.77462
 C405 C 0.14040 0.03144 0.77136
 N406 N 0.14144 0.02149 0.75471
 H407 H 0.12069 -0.03187 0.77721
 H408 H 0.09550 0.02212 0.76752
 H409 H 0.07350 0.01734 0.79474
 H410 H 0.09933 -0.03762 0.80459
 H411 H 0.15528 0.01763 0.72816
 H412 H 0.17735 0.04481 0.73288
 H413 H 0.15166 0.05473 0.78788
 H414 H 0.13023 0.02739 0.78219
 C415 C 0.16591 -0.05135 0.73934
 C416 C 0.08473 0.01094 0.69858
 C417 C 0.16599 0.05183 0.76070
 C418 C 0.08494 -0.01046 0.80173
 C419 C 0.59581 0.49115 0.22444
 H420 H 0.59503 0.47820 0.23280
 C421 C 0.58336 0.49387 0.20913
 H422 H 0.57299 0.48297 0.20561
 C423 C 0.61007 0.52134 0.21894
 H424 H 0.62028 0.53214 0.22298
 C425 C 0.59788 0.52463 0.20353
 H426 H 0.59888 0.53787 0.19562
 N427 N 0.60897 0.50470 0.22890
 C428 C 0.65415 0.47425 0.25901
 H429 H 0.65494 0.48260 0.27196
 C430 C 0.66658 0.45892 0.25629
 H431 H 0.67694 0.45537 0.26719
 C432 C 0.63989 0.46880 0.22882
 H433 H 0.62970 0.47287 0.21801
 C434 C 0.65206 0.45337 0.22552
 H435 H 0.65107 0.44548 0.21228
 Zn436 Zn 0.62502 0.50002 0.25013
 N437 N 0.64100 0.47875 0.24546
 C438 C 0.61006 0.47874 0.28132
 N439 N 0.60901 0.49539 0.27138
 C440 C 0.59590 0.50899 0.27588
 C441 C 0.58346 0.50629 0.29121
 C442 C 0.59788 0.47548 0.29675
 C443 C 0.65422 0.52567 0.24116
 C444 C 0.66670 0.54097 0.24384
 C445 C 0.65227 0.54660 0.27464
 C446 C 0.64005 0.53120 0.27139
 N447 N 0.64109 0.52123 0.25475
 H448 H 0.62022 0.46790 0.27726
 H449 H 0.59516 0.52195 0.26754
 H450 H 0.57313 0.51723 0.29475
 H451 H 0.59883 0.46222 0.30463
 H452 H 0.65494 0.51731 0.22822
 H453 H 0.67704 0.54447 0.23291
 H454 H 0.65133 0.55450 0.28788
 H455 H 0.62987 0.52718 0.28222
 C456 C 0.66548 0.44836 0.23941
 C457 C 0.58445 0.51075 0.19855
 C458 C 0.66567 0.55155 0.26071
 C459 C 0.58450 0.48940 0.30175
 C460 C 0.90413 0.50859 0.72461
 H461 H 0.90485 0.52153 0.73299
 C462 C 0.91663 0.50592 0.70934
 H463 H 0.92699 0.51684 0.70587
 C464 C 0.88994 0.47839 0.71903
 H465 H 0.87974 0.46756 0.72302
 C466 C 0.90218 0.47514 0.70365
 H467 H 0.90124 0.46191 0.69573
 N468 N 0.89097 0.49501 0.72901
 C469 C 0.84564 0.52536 0.75899
 H470 H 0.84484 0.51701 0.77194
 C471 C 0.83320 0.54067 0.75622
 H472 H 0.82280 0.54420 0.76710
 C473 C 0.85998 0.53083 0.72883
 H474 H 0.87020 0.52678 0.71806
 C475 C 0.84779 0.54625 0.72550
 H476 H 0.84881 0.55413 0.71225
 Zn477 Zn 0.87485 0.49964 0.75018
 N478 N 0.85884 0.52088 0.74547
 C479 C 0.88968 0.52093 0.78143
 N480 N 0.89079 0.50429 0.77149
 C481 C 0.90392 0.49072 0.77601
 C482 C 0.91632 0.49343 0.79136
 C483 C 0.90182 0.52421 0.79689
 C484 C 0.84573 0.47393 0.74113
 C485 C 0.83327 0.45861 0.74378
 C486 C 0.84762 0.45301 0.77461
 C487 C 0.85982 0.46843 0.77139
 N488 N 0.85881 0.47840 0.75476
 H489 H 0.87951 0.53175 0.77735
 H490 H 0.90471 0.47777 0.76766
 H491 H 0.92666 0.48251 0.79492
 H492 H 0.90082 0.53746 0.80478
 H493 H 0.84502 0.48229 0.72818
 H494 H 0.82296 0.45509 0.73282
 H495 H 0.84854 0.44511 0.78786
 H496 H 0.86996 0.47247 0.78225
 C497 C 0.83433 0.55123 0.73934
 C498 C 0.91560 0.48906 0.69874
 C499 C 0.83427 0.44804 0.76065
 C500 C 0.91522 0.51031 0.80191
 C501 C 0.22408 0.40438 0.00889
 H502 H 0.23247 0.40511 0.02182
 C503 C 0.20876 0.41683 0.00625
 H504 H 0.20525 0.42715 0.01719
 C505 C 0.21854 0.39023 -0.02134
 H506 H 0.22256 0.38007 -0.03218
 C507 C 0.20310 0.40242 -0.02455
 H508 H 0.19518 0.40147 -0.03778
 N509 N 0.22854 0.39127 -0.00472
 C510 C 0.25879 0.34604 0.02549
 H511 H 0.27174 0.34531 0.01712
 C512 C 0.25612 0.33355 0.04078
 H513 H 0.26705 0.32320 0.04427
 C514 C 0.22857 0.36022 0.03105
 H515 H 0.21774 0.37040 0.02704
 C516 C 0.22533 0.34799 0.04644
 H517 H 0.21208 0.34893 0.05435
 Zn518 Zn 0.24980 0.37525 -0.00015
 N519 N 0.24520 0.35918 0.02107
 C520 C 0.28103 0.39017 0.02110
 N521 N 0.27104 0.39128 0.00449
 C522 C 0.27548 0.40444 -0.00907
 C523 C 0.29080 0.41689 -0.00637
 C524 C 0.29646 0.40236 0.02437
 C525 C 0.24085 0.34614 -0.02591
 C526 C 0.24355 0.33371 -0.04124
 C527 C 0.27433 0.34820 -0.04683
 C528 C 0.27106 0.36037 -0.03139
 N529 N 0.25442 0.35927 -0.02142
 H530 H 0.27702 0.37997 0.03191
 H531 H 0.26710 0.40522 -0.02200
 H532 H 0.29430 0.42726 -0.01727
 H533 H 0.30438 0.40137 0.03760
 H534 H 0.22790 0.34536 -0.01754
 H535 H 0.23263 0.32336 -0.04477
 H536 H 0.28757 0.34919 -0.05473
 H537 H 0.28188 0.37055 -0.02734
 C538 C 0.23925 0.33458 0.05137
 C539 C 0.19815 0.41579 -0.01061
 C540 C 0.26042 0.33480 -0.05181
 C541 C 0.30140 0.41580 0.01049
 C542 C 0.72472 0.09562 -0.00897
 H543 H 0.73307 0.09485 -0.02192
 C544 C 0.70940 0.08318 -0.00625
 H545 H 0.70588 0.07281 -0.01715
 C546 C 0.71923 0.10988 0.02121
 H547 H 0.72327 0.12008 0.03201
 C548 C 0.70381 0.09769 0.02451
 H549 H 0.69591 0.09868 0.03775
 N550 N 0.72919 0.10878 0.00458
 C551 C 0.75929 0.15393 -0.02590
 H552 H 0.77226 0.15471 -0.01757
 C553 C 0.75655 0.16635 -0.04123
 H554 H 0.76746 0.17670 -0.04480
 C555 C 0.72907 0.13970 -0.03130
 H556 H 0.71826 0.12952 -0.02722
 C557 C 0.72576 0.15185 -0.04674
 H558 H 0.71250 0.15086 -0.05461
 Zn559 Zn 0.75041 0.12482 -0.00011
 N560 N 0.74573 0.14080 -0.02138
 C561 C 0.78161 0.10985 -0.02139
 N562 N 0.77167 0.10881 -0.00474
 C563 C 0.77617 0.09570 0.00885
 C564 C 0.79149 0.08325 0.00615
 C565 C 0.79703 0.09766 -0.02466
 C566 C 0.74146 0.15402 0.02555
 C567 C 0.74415 0.16649 0.04084
 C568 C 0.77496 0.15206 0.04645
 C569 C 0.77170 0.13985 0.03105
 N570 N 0.75505 0.14089 0.02109
 H571 H 0.77754 0.12000 -0.03223
 H572 H 0.76783 0.09496 0.02181
 H573 H 0.79504 0.07292 0.01709
 H574 H 0.80491 0.09860 -0.03792
 H575 H 0.72850 0.15475 0.01719
 H576 H 0.73322 0.17683 0.04435
 H577 H 0.78821 0.15112 0.05434
 H578 H 0.78253 0.12967 0.02702
 C579 C 0.73965 0.16526 -0.05177
 C580 C 0.69883 0.08427 0.01063
 C581 C 0.76104 0.16546 0.05140
 C582 C 0.80204 0.08428 -0.01074
 C583 C 0.22390 0.59600 0.49105
 H584 H 0.23228 0.59525 0.47811
 C585 C 0.20858 0.58357 0.49373
 H586 H 0.20506 0.57322 0.48281
 C587 C 0.21840 0.61021 0.52125
 H588 H 0.22244 0.62039 0.53207
 C589 C 0.20297 0.59803 0.52451
 H590 H 0.19506 0.59900 0.53775
 N591 N 0.22837 0.60913 0.50463
 C592 C 0.25863 0.65429 0.47430
 H593 H 0.27157 0.65503 0.48267
 C594 C 0.25595 0.66673 0.45898
 H595 H 0.26689 0.67707 0.45546
 C596 C 0.22839 0.64012 0.46879
 H597 H 0.21756 0.62995 0.47283
 C598 C 0.22515 0.65231 0.45337
 H599 H 0.21190 0.65135 0.44546
 Zn600 Zn 0.24964 0.62514 0.50001
 N601 N 0.24503 0.64117 0.47876
 C602 C 0.28085 0.61016 0.47876
 N603 N 0.27088 0.60910 0.49539
 C604 C 0.27533 0.59596 0.50897
 C605 C 0.29064 0.58350 0.50629
 C606 C 0.29627 0.59796 0.47551
 C607 C 0.24069 0.65431 0.52570
 C608 C 0.24338 0.66675 0.54102
 C609 C 0.27415 0.65225 0.54666
 C610 C 0.27089 0.64007 0.53123
 N611 N 0.25427 0.64116 0.52125
 H612 H 0.27682 0.62034 0.46794
 H613 H 0.26696 0.59522 0.52191
 H614 H 0.29416 0.57316 0.51721
 H615 H 0.30418 0.59892 0.46227
 H616 H 0.22775 0.65507 0.51733
 H617 H 0.23246 0.67711 0.54453
 H618 H 0.28739 0.65127 0.55457
 H619 H 0.28171 0.62988 0.52721
 C620 C 0.23908 0.66569 0.44840
 C621 C 0.19799 0.58463 0.51060
 C622 C 0.26024 0.66567 0.55161
 C623 C 0.30123 0.58456 0.48942
 C624 C 0.72431 0.90421 0.50885
 H625 H 0.73266 0.90492 0.52181
 C626 C 0.70899 0.91666 0.50618
 H627 H 0.70545 0.92697 0.51713
 C628 C 0.71886 0.89011 0.47858
 H629 H 0.72292 0.87997 0.46773
 C630 C 0.70343 0.90231 0.47534
 H631 H 0.69555 0.90138 0.46209
 N632 N 0.72880 0.89112 0.49523
 C633 C 0.75897 0.84585 0.52548
 H634 H 0.77193 0.84512 0.51713
 C635 C 0.75626 0.83336 0.54075
 H636 H 0.76718 0.82300 0.54426
 C637 C 0.72874 0.86003 0.53096
 H638 H 0.71791 0.87022 0.52694
 C639 C 0.72545 0.84780 0.54635
 H640 H 0.71219 0.84874 0.55423
 Zn641 Zn 0.75005 0.87508 0.49984
 N642 N 0.74539 0.85899 0.52102
 C643 C 0.78126 0.88996 0.52117
 N644 N 0.77129 0.89109 0.50454
 C645 C 0.77577 0.90427 0.49101
 C646 C 0.79109 0.91670 0.49374
 C647 C 0.79669 0.90213 0.52447
 C648 C 0.74113 0.84601 0.47403
 C649 C 0.74385 0.83361 0.45868
 C650 C 0.77464 0.84810 0.45316
 C651 C 0.77135 0.86024 0.46861
 N652 N 0.75471 0.85913 0.47855
 H653 H 0.77721 0.87974 0.53196
 H654 H 0.76740 0.90507 0.47806
 H655 H 0.79461 0.92708 0.48285
 H656 H 0.80459 0.90112 0.53771
 H657 H 0.72817 0.84523 0.48237
 H658 H 0.73293 0.82327 0.45511
 H659 H 0.78789 0.84909 0.44527
 H660 H 0.78217 0.87040 0.47269
 C661 C 0.73936 0.83439 0.55130
 C662 C 0.69844 0.91566 0.48929
 C663 C 0.76074 0.83471 0.44813
 C664 C 0.80166 0.91558 0.51061
 C665 C 0.00882 0.22452 0.40407
 H666 H 0.02178 0.23287 0.40482
 C667 C 0.00611 0.20923 0.41655
 H668 H 0.01702 0.20572 0.42691
 C669 C -0.02140 0.21902 0.38987
 H670 H -0.03221 0.22305 0.37967
 C671 C -0.02468 0.20363 0.40209
 H672 H -0.03794 0.19574 0.40113
 N673 N -0.00475 0.22897 0.39093
 C674 C 0.02566 0.25904 0.34571
 H675 H 0.01731 0.27200 0.34493
 C676 C 0.04098 0.25629 0.33327
 H677 H 0.04452 0.26719 0.32290
 C678 C 0.03110 0.22884 0.35997
 H679 H 0.02704 0.21804 0.37016
 C680 C 0.04652 0.22552 0.34779
 H681 H 0.05440 0.21227 0.34878
 Zn682 Zn -0.00009 0.25018 0.37486
 N683 N 0.02116 0.24549 0.35886
 C684 C 0.02120 0.28139 0.38977
 N685 N 0.00455 0.27145 0.39084
 C686 C -0.00904 0.27595 0.40395
 C687 C -0.00634 0.29129 0.41637
 C688 C 0.02447 0.29683 0.40193
 C689 C -0.02580 0.24119 0.34571
 C690 C -0.04111 0.24386 0.33325
 C691 C -0.04671 0.27468 0.34765
 C692 C -0.03129 0.27143 0.35985
 N693 N -0.02133 0.25479 0.35881
 H694 H 0.03203 0.27732 0.37961
 H695 H -0.02200 0.26761 0.40471
 H696 H -0.01728 0.29484 0.42670
 H697 H 0.03772 0.30472 0.40096
 H698 H -0.01744 0.22823 0.34499
 H699 H -0.04463 0.23292 0.32293
 H700 H -0.05461 0.28792 0.34858
 H701 H -0.02725 0.28227 0.37000
 C702 C 0.05152 0.23940 0.33436
 C703 C -0.01078 0.19867 0.41551
 C704 C -0.05168 0.26074 0.33427
 C705 C 0.01055 0.30184 0.41531
 C706 C -0.00906 0.72427 0.09561
 H707 H -0.02202 0.73262 0.09484
 C708 C -0.00635 0.70893 0.08319
 H709 H -0.01727 0.70539 0.07284
 C710 C 0.02116 0.71881 0.10982
 H711 H 0.03198 0.72287 0.12000
 C712 C 0.02444 0.70337 0.09767
 H713 H 0.03769 0.69548 0.09865
 N714 N 0.00452 0.72877 0.10873
 C715 C -0.02587 0.75896 0.15388
 H716 H -0.01752 0.77192 0.15462
 C717 C -0.04118 0.75627 0.16632
 H718 H -0.04472 0.76719 0.17666
 C719 C -0.03133 0.72873 0.13970
 H720 H -0.02727 0.71790 0.12954
 C721 C -0.04675 0.72546 0.15189
 H722 H -0.05463 0.71221 0.15094
 Zn723 Zn -0.00014 0.75002 0.12473
 N724 N -0.02138 0.74538 0.14076
 C725 C -0.02145 0.78120 0.10975
 N726 N -0.00480 0.77125 0.10868
 C727 C 0.00877 0.77573 0.09555
 C728 C 0.00606 0.79103 0.08310
 C729 C -0.02474 0.79661 0.09755
 C730 C 0.02560 0.74114 0.15388
 C731 C 0.04092 0.74386 0.16632
 C732 C 0.04647 0.77464 0.15184
 C733 C 0.03105 0.77135 0.13966
 N734 N 0.02111 0.75470 0.14074
 H735 H -0.03227 0.77716 0.11993
 H736 H 0.02174 0.76738 0.09481
 H737 H 0.01698 0.79456 0.07275
 H738 H -0.03799 0.80450 0.09852
 H739 H 0.01725 0.72818 0.15465
 H740 H 0.04446 0.73294 0.17668
 H741 H 0.05436 0.78789 0.15086
 H742 H 0.02699 0.78216 0.12948
 C743 C -0.05174 0.73938 0.16528
 C744 C 0.01053 0.69837 0.08427
 C745 C 0.05147 0.76074 0.16525
 C746 C -0.01083 0.80159 0.08415
 C747 C 0.49111 0.22426 0.59605
 H748 H 0.47815 0.23261 0.59530
 C749 C 0.49381 0.20894 0.58362
 H750 H 0.48288 0.20540 0.57328
 C751 C 0.52134 0.21879 0.61024
 H752 H 0.53217 0.22285 0.62041
 C753 C 0.52462 0.20337 0.59806
 H754 H 0.53787 0.19548 0.59903
 N755 N 0.50469 0.22874 0.60917
 C756 C 0.47432 0.25889 0.65437
 H757 H 0.48268 0.27184 0.65512
 C758 C 0.45900 0.25619 0.66680
 H759 H 0.45546 0.26710 0.67715
 C760 C 0.46884 0.22868 0.64015
 H761 H 0.47289 0.21786 0.62997
 C762 C 0.45342 0.22540 0.65233
 H763 H 0.44552 0.21216 0.65136
 Zn764 Zn 0.50004 0.24998 0.62520
 N765 N 0.47880 0.24532 0.64123
 C766 C 0.47871 0.28115 0.61026
 N767 N 0.49537 0.27122 0.60919
 C768 C 0.50894 0.27572 0.59606
 C769 C 0.50621 0.29104 0.58362
 C770 C 0.47541 0.29657 0.59808
 C771 C 0.52579 0.24105 0.65434
 C772 C 0.54112 0.24375 0.66677
 C773 C 0.54667 0.27455 0.65233
 C774 C 0.53123 0.27128 0.64015
 N775 N 0.52129 0.25463 0.64122
 H776 H 0.46789 0.27709 0.62044
 H777 H 0.52190 0.26738 0.59530
 H778 H 0.51713 0.29458 0.57327
 H779 H 0.46214 0.30444 0.59905
 H780 H 0.51744 0.22809 0.65509
 H781 H 0.54466 0.23282 0.67710
 H782 H 0.55455 0.28780 0.65136
 H783 H 0.52717 0.28211 0.62998
 C784 C 0.44843 0.23931 0.66573
 C785 C 0.51070 0.19837 0.58467
 C786 C 0.55167 0.26064 0.66571
 C787 C 0.48931 0.30158 0.58468
 C788 C 0.50898 0.72412 0.90418
 H789 H 0.52194 0.73248 0.90490
 C790 C 0.50630 0.70881 0.91663
 H791 H 0.51725 0.70528 0.92695
 C792 C 0.47872 0.71865 0.89005
 H793 H 0.46787 0.72270 0.87990
 C794 C 0.47547 0.70323 0.90225
 H795 H 0.46222 0.69534 0.90131
 N796 N 0.49536 0.72860 0.89108
 C797 C 0.52561 0.75880 0.84584
 H798 H 0.51725 0.77175 0.84511
 C799 C 0.54090 0.75611 0.83335
 H800 H 0.54440 0.76703 0.82300
 C801 C 0.53114 0.72858 0.86002
 H802 H 0.52712 0.71775 0.87020
 C803 C 0.54653 0.72531 0.84778
 H804 H 0.55443 0.71206 0.84873
 Zn805 Zn 0.49997 0.74985 0.87505
 N806 N 0.52117 0.74522 0.85898
 C807 C 0.52127 0.78106 0.88996
 N808 N 0.50464 0.77109 0.89107
 C809 C 0.49109 0.77554 0.90423
 C810 C 0.49381 0.79085 0.91668
 C811 C 0.52456 0.79647 0.90215
 C812 C 0.47419 0.74092 0.84595
 C813 C 0.45884 0.74362 0.83354
 C814 C 0.45326 0.77439 0.84803
 C815 C 0.46871 0.77112 0.86018
 N816 N 0.47868 0.75449 0.85908
 H817 H 0.53207 0.77703 0.87975
 H818 H 0.47814 0.76718 0.90502
 H819 H 0.48291 0.79436 0.92706
 H820 H 0.53780 0.80438 0.90115
 H821 H 0.48255 0.72797 0.84518
 H822 H 0.45531 0.73270 0.82320
 H823 H 0.44536 0.78764 0.84902
 H824 H 0.47277 0.78194 0.87036
 C825 C 0.55147 0.73922 0.83438
 C826 C 0.48941 0.69825 0.91561
 C827 C 0.44827 0.76049 0.83463
 C828 C 0.51068 0.80143 0.91559
 C829 C 0.12410 0.23086 0.25624
 C830 C 0.12520 0.22487 0.27524
 C831 C 0.14173 0.21586 0.28186
 C832 C 0.15711 0.21283 0.26953
 C833 C 0.15617 0.21880 0.25039
 C834 C 0.13947 0.22786 0.24389
 C835 C 0.10937 0.22797 0.28794
 C836 C 0.09611 0.23058 0.29858
 C837 C 0.08060 0.23363 0.31103
 C838 C 0.06735 0.23626 0.32167
 H839 H 0.11134 0.23781 0.25095
 H840 H 0.14275 0.21121 0.29656
 H841 H 0.16983 0.20605 0.27506
 H842 H 0.13816 0.23239 0.22920
 C843 C 0.62397 0.73076 0.75614
 C844 C 0.62508 0.72480 0.77515
 C845 C 0.64162 0.71579 0.78177
 C846 C 0.65699 0.71274 0.76944
 C847 C 0.65603 0.71868 0.75029
 C848 C 0.63933 0.72774 0.74378
 C849 C 0.60926 0.72791 0.78786
 C850 C 0.59601 0.73051 0.79850
 C851 C 0.58050 0.73355 0.81098
 C852 C 0.56727 0.73614 0.82164
 H853 H 0.61121 0.73769 0.75085
 H854 H 0.64265 0.71117 0.79648
 H855 H 0.66971 0.70598 0.77497
 H856 H 0.63802 0.73224 0.72909
 C857 C 0.36744 0.79343 0.77278
 C858 C 0.37451 0.77498 0.77560
 C859 C 0.36616 0.75959 0.76604
 C860 C 0.35079 0.76262 0.75369
 C861 C 0.34355 0.78111 0.75075
 C862 C 0.35206 0.79649 0.76046
 C863 C 0.39034 0.77185 0.78829
 C864 C 0.40361 0.76924 0.79891
 C865 C 0.41914 0.76618 0.81134
 C866 C 0.43242 0.76359 0.82196
 H867 H 0.37384 0.80546 0.78007
 H868 H 0.37149 0.74524 0.76816
 H869 H 0.34441 0.75045 0.74667
 H870 H 0.34702 0.81092 0.75832
 C871 C -0.13729 0.29087 0.27765
 C872 C -0.12537 0.27513 0.27512
 C873 C -0.12886 0.26242 0.26020
 C874 C -0.14421 0.26539 0.24783
 C875 C -0.15653 0.28126 0.25008
 C876 C -0.15267 0.29394 0.26534
 C877 C -0.10954 0.27201 0.28782
 C878 C -0.09629 0.26942 0.29846
 C879 C -0.08077 0.26639 0.31092
 C880 C -0.06751 0.26381 0.32156
 H881 H -0.13469 0.30084 0.28917
 H882 H -0.11971 0.25013 0.25813
 H883 H -0.14621 0.25501 0.23667
 H884 H -0.16128 0.30641 0.26798
 C885 C -0.12806 0.73688 0.24019
 C886 C -0.12547 0.72506 0.22438
 C887 C -0.13830 0.71023 0.22096
 C888 C -0.15367 0.70716 0.23328
 C889 C -0.15662 0.71894 0.24943
 C890 C -0.14341 0.73391 0.25257
 C891 C -0.10964 0.72815 0.21168
 C892 C -0.09638 0.73072 0.20104
 C893 C -0.08084 0.73372 0.18860
 C894 C -0.06758 0.73629 0.17797
 H895 H -0.11818 0.74843 0.24299
 H896 H -0.13643 0.70099 0.20872
 H897 H -0.16313 0.69554 0.22980
 H898 H -0.14456 0.74344 0.26458
 C899 C 0.36187 0.21005 0.72138
 C900 C 0.37463 0.22495 0.72475
 C901 C 0.37196 0.23685 0.74048
 C902 C 0.35658 0.23390 0.75283
 C903 C 0.34342 0.21888 0.74974
 C904 C 0.34646 0.20701 0.73366
 C905 C 0.39049 0.22802 0.71207
 C906 C 0.40377 0.23060 0.70146
 C907 C 0.41932 0.23362 0.68904
 C908 C 0.43259 0.23621 0.67842
 H909 H 0.36380 0.20074 0.70919
 H910 H 0.38179 0.24844 0.74324
 H911 H 0.35536 0.24351 0.76477
 H912 H 0.33706 0.19533 0.73023
 C913 C 0.62899 0.26229 0.73961
 C914 C 0.62547 0.27502 0.72472
 C915 C 0.63738 0.29077 0.72220
 C916 C 0.65278 0.29382 0.73448
 C917 C 0.65668 0.28111 0.74971
 C918 C 0.64436 0.26524 0.75196
 C919 C 0.60962 0.27193 0.71204
 C920 C 0.59634 0.26934 0.70142
 C921 C 0.58080 0.26630 0.68900
 C922 C 0.56752 0.26372 0.67839
 H923 H 0.61984 0.25000 0.74168
 H924 H 0.63476 0.30076 0.71070
 H925 H 0.66139 0.30629 0.73184
 H926 H 0.64639 0.25484 0.76310
 C927 C 0.13352 0.75982 0.23388
 C928 C 0.12521 0.77523 0.22430
 C929 C 0.13234 0.79366 0.22710
 C930 C 0.14772 0.79668 0.23942
 C931 C 0.15618 0.78129 0.24915
 C932 C 0.14889 0.76281 0.24623
 C933 C 0.10937 0.77213 0.21161
 C934 C 0.09610 0.76952 0.20099
 C935 C 0.08057 0.76647 0.18856
 C936 C 0.06730 0.76386 0.17794
 H937 H 0.12815 0.74548 0.23178
 H938 H 0.12597 0.80570 0.21979
 H939 H 0.15280 0.81110 0.24154
 H940 H 0.15523 0.75063 0.25327
 C941 C 0.26586 0.13344 0.24011
 C942 C 0.27544 0.12511 0.22471
 C943 C 0.27263 0.13222 0.20628
 C944 C 0.26029 0.14759 0.20324
 C945 C 0.25057 0.15607 0.21862
 C946 C 0.25350 0.14880 0.23710
 C947 C 0.28814 0.10929 0.22783
 C948 C 0.29878 0.09603 0.23044
 C949 C 0.31122 0.08051 0.23352
 C950 C 0.32185 0.06725 0.23615
 H951 H 0.26797 0.12809 0.25445
 H952 H 0.27993 0.12584 0.19424
 H953 H 0.25817 0.15266 0.18882
 H954 H 0.24646 0.15515 0.24927
 C955 C 0.76565 0.63326 0.74009
 C956 C 0.77525 0.62493 0.72470
 C957 C 0.77247 0.63204 0.70627
 C958 C 0.76015 0.64743 0.70321
 C959 C 0.75042 0.65591 0.71859
 C960 C 0.75332 0.64863 0.73707
 C961 C 0.78793 0.60909 0.72783
 C962 C 0.79856 0.59583 0.73045
 C963 C 0.81100 0.58030 0.73354
 C964 C 0.82163 0.56705 0.73618
 H965 H 0.76775 0.62790 0.75443
 H966 H 0.77978 0.62566 0.69424
 H967 H 0.75805 0.65249 0.68880
 H968 H 0.74627 0.65499 0.74924
 C969 C 0.77781 0.36229 0.79057
 C970 C 0.77516 0.37430 0.77492
 C971 C 0.76016 0.37087 0.76229
 C972 C 0.74782 0.35550 0.76525
 C973 C 0.75019 0.34309 0.78103
 C974 C 0.76553 0.34689 0.79363
 C975 C 0.78784 0.39015 0.77182
 C976 C 0.79847 0.40342 0.76925
 C977 C 0.81092 0.41895 0.76625
 C978 C 0.82156 0.43221 0.76369
 H979 H 0.78940 0.36483 0.80047
 H980 H 0.75799 0.38010 0.75008
 H981 H 0.73657 0.35357 0.75495
 H982 H 0.76828 0.33820 0.80601
 C983 C 0.25982 -0.12846 0.26267
 C984 C 0.27521 -0.12544 0.27493
 C985 C 0.27823 -0.13784 0.29021
 C986 C 0.26593 -0.15323 0.29326
 C987 C 0.25019 -0.15662 0.28103
 C988 C 0.24745 -0.14381 0.26563
 C989 C 0.28791 -0.10961 0.27184
 C990 C 0.29855 -0.09635 0.26926
 C991 C 0.31102 -0.08083 0.26625
 C992 C 0.32167 -0.06758 0.26369
 H993 H 0.25735 -0.11891 0.25077
 H994 H 0.29014 -0.13562 0.29981
 H995 H 0.26903 -0.16228 0.30529
 H996 H 0.23584 -0.14536 0.25567
 C997 C 0.22203 -0.13736 0.70940
 C998 C 0.22484 -0.12521 0.72491
 C999 C 0.23996 -0.12854 0.73742
 C1000 C 0.25227 -0.14395 0.73448
 C1001 C 0.24973 -0.15649 0.71884
 C1002 C 0.23427 -0.15280 0.70636
 C1003 C 0.21219 -0.10933 0.72800
 C1004 C 0.20160 -0.09604 0.73059
 C1005 C 0.18919 -0.08048 0.73363
 C1006 C 0.17858 -0.06720 0.73623
 H1007 H 0.21033 -0.13490 0.69960
 H1008 H 0.24226 -0.11920 0.74952
 H1009 H 0.26364 -0.14577 0.74467
 H1010 H 0.23137 -0.16162 0.69410
 C1011 C 0.71799 0.35814 0.21590
 C1012 C 0.72460 0.37467 0.22493
 C1013 C 0.74360 0.37577 0.23093
 C1014 C 0.75597 0.36042 0.22792
 C1015 C 0.74948 0.34373 0.21883
 C1016 C 0.73034 0.34278 0.21286
 C1017 C 0.71188 0.39049 0.22803
 C1018 C 0.70124 0.40374 0.23063
 C1019 C 0.68879 0.41927 0.23367
 C1020 C 0.67816 0.43253 0.23628
 H1021 H 0.70329 0.35712 0.21125
 H1022 H 0.74888 0.38852 0.23788
 H1023 H 0.77066 0.36172 0.23245
 H1024 H 0.72482 0.33007 0.20607
 C1025 C 0.72767 0.63236 0.29340
 C1026 C 0.72485 0.62522 0.27499
 C1027 C 0.73441 0.63352 0.25956
 C1028 C 0.74674 0.64891 0.26253
 C1029 C 0.74967 0.65622 0.28099
 C1030 C 0.73998 0.64775 0.29640
 C1031 C 0.71216 0.60938 0.27191
 C1032 C 0.70152 0.59612 0.26934
 C1033 C 0.68905 0.58060 0.26634
 C1034 C 0.67840 0.56735 0.26378
 H1035 H 0.72038 0.62599 0.30545
 H1036 H 0.73229 0.62814 0.24523
 H1037 H 0.75377 0.65525 0.25034
 H1038 H 0.74211 0.65285 0.31081
 C1039 C 0.22231 0.13767 0.79063
 C1040 C 0.22511 0.12552 0.77512
 C1041 C 0.24025 0.12881 0.76263
 C1042 C 0.25259 0.14419 0.76558
 C1043 C 0.25007 0.15675 0.78122
 C1044 C 0.23458 0.15309 0.79369
 C1045 C 0.21243 0.10968 0.77201
 C1046 C 0.20180 0.09642 0.76941
 C1047 C 0.18935 0.08090 0.76638
 C1048 C 0.17870 0.06764 0.76378
 H1049 H 0.21060 0.13524 0.80042
 H1050 H 0.24255 0.11947 0.75053
 H1051 H 0.26398 0.14600 0.75541
 H1052 H 0.23169 0.16191 0.80594
 C1053 C 0.20645 0.27253 0.13208
 C1054 C 0.22488 0.27533 0.12496
 C1055 C 0.24029 0.26575 0.13328
 C1056 C 0.23730 0.25340 0.14865
 C1057 C 0.21881 0.25049 0.15593
 C1058 C 0.20342 0.26020 0.14746
 C1059 C 0.22799 0.28805 0.10915
 C1060 C 0.23058 0.29870 0.09590
 C1061 C 0.23360 0.31118 0.08040
 C1062 C 0.23618 0.32184 0.06717
 H1063 H 0.19441 0.27983 0.12571
 H1064 H 0.25464 0.26786 0.12791
 H1065 H 0.24948 0.24636 0.15499
 H1066 H 0.18900 0.25809 0.15253
 C1067 C 0.71584 0.78181 0.64142
 C1068 C 0.72485 0.77518 0.62490
 C1069 C 0.73082 0.75617 0.62381
 C1070 C 0.72780 0.74382 0.63918
 C1071 C 0.71874 0.75034 0.65587
 C1072 C 0.71279 0.76949 0.65680
 C1073 C 0.72798 0.78788 0.60908
 C1074 C 0.73059 0.79852 0.59583
 C1075 C 0.73365 0.81099 0.58033
 C1076 C 0.73626 0.82165 0.56710
 H1077 H 0.71121 0.79652 0.64244
 H1078 H 0.73776 0.75087 0.61106
 H1079 H 0.73232 0.72913 0.63788
 H1080 H 0.70602 0.77503 0.66951
 C1081 C 0.79363 0.77295 0.36721
 C1082 C 0.77520 0.77572 0.37436
 C1083 C 0.75980 0.76610 0.36608
 C1084 C 0.76280 0.75374 0.35072
 C1085 C 0.78128 0.75085 0.34341
 C1086 C 0.79667 0.76062 0.35184
 C1087 C 0.77210 0.78841 0.39019
 C1088 C 0.76950 0.79903 0.40345
 C1089 C 0.76644 0.81145 0.41899
 C1090 C 0.76384 0.82206 0.43227
 H1091 H 0.80567 0.78029 0.37355
 H1092 H 0.74547 0.76818 0.37147
 H1093 H 0.75063 0.74666 0.34442
 H1094 H 0.81108 0.75852 0.34674
 C1095 C 0.25957 0.26612 -0.13384
 C1096 C 0.27495 0.27572 -0.12551
 C1097 C 0.29340 0.27294 -0.13260
 C1098 C 0.29647 0.26061 -0.14796
 C1099 C 0.28110 0.25086 -0.15644
 C1100 C 0.26260 0.25377 -0.14919
 C1101 C 0.27181 0.28842 -0.10969
 C1102 C 0.26919 0.29905 -0.09643
 C1103 C 0.26612 0.31149 -0.08091
 C1104 C 0.26352 0.32211 -0.06765
 H1105 H 0.24521 0.26821 -0.12849
 H1106 H 0.30542 0.28026 -0.12622
 H1107 H 0.31090 0.25850 -0.15301
 H1108 H 0.25044 0.24670 -0.15554
 C1109 C 0.71604 0.21769 -0.14199
 C1110 C 0.72509 0.22431 -0.12548
 C1111 C 0.73109 0.24331 -0.12440
 C1112 C 0.72807 0.25566 -0.13976
 C1113 C 0.71897 0.24916 -0.15644
 C1114 C 0.71299 0.23002 -0.15737
 C1115 C 0.72820 0.21161 -0.10966
 C1116 C 0.73082 0.20098 -0.09640
 C1117 C 0.73388 0.18855 -0.08087
 C1118 C 0.73651 0.17794 -0.06760
 H1119 H 0.71138 0.20299 -0.14300
 H1120 H 0.73806 0.24860 -0.11166
 H1121 H 0.73261 0.27035 -0.13847
 H1122 H 0.70619 0.22449 -0.17006
 C1123 C 0.23083 0.74375 0.37570
 C1124 C 0.22483 0.72475 0.37464
 C1125 C 0.21583 0.71811 0.35811
 C1126 C 0.21282 0.73041 0.34271
 C1127 C 0.21880 0.74956 0.34363
 C1128 C 0.22785 0.75608 0.36032
 C1129 C 0.22789 0.71208 0.39049
 C1130 C 0.23045 0.70146 0.40377
 C1131 C 0.23344 0.68902 0.41930
 C1132 C 0.23601 0.67839 0.43257
 H1133 H 0.23776 0.74906 0.38845
 H1134 H 0.21118 0.70341 0.35711
 H1135 H 0.20606 0.72487 0.33000
 H1136 H 0.23239 0.77077 0.36160
 C1137 C 0.26874 0.74374 0.62425
 C1138 C 0.27467 0.72472 0.62534
 C1139 C 0.28365 0.71805 0.64187
 C1140 C 0.28671 0.73036 0.65726
 C1141 C 0.28080 0.74952 0.65633
 C1142 C 0.27177 0.75607 0.63963
 C1143 C 0.27155 0.71204 0.60950
 C1144 C 0.26895 0.70142 0.59623
 C1145 C 0.26591 0.68899 0.58070
 C1146 C 0.26332 0.67836 0.56744
 H1147 H 0.26183 0.74907 0.61150
 H1148 H 0.28825 0.70333 0.64288
 H1149 H 0.29345 0.72479 0.66997
 H1150 H 0.26728 0.77078 0.63834
 C1151 C 0.78444 0.21802 0.14157
 C1152 C 0.77541 0.22463 0.12504
 C1153 C 0.76941 0.24363 0.12395
 C1154 C 0.77239 0.25598 0.13932
 C1155 C 0.78146 0.24948 0.15601
 C1156 C 0.78746 0.23034 0.15694
 C1157 C 0.77231 0.21193 0.10922
 C1158 C 0.76971 0.20129 0.09597
 C1159 C 0.76669 0.18883 0.08046
 C1160 C 0.76411 0.17818 0.06721
 H1161 H 0.78910 0.20331 0.14258
 H1162 H 0.76245 0.24892 0.11120
 H1163 H 0.76785 0.27067 0.13802
 H1164 H 0.79424 0.22481 0.16966
 C1165 C 0.46579 0.39181 0.53224
 C1166 C 0.47483 0.37530 0.52561
 C1167 C 0.48085 0.37424 0.50662
 C1168 C 0.47785 0.38962 0.49429
 C1169 C 0.46876 0.40630 0.50079
 C1170 C 0.46276 0.40720 0.51993
 C1171 C 0.47793 0.35946 0.53830
 C1172 C 0.48053 0.34619 0.54892
 C1173 C 0.48357 0.33066 0.56136
 C1174 C 0.48618 0.31740 0.57199
 H1175 H 0.46113 0.39281 0.54694
 H1176 H 0.48782 0.36150 0.50132
 H1177 H 0.48240 0.38834 0.47960
 H1178 H 0.45596 0.41990 0.52547
 C1179 C -0.01322 0.87805 0.00939
 C1180 C -0.02518 0.87533 0.02506
 C1181 C -0.04013 0.88805 0.02838
 C1182 C -0.04315 0.90347 0.01610
 C1183 C -0.03120 0.90656 0.00009
 C1184 C -0.01614 0.89343 -0.00295
 C1185 C -0.02212 0.85948 0.03775
 C1186 C -0.01954 0.84621 0.04837
 C1187 C -0.01652 0.83068 0.06082
 C1188 C -0.01393 0.81742 0.07145
 H1189 H -0.00158 0.86824 0.00668
 H1190 H -0.04950 0.88608 0.04052
 H1191 H -0.05487 0.91283 0.01949
 H1192 H -0.00646 0.89470 -0.01483
 C1193 C 0.01255 0.62132 0.01013
 C1194 C 0.02496 0.62451 0.02536
 C1195 C 0.04039 0.61226 0.02826
 C1196 C 0.04343 0.59684 0.01599
 C1197 C 0.03105 0.59328 0.00042
 C1198 C 0.01550 0.60594 -0.00220
 C1199 C 0.02187 0.64037 0.03803
 C1200 C 0.01927 0.65366 0.04863
 C1201 C 0.01622 0.66921 0.06103
 C1202 C 0.01363 0.68250 0.07162
 H1203 H 0.00054 0.63075 0.00776
 H1204 H 0.05011 0.61462 0.04003
 H1205 H 0.05560 0.58792 0.01897
 H1206 H 0.00541 0.60424 -0.01367
 C1207 C 0.50969 0.11626 0.51613
 C1208 C 0.52511 0.12458 0.52569
 C1209 C 0.54354 0.11746 0.52288
 C1210 C 0.54657 0.10207 0.51057
 C1211 C 0.53117 0.09359 0.50086
 C1212 C 0.51269 0.10088 0.50379
 C1213 C 0.52200 0.14043 0.53836
 C1214 C 0.51940 0.15370 0.54897
 C1215 C 0.51637 0.16925 0.56139
 C1216 C 0.51378 0.18253 0.57200
 H1217 H 0.49535 0.12162 0.51824
 H1218 H 0.55559 0.12384 0.53017
 H1219 H 0.56099 0.09700 0.50845
 H1220 H 0.50050 0.09453 0.49677
 C1221 C -0.00978 0.11681 0.48436
 C1222 C -0.02520 0.12510 0.47477
 C1223 C -0.04362 0.11796 0.47758
 C1224 C -0.04663 0.10258 0.48992
 C1225 C -0.03123 0.09413 0.49963
 C1226 C -0.01275 0.10144 0.49671
 C1227 C -0.02212 0.14092 0.46205
 C1228 C -0.01953 0.15416 0.45140
 C1229 C -0.01650 0.16965 0.43891
 C1230 C -0.01390 0.18288 0.42825
 H1231 H 0.00456 0.12219 0.48224
 H1232 H -0.05568 0.12431 0.47028
 H1233 H -0.06104 0.09749 0.49204
 H1234 H -0.00056 0.09512 0.50375
 C1235 C 0.45982 0.61211 0.97165
 C1236 C 0.47498 0.62463 0.97481
 C1237 C 0.48708 0.62174 0.99035
 C1238 C 0.48408 0.60640 1.00272
 C1239 C 0.46880 0.59348 0.99984
 C1240 C 0.45673 0.59674 0.98396
 C1241 C 0.47811 0.64044 0.96209
 C1242 C 0.48072 0.65368 0.95144
 C1243 C 0.48376 0.66919 0.93898
 C1244 C 0.48634 0.68243 0.92833
 H1245 H 0.45034 0.61422 0.95963
 H1246 H 0.49888 0.63138 0.99293
 H1247 H 0.49390 0.60496 1.01447
 H1248 H 0.44481 0.58757 0.98073
 C1249 C 0.51927 0.87392 0.99378
 C1250 C 0.52524 0.87503 0.97477
 C1251 C 0.53427 0.89154 0.96815
 C1252 C 0.53734 0.90691 0.98048
 C1253 C 0.53139 0.90596 0.99963
 C1254 C 0.52231 0.88928 1.00613
 C1255 C 0.52209 0.85922 0.96206
 C1256 C 0.51946 0.84598 0.95141
 C1257 C 0.51640 0.83048 0.93894
 C1258 C 0.51379 0.81725 0.92829
 H1259 H 0.51231 0.86118 0.99907
 H1260 H 0.53889 0.89257 0.95344
 H1261 H 0.54412 0.91961 0.97495
 H1262 H 0.51780 0.88798 1.02083
 C1263 C 0.04342 0.38266 0.47719
 C1264 C 0.02499 0.37550 0.47444
 C1265 C 0.00960 0.38376 0.48410
 C1266 C 0.01261 0.39911 0.49647
 C1267 C 0.03109 0.40642 0.49934
 C1268 C 0.04646 0.39801 0.48954
 C1269 C 0.02187 0.35969 0.46173
 C1270 C 0.01927 0.34645 0.45108
 C1271 C 0.01623 0.33093 0.43863
 C1272 C 0.01364 0.31768 0.42799
 H1273 H 0.05545 0.37633 0.46983
 H1274 H -0.00474 0.37837 0.48204
 H1275 H 0.00044 0.40540 0.50357
 H1276 H 0.06088 0.40311 0.49162
 C1277 C 0.38215 0.52271 0.45666
 C1278 C 0.37499 0.52548 0.47508
 C1279 C 0.38330 0.51590 0.49049
 C1280 C 0.39870 0.50358 0.48751
 C1281 C 0.40602 0.50069 0.46904
 C1282 C 0.39756 0.51041 0.45364
 C1283 C 0.35913 0.53815 0.47817
 C1284 C 0.34586 0.54877 0.48075
 C1285 C 0.33032 0.56122 0.48377
 C1286 C 0.31706 0.57185 0.48635
 H1287 H 0.37579 0.53001 0.44462
 H1288 H 0.37791 0.51799 0.50482
 H1289 H 0.40504 0.49654 0.49969
 H1290 H 0.40266 0.50831 0.43924
 C1291 C 0.88782 0.02785 -0.04073
 C1292 C 0.87574 0.02515 -0.02514
 C1293 C 0.87909 0.01008 -0.01258
 C1294 C 0.89445 -0.00229 -0.01554
 C1295 C 0.90693 0.00014 -0.03125
 C1296 C 0.90322 0.01555 -0.04379
 C1297 C 0.85990 0.03784 -0.02205
 C1298 C 0.84664 0.04848 -0.01946
 C1299 C 0.83111 0.06093 -0.01643
 C1300 C 0.81786 0.07157 -0.01384
 H1301 H 0.88535 0.03950 -0.05058
 H1302 H 0.86980 0.00786 -0.00042
 H1303 H 0.89631 -0.01360 -0.00529
 H1304 H 0.91197 0.01835 -0.05611
 C1305 C 0.62622 0.00618 0.01922
 C1306 C 0.62513 0.02519 0.02519
 C1307 C 0.60860 0.03182 0.03421
 C1308 C 0.59322 0.01950 0.03727
 C1309 C 0.59416 0.00034 0.03132
 C1310 C 0.61085 -0.00617 0.02225
 C1311 C 0.64095 0.03789 0.02205
 C1312 C 0.65421 0.04851 0.01942
 C1313 C 0.66974 0.06095 0.01635
 C1314 C 0.68300 0.07157 0.01374
 H1315 H 0.63896 0.00088 0.01227
 H1316 H 0.60759 0.04653 0.03884
 H1317 H 0.58051 0.02503 0.04405
 H1318 H 0.61214 -0.02086 0.01773
 C1319 C 0.12137 0.51002 0.51289
 C1320 C 0.12430 0.52551 0.52505
 C1321 C 0.11183 0.52860 0.54025
 C1322 C 0.09646 0.51627 0.54333
 C1323 C 0.09316 0.50044 0.53120
 C1324 C 0.10604 0.49763 0.51587
 C1325 C 0.14012 0.53822 0.52193
 C1326 C 0.15337 0.54886 0.51932
 C1327 C 0.16889 0.56131 0.51628
 C1328 C 0.18216 0.57194 0.51368
 H1329 H 0.13098 0.50749 0.50105
 H1330 H 0.11397 0.54058 0.54977
 H1331 H 0.08732 0.51945 0.55528
 H1332 H 0.10458 0.48593 0.50601
 C1333 C 0.11233 0.47221 -0.04046
 C1334 C 0.12433 0.47484 -0.02480
 C1335 C 0.12087 0.48981 -0.01215
 C1336 C 0.10548 0.50214 -0.01510
 C1337 C 0.09309 0.49979 -0.03089
 C1338 C 0.09691 0.48448 -0.04351
 C1339 C 0.14020 0.46218 -0.02172
 C1340 C 0.15348 0.45156 -0.01916
 C1341 C 0.16903 0.43912 -0.01618
 C1342 C 0.18231 0.42849 -0.01364
 H1343 H 0.11490 0.46064 -0.05038
 H1344 H 0.13009 0.49197 0.00007
 H1345 H 0.10352 0.51337 -0.00477
 H1346 H 0.08824 0.48174 -0.05591
 C1347 C 0.61253 0.97198 0.45947
 C1348 C 0.62463 0.97471 0.47504
 C1349 C 0.62128 0.98977 0.48761
 C1350 C 0.60589 1.00210 0.48467
 C1351 C 0.59338 0.99966 0.46898
 C1352 C 0.59710 0.98425 0.45644
 C1353 C 0.64050 0.96204 0.47811
 C1354 C 0.65378 0.95142 0.48067
 C1355 C 0.66933 0.93899 0.48367
 C1356 C 0.68260 0.92836 0.48623
 H1357 H 0.61501 0.96034 0.44962
 H1358 H 0.63058 0.99200 0.49975
 H1359 H 0.60403 1.01342 0.49491
 H1360 H 0.58833 0.98143 0.44413
 C1361 C 0.88241 0.97751 0.54363
 C1362 C 0.87533 0.97470 0.52519
 C1363 C 0.88366 0.98430 0.50980
 C1364 C 0.89900 0.99668 0.51283
 C1365 C 0.90625 0.99961 0.53132
 C1366 C 0.89776 0.98987 0.54669
 C1367 C 0.85952 0.96199 0.52205
 C1368 C 0.84627 0.95134 0.51943
 C1369 C 0.83076 0.93889 0.51635
 C1370 C 0.81750 0.92826 0.51373
 H1371 H 0.87603 0.97020 0.55565
 H1372 H 0.87832 0.98219 0.49545
 H1373 H 0.90535 1.00373 0.50067
 H1374 H 0.90281 0.99199 0.56112
 C1375 C 0.38222 0.47765 0.04342
 C1376 C 0.37512 0.47488 0.02498
 C1377 C 0.38346 0.48447 0.00960
 C1378 C 0.39884 0.49680 0.01263
 C1379 C 0.40610 0.49969 0.03112
 C1380 C 0.39760 0.48996 0.04649
 C1381 C 0.35928 0.46219 0.02185
 C1382 C 0.34602 0.45157 0.01923
 C1383 C 0.33049 0.43913 0.01618
 C1384 C 0.31723 0.42850 0.01358
 H1385 H 0.37583 0.47033 0.05544
 H1386 H 0.37811 0.48238 -0.00474
 H1387 H 0.40520 0.50385 0.00047
 H1388 H 0.40266 0.49205 0.06091
 C1389 C 0.50638 0.48106 0.37438
 C1390 C 0.52539 0.47509 0.37547
 C1391 C 0.53203 0.46611 0.39201
 C1392 C 0.51971 0.46310 0.40740
 C1393 C 0.50056 0.46905 0.40646
 C1394 C 0.49404 0.47808 0.38975
 C1395 C 0.53808 0.47815 0.35962
 C1396 C 0.54871 0.48071 0.34636
 C1397 C 0.56117 0.48373 0.33084
 C1398 C 0.57180 0.48631 0.31758
 H1399 H 0.50107 0.48798 0.36162
 H1400 H 0.54674 0.46148 0.39303
 H1401 H 0.52526 0.45635 0.42012
 H1402 H 0.47934 0.48260 0.38845
 C1403 C 0.01626 -0.00961 0.88374
 C1404 C 0.02584 -0.02501 0.87541
 C1405 C 0.02302 -0.04345 0.88249
 C1406 C 0.01067 -0.04650 0.89785
 C1407 C 0.00095 -0.03112 0.90634
 C1408 C 0.00390 -0.01263 0.89909
 C1409 C 0.03855 -0.02189 0.85959
 C1410 C 0.04919 -0.01928 0.84634
 C1411 C 0.06163 -0.01621 0.83082
 C1412 C 0.07225 -0.01359 0.81756
 H1413 H 0.01839 0.00474 0.87840
 H1414 H 0.03032 -0.05549 0.87611
 H1415 H 0.00854 -0.06092 0.90290
 H1416 H -0.00314 -0.00045 0.90544
 C1417 C 0.02266 0.04383 0.61790
 C1418 C 0.02548 0.02539 0.62500
 C1419 C 0.01590 0.00999 0.61668
 C1420 C 0.00354 0.01300 0.60132
 C1421 C 0.00060 0.03148 0.59405
 C1422 C 0.01032 0.04687 0.60253
 C1423 C 0.03820 0.02227 0.64081
 C1424 C 0.04885 0.01967 0.65405
 C1425 C 0.06133 0.01663 0.66955
 C1426 C 0.07200 0.01404 0.68278
 H1427 H 0.02996 0.05586 0.62428
 H1428 H 0.01802 -0.00435 0.62203
 H1429 H -0.00350 0.00082 0.59497
 H1430 H 0.00818 0.06129 0.59748
 C1431 C 0.51578 0.50984 0.11653
 C1432 C 0.52539 0.52523 0.12483
 C1433 C 0.52262 0.54366 0.11769
 C1434 C 0.51030 0.54671 0.10231
 C1435 C 0.50055 0.53133 0.09385
 C1436 C 0.50344 0.51285 0.10115
 C1437 C 0.53808 0.52211 0.14066
 C1438 C 0.54870 0.51951 0.15393
 C1439 C 0.56114 0.51646 0.16946
 C1440 C 0.57176 0.51386 0.18272
 H1441 H 0.51786 0.49550 0.12191
 H1442 H 0.52995 0.55569 0.12405
 H1443 H 0.50821 0.56112 0.09722
 H1444 H 0.49637 0.50068 0.09483
 C1445 C 0.46826 -0.03430 0.10849
 C1446 C 0.47489 -0.02528 0.12501
 C1447 C 0.49389 -0.01929 0.12610
 C1448 C 0.50624 -0.02228 0.11073
 C1449 C 0.49973 -0.03135 0.09404
 C1450 C 0.48058 -0.03733 0.09311
 C1451 C 0.46219 -0.02219 0.14084
 C1452 C 0.45154 -0.01961 0.15409
 C1453 C 0.43908 -0.01658 0.16960
 C1454 C 0.42842 -0.01399 0.18284
 H1455 H 0.45356 -0.03895 0.10748
 H1456 H 0.49919 -0.01234 0.13884
 H1457 H 0.52093 -0.01774 0.11202
 H1458 H 0.47505 -0.04410 0.08040
 C1459 C 0.99375 0.48084 0.62608
 C1460 C 0.97474 0.47483 0.62503
 C1461 C 0.96809 0.46583 0.60851
 C1462 C 0.98038 0.46283 0.59310
 C1463 C 0.99953 0.46882 0.59399
 C1464 C 1.00606 0.47787 0.61068
 C1465 C 0.96207 0.47790 0.64089
 C1466 C 0.95144 0.48046 0.65415
 C1467 C 0.93899 0.48345 0.66968
 C1468 C 0.92834 0.48601 0.68293
 H1469 H 0.99906 0.48777 0.63883
 H1470 H 0.95339 0.46117 0.60752
 H1471 H 0.97482 0.45607 0.58040
 H1472 H 1.02076 0.48241 0.61195
 C1473 C 0.96761 0.53386 0.89217
 C1474 C 0.97424 0.52482 0.87566
 C1475 C 0.99325 0.51883 0.87458
 C1476 C 1.00560 0.52185 0.88994
 C1477 C 0.99909 0.53094 0.90662
 C1478 C 0.97994 0.53691 0.90754
 C1479 C 0.96154 0.52170 0.85983
 C1480 C 0.95092 0.51908 0.84657
 C1481 C 0.93849 0.51602 0.83104
 C1482 C 0.92788 0.51342 0.81777
 H1483 H 0.95290 0.53850 0.89318
 H1484 H 0.99854 0.51187 0.86184
 H1485 H 1.02029 0.51732 0.88865
 H1486 H 0.97441 0.54370 0.92024
 C1487 C 0.49358 0.01880 0.37443
 C1488 C 0.47456 0.02475 0.37553
 C1489 C 0.46792 0.03375 0.39206
 C1490 C 0.48024 0.03680 0.40743
 C1491 C 0.49940 0.03086 0.40649
 C1492 C 0.50592 0.02182 0.38980
 C1493 C 0.46186 0.02164 0.35970
 C1494 C 0.45123 0.01905 0.34644
 C1495 C 0.43878 0.01602 0.33092
 C1496 C 0.42815 0.01344 0.31765
 H1497 H 0.49888 0.01187 0.36168
 H1498 H 0.45320 0.03837 0.39308
 H1499 H 0.47470 0.04356 0.42015
 H1500 H 0.52063 0.01731 0.38850
   
