data_POSCAR
  _audit_creation_date              2014-09-24
  _audit_creation_method            'ToBaCCo'
  _symmetry_space_group_name_H-M    'P1'
  _symmetry_Int_Tables_number       1
  _symmetry_cell_setting            triclinic
  loop_
  _symmetry_equiv_pos_as_xyz
 x,y,z
_cell_length_a 62.0829
_cell_length_b 62.0829
_cell_length_c 62.0829
_cell_angle_alpha 90.000000
_cell_angle_beta 90.000000
_cell_angle_gamma 90.000000
loop_
  _atom_site_label
  _atom_site_type_symbol
  _atom_site_fract_x
  _atom_site_fract_y
  _atom_site_fract_z
C1 C 0.19347 0.21541 0.22107
 N2 N 0.20735 0.19802 0.22513
 C3 C 0.22478 0.19343 0.21159
 N4 N 0.22751 0.20671 0.19391
 C5 C 0.21454 0.22402 0.18887
 N6 N 0.19766 0.22810 0.20287
 C7 C 0.68944 0.71143 0.72697
 N8 N 0.70224 0.69339 0.72965
 C9 C 0.71967 0.68860 0.71615
 N10 N 0.72393 0.70286 0.69913
 C11 C 0.71132 0.72122 0.69573
 N12 N 0.69460 0.72475 0.71001
 C13 C 0.31031 0.78573 0.72539
 N14 N 0.30582 0.77396 0.70709
 C15 C 0.28866 0.77793 0.69347
 N16 N 0.27524 0.79527 0.69864
 C17 C 0.27896 0.80807 0.71686
 N18 N 0.29663 0.80273 0.72982
 C19 C 0.81250 0.28432 0.22248
 N20 N 0.80857 0.27070 0.20528
 C21 C 0.79164 0.27254 0.19113
 N22 N 0.77771 0.28951 0.19462
 C23 C 0.78024 0.30421 0.21151
 N24 N 0.79787 0.30126 0.22546
 C25 C 0.81180 0.71369 0.27767
 N26 N 0.79721 0.69671 0.27481
 C27 C 0.77978 0.69366 0.28896
 N28 N 0.77740 0.70827 0.30595
 C29 C 0.79132 0.72527 0.30931
 N30 N 0.80805 0.72722 0.29495
 C31 C 0.30584 0.21155 -0.22657
 N32 N 0.30160 0.22468 -0.20872
 C33 C 0.28418 0.22046 -0.19483
 N34 N 0.27123 0.20253 -0.19940
 C35 C 0.27490 0.18903 -0.21675
 N36 N 0.29216 0.19426 -0.22962
 C37 C 0.69097 0.29066 -0.22585
 N38 N 0.69196 0.27586 -0.20910
 C39 C 0.70830 0.27595 -0.19368
 N40 N 0.72394 0.29181 -0.19553
 C41 C 0.72378 0.30734 -0.21178
 N42 N 0.70712 0.30625 -0.22663
 C43 C 0.18889 0.79091 0.27506
 N44 N 0.20346 0.80747 0.27296
 C45 C 0.22086 0.81102 0.28641
 N46 N 0.22352 0.79657 0.30351
 C47 C 0.20915 0.77938 0.30678
 N48 N 0.19208 0.77709 0.29222
 C49 C 0.46498 0.44632 0.47107
 N50 N 0.47804 0.45049 0.45318
 C51 C 0.47428 0.46734 0.43911
 N52 N 0.45689 0.48034 0.44373
 C53 C 0.44323 0.47763 0.46111
 N54 N 0.44750 0.46020 0.47476
 C55 C -0.04268 -0.05777 0.97195
 N56 N -0.05926 -0.04254 0.97382
 C57 C -0.06209 -0.02578 0.95942
 N58 N -0.04756 -0.02471 0.94269
 C59 C -0.03080 -0.03895 0.93942
 N60 N -0.02853 -0.05565 0.95440
 C61 C 1.03504 0.56011 0.96937
 N62 N 1.02221 0.55434 0.95222
 C63 C 1.02571 0.53677 0.93904
 N64 N 1.04374 0.52402 0.94360
 C65 C 1.05763 0.52894 0.96079
 N66 N 1.05265 0.54706 0.97330
 C67 C 0.53867 0.05864 0.47798
 N68 N 0.55597 0.04504 0.48143
 C69 C 0.56123 0.02762 0.46868
 N70 N 0.54793 0.02387 0.45120
 C71 C 0.53010 0.03681 0.44632
 N72 N 0.52572 0.05424 0.46007
 C73 C -0.03764 0.05565 0.52625
 N74 N -0.02475 0.05127 0.54422
 C75 C -0.02939 0.03404 0.55814
 N76 N -0.04739 0.02133 0.55337
 C77 C -0.06060 0.02508 0.53585
 N78 N -0.05511 0.04226 0.52292
 C79 C 0.46479 0.55574 0.03155
 N80 N 0.44756 0.54183 0.02684
 C81 C 0.44324 0.52371 0.03957
 N82 N 0.45674 0.52017 0.05697
 C83 C 0.47393 0.53311 0.06246
 N84 N 0.47752 0.55075 0.04945
 C85 C 0.53749 -0.05924 0.02924
 N86 N 0.55348 -0.04349 0.02838
 C87 C 0.55503 -0.02684 0.04317
 N88 N 0.53963 -0.02621 0.05948
 C89 C 0.52328 -0.04133 0.06134
 N90 N 0.52265 -0.05769 0.04592
 C91 C 1.04072 0.44215 0.52485
 N92 N 1.02689 0.44656 0.54209
 C93 C 1.03018 0.46449 0.55555
 N94 N 1.04789 0.47782 0.55119
 C95 C 1.06218 0.47383 0.53457
 N96 N 1.05784 0.45607 0.52208
 C97 C 0.40968 0.00857 0.21906
 H98 H 0.41107 0.02436 0.22630
 C99 C 0.42302 0.00364 0.20047
 H100 H 0.43369 0.01601 0.19439
 C101 C 0.39441 -0.02571 0.21802
 H102 H 0.38358 -0.03776 0.22443
 C103 C 0.40745 -0.03124 0.19965
 H104 H 0.40585 -0.04743 0.19352
 N105 N 0.39521 -0.00590 0.22786
 C106 C 0.34020 0.03675 0.26440
 H107 H 0.33901 0.02913 0.28003
 C108 C 0.32631 0.05503 0.25985
 H109 H 0.31550 0.06060 0.27233
 C110 C 0.35535 0.03884 0.23010
 H111 H 0.36625 0.03291 0.21787
 C112 C 0.34187 0.05703 0.22500
 H113 H 0.34332 0.06374 0.20900
 Zn114 Zn 0.37511 0.00070 0.25571
 N115 N 0.35485 0.02860 0.24971
 C116 C 0.39775 0.02465 0.29498
 N117 N 0.39614 0.00581 0.28320
 C118 C 0.40959 -0.01057 0.28958
 C119 C 0.42463 -0.00849 0.30711
 C120 C 0.41279 0.02740 0.31273
 C121 C 0.33212 -0.02381 0.25865
 C122 C 0.31690 -0.04107 0.26131
 C123 C 0.34558 -0.06464 0.27046
 C124 C 0.36048 -0.04686 0.26742
 N125 N 0.35393 -0.02644 0.26140
 H126 H 0.38753 0.03808 0.29063
 H127 H 0.40894 -0.02570 0.28096
 H128 H 0.43420 -0.02250 0.31097
 H129 H 0.41334 0.04280 0.32088
 H130 H 0.32611 -0.00814 0.25396
 H131 H 0.30006 -0.03746 0.25864
 H132 H 0.35197 -0.08028 0.27475
 H133 H 0.37748 -0.04981 0.26976
 C134 C 0.32676 0.06617 0.23980
 C135 C 0.42228 -0.01664 0.18973
 C136 C 0.32299 -0.06243 0.26719
 C137 C 0.42722 0.01082 0.31939
 C138 C 0.09017 -0.01460 0.71509
 H139 H 0.09089 -0.02980 0.72358
 C140 C 0.07528 -0.01245 0.69745
 H141 H 0.06580 -0.02647 0.69337
 C142 C 0.10183 0.02076 0.71008
 H143 H 0.11186 0.03424 0.71468
 C144 C 0.08695 0.02356 0.69223
 H145 H 0.08636 0.03904 0.68423
 N146 N 0.10343 0.00183 0.72172
 C147 C 0.15761 -0.03707 0.76195
 H148 H 0.15608 -0.02877 0.77720
 C149 C 0.17257 -0.05469 0.76042
 H150 H 0.18109 -0.05895 0.77497
 C151 C 0.14778 -0.04171 0.72601
 H152 H 0.13836 -0.03703 0.71212
 C153 C 0.16290 -0.05944 0.72375
 H154 H 0.16431 -0.06726 0.70824
 Zn155 Zn 0.12407 -0.00287 0.74949
 N156 N 0.14517 -0.03031 0.74497
 C157 C 0.10353 -0.02623 0.78991
 N158 N 0.10340 -0.00803 0.77707
 C159 C 0.08833 0.00730 0.78235
 C160 C 0.07324 0.00466 0.79975
 C161 C 0.08867 -0.02941 0.80768
 C162 C 0.15666 0.03230 0.73742
 C163 C 0.17120 0.05023 0.73924
 C164 C 0.16120 0.05439 0.77590
 C165 C 0.14652 0.03634 0.77337
 N166 N 0.14431 0.02507 0.75428
 H167 H 0.11502 -0.03884 0.78638
 H168 H 0.08761 0.02188 0.77284
 H169 H 0.06196 0.01763 0.80262
 H170 H 0.08949 -0.04430 0.81670
 H171 H 0.15539 0.02413 0.72208
 H172 H 0.17976 0.05484 0.72481
 H173 H 0.16235 0.06207 0.79150
 H174 H 0.13714 0.03127 0.78715
 C175 C 0.17629 -0.06656 0.74101
 C176 C 0.07268 0.00696 0.68533
 C177 C 0.17452 0.06194 0.75879
 C178 C 0.07255 -0.01403 0.81313
 C179 C 0.59706 0.48707 0.21703
 H180 H 0.59810 0.47199 0.22571
 C181 C 0.58176 0.48885 0.19976
 H182 H 0.57238 0.47466 0.19608
 C183 C 0.60834 0.52245 0.21130
 H184 H 0.61841 0.53604 0.21548
 C185 C 0.59296 0.52492 0.19384
 H186 H 0.59202 0.54029 0.18567
 N187 N 0.61036 0.50367 0.22310
 C188 C 0.66624 0.46292 0.25991
 H189 H 0.66736 0.47067 0.27547
 C190 C 0.67989 0.44438 0.25570
 H191 H 0.69050 0.43879 0.26835
 C192 C 0.65138 0.46061 0.22549
 H193 H 0.64067 0.46653 0.21310
 C194 C 0.66466 0.44221 0.22072
 H195 H 0.66329 0.43540 0.20476
 Zn196 Zn 0.63140 0.49888 0.25042
 N197 N 0.65183 0.47105 0.24500
 C198 C 0.60876 0.47564 0.29000
 N199 N 0.61049 0.49422 0.27784
 C200 C 0.59698 0.51075 0.28361
 C201 C 0.58172 0.50910 0.30093
 C202 C 0.59347 0.47331 0.30756
 C203 C 0.66606 0.53490 0.24081
 C204 C 0.67966 0.55347 0.24500
 C205 C 0.66462 0.55546 0.28009
 C206 C 0.65139 0.53704 0.27533
 N207 N 0.65177 0.52668 0.25578
 H208 H 0.61901 0.46212 0.28607
 H209 H 0.59780 0.52567 0.27464
 H210 H 0.57210 0.52319 0.30435
 H211 H 0.59275 0.45811 0.31604
 H212 H 0.66710 0.52721 0.22521
 H213 H 0.69017 0.55915 0.23231
 H214 H 0.66333 0.56220 0.29608
 H215 H 0.64076 0.53103 0.28775
 C216 C 0.67945 0.43300 0.23577
 C217 C 0.57866 0.50810 0.18752
 C218 C 0.67928 0.56476 0.26497
 C219 C 0.57895 0.49006 0.31356
 C220 C 0.91158 0.50786 0.71495
 H221 H 0.91286 0.52143 0.72581
 C222 C 0.92668 0.50624 0.69744
 H223 H 0.93876 0.51871 0.69645
 C224 C 0.89540 0.47561 0.70456
 H225 H 0.88344 0.46316 0.70693
 C226 C 0.91023 0.47353 0.68654
 H227 H 0.90862 0.45975 0.67600
 N228 N 0.89582 0.49281 0.71872
 C229 C 0.83992 0.53024 0.75841
 H230 H 0.84034 0.52093 0.77314
 C231 C 0.82479 0.54773 0.75681
 H232 H 0.81487 0.55087 0.77076
 C233 C 0.85253 0.53739 0.72377
 H234 H 0.86310 0.53376 0.71040
 C235 C 0.83742 0.55515 0.72152
 H236 H 0.83716 0.56402 0.70652
 Zn237 Zn 0.87503 0.49725 0.74646
 N238 N 0.85380 0.52474 0.74207
 C239 C 0.89394 0.52110 0.78610
 N240 N 0.89581 0.50270 0.77392
 C241 C 0.91188 0.48860 0.78017
 C242 C 0.92584 0.49248 0.79850
 C243 C 0.90737 0.52542 0.80450
 C244 C 0.84059 0.46060 0.73780
 C245 C 0.82685 0.44229 0.74271
 C246 C 0.84167 0.44176 0.77793
 C247 C 0.85513 0.45981 0.77241
 N248 N 0.85488 0.46937 0.75245
 H249 H 0.88183 0.53282 0.78173
 H250 H 0.91411 0.47396 0.77099
 H251 H 0.93782 0.48049 0.80258
 H252 H 0.90469 0.54035 0.81307
 H253 H 0.83957 0.46769 0.72191
 H254 H 0.81631 0.43622 0.73024
 H255 H 0.84280 0.43590 0.79427
 H256 H 0.86572 0.46631 0.78462
 C257 C 0.82255 0.56092 0.73806
 C258 C 0.92657 0.48907 0.68207
 C259 C 0.82697 0.43188 0.76318
 C260 C 0.92392 0.51114 0.81168
 C261 C 0.21385 0.40978 0.00748
 H262 H 0.22217 0.40867 0.02275
 C263 C 0.19611 0.42459 0.00560
 H264 H 0.19182 0.43352 0.01990
 C265 C 0.20923 0.39906 -0.02821
 H266 H 0.21396 0.38937 -0.04189
 C267 C 0.19132 0.41395 -0.03078
 H268 H 0.18345 0.41490 -0.04630
 N269 N 0.22072 0.39700 -0.00923
 C270 C 0.25967 0.34144 0.02915
 H271 H 0.27454 0.34163 0.02007
 C272 C 0.25775 0.32664 0.04690
 H273 H 0.27162 0.31673 0.05041
 C274 C 0.22500 0.35434 0.03559
 H275 H 0.21173 0.36491 0.03160
 C276 C 0.22242 0.33955 0.05358
 H277 H 0.20729 0.33952 0.06224
 Zn278 Zn 0.24842 0.37616 -0.00450
 N279 N 0.24348 0.35530 0.02318
 C280 C 0.28735 0.39512 0.02038
 N281 N 0.27631 0.39651 0.00123
 C282 C 0.28387 0.41183 -0.01308
 C283 C 0.30238 0.42546 -0.00865
 C284 C 0.30581 0.40828 0.02531
 C285 C 0.23685 0.34208 -0.03874
 C286 C 0.23890 0.32701 -0.05626
 C287 C 0.27490 0.33858 -0.06173
 C288 C 0.27218 0.35365 -0.04399
 N289 N 0.25330 0.35539 -0.03227
 H290 H 0.28192 0.38367 0.03233
 H291 H 0.27565 0.41373 -0.02832
 H292 H 0.30750 0.43682 -0.02083
 H293 H 0.31325 0.40604 0.04090
 H294 H 0.22168 0.34287 -0.03020
 H295 H 0.22484 0.31753 -0.06019
 H296 H 0.29033 0.33790 -0.06979
 H297 H 0.28568 0.36374 -0.03955
 C298 C 0.23880 0.32473 0.05985
 C299 C 0.18414 0.42771 -0.01385
 C300 C 0.25825 0.32424 -0.06845
 C301 C 0.31437 0.42402 0.01087
 C302 C 0.71027 0.08880 -0.00870
 H303 H 0.71740 0.08743 -0.02454
 C304 C 0.69194 0.07522 -0.00355
 H305 H 0.68589 0.06441 -0.01581
 C306 C 0.70937 0.10417 0.02556
 H307 H 0.71578 0.11508 0.03753
 C308 C 0.69125 0.09089 0.03130
 H309 H 0.68524 0.09244 0.04756
 N310 N 0.71897 0.10346 0.00564
 C311 C 0.75281 0.16147 -0.03503
 H312 H 0.76697 0.16500 -0.02551
 C313 C 0.74798 0.17530 -0.05330
 H314 H 0.75867 0.18864 -0.05663
 C315 C 0.72234 0.14067 -0.04184
 H316 H 0.71185 0.12730 -0.03801
 C317 C 0.71718 0.15382 -0.06023
 H318 H 0.70321 0.14901 -0.06936
 Zn319 Zn 0.74640 0.12386 -0.00132
 N320 N 0.74002 0.14424 -0.02905
 C321 C 0.78314 0.10281 -0.02751
 N322 N 0.77377 0.10327 -0.00749
 C323 C 0.78270 0.08960 0.00766
 C324 C 0.80106 0.07584 0.00318
 C325 C 0.80123 0.08927 -0.03262
 C326 C 0.73847 0.15867 0.03473
 C327 C 0.74341 0.17225 0.05308
 C328 C 0.77862 0.15734 0.05351
 C329 C 0.77309 0.14407 0.03536
 N330 N 0.75310 0.14440 0.02590
 H331 H 0.77652 0.11296 -0.04004
 H332 H 0.77577 0.08924 0.02364
 H333 H 0.80733 0.06588 0.01603
 H334 H 0.80701 0.08979 -0.04902
 H335 H 0.72254 0.15964 0.02773
 H336 H 0.73094 0.18272 0.05931
 H337 H 0.79492 0.15612 0.05951
 H338 H 0.78525 0.13344 0.02883
 C339 C 0.72961 0.17215 -0.06675
 C340 C 0.68142 0.07590 0.01684
 C341 C 0.76385 0.17191 0.06347
 C342 C 0.81133 0.07529 -0.01732
 C343 C 0.21689 0.59417 0.48872
 H344 H 0.22568 0.59477 0.47369
 C345 C 0.19939 0.57917 0.49068
 H346 H 0.19565 0.56963 0.47662
 C347 C 0.21106 0.60623 0.52383
 H348 H 0.21525 0.61657 0.53722
 C349 C 0.19341 0.59111 0.52652
 H350 H 0.18514 0.59057 0.54185
 N351 N 0.22296 0.60774 0.50508
 C352 C 0.25751 0.66612 0.46598
 H353 H 0.27200 0.66918 0.47516
 C354 C 0.25272 0.68009 0.44779
 H355 H 0.26374 0.69310 0.44417
 C356 C 0.22617 0.64639 0.45993
 H357 H 0.21525 0.63348 0.46405
 C358 C 0.22101 0.65970 0.44166
 H359 H 0.20667 0.65545 0.43282
 Zn360 Zn 0.25018 0.62874 0.50001
 N361 N 0.24427 0.64935 0.47231
 C362 C 0.28926 0.60938 0.47546
 N363 N 0.27792 0.60823 0.49443
 C364 C 0.28501 0.59289 0.50895
 C365 C 0.30337 0.57896 0.50491
 C366 C 0.30757 0.59587 0.47089
 C367 C 0.24102 0.66435 0.53493
 C368 C 0.24534 0.67849 0.55302
 C369 C 0.27930 0.66138 0.55712
 C370 C 0.27445 0.64768 0.53908
 N371 N 0.25551 0.64906 0.52773
 H372 H 0.28419 0.62089 0.46340
 H373 H 0.27650 0.59120 0.52406
 H374 H 0.30809 0.56760 0.51724
 H375 H 0.31523 0.59787 0.45538
 H376 H 0.22586 0.66605 0.52650
 H377 H 0.23335 0.69035 0.55740
 H378 H 0.29455 0.65883 0.56513
 H379 H 0.28629 0.63588 0.53417
 C380 C 0.23389 0.67758 0.43486
 C381 C 0.18701 0.57661 0.50992
 C382 C 0.26504 0.67775 0.56476
 C383 C 0.31567 0.58009 0.48558
 C384 C 0.71497 0.90570 0.51520
 H385 H 0.72312 0.90430 0.53055
 C386 C 0.69743 0.92070 0.51335
 H387 H 0.69302 0.92939 0.52777
 C388 C 0.71079 0.89568 0.47925
 H389 H 0.71567 0.88622 0.46546
 C390 C 0.69311 0.91083 0.47669
 H391 H 0.68551 0.91219 0.46106
 N392 N 0.72193 0.89315 0.49837
 C393 C 0.75902 0.83634 0.53766
 H394 H 0.77416 0.83491 0.52916
 C395 C 0.75517 0.82229 0.55595
 H396 H 0.76766 0.81108 0.56066
 C397 C 0.72529 0.85233 0.54200
 H398 H 0.71304 0.86365 0.53698
 C399 C 0.72094 0.83878 0.56029
 H400 H 0.70549 0.84060 0.56812
 Zn401 Zn 0.74958 0.87242 0.50332
 N402 N 0.74429 0.85150 0.53067
 C403 C 0.79708 0.88690 0.51526
 N404 N 0.77678 0.89338 0.50884
 C405 C 0.77420 0.91512 0.50557
 C406 C 0.79144 0.93036 0.50812
 C407 C 0.81483 0.90183 0.51822
 C408 C 0.74083 0.83808 0.46716
 C409 C 0.74542 0.82464 0.44861
 C410 C 0.78035 0.84018 0.44712
 C411 C 0.77517 0.85328 0.46548
 N412 N 0.75551 0.85252 0.47557
 H413 H 0.79993 0.86994 0.51805
 H414 H 0.75861 0.92104 0.50057
 H415 H 0.78789 0.94715 0.50505
 H416 H 0.83039 0.89552 0.52289
 H417 H 0.72517 0.83678 0.47469
 H418 H 0.73295 0.81397 0.44274
 H419 H 0.79642 0.84170 0.44061
 H420 H 0.78734 0.86410 0.47168
 C421 C 0.73585 0.82319 0.56827
 C422 C 0.68585 0.92434 0.49378
 C423 C 0.76552 0.82537 0.43761
 C424 C 0.81268 0.92435 0.51442
 C425 C 0.01150 0.21452 0.41244
 H426 H 0.02656 0.22312 0.41416
 C427 C 0.00754 0.19612 0.42633
 H428 H 0.01988 0.19143 0.43771
 C429 C -0.02194 0.21007 0.39590
 H430 H -0.03405 0.21508 0.38443
 C431 C -0.02638 0.19167 0.40929
 H432 H -0.04177 0.18377 0.40718
 N433 N -0.00304 0.22154 0.39709
 C434 C 0.03307 0.25897 0.33896
 H435 H 0.02184 0.27218 0.33723
 C436 C 0.05049 0.25722 0.32375
 H437 H 0.05098 0.26921 0.31118
 C438 C 0.04452 0.22775 0.35634
 H439 H 0.04265 0.21575 0.36884
 C440 C 0.06250 0.22558 0.34142
 H441 H 0.07345 0.21218 0.34351
 Zn442 Zn 0.00222 0.24924 0.37648
 N443 N 0.02983 0.24449 0.35537
 C444 C 0.02737 0.28637 0.39770
 N445 N 0.00745 0.27681 0.39698
 C446 C -0.00796 0.28555 0.41047
 C447 C -0.00384 0.30393 0.42432
 C448 C 0.03212 0.30446 0.41134
 C449 C -0.03229 0.23802 0.34269
 C450 C -0.05002 0.24022 0.32793
 C451 C -0.05485 0.27636 0.33938
 C452 C -0.03699 0.27345 0.35425
 N453 N -0.02550 0.25443 0.35588
 H454 H 0.04010 0.27987 0.38773
 H455 H -0.02387 0.27844 0.41064
 H456 H -0.01687 0.31009 0.43413
 H457 H 0.04848 0.31039 0.41106
 H458 H -0.02391 0.22276 0.34341
 H459 H -0.05428 0.22612 0.31867
 H460 H -0.06272 0.29190 0.33873
 H461 H -0.03227 0.28691 0.36425
 C462 C 0.06641 0.24053 0.32439
 C463 C -0.01169 0.18368 0.42509
 C464 C -0.06196 0.25973 0.32523
 C465 C 0.01656 0.31439 0.42513
 C466 C -0.01285 0.71484 0.08894
 H467 H -0.02835 0.72263 0.09057
 C468 C -0.01087 0.69709 0.07422
 H469 H -0.02533 0.69219 0.06587
 C470 C 0.02339 0.71162 0.09837
 H471 H 0.03722 0.71697 0.10753
 C472 C 0.02608 0.69376 0.08351
 H473 H 0.04183 0.68647 0.08200
 N474 N 0.00407 0.72237 0.10100
 C475 C -0.03539 0.76105 0.15528
 H476 H -0.02740 0.77650 0.15413
 C477 C -0.05291 0.75874 0.17023
 H478 H -0.05744 0.77290 0.17928
 C479 C -0.03934 0.72527 0.14450
 H480 H -0.03437 0.71173 0.13473
 C481 C -0.05699 0.72226 0.15955
 H482 H -0.06449 0.70656 0.16059
 Zn483 Zn -0.00106 0.74997 0.12144
 N484 N -0.02832 0.74452 0.14240
 C485 C -0.02717 0.78732 0.10086
 N486 N -0.00730 0.77755 0.10070
 C487 C 0.00745 0.78617 0.08638
 C488 C 0.00278 0.80458 0.07267
 C489 C -0.03244 0.80548 0.08742
 C490 C 0.03238 0.74283 0.15886
 C491 C 0.05027 0.74763 0.17313
 C492 C 0.05708 0.77909 0.15252
 C493 C 0.03908 0.77392 0.13888
 N494 N 0.02653 0.75595 0.14185
 H495 H -0.03948 0.78098 0.11142
 H496 H 0.02327 0.77894 0.08540
 H497 H 0.01536 0.81054 0.06219
 H498 H -0.04871 0.81155 0.08853
 H499 H 0.02297 0.72849 0.16191
 H500 H 0.05351 0.73675 0.18636
 H501 H 0.06614 0.79334 0.14837
 H502 H 0.03528 0.78468 0.12573
 C503 C -0.06435 0.73901 0.17340
 C504 C 0.00890 0.68592 0.07047
 C505 C 0.06333 0.76634 0.17069
 C506 C -0.01754 0.81528 0.07280
 C507 C 0.48948 0.21925 0.58944
 H508 H 0.47438 0.22774 0.58753
 C509 C 0.49357 0.20065 0.57585
 H510 H 0.48129 0.19574 0.56450
 C511 C 0.52285 0.21520 0.60620
 H512 H 0.53486 0.22042 0.61769
 C513 C 0.52744 0.19662 0.59308
 H514 H 0.54288 0.18887 0.59536
 N515 N 0.50391 0.22658 0.60474
 C516 C 0.46191 0.26406 0.65946
 H517 H 0.46896 0.27999 0.65993
 C518 C 0.44358 0.25958 0.67331
 H519 H 0.43741 0.27239 0.68339
 C520 C 0.46119 0.22898 0.64604
 H521 H 0.46769 0.21645 0.63582
 C522 C 0.44312 0.22390 0.65962
 H523 H 0.43721 0.20754 0.65902
 Zn524 Zn 0.49827 0.25450 0.62502
 N525 N 0.47069 0.24895 0.64564
 C526 C 0.47640 0.29637 0.60481
 N527 N 0.49334 0.28193 0.60393
 C528 C 0.50804 0.28549 0.58779
 C529 C 0.50634 0.30305 0.57278
 C530 C 0.47424 0.31446 0.59008
 C531 C 0.53445 0.24541 0.65967
 C532 C 0.55300 0.24979 0.67323
 C533 C 0.55442 0.28498 0.65840
 C534 C 0.53609 0.27998 0.64510
 N535 N 0.52600 0.26030 0.64543
 H536 H 0.46426 0.29422 0.61713
 H537 H 0.52144 0.27446 0.58619
 H538 H 0.51852 0.30389 0.56040
 H539 H 0.46070 0.32525 0.59208
 H540 H 0.52697 0.22970 0.66068
 H541 H 0.55882 0.23712 0.68369
 H542 H 0.56076 0.30113 0.65720
 H543 H 0.52991 0.29234 0.63448
 C544 C 0.43318 0.23913 0.67376
 C545 C 0.51284 0.18830 0.57735
 C546 C 0.56401 0.26993 0.67299
 C547 C 0.48945 0.31873 0.57339
 C548 C 0.51080 0.71328 0.91439
 H549 H 0.52603 0.72170 0.91343
 C550 C 0.50896 0.69538 0.92898
 H551 H 0.52325 0.69107 0.93792
 C552 C 0.47518 0.70857 0.90345
 H553 H 0.46153 0.71332 0.89371
 C554 C 0.47263 0.69052 0.91813
 H555 H 0.45715 0.68256 0.91894
 N556 N 0.49411 0.72015 0.90161
 C557 C 0.53016 0.75752 0.84404
 H558 H 0.51949 0.77123 0.84262
 C559 C 0.54768 0.75554 0.82904
 H560 H 0.54893 0.76787 0.81684
 C561 C 0.54012 0.72531 0.86060
 H562 H 0.53758 0.71303 0.87270
 C563 C 0.55813 0.72285 0.84587
 H564 H 0.56852 0.70897 0.84767
 Zn565 Zn 0.49888 0.74779 0.88092
 N566 N 0.52620 0.74268 0.85994
 C567 C 0.52459 0.78541 0.90096
 N568 N 0.50470 0.77571 0.90107
 C569 C 0.48978 0.78458 0.91502
 C570 C 0.49435 0.80313 0.92854
 C571 C 0.52978 0.80371 0.91422
 C572 C 0.46476 0.73628 0.84712
 C573 C 0.44735 0.73846 0.83201
 C574 C 0.44231 0.77463 0.84337
 C575 C 0.45991 0.77178 0.85849
 N576 N 0.47134 0.75276 0.86032
 H577 H 0.53698 0.77888 0.89060
 H578 H 0.47391 0.77744 0.91586
 H579 H 0.48167 0.80929 0.93878
 H580 H 0.54608 0.80970 0.91322
 H581 H 0.47314 0.72103 0.84804
 H582 H 0.44327 0.72441 0.82258
 H583 H 0.43446 0.79017 0.84254
 H584 H 0.46453 0.78527 0.86850
 C585 C 0.56282 0.73818 0.82944
 C586 C 0.48955 0.68331 0.93187
 C587 C 0.43550 0.75797 0.82913
 C588 C 0.51473 0.81371 0.92853
 C589 C 0.14463 0.21760 0.26501
 C590 C 0.13866 0.23873 0.26251
 C591 C 0.14930 0.25213 0.24783
 C592 C 0.16654 0.24389 0.23516
 C593 C 0.17415 0.22221 0.23663
 C594 C 0.16259 0.20885 0.25233
 O595 O 0.13179 0.20774 0.27988
 C596 C 0.11760 0.22301 0.28682
 C597 C 0.12138 0.24222 0.27660
 C598 C 0.10903 0.26045 0.28130
 C599 C 0.09211 0.25924 0.29674
 C600 C 0.08637 0.23988 0.30793
 C601 C 0.10010 0.22133 0.30265
 H602 H 0.14435 0.26875 0.24600
 H603 H 0.17420 0.25492 0.22403
 H604 H 0.16718 0.19218 0.25442
 H605 H 0.11244 0.27559 0.27334
 H606 H 0.08372 0.27409 0.30005
 H607 H 0.09715 0.20602 0.31042
 C608 C 0.64027 0.71392 0.77019
 C609 C 0.63595 0.73558 0.76919
 C610 C 0.64783 0.74922 0.75579
 C611 C 0.66466 0.74067 0.74284
 C612 C 0.67054 0.71841 0.74278
 C613 C 0.65775 0.70480 0.75720
 O614 O 0.62644 0.70398 0.78403
 C615 C 0.61329 0.71973 0.79184
 C616 C 0.61870 0.73931 0.78316
 C617 C 0.60762 0.75804 0.78892
 C618 C 0.59031 0.75696 0.80387
 C619 C 0.58299 0.73730 0.81345
 C620 C 0.59540 0.71821 0.80714
 H621 H 0.64417 0.76625 0.75516
 H622 H 0.67335 0.75188 0.73271
 H623 H 0.66104 0.68771 0.75804
 H624 H 0.61232 0.77341 0.78216
 H625 H 0.58285 0.77207 0.80814
 H626 H 0.59114 0.70264 0.81370
 C627 C 0.35696 0.78106 0.77108
 C628 C 0.36932 0.76523 0.76182
 C629 C 0.36365 0.75612 0.74203
 C630 C 0.34478 0.76322 0.73118
 C631 C 0.33085 0.77962 0.73941
 C632 C 0.33750 0.78870 0.76013
 O633 O 0.36559 0.78730 0.79026
 C634 C 0.38366 0.77516 0.79300
 C635 C 0.38648 0.76147 0.77589
 C636 C 0.40406 0.74743 0.77499
 C637 C 0.41929 0.74707 0.79210
 C638 C 0.41763 0.76040 0.81082
 C639 C 0.39913 0.77505 0.81079
 H640 H 0.37357 0.74364 0.73497
 H641 H 0.34113 0.75565 0.71592
 H642 H 0.32786 0.80118 0.76754
 H643 H 0.40616 0.73691 0.76125
 H644 H 0.43282 0.73628 0.79028
 H645 H 0.39667 0.78581 0.82427
 C646 C -0.14138 0.28232 0.26751
 C647 C -0.12926 0.26600 0.25886
 C648 C -0.13514 0.25601 0.23967
 C649 C -0.15403 0.26263 0.22873
 C650 C -0.16799 0.27959 0.23607
 C651 C -0.16097 0.28970 0.25630
 O652 O -0.13238 0.28916 0.28638
 C653 C -0.11438 0.27687 0.28940
 C654 C -0.11198 0.26256 0.27278
 C655 C -0.09459 0.24830 0.27201
 C656 C -0.07906 0.24828 0.28879
 C657 C -0.08021 0.26209 0.30719
 C658 C -0.09857 0.27705 0.30700
 H659 H -0.12537 0.24313 0.23314
 H660 H -0.15747 0.25408 0.21395
 H661 H -0.17044 0.30259 0.26322
 H662 H -0.09284 0.23735 0.25855
 H663 H -0.06567 0.23732 0.28694
 H664 H -0.10066 0.28823 0.32019
 C665 C -0.14272 0.71594 0.23212
 C666 C -0.13064 0.73241 0.24057
 C667 C -0.13636 0.74241 0.25979
 C668 C -0.15503 0.73565 0.27098
 C669 C -0.16892 0.71856 0.26385
 C670 C -0.16209 0.70844 0.24357
 O671 O -0.13390 0.70910 0.21318
 C672 C -0.11606 0.72155 0.20990
 C673 C -0.11358 0.73595 0.22643
 C674 C -0.09634 0.75040 0.22693
 C675 C -0.08104 0.75050 0.20995
 C676 C -0.08230 0.73657 0.19166
 C677 C -0.10049 0.72143 0.19213
 H678 H -0.12662 0.75540 0.26615
 H679 H -0.15836 0.74422 0.28578
 H680 H -0.17154 0.69545 0.23681
 H681 H -0.09454 0.76143 0.24031
 H682 H -0.06774 0.76161 0.21154
 H683 H -0.10262 0.71017 0.17901
 C684 C 0.35779 0.22988 0.73988
 C685 C 0.35601 0.21544 0.72325
 C686 C 0.33925 0.20060 0.72243
 C687 C 0.32363 0.20017 0.73904
 C688 C 0.32366 0.21448 0.75724
 C689 C 0.34160 0.22993 0.75726
 O690 O 0.37563 0.24242 0.73706
 C691 C 0.38500 0.23562 0.71834
 C692 C 0.37333 0.21914 0.70945
 C693 C 0.37950 0.20951 0.69007
 C694 C 0.39835 0.21663 0.67925
 C695 C 0.41204 0.23333 0.68728
 C696 C 0.40461 0.24317 0.70749
 H697 H 0.33816 0.18932 0.70917
 H698 H 0.31114 0.18818 0.73718
 H699 H 0.34311 0.24137 0.77032
 H700 H 0.36986 0.19672 0.68319
 H701 H 0.40193 0.20898 0.66405
 H702 H 0.41388 0.25605 0.71467
 C703 C 0.63938 0.27655 0.73914
 C704 C 0.64151 0.29178 0.72327
 C705 C 0.65870 0.30638 0.72344
 C706 C 0.67431 0.30558 0.74023
 C707 C 0.67361 0.29022 0.75742
 C708 C 0.65532 0.27531 0.75648
 O709 O 0.62148 0.26433 0.73575
 C710 C 0.61226 0.27203 0.71740
 C711 C 0.62410 0.28882 0.70925
 C712 C 0.61788 0.29922 0.69026
 C713 C 0.59894 0.29254 0.67918
 C714 C 0.58521 0.27552 0.68655
 C715 C 0.59266 0.26496 0.70633
 H716 H 0.66012 0.31833 0.71082
 H717 H 0.68724 0.31725 0.73956
 H718 H 0.65346 0.26317 0.76884
 H719 H 0.62755 0.31224 0.68387
 H720 H 0.59536 0.30080 0.66431
 H721 H 0.58340 0.25182 0.71305
 C722 C 0.13846 0.77331 0.23709
 C723 C 0.13418 0.79292 0.22782
 C724 C 0.14621 0.81119 0.23314
 C725 C 0.16328 0.80959 0.24832
 C726 C 0.16897 0.78999 0.25898
 C727 C 0.15579 0.77135 0.25302
 O728 O 0.12491 0.75797 0.22917
 C729 C 0.11192 0.76822 0.21474
 C730 C 0.11709 0.78966 0.21355
 C731 C 0.10578 0.80361 0.19997
 C732 C 0.08873 0.79559 0.18695
 C733 C 0.08237 0.77343 0.18654
 C734 C 0.09451 0.75958 0.20134
 H735 H 0.14265 0.82651 0.22563
 H736 H 0.17215 0.82418 0.25185
 H737 H 0.15911 0.75583 0.26021
 H738 H 0.10988 0.82055 0.19947
 H739 H 0.08023 0.80732 0.17734
 H740 H 0.09073 0.74260 0.20228
 C741 C 0.25957 0.14041 0.22954
 C742 C 0.27748 0.14389 0.21706
 C743 C 0.27909 0.16200 0.20384
 C744 C 0.26195 0.17712 0.20307
 C745 C 0.24249 0.17510 0.21529
 C746 C 0.24165 0.15591 0.22908
 O747 O 0.26176 0.12170 0.24087
 C748 C 0.28137 0.11345 0.23532
 C749 C 0.29145 0.12663 0.22075
 C750 C 0.31184 0.12158 0.21260
 C751 C 0.32244 0.10240 0.21928
 C752 C 0.31329 0.08738 0.23415
 C753 C 0.29204 0.09360 0.24247
 H754 H 0.29335 0.16451 0.19413
 H755 H 0.26419 0.19082 0.19253
 H756 H 0.22753 0.15298 0.23885
 H757 H 0.31961 0.13230 0.20126
 H758 H 0.33835 0.09956 0.21280
 H759 H 0.28393 0.08322 0.25387
 C760 C 0.76504 0.64116 0.71848
 C761 C 0.75536 0.62781 0.73321
 C762 C 0.73534 0.63298 0.74215
 C763 C 0.72472 0.65236 0.73608
 C764 C 0.73337 0.66737 0.72088
 C765 C 0.75431 0.66117 0.71188
 O766 O 0.78439 0.63288 0.71221
 C767 C 0.78682 0.61402 0.72321
 C768 C 0.76933 0.61037 0.73622
 C769 C 0.76808 0.59190 0.74906
 C770 C 0.78518 0.57662 0.74890
 C771 C 0.80429 0.57903 0.73623
 C772 C 0.80463 0.59849 0.72281
 H773 H 0.72793 0.62228 0.75376
 H774 H 0.70929 0.65557 0.74351
 H775 H 0.76211 0.67162 0.70032
 H776 H 0.75407 0.58915 0.75905
 H777 H 0.78305 0.56243 0.75875
 H778 H 0.81839 0.60161 0.71260
 C779 C 0.75976 0.35770 0.77235
 C780 C 0.77562 0.35581 0.78761
 C781 C 0.77519 0.33910 0.80278
 C782 C 0.75812 0.32376 0.80252
 C783 C 0.74092 0.32425 0.78717
 C784 C 0.74217 0.34202 0.77166
 O785 O 0.76339 0.37514 0.75955
 C786 C 0.78190 0.38432 0.76691
 C787 C 0.78990 0.37291 0.78406
 C788 C 0.80901 0.37919 0.79421
 C789 C 0.82034 0.39775 0.78689
 C790 C 0.81313 0.41104 0.76946
 C791 C 0.79323 0.40354 0.75919
 H792 H 0.78780 0.33787 0.81476
 H793 H 0.75856 0.31121 0.81462
 H794 H 0.72980 0.34370 0.75949
 H795 H 0.81529 0.36987 0.80753
 H796 H 0.83529 0.40138 0.79501
 H797 H 0.78660 0.41246 0.74578
 C798 C 0.26590 -0.14300 0.28573
 C799 C 0.25834 -0.13135 0.26853
 C800 C 0.23990 -0.13763 0.25743
 C801 C 0.22858 -0.15636 0.26387
 C802 C 0.23482 -0.16976 0.28168
 C803 C 0.25435 -0.16243 0.29285
 O804 O 0.28413 -0.13367 0.29371
 C805 C 0.28787 -0.11595 0.28125
 C806 C 0.27233 -0.11401 0.26570
 C807 C 0.27253 -0.09696 0.25097
 C808 C 0.28901 -0.08112 0.25205
 C809 C 0.30592 -0.08157 0.26763
 C810 C 0.30517 -0.09992 0.28250
 H811 H 0.23421 -0.12824 0.24388
 H812 H 0.21443 -0.16017 0.25444
 H813 H 0.26039 -0.17147 0.30647
 H814 H 0.26014 -0.09579 0.23876
 H815 H 0.28861 -0.06839 0.24016
 H816 H 0.31738 -0.10147 0.29483
 C817 C 0.23476 -0.14555 0.71942
 C818 C 0.24230 -0.13459 0.73706
 C819 C 0.26064 -0.14153 0.74810
 C820 C 0.27184 -0.16022 0.74107
 C821 C 0.26551 -0.17275 0.72273
 C822 C 0.24617 -0.16477 0.71173
 O823 O 0.21666 -0.13588 0.71158
 C824 C 0.21289 -0.11857 0.72457
 C825 C 0.22833 -0.11724 0.74031
 C826 C 0.22808 -0.10059 0.75545
 C827 C 0.21152 -0.08477 0.75483
 C828 C 0.19432 -0.08493 0.73947
 C829 C 0.19557 -0.10253 0.72372
 H830 H 0.26631 -0.13273 0.76203
 H831 H 0.28591 -0.16475 0.75031
 H832 H 0.24014 -0.17321 0.69772
 H833 H 0.24059 -0.09960 0.76756
 H834 H 0.21266 -0.07198 0.76656
 H835 H 0.18337 -0.10386 0.71136
 C836 C 0.74560 0.35771 0.22755
 C837 C 0.72812 0.35451 0.21440
 C838 C 0.72677 0.33642 0.20107
 C839 C 0.74370 0.32102 0.20095
 C840 C 0.76263 0.32277 0.21399
 C841 C 0.76324 0.34195 0.22777
 O842 O 0.74332 0.37641 0.23884
 C843 C 0.72408 0.38498 0.23261
 C844 C 0.71431 0.37199 0.21766
 C845 C 0.69428 0.37739 0.20886
 C846 C 0.68378 0.39672 0.21527
 C847 C 0.69269 0.41157 0.23047
 C848 C 0.71354 0.40498 0.23946
 H849 H 0.71287 0.33415 0.19080
 H850 H 0.74176 0.30735 0.19032
 H851 H 0.77698 0.34463 0.23813
 H852 H 0.68671 0.36683 0.19724
 H853 H 0.66812 0.39979 0.20832
 H854 H 0.72144 0.41518 0.25115
 C855 C 0.74520 0.64017 0.27301
 C856 C 0.72781 0.64328 0.28631
 C857 C 0.72649 0.66130 0.29971
 C858 C 0.74338 0.67674 0.29978
 C859 C 0.76220 0.67508 0.28658
 C860 C 0.76277 0.65598 0.27272
 O861 O 0.74290 0.62152 0.26167
 C862 C 0.72374 0.61287 0.26800
 C863 C 0.71403 0.62577 0.28308
 C864 C 0.69408 0.62030 0.29199
 C865 C 0.68359 0.60097 0.28557
 C866 C 0.69246 0.58621 0.27026
 C867 C 0.71322 0.59288 0.26116
 H868 H 0.71266 0.66349 0.31010
 H869 H 0.74148 0.69037 0.31048
 H870 H 0.77645 0.65337 0.26225
 H871 H 0.68655 0.63079 0.30369
 H872 H 0.66799 0.59782 0.29262
 H873 H 0.72107 0.58274 0.24937
 C874 C 0.23129 0.14199 0.78086
 C875 C 0.23948 0.13073 0.76370
 C876 C 0.25806 0.13759 0.75307
 C877 C 0.26881 0.15654 0.75998
 C878 C 0.26181 0.16947 0.77780
 C879 C 0.24225 0.16153 0.78845
 O880 O 0.21305 0.13226 0.78831
 C881 C 0.20990 0.11464 0.77556
 C882 C 0.22584 0.11318 0.76035
 C883 C 0.22629 0.09628 0.74550
 C884 C 0.20990 0.08030 0.74585
 C885 C 0.19224 0.08054 0.76066
 C886 C 0.19275 0.09841 0.77614
 H887 H 0.26425 0.12852 0.73953
 H888 H 0.28310 0.16093 0.75103
 H889 H 0.23570 0.17026 0.80204
 H890 H 0.23919 0.09524 0.73382
 H891 H 0.21151 0.06732 0.73439
 H892 H 0.18013 0.09980 0.78807
 C893 C 0.21771 0.26874 0.14080
 C894 C 0.23275 0.25888 0.12794
 C895 C 0.24166 0.23900 0.13365
 C896 C 0.23522 0.22871 0.15308
 C897 C 0.21967 0.23754 0.16761
 C898 C 0.21072 0.25834 0.16087
 O899 O 0.21156 0.28791 0.13202
 C900 C 0.22294 0.29001 0.11335
 C901 C 0.23607 0.27251 0.11031
 C902 C 0.24928 0.27092 0.09213
 C903 C 0.24939 0.28770 0.07651
 C904 C 0.23664 0.30683 0.07829
 C905 C 0.22282 0.30752 0.09747
 H906 H 0.25352 0.23145 0.12333
 H907 H 0.24266 0.21337 0.15669
 H908 H 0.19889 0.26625 0.17093
 H909 H 0.25935 0.25688 0.08986
 H910 H 0.25951 0.28528 0.06256
 H911 H 0.21252 0.32132 0.10011
 C912 C 0.72735 0.75568 0.64209
 C913 C 0.71699 0.77455 0.64714
 C914 C 0.70594 0.77693 0.66656
 C915 C 0.70513 0.75956 0.68138
 C916 C 0.71514 0.73911 0.67770
 C917 C 0.72677 0.73749 0.65722
 O918 O 0.73684 0.75727 0.62236
 C919 C 0.73229 0.77748 0.61504
 C920 C 0.72012 0.78851 0.62980
 C921 C 0.71327 0.80961 0.62588
 C922 C 0.71880 0.81996 0.60622
 C923 C 0.73127 0.80987 0.58972
 C924 C 0.73831 0.78790 0.59474
 H925 H 0.69792 0.79195 0.67030
 H926 H 0.69633 0.76237 0.69616
 H927 H 0.73474 0.72257 0.65301
 H928 H 0.70376 0.81809 0.63779
 H929 H 0.71340 0.83639 0.60411
 H930 H 0.74784 0.77908 0.58313
 C931 C 0.77477 0.75973 0.36241
 C932 C 0.78824 0.77703 0.35959
 C933 C 0.80204 0.77830 0.34187
 C934 C 0.80229 0.76144 0.32642
 C935 C 0.78889 0.74276 0.32782
 C936 C 0.77465 0.74223 0.34660
 O937 O 0.76306 0.76204 0.38081
 C938 C 0.76935 0.78113 0.38960
 C939 C 0.78474 0.79078 0.37702
 C940 C 0.79362 0.81068 0.38267
 C941 C 0.78685 0.82116 0.40186
 C942 C 0.77123 0.81229 0.41629
 C943 C 0.76217 0.79161 0.40944
 H944 H 0.81257 0.79206 0.33992
 H945 H 0.81327 0.76323 0.31300
 H946 H 0.76400 0.72863 0.34894
 H947 H 0.80556 0.81817 0.37241
 H948 H 0.79386 0.83675 0.40515
 H949 H 0.75016 0.78379 0.41934
 C950 C 0.28044 0.26621 -0.14772
 C951 C 0.26470 0.25701 -0.13522
 C952 C 0.25545 0.23727 -0.14089
 C953 C 0.26228 0.22643 -0.15988
 C954 C 0.27856 0.23456 -0.17404
 C955 C 0.28782 0.25525 -0.16735
 O956 O 0.28684 0.28536 -0.13905
 C957 C 0.27490 0.28813 -0.12082
 C958 C 0.26116 0.27106 -0.11794
 C959 C 0.24729 0.27020 -0.10021
 C960 C 0.24713 0.28726 -0.08489
 C961 C 0.26051 0.30597 -0.08653
 C962 C 0.27500 0.30590 -0.10522
 H963 H 0.24304 0.23024 -0.13086
 H964 H 0.25456 0.21123 -0.16345
 H965 H 0.30021 0.26265 -0.17711
 H966 H 0.23673 0.25650 -0.09805
 H967 H 0.23645 0.28541 -0.07127
 H968 H 0.28579 0.31934 -0.10773
 C969 C 0.72367 0.23805 -0.14261
 C970 C 0.70479 0.22675 -0.14060
 C971 C 0.68751 0.23043 -0.15466
 C972 C 0.68939 0.24610 -0.17135
 C973 C 0.70828 0.25882 -0.17460
 C974 C 0.72585 0.25440 -0.15946
 O975 O 0.73817 0.23163 -0.12744
 C976 C 0.72817 0.21604 -0.11568
 C977 C 0.70767 0.21267 -0.12320
 C978 C 0.69412 0.19760 -0.11338
 C979 C 0.70157 0.18538 -0.09545
 C980 C 0.72286 0.18723 -0.08665
 C981 C 0.73626 0.20348 -0.09739
 H982 H 0.67274 0.22134 -0.15292
 H983 H 0.67564 0.24838 -0.18182
 H984 H 0.74077 0.26329 -0.16083
 H985 H 0.67787 0.19534 -0.11928
 H986 H 0.69001 0.17457 -0.08834
 H987 H 0.75254 0.20623 -0.09183
 C988 C 0.22685 0.74233 0.35804
 C989 C 0.20732 0.73294 0.36238
 C990 C 0.18909 0.73782 0.35007
 C991 C 0.19064 0.75266 0.33269
 C992 C 0.21015 0.76345 0.32691
 C993 C 0.22875 0.75794 0.34038
 O994 O 0.24217 0.73486 0.37190
 C995 C 0.23198 0.72060 0.38515
 C996 C 0.21060 0.71909 0.37984
 C997 C 0.19671 0.70565 0.39139
 C998 C 0.20470 0.69312 0.40883
 C999 C 0.22683 0.69301 0.41538
 C1000 C 0.24063 0.70767 0.40295
 H1001 H 0.17382 0.73022 0.35368
 H1002 H 0.17607 0.75585 0.32368
 H1003 H 0.24421 0.76527 0.33707
 H1004 H 0.17980 0.70491 0.38720
 H1005 H 0.19296 0.68366 0.41746
 H1006 H 0.25757 0.70885 0.40683
 C1007 C 0.27066 0.74100 0.64251
 C1008 C 0.29077 0.73612 0.63470
 C1009 C 0.30934 0.74447 0.64430
 C1010 C 0.30755 0.75809 0.66260
 C1011 C 0.28743 0.76413 0.67199
 C1012 C 0.26843 0.75523 0.66123
 O1013 O 0.25521 0.73074 0.63078
 C1014 C 0.26588 0.71931 0.61538
 C1015 C 0.28770 0.72222 0.61728
 C1016 C 0.30207 0.71206 0.60323
 C1017 C 0.29414 0.69832 0.58672
 C1018 C 0.27175 0.69393 0.58356
 C1019 C 0.25736 0.70523 0.59849
 H1020 H 0.32507 0.74041 0.63797
 H1021 H 0.32238 0.76399 0.66964
 H1022 H 0.25256 0.75872 0.66751
 H1023 H 0.31923 0.71471 0.60485
 H1024 H 0.30595 0.69131 0.57602
 H1025 H 0.24014 0.70292 0.59722
 C1026 C 0.77420 0.23777 0.13845
 C1027 C 0.78812 0.22076 0.14080
 C1028 C 0.80250 0.21978 0.15808
 C1029 C 0.80288 0.23664 0.17355
 C1030 C 0.78904 0.25503 0.17262
 C1031 C 0.77421 0.25527 0.15428
 O1032 O 0.76195 0.23522 0.12043
 C1033 C 0.76835 0.21626 0.11141
 C1034 C 0.78434 0.20694 0.12346
 C1035 C 0.79345 0.18724 0.11749
 C1036 C 0.78627 0.17661 0.09852
 C1037 C 0.77000 0.18514 0.08461
 C1038 C 0.76073 0.20563 0.09179
 H1039 H 0.81338 0.20626 0.15967
 H1040 H 0.81432 0.23507 0.18660
 H1041 H 0.76320 0.26862 0.15231
 H1042 H 0.80588 0.18000 0.12734
 H1043 H 0.79351 0.16118 0.09500
 H1044 H 0.74823 0.21320 0.08231
 C1045 C 0.46672 0.39712 0.51446
 C1046 C 0.48813 0.39186 0.51283
 C1047 C 0.50184 0.40312 0.49895
 C1048 C 0.49362 0.42028 0.48618
 C1049 C 0.47166 0.42715 0.48677
 C1050 C 0.45797 0.41497 0.50168
 O1051 O 0.45661 0.38374 0.52866
 C1052 C 0.47201 0.36994 0.53605
 C1053 C 0.49153 0.37448 0.52676
 C1054 C 0.50993 0.36262 0.53204
 C1055 C 0.50856 0.34540 0.54710
 C1056 C 0.48891 0.33891 0.55731
 C1057 C 0.47019 0.35213 0.55148
 H1058 H 0.51867 0.39872 0.49781
 H1059 H 0.50488 0.42845 0.47567
 H1060 H 0.44107 0.41899 0.50303
 H1061 H 0.52528 0.36664 0.52481
 H1062 H 0.52348 0.33735 0.55095
 H1063 H 0.45465 0.34857 0.55852
 C1064 C -0.02626 0.89060 0.00648
 C1065 C -0.04114 0.89246 0.02272
 C1066 C -0.05600 0.90937 0.02296
 C1067 C -0.05590 0.92498 0.00620
 C1068 C -0.04101 0.92469 -0.01146
 C1069 C -0.02572 0.90664 -0.01092
 O1070 O -0.01372 0.87284 0.00963
 C1071 C -0.02090 0.86350 0.02819
 C1072 C -0.03765 0.87511 0.03667
 C1073 C -0.04760 0.86881 0.05588
 C1074 C -0.04050 0.84997 0.06685
 C1075 C -0.02350 0.83641 0.05920
 C1076 C -0.01339 0.84396 0.03918
 H1077 H -0.06766 0.91056 0.03587
 H1078 H -0.06784 0.93763 0.00734
 H1079 H -0.01389 0.90502 -0.02361
 H1080 H -0.06061 0.87834 0.06250
 H1081 H -0.04844 0.84634 0.08189
 H1082 H -0.00028 0.83483 0.03224
 C1083 C 0.03194 0.60689 0.01297
 C1084 C 0.01447 0.61781 0.00498
 C1085 C 0.00383 0.61082 -0.01355
 C1086 C 0.01106 0.59207 -0.02445
 C1087 C 0.02920 0.57954 -0.01760
 C1088 C 0.03984 0.58759 0.00188
 O1089 O 0.03937 0.61663 0.03119
 C1090 C 0.02629 0.63395 0.03455
 C1091 C 0.01090 0.63520 0.01877
 C1092 C -0.00431 0.65179 0.01859
 C1093 C -0.00411 0.66764 0.03510
 C1094 C 0.01091 0.66755 0.05259
 C1095 C 0.02673 0.65004 0.05179
 H1096 H -0.00996 0.61962 -0.01958
 H1097 H 0.00210 0.58747 -0.03869
 H1098 H 0.05365 0.57912 0.00829
 H1099 H -0.01614 0.65268 0.00582
 H1100 H -0.01585 0.68039 0.03374
 H1101 H 0.03882 0.64880 0.06428
 C1102 C 0.52203 0.11292 0.51136
 C1103 C 0.53272 0.10853 0.53022
 C1104 C 0.54419 0.08938 0.53289
 C1105 C 0.54508 0.07415 0.51586
 C1106 C 0.53472 0.07709 0.49547
 C1107 C 0.52266 0.09733 0.49353
 O1108 O 0.51218 0.13252 0.51262
 C1109 C 0.51683 0.14043 0.53260
 C1110 C 0.52941 0.12616 0.54381
 C1111 C 0.53640 0.13072 0.56475
 C1112 C 0.53058 0.15051 0.57473
 C1113 C 0.51772 0.16659 0.56442
 C1114 C 0.51055 0.16088 0.54262
 H1115 H 0.55249 0.08617 0.54788
 H1116 H 0.55422 0.05962 0.51890
 H1117 H 0.51441 0.10101 0.47863
 H1118 H 0.54620 0.11919 0.57340
 H1119 H 0.53609 0.15303 0.59105
 H1120 H 0.50071 0.17210 0.53363
 C1121 C -0.02094 0.10942 0.49220
 C1122 C -0.03106 0.10446 0.47317
 C1123 C -0.04210 0.08506 0.47058
 C1124 C -0.04314 0.07015 0.48788
 C1125 C -0.03339 0.07372 0.50847
 C1126 C -0.02174 0.09420 0.51032
 O1127 O -0.01144 0.12918 0.49080
 C1128 C -0.01575 0.13661 0.47057
 C1129 C -0.02777 0.12189 0.45933
 C1130 C -0.03437 0.12593 0.43816
 C1131 C -0.02873 0.14565 0.42797
 C1132 C -0.01640 0.16213 0.43828
 C1133 C -0.00962 0.15698 0.46032
 H1134 H -0.04994 0.08139 0.45545
 H1135 H -0.05193 0.05539 0.48492
 H1136 H -0.01399 0.09834 0.52536
 H1137 H -0.04376 0.11406 0.42951
 H1138 H -0.03394 0.14783 0.41149
 H1139 H -0.00021 0.16856 0.46932
 C1140 C 0.46756 0.60289 0.98810
 C1141 C 0.48425 0.61448 0.99678
 C1142 C 0.49446 0.60783 1.01567
 C1143 C 0.48761 0.58874 1.02623
 C1144 C 0.47027 0.57545 1.01870
 C1145 C 0.46005 0.58319 0.99883
 O1146 O 0.46044 0.61245 0.96965
 C1147 C 0.47291 0.63032 0.96685
 C1148 C 0.48763 0.63209 0.98321
 C1149 C 0.50213 0.64929 0.98404
 C1150 C 0.50192 0.66524 0.96761
 C1151 C 0.48759 0.66470 0.94956
 C1152 C 0.47247 0.64653 0.94968
 H1153 H 0.50763 0.61716 1.02225
 H1154 H 0.49623 0.58450 1.04078
 H1155 H 0.44685 0.57419 0.99187
 H1156 H 0.51343 0.65058 0.99725
 H1157 H 0.51308 0.67844 0.96949
 H1158 H 0.46092 0.64489 0.93674
 C1159 C 0.52240 0.88929 0.99439
 C1160 C 0.53776 0.89103 0.97859
 C1161 C 0.55271 0.90791 0.97875
 C1162 C 0.55214 0.92361 0.99546
 C1163 C 0.53669 0.92333 1.01259
 C1164 C 0.52141 0.90534 1.01166
 O1165 O 0.50984 0.87162 0.99101
 C1166 C 0.51746 0.86215 0.97274
 C1167 C 0.53453 0.87361 0.96464
 C1168 C 0.54491 0.86710 0.94574
 C1169 C 0.53793 0.84824 0.93471
 C1170 C 0.52061 0.83488 0.94204
 C1171 C 0.51008 0.84263 0.96172
 H1172 H 0.56475 0.90901 0.96619
 H1173 H 0.56410 0.93627 0.99477
 H1174 H 0.50917 0.90381 1.02397
 H1175 H 0.55816 0.87648 0.93938
 H1176 H 0.54622 0.84443 0.91991
 H1177 H 0.49672 0.83366 0.96840
 C1178 C 0.02368 0.38996 0.49114
 C1179 C 0.03880 0.39154 0.47510
 C1180 C 0.05379 0.40818 0.47478
 C1181 C 0.05362 0.42390 0.49127
 C1182 C 0.03853 0.42410 0.50884
 C1183 C 0.02300 0.40625 0.50837
 O1184 O 0.01115 0.37219 0.48792
 C1185 C 0.01865 0.36268 0.46954
 C1186 C 0.03554 0.37420 0.46127
 C1187 C 0.04588 0.36792 0.44230
 C1188 C 0.03906 0.34909 0.43129
 C1189 C 0.02199 0.33553 0.43874
 C1190 C 0.01141 0.34309 0.45851
 H1191 H 0.06561 0.40909 0.46200
 H1192 H 0.06577 0.43629 0.48983
 H1193 H 0.01099 0.40494 0.52093
 H1194 H 0.05898 0.37746 0.43589
 H1195 H 0.04725 0.34544 0.41638
 H1196 H -0.00179 0.33392 0.46522
 C1197 C 0.38973 0.51247 0.47734
 C1198 C 0.39413 0.53076 0.46571
 C1199 C 0.41300 0.53261 0.45364
 C1200 C 0.42795 0.51532 0.45313
 C1201 C 0.42500 0.49547 0.46452
 C1202 C 0.40505 0.49439 0.47715
 O1203 O 0.37041 0.51448 0.48760
 C1204 C 0.36269 0.53437 0.48227
 C1205 C 0.37681 0.54479 0.46887
 C1206 C 0.37244 0.56550 0.46115
 C1207 C 0.35299 0.57607 0.46705
 C1208 C 0.33704 0.56659 0.48068
 C1209 C 0.34256 0.54500 0.48861
 H1210 H 0.41622 0.54716 0.44460
 H1211 H 0.44227 0.51773 0.44350
 H1212 H 0.40139 0.47996 0.48620
 H1213 H 0.38388 0.57354 0.45073
 H1214 H 0.35068 0.59223 0.46098
 H1215 H 0.33145 0.53662 0.49908
 C1216 C 0.88658 0.00909 -0.02455
 C1217 C 0.88814 0.02474 -0.04009
 C1218 C 0.90475 0.02449 -0.05524
 C1219 C 0.92039 0.00781 -0.05475
 C1220 C 0.92040 -0.00924 -0.03917
 C1221 C 0.90267 -0.00819 -0.02358
 O1222 O 0.86902 0.01266 -0.01187
 C1223 C 0.85952 0.03087 -0.01964
 C1224 C 0.87084 0.03874 -0.03689
 C1225 C 0.86436 0.05751 -0.04750
 C1226 C 0.84562 0.06868 -0.04056
 C1227 C 0.83236 0.06161 -0.02308
 C1228 C 0.84008 0.04206 -0.01229
 H1229 H 0.90568 0.03694 -0.06741
 H1230 H 0.93282 0.00852 -0.06696
 H1231 H 0.90131 -0.02043 -0.01125
 H1232 H 0.87368 0.06364 -0.06090
 H1233 H 0.84182 0.08340 -0.04901
 H1234 H 0.83117 0.03560 0.00121
 C1235 C 0.60698 0.00928 0.02700
 C1236 C 0.60475 0.02574 0.04159
 C1237 C 0.58766 0.02594 0.05633
 C1238 C 0.57228 0.00889 0.05632
 C1239 C 0.57319 -0.00886 0.04170
 C1240 C 0.59131 -0.00830 0.02663
 O1241 O 0.62471 0.01239 0.01447
 C1242 C 0.63374 0.03115 0.02131
 C1243 C 0.62197 0.03984 0.03788
 C1244 C 0.62809 0.05931 0.04743
 C1245 C 0.64685 0.07029 0.04011
 C1246 C 0.66045 0.06238 0.02324
 C1247 C 0.65313 0.04213 0.01358
 H1248 H 0.58614 0.03901 0.06776
 H1249 H 0.55936 0.00972 0.06799
 H1250 H 0.59321 -0.02115 0.01502
 H1251 H 0.61850 0.06611 0.06030
 H1252 H 0.65040 0.08552 0.04773
 H1253 H 0.66232 0.03498 0.00062
 C1254 C 0.10795 0.51866 0.53187
 C1255 C 0.12022 0.50986 0.51574
 C1256 C 0.11445 0.49052 0.50590
 C1257 C 0.09553 0.47959 0.51255
 C1258 C 0.08159 0.48718 0.52934
 C1259 C 0.08843 0.50752 0.53922
 O1260 O 0.11674 0.53761 0.53864
 C1261 C 0.13482 0.54058 0.52652
 C1262 C 0.13747 0.52384 0.51237
 C1263 C 0.15504 0.52304 0.49834
 C1264 C 0.17046 0.53993 0.49841
 C1265 C 0.16896 0.55842 0.51208
 C1266 C 0.15045 0.55825 0.52677
 H1267 H 0.12432 0.48387 0.49316
 H1268 H 0.09201 0.46468 0.50425
 H1269 H 0.07887 0.51455 0.55199
 H1270 H 0.15701 0.50951 0.48753
 H1271 H 0.18401 0.53807 0.48767
 H1272 H 0.14813 0.57151 0.53782
 C1273 C 0.10436 0.48499 -0.03608
 C1274 C 0.11596 0.49352 -0.01931
 C1275 C 0.10942 0.51251 -0.00915
 C1276 C 0.09047 0.52331 -0.01612
 C1277 C 0.07721 0.51591 -0.03353
 C1278 C 0.08481 0.49594 -0.04368
 O1279 O 0.11377 0.46645 -0.04318
 C1280 C 0.13155 0.46341 -0.03063
 C1281 C 0.13342 0.47972 -0.01585
 C1282 C 0.15056 0.48026 -0.00125
 C1283 C 0.16633 0.46363 -0.00143
 C1284 C 0.16569 0.44563 -0.01583
 C1285 C 0.14759 0.44604 -0.03104
 H1286 H 0.11874 0.51898 0.00408
 H1287 H 0.08632 0.53790 -0.00755
 H1288 H 0.07582 0.48908 -0.05694
 H1289 H 0.15194 0.49342 0.01011
 H1290 H 0.17947 0.46530 0.00984
 H1291 H 0.14586 0.43317 -0.04265
 C1292 C 0.60734 0.98313 0.47146
 C1293 C 0.61863 0.99102 0.48873
 C1294 C 0.61208 1.00974 0.49936
 C1295 C 0.59340 1.02093 0.49232
 C1296 C 0.58050 1.01423 0.47437
 C1297 C 0.58811 0.99453 0.46375
 O1298 O 0.61668 0.96470 0.46401
 C1299 C 0.63413 0.96109 0.47686
 C1300 C 0.63585 0.97694 0.49215
 C1301 C 0.65268 0.97691 0.50710
 C1302 C 0.66826 0.96014 0.50677
 C1303 C 0.66770 0.94254 0.49189
 C1304 C 0.64995 0.94356 0.47631
 H1305 H 0.62116 1.01569 0.51300
 H1306 H 0.58917 1.03529 0.50125
 H1307 H 0.57935 0.98819 0.45008
 H1308 H 0.65396 0.98973 0.51884
 H1309 H 0.68120 0.96139 0.51832
 H1310 H 0.64832 0.93103 0.46432
 C1311 C 0.89290 0.98119 0.53384
 C1312 C 0.88178 0.98877 0.51630
 C1313 C 0.88859 1.00713 0.50524
 C1314 C 0.90734 1.01829 0.51213
 C1315 C 0.92004 1.01185 0.53031
 C1316 C 0.91219 0.99253 0.54136
 O1317 O 0.88331 0.96313 0.54177
 C1318 C 0.86589 0.95942 0.52896
 C1319 C 0.86438 0.97485 0.51322
 C1320 C 0.84762 0.97455 0.49815
 C1321 C 0.83169 0.95813 0.49912
 C1322 C 0.83179 0.94139 0.51491
 C1323 C 0.84980 0.94223 0.53009
 H1324 H 0.87964 1.01285 0.49142
 H1325 H 0.91181 1.03238 0.50289
 H1326 H 0.92079 0.98644 0.55524
 H1327 H 0.84674 0.98682 0.48579
 H1328 H 0.81917 0.95843 0.48700
 H1329 H 0.85107 0.93015 0.54259
 C1330 C 0.38939 0.49020 0.02178
 C1331 C 0.39358 0.47135 0.03256
 C1332 C 0.41246 0.46873 0.04448
 C1333 C 0.42763 0.48580 0.04573
 C1334 C 0.42489 0.50618 0.03529
 C1335 C 0.40492 0.50807 0.02277
 O1336 O 0.37003 0.48890 0.01148
 C1337 C 0.36206 0.46890 0.01594
 C1338 C 0.37606 0.45771 0.02884
 C1339 C 0.37140 0.43675 0.03569
 C1340 C 0.35177 0.42673 0.02941
 C1341 C 0.33595 0.43700 0.01620
 C1342 C 0.34177 0.45883 0.00918
 H1343 H 0.41551 0.45375 0.05285
 H1344 H 0.44194 0.48279 0.05521
 H1345 H 0.40140 0.52295 0.01442
 H1346 H 0.38272 0.42812 0.04574
 H1347 H 0.34918 0.41039 0.03484
 H1348 H 0.33075 0.46780 -0.00090
 C1349 C 0.52028 0.46993 0.39253
 C1350 C 0.51103 0.48511 0.37939
 C1351 C 0.49115 0.49436 0.38448
 C1352 C 0.48019 0.48807 0.40358
 C1353 C 0.48838 0.47238 0.41832
 C1354 C 0.50920 0.46310 0.41223
 O1355 O 0.53959 0.46345 0.38436
 C1356 C 0.54242 0.47479 0.36579
 C1357 C 0.52524 0.48821 0.36221
 C1358 C 0.52439 0.50144 0.34400
 C1359 C 0.54164 0.50126 0.32893
 C1360 C 0.56047 0.48820 0.33135
 C1361 C 0.56038 0.47438 0.35049
 H1362 H 0.48410 0.50633 0.37395
 H1363 H 0.46487 0.49573 0.40677
 H1364 H 0.51662 0.45114 0.42251
 H1365 H 0.51059 0.51173 0.34130
 H1366 H 0.53985 0.51141 0.31491
 H1367 H 0.57393 0.46387 0.35355
 C1368 C 0.01582 -0.03551 0.89319
 C1369 C 0.00441 -0.02424 0.87796
 C1370 C -0.01705 -0.01852 0.88137
 C1371 C -0.02736 -0.02417 0.90097
 C1372 C -0.01696 -0.03567 0.91804
 C1373 C 0.00546 -0.04160 0.91359
 O1374 O 0.03634 -0.03906 0.88621
 C1375 C 0.03768 -0.02983 0.86632
 C1376 C 0.01843 -0.02056 0.86077
 C1377 C 0.01584 -0.00986 0.84110
 C1378 C 0.03342 -0.00836 0.82650
 C1379 C 0.05418 -0.01734 0.83076
 C1380 C 0.05596 -0.02863 0.85143
 H1381 H -0.02582 -0.00968 0.86916
 H1382 H -0.04399 -0.01928 0.90274
 H1383 H 0.01465 -0.05017 0.92566
 H1384 H 0.00048 -0.00273 0.83697
 H1385 H 0.03050 -0.00021 0.81138
 H1386 H 0.07113 -0.03591 0.85595
 C1387 C 0.01575 0.02978 0.60565
 C1388 C 0.00626 0.01411 0.61802
 C1389 C -0.01350 0.00506 0.61216
 C1390 C -0.02407 0.01205 0.59308
 C1391 C -0.01562 0.02826 0.57905
 C1392 C 0.00508 0.03731 0.58594
 O1393 O 0.03486 0.03599 0.61451
 C1394 C 0.03731 0.02398 0.63273
 C1395 C 0.02009 0.01040 0.63541
 C1396 C 0.01891 -0.00351 0.65309
 C1397 C 0.03581 -0.00386 0.66856
 C1398 C 0.05463 0.00936 0.66712
 C1399 C 0.05491 0.02389 0.64848
 H1400 H -0.02076 -0.00729 0.62210
 H1401 H -0.03932 0.00448 0.58934
 H1402 H 0.01270 0.04964 0.57627
 H1403 H 0.00509 -0.01395 0.65508
 H1404 H 0.03376 -0.01456 0.68213
 H1405 H 0.06847 0.03457 0.64614
 C1406 C 0.51966 0.52965 0.10917
 C1407 C 0.51088 0.51355 0.12151
 C1408 C 0.49135 0.50387 0.11581
 C1409 C 0.48028 0.51068 0.09694
 C1410 C 0.48801 0.52736 0.08308
 C1411 C 0.50846 0.53703 0.08976
 O1412 O 0.53869 0.53642 0.11775
 C1413 C 0.54183 0.52433 0.13579
 C1414 C 0.52510 0.51017 0.13863
 C1415 C 0.52464 0.49613 0.15623
 C1416 C 0.54179 0.49625 0.17143
 C1417 C 0.56019 0.51004 0.16971
 C1418 C 0.55969 0.52468 0.15119
 H1419 H 0.48467 0.49116 0.12570
 H1420 H 0.46525 0.50267 0.09322
 H1421 H 0.51549 0.54974 0.08013
 H1422 H 0.51119 0.48526 0.15839
 H1423 H 0.54024 0.48546 0.18498
 H1424 H 0.57287 0.53579 0.14867
 C1425 C 0.48781 -0.02577 0.11403
 C1426 C 0.47152 -0.04058 0.11207
 C1427 C 0.47125 -0.05530 0.09495
 C1428 C 0.48803 -0.05503 0.07926
 C1429 C 0.50558 -0.04016 0.07986
 C1430 C 0.50511 -0.02512 0.09804
 O1431 O 0.48483 -0.01331 0.13185
 C1432 C 0.46632 -0.02043 0.14121
 C1433 C 0.45767 -0.03710 0.12956
 C1434 C 0.43843 -0.04691 0.13600
 C1435 C 0.42766 -0.03977 0.15497
 C1436 C 0.43556 -0.02282 0.16849
 C1437 C 0.45557 -0.01288 0.16082
 H1438 H 0.45832 -0.06692 0.09363
 H1439 H 0.48714 -0.06669 0.06633
 H1440 H 0.51783 -0.01333 0.09973
 H1441 H 0.43164 -0.05986 0.12651
 H1442 H 0.41261 -0.04761 0.15874
 H1443 H 0.46270 0.00016 0.16990
 C1444 C 0.98646 0.46624 0.60445
 C1445 C 0.98766 0.48776 0.60937
 C1446 C 1.00136 0.50155 0.59797
 C1447 C 1.01441 0.49330 0.58103
 C1448 C 1.01426 0.47121 0.57452
 C1449 C 0.99953 0.45746 0.58682
 O1450 O 0.97237 0.45609 0.61789
 C1451 C 0.96459 0.47156 0.63139
 C1452 C 0.97354 0.49118 0.62660
 C1453 C 0.96782 0.50965 0.63813
 C1454 C 0.95267 0.50827 0.65526
 C1455 C 0.94279 0.48853 0.66200
 C1456 C 0.94907 0.46972 0.64912
 H1457 H 1.00216 0.51846 0.60211
 H1458 H 1.02476 0.50461 0.57275
 H1459 H 0.99851 0.44047 0.58307
 H1460 H 0.97479 0.52507 0.63391
 H1461 H 0.94848 0.52324 0.66304
 H1462 H 0.94232 0.45411 0.65288
 C1463 C 0.99161 0.52043 0.88530
 C1464 C 0.97213 0.52919 0.89106
 C1465 C 0.96928 0.53909 0.91103
 C1466 C 0.98678 0.54040 0.92568
 C1467 C 1.00781 0.53206 0.92126
 C1468 C 1.00994 0.52154 0.90023
 O1469 O 0.99040 0.51187 0.86511
 C1470 C 0.96984 0.51539 0.85822
 C1471 C 0.95820 0.52601 0.87369
 C1472 C 0.93664 0.53165 0.87028
 C1473 C 0.92646 0.52646 0.85043
 C1474 C 0.93716 0.51553 0.83323
 C1475 C 0.95961 0.50972 0.83772
 H1476 H 0.95380 0.54587 0.91533
 H1477 H 0.98366 0.54830 0.94090
 H1478 H 1.02533 0.51493 0.89544
 H1479 H 0.92770 0.53995 0.88273
 H1480 H 0.90970 0.53088 0.84872
 H1481 H 0.96891 0.50141 0.82556
 C1482 C 0.48472 0.03297 0.39896
 C1483 C 0.49408 0.01732 0.38646
 C1484 C 0.51383 0.00814 0.39220
 C1485 C 0.52452 0.01496 0.41129
 C1486 C 0.51622 0.03115 0.42543
 C1487 C 0.49553 0.04034 0.41866
 O1488 O 0.46560 0.03931 0.39023
 C1489 C 0.46299 0.02742 0.37194
 C1490 C 0.48014 0.01379 0.36910
 C1491 C 0.48117 -0.00000 0.35131
 C1492 C 0.46419 -0.00018 0.33591
 C1493 C 0.44541 0.01309 0.33753
 C1494 C 0.44530 0.02749 0.35628
 H1495 H 0.52098 -0.00420 0.38217
 H1496 H 0.53974 0.00730 0.41494
 H1497 H 0.48802 0.05266 0.42842
 H1498 H 0.49494 -0.01048 0.34918
 H1499 H 0.46617 -0.01078 0.32225
 H1500 H 0.43179 0.03821 0.35877
   
