data_POSCAR
  _audit_creation_date              2014-09-24
  _audit_creation_method            'ToBaCCo'
  _symmetry_space_group_name_H-M    'P1'
  _symmetry_Int_Tables_number       1
  _symmetry_cell_setting            triclinic
  loop_
  _symmetry_equiv_pos_as_xyz
 x,y,z
_cell_length_a 41.1244
_cell_length_b 41.0764
_cell_length_c 41.2627
_cell_angle_alpha 89.961700
_cell_angle_beta 90.029500
_cell_angle_gamma 89.990100
loop_
  _atom_site_label
  _atom_site_type_symbol
  _atom_site_fract_x
  _atom_site_fract_y
  _atom_site_fract_z
O1 O 0.25898 1.03123 0.03868
 O2 O 0.27208 0.97495 -0.02900
 O3 O 0.25981 1.03661 -0.02367
 O4 O 0.26989 0.96872 0.03388
 O5 O 0.21663 0.96159 0.03480
 O6 O 0.20768 1.02444 -0.02818
 O7 O 0.22008 0.96178 -0.02797
 O8 O 0.20594 1.02323 0.03582
 Cu9 Cu 0.27049 1.00381 0.00524
 Cu10 Cu 0.20720 0.99195 0.00320
 C11 C 0.23039 1.03712 0.04861
 C12 C 0.24846 0.95820 -0.03970
 C13 C 0.23210 1.04155 -0.03629
 C14 C 0.24487 0.95410 0.04464
 O15 O 0.71445 0.53075 0.52563
 O16 O 0.72133 0.46750 0.46254
 O17 O 0.71295 0.46818 0.52549
 O18 O 0.72086 0.53095 0.46232
 O19 O 0.77417 0.53104 0.46896
 O20 O 0.76641 0.46708 0.53118
 O21 O 0.77464 0.46688 0.46922
 O22 O 0.76790 0.53057 0.53129
 Cu23 Cu 0.71205 0.49942 0.49318
 Cu24 Cu 0.77616 0.49887 0.50062
 C25 C 0.74009 0.54119 0.53935
 C26 C 0.74918 0.45607 0.45559
 C27 C 0.73830 0.45707 0.53914
 C28 C 0.74877 0.54203 0.45523
 O29 O 0.78852 0.97250 1.02851
 O30 O 0.77592 1.03751 0.96840
 O31 O 0.77549 1.03380 1.03150
 O32 O 0.78772 0.97504 0.96490
 O33 O 0.73561 0.96222 0.96716
 O34 O 0.72252 1.02592 1.02822
 O35 O 0.72398 1.02425 0.96488
 O36 O 0.73555 0.96399 1.02978
 Cu37 Cu 0.78725 1.00575 0.99822
 Cu38 Cu 0.72410 0.99314 0.99746
 C39 C 0.76400 0.95770 1.04008
 C40 C 0.74799 1.04144 0.95589
 C41 C 0.74679 1.04008 1.04107
 C42 C 0.76369 0.95819 0.95514
 O43 O 0.23950 0.47186 0.53565
 O44 O 0.24988 0.53013 0.46906
 O45 O 0.24755 0.46713 0.47262
 O46 O 0.24830 0.53454 0.53210
 O47 O 0.30036 0.52482 0.54124
 O48 O 0.30071 0.46184 0.47844
 O49 O 0.30305 0.52817 0.47595
 O50 O 0.29264 0.46422 0.53855
 Cu51 Cu 0.24099 0.50138 0.50182
 Cu52 Cu 0.30454 0.49538 0.50783
 C53 C 0.26397 0.45786 0.54820
 C54 C 0.27815 0.53974 0.46165
 C55 C 0.27413 0.45291 0.46562
 C56 C 0.27444 0.54029 0.54760
 O57 O 1.02701 0.22991 0.02741
 O58 O 0.96062 0.24255 -0.03101
 O59 O 1.02200 0.23374 -0.03525
 O60 O 0.96366 0.23699 0.03187
 O61 O 0.97033 0.29021 0.03569
 O62 O 1.03036 0.28668 -0.03055
 O63 O 0.96739 0.29573 -0.02755
 O64 O 1.03242 0.28319 0.03246
 Cu65 Cu 0.99255 0.23042 -0.00186
 Cu66 Cu 1.00074 0.29435 0.00278
 C67 C 1.04089 0.25448 0.04000
 C68 C 0.95307 0.27122 -0.03979
 C69 C 1.03604 0.25964 -0.04440
 C70 C 0.95704 0.26401 0.04524
 O71 O 0.53265 0.78767 0.52676
 O72 O 0.47124 0.77415 0.46325
 O73 O 0.46940 0.78495 0.52484
 O74 O 0.53431 0.77520 0.46409
 O75 O 0.53484 0.72219 0.47317
 O76 O 0.47351 0.73273 0.53711
 O77 O 0.47064 0.72169 0.47506
 O78 O 0.53646 0.73454 0.53441
 Cu79 Cu 0.50197 0.78583 0.49373
 Cu80 Cu 0.50397 0.72242 0.50575
 C81 C 0.54519 0.76339 0.54116
 C82 C 0.45975 0.74581 0.45903
 C83 C 0.46062 0.76046 0.54148
 C84 C 0.54547 0.74699 0.45818
 O85 O 0.03083 0.72192 -0.03111
 O86 O -0.03119 0.73339 0.03156
 O87 O -0.03282 0.73062 -0.03127
 O88 O 0.03167 0.73032 0.03179
 O89 O 0.03711 0.78339 0.02520
 O90 O -0.02683 0.78375 -0.03629
 O91 O -0.02726 0.78676 0.02623
 O92 O 0.03486 0.77506 -0.03766
 Cu93 Cu -0.00073 0.72374 0.00063
 Cu94 Cu 0.00516 0.78756 -0.00582
 C95 C 0.04335 0.74629 -0.04535
 C96 C -0.04012 0.76182 0.03938
 C97 C -0.04085 0.75753 -0.04448
 C98 C 0.04547 0.75708 0.03893
 O99 O 0.52917 0.21952 0.47402
 O100 O 0.46407 0.22456 0.53446
 O101 O 0.46519 0.22483 0.47112
 O102 O 0.52711 0.22615 0.53628
 O103 O 0.52494 0.27992 0.53614
 O104 O 0.46435 0.27865 0.47165
 O105 O 0.46412 0.27832 0.53146
 O106 O 0.53008 0.27313 0.47080
 Cu107 Cu 0.49632 0.21834 0.50395
 Cu108 Cu 0.49736 0.28260 0.50111
 C109 C 0.54116 0.24543 0.46254
 C110 C 0.45293 0.25198 0.54322
 C111 C 0.45341 0.25178 0.46130
 C112 C 0.53591 0.25351 0.54771
 O113 O 1.02793 0.02347 0.29054
 O114 O 0.96612 -0.04009 0.27690
 O115 O 1.02831 -0.03903 0.27949
 O116 O 0.96353 0.02233 0.28842
 O117 O 0.96594 0.03294 0.23598
 O118 O 1.03092 -0.02809 0.22712
 O119 O 0.96705 -0.02928 0.22451
 O120 O 1.02840 0.03432 0.23809
 Cu121 Cu 0.99627 -0.00903 0.28923
 Cu122 Cu 0.99827 0.00331 0.22612
 C123 C 1.03869 0.03964 0.26656
 C124 C 0.95612 -0.04564 0.24830
 C125 C 1.04054 -0.04404 0.25173
 C126 C 0.95361 0.03795 0.26371
 O127 O 0.53167 0.53320 0.68957
 O128 O 0.46944 0.46878 0.69195
 O129 O 0.46755 0.53161 0.69144
 O130 O 0.53325 0.47046 0.68957
 O131 O 0.53464 0.47040 0.74310
 O132 O 0.46934 0.53187 0.74493
 O133 O 0.47181 0.46836 0.74546
 O134 O 0.53268 0.53409 0.74310
 Cu135 Cu 0.50028 0.50106 0.68526
 Cu136 Cu 0.50232 0.50130 0.74950
 C137 C 0.54299 0.54436 0.71596
 C138 C 0.46001 0.45767 0.71910
 C139 C 0.45698 0.54185 0.71851
 C140 C 0.54515 0.46010 0.71605
 O141 O 0.96842 1.02966 0.80085
 O142 O 1.03009 0.96509 0.79555
 O143 O 1.03298 1.02833 0.80353
 O144 O 0.96812 0.96693 0.79259
 O145 O 0.97007 0.97514 0.73968
 O146 O 1.03443 1.03628 0.75060
 O147 O 1.03379 0.97308 0.74271
 O148 O 0.97177 1.03768 0.74808
 Cu149 Cu 0.99980 0.99718 0.80357
 Cu150 Cu 1.00290 1.00618 0.73997
 C151 C 0.95916 1.04442 0.77536
 C152 C 1.04199 0.95772 0.76817
 C153 C 1.04469 1.04273 0.77886
 C154 C 0.95815 0.96063 0.76415
 O155 O 0.46528 0.52368 0.20702
 O156 O 0.52759 0.46094 0.21928
 O157 O 0.46516 0.46192 0.22075
 O158 O 0.52943 0.52305 0.20735
 O159 O 0.52921 0.53451 0.25968
 O160 O 0.46503 0.47394 0.27296
 O161 O 0.52904 0.47253 0.27157
 O162 O 0.46699 0.53553 0.25925
 Cu163 Cu 0.49680 0.49146 0.20823
 Cu164 Cu 0.49762 0.50502 0.27123
 C165 C 0.45553 0.54022 0.23109
 C166 C 0.53895 0.45612 0.24743
 C167 C 0.45409 0.45771 0.24916
 C168 C 0.54023 0.53914 0.23138
 O169 O 0.23521 0.16519 0.20900
 O170 O 0.27135 0.15286 0.25295
 O171 O 0.15662 0.21361 0.25581
 O172 O 0.15087 0.25543 0.29021
 O173 O 0.19660 0.25143 0.17021
 O174 O 0.24276 0.28515 0.15889
 O175 O 0.25447 0.29569 0.33593
 O176 O 0.21402 0.25663 0.34742
 O177 O 0.33101 0.24118 0.29281
 O178 O 0.33663 0.20630 0.24787
 O179 O 0.29786 0.32922 0.25248
 O180 O 0.25485 0.34506 0.21772
 O181 O 0.25303 0.33408 0.29624
 O182 O 0.21682 0.34536 0.24826
 O183 O 0.33274 0.28648 0.24820
 O184 O 0.33479 0.23742 0.21109
 O185 O 0.29487 0.24857 0.33384
 O186 O 0.24727 0.21488 0.34683
 O187 O 0.24157 0.20382 0.16990
 O188 O 0.27664 0.24816 0.15744
 O189 O 0.16014 0.26002 0.21079
 O190 O 0.15746 0.29667 0.25725
 O191 O 0.19165 0.17073 0.25762
 O192 O 0.23758 0.15720 0.29031
 Zr193 Zr 0.23798 0.19202 0.25258
 O194 O 0.27259 0.21708 0.28068
 Zr195 Zr 0.18712 0.25462 0.25386
 O196 O 0.21915 0.28213 0.28293
 Zr197 Zr 0.24137 0.24834 0.19471
 O198 O 0.27558 0.27605 0.22061
 Zr199 Zr 0.24931 0.25144 0.31051
 O200 O 0.21402 0.22376 0.28482
 Zr201 Zr 0.30282 0.24505 0.25059
 O202 O 0.27090 0.21672 0.22208
 Zr203 Zr 0.25154 0.30758 0.25276
 O204 O 0.21713 0.28285 0.22355
 O205 O 0.20947 0.22143 0.22308
 O206 O 0.28115 0.27856 0.28196
 C207 C 0.23897 0.17420 0.17939
 C208 C 0.16292 0.18301 0.25768
 C209 C 0.16784 0.25744 0.18073
 C210 C 0.25421 0.32538 0.32608
 C211 C 0.32372 0.24357 0.32293
 C212 C 0.32646 0.31705 0.24958
 H213 H 0.28529 0.20109 0.29332
 H214 H 0.28952 0.28803 0.20518
 H215 H 0.19399 0.20855 0.20992
 H216 H 0.20623 0.29677 0.29692
 H217 H 0.19558 0.24229 0.34154
 H218 H 0.15999 0.26720 0.30903
 H219 H 0.33410 0.25701 0.19714
 H220 H 0.29367 0.23249 0.16408
 H221 H 0.26309 0.19763 0.34133
 H222 H 0.22530 0.16708 0.30844
 H223 H 0.26446 0.33548 0.19796
 H224 H 0.22896 0.30319 0.16688
 H225 H 0.28829 0.15816 0.23674
 H226 H 0.32846 0.18854 0.26185
 H227 H 0.16398 0.31147 0.23946
 H228 H 0.20237 0.34428 0.26740
 O229 O 0.75519 0.83319 0.20222
 O230 O 0.71996 0.84380 0.24776
 O231 O 0.83550 0.78525 0.25311
 O232 O 0.84297 0.73993 0.28155
 O233 O 0.79739 0.74908 0.16221
 O234 O 0.75127 0.71398 0.15038
 O235 O 0.74256 0.69929 0.32608
 O236 O 0.78162 0.74224 0.33751
 O237 O 0.66295 0.75552 0.28543
 O238 O 0.65794 0.79153 0.23871
 O239 O 0.69639 0.66785 0.23810
 O240 O 0.74400 0.65495 0.20504
 O241 O 0.73592 0.66255 0.28538
 O242 O 0.77615 0.65095 0.24142
 O243 O 0.66108 0.71007 0.24372
 O244 O 0.65643 0.75705 0.20462
 O245 O 0.69913 0.74478 0.32572
 O246 O 0.74074 0.77774 0.34099
 O247 O 0.75170 0.79537 0.16204
 O248 O 0.71717 0.75180 0.14894
 O249 O 0.83393 0.74159 0.20304
 O250 O 0.83621 0.70190 0.24755
 O251 O 0.80037 0.82779 0.24789
 O252 O 0.75573 0.84037 0.28313
 Zr253 Zr 0.75439 0.80563 0.24533
 O254 O 0.72063 0.77942 0.27339
 Zr255 Zr 0.80624 0.74380 0.24589
 O256 O 0.77458 0.71467 0.27372
 Zr257 Zr 0.75222 0.75058 0.18639
 O258 O 0.71795 0.72211 0.21161
 Zr259 Zr 0.74448 0.74446 0.30205
 O260 O 0.77886 0.77377 0.27720
 Zr261 Zr 0.69055 0.75186 0.24276
 O262 O 0.72198 0.78098 0.21439
 Zr263 Zr 0.74238 0.68985 0.24271
 O264 O 0.77686 0.71587 0.21467
 O265 O 0.78357 0.77732 0.21556
 O266 O 0.71289 0.71779 0.27291
 C267 C 0.75276 0.82478 0.17235
 C268 C 0.82885 0.81581 0.25221
 C269 C 0.82638 0.74445 0.17296
 C270 C 0.73797 0.67027 0.31546
 C271 C 0.67034 0.75100 0.31532
 C272 C 0.66762 0.67966 0.24077
 H273 H 0.70811 0.79488 0.28687
 H274 H 0.70406 0.71045 0.19589
 H275 H 0.79888 0.79086 0.20287
 H276 H 0.78756 0.69972 0.28734
 H277 H 0.79690 0.76033 0.33298
 H278 H 0.83249 0.73136 0.30135
 H279 H 0.65767 0.73743 0.19078
 H280 H 0.69864 0.76461 0.15740
 H281 H 0.74191 0.79976 0.33150
 H282 H 0.77179 0.83249 0.29922
 H283 H 0.72989 0.66290 0.18731
 H284 H 0.76659 0.69679 0.15745
 H285 H 0.70326 0.83911 0.23111
 H286 H 0.66363 0.80739 0.25583
 H287 H 0.82885 0.68732 0.22991
 H288 H 0.79035 0.65280 0.26068
 O289 O 0.75163 0.17132 0.80189
 O290 O 0.71875 0.15535 0.75709
 O291 O 0.83628 0.20813 0.74696
 O292 O 0.84886 0.25062 0.71671
 O293 O 0.79577 0.26103 0.83188
 O294 O 0.74943 0.29628 0.83682
 O295 O 0.75039 0.28545 0.65975
 O296 O 0.78905 0.24240 0.65653
 O297 O 0.66761 0.24585 0.70290
 O298 O 0.65920 0.21039 0.75261
 O299 O 0.70271 0.33177 0.73734
 O300 O 0.74791 0.34815 0.77252
 O301 O 0.74627 0.32846 0.69422
 O302 O 0.78381 0.34456 0.73944
 O303 O 0.66543 0.29168 0.74525
 O304 O 0.65640 0.24818 0.78297
 O305 O 0.70691 0.23956 0.66460
 O306 O 0.75176 0.20476 0.65778
 O307 O 0.75343 0.21436 0.83660
 O308 O 0.71441 0.25849 0.84066
 O309 O 0.83505 0.25514 0.79343
 O310 O 0.84039 0.29240 0.74531
 O311 O 0.79947 0.16818 0.75793
 O312 O 0.75535 0.15319 0.72233
 Zr313 Zr 0.75434 0.19243 0.75547
 O314 O 0.72313 0.21570 0.72238
 Zr315 Zr 0.80926 0.25153 0.74939
 O316 O 0.78044 0.27717 0.71575
 Zr317 Zr 0.75210 0.25530 0.80598
 O318 O 0.72072 0.28136 0.77510
 Zr319 Zr 0.75053 0.24459 0.69043
 O320 O 0.78220 0.21834 0.72118
 Zr321 Zr 0.69316 0.24878 0.74711
 O322 O 0.72173 0.22254 0.78096
 Zr323 Zr 0.74789 0.30767 0.74080
 O324 O 0.77956 0.28477 0.77452
 O325 O 0.78346 0.22349 0.78241
 O326 O 0.71866 0.27673 0.71339
 C327 C 0.75241 0.18372 0.83047
 C328 C 0.82848 0.17831 0.75225
 C329 C 0.82555 0.25895 0.82284
 C330 C 0.74830 0.31605 0.66574
 C331 C 0.67711 0.24137 0.67358
 C332 C 0.67339 0.32153 0.74072
 H333 H 0.71021 0.19913 0.71076
 H334 H 0.70683 0.29569 0.78846
 H335 H 0.79771 0.21108 0.79729
 H336 H 0.79471 0.28940 0.70081
 H337 H 0.80562 0.22742 0.66559
 H338 H 0.84039 0.25732 0.69530
 H339 H 0.66234 0.26458 0.79949
 H340 H 0.69901 0.24061 0.83583
 H341 H 0.73927 0.18669 0.66751
 H342 H 0.77130 0.15905 0.70534
 H343 H 0.73176 0.34385 0.78975
 H344 H 0.76376 0.31309 0.82724
 H345 H 0.70009 0.16444 0.76923
 H346 H 0.66197 0.19516 0.73426
 H347 H 0.83418 0.30781 0.76268
 H348 H 0.79935 0.33907 0.72200
 O349 O 0.25316 0.83409 0.80125
 O350 O 0.29375 0.84478 0.76062
 O351 O 0.17181 0.80251 0.74479
 O352 O 0.16169 0.76313 0.70789
 O353 O 0.20072 0.74788 0.82940
 O354 O 0.24399 0.71041 0.84002
 O355 O 0.25914 0.71515 0.66310
 O356 O 0.22566 0.76048 0.65448
 O357 O 0.34099 0.74889 0.71309
 O358 O 0.34740 0.78588 0.76245
 O359 O 0.29604 0.66806 0.74472
 O360 O 0.24590 0.65714 0.77825
 O361 O 0.25614 0.67314 0.69896
 O362 O 0.21477 0.66086 0.74045
 O363 O 0.33557 0.70507 0.75599
 O364 O 0.34462 0.74833 0.79369
 O365 O 0.30607 0.75608 0.67089
 O366 O 0.26395 0.79656 0.65990
 O367 O 0.24531 0.79228 0.83678
 O368 O 0.28107 0.74583 0.84581
 O369 O 0.16559 0.75619 0.78752
 O370 O 0.16063 0.71973 0.74037
 O371 O 0.21260 0.83968 0.75007
 O372 O 0.26202 0.84955 0.72172
 Zr373 Zr 0.25497 0.81142 0.75542
 O374 O 0.28686 0.78442 0.72605
 Zr375 Zr 0.19558 0.75716 0.74608
 O376 O 0.22504 0.72790 0.71607
 Zr377 Zr 0.24696 0.75024 0.80770
 O378 O 0.27872 0.72057 0.78068
 Zr379 Zr 0.25987 0.75687 0.69260
 O380 O 0.22796 0.78682 0.71955
 Zr381 Zr 0.31132 0.74993 0.75462
 O382 O 0.28217 0.77956 0.78488
 Zr383 Zr 0.25257 0.69557 0.74467
 O384 O 0.21998 0.72223 0.77454
 O385 O 0.22093 0.78381 0.78040
 O386 O 0.28661 0.72314 0.71945
 C387 C 0.24847 0.82264 0.82989
 C388 C 0.18257 0.83185 0.74638
 C389 C 0.17209 0.75209 0.81772
 C390 C 0.25798 0.68468 0.67008
 C391 C 0.33465 0.75210 0.68277
 C392 C 0.32575 0.67601 0.75035
 H393 H 0.30223 0.79933 0.71521
 H394 H 0.29014 0.70555 0.79554
 H395 H 0.20624 0.79761 0.79349
 H396 H 0.21122 0.71630 0.70024
 H397 H 0.20864 0.77589 0.66175
 H398 H 0.16915 0.74972 0.68944
 H399 H 0.33552 0.73341 0.81016
 H400 H 0.29791 0.76263 0.84203
 H401 H 0.28168 0.81094 0.66744
 H402 H 0.24930 0.84373 0.70220
 H403 H 0.26348 0.65849 0.79456
 H404 H 0.23035 0.69381 0.82919
 H405 H 0.30923 0.83488 0.77613
 H406 H 0.34815 0.80019 0.74317
 H407 H 0.16519 0.70316 0.75721
 H408 H 0.19979 0.66848 0.72330
 O409 O 0.25867 0.32946 0.70410
 O410 O 0.22572 0.34695 0.74852
 O411 O 0.34118 0.28870 0.75743
 O412 O 0.35007 0.24821 0.79197
 O413 O 0.29874 0.23856 0.67503
 O414 O 0.25113 0.20439 0.66987
 O415 O 0.24975 0.21598 0.84670
 O416 O 0.29102 0.25715 0.85006
 O417 O 0.16996 0.25980 0.80247
 O418 O 0.16363 0.29484 0.75230
 O419 O 0.20142 0.17153 0.76853
 O420 O 0.24637 0.15321 0.73396
 O421 O 0.24398 0.17313 0.81229
 O422 O 0.28167 0.15504 0.76791
 O423 O 0.16605 0.21334 0.76069
 O424 O 0.15934 0.25684 0.72233
 O425 O 0.20914 0.26423 0.84116
 O426 O 0.25495 0.29634 0.84867
 O427 O 0.25857 0.28625 0.66960
 O428 O 0.21763 0.24391 0.66520
 O429 O 0.33749 0.23843 0.71449
 O430 O 0.34134 0.20496 0.76373
 O431 O 0.30574 0.33030 0.74795
 O432 O 0.26239 0.34757 0.78362
 Zr433 Zr 0.25962 0.30832 0.75061
 O434 O 0.22703 0.28670 0.78344
 Zr435 Zr 0.31169 0.24672 0.75783
 O436 O 0.28126 0.22256 0.79114
 Zr437 Zr 0.25498 0.24552 0.70040
 O438 O 0.22206 0.22105 0.73099
 Zr439 Zr 0.25266 0.25670 0.81588
 O440 O 0.28587 0.28139 0.78543
 Zr441 Zr 0.19573 0.25498 0.75855
 O442 O 0.22585 0.27974 0.72489
 Zr443 Zr 0.24759 0.19363 0.76572
 O444 O 0.28066 0.21493 0.73239
 O445 O 0.28758 0.27567 0.72427
 O446 O 0.21954 0.22602 0.79266
 C447 C 0.25924 0.31694 0.67558
 C448 C 0.33451 0.31887 0.75229
 C449 C 0.32831 0.23638 0.68479
 C450 C 0.24608 0.18550 0.84077
 C451 C 0.17939 0.26400 0.83187
 C452 C 0.17260 0.18309 0.76512
 H453 H 0.21484 0.30396 0.79485
 H454 H 0.20764 0.20734 0.71755
 H455 H 0.30267 0.28688 0.70930
 H456 H 0.29466 0.20968 0.80636
 H457 H 0.30797 0.27201 0.84153
 H458 H 0.34144 0.23975 0.81270
 H459 H 0.16474 0.24011 0.70597
 H460 H 0.20290 0.26239 0.66989
 H461 H 0.24516 0.31546 0.83789
 H462 H 0.27849 0.34131 0.80037
 H463 H 0.23076 0.15826 0.71642
 H464 H 0.26524 0.18735 0.67940
 H465 H 0.20702 0.33885 0.73575
 H466 H 0.16732 0.31035 0.77026
 H467 H 0.33338 0.18840 0.74822
 H468 H 0.29660 0.15937 0.78620
 O469 O 0.75067 0.66720 0.69791
 O470 O 0.78158 0.65174 0.74454
 O471 O 0.66649 0.71144 0.74258
 O472 O 0.65357 0.75516 0.76989
 O473 O 0.71786 0.75466 0.66011
 O474 O 0.76460 0.79010 0.65788
 O475 O 0.74967 0.78701 0.83509
 O476 O 0.70919 0.74710 0.83778
 O477 O 0.83323 0.73973 0.80036
 O478 O 0.84541 0.70557 0.75344
 O479 O 0.80496 0.82851 0.75712
 O480 O 0.76395 0.84587 0.72166
 O481 O 0.75957 0.82829 0.79964
 O482 O 0.72403 0.84330 0.75036
 O483 O 0.84038 0.78627 0.76182
 O484 O 0.84998 0.74164 0.72048
 O485 O 0.79090 0.73974 0.83588
 O486 O 0.74220 0.70559 0.83847
 O487 O 0.76211 0.70816 0.66252
 O488 O 0.79943 0.75288 0.65931
 O489 O 0.67524 0.75795 0.69517
 O490 O 0.66799 0.79598 0.74291
 O491 O 0.70182 0.66890 0.73887
 O492 O 0.74290 0.65347 0.77820
 Zr493 Zr 0.74801 0.69069 0.74315
 O494 O 0.77793 0.71366 0.77766
 Zr495 Zr 0.69637 0.75297 0.74164
 O496 O 0.72348 0.77802 0.77707
 Zr497 Zr 0.75872 0.75082 0.69051
 O498 O 0.78826 0.77703 0.72301
 Zr499 Zr 0.74956 0.74508 0.80611
 O500 O 0.71886 0.71969 0.77365
 Zr501 Zr 0.81158 0.74439 0.75454
 O502 O 0.78466 0.71777 0.71967
 Zr503 Zr 0.75934 0.80589 0.75363
 O504 O 0.73005 0.78320 0.71783
 O505 O 0.72338 0.72202 0.71232
 O506 O 0.78459 0.77482 0.78465
 C507 C 0.75736 0.67806 0.66949
 C508 C 0.67301 0.68092 0.74047
 C509 C 0.68739 0.75739 0.66644
 C510 C 0.75446 0.81714 0.82831
 C511 C 0.82133 0.73846 0.82904
 C512 C 0.83358 0.81681 0.76122
 H513 H 0.78899 0.69691 0.79086
 H514 H 0.80391 0.79030 0.71052
 H515 H 0.70978 0.70969 0.69680
 H516 H 0.70871 0.79152 0.79037
 H517 H 0.69167 0.73407 0.82764
 H518 H 0.66036 0.76057 0.79223
 H519 H 0.85038 0.76227 0.70809
 H520 H 0.81531 0.73685 0.66770
 H521 H 0.75870 0.68871 0.83388
 H522 H 0.72626 0.66108 0.79378
 H523 H 0.77625 0.83810 0.70260
 H524 H 0.74847 0.80686 0.66412
 H525 H 0.80096 0.65906 0.73233
 H526 H 0.83684 0.68795 0.76736
 H527 H 0.67564 0.81011 0.72503
 H528 H 0.70982 0.84184 0.76964
 O529 O 0.25776 0.66023 0.29194
 O530 O 0.22307 0.64944 0.24748
 O531 O 0.33655 0.71233 0.24666
 O532 O 0.34124 0.75612 0.21446
 O533 O 0.29767 0.74640 0.33494
 O534 O 0.24965 0.77672 0.34870
 O535 O 0.23953 0.79650 0.17222
 O536 O 0.27800 0.75761 0.15824
 O537 O 0.16171 0.73988 0.21295
 O538 O 0.15935 0.69998 0.25864
 O539 O 0.19405 0.82529 0.25798
 O540 O 0.23978 0.83866 0.29420
 O541 O 0.23435 0.83254 0.21374
 O542 O 0.27374 0.84355 0.25911
 O543 O 0.15939 0.78220 0.25977
 O544 O 0.15595 0.73357 0.29316
 O545 O 0.19762 0.75055 0.17239
 O546 O 0.24508 0.71615 0.15774
 O547 O 0.25787 0.69635 0.33381
 O548 O 0.21710 0.73658 0.34767
 O549 O 0.33343 0.75608 0.29397
 O550 O 0.33452 0.79537 0.25015
 O551 O 0.30204 0.66904 0.24385
 O552 O 0.25584 0.65681 0.21032
 Zr553 Zr 0.25543 0.68935 0.24999
 O554 O 0.22019 0.71532 0.22357
 Zr555 Zr 0.30567 0.75266 0.25133
 O556 O 0.27298 0.78116 0.22418
 Zr557 Zr 0.25256 0.74204 0.31099
 O558 O 0.21747 0.77071 0.28685
 Zr559 Zr 0.24326 0.75121 0.19548
 O560 O 0.27900 0.72285 0.21931
 Zr561 Zr 0.19003 0.74126 0.25550
 O562 O 0.22277 0.71189 0.28229
 Zr563 Zr 0.24050 0.80433 0.25596
 O564 O 0.27565 0.77856 0.28349
 O565 O 0.28421 0.71745 0.28050
 O566 O 0.21125 0.77631 0.22563
 C567 C 0.25842 0.66728 0.32228
 C568 C 0.33058 0.68178 0.24375
 C569 C 0.32627 0.75273 0.32407
 C570 C 0.23553 0.82532 0.18349
 C571 C 0.16885 0.74467 0.18300
 C572 C 0.16549 0.81289 0.25955
 H573 H 0.20755 0.69991 0.21021
 H574 H 0.20356 0.78171 0.30299
 H575 H 0.30026 0.70433 0.29272
 H576 H 0.28538 0.79680 0.21083
 H577 H 0.29682 0.74360 0.16371
 H578 H 0.33178 0.76918 0.19665
 H579 H 0.16121 0.74883 0.31093
 H580 H 0.20183 0.71959 0.34004
 H581 H 0.22782 0.69981 0.16143
 H582 H 0.26821 0.66768 0.19282
 H583 H 0.22444 0.83071 0.31086
 H584 H 0.26145 0.79625 0.34099
 H585 H 0.20515 0.65422 0.26275
 H586 H 0.16343 0.68624 0.23938
 H587 H 0.32678 0.80961 0.26789
 H588 H 0.28742 0.84326 0.23940
 O589 O 0.73772 0.33372 0.28634
 O590 O 0.77357 0.34202 0.24063
 O591 O 0.65757 0.28364 0.24044
 O592 O 0.64808 0.23593 0.21664
 O593 O 0.69956 0.25003 0.33247
 O594 O 0.74743 0.21748 0.34405
 O595 O 0.74706 0.19490 0.16836
 O596 O 0.70692 0.23605 0.15708
 O597 O 0.82801 0.25058 0.20239
 O598 O 0.83534 0.28991 0.24662
 O599 O 0.79649 0.16641 0.25535
 O600 O 0.75119 0.15482 0.29097
 O601 O 0.75486 0.15959 0.21021
 O602 O 0.71586 0.15069 0.25731
 O603 O 0.83179 0.20817 0.24682
 O604 O 0.83862 0.25711 0.28275
 O605 O 0.78933 0.23815 0.16499
 O606 O 0.74853 0.27342 0.15130
 O607 O 0.74354 0.29821 0.32836
 O608 O 0.78086 0.25578 0.34140
 O609 O 0.66071 0.24613 0.29327
 O610 O 0.65723 0.20067 0.25289
 O611 O 0.69287 0.32623 0.24319
 O612 O 0.73775 0.33730 0.20542
 Zr613 Zr 0.73894 0.30419 0.24472
 O614 O 0.77115 0.27653 0.21630
 Zr615 Zr 0.68683 0.24271 0.24962
 O616 O 0.71686 0.21216 0.22167
 Zr617 Zr 0.74372 0.25200 0.30619
 O618 O 0.77649 0.22211 0.28056
 Zr619 Zr 0.74551 0.24064 0.19072
 O620 O 0.71249 0.27125 0.21562
 Zr621 Zr 0.80256 0.25021 0.24673
 O622 O 0.77270 0.28087 0.27531
 Zr623 Zr 0.75042 0.18856 0.25221
 O624 O 0.71757 0.21612 0.28082
 O625 O 0.71125 0.27733 0.27706
 O626 O 0.77834 0.21511 0.21950
 C627 C 0.74034 0.32705 0.31666
 C628 C 0.66421 0.31419 0.24048
 C629 C 0.66976 0.24863 0.32297
 C630 C 0.75229 0.16641 0.17991
 C631 C 0.81882 0.24377 0.17342
 C632 C 0.82522 0.17790 0.25113
 H633 H 0.78296 0.29111 0.20128
 H634 H 0.79107 0.21104 0.29610
 H635 H 0.69648 0.29156 0.28959
 H636 H 0.70326 0.19669 0.20931
 H637 H 0.69177 0.25435 0.16114
 H638 H 0.65771 0.22757 0.19635
 H639 H 0.83715 0.23884 0.29830
 H640 H 0.79816 0.26931 0.33157
 H641 H 0.73642 0.29309 0.15782
 H642 H 0.71895 0.33134 0.19167
 H643 H 0.76561 0.16380 0.30794
 H644 H 0.73253 0.19941 0.33846
 H645 H 0.79047 0.33771 0.25717
 H646 H 0.82854 0.30489 0.22910
 H647 H 0.66423 0.18862 0.27248
 H648 H 0.70167 0.15092 0.23795
 C649 C 0.24769 0.10476 0.10495
 C650 C 0.22044 0.10431 0.12548
 N651 N 0.19644 0.08221 0.12011
 C652 C 0.19854 0.06051 0.09522
 C653 C 0.22614 0.06061 0.07510
 N654 N 0.25003 0.08279 0.08063
 N655 N 0.27122 0.12741 0.10936
 C656 C 0.26876 0.14981 0.13337
 C657 C 0.24186 0.14921 0.15429
 N658 N 0.21821 0.12637 0.14997
 H659 H 0.17917 0.04306 0.09153
 H660 H 0.28774 0.16784 0.13627
 C661 C 0.76127 0.61021 0.59299
 C662 C 0.73544 0.60980 0.61524
 N663 N 0.71109 0.58779 0.61160
 C664 C 0.71149 0.56597 0.58682
 C665 C 0.73781 0.56568 0.56511
 N666 N 0.76212 0.58787 0.56879
 N667 N 0.78497 0.63303 0.59585
 C668 C 0.78410 0.65544 0.62009
 C669 C 0.75882 0.65446 0.64293
 N670 N 0.73503 0.63161 0.63994
 H671 H 0.69191 0.54850 0.58457
 H672 H 0.80322 0.67346 0.62186
 C673 C 0.74372 0.89608 0.09989
 C674 C 0.77426 0.88924 0.11354
 N675 N 0.80099 0.90503 0.10234
 C676 C 0.79858 0.92743 0.07813
 C677 C 0.76792 0.93453 0.06453
 N678 N 0.74128 0.91853 0.07594
 N679 N 0.71700 0.87997 0.11056
 C680 C 0.71944 0.85718 0.13428
 C681 C 0.74986 0.85042 0.14809
 N682 N 0.77670 0.86658 0.13742
 H683 H 0.82037 0.93963 0.06982
 H684 H 0.69787 0.84435 0.14224
 C685 C 0.27117 0.38322 0.59825
 C686 C 0.25020 0.39042 0.62415
 N687 N 0.23372 0.41905 0.62432
 C688 C 0.23734 0.44091 0.59983
 C689 C 0.25904 0.43422 0.57440
 N690 N 0.27551 0.40545 0.57424
 N691 N 0.28670 0.35407 0.59748
 C692 C 0.28240 0.33184 0.62156
 C693 C 0.26224 0.33940 0.64802
 N694 N 0.24664 0.36864 0.64867
 H695 H 0.22396 0.46360 0.60051
 H696 H 0.29534 0.30891 0.62056
 C697 C 0.75867 0.11661 0.90754
 C698 C 0.73788 0.11078 0.88116
 N699 N 0.71994 0.08307 0.88033
 C700 C 0.72203 0.06074 0.90458
 C701 C 0.74366 0.06599 0.93044
 N702 N 0.76147 0.09390 0.93128
 N703 N 0.77584 0.14480 0.90889
 C704 C 0.77339 0.16735 0.88488
 C705 C 0.75345 0.16107 0.85792
 N706 N 0.73615 0.13285 0.85673
 H707 H 0.70766 0.03870 0.90325
 H708 H 0.78762 0.18947 0.88631
 C709 C 0.25980 0.58941 0.38907
 C710 C 0.28215 0.61507 0.39201
 N711 N 0.30422 0.61456 0.41656
 C712 C 0.30463 0.58977 0.43854
 C713 C 0.28135 0.56481 0.43639
 N714 N 0.25954 0.56531 0.41156
 N715 N 0.23841 0.58919 0.36402
 C716 C 0.23814 0.61366 0.34184
 C717 C 0.25961 0.64001 0.34532
 N718 N 0.28124 0.64009 0.37039
 H719 H 0.32209 0.59019 0.45818
 H720 H 0.22076 0.61299 0.32213
 C721 C 0.23422 0.89120 0.90438
 C722 C 0.26348 0.89065 0.88683
 N723 N 0.28736 0.91215 0.89431
 C724 C 0.28335 0.93426 0.91849
 C725 C 0.25368 0.93554 0.93560
 N726 N 0.22982 0.91384 0.92791
 N727 N 0.21084 0.86883 0.89788
 C728 C 0.21533 0.84599 0.87449
 C729 C 0.24419 0.84598 0.85630
 N730 N 0.26763 0.86842 0.86282
 H731 H 0.30295 0.95101 0.92383
 H732 H 0.19629 0.82846 0.86959
 C733 C 0.73374 0.40443 0.38356
 C734 C 0.75642 0.37924 0.38810
 N735 N 0.77667 0.38007 0.41406
 C736 C 0.77522 0.40489 0.43579
 C737 C 0.75196 0.42966 0.43180
 N738 N 0.73169 0.42878 0.40572
 N739 N 0.71433 0.40424 0.35695
 C740 C 0.71647 0.37993 0.33470
 C741 C 0.73853 0.35424 0.33963
 N742 N 0.75797 0.35450 0.36634
 H743 H 0.79157 0.40493 0.45636
 H744 H 0.70061 0.38024 0.31374
 C745 C 0.09308 0.26825 0.11165
 C746 C 0.11596 0.24304 0.10877
 N747 N 0.11344 0.22154 0.08390
 C748 C 0.08913 0.22421 0.06166
 C749 C 0.06679 0.24998 0.06401
 N750 N 0.06938 0.27142 0.08901
 N751 N 0.09473 0.28897 0.13720
 C752 C 0.11834 0.28570 0.16003
 C753 C 0.14180 0.26107 0.15676
 N754 N 0.14007 0.24028 0.13110
 H755 H 0.08765 0.20684 0.04200
 H756 H 0.11917 0.30251 0.18021
 C757 C 0.62006 0.75216 0.58954
 C758 C 0.61535 0.77445 0.61491
 N759 N 0.58857 0.79382 0.61480
 C760 C 0.56611 0.79163 0.59064
 C761 C 0.57016 0.76838 0.56602
 N762 N 0.59714 0.74922 0.56607
 N763 N 0.64729 0.73355 0.58895
 C764 C 0.66994 0.73593 0.61280
 C765 C 0.66474 0.75724 0.63893
 N766 N 0.63746 0.77607 0.63938
 H767 H 0.54479 0.80709 0.59121
 H768 H 0.69125 0.72045 0.61200
 C769 C 0.09877 0.76356 0.88797
 C770 C 0.11311 0.73295 0.88288
 N771 N 0.10349 0.70721 0.90113
 C772 C 0.08031 0.71066 0.92438
 C773 C 0.06658 0.74156 0.93034
 N774 N 0.07630 0.76725 0.91179
 N775 N 0.10752 0.78910 0.86900
 C776 C 0.13021 0.78548 0.84533
 C777 C 0.14533 0.75516 0.84088
 N778 N 0.13650 0.72952 0.85985
 H779 H 0.07325 0.68959 0.93849
 H780 H 0.13713 0.80628 0.83074
 C781 C 0.59447 0.26004 0.39150
 C782 C 0.61922 0.23693 0.39657
 N783 N 0.61795 0.21730 0.42299
 C784 C 0.59303 0.21963 0.44452
 C785 C 0.56853 0.24305 0.43979
 N786 N 0.56995 0.26286 0.41338
 N787 N 0.59492 0.27867 0.36436
 C788 C 0.61891 0.27521 0.34198
 C789 C 0.64395 0.25249 0.34720
 N790 N 0.64363 0.23395 0.37455
 H791 H 0.59249 0.20357 0.46533
 H792 H 0.61868 0.29030 0.32045
 C793 C 0.90447 0.74126 0.10692
 C794 C 0.88248 0.76738 0.10641
 N795 N 0.88712 0.79216 0.08505
 C796 C 0.91258 0.79180 0.06393
 C797 C 0.93399 0.76512 0.06373
 N798 N 0.92931 0.74052 0.08535
 N799 N 0.90063 0.71698 0.12891
 C800 C 0.87566 0.71757 0.15045
 C801 C 0.85308 0.74318 0.14947
 N802 N 0.85702 0.76760 0.12744
 H803 H 0.91548 0.81160 0.04685
 H804 H 0.87320 0.69805 0.16792
 C805 C 0.40227 0.23132 0.61443
 C806 C 0.37718 0.25437 0.61196
 N807 N 0.37759 0.27649 0.58751
 C808 C 0.40199 0.27658 0.56529
 C809 C 0.42674 0.25308 0.56726
 N810 N 0.42620 0.23090 0.59180
 N811 N 0.40264 0.21020 0.63977
 C812 C 0.37902 0.21111 0.66282
 C813 C 0.35354 0.23368 0.65998
 N814 N 0.35323 0.25477 0.63453
 H815 H 0.40178 0.29441 0.54596
 H816 H 0.37995 0.19429 0.68301
 C817 C 0.89471 0.25086 0.89741
 C818 C 0.88379 0.28173 0.88755
 N819 N 0.89587 0.30871 0.90227
 C820 C 0.91846 0.30626 0.92631
 C821 C 0.92931 0.27528 0.93636
 N822 N 0.91690 0.24841 0.92153
 N823 N 0.88329 0.22381 0.88245
 C824 C 0.86133 0.22617 0.85800
 C825 C 0.85014 0.25691 0.84826
 N826 N 0.86149 0.28414 0.86331
 H827 H 0.92774 0.32825 0.93740
 H828 H 0.85238 0.20425 0.84647
 C829 C 0.40442 0.76115 0.38984
 C830 C 0.38137 0.73619 0.39342
 N831 N 0.38502 0.71406 0.41764
 C832 C 0.41055 0.71591 0.43859
 C833 C 0.43316 0.74141 0.43556
 N834 N 0.42943 0.76343 0.41117
 N835 N 0.40152 0.78265 0.36504
 C836 C 0.37656 0.78036 0.34358
 C837 C 0.35301 0.75589 0.34745
 N838 N 0.35597 0.73432 0.37239
 H839 H 0.41271 0.69815 0.45786
 H840 H 0.37488 0.79771 0.32388
 C841 C 0.08569 0.11553 0.25522
 C842 C 0.11247 0.11036 0.27571
 N843 N 0.11371 0.08302 0.29421
 C844 C 0.08955 0.06039 0.29284
 C845 C 0.06347 0.06489 0.27130
 N846 N 0.06218 0.09248 0.25306
 N847 N 0.08387 0.14327 0.23744
 C848 C 0.10785 0.16598 0.23889
 C849 C 0.13535 0.16031 0.25831
 N850 N 0.13698 0.13255 0.27636
 H851 H 0.09128 0.03859 0.30750
 H852 H 0.10602 0.18771 0.22412
 C853 C 0.59476 0.61455 0.73894
 C854 C 0.61973 0.61259 0.71580
 N855 N 0.61843 0.58932 0.69250
 C856 C 0.59340 0.56771 0.69142
 C857 C 0.56896 0.56890 0.71519
 N858 N 0.57027 0.59237 0.73845
 N859 N 0.59541 0.63860 0.76147
 C860 C 0.62003 0.66071 0.76206
 C861 C 0.64558 0.65813 0.73963
 N862 N 0.64481 0.63407 0.71697
 H863 H 0.59308 0.54919 0.67276
 H864 H 0.62007 0.67965 0.78029
 C865 C 0.90386 0.10887 0.75032
 C866 C 0.88515 0.11333 0.77841
 N867 N 0.89199 0.09558 0.80533
 C868 C 0.91654 0.07336 0.80541
 C869 C 0.93474 0.06805 0.77694
 N870 N 0.92779 0.08614 0.75010
 N871 N 0.89792 0.12746 0.72376
 C872 C 0.87398 0.15029 0.72397
 C873 C 0.85464 0.15416 0.75172
 N874 N 0.86068 0.13556 0.77838
 H875 H 0.92124 0.05953 0.82726
 H876 H 0.86970 0.16491 0.70255
 C877 C 0.40859 0.61561 0.24335
 C878 C 0.38119 0.61013 0.22377
 N879 N 0.37954 0.58274 0.20542
 C880 C 0.40390 0.56034 0.20614
 C881 C 0.43058 0.56517 0.22684
 N882 N 0.43230 0.59281 0.24486
 N883 N 0.41075 0.64333 0.26105
 C884 C 0.38647 0.66571 0.26043
 C885 C 0.35839 0.65966 0.24198
 N886 N 0.35644 0.63197 0.22396
 H887 H 0.40189 0.53845 0.19168
 H888 H 0.38853 0.68742 0.27516
 C889 C 0.11424 0.90846 0.74610
 C890 C 0.10849 0.87971 0.76366
 N891 N 0.08140 0.87712 0.78222
 C892 C 0.05975 0.90202 0.78409
 C893 C 0.06509 0.93060 0.76613
 N894 N 0.09222 0.93311 0.74737
 N895 N 0.14216 0.91156 0.72880
 C896 C 0.16463 0.88723 0.72834
 C897 C 0.15860 0.85824 0.74542
 N898 N 0.13055 0.85519 0.76261
 H899 H 0.03836 0.89943 0.79916
 H900 H 0.18684 0.89034 0.71460
 C901 C 0.58765 0.38180 0.23432
 C902 C 0.61327 0.38631 0.25634
 N903 N 0.61336 0.41273 0.27608
 C904 C 0.58907 0.43513 0.27454
 C905 C 0.56405 0.43127 0.25169
 N906 N 0.56394 0.40461 0.23213
 N907 N 0.58700 0.35480 0.21536
 C908 C 0.61104 0.33215 0.21727
 C909 C 0.63725 0.33723 0.23846
 N910 N 0.63769 0.36421 0.25758
 H911 H 0.58981 0.45620 0.29027
 H912 H 0.61011 0.31083 0.20189
 C913 C 0.90254 0.88576 0.26431
 C914 C 0.88628 0.88263 0.23457
 N915 N 0.89413 0.90269 0.20963
 C916 C 0.91736 0.92598 0.21311
 C917 C 0.93296 0.93002 0.24327
 N918 N 0.92505 0.90959 0.26811
 N919 N 0.89549 0.86497 0.28893
 C920 C 0.87263 0.84133 0.28523
 C921 C 0.85557 0.83893 0.25588
 N922 N 0.86280 0.85967 0.23118
 H923 H 0.92298 0.94161 0.19273
 H924 H 0.86713 0.82522 0.30526
 C925 C 0.41119 0.38681 0.74612
 C926 C 0.38521 0.38758 0.72404
 N927 N 0.38482 0.41032 0.70017
 C928 C 0.40914 0.43256 0.69749
 C929 C 0.43462 0.43258 0.72019
 N930 N 0.43502 0.40961 0.74404
 N931 N 0.41213 0.36327 0.76924
 C932 C 0.38811 0.34057 0.77142
 C933 C 0.36156 0.34201 0.75003
 N934 N 0.36082 0.36554 0.72680
 H935 H 0.40813 0.45062 0.67840
 H936 H 0.38932 0.32209 0.79010
 C937 C 0.10872 0.27508 0.90501
 C938 C 0.10372 0.25339 0.87915
 N939 N 0.07669 0.23448 0.87867
 C940 C 0.05446 0.23615 0.90296
 C941 C 0.05921 0.25808 0.92867
 N942 N 0.08622 0.27720 0.92897
 N943 N 0.13646 0.29292 0.90625
 C944 C 0.15954 0.28993 0.88287
 C945 C 0.15443 0.26852 0.85680
 N946 N 0.12648 0.25086 0.85549
 H947 H 0.03317 0.22066 0.90214
 H948 H 0.18158 0.30424 0.88451
 C949 C 0.59547 0.76025 0.38468
 C950 C 0.62002 0.73678 0.38857
 N951 N 0.61932 0.71666 0.41467
 C952 C 0.59525 0.71903 0.43715
 C953 C 0.57115 0.74308 0.43376
 N954 N 0.57192 0.76318 0.40753
 N955 N 0.59545 0.77958 0.35800
 C956 C 0.61896 0.77663 0.33506
 C957 C 0.64407 0.75377 0.33927
 N958 N 0.64400 0.73437 0.36606
 H959 H 0.59530 0.70276 0.45780
 H960 H 0.61845 0.79243 0.31406
 C961 C 0.89211 0.73316 0.90268
 C962 C 0.88707 0.76195 0.88500
 N963 N 0.90551 0.78851 0.89126
 C964 C 0.92893 0.78771 0.91440
 C965 C 0.93479 0.75872 0.93185
 N966 N 0.91608 0.73203 0.92543
 N967 N 0.87285 0.70691 0.89682
 C968 C 0.84899 0.70815 0.87390
 C969 C 0.84463 0.73672 0.85572
 N970 N 0.86385 0.76292 0.86172
 H971 H 0.94313 0.80949 0.91867
 H972 H 0.83413 0.68688 0.86935
 C973 C 0.40073 0.23488 0.39021
 C974 C 0.37453 0.25607 0.39606
 N975 N 0.37461 0.27500 0.42297
 C976 C 0.39978 0.27383 0.44426
 C977 C 0.42584 0.25238 0.43874
 N978 N 0.42564 0.23320 0.41185
 N979 N 0.40123 0.21701 0.36256
 C980 C 0.37678 0.21942 0.34047
 C981 C 0.35032 0.24027 0.34650
 N982 N 0.34981 0.25800 0.37433
 H983 H 0.39938 0.28932 0.46548
 H984 H 0.37781 0.20497 0.31856
 C985 C 0.09379 0.73980 0.11306
 C986 C 0.12060 0.76053 0.10871
 N987 N 0.12223 0.77966 0.08194
 C988 C 0.09825 0.77902 0.05927
 C989 C 0.07169 0.75784 0.06317
 N990 N 0.07013 0.73860 0.09004
 N991 N 0.09163 0.72161 0.14047
 C992 C 0.11513 0.72312 0.16368
 C993 C 0.14237 0.74330 0.15902
 N994 N 0.14439 0.76149 0.13150
 H995 H 0.10009 0.79460 0.03818
 H996 H 0.11288 0.70826 0.18523
 C997 C 0.60651 0.23402 0.59986
 C998 C 0.60364 0.25761 0.62436
 N999 N 0.57876 0.27929 0.62333
 C1000 C 0.55663 0.27852 0.59886
 C1001 C 0.55915 0.25463 0.57463
 N1002 N 0.58402 0.23281 0.57581
 N1003 N 0.63222 0.21332 0.60004
 C1004 C 0.65529 0.21516 0.62357
 C1005 C 0.65219 0.23838 0.64838
 N1006 N 0.62629 0.25900 0.64825
 H1007 H 0.53707 0.29617 0.59848
 H1008 H 0.67570 0.19853 0.62311
 C1009 C 0.88851 0.24092 0.09862
 C1010 C 0.88975 0.26527 0.12248
 N1011 N 0.91272 0.28893 0.12049
 C1012 C 0.93451 0.28936 0.09571
 C1013 C 0.93362 0.26472 0.07208
 N1014 N 0.91062 0.24100 0.07425
 N1015 N 0.86483 0.21796 0.09985
 C1016 C 0.84220 0.21829 0.12382
 C1017 C 0.84360 0.24238 0.14795
 N1018 N 0.86751 0.26527 0.14679
 H1019 H 0.95260 0.30847 0.09470
 H1020 H 0.82341 0.19982 0.12419
 C1021 C 0.41148 0.74662 0.61536
 C1022 C 0.38561 0.76843 0.61068
 N1023 N 0.38530 0.78796 0.58413
 C1024 C 0.40962 0.78651 0.56187
 C1025 C 0.43502 0.76398 0.56597
 N1026 N 0.43530 0.74454 0.59271
 N1027 N 0.41231 0.72783 0.64243
 C1028 C 0.38828 0.72971 0.66498
 C1029 C 0.36186 0.75081 0.65986
 N1030 N 0.36119 0.76969 0.63274
 H1031 H 0.40871 0.80217 0.54078
 H1032 H 0.38936 0.71430 0.68625
 C1033 C 0.24619 0.11765 0.91761
 C1034 C 0.22596 0.11314 0.89057
 N1035 N 0.20689 0.08621 0.88877
 C1036 C 0.20743 0.06335 0.91264
 C1037 C 0.22867 0.06714 0.93907
 N1038 N 0.24750 0.09435 0.94092
 N1039 N 0.26455 0.14502 0.91986
 C1040 C 0.26394 0.16794 0.89606
 C1041 C 0.24477 0.16285 0.86831
 N1042 N 0.22612 0.13550 0.86632
 H1043 H 0.19229 0.04191 0.91047
 H1044 H 0.27914 0.18934 0.89824
 C1045 C 0.73115 0.59426 0.38400
 C1046 C 0.75523 0.61833 0.38685
 N1047 N 0.77718 0.61655 0.41137
 C1048 C 0.77608 0.59183 0.43330
 C1049 C 0.75151 0.56816 0.43102
 N1050 N 0.72954 0.57003 0.40636
 N1051 N 0.71001 0.59532 0.35873
 C1052 C 0.71182 0.61942 0.33617
 C1053 C 0.73539 0.64396 0.33940
 N1054 N 0.75654 0.64283 0.36478
 H1055 H 0.79377 0.59107 0.45272
 H1056 H 0.69475 0.61971 0.31618
 C1057 C 0.76473 0.09570 0.10737
 C1058 C 0.73349 0.10653 0.11583
 N1059 N 0.70723 0.09484 0.09968
 C1060 C 0.71074 0.07284 0.07532
 C1061 C 0.74210 0.06245 0.06615
 N1062 N 0.76832 0.07428 0.08260
 N1063 N 0.79096 0.10687 0.12398
 C1064 C 0.78737 0.12867 0.14852
 C1065 C 0.75623 0.14012 0.15644
 N1066 N 0.72996 0.12885 0.13983
 H1067 H 0.68925 0.06399 0.06299
 H1068 H 0.80865 0.13771 0.16110
 C1069 C 0.25801 0.61593 0.59395
 C1070 C 0.27485 0.60979 0.62295
 N1071 N 0.29160 0.58154 0.62646
 C1072 C 0.29220 0.55904 0.60232
 C1073 C 0.27465 0.56468 0.57362
 N1074 N 0.25787 0.59307 0.57014
 N1075 N 0.24233 0.64476 0.59001
 C1076 C 0.24256 0.66767 0.61383
 C1077 C 0.25858 0.66117 0.64324
 N1078 N 0.27435 0.63227 0.64705
 H1079 H 0.30572 0.53668 0.60573
 H1080 H 0.22973 0.69039 0.61015
 C1081 C 0.74969 0.88485 0.90508
 C1082 C 0.77221 0.88908 0.87986
 N1083 N 0.79255 0.91514 0.88042
 C1084 C 0.79118 0.93732 0.90491
 C1085 C 0.76788 0.93367 0.92957
 N1086 N 0.74773 0.90739 0.92898
 N1087 N 0.73001 0.85836 0.90520
 C1088 C 0.73163 0.83591 0.88109
 C1089 C 0.75342 0.84051 0.85525
 N1090 N 0.77327 0.86709 0.85526
 H1091 H 0.80743 0.95804 0.90464
 H1092 H 0.71553 0.81508 0.88170
 C1093 C 0.25290 0.40142 0.39493
 C1094 C 0.27420 0.37492 0.39876
 N1095 N 0.29519 0.37456 0.42418
 C1096 C 0.29584 0.39947 0.44591
 C1097 C 0.27410 0.42569 0.44247
 N1098 N 0.25303 0.42591 0.41702
 N1099 N 0.23286 0.40255 0.36885
 C1100 C 0.23313 0.37842 0.34636
 C1101 C 0.25394 0.35154 0.35037
 N1102 N 0.27397 0.35035 0.37666
 H1103 H 0.31285 0.39862 0.46593
 H1104 H 0.21693 0.37995 0.32572
 C1105 C 0.22771 0.90126 0.11524
 C1106 C 0.25323 0.87863 0.11347
 N1107 N 0.27604 0.88163 0.08987
 C1108 C 0.27439 0.90618 0.06779
 C1109 C 0.24833 0.92825 0.06891
 N1110 N 0.22556 0.92521 0.09267
 N1111 N 0.20565 0.89907 0.13964
 C1112 C 0.20789 0.87512 0.16232
 C1113 C 0.23283 0.85189 0.16000
 N1114 N 0.25493 0.85421 0.13556
 H1115 H 0.29278 0.90800 0.04911
 H1116 H 0.19005 0.87381 0.18157
 C1117 C 0.75297 0.38330 0.58862
 C1118 C 0.73068 0.38764 0.61404
 N1119 N 0.71063 0.41390 0.61387
 C1120 C 0.71204 0.43620 0.58952
 C1121 C 0.73512 0.43252 0.56471
 N1122 N 0.75508 0.40608 0.56485
 N1123 N 0.77216 0.35641 0.58816
 C1124 C 0.77030 0.33378 0.61216
 C1125 C 0.74890 0.33868 0.63824
 N1126 N 0.72955 0.36558 0.63852
 H1127 H 0.69592 0.45703 0.58996
 H1128 H 0.78607 0.31269 0.61142
 C1129 C 0.09499 0.11577 0.76301
 C1130 C 0.12035 0.11208 0.78551
 N1131 N 0.11973 0.08658 0.80652
 C1132 C 0.09507 0.06443 0.80581
 C1133 C 0.07034 0.06743 0.78246
 N1134 N 0.07098 0.09317 0.76166
 N1135 N 0.09487 0.14175 0.74271
 C1136 C 0.11914 0.16418 0.74364
 C1137 C 0.14521 0.16004 0.76530
 N1138 N 0.14518 0.13398 0.78582
 H1139 H 0.09529 0.04415 0.82258
 H1140 H 0.11857 0.18456 0.72701
 C1141 C 0.59009 0.61269 0.24476
 C1142 C 0.61568 0.60813 0.22272
 N1143 N 0.61535 0.58185 0.20273
 C1144 C 0.59072 0.55973 0.20406
 C1145 C 0.56576 0.56367 0.22697
 N1146 N 0.56611 0.59017 0.24672
 N1147 N 0.58976 0.63940 0.26407
 C1148 C 0.61405 0.66174 0.26254
 C1149 C 0.64027 0.65676 0.24130
 N1150 N 0.64048 0.62998 0.22182
 H1151 H 0.59115 0.53878 0.18815
 H1152 H 0.61336 0.68274 0.27838
 C1153 C 0.08864 0.88078 0.26459
 C1154 C 0.11528 0.88601 0.24400
 N1155 N 0.11645 0.91334 0.22550
 C1156 C 0.09226 0.93588 0.22686
 C1157 C 0.06613 0.93128 0.24830
 N1158 N 0.06496 0.90372 0.26666
 N1159 N 0.08695 0.85288 0.28221
 C1160 C 0.11088 0.83005 0.28039
 C1161 C 0.13813 0.83580 0.26069
 N1162 N 0.13959 0.86371 0.24291
 H1163 H 0.09383 0.95757 0.21202
 H1164 H 0.10911 0.80811 0.29483
 C1165 C 0.59734 0.39056 0.73995
 C1166 C 0.62169 0.39142 0.71609
 N1167 N 0.62013 0.41417 0.69224
 C1168 C 0.59539 0.43618 0.69124
 C1169 C 0.57151 0.43592 0.71561
 N1170 N 0.57316 0.41305 0.73944
 N1171 N 0.59808 0.36705 0.76306
 C1172 C 0.62213 0.34436 0.76348
 C1173 C 0.64701 0.34562 0.74018
 N1174 N 0.64624 0.36924 0.71699
 H1175 H 0.59476 0.45415 0.67205
 H1176 H 0.62218 0.32584 0.78215
 C1177 C 0.90262 0.11049 0.24754
 C1178 C 0.87736 0.10660 0.27009
 N1179 N 0.87806 0.08098 0.29093
 C1180 C 0.90277 0.05893 0.29007
 C1181 C 0.92754 0.06223 0.26683
 N1182 N 0.92678 0.08804 0.24612
 N1183 N 0.90258 0.13661 0.22740
 C1184 C 0.87829 0.15902 0.22864
 C1185 C 0.85246 0.15477 0.25054
 N1186 N 0.85261 0.12853 0.27078
 H1187 H 0.90265 0.03861 0.30678
 H1188 H 0.87871 0.17954 0.21216
 C1189 C 0.40077 0.60599 0.74807
 C1190 C 0.37848 0.60840 0.72236
 N1191 N 0.38250 0.58944 0.69572
 C1192 C 0.40778 0.56814 0.69361
 C1193 C 0.42987 0.56531 0.71951
 N1194 N 0.42565 0.58432 0.74621
 N1195 N 0.39758 0.62582 0.77416
 C1196 C 0.37321 0.64813 0.77567
 C1197 C 0.35062 0.65037 0.75022
 N1198 N 0.35376 0.63034 0.72410
 H1199 H 0.41032 0.55324 0.67213
 H1200 H 0.37147 0.66404 0.79651
 C1201 C 0.90870 0.88574 0.77396
 C1202 C 0.88389 0.89089 0.75114
 N1203 N 0.88416 0.91825 0.73268
 C1204 C 0.90809 0.94083 0.73607
 C1205 C 0.93246 0.93623 0.75950
 N1206 N 0.93214 0.90871 0.77797
 N1207 N 0.90906 0.85775 0.79151
 C1208 C 0.88562 0.83471 0.78739
 C1209 C 0.86025 0.84026 0.76522
 N1210 N 0.86003 0.86833 0.74765
 H1211 H 0.90776 0.96247 0.72107
 H1212 H 0.88632 0.81269 0.80180
 C1213 C 0.40388 0.38361 0.24003
 C1214 C 0.37834 0.38973 0.26178
 N1215 N 0.37864 0.41737 0.27980
 C1216 C 0.40323 0.43932 0.27687
 C1217 C 0.42821 0.43375 0.25432
 N1218 N 0.42790 0.40593 0.23643
 N1219 N 0.40423 0.35547 0.22284
 C1220 C 0.38002 0.33322 0.22620
 C1221 C 0.35386 0.33975 0.24711
 N1222 N 0.35366 0.36795 0.26446
 H1223 H 0.40284 0.46129 0.29134
 H1224 H 0.38071 0.31106 0.21202
   
