data_POSCAR
  _audit_creation_date              2014-09-24
  _audit_creation_method            'ToBaCCo'
  _symmetry_space_group_name_H-M    'P1'
  _symmetry_Int_Tables_number       1
  _symmetry_cell_setting            triclinic
  loop_
  _symmetry_equiv_pos_as_xyz
 x,y,z
_cell_length_a 71.4031
_cell_length_b 71.3679
_cell_length_c 71.4535
_cell_angle_alpha 90.019600
_cell_angle_beta 90.013000
_cell_angle_gamma 90.022600
loop_
  _atom_site_label
  _atom_site_type_symbol
  _atom_site_fract_x
  _atom_site_fract_y
  _atom_site_fract_z
C1 C 0.35974 0.33644 0.33676
 N2 N 0.35196 0.35195 0.32901
 C3 C 0.33648 0.35973 0.33680
 N4 N 0.32870 0.35193 0.35228
 C5 C 0.33648 0.33642 0.36004
 N6 N 0.35196 0.32864 0.35224
 C7 C 0.36003 0.83656 -0.16359
 N8 N 0.35217 0.85203 -0.17137
 C9 C 0.33667 0.85977 -0.16356
 N10 N 0.32895 0.85196 -0.14806
 C11 C 0.33680 0.83650 -0.14028
 N12 N 0.35231 0.82876 -0.14809
 C13 C 0.85962 0.33677 -0.16389
 N14 N 0.85184 0.32901 -0.14840
 C15 C 0.83638 0.33683 -0.14061
 N16 N 0.82863 0.35235 -0.14837
 C17 C 0.83641 0.36012 -0.16386
 N18 N 0.85187 0.35229 -0.17166
 C19 C 0.86006 0.83617 0.33659
 N20 N 0.85221 0.85163 0.32880
 C21 C 0.83672 0.85939 0.33660
 N22 N 0.82900 0.85163 0.35211
 C23 C 0.83684 0.83617 0.35991
 N24 N 0.85233 0.82840 0.35211
 C25 C 0.64031 0.66337 0.33665
 N26 N 0.64808 0.64789 0.32883
 C27 C 0.66356 0.64006 0.33659
 N28 N 0.67133 0.64779 0.35212
 C29 C 0.66355 0.66326 0.35995
 N30 N 0.64808 0.67109 0.35218
 C31 C 0.64000 0.16347 -0.16423
 N32 N 0.64784 0.14802 -0.17204
 C33 C 0.66335 0.14025 -0.16426
 N34 N 0.67108 0.14802 -0.14874
 C35 C 0.66324 0.16348 -0.14092
 N36 N 0.64773 0.17123 -0.14871
 C37 C 0.14064 0.66296 -0.16361
 N38 N 0.14839 0.64745 -0.17141
 C39 C 0.16386 0.63962 -0.16363
 N40 N 0.17164 0.64737 -0.14812
 C41 C 0.16389 0.66287 -0.14032
 N42 N 0.14842 0.67070 -0.14811
 C43 C 0.13998 0.16338 0.33603
 N44 N 0.14782 0.14794 0.32820
 C45 C 0.16331 0.14015 0.33597
 N46 N 0.17103 0.14788 0.35152
 C47 C 0.16320 0.16332 0.35937
 N48 N 0.14771 0.17111 0.35159
 C49 C 0.64028 0.33673 0.66326
 N50 N 0.64808 0.32898 0.64776
 C51 C 0.66356 0.33680 0.63999
 N52 N 0.67132 0.35231 0.64780
 C53 C 0.66354 0.36006 0.66330
 N54 N 0.64805 0.35223 0.67106
 C55 C 0.63976 0.83668 1.16390
 N56 N 0.64749 0.82893 1.14838
 C57 C 0.66297 0.83672 1.14058
 N58 N 0.67079 0.85219 1.14838
 C59 C 0.66307 0.85996 1.16390
 N60 N 0.64758 0.85216 1.17170
 C61 C 0.13977 0.33607 1.16363
 N62 N 0.14756 0.32833 1.14813
 C63 C 0.16302 0.33617 1.14034
 N64 N 0.17077 0.35169 1.14813
 C65 C 0.16298 0.35944 1.16363
 N66 N 0.14752 0.35159 1.17142
 C67 C 0.14006 0.83660 0.66394
 N68 N 0.14778 0.82889 0.64839
 C69 C 0.16327 0.83669 0.64061
 N70 N 0.17112 0.85213 0.64846
 C71 C 0.16341 0.85984 0.66402
 N72 N 0.14792 0.85204 0.67179
 C73 C 0.35958 0.66364 0.66334
 N74 N 0.35180 0.64813 0.67109
 C75 C 0.33632 0.64032 0.66328
 N76 N 0.32856 0.64811 0.64779
 C77 C 0.33634 0.66362 0.64004
 N78 N 0.35181 0.67143 0.64785
 C79 C 0.36002 0.16352 1.16380
 N80 N 0.35228 0.17129 1.14828
 C81 C 0.33678 0.16352 1.14049
 N82 N 0.32894 0.14805 1.14829
 C83 C 0.33668 0.14028 1.16380
 N84 N 0.35218 0.14806 1.17159
 C85 C 0.85940 0.66315 1.16356
 N86 N 0.85162 0.67096 1.14809
 C87 C 0.83614 0.66317 1.14028
 N88 N 0.82836 0.64764 1.14801
 C89 C 0.83614 0.63982 1.16348
 N90 N 0.85163 0.64762 1.17129
 C91 C 0.85997 0.16335 0.66355
 N92 N 0.85223 0.17113 0.64804
 C93 C 0.83672 0.16339 0.64025
 N94 N 0.82887 0.14793 0.64804
 C95 C 0.83659 0.14014 0.66355
 N96 N 0.85211 0.14788 0.67134
 C97 C 0.33646 0.35953 0.66358
 N98 N 0.32868 0.35171 0.64810
 C99 C 0.33648 0.33620 0.64035
 N100 N 0.35199 0.32846 0.64814
 C101 C 0.35976 0.33628 0.66361
 N102 N 0.35196 0.35178 0.67137
 C103 C 0.33675 0.86049 0.16331
 N104 N 0.32895 0.85267 0.14785
 C105 C 0.33672 0.83716 0.14009
 N106 N 0.35222 0.82939 0.14787
 C107 C 0.36003 0.83721 0.16333
 N108 N 0.35225 0.85272 0.17109
 C109 C 0.83703 0.35959 0.16305
 N110 N 0.82925 0.35179 0.14757
 C111 C 0.83700 0.33626 0.13981
 N112 N 0.85248 0.32846 0.14761
 C113 C 0.86027 0.33626 0.16310
 N114 N 0.85251 0.35178 0.17085
 C115 C 0.83691 0.86038 0.66354
 N116 N 0.82913 0.85253 0.64809
 C117 C 0.83692 0.83702 0.64034
 N118 N 0.85243 0.82928 0.64814
 C119 C 0.86021 0.83713 0.66360
 N120 N 0.85242 0.85264 0.67133
 C121 C 0.66342 0.64053 0.66426
 N122 N 0.67122 0.64820 0.64872
 C123 C 0.66341 0.66361 0.64080
 N124 N 0.64789 0.67142 0.64847
 C125 C 0.64009 0.66375 0.66401
 N126 N 0.64790 0.64834 0.67193
 C127 C 0.66316 0.13969 0.16292
 N128 N 0.64766 0.14749 0.17066
 C129 C 0.63990 0.16298 0.16287
 N130 N 0.64771 0.17075 0.14740
 C131 C 0.66320 0.16296 0.13964
 N132 N 0.67096 0.14746 0.14744
 C133 C 0.16302 0.64026 0.16345
 N134 N 0.14754 0.64808 0.17121
 C135 C 0.13979 0.66359 0.16342
 N136 N 0.14760 0.67135 0.14794
 C137 C 0.16308 0.66354 0.14018
 N138 N 0.17083 0.64803 0.14797
 C139 C 0.16327 0.13917 0.66345
 N140 N 0.17105 0.14694 0.64796
 C141 C 0.16325 0.16241 0.64014
 N142 N 0.14774 0.17018 0.64790
 C143 C 0.13995 0.16242 0.66339
 N144 N 0.14776 0.14695 0.67120
 C145 C 0.33650 0.64050 0.33654
 N146 N 0.32873 0.64833 0.35200
 C147 C 0.33652 0.66384 0.35976
 N148 N 0.35203 0.67159 0.35197
 C149 C 0.35981 0.66377 0.33651
 N150 N 0.35200 0.64826 0.32875
 C151 C 0.33686 0.13955 0.83688
 N152 N 0.32908 0.14738 0.85234
 C153 C 0.33686 0.16290 0.86009
 N154 N 0.35235 0.17067 0.85231
 C155 C 0.36014 0.16285 0.83684
 N156 N 0.35236 0.14733 0.82910
 C157 C 0.83714 0.64041 0.83714
 N158 N 0.82935 0.64826 0.85259
 C159 C 0.83711 0.66382 0.86030
 N160 N 0.85258 0.67160 0.85248
 C161 C 0.86038 0.66375 0.83703
 N162 N 0.85262 0.64819 0.82933
 C163 C 0.83676 0.13972 0.33644
 N164 N 0.85227 0.14748 0.32868
 C165 C 0.86009 0.16296 0.33647
 N166 N 0.85232 0.17075 0.35196
 C167 C 0.83681 0.16300 0.35972
 N168 N 0.82899 0.14752 0.35193
 C169 C 0.66359 0.35965 0.33621
 N170 N 0.64809 0.35188 0.32843
 C171 C 0.64026 0.33640 0.33621
 N172 N 0.64802 0.32862 0.35171
 C173 C 0.66353 0.33639 0.35949
 N174 N 0.67135 0.35187 0.35170
 C175 C 0.66332 0.86070 0.83675
 N176 N 0.64780 0.85292 0.82901
 C177 C 0.64001 0.83743 0.83681
 N178 N 0.64781 0.82966 0.85229
 C179 C 0.66333 0.83744 0.86004
 N180 N 0.67112 0.85292 0.85223
 C181 C 0.16313 0.35952 0.83661
 N182 N 0.14766 0.35172 0.82879
 C183 C 0.13987 0.33620 0.83653
 N184 N 0.14763 0.32841 0.85201
 C185 C 0.16310 0.33620 0.85984
 N186 N 0.17089 0.35172 0.85210
 C187 C 0.16314 0.86069 0.33649
 N188 N 0.14765 0.85288 0.32873
 C189 C 0.13986 0.83740 0.33653
 N190 N 0.14765 0.82964 0.35203
 C191 C 0.16315 0.83744 0.35979
 N192 N 0.17093 0.85293 0.35199
 O193 O 0.22616 0.98264 0.25166
 O194 O 0.25200 1.01918 0.22598
 O195 O 0.25198 0.98263 0.22598
 O196 O 0.22616 1.01918 0.25164
 O197 O 0.24801 1.01920 0.27359
 O198 O 0.27383 0.98265 0.24793
 O199 O 0.27384 1.01919 0.24792
 O200 O 0.24801 0.98266 0.27361
 Cu201 Cu 0.23687 1.00091 0.23660
 Cu202 Cu 0.26313 1.00093 0.26297
 C203 C 0.23276 0.97644 0.26694
 C204 C 0.26725 1.02540 0.23265
 C205 C 0.26723 0.97643 0.23265
 C206 C 0.23276 1.02540 0.26691
 O207 O 0.27358 0.48171 0.74812
 O208 O 0.24788 0.51827 0.77388
 O209 O 0.24787 0.48173 0.77390
 O210 O 0.27358 0.51825 0.74808
 O211 O 0.25164 0.51823 0.72624
 O212 O 0.22592 0.48171 0.75205
 O213 O 0.22593 0.51825 0.75203
 O214 O 0.25164 0.48168 0.72627
 Cu215 Cu 0.26294 0.49999 0.76320
 Cu216 Cu 0.23657 0.49996 0.73694
 C217 C 0.26692 0.47548 0.73288
 C218 C 0.23260 0.52448 0.76727
 C219 C 0.23259 0.47551 0.76729
 C220 C 0.26692 0.52445 0.73283
 O221 O 0.72590 0.01774 0.24790
 O222 O 0.75165 -0.01877 0.27368
 O223 O 0.75169 0.01777 0.27363
 O224 O 0.72585 -0.01880 0.24797
 O225 O 0.74771 -0.01887 0.22606
 O226 O 0.77356 0.01771 0.25171
 O227 O 0.77352 -0.01883 0.25177
 O228 O 0.74777 0.01768 0.22599
 Cu229 Cu 0.73656 -0.00051 0.26301
 Cu230 Cu 0.76285 -0.00058 0.23667
 C231 C 0.73252 0.02392 0.23263
 C232 C 0.76690 -0.02501 0.26704
 C233 C 0.76696 0.02395 0.26697
 C234 C 0.73245 -0.02505 0.23272
 O235 O 0.72646 0.51834 0.74886
 O236 O 0.75229 0.48163 0.77426
 O237 O 0.75232 0.51817 0.77450
 O238 O 0.72646 0.48180 0.74858
 O239 O 0.74829 0.48195 0.72663
 O240 O 0.77414 0.51831 0.75255
 O241 O 0.77412 0.48177 0.75231
 O242 O 0.74829 0.51849 0.72690
 Cu243 Cu 0.73718 0.49996 0.76377
 Cu244 Cu 0.76341 0.50014 0.73738
 C245 C 0.73305 0.52466 0.73363
 C246 C 0.76753 0.47546 0.76754
 C247 C 0.76756 0.52443 0.76786
 C248 C 0.73304 0.47569 0.73326
 O249 O 0.22581 0.51822 0.24825
 O250 O 0.25161 0.48174 0.27402
 O251 O 0.25160 0.51828 0.27397
 O252 O 0.22581 0.48168 0.24830
 O253 O 0.24769 0.48166 0.22639
 O254 O 0.27348 0.51825 0.25206
 O255 O 0.27348 0.48171 0.25211
 O256 O 0.24769 0.51820 0.22634
 Cu257 Cu 0.23650 0.49999 0.26334
 Cu258 Cu 0.26279 0.49995 0.23702
 C259 C 0.23243 0.52442 0.23298
 C260 C 0.26687 0.47552 0.26738
 C261 C 0.26686 0.52449 0.26731
 C262 C 0.23243 0.47545 0.23305
 O263 O 0.75198 1.01907 0.72594
 O264 O 0.72621 0.98257 0.75174
 O265 O 0.72618 1.01911 0.75164
 O266 O 0.75200 0.98253 0.72603
 O267 O 0.77388 0.98262 0.74794
 O268 O 0.74805 1.01920 0.77356
 O269 O 0.74809 0.98266 0.77366
 O270 O 0.77385 1.01916 0.74786
 Cu271 Cu 0.73689 1.00081 0.73662
 Cu272 Cu 0.76317 1.00092 0.76297
 C273 C 0.76723 1.02532 0.73258
 C274 C 0.73283 0.97641 0.76702
 C275 C 0.73278 1.02537 0.76689
 C276 C 0.76727 0.97636 0.73269
 O277 O 0.74838 0.51826 0.27336
 O278 O 0.77417 0.48178 0.24758
 O279 O 0.77409 0.51833 0.24758
 O280 O 0.74844 0.48172 0.27334
 O281 O 0.72651 0.48167 0.25148
 O282 O 0.75216 0.51827 0.22572
 O283 O 0.75224 0.48173 0.22572
 O284 O 0.72644 0.51821 0.25150
 Cu285 Cu 0.76348 0.50003 0.26267
 Cu286 Cu 0.73713 0.49997 0.23640
 C287 C 0.73309 0.52444 0.26675
 C288 C 0.76752 0.47555 0.23233
 C289 C 0.76742 0.52452 0.23234
 C290 C 0.73317 0.47548 0.26673
 O291 O 0.24812 -0.01920 0.72656
 O292 O 0.27392 0.01736 0.75226
 O293 O 0.27391 -0.01918 0.75228
 O294 O 0.24814 0.01733 0.72653
 O295 O 0.22626 0.01735 0.74843
 O296 O 0.25203 -0.01917 0.77418
 O297 O 0.25204 0.01737 0.77417
 O298 O 0.22624 -0.01919 0.74846
 Cu299 Cu 0.26323 -0.00093 0.73720
 Cu300 Cu 0.23693 -0.00091 0.76352
 C301 C 0.23285 -0.02541 0.73320
 C302 C 0.26730 0.02358 0.76752
 C303 C 0.26729 -0.02538 0.76754
 C304 C 0.23288 0.02355 0.73317
 O305 O 0.24792 0.27357 0.98182
 O306 O 0.27381 0.24797 1.01834
 O307 O 0.27378 0.24790 0.98184
 O308 O 0.24794 0.27362 1.01832
 O309 O 0.22613 0.25161 1.01835
 O310 O 0.25197 0.22590 0.98188
 O311 O 0.25199 0.22596 1.01837
 O312 O 0.22611 0.25156 0.98185
 Cu313 Cu 0.26306 0.26299 1.00008
 Cu314 Cu 0.23685 0.23654 1.00012
 C315 C 0.23268 0.26686 0.97563
 C316 C 0.26724 0.23267 1.02457
 C317 C 0.26721 0.23259 0.97566
 C318 C 0.23270 0.26692 1.02454
 O319 O 0.24784 0.77445 0.48175
 O320 O 0.27357 0.74860 0.51819
 O321 O 0.27360 0.74869 0.48170
 O322 O 0.24780 0.77435 0.51825
 O323 O 0.22591 0.75243 0.51816
 O324 O 0.25170 0.72677 0.48161
 O325 O 0.25168 0.72668 0.51811
 O326 O 0.22594 0.75253 0.48166
 Cu327 Cu 0.26291 0.76374 0.49998
 Cu328 Cu 0.23660 0.73739 0.49987
 C329 C 0.23258 0.76782 0.47550
 C330 C 0.26694 0.73331 0.52435
 C331 C 0.26697 0.73343 0.47544
 C332 C 0.23254 0.76769 0.52442
 O333 O 0.27407 0.75179 -0.01816
 O334 O 0.24822 0.72612 0.01834
 O335 O 0.24834 0.72598 -0.01816
 O336 O 0.27396 0.75192 0.01834
 O337 O 0.25204 0.77380 0.01820
 O338 O 0.22642 0.74786 -0.01830
 O339 O 0.22630 0.74800 0.01819
 O340 O 0.25215 0.77368 -0.01830
 Cu341 Cu 0.26336 0.73674 0.00011
 Cu342 Cu 0.23702 0.76304 -0.00007
 C343 C 0.26744 0.76704 -0.02443
 C344 C 0.23293 0.73276 0.02447
 C345 C 0.23309 0.73258 -0.02444
 C346 C 0.26730 0.76721 0.02448
 O347 O 0.27362 0.25142 0.48181
 O348 O 0.24788 0.22554 0.51824
 O349 O 0.24785 0.22565 0.48174
 O350 O 0.27364 0.25133 0.51831
 O351 O 0.25174 0.27323 0.51839
 O352 O 0.22595 0.24756 0.48182
 O353 O 0.22599 0.24744 0.51832
 O354 O 0.25173 0.27333 0.48189
 Cu355 Cu 0.26296 0.23627 0.50002
 Cu356 Cu 0.23664 0.26260 0.50011
 C357 C 0.26698 0.26671 0.47566
 C358 C 0.23263 0.23215 0.52447
 C359 C 0.23258 0.23231 0.47556
 C360 C 0.26701 0.26658 0.52456
 O361 O 0.75183 0.72668 0.98186
 O362 O 0.72590 0.75228 1.01835
 O363 O 0.72605 0.75242 0.98185
 O364 O 0.75167 0.72653 1.01835
 O365 O 0.77356 0.74846 1.01855
 O366 O 0.74794 0.77435 0.98204
 O367 O 0.74779 0.77421 1.01854
 O368 O 0.77372 0.74861 0.98205
 Cu369 Cu 0.73665 0.73727 1.00008
 Cu370 Cu 0.76296 0.76362 1.00031
 C371 C 0.76712 0.73335 0.97575
 C372 C 0.73250 0.76754 1.02465
 C373 C 0.73270 0.76773 0.97574
 C374 C 0.76690 0.73315 1.02465
 O375 O 0.74827 0.27374 0.48156
 O376 O 0.77406 0.24807 0.51810
 O377 O 0.77404 0.24798 0.48160
 O378 O 0.74830 0.27384 0.51805
 O379 O 0.72640 0.25191 0.51811
 O380 O 0.75214 0.22606 0.48165
 O381 O 0.75216 0.22615 0.51815
 O382 O 0.72637 0.25182 0.48161
 Cu383 Cu 0.76338 0.26312 0.49982
 Cu384 Cu 0.73706 0.23677 0.49988
 C385 C 0.73300 0.26708 0.47537
 C386 C 0.76742 0.23281 0.52434
 C387 C 0.76740 0.23269 0.47542
 C388 C 0.73304 0.26720 0.52428
 O389 O 0.77371 0.25183 -0.01873
 O390 O 0.74801 0.22595 0.01774
 O391 O 0.74793 0.22606 -0.01876
 O392 O 0.77381 0.25170 0.01777
 O393 O 0.75193 0.27363 0.01790
 O394 O 0.72605 0.24799 -0.01863
 O395 O 0.72613 0.24787 0.01786
 O396 O 0.75183 0.27375 -0.01860
 Cu397 Cu 0.76307 0.23668 -0.00051
 Cu398 Cu 0.73678 0.26302 -0.00035
 C399 C 0.76707 0.26713 -0.02486
 C400 C 0.73277 0.23258 0.02400
 C401 C 0.73266 0.23273 -0.02491
 C402 C 0.76720 0.26696 0.02404
 O403 O 0.77408 0.75165 0.48212
 O404 O 0.74827 0.72598 0.51865
 O405 O 0.74828 0.72591 0.48215
 O406 O 0.77406 0.75174 0.51862
 O407 O 0.75218 0.77367 0.51856
 O408 O 0.72641 0.74784 0.48209
 O409 O 0.72639 0.74791 0.51859
 O410 O 0.75220 0.77358 0.48207
 Cu411 Cu 0.76338 0.73661 0.50039
 Cu412 Cu 0.73709 0.76296 0.50032
 C413 C 0.76746 0.76692 0.47588
 C414 C 0.73301 0.73264 0.52483
 C415 C 0.73303 0.73255 0.47592
 C416 C 0.76743 0.76704 0.52479
 O417 O 0.98222 0.25146 0.22604
 O418 O 1.01876 0.22572 0.25179
 O419 O 0.98223 0.22570 0.25179
 O420 O 1.01875 0.25148 0.22604
 O421 O 1.01875 0.27340 0.24792
 O422 O 0.98224 0.24763 0.27367
 O423 O 1.01876 0.24765 0.27367
 O424 O 0.98223 0.27339 0.24792
 Cu425 Cu 1.00049 0.23638 0.23671
 Cu426 Cu 1.00050 0.26273 0.26300
 C427 C 0.97602 0.26673 0.23267
 C428 C 1.02497 0.23237 0.26704
 C429 C 0.97602 0.23235 0.26704
 C430 C 1.02496 0.26676 0.23266
 O431 O 0.48194 0.25161 0.72624
 O432 O 0.51854 0.22582 0.75184
 O433 O 0.48202 0.22580 0.75194
 O434 O 0.51846 0.25163 0.72614
 O435 O 0.51851 0.27352 0.74807
 O436 O 0.48207 0.24768 0.77386
 O437 O 0.51860 0.24770 0.77376
 O438 O 0.48199 0.27349 0.74816
 Cu439 Cu 0.50023 0.23651 0.73683
 Cu440 Cu 0.50030 0.26280 0.76317
 C441 C 0.47574 0.26687 0.73291
 C442 C 0.52480 0.23244 0.76709
 C443 C 0.47585 0.23241 0.76722
 C444 C 0.52468 0.26690 0.73278
 O445 O -0.01867 0.22562 0.74777
 O446 O 0.01788 0.25140 0.77350
 O447 O -0.01864 0.25147 0.77345
 O448 O 0.01785 0.22555 0.74782
 O449 O 0.01792 0.24740 0.72588
 O450 O -0.01856 0.27332 0.75150
 O451 O 0.01796 0.27324 0.75156
 O452 O -0.01860 0.24746 0.72583
 Cu453 Cu -0.00040 0.23630 0.76285
 Cu454 Cu -0.00031 0.26256 0.73648
 C455 C -0.02485 0.23222 0.73250
 C456 C 0.02413 0.26664 0.76684
 C457 C -0.02480 0.26674 0.76677
 C458 C 0.02410 0.23213 0.73256
 O459 O 0.51810 0.25164 0.27348
 O460 O 0.48149 0.22586 0.24783
 O461 O 0.51801 0.22587 0.24772
 O462 O 0.48158 0.25163 0.27359
 O463 O 0.48151 0.27355 0.25171
 O464 O 0.51795 0.24779 0.22585
 O465 O 0.48142 0.24778 0.22596
 O466 O 0.51803 0.27356 0.25161
 Cu467 Cu 0.49980 0.23654 0.26286
 Cu468 Cu 0.49972 0.26288 0.23658
 C469 C 0.52429 0.26692 0.26684
 C470 C 0.47523 0.23250 0.23260
 C471 C 0.52418 0.23252 0.23245
 C472 C 0.47535 0.26691 0.26698
 O473 O 1.01877 0.72644 0.75189
 O474 O 0.98226 0.75234 0.72627
 O475 O 1.01878 0.75227 0.72620
 O476 O 0.98225 0.72653 0.75197
 O477 O 0.98236 0.74841 0.77390
 O478 O 1.01889 0.77415 0.74813
 O479 O 0.98236 0.77422 0.74820
 O480 O 1.01888 0.74832 0.77382
 Cu481 Cu 1.00050 0.73719 0.73687
 Cu482 Cu 1.00063 0.76348 0.76322
 C483 C 1.02503 0.73304 0.76714
 C484 C 0.97610 0.76762 0.73295
 C485 C 1.02505 0.76752 0.73285
 C486 C 0.97609 0.73316 0.76725
 O487 O 0.51853 0.77425 0.24811
 O488 O 0.48196 0.74848 0.27378
 O489 O 0.51848 0.74845 0.27382
 O490 O 0.48201 0.77428 0.24808
 O491 O 0.48200 0.75239 0.22616
 O492 O 0.51847 0.72656 0.25191
 O493 O 0.48195 0.72659 0.25187
 O494 O 0.51852 0.75236 0.22620
 Cu495 Cu 0.50025 0.76357 0.26316
 Cu496 Cu 0.50024 0.73726 0.23682
 C497 C 0.52475 0.76762 0.23285
 C498 C 0.47574 0.73322 0.26713
 C499 C 0.52468 0.73318 0.26718
 C500 C 0.47580 0.76766 0.23281
 O501 O 0.01787 0.75226 0.27396
 O502 O -0.01865 0.72635 0.24831
 O503 O 0.01787 0.72647 0.24823
 O504 O -0.01865 0.75215 0.27404
 O505 O -0.01877 0.77404 0.25215
 O506 O 0.01776 0.74836 0.22633
 O507 O -0.01876 0.74825 0.22641
 O508 O 0.01776 0.77416 0.25206
 Cu509 Cu -0.00038 0.73710 0.26334
 Cu510 Cu -0.00051 0.76341 0.23703
 C511 C 0.02402 0.76755 0.26731
 C512 C -0.02491 0.73296 0.23306
 C513 C 0.02403 0.73311 0.23296
 C514 C -0.02492 0.76739 0.26742
 O515 O 0.48137 0.77444 0.75215
 O516 O 0.51793 0.74869 0.72644
 O517 O 0.48141 0.74865 0.72641
 O518 O 0.51790 0.77448 0.75218
 O519 O 0.51790 0.75258 0.77407
 O520 O 0.48141 0.72675 0.74830
 O521 O 0.51793 0.72679 0.74833
 O522 O 0.48138 0.75254 0.77404
 Cu523 Cu 0.49965 0.76378 0.73709
 Cu524 Cu 0.49966 0.73745 0.76339
 C525 C 0.47516 0.76780 0.76740
 C526 C 0.52415 0.73343 0.73308
 C527 C 0.47521 0.73338 0.73304
 C528 C 0.52411 0.76785 0.76744
 C529 C 0.40476 0.31169 0.31193
 N530 N 0.41204 0.31888 0.29594
 N531 N 0.42625 0.31033 0.28737
 C532 C 0.43359 0.29434 0.29452
 N533 N 0.42632 0.28716 0.31052
 N534 N 0.41211 0.29571 0.31910
 C535 C 0.38911 0.32058 0.32086
 C536 C 0.37579 0.32790 0.32820
 C537 C 0.44852 0.28485 0.28500
 C538 C 0.46087 0.27673 0.27685
 C539 C 0.40431 0.81243 0.81210
 N540 N 0.41131 0.81937 0.79587
 N541 N 0.42556 0.81087 0.78734
 C542 C 0.43325 0.79517 0.79478
 N543 N 0.42627 0.78824 0.81101
 N544 N 0.41201 0.79674 0.81954
 C545 C 0.38861 0.82126 0.82099
 C546 C 0.37525 0.82853 0.82831
 C547 C 0.44823 0.78571 0.78530
 C548 C 0.46063 0.77761 0.77720
 C549 C -0.09540 0.31187 0.81135
 N550 N -0.08856 0.31856 0.79496
 N551 N -0.07436 0.30995 0.78644
 C552 C -0.06658 0.29439 0.79406
 N553 N -0.07340 0.28772 0.81047
 N554 N -0.08760 0.29633 0.81899
 C555 C -0.11104 0.32082 0.82024
 C556 C -0.12434 0.32819 0.82756
 C557 C -0.05165 0.28481 0.78462
 C558 C -0.03929 0.27663 0.77655
 C559 C -0.09570 0.81197 0.31227
 N560 N -0.08831 0.81927 0.29638
 N561 N -0.07407 0.81077 0.28783
 C562 C -0.06679 0.79471 0.29491
 N563 N -0.07417 0.78743 0.31081
 N564 N -0.08841 0.79593 0.31936
 C565 C -0.11139 0.82082 0.32117
 C566 C -0.12474 0.82811 0.32850
 C567 C -0.05183 0.78526 0.28539
 C568 C -0.03944 0.77718 0.27726
 C569 C 0.59530 0.68824 0.31193
 N570 N 0.58795 0.70420 0.31916
 N571 N 0.57374 0.71277 0.31062
 C572 C 0.56645 0.70565 0.29459
 N573 N 0.57379 0.68968 0.28737
 N574 N 0.58800 0.68111 0.29591
 C575 C 0.61095 0.67931 0.32082
 C576 C 0.62426 0.67195 0.32813
 C577 C 0.55152 0.71518 0.28511
 C578 C 0.53916 0.72332 0.27700
 C579 C 0.59570 0.18770 0.81157
 N580 N 0.58843 0.18059 0.79553
 N581 N 0.57416 0.18912 0.78704
 C582 C 0.56674 0.20501 0.79434
 N583 N 0.57401 0.21211 0.81039
 N584 N 0.58827 0.20358 0.81887
 C585 C 0.61141 0.17882 0.82041
 C586 C 0.62478 0.17153 0.82770
 C587 C 0.55175 0.21450 0.78491
 C588 C 0.53934 0.22262 0.77684
 C589 C 1.09565 0.68790 0.81170
 N590 N 1.08838 0.70390 0.81893
 N591 N 1.07418 0.71252 0.81043
 C592 C 1.06681 0.70540 0.79444
 N593 N 1.07407 0.68940 0.78721
 N594 N 1.08827 0.68078 0.79571
 C595 C 1.11129 0.67893 0.82055
 C596 C 1.12460 0.67155 0.82786
 C597 C 1.05188 0.71497 0.78499
 C598 C 1.03952 0.72315 0.77692
 C599 C 1.09574 0.18766 0.31178
 N600 N 1.08824 0.18032 0.29596
 N601 N 1.07400 0.18885 0.28742
 C602 C 1.06683 0.20497 0.29447
 N603 N 1.07432 0.21230 0.31031
 N604 N 1.08856 0.20377 0.31884
 C605 C 1.11143 0.17878 0.32066
 C606 C 1.12477 0.17147 0.32796
 C607 C 1.05187 0.21445 0.28498
 C608 C 1.03948 0.22256 0.27686
 C609 C 0.59527 0.31185 0.68797
 N610 N 0.58763 0.31927 0.70369
 N611 N 0.57343 0.31068 0.71223
 C612 C 0.56643 0.29443 0.70531
 N613 N 0.57405 0.28702 0.68958
 N614 N 0.58826 0.29560 0.68104
 C615 C 0.61092 0.32079 0.67909
 C616 C 0.62423 0.32815 0.67177
 C617 C 0.55151 0.28490 0.71482
 C618 C 0.53916 0.27676 0.72294
 C619 C 0.59554 0.81239 0.18818
 N620 N 0.58813 0.81964 0.20409
 N621 N 0.57389 0.81110 0.21261
 C622 C 0.56663 0.79505 0.20549
 N623 N 0.57402 0.78780 0.18957
 N624 N 0.58826 0.79634 0.18105
 C625 C 0.61122 0.82128 0.17931
 C626 C 0.62456 0.82860 0.17199
 C627 C 0.55166 0.78556 0.21496
 C628 C 0.53927 0.77745 0.22306
 C629 C 1.09562 0.31164 0.18789
 N630 N 1.08798 0.31906 0.20361
 N631 N 1.07377 0.31049 0.21215
 C632 C 1.06676 0.29423 0.20522
 N633 N 1.07438 0.28682 0.18949
 N634 N 1.08860 0.29540 0.18095
 C635 C 1.11127 0.32057 0.17901
 C636 C 1.12459 0.32794 0.17170
 C637 C 1.05182 0.28472 0.21472
 C638 C 1.03945 0.27659 0.22284
 C639 C 1.09582 0.81227 0.68814
 N640 N 1.08800 0.81986 0.70369
 N641 N 1.07375 0.81131 0.71221
 C642 C 1.06691 0.79493 0.70543
 N643 N 1.07472 0.78736 0.68987
 N644 N 1.08896 0.79590 0.68136
 C645 C 1.11151 0.82118 0.67929
 C646 C 1.12486 0.82851 0.67200
 C647 C 1.05195 0.78544 0.71492
 C648 C 1.03956 0.77733 0.72303
 C649 C 0.40458 0.68847 0.68818
 N650 N 0.41198 0.70441 0.68096
 N651 N 0.42618 0.71298 0.68952
 C652 C 0.43342 0.70586 0.70557
 N653 N 0.42604 0.68991 0.71278
 N654 N 0.41184 0.68134 0.70421
 C655 C 0.38894 0.67955 0.67926
 C656 C 0.37562 0.67220 0.67191
 C657 C 0.44835 0.71538 0.71508
 C658 C 0.46072 0.72352 0.72320
 C659 C 0.40431 0.18776 0.18804
 N660 N 0.41145 0.18075 0.20417
 N661 N 0.42572 0.18928 0.21268
 C662 C 0.43327 0.20508 0.20531
 N663 N 0.42614 0.21208 0.18916
 N664 N 0.41188 0.20355 0.18066
 C665 C 0.38860 0.17889 0.17918
 C666 C 0.37524 0.17159 0.17187
 C667 C 0.44827 0.21456 0.21475
 C668 C 0.46068 0.22268 0.22283
 C669 C -0.09557 0.68795 0.18837
 N670 N -0.08787 0.70362 0.18087
 N671 N -0.07366 0.71219 0.18941
 C672 C -0.06672 0.70537 0.20571
 N673 N -0.07440 0.68969 0.21320
 N674 N -0.08861 0.68111 0.20466
 C675 C -0.11123 0.67903 0.17946
 C676 C -0.12455 0.67169 0.17212
 C677 C -0.05178 0.71491 0.21518
 C678 C -0.03941 0.72307 0.22328
 C679 C -0.09572 0.18752 0.68782
 N680 N -0.08818 0.20335 0.68049
 N681 N -0.07392 0.21187 0.68901
 C682 C -0.06676 0.20481 0.70512
 N683 N -0.07429 0.18897 0.71243
 N684 N -0.08855 0.18045 0.70391
 C685 C -0.11143 0.17867 0.67894
 C686 C -0.12480 0.17139 0.67163
 C687 C -0.05178 0.21429 0.71459
 C688 C -0.03938 0.22240 0.72269
 C689 C 0.31170 0.40483 0.31213
 N690 N 0.31907 0.41241 0.29636
 N691 N 0.31051 0.42664 0.28783
 C692 C 0.29433 0.43372 0.29481
 N693 N 0.28698 0.42615 0.31060
 N694 N 0.29553 0.41193 0.31913
 C695 C 0.32061 0.38916 0.32100
 C696 C 0.32794 0.37581 0.32830
 C697 C 0.28483 0.44866 0.28532
 C698 C 0.27670 0.46103 0.27721
 C699 C 0.31220 -0.09607 0.81223
 N700 N 0.31969 -0.08829 0.79662
 N701 N 0.31111 -0.07407 0.78810
 C702 C 0.29477 -0.06721 0.79494
 N703 N 0.28729 -0.07498 0.81056
 N704 N 0.29587 -0.08920 0.81907
 C705 C 0.32115 -0.11173 0.82108
 C706 C 0.32852 -0.12506 0.82837
 C707 C 0.28525 -0.05226 0.78546
 C708 C 0.27712 -0.03989 0.77736
 C709 C 0.81224 0.40445 0.81194
 N710 N 0.81926 0.41161 0.79582
 N711 N 0.81075 0.42589 0.78733
 C712 C 0.79496 0.43344 0.79470
 N713 N 0.78795 0.42630 0.81083
 N714 N 0.79646 0.41202 0.81932
 C715 C 0.82109 0.38873 0.82079
 C716 C 0.82837 0.37536 0.82808
 C717 C 0.78549 0.44845 0.78528
 C718 C 0.77738 0.46089 0.77724
 C719 C 0.81180 -0.09563 0.31184
 N720 N 0.81920 -0.08801 0.29610
 N721 N 0.81061 -0.07380 0.28756
 C722 C 0.79438 -0.06680 0.29449
 N723 N 0.78700 -0.07441 0.31024
 N724 N 0.79558 -0.08861 0.31879
 C725 C 0.82076 -0.11127 0.32073
 C726 C 0.82813 -0.12457 0.32805
 C727 C 0.78486 -0.05187 0.28500
 C728 C 0.77673 -0.03950 0.27688
 C729 C 0.31159 0.59520 0.68798
 N730 N 0.29532 0.58819 0.68111
 N731 N 0.28679 0.57396 0.68966
 C732 C 0.29428 0.56629 0.70533
 N733 N 0.31057 0.57328 0.71219
 N734 N 0.31909 0.58752 0.70364
 C735 C 0.32047 0.61089 0.67909
 C736 C 0.32779 0.62424 0.67179
 C737 C 0.28482 0.55134 0.71485
 C738 C 0.27672 0.53896 0.72299
 C739 C 0.31224 1.09611 0.18805
 N740 N 0.29626 1.08881 0.18083
 N741 N 0.28766 1.07458 0.18933
 C742 C 0.29480 1.06723 0.20532
 N743 N 0.31079 1.07452 0.21253
 N744 N 0.31938 1.08875 0.20402
 C745 C 0.32119 1.11177 0.17919
 C746 C 0.32855 1.12510 0.17188
 C747 C 0.28526 1.05228 0.21477
 C748 C 0.27711 1.03990 0.22286
 C749 C 0.81193 0.59547 0.18763
 N750 N 0.81952 0.58769 0.20319
 N751 N 0.81103 0.57341 0.21171
 C752 C 0.79469 0.56649 0.20492
 N753 N 0.78711 0.57426 0.18934
 N754 N 0.79561 0.58853 0.18082
 C755 C 0.82078 0.61120 0.17878
 C756 C 0.82808 0.62458 0.17150
 C757 C 0.78526 0.55149 0.21440
 C758 C 0.77720 0.53907 0.22252
 C759 C 0.81213 1.09599 0.68781
 N760 N 0.79590 1.08897 0.68086
 N761 N 0.78732 1.07475 0.68939
 C762 C 0.79471 1.06713 0.70513
 N763 N 0.81095 1.07414 0.71207
 N764 N 0.81953 1.08835 0.70354
 C765 C 0.82108 1.11164 0.67894
 C766 C 0.82845 1.12496 0.67163
 C767 C 0.78519 1.05219 0.71462
 C768 C 0.77706 1.03982 0.72274
 C769 C 0.68826 0.59505 0.31167
 N770 N 0.68169 0.58847 0.29512
 N771 N 0.69023 0.57426 0.28653
 C772 C 0.70560 0.56621 0.29424
 N773 N 0.71217 0.57278 0.31081
 N774 N 0.70363 0.58698 0.31939
 C775 C 0.67939 0.61070 0.32063
 C776 C 0.67209 0.62402 0.32801
 C777 C 0.71511 0.55128 0.28473
 C778 C 0.72325 0.53892 0.27659
 C779 C 0.68779 1.09611 0.81145
 N780 N 0.68078 1.08889 0.79534
 N781 N 0.68937 1.07467 0.78684
 C782 C 0.70523 1.06724 0.79418
 N783 N 0.71223 1.07444 0.81030
 N784 N 0.70364 1.08866 0.81880
 C785 C 0.67884 1.11177 0.82032
 C786 C 0.67148 1.12509 0.82764
 C787 C 0.71477 1.05228 0.78473
 C788 C 0.72292 1.03989 0.77666
 C789 C 0.18805 0.59533 0.81209
 N790 N 0.18044 0.58754 0.79653
 N791 N 0.18894 0.57328 0.78798
 C792 C 0.20529 0.56639 0.79474
 N793 N 0.21289 0.57416 0.81031
 N794 N 0.20439 0.58842 0.81886
 C795 C 0.17919 0.61103 0.82097
 C796 C 0.17191 0.62440 0.82829
 C797 C 0.21473 0.55141 0.78523
 C798 C 0.22281 0.53901 0.77710
 C799 C 0.18775 1.09605 0.31159
 N800 N 0.18094 1.08910 0.29528
 N801 N 0.18953 1.07490 0.28675
 C802 C 0.20519 1.06722 0.29426
 N803 N 0.21199 1.07416 0.31058
 N804 N 0.20340 1.08836 0.31912
 C805 C 0.17880 1.11169 0.32050
 C806 C 0.17144 1.12500 0.32785
 C807 C 0.21474 1.05228 0.28480
 C808 C 0.22290 1.03991 0.27671
 C809 C 0.68823 0.40513 0.68818
 N810 N 0.68121 0.41218 0.70435
 N811 N 0.68975 0.42639 0.71295
 C812 C 0.70555 0.43397 0.70564
 N813 N 0.71256 0.42693 0.68946
 N814 N 0.70402 0.41272 0.68086
 C815 C 0.67936 0.38946 0.67923
 C816 C 0.67206 0.37613 0.67187
 C817 C 0.71506 0.44889 0.71520
 C818 C 0.72319 0.46123 0.72337
 C819 C 0.68746 -0.09583 0.18816
 N820 N 0.70310 -0.08813 0.18062
 N821 N 0.71169 -0.07389 0.18913
 C822 C 0.70489 -0.06693 0.20543
 N823 N 0.68923 -0.07462 0.21296
 N824 N 0.68065 -0.08885 0.20445
 C825 C 0.67853 -0.11151 0.17929
 C826 C 0.67118 -0.12485 0.17198
 C827 C 0.71443 -0.05196 0.21487
 C828 C 0.72259 -0.03957 0.22294
 C829 C 0.18765 0.40459 0.18840
 N830 N 0.18091 0.41140 0.20479
 N831 N 0.18944 0.42566 0.21332
 C832 C 0.20497 0.43353 0.20571
 N833 N 0.21169 0.42672 0.18931
 N834 N 0.20316 0.41247 0.18078
 C835 C 0.17878 0.38889 0.17950
 C836 C 0.17148 0.37553 0.17218
 C837 C 0.21447 0.44851 0.21517
 C838 C 0.22259 0.46091 0.22326
 C839 C 0.18787 -0.09606 0.68842
 N840 N 0.20387 -0.08875 0.68123
 N841 N 0.21246 -0.07455 0.68978
 C842 C 0.20532 -0.06723 0.70578
 N843 N 0.18932 -0.07453 0.71296
 N844 N 0.18072 -0.08873 0.70441
 C845 C 0.17892 -0.11170 0.67950
 C846 C 0.17155 -0.12501 0.67215
 C847 C 0.21485 -0.05229 0.71528
 C848 C 0.22300 -0.03992 0.72339
 C849 C 0.31173 0.31163 0.40505
 N850 N 0.29548 0.31853 0.41205
 N851 N 0.28694 0.30997 0.42626
 C852 C 0.29439 0.29425 0.43390
 N853 N 0.31065 0.28737 0.42691
 N854 N 0.31919 0.29593 0.41270
 C855 C 0.32063 0.32054 0.38940
 C856 C 0.32795 0.32787 0.37609
 C857 C 0.28491 0.28473 0.44882
 C858 C 0.27680 0.27658 0.46118
 C859 C 0.31220 0.81173 -0.09517
 N860 N 0.31919 0.79555 -0.08809
 N861 N 0.31067 0.78702 -0.07385
 C862 C 0.29490 0.79440 -0.06627
 N863 N 0.28792 0.81059 -0.07334
 N864 N 0.29644 0.81913 -0.08758
 C865 C 0.32105 0.82062 -0.11086
 C866 C 0.32833 0.82795 -0.12420
 C867 C 0.28542 0.78492 -0.05132
 C868 C 0.27729 0.77683 -0.03894
 C869 C 0.81165 0.31209 -0.09554
 N870 N 0.81932 0.29660 -0.08768
 N871 N 0.81081 0.28803 -0.07346
 C872 C 0.79438 0.29470 -0.06667
 N873 N 0.78672 0.31020 -0.07452
 N874 N 0.79522 0.31877 -0.08874
 C875 C 0.82053 0.32099 -0.11121
 C876 C 0.82784 0.32831 -0.12454
 C877 C 0.78494 0.28515 -0.05173
 C878 C 0.77686 0.27700 -0.03936
 C879 C 0.81220 0.81150 0.40506
 N880 N 0.79630 0.81877 0.41247
 N881 N 0.78778 0.81027 0.42672
 C882 C 0.79490 0.79423 0.43400
 N883 N 0.81082 0.78697 0.42661
 N884 N 0.81934 0.79547 0.41235
 C885 C 0.82107 0.82035 0.38936
 C886 C 0.82836 0.82765 0.37601
 C887 C 0.78542 0.78478 0.44897
 C888 C 0.77730 0.77670 0.46136
 C889 C 0.68831 0.31209 0.59493
 N890 N 0.70448 0.31908 0.58782
 N891 N 0.71302 0.31053 0.57361
 C892 C 0.70564 0.29472 0.56606
 N893 N 0.68946 0.28774 0.57315
 N894 N 0.68092 0.29630 0.58737
 C895 C 0.67942 0.32098 0.61059
 C896 C 0.67210 0.32829 0.62392
 C897 C 0.71512 0.28520 0.55113
 C898 C 0.72322 0.27706 0.53876
 C899 C 0.68760 0.81205 1.09542
 N900 N 0.70306 0.81976 1.08752
 N901 N 0.71160 0.81126 1.07327
 C902 C 0.70494 0.79479 1.06650
 N903 N 0.68948 0.78710 1.07439
 N904 N 0.68094 0.79559 1.08864
 C905 C 0.67874 0.82091 1.11112
 C906 C 0.67145 0.82820 1.12448
 C907 C 0.71447 0.78536 1.05154
 C908 C 0.72262 0.77730 1.03915
 C909 C 0.18779 0.31153 1.09525
 N910 N 0.20357 0.31896 1.08771
 N911 N 0.21213 0.31045 1.07348
 C912 C 0.20518 0.29426 1.06636
 N913 N 0.18939 0.28685 1.07388
 N914 N 0.18083 0.29535 1.08811
 C915 C 0.17889 0.32039 1.11092
 C916 C 0.17156 0.32768 1.12426
 C917 C 0.21471 0.28481 1.05141
 C918 C 0.22285 0.27672 1.03903
 C919 C 0.18785 0.81215 0.59535
 N920 N 0.20364 0.81955 0.58783
 N921 N 0.21215 0.81108 0.57354
 C922 C 0.20512 0.79495 0.56636
 N923 N 0.18932 0.78756 0.57387
 N924 N 0.18081 0.79603 0.58815
 C925 C 0.17901 0.82097 0.61109
 C926 C 0.17174 0.82823 0.62448
 C927 C 0.21460 0.78553 0.55136
 C928 C 0.22271 0.77746 0.53895
 C929 C 0.31165 0.68841 0.59499
 N930 N 0.29574 0.68116 0.58754
 N931 N 0.28722 0.68972 0.57333
 C932 C 0.29434 0.70579 0.56613
 N933 N 0.31025 0.71304 0.57355
 N934 N 0.31878 0.70447 0.58777
 C935 C 0.32052 0.67950 0.61065
 C936 C 0.32782 0.67216 0.62398
 C937 C 0.28486 0.71531 0.55119
 C938 C 0.27675 0.72345 0.53883
 C939 C 0.31210 0.18817 1.09535
 N940 N 0.31917 0.20424 1.08811
 N941 N 0.31063 0.21274 1.07386
 C942 C 0.29475 0.20541 1.06643
 N943 N 0.28769 0.18932 1.07366
 N944 N 0.29624 0.18083 1.08791
 C945 C 0.32098 0.17932 1.11105
 C946 C 0.32828 0.17203 1.12440
 C947 C 0.28524 0.21485 1.05147
 C948 C 0.27710 0.22291 1.03908
 C949 C 0.81145 0.68807 1.09528
 N950 N 0.79546 0.68094 1.08791
 N951 N 0.78696 0.68954 1.07371
 C952 C 0.79419 0.70554 1.06644
 N953 N 0.81019 0.71266 1.07380
 N954 N 0.81870 0.70406 1.08801
 C955 C 0.82031 0.67911 1.11093
 C956 C 0.82761 0.67174 1.12424
 C957 C 0.78474 0.71510 1.05151
 C958 C 0.77667 0.72327 1.03915
 C959 C 0.81210 0.18812 0.59513
 N960 N 0.79613 0.18092 0.58778
 N961 N 0.78762 0.18945 0.57353
 C962 C 0.79482 0.20544 0.56622
 N963 N 0.81080 0.21263 0.57356
 N964 N 0.81931 0.20410 0.58780
 C965 C 0.82095 0.17924 0.61082
 C966 C 0.82824 0.17192 0.62417
 C967 C 0.78535 0.21492 0.55125
 C968 C 0.77725 0.22302 0.53886
 C969 C 0.68826 0.68787 0.40512
 N970 N 0.68122 0.70398 0.41232
 N971 N 0.68976 0.71249 0.42658
 C972 C 0.70559 0.70514 0.43406
 N973 N 0.71262 0.68902 0.42688
 N974 N 0.70409 0.68051 0.41262
 C975 C 0.67939 0.67902 0.38942
 C976 C 0.67208 0.67174 0.37606
 C977 C 0.71509 0.71460 0.44903
 C978 C 0.72321 0.72271 0.46141
 C979 C 0.68786 0.18816 -0.09575
 N980 N 0.70348 0.18062 -0.08801
 N981 N 0.71201 0.18913 -0.07376
 C982 C 0.70516 0.20543 -0.06680
 N983 N 0.68953 0.21296 -0.07452
 N984 N 0.68100 0.20445 -0.08878
 C985 C 0.67900 0.17929 -0.11145
 C986 C 0.67172 0.17199 -0.12482
 C987 C 0.71466 0.21488 -0.05182
 C988 C 0.72280 0.22296 -0.03943
 C989 C 0.18857 0.68759 -0.09520
 N990 N 0.20482 0.68071 -0.08816
 N991 N 0.21332 0.68928 -0.07392
 C992 C 0.20582 0.70498 -0.06629
 N993 N 0.18957 0.71185 -0.07331
 N994 N 0.18107 0.70328 -0.08755
 C995 C 0.17972 0.67869 -0.11088
 C996 C 0.17242 0.67138 -0.12423
 C997 C 0.21526 0.71452 -0.05133
 C998 C 0.22333 0.72269 -0.03894
 C999 C 0.18782 0.18787 0.40461
 N1000 N 0.20351 0.18038 0.41224
 N1001 N 0.21204 0.18884 0.42652
 C1002 C 0.20513 0.20506 0.43361
 N1003 N 0.18942 0.21255 0.42599
 N1004 N 0.18089 0.20408 0.41171
 C1005 C 0.17896 0.17905 0.38888
 C1006 C 0.17167 0.17179 0.37550
 C1007 C 0.21463 0.21448 0.44861
 C1008 C 0.22275 0.22254 0.46102
 C1009 C 0.31166 0.40465 0.68822
 N1010 N 0.31903 0.41225 0.70399
 N1011 N 0.31048 0.42650 0.71250
 C1012 C 0.29431 0.43358 0.70549
 N1013 N 0.28695 0.42599 0.68971
 N1014 N 0.29550 0.41175 0.68120
 C1015 C 0.32057 0.38896 0.67937
 C1016 C 0.32791 0.37561 0.67208
 C1017 C 0.28482 0.44855 0.71496
 C1018 C 0.27672 0.46095 0.72306
 C1019 C 0.31202 0.90563 0.18800
 N1020 N 0.31928 0.91307 0.20389
 N1021 N 0.31074 0.92732 0.21241
 C1022 C 0.29468 0.93455 0.20530
 N1023 N 0.28743 0.92711 0.18940
 N1024 N 0.29597 0.91287 0.18087
 C1025 C 0.32091 0.88993 0.17913
 C1026 C 0.32822 0.87658 0.17183
 C1027 C 0.28519 0.94951 0.21477
 C1028 C 0.27707 0.96191 0.22287
 C1029 C 0.81231 0.40475 0.18767
 N1030 N 0.81968 0.41234 0.20345
 N1031 N 0.81113 0.42659 0.21196
 C1032 C 0.79497 0.43369 0.20494
 N1033 N 0.78762 0.42612 0.18915
 N1034 N 0.79617 0.41186 0.18065
 C1035 C 0.82121 0.38905 0.17883
 C1036 C 0.82852 0.37569 0.17155
 C1037 C 0.78548 0.44866 0.21441
 C1038 C 0.77736 0.46104 0.22251
 C1039 C 0.81213 0.90552 0.68816
 N1040 N 0.81925 0.91285 0.70417
 N1041 N 0.81070 0.92710 0.71267
 C1042 C 0.79476 0.93445 0.70541
 N1043 N 0.78764 0.92714 0.68939
 N1044 N 0.79620 0.91289 0.68090
 C1045 C 0.82103 0.88983 0.67932
 C1046 C 0.82837 0.87647 0.67203
 C1047 C 0.78525 0.94943 0.71485
 C1048 C 0.77711 0.96182 0.72293
 C1049 C 0.68817 0.59577 0.68957
 N1050 N 0.69601 0.58177 0.67939
 N1051 N 0.70456 0.56753 0.68791
 C1052 C 0.70553 0.56686 0.70686
 N1053 N 0.69768 0.58085 0.71702
 N1054 N 0.68913 0.59509 0.70851
 C1055 C 0.67930 0.61132 0.68045
 C1056 C 0.67198 0.62456 0.67296
 C1057 C 0.71507 0.55177 0.71607
 C1058 C 0.72321 0.53928 0.72399
 C1059 C 0.68782 0.09461 0.18775
 N1060 N 0.70345 0.08685 0.18028
 N1061 N 0.71197 0.07263 0.18885
 C1062 C 0.70511 0.06573 0.20515
 N1063 N 0.68946 0.07348 0.21261
 N1064 N 0.68094 0.08771 0.20404
 C1065 C 0.67896 0.11028 0.17882
 C1066 C 0.67167 0.12362 0.17147
 C1067 C 0.71459 0.05079 0.21466
 C1068 C 0.72270 0.03842 0.22279
 C1069 C 0.18767 0.59515 0.18822
 N1070 N 0.18080 0.58821 0.20450
 N1071 N 0.18933 0.57397 0.21304
 C1072 C 0.20498 0.56625 0.20556
 N1073 N 0.21184 0.57318 0.18927
 N1074 N 0.20332 0.58741 0.18073
 C1075 C 0.17881 0.61084 0.17932
 C1076 C 0.17152 0.62418 0.17199
 C1077 C 0.21448 0.55129 0.21504
 C1078 C 0.22260 0.53891 0.22316
 C1079 C 0.18805 0.09417 0.68830
 N1080 N 0.18097 0.08699 0.70438
 N1081 N 0.18952 0.07279 0.71295
 C1082 C 0.20541 0.06534 0.70570
 N1083 N 0.21249 0.07250 0.68960
 N1084 N 0.20394 0.08671 0.68103
 C1085 C 0.17915 0.10982 0.67937
 C1086 C 0.17182 0.12313 0.67202
 C1087 C 0.21492 0.05041 0.71521
 C1088 C 0.22304 0.03804 0.72334
 C1089 C 0.31169 0.59536 0.31189
 N1090 N 0.29567 0.58810 0.31905
 N1091 N 0.28711 0.57384 0.31055
 C1092 C 0.29432 0.56642 0.29463
 N1093 N 0.31036 0.57367 0.28748
 N1094 N 0.31891 0.58793 0.29598
 C1095 C 0.32061 0.61106 0.32074
 C1096 C 0.32795 0.62441 0.32803
 C1097 C 0.28482 0.55144 0.28518
 C1098 C 0.27669 0.53903 0.27710
 C1099 C 0.31210 0.09440 0.81221
 N1100 N 0.29606 0.08714 0.81934
 N1101 N 0.28752 0.07289 0.81081
 C1102 C 0.29475 0.06548 0.79490
 N1103 N 0.31080 0.07272 0.78778
 N1104 N 0.31935 0.08697 0.79631
 C1105 C 0.32100 0.11010 0.82108
 C1106 C 0.32832 0.12346 0.82837
 C1107 C 0.28526 0.05050 0.78543
 C1108 C 0.27713 0.03811 0.77733
 C1109 C 0.81241 0.59518 0.81260
 N1110 N 0.79623 0.58810 0.81960
 N1111 N 0.78768 0.57385 0.81109
 C1112 C 0.79505 0.56624 0.79533
 N1113 N 0.81124 0.57330 0.78835
 N1114 N 0.81979 0.58756 0.79685
 C1115 C 0.82130 0.61090 0.82143
 C1116 C 0.82862 0.62428 0.82869
 C1117 C 0.78554 0.55128 0.78585
 C1118 C 0.77740 0.53891 0.77773
 C1119 C 0.81190 0.09468 0.31167
 N1120 N 0.79604 0.08720 0.31899
 N1121 N 0.78747 0.07298 0.31045
 C1122 C 0.79449 0.06580 0.29434
 N1123 N 0.81036 0.07326 0.28703
 N1124 N 0.81894 0.08748 0.29557
 C1125 C 0.82083 0.11034 0.32057
 C1126 C 0.82818 0.12366 0.32790
 C1127 C 0.78496 0.05085 0.28486
 C1128 C 0.77682 0.03847 0.27676
 C1129 C 0.68842 0.40470 0.31146
 N1130 N 0.70436 0.41208 0.31869
 N1131 N 0.71291 0.42631 0.31016
 C1132 C 0.70578 0.43359 0.29414
 N1133 N 0.68983 0.42621 0.28692
 N1134 N 0.68128 0.41198 0.29545
 C1135 C 0.67951 0.38903 0.32035
 C1136 C 0.67216 0.37570 0.32767
 C1137 C 0.71528 0.44855 0.28466
 C1138 C 0.72338 0.46095 0.27655
 C1139 C 0.68807 0.90575 0.81192
 N1140 N 0.70399 0.91318 0.81915
 N1141 N 0.71253 0.92740 0.81057
 C1142 C 0.70540 0.93461 0.79452
 N1143 N 0.68947 0.92718 0.78731
 N1144 N 0.68093 0.91297 0.79588
 C1145 C 0.67918 0.89009 0.82085
 C1146 C 0.67186 0.87676 0.82820
 C1147 C 0.71489 0.94955 0.78500
 C1148 C 0.72301 0.96191 0.77686
 C1149 C 0.18785 0.40467 0.81196
 N1150 N 0.20346 0.41244 0.81950
 N1151 N 0.21200 0.42670 0.81099
 C1152 C 0.20518 0.43361 0.79468
 N1153 N 0.18956 0.42585 0.78714
 N1154 N 0.18102 0.41160 0.79565
 C1155 C 0.17898 0.38897 0.82083
 C1156 C 0.17167 0.37561 0.82812
 C1157 C 0.21467 0.44859 0.78522
 C1158 C 0.22278 0.46099 0.77712
 C1159 C 0.18789 0.90575 0.31168
 N1160 N 0.20339 0.91365 0.31931
 N1161 N 0.21194 0.92787 0.31076
 C1162 C 0.20525 0.93462 0.29432
 N1163 N 0.18973 0.92673 0.28671
 N1164 N 0.18118 0.91251 0.29526
 C1165 C 0.17900 0.89008 0.32060
 C1166 C 0.17168 0.87675 0.32794
 C1167 C 0.21477 0.94956 0.28484
 C1168 C 0.22291 0.96194 0.27674
 C1169 C 0.40489 0.31161 0.68834
 N1170 N 0.41197 0.31859 0.70452
 N1171 N 0.42622 0.31006 0.71303
 C1172 C 0.43382 0.29430 0.70562
 N1173 N 0.42674 0.28734 0.68943
 N1174 N 0.41249 0.29586 0.68092
 C1175 C 0.38919 0.32048 0.67947
 C1176 C 0.37584 0.32778 0.67215
 C1177 C 0.44880 0.28481 0.71507
 C1178 C 0.46120 0.27670 0.72315
 C1179 C 0.40512 0.81250 0.18807
 N1180 N 0.41216 0.81944 0.20428
 N1181 N 0.42638 0.81090 0.21282
 C1182 C 0.43400 0.79515 0.20540
 N1183 N 0.42697 0.78822 0.18917
 N1184 N 0.41275 0.79677 0.18064
 C1185 C 0.38944 0.82138 0.17918
 C1186 C 0.37610 0.82869 0.17186
 C1187 C 0.44894 0.78564 0.21488
 C1188 C 0.46131 0.77751 0.22299
 C1189 C 0.90530 0.31149 0.18788
 N1190 N 0.91259 0.31866 0.20389
 N1191 N 0.92681 0.31012 0.21243
 C1192 C 0.93417 0.29415 0.20524
 N1193 N 0.92690 0.28699 0.18922
 N1194 N 0.91268 0.29553 0.18067
 C1195 C 0.88964 0.32039 0.17898
 C1196 C 0.87632 0.32771 0.17164
 C1197 C 0.94913 0.28466 0.21473
 C1198 C 0.96151 0.27655 0.22284
 C1199 C 0.90533 0.81247 0.68835
 N1200 N 0.91224 0.81929 0.70467
 N1201 N 0.92648 0.81075 0.71319
 C1202 C 0.93424 0.79513 0.70565
 N1203 N 0.92734 0.78832 0.68932
 N1204 N 0.91310 0.79686 0.68080
 C1205 C 0.88964 0.82134 0.67946
 C1206 C 0.87630 0.82863 0.67214
 C1207 C 0.94920 0.78563 0.71510
 C1208 C 0.96159 0.77749 0.72318
 C1209 C 0.59514 0.31169 0.31149
 N1210 N 0.58797 0.31874 0.29538
 N1211 N 0.57372 0.31020 0.28686
 C1212 C 0.56621 0.29436 0.29418
 N1213 N 0.57336 0.28732 0.31030
 N1214 N 0.58761 0.29586 0.31882
 C1215 C 0.61083 0.32057 0.32037
 C1216 C 0.62418 0.32788 0.32768
 C1217 C 0.55123 0.28487 0.28472
 C1218 C 0.53883 0.27675 0.27663
 C1219 C 0.59487 0.81267 0.81216
 N1220 N 0.58724 0.82009 0.79644
 N1221 N 0.57300 0.81154 0.78791
 C1222 C 0.56596 0.79532 0.79486
 N1223 N 0.57357 0.78791 0.81059
 N1224 N 0.58782 0.79646 0.81911
 C1225 C 0.61057 0.82157 0.82102
 C1226 C 0.62392 0.82890 0.82831
 C1227 C 0.55100 0.78582 0.78537
 C1228 C 0.53861 0.77769 0.77726
 C1229 C 0.09484 0.31144 0.81167
 N1230 N 0.08762 0.31855 0.79562
 N1231 N 0.07340 0.31001 0.78705
 C1232 C 0.06597 0.29409 0.79429
 N1233 N 0.07317 0.28699 0.81035
 N1234 N 0.08739 0.29553 0.81892
 C1235 C 0.11050 0.32034 0.82060
 C1236 C 0.12382 0.32766 0.82795
 C1237 C 0.05102 0.28459 0.78478
 C1238 C 0.03864 0.27647 0.77666
 C1239 C 0.09477 0.81255 0.31188
 N1240 N 0.08731 0.81977 0.29598
 N1241 N 0.07308 0.81119 0.28748
 C1242 C 0.06587 0.79512 0.29462
 N1243 N 0.07332 0.78791 0.31052
 N1244 N 0.08755 0.79649 0.31902
 C1245 C 0.11045 0.82148 0.32073
 C1246 C 0.12379 0.82884 0.32802
 C1247 C 0.05092 0.78558 0.28516
 C1248 C 0.03853 0.77742 0.27709
 C1249 C 0.59494 0.68862 0.68848
 N1250 N 0.58680 0.68085 0.70377
 N1251 N 0.57255 0.68941 0.71225
 C1252 C 0.56602 0.70600 0.70571
 N1253 N 0.57415 0.71377 0.69041
 N1254 N 0.58839 0.70520 0.68192
 C1255 C 0.61064 0.67969 0.67967
 C1256 C 0.62399 0.67233 0.67243
 C1257 C 0.55105 0.71550 0.71517
 C1258 C 0.53866 0.72361 0.72327
 C1259 C 0.59482 0.18776 0.18757
 N1260 N 0.58715 0.18028 0.20324
 N1261 N 0.57293 0.18882 0.21179
 C1262 C 0.56595 0.20510 0.20493
 N1263 N 0.57361 0.21257 0.18924
 N1264 N 0.58783 0.20403 0.18069
 C1265 C 0.61049 0.17887 0.17868
 C1266 C 0.62383 0.17154 0.17138
 C1267 C 0.55102 0.21459 0.21445
 C1268 C 0.53866 0.22270 0.22259
 C1269 C 0.09474 0.68841 0.18812
 N1270 N 0.08694 0.68082 0.20368
 N1271 N 0.07271 0.68936 0.21222
 C1272 C 0.06586 0.70574 0.20546
 N1273 N 0.07365 0.71331 0.18989
 N1274 N 0.08787 0.70477 0.18135
 C1275 C 0.11040 0.67950 0.17923
 C1276 C 0.12373 0.67215 0.17193
 C1277 C 0.05091 0.71522 0.21497
 C1278 C 0.03853 0.72331 0.22311
 C1279 C 0.09484 0.18721 0.68800
 N1280 N 0.08707 0.17972 0.70362
 N1281 N 0.07283 0.18828 0.71212
 C1282 C 0.06594 0.20460 0.70525
 N1283 N 0.07369 0.21208 0.68961
 N1284 N 0.08793 0.20351 0.68112
 C1285 C 0.11052 0.17829 0.67916
 C1286 C 0.12387 0.17095 0.67188
 C1287 C 0.05098 0.21411 0.71471
 C1288 C 0.03860 0.22226 0.72278
 C1289 C 0.40492 0.68846 0.31178
 N1290 N 0.41245 0.70429 0.31912
 N1291 N 0.42670 0.71282 0.31060
 C1292 C 0.43384 0.70579 0.29447
 N1293 N 0.42632 0.68995 0.28714
 N1294 N 0.41208 0.68141 0.29566
 C1295 C 0.38923 0.67959 0.32066
 C1296 C 0.37589 0.67228 0.32797
 C1297 C 0.44881 0.71528 0.28501
 C1298 C 0.46121 0.72339 0.27692
 C1299 C 0.40521 0.18758 0.81206
 N1300 N 0.41271 0.20344 0.81935
 N1301 N 0.42692 0.21199 0.81080
 C1302 C 0.43407 0.20493 0.79469
 N1303 N 0.42659 0.18905 0.78741
 N1304 N 0.41237 0.18050 0.79596
 C1305 C 0.38954 0.17869 0.82097
 C1306 C 0.37621 0.17138 0.82830
 C1307 C 0.44901 0.21443 0.78519
 C1308 C 0.46137 0.22256 0.77706
 C1309 C 0.90540 0.68846 0.81216
 N1310 N 0.91251 0.68138 0.79604
 N1311 N 0.92673 0.68991 0.78746
 C1312 C 0.93427 0.70576 0.79474
 N1313 N 0.92717 0.71283 0.81087
 N1314 N 0.91295 0.70430 0.81945
 C1315 C 0.88975 0.67959 0.82110
 C1316 C 0.87643 0.67228 0.82846
 C1317 C 0.94921 0.71524 0.78522
 C1318 C 0.96158 0.72334 0.77709
 C1319 C 0.90523 0.18764 0.31177
 N1320 N 0.91254 0.18044 0.29579
 N1321 N 0.92679 0.18897 0.28726
 C1322 C 0.93415 0.20495 0.29445
 N1323 N 0.92685 0.21213 0.31044
 N1324 N 0.91260 0.20361 0.31897
 C1325 C 0.88953 0.17877 0.32064
 C1326 C 0.87618 0.17147 0.32795
 C1327 C 0.94912 0.21443 0.28497
 C1328 C 0.96151 0.22253 0.27686
 C1329 C 0.31176 0.31136 0.59531
 N1330 N 0.29580 0.31855 0.58795
 N1331 N 0.28727 0.31000 0.57373
 C1332 C 0.29444 0.29399 0.56643
 N1333 N 0.31042 0.28681 0.57377
 N1334 N 0.31895 0.29537 0.58799
 C1335 C 0.32065 0.32028 0.61097
 C1336 C 0.32796 0.32763 0.62429
 C1337 C 0.28496 0.28449 0.55147
 C1338 C 0.27685 0.27638 0.53908
 C1339 C 0.31192 0.81229 0.09511
 N1340 N 0.31958 0.79677 0.08726
 N1341 N 0.31105 0.78818 0.07305
 C1342 C 0.29461 0.79484 0.06627
 N1343 N 0.28696 0.81036 0.07411
 N1344 N 0.29549 0.81896 0.08832
 C1345 C 0.32083 0.82122 0.11075
 C1346 C 0.32816 0.82858 0.12406
 C1347 C 0.28515 0.78528 0.05134
 C1348 C 0.27707 0.77710 0.03897
 C1349 C 0.81218 0.31155 0.09476
 N1350 N 0.81936 0.29559 0.08735
 N1351 N 0.81078 0.28708 0.07313
 C1352 C 0.79476 0.29427 0.06588
 N1353 N 0.78760 0.31024 0.07328
 N1354 N 0.79618 0.31875 0.08750
 C1355 C 0.82112 0.32041 0.11043
 C1356 C 0.82846 0.32772 0.12375
 C1357 C 0.78523 0.28482 0.05093
 C1358 C 0.77708 0.27674 0.03855
 C1359 C 0.81217 0.81209 0.59537
 N1360 N 0.79605 0.81909 0.58819
 N1361 N 0.78752 0.81049 0.57399
 C1362 C 0.79485 0.79462 0.56655
 N1363 N 0.81099 0.78763 0.57372
 N1364 N 0.81952 0.79623 0.58792
 C1365 C 0.82107 0.82104 0.61101
 C1366 C 0.82839 0.82842 0.62431
 C1367 C 0.78537 0.78506 0.55163
 C1368 C 0.77726 0.77690 0.53927
 C1369 C 0.31180 0.68868 0.40477
 N1370 N 0.29617 0.68116 0.41250
 N1371 N 0.28762 0.68971 0.42671
 C1372 C 0.29445 0.70605 0.43362
 N1373 N 0.31010 0.71356 0.42590
 N1374 N 0.31864 0.70501 0.41169
 C1375 C 0.32069 0.67976 0.38912
 C1376 C 0.32800 0.67241 0.37580
 C1377 C 0.28495 0.71553 0.44856
 C1378 C 0.27682 0.72363 0.46094
 C1379 C 0.31207 0.18775 0.90507
 N1380 N 0.29608 0.18057 0.91238
 N1381 N 0.28752 0.18914 0.92658
 C1382 C 0.29470 0.20514 0.93389
 N1383 N 0.31070 0.21231 0.92659
 N1384 N 0.31926 0.20375 0.91240
 C1385 C 0.32098 0.17883 0.88943
 C1386 C 0.32831 0.17148 0.87613
 C1387 C 0.28519 0.21465 0.94882
 C1388 C 0.27706 0.22277 0.96117
 C1389 C 0.81224 0.68868 0.90522
 N1390 N 0.79649 0.68123 0.91277
 N1391 N 0.78788 0.68977 0.92695
 C1392 C 0.79477 0.70602 0.93401
 N1393 N 0.81054 0.71345 0.92647
 N1394 N 0.81915 0.70491 0.91229
 C1395 C 0.82120 0.67977 0.88960
 C1396 C 0.82855 0.67242 0.87631
 C1397 C 0.78521 0.71549 0.94892
 C1398 C 0.77703 0.72358 0.96127
 C1399 C 0.81211 0.18780 0.40477
 N1400 N 0.79619 0.18057 0.41218
 N1401 N 0.78766 0.18913 0.42640
 C1402 C 0.79480 0.20519 0.43364
 N1403 N 0.81074 0.21241 0.42625
 N1404 N 0.81927 0.20384 0.41203
 C1405 C 0.82099 0.17889 0.38911
 C1406 C 0.82829 0.17155 0.37578
 C1407 C 0.78532 0.21470 0.44857
 C1408 C 0.77721 0.22284 0.46094
 C1409 C 0.68820 0.31168 0.40460
 N1410 N 0.70380 0.31926 0.41237
 N1411 N 0.71233 0.31075 0.42661
 C1412 C 0.70554 0.29440 0.43351
 N1413 N 0.68993 0.28684 0.42575
 N1414 N 0.68139 0.29535 0.41151
 C1415 C 0.67933 0.32056 0.38892
 C1416 C 0.67203 0.32787 0.37557
 C1417 C 0.71504 0.28495 0.44847
 C1418 C 0.72317 0.27687 0.46086
 C1419 C 0.68811 0.81268 0.90506
 N1420 N 0.68042 0.79721 0.91296
 N1421 N 0.68894 0.78864 0.92718
 C1422 C 0.70541 0.79530 0.93392
 N1423 N 0.71308 0.81078 0.92604
 N1424 N 0.70456 0.81935 0.91183
 C1425 C 0.67921 0.82159 0.88941
 C1426 C 0.67188 0.82891 0.87609
 C1427 C 0.71486 0.78576 0.94887
 C1428 C 0.72293 0.77760 0.96124
 C1429 C 0.18779 0.31144 0.90491
 N1430 N 0.18116 0.29495 0.91162
 N1431 N 0.18970 0.28643 0.92585
 C1432 C 0.20514 0.29414 0.93379
 N1433 N 0.21176 0.31064 0.92709
 N1434 N 0.20322 0.31916 0.91286
 C1435 C 0.17891 0.32033 0.88924
 C1436 C 0.17161 0.32766 0.87590
 C1437 C 0.21466 0.28469 0.94874
 C1438 C 0.22281 0.27662 0.96112
 C1439 C 0.18788 0.81272 0.40486
 N1440 N 0.20407 0.81969 0.41195
 N1441 N 0.21260 0.81113 0.42617
 C1442 C 0.20519 0.79535 0.43372
 N1443 N 0.18899 0.78839 0.42664
 N1444 N 0.18047 0.79695 0.41242
 C1445 C 0.17900 0.82162 0.38919
 C1446 C 0.17169 0.82893 0.37586
 C1447 C 0.21467 0.78582 0.44866
 C1448 C 0.22277 0.77768 0.46102
 C1449 C 0.68818 0.68811 0.59563
 N1450 N 0.68107 0.70414 0.58832
 N1451 N 0.68962 0.71263 0.57407
 C1452 C 0.70553 0.70534 0.56670
 N1453 N 0.71263 0.68930 0.57400
 N1454 N 0.70408 0.68082 0.58825
 C1455 C 0.67929 0.67929 0.61133
 C1456 C 0.67196 0.67204 0.62469
 C1457 C 0.71504 0.71478 0.55173
 C1458 C 0.72317 0.72286 0.53935
 C1459 C 0.68801 0.18770 0.09462
 N1460 N 0.70410 0.18062 0.08744
 N1461 N 0.71265 0.18918 0.07323
 C1462 C 0.70536 0.20506 0.06578
 N1463 N 0.68926 0.21212 0.07295
 N1464 N 0.68071 0.20357 0.08716
 C1465 C 0.67910 0.17880 0.11028
 C1466 C 0.67177 0.17148 0.12359
 C1467 C 0.71486 0.21457 0.05085
 C1468 C 0.72297 0.22271 0.03849
 C1469 C 0.18793 0.68819 0.09514
 N1470 N 0.20377 0.68082 0.08769
 N1471 N 0.21236 0.68932 0.07348
 C1472 C 0.20536 0.70545 0.06627
 N1473 N 0.18951 0.71280 0.07370
 N1474 N 0.18092 0.70430 0.08792
 C1475 C 0.17900 0.67934 0.11080
 C1476 C 0.17165 0.67204 0.12412
 C1477 C 0.21491 0.71489 0.05133
 C1478 C 0.22306 0.72297 0.03896
 C1479 C 0.18795 0.18719 0.59509
 N1480 N 0.20388 0.17998 0.58768
 N1481 N 0.21240 0.18855 0.57347
 C1482 C 0.20524 0.20460 0.56623
 N1483 N 0.18930 0.21179 0.57363
 N1484 N 0.18078 0.20322 0.58784
 C1485 C 0.17908 0.17827 0.61075
 C1486 C 0.17178 0.17094 0.62408
 C1487 C 0.21471 0.21413 0.55130
 C1488 C 0.22282 0.22228 0.53895
   
