data_POSCAR
  _audit_creation_date              2014-09-24
  _audit_creation_method            'ToBaCCo'
  _symmetry_space_group_name_H-M    'P1'
  _symmetry_Int_Tables_number       1
  _symmetry_cell_setting            triclinic
  loop_
  _symmetry_equiv_pos_as_xyz
 x,y,z
_cell_length_a 52.6485
_cell_length_b 52.7202
_cell_length_c 52.6636
_cell_angle_alpha 90.053800
_cell_angle_beta 90.002100
_cell_angle_gamma 90.000200
loop_
  _atom_site_label
  _atom_site_type_symbol
  _atom_site_fract_x
  _atom_site_fract_y
  _atom_site_fract_z
C1 C 0.25017 1.08038 -0.01278
 C2 C 0.24922 1.08047 0.01322
 C3 C 0.24898 1.05526 0.02088
 N4 N 0.24973 1.03992 0.00033
 C5 C 0.25044 1.05515 -0.02028
 C6 C 0.24885 1.04705 0.04648
 C7 C 0.24936 1.02130 0.05433
 C8 C 0.25277 1.01349 0.07929
 C9 C 0.25254 0.98747 0.07920
 C10 C 0.24902 0.97987 0.05421
 N11 N 0.24667 1.00062 0.03925
 C12 C 0.24819 0.95420 0.04625
 C13 C 0.24864 0.94592 0.02071
 C14 C 0.24907 0.92070 0.01321
 C15 C 0.25051 0.92061 -0.01277
 C16 C 0.25081 0.94581 -0.02042
 N17 N 0.24967 0.96116 0.00012
 C18 C 0.25129 0.95401 -0.04602
 C19 C 0.25039 0.97974 -0.05388
 C20 C 0.24684 0.98749 -0.07884
 C21 C 0.24658 1.01351 -0.07875
 C22 C 0.25001 1.02117 -0.05376
 N23 N 0.25273 1.00045 -0.03880
 C24 C 0.25053 1.04685 -0.04581
 H25 H 0.25047 1.09703 -0.02478
 H26 H 0.24888 1.09721 0.02514
 H27 H 0.25779 1.00049 -0.01981
 H28 H 0.25547 1.02532 0.09588
 H29 H 0.25505 0.97551 0.09571
 H30 H 0.24861 0.90404 0.02520
 H31 H 0.25109 0.90387 -0.02467
 H32 H 0.24387 1.02542 -0.09526
 H33 H 0.24164 1.00064 0.02025
 H34 H 0.24433 0.97560 -0.09543
 C35 C 0.74984 0.48680 0.57963
 C36 C 0.75146 0.51275 0.57955
 C37 C 0.75179 0.52021 0.55429
 N38 N 0.75051 0.49964 0.53904
 C39 C 0.74933 0.47917 0.55442
 C40 C 0.75241 0.54570 0.54597
 C41 C 0.75154 0.55357 0.52027
 C42 C 0.74820 0.57853 0.51259
 C43 C 0.74786 0.57848 0.48652
 C44 C 0.75103 0.55350 0.47881
 N45 N 0.75369 0.53851 0.49953
 C46 C 0.75134 0.54556 0.45309
 C47 C 0.75097 0.52002 0.44490
 C48 C 0.75056 0.51238 0.41968
 C49 C 0.74943 0.48640 0.41976
 C50 C 0.74922 0.47894 0.44502
 N51 N 0.75014 0.49953 0.46026
 C52 C 0.74900 0.45345 0.45334
 C53 C 0.74952 0.44560 0.47907
 C54 C 0.75283 0.42065 0.48681
 C55 C 0.75269 0.42070 0.51288
 C56 C 0.74932 0.44567 0.52053
 N57 N 0.74696 0.46065 0.49977
 C58 C 0.74867 0.45363 0.54623
 H59 H 0.74930 0.47492 0.59637
 H60 H 0.75212 0.52475 0.59623
 H61 H 0.74200 0.47965 0.49973
 H62 H 0.74586 0.59509 0.52452
 H63 H 0.74524 0.59501 0.47462
 H64 H 0.75091 0.52427 0.40294
 H65 H 0.74896 0.47439 0.40308
 H66 H 0.75517 0.40418 0.52482
 H67 H 0.75859 0.51950 0.49952
 H68 H 0.75542 0.40409 0.47492
 C69 C 0.74962 1.01240 1.08068
 C70 C 0.75058 0.98643 1.08063
 C71 C 0.75086 0.97887 1.05536
 N72 N 0.75014 0.99946 1.04010
 C73 C 0.74940 1.02002 1.05544
 C74 C 0.75098 0.95332 1.04703
 C75 C 0.75053 0.94551 1.02123
 C76 C 0.74712 0.92059 1.01331
 C77 C 0.74745 0.92070 0.98727
 C78 C 0.75102 0.94567 0.97975
 N79 N 0.75331 0.96060 1.00059
 C80 C 0.75196 0.95365 0.95409
 C81 C 0.75152 0.97917 0.94590
 C82 C 0.75123 0.98675 0.92067
 C83 C 0.74976 1.01271 0.92072
 C84 C 0.74930 1.02022 0.94597
 N85 N 0.75037 0.99968 0.96125
 C86 C 0.74875 1.04572 0.95427
 C87 C 0.74953 1.05358 0.97999
 C88 C 0.75299 1.07852 0.98769
 C89 C 0.75320 1.07851 1.01374
 C90 C 0.74983 1.05353 1.02147
 N91 N 0.74720 1.03854 1.00072
 C92 C 0.74927 1.04560 1.04722
 H93 H 0.74927 1.02432 1.09742
 H94 H 0.75088 0.97447 1.09732
 H95 H 0.74222 1.01955 1.00072
 H96 H 0.74437 0.90400 1.02510
 H97 H 0.74496 0.90423 0.97524
 H98 H 0.75181 0.97482 0.90394
 H99 H 0.74927 1.02467 0.90404
 H100 H 0.75584 1.09505 1.02564
 H101 H 0.75837 0.97957 1.00070
 H102 H 0.75547 1.09506 0.97578
 C103 C 0.25014 0.51359 0.58018
 C104 C 0.24859 0.48762 0.58014
 C105 C 0.24824 0.48008 0.55489
 N106 N 0.24944 0.50061 0.53962
 C107 C 0.25059 0.52114 0.55496
 C108 C 0.24767 0.45457 0.54661
 C109 C 0.24849 0.44662 0.52091
 C110 C 0.25192 0.42165 0.51326
 C111 C 0.25215 0.42161 0.48719
 C112 C 0.24884 0.44655 0.47946
 N113 N 0.24619 0.46160 0.50016
 C114 C 0.24838 0.45441 0.45373
 C115 C 0.24861 0.47992 0.44549
 C116 C 0.24886 0.48748 0.42027
 C117 C 0.24992 0.51346 0.42031
 C118 C 0.25025 0.52101 0.44555
 N119 N 0.24946 0.50046 0.46083
 C120 C 0.25045 0.54652 0.45384
 C121 C 0.25005 0.55446 0.47956
 C122 C 0.24675 0.57942 0.48728
 C123 C 0.24701 0.57947 0.51335
 C124 C 0.25043 0.55453 0.52102
 N125 N 0.25271 0.53947 0.50028
 C126 C 0.25119 0.54665 0.54673
 H127 H 0.25069 0.52552 0.59690
 H128 H 0.24799 0.47568 0.59684
 H129 H 0.25767 0.52048 0.50024
 H130 H 0.25437 0.40514 0.52521
 H131 H 0.25479 0.40506 0.47531
 H132 H 0.24845 0.47553 0.40355
 H133 H 0.25025 0.52542 0.40361
 H134 H 0.24457 0.59602 0.52528
 H135 H 0.24120 0.48059 0.50015
 H136 H 0.24410 0.59595 0.47538
 C137 C 1.07993 0.25081 -0.01360
 C138 C 1.08006 0.24989 0.01239
 C139 C 1.05485 0.24893 0.02008
 N140 N 1.03945 0.24919 -0.00046
 C141 C 1.05464 0.25034 -0.02110
 C142 C 1.04669 0.24844 0.04571
 C143 C 1.02093 0.24842 0.05370
 C144 C 1.01318 0.25109 0.07879
 C145 C 0.98713 0.25074 0.07881
 C146 C 0.97945 0.24790 0.05377
 N147 N 1.00019 0.24606 0.03865
 C148 C 0.95372 0.24739 0.04587
 C149 C 0.94535 0.24822 0.02037
 C150 C 0.92008 0.24921 0.01300
 C151 C 0.91992 0.25070 -0.01297
 C152 C 0.94512 0.25046 -0.02074
 N153 N 0.96055 0.24895 -0.00029
 C154 C 0.95324 0.25063 -0.04636
 C155 C 0.97897 0.24934 -0.05430
 C156 C 0.98658 0.24515 -0.07921
 C157 C 1.01263 0.24492 -0.07928
 C158 C 1.02047 0.24901 -0.05441
 N159 N 0.99979 0.25205 -0.03939
 C160 C 1.04626 0.25003 -0.04665
 H161 H 1.09659 0.25156 -0.02562
 H162 H 1.09683 0.25002 0.02427
 H163 H 0.99989 0.25775 -0.02056
 H164 H 1.02507 0.25342 0.09540
 H165 H 0.97521 0.25278 0.09544
 H166 H 0.90343 0.24906 0.02507
 H167 H 0.90313 0.25163 -0.02479
 H168 H 1.02446 0.24186 -0.09581
 H169 H 1.00016 0.24177 0.01949
 H170 H 0.97459 0.24226 -0.09566
 C171 C 0.48820 0.74995 0.57998
 C172 C 0.51423 0.74889 0.57977
 C173 C 0.52159 0.74860 0.55448
 N174 N 0.50090 0.74941 0.53934
 C175 C 0.48044 0.75024 0.55481
 C176 C 0.54708 0.74841 0.54601
 C177 C 0.55482 0.74884 0.52024
 C178 C 0.57976 0.75216 0.51235
 C179 C 0.57960 0.75190 0.48629
 C180 C 0.55457 0.74846 0.47877
 N181 N 0.53966 0.74616 0.49962
 C182 C 0.54649 0.74769 0.45311
 C183 C 0.52087 0.74826 0.44507
 C184 C 0.51311 0.74867 0.41990
 C185 C 0.48712 0.75022 0.42011
 C186 C 0.47976 0.75061 0.44541
 N187 N 0.50044 0.74943 0.46054
 C188 C 0.45427 0.75120 0.45386
 C189 C 0.44651 0.75041 0.47961
 C190 C 0.42156 0.74704 0.48744
 C191 C 0.42172 0.74681 0.51350
 C192 C 0.44676 0.75007 0.52107
 N193 N 0.46168 0.75267 0.50027
 C194 C 0.45483 0.75051 0.54675
 H195 H 0.47637 0.75034 0.59679
 H196 H 0.52632 0.74852 0.59639
 H197 H 0.48070 0.75760 0.50015
 H198 H 0.59639 0.75482 0.52414
 H199 H 0.59608 0.75436 0.47424
 H200 H 0.52494 0.74811 0.40309
 H201 H 0.47503 0.75080 0.40350
 H202 H 0.40523 0.74421 0.52550
 H203 H 0.52065 0.74119 0.49979
 H204 H 0.40492 0.74463 0.47560
 C205 C -0.01244 0.74043 -0.07932
 C206 C 0.01361 0.74035 -0.07921
 C207 C 0.02108 0.74610 -0.05459
 N208 N 0.00044 0.74984 -0.03978
 C209 C -0.02009 0.74621 -0.05476
 C210 C 0.04651 0.74945 -0.04661
 C211 C 0.05371 0.75349 -0.02103
 C212 C 0.07759 0.76149 -0.01318
 C213 C 0.07737 0.76162 0.01292
 C214 C 0.05337 0.75369 0.02038
 N215 N 0.03915 0.74863 -0.00042
 C216 C 0.04584 0.74983 0.04585
 C217 C 0.02046 0.74608 0.05360
 C218 C 0.01296 0.74014 0.07812
 C219 C -0.01310 0.73975 0.07805
 C220 C -0.02068 0.74549 0.05347
 N221 N -0.00012 0.74952 0.03865
 C222 C -0.04614 0.74863 0.04553
 C223 C -0.05339 0.75281 0.01999
 C224 C -0.07732 0.76075 0.01227
 C225 C -0.07714 0.76110 -0.01382
 C226 C -0.05310 0.75335 -0.02144
 N227 N -0.03883 0.74820 -0.00070
 C228 C -0.04557 0.74967 -0.04699
 H229 H -0.02440 0.73693 -0.09568
 H230 H 0.02568 0.73678 -0.09547
 H231 H -0.02128 0.73925 -0.00071
 H232 H 0.09362 0.76648 -0.02505
 H233 H 0.09318 0.76672 0.02503
 H234 H 0.02499 0.73673 0.09443
 H235 H -0.02511 0.73600 0.09431
 H236 H -0.09301 0.76622 -0.02584
 H237 H 0.02165 0.73959 -0.00051
 H238 H -0.09335 0.76556 0.02422
 C239 C 0.57942 0.25081 0.51341
 C240 C 0.57946 0.24927 0.48742
 C241 C 0.55424 0.24906 0.47981
 N242 N 0.53889 0.25036 0.50032
 C243 C 0.55416 0.25141 0.52090
 C244 C 0.54604 0.24856 0.45425
 C245 C 0.52037 0.24955 0.44623
 C246 C 0.51282 0.25306 0.42122
 C247 C 0.48675 0.25345 0.42112
 C248 C 0.47890 0.25015 0.44606
 N249 N 0.49954 0.24736 0.46117
 C250 C 0.45315 0.24983 0.45385
 C251 C 0.44482 0.25010 0.47937
 C252 C 0.41956 0.25047 0.48686
 C253 C 0.41951 0.25152 0.51287
 C254 C 0.44474 0.25173 0.52049
 N255 N 0.46009 0.25087 0.49996
 C256 C 0.45294 0.25188 0.54605
 C257 C 0.47864 0.25132 0.55406
 C258 C 0.48625 0.24796 0.57907
 C259 C 0.51232 0.24806 0.57918
 C260 C 0.52010 0.25145 0.55424
 N261 N 0.49942 0.25387 0.53912
 C262 C 0.54585 0.25205 0.54642
 H263 H 0.59611 0.25125 0.52541
 H264 H 0.59620 0.24857 0.47551
 H265 H 0.49948 0.25883 0.52011
 H266 H 0.52484 0.25546 0.40472
 H267 H 0.47493 0.25618 0.40452
 H268 H 0.40287 0.25014 0.47486
 H269 H 0.40277 0.25194 0.52480
 H270 H 0.52418 0.24553 0.59577
 H271 H 0.49944 0.24234 0.48017
 H272 H 0.47428 0.24537 0.59557
 C273 C 1.08068 -0.01287 0.24838
 C274 C 1.08055 0.01307 0.24984
 C275 C 1.05526 0.02054 0.25020
 N276 N 1.04005 -0.00009 0.24909
 C277 C 1.05546 -0.02058 0.24800
 C278 C 1.04688 0.04607 0.25071
 C279 C 1.02108 0.05385 0.24981
 C280 C 1.01321 0.07877 0.24635
 C281 C 0.98716 0.07859 0.24605
 C282 C 0.97959 0.05360 0.24936
 N283 N 1.00040 0.03871 0.25204
 C284 C 0.95390 0.04557 0.24977
 C285 C 0.94577 0.02003 0.24959
 C286 C 0.92056 0.01236 0.24924
 C287 C 0.92069 -0.01363 0.24830
 C288 C 0.94597 -0.02106 0.24815
 N289 N 0.96118 -0.00044 0.24893
 C290 C 0.95435 -0.04652 0.24812
 C291 C 0.98010 -0.05431 0.24870
 C292 C 0.98788 -0.07921 0.25221
 C293 C 1.01394 -0.07915 0.25202
 C294 C 1.02159 -0.05418 0.24841
 N295 N 1.00079 -0.03925 0.24598
 C296 C 1.04732 -0.04619 0.24754
 H297 H 1.09746 -0.02473 0.24787
 H298 H 1.09722 0.02508 0.25039
 H299 H 1.00071 -0.02030 0.24086
 H300 H 1.02504 0.09539 0.24394
 H301 H 0.97516 0.09505 0.24339
 H302 H 0.90379 0.02423 0.24950
 H303 H 0.90403 -0.02566 0.24792
 H304 H 1.02591 -0.09564 0.25460
 H305 H 1.00048 0.01972 0.25699
 H306 H 0.97603 -0.09575 0.25496
 C307 C 0.48719 0.58025 0.75023
 C308 C 0.51322 0.58016 0.74924
 C309 C 0.52069 0.55492 0.74899
 N310 N 0.50007 0.53971 0.74976
 C311 C 0.47954 0.55507 0.75052
 C312 C 0.54621 0.54658 0.74886
 C313 C 0.55404 0.52086 0.74929
 C314 C 0.57899 0.51306 0.75264
 C315 C 0.57892 0.48703 0.75238
 C316 C 0.55391 0.47945 0.74891
 N317 N 0.53894 0.50022 0.74660
 C318 C 0.54591 0.45379 0.74813
 C319 C 0.52033 0.44563 0.74871
 C320 C 0.51269 0.42045 0.74916
 C321 C 0.48669 0.42055 0.75071
 C322 C 0.47922 0.44578 0.75106
 N323 N 0.49983 0.46100 0.74985
 C324 C 0.45370 0.45411 0.75163
 C325 C 0.44586 0.47981 0.75077
 C326 C 0.42089 0.48753 0.74732
 C327 C 0.42098 0.51357 0.74702
 C328 C 0.44598 0.52122 0.75032
 N329 N 0.46096 0.50049 0.75302
 C330 C 0.45397 0.54689 0.75072
 H331 H 0.47528 0.59698 0.75056
 H332 H 0.52524 0.59681 0.74888
 H333 H 0.47997 0.50047 0.75800
 H334 H 0.59559 0.52489 0.75532
 H335 H 0.59543 0.47505 0.75486
 H336 H 0.52459 0.40372 0.74862
 H337 H 0.47468 0.40390 0.75132
 H338 H 0.40445 0.52549 0.74434
 H339 H 0.51993 0.50030 0.74160
 H340 H 0.40430 0.47565 0.74490
 C341 C 1.01366 1.08026 0.74930
 C342 C 0.98765 1.08015 0.75019
 C343 C 0.98021 1.05494 0.75141
 N344 N 1.00088 1.03974 0.75133
 C345 C 1.02139 1.05508 0.75003
 C346 C 0.95468 1.04662 0.75201
 C347 C 0.94679 1.02091 0.75223
 C348 C 0.92171 1.01313 0.74986
 C349 C 0.92177 0.98709 0.75018
 C350 C 0.94688 0.97949 0.75269
 N351 N 0.96194 1.00026 0.75439
 C352 C 0.95492 0.95384 0.75295
 C353 C 0.98048 0.94566 0.75195
 C354 C 0.98802 0.92047 0.75067
 C355 C 1.01401 0.92051 0.74919
 C356 C 1.02162 0.94572 0.74973
 N357 N 1.00106 0.96097 0.75141
 C358 C 1.04720 0.95401 0.74972
 C359 C 1.05499 0.97974 0.75123
 C360 C 1.07981 0.98748 0.75571
 C361 C 1.07975 1.01349 0.75597
 C362 C 1.05489 1.02119 0.75162
 N363 N 1.04000 1.00045 0.74839
 C364 C 1.04700 1.04691 0.75048
 H365 H 1.02554 1.09699 0.74839
 H366 H 0.97560 1.09679 0.74989
 H367 H 1.02125 1.00043 0.74242
 H368 H 0.90504 1.02496 0.74773
 H369 H 0.90516 0.97513 0.74831
 H370 H 0.97606 0.90378 0.75064
 H371 H 1.02595 0.90383 0.74809
 H372 H 1.09618 1.02540 0.75921
 H373 H 0.98117 1.00034 0.75834
 H374 H 1.09630 0.97559 0.75874
 C375 C 0.51302 0.57953 0.24967
 C376 C 0.48700 0.57965 0.25067
 C377 C 0.47932 0.55448 0.25101
 N378 N 0.49982 0.53910 0.25027
 C379 C 0.52046 0.55428 0.24945
 C380 C 0.45373 0.54635 0.25120
 C381 C 0.44569 0.52069 0.25081
 C382 C 0.42066 0.51309 0.24752
 C383 C 0.42053 0.48705 0.24779
 C384 C 0.44548 0.47928 0.25121
 N385 N 0.46062 0.49993 0.25348
 C386 C 0.45328 0.45356 0.25198
 C387 C 0.47879 0.44520 0.25138
 C388 C 0.48623 0.41996 0.25092
 C389 C 0.51222 0.41983 0.24935
 C390 C 0.51990 0.44500 0.24899
 N391 N 0.49942 0.46039 0.25022
 C392 C 0.54549 0.45312 0.24840
 C393 C 0.55354 0.47876 0.24927
 C394 C 0.57856 0.48629 0.25273
 C395 C 0.57869 0.51232 0.25302
 C396 C 0.55375 0.52017 0.24970
 N397 N 0.53860 0.49956 0.24701
 C398 C 0.54597 0.54591 0.24927
 H399 H 0.52507 0.59616 0.24927
 H400 H 0.47511 0.59640 0.25098
 H401 H 0.51960 0.49968 0.24200
 H402 H 0.40416 0.52505 0.24486
 H403 H 0.40391 0.47520 0.24535
 H404 H 0.47419 0.40332 0.25147
 H405 H 0.52410 0.40308 0.24873
 H406 H 0.59531 0.52412 0.25569
 H407 H 0.47964 0.49987 0.25843
 H408 H 0.59505 0.47427 0.25517
 O409 O 0.24933 0.18431 0.21452
 O410 O 0.27888 0.17862 0.25030
 O411 O 0.18339 0.21468 0.25098
 O412 O 0.17364 0.24775 0.27569
 O413 O 0.21403 0.25041 0.18374
 O414 O 0.24927 0.27822 0.17672
 O415 O 0.24980 0.28514 0.31562
 O416 O 0.22027 0.25162 0.32248
 O417 O 0.31514 0.25103 0.28445
 O418 O 0.32089 0.22084 0.25270
 O419 O 0.28384 0.31568 0.25079
 O420 O 0.24779 0.32351 0.22201
 O421 O 0.24960 0.31562 0.28504
 O422 O 0.22040 0.32306 0.24870
 O423 O 0.31451 0.28525 0.25164
 O424 O 0.31991 0.25161 0.21944
 O425 O 0.28455 0.25144 0.31509
 O426 O 0.24977 0.22227 0.32357
 O427 O 0.24979 0.21482 0.18392
 O428 O 0.27768 0.25047 0.17701
 O429 O 0.18334 0.25010 0.21422
 O430 O 0.17736 0.27977 0.24973
 O431 O 0.21391 0.18398 0.24982
 O432 O 0.24720 0.17798 0.27916
 Zr433 Zr 0.24809 0.20459 0.24903
 O434 O 0.27173 0.22657 0.27256
 Zr435 Zr 0.20346 0.24920 0.24881
 O436 O 0.22514 0.27281 0.27286
 Zr437 Zr 0.24828 0.24914 0.20432
 O438 O 0.27175 0.27295 0.22623
 Zr439 Zr 0.24977 0.25085 0.29523
 O440 O 0.22571 0.22701 0.27353
 Zr441 Zr 0.29426 0.25085 0.25050
 O442 O 0.27276 0.22667 0.22654
 Zr443 Zr 0.24943 0.29534 0.25058
 O444 O 0.22568 0.27367 0.22636
 O445 O 0.22462 0.22567 0.22535
 O446 O 0.27331 0.27462 0.27427
 C447 C 0.25014 0.19162 0.19128
 C448 C 0.19071 0.19141 0.25100
 C449 C 0.19077 0.25078 0.19100
 C450 C 0.24975 0.30833 0.30828
 C451 C 0.30780 0.25134 0.30769
 C452 C 0.30709 0.30843 0.25139
 H453 H 0.28255 0.21513 0.28277
 H454 H 0.28246 0.28328 0.21479
 H455 H 0.21379 0.21479 0.21451
 H456 H 0.21370 0.28312 0.28359
 H457 H 0.20746 0.23899 0.31697
 H458 H 0.17928 0.25733 0.29083
 H459 H 0.33719 0.25480 0.22623
 H460 H 0.29102 0.23862 0.18288
 H461 H 0.26258 0.20938 0.31892
 H462 H 0.23534 0.18468 0.29212
 H463 H 0.26113 0.31962 0.20937
 H464 H 0.23761 0.29167 0.18274
 H465 H 0.27265 0.16155 0.24533
 H466 H 0.31597 0.20839 0.23951
 H467 H 0.18250 0.29175 0.23621
 H468 H 0.20827 0.31968 0.26263
 O469 O 0.75028 0.81484 0.21358
 O470 O 0.72084 0.82063 0.24942
 O471 O 0.81624 0.78434 0.24982
 O472 O 0.82597 0.75128 0.27450
 O473 O 0.78538 0.74863 0.18261
 O474 O 0.75004 0.72091 0.17566
 O475 O 0.74983 0.71410 0.31456
 O476 O 0.77941 0.74755 0.32141
 O477 O 0.68447 0.74826 0.28358
 O478 O 0.67872 0.77850 0.25191
 O479 O 0.71556 0.68358 0.24973
 O480 O 0.75152 0.67563 0.22092
 O481 O 0.74985 0.68359 0.28395
 O482 O 0.77898 0.67606 0.24753
 O483 O 0.68495 0.71407 0.25066
 O484 O 0.67955 0.74775 0.21858
 O485 O 0.71513 0.74782 0.31416
 O486 O 0.75001 0.77700 0.32255
 O487 O 0.74970 0.78432 0.18293
 O488 O 0.72170 0.74874 0.17604
 O489 O 0.81613 0.74887 0.21304
 O490 O 0.82210 0.71923 0.24852
 O491 O 0.78578 0.81511 0.24879
 O492 O 0.75258 0.82119 0.27823
 Zr493 Zr 0.75155 0.79458 0.24806
 O494 O 0.72790 0.77268 0.27161
 Zr495 Zr 0.79608 0.74986 0.24768
 O496 O 0.77439 0.72633 0.27176
 Zr497 Zr 0.75117 0.75000 0.20329
 O498 O 0.72769 0.72627 0.22523
 Zr499 Zr 0.74986 0.74837 0.29421
 O500 O 0.77394 0.77212 0.27248
 Zr501 Zr 0.70528 0.74843 0.24958
 O502 O 0.72679 0.77254 0.22560
 Zr503 Zr 0.75001 0.70384 0.24951
 O504 O 0.77376 0.72543 0.22525
 O505 O 0.77492 0.77343 0.22429
 O506 O 0.72622 0.72463 0.27328
 C507 C 0.74941 0.80753 0.19033
 C508 C 0.80897 0.80762 0.24987
 C509 C 0.80866 0.74819 0.18983
 C510 C 0.74979 0.69090 0.30720
 C511 C 0.69185 0.74794 0.30682
 C512 C 0.69231 0.69088 0.25035
 H513 H 0.71713 0.78414 0.28186
 H514 H 0.71693 0.71596 0.21379
 H515 H 0.78576 0.78427 0.21344
 H516 H 0.78583 0.71600 0.28245
 H517 H 0.79225 0.76012 0.31588
 H518 H 0.82034 0.74174 0.28964
 H519 H 0.66227 0.74460 0.22539
 H520 H 0.70840 0.76062 0.18196
 H521 H 0.73713 0.78985 0.31800
 H522 H 0.76446 0.81447 0.29115
 H523 H 0.73821 0.67958 0.20827
 H524 H 0.76169 0.70744 0.18162
 H525 H 0.72711 0.83769 0.24448
 H526 H 0.68365 0.79095 0.23873
 H527 H 0.81691 0.70725 0.23500
 H528 H 0.79112 0.67940 0.26147
 O529 O 0.74969 0.18445 0.78595
 O530 O 0.72013 0.17857 0.75021
 O531 O 0.81558 0.21472 0.74934
 O532 O 0.82520 0.24765 0.72441
 O533 O 0.78509 0.25071 0.81650
 O534 O 0.74983 0.27850 0.82355
 O535 O 0.74896 0.28488 0.68466
 O536 O 0.77851 0.25134 0.67780
 O537 O 0.68373 0.25089 0.71604
 O538 O 0.67809 0.22074 0.74784
 O539 O 0.71504 0.31562 0.74949
 O540 O 0.75116 0.32359 0.77819
 O541 O 0.74917 0.31547 0.71518
 O542 O 0.77847 0.32309 0.75141
 O543 O 0.68439 0.28516 0.74879
 O544 O 0.67910 0.25163 0.78105
 O545 O 0.71425 0.25120 0.68532
 O546 O 0.74900 0.22199 0.67681
 O547 O 0.74932 0.21507 0.81650
 O548 O 0.72146 0.25073 0.82342
 O549 O 0.81570 0.25033 0.78593
 O550 O 0.82157 0.27980 0.75035
 O551 O 0.78509 0.18399 0.75063
 O552 O 0.75178 0.17786 0.72132
 Zr553 Zr 0.75089 0.20458 0.75139
 O554 O 0.72718 0.22645 0.72788
 Zr555 Zr 0.79548 0.24923 0.75141
 O556 O 0.77372 0.27274 0.72737
 Zr557 Zr 0.75078 0.24932 0.79602
 O558 O 0.72723 0.27301 0.77412
 Zr559 Zr 0.74906 0.25066 0.70511
 O560 O 0.77320 0.22692 0.72679
 Zr561 Zr 0.70469 0.25079 0.74994
 O562 O 0.72627 0.22673 0.77390
 Zr563 Zr 0.74947 0.29532 0.74967
 O564 O 0.77330 0.27377 0.77386
 O565 O 0.77440 0.22578 0.77498
 O566 O 0.72555 0.27448 0.72608
 C567 C 0.74892 0.19185 0.80918
 C568 C 0.80829 0.19145 0.74943
 C569 C 0.80834 0.25109 0.80916
 C570 C 0.74897 0.30810 0.69195
 C571 C 0.69101 0.25115 0.69278
 C572 C 0.69179 0.30835 0.74897
 H573 H 0.71634 0.21497 0.71771
 H574 H 0.71653 0.28337 0.78556
 H575 H 0.78526 0.21495 0.78583
 H576 H 0.78512 0.28302 0.71659
 H577 H 0.79132 0.23871 0.68328
 H578 H 0.81954 0.25723 0.70930
 H579 H 0.66179 0.25477 0.77429
 H580 H 0.70809 0.23889 0.81758
 H581 H 0.73622 0.20909 0.68154
 H582 H 0.76361 0.18453 0.70833
 H583 H 0.73783 0.31977 0.79085
 H584 H 0.76147 0.29194 0.81748
 H585 H 0.72639 0.16153 0.75521
 H586 H 0.68305 0.20835 0.76105
 H587 H 0.81643 0.29187 0.76381
 H588 H 0.79056 0.31967 0.73745
 O589 O 0.25070 0.81678 0.78590
 O590 O 0.28027 0.82245 0.75015
 O591 O 0.18476 0.78648 0.74938
 O592 O 0.17501 0.75343 0.72462
 O593 O 0.21525 0.75070 0.81666
 O594 O 0.25048 0.72288 0.82372
 O595 O 0.25122 0.71593 0.68483
 O596 O 0.22171 0.74945 0.67791
 O597 O 0.31652 0.74997 0.71606
 O598 O 0.32224 0.78020 0.74780
 O599 O 0.28511 0.68539 0.74976
 O600 O 0.24898 0.67761 0.77846
 O601 O 0.25097 0.68546 0.71542
 O602 O 0.22168 0.67804 0.75167
 O603 O 0.31582 0.71579 0.74894
 O604 O 0.32121 0.74946 0.78108
 O605 O 0.28597 0.74961 0.68537
 O606 O 0.25120 0.77881 0.67687
 O607 O 0.25106 0.78629 0.81651
 O608 O 0.27888 0.75063 0.82349
 O609 O 0.18460 0.75101 0.78612
 O610 O 0.17866 0.72139 0.75059
 O611 O 0.21530 0.81715 0.75056
 O612 O 0.24862 0.82309 0.72125
 Zr613 Zr 0.24946 0.79650 0.75139
 O614 O 0.27312 0.77450 0.72790
 Zr615 Zr 0.20478 0.75193 0.75156
 O616 O 0.22649 0.72830 0.72755
 Zr617 Zr 0.24953 0.75196 0.79612
 O618 O 0.27302 0.72814 0.77424
 Zr619 Zr 0.25117 0.75023 0.70520
 O620 O 0.22709 0.77409 0.72686
 Zr621 Zr 0.29559 0.75020 0.74999
 O622 O 0.27407 0.77440 0.77392
 Zr623 Zr 0.25072 0.70576 0.74986
 O624 O 0.22695 0.72744 0.77404
 O625 O 0.22593 0.77545 0.77505
 O626 O 0.27466 0.72645 0.72620
 C627 C 0.25148 0.80948 0.80914
 C628 C 0.19210 0.80974 0.74937
 C629 C 0.19199 0.75031 0.80935
 C630 C 0.25117 0.69274 0.69218
 C631 C 0.30922 0.74968 0.69280
 C632 C 0.30838 0.69262 0.74922
 H633 H 0.28395 0.78592 0.71770
 H634 H 0.28371 0.71781 0.78571
 H635 H 0.21509 0.78634 0.78588
 H636 H 0.21506 0.71799 0.71680
 H637 H 0.20890 0.76209 0.68338
 H638 H 0.18066 0.74383 0.70950
 H639 H 0.33850 0.74626 0.77432
 H640 H 0.29227 0.76242 0.81760
 H641 H 0.26404 0.79168 0.68152
 H642 H 0.23676 0.81640 0.70828
 H643 H 0.26231 0.68148 0.79112
 H644 H 0.23880 0.70944 0.81770
 H645 H 0.27404 0.83952 0.75510
 H646 H 0.31731 0.79266 0.76098
 H647 H 0.18379 0.70938 0.76409
 H648 H 0.20958 0.68144 0.73772
 O649 O 0.24855 0.31625 0.71515
 O650 O 0.21897 0.32192 0.75090
 O651 O 0.31455 0.28612 0.75170
 O652 O 0.32432 0.25311 0.77645
 O653 O 0.28417 0.25025 0.68438
 O654 O 0.24905 0.22234 0.67721
 O655 O 0.24821 0.21549 0.81604
 O656 O 0.27761 0.24911 0.82305
 O657 O 0.18285 0.24936 0.78478
 O658 O 0.17706 0.27954 0.75308
 O659 O 0.21441 0.18482 0.75108
 O660 O 0.25060 0.17713 0.72236
 O661 O 0.24855 0.18500 0.78541
 O662 O 0.27784 0.17759 0.74919
 O663 O 0.18364 0.21515 0.75190
 O664 O 0.17822 0.24880 0.71976
 O665 O 0.21337 0.24907 0.81549
 O666 O 0.24800 0.27833 0.82413
 O667 O 0.24828 0.28572 0.68451
 O668 O 0.22058 0.25000 0.67744
 O669 O 0.31479 0.25066 0.71494
 O670 O 0.32080 0.22108 0.75041
 O671 O 0.28395 0.31674 0.75050
 O672 O 0.25058 0.32262 0.77981
 Zr673 Zr 0.24983 0.29601 0.74963
 O674 O 0.22619 0.27397 0.77304
 Zr675 Zr 0.29459 0.25154 0.74946
 O676 O 0.27292 0.22787 0.77339
 Zr677 Zr 0.24988 0.25143 0.70486
 O678 O 0.22642 0.22757 0.72664
 Zr679 Zr 0.24818 0.24977 0.79573
 O680 O 0.27222 0.27368 0.77415
 Zr681 Zr 0.20380 0.24961 0.75089
 O682 O 0.22529 0.27385 0.72704
 Zr683 Zr 0.24876 0.20526 0.75101
 O684 O 0.27251 0.22699 0.72691
 O685 O 0.27341 0.27499 0.72597
 O686 O 0.22476 0.22592 0.77467
 C687 C 0.24780 0.30891 0.69191
 C688 C 0.30717 0.30937 0.75171
 C689 C 0.30741 0.24994 0.69172
 C690 C 0.24834 0.19230 0.80865
 C691 C 0.19014 0.24909 0.80803
 C692 C 0.19113 0.19200 0.75161
 H693 H 0.21532 0.28538 0.78325
 H694 H 0.21577 0.21721 0.71515
 H695 H 0.28423 0.28590 0.71517
 H696 H 0.28436 0.21759 0.78414
 H697 H 0.29038 0.26179 0.81762
 H698 H 0.31868 0.24348 0.79154
 H699 H 0.16093 0.24553 0.72649
 H700 H 0.20716 0.26177 0.68331
 H701 H 0.23520 0.29122 0.81943
 H702 H 0.26247 0.31598 0.79277
 H703 H 0.23722 0.18091 0.70974
 H704 H 0.26074 0.20893 0.68323
 H705 H 0.22518 0.33900 0.74596
 H706 H 0.18201 0.29203 0.73996
 H707 H 0.31571 0.20904 0.73690
 H708 H 0.28996 0.18105 0.76311
 O709 O 0.75176 0.68404 0.71469
 O710 O 0.78115 0.67819 0.75056
 O711 O 0.68570 0.71433 0.75104
 O712 O 0.67593 0.74732 0.77587
 O713 O 0.71650 0.75018 0.68399
 O714 O 0.75175 0.77803 0.67712
 O715 O 0.75204 0.78459 0.81597
 O716 O 0.72245 0.75110 0.82273
 O717 O 0.81738 0.75056 0.78490
 O718 O 0.82320 0.72041 0.75310
 O719 O 0.78618 0.81526 0.75129
 O720 O 0.75017 0.82314 0.72243
 O721 O 0.75193 0.81513 0.78545
 O722 O 0.72279 0.82271 0.74914
 O723 O 0.81685 0.78483 0.75216
 O724 O 0.82232 0.75123 0.71991
 O725 O 0.78672 0.75089 0.81548
 O726 O 0.75192 0.72171 0.82381
 O727 O 0.75228 0.71462 0.68417
 O728 O 0.78013 0.75026 0.67736
 O729 O 0.68575 0.74983 0.71442
 O730 O 0.67969 0.77940 0.74998
 O731 O 0.71620 0.68360 0.74986
 O732 O 0.74940 0.67754 0.77932
 Zr733 Zr 0.75040 0.70421 0.74925
 O734 O 0.77401 0.72611 0.77286
 Zr735 Zr 0.70579 0.74884 0.74903
 O736 O 0.72744 0.77238 0.77317
 Zr737 Zr 0.75070 0.74888 0.70464
 O738 O 0.77415 0.77261 0.72663
 Zr739 Zr 0.75200 0.75035 0.79553
 O740 O 0.72797 0.72657 0.77375
 Zr741 Zr 0.79659 0.75044 0.75090
 O742 O 0.77511 0.72633 0.72686
 Zr743 Zr 0.75177 0.79494 0.75097
 O744 O 0.72805 0.77335 0.72668
 O745 O 0.72699 0.72536 0.72556
 O746 O 0.77560 0.77415 0.77467
 C747 C 0.75265 0.69141 0.69148
 C748 C 0.69299 0.69105 0.75098
 C749 C 0.69322 0.75055 0.69122
 C750 C 0.75205 0.80779 0.80867
 C751 C 0.80999 0.75081 0.80812
 C752 C 0.80944 0.80801 0.75193
 H753 H 0.78479 0.71465 0.78307
 H754 H 0.78489 0.78295 0.71523
 H755 H 0.71619 0.71450 0.71467
 H756 H 0.71599 0.78268 0.78390
 H757 H 0.70965 0.73848 0.81718
 H758 H 0.68153 0.75689 0.79103
 H759 H 0.83958 0.75443 0.72674
 H760 H 0.79349 0.73845 0.68326
 H761 H 0.76472 0.70881 0.81915
 H762 H 0.73747 0.68421 0.79224
 H763 H 0.76358 0.81933 0.70985
 H764 H 0.74004 0.79145 0.68312
 H765 H 0.77491 0.66114 0.74553
 H766 H 0.81827 0.70797 0.73989
 H767 H 0.68488 0.79143 0.73652
 H768 H 0.71062 0.81928 0.76302
 O769 O 0.24934 0.68486 0.28540
 O770 O 0.21989 0.67900 0.24956
 O771 O 0.31532 0.71518 0.24909
 O772 O 0.32504 0.74817 0.22426
 O773 O 0.28454 0.75108 0.31619
 O774 O 0.24923 0.77885 0.32314
 O775 O 0.24887 0.78543 0.18431
 O776 O 0.27852 0.75196 0.17748
 O777 O 0.18359 0.75132 0.21534
 O778 O 0.17782 0.72116 0.24710
 O779 O 0.21475 0.81605 0.24906
 O780 O 0.25080 0.82393 0.27795
 O781 O 0.24897 0.81596 0.21490
 O782 O 0.27812 0.82358 0.25118
 O783 O 0.18411 0.78559 0.24815
 O784 O 0.17869 0.75200 0.28034
 O785 O 0.21424 0.75168 0.18476
 O786 O 0.24905 0.72255 0.17634
 O787 O 0.24883 0.71544 0.31598
 O788 O 0.22091 0.75101 0.32288
 O789 O 0.31527 0.75074 0.28575
 O790 O 0.32130 0.78026 0.25023
 O791 O 0.28484 0.68445 0.25020
 O792 O 0.25162 0.67836 0.22076
 Zr793 Zr 0.25063 0.70503 0.25088
 O794 O 0.22699 0.72692 0.22732
 Zr795 Zr 0.29521 0.74969 0.25114
 O796 O 0.27353 0.77323 0.22708
 Zr797 Zr 0.25033 0.74970 0.29557
 O798 O 0.22684 0.77340 0.27364
 Zr799 Zr 0.24897 0.75118 0.20468
 O800 O 0.27303 0.72741 0.22640
 Zr801 Zr 0.20440 0.75122 0.24934
 O802 O 0.22591 0.72713 0.27333
 Zr803 Zr 0.24918 0.79576 0.24933
 O804 O 0.27294 0.77419 0.27356
 O805 O 0.27404 0.72620 0.27459
 O806 O 0.22536 0.77495 0.22560
 C807 C 0.24850 0.69223 0.30862
 C808 C 0.30803 0.69191 0.24910
 C809 C 0.30781 0.75149 0.30895
 C810 C 0.24884 0.80863 0.19167
 C811 C 0.19098 0.75158 0.19211
 C812 C 0.19150 0.80878 0.24841
 H813 H 0.21621 0.71545 0.21709
 H814 H 0.21609 0.78374 0.28507
 H815 H 0.28487 0.71537 0.28546
 H816 H 0.28496 0.78354 0.21636
 H817 H 0.29131 0.73933 0.18298
 H818 H 0.31943 0.75778 0.20915
 H819 H 0.16142 0.75517 0.27352
 H820 H 0.20756 0.73919 0.31695
 H821 H 0.23629 0.70962 0.18100
 H822 H 0.26353 0.68503 0.20784
 H823 H 0.23734 0.82016 0.29049
 H824 H 0.26091 0.79229 0.31716
 H825 H 0.22614 0.66196 0.25456
 H826 H 0.18275 0.70874 0.26030
 H827 H 0.31608 0.79232 0.26368
 H828 H 0.29031 0.82014 0.23731
 O829 O 0.74973 0.31478 0.28489
 O830 O 0.77931 0.32057 0.24916
 O831 O 0.68393 0.28427 0.24832
 O832 O 0.67435 0.25119 0.22351
 O833 O 0.71450 0.24858 0.31559
 O834 O 0.74980 0.22091 0.32274
 O835 O 0.75062 0.21394 0.18389
 O836 O 0.72106 0.24740 0.17692
 O837 O 0.81582 0.24815 0.21520
 O838 O 0.82143 0.27845 0.24689
 O839 O 0.78464 0.18353 0.24882
 O840 O 0.74847 0.17567 0.27756
 O841 O 0.75048 0.18348 0.21450
 O842 O 0.72127 0.17590 0.25070
 O843 O 0.81524 0.21404 0.24806
 O844 O 0.82045 0.24775 0.28021
 O845 O 0.78530 0.24765 0.18448
 O846 O 0.75053 0.27678 0.17587
 O847 O 0.75016 0.28428 0.31550
 O848 O 0.77810 0.24874 0.32253
 O849 O 0.68388 0.24881 0.28503
 O850 O 0.67802 0.21920 0.24953
 O851 O 0.71437 0.31505 0.24952
 O852 O 0.74771 0.32110 0.22024
 Zr853 Zr 0.74860 0.29451 0.25039
 O854 O 0.77235 0.27258 0.22695
 Zr855 Zr 0.70407 0.24980 0.25051
 O856 O 0.72587 0.22621 0.22656
 Zr857 Zr 0.74878 0.24996 0.29511
 O858 O 0.77238 0.22622 0.27331
 Zr859 Zr 0.75049 0.24823 0.20425
 O860 O 0.72632 0.27203 0.22584
 Zr861 Zr 0.79487 0.24837 0.24909
 O862 O 0.77326 0.27251 0.27296
 Zr863 Zr 0.75017 0.20377 0.24892
 O864 O 0.72629 0.22539 0.27303
 O865 O 0.72512 0.27338 0.27403
 O866 O 0.77405 0.22454 0.22528
 C867 C 0.75050 0.30747 0.30812
 C868 C 0.69119 0.30756 0.24831
 C869 C 0.69126 0.24812 0.30826
 C870 C 0.75063 0.19076 0.19126
 C871 C 0.80853 0.24778 0.19195
 C872 C 0.80788 0.19085 0.24831
 H873 H 0.78316 0.28403 0.21675
 H874 H 0.78309 0.21593 0.28479
 H875 H 0.71424 0.28423 0.28484
 H876 H 0.71449 0.21586 0.21581
 H877 H 0.70823 0.26003 0.18237
 H878 H 0.68004 0.24157 0.20842
 H879 H 0.83777 0.24460 0.27347
 H880 H 0.79144 0.26060 0.31668
 H881 H 0.76330 0.28970 0.18055
 H882 H 0.73590 0.31436 0.20726
 H883 H 0.76188 0.17949 0.29015
 H884 H 0.73820 0.20741 0.31670
 H885 H 0.77302 0.33762 0.25413
 H886 H 0.81645 0.29091 0.26005
 H887 H 0.68320 0.20718 0.26300
 H888 H 0.70910 0.17932 0.23681
 C889 C 0.23530 0.13807 0.11151
 C890 C 0.25884 0.12857 0.09663
 C891 C 0.25005 0.10112 0.10096
 C892 C 0.22651 0.11032 0.11553
 C893 C 0.25070 0.13646 0.13624
 C894 C 0.24192 0.10901 0.14056
 C895 C 0.27425 0.12726 0.12166
 C896 C 0.26546 0.09950 0.12568
 C897 C 0.24963 0.08148 0.08128
 C898 C 0.24927 0.06536 0.06503
 C899 C 0.25086 0.15615 0.15589
 C900 C 0.25072 0.17235 0.17205
 H901 H 0.22290 0.15415 0.10590
 H902 H 0.26577 0.13638 0.07833
 H903 H 0.20688 0.10313 0.11280
 H904 H 0.23496 0.10118 0.15885
 H905 H 0.29388 0.13444 0.12440
 H906 H 0.27784 0.08340 0.13127
 C907 C 0.76868 0.61154 0.63781
 C908 C 0.74481 0.59702 0.62859
 C909 C 0.75332 0.60120 0.60101
 C910 C 0.77719 0.61541 0.60991
 C911 C 0.75364 0.63646 0.63634
 C912 C 0.76214 0.64064 0.60875
 C913 C 0.72977 0.62225 0.62743
 C914 C 0.73827 0.62612 0.59954
 C915 C 0.75305 0.58154 0.58139
 C916 C 0.75277 0.56530 0.56529
 C917 C 0.75362 0.65608 0.65602
 C918 C 0.75335 0.67222 0.67222
 H919 H 0.78119 0.60578 0.65376
 H920 H 0.73768 0.57886 0.63651
 H921 H 0.79668 0.61236 0.60247
 H922 H 0.76928 0.65880 0.60083
 H923 H 0.71027 0.62528 0.63486
 H924 H 0.72577 0.63187 0.58358
 C925 C 0.77035 0.86654 0.11616
 C926 C 0.75015 0.86996 0.09504
 C927 C 0.74961 0.89854 0.10070
 C928 C 0.76980 0.89543 0.12152
 C929 C 0.74889 0.86289 0.13560
 C930 C 0.74835 0.89148 0.14125
 C931 C 0.72869 0.86600 0.11478
 C932 C 0.72815 0.89490 0.12013
 C933 C 0.75008 0.91840 0.08127
 C934 C 0.75050 0.93473 0.06527
 C935 C 0.74871 0.84307 0.15508
 C936 C 0.74884 0.82681 0.17115
 H937 H 0.78770 0.85466 0.11474
 H938 H 0.75091 0.86135 0.07581
 H939 H 0.78671 0.90776 0.12407
 H940 H 0.74760 0.90012 0.16047
 H941 H 0.71179 0.85368 0.11222
 H942 H 0.71081 0.90680 0.12154
 C943 C 0.22520 0.38304 0.63261
 C944 C 0.24519 0.40448 0.63028
 C945 C 0.24703 0.39917 0.60166
 C946 C 0.22704 0.37804 0.60367
 C947 C 0.24678 0.36392 0.63693
 C948 C 0.24863 0.35861 0.60830
 C949 C 0.26677 0.38505 0.63490
 C950 C 0.26861 0.38005 0.60597
 C951 C 0.24723 0.41882 0.58206
 C952 C 0.24743 0.43502 0.56595
 C953 C 0.24682 0.34429 0.65656
 C954 C 0.24710 0.32814 0.67271
 H955 H 0.20735 0.38404 0.64379
 H956 H 0.24378 0.42358 0.63907
 H957 H 0.21072 0.37540 0.59059
 H958 H 0.25004 0.33953 0.59948
 H959 H 0.28310 0.38771 0.64797
 H960 H 0.28646 0.37905 0.59479
 C961 C 0.74852 0.10814 0.85872
 C962 C 0.76921 0.10492 0.87938
 C963 C 0.74823 0.10134 0.89934
 C964 C 0.72754 0.10425 0.87897
 C965 C 0.74800 0.13677 0.86420
 C966 C 0.72702 0.13319 0.88416
 C967 C 0.76869 0.13385 0.88457
 C968 C 0.74771 0.12996 0.90483
 C969 C 0.74841 0.08159 0.91888
 C970 C 0.74857 0.06532 0.93495
 C971 C 0.74803 0.15647 0.84460
 C972 C 0.74828 0.17265 0.82844
 H973 H 0.74885 0.09938 0.83954
 H974 H 0.78656 0.09308 0.87764
 H975 H 0.71062 0.09185 0.87690
 H976 H 0.70967 0.14503 0.88590
 H977 H 0.78561 0.14624 0.88666
 H978 H 0.74739 0.13869 0.92401
 C979 C 0.25377 0.60910 0.35859
 C980 C 0.27165 0.60890 0.38195
 C981 C 0.24892 0.60194 0.39884
 C982 C 0.23104 0.60183 0.37579
 C983 C 0.24808 0.63724 0.36363
 C984 C 0.22535 0.63028 0.38052
 C985 C 0.26596 0.63734 0.38668
 C986 C 0.24324 0.63007 0.40389
 C987 C 0.24945 0.58228 0.41842
 C988 C 0.24991 0.56607 0.43451
 C989 C 0.24784 0.65688 0.34400
 C990 C 0.24794 0.67303 0.32785
 H991 H 0.25808 0.60070 0.33974
 H992 H 0.29069 0.59989 0.38276
 H993 H 0.21669 0.58698 0.37155
 H994 H 0.20631 0.63929 0.37971
 H995 H 0.28032 0.65218 0.39094
 H996 H 0.23893 0.63845 0.42275
 C997 C 0.27221 0.88590 0.86642
 C998 C 0.25047 0.90522 0.87085
 C999 C 0.25204 0.89995 0.89949
 C1000 C 0.27377 0.88094 0.89538
 C1001 C 0.25237 0.86464 0.86417
 C1002 C 0.25393 0.85938 0.89282
 C1003 C 0.23063 0.88366 0.86830
 C1004 C 0.23220 0.87870 0.89724
 C1005 C 0.25179 0.91958 0.91918
 C1006 C 0.25156 0.93570 0.93544
 C1007 C 0.25237 0.84495 0.84452
 C1008 C 0.25213 0.82875 0.82836
 H1009 H 0.28866 0.88863 0.85353
 H1010 H 0.24904 0.92429 0.86205
 H1011 H 0.29151 0.88005 0.90675
 H1012 H 0.25536 0.84032 0.90164
 H1013 H 0.21289 0.88456 0.85694
 H1014 H 0.21575 0.87596 0.91014
 C1015 C 0.74464 0.39058 0.35823
 C1016 C 0.72727 0.39050 0.38197
 C1017 C 0.75023 0.39790 0.39837
 C1018 C 0.76760 0.39829 0.37493
 C1019 C 0.75094 0.36256 0.36313
 C1020 C 0.77391 0.36996 0.37953
 C1021 C 0.73357 0.36217 0.38657
 C1022 C 0.75653 0.36989 0.40328
 C1023 C 0.74979 0.41760 0.41795
 C1024 C 0.74942 0.43385 0.43403
 C1025 C 0.75114 0.34289 0.34350
 C1026 C 0.75103 0.32671 0.32734
 H1027 H 0.73976 0.39886 0.33948
 H1028 H 0.70809 0.39917 0.38320
 H1029 H 0.78158 0.41339 0.37038
 H1030 H 0.79308 0.36129 0.37830
 H1031 H 0.71958 0.34709 0.39113
 H1032 H 0.76140 0.36162 0.42204
 C1033 C 0.13367 0.23033 0.11513
 C1034 C 0.10469 0.22904 0.12003
 C1035 C 0.10074 0.25003 0.10020
 C1036 C 0.12942 0.25131 0.09499
 C1037 C 0.13589 0.25092 0.13568
 C1038 C 0.13195 0.27191 0.11585
 C1039 C 0.10720 0.24964 0.14088
 C1040 C 0.10295 0.27062 0.12074
 C1041 C 0.08118 0.24947 0.08045
 C1042 C 0.06506 0.24899 0.06420
 C1043 C 0.15547 0.25122 0.15544
 C1044 C 0.17158 0.25120 0.17169
 H1045 H 0.14652 0.21376 0.11304
 H1046 H 0.09326 0.21141 0.12152
 H1047 H 0.13832 0.25198 0.07589
 H1048 H 0.14338 0.28954 0.11435
 H1049 H 0.09828 0.24896 0.15996
 H1050 H 0.09009 0.28718 0.12282
 C1051 C 0.61673 0.77034 0.63380
 C1052 C 0.62164 0.77190 0.60483
 C1053 C 0.60288 0.74995 0.60079
 C1054 C 0.59766 0.74838 0.62945
 C1055 C 0.63826 0.75079 0.63602
 C1056 C 0.61949 0.72884 0.63197
 C1057 C 0.64348 0.75236 0.60736
 C1058 C 0.62440 0.73040 0.60301
 C1059 C 0.58312 0.74941 0.58125
 C1060 C 0.56680 0.74895 0.56523
 C1061 C 0.65792 0.75106 0.65568
 C1062 C 0.67406 0.75101 0.67189
 H1063 H 0.61381 0.78676 0.64668
 H1064 H 0.62229 0.78959 0.59344
 H1065 H 0.57859 0.74673 0.63829
 H1066 H 0.61882 0.71114 0.64336
 H1067 H 0.66254 0.75400 0.59851
 H1068 H 0.62732 0.71398 0.59013
 C1069 C 0.14183 0.75330 0.89294
 C1070 C 0.11907 0.77191 0.89407
 C1071 C 0.10136 0.74944 0.89966
 C1072 C 0.12380 0.73083 0.89883
 C1073 C 0.13682 0.74940 0.86446
 C1074 C 0.11910 0.72693 0.87005
 C1075 C 0.11437 0.76801 0.86529
 C1076 C 0.09634 0.74554 0.87118
 C1077 C 0.08155 0.74947 0.91920
 C1078 C 0.06518 0.74948 0.93522
 C1079 C 0.15655 0.74949 0.84482
 C1080 C 0.17274 0.74974 0.82864
 H1081 H 0.16075 0.75649 0.90168
 H1082 H 0.11885 0.79040 0.90417
 H1083 H 0.12746 0.71555 0.91285
 H1084 H 0.11932 0.70844 0.85996
 H1085 H 0.11070 0.78329 0.85128
 H1086 H 0.07741 0.74235 0.86246
 C1087 C 0.64045 0.23839 0.39084
 C1088 C 0.62631 0.26231 0.40044
 C1089 C 0.60113 0.24768 0.39880
 C1090 C 0.61496 0.22376 0.38951
 C1091 C 0.63631 0.24734 0.36340
 C1092 C 0.61113 0.23272 0.36176
 C1093 C 0.62247 0.27126 0.37270
 C1094 C 0.59698 0.25664 0.37137
 C1095 C 0.58155 0.24795 0.41851
 C1096 C 0.56543 0.24822 0.43473
 C1097 C 0.65591 0.24732 0.34370
 C1098 C 0.67205 0.24753 0.32750
 H1099 H 0.65855 0.23088 0.39861
 H1100 H 0.63230 0.27447 0.41658
 H1101 H 0.61164 0.20424 0.39666
 H1102 H 0.60512 0.22055 0.34562
 H1103 H 0.62578 0.29079 0.36556
 H1104 H 0.57888 0.26414 0.36362
 C1105 C 0.88984 0.73491 0.13730
 C1106 C 0.88691 0.72375 0.11023
 C1107 C 0.89908 0.74789 0.09933
 C1108 C 0.90231 0.75904 0.12610
 C1109 C 0.86367 0.74752 0.13457
 C1110 C 0.87585 0.77165 0.12366
 C1111 C 0.86044 0.73636 0.10780
 C1112 C 0.87292 0.76050 0.09659
 C1113 C 0.91886 0.74815 0.07976
 C1114 C 0.93520 0.74838 0.06372
 C1115 C 0.84398 0.74746 0.15425
 C1116 C 0.82783 0.74764 0.17048
 H1117 H 0.89658 0.72438 0.15426
 H1118 H 0.89169 0.70406 0.10448
 H1119 H 0.91975 0.76837 0.13340
 H1120 H 0.87108 0.79135 0.12940
 H1121 H 0.84301 0.72703 0.10049
 H1122 H 0.86620 0.77103 0.07962
 C1123 C 0.35932 0.26215 0.61049
 C1124 C 0.38594 0.27431 0.61345
 C1125 C 0.39777 0.25055 0.60140
 C1126 C 0.37145 0.23839 0.59812
 C1127 C 0.36247 0.24974 0.63668
 C1128 C 0.37430 0.22597 0.62462
 C1129 C 0.38879 0.26190 0.63995
 C1130 C 0.40093 0.23814 0.62758
 C1131 C 0.41740 0.25103 0.58175
 C1132 C 0.43354 0.25143 0.56556
 C1133 C 0.34281 0.24948 0.65632
 C1134 C 0.32664 0.24952 0.67248
 H1135 H 0.34198 0.27202 0.60368
 H1136 H 0.39096 0.29418 0.60863
 H1137 H 0.36457 0.22875 0.58068
 H1138 H 0.36928 0.20610 0.62945
 H1139 H 0.39568 0.27155 0.65738
 H1140 H 0.41828 0.22828 0.63437
 C1141 C 0.85883 0.25759 0.89237
 C1142 C 0.87537 0.23435 0.89950
 C1143 C 0.89897 0.25148 0.89936
 C1144 C 0.88275 0.27472 0.89254
 C1145 C 0.86355 0.25185 0.86416
 C1146 C 0.88716 0.26898 0.86401
 C1147 C 0.87978 0.22862 0.87099
 C1148 C 0.90369 0.24574 0.87115
 C1149 C 0.91867 0.25120 0.91898
 C1150 C 0.93486 0.25094 0.93517
 C1151 C 0.84381 0.25189 0.84455
 C1152 C 0.82760 0.25169 0.82840
 H1153 H 0.84017 0.26247 0.90088
 H1154 H 0.87075 0.22012 0.91432
 H1155 H 0.88420 0.29367 0.90163
 H1156 H 0.89178 0.28322 0.84921
 H1157 H 0.87834 0.20966 0.86190
 H1158 H 0.92237 0.24086 0.86266
 C1159 C 0.39127 0.75658 0.35885
 C1160 C 0.39238 0.77471 0.38199
 C1161 C 0.39839 0.75194 0.39914
 C1162 C 0.39759 0.73380 0.37631
 C1163 C 0.36288 0.75227 0.36404
 C1164 C 0.36890 0.72949 0.38119
 C1165 C 0.36368 0.77040 0.38688
 C1166 C 0.37001 0.74762 0.40434
 C1167 C 0.41820 0.75169 0.41864
 C1168 C 0.43455 0.75146 0.43464
 C1169 C 0.34316 0.75229 0.34444
 C1170 C 0.32699 0.75208 0.32825
 H1171 H 0.39979 0.76027 0.33993
 H1172 H 0.40227 0.79330 0.38255
 H1173 H 0.41176 0.71876 0.37219
 H1174 H 0.35902 0.71090 0.38064
 H1175 H 0.34951 0.78545 0.39100
 H1176 H 0.36151 0.74393 0.42327
 C1177 C 0.11133 0.13731 0.23588
 C1178 C 0.11571 0.10930 0.22809
 C1179 C 0.10061 0.10081 0.25155
 C1180 C 0.09592 0.12851 0.25933
 C1181 C 0.13568 0.13632 0.25192
 C1182 C 0.12058 0.12784 0.27538
 C1183 C 0.14036 0.10862 0.24413
 C1184 C 0.12496 0.09982 0.26759
 C1185 C 0.08112 0.08102 0.25127
 C1186 C 0.06510 0.06469 0.25101
 C1187 C 0.15527 0.15605 0.25193
 C1188 C 0.17143 0.17223 0.25168
 H1189 H 0.10594 0.15294 0.22284
 H1190 H 0.11349 0.10146 0.20865
 H1191 H 0.07740 0.13645 0.26557
 H1192 H 0.12280 0.13568 0.29482
 H1193 H 0.15886 0.10066 0.23788
 H1194 H 0.13033 0.08417 0.28061
 C1195 C 0.63781 0.61224 0.76772
 C1196 C 0.60943 0.61675 0.77409
 C1197 C 0.60202 0.60132 0.75046
 C1198 C 0.63008 0.59650 0.74409
 C1199 C 0.63761 0.63632 0.75131
 C1200 C 0.63019 0.62087 0.72769
 C1201 C 0.60954 0.64113 0.75768
 C1202 C 0.60182 0.62539 0.73405
 C1203 C 0.58220 0.58185 0.74991
 C1204 C 0.56588 0.56584 0.74943
 C1205 C 0.65741 0.65583 0.75157
 C1206 C 0.67367 0.67190 0.75149
 H1207 H 0.65283 0.60706 0.78157
 H1208 H 0.60066 0.61483 0.79316
 H1209 H 0.63829 0.57792 0.73849
 H1210 H 0.63894 0.62279 0.70861
 H1211 H 0.60132 0.65970 0.76328
 H1212 H 0.58680 0.63057 0.72021
 C1213 C 0.87753 0.12657 0.72558
 C1214 C 0.90298 0.12858 0.74022
 C1215 C 0.89901 0.10148 0.75016
 C1216 C 0.87387 0.09916 0.73553
 C1217 C 0.86357 0.13662 0.74915
 C1218 C 0.85961 0.10951 0.75909
 C1219 C 0.88872 0.13893 0.76379
 C1220 C 0.88506 0.11153 0.77372
 C1221 C 0.91876 0.08195 0.75079
 C1222 C 0.93504 0.06590 0.75135
 C1223 C 0.84384 0.15619 0.74884
 C1224 C 0.82760 0.17229 0.74890
 H1225 H 0.87421 0.13298 0.70579
 H1226 H 0.92106 0.13619 0.73249
 H1227 H 0.86801 0.08257 0.72393
 H1228 H 0.84155 0.10189 0.76684
 H1229 H 0.89460 0.15550 0.77540
 H1230 H 0.88837 0.10512 0.79352
 C1231 C 0.37595 0.62577 0.22500
 C1232 C 0.40208 0.62821 0.23833
 C1233 C 0.39843 0.60160 0.24962
 C1234 C 0.37262 0.59884 0.23630
 C1235 C 0.36319 0.63693 0.24875
 C1236 C 0.35954 0.61032 0.26003
 C1237 C 0.38901 0.63968 0.26206
 C1238 C 0.38566 0.61276 0.27335
 C1239 C 0.41806 0.58194 0.25017
 C1240 C 0.43423 0.56577 0.25064
 C1241 C 0.34354 0.65660 0.24848
 C1242 C 0.32734 0.67274 0.24857
 H1243 H 0.37174 0.63134 0.20512
 H1244 H 0.41981 0.63533 0.22943
 H1245 H 0.36611 0.58182 0.22573
 H1246 H 0.34183 0.60318 0.26895
 H1247 H 0.39553 0.65669 0.27265
 H1248 H 0.38988 0.60719 0.29324
 C1249 C 0.14006 0.89120 0.73654
 C1250 C 0.11328 0.88853 0.72462
 C1251 C 0.10174 0.90008 0.74880
 C1252 C 0.12820 0.90306 0.76072
 C1253 C 0.13702 0.86477 0.74843
 C1254 C 0.12546 0.87633 0.77261
 C1255 C 0.11055 0.86179 0.73651
 C1256 C 0.09870 0.87365 0.76069
 C1257 C 0.08206 0.91968 0.74910
 C1258 C 0.06579 0.93577 0.74939
 C1259 C 0.15666 0.84510 0.74842
 C1260 C 0.17283 0.82894 0.74868
 H1261 H 0.15728 0.89819 0.72661
 H1262 H 0.10804 0.89377 0.70490
 H1263 H 0.13522 0.92026 0.77068
 H1264 H 0.13070 0.87110 0.79234
 H1265 H 0.10352 0.84460 0.72656
 H1266 H 0.08147 0.86668 0.77062
 C1267 C 0.62299 0.37265 0.27136
 C1268 C 0.62645 0.40002 0.26128
 C1269 C 0.60078 0.39785 0.24760
 C1270 C 0.59701 0.37078 0.25768
 C1271 C 0.63602 0.36250 0.24729
 C1272 C 0.61034 0.36033 0.23361
 C1273 C 0.63978 0.38958 0.23721
 C1274 C 0.61379 0.38772 0.22353
 C1275 C 0.58115 0.41752 0.24785
 C1276 C 0.56498 0.43369 0.24810
 C1277 C 0.65567 0.34284 0.24732
 C1278 C 0.67187 0.32670 0.24760
 H1279 H 0.62700 0.36623 0.29102
 H1280 H 0.63285 0.41657 0.27265
 H1281 H 0.57920 0.36328 0.26609
 H1282 H 0.60393 0.34379 0.22223
 H1283 H 0.65758 0.39709 0.22879
 H1284 H 0.60978 0.39415 0.20387
 C1285 C 0.86362 0.88597 0.23309
 C1286 C 0.87139 0.90263 0.25606
 C1287 C 0.89944 0.89785 0.24960
 C1288 C 0.89196 0.88149 0.22662
 C1289 C 0.86419 0.86251 0.25037
 C1290 C 0.89224 0.85773 0.24390
 C1291 C 0.87166 0.87887 0.27335
 C1292 C 0.90003 0.87439 0.26688
 C1293 C 0.91901 0.91756 0.24909
 C1294 C 0.93507 0.93383 0.24865
 C1295 C 0.84452 0.84287 0.25058
 C1296 C 0.82831 0.82675 0.25045
 H1297 H 0.84842 0.89052 0.21921
 H1298 H 0.86305 0.92133 0.26104
 H1299 H 0.90053 0.88280 0.20741
 H1300 H 0.90060 0.83905 0.23892
 H1301 H 0.86309 0.87756 0.29256
 H1302 H 0.91524 0.86987 0.28075
 C1303 C 0.36595 0.38393 0.73151
 C1304 C 0.36928 0.40482 0.75194
 C1305 C 0.39793 0.39932 0.75241
 C1306 C 0.39490 0.37873 0.73198
 C1307 C 0.36240 0.36426 0.75273
 C1308 C 0.39105 0.35876 0.75320
 C1309 C 0.36542 0.38485 0.77317
 C1310 C 0.39439 0.37966 0.77363
 C1311 C 0.41772 0.41881 0.75217
 C1312 C 0.43404 0.43484 0.75192
 C1313 C 0.34264 0.34470 0.75271
 C1314 C 0.32643 0.32858 0.75243
 H1315 H 0.35403 0.38546 0.71419
 H1316 H 0.36057 0.42399 0.75142
 H1317 H 0.40725 0.37643 0.71504
 H1318 H 0.39979 0.33960 0.75372
 H1319 H 0.35308 0.38714 0.79010
 H1320 H 0.40632 0.37813 0.79094
 C1321 C 0.14051 0.25164 0.89163
 C1322 C 0.11854 0.27108 0.89356
 C1323 C 0.10000 0.24917 0.89861
 C1324 C 0.12167 0.22972 0.89700
 C1325 C 0.13509 0.24884 0.86310
 C1326 C 0.11655 0.22691 0.86816
 C1327 C 0.11341 0.26828 0.86473
 C1328 C 0.09456 0.24636 0.87009
 C1329 C 0.08051 0.24944 0.91841
 C1330 C 0.06448 0.24970 0.93474
 C1331 C 0.15468 0.24879 0.84338
 C1332 C 0.17084 0.24887 0.82721
 H1333 H 0.15963 0.25380 0.90026
 H1334 H 0.11913 0.28924 0.90424
 H1335 H 0.12483 0.21388 0.91050
 H1336 H 0.11596 0.20876 0.85748
 H1337 H 0.11024 0.28413 0.85123
 H1338 H 0.07543 0.24420 0.86149
 C1339 C 0.64105 0.73823 0.38947
 C1340 C 0.62687 0.76204 0.39933
 C1341 C 0.60170 0.74739 0.39761
 C1342 C 0.61557 0.72358 0.38806
 C1343 C 0.63687 0.74744 0.36211
 C1344 C 0.61169 0.73279 0.36039
 C1345 C 0.62299 0.77124 0.37168
 C1346 C 0.59752 0.75659 0.37026
 C1347 C 0.58211 0.74744 0.41737
 C1348 C 0.56596 0.74754 0.43360
 C1349 C 0.65647 0.74755 0.34235
 C1350 C 0.67261 0.74770 0.32611
 H1351 H 0.65916 0.73068 0.39716
 H1352 H 0.63289 0.77406 0.41557
 H1353 H 0.61231 0.70398 0.39501
 H1354 H 0.60566 0.72076 0.34416
 H1355 H 0.62625 0.79085 0.36473
 H1356 H 0.57939 0.76414 0.36258
 C1357 C 0.85963 0.75323 0.89193
 C1358 C 0.87852 0.73124 0.89682
 C1359 C 0.90018 0.75066 0.89876
 C1360 C 0.88161 0.77266 0.89418
 C1361 C 0.86498 0.75099 0.86333
 C1362 C 0.88664 0.77042 0.86527
 C1363 C 0.88356 0.72899 0.86792
 C1364 C 0.90553 0.74842 0.87017
 C1365 C 0.91980 0.75038 0.91845
 C1366 C 0.93599 0.75007 0.93463
 C1367 C 0.84537 0.75104 0.84361
 C1368 C 0.82922 0.75099 0.82740
 H1369 H 0.84054 0.75521 0.90065
 H1370 H 0.87541 0.71513 0.91002
 H1371 H 0.88103 0.79060 0.90521
 H1372 H 0.88976 0.78653 0.85208
 H1373 H 0.88415 0.71104 0.85691
 H1374 H 0.92463 0.74644 0.86146
 C1375 C 0.39160 0.25291 0.35755
 C1376 C 0.39419 0.27272 0.37915
 C1377 C 0.39819 0.25101 0.39817
 C1378 C 0.39591 0.23120 0.37688
 C1379 C 0.36293 0.25144 0.36279
 C1380 C 0.36694 0.22973 0.38181
 C1381 C 0.36521 0.27126 0.38408
 C1382 C 0.36952 0.24954 0.40340
 C1383 C 0.41778 0.25066 0.41790
 C1384 C 0.43385 0.25030 0.43419
 C1385 C 0.34327 0.25155 0.34310
 C1386 C 0.32708 0.25151 0.32692
 H1387 H 0.40046 0.25431 0.33847
 H1388 H 0.40562 0.29040 0.37828
 H1389 H 0.40876 0.21473 0.37414
 H1390 H 0.35552 0.21205 0.38269
 H1391 H 0.35236 0.28773 0.38682
 H1392 H 0.36068 0.24814 0.42249
 C1393 C 0.12843 0.72805 0.12145
 C1394 C 0.10013 0.73501 0.12551
 C1395 C 0.10100 0.75118 0.10127
 C1396 C 0.12899 0.74422 0.09691
 C1397 C 0.13608 0.75163 0.13681
 C1398 C 0.13696 0.76781 0.11258
 C1399 C 0.10808 0.75859 0.14118
 C1400 C 0.10865 0.77477 0.11663
 C1401 C 0.08144 0.75080 0.08152
 C1402 C 0.06531 0.75039 0.06530
 C1403 C 0.15564 0.75175 0.15659
 C1404 C 0.17175 0.75173 0.17284
 H1405 H 0.13678 0.70885 0.12366
 H1406 H 0.08476 0.72152 0.13059
 H1407 H 0.13736 0.73831 0.07848
 H1408 H 0.15232 0.78130 0.10749
 H1409 H 0.09971 0.76451 0.15960
 H1410 H 0.10029 0.79397 0.11441
 C1411 C 0.61114 0.26719 0.63906
 C1412 C 0.61527 0.27566 0.61119
 C1413 C 0.60075 0.25204 0.60218
 C1414 C 0.59631 0.24357 0.62973
 C1415 C 0.63589 0.25181 0.63767
 C1416 C 0.62136 0.22819 0.62865
 C1417 C 0.64033 0.26028 0.61012
 C1418 C 0.62549 0.23666 0.60080
 C1419 C 0.58121 0.25209 0.58239
 C1420 C 0.56515 0.25208 0.56608
 C1421 C 0.65551 0.25162 0.65740
 C1422 C 0.67170 0.25141 0.67358
 H1423 H 0.60546 0.27975 0.65501
 H1424 H 0.61255 0.29518 0.60379
 H1425 H 0.57798 0.23671 0.63756
 H1426 H 0.62407 0.20867 0.63605
 H1427 H 0.65864 0.26715 0.60227
 H1428 H 0.63117 0.22412 0.58483
 C1429 C 0.89029 0.23577 0.14019
 C1430 C 0.88770 0.22308 0.11376
 C1431 C 0.89882 0.24707 0.10153
 C1432 C 0.90173 0.25976 0.12763
 C1433 C 0.86364 0.24717 0.13694
 C1434 C 0.87477 0.27116 0.12470
 C1435 C 0.86073 0.23448 0.11083
 C1436 C 0.87217 0.25846 0.09829
 C1437 C 0.91837 0.24712 0.08179
 C1438 C 0.93443 0.24723 0.06550
 C1439 C 0.84401 0.24731 0.15662
 C1440 C 0.82783 0.24750 0.17277
 H1441 H 0.89751 0.22644 0.15764
 H1442 H 0.89325 0.20332 0.10903
 H1443 H 0.91882 0.27015 0.13430
 H1444 H 0.86923 0.29092 0.12942
 H1445 H 0.84365 0.22408 0.10415
 H1446 H 0.86496 0.26779 0.08082
 C1447 C 0.36071 0.76031 0.61084
 C1448 C 0.38686 0.77359 0.61306
 C1449 C 0.39957 0.74970 0.60221
 C1450 C 0.37372 0.73641 0.59968
 C1451 C 0.36435 0.74942 0.63765
 C1452 C 0.37707 0.72552 0.62680
 C1453 C 0.39021 0.76270 0.64017
 C1454 C 0.40323 0.73881 0.62901
 C1455 C 0.41919 0.74993 0.58247
 C1456 C 0.43535 0.75018 0.56625
 C1457 C 0.34471 0.74939 0.65737
 C1458 C 0.32853 0.74947 0.67357
 H1459 H 0.34301 0.76915 0.60357
 H1460 H 0.39110 0.79336 0.60719
 H1461 H 0.36716 0.72561 0.58281
 H1462 H 0.37283 0.70575 0.63266
 H1463 H 0.39679 0.77351 0.65703
 H1464 H 0.42094 0.72997 0.63626
 C1465 C 0.25159 0.10870 0.85823
 C1466 C 0.27112 0.10700 0.88017
 C1467 C 0.24924 0.10188 0.89877
 C1468 C 0.22972 0.10327 0.87714
 C1469 C 0.24863 0.13720 0.86356
 C1470 C 0.22675 0.13208 0.88216
 C1471 C 0.26815 0.13580 0.88520
 C1472 C 0.24628 0.13038 0.90410
 C1473 C 0.24966 0.08227 0.91840
 C1474 C 0.25004 0.06617 0.93462
 C1475 C 0.24841 0.15687 0.84396
 C1476 C 0.24833 0.17306 0.82784
 H1477 H 0.25377 0.10001 0.83915
 H1478 H 0.28936 0.09646 0.87959
 H1479 H 0.21392 0.08966 0.87406
 H1480 H 0.20850 0.14263 0.88275
 H1481 H 0.28395 0.14941 0.88829
 H1482 H 0.24410 0.13905 0.92320
 C1483 C 0.75306 0.60744 0.35725
 C1484 C 0.77236 0.60597 0.37941
 C1485 C 0.75032 0.60083 0.39781
 C1486 C 0.73102 0.60200 0.37596
 C1487 C 0.74990 0.63596 0.36238
 C1488 C 0.72785 0.63083 0.38079
 C1489 C 0.76920 0.63478 0.38424
 C1490 C 0.74715 0.62934 0.40295
 C1491 C 0.75064 0.58124 0.41752
 C1492 C 0.75094 0.56508 0.43369
 C1493 C 0.74976 0.65554 0.34265
 C1494 C 0.74974 0.67167 0.32644
 H1495 H 0.75549 0.59865 0.33824
 H1496 H 0.79067 0.59552 0.37906
 H1497 H 0.71533 0.58830 0.37278
 H1498 H 0.70954 0.64127 0.38113
 H1499 H 0.78489 0.64848 0.38743
 H1500 H 0.74473 0.63811 0.42197
 C1501 C 0.73588 0.13735 0.11123
 C1502 C 0.75961 0.12734 0.09699
 C1503 C 0.75020 0.10009 0.10121
 C1504 C 0.72647 0.10979 0.11514
 C1505 C 0.75062 0.13555 0.13634
 C1506 C 0.74121 0.10829 0.14056
 C1507 C 0.77435 0.12585 0.12241
 C1508 C 0.76493 0.09828 0.12632
 C1509 C 0.74989 0.08035 0.08166
 C1510 C 0.74961 0.06410 0.06556
 C1511 C 0.75074 0.15527 0.15593
 C1512 C 0.75074 0.17149 0.17205
 H1513 H 0.72395 0.15364 0.10525
 H1514 H 0.76716 0.13493 0.07884
 H1515 H 0.70679 0.10295 0.11193
 H1516 H 0.73365 0.10068 0.15869
 H1517 H 0.79404 0.13268 0.12563
 H1518 H 0.77687 0.08198 0.13228
 C1519 C 0.26602 0.61236 0.63906
 C1520 C 0.24214 0.59828 0.62919
 C1521 C 0.25152 0.60220 0.60185
 C1522 C 0.27540 0.61598 0.61141
 C1523 C 0.25150 0.63757 0.63712
 C1524 C 0.26089 0.64149 0.60977
 C1525 C 0.22763 0.62379 0.62755
 C1526 C 0.23701 0.62741 0.59990
 C1527 C 0.25145 0.58249 0.58223
 C1528 C 0.25134 0.56624 0.56611
 C1529 C 0.25143 0.65727 0.65677
 C1530 C 0.25133 0.67346 0.67294
 H1531 H 0.27794 0.60639 0.65537
 H1532 H 0.23444 0.58028 0.63694
 H1533 H 0.29504 0.61254 0.60455
 H1534 H 0.26860 0.65948 0.60201
 H1535 H 0.20799 0.62721 0.63440
 H1536 H 0.22509 0.63337 0.58358
 C1537 C 0.77135 0.88494 0.86491
 C1538 C 0.74906 0.90333 0.87043
 C1539 C 0.75233 0.89822 0.89895
 C1540 C 0.77462 0.88015 0.89375
 C1541 C 0.75234 0.86286 0.86372
 C1542 C 0.75562 0.85776 0.89225
 C1543 C 0.73006 0.88094 0.86893
 C1544 C 0.73333 0.87614 0.89776
 C1545 C 0.75225 0.91791 0.91855
 C1546 C 0.75213 0.93413 0.93468
 C1547 C 0.75228 0.84318 0.84409
 C1548 C 0.75219 0.82701 0.82793
 H1549 H 0.78698 0.88832 0.85118
 H1550 H 0.74637 0.92230 0.86170
 H1551 H 0.79294 0.88005 0.90419
 H1552 H 0.75831 0.83880 0.90099
 H1553 H 0.71173 0.88104 0.85850
 H1554 H 0.71771 0.87276 0.91150
 C1555 C 0.24563 0.39187 0.35819
 C1556 C 0.22692 0.39300 0.38086
 C1557 C 0.24932 0.39885 0.39862
 C1558 C 0.26803 0.39803 0.37625
 C1559 C 0.24970 0.36348 0.36336
 C1560 C 0.27210 0.36933 0.38112
 C1561 C 0.23099 0.36431 0.38573
 C1562 C 0.25338 0.37047 0.40380
 C1563 C 0.24903 0.41856 0.41824
 C1564 C 0.24875 0.43481 0.43436
 C1565 C 0.24981 0.34379 0.34370
 C1566 C 0.24982 0.32760 0.32752
 H1567 H 0.24245 0.40046 0.33922
 H1568 H 0.20834 0.40295 0.38097
 H1569 H 0.28326 0.41212 0.37258
 H1570 H 0.29068 0.35938 0.38101
 H1571 H 0.21575 0.35023 0.38942
 H1572 H 0.25657 0.36190 0.42278
 C1573 C 0.27186 0.87222 0.12179
 C1574 C 0.25597 0.87141 0.09704
 C1575 C 0.24811 0.89910 0.10161
 C1576 C 0.26400 0.90022 0.12605
 C1577 C 0.24831 0.86373 0.13676
 C1578 C 0.24045 0.89143 0.14133
 C1579 C 0.23242 0.86261 0.11232
 C1580 C 0.22456 0.89062 0.11657
 C1581 C 0.24809 0.91875 0.08200
 C1582 C 0.24812 0.93487 0.06581
 C1583 C 0.24847 0.84404 0.15634
 C1584 C 0.24864 0.82785 0.17246
 H1585 H 0.29130 0.86443 0.12415
 H1586 H 0.26234 0.86342 0.07860
 H1587 H 0.27698 0.91592 0.13145
 H1588 H 0.23408 0.89943 0.15976
 H1589 H 0.21944 0.84692 0.10690
 H1590 H 0.20512 0.89842 0.11420
 C1591 C 0.72825 0.38385 0.63429
 C1592 C 0.74960 0.40363 0.63009
 C1593 C 0.74846 0.39827 0.60143
 C1594 C 0.72711 0.37879 0.60532
 C1595 C 0.74854 0.36304 0.63678
 C1596 C 0.74739 0.35768 0.60811
 C1597 C 0.76988 0.38253 0.63288
 C1598 C 0.76874 0.37747 0.60392
 C1599 C 0.74849 0.41791 0.58178
 C1600 C 0.74856 0.43410 0.56563
 C1601 C 0.74864 0.34343 0.65647
 C1602 C 0.74878 0.32729 0.67267
 H1603 H 0.71160 0.38626 0.64700
 H1604 H 0.75051 0.42275 0.63889
 H1605 H 0.70952 0.37748 0.59377
 H1606 H 0.74648 0.33857 0.59929
 H1607 H 0.78748 0.38385 0.64442
 H1608 H 0.78539 0.37506 0.59120
 C1609 C 0.11277 0.13690 0.73470
 C1610 C 0.11743 0.10859 0.72832
 C1611 C 0.10129 0.10111 0.75143
 C1612 C 0.09633 0.12911 0.75781
 C1613 C 0.13640 0.13659 0.75182
 C1614 C 0.12026 0.12911 0.77494
 C1615 C 0.14136 0.10858 0.74544
 C1616 C 0.12491 0.10079 0.76855
 C1617 C 0.08170 0.08141 0.75112
 C1618 C 0.06550 0.06525 0.75083
 C1619 C 0.15594 0.15637 0.75191
 C1620 C 0.17201 0.17264 0.75184
 H1621 H 0.10799 0.15197 0.72079
 H1622 H 0.11604 0.09993 0.70915
 H1623 H 0.07758 0.13732 0.76289
 H1624 H 0.12164 0.13778 0.79411
 H1625 H 0.16009 0.10036 0.74036
 H1626 H 0.12967 0.08571 0.78246
 C1627 C 0.63877 0.61076 0.26542
 C1628 C 0.61097 0.61461 0.27430
 C1629 C 0.60175 0.60070 0.25037
 C1630 C 0.62923 0.59654 0.24148
 C1631 C 0.63719 0.63586 0.25071
 C1632 C 0.62796 0.62195 0.22678
 C1633 C 0.60971 0.64002 0.25960
 C1634 C 0.60018 0.62581 0.23566
 C1635 C 0.58198 0.58117 0.25005
 C1636 C 0.56567 0.56514 0.24972
 C1637 C 0.65690 0.65547 0.25075
 C1638 C 0.67308 0.67163 0.25064
 H1639 H 0.65486 0.60479 0.27766
 H1640 H 0.60376 0.61136 0.29384
 H1641 H 0.63702 0.57844 0.23404
 H1642 H 0.63516 0.62518 0.20724
 H1643 H 0.60190 0.65811 0.26705
 H1644 H 0.58408 0.63177 0.22343
 C1645 C 0.13923 0.88974 0.23410
 C1646 C 0.11202 0.88656 0.22335
 C1647 C 0.10142 0.89941 0.24730
 C1648 C 0.12831 0.90291 0.25805
 C1649 C 0.13658 0.86399 0.24748
 C1650 C 0.12597 0.87686 0.27143
 C1651 C 0.10968 0.86050 0.23673
 C1652 C 0.09877 0.87367 0.26067
 C1653 C 0.08183 0.91913 0.24731
 C1654 C 0.06570 0.93535 0.24740
 C1655 C 0.15618 0.84427 0.24770
 C1656 C 0.17230 0.82805 0.24798
 H1657 H 0.15609 0.89613 0.22318
 H1658 H 0.10605 0.89078 0.20358
 H1659 H 0.13574 0.92057 0.26681
 H1660 H 0.13193 0.87264 0.29120
 H1661 H 0.10224 0.84284 0.22796
 H1662 H 0.08190 0.86729 0.27159
 C1663 C 0.62392 0.37411 0.77204
 C1664 C 0.62718 0.40125 0.76127
 C1665 C 0.60137 0.39867 0.74792
 C1666 C 0.59781 0.37183 0.75868
 C1667 C 0.63673 0.36343 0.74810
 C1668 C 0.61091 0.36085 0.73474
 C1669 C 0.64029 0.39027 0.73732
 C1670 C 0.61417 0.38800 0.72396
 C1671 C 0.58167 0.41827 0.74792
 C1672 C 0.56545 0.43440 0.74800
 C1673 C 0.65641 0.34379 0.74830
 C1674 C 0.67257 0.32762 0.74857
 H1675 H 0.62815 0.36818 0.79182
 H1676 H 0.63364 0.41809 0.77218
 H1677 H 0.58011 0.36448 0.76746
 H1678 H 0.60445 0.34403 0.72382
 H1679 H 0.65798 0.39763 0.72854
 H1680 H 0.60993 0.39394 0.70419
 C1681 C 0.87916 0.12837 0.22497
 C1682 C 0.90319 0.12875 0.24196
 C1683 C 0.89852 0.10076 0.24858
 C1684 C 0.87481 0.10007 0.23159
 C1685 C 0.86308 0.13591 0.24812
 C1686 C 0.85842 0.10792 0.25474
 C1687 C 0.88680 0.13659 0.26510
 C1688 C 0.88244 0.10830 0.27172
 C1689 C 0.91824 0.08118 0.24893
 C1690 C 0.93444 0.06504 0.24929
 C1691 C 0.84335 0.15549 0.24802
 C1692 C 0.82713 0.17162 0.24808
 H1693 H 0.87759 0.13684 0.20574
 H1694 H 0.92183 0.13708 0.23672
 H1695 H 0.87011 0.08482 0.21782
 H1696 H 0.83979 0.09957 0.25998
 H1697 H 0.89151 0.15183 0.27888
 H1698 H 0.88401 0.09983 0.29095
 C1699 C 0.37630 0.62671 0.72521
 C1700 C 0.40230 0.62890 0.73882
 C1701 C 0.39856 0.60206 0.74954
 C1702 C 0.37287 0.59956 0.73593
 C1703 C 0.36330 0.63739 0.74905
 C1704 C 0.35957 0.61055 0.75976
 C1705 C 0.38900 0.63988 0.76266
 C1706 C 0.38556 0.61274 0.77337
 C1707 C 0.41822 0.58242 0.74990
 C1708 C 0.43443 0.56628 0.75025
 C1709 C 0.34368 0.65709 0.74894
 C1710 C 0.32755 0.67330 0.74899
 H1711 H 0.37227 0.63268 0.70541
 H1712 H 0.42010 0.63621 0.73023
 H1713 H 0.36648 0.58275 0.72495
 H1714 H 0.34178 0.60322 0.76837
 H1715 H 0.39541 0.65668 0.77365
 H1716 H 0.38960 0.60678 0.79317
 C1717 C 0.86739 0.88355 0.73224
 C1718 C 0.87086 0.90387 0.75323
 C1719 C 0.89956 0.89861 0.75311
 C1720 C 0.89639 0.87860 0.73212
 C1721 C 0.86434 0.86324 0.75291
 C1722 C 0.89304 0.85799 0.75279
 C1723 C 0.86750 0.88325 0.77390
 C1724 C 0.89651 0.87830 0.77379
 C1725 C 0.91919 0.91828 0.75312
 C1726 C 0.93538 0.93444 0.75306
 C1727 C 0.84474 0.84352 0.75269
 C1728 C 0.82862 0.82730 0.75239
 H1729 H 0.85520 0.88550 0.71515
 H1730 H 0.86198 0.92297 0.75341
 H1731 H 0.90850 0.87692 0.71494
 H1732 H 0.90194 0.83890 0.75261
 H1733 H 0.85539 0.88493 0.79108
 H1734 H 0.90871 0.87637 0.79087
 C1735 C 0.36755 0.38151 0.22988
 C1736 C 0.36904 0.40396 0.24882
 C1737 C 0.39754 0.39872 0.25227
 C1738 C 0.39635 0.37657 0.23333
 C1739 C 0.36213 0.36354 0.25217
 C1740 C 0.39062 0.35830 0.25563
 C1741 C 0.36331 0.38568 0.27112
 C1742 C 0.39212 0.38076 0.27457
 C1743 C 0.41729 0.41827 0.25223
 C1744 C 0.43360 0.43431 0.25213
 C1745 C 0.34244 0.34390 0.25201
 C1746 C 0.32628 0.32772 0.25177
 H1747 H 0.35723 0.38160 0.21149
 H1748 H 0.36041 0.42297 0.24602
 H1749 H 0.41017 0.37305 0.21780
 H1750 H 0.39928 0.33931 0.25843
 H1751 H 0.34950 0.38921 0.28666
 H1752 H 0.40245 0.38067 0.29295
   
