data_POSCAR
  _audit_creation_date              2014-09-24
  _audit_creation_method            'ToBaCCo'
  _symmetry_space_group_name_H-M    'P1'
  _symmetry_Int_Tables_number       1
  _symmetry_cell_setting            triclinic
  loop_
  _symmetry_equiv_pos_as_xyz
 x,y,z
_cell_length_a 52.6889
_cell_length_b 53.6452
_cell_length_c 52.8942
_cell_angle_alpha 90.065400
_cell_angle_beta 89.896200
_cell_angle_gamma 90.056100
loop_
  _atom_site_label
  _atom_site_type_symbol
  _atom_site_fract_x
  _atom_site_fract_y
  _atom_site_fract_z
C1 C 0.35203 0.35534 0.32291
 C2 C 0.37341 0.34462 0.31144
 C3 C 0.38419 0.32276 0.32129
 C4 C 0.37366 0.31178 0.34300
 C5 C 0.35223 0.32224 0.35469
 C6 C 0.34137 0.34411 0.34460
 C7 C 0.34075 0.37679 0.31273
 C8 C 0.31891 0.38702 0.32385
 C9 C 0.30854 0.37596 0.34556
 C10 C 0.31956 0.35453 0.35595
 C11 C 0.30873 0.34304 0.37714
 C12 C 0.31926 0.32113 0.38709
 C13 C 0.34111 0.31092 0.37594
 H14 H 0.38138 0.35314 0.29467
 H15 H 0.38197 0.29485 0.35049
 H16 H 0.34864 0.38532 0.29589
 H17 H 0.29165 0.38371 0.35417
 H18 H 0.29186 0.35100 0.38557
 H19 H 0.34915 0.29394 0.38361
 C20 C 0.35510 0.85684 -0.18020
 C21 C 0.37637 0.84607 -0.19188
 C22 C 0.38719 0.82411 -0.18219
 C23 C 0.37676 0.81317 -0.16036
 C24 C 0.35548 0.82368 -0.14850
 C25 C 0.34460 0.84560 -0.15846
 C26 C 0.34378 0.87834 -0.19024
 C27 C 0.32199 0.88863 -0.17896
 C28 C 0.31184 0.87749 -0.15715
 C29 C 0.32291 0.85602 -0.14693
 C30 C 0.31218 0.84448 -0.12571
 C31 C 0.32270 0.82251 -0.11593
 C32 C 0.34449 0.81232 -0.12722
 H33 H 0.38415 0.85468 -0.20869
 H34 H 0.38500 0.79619 -0.15288
 H35 H 0.35161 0.88684 -0.20715
 H36 H 0.29505 0.88512 -0.14825
 H37 H 0.29538 0.85244 -0.11714
 H38 H 0.35252 0.79529 -0.11967
 C39 C 0.85478 0.35537 -0.17574
 C40 C 0.87644 0.34368 -0.18562
 C41 C 0.88640 0.32223 -0.17410
 C42 C 0.87481 0.31279 -0.15216
 C43 C 0.85316 0.32429 -0.14208
 C44 C 0.84301 0.34561 -0.15391
 C45 C 0.84433 0.37627 -0.18774
 C46 C 0.82212 0.38746 -0.17832
 C47 C 0.81061 0.37778 -0.15642
 C48 C 0.82084 0.35688 -0.14420
 C49 C 0.80892 0.34666 -0.12281
 C50 C 0.81888 0.32529 -0.11117
 C51 C 0.84108 0.31437 -0.12072
 H52 H 0.88531 0.35095 -0.20261
 H53 H 0.88221 0.29625 -0.14310
 H54 H 0.85337 0.38344 -0.20462
 H55 H 0.79342 0.38630 -0.14916
 H56 H 0.79172 0.35509 -0.11555
 H57 H 0.84862 0.29779 -0.11174
 C58 C 0.85401 0.85193 0.31926
 C59 C 0.87513 0.83980 0.30879
 C60 C 0.88500 0.81825 0.32012
 C61 C 0.87389 0.80900 0.34235
 C62 C 0.85277 0.82091 0.35307
 C63 C 0.84273 0.84243 0.34148
 C64 C 0.84363 0.87305 0.30756
 C65 C 0.82199 0.88471 0.31771
 C66 C 0.81099 0.87528 0.33996
 C67 C 0.82114 0.85420 0.35186
 C68 C 0.80970 0.84434 0.37363
 C69 C 0.81950 0.82281 0.38506
 C70 C 0.84113 0.81133 0.37485
 H71 H 0.88372 0.84682 0.29156
 H72 H 0.88137 0.79235 0.35113
 H73 H 0.85224 0.88004 0.29038
 H74 H 0.79423 0.88417 0.34777
 H75 H 0.79296 0.85322 0.38138
 H76 H 0.84857 0.79463 0.38368
 C77 C 0.64459 0.64887 0.32104
 C78 C 0.62332 0.66064 0.31060
 C79 C 0.61341 0.68235 0.32162
 C80 C 0.62463 0.69213 0.34354
 C81 C 0.64593 0.68057 0.35424
 C82 C 0.65602 0.65889 0.34293
 C83 C 0.65497 0.62760 0.30961
 C84 C 0.67673 0.61630 0.31968
 C85 C 0.68795 0.62618 0.34157
 C86 C 0.67779 0.64746 0.35326
 C87 C 0.68934 0.65785 0.37473
 C88 C 0.67944 0.67953 0.38590
 C89 C 0.65765 0.69066 0.37572
 H90 H 0.61464 0.65321 0.29361
 H91 H 0.61711 0.70893 0.35208
 H92 H 0.64630 0.62014 0.29268
 H93 H 0.70483 0.61747 0.34921
 H94 H 0.70619 0.64923 0.38246
 H95 H 0.65014 0.70747 0.38433
 C96 C 0.64738 0.14647 -0.17866
 C97 C 0.62589 0.15778 -0.18917
 C98 C 0.61548 0.17927 -0.17819
 C99 C 0.62636 0.18923 -0.15620
 C100 C 0.64785 0.17809 -0.14541
 C101 C 0.65850 0.15666 -0.15673
 C102 C 0.65823 0.12550 -0.19015
 C103 C 0.68028 0.11459 -0.18019
 C104 C 0.69120 0.12466 -0.15817
 C105 C 0.68049 0.14568 -0.14639
 C106 C 0.69169 0.15625 -0.12483
 C107 C 0.68122 0.17767 -0.11361
 C108 C 0.65925 0.18837 -0.12386
 H109 H 0.61765 0.15003 -0.20617
 H110 H 0.61831 0.20590 -0.14781
 H111 H 0.64960 0.11805 -0.20710
 H112 H 0.70827 0.11635 -0.15046
 H113 H 0.70871 0.14799 -0.11705
 H114 H 0.65131 0.20497 -0.11523
 C115 C 0.14582 0.64231 -0.17993
 C116 C 0.12457 0.65376 -0.19078
 C117 C 0.11459 0.67575 -0.18039
 C118 C 0.12568 0.68607 -0.15866
 C119 C 0.14697 0.67484 -0.14757
 C120 C 0.15713 0.65288 -0.15828
 C121 C 0.15634 0.62084 -0.19084
 C122 C 0.17821 0.60988 -0.18051
 C123 C 0.18921 0.62031 -0.15877
 C124 C 0.17889 0.64177 -0.14764
 C125 C 0.19040 0.65269 -0.12648
 C126 C 0.18053 0.67466 -0.11593
 C127 C 0.15872 0.68552 -0.12637
 H128 H 0.11616 0.64572 -0.20757
 H129 H 0.11798 0.70312 -0.15073
 H130 H 0.14770 0.61308 -0.20765
 H131 H 0.20616 0.61196 -0.15082
 H132 H 0.20726 0.64428 -0.11857
 H133 H 0.15123 0.70256 -0.11823
 C134 C 0.14471 0.14241 0.32184
 C135 C 0.12373 0.15348 0.31009
 C136 C 0.11305 0.17552 0.31983
 C137 C 0.12339 0.18626 0.34182
 C138 C 0.14442 0.17541 0.35380
 C139 C 0.15512 0.15340 0.34374
 C140 C 0.15586 0.12086 0.31166
 C141 C 0.17740 0.11024 0.32296
 C142 C 0.18745 0.12107 0.34497
 C143 C 0.17652 0.14259 0.35534
 C144 C 0.18713 0.15381 0.37677
 C145 C 0.17682 0.17585 0.38671
 C146 C 0.15533 0.18646 0.37531
 H147 H 0.11605 0.14499 0.29318
 H148 H 0.11527 0.20330 0.34934
 H149 H 0.14811 0.11259 0.29461
 H150 H 0.20405 0.11315 0.35389
 H151 H 0.20370 0.14552 0.38538
 H152 H 0.14745 0.20355 0.38296
 C153 C 0.64626 0.35522 0.67606
 C154 C 0.62486 0.34430 0.68737
 C155 C 0.61401 0.32266 0.67709
 C156 C 0.62433 0.31217 0.65505
 C157 C 0.64570 0.32281 0.64355
 C158 C 0.65679 0.34439 0.65408
 C159 C 0.65775 0.37634 0.68671
 C160 C 0.67969 0.38660 0.67581
 C161 C 0.68997 0.37592 0.65382
 C162 C 0.67871 0.35481 0.64293
 C163 C 0.68941 0.34352 0.62148
 C164 C 0.67857 0.32190 0.61118
 C165 C 0.65659 0.31178 0.62211
 H166 H 0.61691 0.35229 0.70448
 H167 H 0.61612 0.29543 0.64706
 H168 H 0.64998 0.38456 0.70378
 H169 H 0.70695 0.38368 0.64540
 H170 H 0.70648 0.35121 0.61305
 H171 H 0.64820 0.29504 0.61432
 C172 C 0.64245 0.85492 1.17469
 C173 C 0.62101 0.84326 1.18503
 C174 C 0.61098 0.82160 1.17392
 C175 C 0.62225 0.81191 1.15189
 C176 C 0.64369 0.82341 1.14132
 C177 C 0.65390 0.84496 1.15277
 C178 C 0.65308 0.87594 1.18637
 C179 C 0.67511 0.88699 1.17650
 C180 C 0.68627 0.87725 1.15452
 C181 C 0.67588 0.85623 1.14263
 C182 C 0.68754 0.84584 1.12123
 C183 C 0.67758 0.82425 1.10997
 C184 C 0.65555 0.81328 1.11991
 H185 H 0.61241 0.85069 1.20209
 H186 H 0.61477 0.79519 1.14318
 H187 H 0.64445 0.88332 1.20338
 H188 H 0.70338 0.88578 1.14705
 H189 H 0.70460 0.85432 1.11370
 H190 H 0.64802 0.79652 1.11122
 C191 C 0.14412 0.35528 1.18015
 C192 C 0.12264 0.34406 1.19087
 C193 C 0.11254 0.32205 1.18053
 C194 C 0.12382 0.31161 1.15887
 C195 C 0.14536 0.32265 1.14792
 C196 C 0.15562 0.34454 1.15866
 C197 C 0.15469 0.37671 1.19107
 C198 C 0.17675 0.38743 1.18093
 C199 C 0.18804 0.37688 1.15939
 C200 C 0.17767 0.35543 1.14821
 C201 C 0.18934 0.34432 1.12717
 C202 C 0.17931 0.32242 1.11657
 C203 C 0.15723 0.31181 1.12685
 H204 H 0.11420 0.35235 1.20753
 H205 H 0.11612 0.29459 1.15087
 H206 H 0.14595 0.38469 1.20774
 H207 H 0.20517 0.38514 1.15168
 H208 H 0.20640 0.35255 1.11937
 H209 H 0.14962 0.29484 1.11868
 C210 C 0.14727 0.85679 0.67938
 C211 C 0.12600 0.84590 0.69095
 C212 C 0.11505 0.82411 0.68092
 C213 C 0.12536 0.81347 0.65887
 C214 C 0.14664 0.82412 0.64710
 C215 C 0.15766 0.84586 0.65741
 C216 C 0.15871 0.87810 0.68978
 C217 C 0.18046 0.88847 0.67859
 C218 C 0.19057 0.87770 0.65660
 C219 C 0.17938 0.85641 0.64599
 C220 C 0.18996 0.84517 0.62452
 C221 C 0.17927 0.82339 0.61438
 C222 C 0.15749 0.81308 0.62557
 H223 H 0.11833 0.85429 0.70794
 H224 H 0.11702 0.79662 0.65113
 H225 H 0.15104 0.88642 0.70684
 H226 H 0.20739 0.88554 0.64793
 H227 H 0.20678 0.85320 0.61603
 H228 H 0.14933 0.79620 0.61774
 C229 C 0.35451 0.64531 0.67840
 C230 C 0.37594 0.65705 0.68872
 C231 C 0.38584 0.67877 0.67769
 C232 C 0.37439 0.68864 0.65595
 C233 C 0.35292 0.67717 0.64544
 C234 C 0.34289 0.65545 0.65669
 C235 C 0.34415 0.62396 0.68974
 C236 C 0.32227 0.61271 0.67974
 C237 C 0.31089 0.62275 0.65806
 C238 C 0.32098 0.64410 0.64649
 C239 C 0.30922 0.65462 0.62525
 C240 C 0.31904 0.67637 0.61417
 C241 C 0.34097 0.68741 0.62419
 H242 H 0.38477 0.64955 0.70558
 H243 H 0.38183 0.70545 0.64742
 H244 H 0.35295 0.61638 0.70653
 H245 H 0.29392 0.61410 0.65048
 H246 H 0.29226 0.64606 0.61763
 H247 H 0.34843 0.70426 0.61564
 C248 C 0.35380 0.14321 1.18328
 C249 C 0.37531 0.15407 1.19441
 C250 C 0.38623 0.17571 1.18408
 C251 C 0.37571 0.18618 1.16214
 C252 C 0.35420 0.17556 1.15083
 C253 C 0.34312 0.15402 1.16145
 C254 C 0.34250 0.12204 1.19399
 C255 C 0.32049 0.11157 1.18333
 C256 C 0.31002 0.12234 1.16147
 C257 C 0.32114 0.14354 1.15049
 C258 C 0.31038 0.15478 1.12906
 C259 C 0.32126 0.17634 1.11858
 C260 C 0.34326 0.18650 1.12943
 H261 H 0.38318 0.14581 1.21132
 H262 H 0.38405 0.20291 1.15415
 H263 H 0.35075 0.11406 1.21085
 H264 H 0.29299 0.11440 1.15325
 H265 H 0.29332 0.14704 1.12071
 H266 H 0.35172 0.20316 1.12155
 C267 C 0.85210 0.64387 1.17397
 C268 C 0.87371 0.65490 1.18470
 C269 C 0.88442 0.67641 1.17396
 C270 C 0.87367 0.68669 1.15207
 C271 C 0.85208 0.67593 1.14115
 C272 C 0.84121 0.65445 1.15211
 C273 C 0.84078 0.62285 1.18508
 C274 C 0.81864 0.61237 1.17471
 C275 C 0.80808 0.62287 1.15278
 C276 C 0.81914 0.64387 1.14150
 C277 C 0.80804 0.65487 1.12018
 C278 C 0.81864 0.67642 1.10946
 C279 C 0.84077 0.68671 1.11983
 H280 H 0.88199 0.64710 1.20169
 H281 H 0.88174 0.70333 1.14375
 H282 H 0.84891 0.61489 1.20207
 H283 H 0.79100 0.61511 1.14461
 H284 H 0.79091 0.64691 1.11230
 H285 H 0.84883 0.70343 1.11155
 C286 C 0.85624 0.14792 0.67702
 C287 C 0.87721 0.15915 0.68879
 C288 C 0.88800 0.18094 0.67874
 C289 C 0.87803 0.19129 0.65653
 C290 C 0.85709 0.18035 0.64461
 C291 C 0.84608 0.15861 0.65487
 C292 C 0.84482 0.12659 0.68736
 C293 C 0.82329 0.11602 0.67597
 C294 C 0.81339 0.12661 0.65383
 C295 C 0.82459 0.14789 0.64326
 C296 C 0.81422 0.15904 0.62165
 C297 C 0.82498 0.18081 0.61161
 C298 C 0.84655 0.19123 0.62298
 H299 H 0.88491 0.15127 0.70601
 H300 H 0.88618 0.20812 0.64871
 H301 H 0.85231 0.11844 0.70455
 H302 H 0.79675 0.11862 0.64501
 H303 H 0.79746 0.15112 0.61287
 H304 H 0.85485 0.20811 0.61540
 C305 C 0.35454 0.35477 0.67717
 C306 C 0.34291 0.37614 0.68703
 C307 C 0.32092 0.38579 0.67586
 C308 C 0.31074 0.37426 0.65430
 C309 C 0.32222 0.35286 0.64414
 C310 C 0.34418 0.34301 0.65566
 C311 C 0.37596 0.34459 0.68892
 C312 C 0.38705 0.32269 0.67955
 C313 C 0.37692 0.31117 0.65797
 C314 C 0.35548 0.32113 0.64598
 C315 C 0.34476 0.30926 0.62490
 C316 C 0.32280 0.31889 0.61352
 C317 C 0.31174 0.34075 0.62309
 H318 H 0.35061 0.38504 0.70377
 H319 H 0.29370 0.38159 0.64568
 H320 H 0.38364 0.35352 0.70560
 H321 H 0.38550 0.29418 0.65086
 H322 H 0.35328 0.29233 0.61768
 H323 H 0.29470 0.34804 0.61433
 C324 C 0.35226 0.85603 0.17611
 C325 C 0.34066 0.87713 0.18671
 C326 C 0.31878 0.88731 0.17576
 C327 C 0.30870 0.87658 0.15375
 C328 C 0.32007 0.85548 0.14292
 C329 C 0.34190 0.84509 0.15415
 C330 C 0.37362 0.84530 0.18749
 C331 C 0.38465 0.82369 0.17730
 C332 C 0.37444 0.81299 0.15532
 C333 C 0.35308 0.82350 0.14370
 C334 C 0.34229 0.81244 0.12219
 C335 C 0.32043 0.82260 0.11114
 C336 C 0.30955 0.84422 0.12144
 H337 H 0.34831 0.88541 0.20379
 H338 H 0.29177 0.88429 0.14527
 H339 H 0.38133 0.85358 0.20450
 H340 H 0.38293 0.79622 0.14759
 H341 H 0.35057 0.79567 0.11425
 H342 H 0.29263 0.85211 0.11308
 C343 C 0.85370 0.35496 0.18114
 C344 C 0.84318 0.37643 0.19211
 C345 C 0.82143 0.38747 0.18171
 C346 C 0.81038 0.37715 0.15998
 C347 C 0.82064 0.35569 0.14880
 C348 C 0.84239 0.34449 0.15940
 C349 C 0.87501 0.34348 0.19186
 C350 C 0.88510 0.32161 0.18125
 C351 C 0.87394 0.31139 0.15949
 C352 C 0.85257 0.32263 0.14852
 C353 C 0.84087 0.31212 0.12719
 C354 C 0.81907 0.32308 0.11676
 C355 C 0.80917 0.34494 0.12752
 H356 H 0.85173 0.38426 0.20894
 H357 H 0.79351 0.38567 0.15208
 H358 H 0.88347 0.35145 0.20866
 H359 H 0.88171 0.29445 0.15138
 H360 H 0.84842 0.29519 0.11888
 H361 H 0.79236 0.35346 0.11961
 C362 C 0.85614 0.85710 0.67805
 C363 C 0.84515 0.87853 0.68851
 C364 C 0.82323 0.88895 0.67784
 C365 C 0.81247 0.87801 0.65623
 C366 C 0.82328 0.85653 0.64547
 C367 C 0.84520 0.84602 0.65645
 C368 C 0.87754 0.84624 0.68924
 C369 C 0.88808 0.82434 0.67921
 C370 C 0.87739 0.81353 0.65753
 C371 C 0.85595 0.82416 0.64613
 C372 C 0.84472 0.81295 0.62496
 C373 C 0.82278 0.82318 0.61410
 C374 C 0.81225 0.84503 0.62431
 H375 H 0.85351 0.88678 0.70521
 H376 H 0.79546 0.88602 0.64810
 H377 H 0.88567 0.85466 0.70597
 H378 H 0.88554 0.79656 0.64989
 H379 H 0.85289 0.79606 0.61729
 H380 H 0.79523 0.85281 0.61595
 C381 C 0.64722 0.64388 0.67879
 C382 C 0.65852 0.62254 0.68917
 C383 C 0.68036 0.61219 0.67812
 C384 C 0.69071 0.62308 0.65631
 C385 C 0.67968 0.64441 0.64572
 C386 C 0.65786 0.65490 0.65697
 C387 C 0.62583 0.65473 0.69018
 C388 C 0.61505 0.67649 0.68008
 C389 C 0.62555 0.68722 0.65824
 C390 C 0.64695 0.67665 0.64666
 C391 C 0.65801 0.68777 0.62531
 C392 C 0.67990 0.67754 0.61428
 C393 C 0.69050 0.65575 0.62441
 H394 H 0.65065 0.61415 0.70610
 H395 H 0.70760 0.61527 0.64775
 H396 H 0.61787 0.64642 0.70706
 H397 H 0.61724 0.70407 0.65058
 H398 H 0.64993 0.70466 0.61749
 H399 H 0.70739 0.64778 0.61603
 C400 C 0.64590 0.14374 0.18035
 C401 C 0.65711 0.12235 0.19076
 C402 C 0.67879 0.11180 0.17961
 C403 C 0.68908 0.12252 0.15769
 C404 C 0.67815 0.14388 0.14709
 C405 C 0.65648 0.15458 0.15842
 C406 C 0.62466 0.15479 0.19180
 C407 C 0.61396 0.17656 0.18167
 C408 C 0.62441 0.18713 0.15971
 C409 C 0.64568 0.17636 0.14806
 C410 C 0.65673 0.18731 0.12659
 C411 C 0.67849 0.17685 0.11550
 C412 C 0.68894 0.15503 0.12568
 H413 H 0.64928 0.11408 0.20777
 H414 H 0.70584 0.11457 0.14904
 H415 H 0.61673 0.14658 0.20875
 H416 H 0.61616 0.20400 0.15201
 H417 H 0.64874 0.20422 0.11872
 H418 H 0.70573 0.14688 0.11726
 C419 C 0.14619 0.64423 0.17549
 C420 C 0.15719 0.62323 0.18688
 C421 C 0.17927 0.61252 0.17672
 C422 C 0.19016 0.62264 0.15479
 C423 C 0.17945 0.64361 0.14322
 C424 C 0.15740 0.65450 0.15358
 C425 C 0.12456 0.65551 0.18595
 C426 C 0.11414 0.67696 0.17490
 C427 C 0.12523 0.68698 0.15298
 C428 C 0.14684 0.67594 0.14229
 C429 C 0.15847 0.68634 0.12087
 C430 C 0.18057 0.67570 0.11072
 C431 C 0.19084 0.65422 0.12181
 H432 H 0.14888 0.61543 0.20389
 H433 H 0.20723 0.61455 0.14690
 H434 H 0.11603 0.64791 0.20294
 H435 H 0.11736 0.70357 0.14443
 H436 H 0.15066 0.70301 0.11231
 H437 H 0.20792 0.64597 0.11411
 C438 C 0.14468 0.14548 0.68152
 C439 C 0.15597 0.12433 0.69211
 C440 C 0.17776 0.11384 0.68116
 C441 C 0.18805 0.12440 0.65911
 C442 C 0.17690 0.14558 0.64820
 C443 C 0.15515 0.15621 0.65950
 C444 C 0.12347 0.15645 0.69302
 C445 C 0.11269 0.17814 0.68291
 C446 C 0.12291 0.18863 0.66085
 C447 C 0.14412 0.17785 0.64909
 C448 C 0.15486 0.18869 0.62748
 C449 C 0.17660 0.17832 0.61626
 C450 C 0.18743 0.15670 0.62658
 H451 H 0.14800 0.11638 0.70915
 H452 H 0.20496 0.11633 0.65077
 H453 H 0.11573 0.14831 0.71008
 H454 H 0.11457 0.20546 0.65316
 H455 H 0.14649 0.20542 0.61972
 H456 H 0.20430 0.14883 0.61795
 C457 C 0.35508 0.64526 0.32218
 C458 C 0.34397 0.62395 0.31161
 C459 C 0.32206 0.61348 0.32236
 C460 C 0.31147 0.62421 0.34418
 C461 C 0.32241 0.64554 0.35506
 C462 C 0.34430 0.65615 0.34397
 C463 C 0.37638 0.65626 0.31085
 C464 C 0.38693 0.67813 0.32091
 C465 C 0.37642 0.68874 0.34279
 C466 C 0.35511 0.67794 0.35436
 C467 C 0.34404 0.68897 0.37571
 C468 C 0.32215 0.67864 0.38668
 C469 C 0.31152 0.65686 0.37641
 H470 H 0.35219 0.61587 0.29473
 H471 H 0.29446 0.61615 0.35236
 H472 H 0.38435 0.64801 0.29393
 H473 H 0.38458 0.70571 0.35044
 H474 H 0.35224 0.70583 0.38342
 H475 H 0.29452 0.64903 0.38484
 C476 C 0.35668 0.14538 0.82451
 C477 C 0.34562 0.12428 0.81349
 C478 C 0.32366 0.11362 0.82391
 C479 C 0.31294 0.12397 0.84588
 C480 C 0.32384 0.14511 0.85723
 C481 C 0.34580 0.15589 0.84644
 C482 C 0.37805 0.15655 0.81349
 C483 C 0.38859 0.17822 0.82400
 C484 C 0.37798 0.18845 0.84602
 C485 C 0.35660 0.17747 0.85728
 C486 C 0.34546 0.18810 0.87880
 C487 C 0.32351 0.17762 0.88950
 C488 C 0.31287 0.15606 0.87875
 H489 H 0.35394 0.11650 0.79651
 H490 H 0.29589 0.11577 0.85382
 H491 H 0.38609 0.14859 0.79646
 H492 H 0.38613 0.20526 0.85402
 H493 H 0.35368 0.20480 0.88685
 H494 H 0.29582 0.14811 0.88697
 C495 C 0.85513 0.64388 0.82027
 C496 C 0.84405 0.62232 0.81000
 C497 C 0.82224 0.61190 0.82104
 C498 C 0.81174 0.62286 0.84273
 C499 C 0.82253 0.64439 0.85316
 C500 C 0.84429 0.65502 0.84193
 C501 C 0.87646 0.65485 0.80889
 C502 C 0.88697 0.67684 0.81883
 C503 C 0.87625 0.68772 0.84051
 C504 C 0.85489 0.67703 0.85209
 C505 C 0.84353 0.68828 0.87325
 C506 C 0.82167 0.67789 0.88421
 C507 C 0.81145 0.65583 0.87426
 H508 H 0.85203 0.61386 0.79314
 H509 H 0.79487 0.61500 0.85128
 H510 H 0.88458 0.64643 0.79213
 H511 H 0.88434 0.70476 0.84805
 H512 H 0.85134 0.70539 0.88094
 H513 H 0.79459 0.64771 0.88258
 C514 C 0.85515 0.14049 0.32183
 C515 C 0.84381 0.11909 0.31156
 C516 C 0.82192 0.10890 0.32261
 C517 C 0.81158 0.11990 0.34438
 C518 C 0.82266 0.14130 0.35485
 C519 C 0.84450 0.15169 0.34355
 C520 C 0.87648 0.15128 0.31034
 C521 C 0.88718 0.17320 0.32020
 C522 C 0.87672 0.18413 0.34195
 C523 C 0.85536 0.17360 0.35365
 C524 C 0.84422 0.18499 0.37481
 C525 C 0.82229 0.17486 0.38585
 C526 C 0.81176 0.15289 0.37598
 H527 H 0.85163 0.11062 0.29464
 H528 H 0.79462 0.11220 0.35290
 H529 H 0.88441 0.14283 0.29350
 H530 H 0.88496 0.20114 0.34941
 H531 H 0.85223 0.20204 0.38243
 H532 H 0.79481 0.14501 0.38436
 C533 C 0.64478 0.35700 0.32228
 C534 C 0.65553 0.37847 0.31145
 C535 C 0.67736 0.38935 0.32200
 C536 C 0.68823 0.37889 0.34371
 C537 C 0.67783 0.35745 0.35468
 C538 C 0.65602 0.34643 0.34398
 C539 C 0.62341 0.34551 0.31148
 C540 C 0.61328 0.32364 0.32207
 C541 C 0.62444 0.31338 0.34377
 C542 C 0.64580 0.32454 0.35472
 C543 C 0.65753 0.31378 0.37583
 C544 C 0.67944 0.32450 0.38620
 C545 C 0.68934 0.34647 0.37576
 H546 H 0.64726 0.38652 0.29458
 H547 H 0.70512 0.38705 0.35189
 H548 H 0.61485 0.35330 0.29463
 H549 H 0.61687 0.29646 0.35195
 H550 H 0.64999 0.29674 0.38392
 H551 H 0.70627 0.35482 0.38367
 C552 C 0.64622 0.85858 0.81904
 C553 C 0.65744 0.87994 0.80851
 C554 C 0.67922 0.89047 0.81947
 C555 C 0.68953 0.87981 0.84136
 C556 C 0.67858 0.85849 0.85207
 C557 C 0.65687 0.84776 0.84091
 C558 C 0.62494 0.84748 0.80774
 C559 C 0.61430 0.82567 0.81796
 C560 C 0.62482 0.81514 0.83984
 C561 C 0.64612 0.82596 0.85134
 C562 C 0.65727 0.81501 0.87269
 C563 C 0.67908 0.82550 0.88359
 C564 C 0.68947 0.84736 0.87338
 H565 H 0.64960 0.88816 0.79152
 H566 H 0.70635 0.88776 0.84987
 H567 H 0.61697 0.85564 0.79083
 H568 H 0.61663 0.79823 0.84759
 H569 H 0.64934 0.79805 0.88058
 H570 H 0.70631 0.85552 0.88165
 C571 C 0.14717 0.35376 0.82564
 C572 C 0.15784 0.37468 0.81385
 C573 C 0.18014 0.38554 0.82331
 C574 C 0.19163 0.37555 0.84499
 C575 C 0.18118 0.35459 0.85705
 C576 C 0.15885 0.34364 0.84731
 C577 C 0.12535 0.34242 0.81576
 C578 C 0.11516 0.32101 0.82712
 C579 C 0.12661 0.31116 0.84884
 C580 C 0.14844 0.32229 0.85897
 C581 C 0.16038 0.31205 0.88018
 C582 C 0.18268 0.32268 0.88981
 C583 C 0.19295 0.34405 0.87832
 H584 H 0.14893 0.38221 0.79710
 H585 H 0.20892 0.38391 0.85217
 H586 H 0.11649 0.34990 0.79891
 H587 H 0.11888 0.29459 0.85764
 H588 H 0.15260 0.29549 0.88904
 H589 H 0.21023 0.35225 0.88563
 C590 C 0.14314 0.85145 0.32086
 C591 C 0.15384 0.87273 0.30978
 C592 C 0.17561 0.88381 0.32018
 C593 C 0.18656 0.87362 0.34206
 C594 C 0.17606 0.85231 0.35343
 C595 C 0.15425 0.84120 0.34277
 C596 C 0.12185 0.83988 0.31006
 C597 C 0.11163 0.81817 0.32080
 C598 C 0.12250 0.80825 0.34277
 C599 C 0.14378 0.81956 0.35376
 C600 C 0.15510 0.80916 0.37521
 C601 C 0.17694 0.81990 0.38576
 C602 C 0.18726 0.84157 0.37493
 H603 H 0.14538 0.88038 0.29286
 H604 H 0.20346 0.88212 0.34996
 H605 H 0.11344 0.84745 0.29302
 H606 H 0.11476 0.79147 0.35112
 H607 H 0.14707 0.79241 0.38333
 H608 H 0.20421 0.84978 0.38304
 O609 O 0.21526 0.97386 0.25295
 O610 O 0.24968 1.02342 0.21885
 O611 O 0.24981 0.97473 0.21793
 O612 O 0.21476 1.02265 0.25339
 O613 O 0.24443 1.02229 0.28289
 O614 O 0.27948 0.97432 0.24743
 O615 O 0.27935 1.02297 0.24835
 O616 O 0.24497 0.97357 0.28241
 Cu617 Cu 0.22936 0.99866 0.23282
 Cu618 Cu 0.26504 0.99826 0.26825
 C619 C 0.22443 0.96514 0.27328
 C620 C 0.27025 1.03176 0.22804
 C621 C 0.27043 0.96625 0.22677
 C622 C 0.22386 1.03084 0.27397
 O623 O 0.25316 0.52293 0.71819
 O624 O 0.21932 0.47367 0.75326
 O625 O 0.21851 0.52227 0.75295
 O626 O 0.25293 0.47423 0.71737
 O627 O 0.28305 0.47412 0.74642
 O628 O 0.24864 0.52259 0.78200
 O629 O 0.24943 0.47388 0.78232
 O630 O 0.28331 0.52285 0.74720
 Cu631 Cu 0.23295 0.49824 0.73252
 Cu632 Cu 0.26917 0.49835 0.76740
 C633 C 0.27384 0.53143 0.72698
 C634 C 0.22876 0.46532 0.77364
 C635 C 0.22784 0.53080 0.77327
 C636 C 0.27364 0.46581 0.72600
 O637 O 0.75248 -0.02771 0.28099
 O638 O 0.71742 0.02195 0.24819
 O639 O 0.71729 -0.02667 0.24675
 O640 O 0.75303 0.02093 0.28187
 O641 O 0.78220 0.02145 0.25177
 O642 O 0.74657 -0.02634 0.21675
 O643 O 0.74659 0.02227 0.21808
 O644 O 0.78174 -0.02720 0.25098
 Cu645 Cu 0.73211 -0.00295 0.26750
 Cu646 Cu 0.76722 -0.00242 0.23135
 C647 C 0.77292 -0.03599 0.27145
 C648 C 0.72623 0.03068 0.22769
 C649 C 0.72601 -0.03472 0.22592
 C650 C 0.77349 0.02946 0.27261
 O651 O 0.75300 0.47421 0.78207
 O652 O 0.71849 0.52307 0.74758
 O653 O 0.71860 0.47435 0.74703
 O654 O 0.75389 0.52289 0.78150
 O655 O 0.78350 0.52272 0.75183
 O656 O 0.74831 0.47428 0.71745
 O657 O 0.74813 0.52291 0.71793
 O658 O 0.78271 0.47407 0.75250
 Cu659 Cu 0.73300 0.49863 0.76754
 Cu660 Cu 0.76864 0.49844 0.73193
 C661 C 0.77357 0.46573 0.77305
 C662 C 0.72761 0.53147 0.72708
 C663 C 0.72766 0.46596 0.72647
 C664 C 0.77449 0.53122 0.77233
 O665 O 0.25107 0.47628 0.28395
 O666 O 0.21655 0.52500 0.24915
 O667 O 0.21664 0.47633 0.24902
 O668 O 0.25088 0.52501 0.28424
 O669 O 0.28088 0.52492 0.25495
 O670 O 0.24668 0.47624 0.21977
 O671 O 0.24656 0.52485 0.21987
 O672 O 0.28105 0.47626 0.25464
 Cu673 Cu 0.23076 0.50065 0.26956
 Cu674 Cu 0.26683 0.50061 0.23437
 C675 C 0.27172 0.46781 0.27503
 C676 C 0.22587 0.53330 0.22868
 C677 C 0.22598 0.46786 0.22862
 C678 C 0.27158 0.53337 0.27538
 O679 O 0.75429 1.02768 0.71582
 O680 O 0.71854 0.97928 0.74987
 O681 O 0.71977 1.02792 0.75089
 O682 O 0.75342 0.97894 0.71533
 O683 O 0.78315 0.97838 0.74477
 O684 O 0.74949 1.02721 0.78034
 O685 O 0.74824 0.97859 0.77935
 O686 O 0.78395 1.02710 0.74534
 Cu687 Cu 0.73352 1.00358 0.72999
 Cu688 Cu 0.76922 1.00272 0.76540
 C689 C 0.77497 1.03579 0.72493
 C690 C 0.72751 0.97055 0.77025
 C691 C 0.72902 1.03599 0.77149
 C692 C 0.77387 0.97015 0.72427
 O693 O 0.75128 0.52595 0.21678
 O694 O 0.71564 0.47801 0.25153
 O695 O 0.71647 0.52674 0.25154
 O696 O 0.75136 0.47727 0.21785
 O697 O 0.78073 0.47777 0.24766
 O698 O 0.74585 0.52701 0.28133
 O699 O 0.74500 0.47830 0.28135
 O700 O 0.78064 0.52645 0.24659
 Cu701 Cu 0.73074 0.50200 0.23141
 Cu702 Cu 0.76599 0.50242 0.26725
 C703 C 0.77179 0.53450 0.22585
 C704 C 0.72449 0.46979 0.27217
 C705 C 0.72541 0.53541 0.27203
 C706 C 0.77182 0.46895 0.22726
 O707 O 0.28314 0.02582 0.75472
 O708 O 0.24880 -0.02268 0.71924
 O709 O 0.24948 0.02599 0.71895
 O710 O 0.28424 -0.02286 0.75312
 O711 O 0.25449 -0.02326 0.78266
 O712 O 0.21960 0.02547 0.74836
 O713 O 0.21906 -0.02318 0.74878
 O714 O 0.25324 0.02539 0.78410
 Cu715 Cu 0.26943 0.00164 0.73355
 Cu716 Cu 0.23359 0.00107 0.76894
 C717 C 0.27385 0.03399 0.77529
 C718 C 0.22824 -0.03135 0.72821
 C719 C 0.22877 0.03413 0.72796
 C720 C 0.27512 -0.03154 0.77349
 O721 O 0.24988 0.27993 0.97946
 O722 O 0.28227 0.24406 1.02901
 O723 O 0.28289 0.24418 0.97965
 O724 O 0.24871 0.27941 1.02872
 O725 O 0.21796 0.25134 1.02818
 O726 O 0.25215 0.21610 0.97895
 O727 O 0.25157 0.21594 1.02845
 O728 O 0.21907 0.25194 0.97877
 Cu729 Cu 0.26906 0.26468 1.00430
 Cu730 Cu 0.23208 0.23100 1.00352
 C731 C 0.22909 0.27190 0.97056
 C732 C 0.27235 0.22412 1.03731
 C733 C 0.27319 0.22437 0.97077
 C734 C 0.22764 0.27124 1.03690
 O735 O 0.24759 0.78156 0.47569
 O736 O 0.28084 0.74632 0.52531
 O737 O 0.28102 0.74613 0.47596
 O738 O 0.24653 0.78096 0.52504
 O739 O 0.21624 0.75240 0.52489
 O740 O 0.25064 0.71767 0.47550
 O741 O 0.25056 0.71776 0.52485
 O742 O 0.21718 0.75312 0.47548
 Cu743 Cu 0.26706 0.76661 0.50055
 Cu744 Cu 0.23057 0.73238 0.50013
 C745 C 0.22685 0.77314 0.46703
 C746 C 0.27126 0.72621 0.53361
 C747 C 0.27155 0.72614 0.46723
 C748 C 0.22570 0.77244 0.53348
 O749 O 0.28458 0.75080 -0.02754
 O750 O 0.24970 0.71655 0.02176
 O751 O 0.24982 0.71643 -0.02753
 O752 O 0.28408 0.75117 0.02187
 O753 O 0.25402 0.77990 0.02158
 O754 O 0.21985 0.74526 -0.02776
 O755 O 0.21967 0.74532 0.02155
 O756 O 0.25456 0.77958 -0.02766
 Cu757 Cu 0.27008 0.73082 -0.00285
 Cu758 Cu 0.23401 0.76543 -0.00312
 C759 C 0.27534 0.77093 -0.03607
 C760 C 0.22893 0.72523 0.03015
 C761 C 0.22914 0.72506 -0.03612
 C762 C 0.27466 0.77132 0.03025
 O763 O 0.28089 0.24970 0.47563
 O764 O 0.24636 0.21568 0.52542
 O765 O 0.24513 0.21638 0.47600
 O766 O 0.28098 0.25009 0.52499
 O767 O 0.25147 0.27936 0.52555
 O768 O 0.21577 0.24580 0.47636
 O769 O 0.21686 0.24496 0.52580
 O770 O 0.25150 0.27909 0.47626
 Cu771 Cu 0.26628 0.22998 0.50045
 Cu772 Cu 0.23092 0.26524 0.50105
 C773 C 0.27194 0.27008 0.46742
 C774 C 0.22592 0.22470 0.53423
 C775 C 0.22456 0.22552 0.46766
 C776 C 0.27214 0.27036 0.53372
 O777 O 0.71718 0.75457 1.02107
 O778 O 0.75216 0.72037 0.97180
 O779 O 0.75105 0.71955 1.02098
 O780 O 0.71717 0.75436 0.97175
 O781 O 0.74720 0.78317 0.97223
 O782 O 0.78119 0.74827 1.02153
 O783 O 0.78221 0.74918 0.97223
 O784 O 0.74728 0.78332 1.02150
 Cu785 Cu 0.73135 0.73431 0.99634
 Cu786 Cu 0.76750 0.76891 0.99692
 C787 C 0.72647 0.77466 1.02977
 C788 C 0.77301 0.72907 0.96358
 C789 C 0.77172 0.72805 1.02971
 C790 C 0.72654 0.77456 0.96352
 O791 O 0.71990 0.25385 0.52261
 O792 O 0.75419 0.21897 0.47355
 O793 O 0.75404 0.21914 0.52276
 O794 O 0.71949 0.25328 0.47340
 O795 O 0.74940 0.28223 0.47325
 O796 O 0.78410 0.24795 0.52229
 O797 O 0.78413 0.24788 0.47300
 O798 O 0.74995 0.28267 0.52246
 Cu799 Cu 0.73387 0.23339 0.49808
 Cu800 Cu 0.76994 0.26810 0.49769
 C801 C 0.72922 0.27403 0.53101
 C802 C 0.77486 0.22757 0.46486
 C803 C 0.77482 0.22789 0.53101
 C804 C 0.72865 0.27350 0.46493
 O805 O 0.71696 0.24741 -0.02296
 O806 O 0.75042 0.28228 0.02706
 O807 O 0.74993 0.28335 -0.02228
 O808 O 0.71585 0.24777 0.02652
 O809 O 0.74636 0.21950 0.02641
 O810 O 0.78050 0.25514 -0.02246
 O811 O 0.78089 0.25398 0.02691
 O812 O 0.74755 0.21923 -0.02293
 Cu813 Cu 0.73020 0.26803 0.00210
 Cu814 Cu 0.76689 0.23412 0.00198
 C815 C 0.72680 0.22753 -0.03160
 C816 C 0.77123 0.27387 0.03559
 C817 C 0.77082 0.27517 -0.03082
 C818 C 0.72545 0.22777 0.03493
 O819 O 0.78140 0.75512 0.47579
 O820 O 0.74728 0.72045 0.52523
 O821 O 0.74739 0.72028 0.47593
 O822 O 0.78149 0.75529 0.52516
 O823 O 0.75129 0.78388 0.52535
 O824 O 0.71719 0.74886 0.47592
 O825 O 0.71704 0.74900 0.52539
 O826 O 0.75126 0.78376 0.47592
 Cu827 Cu 0.76744 0.73492 0.50056
 Cu828 Cu 0.73114 0.76926 0.50067
 C829 C 0.77194 0.77514 0.46725
 C830 C 0.72651 0.72893 0.53382
 C831 C 0.72667 0.72880 0.46736
 C832 C 0.77209 0.77536 0.53376
 O833 O 1.02457 0.27944 0.24713
 O834 O 0.97554 0.24420 0.28142
 O835 O 1.02507 0.24500 0.28152
 O836 O 0.97508 0.27916 0.24762
 O837 O 0.97518 0.25060 0.21745
 O838 O 1.02529 0.21637 0.25143
 O839 O 0.97579 0.21560 0.25129
 O840 O 1.02486 0.25085 0.21700
 Cu841 Cu 1.00005 0.26484 0.26744
 Cu842 Cu 1.00031 0.23048 0.23124
 C843 C 1.03319 0.27100 0.22641
 C844 C 0.96722 0.22402 0.27203
 C845 C 1.03377 0.22498 0.27213
 C846 C 0.96649 0.27059 0.22697
 O847 O 0.52571 0.28472 0.75004
 O848 O 0.47651 0.25018 0.78501
 O849 O 0.52607 0.25044 0.78464
 O850 O 0.47618 0.28396 0.74983
 O851 O 0.47632 0.25459 0.72046
 O852 O 0.52614 0.22127 0.75505
 O853 O 0.47680 0.22093 0.75551
 O854 O 0.52570 0.25547 0.72055
 Cu855 Cu 0.50108 0.27030 0.77037
 Cu856 Cu 0.50127 0.23511 0.73493
 C857 C 0.53414 0.27581 0.72946
 C858 C 0.46823 0.22978 0.77607
 C859 C 0.53467 0.23023 0.77555
 C860 C 0.46769 0.27483 0.72937
 O861 O -0.02504 0.21982 0.75253
 O862 O 0.02449 0.25391 0.78725
 O863 O -0.02506 0.25447 0.78682
 O864 O 0.02435 0.21999 0.75230
 O865 O 0.02479 0.24915 0.72278
 O866 O -0.02475 0.28353 0.75721
 O867 O 0.02484 0.28305 0.75771
 O868 O -0.02456 0.24890 0.72292
 Cu869 Cu -0.00035 0.23414 0.77275
 Cu870 Cu 0.00009 0.26913 0.73720
 C871 C -0.03323 0.22865 0.73186
 C872 C 0.03325 0.27406 0.77823
 C873 C -0.03346 0.27470 0.77770
 C874 C 0.03304 0.22882 0.73178
 O875 O 0.47422 0.28180 0.25286
 O876 O 0.52411 0.24694 0.21904
 O877 O 0.47444 0.24649 0.21926
 O878 O 0.52382 0.28274 0.25214
 O879 O 0.52422 0.25472 0.28276
 O880 O 0.47504 0.21847 0.24986
 O881 O 0.52454 0.21896 0.24969
 O882 O 0.47465 0.25370 0.28340
 Cu883 Cu 0.49909 0.26731 0.23273
 Cu884 Cu 0.49969 0.23366 0.26952
 C885 C 0.46580 0.27349 0.27372
 C886 C 0.53293 0.22715 0.22879
 C887 C 0.46620 0.22650 0.22912
 C888 C 0.53253 0.27471 0.27294
 O889 O 1.02647 0.78250 0.74810
 O890 O 0.97650 0.74746 0.78148
 O891 O 1.02610 0.74755 0.78201
 O892 O 0.97695 0.78245 0.74765
 O893 O 0.97721 0.75400 0.71737
 O894 O 1.02633 0.71913 0.75171
 O895 O 0.97686 0.71902 0.75118
 O896 O 1.02680 0.75407 0.71780
 Cu897 Cu 1.00147 0.76786 0.76786
 Cu898 Cu 1.00185 0.73370 0.73146
 C899 C 1.03524 0.77412 0.72741
 C900 C 0.96807 0.72741 0.77186
 C901 C 1.03468 0.72751 0.77254
 C902 C 0.96859 0.77402 0.72684
 O903 O 0.52373 0.78364 0.24507
 O904 O 0.47461 0.74959 0.28060
 O905 O 0.52407 0.74999 0.28024
 O906 O 0.47422 0.78344 0.24561
 O907 O 0.47400 0.75393 0.21639
 O908 O 0.52420 0.72058 0.25091
 O909 O 0.47476 0.72008 0.25137
 O910 O 0.52348 0.75422 0.21575
 Cu911 Cu 0.49916 0.76966 0.26583
 Cu912 Cu 0.49910 0.73423 0.23065
 C913 C 0.53204 0.77458 0.22449
 C914 C 0.46629 0.72911 0.27188
 C915 C 0.53273 0.72974 0.27134
 C916 C 0.46551 0.77427 0.22527
 O917 O 0.02325 0.74941 0.27927
 O918 O -0.02599 0.71458 0.24484
 O919 O 0.02365 0.71487 0.24492
 O920 O -0.02621 0.74906 0.27930
 O921 O -0.02625 0.77802 0.24959
 O922 O 0.02359 0.74386 0.21524
 O923 O -0.02595 0.74356 0.21515
 O924 O 0.02322 0.77839 0.24958
 Cu925 Cu -0.00132 0.72904 0.26507
 Cu926 Cu -0.00136 0.76385 0.22937
 C927 C 0.03169 0.76967 0.27018
 C928 C -0.03449 0.72336 0.22427
 C929 C 0.03226 0.72375 0.22439
 C930 C -0.03478 0.76923 0.27019
 O931 O 0.47567 0.78245 0.75034
 O932 O 0.52541 0.74699 0.71706
 O933 O 0.47579 0.74710 0.71683
 O934 O 0.52517 0.78250 0.75040
 O935 O 0.52509 0.75441 0.78095
 O936 O 0.47548 0.71900 0.74737
 O937 O 0.52508 0.71887 0.74758
 O938 O 0.47545 0.75436 0.78090
 Cu939 Cu 0.50053 0.76757 0.73057
 Cu940 Cu 0.50026 0.73383 0.76728
 C941 C 0.46698 0.77429 0.77114
 C942 C 0.53383 0.72705 0.72682
 C943 C 0.46708 0.72723 0.72652
 C944 C 0.53367 0.77435 0.77123
 C945 C 0.44569 0.31394 0.29623
 C946 C 0.41959 0.31887 0.28378
 C947 C 0.40636 0.31045 0.30835
 C948 C 0.43222 0.30567 0.32094
 C949 C 0.40542 0.28336 0.29876
 C950 C 0.41883 0.29164 0.27411
 C951 C 0.44464 0.28690 0.28669
 C952 C 0.43148 0.27844 0.31121
 H953 H 0.46251 0.32637 0.29512
 H954 H 0.41504 0.33544 0.27211
 H955 H 0.43756 0.31159 0.34033
 H956 H 0.38866 0.27085 0.29984
 H957 H 0.41349 0.28568 0.25473
 H958 H 0.43653 0.26169 0.32243
 C959 C 0.44746 0.81509 0.79347
 C960 C 0.42150 0.82047 0.78088
 C961 C 0.40803 0.81226 0.80541
 C962 C 0.43375 0.80707 0.81813
 C963 C 0.40665 0.78517 0.79584
 C964 C 0.42032 0.79322 0.77124
 C965 C 0.44598 0.78806 0.78396
 C966 C 0.43258 0.77984 0.80842
 H967 H 0.46451 0.82723 0.79241
 H968 H 0.41741 0.83706 0.76907
 H969 H 0.43915 0.81291 0.83753
 H970 H 0.38969 0.77291 0.79682
 H971 H 0.41499 0.78732 0.75184
 H972 H 0.43729 0.76303 0.81968
 C973 C -0.05332 0.29793 0.81819
 C974 C -0.06672 0.32210 0.80927
 C975 C -0.09259 0.30978 0.81451
 C976 C -0.07944 0.28575 0.82361
 C977 C -0.09362 0.29969 0.78727
 C978 C -0.06753 0.31186 0.78189
 C979 C -0.05446 0.28790 0.79101
 C980 C -0.08028 0.27560 0.79622
 H981 H -0.03647 0.29712 0.83072
 H982 H -0.06129 0.34135 0.81480
 H983 H -0.08382 0.27453 0.84067
 H984 H -0.11039 0.30043 0.77461
 H985 H -0.06245 0.32250 0.76461
 H986 H -0.08566 0.25635 0.79064
 C987 C -0.08153 0.77052 0.28929
 C988 C -0.08023 0.78073 0.31663
 C989 C -0.09322 0.80488 0.30769
 C990 C -0.09470 0.79476 0.28049
 C991 C -0.06726 0.81687 0.30209
 C992 C -0.05404 0.79258 0.31088
 C993 C -0.05563 0.78251 0.28372
 C994 C -0.06854 0.80662 0.27475
 H995 H -0.08722 0.75133 0.28381
 H996 H -0.08472 0.76973 0.33383
 H997 H -0.11163 0.79571 0.26807
 H998 H -0.06156 0.83606 0.30752
 H999 H -0.03705 0.79159 0.32321
 H1000 H -0.06358 0.81719 0.25740
 C1001 C 0.55223 0.70734 0.31230
 C1002 C 0.56563 0.68298 0.30391
 C1003 C 0.59150 0.69530 0.30913
 C1004 C 0.57834 0.71953 0.31768
 C1005 C 0.59284 0.70485 0.28172
 C1006 C 0.56677 0.69266 0.27636
 C1007 C 0.55368 0.71684 0.28494
 C1008 C 0.57949 0.72916 0.29013
 H1009 H 0.53525 0.70845 0.32470
 H1010 H 0.56010 0.66386 0.30975
 H1011 H 0.58278 0.73089 0.33464
 H1012 H 0.60976 0.70378 0.26924
 H1013 H 0.56186 0.68169 0.25924
 H1014 H 0.58501 0.74827 0.28424
 C1015 C 0.56916 0.22496 0.81306
 C1016 C 0.56787 0.19769 0.82262
 C1017 C 0.59346 0.19235 0.80963
 C1018 C 0.59500 0.21946 0.80024
 C1019 C 0.57978 0.18437 0.78518
 C1020 C 0.55398 0.18985 0.79804
 C1021 C 0.55561 0.21689 0.78867
 C1022 C 0.58116 0.21160 0.77572
 H1023 H 0.56459 0.24179 0.82442
 H1024 H 0.56259 0.19178 0.84204
 H1025 H 0.61209 0.23153 0.80118
 H1026 H 0.58365 0.16779 0.77325
 H1027 H 0.53684 0.17784 0.79706
 H1028 H 0.58646 0.21754 0.75631
 C1029 C 1.06875 0.72173 0.81021
 C1030 C 1.06712 0.69448 0.81977
 C1031 C 1.09281 0.68893 0.80707
 C1032 C 1.09466 0.71602 0.79766
 C1033 C 1.07933 0.68104 0.78248
 C1034 C 1.05343 0.68674 0.79505
 C1035 C 1.05537 0.71376 0.78567
 C1036 C 1.08102 0.70826 0.77300
 H1037 H 1.06421 0.73860 0.82152
 H1038 H 1.06158 0.68865 0.83914
 H1039 H 1.11183 0.72798 0.79877
 H1040 H 1.08325 0.66442 0.77062
 H1041 H 1.03620 0.67486 0.79390
 H1042 H 1.08657 0.71413 0.75364
 C1043 C 1.08054 0.20625 0.27289
 C1044 C 1.09391 0.21451 0.29756
 C1045 C 1.09239 0.18751 0.30731
 C1046 C 1.07921 0.17911 0.28270
 C1047 C 1.06652 0.19283 0.31976
 C1048 C 1.06781 0.21997 0.30986
 C1049 C 1.05471 0.21153 0.28532
 C1050 C 1.05311 0.18460 0.29503
 H1051 H 1.08613 0.21197 0.25350
 H1052 H 1.11087 0.22677 0.29861
 H1053 H 1.08332 0.16244 0.27096
 H1054 H 1.06086 0.18717 0.33915
 H1055 H 1.06296 0.23690 0.32094
 H1056 H 1.03608 0.17245 0.29391
 C1057 C 0.55282 0.29839 0.68830
 C1058 C 0.56655 0.32274 0.69625
 C1059 C 0.59221 0.31028 0.69045
 C1060 C 0.57870 0.28606 0.68236
 C1061 C 0.59409 0.30086 0.71786
 C1062 C 0.56819 0.31316 0.72382
 C1063 C 0.55480 0.28899 0.71563
 C1064 C 0.58042 0.27657 0.70989
 H1065 H 0.53558 0.29729 0.67632
 H1066 H 0.56103 0.34186 0.69045
 H1067 H 0.58255 0.27447 0.66540
 H1068 H 0.61128 0.30192 0.72991
 H1069 H 0.56367 0.32419 0.74101
 H1070 H 0.58594 0.25745 0.71572
 C1071 C 0.57842 0.77530 0.20493
 C1072 C 0.57694 0.78502 0.17743
 C1073 C 0.59026 0.80922 0.18589
 C1074 C 0.59194 0.79957 0.21324
 C1075 C 0.56450 0.82155 0.19155
 C1076 C 0.55094 0.79721 0.18328
 C1077 C 0.55272 0.78762 0.21058
 C1078 C 0.56597 0.81176 0.21905
 H1079 H 0.58395 0.75616 0.21067
 H1080 H 0.58098 0.77357 0.16041
 H1081 H 0.60900 0.80055 0.22549
 H1082 H 0.55892 0.84069 0.18588
 H1083 H 0.53379 0.79615 0.17117
 H1084 H 0.56129 0.82265 0.23629
 C1085 C 1.06778 0.27674 0.18907
 C1086 C 1.06625 0.30393 0.17932
 C1087 C 1.09170 0.30965 0.19235
 C1088 C 1.09348 0.28262 0.20193
 C1089 C 1.07780 0.31763 0.21673
 C1090 C 1.05212 0.31175 0.20384
 C1091 C 1.05399 0.28479 0.21339
 C1092 C 1.07940 0.29047 0.22636
 H1093 H 1.06347 0.25979 0.17781
 H1094 H 1.06099 0.30963 0.15986
 H1095 H 1.11068 0.27070 0.20114
 H1096 H 1.08128 0.33428 0.22870
 H1097 H 1.03484 0.32355 0.20470
 H1098 H 1.08463 0.28472 0.24582
 C1099 C 1.08192 0.79304 0.72730
 C1100 C 1.09560 0.78505 0.70268
 C1101 C 1.09420 0.81215 0.69321
 C1102 C 1.08072 0.82028 0.71777
 C1103 C 1.06850 0.80691 0.68046
 C1104 C 1.06967 0.77967 0.69007
 C1105 C 1.05626 0.78783 0.71457
 C1106 C 1.05478 0.81487 0.70515
 H1107 H 1.08726 0.78712 0.74668
 H1108 H 1.11257 0.77283 0.70165
 H1109 H 1.08476 0.83687 0.72965
 H1110 H 1.06309 0.81277 0.66108
 H1111 H 1.06496 0.76285 0.67876
 H1112 H 1.03773 0.82696 0.70624
 C1113 C 0.42026 0.72604 0.70810
 C1114 C 0.42121 0.71575 0.68078
 C1115 C 0.40797 0.69176 0.68993
 C1116 C 0.40685 0.70197 0.71713
 C1117 C 0.43382 0.67951 0.69527
 C1118 C 0.44729 0.70363 0.68627
 C1119 C 0.44606 0.71380 0.71341
 C1120 C 0.43291 0.68986 0.72262
 H1121 H 0.41486 0.74530 0.71358
 H1122 H 0.41680 0.72678 0.66361
 H1123 H 0.39000 0.70124 0.72974
 H1124 H 0.43923 0.66024 0.68984
 H1125 H 0.46419 0.70440 0.67372
 H1126 H 0.43789 0.67930 0.73994
 C1127 C 0.44673 0.18533 0.20746
 C1128 C 0.42090 0.18000 0.22045
 C1129 C 0.40719 0.18779 0.19598
 C1130 C 0.43277 0.19294 0.18285
 C1131 C 0.40580 0.21500 0.20517
 C1132 C 0.41971 0.20736 0.22970
 C1133 C 0.44523 0.21249 0.21659
 C1134 C 0.43159 0.22030 0.19219
 H1135 H 0.46383 0.17331 0.20847
 H1136 H 0.41699 0.16355 0.23254
 H1137 H 0.43801 0.18685 0.16347
 H1138 H 0.38878 0.22716 0.20424
 H1139 H 0.41452 0.21351 0.24908
 H1140 H 0.43614 0.23699 0.18064
 C1141 C -0.08107 0.72272 0.20553
 C1142 C -0.07993 0.71289 0.17805
 C1143 C -0.09344 0.68886 0.18668
 C1144 C -0.09474 0.69861 0.21403
 C1145 C -0.06775 0.67630 0.19203
 C1146 C -0.05401 0.70048 0.18355
 C1147 C -0.05542 0.71020 0.21084
 C1148 C -0.06883 0.68621 0.21954
 H1149 H -0.08637 0.74193 0.21129
 H1150 H -0.08404 0.72430 0.16107
 H1151 H -0.11171 0.69780 0.22647
 H1152 H -0.06246 0.65708 0.18631
 H1153 H -0.03699 0.70133 0.17118
 H1154 H -0.06407 0.67534 0.23673
 C1155 C -0.06704 0.19115 0.72606
 C1156 C -0.09294 0.20320 0.71975
 C1157 C -0.09057 0.19360 0.69241
 C1158 C -0.06490 0.18139 0.69856
 C1159 C -0.07713 0.21788 0.68436
 C1160 C -0.07934 0.22755 0.71182
 C1161 C -0.05371 0.21537 0.71792
 C1162 C -0.05125 0.20579 0.69066
 H1163 H -0.06270 0.18027 0.74336
 H1164 H -0.11031 0.20207 0.73161
 H1165 H -0.05913 0.16227 0.69292
 H1166 H -0.08077 0.22935 0.66732
 H1167 H -0.08511 0.24666 0.71750
 H1168 H -0.03384 0.20694 0.67886
 C1169 C 0.30915 0.43393 0.27940
 C1170 C 0.31914 0.43438 0.30692
 C1171 C 0.30624 0.40906 0.31171
 C1172 C 0.29639 0.40840 0.28434
 C1173 C 0.28179 0.42220 0.32061
 C1174 C 0.29455 0.44776 0.31567
 C1175 C 0.28475 0.44698 0.28835
 C1176 C 0.27187 0.42171 0.29311
 H1177 H 0.32033 0.43892 0.26233
 H1178 H 0.33871 0.43942 0.31276
 H1179 H 0.29720 0.39201 0.27154
 H1180 H 0.27013 0.41776 0.33751
 H1181 H 0.29370 0.46421 0.32839
 H1182 H 0.25231 0.41667 0.28723
 C1183 C 0.29834 -0.05172 0.81377
 C1184 C 0.28551 -0.07724 0.81876
 C1185 C 0.30988 -0.09043 0.80965
 C1186 C 0.32284 -0.06514 0.80483
 C1187 C 0.29985 -0.09103 0.78234
 C1188 C 0.27543 -0.07766 0.79132
 C1189 C 0.28834 -0.05242 0.78653
 C1190 C 0.31264 -0.06551 0.77737
 H1191 H 0.29763 -0.03529 0.82652
 H1192 H 0.27378 -0.08145 0.83566
 H1193 H 0.34246 -0.06014 0.81053
 H1194 H 0.30047 -0.10738 0.76947
 H1195 H 0.25581 -0.08262 0.78556
 H1196 H 0.32370 -0.06050 0.76023
 C1197 C 0.77780 0.43242 0.81084
 C1198 C 0.78326 0.40672 0.79867
 C1199 C 0.81058 0.40791 0.80887
 C1200 C 0.80528 0.43339 0.82118
 C1201 C 0.81973 0.42070 0.78439
 C1202 C 0.79225 0.41971 0.77413
 C1203 C 0.78697 0.44514 0.78643
 C1204 C 0.81424 0.44643 0.79657
 H1205 H 0.76044 0.43739 0.82164
 H1206 H 0.77056 0.39021 0.79956
 H1207 H 0.81077 0.43890 0.84066
 H1208 H 0.83688 0.41640 0.77300
 H1209 H 0.78669 0.41427 0.75465
 H1210 H 0.82682 0.46301 0.79562
 C1211 C 0.81409 -0.05594 0.29354
 C1212 C 0.80567 -0.06923 0.31819
 C1213 C 0.81043 -0.09459 0.30538
 C1214 C 0.81905 -0.08154 0.28086
 C1215 C 0.78283 -0.09541 0.29590
 C1216 C 0.77792 -0.06985 0.30858
 C1217 C 0.78654 -0.05686 0.28412
 C1218 C 0.79129 -0.08216 0.27131
 H1219 H 0.82677 -0.03943 0.29248
 H1220 H 0.81174 -0.06404 0.33758
 H1221 H 0.83588 -0.08590 0.26903
 H1222 H 0.77002 -0.11183 0.29688
 H1223 H 0.76090 -0.06489 0.31990
 H1224 H 0.78515 -0.08728 0.25192
 C1225 C 0.27775 0.56565 0.68979
 C1226 C 0.28283 0.59111 0.70263
 C1227 C 0.31023 0.59059 0.69248
 C1228 C 0.30530 0.56535 0.67950
 C1229 C 0.31938 0.57730 0.71661
 C1230 C 0.29185 0.57764 0.72684
 C1231 C 0.28695 0.55244 0.71387
 C1232 C 0.31430 0.55182 0.70377
 H1233 H 0.26052 0.56070 0.67883
 H1234 H 0.26996 0.60747 0.70213
 H1235 H 0.31099 0.56046 0.65990
 H1236 H 0.33646 0.58175 0.72800
 H1237 H 0.28612 0.58253 0.74643
 H1238 H 0.32709 0.53540 0.70431
 C1239 C 0.27527 1.06647 0.19122
 C1240 C 0.28065 1.09167 0.20450
 C1241 C 0.30822 1.09070 0.19486
 C1242 C 0.30300 1.06575 0.18141
 C1243 C 0.31663 1.07687 0.21898
 C1244 C 0.28893 1.07766 0.22868
 C1245 C 0.28375 1.05275 0.21528
 C1246 C 0.31125 1.05170 0.20566
 H1247 H 0.25814 1.06200 0.17989
 H1248 H 0.26811 1.10828 0.20403
 H1249 H 0.30895 1.06097 0.16185
 H1250 H 0.33348 1.08050 0.23099
 H1251 H 0.28293 1.08240 0.24824
 H1252 H 0.32368 1.03502 0.20619
 C1253 C 0.79495 0.55310 0.18480
 C1254 C 0.78214 0.57839 0.17888
 C1255 C 0.80660 0.59193 0.18716
 C1256 C 0.81955 0.56685 0.19290
 C1257 C 0.79679 0.59365 0.21454
 C1258 C 0.77227 0.57994 0.20639
 C1259 C 0.78516 0.55490 0.21211
 C1260 C 0.80955 0.56833 0.22045
 H1261 H 0.79412 0.53617 0.17275
 H1262 H 0.77030 0.58189 0.16194
 H1263 H 0.83911 0.56160 0.18719
 H1264 H 0.79754 0.61051 0.22670
 H1265 H 0.75271 0.58515 0.21216
 H1266 H 0.82071 0.56400 0.23767
 C1267 C 0.77575 1.08176 0.70666
 C1268 C 0.80022 1.09506 0.71554
 C1269 C 0.81041 1.09414 0.68826
 C1270 C 0.78601 1.08100 0.67926
 C1271 C 0.82312 1.06883 0.69339
 C1272 C 0.81278 1.06953 0.72082
 C1273 C 0.78843 1.05649 0.71175
 C1274 C 0.79858 1.05546 0.68453
 H1275 H 0.75614 1.08690 0.71232
 H1276 H 0.80094 1.11156 0.72821
 H1277 H 0.77456 1.08531 0.66224
 H1278 H 0.84274 1.06369 0.68777
 H1279 H 0.82370 1.06463 0.73804
 H1280 H 0.79781 1.03891 0.67194
 C1281 C 0.68462 0.55566 0.29486
 C1282 C 0.69348 0.56890 0.31939
 C1283 C 0.68878 0.59430 0.30673
 C1284 C 0.67976 0.58130 0.28233
 C1285 C 0.71625 0.59487 0.29680
 C1286 C 0.72109 0.56928 0.30933
 C1287 C 0.71205 0.55635 0.28498
 C1288 C 0.70738 0.58169 0.27232
 H1289 H 0.67176 0.53928 0.29397
 H1290 H 0.68761 0.56381 0.33888
 H1291 H 0.66280 0.58590 0.27085
 H1292 H 0.72919 0.61119 0.29765
 H1293 H 0.73821 0.56417 0.32037
 H1294 H 0.71329 0.58677 0.25284
 C1295 C 0.68849 1.05549 0.79506
 C1296 C 0.69723 1.06857 0.81973
 C1297 C 0.69214 1.09403 0.80735
 C1298 C 0.68323 1.08116 0.78281
 C1299 C 0.71959 1.09510 0.79735
 C1300 C 0.72483 1.06940 0.80956
 C1301 C 0.71585 1.05664 0.78509
 C1302 C 0.71080 1.08206 0.77275
 H1303 H 0.67585 1.03895 0.79403
 H1304 H 0.69151 1.06315 0.83917
 H1305 H 0.66627 1.08535 0.77117
 H1306 H 0.73233 1.11157 0.79831
 H1307 H 0.74206 1.06437 0.82046
 H1308 H 0.71658 1.08743 0.75331
 C1309 C 0.22315 0.56500 0.81056
 C1310 C 0.21754 0.59025 0.79760
 C1311 C 0.19010 0.58908 0.80758
 C1312 C 0.19555 0.56406 0.82072
 C1313 C 0.18138 0.57543 0.78344
 C1314 C 0.20895 0.57643 0.77340
 C1315 C 0.21438 0.55145 0.78649
 C1316 C 0.18701 0.55018 0.79643
 H1317 H 0.24044 0.56051 0.82160
 H1318 H 0.23003 0.60693 0.79807
 H1319 H 0.18985 0.55912 0.84030
 H1320 H 0.16433 0.57915 0.77177
 H1321 H 0.21470 0.58133 0.75382
 H1322 H 0.17464 0.53342 0.79588
 C1323 C 0.22387 1.07657 0.29283
 C1324 C 0.19965 1.09031 0.28405
 C1325 C 0.18942 1.08935 0.31131
 C1326 C 0.21360 1.07578 0.32024
 C1327 C 0.17626 1.06427 0.30595
 C1328 C 0.18664 1.06501 0.27853
 C1329 C 0.21075 1.05154 0.28750
 C1330 C 0.20057 1.05046 0.31470
 H1331 H 0.24358 1.08145 0.28723
 H1332 H 0.19927 1.10688 0.27149
 H1333 H 0.22522 1.07965 0.33726
 H1334 H 0.15655 1.05935 0.31150
 H1335 H 0.17565 1.06039 0.26127
 H1336 H 0.20104 1.03381 0.32713
 C1337 C 0.70457 0.44691 0.68559
 C1338 C 0.71712 0.42140 0.68000
 C1339 C 0.69255 0.40824 0.68853
 C1340 C 0.67986 0.43352 0.69397
 C1341 C 0.70234 0.40688 0.71590
 C1342 C 0.72699 0.42021 0.70750
 C1343 C 0.71432 0.44545 0.71290
 C1344 C 0.68980 0.43238 0.72149
 H1345 H 0.70558 0.46365 0.67331
 H1346 H 0.72875 0.41727 0.66300
 H1347 H 0.66035 0.43882 0.68823
 H1348 H 0.70138 0.39020 0.72826
 H1349 H 0.74650 0.41491 0.71328
 H1350 H 0.67867 0.43707 0.73868
 C1351 C 0.72076 -0.06745 0.18769
 C1352 C 0.71517 -0.09320 0.19961
 C1353 C 0.68770 -0.09163 0.18988
 C1354 C 0.69315 -0.06608 0.17782
 C1355 C 0.67912 -0.07902 0.21465
 C1356 C 0.70673 -0.08042 0.22445
 C1357 C 0.71214 -0.05492 0.21240
 C1358 C 0.68473 -0.05323 0.20273
 H1359 H 0.73801 -0.06253 0.17670
 H1360 H 0.72759 -0.10985 0.19827
 H1361 H 0.68738 -0.06036 0.15850
 H1362 H 0.66204 -0.08345 0.22608
 H1363 H 0.71254 -0.08613 0.24376
 H1364 H 0.67239 -0.03652 0.20412
 C1365 C 0.20739 0.42194 0.22811
 C1366 C 0.17996 0.42272 0.21780
 C1367 C 0.18910 0.40939 0.19361
 C1368 C 0.21641 0.40846 0.20385
 C1369 C 0.19446 0.43460 0.18080
 C1370 C 0.18547 0.44816 0.20513
 C1371 C 0.21271 0.44711 0.21533
 C1372 C 0.22192 0.43389 0.19119
 H1373 H 0.21291 0.41692 0.24770
 H1374 H 0.16276 0.41855 0.22917
 H1375 H 0.22905 0.39192 0.20328
 H1376 H 0.18898 0.43963 0.16120
 H1377 H 0.17291 0.46475 0.20574
 H1378 H 0.23931 0.43867 0.18034
 C1379 C 0.20504 -0.05092 0.68748
 C1380 C 0.21771 -0.07641 0.68202
 C1381 C 0.19331 -0.08966 0.69094
 C1382 C 0.18051 -0.06441 0.69625
 C1383 C 0.20342 -0.09067 0.71821
 C1384 C 0.22789 -0.07725 0.70942
 C1385 C 0.21510 -0.05205 0.71469
 C1386 C 0.19076 -0.06521 0.72366
 H1387 H 0.20580 -0.03431 0.67500
 H1388 H 0.22918 -0.08063 0.66494
 H1389 H 0.16090 -0.05930 0.69068
 H1390 H 0.20271 -0.10722 0.73077
 H1391 H 0.24750 -0.08235 0.71503
 H1392 H 0.17976 -0.06044 0.74091
 C1393 C 0.30955 0.27516 0.43287
 C1394 C 0.29677 0.28108 0.40724
 C1395 C 0.30675 0.30801 0.40895
 C1396 C 0.31968 0.30225 0.43434
 C1397 C 0.28237 0.31628 0.42276
 C1398 C 0.27232 0.28924 0.42121
 C1399 C 0.28522 0.28353 0.44657
 C1400 C 0.29518 0.31038 0.44837
 H1401 H 0.32063 0.25811 0.43722
 H1402 H 0.29747 0.26911 0.39012
 H1403 H 0.33930 0.30776 0.43958
 H1404 H 0.27070 0.33310 0.41911
 H1405 H 0.25271 0.28369 0.41597
 H1406 H 0.29445 0.32228 0.46553
 C1407 C 0.31321 0.77642 -0.07025
 C1408 C 0.30058 0.78221 -0.09598
 C1409 C 0.31021 0.80925 -0.09418
 C1410 C 0.32300 0.80363 -0.06868
 C1411 C 0.28561 0.81723 -0.08057
 C1412 C 0.27591 0.79007 -0.08223
 C1413 C 0.28867 0.78450 -0.05677
 C1414 C 0.29828 0.81147 -0.05487
 H1415 H 0.32445 0.75950 -0.06581
 H1416 H 0.30157 0.77026 -0.11311
 H1417 H 0.34250 0.80938 -0.06328
 H1418 H 0.27376 0.83389 -0.08432
 H1419 H 0.25642 0.78429 -0.08764
 H1420 H 0.29725 0.82335 -0.03769
 C1421 C 0.80862 0.28092 -0.06452
 C1422 C 0.79628 0.28592 -0.09052
 C1423 C 0.80560 0.31310 -0.08927
 C1424 C 0.81806 0.30824 -0.06344
 C1425 C 0.78074 0.32119 -0.07629
 C1426 C 0.77133 0.29385 -0.07734
 C1427 C 0.78381 0.28901 -0.05157
 C1428 C 0.79305 0.31615 -0.05020
 H1429 H 0.82002 0.26425 -0.05953
 H1430 H 0.79763 0.27357 -0.10732
 H1431 H 0.83740 0.31434 -0.05790
 H1432 H 0.76901 0.33773 -0.08091
 H1433 H 0.75199 0.28771 -0.08287
 H1434 H 0.79164 0.32841 -0.03333
 C1435 C 0.80923 0.77942 0.43279
 C1436 C 0.79652 0.78422 0.40692
 C1437 C 0.80653 0.81118 0.40746
 C1438 C 0.81937 0.80652 0.43314
 C1439 C 0.78213 0.82009 0.42078
 C1440 C 0.77204 0.79299 0.42042
 C1441 C 0.78488 0.78835 0.44605
 C1442 C 0.79483 0.81527 0.44672
 H1443 H 0.82032 0.76258 0.43789
 H1444 H 0.79725 0.77152 0.39035
 H1445 H 0.83897 0.81223 0.43818
 H1446 H 0.77065 0.83680 0.41613
 H1447 H 0.75245 0.78722 0.41539
 H1448 H 0.79405 0.82788 0.46335
 C1449 C 0.68841 0.29715 0.55016
 C1450 C 0.68267 0.28500 0.57609
 C1451 C 0.69136 0.30915 0.58931
 C1452 C 0.69695 0.32143 0.56361
 C1453 C 0.71876 0.29935 0.59079
 C1454 C 0.71019 0.27512 0.57740
 C1455 C 0.71575 0.28737 0.55175
 C1456 C 0.72451 0.31147 0.56487
 H1457 H 0.67611 0.29615 0.53318
 H1458 H 0.66552 0.27371 0.58027
 H1459 H 0.69133 0.34061 0.55813
 H1460 H 0.73114 0.30030 0.60772
 H1461 H 0.71586 0.25595 0.58289
 H1462 H 0.74186 0.32224 0.56006
 C1463 C 0.72541 0.79322 1.07631
 C1464 C 0.71562 0.82038 1.07516
 C1465 C 0.69084 0.81196 1.08811
 C1466 C 0.70056 0.78494 1.08944
 C1467 C 0.67851 0.80680 1.06228
 C1468 C 0.70343 0.81507 1.04908
 C1469 C 0.71308 0.78810 1.05052
 C1470 C 0.68836 0.77964 1.06340
 H1471 H 0.74483 0.78742 1.08189
 H1472 H 0.72717 0.83710 1.07967
 H1473 H 0.69933 0.77264 1.10626
 H1474 H 0.65909 0.81256 1.05669
 H1475 H 0.70470 0.82728 1.03219
 H1476 H 0.67724 0.76276 1.05840
 C1477 C 0.22677 0.29022 1.08334
 C1478 C 0.21738 0.31751 1.08191
 C1479 C 0.19245 0.30958 1.09491
 C1480 C 0.20176 0.28243 1.09652
 C1481 C 0.18010 0.30435 1.06909
 C1482 C 0.20516 0.31213 1.05586
 C1483 C 0.21442 0.28503 1.05757
 C1484 C 0.18954 0.27706 1.07049
 H1485 H 0.24608 0.28420 1.08903
 H1486 H 0.22920 0.33408 1.08628
 H1487 H 0.20031 0.27030 1.11345
 H1488 H 0.16078 0.31033 1.06339
 H1489 H 0.20665 0.32418 1.03887
 H1490 H 0.17818 0.26030 1.06563
 C1491 C 0.22560 0.79117 0.57984
 C1492 C 0.21612 0.81841 0.57866
 C1493 C 0.19156 0.81041 0.59231
 C1494 C 0.20098 0.78329 0.59365
 C1495 C 0.17854 0.80517 0.56682
 C1496 C 0.20323 0.81303 0.55295
 C1497 C 0.21263 0.78598 0.55439
 C1498 C 0.18812 0.77789 0.56793
 H1499 H 0.24508 0.78521 0.58503
 H1500 H 0.22810 0.83497 0.58261
 H1501 H 0.20001 0.77114 0.61060
 H1502 H 0.15905 0.81110 0.56164
 H1503 H 0.20424 0.82511 0.53595
 H1504 H 0.17670 0.76110 0.56333
 C1505 C 0.27148 0.70740 0.58015
 C1506 C 0.28130 0.68023 0.57903
 C1507 C 0.30590 0.68865 0.59227
 C1508 C 0.29616 0.71567 0.59357
 C1509 C 0.31857 0.69382 0.56656
 C1510 C 0.29384 0.68558 0.55307
 C1511 C 0.28417 0.71255 0.55450
 C1512 C 0.30871 0.72098 0.56768
 H1513 H 0.25199 0.71320 0.58556
 H1514 H 0.26972 0.66350 0.58343
 H1515 H 0.29715 0.72796 0.61044
 H1516 H 0.33807 0.68808 0.56113
 H1517 H 0.29280 0.67336 0.53615
 H1518 H 0.31993 0.73786 0.56286
 C1519 C 0.29045 0.22302 1.08400
 C1520 C 0.28139 0.19902 1.09748
 C1521 C 0.30871 0.18890 1.09645
 C1522 C 0.31787 0.21283 1.08311
 C1523 C 0.30339 0.17644 1.07077
 C1524 C 0.27591 0.18673 1.07156
 C1525 C 0.28518 0.21060 1.05835
 C1526 C 0.31242 0.20049 1.05722
 H1527 H 0.28493 0.24231 1.08928
 H1528 H 0.26871 0.19838 1.11425
 H1529 H 0.33504 0.22405 1.08736
 H1530 H 0.30887 0.15714 1.06549
 H1531 H 0.25854 0.17609 1.06661
 H1532 H 0.32504 0.20117 1.04041
 C1533 C 0.79402 0.68715 1.04846
 C1534 C 0.81881 0.69485 1.06216
 C1535 C 0.80597 0.68936 1.08771
 C1536 C 0.78131 0.68150 1.07425
 C1537 C 0.79659 0.71647 1.08951
 C1538 C 0.80929 0.72211 1.06374
 C1539 C 0.78468 0.71420 1.05037
 C1540 C 0.77186 0.70875 1.07587
 H1541 H 0.79288 0.67527 1.03130
 H1542 H 0.83825 0.68894 1.05669
 H1543 H 0.76946 0.66485 1.07822
 H1544 H 0.79769 0.72843 1.10661
 H1545 H 0.82070 0.73894 1.05924
 H1546 H 0.75242 0.71469 1.08133
 C1547 C 0.79361 0.22728 0.57743
 C1548 C 0.78501 0.20311 0.59088
 C1549 C 0.81246 0.19339 0.58959
 C1550 C 0.82119 0.21749 0.57630
 C1551 C 0.80714 0.18092 0.56392
 C1552 C 0.77954 0.19079 0.56500
 C1553 C 0.78832 0.21483 0.55181
 C1554 C 0.81571 0.20515 0.55040
 H1555 H 0.78782 0.24647 0.58279
 H1556 H 0.77249 0.20222 0.60776
 H1557 H 0.83827 0.22883 0.58055
 H1558 H 0.81289 0.16173 0.55855
 H1559 H 0.76228 0.17991 0.56016
 H1560 H 0.82815 0.20608 0.53347
 C1561 C 0.68931 0.72381 0.43302
 C1562 C 0.70207 0.71874 0.40715
 C1563 C 0.69235 0.69168 0.40808
 C1564 C 0.67946 0.69661 0.43374
 C1565 C 0.71684 0.68322 0.42142
 C1566 C 0.72664 0.71042 0.42068
 C1567 C 0.71375 0.71533 0.44630
 C1568 C 0.70409 0.68831 0.44734
 H1569 H 0.67805 0.74061 0.43793
 H1570 H 0.70121 0.73118 0.39042
 H1571 H 0.65992 0.69076 0.43895
 H1572 H 0.72848 0.66657 0.41693
 H1573 H 0.74617 0.71632 0.41548
 H1574 H 0.70500 0.67596 0.46413
 C1575 C 0.68977 0.22201 -0.06630
 C1576 C 0.70285 0.21727 -0.09206
 C1577 C 0.69370 0.19001 -0.09131
 C1578 C 0.68048 0.19461 -0.06574
 C1579 C 0.71824 0.18201 -0.07778
 C1580 C 0.72747 0.20940 -0.07835
 C1581 C 0.71426 0.21398 -0.05283
 C1582 C 0.70516 0.18677 -0.05196
 H1583 H 0.67812 0.23857 -0.06142
 H1584 H 0.70189 0.22974 -0.10877
 H1585 H 0.66103 0.18835 -0.06072
 H1586 H 0.73026 0.16560 -0.08222
 H1587 H 0.74692 0.21571 -0.08336
 H1588 H 0.70617 0.17438 -0.03520
 C1589 C 0.22837 0.70588 -0.08247
 C1590 C 0.21825 0.67883 -0.08099
 C1591 C 0.19368 0.68729 -0.09421
 C1592 C 0.20372 0.71420 -0.09587
 C1593 C 0.18118 0.69291 -0.06851
 C1594 C 0.20588 0.68460 -0.05506
 C1595 C 0.21588 0.71145 -0.05682
 C1596 C 0.19136 0.71996 -0.06996
 H1597 H 0.24791 0.71141 -0.08803
 H1598 H 0.22970 0.66197 -0.08516
 H1599 H 0.20278 0.72629 -0.11286
 H1600 H 0.16164 0.68741 -0.06295
 H1601 H 0.20687 0.67259 -0.03801
 H1602 H 0.18039 0.73700 -0.06525
 C1603 C 0.18677 0.22121 0.43327
 C1604 C 0.19950 0.21553 0.40749
 C1605 C 0.18929 0.18866 0.40879
 C1606 C 0.17639 0.19418 0.43432
 C1607 C 0.21360 0.18001 0.42240
 C1608 C 0.22387 0.20699 0.42124
 C1609 C 0.21103 0.21245 0.44674
 C1610 C 0.20083 0.18566 0.44814
 H1611 H 0.17584 0.23829 0.43794
 H1612 H 0.19891 0.22774 0.39057
 H1613 H 0.15673 0.18876 0.43954
 H1614 H 0.22519 0.16319 0.41848
 H1615 H 0.24352 0.21243 0.41601
 H1616 H 0.20146 0.17351 0.46510
 C1617 C 0.31116 0.43221 0.72063
 C1618 C 0.29848 0.40668 0.71559
 C1619 C 0.30799 0.40764 0.68807
 C1620 C 0.32080 0.43299 0.69297
 C1621 C 0.28338 0.42068 0.67968
 C1622 C 0.27379 0.41990 0.70734
 C1623 C 0.28660 0.44520 0.71222
 C1624 C 0.29604 0.44628 0.68475
 H1625 H 0.32251 0.43712 0.73759
 H1626 H 0.29951 0.39017 0.72818
 H1627 H 0.34027 0.43819 0.68687
 H1628 H 0.27168 0.41618 0.66286
 H1629 H 0.25433 0.41471 0.71349
 H1630 H 0.29496 0.46285 0.67225
 C1631 C 0.29370 0.94752 0.18568
 C1632 C 0.31837 0.93416 0.19407
 C1633 C 0.30576 0.90887 0.18846
 C1634 C 0.28123 0.92199 0.17991
 C1635 C 0.29577 0.90734 0.21578
 C1636 C 0.30824 0.93284 0.22154
 C1637 C 0.28376 0.94589 0.21294
 C1638 C 0.27116 0.92064 0.20737
 H1639 H 0.29276 0.96431 0.17347
 H1640 H 0.33792 0.93955 0.18843
 H1641 H 0.26975 0.91788 0.16284
 H1642 H 0.29667 0.89061 0.22807
 H1643 H 0.31926 0.93747 0.23879
 H1644 H 0.25162 0.91525 0.21306
 C1645 C 0.77665 0.43439 0.19051
 C1646 C 0.80439 0.43474 0.18077
 C1647 C 0.80914 0.40966 0.19406
 C1648 C 0.78155 0.40910 0.20367
 C1649 C 0.81777 0.42324 0.21825
 C1650 C 0.81286 0.44857 0.20510
 C1651 C 0.78532 0.44789 0.21466
 C1652 C 0.79005 0.42286 0.22794
 H1653 H 0.75962 0.43913 0.17917
 H1654 H 0.81046 0.43946 0.16125
 H1655 H 0.76876 0.39266 0.20305
 H1656 H 0.83464 0.41898 0.22999
 H1657 H 0.82558 0.46506 0.20576
 H1658 H 0.78394 0.41815 0.24746
 C1659 C 0.77806 0.93586 0.68688
 C1660 C 0.80575 0.93626 0.67691
 C1661 C 0.81060 0.91109 0.69001
 C1662 C 0.78308 0.91046 0.69980
 C1663 C 0.81937 0.92456 0.71424
 C1664 C 0.81438 0.94993 0.70128
 C1665 C 0.78693 0.94920 0.71106
 C1666 C 0.79174 0.92407 0.72410
 H1667 H 0.76095 0.94070 0.67571
 H1668 H 0.81166 0.94109 0.65737
 H1669 H 0.77028 0.89402 0.69916
 H1670 H 0.83626 0.92043 0.72600
 H1671 H 0.82712 0.96642 0.70196
 H1672 H 0.78579 0.91922 0.74363
 C1673 C 0.69019 0.56547 0.72284
 C1674 C 0.70298 0.59095 0.71771
 C1675 C 0.69300 0.59019 0.69039
 C1676 C 0.68006 0.56492 0.69536
 C1677 C 0.71738 0.57695 0.68144
 C1678 C 0.72742 0.57754 0.70890
 C1679 C 0.71451 0.55232 0.71383
 C1680 C 0.70457 0.55145 0.68657
 H1681 H 0.67908 0.56058 0.73998
 H1682 H 0.70228 0.60740 0.73045
 H1683 H 0.66045 0.55991 0.68964
 H1684 H 0.72898 0.58125 0.66448
 H1685 H 0.74703 0.58256 0.71466
 H1686 H 0.70531 0.53494 0.67391
 C1687 C 0.68875 0.06488 0.22421
 C1688 C 0.70159 0.09035 0.21906
 C1689 C 0.69136 0.08973 0.19182
 C1690 C 0.67836 0.06450 0.19682
 C1691 C 0.71560 0.07641 0.18260
 C1692 C 0.72590 0.07687 0.20995
 C1693 C 0.71293 0.05168 0.21491
 C1694 C 0.70273 0.05096 0.18774
 H1695 H 0.67781 0.05995 0.24145
 H1696 H 0.70109 0.10675 0.23186
 H1697 H 0.65868 0.05958 0.19127
 H1698 H 0.72710 0.08068 0.16556
 H1699 H 0.74558 0.08179 0.21555
 H1700 H 0.70327 0.03451 0.17501
 C1701 C 0.18821 0.56709 0.22309
 C1702 C 0.20100 0.59249 0.21751
 C1703 C 0.19162 0.59094 0.19001
 C1704 C 0.17866 0.56577 0.19543
 C1705 C 0.21622 0.57756 0.18195
 C1706 C 0.22568 0.57895 0.20957
 C1707 C 0.21277 0.55382 0.21494
 C1708 C 0.20340 0.55218 0.18751
 H1709 H 0.17679 0.56259 0.24015
 H1710 H 0.19998 0.60928 0.22976
 H1711 H 0.15920 0.56052 0.18944
 H1712 H 0.22821 0.58140 0.16514
 H1713 H 0.24514 0.58420 0.21560
 H1714 H 0.20446 0.53534 0.17534
 C1715 C 0.22383 0.06800 0.69051
 C1716 C 0.19619 0.06692 0.68061
 C1717 C 0.19077 0.09210 0.69350
 C1718 C 0.21826 0.09342 0.70324
 C1719 C 0.18224 0.07872 0.71787
 C1720 C 0.18780 0.05332 0.70511
 C1721 C 0.21521 0.05474 0.71483
 C1722 C 0.20984 0.07989 0.72768
 H1723 H 0.24107 0.06340 0.67936
 H1724 H 0.19041 0.06176 0.66113
 H1725 H 0.23069 0.11011 0.70242
 H1726 H 0.16523 0.08261 0.72961
 H1727 H 0.17543 0.03658 0.70597
 H1728 H 0.21566 0.08505 0.74716
 C1729 C 0.27620 0.56736 0.31290
 C1730 C 0.30380 0.56645 0.32292
 C1731 C 0.30920 0.59161 0.31001
 C1732 C 0.28176 0.59275 0.30015
 C1733 C 0.31788 0.57818 0.28570
 C1734 C 0.31234 0.55281 0.29849
 C1735 C 0.28497 0.55405 0.28865
 C1736 C 0.29032 0.57917 0.27578
 H1737 H 0.25892 0.56272 0.32398
 H1738 H 0.30951 0.56140 0.34244
 H1739 H 0.26927 0.60939 0.30088
 H1740 H 0.33493 0.58212 0.27404
 H1741 H 0.32476 0.53612 0.29772
 H1742 H 0.28458 0.58423 0.25626
 C1743 C 0.29232 0.07996 0.77653
 C1744 C 0.28355 0.09303 0.80112
 C1745 C 0.31095 0.09191 0.81108
 C1746 C 0.31984 0.07898 0.78656
 C1747 C 0.30570 0.06647 0.82348
 C1748 C 0.27813 0.06737 0.81335
 C1749 C 0.28711 0.05456 0.78888
 C1750 C 0.31444 0.05334 0.79883
 H1751 H 0.28662 0.08534 0.75708
 H1752 H 0.27092 0.10955 0.80211
 H1753 H 0.33690 0.08325 0.77503
 H1754 H 0.31135 0.06110 0.84293
 H1755 H 0.26085 0.06240 0.82427
 H1756 H 0.32700 0.03676 0.79780
 C1757 C 0.81220 0.56501 0.77640
 C1758 C 0.79956 0.59055 0.78152
 C1759 C 0.80960 0.58985 0.80882
 C1760 C 0.82240 0.56453 0.80385
 C1761 C 0.78517 0.57671 0.81784
 C1762 C 0.77507 0.57727 0.79042
 C1763 C 0.78783 0.55199 0.78550
 C1764 C 0.79783 0.55116 0.81273
 H1765 H 0.82322 0.56001 0.75923
 H1766 H 0.80032 0.60696 0.76876
 H1767 H 0.84200 0.55948 0.80953
 H1768 H 0.77360 0.58107 0.83482
 H1769 H 0.75548 0.58232 0.78470
 H1770 H 0.79702 0.53470 0.82540
 C1771 C 0.81135 0.06300 0.27720
 C1772 C 0.79883 0.08846 0.28295
 C1773 C 0.80903 0.08714 0.31017
 C1774 C 0.82170 0.06188 0.30457
 C1775 C 0.78461 0.07393 0.31906
 C1776 C 0.77434 0.07509 0.29172
 C1777 C 0.78698 0.04988 0.28615
 C1778 C 0.79713 0.04844 0.31330
 H1779 H 0.82225 0.05832 0.25985
 H1780 H 0.79958 0.10513 0.27056
 H1781 H 0.84131 0.05664 0.31003
 H1782 H 0.77322 0.07803 0.33623
 H1783 H 0.75474 0.08034 0.28621
 H1784 H 0.79634 0.03170 0.32561
 C1785 C 0.68690 0.43574 0.27660
 C1786 C 0.69975 0.41037 0.28201
 C1787 C 0.68966 0.41137 0.30932
 C1788 C 0.67665 0.43651 0.30408
 C1789 C 0.71396 0.42486 0.31812
 C1790 C 0.72411 0.42400 0.29070
 C1791 C 0.71114 0.44911 0.28550
 C1792 C 0.70108 0.45021 0.31273
 H1793 H 0.67586 0.44041 0.25940
 H1794 H 0.69916 0.39379 0.26946
 H1795 H 0.65699 0.44147 0.30973
 H1796 H 0.72561 0.42093 0.33510
 H1797 H 0.74376 0.41903 0.28501
 H1798 H 0.70171 0.46685 0.32522
 C1799 C 0.68950 0.93699 0.77450
 C1800 C 0.70197 0.91139 0.77966
 C1801 C 0.69198 0.91233 0.80701
 C1802 C 0.67935 0.93770 0.80201
 C1803 C 0.71652 0.92535 0.81585
 C1804 C 0.72657 0.92456 0.78839
 C1805 C 0.71398 0.94990 0.78342
 C1806 C 0.70403 0.95095 0.81070
 H1807 H 0.67850 0.94197 0.75737
 H1808 H 0.70107 0.89491 0.76698
 H1809 H 0.65980 0.94293 0.80777
 H1810 H 0.72811 0.92104 0.83277
 H1811 H 0.74612 0.91934 0.78259
 H1812 H 0.70496 0.96748 0.82331
 C1813 C 0.22508 0.43189 0.81148
 C1814 C 0.19772 0.43270 0.82219
 C1815 C 0.19235 0.40721 0.80992
 C1816 C 0.21957 0.40619 0.79935
 C1817 C 0.18295 0.42002 0.78560
 C1818 C 0.18846 0.44574 0.79774
 C1819 C 0.21562 0.44462 0.78722
 C1820 C 0.21030 0.41918 0.77495
 H1821 H 0.24253 0.43693 0.82205
 H1822 H 0.19240 0.43811 0.84176
 H1823 H 0.23230 0.38973 0.80007
 H1824 H 0.16567 0.41554 0.77453
 H1825 H 0.17581 0.46226 0.79699
 H1826 H 0.21566 0.41379 0.75539
 C1827 C 0.22026 0.93094 0.31041
 C1828 C 0.19265 0.93121 0.32052
 C1829 C 0.18787 0.90592 0.30759
 C1830 C 0.21534 0.90544 0.29761
 C1831 C 0.17886 0.91915 0.28334
 C1832 C 0.18379 0.94467 0.29615
 C1833 C 0.21120 0.94408 0.28622
 C1834 C 0.20646 0.91883 0.27330
 H1835 H 0.23740 0.93596 0.32148
 H1836 H 0.18683 0.93614 0.34008
 H1837 H 0.22824 0.88911 0.29826
 H1838 H 0.16190 0.91472 0.27179
 H1839 H 0.17096 0.96105 0.29547
 H1840 H 0.21232 0.91391 0.25375
 C1841 C 0.43389 0.27856 0.69154
 C1842 C 0.40772 0.28410 0.70358
 C1843 C 0.40899 0.31080 0.69303
 C1844 C 0.43496 0.30540 0.68085
 C1845 C 0.42196 0.32006 0.71740
 C1846 C 0.42087 0.29322 0.72803
 C1847 C 0.44678 0.28786 0.71586
 C1848 C 0.44816 0.31450 0.70535
 H1849 H 0.43897 0.26137 0.68099
 H1850 H 0.39088 0.27168 0.70279
 H1851 H 0.44056 0.31056 0.66130
 H1852 H 0.41742 0.33708 0.72843
 H1853 H 0.41528 0.28801 0.74757
 H1854 H 0.46507 0.32684 0.70620
 C1855 C 0.43126 0.77881 0.18767
 C1856 C 0.40527 0.78432 0.20015
 C1857 C 0.40664 0.81124 0.19020
 C1858 C 0.43240 0.80588 0.17757
 C1859 C 0.42000 0.81984 0.21460
 C1860 C 0.41881 0.79279 0.22463
 C1861 C 0.44453 0.78747 0.21202
 C1862 C 0.44599 0.81434 0.20210
 H1863 H 0.43607 0.76181 0.17669
 H1864 H 0.38831 0.77206 0.19930
 H1865 H 0.43783 0.81144 0.15809
 H1866 H 0.41576 0.83667 0.22606
 H1867 H 0.41339 0.78720 0.24411
 H1868 H 0.46301 0.82652 0.20299
 C1869 C 0.93168 0.27606 0.18977
 C1870 C 0.90588 0.28139 0.20274
 C1871 C 0.90721 0.30855 0.19344
 C1872 C 0.93278 0.30338 0.18032
 C1873 C 0.92098 0.31649 0.21786
 C1874 C 0.91981 0.28921 0.22723
 C1875 C 0.94535 0.28408 0.21414
 C1876 C 0.94677 0.31118 0.20486
 H1877 H 0.93626 0.25931 0.17830
 H1878 H 0.88886 0.26921 0.20184
 H1879 H 0.93796 0.30937 0.16090
 H1880 H 0.91703 0.33301 0.22986
 H1881 H 0.91463 0.28318 0.24664
 H1882 H 0.96384 0.32328 0.20579
 C1883 C 0.93456 0.77926 0.68922
 C1884 C 0.90855 0.78470 0.70168
 C1885 C 0.91002 0.81173 0.69203
 C1886 C 0.93582 0.80644 0.67944
 C1887 C 0.92332 0.82002 0.71658
 C1888 C 0.92202 0.79286 0.72630
 C1889 C 0.94777 0.78761 0.71372
 C1890 C 0.94935 0.81458 0.70412
 H1891 H 0.93935 0.76237 0.67806
 H1892 H 0.89156 0.77249 0.70063
 H1893 H 0.94132 0.81219 0.66003
 H1894 H 0.91907 0.83671 0.72824
 H1895 H 0.91652 0.78707 0.74570
 H1896 H 0.96640 0.82670 0.70521
 C1897 C 0.56639 0.31254 0.27672
 C1898 C 0.56534 0.32286 0.30408
 C1899 C 0.59126 0.31077 0.30948
 C1900 C 0.59255 0.30063 0.28227
 C1901 C 0.57814 0.28666 0.31853
 C1902 C 0.55202 0.29862 0.31301
 C1903 C 0.55340 0.28849 0.28587
 C1904 C 0.57928 0.27645 0.29122
 H1905 H 0.56136 0.32308 0.25939
 H1906 H 0.55978 0.34208 0.30953
 H1907 H 0.60943 0.30151 0.26971
 H1908 H 0.58245 0.27553 0.33566
 H1909 H 0.53510 0.29771 0.32551
 H1910 H 0.58485 0.25723 0.28573
 C1911 C 0.56789 0.78031 0.80863
 C1912 C 0.59384 0.78564 0.79600
 C1913 C 0.59237 0.81282 0.80525
 C1914 C 0.56662 0.80764 0.81802
 C1915 C 0.57897 0.82066 0.78064
 C1916 C 0.58027 0.79334 0.77131
 C1917 C 0.55457 0.78819 0.78407
 C1918 C 0.55298 0.81533 0.79327
 H1919 H 0.56317 0.76359 0.82007
 H1920 H 0.61086 0.77351 0.79715
 H1921 H 0.56116 0.81369 0.83735
 H1922 H 0.58320 0.83720 0.76878
 H1923 H 0.58571 0.78725 0.75199
 H1924 H 0.53591 0.82737 0.79208
 C1925 C 0.06772 0.31086 0.78264
 C1926 C 0.06706 0.32088 0.81010
 C1927 C 0.09280 0.30830 0.81511
 C1928 C 0.09366 0.29841 0.78779
 C1929 C 0.07940 0.28434 0.82407
 C1930 C 0.05340 0.29678 0.81890
 C1931 C 0.05438 0.28695 0.79163
 C1932 C 0.08007 0.27438 0.79662
 H1933 H 0.06274 0.32168 0.76548
 H1934 H 0.06190 0.34014 0.81581
 H1935 H 0.11044 0.29913 0.77509
 H1936 H 0.08388 0.27311 0.84108
 H1937 H 0.03656 0.29601 0.83152
 H1938 H 0.08523 0.25512 0.79086
 C1939 C 0.05062 0.79286 0.31098
 C1940 C 0.07674 0.78094 0.31667
 C1941 C 0.08984 0.80520 0.30803
 C1942 C 0.06395 0.81725 0.30249
 C1943 C 0.09149 0.79537 0.28072
 C1944 C 0.07822 0.77104 0.28923
 C1945 C 0.05238 0.78307 0.28373
 C1946 C 0.06538 0.80727 0.27503
 H1947 H 0.03355 0.79173 0.32325
 H1948 H 0.08099 0.76969 0.33372
 H1949 H 0.05825 0.83639 0.30811
 H1950 H 0.10851 0.79646 0.26837
 H1951 H 0.08391 0.75191 0.28357
 H1952 H 0.06052 0.81800 0.25778
 C1953 C 0.58054 0.70827 0.72687
 C1954 C 0.57947 0.68098 0.71740
 C1955 C 0.59296 0.68906 0.69286
 C1956 C 0.59422 0.71620 0.70226
 C1957 C 0.56726 0.69410 0.68006
 C1958 C 0.55352 0.68618 0.70473
 C1959 C 0.55488 0.71328 0.71408
 C1960 C 0.56831 0.72139 0.68959
 H1961 H 0.58583 0.71431 0.74625
 H1962 H 0.58374 0.66441 0.72917
 H1963 H 0.61116 0.72847 0.70121
 H1964 H 0.56196 0.68811 0.66068
 H1965 H 0.53651 0.67399 0.70583
 H1966 H 0.56358 0.73812 0.67822
 C1967 C 0.57975 0.20867 0.22848
 C1968 C 0.57869 0.18132 0.21920
 C1969 C 0.59196 0.18926 0.19449
 C1970 C 0.59320 0.21648 0.20369
 C1971 C 0.56612 0.19414 0.18188
 C1972 C 0.55262 0.18635 0.20672
 C1973 C 0.55397 0.21351 0.21587
 C1974 C 0.56716 0.22150 0.19121
 H1975 H 0.58519 0.21485 0.24776
 H1976 H 0.58309 0.16486 0.23108
 H1977 H 0.61010 0.22879 0.20241
 H1978 H 0.56068 0.18801 0.16259
 H1979 H 0.53567 0.17411 0.20804
 H1980 H 0.56226 0.23815 0.17977
 C1981 C 0.05241 0.70097 0.18378
 C1982 C 0.07838 0.71348 0.17846
 C1983 C 0.09184 0.68953 0.18730
 C1984 C 0.06611 0.67689 0.19246
 C1985 C 0.09276 0.69938 0.21463
 C1986 C 0.07913 0.72341 0.20592
 C1987 C 0.05344 0.71079 0.21105
 C1988 C 0.06681 0.68689 0.21994
 H1989 H 0.03555 0.70171 0.17125
 H1990 H 0.08275 0.72480 0.16146
 H1991 H 0.06092 0.65763 0.18676
 H1992 H 0.10956 0.69869 0.22724
 H1993 H 0.08431 0.74266 0.21167
 H1994 H 0.06188 0.67604 0.23712
 C1995 C 0.07946 0.20963 0.73064
 C1996 C 0.07780 0.18256 0.72068
 C1997 C 0.09100 0.19090 0.69607
 C1998 C 0.09285 0.21783 0.70595
 C1999 C 0.06518 0.19653 0.68379
 C2000 C 0.05175 0.18835 0.70853
 C2001 C 0.05370 0.21523 0.71838
 C2002 C 0.06681 0.22362 0.69382
 H2003 H 0.08514 0.21524 0.75004
 H2004 H 0.08191 0.16573 0.73212
 H2005 H 0.10997 0.22986 0.70483
 H2006 H 0.05949 0.19098 0.66439
 H2007 H 0.03457 0.17640 0.70970
 H2008 H 0.06212 0.24064 0.68288
 C2009 C 0.42006 0.70963 0.27323
 C2010 C 0.42193 0.68265 0.28331
 C2011 C 0.40859 0.69101 0.30784
 C2012 C 0.40656 0.71787 0.29784
 C2013 C 0.43433 0.69699 0.32017
 C2014 C 0.44789 0.68877 0.29549
 C2015 C 0.44576 0.71557 0.28553
 C2016 C 0.43252 0.72401 0.31000
 H2017 H 0.41438 0.71505 0.25380
 H2018 H 0.41799 0.66571 0.27192
 H2019 H 0.38934 0.72974 0.29885
 H2020 H 0.44001 0.69161 0.33960
 H2021 H 0.46517 0.67699 0.29444
 H2022 H 0.43706 0.74115 0.32087
 C2023 C 0.42201 0.21035 0.77696
 C2024 C 0.42381 0.18324 0.78669
 C2025 C 0.41034 0.19129 0.81125
 C2026 C 0.40837 0.21828 0.80160
 C2027 C 0.43601 0.19710 0.82380
 C2028 C 0.44970 0.18919 0.79910
 C2029 C 0.44763 0.21611 0.78947
 C2030 C 0.43427 0.22425 0.81399
 H2031 H 0.41643 0.21602 0.75757
 H2032 H 0.41994 0.16645 0.77505
 H2033 H 0.39114 0.23013 0.80268
 H2034 H 0.44158 0.19146 0.84320
 H2035 H 0.46698 0.17741 0.79798
 H2036 H 0.43875 0.24125 0.82510
 C2037 C 0.92142 0.70840 0.77187
 C2038 C 0.92261 0.68123 0.78160
 C2039 C 0.90901 0.68948 0.80603
 C2040 C 0.90764 0.71651 0.79637
 C2041 C 0.93465 0.69485 0.81885
 C2042 C 0.94850 0.68675 0.79429
 C2043 C 0.94702 0.71372 0.78468
 C2044 C 0.93348 0.72202 0.80906
 H2045 H 0.91616 0.71417 0.75243
 H2046 H 0.91847 0.66450 0.76995
 H2047 H 0.89062 0.72867 0.79727
 H2048 H 0.93993 0.68911 0.83829
 H2049 H 0.96557 0.67467 0.79335
 H2050 H 0.93811 0.73891 0.82028
 C2051 C 0.92081 0.20465 0.27272
 C2052 C 0.92234 0.17754 0.28256
 C2053 C 0.90900 0.18582 0.30711
 C2054 C 0.90729 0.21279 0.29735
 C2055 C 0.93476 0.19142 0.31958
 C2056 C 0.94834 0.18330 0.29489
 C2057 C 0.94652 0.21021 0.28518
 C2058 C 0.93325 0.21853 0.30969
 H2059 H 0.91527 0.21031 0.25332
 H2060 H 0.91817 0.16073 0.27105
 H2061 H 0.89020 0.22483 0.29841
 H2062 H 0.94031 0.18580 0.33899
 H2063 H 0.96550 0.17135 0.29378
 H2064 H 0.93790 0.23552 0.32076
 C2065 C 0.31343 0.29311 0.55280
 C2066 C 0.30494 0.31757 0.56595
 C2067 C 0.31029 0.30559 0.59182
 C2068 C 0.31895 0.28126 0.57891
 C2069 C 0.28283 0.29587 0.59332
 C2070 C 0.27733 0.30773 0.56726
 C2071 C 0.28601 0.28346 0.55441
 C2072 C 0.29134 0.27146 0.58022
 H2073 H 0.32585 0.29189 0.53587
 H2074 H 0.31069 0.33667 0.56024
 H2075 H 0.33604 0.27006 0.58341
 H2076 H 0.27032 0.29706 0.61019
 H2077 H 0.26009 0.31855 0.56232
 H2078 H 0.28553 0.25237 0.58591
 C2079 C 0.31194 0.77696 0.06486
 C2080 C 0.32151 0.80426 0.06368
 C2081 C 0.30828 0.80957 0.08908
 C2082 C 0.29886 0.78244 0.09050
 C2083 C 0.28383 0.81747 0.07529
 C2084 C 0.29694 0.81201 0.04966
 C2085 C 0.28754 0.78494 0.05117
 C2086 C 0.27434 0.79022 0.07654
 H2087 H 0.32339 0.76017 0.06038
 H2088 H 0.34104 0.81021 0.05857
 H2089 H 0.29968 0.77037 0.10751
 H2090 H 0.27185 0.83404 0.07913
 H2091 H 0.29608 0.82400 0.03259
 H2092 H 0.25482 0.78423 0.08166
 C2093 C 0.77159 0.29216 0.08239
 C2094 C 0.79625 0.28375 0.09570
 C2095 C 0.80607 0.31077 0.09472
 C2096 C 0.78148 0.31932 0.08158
 C2097 C 0.81871 0.30584 0.06894
 C2098 C 0.80876 0.27868 0.06972
 C2099 C 0.78422 0.28727 0.05666
 C2100 C 0.79399 0.31424 0.05557
 H2101 H 0.75207 0.28634 0.08774
 H2102 H 0.79723 0.27128 0.11240
 H2103 H 0.76985 0.33597 0.08610
 H2104 H 0.83823 0.31161 0.06357
 H2105 H 0.81992 0.26184 0.06468
 H2106 H 0.79297 0.32663 0.03881
 C2107 C 0.81293 0.79845 0.55304
 C2108 C 0.80441 0.82273 0.56653
 C2109 C 0.80989 0.81043 0.59223
 C2110 C 0.81854 0.78628 0.57896
 C2111 C 0.78244 0.80064 0.59368
 C2112 C 0.77682 0.81278 0.56776
 C2113 C 0.78555 0.78869 0.55458
 C2114 C 0.79098 0.77642 0.58024
 H2115 H 0.82532 0.79748 0.53607
 H2116 H 0.81010 0.84191 0.56105
 H2117 H 0.83563 0.77495 0.58311
 H2118 H 0.76999 0.80158 0.61060
 H2119 H 0.75953 0.82360 0.56297
 H2120 H 0.78525 0.75724 0.58572
 C2121 C 0.29060 0.72528 0.42082
 C2122 C 0.31810 0.71530 0.42205
 C2123 C 0.30933 0.69127 0.40864
 C2124 C 0.28196 0.70116 0.40726
 C2125 C 0.30371 0.67883 0.43426
 C2126 C 0.31233 0.70300 0.44789
 C2127 C 0.28502 0.71287 0.44640
 C2128 C 0.27618 0.68889 0.43310
 H2129 H 0.28500 0.74450 0.41547
 H2130 H 0.33527 0.72659 0.41795
 H2131 H 0.26955 0.70037 0.39033
 H2132 H 0.30928 0.65960 0.43962
 H2133 H 0.32466 0.70384 0.46486
 H2134 H 0.25881 0.67812 0.43784
 C2135 C 0.31374 0.20103 0.95113
 C2136 C 0.30493 0.17714 0.93711
 C2137 C 0.31068 0.18992 0.91169
 C2138 C 0.31962 0.21367 0.92549
 C2139 C 0.28339 0.20005 0.91045
 C2140 C 0.27748 0.18744 0.93610
 C2141 C 0.28651 0.21115 0.94978
 C2142 C 0.29222 0.22388 0.92440
 H2143 H 0.32606 0.20150 0.96812
 H2144 H 0.31032 0.15778 0.94217
 H2145 H 0.33688 0.22492 0.92163
 H2146 H 0.27099 0.19962 0.89350
 H2147 H 0.26002 0.17674 0.94066
 H2148 H 0.28679 0.24323 0.91933
 C2149 C 0.77419 0.70991 0.91734
 C2150 C 0.79900 0.71798 0.90395
 C2151 C 0.80877 0.69101 0.90581
 C2152 C 0.78403 0.68283 0.91905
 C2153 C 0.82117 0.69671 0.93150
 C2154 C 0.81124 0.72383 0.92987
 C2155 C 0.78656 0.71555 0.94298
 C2156 C 0.79631 0.68866 0.94494
 H2157 H 0.75474 0.71555 0.91169
 H2158 H 0.80016 0.72994 0.88688
 H2159 H 0.77234 0.66607 0.91508
 H2160 H 0.84063 0.69111 0.93715
 H2161 H 0.82231 0.74084 0.93451
 H2162 H 0.79510 0.67677 0.96207
 C2163 C 0.77536 0.20762 0.41897
 C2164 C 0.80004 0.21530 0.40514
 C2165 C 0.80966 0.18831 0.40738
 C2166 C 0.78505 0.18051 0.42105
 C2167 C 0.82243 0.19439 0.43280
 C2168 C 0.81265 0.22155 0.43078
 C2169 C 0.78809 0.21366 0.44435
 C2170 C 0.79769 0.18674 0.44669
 H2171 H 0.75587 0.21328 0.41346
 H2172 H 0.80106 0.22694 0.38782
 H2173 H 0.77327 0.16372 0.41750
 H2174 H 0.84191 0.18877 0.43831
 H2175 H 0.82388 0.23857 0.43497
 H2176 H 0.79663 0.17518 0.46405
 C2177 C 0.72740 0.29290 0.41880
 C2178 C 0.70259 0.28474 0.40556
 C2179 C 0.69269 0.31165 0.40764
 C2180 C 0.71742 0.31994 0.42071
 C2181 C 0.68040 0.30582 0.43338
 C2182 C 0.69046 0.27876 0.43152
 C2183 C 0.71513 0.28711 0.44450
 C2184 C 0.70527 0.31396 0.44668
 H2185 H 0.74686 0.28736 0.41299
 H2186 H 0.70142 0.27283 0.38843
 H2187 H 0.72890 0.33682 0.41664
 H2188 H 0.66094 0.31132 0.43920
 H2189 H 0.67948 0.26169 0.43614
 H2190 H 0.70648 0.32580 0.46387
 C2191 C 0.72618 0.79380 0.91733
 C2192 C 0.70160 0.78566 0.90365
 C2193 C 0.69175 0.81261 0.90539
 C2194 C 0.71626 0.82088 0.91889
 C2195 C 0.67896 0.80697 0.93093
 C2196 C 0.68896 0.77986 0.92942
 C2197 C 0.71342 0.78821 0.94282
 C2198 C 0.70360 0.81509 0.94466
 H2199 H 0.74573 0.78818 0.91191
 H2200 H 0.70072 0.77364 0.88658
 H2201 H 0.72794 0.83767 0.91501
 H2202 H 0.65941 0.81255 0.93634
 H2203 H 0.67783 0.76285 0.93393
 H2204 H 0.70453 0.82703 0.96180
 C2205 C 0.22951 0.29066 0.92397
 C2206 C 0.20464 0.28301 0.91053
 C2207 C 0.19563 0.31028 0.91175
 C2208 C 0.22042 0.31809 0.92500
 C2209 C 0.18278 0.30548 0.93745
 C2210 C 0.19190 0.27807 0.93640
 C2211 C 0.21663 0.28588 0.94961
 C2212 C 0.20769 0.31311 0.95096
 H2213 H 0.24884 0.28434 0.91862
 H2214 H 0.20336 0.27070 0.89368
 H2215 H 0.23239 0.33453 0.92052
 H2216 H 0.16344 0.31174 0.94284
 H2217 H 0.18022 0.26151 0.94123
 H2218 H 0.20902 0.32532 0.96786
 C2219 C 0.18647 0.79632 0.44723
 C2220 C 0.19518 0.82040 0.43351
 C2221 C 0.18986 0.80774 0.40792
 C2222 C 0.18102 0.78379 0.42145
 C2223 C 0.21727 0.79789 0.40680
 C2224 C 0.22276 0.81037 0.43263
 C2225 C 0.21380 0.78647 0.44601
 C2226 C 0.20854 0.77387 0.42046
 H2227 H 0.17394 0.79560 0.46411
 H2228 H 0.18953 0.83967 0.43871
 H2229 H 0.16397 0.77231 0.41745
 H2230 H 0.22986 0.79857 0.38996
 H2231 H 0.24005 0.82120 0.43744
 H2232 H 0.21422 0.75461 0.41525
 C2233 C 0.70408 0.68820 0.55301
 C2234 C 0.71692 0.68271 0.57871
 C2235 C 0.69233 0.69061 0.59236
 C2236 C 0.67937 0.69595 0.56688
 C2237 C 0.70176 0.71774 0.59392
 C2238 C 0.72642 0.70996 0.58010
 C2239 C 0.71348 0.71526 0.55466
 C2240 C 0.68895 0.72324 0.56822
 H2241 H 0.70512 0.67621 0.53591
 H2242 H 0.72885 0.66613 0.58259
 H2243 H 0.65989 0.69002 0.56162
 H2244 H 0.70077 0.72979 0.61096
 H2245 H 0.74589 0.71593 0.58537
 H2246 H 0.67754 0.74004 0.56372
 C2247 C 0.70291 0.18702 0.05420
 C2248 C 0.71562 0.18165 0.07999
 C2249 C 0.69101 0.18972 0.09351
 C2250 C 0.67817 0.19495 0.06795
 C2251 C 0.70055 0.21682 0.09493
 C2252 C 0.72522 0.20887 0.08125
 C2253 C 0.71241 0.21405 0.05573
 C2254 C 0.68785 0.22220 0.06915
 H2255 H 0.70397 0.17493 0.03719
 H2256 H 0.72750 0.16506 0.08401
 H2257 H 0.65869 0.18906 0.06266
 H2258 H 0.69953 0.22899 0.11189
 H2259 H 0.74470 0.21480 0.08655
 H2260 H 0.67651 0.23901 0.06452
 C2261 C 0.20597 0.68485 0.04966
 C2262 C 0.21831 0.67971 0.07569
 C2263 C 0.19358 0.68809 0.08876
 C2264 C 0.18111 0.69309 0.06298
 C2265 C 0.20326 0.71515 0.08998
 C2266 C 0.22806 0.70690 0.07673
 C2267 C 0.21561 0.71186 0.05099
 C2268 C 0.19093 0.72030 0.06398
 H2269 H 0.20718 0.67256 0.03281
 H2270 H 0.22997 0.66307 0.08012
 H2271 H 0.16166 0.68724 0.05750
 H2272 H 0.20209 0.72753 0.10678
 H2273 H 0.24750 0.71279 0.08221
 H2274 H 0.17976 0.73711 0.05899
 C2275 C 0.20796 0.22440 0.58111
 C2276 C 0.18028 0.21479 0.58066
 C2277 C 0.18901 0.19071 0.59392
 C2278 C 0.21657 0.20025 0.59453
 C2279 C 0.19374 0.17807 0.56820
 C2280 C 0.18515 0.20228 0.55471
 C2281 C 0.21265 0.21179 0.55543
 C2282 C 0.22145 0.18776 0.56859
 H2283 H 0.21401 0.24357 0.58625
 H2284 H 0.16341 0.22633 0.58520
 H2285 H 0.22942 0.19937 0.61112
 H2286 H 0.18773 0.15889 0.56306
 H2287 H 0.17237 0.20320 0.53807
 H2288 H 0.23850 0.17671 0.56344
   
