data_POSCAR
  _audit_creation_date              2014-09-24
  _audit_creation_method            'ToBaCCo'
  _symmetry_space_group_name_H-M    'P1'
  _symmetry_Int_Tables_number       1
  _symmetry_cell_setting            triclinic
  loop_
  _symmetry_equiv_pos_as_xyz
 x,y,z
_cell_length_a 98.8774
_cell_length_b 98.8448
_cell_length_c 99.3511
_cell_angle_alpha 89.931800
_cell_angle_beta 90.002000
_cell_angle_gamma 89.977500
loop_
  _atom_site_label
  _atom_site_type_symbol
  _atom_site_fract_x
  _atom_site_fract_y
  _atom_site_fract_z
N1 N 0.35747 0.31988 0.32986
 N2 N 0.35753 0.32953 0.32072
 C3 C 0.36792 0.32741 0.31219
 C4 C 0.37461 0.31586 0.31625
 C5 C 0.36778 0.31131 0.32746
 H6 H 0.37044 0.33374 0.30366
 H7 H 0.37012 0.30243 0.33339
 Cu8 Cu 0.34391 0.34378 0.32078
 Cu9 Cu 0.34403 0.31909 0.34415
 Cu10 Cu 0.31923 0.34386 0.34416
 N11 N 0.32965 0.35739 0.32073
 N12 N 0.32001 0.35731 0.32986
 C13 C 0.31143 0.36761 0.32744
 C14 C 0.31595 0.37444 0.31623
 C15 C 0.32751 0.36778 0.31218
 H16 H 0.30255 0.36994 0.33336
 H17 H 0.33383 0.37031 0.30365
 N18 N 0.32013 0.32939 0.35780
 N19 N 0.32960 0.31995 0.35779
 C20 C 0.32751 0.31156 0.36829
 C21 C 0.31625 0.31597 0.37515
 C22 C 0.31177 0.32725 0.36831
 H23 H 0.33369 0.30288 0.37078
 H24 H 0.30308 0.33339 0.37082
 H25 H 0.32894 0.32883 0.33342
 H26 H 0.33967 0.33956 0.34462
 N27 N 0.35787 0.82022 -0.17048
 N28 N 0.35773 0.82965 -0.17985
 C29 C 0.36816 0.82755 -0.18835
 C30 C 0.37507 0.81626 -0.18398
 C31 C 0.36836 0.81182 -0.17267
 H32 H 0.37053 0.83372 -0.19703
 H33 H 0.37089 0.80314 -0.16652
 Cu34 Cu 0.34387 0.84366 -0.17997
 Cu35 Cu 0.34443 0.81940 -0.15619
 Cu36 Cu 0.31963 0.84417 -0.15623
 N37 N 0.32989 0.85754 -0.17982
 N38 N 0.32045 0.85764 -0.17048
 C39 C 0.31204 0.86812 -0.17265
 C40 C 0.31648 0.87488 -0.18393
 C41 C 0.32779 0.86800 -0.18830
 H42 H 0.30334 0.87061 -0.16653
 H43 H 0.33395 0.87040 -0.19697
 N44 N 0.32050 0.82971 -0.14263
 N45 N 0.32996 0.82027 -0.14258
 C46 C 0.32779 0.81189 -0.13208
 C47 C 0.31647 0.81633 -0.12532
 C48 C 0.31207 0.82759 -0.13219
 H49 H 0.33393 0.80320 -0.12955
 H50 H 0.30336 0.83373 -0.12975
 H51 H 0.32916 0.82890 -0.16684
 H52 H 0.34007 0.83985 -0.15603
 N53 N 0.85743 0.32021 -0.17049
 N54 N 0.85740 0.32977 -0.17972
 C55 C 0.86781 0.32767 -0.18822
 C56 C 0.87462 0.31626 -0.18402
 C57 C 0.86784 0.31174 -0.17278
 H58 H 0.87026 0.33392 -0.19683
 H59 H 0.87028 0.30295 -0.16675
 Cu60 Cu 0.84372 0.34394 -0.17974
 Cu61 Cu 0.84400 0.31941 -0.15621
 Cu62 Cu 0.81923 0.34422 -0.15624
 N63 N 0.82950 0.35757 -0.17984
 N64 N 0.81998 0.35763 -0.17059
 C65 C 0.81148 0.36803 -0.17293
 C66 C 0.81596 0.37475 -0.18423
 C67 C 0.82738 0.36794 -0.18842
 H68 H 0.80273 0.37050 -0.16688
 H69 H 0.83363 0.37037 -0.19703
 N70 N 0.82014 0.32979 -0.14256
 N71 N 0.82957 0.32032 -0.14260
 C72 C 0.82747 0.31191 -0.13212
 C73 C 0.81623 0.31634 -0.12525
 C74 C 0.81179 0.32765 -0.13205
 H75 H 0.83360 0.30319 -0.12967
 H76 H 0.80310 0.33380 -0.12953
 H77 H 0.82887 0.32901 -0.16694
 H78 H 0.83969 0.33979 -0.15588
 N79 N 0.85749 0.82023 0.32991
 N80 N 0.85745 0.82981 0.32069
 C81 C 0.86790 0.82780 0.31222
 C82 C 0.87477 0.81643 0.31644
 C83 C 0.86797 0.81184 0.32765
 H84 H 0.87031 0.83403 0.30359
 H85 H 0.87041 0.80302 0.33363
 Cu86 Cu 0.84349 0.84367 0.32060
 Cu87 Cu 0.84392 0.81924 0.34408
 Cu88 Cu 0.81906 0.84407 0.34401
 N89 N 0.82953 0.85754 0.32051
 N90 N 0.81997 0.85760 0.32975
 C91 C 0.81153 0.86803 0.32740
 C92 C 0.81607 0.87476 0.31612
 C93 C 0.82746 0.86792 0.31194
 H94 H 0.80274 0.87049 0.33340
 H95 H 0.83371 0.87031 0.30332
 N96 N 0.81988 0.82950 0.35759
 N97 N 0.82932 0.82003 0.35756
 C98 C 0.82717 0.81158 0.36799
 C99 C 0.81589 0.81597 0.37482
 C100 C 0.81147 0.82730 0.36804
 H101 H 0.83333 0.80289 0.37047
 H102 H 0.80279 0.83346 0.37057
 H103 H 0.82870 0.82880 0.33349
 H104 H 0.83951 0.83961 0.34450
 N105 N 0.64280 0.68001 0.32972
 N106 N 0.64286 0.67049 0.32047
 C107 C 0.63250 0.67263 0.31190
 C108 C 0.62569 0.68404 0.31607
 C109 C 0.63241 0.68851 0.32736
 H110 H 0.63008 0.66638 0.30330
 H111 H 0.62994 0.69727 0.33339
 Cu112 Cu 0.65647 0.65628 0.32057
 Cu113 Cu 0.65623 0.68076 0.34403
 Cu114 Cu 0.68102 0.65596 0.34408
 N115 N 0.67058 0.64258 0.32060
 N116 N 0.68014 0.64250 0.32981
 C117 C 0.68857 0.63207 0.32749
 C118 C 0.68402 0.62533 0.31624
 C119 C 0.67263 0.63218 0.31207
 H120 H 0.69737 0.62960 0.33347
 H121 H 0.66637 0.62978 0.30347
 N122 N 0.68016 0.67044 0.35766
 N123 N 0.67068 0.67987 0.35767
 C124 C 0.67282 0.68829 0.36811
 C125 C 0.68414 0.68391 0.37492
 C126 C 0.68858 0.67262 0.36811
 H127 H 0.66666 0.69698 0.37059
 H128 H 0.69730 0.66650 0.37059
 H129 H 0.67145 0.67108 0.33334
 H130 H 0.66066 0.66028 0.34442
 N131 N 0.64272 0.17955 -0.17044
 N132 N 0.64297 0.17023 -0.17988
 C133 C 0.63254 0.17234 -0.18839
 C134 C 0.62551 0.18354 -0.18397
 C135 C 0.63217 0.18789 -0.17260
 H136 H 0.63024 0.16625 -0.19713
 H137 H 0.62957 0.19650 -0.16642
 Cu138 Cu 0.65701 0.15641 -0.18019
 Cu139 Cu 0.65617 0.18031 -0.15614
 Cu140 Cu 0.68097 0.15554 -0.15612
 N141 N 0.67084 0.14237 -0.17987
 N142 N 0.68016 0.14212 -0.17042
 C143 C 0.68850 0.13157 -0.17255
 C144 C 0.68411 0.12492 -0.18391
 C145 C 0.67292 0.13193 -0.18836
 H146 H 0.69711 0.12897 -0.16636
 H147 H 0.66683 0.12964 -0.19710
 N148 N 0.68009 0.16999 -0.14249
 N149 N 0.67062 0.17943 -0.14251
 C150 C 0.67278 0.18786 -0.13208
 C151 C 0.68409 0.18348 -0.12526
 C152 C 0.68851 0.17217 -0.13204
 H153 H 0.66665 0.19657 -0.12962
 H154 H 0.69723 0.16605 -0.12957
 H155 H 0.67160 0.17091 -0.16664
 H156 H 0.66052 0.15981 -0.15614
 N157 N 0.14240 0.67973 -0.17002
 N158 N 0.14233 0.67008 -0.17914
 C159 C 0.13191 0.67216 -0.18764
 C160 C 0.12519 0.68367 -0.18357
 C161 C 0.13204 0.68825 -0.17240
 H162 H 0.12941 0.66585 -0.19617
 H163 H 0.12970 0.69713 -0.16650
 Cu164 Cu 0.15600 0.65589 -0.17911
 Cu165 Cu 0.15598 0.68066 -0.15586
 Cu166 Cu 0.18081 0.65593 -0.15590
 N167 N 0.17027 0.64232 -0.17919
 N168 N 0.17992 0.64241 -0.17007
 C169 C 0.18845 0.63206 -0.17240
 C170 C 0.18388 0.62519 -0.18355
 C171 C 0.17237 0.63188 -0.18767
 H172 H 0.19731 0.62971 -0.16646
 H173 H 0.16604 0.62934 -0.19618
 N174 N 0.18002 0.67046 -0.14238
 N175 N 0.17057 0.67991 -0.14236
 C176 C 0.17281 0.68837 -0.13197
 C177 C 0.18417 0.68398 -0.12522
 C178 C 0.18851 0.67265 -0.13200
 H179 H 0.16668 0.69708 -0.12948
 H180 H 0.19721 0.66649 -0.12954
 H181 H 0.17098 0.67092 -0.16664
 H182 H 0.16036 0.66019 -0.15532
 N183 N 0.14260 0.18034 0.32988
 N184 N 0.14276 0.17089 0.32056
 C185 C 0.13242 0.17304 0.31196
 C186 C 0.12553 0.18439 0.31620
 C187 C 0.13218 0.18879 0.32756
 H188 H 0.13008 0.16688 0.30328
 H189 H 0.12965 0.19750 0.33364
 Cu190 Cu 0.15666 0.15695 0.32065
 Cu191 Cu 0.15594 0.18109 0.34430
 Cu192 Cu 0.18082 0.15627 0.34432
 N193 N 0.17063 0.14308 0.32057
 N194 N 0.18008 0.14292 0.32989
 C195 C 0.18856 0.13252 0.32756
 C196 C 0.18415 0.12588 0.31620
 C197 C 0.17279 0.13276 0.31196
 H198 H 0.19727 0.12999 0.33365
 H199 H 0.16663 0.13043 0.30328
 N200 N 0.17979 0.17066 0.35803
 N201 N 0.17032 0.18010 0.35801
 C202 C 0.17236 0.18844 0.36852
 C203 C 0.18359 0.18401 0.37541
 C204 C 0.18810 0.17276 0.36858
 H205 H 0.16619 0.19713 0.37099
 H206 H 0.19681 0.16664 0.37110
 H207 H 0.17137 0.17166 0.33380
 H208 H 0.16046 0.16072 0.34457
 N209 N 0.64251 0.32024 0.67026
 N210 N 0.64256 0.32977 0.67949
 C211 C 0.63212 0.32773 0.68798
 C212 C 0.62526 0.31636 0.68377
 C213 C 0.63205 0.31183 0.67254
 H214 H 0.62969 0.33397 0.69659
 H215 H 0.62960 0.30305 0.66654
 Cu216 Cu 0.65648 0.34368 0.67949
 Cu217 Cu 0.65606 0.31932 0.65602
 Cu218 Cu 0.68090 0.34412 0.65603
 N219 N 0.67040 0.35759 0.67950
 N220 N 0.67996 0.35764 0.67028
 C221 C 0.68837 0.36809 0.67257
 C222 C 0.68382 0.37488 0.68380
 C223 C 0.67243 0.36802 0.68800
 H224 H 0.69717 0.37054 0.66658
 H225 H 0.66618 0.37044 0.69660
 N226 N 0.68008 0.32956 0.64246
 N227 N 0.67062 0.32013 0.64247
 C228 C 0.67278 0.31168 0.63205
 C229 C 0.68411 0.31604 0.62525
 C230 C 0.68852 0.32735 0.63203
 H231 H 0.66662 0.30300 0.62957
 H232 H 0.69722 0.33349 0.62953
 H233 H 0.67130 0.32889 0.66656
 H234 H 0.66048 0.33975 0.65560
 N235 N 0.64272 0.81993 1.17016
 N236 N 0.64267 0.82953 1.17931
 C237 C 0.63222 0.82747 1.18778
 C238 C 0.62548 0.81599 1.18364
 C239 C 0.63234 0.81143 1.17248
 H240 H 0.62969 0.83378 1.19630
 H241 H 0.62996 0.80260 1.16651
 Cu242 Cu 0.65633 0.84371 1.17928
 Cu243 Cu 0.65616 0.81913 1.15588
 Cu244 Cu 0.68096 0.84388 1.15589
 N245 N 0.67052 0.85735 1.17932
 N246 N 0.68015 0.85729 1.17017
 C247 C 0.68866 0.86765 1.17250
 C248 C 0.68409 0.87451 1.18367
 C249 C 0.67260 0.86779 1.18780
 H250 H 0.69751 0.87002 1.16655
 H251 H 0.66627 0.87033 1.19631
 N252 N 0.68006 0.82946 1.14228
 N253 N 0.67060 0.82002 1.14227
 C254 C 0.67271 0.81166 1.13177
 C255 C 0.68399 0.81610 1.12495
 C256 C 0.68844 0.82735 1.13179
 H257 H 0.66656 0.80298 1.12927
 H258 H 0.69714 0.83349 1.12931
 H259 H 0.67126 0.82881 1.16659
 H260 H 0.66052 0.83960 1.15543
 N261 N 0.14262 0.32024 1.17006
 N262 N 0.14289 0.32952 1.17955
 C263 C 0.13240 0.32748 1.18797
 C264 C 0.12528 0.31639 1.18345
 C265 C 0.13197 0.31201 1.17211
 H266 H 0.13011 0.33354 1.19674
 H267 H 0.12932 0.30346 1.16587
 Cu268 Cu 0.15695 0.34329 1.17996
 Cu269 Cu 0.15609 0.31941 1.15584
 Cu270 Cu 0.18086 0.34417 1.15583
 N271 N 0.17072 0.35736 1.17954
 N272 N 0.18001 0.35764 1.17006
 C273 C 0.18824 0.36828 1.17210
 C274 C 0.18385 0.37496 1.18343
 C275 C 0.17275 0.36785 1.18796
 H276 H 0.19680 0.37093 1.16586
 H277 H 0.16668 0.37013 1.19673
 N278 N 0.18002 0.32969 1.14228
 N279 N 0.17057 0.32025 1.14228
 C280 C 0.17274 0.31183 1.13184
 C281 C 0.18405 0.31623 1.12506
 C282 C 0.18846 0.32753 1.13185
 H283 H 0.16661 0.30312 1.12937
 H284 H 0.19717 0.33365 1.12938
 H285 H 0.17150 0.32878 1.16638
 H286 H 0.16040 0.33990 1.15590
 N287 N 0.14251 0.81991 0.66975
 N288 N 0.14284 0.82911 0.67930
 C289 C 0.13235 0.82706 0.68773
 C290 C 0.12518 0.81602 0.68314
 C291 C 0.13183 0.81171 0.67176
 H292 H 0.13011 0.83305 0.69655
 H293 H 0.12914 0.80320 0.66546
 Cu294 Cu 0.15695 0.84285 0.67977
 Cu295 Cu 0.15598 0.81909 0.65552
 Cu296 Cu 0.18077 0.84382 0.65556
 N297 N 0.17075 0.85691 0.67940
 N298 N 0.17997 0.85727 0.66985
 C299 C 0.18822 0.86790 0.67195
 C300 C 0.18391 0.87448 0.68338
 C301 C 0.17284 0.86732 0.68790
 H302 H 0.19674 0.87061 0.66567
 H303 H 0.16682 0.86952 0.69673
 N304 N 0.17991 0.82936 0.64194
 N305 N 0.17046 0.81992 0.64196
 C306 C 0.17260 0.81147 0.63155
 C307 C 0.18390 0.81584 0.62472
 C308 C 0.18833 0.82716 0.63149
 H309 H 0.16645 0.80278 0.62910
 H310 H 0.19705 0.83327 0.62900
 H311 H 0.17139 0.82836 0.66606
 H312 H 0.16025 0.83953 0.65568
 N313 N 0.35754 0.67997 0.67020
 N314 N 0.35731 0.67062 0.67965
 C315 C 0.36773 0.67271 0.68816
 C316 C 0.37472 0.68395 0.68376
 C317 C 0.36805 0.68832 0.67239
 H318 H 0.37006 0.66659 0.69689
 H319 H 0.37065 0.69694 0.66619
 Cu320 Cu 0.34339 0.65669 0.67966
 Cu321 Cu 0.34415 0.68073 0.65581
 Cu322 Cu 0.31936 0.65590 0.65583
 N323 N 0.32948 0.64275 0.67968
 N324 N 0.32014 0.64251 0.67024
 C325 C 0.31180 0.63198 0.67244
 C326 C 0.31618 0.62532 0.68382
 C327 C 0.32740 0.63232 0.68820
 H328 H 0.30319 0.62936 0.66626
 H329 H 0.33352 0.63000 0.69693
 N330 N 0.32028 0.67034 0.64212
 N331 N 0.32973 0.67979 0.64213
 C332 C 0.32757 0.68822 0.63167
 C333 C 0.31628 0.68383 0.62485
 C334 C 0.31187 0.67251 0.63166
 H335 H 0.33369 0.69695 0.62922
 H336 H 0.30315 0.66640 0.62919
 H337 H 0.32877 0.67129 0.66625
 H338 H 0.33979 0.66029 0.65565
 N339 N 0.35767 0.18012 1.17004
 N340 N 0.35737 0.17086 1.17956
 C341 C 0.36787 0.17288 1.18798
 C342 C 0.37501 0.18395 1.18341
 C343 C 0.36833 0.18833 1.17206
 H344 H 0.37015 0.16683 1.19677
 H345 H 0.37100 0.19687 1.16578
 Cu346 Cu 0.34329 0.15711 1.18003
 Cu347 Cu 0.34421 0.18096 1.15581
 Cu348 Cu 0.31944 0.15621 1.15585
 N349 N 0.32953 0.14304 1.17961
 N350 N 0.32027 0.14276 1.17010
 C351 C 0.31205 0.13210 1.17214
 C352 C 0.31641 0.12542 1.18350
 C353 C 0.32749 0.13255 1.18805
 H354 H 0.30351 0.12944 1.16588
 H355 H 0.33353 0.13027 1.19684
 N356 N 0.32029 0.17067 1.14227
 N357 N 0.32974 0.18012 1.14226
 C358 C 0.32757 0.18855 1.13181
 C359 C 0.31626 0.18413 1.12503
 C360 C 0.31186 0.17283 1.13184
 H361 H 0.33369 0.19726 1.12932
 H362 H 0.30315 0.16671 1.12938
 H363 H 0.32879 0.17163 1.16638
 H364 H 0.33992 0.16048 1.15597
 N365 N 0.85724 0.68022 1.17021
 N366 N 0.85732 0.67056 1.17932
 C367 C 0.86776 0.67258 1.18780
 C368 C 0.87445 0.68410 1.18373
 C369 C 0.86759 0.68873 1.17258
 H370 H 0.87029 0.66623 1.19631
 H371 H 0.86994 0.69763 1.16668
 Cu372 Cu 0.84368 0.65639 1.17930
 Cu373 Cu 0.84379 0.68107 1.15595
 Cu374 Cu 0.81902 0.65626 1.15598
 N375 N 0.82953 0.64272 1.17936
 N376 N 0.81987 0.64279 1.17025
 C377 C 0.81137 0.63242 1.17264
 C378 C 0.81601 0.62556 1.18380
 C379 C 0.82751 0.63227 1.18785
 H380 H 0.80249 0.63007 1.16675
 H381 H 0.83387 0.62975 1.19635
 N382 N 0.81988 0.67073 1.14238
 N383 N 0.82932 0.68019 1.14237
 C384 C 0.82721 0.68855 1.13186
 C385 C 0.81596 0.68410 1.12503
 C386 C 0.81152 0.67283 1.13188
 H387 H 0.83336 0.69725 1.12935
 H388 H 0.80284 0.66668 1.12939
 H389 H 0.82873 0.67135 1.16666
 H390 H 0.83947 0.66062 1.15548
 N391 N 0.85762 0.17990 0.66984
 N392 N 0.85747 0.17046 0.67919
 C393 C 0.86797 0.17246 0.68762
 C394 C 0.87494 0.18371 0.68324
 C395 C 0.86818 0.18821 0.67198
 H396 H 0.87033 0.16631 0.69631
 H397 H 0.87069 0.19692 0.66589
 Cu398 Cu 0.84342 0.15669 0.67958
 Cu399 Cu 0.84410 0.18079 0.65565
 Cu400 Cu 0.81933 0.15601 0.65568
 N401 N 0.82957 0.14270 0.67933
 N402 N 0.82018 0.14253 0.66995
 C403 C 0.81184 0.13199 0.67212
 C404 C 0.81627 0.12526 0.68343
 C405 C 0.82751 0.13224 0.68781
 H406 H 0.80318 0.12945 0.66599
 H407 H 0.83365 0.12988 0.69652
 N408 N 0.82016 0.17051 0.64210
 N409 N 0.82959 0.17998 0.64213
 C410 C 0.82745 0.18841 0.63169
 C411 C 0.81619 0.18399 0.62484
 C412 C 0.81177 0.17267 0.63162
 H413 H 0.83358 0.19712 0.62922
 H414 H 0.80310 0.16651 0.62910
 H415 H 0.82877 0.17136 0.66624
 H416 H 0.83980 0.16036 0.65560
 N417 N 0.31980 0.35751 0.67036
 N418 N 0.32917 0.35724 0.67977
 C419 C 0.32716 0.36768 0.68825
 C420 C 0.31598 0.37474 0.68387
 C421 C 0.31151 0.36809 0.67254
 H422 H 0.33331 0.36998 0.69696
 H423 H 0.30288 0.37073 0.66638
 Cu424 Cu 0.34302 0.34328 0.67982
 Cu425 Cu 0.31895 0.34413 0.65603
 Cu426 Cu 0.34377 0.31927 0.65604
 N427 N 0.35689 0.32933 0.67988
 N428 N 0.35715 0.31999 0.67044
 C429 C 0.36768 0.31165 0.67266
 C430 C 0.37430 0.31603 0.68405
 C431 C 0.36727 0.32724 0.68842
 H432 H 0.37033 0.30306 0.66647
 H433 H 0.36958 0.33337 0.69713
 N434 N 0.32934 0.32025 0.64237
 N435 N 0.31988 0.32970 0.64241
 C436 C 0.31148 0.32762 0.63194
 C437 C 0.31591 0.31639 0.62507
 C438 C 0.32720 0.31191 0.63186
 H439 H 0.30277 0.33377 0.62949
 H440 H 0.33333 0.30322 0.62934
 H441 H 0.32835 0.32875 0.66646
 H442 H 0.33935 0.33976 0.65583
 N443 N 0.32008 0.85766 0.17009
 N444 N 0.32947 0.85748 0.17948
 C445 C 0.32733 0.86787 0.18801
 C446 C 0.31605 0.87482 0.18367
 C447 C 0.31168 0.86814 0.17231
 H448 H 0.33346 0.87020 0.19672
 H449 H 0.30302 0.87070 0.16617
 Cu450 Cu 0.34346 0.84359 0.17963
 Cu451 Cu 0.31936 0.84425 0.15576
 Cu452 Cu 0.34415 0.81944 0.15580
 N453 N 0.35733 0.82959 0.17955
 N454 N 0.35753 0.82019 0.17018
 C455 C 0.36800 0.81178 0.17244
 C456 C 0.37465 0.81617 0.18381
 C457 C 0.36770 0.82746 0.18811
 H458 H 0.37058 0.80312 0.16632
 H459 H 0.37003 0.83360 0.19681
 N460 N 0.32975 0.82037 0.14211
 N461 N 0.32030 0.82983 0.14210
 C462 C 0.31189 0.82769 0.13164
 C463 C 0.31629 0.81639 0.12483
 C464 C 0.32759 0.81196 0.13165
 H465 H 0.30317 0.83382 0.12918
 H466 H 0.33371 0.80324 0.12919
 H467 H 0.32883 0.82888 0.16635
 H468 H 0.33981 0.83986 0.15565
 N469 N 0.82001 0.35781 0.16997
 N470 N 0.82936 0.35755 0.17940
 C471 C 0.82729 0.36796 0.18790
 C472 C 0.81609 0.37500 0.18351
 C473 C 0.81169 0.36836 0.17215
 H474 H 0.83342 0.37026 0.19661
 H475 H 0.80308 0.37102 0.16596
 Cu476 Cu 0.84330 0.34365 0.17952
 Cu477 Cu 0.81923 0.34444 0.15561
 Cu478 Cu 0.84403 0.31960 0.15566
 N479 N 0.85716 0.32966 0.17946
 N480 N 0.85741 0.32032 0.17003
 C481 C 0.86794 0.31196 0.17226
 C482 C 0.87456 0.31634 0.18365
 C483 C 0.86754 0.32756 0.18800
 H484 H 0.87059 0.30335 0.16609
 H485 H 0.86983 0.33370 0.19670
 N486 N 0.82962 0.32056 0.14196
 N487 N 0.82016 0.33001 0.14195
 C488 C 0.81174 0.32784 0.13149
 C489 C 0.81616 0.31653 0.12470
 C490 C 0.82747 0.31214 0.13152
 H491 H 0.80302 0.33396 0.12902
 H492 H 0.83359 0.30342 0.12908
 H493 H 0.82865 0.32909 0.16610
 H494 H 0.83966 0.34009 0.15547
 N495 N 0.82005 0.85798 0.67017
 N496 N 0.82951 0.85782 0.67948
 C497 C 0.82752 0.86829 0.68794
 C498 C 0.81627 0.87527 0.68363
 C499 C 0.81173 0.86854 0.67237
 H500 H 0.83371 0.87064 0.69660
 H501 H 0.80302 0.87109 0.66630
 Cu502 Cu 0.84343 0.84390 0.67967
 Cu503 Cu 0.81912 0.84446 0.65596
 Cu504 Cu 0.84390 0.81964 0.65601
 N505 N 0.85724 0.82986 0.67962
 N506 N 0.85738 0.82044 0.67028
 C507 C 0.86786 0.81203 0.67252
 C508 C 0.87457 0.81645 0.68385
 C509 C 0.86764 0.82776 0.68814
 H510 H 0.87040 0.80334 0.66642
 H511 H 0.87000 0.83392 0.69681
 N512 N 0.82940 0.82048 0.64242
 N513 N 0.81992 0.82991 0.64242
 C514 C 0.81147 0.82770 0.63200
 C515 C 0.81589 0.81639 0.62522
 C516 C 0.82723 0.81203 0.63201
 H517 H 0.80276 0.83382 0.62952
 H518 H 0.83339 0.80334 0.62954
 H519 H 0.82861 0.82923 0.66659
 H520 H 0.83951 0.84014 0.65573
 N521 N 0.67972 0.64260 0.67033
 N522 N 0.67017 0.64266 0.67956
 C523 C 0.67224 0.63225 0.68811
 C524 C 0.68364 0.62539 0.68392
 C525 C 0.68815 0.63216 0.67266
 H526 H 0.66600 0.62984 0.69673
 H527 H 0.69694 0.62970 0.66666
 Cu528 Cu 0.65620 0.65653 0.67949
 Cu529 Cu 0.68064 0.65615 0.65608
 Cu530 Cu 0.65578 0.68098 0.65602
 N531 N 0.64224 0.67041 0.67941
 N532 N 0.64219 0.67999 0.67019
 C533 C 0.63171 0.68838 0.67245
 C534 C 0.62490 0.68379 0.68366
 C535 C 0.63178 0.67242 0.68788
 H536 H 0.62927 0.69719 0.66646
 H537 H 0.62937 0.66618 0.69650
 N538 N 0.67038 0.68020 0.64254
 N539 N 0.67983 0.67073 0.64252
 C540 C 0.68824 0.67294 0.63206
 C541 C 0.68383 0.68428 0.62530
 C542 C 0.67254 0.68866 0.63212
 H543 H 0.69693 0.66679 0.62954
 H544 H 0.66638 0.69736 0.62964
 H545 H 0.67100 0.67141 0.66660
 H546 H 0.66020 0.66060 0.65560
 N547 N 0.68025 0.14234 0.16995
 N548 N 0.67093 0.14258 0.17941
 C549 C 0.67303 0.13214 0.18791
 C550 C 0.68422 0.12510 0.18349
 C551 C 0.68858 0.13177 0.17211
 H552 H 0.66694 0.12984 0.19667
 H553 H 0.69718 0.12916 0.16591
 Cu554 Cu 0.65711 0.15664 0.17971
 Cu555 Cu 0.68101 0.15576 0.15561
 Cu556 Cu 0.65623 0.18057 0.15563
 N557 N 0.64310 0.17050 0.17944
 N558 N 0.64285 0.17983 0.16998
 C559 C 0.63230 0.18818 0.17214
 C560 C 0.62566 0.18382 0.18352
 C561 C 0.63268 0.17261 0.18795
 H562 H 0.62969 0.19678 0.16593
 H563 H 0.63039 0.16652 0.19670
 N564 N 0.67062 0.17964 0.14196
 N565 N 0.68008 0.17020 0.14194
 C566 C 0.68846 0.17237 0.13145
 C567 C 0.68400 0.18366 0.12464
 C568 C 0.67272 0.18806 0.13148
 H569 H 0.69718 0.16625 0.12897
 H570 H 0.66658 0.19677 0.12903
 H571 H 0.67165 0.17115 0.16611
 H572 H 0.66055 0.16008 0.15564
 N573 N 0.17985 0.64283 0.17010
 N574 N 0.17048 0.64303 0.17950
 C575 C 0.17259 0.63263 0.18804
 C576 C 0.18384 0.62565 0.18369
 C577 C 0.18823 0.63232 0.17232
 H578 H 0.16643 0.63029 0.19673
 H579 H 0.19685 0.62971 0.16615
 Cu580 Cu 0.15645 0.65687 0.17951
 Cu581 Cu 0.18054 0.65621 0.15573
 Cu582 Cu 0.15568 0.68095 0.15560
 N583 N 0.14251 0.67079 0.17936
 N584 N 0.14228 0.68016 0.16994
 C585 C 0.13172 0.68847 0.17209
 C586 C 0.12504 0.68405 0.18343
 C587 C 0.13207 0.67285 0.18785
 H588 H 0.12909 0.69708 0.16590
 H589 H 0.12975 0.66669 0.19655
 N590 N 0.17014 0.68004 0.14195
 N591 N 0.17959 0.67059 0.14201
 C592 C 0.18801 0.67271 0.13155
 C593 C 0.18361 0.68398 0.12468
 C594 C 0.17230 0.68842 0.13146
 H595 H 0.19674 0.66658 0.12913
 H596 H 0.16618 0.69714 0.12895
 H597 H 0.17093 0.67158 0.16615
 H598 H 0.16001 0.66055 0.15552
 N599 N 0.17971 0.14182 0.67042
 N600 N 0.17038 0.14204 0.67986
 C601 C 0.17242 0.13153 0.68829
 C602 C 0.18358 0.12448 0.68381
 C603 C 0.18799 0.13121 0.67250
 H604 H 0.16633 0.12920 0.69703
 H605 H 0.19660 0.12862 0.66631
 Cu606 Cu 0.15662 0.15614 0.68026
 Cu607 Cu 0.18054 0.15530 0.65618
 Cu608 Cu 0.15579 0.18008 0.65614
 N609 N 0.14259 0.16997 0.67989
 N610 N 0.14235 0.17928 0.67042
 C611 C 0.13179 0.18760 0.67252
 C612 C 0.12510 0.18324 0.68387
 C613 C 0.13214 0.17206 0.68836
 H614 H 0.12918 0.19620 0.66630
 H615 H 0.12982 0.16598 0.69711
 N616 N 0.17026 0.17922 0.64254
 N617 N 0.17971 0.16977 0.64259
 C618 C 0.18813 0.17189 0.63213
 C619 C 0.18372 0.18315 0.62526
 C620 C 0.17241 0.18759 0.63204
 H621 H 0.19683 0.16573 0.62968
 H622 H 0.16626 0.19628 0.62951
 H623 H 0.17116 0.17070 0.66670
 H624 H 0.16008 0.15960 0.65622
 N625 N 0.32010 0.64246 0.32968
 N626 N 0.32939 0.64280 0.32020
 C627 C 0.32745 0.63230 0.31177
 C628 C 0.31639 0.62513 0.31628
 C629 C 0.31194 0.63177 0.32762
 H630 H 0.33357 0.63003 0.30303
 H631 H 0.30339 0.62906 0.33385
 Cu632 Cu 0.34305 0.65694 0.32016
 Cu633 Cu 0.31917 0.65591 0.34401
 Cu634 Cu 0.34403 0.68076 0.34400
 N635 N 0.35717 0.67061 0.32019
 N636 N 0.35749 0.67988 0.32969
 C637 C 0.36818 0.68806 0.32764
 C638 C 0.37484 0.68364 0.31629
 C639 C 0.36767 0.67258 0.31177
 H640 H 0.37088 0.69659 0.33389
 H641 H 0.36996 0.66648 0.30303
 N642 N 0.32951 0.67988 0.35757
 N643 N 0.32004 0.67044 0.35758
 C644 C 0.31161 0.67264 0.36801
 C645 C 0.31604 0.68394 0.37478
 C646 C 0.32735 0.68832 0.36799
 H647 H 0.30289 0.66653 0.37050
 H648 H 0.33349 0.69702 0.37045
 H649 H 0.32853 0.67138 0.33375
 H650 H 0.33960 0.66029 0.34420
 N651 N 0.31993 0.14246 0.82992
 N652 N 0.32928 0.14275 0.82049
 C653 C 0.32719 0.13240 0.81191
 C654 C 0.31596 0.12536 0.81625
 C655 C 0.31159 0.13194 0.82766
 H656 H 0.33332 0.13012 0.80319
 H657 H 0.30298 0.12928 0.83384
 Cu658 Cu 0.34322 0.15664 0.82054
 Cu659 Cu 0.31918 0.15580 0.84436
 Cu660 Cu 0.34401 0.18063 0.84438
 N661 N 0.35716 0.17054 0.82059
 N662 N 0.35740 0.17987 0.83002
 C663 C 0.36794 0.18820 0.82786
 C664 C 0.37461 0.18382 0.81650
 C665 C 0.36759 0.17262 0.81209
 H666 H 0.37055 0.19680 0.83405
 H667 H 0.36992 0.16651 0.80337
 N668 N 0.32959 0.17967 0.85803
 N669 N 0.32014 0.17021 0.85807
 C670 C 0.31177 0.17238 0.86856
 C671 C 0.31623 0.18368 0.87535
 C672 C 0.32748 0.18808 0.86848
 H673 H 0.30306 0.16626 0.87107
 H674 H 0.33362 0.19679 0.87092
 H675 H 0.32862 0.17123 0.83395
 H676 H 0.33964 0.16020 0.84455
 N677 N 0.82025 0.64230 0.83005
 N678 N 0.82979 0.64237 0.82082
 C679 C 0.82775 0.63196 0.81231
 C680 C 0.81638 0.62510 0.81651
 C681 C 0.81184 0.63185 0.82775
 H682 H 0.83399 0.62957 0.80369
 H683 H 0.80305 0.62938 0.83376
 Cu684 Cu 0.84370 0.65628 0.82084
 Cu685 Cu 0.81932 0.65579 0.84433
 Cu686 Cu 0.84413 0.68063 0.84430
 N687 N 0.85758 0.67022 0.82080
 N688 N 0.85762 0.67976 0.83003
 C689 C 0.86805 0.68820 0.82774
 C690 C 0.87482 0.68370 0.81650
 C691 C 0.86799 0.67231 0.81228
 H692 H 0.87049 0.69699 0.83375
 H693 H 0.87040 0.66609 0.80366
 N694 N 0.82963 0.67976 0.85787
 N695 N 0.82017 0.67032 0.85790
 C696 C 0.81179 0.67250 0.86837
 C697 C 0.81624 0.68379 0.87515
 C698 C 0.82752 0.68818 0.86831
 H699 H 0.80310 0.66636 0.87090
 H700 H 0.83369 0.69686 0.87078
 H701 H 0.82881 0.67108 0.83374
 H702 H 0.83965 0.66025 0.84470
 N703 N 0.82026 0.14222 0.32961
 N704 N 0.82984 0.14224 0.32042
 C705 C 0.82780 0.13181 0.31192
 C706 C 0.81637 0.12500 0.31608
 C707 C 0.81181 0.13180 0.32729
 H708 H 0.83409 0.12935 0.30336
 H709 H 0.80300 0.12937 0.33327
 Cu710 Cu 0.84397 0.15594 0.32045
 Cu711 Cu 0.81937 0.15569 0.34386
 Cu712 Cu 0.84410 0.18052 0.34385
 N713 N 0.85761 0.17013 0.32041
 N714 N 0.85759 0.17971 0.32960
 C715 C 0.86797 0.18820 0.32728
 C716 C 0.87479 0.18368 0.31607
 C717 C 0.86803 0.17223 0.31191
 H718 H 0.87036 0.19702 0.33326
 H719 H 0.87053 0.16596 0.30335
 N720 N 0.82960 0.17965 0.35743
 N721 N 0.82016 0.17019 0.35744
 C722 C 0.81174 0.17235 0.36789
 C723 C 0.81613 0.18367 0.37469
 C724 C 0.82743 0.18807 0.36787
 H725 H 0.80305 0.16620 0.37038
 H726 H 0.83357 0.19677 0.37034
 H727 H 0.82901 0.17082 0.33316
 H728 H 0.83979 0.16006 0.34430
 N729 N 0.67965 0.35749 0.33002
 N730 N 0.67010 0.35746 0.32079
 C731 C 0.67216 0.36791 0.31229
 C732 C 0.68355 0.37473 0.31650
 C733 C 0.68808 0.36793 0.32773
 H734 H 0.66593 0.37032 0.30366
 H735 H 0.69687 0.37036 0.33373
 Cu736 Cu 0.65620 0.34353 0.32076
 Cu737 Cu 0.68060 0.34393 0.34423
 Cu738 Cu 0.65582 0.31909 0.34424
 N739 N 0.64225 0.32964 0.32086
 N740 N 0.64226 0.32007 0.33007
 C741 C 0.63182 0.31164 0.32783
 C742 C 0.62498 0.31620 0.31664
 C743 C 0.63178 0.32761 0.31241
 H744 H 0.62942 0.30282 0.33382
 H745 H 0.62935 0.33384 0.30379
 N746 N 0.67039 0.31988 0.35772
 N747 N 0.67982 0.32935 0.35776
 C748 C 0.68823 0.32716 0.36821
 C749 C 0.68383 0.31582 0.37496
 C750 C 0.67255 0.31142 0.36814
 H751 H 0.69690 0.33331 0.37074
 H752 H 0.66641 0.30272 0.37061
 H753 H 0.67104 0.32869 0.33365
 H754 H 0.66019 0.33949 0.34463
 N755 N 0.67972 0.85759 0.82998
 N756 N 0.67045 0.85725 0.82048
 C757 C 0.67246 0.86771 0.81199
 C758 C 0.68352 0.87487 0.81648
 C759 C 0.68792 0.86825 0.82787
 H760 H 0.66641 0.86992 0.80319
 H761 H 0.69649 0.87094 0.83409
 Cu762 Cu 0.65673 0.84318 0.82003
 Cu763 Cu 0.68063 0.84406 0.84419
 Cu764 Cu 0.65585 0.81931 0.84422
 N765 N 0.64265 0.82947 0.82053
 N766 N 0.64232 0.82020 0.83005
 C767 C 0.63164 0.81201 0.82800
 C768 C 0.62501 0.81642 0.81662
 C769 C 0.63218 0.82747 0.81209
 H770 H 0.62896 0.80345 0.83424
 H771 H 0.62995 0.83351 0.80328
 N772 N 0.67039 0.82008 0.85771
 N773 N 0.67985 0.82951 0.85771
 C774 C 0.68829 0.82729 0.86814
 C775 C 0.68387 0.81596 0.87490
 C776 C 0.67255 0.81160 0.86811
 H777 H 0.69699 0.83342 0.87064
 H778 H 0.66639 0.80292 0.87060
 H779 H 0.67126 0.82867 0.83366
 H780 H 0.66015 0.83980 0.84409
 N781 N 0.17966 0.35736 0.82992
 N782 N 0.17030 0.35709 0.82050
 C783 C 0.17231 0.36753 0.81198
 C784 C 0.18350 0.37457 0.81634
 C785 C 0.18795 0.36793 0.82770
 H786 H 0.16618 0.36982 0.80325
 H787 H 0.19658 0.37056 0.83386
 Cu788 Cu 0.15644 0.34315 0.82047
 Cu789 Cu 0.18050 0.34396 0.84430
 Cu790 Cu 0.15569 0.31912 0.84430
 N791 N 0.14259 0.32918 0.82044
 N792 N 0.14234 0.31986 0.82991
 C793 C 0.13182 0.31151 0.82773
 C794 C 0.12518 0.31587 0.81634
 C795 C 0.13219 0.32708 0.81192
 H796 H 0.12920 0.30291 0.83395
 H797 H 0.12987 0.33320 0.80318
 N798 N 0.17008 0.32008 0.85797
 N799 N 0.17956 0.32950 0.85796
 C800 C 0.18794 0.32733 0.86845
 C801 C 0.18346 0.31605 0.87527
 C802 C 0.17218 0.31168 0.86845
 H803 H 0.19667 0.33343 0.87093
 H804 H 0.16603 0.30298 0.87093
 H805 H 0.17111 0.32858 0.83387
 H806 H 0.16010 0.33960 0.84447
 N807 N 0.17953 0.85776 0.32957
 N808 N 0.17003 0.85769 0.32029
 C809 C 0.17208 0.86814 0.31181
 C810 C 0.18341 0.87503 0.31608
 C811 C 0.18791 0.86825 0.32733
 H812 H 0.16586 0.87057 0.30318
 H813 H 0.19665 0.87073 0.33340
 Cu814 Cu 0.15598 0.84389 0.32027
 Cu815 Cu 0.18043 0.84425 0.34381
 Cu816 Cu 0.15572 0.81939 0.34378
 N817 N 0.14235 0.82969 0.32019
 N818 N 0.14229 0.82019 0.32948
 C819 C 0.13187 0.81173 0.32722
 C820 C 0.12512 0.81619 0.31593
 C821 C 0.13196 0.82756 0.31166
 H822 H 0.12938 0.80301 0.33332
 H823 H 0.12952 0.83378 0.30304
 N824 N 0.17018 0.82027 0.35738
 N825 N 0.17963 0.82973 0.35738
 C826 C 0.18808 0.82753 0.36780
 C827 C 0.18369 0.81620 0.37459
 C828 C 0.17237 0.81182 0.36781
 H829 H 0.19679 0.83366 0.37027
 H830 H 0.16625 0.80311 0.37029
 H831 H 0.17086 0.82909 0.33315
 H832 H 0.16000 0.83987 0.34417
 C833 C 0.24501 1.00027 0.25467
 C834 C 0.25496 1.00035 0.24530
 C835 C 0.26018 1.01316 0.23967
 C836 C 0.26048 0.98767 0.23964
 C837 C 0.23979 0.98747 0.26030
 C838 C 0.23949 1.01294 0.26033
 C839 C 0.25352 1.01934 0.22881
 C840 C 0.25869 1.03122 0.22315
 C841 C 0.27053 1.03699 0.22832
 C842 C 0.27711 1.03092 0.23925
 C843 C 0.27197 1.01903 0.24489
 C844 C 0.25258 0.97966 0.23104
 C845 C 0.25794 0.96786 0.22540
 C846 C 0.27127 0.96402 0.22826
 C847 C 0.27919 0.97200 0.23683
 C848 C 0.27383 0.98378 0.24248
 C849 C 0.24647 0.98126 0.27113
 C850 C 0.24130 0.96938 0.27679
 C851 C 0.22944 0.96363 0.27164
 C852 C 0.22282 0.96974 0.26075
 C853 C 0.22796 0.98163 0.25511
 C854 C 0.24739 1.02092 0.26898
 C855 C 0.24201 1.03269 0.27466
 C856 C 0.22868 1.03653 0.27180
 C857 C 0.22077 1.02859 0.26319
 C858 C 0.22614 1.01684 0.25750
 H859 H 0.24442 1.01488 0.22468
 H860 H 0.25353 1.03583 0.21468
 H861 H 0.28627 1.03531 0.24333
 H862 H 0.27718 1.01440 0.25330
 H863 H 0.24232 0.98263 0.22859
 H864 H 0.25174 0.96180 0.21874
 H865 H 0.28007 0.98984 0.24909
 H866 H 0.25559 0.98571 0.27524
 H867 H 0.24648 0.96475 0.28523
 H868 H 0.21364 0.96537 0.25670
 H869 H 0.22273 0.98628 0.24672
 H870 H 0.25764 1.01794 0.27142
 H871 H 0.24821 1.03873 0.28134
 H872 H 0.21044 1.03146 0.26093
 H873 H 0.21990 1.01080 0.25086
 H874 H 0.28952 0.96913 0.23910
 C875 C 0.24505 0.49980 0.75498
 C876 C 0.25465 0.49984 0.74523
 C877 C 0.26001 0.51251 0.73929
 C878 C 0.26011 0.48702 0.73989
 C879 C 0.23962 0.48694 0.76031
 C880 C 0.23972 0.51242 0.76098
 C881 C 0.25136 0.52184 0.73295
 C882 C 0.25662 0.53363 0.72716
 C883 C 0.27055 0.53616 0.72762
 C884 C 0.27919 0.52687 0.73388
 C885 C 0.27396 0.51508 0.73964
 C886 C 0.25520 0.48186 0.72770
 C887 C 0.26051 0.46988 0.72246
 C888 C 0.27083 0.46305 0.72933
 C889 C 0.27571 0.46815 0.74155
 C890 C 0.27033 0.48008 0.74685
 C891 C 0.24452 0.48177 0.77252
 C892 C 0.23918 0.46979 0.77780
 C893 C 0.22885 0.46298 0.77095
 C894 C 0.22398 0.46809 0.75872
 C895 C 0.22939 0.48002 0.75338
 C896 C 0.24840 0.52168 0.76734
 C897 C 0.24318 0.53347 0.77313
 C898 C 0.22927 0.53606 0.77265
 C899 C 0.22059 0.52683 0.76639
 C900 C 0.22577 0.51504 0.76064
 H901 H 0.24059 0.51992 0.73240
 H902 H 0.24984 0.54073 0.72229
 H903 H 0.28998 0.52873 0.73430
 H904 H 0.28079 0.50802 0.74446
 H905 H 0.24727 0.48712 0.72229
 H906 H 0.25666 0.46600 0.71301
 H907 H 0.27421 0.48401 0.75626
 H908 H 0.25245 0.48701 0.77793
 H909 H 0.24302 0.46591 0.78726
 H910 H 0.21594 0.46294 0.75339
 H911 H 0.22549 0.48396 0.74397
 H912 H 0.25916 0.51971 0.76790
 H913 H 0.24998 0.54052 0.77801
 H914 H 0.20980 0.52874 0.76597
 H915 H 0.21892 0.50802 0.75580
 H916 H 0.28374 0.46297 0.74690
 C917 C 0.74529 -0.00038 0.24540
 C918 C 0.75522 -0.00037 0.25479
 C919 C 0.76069 -0.01309 0.26044
 C920 C 0.76048 0.01240 0.26044
 C921 C 0.73981 0.01233 0.23975
 C922 C 0.74004 -0.01314 0.23973
 C923 C 0.75274 -0.02110 0.26902
 C924 C 0.75805 -0.03294 0.27465
 C925 C 0.77137 -0.03680 0.27181
 C926 C 0.77934 -0.02881 0.26329
 C927 C 0.77404 -0.01699 0.25764
 C928 C 0.75380 0.01859 0.27125
 C929 C 0.75896 0.03048 0.27688
 C930 C 0.77082 0.03624 0.27171
 C931 C 0.77744 0.03013 0.26085
 C932 C 0.77231 0.01823 0.25524
 C933 C 0.74776 0.02035 0.23117
 C934 C 0.74243 0.03215 0.22549
 C935 C 0.72908 0.03598 0.22828
 C936 C 0.72113 0.02801 0.23683
 C937 C 0.72646 0.01622 0.24252
 C938 C 0.74670 -0.01927 0.22886
 C939 C 0.74152 -0.03112 0.22316
 C940 C 0.72966 -0.03691 0.22832
 C941 C 0.72307 -0.03086 0.23924
 C942 C 0.72822 -0.01900 0.24491
 H943 H 0.74248 -0.01811 0.27144
 H944 H 0.75181 -0.03901 0.28129
 H945 H 0.78968 -0.03169 0.26106
 H946 H 0.78032 -0.01092 0.25107
 H947 H 0.74468 0.01415 0.27537
 H948 H 0.75377 0.03511 0.28531
 H949 H 0.77754 0.01358 0.24686
 H950 H 0.75803 0.01737 0.22877
 H951 H 0.74866 0.03822 0.21885
 H952 H 0.71078 0.03087 0.23904
 H953 H 0.72018 0.01015 0.24910
 H954 H 0.75581 -0.01481 0.22475
 H955 H 0.74668 -0.03570 0.21469
 H956 H 0.71390 -0.03525 0.24330
 H957 H 0.72301 -0.01440 0.25333
 H958 H 0.78662 0.03450 0.25678
 C959 C 0.74523 0.49995 0.74547
 C960 C 0.75516 0.49995 0.75485
 C961 C 0.76066 0.48722 0.76048
 C962 C 0.76041 0.51271 0.76054
 C963 C 0.73973 0.51269 0.73985
 C964 C 0.73997 0.48719 0.73980
 C965 C 0.75272 0.47917 0.76904
 C966 C 0.75808 0.46737 0.77471
 C967 C 0.77144 0.46357 0.77192
 C968 C 0.77939 0.47159 0.76340
 C969 C 0.77403 0.48337 0.75772
 C970 C 0.75373 0.51885 0.77138
 C971 C 0.75889 0.53071 0.77707
 C972 C 0.77075 0.53649 0.77193
 C973 C 0.77736 0.53043 0.76102
 C974 C 0.77223 0.51857 0.75536
 C975 C 0.74768 0.52076 0.73132
 C976 C 0.74234 0.53259 0.72569
 C977 C 0.72898 0.53639 0.72849
 C978 C 0.72103 0.52835 0.73699
 C979 C 0.72637 0.51654 0.74262
 C980 C 0.74663 0.48103 0.72896
 C981 C 0.74146 0.46915 0.72330
 C982 C 0.72961 0.46337 0.72848
 C983 C 0.72301 0.46946 0.73937
 C984 C 0.72815 0.48134 0.74500
 H985 H 0.74245 0.48212 0.77144
 H986 H 0.75186 0.46128 0.78133
 H987 H 0.78974 0.46876 0.76119
 H988 H 0.78030 0.48946 0.75116
 H989 H 0.74461 0.51439 0.77548
 H990 H 0.75371 0.53530 0.78552
 H991 H 0.77745 0.51396 0.74695
 H992 H 0.75795 0.51781 0.72892
 H993 H 0.74857 0.53870 0.71909
 H994 H 0.71068 0.53119 0.73920
 H995 H 0.72008 0.51044 0.74916
 H996 H 0.75575 0.48548 0.72484
 H997 H 0.74664 0.46455 0.71486
 H998 H 0.71384 0.46508 0.74344
 H999 H 0.72293 0.48597 0.75340
 H1000 H 0.78653 0.53483 0.75697
 C1001 C 0.24505 0.50003 0.24524
 C1002 C 0.25499 0.50013 0.25461
 C1003 C 0.26050 0.48745 0.26032
 C1004 C 0.26018 0.51292 0.26024
 C1005 C 0.23950 0.51271 0.23956
 C1006 C 0.23984 0.48723 0.23963
 C1007 C 0.25256 0.47946 0.26893
 C1008 C 0.25789 0.46765 0.27461
 C1009 C 0.27122 0.46379 0.27177
 C1010 C 0.27918 0.47176 0.26322
 C1011 C 0.27385 0.48355 0.25753
 C1012 C 0.25347 0.51909 0.27106
 C1013 C 0.25860 0.53097 0.27673
 C1014 C 0.27046 0.53676 0.27159
 C1015 C 0.27710 0.53068 0.26072
 C1016 C 0.27200 0.51879 0.25507
 C1017 C 0.24742 0.52078 0.23100
 C1018 C 0.24203 0.53257 0.22534
 C1019 C 0.22867 0.53634 0.22813
 C1020 C 0.22074 0.52831 0.23666
 C1021 C 0.22612 0.51654 0.24234
 C1022 C 0.24651 0.48107 0.22878
 C1023 C 0.24136 0.46918 0.22314
 C1024 C 0.22953 0.46338 0.22833
 C1025 C 0.22294 0.46944 0.23924
 C1026 C 0.22805 0.48134 0.24486
 H1027 H 0.24231 0.48244 0.27134
 H1028 H 0.25166 0.46160 0.28126
 H1029 H 0.28951 0.46888 0.26099
 H1030 H 0.28012 0.48961 0.25093
 H1031 H 0.24435 0.51461 0.27516
 H1032 H 0.25340 0.53556 0.28516
 H1033 H 0.27726 0.51417 0.24670
 H1034 H 0.25769 0.51785 0.22860
 H1035 H 0.24824 0.53867 0.21871
 H1036 H 0.21039 0.53113 0.23888
 H1037 H 0.21987 0.51044 0.24891
 H1038 H 0.25560 0.48555 0.22464
 H1039 H 0.24653 0.46459 0.21468
 H1040 H 0.21378 0.46504 0.24333
 H1041 H 0.22283 0.48596 0.25326
 H1042 H 0.28628 0.53508 0.25668
 C1043 C 0.74501 1.00010 0.75508
 C1044 C 0.75465 1.00013 0.74537
 C1045 C 0.75999 1.01279 0.73940
 C1046 C 0.76009 0.98730 0.74002
 C1047 C 0.73958 0.98724 0.76041
 C1048 C 0.73965 1.01273 0.76105
 C1049 C 0.75135 1.02206 0.73297
 C1050 C 0.75659 1.03382 0.72712
 C1051 C 0.77052 1.03639 0.72761
 C1052 C 0.77916 1.02718 0.73398
 C1053 C 0.77394 1.01542 0.73980
 C1054 C 0.75518 0.98218 0.72782
 C1055 C 0.76046 0.97018 0.72257
 C1056 C 0.77074 0.96329 0.72945
 C1057 C 0.77560 0.96835 0.74169
 C1058 C 0.77025 0.98030 0.74700
 C1059 C 0.74454 0.98201 0.77257
 C1060 C 0.73927 0.96999 0.77780
 C1061 C 0.72894 0.96317 0.77095
 C1062 C 0.72400 0.96835 0.75877
 C1063 C 0.72934 0.98032 0.75348
 C1064 C 0.74832 1.02208 0.76730
 C1065 C 0.74309 1.03390 0.77300
 C1066 C 0.72916 1.03644 0.77256
 C1067 C 0.72049 1.02712 0.76642
 C1068 C 0.72569 1.01530 0.76074
 H1069 H 0.74058 1.02011 0.73240
 H1070 H 0.74982 1.04086 0.72217
 H1071 H 0.78994 1.02907 0.73444
 H1072 H 0.78077 1.00841 0.74471
 H1073 H 0.74729 0.98748 0.72239
 H1074 H 0.75661 0.96634 0.71310
 H1075 H 0.77413 0.98420 0.75642
 H1076 H 0.75248 0.98725 0.77797
 H1077 H 0.74317 0.96607 0.78722
 H1078 H 0.71595 0.96319 0.75344
 H1079 H 0.72541 0.98429 0.74410
 H1080 H 0.75909 1.02016 0.76782
 H1081 H 0.74988 1.04102 0.77779
 H1082 H 0.70969 1.02899 0.76604
 H1083 H 0.71884 1.00822 0.75599
 H1084 H 0.78359 0.96313 0.74706
 C1085 C 0.74514 0.50007 0.25497
 C1086 C 0.75473 0.50016 0.24523
 C1087 C 0.76014 0.51303 0.23990
 C1088 C 0.76009 0.48755 0.23921
 C1089 C 0.73981 0.48738 0.26090
 C1090 C 0.73965 0.51287 0.26033
 C1091 C 0.75529 0.51816 0.22765
 C1092 C 0.76060 0.53015 0.22237
 C1093 C 0.77087 0.53703 0.22925
 C1094 C 0.77570 0.53195 0.24152
 C1095 C 0.77031 0.52002 0.24686
 C1096 C 0.75143 0.47828 0.23286
 C1097 C 0.75668 0.46650 0.22706
 C1098 C 0.77061 0.46396 0.22753
 C1099 C 0.77926 0.47320 0.23380
 C1100 C 0.77404 0.48497 0.23956
 C1101 C 0.74848 0.47805 0.26720
 C1102 C 0.74325 0.46622 0.27295
 C1103 C 0.72933 0.46365 0.27247
 C1104 C 0.72066 0.47294 0.26625
 C1105 C 0.72586 0.48476 0.26054
 C1106 C 0.74459 0.51805 0.27250
 C1107 C 0.73931 0.53006 0.27772
 C1108 C 0.72898 0.53688 0.27085
 C1109 C 0.72406 0.53175 0.25866
 C1110 C 0.72941 0.51979 0.25339
 H1111 H 0.74741 0.51287 0.22222
 H1112 H 0.75679 0.53398 0.21288
 H1113 H 0.78369 0.53715 0.24688
 H1114 H 0.77418 0.51611 0.25630
 H1115 H 0.74067 0.48021 0.23232
 H1116 H 0.74990 0.45943 0.22219
 H1117 H 0.78088 0.49200 0.24441
 H1118 H 0.75924 0.47999 0.26776
 H1119 H 0.75004 0.45912 0.27780
 H1120 H 0.70987 0.47106 0.26583
 H1121 H 0.71900 0.49182 0.25574
 H1122 H 0.75253 0.51280 0.27790
 H1123 H 0.74319 0.53396 0.28714
 H1124 H 0.71602 0.53692 0.25332
 H1125 H 0.72550 0.51584 0.24400
 H1126 H 0.79005 0.47132 0.23421
 C1127 C 0.24536 -0.00048 0.74560
 C1128 C 0.25531 -0.00053 0.75496
 C1129 C 0.26057 -0.01331 0.76058
 C1130 C 0.26081 0.01217 0.76063
 C1131 C 0.24011 0.01230 0.73995
 C1132 C 0.23987 -0.01319 0.73994
 C1133 C 0.25384 -0.01958 0.77134
 C1134 C 0.25898 -0.03150 0.77694
 C1135 C 0.27087 -0.03721 0.77181
 C1136 C 0.27753 -0.03104 0.76098
 C1137 C 0.27241 -0.01912 0.75540
 C1138 C 0.25290 0.02013 0.76929
 C1139 C 0.25825 0.03191 0.77498
 C1140 C 0.27156 0.03579 0.77210
 C1141 C 0.27949 0.02785 0.76349
 C1142 C 0.27414 0.01609 0.75779
 C1143 C 0.24672 0.01843 0.72905
 C1144 C 0.24153 0.03030 0.72338
 C1145 C 0.22971 0.03610 0.72860
 C1146 C 0.22318 0.03006 0.73957
 C1147 C 0.22834 0.01818 0.74521
 C1148 C 0.24781 -0.02120 0.73135
 C1149 C 0.24245 -0.03297 0.72565
 C1150 C 0.22910 -0.03679 0.72844
 C1151 C 0.22117 -0.02883 0.73703
 C1152 C 0.22652 -0.01707 0.74273
 H1153 H 0.24469 -0.01517 0.77543
 H1154 H 0.25377 -0.03618 0.78533
 H1155 H 0.28672 -0.03540 0.75693
 H1156 H 0.27766 -0.01442 0.74705
 H1157 H 0.24266 0.01713 0.77175
 H1158 H 0.25205 0.03793 0.78167
 H1159 H 0.28040 0.01007 0.75116
 H1160 H 0.25580 0.01395 0.72489
 H1161 H 0.24664 0.03488 0.71488
 H1162 H 0.21404 0.03447 0.74368
 H1163 H 0.22317 0.01357 0.75366
 H1164 H 0.25807 -0.01824 0.72895
 H1165 H 0.24867 -0.03902 0.71899
 H1166 H 0.21082 -0.03168 0.73924
 H1167 H 0.22025 -0.01102 0.74933
 H1168 H 0.28981 0.03074 0.76122
 C1169 C 0.25483 0.24520 1.00019
 C1170 C 0.24506 0.25482 1.00020
 C1171 C 0.23972 0.26028 1.01298
 C1172 C 0.23903 0.26015 0.98762
 C1173 C 0.26084 0.23986 0.98760
 C1174 C 0.26019 0.23974 1.01296
 C1175 C 0.22755 0.25527 1.01823
 C1176 C 0.22231 0.26056 1.03018
 C1177 C 0.22916 0.27096 1.03690
 C1178 C 0.24135 0.27594 1.03170
 C1179 C 0.24665 0.27058 1.01980
 C1180 C 0.23271 0.25144 0.97837
 C1181 C 0.22694 0.25664 0.96660
 C1182 C 0.22737 0.27056 0.96402
 C1183 C 0.23359 0.27927 0.97323
 C1184 C 0.23934 0.27410 0.98499
 C1185 C 0.26717 0.24855 0.97833
 C1186 C 0.27296 0.24333 0.96658
 C1187 C 0.27251 0.22940 0.96404
 C1188 C 0.26627 0.22072 0.97328
 C1189 C 0.26051 0.22591 0.98502
 C1190 C 0.27237 0.24475 1.01817
 C1191 C 0.27762 0.23948 1.03013
 C1192 C 0.27077 0.22910 1.03689
 C1193 C 0.25857 0.22411 1.03173
 C1194 C 0.25327 0.22945 1.01981
 H1195 H 0.22215 0.24728 1.01307
 H1196 H 0.21288 0.25663 1.03413
 H1197 H 0.24669 0.28403 1.03678
 H1198 H 0.25604 0.27455 1.01580
 H1199 H 0.23220 0.24067 0.98033
 H1200 H 0.22210 0.24982 0.95956
 H1201 H 0.24415 0.28097 0.99199
 H1202 H 0.26770 0.25932 0.98025
 H1203 H 0.27782 0.25013 0.95952
 H1204 H 0.26587 0.20993 0.97141
 H1205 H 0.25569 0.21905 0.99204
 H1206 H 0.27777 0.25274 1.01297
 H1207 H 0.28706 0.24341 1.03405
 H1208 H 0.25324 0.21603 1.03685
 H1209 H 0.24387 0.22549 1.01585
 H1210 H 0.23398 0.29005 0.97132
 C1211 C 0.25478 0.74509 0.49963
 C1212 C 0.24536 0.75505 0.49965
 C1213 C 0.23967 0.76028 0.51236
 C1214 C 0.23967 0.76054 0.48700
 C1215 C 0.26047 0.73986 0.48693
 C1216 C 0.26046 0.73960 0.51229
 C1217 C 0.22886 0.75353 0.51856
 C1218 C 0.22317 0.75865 0.53039
 C1219 C 0.22828 0.77054 0.53611
 C1220 C 0.23915 0.77724 0.52999
 C1221 C 0.24481 0.77215 0.51815
 C1222 C 0.23118 0.75254 0.47895
 C1223 C 0.22546 0.75788 0.46721
 C1224 C 0.22813 0.77128 0.46348
 C1225 C 0.23656 0.77930 0.47149
 C1226 C 0.24230 0.77397 0.48321
 C1227 C 0.27127 0.74663 0.48071
 C1228 C 0.27696 0.74149 0.46889
 C1229 C 0.27187 0.72957 0.46321
 C1230 C 0.26101 0.72287 0.46934
 C1231 C 0.25535 0.72798 0.48116
 C1232 C 0.26899 0.74758 0.52032
 C1233 C 0.27463 0.74226 0.53211
 C1234 C 0.27186 0.72890 0.53592
 C1235 C 0.26338 0.72090 0.52792
 C1236 C 0.25772 0.72621 0.51615
 H1237 H 0.22478 0.74437 0.51415
 H1238 H 0.21475 0.75340 0.53502
 H1239 H 0.24318 0.78645 0.53434
 H1240 H 0.25320 0.77743 0.51352
 H1241 H 0.22887 0.74223 0.48185
 H1242 H 0.21890 0.75160 0.46112
 H1243 H 0.24880 0.78029 0.48930
 H1244 H 0.27532 0.75580 0.48509
 H1245 H 0.28537 0.74674 0.46424
 H1246 H 0.25700 0.71365 0.46501
 H1247 H 0.24697 0.72269 0.48581
 H1248 H 0.27137 0.75786 0.51737
 H1249 H 0.28122 0.74853 0.53818
 H1250 H 0.26119 0.71054 0.53075
 H1251 H 0.25119 0.71990 0.51008
 H1252 H 0.23867 0.78969 0.46871
 C1253 C 0.24532 0.74541 -0.00018
 C1254 C 0.25525 0.75486 -0.00028
 C1255 C 0.26049 0.76051 -0.01303
 C1256 C 0.26071 0.76059 0.01235
 C1257 C 0.24010 0.73973 0.01257
 C1258 C 0.23981 0.73969 -0.01280
 C1259 C 0.27237 0.75534 -0.01880
 C1260 C 0.27751 0.76100 -0.03064
 C1261 C 0.27086 0.77189 -0.03679
 C1262 C 0.25895 0.77702 -0.03110
 C1263 C 0.25378 0.77134 -0.01927
 C1264 C 0.27407 0.75786 0.01624
 C1265 C 0.27932 0.76351 0.02802
 C1266 C 0.27129 0.77199 0.03599
 C1267 C 0.25795 0.77477 0.03214
 C1268 C 0.25269 0.76913 0.02034
 C1269 C 0.22822 0.74485 0.01834
 C1270 C 0.22309 0.73916 0.03017
 C1271 C 0.22977 0.72828 0.03630
 C1272 C 0.24170 0.72319 0.03061
 C1273 C 0.24685 0.72891 0.01878
 C1274 C 0.22643 0.74241 -0.01662
 C1275 C 0.22108 0.73667 -0.02831
 C1276 C 0.22905 0.72813 -0.03627
 C1277 C 0.24242 0.72537 -0.03250
 C1278 C 0.24777 0.73110 -0.02079
 H1279 H 0.27763 0.74695 -0.01414
 H1280 H 0.28672 0.75695 -0.03496
 H1281 H 0.25373 0.78545 -0.03575
 H1282 H 0.24462 0.77544 -0.01489
 H1283 H 0.28040 0.75131 0.01020
 H1284 H 0.28967 0.76132 0.03090
 H1285 H 0.24242 0.77150 0.01737
 H1286 H 0.22293 0.75324 0.01369
 H1287 H 0.21387 0.74318 0.03449
 H1288 H 0.24694 0.71476 0.03524
 H1289 H 0.25601 0.72484 0.01439
 H1290 H 0.22013 0.74900 -0.01058
 H1291 H 0.21071 0.73885 -0.03112
 H1292 H 0.24867 0.71873 -0.03855
 H1293 H 0.25806 0.72873 -0.01787
 H1294 H 0.25165 0.78136 0.03819
 C1295 C 0.24505 0.24505 0.50037
 C1296 C 0.25478 0.25475 0.50033
 C1297 C 0.26059 0.26010 0.48763
 C1298 C 0.26012 0.26059 0.51298
 C1299 C 0.23969 0.23924 0.51307
 C1300 C 0.23921 0.23973 0.48771
 C1301 C 0.26741 0.25156 0.47859
 C1302 C 0.27312 0.25686 0.46682
 C1303 C 0.27207 0.27071 0.46401
 C1304 C 0.26528 0.27924 0.47300
 C1305 C 0.25963 0.27398 0.48477
 C1306 C 0.27400 0.25967 0.51580
 C1307 C 0.27924 0.26534 0.52756
 C1308 C 0.27069 0.27209 0.53654
 C1309 C 0.25684 0.27310 0.53376
 C1310 C 0.25157 0.26739 0.52201
 C1311 C 0.22582 0.24018 0.51589
 C1312 C 0.22054 0.23448 0.52765
 C1313 C 0.22906 0.22767 0.53664
 C1314 C 0.24292 0.22665 0.53387
 C1315 C 0.24822 0.23240 0.52213
 C1316 C 0.23242 0.24832 0.47867
 C1317 C 0.22676 0.24308 0.46687
 C1318 C 0.22781 0.22924 0.46405
 C1319 C 0.23456 0.22066 0.47305
 C1320 C 0.24017 0.22587 0.48485
 H1321 H 0.26843 0.24087 0.48074
 H1322 H 0.27841 0.25018 0.45997
 H1323 H 0.26440 0.28997 0.47092
 H1324 H 0.25443 0.28070 0.49165
 H1325 H 0.28074 0.25449 0.50892
 H1326 H 0.28997 0.26450 0.52962
 H1327 H 0.24087 0.26837 0.51988
 H1328 H 0.21910 0.24539 0.50902
 H1329 H 0.20981 0.23534 0.52970
 H1330 H 0.24959 0.22135 0.54073
 H1331 H 0.25892 0.23141 0.52001
 H1332 H 0.23142 0.25901 0.48083
 H1333 H 0.22150 0.24979 0.46001
 H1334 H 0.23543 0.20994 0.47096
 H1335 H 0.24535 0.21912 0.49173
 H1336 H 0.25015 0.27837 0.54062
 C1337 C 0.75488 0.74522 1.00003
 C1338 C 0.74514 0.75487 1.00004
 C1339 C 0.73979 0.76031 1.01282
 C1340 C 0.73913 0.76022 0.98746
 C1341 C 0.76091 0.73988 0.98745
 C1342 C 0.76021 0.73975 1.01281
 C1343 C 0.72763 0.75527 1.01807
 C1344 C 0.72239 0.76052 1.03003
 C1345 C 0.72923 0.77091 1.03678
 C1346 C 0.74141 0.77592 1.03159
 C1347 C 0.74671 0.77059 1.01967
 C1348 C 0.73283 0.75154 0.97819
 C1349 C 0.72704 0.75676 0.96644
 C1350 C 0.72744 0.77069 0.96390
 C1351 C 0.73364 0.77938 0.97314
 C1352 C 0.73941 0.77419 0.98488
 C1353 C 0.76726 0.74857 0.97819
 C1354 C 0.77309 0.74335 0.96646
 C1355 C 0.77266 0.72943 0.96392
 C1356 C 0.76640 0.72074 0.97314
 C1357 C 0.76060 0.72593 0.98487
 C1358 C 0.77234 0.74479 1.01808
 C1359 C 0.77753 0.73955 1.03008
 C1360 C 0.77065 0.72917 1.03682
 C1361 C 0.75849 0.72415 1.03160
 C1362 C 0.75325 0.72946 1.01964
 H1363 H 0.72223 0.74729 1.01289
 H1364 H 0.71296 0.75657 1.03397
 H1365 H 0.74674 0.78400 1.03669
 H1366 H 0.75610 0.77458 1.01568
 H1367 H 0.73233 0.74076 0.98011
 H1368 H 0.72221 0.74995 0.95937
 H1369 H 0.74420 0.78105 0.99190
 H1370 H 0.76779 0.75934 0.98012
 H1371 H 0.77797 0.75016 0.95942
 H1372 H 0.76601 0.70995 0.97127
 H1373 H 0.75577 0.71906 0.99187
 H1374 H 0.77775 0.75277 1.01290
 H1375 H 0.78693 0.74350 1.03405
 H1376 H 0.75314 0.71608 1.03671
 H1377 H 0.74387 0.72548 1.01563
 H1378 H 0.73400 0.79018 0.97126
 C1379 C 0.75464 0.24482 0.49985
 C1380 C 0.74525 0.25480 0.49992
 C1381 C 0.73961 0.26025 0.51262
 C1382 C 0.73951 0.26008 0.48725
 C1383 C 0.76029 0.23937 0.48715
 C1384 C 0.76038 0.23953 0.51252
 C1385 C 0.73109 0.25226 0.52066
 C1386 C 0.72540 0.25758 0.53242
 C1387 C 0.72812 0.27095 0.53619
 C1388 C 0.73661 0.27895 0.52818
 C1389 C 0.74231 0.27364 0.51644
 C1390 C 0.72871 0.25331 0.48106
 C1391 C 0.72303 0.25844 0.46922
 C1392 C 0.72813 0.27036 0.46351
 C1393 C 0.73898 0.27707 0.46962
 C1394 C 0.74464 0.27196 0.48147
 C1395 C 0.76878 0.24739 0.47909
 C1396 C 0.77448 0.24208 0.46734
 C1397 C 0.77182 0.22868 0.46359
 C1398 C 0.76338 0.22065 0.47162
 C1399 C 0.75766 0.22596 0.48335
 C1400 C 0.77118 0.24629 0.51871
 C1401 C 0.77684 0.24118 0.53056
 C1402 C 0.77171 0.22929 0.53630
 C1403 C 0.76085 0.22259 0.53020
 C1404 C 0.75521 0.22768 0.51833
 H1405 H 0.72873 0.24197 0.51774
 H1406 H 0.71881 0.25130 0.53850
 H1407 H 0.73877 0.28932 0.53098
 H1408 H 0.74884 0.27997 0.51037
 H1409 H 0.72466 0.24414 0.48545
 H1410 H 0.71463 0.25319 0.46458
 H1411 H 0.75302 0.27724 0.48610
 H1412 H 0.77109 0.25769 0.48199
 H1413 H 0.78104 0.24837 0.46124
 H1414 H 0.76127 0.21027 0.46884
 H1415 H 0.75117 0.21961 0.48945
 H1416 H 0.77526 0.25545 0.51429
 H1417 H 0.78526 0.24642 0.53519
 H1418 H 0.75681 0.21339 0.53457
 H1419 H 0.74682 0.22241 0.51371
 H1420 H 0.74300 0.28628 0.46527
 C1421 C 0.74534 0.24517 -0.00029
 C1422 C 0.75478 0.25510 -0.00032
 C1423 C 0.76048 0.26035 -0.01303
 C1424 C 0.76047 0.26057 0.01234
 C1425 C 0.73966 0.23992 0.01244
 C1426 C 0.73965 0.23970 -0.01295
 C1427 C 0.77130 0.25361 -0.01922
 C1428 C 0.77698 0.25876 -0.03106
 C1429 C 0.77186 0.27066 -0.03679
 C1430 C 0.76098 0.27734 -0.03068
 C1431 C 0.75532 0.27222 -0.01883
 C1432 C 0.76901 0.25257 0.02037
 C1433 C 0.77467 0.25787 0.03214
 C1434 C 0.77190 0.27123 0.03594
 C1435 C 0.76340 0.27924 0.02794
 C1436 C 0.75773 0.27394 0.01618
 C1437 C 0.72888 0.24669 0.01867
 C1438 C 0.72324 0.24156 0.03054
 C1439 C 0.72834 0.22963 0.03624
 C1440 C 0.73918 0.22293 0.03009
 C1441 C 0.74481 0.22803 0.01822
 C1442 C 0.73111 0.24769 -0.02098
 C1443 C 0.72542 0.24237 -0.03273
 C1444 C 0.72817 0.22899 -0.03651
 C1445 C 0.73667 0.22100 -0.02851
 C1446 C 0.74238 0.22631 -0.01678
 H1447 H 0.77539 0.24446 -0.01481
 H1448 H 0.78542 0.25352 -0.03568
 H1449 H 0.75694 0.28655 -0.03503
 H1450 H 0.74693 0.27750 -0.01420
 H1451 H 0.77138 0.24229 0.01744
 H1452 H 0.78127 0.25160 0.03822
 H1453 H 0.75118 0.28026 0.01012
 H1454 H 0.72481 0.25587 0.01429
 H1455 H 0.71484 0.24682 0.03520
 H1456 H 0.74322 0.21371 0.03442
 H1457 H 0.75317 0.22274 0.01356
 H1458 H 0.72875 0.25797 -0.01806
 H1459 H 0.71881 0.24864 -0.03881
 H1460 H 0.73885 0.21064 -0.03132
 H1461 H 0.74893 0.22000 -0.01071
 H1462 H 0.76121 0.28960 0.03076
 C1463 C 0.74524 0.74516 0.50012
 C1464 C 0.75467 0.75510 0.50009
 C1465 C 0.76037 0.76035 0.48737
 C1466 C 0.76036 0.76057 0.51274
 C1467 C 0.73952 0.73992 0.51283
 C1468 C 0.73957 0.73969 0.48746
 C1469 C 0.77119 0.75359 0.48118
 C1470 C 0.77687 0.75872 0.46934
 C1471 C 0.77176 0.77063 0.46361
 C1472 C 0.76090 0.77733 0.46972
 C1473 C 0.75523 0.77223 0.48157
 C1474 C 0.76885 0.75256 0.52080
 C1475 C 0.77454 0.75787 0.53255
 C1476 C 0.77185 0.77126 0.53629
 C1477 C 0.76340 0.77929 0.52827
 C1478 C 0.75770 0.77398 0.51653
 C1479 C 0.72872 0.74670 0.51902
 C1480 C 0.72301 0.74156 0.53085
 C1481 C 0.72809 0.72964 0.53657
 C1482 C 0.73895 0.72292 0.53046
 C1483 C 0.74463 0.72803 0.51862
 C1484 C 0.73104 0.74769 0.47941
 C1485 C 0.72539 0.74238 0.46764
 C1486 C 0.72815 0.72902 0.46386
 C1487 C 0.73663 0.72101 0.47188
 C1488 C 0.74229 0.72631 0.48363
 H1489 H 0.77526 0.74443 0.48559
 H1490 H 0.78529 0.75347 0.46471
 H1491 H 0.75686 0.78654 0.46537
 H1492 H 0.74685 0.77751 0.48620
 H1493 H 0.77117 0.74226 0.51791
 H1494 H 0.78110 0.75159 0.53865
 H1495 H 0.75119 0.78032 0.51044
 H1496 H 0.72467 0.75588 0.51461
 H1497 H 0.71460 0.74683 0.53547
 H1498 H 0.74295 0.71369 0.53481
 H1499 H 0.75301 0.72273 0.51400
 H1500 H 0.72867 0.75797 0.48234
 H1501 H 0.71880 0.74866 0.46155
 H1502 H 0.73881 0.71065 0.46907
 H1503 H 0.74883 0.71999 0.48971
 H1504 H 0.76127 0.78967 0.53105
 C1505 C 1.00009 0.25526 0.24527
 C1506 C 0.99997 0.24528 0.25462
 C1507 C 1.01262 0.23974 0.26031
 C1508 C 0.98716 0.24003 0.26020
 C1509 C 0.98744 0.26079 0.23956
 C1510 C 1.01291 0.26048 0.23968
 C1511 C 1.01652 0.22641 0.25744
 C1512 C 1.02829 0.22104 0.26311
 C1513 C 1.03623 0.22894 0.27173
 C1514 C 1.03238 0.24226 0.27462
 C1515 C 1.02059 0.24763 0.26896
 C1516 C 0.98137 0.22819 0.25500
 C1517 C 0.96950 0.22300 0.26063
 C1518 C 0.96337 0.22957 0.27151
 C1519 C 0.96907 0.24145 0.27667
 C1520 C 0.98094 0.24667 0.27103
 C1521 C 0.98357 0.27415 0.24237
 C1522 C 0.97180 0.27951 0.23668
 C1523 C 0.96383 0.27158 0.22812
 C1524 C 0.96766 0.25825 0.22528
 C1525 C 0.97944 0.25288 0.23095
 C1526 C 1.01876 0.27228 0.24490
 C1527 C 1.03066 0.27742 0.23929
 C1528 C 1.03676 0.27084 0.22839
 C1529 C 1.03100 0.25898 0.22322
 C1530 C 1.01911 0.25382 0.22886
 H1531 H 1.01050 0.22019 0.25079
 H1532 H 1.03118 0.21072 0.26083
 H1533 H 1.03842 0.24844 0.28131
 H1534 H 1.01761 0.25788 0.27142
 H1535 H 0.98603 0.22299 0.24662
 H1536 H 0.96517 0.21380 0.25656
 H1537 H 0.98535 0.25580 0.27515
 H1538 H 0.98962 0.28039 0.24897
 H1539 H 0.96894 0.28985 0.23893
 H1540 H 0.96160 0.25204 0.21862
 H1541 H 0.98241 0.24262 0.22853
 H1542 H 1.01412 0.27750 0.25329
 H1543 H 1.03504 0.28659 0.24337
 H1544 H 1.03562 0.25382 0.21478
 H1545 H 1.01466 0.24471 0.22472
 H1546 H 0.96443 0.24660 0.28512
 C1547 C 0.49998 0.25498 0.74540
 C1548 C 0.49992 0.24504 0.75479
 C1549 C 0.51262 0.23952 0.76044
 C1550 C 0.48713 0.23978 0.76044
 C1551 C 0.48728 0.26049 0.73974
 C1552 C 0.51276 0.26022 0.73973
 C1553 C 0.51647 0.22616 0.75764
 C1554 C 0.52826 0.22079 0.76328
 C1555 C 0.53627 0.22872 0.77181
 C1556 C 0.53247 0.24207 0.77464
 C1557 C 0.52067 0.24744 0.76900
 C1558 C 0.48133 0.22792 0.75528
 C1559 C 0.46948 0.22274 0.76094
 C1560 C 0.46335 0.22933 0.77182
 C1561 C 0.46907 0.24123 0.77694
 C1562 C 0.48092 0.24645 0.77126
 C1563 C 0.48342 0.27386 0.74251
 C1564 C 0.47163 0.27921 0.73686
 C1565 C 0.46363 0.27126 0.72835
 C1566 C 0.46743 0.25790 0.72556
 C1567 C 0.47924 0.25255 0.73120
 C1568 C 0.51860 0.27205 0.74490
 C1569 C 0.53048 0.27721 0.73924
 C1570 C 0.53657 0.27060 0.72835
 C1571 C 0.53080 0.25874 0.72321
 C1572 C 0.51893 0.25357 0.72889
 H1573 H 0.51039 0.21990 0.75106
 H1574 H 0.53110 0.21045 0.76105
 H1575 H 0.53856 0.24828 0.78126
 H1576 H 0.51772 0.25771 0.77141
 H1577 H 0.48598 0.22271 0.74690
 H1578 H 0.46514 0.21353 0.75691
 H1579 H 0.48533 0.25559 0.77535
 H1580 H 0.48951 0.28013 0.74907
 H1581 H 0.46879 0.28956 0.73906
 H1582 H 0.46134 0.25168 0.71895
 H1583 H 0.48218 0.24228 0.72881
 H1584 H 0.51398 0.27728 0.75329
 H1585 H 0.53485 0.28639 0.74329
 H1586 H 0.53541 0.25357 0.71476
 H1587 H 0.51448 0.24445 0.72478
 H1588 H 0.46443 0.24640 0.78537
 C1589 C -0.00017 0.24493 0.74520
 C1590 C -0.00017 0.25462 0.75485
 C1591 C -0.01301 0.26010 0.76013
 C1592 C 0.01247 0.26000 0.76080
 C1593 C 0.01247 0.23955 0.73923
 C1594 C -0.01300 0.23947 0.73988
 C1595 C -0.01991 0.27033 0.75315
 C1596 C -0.03186 0.27574 0.75841
 C1597 C -0.03702 0.27088 0.77063
 C1598 C -0.03023 0.26053 0.77752
 C1599 C -0.01824 0.25520 0.77231
 C1600 C 0.01503 0.27396 0.76043
 C1601 C 0.02680 0.27920 0.76617
 C1602 C 0.03609 0.27056 0.77244
 C1603 C 0.03357 0.25662 0.77292
 C1604 C 0.02180 0.25136 0.76715
 C1605 C 0.01503 0.22559 0.73957
 C1606 C 0.02679 0.22035 0.73379
 C1607 C 0.03607 0.22899 0.72753
 C1608 C 0.03354 0.24293 0.72707
 C1609 C 0.02178 0.24820 0.73287
 C1610 C -0.01995 0.22927 0.74686
 C1611 C -0.03190 0.22391 0.74157
 C1612 C -0.03701 0.22879 0.72934
 C1613 C -0.03016 0.23908 0.72245
 C1614 C -0.01817 0.24437 0.72768
 H1615 H -0.01594 0.27421 0.74374
 H1616 H -0.03700 0.28378 0.75303
 H1617 H -0.03415 0.25668 0.78696
 H1618 H -0.01302 0.24725 0.77775
 H1619 H 0.00798 0.28079 0.75559
 H1620 H 0.02866 0.29000 0.76575
 H1621 H 0.01989 0.24058 0.76771
 H1622 H 0.00798 0.21875 0.74440
 H1623 H 0.02865 0.20955 0.73420
 H1624 H 0.04063 0.24970 0.72218
 H1625 H 0.01986 0.25897 0.73231
 H1626 H -0.01602 0.22539 0.75628
 H1627 H -0.03708 0.21589 0.74694
 H1628 H -0.03404 0.24293 0.71298
 H1629 H -0.01290 0.25228 0.72224
 H1630 H 0.04067 0.24985 0.77780
 C1631 C 0.50013 0.24479 0.24532
 C1632 C 0.50020 0.25478 0.25464
 C1633 C 0.48751 0.26029 0.26032
 C1634 C 0.51298 0.26001 0.26025
 C1635 C 0.51282 0.23926 0.23964
 C1636 C 0.48734 0.23956 0.23972
 C1637 C 0.48362 0.27365 0.25752
 C1638 C 0.47185 0.27900 0.26320
 C1639 C 0.46388 0.27106 0.27178
 C1640 C 0.46773 0.25772 0.27462
 C1641 C 0.47951 0.25237 0.26895
 C1642 C 0.51881 0.27184 0.25503
 C1643 C 0.53071 0.27697 0.26064
 C1644 C 0.53682 0.27034 0.27152
 C1645 C 0.53107 0.25848 0.27669
 C1646 C 0.51919 0.25332 0.27106
 C1647 C 0.51665 0.22587 0.24239
 C1648 C 0.52841 0.22050 0.23669
 C1649 C 0.53642 0.22846 0.22817
 C1650 C 0.53263 0.24183 0.22539
 C1651 C 0.52086 0.24720 0.23107
 C1652 C 0.48148 0.22777 0.24496
 C1653 C 0.46957 0.22265 0.23937
 C1654 C 0.46347 0.22927 0.22847
 C1655 C 0.46924 0.24112 0.22328
 C1656 C 0.48115 0.24625 0.22889
 H1657 H 0.48967 0.27992 0.25091
 H1658 H 0.46898 0.28935 0.26096
 H1659 H 0.46168 0.25150 0.28129
 H1660 H 0.48249 0.24211 0.27138
 H1661 H 0.51416 0.27707 0.24664
 H1662 H 0.53508 0.28615 0.25656
 H1663 H 0.51475 0.24420 0.27519
 H1664 H 0.51057 0.21960 0.24895
 H1665 H 0.53123 0.21014 0.23888
 H1666 H 0.53872 0.24806 0.21876
 H1667 H 0.51793 0.25748 0.22868
 H1668 H 0.48612 0.22254 0.25336
 H1669 H 0.46517 0.21349 0.24346
 H1670 H 0.46462 0.24630 0.21484
 H1671 H 0.48560 0.25536 0.22475
 H1672 H 0.53570 0.25330 0.28513
 C1673 C 1.00002 0.75513 0.74539
 C1674 C 0.99993 0.74515 0.75475
 C1675 C 1.01261 0.73963 0.76041
 C1676 C 0.98714 0.73991 0.76038
 C1677 C 0.98735 0.76064 0.73970
 C1678 C 1.01283 0.76035 0.73977
 C1679 C 1.01651 0.72629 0.75756
 C1680 C 1.02833 0.72095 0.76317
 C1681 C 1.03632 0.72890 0.77169
 C1682 C 1.03247 0.74222 0.77458
 C1683 C 1.02063 0.74755 0.76899
 C1684 C 0.98130 0.72808 0.75521
 C1685 C 0.96945 0.72290 0.76088
 C1686 C 0.96336 0.72949 0.77179
 C1687 C 0.96911 0.74136 0.77692
 C1688 C 0.98096 0.74656 0.77123
 C1689 C 0.98347 0.77400 0.74248
 C1690 C 0.97168 0.77933 0.73681
 C1691 C 0.96369 0.77137 0.72828
 C1692 C 0.96752 0.75803 0.72548
 C1693 C 0.97933 0.75269 0.73114
 C1694 C 1.01871 0.77215 0.74496
 C1695 C 1.03062 0.77727 0.73934
 C1696 C 1.03671 0.77064 0.72845
 C1697 C 1.03093 0.75879 0.72332
 C1698 C 1.01903 0.75365 0.72896
 H1699 H 1.01044 0.72003 0.75098
 H1700 H 1.03120 0.71063 0.76090
 H1701 H 1.03855 0.74843 0.78121
 H1702 H 1.01765 0.75780 0.77143
 H1703 H 0.98593 0.72287 0.74681
 H1704 H 0.96508 0.71372 0.75683
 H1705 H 0.98540 0.75569 0.77533
 H1706 H 0.98953 0.78027 0.74905
 H1707 H 0.96881 0.78967 0.73902
 H1708 H 0.96145 0.75180 0.71886
 H1709 H 0.98230 0.74242 0.72874
 H1710 H 1.01407 0.77739 0.75334
 H1711 H 1.03501 0.78643 0.74340
 H1712 H 1.03554 0.75360 0.71488
 H1713 H 1.01457 0.74454 0.72486
 H1714 H 0.96451 0.74652 0.78538
 C1715 C 0.50014 0.75504 0.24540
 C1716 C 0.50002 0.74506 0.25474
 C1717 C 0.51268 0.73952 0.26043
 C1718 C 0.48720 0.73984 0.26035
 C1719 C 0.48748 0.76059 0.23971
 C1720 C 0.51294 0.76028 0.23979
 C1721 C 0.51658 0.72618 0.25757
 C1722 C 0.52837 0.72083 0.26322
 C1723 C 0.53634 0.72875 0.27179
 C1724 C 0.53248 0.74207 0.27468
 C1725 C 0.52068 0.74742 0.26905
 C1726 C 0.48136 0.72802 0.25516
 C1727 C 0.46944 0.72291 0.26076
 C1728 C 0.46331 0.72954 0.27161
 C1729 C 0.46907 0.74140 0.27676
 C1730 C 0.48097 0.74655 0.27113
 C1731 C 0.48363 0.77395 0.24252
 C1732 C 0.47187 0.77933 0.23683
 C1733 C 0.46390 0.77141 0.22826
 C1734 C 0.46770 0.75807 0.22543
 C1735 C 0.47948 0.75268 0.23110
 C1736 C 0.51879 0.77209 0.24500
 C1737 C 0.53065 0.77727 0.23934
 C1738 C 0.53672 0.77070 0.22841
 C1739 C 0.53096 0.75885 0.22324
 C1740 C 0.51911 0.75365 0.22892
 H1741 H 0.51053 0.71994 0.25096
 H1742 H 0.53125 0.71050 0.26094
 H1743 H 0.53855 0.74827 0.28133
 H1744 H 0.51770 0.75767 0.27149
 H1745 H 0.48602 0.72278 0.24680
 H1746 H 0.46507 0.71373 0.25670
 H1747 H 0.48542 0.75567 0.27524
 H1748 H 0.48969 0.78018 0.24913
 H1749 H 0.46903 0.78967 0.23907
 H1750 H 0.46164 0.75187 0.21877
 H1751 H 0.48243 0.74242 0.22869
 H1752 H 0.51416 0.77728 0.25341
 H1753 H 0.53502 0.78644 0.24341
 H1754 H 0.53555 0.75372 0.21477
 H1755 H 0.51465 0.74455 0.22479
 H1756 H 0.46443 0.74660 0.28517
 C1757 C -0.00033 0.74520 0.24508
 C1758 C -0.00034 0.75486 0.25476
 C1759 C -0.01317 0.76031 0.26008
 C1760 C 0.01231 0.76024 0.26069
 C1761 C 0.01231 0.73986 0.23910
 C1762 C -0.01316 0.73971 0.23979
 C1763 C -0.02011 0.77053 0.25312
 C1764 C -0.03207 0.77589 0.25840
 C1765 C -0.03720 0.77099 0.27062
 C1766 C -0.03036 0.76067 0.27749
 C1767 C -0.01836 0.75538 0.27227
 C1768 C 0.01486 0.77421 0.26033
 C1769 C 0.02665 0.77944 0.26603
 C1770 C 0.03596 0.77079 0.27226
 C1771 C 0.03345 0.75686 0.27273
 C1772 C 0.02165 0.75160 0.26700
 C1773 C 0.01493 0.72591 0.23947
 C1774 C 0.02671 0.72071 0.23371
 C1775 C 0.03594 0.72938 0.22741
 C1776 C 0.03336 0.74330 0.22692
 C1777 C 0.02157 0.74853 0.23271
 C1778 C -0.02005 0.72948 0.24677
 C1779 C -0.03200 0.72409 0.24150
 C1780 C -0.03715 0.72897 0.22929
 C1781 C -0.03035 0.73928 0.22239
 C1782 C -0.01836 0.74461 0.22760
 H1783 H -0.01617 0.77443 0.24371
 H1784 H -0.03724 0.78392 0.25305
 H1785 H -0.03424 0.75681 0.28694
 H1786 H -0.01310 0.74746 0.27769
 H1787 H 0.00778 0.78104 0.25552
 H1788 H 0.02850 0.79024 0.26561
 H1789 H 0.01975 0.74082 0.26756
 H1790 H 0.00792 0.71906 0.24433
 H1791 H 0.02861 0.70992 0.23414
 H1792 H 0.04041 0.75009 0.22201
 H1793 H 0.01961 0.75930 0.23214
 H1794 H -0.01608 0.72560 0.25618
 H1795 H -0.03714 0.71605 0.24688
 H1796 H -0.03426 0.74312 0.21294
 H1797 H -0.01313 0.75253 0.22216
 H1798 H 0.04057 0.75008 0.27757
 C1799 C 0.49996 0.74548 0.74538
 C1800 C 0.49992 0.75511 0.75510
 C1801 C 0.48725 0.76044 0.76106
 C1802 C 0.51275 0.76059 0.76043
 C1803 C 0.51283 0.74006 0.74007
 C1804 C 0.48734 0.74009 0.73941
 C1805 C 0.48465 0.77440 0.76075
 C1806 C 0.47284 0.77960 0.76647
 C1807 C 0.46356 0.77091 0.77266
 C1808 C 0.46611 0.75698 0.77309
 C1809 C 0.47793 0.75176 0.76734
 C1810 C 0.51967 0.77081 0.75347
 C1811 C 0.53165 0.77615 0.75872
 C1812 C 0.53682 0.77121 0.77090
 C1813 C 0.53000 0.76089 0.77778
 C1814 C 0.51798 0.75563 0.77259
 C1815 C 0.51976 0.72983 0.74702
 C1816 C 0.53171 0.72445 0.74172
 C1817 C 0.53684 0.72935 0.72950
 C1818 C 0.53002 0.73970 0.72265
 C1819 C 0.51802 0.74500 0.72790
 C1820 C 0.48480 0.72612 0.73976
 C1821 C 0.47305 0.72087 0.73399
 C1822 C 0.46375 0.72949 0.72772
 C1823 C 0.46624 0.74344 0.72726
 C1824 C 0.47800 0.74872 0.73306
 H1825 H 0.49171 0.78127 0.75597
 H1826 H 0.47096 0.79039 0.76608
 H1827 H 0.45902 0.75017 0.77791
 H1828 H 0.47987 0.74099 0.76787
 H1829 H 0.51570 0.77474 0.74408
 H1830 H 0.53681 0.78418 0.75336
 H1831 H 0.51274 0.74769 0.77801
 H1832 H 0.51582 0.72592 0.75642
 H1833 H 0.53687 0.71640 0.74706
 H1834 H 0.53391 0.74357 0.71321
 H1835 H 0.51278 0.75294 0.72248
 H1836 H 0.49186 0.71930 0.74460
 H1837 H 0.47122 0.71007 0.73441
 H1838 H 0.45914 0.75020 0.72238
 H1839 H 0.47989 0.75950 0.73251
 H1840 H 0.53393 0.75700 0.78720
 C1841 C 0.40824 0.29846 0.29914
 C1842 C 0.40772 0.28294 0.29859
 C1843 C 0.41899 0.27723 0.29308
 C1844 C 0.42967 0.28759 0.28866
 C1845 C 0.43258 0.29604 0.30128
 C1846 C 0.42132 0.30175 0.30679
 C1847 C 0.41092 0.30293 0.28459
 C1848 C 0.42218 0.29722 0.27908
 C1849 C 0.39616 0.30466 0.30512
 C1850 C 0.38630 0.30979 0.31014
 C1851 C 0.44182 0.28152 0.28269
 C1852 C 0.45185 0.27668 0.27774
 H1853 H 0.39925 0.27696 0.30220
 H1854 H 0.42018 0.26636 0.29198
 H1855 H 0.44260 0.29739 0.30555
 H1856 H 0.42170 0.30798 0.31577
 H1857 H 0.40451 0.30992 0.27907
 H1858 H 0.42542 0.29934 0.26885
 C1859 C 0.40814 0.79895 0.79966
 C1860 C 0.40737 0.78344 0.79928
 C1861 C 0.41856 0.77749 0.79388
 C1862 C 0.42941 0.78763 0.78940
 C1863 C 0.43241 0.79617 0.80194
 C1864 C 0.42123 0.80212 0.80734
 C1865 C 0.41095 0.80324 0.78508
 C1866 C 0.42213 0.79729 0.77968
 C1867 C 0.39610 0.80536 0.80549
 C1868 C 0.38621 0.81055 0.81037
 C1869 C 0.44148 0.78133 0.78353
 C1870 C 0.45149 0.77641 0.77862
 H1871 H 0.39881 0.77764 0.80297
 H1872 H 0.41959 0.76659 0.79295
 H1873 H 0.44243 0.79739 0.80625
 H1874 H 0.42167 0.80844 0.81626
 H1875 H 0.40471 0.81032 0.77948
 H1876 H 0.42548 0.79928 0.76946
 C1877 C -0.09202 0.29888 0.79847
 C1878 C -0.09271 0.28337 0.79782
 C1879 C -0.08164 0.27760 0.79201
 C1880 C -0.07097 0.28789 0.78742
 C1881 C -0.06768 0.29622 0.80004
 C1882 C -0.07874 0.30200 0.80585
 C1883 C -0.08963 0.30344 0.78389
 C1884 C -0.07856 0.29766 0.77808
 C1885 C -0.10392 0.30510 0.80472
 C1886 C -0.11371 0.31022 0.80985
 C1887 C -0.05900 0.28172 0.78124
 C1888 C -0.04905 0.27673 0.77630
 H1889 H -0.10114 0.27745 0.80160
 H1890 H -0.08060 0.26673 0.79079
 H1891 H -0.05755 0.29746 0.80407
 H1892 H -0.07809 0.30817 0.81485
 H1893 H -0.09608 0.31056 0.77859
 H1894 H -0.07554 0.29983 0.76780
 C1895 C -0.09203 0.79900 0.29870
 C1896 C -0.09279 0.78350 0.29804
 C1897 C -0.08177 0.77769 0.29215
 C1898 C -0.07109 0.78796 0.28752
 C1899 C -0.06770 0.79626 0.30013
 C1900 C -0.07871 0.80207 0.30601
 C1901 C -0.08972 0.80358 0.28411
 C1902 C -0.07871 0.79777 0.27823
 C1903 C -0.10387 0.80526 0.30504
 C1904 C -0.11361 0.81038 0.31024
 C1905 C -0.05918 0.78178 0.28127
 C1906 C -0.04923 0.77680 0.27631
 H1907 H -0.10123 0.77761 0.30184
 H1908 H -0.08079 0.76683 0.29089
 H1909 H -0.05754 0.79746 0.30409
 H1910 H -0.07798 0.80824 0.31501
 H1911 H -0.09619 0.81072 0.27886
 H1912 H -0.07575 0.79992 0.26792
 C1913 C 0.59196 0.70128 0.29903
 C1914 C 0.59205 0.71681 0.29939
 C1915 C 0.58078 0.72254 0.29390
 C1916 C 0.57053 0.71217 0.28859
 C1917 C 0.56752 0.70289 0.30062
 C1918 C 0.57878 0.69716 0.30611
 C1919 C 0.58980 0.69762 0.28418
 C1920 C 0.57854 0.70335 0.27869
 C1921 C 0.60406 0.69510 0.30499
 C1922 C 0.61395 0.69003 0.30999
 C1923 C 0.55839 0.71827 0.28265
 C1924 C 0.54837 0.72313 0.27772
 H1925 H 0.60023 0.72277 0.30359
 H1926 H 0.57930 0.73341 0.29342
 H1927 H 0.55743 0.70102 0.30452
 H1928 H 0.57834 0.69038 0.31470
 H1929 H 0.59653 0.69112 0.27846
 H1930 H 0.57562 0.70175 0.26828
 C1931 C 0.59178 0.20095 0.79909
 C1932 C 0.59321 0.21623 0.79665
 C1933 C 0.58197 0.22203 0.79116
 C1934 C 0.57041 0.21198 0.78864
 C1935 C 0.56783 0.20526 0.80234
 C1936 C 0.57906 0.19946 0.80783
 C1937 C 0.58787 0.19503 0.78536
 C1938 C 0.57664 0.20082 0.77987
 C1939 C 0.60385 0.19468 0.80503
 C1940 C 0.61374 0.18956 0.81000
 C1941 C 0.55830 0.21815 0.78269
 C1942 C 0.54829 0.22306 0.77775
 H1943 H 0.60224 0.22199 0.79903
 H1944 H 0.58137 0.23275 0.78885
 H1945 H 0.55805 0.20510 0.80731
 H1946 H 0.57890 0.19434 0.81750
 H1947 H 0.59344 0.18701 0.78037
 H1948 H 0.57259 0.19776 0.77018
 C1949 C 1.09170 0.70119 0.79919
 C1950 C 1.09049 0.69887 0.78396
 C1951 C 1.07931 0.70468 0.77839
 C1952 C 1.07043 0.71224 0.78859
 C1953 C 1.07995 0.72242 0.79537
 C1954 C 1.09114 0.71661 0.80095
 C1955 C 1.07835 0.69597 0.80511
 C1956 C 1.06717 0.70177 0.79954
 C1957 C 1.10371 0.69490 0.80523
 C1958 C 1.11352 0.68975 0.81029
 C1959 C 1.05836 0.71840 0.78258
 C1960 C 1.04836 0.72328 0.77762
 H1961 H 1.09779 0.69320 0.77806
 H1962 H 1.07703 0.70398 0.76772
 H1963 H 1.07807 0.73324 0.79578
 H1964 H 1.09885 0.72245 0.80612
 H1965 H 1.07773 0.68840 0.81302
 H1966 H 1.05698 0.69919 0.80269
 C1967 C 1.09181 0.20163 0.29918
 C1968 C 1.09351 0.20548 0.28430
 C1969 C 1.08224 0.21116 0.27877
 C1970 C 1.07037 0.21242 0.28866
 C1971 C 1.07603 0.22039 0.30065
 C1972 C 1.08731 0.21472 0.30618
 C1973 C 1.07936 0.19237 0.29957
 C1974 C 1.06809 0.19804 0.29405
 C1975 C 1.10391 0.19548 0.30515
 C1976 C 1.11380 0.19040 0.31013
 C1977 C 1.05824 0.21846 0.28267
 C1978 C 1.04823 0.22331 0.27770
 H1979 H 1.10275 0.20393 0.27862
 H1980 H 1.08182 0.21445 0.26835
 H1981 H 1.07157 0.22966 0.30448
 H1982 H 1.09252 0.21913 0.31474
 H1983 H 1.07938 0.18225 0.30385
 H1984 H 1.05846 0.19279 0.29360
 C1985 C 0.59175 0.29876 0.70087
 C1986 C 0.58930 0.28425 0.69593
 C1987 C 0.57817 0.27830 0.70146
 C1988 C 0.57057 0.28745 0.71139
 C1989 C 0.56740 0.30039 0.70342
 C1990 C 0.57852 0.30633 0.69789
 C1991 C 0.59236 0.29765 0.71627
 C1992 C 0.58123 0.29171 0.72180
 C1993 C 0.60372 0.30515 0.69488
 C1994 C 0.61354 0.31033 0.68987
 C1995 C 0.55855 0.28115 0.71736
 C1996 C 0.54858 0.27620 0.72234
 H1997 H 0.59576 0.27910 0.68874
 H1998 H 0.57509 0.26806 0.69900
 H1999 H 0.55729 0.30451 0.70220
 H2000 H 0.57795 0.31555 0.69197
 H2001 H 0.60079 0.30121 0.72230
 H2002 H 0.58014 0.29015 0.73256
 C2003 C 0.59192 0.79850 0.20069
 C2004 C 0.58758 0.80500 0.21403
 C2005 C 0.57643 0.79917 0.21961
 C2006 C 0.57070 0.78740 0.21131
 C2007 C 0.58260 0.77758 0.20951
 C2008 C 0.59376 0.78342 0.20392
 C2009 C 0.57934 0.79917 0.19166
 C2010 C 0.56818 0.79333 0.19725
 C2011 C 0.60391 0.80480 0.19468
 C2012 C 0.61376 0.80996 0.18969
 C2013 C 0.55867 0.78121 0.21736
 C2014 C 0.54871 0.77631 0.22238
 H2015 H 0.59283 0.81343 0.21870
 H2016 H 0.57213 0.80259 0.22907
 H2017 H 0.58228 0.76697 0.21235
 H2018 H 0.60300 0.77782 0.20198
 H2019 H 0.57921 0.80377 0.18173
 H2020 H 0.55851 0.79293 0.19210
 C2021 C 1.09170 0.29891 0.20044
 C2022 C 1.08417 0.30812 0.21035
 C2023 C 1.07309 0.30221 0.21600
 C2024 C 1.07062 0.28766 0.21118
 C2025 C 1.08386 0.28011 0.21412
 C2026 C 1.09495 0.28603 0.20847
 C2027 C 1.08098 0.29457 0.19013
 C2028 C 1.06990 0.28866 0.19577
 C2029 C 1.10364 0.30526 0.19439
 C2030 C 1.11350 0.31041 0.18942
 C2031 C 1.05865 0.28140 0.21729
 C2032 C 1.04873 0.27646 0.22234
 H2033 H 1.08726 0.31838 0.21272
 H2034 H 1.06669 0.30741 0.22322
 H2035 H 1.08448 0.27092 0.22007
 H2036 H 1.10506 0.28190 0.20959
 H2037 H 1.08202 0.29600 0.17934
 H2038 H 1.06145 0.28501 0.18982
 C2039 C 1.09161 0.79854 0.70020
 C2040 C 1.09249 0.79736 0.71558
 C2041 C 1.08143 0.79148 0.72129
 C2042 C 1.07055 0.78737 0.71107
 C2043 C 1.07787 0.77820 0.70096
 C2044 C 1.08895 0.78408 0.69524
 C2045 C 1.07840 0.80623 0.69750
 C2046 C 1.06733 0.80036 0.70321
 C2047 C 1.10354 0.80487 0.69410
 C2048 C 1.11340 0.81002 0.68911
 C2049 C 1.05859 0.78114 0.71726
 C2050 C 1.04867 0.77624 0.72236
 H2051 H 1.10108 0.80080 0.72146
 H2052 H 1.08054 0.78989 0.73207
 H2053 H 1.07464 0.76800 0.69849
 H2054 H 1.09519 0.77892 0.68786
 H2055 H 1.07777 0.81544 0.69156
 H2056 H 1.05723 0.80454 0.70217
 C2057 C 0.40844 0.70147 0.70049
 C2058 C 0.40541 0.71005 0.71301
 C2059 C 0.41660 0.71596 0.71845
 C2060 C 0.42971 0.71272 0.71084
 C2061 C 0.42698 0.71700 0.69623
 C2062 C 0.41579 0.71108 0.69079
 C2063 C 0.41925 0.69130 0.70503
 C2064 C 0.43043 0.69721 0.71046
 C2065 C 0.39640 0.69511 0.69463
 C2066 C 0.38651 0.68995 0.68974
 C2067 C 0.44177 0.71900 0.71675
 C2068 C 0.45174 0.72393 0.72171
 H2069 H 0.39537 0.71139 0.71721
 H2070 H 0.41613 0.72237 0.72730
 H2071 H 0.43327 0.72404 0.69065
 H2072 H 0.41250 0.71307 0.68055
 H2073 H 0.41823 0.68041 0.70402
 H2074 H 0.43900 0.69138 0.71410
 C2075 C 0.40858 0.20137 0.20041
 C2076 C 0.40532 0.20984 0.21294
 C2077 C 0.41639 0.21572 0.21862
 C2078 C 0.42964 0.21255 0.21121
 C2079 C 0.42716 0.21695 0.19659
 C2080 C 0.41608 0.21107 0.19091
 C2081 C 0.41932 0.19117 0.20504
 C2082 C 0.43039 0.19705 0.21073
 C2083 C 0.39665 0.19504 0.19433
 C2084 C 0.38679 0.18991 0.18936
 C2085 C 0.44158 0.21878 0.21736
 C2086 C 0.45150 0.22369 0.22243
 H2087 H 0.39519 0.21114 0.21695
 H2088 H 0.41575 0.22207 0.22750
 H2089 H 0.43352 0.22407 0.19119
 H2090 H 0.41296 0.21313 0.18063
 H2091 H 0.41834 0.18029 0.20391
 H2092 H 0.43889 0.19120 0.21447
 C2093 C -0.09224 0.70135 0.20139
 C2094 C -0.09553 0.70972 0.21398
 C2095 C -0.08444 0.71542 0.21982
 C2096 C -0.07117 0.71219 0.21249
 C2097 C -0.07348 0.71676 0.19790
 C2098 C -0.08456 0.71106 0.19206
 C2099 C -0.08165 0.69098 0.20602
 C2100 C -0.07057 0.69668 0.21186
 C2101 C -0.10414 0.69519 0.19510
 C2102 C -0.11391 0.69012 0.18991
 C2103 C -0.05919 0.71826 0.21870
 C2104 C -0.04920 0.72318 0.22364
 H2105 H -0.10568 0.71108 0.21792
 H2106 H -0.08509 0.72167 0.22878
 H2107 H -0.06702 0.72390 0.19264
 H2108 H -0.08759 0.71331 0.18179
 H2109 H -0.08276 0.68012 0.20482
 H2110 H -0.06219 0.69071 0.21568
 C2111 C -0.09184 0.20106 0.70098
 C2112 C -0.07849 0.19793 0.69374
 C2113 C -0.06748 0.20366 0.69969
 C2114 C -0.07090 0.21196 0.71229
 C2115 C -0.07861 0.20219 0.72153
 C2116 C -0.08962 0.19646 0.71558
 C2117 C -0.09251 0.21656 0.70166
 C2118 C -0.08150 0.22230 0.70761
 C2119 C -0.10367 0.19486 0.69460
 C2120 C -0.11342 0.18975 0.68940
 C2121 C -0.05898 0.21807 0.71861
 C2122 C -0.04904 0.22300 0.72362
 H2123 H -0.07775 0.19180 0.68471
 H2124 H -0.05731 0.20243 0.69575
 H2125 H -0.07572 0.20001 0.73185
 H2126 H -0.09616 0.18935 0.72080
 H2127 H -0.10090 0.22251 0.69779
 H2128 H -0.08046 0.23316 0.70886
 C2129 C 0.29853 0.40807 0.29909
 C2130 C 0.29517 0.41909 0.30944
 C2131 C 0.28946 0.43036 0.30394
 C2132 C 0.28767 0.42952 0.28862
 C2133 C 0.27943 0.41658 0.28625
 C2134 C 0.28514 0.40529 0.29176
 C2135 C 0.30753 0.41508 0.28861
 C2136 C 0.30183 0.42635 0.28311
 C2137 C 0.30473 0.39598 0.30507
 C2138 C 0.30986 0.38612 0.31009
 C2139 C 0.28162 0.44169 0.28266
 C2140 C 0.27680 0.45174 0.27772
 H2141 H 0.29705 0.41809 0.32016
 H2142 H 0.28647 0.43903 0.30995
 H2143 H 0.26994 0.41631 0.28076
 H2144 H 0.28054 0.39535 0.29097
 H2145 H 0.31749 0.41147 0.28572
 H2146 H 0.30691 0.43241 0.27553
 C2147 C 0.29906 -0.09226 0.79942
 C2148 C 0.29554 -0.08123 0.80971
 C2149 C 0.28958 -0.07012 0.80414
 C2150 C 0.28772 -0.07115 0.78883
 C2151 C 0.27973 -0.08426 0.78663
 C2152 C 0.28569 -0.09537 0.79220
 C2153 C 0.30787 -0.08517 0.78884
 C2154 C 0.30191 -0.07407 0.78328
 C2155 C 0.30549 -0.10421 0.80540
 C2156 C 0.31072 -0.11403 0.81037
 C2157 C 0.28141 -0.05916 0.78281
 C2158 C 0.27647 -0.04921 0.77781
 H2159 H 0.29753 -0.08208 0.82043
 H2160 H 0.28645 -0.06146 0.81008
 H2161 H 0.27021 -0.08478 0.78121
 H2162 H 0.28128 -0.10541 0.79155
 H2163 H 0.31791 -0.08856 0.78598
 H2164 H 0.30684 -0.06795 0.77564
 C2165 C 0.79900 0.40792 0.79916
 C2166 C 0.79565 0.41891 0.80955
 C2167 C 0.78991 0.43019 0.80409
 C2168 C 0.78808 0.42938 0.78877
 C2169 C 0.77986 0.41642 0.78640
 C2170 C 0.78561 0.40514 0.79186
 C2171 C 0.80797 0.41498 0.78868
 C2172 C 0.80223 0.42625 0.78322
 C2173 C 0.80521 0.39580 0.80507
 C2174 C 0.81029 0.38589 0.81004
 C2175 C 0.78196 0.44153 0.78284
 C2176 C 0.77708 0.45155 0.77789
 H2177 H 0.79759 0.41790 0.82026
 H2178 H 0.78693 0.43884 0.81013
 H2179 H 0.77035 0.41614 0.78095
 H2180 H 0.78102 0.39520 0.79107
 H2181 H 0.81795 0.41143 0.78579
 H2182 H 0.80730 0.43237 0.77567
 C2183 C 0.79902 -0.09228 0.29923
 C2184 C 0.79560 -0.08124 0.30955
 C2185 C 0.78981 -0.07003 0.30401
 C2186 C 0.78801 -0.07095 0.28869
 C2187 C 0.77985 -0.08396 0.28639
 C2188 C 0.78564 -0.09518 0.29193
 C2189 C 0.80796 -0.08526 0.28872
 C2190 C 0.80218 -0.07405 0.28318
 C2191 C 0.80526 -0.10432 0.30525
 C2192 C 0.81037 -0.11417 0.31031
 C2193 C 0.78185 -0.05885 0.28271
 C2194 C 0.77698 -0.04884 0.27776
 H2195 H 0.79754 -0.08217 0.32027
 H2196 H 0.78678 -0.06136 0.30999
 H2197 H 0.77035 -0.08432 0.28092
 H2198 H 0.78111 -0.10515 0.29119
 H2199 H 0.81795 -0.08879 0.28585
 H2200 H 0.80721 -0.06797 0.27557
 C2201 C 0.29863 0.59156 0.70053
 C2202 C 0.28870 0.59475 0.71197
 C2203 C 0.28275 0.58355 0.71738
 C2204 C 0.28733 0.57026 0.71081
 C2205 C 0.30281 0.57029 0.71200
 C2206 C 0.30875 0.58148 0.70659
 C2207 C 0.29040 0.58330 0.69033
 C2208 C 0.28446 0.57210 0.69574
 C2209 C 0.30502 0.60362 0.69469
 C2210 C 0.31018 0.61352 0.68981
 C2211 C 0.28102 0.55819 0.71669
 C2212 C 0.27609 0.54820 0.72163
 H2213 H 0.28649 0.60490 0.71549
 H2214 H 0.27545 0.58411 0.72552
 H2215 H 0.30861 0.56220 0.71664
 H2216 H 0.31963 0.58299 0.70661
 H2217 H 0.28933 0.58601 0.67979
 H2218 H 0.27830 0.56522 0.68983
 C2219 C 0.29882 1.09186 0.20042
 C2220 C 0.30183 1.07865 0.19289
 C2221 C 0.29586 1.06757 0.19850
 C2222 C 0.28746 1.07080 0.21109
 C2223 C 0.27734 1.08167 0.20656
 C2224 C 0.28332 1.09275 0.20094
 C2225 C 0.30321 1.08920 0.21500
 C2226 C 0.29723 1.07814 0.22061
 C2227 C 0.30523 1.10379 0.19441
 C2228 C 0.31042 1.11364 0.18947
 C2229 C 0.28113 1.05885 0.21718
 C2230 C 0.27616 1.04894 0.22224
 H2231 H 0.30807 1.07804 0.18391
 H2232 H 0.29697 1.05749 0.19433
 H2233 H 0.26646 1.08075 0.20762
 H2234 H 0.27755 1.10131 0.19718
 H2235 H 0.31038 1.09547 0.22044
 H2236 H 0.29928 1.07493 0.23087
 C2237 C 0.79869 0.59219 0.20141
 C2238 C 0.80505 0.57878 0.19689
 C2239 C 0.79930 0.56769 0.20267
 C2240 C 0.78775 0.57108 0.21242
 C2241 C 0.77779 0.57962 0.20414
 C2242 C 0.78354 0.59072 0.19835
 C2243 C 0.79968 0.59206 0.21683
 C2244 C 0.79393 0.58096 0.22262
 C2245 C 0.80490 0.60411 0.19516
 C2246 C 0.80999 0.61390 0.18999
 C2247 C 0.78161 0.55907 0.21860
 C2248 C 0.77667 0.54908 0.22354
 H2249 H 0.81334 0.57806 0.18975
 H2250 H 0.80266 0.55746 0.20050
 H2251 H 0.76715 0.57719 0.20296
 H2252 H 0.77784 0.59779 0.19220
 H2253 H 0.80444 0.60001 0.22268
 H2254 H 0.79374 0.57941 0.23344
 C2255 C 0.79860 1.09163 0.70021
 C2256 C 0.79602 1.09280 0.71539
 C2257 C 0.79007 1.08164 0.72084
 C2258 C 0.78728 1.07039 0.71057
 C2259 C 0.80102 1.06750 0.70397
 C2260 C 0.80697 1.07866 0.69853
 C2261 C 0.78475 1.08832 0.69405
 C2262 C 0.77879 1.07714 0.69950
 C2263 C 0.80502 1.10365 0.69434
 C2264 C 0.81023 1.11351 0.68943
 C2265 C 0.78097 1.05835 0.71651
 C2266 C 0.77604 1.04839 0.72152
 H2267 H 0.79860 1.10164 0.72134
 H2268 H 0.78754 1.08091 0.73145
 H2269 H 0.80563 1.05754 0.70354
 H2270 H 0.81669 1.07827 0.69345
 H2271 H 0.78005 1.09421 0.68610
 H2272 H 0.76899 1.07346 0.69620
 C2273 C 0.70125 0.59199 0.29860
 C2274 C 0.70258 0.57989 0.30819
 C2275 C 0.70832 0.56881 0.30239
 C2276 C 0.71216 0.57092 0.28757
 C2277 C 0.72136 0.58343 0.28749
 C2278 C 0.71561 0.59452 0.29330
 C2279 C 0.69331 0.58660 0.28646
 C2280 C 0.69905 0.57552 0.28065
 C2281 C 0.69507 0.60390 0.30487
 C2282 C 0.69001 0.61368 0.31005
 C2283 C 0.71828 0.55894 0.28140
 C2284 C 0.72321 0.54895 0.27650
 H2285 H 0.69933 0.58001 0.31863
 H2286 H 0.71000 0.55944 0.30786
 H2287 H 0.73147 0.58357 0.28324
 H2288 H 0.72081 0.60416 0.29403
 H2289 H 0.68402 0.59111 0.28273
 H2290 H 0.69470 0.57053 0.27194
 C2291 C 0.70135 1.09190 0.79962
 C2292 C 0.70006 1.07921 0.80845
 C2293 C 0.70596 1.06802 0.80300
 C2294 C 0.71255 1.07062 0.78926
 C2295 C 0.72248 1.08230 0.79164
 C2296 C 0.71659 1.09350 0.79709
 C2297 C 0.69538 1.08784 0.78595
 C2298 C 0.70127 1.07666 0.78050
 C2299 C 0.69499 1.10393 0.80550
 C2300 C 0.68982 1.11379 0.81042
 C2301 C 0.71879 1.05854 0.78337
 C2302 C 0.72367 1.04852 0.77847
 H2303 H 0.69502 1.07905 0.81816
 H2304 H 0.70597 1.05827 0.80805
 H2305 H 0.73320 1.08181 0.78931
 H2306 H 0.72225 1.10261 0.79942
 H2307 H 0.68724 1.09328 0.78097
 H2308 H 0.69818 1.07251 0.77086
 C2309 C 0.20147 0.59154 0.79968
 C2310 C 0.20271 0.57969 0.80960
 C2311 C 0.20860 0.56848 0.80419
 C2312 C 0.21267 0.57023 0.78938
 C2313 C 0.22180 0.58277 0.78912
 C2314 C 0.21591 0.59399 0.79454
 C2315 C 0.19376 0.58578 0.78757
 C2316 C 0.19964 0.57458 0.78216
 C2317 C 0.19512 0.60359 0.80553
 C2318 C 0.18994 0.61345 0.81044
 C2319 C 0.21891 0.55814 0.78351
 C2320 C 0.22379 0.54812 0.77860
 H2321 H 0.19930 0.58009 0.81998
 H2322 H 0.21024 0.55928 0.80994
 H2323 H 0.23201 0.58283 0.78509
 H2324 H 0.22107 0.60366 0.79513
 H2325 H 0.18449 0.59012 0.78359
 H2326 H 0.19542 0.56931 0.77355
 C2327 C 0.20138 1.09216 0.29917
 C2328 C 0.20254 1.08025 0.30905
 C2329 C 0.20821 1.06897 0.30354
 C2330 C 0.21217 1.07070 0.28870
 C2331 C 0.22148 1.08312 0.28841
 C2332 C 0.21581 1.09440 0.29391
 C2333 C 0.19348 1.08655 0.28711
 C2334 C 0.19915 1.07527 0.28161
 C2335 C 0.19524 1.10427 0.30513
 C2336 C 0.19017 1.11415 0.31012
 C2337 C 0.21821 1.05855 0.28273
 C2338 C 0.22305 1.04853 0.27777
 H2339 H 0.19924 1.08067 0.31946
 H2340 H 0.20976 1.05972 0.30924
 H2341 H 0.23165 1.08304 0.28428
 H2342 H 0.22112 1.10400 0.29448
 H2343 H 0.18426 1.09105 0.28322
 H2344 H 0.19477 1.07011 0.27301
 C2345 C 0.70144 0.40831 0.70095
 C2346 C 0.71695 0.40752 0.70133
 C2347 C 0.72291 0.41863 0.70687
 C2348 C 0.71277 0.42943 0.71150
 C2349 C 0.70314 0.42201 0.72112
 C2350 C 0.69718 0.41091 0.71557
 C2351 C 0.69826 0.42152 0.69345
 C2352 C 0.70422 0.43262 0.69899
 C2353 C 0.69504 0.39637 0.69494
 C2354 C 0.68986 0.38656 0.68991
 C2355 C 0.71908 0.44143 0.71749
 C2356 C 0.72402 0.45138 0.72247
 H2357 H 0.72273 0.39899 0.69757
 H2358 H 0.73380 0.41961 0.70787
 H2359 H 0.70120 0.42519 0.73140
 H2360 H 0.69013 0.40458 0.72110
 H2361 H 0.69190 0.42210 0.68456
 H2362 H 0.70298 0.44271 0.69483
 C2363 C 0.70171 -0.09201 0.20068
 C2364 C 0.71721 -0.09273 0.20109
 C2365 C 0.72312 -0.08160 0.20664
 C2366 C 0.71292 -0.07084 0.21124
 C2367 C 0.70330 -0.07830 0.22085
 C2368 C 0.69741 -0.08942 0.21529
 C2369 C 0.69849 -0.07882 0.19317
 C2370 C 0.70438 -0.06769 0.19872
 C2371 C 0.69534 -0.10397 0.19470
 C2372 C 0.69015 -0.11380 0.18972
 C2373 C 0.71917 -0.05883 0.21726
 C2374 C 0.72408 -0.04888 0.22227
 H2375 H 0.72304 -0.10124 0.19733
 H2376 H 0.73400 -0.08056 0.20764
 H2377 H 0.70134 -0.07514 0.23112
 H2378 H 0.69038 -0.09579 0.22081
 H2379 H 0.69217 -0.07827 0.18424
 H2380 H 0.70313 -0.05761 0.19454
 C2381 C 0.20139 0.40851 0.20041
 C2382 C 0.19124 0.41927 0.20508
 C2383 C 0.19718 0.43034 0.21071
 C2384 C 0.21268 0.42956 0.21112
 C2385 C 0.21698 0.42706 0.19648
 C2386 C 0.21103 0.41599 0.19085
 C2387 C 0.20993 0.40523 0.21290
 C2388 C 0.21587 0.41630 0.21853
 C2389 C 0.19500 0.39658 0.19437
 C2390 C 0.18984 0.38674 0.18941
 C2391 C 0.21898 0.44150 0.21722
 C2392 C 0.22392 0.45142 0.22227
 H2393 H 0.18036 0.41831 0.20403
 H2394 H 0.19138 0.43885 0.21449
 H2395 H 0.22407 0.43341 0.19103
 H2396 H 0.21302 0.41287 0.18056
 H2397 H 0.21122 0.39511 0.21694
 H2398 H 0.22226 0.41565 0.22739
 C2399 C 0.20125 -0.09186 0.70047
 C2400 C 0.19099 -0.08117 0.70509
 C2401 C 0.19680 -0.07003 0.71071
 C2402 C 0.21231 -0.07065 0.71117
 C2403 C 0.21667 -0.07315 0.69655
 C2404 C 0.21085 -0.08430 0.69093
 C2405 C 0.20978 -0.09501 0.71300
 C2406 C 0.21559 -0.08386 0.71863
 C2407 C 0.19498 -0.10387 0.69442
 C2408 C 0.18988 -0.11374 0.68941
 C2409 C 0.21850 -0.05864 0.71728
 C2410 C 0.22342 -0.04872 0.72235
 H2411 H 0.18011 -0.08224 0.70400
 H2412 H 0.19090 -0.06155 0.71443
 H2413 H 0.22370 -0.06674 0.69110
 H2414 H 0.21291 -0.08743 0.68066
 H2415 H 0.21116 -0.10511 0.71708
 H2416 H 0.22196 -0.08442 0.72751
 C2417 C 0.29956 0.29859 0.40887
 C2418 C 0.30162 0.28320 0.40954
 C2419 C 0.29609 0.27735 0.42068
 C2420 C 0.28904 0.28745 0.43007
 C2421 C 0.27868 0.29480 0.42116
 C2422 C 0.28421 0.30065 0.41002
 C2423 C 0.30536 0.30399 0.42215
 C2424 C 0.29983 0.29814 0.43330
 C2425 C 0.30550 0.30487 0.39686
 C2426 C 0.31038 0.30998 0.38696
 C2427 C 0.28304 0.28122 0.44208
 C2428 C 0.27806 0.27629 0.45203
 H2429 H 0.30700 0.27743 0.40195
 H2430 H 0.29673 0.26656 0.42263
 H2431 H 0.26795 0.29536 0.42340
 H2432 H 0.27822 0.30623 0.40273
 H2433 H 0.31314 0.31171 0.42276
 H2434 H 0.30288 0.30084 0.44344
 C2435 C 0.29881 0.79952 -0.09182
 C2436 C 0.30054 0.78412 -0.09087
 C2437 C 0.29464 0.77857 -0.07977
 C2438 C 0.28759 0.78897 -0.07069
 C2439 C 0.27758 0.79636 -0.07995
 C2440 C 0.28348 0.80191 -0.09106
 C2441 C 0.30441 0.80504 -0.07851
 C2442 C 0.29851 0.79949 -0.06740
 C2443 C 0.30517 0.80548 -0.10377
 C2444 C 0.31038 0.81040 -0.11360
 C2445 C 0.28134 0.78295 -0.05869
 C2446 C 0.27644 0.77793 -0.04875
 H2447 H 0.30590 0.77810 -0.09829
 H2448 H 0.29494 0.76779 -0.07768
 H2449 H 0.26681 0.79717 -0.07795
 H2450 H 0.27777 0.80748 -0.09858
 H2451 H 0.31228 0.81266 -0.07786
 H2452 H 0.30133 0.80237 -0.05724
 C2453 C 0.79946 0.29866 -0.09176
 C2454 C 0.80155 0.28327 -0.09119
 C2455 C 0.79600 0.27734 -0.08010
 C2456 C 0.78891 0.28738 -0.07066
 C2457 C 0.77857 0.29476 -0.07956
 C2458 C 0.78411 0.30069 -0.09065
 C2459 C 0.80522 0.30399 -0.07844
 C2460 C 0.79968 0.29806 -0.06735
 C2461 C 0.80541 0.30505 -0.10370
 C2462 C 0.81031 0.31026 -0.11352
 C2463 C 0.78290 0.28112 -0.05869
 C2464 C 0.77789 0.27621 -0.04875
 H2465 H 0.80692 0.27755 -0.09883
 H2466 H 0.79662 0.26653 -0.07823
 H2467 H 0.76782 0.29523 -0.07737
 H2468 H 0.77812 0.30626 -0.09795
 H2469 H 0.81301 0.31170 -0.07777
 H2470 H 0.80272 0.30069 -0.05718
 C2471 C 0.79920 0.79839 0.40842
 C2472 C 0.80129 0.78301 0.40906
 C2473 C 0.79579 0.77714 0.42021
 C2474 C 0.78874 0.78723 0.42962
 C2475 C 0.77836 0.79457 0.42073
 C2476 C 0.78386 0.80043 0.40959
 C2477 C 0.80502 0.80379 0.42169
 C2478 C 0.79953 0.79792 0.43283
 C2479 C 0.80511 0.80473 0.39642
 C2480 C 0.80999 0.80990 0.38657
 C2481 C 0.78277 0.78103 0.44166
 C2482 C 0.77778 0.77616 0.45162
 H2483 H 0.80663 0.77724 0.40144
 H2484 H 0.79641 0.76634 0.42214
 H2485 H 0.76763 0.79507 0.42297
 H2486 H 0.77784 0.80597 0.40229
 H2487 H 0.81281 0.81150 0.42228
 H2488 H 0.80261 0.80061 0.44297
 C2489 C 0.70083 0.29862 0.59155
 C2490 C 0.70748 0.30882 0.58195
 C2491 C 0.71294 0.30303 0.57075
 C2492 C 0.71122 0.28761 0.57023
 C2493 C 0.69595 0.28522 0.57166
 C2494 C 0.69049 0.29101 0.58286
 C2495 C 0.71191 0.28819 0.59465
 C2496 C 0.71737 0.28240 0.58345
 C2497 C 0.69494 0.30487 0.60360
 C2498 C 0.69004 0.30999 0.61349
 C2499 C 0.71716 0.28145 0.55814
 C2500 C 0.72212 0.27656 0.54817
 H2501 H 0.70786 0.31964 0.58379
 H2502 H 0.71798 0.30890 0.56299
 H2503 H 0.68995 0.27948 0.56451
 H2504 H 0.67981 0.29023 0.58531
 H2505 H 0.71517 0.28556 0.60475
 H2506 H 0.72529 0.27481 0.58396
 C2507 C 0.70136 0.79880 1.09161
 C2508 C 0.70625 0.78426 1.09403
 C2509 C 0.71206 0.77847 1.08301
 C2510 C 0.71241 0.78780 1.07065
 C2511 C 0.71966 0.80065 1.07543
 C2512 C 0.71385 0.80644 1.08645
 C2513 C 0.69185 0.79789 1.07944
 C2514 C 0.69765 0.79210 1.06842
 C2515 C 0.69512 0.80502 1.10347
 C2516 C 0.69002 0.81009 1.11325
 C2517 C 0.71859 0.78163 1.05873
 C2518 C 0.72353 0.77668 1.04879
 H2519 H 0.70526 0.77899 1.10357
 H2520 H 0.71606 0.76824 1.08311
 H2521 H 0.72860 0.80481 1.07062
 H2522 H 0.71780 0.81557 1.09107
 H2523 H 0.68147 0.80147 1.07947
 H2524 H 0.69224 0.79070 1.05902
 C2525 C 0.20146 0.29884 1.09180
 C2526 C 0.20152 0.30808 1.07938
 C2527 C 0.20729 0.30231 1.06834
 C2528 C 0.21243 0.28786 1.07080
 C2529 C 0.20012 0.28006 1.07615
 C2530 C 0.19435 0.28584 1.08719
 C2531 C 0.21630 0.29479 1.09390
 C2532 C 0.22207 0.28900 1.08285
 C2533 C 0.19524 0.30506 1.10367
 C2534 C 0.19012 0.31017 1.11342
 C2535 C 0.21857 0.28170 1.05885
 C2536 C 0.22348 0.27675 1.04891
 H2537 H 0.19742 0.31827 1.07926
 H2538 H 0.20813 0.30755 1.05876
 H2539 H 0.19630 0.27080 1.07169
 H2540 H 0.18558 0.28154 1.09219
 H2541 H 0.22178 0.29631 1.10324
 H2542 H 0.23250 0.28556 1.08273
 C2543 C 0.20071 0.79821 0.59123
 C2544 C 0.20426 0.80836 0.58007
 C2545 C 0.20979 0.80252 0.56895
 C2546 C 0.21124 0.78709 0.57005
 C2547 C 0.19698 0.78193 0.57333
 C2548 C 0.19144 0.78778 0.58446
 C2549 C 0.21393 0.79057 0.59408
 C2550 C 0.21947 0.78472 0.58295
 C2551 C 0.19476 0.80454 0.60320
 C2552 C 0.18985 0.80973 0.61302
 C2553 C 0.21725 0.78091 0.55804
 C2554 C 0.22225 0.77606 0.54809
 H2555 H 0.20254 0.81918 0.58083
 H2556 H 0.21281 0.80834 0.56017
 H2557 H 0.19170 0.77434 0.56744
 H2558 H 0.18141 0.78520 0.58811
 H2559 H 0.21851 0.78978 0.60398
 H2560 H 0.22878 0.77892 0.58332
 C2561 C 0.29932 0.70132 0.59127
 C2562 C 0.30340 0.71618 0.58924
 C2563 C 0.29786 0.72196 0.57805
 C2564 C 0.28878 0.71232 0.56999
 C2565 C 0.27826 0.70718 0.58015
 C2566 C 0.28380 0.70140 0.59132
 C2567 C 0.30327 0.69423 0.57810
 C2568 C 0.29773 0.70001 0.56693
 C2569 C 0.30531 0.69507 0.60329
 C2570 C 0.31028 0.68992 0.61313
 C2571 C 0.28278 0.71845 0.55792
 C2572 C 0.27782 0.72331 0.54793
 H2573 H 0.31005 0.72167 0.59599
 H2574 H 0.29977 0.73240 0.57523
 H2575 H 0.26741 0.70805 0.57870
 H2576 H 0.27769 0.69732 0.59945
 H2577 H 0.30986 0.68546 0.57760
 H2578 H 0.29960 0.69620 0.55685
 C2579 C 0.29874 0.20145 1.09178
 C2580 C 0.30747 0.21243 1.08516
 C2581 C 0.30163 0.21816 1.07412
 C2582 C 0.28763 0.21234 1.07079
 C2583 C 0.27931 0.21409 1.08372
 C2584 C 0.28516 0.20836 1.09476
 C2585 C 0.29570 0.19130 1.08051
 C2586 C 0.28985 0.19703 1.06947
 C2587 C 0.30503 0.19528 1.10364
 C2588 C 0.31018 0.19019 1.11340
 C2589 C 0.28142 0.21844 1.05885
 C2590 C 0.27647 0.22335 1.04891
 H2591 H 0.31735 0.21547 1.08884
 H2592 H 0.30649 0.22612 1.06835
 H2593 H 0.26970 0.21938 1.08416
 H2594 H 0.28056 0.20873 1.10467
 H2595 H 0.29792 0.18056 1.08114
 H2596 H 0.28706 0.19119 1.06064
 C2597 C 0.79859 0.70135 1.09165
 C2598 C 0.79128 0.69118 1.08254
 C2599 C 0.78543 0.69696 1.07153
 C2600 C 0.78747 0.71233 1.07071
 C2601 C 0.80284 0.71440 1.07141
 C2602 C 0.80869 0.70862 1.08242
 C2603 C 0.78789 0.71205 1.09512
 C2604 C 0.78204 0.71783 1.08410
 C2605 C 0.80486 0.69515 1.10352
 C2606 C 0.80996 0.69009 1.11331
 C2607 C 0.78125 0.71848 1.05880
 C2608 C 0.77632 0.72341 1.04886
 H2609 H 0.79075 0.68039 1.08455
 H2610 H 0.77986 0.69113 1.06411
 H2611 H 0.80862 0.71994 1.06392
 H2612 H 0.81948 0.70918 1.08435
 H2613 H 0.78517 0.71485 1.10533
 H2614 H 0.77430 0.72558 1.08487
 C2615 C 0.79939 0.20154 0.59132
 C2616 C 0.80378 0.21629 0.58920
 C2617 C 0.79820 0.22217 0.57809
 C2618 C 0.78879 0.21271 0.57020
 C2619 C 0.77830 0.20784 0.58051
 C2620 C 0.78387 0.20197 0.59161
 C2621 C 0.80298 0.19432 0.57813
 C2622 C 0.79741 0.20020 0.56703
 C2623 C 0.80536 0.19521 0.60327
 C2624 C 0.81027 0.19004 0.61311
 C2625 C 0.78276 0.21892 0.55822
 C2626 C 0.77774 0.22378 0.54828
 H2627 H 0.81067 0.22163 0.59584
 H2628 H 0.80031 0.23256 0.57521
 H2629 H 0.76746 0.20897 0.57923
 H2630 H 0.77780 0.19804 0.59984
 H2631 H 0.80939 0.18542 0.57755
 H2632 H 0.79905 0.19634 0.55693
 C2633 C 0.70093 0.70133 0.40854
 C2634 C 0.71538 0.69654 0.41160
 C2635 C 0.72085 0.70235 0.42278
 C2636 C 0.71134 0.71238 0.42982
 C2637 C 0.69838 0.70432 0.43265
 C2638 C 0.69291 0.69851 0.42147
 C2639 C 0.70191 0.71682 0.40769
 C2640 C 0.70738 0.72263 0.41888
 C2641 C 0.69502 0.69507 0.39651
 C2642 C 0.69009 0.68995 0.38665
 C2643 C 0.71726 0.71855 0.44189
 C2644 C 0.72220 0.72343 0.45187
 H2645 H 0.72085 0.68925 0.40551
 H2646 H 0.73099 0.70003 0.42626
 H2647 H 0.69386 0.70330 0.44256
 H2648 H 0.68373 0.69250 0.42181
 H2649 H 0.69860 0.72270 0.39906
 H2650 H 0.70874 0.73348 0.41984
 C2651 C 0.70088 0.20106 -0.09169
 C2652 C 0.69067 0.20930 -0.08343
 C2653 C 0.69613 0.21517 -0.07227
 C2654 C 0.71127 0.21223 -0.07046
 C2655 C 0.71787 0.21684 -0.08368
 C2656 C 0.71242 0.21097 -0.09484
 C2657 C 0.70695 0.19087 -0.08171
 C2658 C 0.71240 0.19674 -0.07056
 C2659 C 0.69498 0.19473 -0.10370
 C2660 C 0.69006 0.18956 -0.11354
 C2661 C 0.71720 0.21846 -0.05842
 C2662 C 0.72216 0.22337 -0.04847
 H2663 H 0.68009 0.21044 -0.08612
 H2664 H 0.69022 0.22134 -0.06541
 H2665 H 0.72608 0.22411 -0.08423
 H2666 H 0.71597 0.21320 -0.10494
 H2667 H 0.70696 0.18000 -0.08326
 H2668 H 0.71706 0.19089 -0.06255
 C2669 C 0.20156 0.70075 -0.09159
 C2670 C 0.21513 0.69426 -0.08774
 C2671 C 0.22087 0.69975 -0.07652
 C2672 C 0.21247 0.71119 -0.07027
 C2673 C 0.19847 0.70498 -0.06773
 C2674 C 0.19274 0.69950 -0.07893
 C2675 C 0.20458 0.71592 -0.09293
 C2676 C 0.21032 0.72141 -0.08172
 C2677 C 0.19535 0.69483 -0.10363
 C2678 C 0.19023 0.68992 -0.11350
 C2679 C 0.21858 0.71715 -0.05819
 C2680 C 0.22344 0.72212 -0.04822
 H2681 H 0.21983 0.68608 -0.09333
 H2682 H 0.23048 0.69627 -0.07251
 H2683 H 0.19351 0.70489 -0.05798
 H2684 H 0.18286 0.69471 -0.07879
 H2685 H 0.20243 0.72183 -0.10189
 H2686 H 0.21308 0.73202 -0.08109
 C2687 C 0.20032 0.20147 0.40901
 C2688 C 0.21165 0.19304 0.41544
 C2689 C 0.21719 0.19890 0.42654
 C2690 C 0.21087 0.21262 0.43014
 C2691 C 0.19566 0.20981 0.43150
 C2692 C 0.19011 0.20394 0.42039
 C2693 C 0.20669 0.21536 0.40623
 C2694 C 0.21223 0.22122 0.41734
 C2695 C 0.19436 0.19516 0.39704
 C2696 C 0.18947 0.19003 0.38718
 C2697 C 0.21687 0.21884 0.44212
 C2698 C 0.22184 0.22372 0.45206
 H2699 H 0.21500 0.18332 0.41162
 H2700 H 0.22531 0.19420 0.43224
 H2701 H 0.18977 0.21224 0.44039
 H2702 H 0.17946 0.20134 0.41977
 H2703 H 0.20679 0.22019 0.39641
 H2704 H 0.21709 0.23107 0.41704
 C2705 C 0.29879 0.40814 0.70139
 C2706 C 0.29610 0.41976 0.69149
 C2707 C 0.29032 0.43081 0.69733
 C2708 C 0.28781 0.42915 0.71249
 C2709 C 0.30164 0.42543 0.71846
 C2710 C 0.30742 0.41439 0.71262
 C2711 C 0.28504 0.40520 0.70795
 C2712 C 0.27926 0.41625 0.71379
 C2713 C 0.30499 0.39625 0.69512
 C2714 C 0.31004 0.38645 0.68997
 C2715 C 0.28164 0.44108 0.71869
 C2716 C 0.27666 0.45103 0.72364
 H2717 H 0.29849 0.41935 0.68083
 H2718 H 0.28776 0.43986 0.69167
 H2719 H 0.30645 0.43096 0.72659
 H2720 H 0.31719 0.41046 0.71573
 H2721 H 0.28027 0.39531 0.70801
 H2722 H 0.26955 0.41583 0.71887
 C2723 C 0.29877 0.90857 0.20067
 C2724 C 0.29609 0.90724 0.21584
 C2725 C 0.29037 0.91847 0.22140
 C2726 C 0.28789 0.92993 0.21125
 C2727 C 0.27931 0.92355 0.20007
 C2728 C 0.28503 0.91231 0.19450
 C2729 C 0.30745 0.92136 0.19920
 C2730 C 0.30173 0.93259 0.20476
 C2731 C 0.30496 0.89649 0.19468
 C2732 C 0.31005 0.88659 0.18970
 C2733 C 0.28180 0.94204 0.21728
 C2734 C 0.27692 0.95203 0.22228
 H2735 H 0.29846 0.89827 0.22169
 H2736 H 0.28785 0.91911 0.23201
 H2737 H 0.26961 0.92751 0.19678
 H2738 H 0.28023 0.90665 0.18646
 H2739 H 0.31720 0.92159 0.19420
 H2740 H 0.30659 0.94243 0.20451
 C2741 C 0.79864 0.40872 0.20026
 C2742 C 0.79603 0.42008 0.19003
 C2743 C 0.79009 0.43125 0.19548
 C2744 C 0.78734 0.42995 0.21063
 C2745 C 0.80110 0.42648 0.21691
 C2746 C 0.80704 0.41532 0.21146
 C2747 C 0.78479 0.40588 0.20667
 C2748 C 0.77885 0.41705 0.21212
 C2749 C 0.80501 0.39670 0.19439
 C2750 C 0.81014 0.38680 0.18948
 C2751 C 0.78105 0.44198 0.21655
 C2752 C 0.77612 0.45195 0.22152
 H2753 H 0.79861 0.41941 0.17943
 H2754 H 0.78757 0.44013 0.18956
 H2755 H 0.80578 0.43230 0.22492
 H2756 H 0.81680 0.41158 0.21479
 H2757 H 0.78004 0.39598 0.20686
 H2758 H 0.76902 0.41672 0.21697
 C2759 C 0.79894 0.90859 0.70128
 C2760 C 0.79620 0.92025 0.69143
 C2761 C 0.79035 0.93124 0.69731
 C2762 C 0.78783 0.92950 0.71246
 C2763 C 0.80168 0.92584 0.71843
 C2764 C 0.80753 0.91485 0.71254
 C2765 C 0.78520 0.90556 0.70782
 C2766 C 0.77936 0.91655 0.71370
 C2767 C 0.80521 0.89675 0.69496
 C2768 C 0.81029 0.88697 0.68978
 C2769 C 0.78159 0.94138 0.71872
 C2770 C 0.77658 0.95129 0.72371
 H2771 H 0.79862 0.91990 0.68078
 H2772 H 0.78776 0.94030 0.69169
 H2773 H 0.80646 0.93138 0.72657
 H2774 H 0.81733 0.91098 0.71563
 H2775 H 0.78048 0.89564 0.70782
 H2776 H 0.76963 0.91606 0.71874
 C2777 C 0.70111 0.59179 0.70106
 C2778 C 0.70065 0.59158 0.71650
 C2779 C 0.70649 0.58038 0.72203
 C2780 C 0.71221 0.57049 0.71158
 C2781 C 0.72197 0.57896 0.70300
 C2782 C 0.71613 0.59016 0.69747
 C2783 C 0.69446 0.57847 0.69668
 C2784 C 0.70029 0.56728 0.70221
 C2785 C 0.69481 0.60382 0.69506
 C2786 C 0.68967 0.61367 0.69004
 C2787 C 0.71842 0.55840 0.71756
 C2788 C 0.72334 0.54841 0.72253
 H2789 H 0.69616 0.59953 0.72256
 H2790 H 0.70700 0.57875 0.73282
 H2791 H 0.73252 0.57638 0.70140
 H2792 H 0.72168 0.59718 0.69114
 H2793 H 0.68593 0.57788 0.68982
 H2794 H 0.69677 0.55710 0.70007
 C2795 C 0.70155 0.09137 0.20051
 C2796 C 0.70941 0.08264 0.19040
 C2797 C 0.71515 0.07143 0.19599
 C2798 C 0.71248 0.07004 0.21115
 C2799 C 0.69703 0.07051 0.21258
 C2800 C 0.69129 0.08171 0.20699
 C2801 C 0.71176 0.09458 0.21171
 C2802 C 0.71750 0.08336 0.21730
 C2803 C 0.69533 0.10343 0.19449
 C2804 C 0.69022 0.11332 0.18951
 C2805 C 0.71859 0.05796 0.21722
 C2806 C 0.72346 0.04797 0.22225
 H2807 H 0.71039 0.08507 0.17978
 H2808 H 0.72105 0.06425 0.19017
 H2809 H 0.69111 0.06270 0.21753
 H2810 H 0.68046 0.08351 0.20716
 H2811 H 0.71429 0.10476 0.21493
 H2812 H 0.72495 0.08394 0.22531
 C2813 C 0.20107 0.59183 0.20064
 C2814 C 0.20890 0.58313 0.19047
 C2815 C 0.21464 0.57189 0.19601
 C2816 C 0.21200 0.57044 0.21117
 C2817 C 0.19655 0.57091 0.21263
 C2818 C 0.19081 0.58215 0.20710
 C2819 C 0.21130 0.59498 0.21183
 C2820 C 0.21704 0.58373 0.21737
 C2821 C 0.19487 0.60392 0.19467
 C2822 C 0.18980 0.61384 0.18971
 C2823 C 0.21812 0.55833 0.21717
 C2824 C 0.22301 0.54833 0.22215
 H2825 H 0.20986 0.58560 0.17987
 H2826 H 0.22052 0.56473 0.19015
 H2827 H 0.19064 0.56309 0.21756
 H2828 H 0.17998 0.58396 0.20730
 H2829 H 0.21383 0.60514 0.21510
 H2830 H 0.22450 0.58427 0.22537
 C2831 C 0.20130 0.09096 0.70076
 C2832 C 0.20924 0.08234 0.69062
 C2833 C 0.21524 0.07126 0.69622
 C2834 C 0.21271 0.06990 0.71141
 C2835 C 0.19726 0.07007 0.71295
 C2836 C 0.19126 0.08114 0.70735
 C2837 C 0.21152 0.09441 0.71187
 C2838 C 0.21752 0.08334 0.71747
 C2839 C 0.19484 0.10288 0.69476
 C2840 C 0.18962 0.11272 0.68980
 C2841 C 0.21906 0.05795 0.71748
 C2842 C 0.22405 0.04805 0.72252
 H2843 H 0.21007 0.08473 0.67999
 H2844 H 0.22123 0.06417 0.69039
 H2845 H 0.19153 0.06218 0.71798
 H2846 H 0.18040 0.08272 0.70758
 H2847 H 0.21385 0.10465 0.71505
 H2848 H 0.22500 0.08409 0.72543
 C2849 C 0.29883 0.59160 0.29931
 C2850 C 0.30143 0.59018 0.28415
 C2851 C 0.29540 0.57913 0.27858
 C2852 C 0.28738 0.57058 0.28871
 C2853 C 0.27734 0.58046 0.29521
 C2854 C 0.28337 0.59152 0.30078
 C2855 C 0.30354 0.57815 0.30547
 C2856 C 0.29752 0.56710 0.29990
 C2857 C 0.30528 0.60351 0.30531
 C2858 C 0.31045 0.61334 0.31027
 C2859 C 0.28101 0.55864 0.28268
 C2860 C 0.27605 0.54872 0.27765
 H2861 H 0.30744 0.59725 0.27830
 H2862 H 0.29623 0.57674 0.26794
 H2863 H 0.26648 0.57892 0.29542
 H2864 H 0.27767 0.59945 0.30577
 H2865 H 0.31093 0.57738 0.31351
 H2866 H 0.29973 0.55686 0.30319
 C2867 C 0.29888 0.09152 0.79927
 C2868 C 0.30286 0.08915 0.78453
 C2869 C 0.29718 0.07785 0.77907
 C2870 C 0.28807 0.07004 0.78888
 C2871 C 0.27767 0.08044 0.79382
 C2872 C 0.28335 0.09174 0.79928
 C2873 C 0.30273 0.07840 0.80661
 C2874 C 0.29705 0.06711 0.80115
 C2875 C 0.30502 0.10365 0.80520
 C2876 C 0.31004 0.11358 0.81019
 C2877 C 0.28201 0.05786 0.78297
 C2878 C 0.27717 0.04782 0.77804
 H2879 H 0.30952 0.09577 0.77886
 H2880 H 0.29898 0.07480 0.76873
 H2881 H 0.26680 0.07907 0.79309
 H2882 H 0.27735 0.10005 0.80320
 H2883 H 0.30933 0.07801 0.81534
 H2884 H 0.29877 0.05705 0.80522
 C2885 C 0.79883 0.59160 0.79945
 C2886 C 0.80238 0.58949 0.78456
 C2887 C 0.79646 0.57836 0.77904
 C2888 C 0.78755 0.57043 0.78895
 C2889 C 0.77737 0.58081 0.79437
 C2890 C 0.78331 0.59194 0.79989
 C2891 C 0.80276 0.57830 0.80643
 C2892 C 0.79683 0.56717 0.80091
 C2893 C 0.80519 0.60357 0.80542
 C2894 C 0.81036 0.61340 0.81042
 C2895 C 0.78127 0.55842 0.78296
 C2896 C 0.77634 0.54847 0.77797
 H2897 H 0.80897 0.59615 0.77886
 H2898 H 0.79795 0.57550 0.76860
 H2899 H 0.76648 0.57952 0.79394
 H2900 H 0.77749 0.60020 0.80419
 H2901 H 0.80958 0.57769 0.81497
 H2902 H 0.79856 0.55703 0.80474
 C2903 C 0.79882 0.09147 0.29907
 C2904 C 0.80269 0.08912 0.28430
 C2905 C 0.79677 0.07798 0.27879
 C2906 C 0.78757 0.07027 0.28860
 C2907 C 0.77738 0.08083 0.29366
 C2908 C 0.78330 0.09198 0.29917
 C2909 C 0.80247 0.07823 0.30631
 C2910 C 0.79655 0.06709 0.30081
 C2911 C 0.80519 0.10345 0.30503
 C2912 C 0.81036 0.11329 0.31001
 C2913 C 0.78130 0.05824 0.28265
 C2914 C 0.77639 0.04826 0.27769
 H2915 H 0.80945 0.09565 0.27864
 H2916 H 0.79845 0.07497 0.26842
 H2917 H 0.76648 0.07965 0.29299
 H2918 H 0.77748 0.10035 0.30321
 H2919 H 0.80908 0.07766 0.31501
 H2920 H 0.79808 0.05698 0.30481
 C2921 C 0.70124 0.40830 0.29963
 C2922 C 0.71459 0.41223 0.30650
 C2923 C 0.72055 0.42340 0.30105
 C2924 C 0.71258 0.42954 0.28928
 C2925 C 0.69838 0.43222 0.29493
 C2926 C 0.69242 0.42106 0.30037
 C2927 C 0.70478 0.40673 0.28468
 C2928 C 0.71074 0.41789 0.27923
 C2929 C 0.69482 0.39630 0.30551
 C2930 C 0.68960 0.38645 0.31045
 C2931 C 0.71889 0.44159 0.28337
 C2932 C 0.72382 0.45159 0.27844
 H2933 H 0.71896 0.40673 0.31490
 H2934 H 0.73003 0.42746 0.30479
 H2935 H 0.69345 0.44204 0.29473
 H2936 H 0.68239 0.42131 0.30482
 H2937 H 0.70281 0.39764 0.27888
 H2938 H 0.71388 0.41837 0.26877
 C2939 C 0.70085 0.90821 0.79886
 C2940 C 0.71429 0.91235 0.80541
 C2941 C 0.72012 0.92338 0.79959
 C2942 C 0.71195 0.92920 0.78779
 C2943 C 0.69782 0.93198 0.79358
 C2944 C 0.69199 0.92095 0.79940
 C2945 C 0.70417 0.90626 0.78389
 C2946 C 0.71001 0.91730 0.77807
 C2947 C 0.69459 0.89634 0.80514
 C2948 C 0.68949 0.88656 0.81032
 C2949 C 0.71816 0.94115 0.78159
 C2950 C 0.72313 0.95112 0.77665
 H2951 H 0.71883 0.90705 0.81386
 H2952 H 0.72968 0.92753 0.80304
 H2953 H 0.69284 0.94176 0.79314
 H2954 H 0.68201 0.92127 0.80395
 H2955 H 0.70214 0.89701 0.77836
 H2956 H 0.71299 0.91751 0.76755
 C2957 C 0.20076 0.40800 0.79882
 C2958 C 0.21339 0.40469 0.79045
 C2959 C 0.21920 0.41576 0.78465
 C2960 C 0.21181 0.42904 0.78780
 C2961 C 0.21124 0.42973 0.80322
 C2962 C 0.20544 0.41867 0.80902
 C2963 C 0.19132 0.41560 0.78915
 C2964 C 0.19713 0.42666 0.78335
 C2965 C 0.19453 0.39609 0.80506
 C2966 C 0.18946 0.38629 0.81020
 C2967 C 0.21801 0.44100 0.78162
 C2968 C 0.22300 0.45096 0.77668
 H2969 H 0.21741 0.39455 0.78918
 H2970 H 0.22819 0.41510 0.77842
 H2971 H 0.21511 0.43815 0.80908
 H2972 H 0.20431 0.41761 0.81984
 H2973 H 0.18100 0.41254 0.78701
 H2974 H 0.19179 0.43307 0.77624
 C2975 C 0.20109 0.90858 0.29915
 C2976 C 0.19129 0.91763 0.29124
 C2977 C 0.19729 0.92873 0.28573
 C2978 C 0.21250 0.92970 0.28865
 C2979 C 0.21845 0.91627 0.28365
 C2980 C 0.21245 0.90516 0.28917
 C2981 C 0.20767 0.91796 0.30957
 C2982 C 0.21367 0.92907 0.30405
 C2983 C 0.19464 0.89662 0.30510
 C2984 C 0.18944 0.88678 0.31005
 C2985 C 0.21885 0.94170 0.28267
 C2986 C 0.22382 0.95164 0.27768
 H2987 H 0.18058 0.91552 0.29009
 H2988 H 0.19171 0.93613 0.27985
 H2989 H 0.22668 0.91555 0.27646
 H2990 H 0.21553 0.89492 0.28669
 H2991 H 0.20763 0.91604 0.32033
 H2992 H 0.21879 0.93665 0.31008
 C2993 C 0.40811 0.29885 0.70099
 C2994 C 0.41155 0.28492 0.69507
 C2995 C 0.42280 0.27916 0.70058
 C2996 C 0.42950 0.28790 0.71146
 C2997 C 0.41825 0.29075 0.72173
 C2998 C 0.40701 0.29651 0.71623
 C2999 C 0.42098 0.30732 0.69911
 C3000 C 0.43222 0.30156 0.70462
 C3001 C 0.39602 0.30504 0.69504
 C3002 C 0.38610 0.31009 0.69007
 C3003 C 0.44161 0.28177 0.71743
 C3004 C 0.45162 0.27689 0.72239
 H3005 H 0.40568 0.28002 0.68724
 H3006 H 0.42656 0.26933 0.69746
 H3007 H 0.41905 0.28843 0.73239
 H3008 H 0.39817 0.29912 0.72217
 H3009 H 0.42125 0.31697 0.69390
 H3010 H 0.44212 0.30628 0.70410
 C3011 C 0.40841 0.79891 0.20080
 C3012 C 0.41808 0.79277 0.19037
 C3013 C 0.42933 0.78705 0.19589
 C3014 C 0.42981 0.78803 0.21130
 C3015 C 0.41654 0.78160 0.21614
 C3016 C 0.40529 0.78733 0.21062
 C3017 C 0.41709 0.80889 0.20887
 C3018 C 0.42834 0.80317 0.21439
 C3019 C 0.39632 0.80510 0.19483
 C3020 C 0.38642 0.81018 0.18986
 C3021 C 0.44193 0.78194 0.21729
 C3022 C 0.45192 0.77706 0.22227
 H3023 H 0.41624 0.79287 0.17960
 H3024 H 0.43713 0.78226 0.18985
 H3025 H 0.41604 0.77327 0.22325
 H3026 H 0.39514 0.78389 0.21301
 H3027 H 0.41463 0.81952 0.21014
 H3028 H 0.43552 0.80890 0.22038
 C3029 C 0.90835 0.29916 0.20068
 C3030 C 0.91420 0.30721 0.21253
 C3031 C 0.92544 0.30147 0.21806
 C3032 C 0.92972 0.28823 0.21120
 C3033 C 0.93136 0.29186 0.19627
 C3034 C 0.92013 0.29761 0.19074
 C3035 C 0.90592 0.28488 0.20627
 C3036 C 0.91716 0.27913 0.21180
 C3037 C 0.89626 0.30536 0.19470
 C3038 C 0.88635 0.31040 0.18970
 C3039 C 0.94183 0.28211 0.21718
 C3040 C 0.95183 0.27723 0.22215
 H3041 H 0.90990 0.31659 0.21626
 H3042 H 0.93076 0.30593 0.22652
 H3043 H 0.94053 0.29005 0.19053
 H3044 H 0.91968 0.30073 0.18027
 H3045 H 0.89623 0.27973 0.20592
 H3046 H 0.91710 0.26905 0.21617
 C3047 C 0.90827 0.79910 0.70085
 C3048 C 0.91168 0.78517 0.69492
 C3049 C 0.92289 0.77936 0.70044
 C3050 C 0.92960 0.78806 0.71134
 C3051 C 0.91836 0.79094 0.72160
 C3052 C 0.90714 0.79674 0.71608
 C3053 C 0.92118 0.80752 0.69901
 C3054 C 0.93239 0.80172 0.70452
 C3055 C 0.89621 0.80535 0.69488
 C3056 C 0.88633 0.81045 0.68990
 C3057 C 0.94170 0.78190 0.71732
 C3058 C 0.95169 0.77700 0.72230
 H3059 H 0.90580 0.78030 0.68707
 H3060 H 0.92663 0.76953 0.69730
 H3061 H 0.91913 0.78860 0.73225
 H3062 H 0.89831 0.79938 0.72202
 H3063 H 0.92149 0.81718 0.69380
 H3064 H 0.94231 0.80640 0.70402
 C3065 C 0.59165 0.29848 0.29947
 C3066 C 0.57899 0.30746 0.29964
 C3067 C 0.56794 0.30152 0.29399
 C3068 C 0.57063 0.28718 0.28872
 C3069 C 0.57631 0.27937 0.30083
 C3070 C 0.58736 0.28531 0.30649
 C3071 C 0.59365 0.29461 0.28464
 C3072 C 0.58260 0.28867 0.27899
 C3073 C 0.60354 0.30489 0.30554
 C3074 C 0.61332 0.31011 0.31056
 C3075 C 0.55870 0.28089 0.28261
 C3076 C 0.54878 0.27595 0.27756
 H3077 H 0.57872 0.31758 0.30387
 H3078 H 0.55820 0.30655 0.29338
 H3079 H 0.57203 0.26999 0.30463
 H3080 H 0.59256 0.28104 0.31514
 H3081 H 0.60294 0.29636 0.27909
 H3082 H 0.58242 0.28531 0.26859
 C3083 C 0.59169 0.79917 0.79897
 C3084 C 0.58180 0.79284 0.80907
 C3085 C 0.57079 0.78704 0.80318
 C3086 C 0.57076 0.78814 0.78777
 C3087 C 0.58424 0.78189 0.78328
 C3088 C 0.59525 0.78770 0.78918
 C3089 C 0.58314 0.80912 0.79069
 C3090 C 0.57214 0.80332 0.78480
 C3091 C 0.60353 0.80539 0.80531
 C3092 C 0.61331 0.81046 0.81049
 C3093 C 0.55884 0.78196 0.78152
 C3094 C 0.54888 0.77700 0.77657
 H3095 H 0.58331 0.79289 0.81990
 H3096 H 0.56289 0.78210 0.80896
 H3097 H 0.58507 0.77365 0.77612
 H3098 H 0.60551 0.78443 0.78706
 H3099 H 0.58553 0.81978 0.78955
 H3100 H 0.56511 0.80901 0.77858
 C3101 C 0.09145 0.29843 0.79965
 C3102 C 0.09231 0.29655 0.78434
 C3103 C 0.08112 0.29067 0.77890
 C3104 C 0.07016 0.28724 0.78930
 C3105 C 0.06721 0.30063 0.79655
 C3106 C 0.07841 0.30651 0.80199
 C3107 C 0.08849 0.28426 0.80527
 C3108 C 0.07729 0.27837 0.79983
 C3109 C 0.10349 0.30475 0.80551
 C3110 C 0.11339 0.30989 0.81039
 C3111 C 0.05810 0.28099 0.78339
 C3112 C 0.04811 0.27609 0.77844
 H3113 H 0.10096 0.29955 0.77831
 H3114 H 0.08019 0.28862 0.76821
 H3115 H 0.05720 0.30506 0.79739
 H3116 H 0.07799 0.31599 0.80748
 H3117 H 0.09463 0.27930 0.81287
 H3118 H 0.07383 0.26837 0.80277
 C3119 C 0.09140 0.79870 0.29924
 C3120 C 0.09222 0.79680 0.28393
 C3121 C 0.08101 0.79090 0.27854
 C3122 C 0.07008 0.78749 0.28897
 C3123 C 0.06715 0.80089 0.29621
 C3124 C 0.07836 0.80679 0.30160
 C3125 C 0.08845 0.78454 0.30490
 C3126 C 0.07724 0.77864 0.29950
 C3127 C 0.10345 0.80504 0.30507
 C3128 C 0.11335 0.81019 0.30996
 C3129 C 0.05800 0.78123 0.28311
 C3130 C 0.04800 0.77632 0.27820
 H3131 H 0.10085 0.79980 0.27787
 H3132 H 0.08004 0.78884 0.26785
 H3133 H 0.05714 0.80532 0.29707
 H3134 H 0.07795 0.81628 0.30707
 H3135 H 0.09462 0.77960 0.31249
 H3136 H 0.07379 0.76865 0.30247
 C3137 C 0.59165 0.70122 0.70137
 C3138 C 0.59184 0.71675 0.70097
 C3139 C 0.58083 0.72256 0.70684
 C3140 C 0.57070 0.71228 0.71254
 C3141 C 0.57899 0.70340 0.72219
 C3142 C 0.59000 0.69759 0.71631
 C3143 C 0.57820 0.69720 0.69478
 C3144 C 0.56719 0.70301 0.70066
 C3145 C 0.60350 0.69496 0.69504
 C3146 C 0.61325 0.68983 0.68985
 C3147 C 0.55878 0.71849 0.71880
 C3148 C 0.54885 0.72349 0.72377
 H3149 H 0.59992 0.72265 0.69647
 H3150 H 0.57948 0.73345 0.70740
 H3151 H 0.57646 0.70186 0.73271
 H3152 H 0.59690 0.69105 0.72179
 H3153 H 0.57739 0.69039 0.68625
 H3154 H 0.55695 0.70118 0.69716
 C3155 C 0.59190 0.20107 0.20051
 C3156 C 0.59394 0.21582 0.20490
 C3157 C 0.58269 0.22152 0.21047
 C3158 C 0.57052 0.21190 0.21112
 C3159 C 0.57566 0.19940 0.21875
 C3160 C 0.58689 0.19371 0.21318
 C3161 C 0.57966 0.20140 0.19101
 C3162 C 0.56842 0.20709 0.19658
 C3163 C 0.60398 0.19490 0.19451
 C3164 C 0.61388 0.18982 0.18954
 C3165 C 0.55841 0.21797 0.21716
 C3166 C 0.54841 0.22282 0.22216
 H3167 H 0.60337 0.22132 0.20371
 H3168 H 0.58250 0.23189 0.21406
 H3169 H 0.57090 0.19538 0.22775
 H3170 H 0.59176 0.18483 0.21741
 H3171 H 0.57982 0.19755 0.18078
 H3172 H 0.55896 0.20811 0.19113
 C3173 C 0.09128 0.70147 0.20017
 C3174 C 0.08099 0.69128 0.20573
 C3175 C 0.06981 0.69718 0.21118
 C3176 C 0.07001 0.71270 0.21054
 C3177 C 0.07208 0.71610 0.19560
 C3178 C 0.08327 0.71019 0.19015
 C3179 C 0.09444 0.71094 0.21200
 C3180 C 0.08326 0.71684 0.21745
 C3181 C 0.10332 0.69513 0.19430
 C3182 C 0.11323 0.69000 0.18940
 C3183 C 0.05796 0.71897 0.21646
 C3184 C 0.04797 0.72387 0.22141
 H3185 H 0.08234 0.68038 0.20539
 H3186 H 0.06158 0.69135 0.21550
 H3187 H 0.06536 0.72256 0.18982
 H3188 H 0.08613 0.71159 0.17969
 H3189 H 0.10457 0.71285 0.21575
 H3190 H 0.08380 0.72382 0.22586
 C3191 C 0.09142 0.20090 0.70050
 C3192 C 0.08108 0.19075 0.70606
 C3193 C 0.06990 0.19670 0.71145
 C3194 C 0.07014 0.21222 0.71076
 C3195 C 0.07228 0.21556 0.69582
 C3196 C 0.08347 0.20961 0.69043
 C3197 C 0.09457 0.21039 0.71231
 C3198 C 0.08338 0.21635 0.71770
 C3199 C 0.10345 0.19449 0.69469
 C3200 C 0.11333 0.18928 0.68982
 C3201 C 0.05808 0.21852 0.71662
 C3202 C 0.04810 0.22346 0.72154
 H3203 H 0.08242 0.17985 0.70576
 H3204 H 0.06165 0.19089 0.71577
 H3205 H 0.06560 0.22203 0.69000
 H3206 H 0.08638 0.21098 0.67998
 H3207 H 0.10469 0.21230 0.71608
 H3208 H 0.08392 0.22336 0.72609
 C3209 C 0.40840 0.70118 0.29933
 C3210 C 0.42008 0.70329 0.30929
 C3211 C 0.43114 0.70929 0.30370
 C3212 C 0.42944 0.71260 0.28869
 C3213 C 0.41660 0.72129 0.28789
 C3214 C 0.40553 0.71528 0.29348
 C3215 C 0.41456 0.69311 0.28765
 C3216 C 0.42562 0.69911 0.28206
 C3217 C 0.39648 0.69475 0.30534
 C3218 C 0.38663 0.68959 0.31030
 C3219 C 0.44140 0.71896 0.28265
 C3220 C 0.45133 0.72393 0.27764
 H3221 H 0.41968 0.70034 0.31982
 H3222 H 0.44021 0.71151 0.30944
 H3223 H 0.41622 0.73128 0.28334
 H3224 H 0.39567 0.72012 0.29372
 H3225 H 0.41058 0.68353 0.28408
 H3226 H 0.43110 0.69468 0.27369
 C3227 C 0.40823 0.20130 0.79952
 C3228 C 0.40659 0.20463 0.78452
 C3229 C 0.41772 0.21052 0.77894
 C3230 C 0.42941 0.21250 0.78891
 C3231 C 0.43212 0.19838 0.79477
 C3232 C 0.42099 0.19249 0.80035
 C3233 C 0.41218 0.21475 0.80616
 C3234 C 0.42332 0.22065 0.80058
 C3235 C 0.39624 0.19497 0.80552
 C3236 C 0.38638 0.18982 0.81049
 C3237 C 0.44143 0.21876 0.78288
 C3238 C 0.45138 0.22370 0.77786
 H3239 H 0.39747 0.20257 0.77878
 H3240 H 0.41813 0.21351 0.76843
 H3241 H 0.44193 0.19345 0.79458
 H3242 H 0.42127 0.18252 0.80493
 H3243 H 0.40671 0.21925 0.81451
 H3244 H 0.42738 0.23019 0.80414
 C3245 C 0.90830 0.70132 0.79942
 C3246 C 0.91995 0.70335 0.80943
 C3247 C 0.93108 0.70929 0.80389
 C3248 C 0.92946 0.71260 0.78887
 C3249 C 0.91667 0.72136 0.78801
 C3250 C 0.90554 0.71543 0.79355
 C3251 C 0.91446 0.69320 0.78778
 C3252 C 0.92558 0.69913 0.78224
 C3253 C 0.89633 0.69494 0.80540
 C3254 C 0.88651 0.68976 0.81041
 C3255 C 0.94147 0.71889 0.78286
 C3256 C 0.95140 0.72385 0.77785
 H3257 H 0.91949 0.70041 0.81996
 H3258 H 0.94014 0.71144 0.80967
 H3259 H 0.91638 0.73135 0.78347
 H3260 H 0.89572 0.72033 0.79375
 H3261 H 0.91043 0.68364 0.78419
 H3262 H 0.93109 0.69465 0.77390
 C3263 C 0.90828 0.20131 0.29901
 C3264 C 0.90666 0.20469 0.28401
 C3265 C 0.91778 0.21064 0.27848
 C3266 C 0.92944 0.21262 0.28848
 C3267 C 0.93219 0.19849 0.29430
 C3268 C 0.92107 0.19255 0.29983
 C3269 C 0.91217 0.21476 0.30570
 C3270 C 0.92329 0.22071 0.30016
 C3271 C 0.89632 0.19492 0.30499
 C3272 C 0.88649 0.18974 0.31000
 C3273 C 0.94145 0.21894 0.28250
 C3274 C 0.95139 0.22391 0.27752
 H3275 H 0.89757 0.20261 0.27824
 H3276 H 0.91821 0.21366 0.26798
 H3277 H 0.94202 0.19360 0.29412
 H3278 H 0.92136 0.18255 0.30437
 H3279 H 0.90666 0.21922 0.31404
 H3280 H 0.92732 0.23026 0.30377
 C3281 C 0.29844 0.29969 0.59151
 C3282 C 0.30354 0.30576 0.57822
 C3283 C 0.29770 0.30020 0.56711
 C3284 C 0.28733 0.28912 0.57038
 C3285 C 0.27716 0.29583 0.57995
 C3286 C 0.28301 0.30140 0.59107
 C3287 C 0.30086 0.28441 0.59021
 C3288 C 0.29502 0.27885 0.57910
 C3289 C 0.30473 0.30564 0.60347
 C3290 C 0.30987 0.31052 0.61332
 C3291 C 0.28112 0.28310 0.55841
 C3292 C 0.27623 0.27810 0.54849
 H3293 H 0.31105 0.31375 0.57759
 H3294 H 0.30020 0.30342 0.55696
 H3295 H 0.26634 0.29623 0.57813
 H3296 H 0.27719 0.30657 0.59877
 H3297 H 0.30666 0.27848 0.59738
 H3298 H 0.29581 0.26816 0.57676
 C3299 C 0.29882 0.79943 0.09129
 C3300 C 0.28843 0.78834 0.09447
 C3301 C 0.28264 0.78280 0.08331
 C3302 C 0.28781 0.78889 0.07005
 C3303 C 0.30323 0.78721 0.07058
 C3304 C 0.30902 0.79275 0.08174
 C3305 C 0.29115 0.80971 0.08254
 C3306 C 0.28537 0.80417 0.07138
 C3307 C 0.30508 0.80542 0.10329
 C3308 C 0.31022 0.81040 0.11312
 C3309 C 0.28167 0.78290 0.05800
 C3310 C 0.27683 0.77794 0.04801
 H3311 H 0.28583 0.78513 0.10461
 H3312 H 0.27508 0.77486 0.08388
 H3313 H 0.30910 0.78212 0.06286
 H3314 H 0.31984 0.79239 0.08357
 H3315 H 0.29032 0.82040 0.08493
 H3316 H 0.27957 0.81011 0.06422
 C3317 C 0.79928 0.29900 0.09116
 C3318 C 0.78903 0.28778 0.09436
 C3319 C 0.78353 0.28194 0.08320
 C3320 C 0.78881 0.28790 0.06993
 C3321 C 0.80425 0.28648 0.07073
 C3322 C 0.80975 0.29231 0.08189
 C3323 C 0.79160 0.30899 0.08212
 C3324 C 0.78611 0.30316 0.07097
 C3325 C 0.80523 0.30529 0.10316
 C3326 C 0.81018 0.31045 0.11299
 C3327 C 0.78285 0.28172 0.05788
 C3328 C 0.77788 0.27683 0.04792
 H3329 H 0.78635 0.28467 0.10450
 H3330 H 0.77616 0.27383 0.08379
 H3331 H 0.81033 0.28132 0.06322
 H3332 H 0.82054 0.29215 0.08393
 H3333 H 0.79057 0.31970 0.08429
 H3334 H 0.78038 0.30889 0.06358
 C3335 C 0.79911 0.79894 0.59160
 C3336 C 0.78886 0.78771 0.59474
 C3337 C 0.78340 0.78191 0.58355
 C3338 C 0.78872 0.78790 0.57031
 C3339 C 0.80416 0.78648 0.57115
 C3340 C 0.80962 0.79229 0.58234
 C3341 C 0.79147 0.80896 0.58256
 C3342 C 0.78601 0.80316 0.57138
 C3343 C 0.80502 0.80520 0.60363
 C3344 C 0.80994 0.81033 0.61349
 C3345 C 0.78279 0.78174 0.55824
 C3346 C 0.77783 0.77686 0.54827
 H3347 H 0.78614 0.78458 0.60486
 H3348 H 0.77602 0.77379 0.58408
 H3349 H 0.81026 0.78135 0.56365
 H3350 H 0.82040 0.79212 0.58442
 H3351 H 0.79042 0.81966 0.58476
 H3352 H 0.78030 0.80890 0.56398
 C3353 C 0.29927 0.70157 0.40824
 C3354 C 0.29656 0.71677 0.40652
 C3355 C 0.29107 0.72269 0.41763
 C3356 C 0.28884 0.71282 0.42936
 C3357 C 0.30273 0.70638 0.43193
 C3358 C 0.30822 0.70046 0.42081
 C3359 C 0.28562 0.69548 0.41239
 C3360 C 0.28014 0.70140 0.42350
 C3361 C 0.30518 0.69520 0.39629
 C3362 C 0.31010 0.69002 0.38647
 C3363 C 0.28289 0.71909 0.44135
 C3364 C 0.27791 0.72401 0.45127
 H3365 H 0.29875 0.72238 0.39737
 H3366 H 0.28857 0.73338 0.41802
 H3367 H 0.30783 0.70648 0.44161
 H3368 H 0.31800 0.69547 0.42098
 H3369 H 0.28069 0.68726 0.40708
 H3370 H 0.27050 0.69825 0.42770
 C3371 C 0.29967 0.20141 0.90890
 C3372 C 0.29975 0.19226 0.92139
 C3373 C 0.29432 0.19820 0.93252
 C3374 C 0.28935 0.21272 0.93008
 C3375 C 0.27943 0.21163 0.91824
 C3376 C 0.28485 0.20569 0.90711
 C3377 C 0.30708 0.21434 0.91327
 C3378 C 0.30165 0.22028 0.92441
 C3379 C 0.30550 0.19500 0.89692
 C3380 C 0.31034 0.18978 0.88708
 C3381 C 0.28345 0.21900 0.94208
 C3382 C 0.27851 0.22391 0.95204
 H3383 H 0.30377 0.18204 0.92150
 H3384 H 0.29371 0.19307 0.94217
 H3385 H 0.26906 0.21525 0.91857
 H3386 H 0.27913 0.20422 0.89790
 H3387 H 0.31583 0.21844 0.90808
 H3388 H 0.30576 0.22947 0.92876
 C3389 C 0.79975 0.70144 0.90876
 C3390 C 0.79708 0.71666 0.90706
 C3391 C 0.79168 0.72260 0.91821
 C3392 C 0.78948 0.71274 0.92995
 C3393 C 0.80338 0.70626 0.93243
 C3394 C 0.80877 0.70031 0.92128
 C3395 C 0.78611 0.69541 0.91301
 C3396 C 0.78071 0.70134 0.92415
 C3397 C 0.80556 0.69505 0.89677
 C3398 C 0.81038 0.68985 0.88691
 C3399 C 0.78361 0.71903 0.94197
 C3400 C 0.77867 0.72394 0.95193
 H3401 H 0.79926 0.72227 0.89791
 H3402 H 0.78925 0.73330 0.91862
 H3403 H 0.80854 0.70636 0.94207
 H3404 H 0.81855 0.69531 0.92138
 H3405 H 0.78112 0.68719 0.90773
 H3406 H 0.77110 0.69822 0.92841
 C3407 C 0.79931 0.20103 0.40834
 C3408 C 0.79420 0.21551 0.40602
 C3409 C 0.78869 0.22130 0.41721
 C3410 C 0.78882 0.21203 0.42962
 C3411 C 0.80369 0.20789 0.43139
 C3412 C 0.80919 0.20210 0.42021
 C3413 C 0.78707 0.19330 0.41393
 C3414 C 0.78156 0.19908 0.42511
 C3415 C 0.80525 0.19479 0.39631
 C3416 C 0.81018 0.18968 0.38644
 C3417 C 0.78284 0.21819 0.44168
 C3418 C 0.77785 0.22307 0.45163
 H3419 H 0.79486 0.22077 0.39644
 H3420 H 0.78465 0.23151 0.41720
 H3421 H 0.80939 0.20938 0.44060
 H3422 H 0.81961 0.19863 0.41986
 H3423 H 0.78307 0.18409 0.40950
 H3424 H 0.77286 0.19482 0.43024
 C3425 C 0.70061 0.29820 0.40846
 C3426 C 0.71064 0.28681 0.40519
 C3427 C 0.71617 0.28092 0.41631
 C3428 C 0.71112 0.28699 0.42960
 C3429 C 0.69566 0.28582 0.42898
 C3430 C 0.69013 0.29172 0.41787
 C3431 C 0.70853 0.30810 0.41736
 C3432 C 0.71406 0.30220 0.42848
 C3433 C 0.69467 0.30456 0.39651
 C3434 C 0.68976 0.30974 0.38668
 C3435 C 0.71711 0.28076 0.44159
 C3436 C 0.72211 0.27589 0.45154
 H3437 H 0.71315 0.28364 0.39503
 H3438 H 0.72341 0.27268 0.41568
 H3439 H 0.68959 0.28078 0.43659
 H3440 H 0.67931 0.29174 0.41595
 H3441 H 0.70969 0.31879 0.41515
 H3442 H 0.71995 0.30785 0.43578
 C3443 C 0.70041 0.79841 0.90856
 C3444 C 0.71043 0.78697 0.90543
 C3445 C 0.71583 0.78110 0.91662
 C3446 C 0.71067 0.78725 0.92984
 C3447 C 0.69520 0.78612 0.92908
 C3448 C 0.68981 0.79199 0.91788
 C3449 C 0.70826 0.80831 0.91750
 C3450 C 0.71366 0.80244 0.92869
 C3451 C 0.69460 0.80473 0.89652
 C3452 C 0.68976 0.80990 0.88665
 C3453 C 0.71653 0.78103 0.94190
 C3454 C 0.72146 0.77617 0.95189
 H3455 H 0.71303 0.78375 0.89531
 H3456 H 0.72304 0.77283 0.91610
 H3457 H 0.68904 0.78114 0.93665
 H3458 H 0.67901 0.79205 0.91586
 H3459 H 0.70946 0.81900 0.91527
 H3460 H 0.71947 0.80810 0.93605
 C3461 C 0.20012 0.29842 0.90884
 C3462 C 0.19504 0.30451 0.92211
 C3463 C 0.20050 0.29859 0.93325
 C3464 C 0.21051 0.28717 0.93002
 C3465 C 0.22105 0.29361 0.92066
 C3466 C 0.21559 0.29953 0.90952
 C3467 C 0.19712 0.28322 0.90995
 C3468 C 0.20258 0.27730 0.92109
 C3469 C 0.19425 0.30479 0.89686
 C3470 C 0.18937 0.30998 0.88701
 C3471 C 0.21643 0.28091 0.94203
 C3472 C 0.22138 0.27603 0.95200
 H3473 H 0.18776 0.31271 0.92271
 H3474 H 0.19789 0.30172 0.94339
 H3475 H 0.23185 0.29352 0.92260
 H3476 H 0.22171 0.30451 0.90192
 H3477 H 0.19120 0.27761 0.90263
 H3478 H 0.20134 0.26662 0.92333
 C3479 C 0.20063 0.79883 0.40818
 C3480 C 0.19555 0.80503 0.42140
 C3481 C 0.20107 0.79928 0.43260
 C3482 C 0.21115 0.78789 0.42948
 C3483 C 0.22162 0.79429 0.42001
 C3484 C 0.21610 0.80005 0.40882
 C3485 C 0.19774 0.78363 0.40947
 C3486 C 0.20326 0.77787 0.42067
 C3487 C 0.19466 0.80504 0.39615
 C3488 C 0.18969 0.81015 0.38630
 C3489 C 0.21713 0.78177 0.44155
 C3490 C 0.22212 0.77690 0.45152
 H3491 H 0.18824 0.81322 0.42193
 H3492 H 0.19848 0.80253 0.44271
 H3493 H 0.23243 0.79427 0.42192
 H3494 H 0.22218 0.80496 0.40114
 H3495 H 0.19188 0.77789 0.40221
 H3496 H 0.20212 0.76720 0.42301
 C3497 C 0.70056 0.70186 0.59171
 C3498 C 0.70883 0.71463 0.59479
 C3499 C 0.71435 0.72050 0.58365
 C3500 C 0.71105 0.71302 0.57052
 C3501 C 0.69555 0.71222 0.57011
 C3502 C 0.69003 0.70635 0.58126
 C3503 C 0.71027 0.69255 0.58401
 C3504 C 0.71578 0.69842 0.57287
 C3505 C 0.69464 0.69553 0.60370
 C3506 C 0.68974 0.69035 0.61355
 C3507 C 0.71704 0.71923 0.55850
 C3508 C 0.72204 0.72411 0.54854
 H3509 H 0.71021 0.71871 0.60484
 H3510 H 0.72044 0.72962 0.58415
 H3511 H 0.68944 0.71598 0.56183
 H3512 H 0.67920 0.70507 0.58251
 H3513 H 0.71261 0.68225 0.58703
 H3514 H 0.72285 0.69314 0.56636
 C3515 C 0.70084 0.20143 0.09119
 C3516 C 0.69162 0.21205 0.08462
 C3517 C 0.69715 0.21803 0.07354
 C3518 C 0.71136 0.21280 0.07012
 C3519 C 0.70977 0.19741 0.06881
 C3520 C 0.70425 0.19143 0.07988
 C3521 C 0.71414 0.20890 0.09408
 C3522 C 0.71967 0.21488 0.08300
 C3523 C 0.69489 0.19500 0.10312
 C3524 C 0.68995 0.18977 0.11293
 C3525 C 0.71734 0.21912 0.05815
 C3526 C 0.72233 0.22406 0.04821
 H3527 H 0.68163 0.21465 0.08834
 H3528 H 0.69190 0.22576 0.06778
 H3529 H 0.71272 0.19170 0.05995
 H3530 H 0.70247 0.18061 0.08051
 H3531 H 0.71880 0.20945 0.10396
 H3532 H 0.72905 0.22056 0.08340
 C3533 C 0.20144 0.70079 0.09123
 C3534 C 0.20463 0.69042 0.08018
 C3535 C 0.21064 0.69592 0.06910
 C3536 C 0.21287 0.71125 0.07015
 C3537 C 0.22101 0.71323 0.08316
 C3538 C 0.21500 0.70773 0.09424
 C3539 C 0.19283 0.71166 0.08427
 C3540 C 0.19884 0.71716 0.07320
 C3541 C 0.19498 0.69486 0.10316
 C3542 C 0.18974 0.68994 0.11297
 C3543 C 0.21923 0.71722 0.05818
 C3544 C 0.22418 0.72222 0.04826
 H3545 H 0.20239 0.67970 0.08100
 H3546 H 0.21356 0.68990 0.06044
 H3547 H 0.23066 0.71845 0.08363
 H3548 H 0.21949 0.70826 0.10420
 H3549 H 0.18290 0.71478 0.08774
 H3550 H 0.19404 0.72498 0.06718
 C3551 C 0.20118 0.19992 0.59164
 C3552 C 0.21188 0.19081 0.58507
 C3553 C 0.21774 0.19638 0.57395
 C3554 C 0.21232 0.21052 0.57048
 C3555 C 0.21435 0.21889 0.58333
 C3556 C 0.20849 0.21332 0.59445
 C3557 C 0.19109 0.20316 0.58034
 C3558 C 0.19694 0.20873 0.56923
 C3559 C 0.19488 0.19396 0.60362
 C3560 C 0.18974 0.18905 0.61349
 C3561 C 0.21855 0.21656 0.55850
 C3562 C 0.22347 0.22160 0.54859
 H3563 H 0.21460 0.18085 0.58882
 H3564 H 0.22548 0.19119 0.56817
 H3565 H 0.21992 0.22834 0.58367
 H3566 H 0.20905 0.21801 0.60431
 H3567 H 0.18030 0.20121 0.58100
 H3568 H 0.19117 0.21154 0.56036
   
