data_POSCAR
  _audit_creation_date              2014-09-24
  _audit_creation_method            'ToBaCCo'
  _symmetry_space_group_name_H-M    'P1'
  _symmetry_Int_Tables_number       1
  _symmetry_cell_setting            triclinic
  loop_
  _symmetry_equiv_pos_as_xyz
 x,y,z
_cell_length_a 51.1606
_cell_length_b 51.2198
_cell_length_c 51.1921
_cell_angle_alpha 90.010100
_cell_angle_beta 90.002500
_cell_angle_gamma 89.955500
loop_
  _atom_site_label
  _atom_site_type_symbol
  _atom_site_fract_x
  _atom_site_fract_y
  _atom_site_fract_z
C1 C 0.25779 0.94540 -0.02456
 C2 C 0.26015 0.93257 -0.00041
 C3 C 0.25672 0.94567 0.02326
 C4 C 0.25235 0.97291 0.02332
 C5 C 0.25153 0.98677 -0.00065
 C6 C 0.25397 0.97301 -0.02468
 C7 C 0.25376 0.98746 -0.04802
 C8 C 0.24929 1.01420 -0.04801
 C9 C 0.24720 1.02839 -0.02456
 C10 C 0.24818 1.01446 -0.00056
 C11 C 0.24885 0.98662 0.04678
 C12 C 0.24469 1.01340 0.04682
 C13 C 0.24534 1.02801 0.02354
 C14 C 0.24143 1.05553 0.02361
 C15 C 0.23870 1.06846 -0.00041
 C16 C 0.24259 1.05582 -0.02444
 H17 H 0.25715 0.97840 -0.06676
 H18 H 0.24719 1.02341 -0.06686
 H19 H 0.24909 0.97678 0.06547
 H20 H 0.24049 1.02238 0.06546
 H21 H 0.26257 0.91153 0.00013
 H22 H 0.23652 1.08954 -0.00039
 C23 C 0.75871 0.44515 0.52420
 C24 C 0.75884 0.43167 0.50045
 C25 C 0.75753 0.44482 0.47657
 C26 C 0.75631 0.47241 0.47619
 C27 C 0.75671 0.48643 0.50010
 C28 C 0.75808 0.47278 0.52419
 C29 C 0.75946 0.48712 0.54756
 C30 C 0.75878 0.51428 0.54737
 C31 C 0.75663 0.52820 0.52381
 C32 C 0.75597 0.51417 0.49991
 C33 C 0.75515 0.48636 0.45257
 C34 C 0.75406 0.51350 0.45240
 C35 C 0.75474 0.52783 0.47581
 C36 C 0.75400 0.55545 0.47581
 C37 C 0.75440 0.56896 0.49953
 C38 C 0.75570 0.55581 0.52343
 H39 H 0.76145 0.47750 0.56627
 H40 H 0.76022 0.52423 0.56595
 H41 H 0.75515 0.47645 0.43391
 H42 H 0.75271 0.52312 0.43363
 H43 H 0.75931 0.41049 0.50056
 H44 H 0.75376 0.59013 0.49939
 C45 C 0.74513 1.02371 1.05567
 C46 C 0.74256 1.00009 1.06906
 C47 C 0.74148 0.97598 1.05596
 C48 C 0.74148 0.97595 1.02810
 C49 C 0.74446 0.99986 1.01428
 C50 C 0.74657 1.02374 1.02812
 C51 C 0.75040 1.04702 1.01408
 C52 C 0.75111 1.04704 0.98692
 C53 C 0.74800 1.02379 0.97271
 C54 C 0.74508 0.99992 0.98649
 C55 C 0.73678 0.95305 1.01360
 C56 C 0.73776 0.95306 0.98647
 C57 C 0.74263 0.97614 0.97253
 C58 C 0.74420 0.97622 0.94493
 C59 C 0.74665 0.99994 0.93165
 C60 C 0.74813 1.02369 0.94505
 H61 H 0.75304 1.06551 1.02393
 H62 H 0.75435 1.06551 0.97721
 H63 H 0.73169 0.93486 1.02299
 H64 H 0.73409 0.93480 0.97650
 H65 H 0.74263 1.00060 1.09025
 H66 H 0.74734 0.99994 0.91046
 C67 C 0.24659 0.52410 0.44424
 C68 C 0.24666 0.50027 0.43089
 C69 C 0.24579 0.47645 0.44421
 C70 C 0.24465 0.47630 0.47184
 C71 C 0.24505 0.50030 0.48571
 C72 C 0.24604 0.52429 0.47188
 C73 C 0.24668 0.54779 0.48606
 C74 C 0.24580 0.54781 0.51322
 C75 C 0.24477 0.52431 0.52736
 C76 C 0.24430 0.50031 0.51348
 C77 C 0.24247 0.45286 0.48593
 C78 C 0.24153 0.45288 0.51309
 C79 C 0.24285 0.47634 0.52729
 C80 C 0.24205 0.47651 0.55494
 C81 C 0.24215 0.50034 0.56830
 C82 C 0.24371 0.52414 0.55500
 H83 H 0.24789 0.56648 0.47630
 H84 H 0.24579 0.56653 0.52299
 H85 H 0.24113 0.43421 0.47610
 H86 H 0.23947 0.43425 0.52282
 H87 H 0.24731 0.50028 0.40970
 H88 H 0.24165 0.50034 0.58949
 C89 C 0.94404 0.26544 -0.02373
 C90 C 0.93112 0.26499 0.00049
 C91 C 0.94470 0.26460 0.02413
 C92 C 0.97230 0.26520 0.02407
 C93 C 0.98603 0.26570 0.00001
 C94 C 0.97192 0.26651 -0.02394
 C95 C 0.98599 0.27102 -0.04709
 C96 C 1.01312 0.27186 -0.04717
 C97 C 1.02765 0.26827 -0.02412
 C98 C 1.01393 0.26651 -0.00005
 C99 C 0.98644 0.26683 0.04749
 C100 C 1.01354 0.26803 0.04742
 C101 C 1.02790 0.26676 0.02398
 C102 C 1.05569 0.26815 0.02385
 C103 C 1.06868 0.27001 -0.00024
 C104 C 1.05545 0.26906 -0.02426
 H105 H 0.97623 0.27502 -0.06537
 H106 H 1.02251 0.27642 -0.06553
 H107 H 0.97665 0.26805 0.06618
 H108 H 1.02295 0.27089 0.06609
 H109 H 0.90997 0.26352 0.00113
 H110 H 1.08988 0.26955 -0.00029
 C111 C 0.44543 0.75044 0.52374
 C112 C 0.43196 0.75199 0.50002
 C113 C 0.44518 0.75358 0.47616
 C114 C 0.47285 0.75392 0.47586
 C115 C 0.48683 0.75208 0.49974
 C116 C 0.47310 0.75020 0.52375
 C117 C 0.48738 0.74760 0.54707
 C118 C 0.51458 0.74776 0.54694
 C119 C 0.52860 0.75044 0.52348
 C120 C 0.51462 0.75211 0.49959
 C121 C 0.48689 0.75654 0.45240
 C122 C 0.51409 0.75644 0.45225
 C123 C 0.52836 0.75380 0.47556
 C124 C 0.55603 0.75332 0.47557
 C125 C 0.56949 0.75215 0.49932
 C126 C 0.55626 0.75096 0.52319
 H127 H 0.47768 0.74521 0.56569
 H128 H 0.52448 0.74547 0.56546
 H129 H 0.47699 0.75891 0.43388
 H130 H 0.52380 0.75874 0.43363
 H131 H 0.41075 0.75194 0.50012
 H132 H 0.59070 0.75214 0.49923
 C133 C -0.02342 0.73460 0.05507
 C134 C 0.00079 0.73498 0.06803
 C135 C 0.02447 0.73559 0.05449
 C136 C 0.02444 0.73530 0.02690
 C137 C 0.00039 0.73487 0.01315
 C138 C -0.02358 0.73378 0.02721
 C139 C -0.04669 0.72927 0.01307
 C140 C -0.04676 0.72877 -0.01404
 C141 C -0.02371 0.73273 -0.02850
 C142 C 0.00035 0.73442 -0.01474
 C143 C 0.04789 0.73391 0.01277
 C144 C 0.04786 0.73305 -0.01433
 C145 C 0.02441 0.73446 -0.02869
 C146 C 0.02429 0.73347 -0.05649
 C147 C 0.00020 0.73173 -0.06952
 C148 C -0.02384 0.73239 -0.05628
 H149 H -0.06496 0.72501 0.02275
 H150 H -0.06508 0.72418 -0.02350
 H151 H 0.06659 0.73261 0.02256
 H152 H 0.06655 0.73036 -0.02375
 H153 H 0.00140 0.73623 0.08918
 H154 H 0.00015 0.73249 -0.09069
 C155 C 0.52361 0.24687 0.55563
 C156 C 0.49978 0.24658 0.56901
 C157 C 0.47593 0.24536 0.55572
 C158 C 0.47573 0.24440 0.52808
 C159 C 0.49972 0.24497 0.51418
 C160 C 0.52376 0.24614 0.52799
 C161 C 0.54727 0.24677 0.51379
 C162 C 0.54725 0.24566 0.48663
 C163 C 0.52370 0.24455 0.47252
 C164 C 0.49969 0.24422 0.48641
 C165 C 0.45223 0.24226 0.51400
 C166 C 0.45220 0.24154 0.48683
 C167 C 0.47566 0.24289 0.47261
 C168 C 0.47580 0.24224 0.44496
 C169 C 0.49965 0.24204 0.43161
 C170 C 0.52349 0.24331 0.44490
 H171 H 0.56599 0.24807 0.52351
 H172 H 0.56598 0.24560 0.47684
 H173 H 0.43358 0.24085 0.52384
 H174 H 0.43354 0.23956 0.47710
 H175 H 0.49980 0.24723 0.59020
 H176 H 0.49966 0.24153 0.41042
 C177 C 1.05554 0.02425 0.23932
 C178 C 1.06917 0.00068 0.23766
 C179 C 1.05636 -0.02359 0.23814
 C180 C 1.02848 -0.02393 0.23885
 C181 C 1.01440 -0.00002 0.24044
 C182 C 1.02797 0.02411 0.24060
 C183 C 1.01362 0.04752 0.24106
 C184 C 0.98647 0.04734 0.24184
 C185 C 0.97254 0.02372 0.24216
 C186 C 0.98658 -0.00017 0.24114
 C187 C 1.01419 -0.04726 0.23591
 C188 C 0.98704 -0.04743 0.23697
 C189 C 0.97285 -0.02419 0.24016
 C190 C 0.94520 -0.02422 0.24117
 C191 C 0.93169 -0.00051 0.24208
 C192 C 0.94488 0.02336 0.24256
 H193 H 1.02321 0.06632 0.24035
 H194 H 0.97653 0.06598 0.24177
 H195 H 1.02372 -0.06567 0.23196
 H196 H 0.97726 -0.06600 0.23455
 H197 H 1.09037 0.00140 0.23765
 H198 H 0.91049 -0.00064 0.24279
 C199 C 0.44485 0.47624 0.74447
 C200 C 0.43157 0.50010 0.74405
 C201 C 0.44497 0.52388 0.74424
 C202 C 0.47264 0.52397 0.74455
 C203 C 0.48644 0.49991 0.74482
 C204 C 0.47252 0.47595 0.74460
 C205 C 0.48661 0.45240 0.74371
 C206 C 0.51381 0.45230 0.74362
 C207 C 0.52803 0.47575 0.74450
 C208 C 0.51423 0.49981 0.74484
 C209 C 0.48686 0.54742 0.74377
 C210 C 0.51406 0.54732 0.74389
 C211 C 0.52815 0.52377 0.74473
 C212 C 0.55582 0.52349 0.74464
 C213 C 0.56910 0.49963 0.74414
 C214 C 0.55570 0.47585 0.74423
 H215 H 0.47676 0.43375 0.74264
 H216 H 0.52354 0.43358 0.74250
 H217 H 0.47713 0.56614 0.74270
 H218 H 0.52390 0.56598 0.74289
 H219 H 0.41036 0.50017 0.74405
 H220 H 0.59031 0.49956 0.74417
 C221 C 1.02425 0.94429 0.76253
 C222 C 1.00002 0.93138 0.76259
 C223 C 0.97635 0.94494 0.76242
 C224 C 0.97640 0.97252 0.76248
 C225 C 1.00048 0.98623 0.76269
 C226 C 1.02444 0.97213 0.76351
 C227 C 1.04761 0.98619 0.76796
 C228 C 1.04768 1.01329 0.76887
 C229 C 1.02462 1.02782 0.76520
 C230 C 1.00055 1.01411 0.76327
 C231 C 0.95297 0.98668 0.76383
 C232 C 0.95303 1.01377 0.76450
 C233 C 0.97649 1.02806 0.76315
 C234 C 0.97659 1.05584 0.76413
 C235 C 1.00065 1.06882 0.76641
 C236 C 1.02470 1.05560 0.76609
 H237 H 1.06590 0.97642 0.77194
 H238 H 1.06603 1.02263 0.77353
 H239 H 0.93425 0.97695 0.76518
 H240 H 0.93434 1.02325 0.76708
 H241 H 0.99935 0.91024 0.76139
 H242 H 1.00073 1.08999 0.76584
 C243 C 0.47647 0.55555 0.25528
 C244 C 0.50033 0.56883 0.25567
 C245 C 0.52415 0.55543 0.25559
 C246 C 0.52429 0.52780 0.25542
 C247 C 0.50023 0.51402 0.25518
 C248 C 0.47622 0.52793 0.25528
 C249 C 0.45266 0.51386 0.25620
 C250 C 0.45261 0.48670 0.25640
 C251 C 0.47611 0.47249 0.25563
 C252 C 0.50017 0.48628 0.25528
 C253 C 0.54779 0.51361 0.25630
 C254 C 0.54774 0.48645 0.25629
 C255 C 0.52417 0.47238 0.25547
 C256 C 0.52393 0.44475 0.25566
 C257 C 0.50008 0.43148 0.25616
 C258 C 0.47626 0.44487 0.25600
 H259 H 0.43397 0.52370 0.25719
 H260 H 0.43388 0.47697 0.25753
 H261 H 0.56652 0.52334 0.25735
 H262 H 0.56643 0.47662 0.25734
 H263 H 0.50037 0.59001 0.25556
 H264 H 0.50004 0.41030 0.25619
 O265 O 0.24986 0.18314 0.21195
 O266 O 0.27839 0.17491 0.24818
 O267 O 0.18174 0.21484 0.24960
 O268 O 0.17269 0.24829 0.27612
 O269 O 0.21415 0.25246 0.18139
 O270 O 0.25099 0.28039 0.17452
 O271 O 0.25062 0.28559 0.31744
 O272 O 0.21973 0.25079 0.32341
 O273 O 0.31737 0.24973 0.28560
 O274 O 0.32540 0.22085 0.24831
 O275 O 0.28666 0.31741 0.25120
 O276 O 0.24945 0.32609 0.22141
 O277 O 0.25123 0.31726 0.28626
 O278 O 0.22174 0.32600 0.24907
 O279 O 0.31778 0.28565 0.25090
 O280 O 0.32538 0.24849 0.22050
 O281 O 0.28598 0.25051 0.31709
 O282 O 0.25401 0.22114 0.32484
 O283 O 0.25025 0.21505 0.18097
 O284 O 0.27958 0.25103 0.17433
 O285 O 0.18248 0.25193 0.21267
 O286 O 0.17655 0.28150 0.24990
 O287 O 0.21293 0.18313 0.24817
 O288 O 0.25055 0.17426 0.27680
 Zr289 Zr 0.24862 0.20355 0.24769
 O290 O 0.27304 0.22543 0.27251
 Zr291 Zr 0.20318 0.24986 0.24826
 O292 O 0.22573 0.27369 0.27317
 Zr293 Zr 0.24935 0.25006 0.20247
 O294 O 0.27385 0.27392 0.22528
 Zr295 Zr 0.25070 0.25053 0.29600
 O296 O 0.22572 0.22617 0.27351
 Zr297 Zr 0.29660 0.25049 0.25015
 O298 O 0.27428 0.22636 0.22504
 Zr299 Zr 0.25106 0.29685 0.25061
 O300 O 0.22633 0.27515 0.22552
 O301 O 0.22468 0.22581 0.22364
 O302 O 0.27541 0.27500 0.27487
 C303 C 0.25049 0.19104 0.18815
 C304 C 0.18911 0.19088 0.24928
 C305 C 0.19020 0.25312 0.18883
 C306 C 0.25093 0.30955 0.31009
 C307 C 0.30988 0.24993 0.30951
 C308 C 0.31049 0.30961 0.25127
 H309 H 0.28346 0.21334 0.28341
 H310 H 0.28477 0.28474 0.21361
 H311 H 0.21339 0.21498 0.21228
 H312 H 0.21402 0.28431 0.28426
 H313 H 0.20791 0.23624 0.31866
 H314 H 0.17905 0.25716 0.29205
 H315 H 0.32216 0.26299 0.20814
 H316 H 0.29315 0.23863 0.18036
 H317 H 0.24341 0.20626 0.31872
 H318 H 0.23528 0.17662 0.28843
 H319 H 0.26366 0.32263 0.20878
 H320 H 0.23923 0.29436 0.18089
 H321 H 0.29225 0.18111 0.23620
 H322 H 0.32087 0.20745 0.26146
 H323 H 0.18205 0.29417 0.23638
 H324 H 0.20890 0.32224 0.26301
 O325 O 0.74989 0.81678 0.21218
 O326 O 0.72206 0.82480 0.24872
 O327 O 0.81882 0.78531 0.24913
 O328 O 0.82824 0.75171 0.27529
 O329 O 0.78637 0.74816 0.18069
 O330 O 0.74976 0.71983 0.17394
 O331 O 0.75080 0.71390 0.31675
 O332 O 0.78148 0.74879 0.32284
 O333 O 0.68357 0.74930 0.28567
 O334 O 0.67530 0.77858 0.24847
 O335 O 0.71451 0.68212 0.25058
 O336 O 0.75152 0.67376 0.22064
 O337 O 0.75013 0.68225 0.28555
 O338 O 0.77958 0.67402 0.24800
 O339 O 0.68321 0.71371 0.25066
 O340 O 0.67515 0.75093 0.22063
 O341 O 0.71528 0.74859 0.31683
 O342 O 0.74701 0.77817 0.32464
 O343 O 0.74961 0.78524 0.18080
 O344 O 0.72083 0.74889 0.17406
 O345 O 0.81802 0.74852 0.21199
 O346 O 0.82439 0.71872 0.24892
 O347 O 0.78745 0.81686 0.24793
 O348 O 0.75005 0.82526 0.27705
 Zr349 Zr 0.75187 0.79621 0.24768
 O350 O 0.72769 0.77408 0.27244
 Zr351 Zr 0.79756 0.75020 0.24764
 O352 O 0.77532 0.72608 0.27250
 Zr353 Zr 0.75121 0.75005 0.20204
 O354 O 0.72697 0.72588 0.22487
 Zr355 Zr 0.75038 0.74901 0.29557
 O356 O 0.77509 0.77362 0.27318
 Zr357 Zr 0.70418 0.74899 0.25005
 O358 O 0.72625 0.77339 0.22499
 Zr359 Zr 0.75000 0.70288 0.24996
 O360 O 0.77445 0.72491 0.22485
 O361 O 0.77581 0.77431 0.22328
 O362 O 0.72569 0.72448 0.27448
 C363 C 0.74899 0.80915 0.18832
 C364 C 0.81133 0.80923 0.24893
 C365 C 0.81033 0.74754 0.18815
 C366 C 0.75053 0.68997 0.30939
 C367 C 0.69131 0.74899 0.30950
 C368 C 0.69064 0.68980 0.25082
 H369 H 0.71727 0.78603 0.28349
 H370 H 0.71604 0.71507 0.21321
 H371 H 0.78690 0.78533 0.21191
 H372 H 0.78716 0.71548 0.28347
 H373 H 0.79318 0.76345 0.31815
 H374 H 0.82198 0.74282 0.29125
 H375 H 0.67844 0.73660 0.20811
 H376 H 0.70711 0.76101 0.18031
 H377 H 0.75747 0.79318 0.31858
 H378 H 0.76551 0.82299 0.28844
 H379 H 0.73744 0.67742 0.20793
 H380 H 0.76170 0.70595 0.18019
 H381 H 0.70793 0.81847 0.23712
 H382 H 0.67951 0.79164 0.26206
 H383 H 0.81890 0.70610 0.23534
 H384 H 0.79234 0.67765 0.26205
 O385 O 0.75037 0.18213 0.78617
 O386 O 0.72233 0.17424 0.74975
 O387 O 0.81876 0.21379 0.74914
 O388 O 0.82851 0.24746 0.72348
 O389 O 0.78648 0.25081 0.81781
 O390 O 0.75000 0.27884 0.82498
 O391 O 0.75026 0.28509 0.68180
 O392 O 0.78050 0.25089 0.67497
 O393 O 0.68337 0.25003 0.71348
 O394 O 0.67492 0.22120 0.75073
 O395 O 0.71477 0.31710 0.74814
 O396 O 0.75167 0.32562 0.77761
 O397 O 0.75023 0.31675 0.71300
 O398 O 0.77998 0.32473 0.75061
 O399 O 0.68326 0.28578 0.74835
 O400 O 0.67557 0.24843 0.77873
 O401 O 0.71476 0.25024 0.68198
 O402 O 0.75082 0.22002 0.67438
 O403 O 0.75003 0.21361 0.81762
 O404 O 0.72090 0.25005 0.82445
 O405 O 0.81824 0.25042 0.78664
 O406 O 0.82420 0.28068 0.74985
 O407 O 0.78751 0.18212 0.74974
 O408 O 0.75121 0.17466 0.72070
 Zr409 Zr 0.75198 0.20294 0.75078
 O410 O 0.72740 0.22509 0.72637
 Zr411 Zr 0.79766 0.24898 0.75096
 O412 O 0.77529 0.27288 0.72597
 Zr413 Zr 0.75135 0.24893 0.79655
 O414 O 0.72718 0.27335 0.77389
 Zr415 Zr 0.75014 0.24998 0.70301
 O416 O 0.77508 0.22573 0.72548
 Zr417 Zr 0.70417 0.25035 0.74891
 O418 O 0.72636 0.22568 0.77364
 Zr419 Zr 0.75013 0.29618 0.74862
 O420 O 0.77453 0.27416 0.77381
 O421 O 0.77598 0.22474 0.77520
 O422 O 0.72562 0.27466 0.72424
 C423 C 0.74959 0.18971 0.81006
 C424 C 0.81137 0.18984 0.74893
 C425 C 0.81045 0.25139 0.81047
 C426 C 0.75035 0.30902 0.68916
 C427 C 0.69086 0.25009 0.68957
 C428 C 0.69085 0.30965 0.74808
 H429 H 0.71656 0.21314 0.71580
 H430 H 0.71638 0.28423 0.78562
 H431 H 0.78715 0.21365 0.78643
 H432 H 0.78707 0.28344 0.71491
 H433 H 0.79394 0.23825 0.68083
 H434 H 0.82273 0.25715 0.70780
 H435 H 0.67869 0.26307 0.79094
 H436 H 0.70743 0.23757 0.81842
 H437 H 0.73716 0.20710 0.67876
 H438 H 0.76355 0.18072 0.70711
 H439 H 0.73808 0.32169 0.79076
 H440 H 0.76151 0.29299 0.81857
 H441 H 0.70815 0.18057 0.76129
 H442 H 0.67918 0.20774 0.73754
 H443 H 0.81891 0.29298 0.76382
 H444 H 0.79243 0.32131 0.73623
 O445 O 0.25117 0.81773 0.78689
 O446 O 0.27952 0.82540 0.75049
 O447 O 0.18250 0.78676 0.74907
 O448 O 0.17300 0.75328 0.72284
 O449 O 0.21402 0.74918 0.81776
 O450 O 0.25046 0.72061 0.82478
 O451 O 0.25038 0.71471 0.68196
 O452 O 0.22006 0.75015 0.67575
 O453 O 0.31773 0.74954 0.71367
 O454 O 0.32594 0.77879 0.75081
 O455 O 0.28598 0.68279 0.74846
 O456 O 0.24864 0.67473 0.77816
 O457 O 0.25068 0.68320 0.71330
 O458 O 0.22095 0.67510 0.75049
 O459 O 0.31762 0.71399 0.74870
 O460 O 0.32551 0.75131 0.77888
 O461 O 0.28625 0.74903 0.68226
 O462 O 0.25493 0.77893 0.67412
 O463 O 0.25097 0.78596 0.81802
 O464 O 0.27946 0.74950 0.82501
 O465 O 0.18264 0.74990 0.78620
 O466 O 0.17635 0.72029 0.74915
 O467 O 0.21390 0.81821 0.75071
 O468 O 0.25157 0.82628 0.72194
 Zr469 Zr 0.24938 0.79719 0.75123
 O470 O 0.27361 0.77480 0.72660
 Zr471 Zr 0.20344 0.75149 0.75075
 O472 O 0.22569 0.72718 0.72606
 Zr473 Zr 0.24938 0.75088 0.79672
 O474 O 0.27368 0.72656 0.77410
 Zr475 Zr 0.25098 0.74989 0.70321
 O476 O 0.22630 0.77475 0.72546
 Zr477 Zr 0.29683 0.74949 0.74912
 O478 O 0.27468 0.77406 0.77403
 Zr479 Zr 0.25066 0.70381 0.74884
 O480 O 0.22613 0.72599 0.77372
 O481 O 0.22511 0.77540 0.77535
 O482 O 0.27532 0.72516 0.72452
 C483 C 0.25180 0.80991 0.81072
 C484 C 0.19001 0.81066 0.74943
 C485 C 0.19013 0.74876 0.81011
 C486 C 0.25045 0.69079 0.68942
 C487 C 0.31016 0.74919 0.68978
 C488 C 0.30993 0.69016 0.74843
 H489 H 0.28421 0.78664 0.71563
 H490 H 0.28442 0.71565 0.78585
 H491 H 0.21397 0.78647 0.78665
 H492 H 0.21386 0.71668 0.71500
 H493 H 0.20858 0.76505 0.68032
 H494 H 0.17938 0.74448 0.70688
 H495 H 0.32216 0.73686 0.79124
 H496 H 0.29335 0.76146 0.81887
 H497 H 0.24497 0.79424 0.68029
 H498 H 0.23627 0.82401 0.71034
 H499 H 0.26278 0.67813 0.79088
 H500 H 0.23845 0.70685 0.81846
 H501 H 0.29341 0.81896 0.76230
 H502 H 0.32180 0.79197 0.73731
 H503 H 0.18164 0.70757 0.76272
 H504 H 0.20824 0.67891 0.73644
 O505 O 0.24800 0.31768 0.71286
 O506 O 0.22002 0.32597 0.74913
 O507 O 0.31689 0.28684 0.75056
 O508 O 0.32644 0.25340 0.77681
 O509 O 0.28485 0.24907 0.68216
 O510 O 0.24849 0.22035 0.67557
 O511 O 0.24863 0.21582 0.81844
 O512 O 0.27941 0.25061 0.82432
 O513 O 0.18165 0.25092 0.78676
 O514 O 0.17336 0.27940 0.74908
 O515 O 0.21307 0.18317 0.75254
 O516 O 0.25015 0.17470 0.72276
 O517 O 0.24846 0.18386 0.78755
 O518 O 0.27821 0.17546 0.75016
 O519 O 0.18161 0.21460 0.75240
 O520 O 0.17348 0.25136 0.72165
 O521 O 0.21327 0.25070 0.81804
 O522 O 0.24506 0.28024 0.82560
 O523 O 0.24781 0.28584 0.68179
 O524 O 0.21933 0.24921 0.67531
 O525 O 0.31640 0.24987 0.71356
 O526 O 0.32269 0.22022 0.75070
 O527 O 0.28542 0.31825 0.74887
 O528 O 0.24771 0.32673 0.77768
 Zr529 Zr 0.24991 0.29745 0.74857
 O530 O 0.22573 0.27544 0.77342
 Zr531 Zr 0.29580 0.25163 0.74913
 O532 O 0.27356 0.22766 0.77416
 Zr533 Zr 0.24960 0.25085 0.70337
 O534 O 0.22539 0.22677 0.72636
 Zr535 Zr 0.24844 0.25072 0.79690
 O536 O 0.27314 0.27520 0.77436
 Zr537 Zr 0.20239 0.25001 0.75122
 O538 O 0.22445 0.27429 0.72602
 Zr539 Zr 0.24843 0.20414 0.75175
 O540 O 0.27287 0.22603 0.72650
 O541 O 0.27403 0.27543 0.72447
 O542 O 0.22393 0.22587 0.77598
 C543 C 0.24712 0.30983 0.68907
 C544 C 0.30932 0.31073 0.75015
 C545 C 0.30880 0.24872 0.68969
 C546 C 0.24853 0.19181 0.81132
 C547 C 0.18932 0.25108 0.81062
 C548 C 0.18916 0.19072 0.75284
 H549 H 0.21522 0.28749 0.78427
 H550 H 0.21455 0.21577 0.71478
 H551 H 0.28510 0.28643 0.71307
 H552 H 0.28539 0.21721 0.78530
 H553 H 0.29122 0.26514 0.81950
 H554 H 0.32019 0.24462 0.79282
 H555 H 0.17676 0.23674 0.70946
 H556 H 0.20546 0.26121 0.68146
 H557 H 0.25588 0.29501 0.81958
 H558 H 0.26315 0.32470 0.78915
 H559 H 0.23614 0.17822 0.70992
 H560 H 0.26049 0.20661 0.68201
 H561 H 0.20596 0.31948 0.73755
 H562 H 0.17757 0.29279 0.76235
 H563 H 0.31735 0.20754 0.73711
 H564 H 0.29083 0.17921 0.76431
 O565 O 0.75163 0.68283 0.71332
 O566 O 0.77974 0.67487 0.74980
 O567 O 0.68269 0.71373 0.75071
 O568 O 0.67299 0.74730 0.77680
 O569 O 0.71507 0.75138 0.68239
 O570 O 0.75141 0.78009 0.67581
 O571 O 0.75028 0.78532 0.81864
 O572 O 0.71978 0.75023 0.82447
 O573 O 0.81764 0.75007 0.78726
 O574 O 0.82626 0.72145 0.74993
 O575 O 0.78640 0.81756 0.75272
 O576 O 0.74935 0.82577 0.72259
 O577 O 0.75059 0.81697 0.78744
 O578 O 0.72139 0.82536 0.74999
 O579 O 0.81788 0.78615 0.75272
 O580 O 0.82610 0.74915 0.72222
 O581 O 0.78607 0.75050 0.81857
 O582 O 0.75433 0.72094 0.82615
 O583 O 0.75196 0.71472 0.68231
 O584 O 0.78050 0.75122 0.67574
 O585 O 0.68323 0.75051 0.71348
 O586 O 0.67674 0.78035 0.75052
 O587 O 0.71424 0.68237 0.74931
 O588 O 0.75179 0.67401 0.77819
 Zr589 Zr 0.74970 0.70323 0.74902
 O590 O 0.77371 0.72541 0.77392
 Zr591 Zr 0.70371 0.74899 0.74920
 O592 O 0.72584 0.77310 0.77422
 Zr593 Zr 0.75016 0.74972 0.70374
 O594 O 0.77426 0.77389 0.72665
 Zr595 Zr 0.75092 0.75026 0.79725
 O596 O 0.72636 0.72560 0.77465
 Zr597 Zr 0.79710 0.75075 0.75170
 O598 O 0.77522 0.72634 0.72650
 Zr599 Zr 0.75104 0.79656 0.75181
 O600 O 0.72669 0.77456 0.72660
 O601 O 0.72566 0.72515 0.72477
 O602 O 0.77548 0.77502 0.77627
 C603 C 0.75254 0.69074 0.68954
 C604 C 0.69032 0.68985 0.75045
 C605 C 0.69107 0.75161 0.68967
 C606 C 0.75023 0.80926 0.81126
 C607 C 0.81001 0.75007 0.81112
 C608 C 0.81033 0.81003 0.75304
 H609 H 0.78419 0.71344 0.78488
 H610 H 0.78513 0.78483 0.71507
 H611 H 0.71463 0.71410 0.71336
 H612 H 0.71392 0.78359 0.78522
 H613 H 0.70812 0.73559 0.81964
 H614 H 0.67921 0.75612 0.79281
 H615 H 0.82293 0.76375 0.70998
 H616 H 0.79434 0.73921 0.68195
 H617 H 0.74388 0.70596 0.82000
 H618 H 0.73641 0.67619 0.78970
 H619 H 0.76364 0.82241 0.71003
 H620 H 0.73934 0.79384 0.68210
 H621 H 0.79368 0.68125 0.73801
 H622 H 0.82185 0.70800 0.76307
 H623 H 0.68209 0.79294 0.73685
 H624 H 0.70840 0.82136 0.76372
 O625 O 0.24902 0.68315 0.28623
 O626 O 0.22123 0.67519 0.24967
 O627 O 0.31783 0.71431 0.24932
 O628 O 0.32805 0.74788 0.22385
 O629 O 0.28528 0.75169 0.31778
 O630 O 0.24897 0.78009 0.32451
 O631 O 0.25004 0.78546 0.18124
 O632 O 0.28033 0.75120 0.17487
 O633 O 0.18294 0.75075 0.21267
 O634 O 0.17409 0.72238 0.25018
 O635 O 0.21443 0.81808 0.24722
 O636 O 0.25106 0.82671 0.27669
 O637 O 0.25004 0.81732 0.21224
 O638 O 0.27974 0.82527 0.25011
 O639 O 0.18275 0.78692 0.24726
 O640 O 0.17457 0.74992 0.27783
 O641 O 0.21456 0.75054 0.18140
 O642 O 0.25062 0.72035 0.17426
 O643 O 0.24853 0.71479 0.31751
 O644 O 0.21964 0.75152 0.32392
 O645 O 0.31723 0.75099 0.28680
 O646 O 0.32354 0.78122 0.24994
 O647 O 0.28644 0.68279 0.25000
 O648 O 0.25027 0.67528 0.22086
 Zr649 Zr 0.25101 0.70376 0.25075
 O650 O 0.22672 0.72588 0.22604
 Zr651 Zr 0.29691 0.74959 0.25099
 O652 O 0.27485 0.77343 0.22566
 Zr653 Zr 0.25029 0.75000 0.29626
 O654 O 0.22643 0.77441 0.27326
 Zr655 Zr 0.24976 0.75051 0.20268
 O656 O 0.27440 0.72629 0.22548
 Zr657 Zr 0.20347 0.75139 0.24825
 O658 O 0.22534 0.72676 0.27330
 Zr659 Zr 0.24966 0.79698 0.24800
 O660 O 0.27374 0.77500 0.27354
 O661 O 0.27495 0.72557 0.27521
 O662 O 0.22520 0.77544 0.22357
 C663 C 0.24802 0.69084 0.31007
 C664 C 0.31033 0.69040 0.24917
 C665 C 0.30930 0.75204 0.31058
 C666 C 0.25019 0.80945 0.18844
 C667 C 0.19060 0.75043 0.18882
 C668 C 0.19048 0.81074 0.24697
 H669 H 0.21592 0.71389 0.21549
 H670 H 0.21561 0.78543 0.28484
 H671 H 0.28597 0.71445 0.28656
 H672 H 0.28675 0.78387 0.21462
 H673 H 0.29370 0.73859 0.18091
 H674 H 0.32239 0.75739 0.20801
 H675 H 0.17776 0.76458 0.29001
 H676 H 0.20611 0.73911 0.31785
 H677 H 0.23697 0.70744 0.17868
 H678 H 0.26279 0.68115 0.20733
 H679 H 0.23767 0.82269 0.29002
 H680 H 0.26067 0.79409 0.31812
 H681 H 0.20702 0.68163 0.26110
 H682 H 0.17836 0.70879 0.23713
 H683 H 0.31830 0.79350 0.26392
 H684 H 0.29212 0.82188 0.23566
 O685 O 0.75101 0.31700 0.28737
 O686 O 0.77931 0.32493 0.25110
 O687 O 0.68251 0.28585 0.24941
 O688 O 0.67301 0.25228 0.22337
 O689 O 0.71418 0.24845 0.31817
 O690 O 0.75063 0.21980 0.32508
 O691 O 0.75076 0.21432 0.18226
 O692 O 0.72019 0.24942 0.17612
 O693 O 0.81784 0.24957 0.21404
 O694 O 0.82596 0.27842 0.25142
 O695 O 0.78630 0.18231 0.24873
 O696 O 0.74906 0.17398 0.27828
 O697 O 0.75100 0.18273 0.21351
 O698 O 0.72130 0.17444 0.25073
 O699 O 0.81785 0.21360 0.24888
 O700 O 0.82570 0.25075 0.27921
 O701 O 0.78636 0.24909 0.18263
 O702 O 0.75473 0.27863 0.17463
 O703 O 0.75107 0.28519 0.31846
 O704 O 0.77960 0.24875 0.32539
 O705 O 0.68277 0.24912 0.28664
 O706 O 0.67666 0.21930 0.24959
 O707 O 0.71380 0.31739 0.25115
 O708 O 0.75156 0.32567 0.22245
 Zr709 Zr 0.74934 0.29654 0.25171
 O710 O 0.77365 0.27432 0.22705
 Zr711 Zr 0.70355 0.25067 0.25117
 O712 O 0.72590 0.22655 0.22639
 Zr713 Zr 0.74952 0.25014 0.29711
 O714 O 0.77388 0.22597 0.27442
 Zr715 Zr 0.75110 0.24941 0.20360
 O716 O 0.72630 0.27409 0.22591
 Zr717 Zr 0.79696 0.24903 0.24949
 O718 O 0.77473 0.27346 0.27447
 Zr719 Zr 0.75093 0.20322 0.24911
 O720 O 0.72634 0.22521 0.27408
 O721 O 0.72515 0.27462 0.27578
 O722 O 0.77554 0.22470 0.22481
 C723 C 0.75174 0.30915 0.31117
 C724 C 0.68995 0.30976 0.24978
 C725 C 0.69027 0.24806 0.31054
 C726 C 0.75082 0.19040 0.18966
 C727 C 0.81027 0.24950 0.19014
 C728 C 0.81023 0.18975 0.24865
 H729 H 0.78419 0.28627 0.21614
 H730 H 0.78467 0.21506 0.28614
 H731 H 0.71399 0.28567 0.28708
 H732 H 0.71410 0.21603 0.21530
 H733 H 0.70851 0.26413 0.18078
 H734 H 0.67942 0.24360 0.20735
 H735 H 0.82235 0.23628 0.29155
 H736 H 0.79348 0.26072 0.31925
 H737 H 0.74436 0.29370 0.18072
 H738 H 0.73622 0.32347 0.21089
 H739 H 0.76301 0.17756 0.29117
 H740 H 0.73856 0.20608 0.31877
 H741 H 0.79324 0.31853 0.26291
 H742 H 0.82171 0.29174 0.23809
 H743 H 0.68191 0.20670 0.26329
 H744 H 0.70859 0.17822 0.23667
 C745 C 0.26318 0.08413 0.08731
 C746 C 0.24521 0.10450 0.09034
 C747 C 0.22563 0.10821 0.07165
 C748 C 0.22408 0.09177 0.04993
 C749 C 0.24191 0.07098 0.04663
 C750 C 0.26166 0.06760 0.06561
 C751 C 0.24722 0.12214 0.11214
 C752 C 0.24863 0.13736 0.13006
 C753 C 0.24987 0.15564 0.15067
 C754 C 0.25046 0.17162 0.16795
 H755 H 0.27867 0.08132 0.10147
 H756 H 0.21166 0.12399 0.07375
 H757 H 0.20860 0.09509 0.03587
 H758 H 0.27661 0.05282 0.06317
 C759 C 0.77693 0.60517 0.57405
 C760 C 0.75592 0.60443 0.59156
 C761 C 0.73508 0.58727 0.58713
 C762 C 0.73515 0.57106 0.56514
 C763 C 0.75615 0.57181 0.54750
 C764 C 0.77702 0.58899 0.55208
 C765 C 0.75538 0.62199 0.61348
 C766 C 0.75492 0.63715 0.63147
 C767 C 0.75430 0.65538 0.65211
 C768 C 0.75362 0.67134 0.66939
 H769 H 0.79307 0.61848 0.57721
 H770 H 0.71865 0.58667 0.60047
 H771 H 0.71874 0.55816 0.56168
 H772 H 0.79325 0.58995 0.53852
 C773 C 0.75899 0.90957 0.08105
 C774 C 0.74332 0.90813 0.10338
 C775 C 0.72691 0.92899 0.10984
 C776 C 0.72612 0.95122 0.09407
 C777 C 0.74150 0.95288 0.07124
 C778 C 0.75822 0.93179 0.06519
 C779 C 0.74459 0.88569 0.12024
 C780 C 0.74558 0.86733 0.13493
 C781 C 0.74671 0.84640 0.15280
 C782 C 0.74770 0.82906 0.16868
 H783 H 0.77211 0.89371 0.07612
 H784 H 0.71478 0.92813 0.12718
 H785 H 0.71296 0.96689 0.09946
 H786 H 0.77140 0.93280 0.04866
 C787 C 0.22090 0.42481 0.60333
 C788 C 0.24230 0.40775 0.60275
 C789 C 0.26338 0.41288 0.58608
 C790 C 0.26315 0.43508 0.57018
 C791 C 0.24174 0.45226 0.57072
 C792 C 0.22065 0.44701 0.58744
 C793 C 0.24306 0.38561 0.62005
 C794 C 0.24381 0.36746 0.63503
 C795 C 0.24481 0.34674 0.65317
 C796 C 0.24579 0.32956 0.66923
 H797 H 0.20457 0.42113 0.61629
 H798 H 0.28013 0.39993 0.58563
 H799 H 0.27975 0.43907 0.55768
 H800 H 0.20410 0.46019 0.58827
 C801 C 0.77000 0.07405 0.89562
 C802 C 0.74947 0.09212 0.89685
 C803 C 0.72890 0.08821 0.91446
 C804 C 0.72871 0.06617 0.93058
 C805 C 0.74919 0.04793 0.92932
 C806 C 0.76983 0.05202 0.91172
 C807 C 0.74909 0.11406 0.87931
 C808 C 0.74886 0.13205 0.86414
 C809 C 0.74878 0.15264 0.84584
 C810 C 0.74896 0.16981 0.82974
 H811 H 0.78593 0.07681 0.88196
 H812 H 0.71283 0.10197 0.91545
 H813 H 0.71244 0.06309 0.94376
 H814 H 0.78565 0.03802 0.91032
 C815 C 0.26837 0.57595 0.39638
 C816 C 0.24674 0.59273 0.39628
 C817 C 0.22525 0.58737 0.41235
 C818 C 0.22531 0.56520 0.42832
 C819 C 0.24696 0.54831 0.42843
 C820 C 0.26845 0.55381 0.41232
 C821 C 0.24635 0.61489 0.37899
 C822 C 0.24628 0.63304 0.36400
 C823 C 0.24651 0.65377 0.34585
 C824 C 0.24701 0.67100 0.32981
 H825 H 0.28504 0.57983 0.38392
 H826 H 0.20834 0.60012 0.41230
 H827 H 0.20842 0.56103 0.44037
 H828 H 0.28519 0.54085 0.41201
 C829 C 0.23785 0.91603 0.91151
 C830 C 0.25656 0.89630 0.90875
 C831 C 0.27584 0.89311 0.92784
 C832 C 0.27643 0.90953 0.94962
 C833 C 0.25796 0.92981 0.95254
 C834 C 0.23841 0.93254 0.93328
 C835 C 0.25554 0.87870 0.88683
 C836 C 0.25474 0.86355 0.86882
 C837 C 0.25381 0.84533 0.84814
 C838 C 0.25295 0.82938 0.83084
 H839 H 0.22254 0.91837 0.89707
 H840 H 0.29033 0.87778 0.92599
 H841 H 0.29171 0.90666 0.96400
 H842 H 0.22295 0.94683 0.93549
 C843 C 0.73426 0.41124 0.41494
 C844 C 0.75609 0.39595 0.40867
 C845 C 0.77856 0.39720 0.42423
 C846 C 0.77915 0.41351 0.44610
 C847 C 0.75731 0.42881 0.45251
 C848 C 0.73483 0.42757 0.43683
 C849 C 0.75516 0.37823 0.38690
 C850 C 0.75444 0.36296 0.36901
 C851 C 0.75360 0.34462 0.34848
 C852 C 0.75282 0.32860 0.33127
 H853 H 0.71671 0.41028 0.40313
 H854 H 0.79549 0.38534 0.41964
 H855 H 0.79653 0.41407 0.45817
 H856 H 0.71769 0.43899 0.44176
 C857 C 0.10921 0.28116 0.07174
 C858 C 0.10425 0.26221 0.09074
 C859 C 0.08300 0.24530 0.08779
 C860 C 0.06672 0.24736 0.06592
 C861 C 0.07125 0.26663 0.04675
 C862 C 0.09303 0.28325 0.04987
 C863 C 0.12152 0.25981 0.11281
 C864 C 0.13652 0.25807 0.13089
 C865 C 0.15467 0.25626 0.15158
 C866 C 0.17064 0.25481 0.16883
 H867 H 0.12570 0.29427 0.07375
 H868 H 0.07924 0.23026 0.10219
 H869 H 0.05108 0.23330 0.06361
 H870 H 0.09727 0.29829 0.03561
 C871 C 0.58711 0.77166 0.58719
 C872 C 0.60481 0.75123 0.59147
 C873 C 0.60609 0.73041 0.57378
 C874 C 0.58991 0.73010 0.55179
 C875 C 0.57220 0.75057 0.54735
 C876 C 0.57091 0.77138 0.56518
 C877 C 0.62231 0.75195 0.61347
 C878 C 0.63742 0.75234 0.63153
 C879 C 0.65563 0.75250 0.65223
 C880 C 0.67159 0.75230 0.66954
 H881 H 0.58608 0.78795 0.60066
 H882 H 0.61980 0.71457 0.57684
 H883 H 0.59132 0.71403 0.53811
 H884 H 0.55762 0.78751 0.56183
 C885 C 0.07241 0.72117 0.89002
 C886 C 0.09143 0.74001 0.89535
 C887 C 0.08836 0.75669 0.91677
 C888 C 0.06638 0.75447 0.93289
 C889 C 0.04722 0.73525 0.92802
 C890 C 0.05044 0.71892 0.90604
 C891 C 0.11368 0.74249 0.87833
 C892 C 0.13192 0.74424 0.86352
 C893 C 0.15276 0.74599 0.84554
 C894 C 0.17010 0.74731 0.82966
 H895 H 0.07451 0.70825 0.87339
 H896 H 0.10277 0.77165 0.92082
 H897 H 0.06399 0.76833 0.94869
 H898 H 0.03619 0.70394 0.90153
 C899 C 0.58566 0.26618 0.41189
 C900 C 0.59204 0.24430 0.39674
 C901 C 0.57631 0.22197 0.39783
 C902 C 0.55419 0.22155 0.41385
 C903 C 0.54769 0.24342 0.42905
 C904 C 0.56353 0.26578 0.42794
 C905 C 0.61412 0.24504 0.37933
 C906 C 0.63223 0.24562 0.36428
 C907 C 0.65297 0.24633 0.34612
 C908 C 0.67026 0.24702 0.33014
 H909 H 0.59759 0.28363 0.41105
 H910 H 0.58096 0.20500 0.38607
 H911 H 0.54203 0.20426 0.41431
 H912 H 0.55855 0.28294 0.43926
 C913 C 0.92946 0.72298 0.10960
 C914 C 0.90898 0.73971 0.10279
 C915 C 0.91072 0.75471 0.08003
 C916 C 0.93286 0.75291 0.06407
 C917 C 0.95356 0.73584 0.07050
 C918 C 0.95160 0.72117 0.09376
 C919 C 0.88658 0.74184 0.11968
 C920 C 0.86829 0.74336 0.13445
 C921 C 0.84746 0.74490 0.15246
 C922 C 0.83019 0.74612 0.16843
 H923 H 0.92837 0.71136 0.12725
 H924 H 0.89514 0.76805 0.07479
 H925 H 0.93412 0.76554 0.04714
 H926 H 0.96694 0.70773 0.09944
 C927 C 0.41182 0.26611 0.58646
 C928 C 0.40718 0.24534 0.60365
 C929 C 0.42475 0.22439 0.60471
 C930 C 0.44694 0.22426 0.58879
 C931 C 0.45171 0.24504 0.57156
 C932 C 0.43403 0.26600 0.57052
 C933 C 0.38499 0.24591 0.62093
 C934 C 0.36681 0.24637 0.63591
 C935 C 0.34602 0.24699 0.65403
 C936 C 0.32874 0.24766 0.67003
 H937 H 0.39846 0.28251 0.58563
 H938 H 0.42144 0.20830 0.61804
 H939 H 0.46050 0.20805 0.58999
 H940 H 0.43762 0.28234 0.55759
 C941 C 0.88914 0.27651 0.92942
 C942 C 0.89594 0.25972 0.90900
 C943 C 0.91889 0.24493 0.91065
 C944 C 0.93500 0.24695 0.93265
 C945 C 0.92855 0.26405 0.95331
 C946 C 0.90514 0.27855 0.95141
 C947 C 0.87889 0.25736 0.88676
 C948 C 0.86399 0.25570 0.86859
 C949 C 0.84590 0.25405 0.84783
 C950 C 0.82996 0.25279 0.83054
 H951 H 0.87138 0.28799 0.92839
 H952 H 0.92413 0.23155 0.89511
 H953 H 0.95205 0.23447 0.93387
 H954 H 0.89944 0.29201 0.96672
 C955 C 0.39544 0.77558 0.42611
 C956 C 0.39626 0.75494 0.40818
 C957 C 0.41370 0.73420 0.41208
 C958 C 0.43006 0.73397 0.43397
 C959 C 0.42921 0.75457 0.45206
 C960 C 0.41179 0.77537 0.44798
 C961 C 0.37847 0.75460 0.38641
 C962 C 0.36315 0.75423 0.36852
 C963 C 0.34477 0.75367 0.34797
 C964 C 0.32874 0.75303 0.33074
 H965 H 0.38193 0.79164 0.42336
 H966 H 0.41436 0.71805 0.39843
 H967 H 0.44310 0.71759 0.43704
 H968 H 0.41071 0.79128 0.46188
 C969 C 0.08683 0.08614 0.26496
 C970 C 0.10292 0.09307 0.24396
 C971 C 0.10300 0.07785 0.22122
 C972 C 0.08721 0.05567 0.21956
 C973 C 0.07109 0.04860 0.24057
 C974 C 0.07102 0.06394 0.26331
 C975 C 0.12013 0.11517 0.24598
 C976 C 0.13508 0.13327 0.24740
 C977 C 0.15323 0.15394 0.24863
 C978 C 0.16930 0.17111 0.24923
 H979 H 0.08677 0.09767 0.28270
 H980 H 0.11550 0.08295 0.20493
 H981 H 0.08767 0.04388 0.20199
 H982 H 0.05897 0.05851 0.27984
 C983 C 0.58716 0.58621 0.76820
 C984 C 0.60409 0.59182 0.74745
 C985 C 0.60474 0.57542 0.72557
 C986 C 0.58868 0.55339 0.72450
 C987 C 0.57171 0.54764 0.74526
 C988 C 0.57107 0.56416 0.76715
 C989 C 0.62147 0.61386 0.74886
 C990 C 0.63652 0.63193 0.74976
 C991 C 0.65470 0.65262 0.75044
 C992 C 0.67070 0.66987 0.75066
 H993 H 0.58663 0.59868 0.78530
 H994 H 0.61787 0.57950 0.70948
 H995 H 0.58958 0.54072 0.70759
 H996 H 0.55836 0.55978 0.78349
 C997 C 0.91306 0.08259 0.73940
 C998 C 0.90979 0.10422 0.75578
 C999 C 0.92843 0.10960 0.77499
 C1000 C 0.95025 0.09348 0.77789
 C1001 C 0.95371 0.07135 0.76182
 C1002 C 0.93489 0.06637 0.74227
 C1003 C 0.88766 0.12132 0.75277
 C1004 C 0.86953 0.13624 0.75086
 C1005 C 0.84877 0.15434 0.74939
 C1006 C 0.83146 0.17030 0.74879
 H1007 H 0.89892 0.07847 0.72420
 H1008 H 0.92614 0.12635 0.78773
 H1009 H 0.96419 0.09806 0.79315
 H1010 H 0.93747 0.05041 0.72863
 C1011 C 0.42450 0.60454 0.27416
 C1012 C 0.40814 0.60388 0.25224
 C1013 C 0.41375 0.58688 0.23155
 C1014 C 0.43579 0.57075 0.23269
 C1015 C 0.45229 0.57142 0.25461
 C1016 C 0.44652 0.58844 0.27531
 C1017 C 0.38616 0.62133 0.25074
 C1018 C 0.36814 0.63645 0.24978
 C1019 C 0.34751 0.65472 0.24907
 C1020 C 0.33030 0.67078 0.24887
 H1021 H 0.42041 0.61772 0.29020
 H1022 H 0.40130 0.58634 0.21444
 H1023 H 0.44020 0.55800 0.21640
 H1024 H 0.45919 0.58936 0.29224
 C1025 C 0.08964 0.91931 0.74090
 C1026 C 0.09154 0.89632 0.75552
 C1027 C 0.07138 0.88945 0.77260
 C1028 C 0.04940 0.90540 0.77509
 C1029 C 0.04723 0.92884 0.76074
 C1030 C 0.06764 0.93539 0.74337
 C1031 C 0.11382 0.87935 0.75286
 C1032 C 0.13201 0.86447 0.75119
 C1033 C 0.15277 0.84635 0.74988
 C1034 C 0.17003 0.83032 0.74934
 H1035 H 0.10499 0.92465 0.72733
 H1036 H 0.07263 0.87166 0.78400
 H1037 H 0.03432 0.89964 0.78879
 H1038 H 0.06622 0.95249 0.73101
 C1039 C 0.58658 0.41324 0.23201
 C1040 C 0.59221 0.39636 0.25278
 C1041 C 0.57589 0.39585 0.27473
 C1042 C 0.55390 0.41198 0.27584
 C1043 C 0.54811 0.42888 0.25505
 C1044 C 0.56457 0.42941 0.23310
 C1045 C 0.61415 0.37886 0.25131
 C1046 C 0.63214 0.36370 0.25037
 C1047 C 0.65274 0.34542 0.24968
 C1048 C 0.66995 0.32936 0.24948
 H1049 H 0.59899 0.41366 0.21486
 H1050 H 0.58000 0.38275 0.29084
 H1051 H 0.54126 0.41118 0.29279
 H1052 H 0.56014 0.44207 0.21674
 C1053 C 0.91611 0.91173 0.26393
 C1054 C 0.89761 0.90702 0.24433
 C1055 C 0.89523 0.92440 0.22335
 C1056 C 0.91109 0.94655 0.22208
 C1057 C 0.92960 0.95144 0.24172
 C1058 C 0.93201 0.93389 0.26267
 C1059 C 0.88034 0.88495 0.24611
 C1060 C 0.86533 0.86688 0.24736
 C1061 C 0.84712 0.84625 0.24843
 C1062 C 0.83105 0.82908 0.24893
 H1063 H 0.91799 0.89849 0.28033
 H1064 H 0.88088 0.92101 0.20816
 H1065 H 0.90883 0.96000 0.20591
 H1066 H 0.94592 0.93759 0.27818
 C1067 C 0.39572 0.42456 0.72526
 C1068 C 0.39626 0.40813 0.74711
 C1069 C 0.41326 0.41358 0.76785
 C1070 C 0.42949 0.43553 0.76683
 C1071 C 0.42893 0.45210 0.74498
 C1072 C 0.41192 0.44648 0.72422
 C1073 C 0.37868 0.38626 0.74852
 C1074 C 0.36347 0.36833 0.74942
 C1075 C 0.34511 0.34780 0.75011
 C1076 C 0.32899 0.33065 0.75035
 H1077 H 0.38254 0.42060 0.70917
 H1078 H 0.41371 0.40110 0.78492
 H1079 H 0.44223 0.43982 0.78318
 H1080 H 0.41108 0.45921 0.70734
 C1081 C 0.10953 0.27989 0.92785
 C1082 C 0.10331 0.26174 0.90844
 C1083 C 0.08084 0.24640 0.91094
 C1084 C 0.06471 0.24912 0.93285
 C1085 C 0.07068 0.26743 0.95260
 C1086 C 0.09352 0.28263 0.94977
 C1087 C 0.12052 0.25847 0.88643
 C1088 C 0.13552 0.25609 0.86843
 C1089 C 0.15371 0.25376 0.84783
 C1090 C 0.16973 0.25225 0.83063
 H1091 H 0.12692 0.29184 0.92614
 H1092 H 0.07603 0.23202 0.89619
 H1093 H 0.04814 0.23612 0.93480
 H1094 H 0.09881 0.29704 0.96433
 C1095 C 0.60581 0.77336 0.42474
 C1096 C 0.60441 0.75245 0.40717
 C1097 C 0.58652 0.73222 0.41151
 C1098 C 0.57031 0.73276 0.43351
 C1099 C 0.57176 0.75361 0.45127
 C1100 C 0.58962 0.77391 0.44672
 C1101 C 0.62206 0.75136 0.38529
 C1102 C 0.63732 0.75055 0.36736
 C1103 C 0.65568 0.74978 0.34679
 C1104 C 0.67175 0.74931 0.32958
 H1105 H 0.61967 0.78904 0.42165
 H1106 H 0.58540 0.71587 0.39813
 H1107 H 0.55693 0.71674 0.43694
 H1108 H 0.59117 0.79001 0.46036
 C1109 C 0.91101 0.75495 0.91903
 C1110 C 0.90847 0.73987 0.89640
 C1111 C 0.92805 0.72203 0.88972
 C1112 C 0.95015 0.71930 0.90550
 C1113 C 0.95298 0.73418 0.92855
 C1114 C 0.93310 0.75224 0.93491
 C1115 C 0.88619 0.74306 0.87952
 C1116 C 0.86797 0.74537 0.86477
 C1117 C 0.84717 0.74761 0.84679
 C1118 C 0.82991 0.74903 0.83083
 H1119 H 0.89613 0.76911 0.92418
 H1120 H 0.92631 0.71030 0.87220
 H1121 H 0.96481 0.70510 0.89990
 H1122 H 0.93504 0.76501 0.95167
 C1123 C 0.41261 0.26503 0.41379
 C1124 C 0.40746 0.24452 0.39644
 C1125 C 0.42424 0.22291 0.39558
 C1126 C 0.44621 0.22193 0.41179
 C1127 C 0.45154 0.24249 0.42913
 C1128 C 0.43459 0.26407 0.43001
 C1129 C 0.38558 0.24601 0.37881
 C1130 C 0.36763 0.24718 0.36359
 C1131 C 0.34705 0.24839 0.34526
 C1132 C 0.32985 0.24922 0.32917
 H1133 H 0.39987 0.28192 0.41449
 H1134 H 0.42053 0.20700 0.38214
 H1135 H 0.45922 0.20527 0.41067
 H1136 H 0.43864 0.28029 0.44296
 C1137 C 0.08701 0.76158 0.08445
 C1138 C 0.09306 0.74174 0.10229
 C1139 C 0.07709 0.71960 0.10391
 C1140 C 0.05503 0.71740 0.08797
 C1141 C 0.04880 0.73726 0.07013
 C1142 C 0.06493 0.75939 0.06848
 C1143 C 0.11503 0.74439 0.11964
 C1144 C 0.13303 0.74634 0.13471
 C1145 C 0.15361 0.74825 0.15296
 C1146 C 0.17076 0.74949 0.16906
 H1147 H 0.09912 0.77886 0.08316
 H1148 H 0.08151 0.70420 0.11774
 H1149 H 0.04267 0.70032 0.08967
 H1150 H 0.06017 0.77507 0.05510
 C1151 C 0.57521 0.27031 0.60306
 C1152 C 0.59234 0.24897 0.60355
 C1153 C 0.58729 0.22712 0.58788
 C1154 C 0.56509 0.22654 0.57192
 C1155 C 0.54786 0.24789 0.57141
 C1156 C 0.55304 0.26974 0.58712
 C1157 C 0.61451 0.24919 0.62088
 C1158 C 0.63270 0.24942 0.63587
 C1159 C 0.65351 0.24971 0.65398
 C1160 C 0.67083 0.24992 0.66995
 H1161 H 0.57884 0.28724 0.61522
 H1162 H 0.60031 0.21043 0.58825
 H1163 H 0.56117 0.20938 0.56019
 H1164 H 0.53980 0.28626 0.58713
 C1165 C 0.91490 0.23857 0.08670
 C1166 C 0.89682 0.25825 0.09261
 C1167 C 0.89501 0.28032 0.07658
 C1168 C 0.91100 0.28261 0.05457
 C1169 C 0.92907 0.26289 0.04846
 C1170 C 0.93093 0.24084 0.06468
 C1171 C 0.87941 0.25550 0.11453
 C1172 C 0.86430 0.25350 0.13248
 C1173 C 0.84602 0.25159 0.15304
 C1174 C 0.82994 0.25037 0.17020
 H1175 H 0.91635 0.22133 0.09888
 H1176 H 0.88100 0.29559 0.08089
 H1177 H 0.90915 0.29962 0.04214
 H1178 H 0.94449 0.22527 0.06001
 C1179 C 0.39642 0.72792 0.57424
 C1180 C 0.39721 0.74851 0.59222
 C1181 C 0.41441 0.76941 0.58821
 C1182 C 0.43054 0.76983 0.56615
 C1183 C 0.42970 0.74928 0.54800
 C1184 C 0.41253 0.72833 0.55220
 C1185 C 0.37961 0.74864 0.61415
 C1186 C 0.36437 0.74873 0.63211
 C1187 C 0.34599 0.74885 0.65268
 C1188 C 0.32986 0.74899 0.66984
 H1189 H 0.38309 0.71174 0.57707
 H1190 H 0.41504 0.78553 0.60189
 H1191 H 0.44340 0.78633 0.56299
 H1192 H 0.41147 0.71245 0.53827
 C1193 C 0.26481 0.08657 0.91305
 C1194 C 0.24534 0.10540 0.90931
 C1195 C 0.22489 0.10755 0.92730
 C1196 C 0.22385 0.09096 0.94893
 C1197 C 0.24306 0.07156 0.95278
 C1198 C 0.26381 0.06991 0.93468
 C1199 C 0.24660 0.12307 0.88749
 C1200 C 0.24739 0.13827 0.86953
 C1201 C 0.24802 0.15652 0.84888
 C1202 C 0.24835 0.17245 0.83156
 H1203 H 0.28099 0.08505 0.89948
 H1204 H 0.20980 0.12217 0.92469
 H1205 H 0.20769 0.09302 0.96246
 H1206 H 0.27975 0.05631 0.93770
 C1207 C 0.77361 0.58772 0.41221
 C1208 C 0.75174 0.60344 0.40727
 C1209 C 0.73037 0.60284 0.42435
 C1210 C 0.73095 0.58680 0.44642
 C1211 C 0.75285 0.57110 0.45153
 C1212 C 0.77420 0.57166 0.43430
 C1213 C 0.75155 0.62097 0.38531
 C1214 C 0.75133 0.63613 0.36730
 C1215 C 0.75103 0.65441 0.34668
 C1216 C 0.75078 0.67043 0.32945
 H1217 H 0.79032 0.58818 0.39922
 H1218 H 0.71342 0.61504 0.42080
 H1219 H 0.71444 0.58678 0.45966
 H1220 H 0.79140 0.55993 0.43819
 C1221 C 0.76871 0.07383 0.10451
 C1222 C 0.74867 0.09243 0.10334
 C1223 C 0.72772 0.08886 0.08609
 C1224 C 0.72671 0.06666 0.07021
 C1225 C 0.74673 0.04792 0.07141
 C1226 C 0.76772 0.05165 0.08866
 C1227 C 0.74918 0.11458 0.12062
 C1228 C 0.74964 0.13270 0.13563
 C1229 C 0.75015 0.15338 0.15383
 C1230 C 0.75052 0.17056 0.16990
 H1231 H 0.78492 0.07633 0.11789
 H1232 H 0.71203 0.10305 0.08517
 H1233 H 0.71023 0.06389 0.05723
 H1234 H 0.78321 0.03727 0.08994
 C1235 C 0.26797 0.58605 0.58748
 C1236 C 0.24651 0.59263 0.60317
 C1237 C 0.22399 0.57711 0.60262
 C1238 C 0.22297 0.55503 0.58661
 C1239 C 0.24442 0.54833 0.57087
 C1240 C 0.26697 0.56395 0.57145
 C1241 C 0.24782 0.61473 0.62052
 C1242 C 0.24872 0.63286 0.63554
 C1243 C 0.24953 0.65361 0.65369
 C1244 C 0.25005 0.67087 0.66971
 H1245 H 0.28556 0.59781 0.58789
 H1246 H 0.20734 0.58192 0.61478
 H1247 H 0.20554 0.54304 0.58657
 H1248 H 0.28383 0.55883 0.55971
 C1249 C 0.72536 0.92590 0.89418
 C1250 C 0.74526 0.90737 0.89728
 C1251 C 0.76444 0.91102 0.91645
 C1252 C 0.76385 0.93324 0.93231
 C1253 C 0.74397 0.95193 0.92921
 C1254 C 0.72474 0.94811 0.91002
 C1255 C 0.74652 0.88519 0.88008
 C1256 C 0.74755 0.86703 0.86515
 C1257 C 0.74868 0.84629 0.84705
 C1258 C 0.74949 0.82908 0.83103
 H1259 H 0.71051 0.92333 0.87931
 H1260 H 0.78003 0.89690 0.91888
 H1261 H 0.77905 0.93608 0.94675
 H1262 H 0.70940 0.96243 0.90723
 C1263 C 0.22656 0.42500 0.39478
 C1264 C 0.24773 0.40772 0.39631
 C1265 C 0.26806 0.41262 0.41399
 C1266 C 0.26728 0.43481 0.42992
 C1267 C 0.24610 0.45221 0.42839
 C1268 C 0.22577 0.44717 0.41068
 C1269 C 0.24891 0.38553 0.37908
 C1270 C 0.24968 0.36736 0.36411
 C1271 C 0.25035 0.34660 0.34596
 C1272 C 0.25072 0.32938 0.32990
 H1273 H 0.21080 0.42149 0.38108
 H1274 H 0.28461 0.39948 0.41522
 H1275 H 0.28330 0.43861 0.44322
 H1276 H 0.20940 0.46050 0.40910
 C1277 C 0.23223 0.91010 0.08327
 C1278 C 0.25468 0.89649 0.09101
 C1279 C 0.27801 0.89960 0.07702
 C1280 C 0.27883 0.91607 0.05525
 C1281 C 0.25636 0.92970 0.04739
 C1282 C 0.23303 0.92656 0.06150
 C1283 C 0.25355 0.87860 0.11266
 C1284 C 0.25260 0.86325 0.13050
 C1285 C 0.25156 0.84489 0.15103
 C1286 C 0.25082 0.82888 0.16827
 H1287 H 0.21404 0.90770 0.09383
 H1288 H 0.29545 0.88903 0.08273
 H1289 H 0.29688 0.91802 0.04437
 H1290 H 0.21540 0.93659 0.05541
 C1291 C 0.73570 0.41400 0.58721
 C1292 C 0.75613 0.39652 0.59230
 C1293 C 0.77784 0.39569 0.57566
 C1294 C 0.77897 0.41202 0.55382
 C1295 C 0.75846 0.42945 0.54850
 C1296 C 0.73681 0.43036 0.56536
 C1297 C 0.75443 0.37867 0.61393
 C1298 C 0.75313 0.36326 0.63168
 C1299 C 0.75182 0.34475 0.65205
 C1300 C 0.75097 0.32860 0.66915
 H1301 H 0.71873 0.41468 0.59986
 H1302 H 0.79369 0.38214 0.57933
 H1303 H 0.79568 0.41088 0.54087
 H1304 H 0.72061 0.44337 0.56130
 C1305 C 0.07204 0.10959 0.77914
 C1306 C 0.09194 0.10380 0.76136
 C1307 C 0.08998 0.08160 0.74556
 C1308 C 0.06809 0.06533 0.74741
 C1309 C 0.04784 0.07088 0.76532
 C1310 C 0.05015 0.09343 0.78102
 C1311 C 0.11386 0.12124 0.75888
 C1312 C 0.13175 0.13645 0.75707
 C1313 C 0.15219 0.15486 0.75527
 C1314 C 0.16926 0.17103 0.75400
 H1315 H 0.07332 0.12676 0.79143
 H1316 H 0.10511 0.07714 0.73144
 H1317 H 0.06655 0.04899 0.73407
 H1318 H 0.03517 0.09841 0.79512
 C1319 C 0.57602 0.60384 0.27601
 C1320 C 0.59267 0.60350 0.25431
 C1321 C 0.58728 0.58689 0.23325
 C1322 C 0.56518 0.57084 0.23381
 C1323 C 0.54839 0.57120 0.25551
 C1324 C 0.55393 0.58782 0.27659
 C1325 C 0.61468 0.62094 0.25333
 C1326 C 0.63272 0.63603 0.25262
 C1327 C 0.65337 0.65424 0.25190
 C1328 C 0.67061 0.67024 0.25137
 H1329 H 0.57992 0.61673 0.29234
 H1330 H 0.59994 0.58661 0.21629
 H1331 H 0.56095 0.55839 0.21723
 H1332 H 0.54104 0.58850 0.29336
 C1333 C 0.11050 0.92948 0.22413
 C1334 C 0.10494 0.90940 0.24174
 C1335 C 0.08313 0.91134 0.25810
 C1336 C 0.06688 0.93328 0.25680
 C1337 C 0.07201 0.95355 0.23885
 C1338 C 0.09435 0.95143 0.22280
 C1339 C 0.12210 0.88719 0.24335
 C1340 C 0.13701 0.86899 0.24445
 C1341 C 0.15505 0.84817 0.24549
 C1342 C 0.17096 0.83083 0.24623
 H1343 H 0.12742 0.92824 0.21145
 H1344 H 0.07889 0.89608 0.27212
 H1345 H 0.05078 0.93475 0.27047
 H1346 H 0.09904 0.96650 0.20872
 C1347 C 0.60428 0.42414 0.72349
 C1348 C 0.60402 0.40740 0.74511
 C1349 C 0.58738 0.41266 0.76620
 C1350 C 0.57124 0.43472 0.76577
 C1351 C 0.57151 0.45160 0.74415
 C1352 C 0.58816 0.44617 0.72304
 C1353 C 0.62158 0.38544 0.74598
 C1354 C 0.63677 0.36744 0.74659
 C1355 C 0.65510 0.34683 0.74719
 C1356 C 0.67118 0.32962 0.74763
 H1357 H 0.61718 0.42034 0.70714
 H1358 H 0.58716 0.39994 0.78311
 H1359 H 0.55879 0.43885 0.78238
 H1360 H 0.58878 0.45913 0.70633
 C1361 C 0.91295 0.08580 0.26620
 C1362 C 0.89650 0.09166 0.24512
 C1363 C 0.89632 0.07547 0.22308
 C1364 C 0.91238 0.05343 0.22216
 C1365 C 0.92888 0.04744 0.24323
 C1366 C 0.92904 0.06373 0.26530
 C1367 C 0.87911 0.11372 0.24633
 C1368 C 0.86405 0.13180 0.24710
 C1369 C 0.84586 0.15250 0.24778
 C1370 C 0.82984 0.16975 0.24823
 H1371 H 0.91310 0.09810 0.28342
 H1372 H 0.88356 0.07974 0.20673
 H1373 H 0.91188 0.04093 0.20509
 H1374 H 0.94142 0.05916 0.28185
 C1375 C 0.41325 0.58696 0.76645
 C1376 C 0.39663 0.59230 0.74537
 C1377 C 0.39640 0.57564 0.72367
 C1378 C 0.41253 0.55362 0.72314
 C1379 C 0.42916 0.54812 0.74425
 C1380 C 0.42941 0.56492 0.76594
 C1381 C 0.37906 0.61425 0.74630
 C1382 C 0.36388 0.63225 0.74695
 C1383 C 0.34558 0.65288 0.74758
 C1384 C 0.32953 0.67011 0.74802
 H1385 H 0.41345 0.59962 0.78341
 H1386 H 0.38351 0.57950 0.70732
 H1387 H 0.41193 0.54072 0.70638
 H1388 H 0.44184 0.56073 0.78255
 C1389 C 0.91332 0.91414 0.73867
 C1390 C 0.90777 0.89690 0.75918
 C1391 C 0.92421 0.89602 0.78103
 C1392 C 0.94625 0.91207 0.78228
 C1393 C 0.95199 0.92928 0.76173
 C1394 C 0.93538 0.93022 0.73990
 C1395 C 0.88586 0.87937 0.75747
 C1396 C 0.86792 0.86417 0.75621
 C1397 C 0.84738 0.84582 0.75492
 C1398 C 0.83024 0.82971 0.75398
 H1399 H 0.90084 0.91485 0.72159
 H1400 H 0.92020 0.88266 0.79694
 H1401 H 0.95899 0.91092 0.79914
 H1402 H 0.93976 0.94311 0.72371
 C1403 C 0.42464 0.39629 0.27660
 C1404 C 0.40803 0.39641 0.25486
 C1405 C 0.41330 0.41301 0.23377
 C1406 C 0.43527 0.42924 0.23430
 C1407 C 0.45204 0.42907 0.25602
 C1408 C 0.44658 0.41249 0.27715
 C1409 C 0.38621 0.37874 0.25387
 C1410 C 0.36831 0.36348 0.25315
 C1411 C 0.34778 0.34513 0.25240
 C1412 C 0.33058 0.32909 0.25185
 H1413 H 0.42082 0.38342 0.29295
 H1414 H 0.40067 0.41311 0.21678
 H1415 H 0.43944 0.44163 0.21768
 H1416 H 0.45947 0.41196 0.29393
   
