data_POSCAR
  _audit_creation_date              2014-09-24
  _audit_creation_method            'ToBaCCo'
  _symmetry_space_group_name_H-M    'P1'
  _symmetry_Int_Tables_number       1
  _symmetry_cell_setting            triclinic
  loop_
  _symmetry_equiv_pos_as_xyz
 x,y,z
_cell_length_a 53.2155
_cell_length_b 53.2200
_cell_length_c 53.1713
_cell_angle_alpha 89.999600
_cell_angle_beta 89.994900
_cell_angle_gamma 90.004900
loop_
  _atom_site_label
  _atom_site_type_symbol
  _atom_site_fract_x
  _atom_site_fract_y
  _atom_site_fract_z
C1 C 0.35879 1.35955 0.32737
 N2 N 0.36916 1.33880 0.33809
 C3 C 0.35892 1.32830 0.35900
 N4 N 0.33799 1.33876 0.36922
 C5 C 0.32728 1.35952 0.35885
 N6 N 0.33785 1.36974 0.33792
 C7 C 0.35877 0.85967 0.82840
 N8 N 0.36906 0.83883 0.83896
 C9 C 0.35873 0.82824 0.85976
 N10 N 0.33779 0.83870 0.86999
 C11 C 0.32717 0.85955 0.85970
 N12 N 0.33784 0.86987 0.83887
 C13 C 0.85939 1.35949 0.82728
 N14 N 0.86971 1.33869 0.83797
 C15 C 0.85949 1.32823 0.85892
 N16 N 0.83865 1.33878 0.86922
 C17 C 0.82806 1.35957 0.85886
 N18 N 0.83853 1.36978 0.83790
 C19 C 0.85973 0.85964 0.32755
 N20 N 0.83888 0.86992 0.33819
 C21 C 0.82833 0.85963 0.35907
 N22 N 0.83885 0.83876 0.36933
 C23 C 0.85968 0.82821 0.35902
 N24 N 0.86997 0.83875 0.33815
 C25 C 0.64029 0.64036 0.32754
 N26 N 0.63006 0.66124 0.33817
 C27 C 0.64037 0.67175 0.35905
 N28 N 0.66121 0.66119 0.36932
 C29 C 0.67171 0.64032 0.35902
 N30 N 0.66114 0.63007 0.33814
 C31 C 0.64157 0.14083 0.82715
 N32 N 0.63122 0.16160 0.83785
 C33 C 0.64146 0.17211 0.85876
 N34 N 0.66236 0.16163 0.86900
 C35 C 0.67306 0.14086 0.85865
 N36 N 0.66250 0.13062 0.83772
 C37 C 1.13962 0.63956 0.82894
 N38 N 1.16047 0.62928 0.83949
 C39 C 1.17103 0.63958 0.86035
 N40 N 1.16051 0.66046 0.87062
 C41 C 1.13965 0.67099 0.86032
 N42 N 1.12935 0.66044 0.83946
 C43 C 1.14168 0.14061 0.32714
 N44 N 1.13131 0.16137 0.33784
 C45 C 1.14154 0.17190 0.35873
 N46 N 1.16246 0.16146 0.36897
 C47 C 1.17318 0.14070 0.35863
 N48 N 1.16262 0.13043 0.33770
 C49 C 0.64123 1.35977 0.67167
 N50 N 0.66220 1.36994 0.66122
 C51 C 0.67283 1.35962 0.64036
 N52 N 0.66213 1.33881 0.63005
 C53 C 0.64117 1.32840 0.64026
 N54 N 0.63087 1.33899 0.66108
 C55 C 0.64025 0.85980 1.17258
 N56 N 0.66111 0.87005 1.16195
 C57 C 0.67165 0.85977 1.14107
 N58 N 0.66111 0.83891 1.13079
 C59 C 0.64025 0.82838 1.14109
 N60 N 0.62998 0.83893 1.16197
 C61 C 1.14108 1.35960 1.17227
 N62 N 1.16201 1.36982 1.16170
 C63 C 1.17260 1.35958 1.14079
 N64 N 1.16192 1.33879 1.13045
 C65 C 1.14101 1.32831 1.14068
 N66 N 1.13075 1.33882 1.16157
 C67 C 1.14129 0.85939 0.67179
 N68 N 1.16221 0.86963 0.66133
 C69 C 1.17291 0.85934 0.64050
 N70 N 1.16232 0.83847 0.63019
 C71 C 1.14139 0.82797 0.64040
 N72 N 1.13103 0.83854 0.66121
 C73 C 0.35877 0.64040 0.67166
 N74 N 0.36905 0.66125 0.66112
 C75 C 0.35871 0.67184 0.64031
 N76 N 0.33778 0.66136 0.63008
 C77 C 0.32718 0.64049 0.64035
 N78 N 0.33785 0.63017 0.66118
 C79 C 0.35937 0.13972 1.17110
 N80 N 0.36970 0.16049 1.16047
 C81 C 0.35939 0.17104 1.13963
 N82 N 0.33843 0.16059 1.12945
 C83 C 0.32776 0.13980 1.13981
 N84 N 0.33840 0.12952 1.16068
 C85 C 0.85952 0.64037 1.17258
 N86 N 0.86978 0.66123 1.16196
 C87 C 0.85949 0.67179 1.14110
 N88 N 0.83863 0.66127 1.13081
 C89 C 0.82809 0.64042 1.14110
 N90 N 0.83864 0.63012 1.16196
 C91 C 0.85863 0.14060 0.67293
 N92 N 0.86899 0.16136 0.66222
 C93 C 0.85876 0.17186 0.64130
 N94 N 0.83785 0.16138 0.63107
 C95 C 0.82714 0.14062 0.64142
 N96 N 0.83770 0.13039 0.66236
 C97 C 1.35943 0.35851 0.67284
 N98 N 1.33863 0.36882 0.66214
 C99 C 1.32815 0.35856 0.64123
 N100 N 1.33868 0.33768 0.63099
 C101 C 1.35947 0.32702 0.64133
 N102 N 1.36968 0.33761 0.66226
 C103 C 1.35989 0.85913 1.17152
 N104 N 1.37005 0.83813 1.16111
 C105 C 1.35972 0.82745 1.14029
 N106 N 1.33892 0.83813 1.12995
 C107 C 1.32852 0.85912 1.14010
 N108 N 1.33912 0.86946 1.16090
 C109 C 0.85975 0.35973 1.17222
 N110 N 0.83885 0.36998 1.16165
 C111 C 0.82831 0.35972 1.14076
 N112 N 0.83887 0.33890 1.13041
 C113 C 0.85975 0.32839 1.14066
 N114 N 0.87003 0.33891 1.16155
 C115 C 0.86012 0.85998 0.67122
 N116 N 0.87037 0.83909 0.66071
 C117 C 0.86007 0.82854 0.63985
 N118 N 0.83922 0.83910 0.62954
 C119 C 0.82872 0.85999 0.63981
 N120 N 0.83928 0.87028 0.66066
 C121 C 0.64020 0.64021 0.67152
 N122 N 0.66105 0.62991 0.66097
 C123 C 0.67162 0.64020 0.64011
 N124 N 0.66112 0.66109 0.62984
 C125 C 0.64027 0.67164 0.64014
 N126 N 0.62996 0.66109 0.66099
 C127 C 0.64071 1.14154 1.17285
 N128 N 0.63047 1.16243 1.16226
 C129 C 0.64073 1.17305 1.14137
 N130 N 0.66157 1.16242 1.13106
 C131 C 0.67208 1.14154 1.14133
 N132 N 0.66154 1.13126 1.16220
 C133 C 0.14048 0.64139 1.17271
 N134 N 0.16125 0.63106 1.16199
 C135 C 0.17179 0.64135 1.14114
 N136 N 0.16136 0.66231 1.13096
 C137 C 0.14058 0.67300 1.14133
 N138 N 0.13031 0.66237 1.16221
 C139 C 0.13998 1.14078 0.67129
 N140 N 0.12978 1.16173 0.66083
 C141 C 0.14009 1.17237 0.63998
 N142 N 0.16092 1.16173 0.62967
 C143 C 0.17137 1.14079 0.63988
 N144 N 0.16080 1.13047 0.66070
 C145 C 1.35984 0.64030 0.32771
 N146 N 1.37008 0.66122 0.33826
 C147 C 1.35983 0.67174 0.35918
 N148 N 1.33904 0.66113 0.36955
 C149 C 1.32855 0.64024 0.35932
 N150 N 1.33905 0.62998 0.33842
 C151 C 1.35939 1.14140 0.82713
 N152 N 1.36960 1.16232 0.83771
 C153 C 1.35934 1.17289 0.85863
 N154 N 1.33855 1.16220 0.86895
 C155 C 1.32808 1.14130 0.85870
 N156 N 1.33860 1.13106 0.83781
 C157 C 0.85966 0.64022 0.82844
 N158 N 0.86994 0.66109 0.83897
 C159 C 0.85966 0.67163 0.85985
 N160 N 0.83881 0.66109 0.87015
 C161 C 0.82828 0.64022 0.85988
 N162 N 0.83881 0.62993 0.83900
 C163 C 0.85980 1.14118 0.32746
 N164 N 0.87002 1.16209 0.33804
 C165 C 0.85976 1.17270 0.35893
 N166 N 0.83892 1.16207 0.36923
 C167 C 0.82842 1.14118 0.35897
 N168 N 0.83896 1.13090 0.33810
 C169 C 0.63990 0.35929 0.32886
 N170 N 0.66076 0.36958 0.33935
 C171 C 0.67141 0.35925 0.36014
 N172 N 0.66096 0.33832 0.37040
 C173 C 0.64008 0.32770 0.36017
 N174 N 0.62971 0.33837 0.33936
 C175 C 0.63981 0.86010 0.82893
 N176 N 0.66067 0.87037 0.83949
 C177 C 0.67121 0.86007 0.86035
 N178 N 0.66067 0.83920 0.87063
 C179 C 0.63981 0.82868 0.86032
 N180 N 0.62952 0.83924 0.83946
 C181 C 0.14054 0.35839 0.82699
 N182 N 0.16132 0.36873 0.83771
 C183 C 0.17181 0.35848 0.85861
 N184 N 0.16132 0.33758 0.86884
 C185 C 0.14054 0.32689 0.85848
 N186 N 0.13032 0.33747 0.83755
 C187 C 0.14036 0.85968 0.32760
 N188 N 0.16115 0.87000 0.33829
 C189 C 0.17166 0.85975 0.35920
 N190 N 0.16116 0.83886 0.36944
 C191 C 0.14037 0.82826 0.35908
 N192 N 0.13012 0.83877 0.33817
 O193 O 0.97550 0.90946 0.87499
 O194 O 0.97541 0.88024 0.84557
 C195 C 0.96690 0.90069 0.85450
 C196 C 0.94639 0.91413 0.84133
 C197 C 0.93786 0.90588 0.81773
 H198 H 0.94674 0.88998 0.80859
 O199 O 1.02439 1.09067 0.87474
 O200 O 1.02442 1.11985 0.84529
 C201 C 1.03297 1.09942 0.85424
 C202 C 1.05350 1.08601 0.84108
 C203 C 1.06208 1.09430 0.81752
 H204 H 1.05321 1.11020 0.80838
 O205 O 0.87476 0.97575 0.90947
 O206 O 0.84535 0.97560 0.88026
 C207 C 0.85430 0.96712 0.90072
 C208 C 0.84116 0.94662 0.91422
 C209 C 0.81759 0.93803 0.90599
 H210 H 0.80843 0.94686 0.89006
 O211 O 1.12533 1.02453 0.90919
 O212 O 1.15469 1.02453 0.87992
 C213 C 1.14579 1.03310 0.90037
 C214 C 1.15895 1.05367 0.91373
 C215 C 1.18244 1.06235 0.90533
 H216 H 1.19153 1.05352 0.88936
 O217 O 0.90927 0.87504 0.97586
 O218 O 0.88004 0.84567 0.97585
 C219 C 0.90047 0.85458 0.96727
 C220 C 0.91385 0.84142 0.94669
 C221 C 0.90552 0.81788 0.93810
 H222 H 0.88960 0.80877 0.94697
 O223 O 1.09087 1.12531 0.97527
 O224 O 1.12009 1.15470 0.97522
 C225 C 1.09966 1.14576 0.96665
 C226 C 1.08627 1.15888 0.94604
 C227 C 1.09470 1.18232 0.93724
 H228 H 1.11070 1.19140 0.94599
 O229 O 0.90903 1.02474 0.87487
 O230 O 0.87979 1.02466 0.84548
 C231 C 0.90022 1.03327 0.85437
 C232 C 0.91357 1.05381 0.84116
 C233 C 0.90509 1.06252 0.81770
 H234 H 0.88908 1.05374 0.80867
 O235 O 1.09084 0.97552 0.87484
 O236 O 1.12003 0.97546 0.84540
 C237 C 1.09960 0.96692 0.85436
 C238 C 1.08618 0.94639 0.84121
 C239 C 1.09453 0.93772 0.81769
 H240 H 1.11049 0.94652 0.80858
 O241 O 1.02445 0.87492 0.90937
 O242 O 1.02440 0.84552 0.88014
 C243 C 1.03296 0.85442 0.90059
 C244 C 1.05342 0.84119 0.91405
 C245 C 1.06192 0.81759 0.90579
 H246 H 1.05306 0.80849 0.88986
 O247 O 0.97547 1.12516 0.90919
 O248 O 0.97544 1.15453 0.87993
 C249 C 0.96690 1.14563 0.90040
 C250 C 0.94639 1.15882 0.91384
 C251 C 0.93778 1.18233 0.90549
 H252 H 0.94661 1.19142 0.88952
 O253 O 0.87462 1.09093 0.97554
 O254 O 0.84532 1.12023 0.97557
 C255 C 0.85418 1.09979 0.96697
 C256 C 0.84099 1.08645 0.94637
 C257 C 0.81757 1.09493 0.93758
 H258 H 0.80853 1.11095 0.94633
 O259 O 1.12510 0.90909 0.97557
 O260 O 1.15448 0.87986 0.97550
 C261 C 1.14555 0.90029 0.96694
 C262 C 1.15871 0.91369 0.94636
 C263 C 1.18219 0.90530 0.93767
 H264 H 1.19126 0.88932 0.94646
 O265 O 0.97536 1.09088 0.87463
 O266 O 0.97533 1.12008 0.84521
 C267 C 0.96675 1.09967 0.85416
 C268 C 0.94613 1.08631 0.84104
 C269 C 0.93735 1.09473 0.81758
 H270 H 0.94612 1.11070 0.80847
 O271 O 1.02452 0.90931 0.87490
 O272 O 1.02449 0.88008 0.84550
 C273 C 1.03309 0.90050 0.85442
 C274 C 1.05364 0.91387 0.84123
 C275 C 1.06230 0.90549 0.81771
 H276 H 1.05348 0.88953 0.80862
 O277 O 1.12522 0.97550 0.90929
 O278 O 1.15459 0.97543 0.88002
 C279 C 1.14566 0.96687 0.90047
 C280 C 1.15878 0.94628 0.91386
 C281 C 1.18226 0.93759 0.90547
 H282 H 1.19138 0.94640 0.88951
 O283 O 0.87462 1.02477 0.90929
 O284 O 0.84522 1.02468 0.88007
 C285 C 0.85414 1.03331 0.90048
 C286 C 0.84099 1.05390 0.91383
 C287 C 0.81757 1.06267 0.90535
 H288 H 0.80852 1.05389 0.88933
 O289 O 0.90918 1.12520 0.97552
 O290 O 0.88004 1.15467 0.97556
 C291 C 0.90044 1.14570 0.96696
 C292 C 0.91387 1.15885 0.94640
 C293 C 0.90555 1.18237 0.93775
 H294 H 0.88961 1.19149 0.94657
 O295 O 1.09063 0.87474 0.97572
 O296 O 1.11983 0.84534 0.97566
 C297 C 1.09938 0.85427 0.96714
 C298 C 1.08592 0.84110 0.94663
 C299 C 1.09412 0.81751 0.93808
 H300 H 1.11000 0.80835 0.94696
 O301 O 1.09083 1.02452 0.87484
 O302 O 1.12001 1.02452 0.84539
 C303 C 1.09958 1.03307 0.85433
 C304 C 1.08612 1.05357 0.84113
 C305 C 1.09441 1.06217 0.81755
 H306 H 1.11037 1.05338 0.80844
 O307 O 0.90913 0.97574 0.87498
 O308 O 0.87989 0.97559 0.84558
 C309 C 0.90036 0.96711 0.85451
 C310 C 0.91383 0.94662 0.84133
 C311 C 0.90559 0.93806 0.81773
 H312 H 0.88967 0.94689 0.80859
 O313 O 1.02450 1.12523 0.90901
 O314 O 1.02452 1.15458 0.87973
 C315 C 1.03310 1.14567 0.90018
 C316 C 1.05370 1.15883 0.91352
 C317 C 1.06242 1.18226 0.90503
 H318 H 1.05362 1.19131 0.88903
 O319 O 0.97545 0.87503 0.90939
 O320 O 0.97534 0.84564 0.88015
 C321 C 0.96683 0.85458 0.90062
 C322 C 0.94631 0.84143 0.91407
 C323 C 0.93769 0.81789 0.90577
 H324 H 0.94650 0.80878 0.88981
 O325 O 1.12528 1.09091 0.97534
 O326 O 1.15467 1.12013 0.97529
 C327 C 1.14576 1.09969 0.96675
 C328 C 1.15893 1.08626 0.94622
 C329 C 1.18242 1.09464 0.93752
 H330 H 1.19149 1.11063 0.94629
 O331 O 0.87490 0.90948 0.97590
 O332 O 0.84549 0.88027 0.97590
 C333 C 0.85441 0.90071 0.96734
 C334 C 0.84122 0.91413 0.94681
 C335 C 0.81764 0.90584 0.93829
 H336 H 0.80853 0.88993 0.94717
 Cu337 Cu 1.00000 0.89511 0.89509
 Cu338 Cu 0.99990 0.85993 0.85989
 Cu339 Cu 0.99992 1.10506 0.89483
 Cu340 Cu 0.99993 1.14020 0.85959
 Cu341 Cu 0.89481 1.00026 0.89508
 Cu342 Cu 0.85961 1.00011 0.85990
 Cu343 Cu 1.10513 1.00003 0.89498
 Cu344 Cu 1.14028 0.99998 0.85974
 C345 C 0.93441 0.93468 0.85286
 H346 H 0.94065 0.94094 0.87121
 C347 C 0.91760 0.91782 0.80598
 C348 C 1.06549 1.06546 0.85261
 H349 H 1.05921 1.05917 0.87094
 C350 C 1.08240 1.08241 0.80579
 C351 C 0.85270 0.93469 0.93481
 H352 H 0.87103 0.94097 0.94105
 C353 C 0.80587 0.91778 0.91801
 C354 C 1.14748 1.06560 0.93436
 H355 H 1.12922 1.05925 0.94073
 C356 C 1.19412 1.08270 0.91720
 C357 C 0.93441 0.85292 0.93471
 H358 H 0.94073 0.87122 0.94100
 C359 C 0.91743 0.80616 0.91777
 C360 C 1.06560 1.14742 0.93419
 H361 H 1.05921 1.12919 0.94063
 C362 C 1.08279 1.19397 0.91686
 C363 C 0.93426 1.06568 0.85255
 H364 H 0.94069 1.05931 0.87079
 C365 C 0.91696 1.08285 0.80595
 C366 C 1.06556 0.93449 0.85270
 H367 H 1.05923 0.94084 0.87099
 C368 C 1.08261 0.91741 0.80599
 C369 C 1.06539 0.85267 0.93464
 H370 H 1.05918 0.87101 0.94090
 C371 C 1.08213 0.80580 0.91780
 C372 C 0.93446 1.14735 0.93447
 H373 H 0.94077 1.12906 0.94080
 C374 C 0.91749 1.19407 0.91743
 C375 C 0.85241 1.06576 0.93452
 H376 H 0.87062 1.05934 0.94095
 C377 C 0.80590 1.08305 0.91719
 C378 C 1.14728 0.93435 0.93448
 H379 H 1.12902 0.94072 0.94084
 C380 C 1.19393 0.91723 0.91736
 O381 O 1.02470 0.90940 1.12551
 O382 O 1.02471 0.88024 1.15498
 C383 C 1.03329 0.90065 1.14601
 C384 C 1.05386 0.91405 1.15914
 C385 C 1.06253 0.90570 1.18265
 H386 H 1.05371 0.88977 1.19179
 O387 O 0.97581 1.09087 1.12557
 O388 O 0.97581 1.12017 1.15490
 C389 C 0.96724 1.09972 1.14603
 C390 C 0.94668 1.08637 1.15924
 C391 C 0.93801 1.09481 1.18273
 H392 H 0.94685 1.11078 1.19180
 O393 O 0.87496 1.02482 1.09120
 O394 O 0.84559 1.02486 1.12047
 C395 C 0.85450 1.03340 1.10001
 C396 C 0.84131 1.05392 1.08657
 C397 C 0.81784 1.06263 1.09498
 H398 H 0.80879 1.05389 1.11102
 O399 O 1.12536 0.97560 1.09085
 O400 O 1.15483 0.97557 1.12002
 C401 C 1.14585 0.96702 1.09959
 C402 C 1.15898 0.94648 1.08614
 C403 C 1.18254 0.93786 1.09440
 H404 H 1.19170 0.94670 1.11031
 O405 O 1.09084 0.87472 1.02479
 O406 O 1.12006 0.84534 1.02479
 C407 C 1.09965 0.85428 1.03341
 C408 C 1.08632 0.84117 1.05406
 C409 C 1.09476 0.81773 1.06284
 H410 H 1.11073 0.80864 1.05405
 O411 O 0.90929 1.12514 1.02458
 O412 O 0.88015 1.15460 1.02468
 C413 C 0.90058 1.14562 1.03320
 C414 C 0.91405 1.15875 1.05374
 C415 C 0.90578 1.18230 1.06235
 H416 H 0.88985 1.19143 1.05352
 O417 O 0.90940 0.97579 1.12560
 O418 O 0.88021 0.97576 1.15504
 C419 C 0.90063 0.96720 1.14608
 C420 C 0.91403 0.94664 1.15924
 C421 C 0.90566 0.93796 1.18275
 H422 H 0.88970 0.94676 1.19186
 O423 O 1.09106 1.02464 1.12536
 O424 O 1.12036 1.02468 1.15469
 C425 C 1.09991 1.03324 1.14581
 C426 C 1.08658 1.05382 1.15899
 C427 C 1.09506 1.06254 1.18244
 H428 H 1.11106 1.05375 1.19149
 O429 O 0.97567 0.87497 1.09115
 O430 O 0.97561 0.84562 1.12044
 C431 C 0.96707 0.85452 1.09997
 C432 C 0.94651 0.84136 1.08657
 C433 C 0.93787 0.81785 1.09493
 H434 H 0.94670 0.80875 1.11088
 O435 O 1.02475 1.12522 1.09094
 O436 O 1.02480 1.15468 1.12011
 C437 C 1.03332 1.14572 1.09966
 C438 C 1.05379 1.15890 1.08616
 C439 C 1.06242 1.18244 1.09446
 H440 H 1.05364 1.19153 1.11045
 O441 O 0.87494 0.90946 1.02495
 O442 O 0.84553 0.88026 1.02501
 C443 C 0.85447 0.90069 1.03356
 C444 C 0.84131 0.91412 1.05411
 C445 C 0.81779 0.90580 1.06275
 H446 H 0.80868 0.88985 1.05393
 O447 O 1.12525 1.09093 1.02439
 O448 O 1.15464 1.12015 1.02441
 C449 C 1.14572 1.09972 1.03298
 C450 C 1.15890 1.08631 1.05353
 C451 C 1.18244 1.09462 1.06213
 H452 H 1.19154 1.11057 1.05329
 O453 O 1.02484 1.09089 1.12547
 O454 O 1.02491 1.12018 1.15481
 C455 C 1.03347 1.09973 1.14591
 C456 C 1.05407 1.08637 1.15905
 C457 C 1.06286 1.09481 1.18250
 H458 H 1.05412 1.11080 1.19160
 O459 O 0.97568 0.90941 1.12555
 O460 O 0.97563 0.88024 1.15501
 C461 C 0.96708 0.90066 1.14605
 C462 C 0.94654 0.91409 1.15921
 C463 C 0.93787 0.90572 1.18273
 H464 H 0.94666 0.88974 1.19182
 O465 O 1.12532 1.02462 1.09078
 O466 O 1.15479 1.02465 1.11994
 C467 C 1.14581 1.03321 1.09952
 C468 C 1.15894 1.05375 1.08607
 C469 C 1.18249 1.06237 1.09436
 H470 H 1.19162 1.05353 1.11029
 O471 O 0.87495 0.97580 1.09122
 O472 O 0.84558 0.97578 1.12049
 C473 C 0.85448 0.96722 1.10003
 C474 C 0.84131 0.94668 1.08663
 C475 C 0.81779 0.93806 1.09498
 H476 H 0.80868 0.94690 1.11093
 O477 O 1.09083 1.12532 1.02435
 O478 O 1.12004 1.15472 1.02436
 C479 C 1.09961 1.14579 1.03293
 C480 C 1.08622 1.15895 1.05350
 C481 C 1.09454 1.18248 1.06210
 H482 H 1.11046 1.19160 1.05323
 O483 O 0.90932 0.87502 1.02492
 O484 O 0.88008 0.84565 1.02497
 C485 C 0.90053 0.85456 1.03352
 C486 C 0.91395 0.84138 1.05405
 C487 C 0.90561 0.81787 1.06270
 H488 H 0.88965 0.80878 1.05389
 O489 O 1.09101 0.97563 1.12537
 O490 O 1.12031 0.97559 1.15470
 C491 C 1.09984 0.96705 1.14583
 C492 C 1.08644 0.94653 1.15905
 C493 C 1.09482 0.93788 1.18257
 H494 H 1.11081 0.94667 1.19164
 O495 O 0.90939 1.02481 1.12564
 O496 O 0.88019 1.02485 1.15508
 C497 C 0.90063 1.03340 1.14613
 C498 C 0.91406 1.05393 1.15928
 C499 C 0.90570 1.06267 1.18278
 H500 H 0.88970 1.05392 1.19188
 O501 O 0.97573 1.12511 1.09097
 O502 O 0.97573 1.15458 1.12013
 C503 C 0.96715 1.14560 1.09971
 C504 C 0.94661 1.15874 1.08627
 C505 C 0.93803 1.18229 1.09458
 H506 H 0.94688 1.19141 1.11051
 O507 O 1.02469 0.87489 1.09119
 O508 O 1.02470 0.84556 1.12049
 C509 C 1.03327 0.85444 1.10003
 C510 C 1.05383 0.84125 1.08666
 C511 C 1.06256 0.81781 1.09514
 H512 H 1.05379 0.80878 1.11117
 O513 O 1.12514 0.90923 1.02461
 O514 O 1.15454 0.88002 1.02461
 C515 C 1.14564 0.90047 1.03315
 C516 C 1.15886 0.91392 1.05362
 C517 C 1.18242 0.90561 1.06217
 H518 H 1.19149 0.88965 1.05332
 O519 O 0.87478 1.09084 1.02462
 O520 O 0.84546 1.12013 1.02472
 C521 C 0.85436 1.09968 1.03327
 C522 C 0.84124 1.08634 1.05390
 C523 C 0.81777 1.09475 1.06261
 H524 H 0.80867 1.11068 1.05377
 Cu525 Cu 1.00019 0.89509 1.10541
 Cu526 Cu 1.00016 0.85998 1.14068
 Cu527 Cu 1.00029 1.10508 1.10532
 Cu528 Cu 1.00032 1.14035 1.14043
 Cu529 Cu 0.89504 0.89517 1.00041
 Cu530 Cu 0.85984 0.86002 1.00044
 Cu531 Cu 1.10499 0.89487 1.00018
 Cu532 Cu 1.14017 0.85969 1.00013
 Cu533 Cu 0.89488 1.10509 1.00005
 Cu534 Cu 0.85981 1.14036 1.00015
 Cu535 Cu 1.10513 1.10520 0.99983
 Cu536 Cu 1.14030 1.14038 0.99982
 Cu537 Cu 0.89510 1.00031 1.10548
 Cu538 Cu 0.85995 1.00032 1.14072
 Cu539 Cu 1.10525 1.00012 1.10517
 Cu540 Cu 1.14053 1.00012 1.14028
 C541 C 1.06579 0.93463 1.14761
 H542 H 1.05943 0.94096 1.12932
 C543 C 1.08288 0.91760 1.19433
 C544 C 0.93473 1.06576 1.14780
 H545 H 0.94107 1.05936 1.12953
 C546 C 0.91765 1.08298 1.19446
 C547 C 0.85273 1.06575 1.06586
 H548 H 0.87098 1.05938 1.05948
 C549 C 0.80612 1.08292 1.08302
 C550 C 1.14742 0.93453 1.06558
 H551 H 1.12910 0.94083 1.05932
 C552 C 1.19421 0.91756 1.08242
 C553 C 1.06569 0.85264 1.06595
 H554 H 1.05929 0.87086 1.05951
 C555 C 1.08289 0.80609 1.08325
 C556 C 0.93464 1.14724 1.06568
 H557 H 0.94092 1.12893 1.05938
 C558 C 0.91775 1.19402 1.08263
 C559 C 0.93465 0.93472 1.14774
 H560 H 0.94100 0.94107 1.12946
 C561 C 0.91756 0.91763 1.19445
 C562 C 1.06591 1.06571 1.14758
 H563 H 1.05948 1.05931 1.12934
 C564 C 1.08323 1.08290 1.19416
 C565 C 0.93458 0.85285 1.06596
 H566 H 0.94090 0.87114 1.05963
 C567 C 0.91755 0.80615 1.08301
 C568 C 1.06566 1.14743 1.06550
 H569 H 1.05935 1.12913 1.05920
 C570 C 1.08266 1.19418 1.08245
 C571 C 0.85280 0.93473 1.06602
 H572 H 0.87109 0.94104 1.05969
 C573 C 0.80607 0.91776 1.08305
 C574 C 1.14742 1.06570 1.06547
 H575 H 1.12912 1.05939 1.05918
 C576 C 1.19419 1.08267 1.08242
 O577 O 0.97571 0.40899 0.37438
 O578 O 0.97568 0.37976 0.34497
 C579 C 0.96712 0.40020 0.35390
 C580 C 0.94657 0.41360 0.34074
 C581 C 0.93792 0.40527 0.31721
 H582 H 0.94674 0.38933 0.30808
 O583 O 1.02462 0.59052 0.37442
 O584 O 1.02464 0.61977 0.34504
 C585 C 1.03321 0.59934 0.35395
 C586 C 1.05377 0.58599 0.34076
 C587 C 1.06247 0.59446 0.31730
 H588 H 1.05366 0.61045 0.30825
 O589 O 0.87502 0.47518 0.40896
 O590 O 0.84561 0.47511 0.37974
 C591 C 0.85455 0.46658 0.40020
 C592 C 0.84141 0.44606 0.41366
 C593 C 0.81783 0.43748 0.40542
 H594 H 0.80868 0.44632 0.38950
 O595 O 1.12526 0.52423 0.40882
 O596 O 1.15468 0.52430 0.37961
 C597 C 1.14574 0.53281 0.40007
 C598 C 1.15892 0.55328 0.41356
 C599 C 1.18249 0.56186 0.40529
 H600 H 1.19160 0.55305 0.38933
 O601 O 0.90948 0.37443 0.47526
 O602 O 0.88027 0.34504 0.47519
 C603 C 0.90069 0.35398 0.46663
 C604 C 0.91408 0.34086 0.44602
 C605 C 0.90569 0.31739 0.43730
 H606 H 0.88974 0.30828 0.44611
 O607 O 1.09093 0.62485 0.47526
 O608 O 1.12016 0.65423 0.47519
 C609 C 1.09972 0.64531 0.46665
 C610 C 1.08630 0.65847 0.44609
 C611 C 1.09463 0.68200 0.43745
 H612 H 1.11058 0.69110 0.44627
 O613 O 0.90935 0.52422 0.37447
 O614 O 0.88011 0.52422 0.34508
 C615 C 0.90055 0.53279 0.35400
 C616 C 0.91393 0.55336 0.34082
 C617 C 0.90553 0.56204 0.31733
 H618 H 0.88956 0.55324 0.30824
 O619 O 1.09088 0.47527 0.37428
 O620 O 1.12012 0.47529 0.34488
 C621 C 1.09969 0.46671 0.35380
 C622 C 1.08632 0.44615 0.34062
 C623 C 1.09473 0.43749 0.31712
 H624 H 1.11069 0.44632 0.30803
 O625 O 1.02473 0.37463 0.40883
 O626 O 1.02477 0.34523 0.37961
 C627 C 1.03332 0.35417 0.40006
 C628 C 1.05386 0.34102 0.41349
 C629 C 1.06253 0.31752 0.40514
 H630 H 1.05374 0.30842 0.38915
 O631 O 0.97559 0.62491 0.40888
 O632 O 0.97557 0.65431 0.37965
 C633 C 0.96701 0.64538 0.40010
 C634 C 0.94647 0.65854 0.41351
 C635 C 0.93784 0.68206 0.40517
 H636 H 0.94668 0.69117 0.38923
 O637 O 0.87490 0.59047 0.47519
 O638 O 0.84549 0.61966 0.47518
 C639 C 0.85442 0.59924 0.46661
 C640 C 0.84126 0.58582 0.44606
 C641 C 0.81774 0.59415 0.43742
 H642 H 0.80864 0.61010 0.44623
 O643 O 1.12542 0.40904 0.47518
 O644 O 1.15480 0.37981 0.47513
 C645 C 1.14587 0.40024 0.46656
 C646 C 1.15899 0.41361 0.44594
 C647 C 1.18247 0.40522 0.43721
 H648 H 1.19157 0.38927 0.44602
 O649 O 0.97560 0.59049 0.37446
 O650 O 0.97555 0.61973 0.34507
 C651 C 0.96700 0.59929 0.35398
 C652 C 0.94645 0.58589 0.34082
 C653 C 0.93776 0.59428 0.31732
 H654 H 0.94655 0.61025 0.30823
 O655 O 1.02473 0.40894 0.37429
 O656 O 1.02477 0.37971 0.34489
 C657 C 1.03331 0.40015 0.35381
 C658 C 1.05385 0.41357 0.34062
 C659 C 1.06256 0.40519 0.31712
 H660 H 1.05380 0.38920 0.30803
 O661 O 1.12529 0.47522 0.40871
 O662 O 1.15469 0.47523 0.37949
 C663 C 1.14576 0.46665 0.39992
 C664 C 1.15893 0.44610 0.41333
 C665 C 1.18240 0.43741 0.40491
 H666 H 1.19146 0.44619 0.38890
 O667 O 0.87493 0.52419 0.40890
 O668 O 0.84552 0.52418 0.37967
 C669 C 0.85445 0.53275 0.40011
 C670 C 0.84127 0.55328 0.41353
 C671 C 0.81775 0.56190 0.40517
 H672 H 0.80866 0.55307 0.38921
 O673 O 0.90930 0.62488 0.47517
 O674 O 0.88007 0.65425 0.47516
 C675 C 0.90051 0.64534 0.46659
 C676 C 0.91392 0.65852 0.44604
 C677 C 0.90558 0.68204 0.43741
 H678 H 0.88963 0.69113 0.44623
 O679 O 1.09100 0.37466 0.47523
 O680 O 1.12020 0.34526 0.47518
 C681 C 1.09977 0.35419 0.46663
 C682 C 1.08636 0.34103 0.44608
 C683 C 1.09473 0.31753 0.43742
 H684 H 1.11068 0.30844 0.44624
 O685 O 1.09093 0.52430 0.37429
 O686 O 1.12018 0.52439 0.34491
 C687 C 1.09974 0.53293 0.35383
 C688 C 1.08635 0.55351 0.34070
 C689 C 1.09476 0.56229 0.31723
 H690 H 1.11076 0.55356 0.30813
 O691 O 0.90938 0.47521 0.37446
 O692 O 0.88014 0.47514 0.34507
 C693 C 0.90059 0.46661 0.35398
 C694 C 0.91401 0.44610 0.34079
 C695 C 0.90567 0.43747 0.31726
 H696 H 0.88971 0.44629 0.30816
 O697 O 1.02462 0.62486 0.40892
 O698 O 1.02464 0.65427 0.37970
 C699 C 1.03320 0.64533 0.40014
 C700 C 1.05375 0.65848 0.41356
 C701 C 1.06237 0.68201 0.40523
 H702 H 1.05353 0.69112 0.38928
 O703 O 0.97571 0.37456 0.40879
 O704 O 0.97568 0.34516 0.37956
 C705 C 0.96712 0.35409 0.40001
 C706 C 0.94658 0.34092 0.41342
 C707 C 0.93789 0.31744 0.40501
 H708 H 0.94668 0.30838 0.38901
 O709 O 1.12530 0.59041 0.47531
 O710 O 1.15471 0.61961 0.47525
 C711 C 1.14577 0.59917 0.46671
 C712 C 1.15894 0.58575 0.44618
 C713 C 1.18250 0.59403 0.43761
 H714 H 1.19163 0.60993 0.44648
 O715 O 0.87511 0.40887 0.47532
 O716 O 0.84572 0.37965 0.47527
 C717 C 0.85464 0.40010 0.46674
 C718 C 0.84145 0.41354 0.44622
 C719 C 0.81788 0.40527 0.43769
 H720 H 0.80876 0.38935 0.44657
 Cu721 Cu 1.00022 0.39471 0.39450
 Cu722 Cu 1.00023 0.35952 0.35931
 Cu723 Cu 1.00011 0.60476 0.39460
 Cu724 Cu 1.00010 0.63997 0.35942
 Cu725 Cu 0.89510 0.49970 0.39463
 Cu726 Cu 0.85990 0.49965 0.35944
 Cu727 Cu 1.10515 0.49975 0.39445
 Cu728 Cu 1.14036 0.49981 0.35927
 C729 C 0.93464 0.43419 0.35226
 H730 H 0.94096 0.44050 0.37056
 C731 C 0.91760 0.41719 0.30551
 C732 C 1.06568 0.56534 0.35218
 H733 H 1.05931 0.55892 0.37043
 C734 C 1.08283 0.58264 0.30558
 C735 C 0.85294 0.43411 0.43424
 H736 H 0.87128 0.44038 0.44049
 C737 C 0.80611 0.41722 0.41742
 C738 C 1.14742 0.56520 0.43418
 H739 H 1.12910 0.55892 0.44045
 C740 C 1.19423 0.58210 0.41730
 C741 C 0.93470 0.35235 0.43410
 H742 H 0.94106 0.37060 0.44048
 C743 C 0.91758 0.30572 0.41693
 C744 C 1.06569 0.64699 0.43417
 H745 H 1.05938 0.62870 0.44049
 C746 C 1.08268 0.69372 0.41715
 C747 C 0.93456 0.56526 0.35229
 H748 H 0.94092 0.55890 0.37056
 C749 C 0.91743 0.58237 0.30562
 C750 C 1.06571 0.43422 0.35209
 H751 H 1.05934 0.44057 0.37037
 C752 C 1.08287 0.41714 0.30541
 C753 C 1.06575 0.35250 0.43414
 H754 H 1.05941 0.37077 0.44048
 C755 C 1.08283 0.30582 0.41708
 C756 C 0.93453 0.64705 0.43412
 H757 H 0.94085 0.62876 0.44044
 C758 C 0.91753 0.69376 0.41710
 C759 C 0.85275 0.56521 0.43414
 H760 H 0.87103 0.55890 0.44047
 C761 C 0.80603 0.58220 0.41710
 C762 C 1.14750 0.43422 0.43401
 H763 H 1.12925 0.44058 0.44040
 C764 C 1.19413 0.41711 0.41683
 O765 O 1.02466 0.40890 0.62518
 O766 O 1.02471 0.37965 0.65457
 C767 C 1.03327 0.40009 0.64565
 C768 C 1.05385 0.41345 0.65880
 C769 C 1.06256 0.40500 0.68227
 H770 H 1.05375 0.38903 0.69135
 O771 O 0.97559 0.59054 0.62491
 O772 O 0.97555 0.61973 0.65435
 C773 C 0.96700 0.59931 0.64540
 C774 C 0.94647 0.58588 0.65858
 C775 C 0.93785 0.59420 0.68213
 H776 H 0.94666 0.61016 0.69123
 O777 O 0.87496 0.52409 0.59059
 O778 O 0.84556 0.52414 0.61982
 C779 C 0.85449 0.53268 0.59936
 C780 C 0.84133 0.55321 0.58593
 C781 C 0.81779 0.56181 0.59424
 H782 H 0.80867 0.55298 0.61019
 O783 O 1.12542 0.47515 0.59065
 O784 O 1.15479 0.47517 0.61991
 C785 C 1.14589 0.46660 0.59945
 C786 C 1.15908 0.44608 0.58604
 C787 C 1.18255 0.43738 0.59445
 H788 H 1.19161 0.44615 0.61046
 O789 O 1.09102 0.37467 0.52430
 O790 O 1.12022 0.34527 0.52431
 C791 C 1.09980 0.35420 0.53289
 C792 C 1.08639 0.34103 0.55345
 C793 C 1.09472 0.31751 0.56208
 H794 H 1.11068 0.30841 0.55326
 O795 O 0.90932 0.62488 0.52422
 O796 O 0.88009 0.65426 0.52427
 C797 C 0.90054 0.64535 0.53281
 C798 C 0.91398 0.65854 0.55332
 C799 C 0.90570 0.68210 0.56190
 H800 H 0.88977 0.69121 0.55306
 O801 O 0.90936 0.47511 0.62510
 O802 O 0.88012 0.47511 0.65450
 C803 C 0.90056 0.46654 0.64559
 C804 C 0.91394 0.44599 0.65878
 C805 C 0.90552 0.43731 0.68227
 H806 H 0.88954 0.44611 0.69135
 O807 O 1.09086 0.52407 0.62503
 O808 O 1.12004 0.52416 0.65449
 C809 C 1.09959 0.53267 0.64553
 C810 C 1.08611 0.55317 0.65869
 C811 C 1.09429 0.56169 0.68232
 H812 H 1.11017 0.55281 0.69150
 O813 O 0.97566 0.37447 0.59074
 O814 O 0.97565 0.34506 0.61996
 C815 C 0.96709 0.35399 0.59952
 C816 C 0.94656 0.34081 0.58610
 C817 C 0.93786 0.31734 0.59451
 H818 H 0.94662 0.30828 0.61053
 O819 O 1.02466 0.62499 0.59058
 O820 O 1.02470 0.65434 0.61985
 C821 C 1.03326 0.64544 0.59940
 C822 C 1.05383 0.65859 0.58600
 C823 C 1.06253 0.68208 0.59438
 H824 H 1.05374 0.69118 0.61035
 O825 O 0.87504 0.40875 0.52438
 O826 O 0.84566 0.37952 0.52438
 C827 C 0.85458 0.39995 0.53296
 C828 C 0.84140 0.41334 0.55353
 C829 C 0.81791 0.40496 0.56222
 H830 H 0.80883 0.38899 0.55342
 O831 O 1.12532 0.59048 0.52437
 O832 O 1.15471 0.61969 0.52437
 C833 C 1.14578 0.59928 0.53297
 C834 C 1.15893 0.58591 0.55356
 C835 C 1.18239 0.59434 0.56227
 H836 H 1.19146 0.61032 0.55347
 O837 O 1.02460 0.59044 0.62489
 O838 O 1.02461 0.61962 0.65434
 C839 C 1.03315 0.59919 0.64540
 C840 C 1.05361 0.58571 0.65862
 C841 C 1.06209 0.59393 0.68225
 H842 H 1.05321 0.60984 0.69138
 O843 O 0.97563 0.40889 0.62518
 O844 O 0.97561 0.37965 0.65457
 C845 C 0.96704 0.40008 0.64565
 C846 C 0.94647 0.41346 0.65882
 C847 C 0.93775 0.40507 0.68231
 H848 H 0.94653 0.38910 0.69141
 O849 O 1.12539 0.52417 0.59072
 O850 O 1.15474 0.52426 0.61999
 C851 C 1.14582 0.53281 0.59953
 C852 C 1.15895 0.55340 0.58614
 C853 C 1.18241 0.56213 0.59455
 H854 H 1.19150 0.55336 0.61055
 O855 O 0.87498 0.47506 0.59063
 O856 O 0.84558 0.47506 0.61987
 C857 C 0.85452 0.46648 0.59943
 C858 C 0.84137 0.44591 0.58605
 C859 C 0.81788 0.43724 0.59443
 H860 H 0.80878 0.44606 0.61039
 O861 O 1.09093 0.62490 0.52432
 O862 O 1.12016 0.65427 0.52431
 C863 C 1.09973 0.64537 0.53288
 C864 C 1.08634 0.65855 0.55344
 C865 C 1.09474 0.68204 0.56209
 H866 H 1.11071 0.69111 0.55327
 O867 O 0.90950 0.37439 0.52434
 O868 O 0.88028 0.34499 0.52433
 C869 C 0.90071 0.35392 0.53291
 C870 C 0.91409 0.34077 0.55350
 C871 C 0.90568 0.31730 0.56221
 H872 H 0.88971 0.30821 0.55340
 O873 O 1.09105 0.47506 0.62514
 O874 O 1.12025 0.47508 0.65457
 C875 C 1.09984 0.46649 0.64563
 C876 C 1.08645 0.44592 0.65880
 C877 C 1.09487 0.43716 0.68227
 H878 H 1.11087 0.44591 0.69135
 O879 O 0.90938 0.52413 0.62501
 O880 O 0.88016 0.52419 0.65442
 C881 C 0.90059 0.53274 0.64548
 C882 C 0.91399 0.55330 0.65862
 C883 C 0.90566 0.56193 0.68217
 H884 H 0.88974 0.55309 0.69130
 O885 O 0.97564 0.62493 0.59047
 O886 O 0.97561 0.65430 0.61973
 C887 C 0.96706 0.64539 0.59927
 C888 C 0.94654 0.65856 0.58584
 C889 C 0.93797 0.68212 0.59413
 H890 H 0.94683 0.69125 0.61005
 O891 O 1.02468 0.37459 0.59067
 O892 O 1.02473 0.34517 0.61988
 C893 C 1.03328 0.35412 0.59944
 C894 C 1.05384 0.34099 0.58600
 C895 C 1.06248 0.31747 0.59433
 H896 H 1.05365 0.30836 0.61028
 O897 O 1.12549 0.40903 0.52426
 O898 O 1.15486 0.37979 0.52427
 C899 C 1.14595 0.40022 0.53285
 C900 C 1.15911 0.41360 0.55343
 C901 C 1.18258 0.40520 0.56214
 H902 H 1.19167 0.38923 0.55333
 O903 O 0.87497 0.59042 0.52424
 O904 O 0.84556 0.61961 0.52430
 C905 C 0.85450 0.59918 0.53284
 C906 C 0.84134 0.58575 0.55339
 C907 C 0.81780 0.59405 0.56200
 H908 H 0.80869 0.60999 0.55316
 Cu909 Cu 1.00015 0.39464 0.60502
 Cu910 Cu 1.00018 0.35944 0.64019
 Cu911 Cu 1.00013 0.60481 0.60477
 Cu912 Cu 1.00012 0.63994 0.64002
 Cu913 Cu 0.89522 0.39453 0.49983
 Cu914 Cu 0.86004 0.35935 0.49979
 Cu915 Cu 1.10531 0.39478 0.49975
 Cu916 Cu 1.14047 0.35959 0.49972
 Cu917 Cu 0.89505 0.60474 0.49970
 Cu918 Cu 0.85985 0.63989 0.49973
 Cu919 Cu 1.10519 0.60473 0.49982
 Cu920 Cu 1.14039 0.63989 0.49977
 Cu921 Cu 0.89510 0.49959 0.60490
 Cu922 Cu 0.85991 0.49963 0.64010
 Cu923 Cu 1.10526 0.49960 0.60495
 Cu924 Cu 1.14040 0.49968 0.64019
 C925 C 1.06577 0.43408 0.64735
 H926 H 1.05938 0.44048 0.62909
 C927 C 1.08294 0.41683 0.69396
 C928 C 0.93457 0.56525 0.64711
 H929 H 0.94088 0.55894 0.62880
 C930 C 0.91758 0.58225 0.69388
 C931 C 0.85283 0.56515 0.56532
 H932 H 0.87113 0.55885 0.55902
 C933 C 0.80607 0.58211 0.58229
 C934 C 1.14764 0.43421 0.56535
 H935 H 1.12939 0.44058 0.55898
 C936 C 1.19426 0.41707 0.58252
 C937 C 1.06577 0.35250 0.56539
 H938 H 1.05944 0.37078 0.55907
 C939 C 1.08279 0.30577 0.58239
 C940 C 0.93457 0.64705 0.56526
 H941 H 0.94085 0.62873 0.55898
 C942 C 0.91769 0.69385 0.58217
 C943 C 0.93458 0.43409 0.64733
 H944 H 0.94096 0.44045 0.62906
 C945 C 0.91740 0.41698 0.69400
 C946 C 1.06559 0.56515 0.64711
 H947 H 1.05939 0.55892 0.62874
 C948 C 1.08229 0.58193 0.69405
 C949 C 0.93470 0.35224 0.56542
 H950 H 0.94107 0.37049 0.55904
 C951 C 0.91754 0.30563 0.58258
 C952 C 1.06571 0.64711 0.56536
 H953 H 1.05935 0.62884 0.55901
 C954 C 1.08285 0.69376 0.58243
 C955 C 0.85286 0.43398 0.56543
 H956 H 0.87112 0.44033 0.55907
 C957 C 0.80619 0.41690 0.58254
 C958 C 1.14749 0.56527 0.56547
 H959 H 1.12925 0.55887 0.55909
 C960 C 1.19409 0.58247 0.58264
 O961 O 0.47557 0.90955 0.37479
 O962 O 0.47551 0.88035 0.34536
 C963 C 0.46698 0.90078 0.35431
 C964 C 0.44645 0.91420 0.34114
 C965 C 0.43785 0.90587 0.31760
 H966 H 0.44670 0.88994 0.30848
 O967 O 0.52469 1.09115 0.37467
 O968 O 0.52471 1.12040 0.34529
 C969 C 0.53327 1.09996 0.35419
 C970 C 0.55382 1.08659 0.34100
 C971 C 0.56252 1.09504 0.31752
 H972 H 0.55373 1.11104 0.30847
 O973 O 0.37481 0.97586 0.40926
 O974 O 0.34545 0.97585 0.37999
 C975 C 0.35434 0.96731 0.40046
 C976 C 0.34113 0.94680 0.41387
 C977 C 0.31760 0.93821 0.40553
 H978 H 0.30851 0.94705 0.38957
 O979 O 0.62533 1.02483 0.40899
 O980 O 0.65471 1.02483 0.37974
 C981 C 0.64581 1.03338 0.40021
 C982 C 0.65902 1.05388 0.41365
 C983 C 0.68252 1.06254 0.40527
 H984 H 0.69158 1.05378 0.38925
 O985 O 0.40912 0.87513 0.47544
 O986 O 0.37989 0.84576 0.47536
 C987 C 0.40033 0.85468 0.46682
 C988 C 0.41376 0.84153 0.44627
 C989 C 0.40544 0.81801 0.43761
 H990 H 0.38948 0.80890 0.44640
 O991 O 0.59110 1.12525 0.47552
 O992 O 0.62030 1.15466 0.47550
 C993 C 0.59987 1.14573 0.46694
 C994 C 0.58643 1.15892 0.44642
 C995 C 0.59475 1.18246 0.43783
 H996 H 0.61070 1.19156 0.44666
 O997 O 0.40937 1.02479 0.37485
 O998 O 0.38019 1.02482 0.34540
 C999 C 0.40062 1.03335 0.35435
 C1000 C 0.41407 1.05384 0.34116
 C1001 C 0.40580 1.06237 0.31757
 H1002 H 0.38989 1.05349 0.30844
 O1003 O 0.59082 0.97588 0.37458
 O1004 O 0.62002 0.97580 0.34516
 C1005 C 0.59959 0.96727 0.35411
 C1006 C 0.58617 0.94671 0.34097
 C1007 C 0.59450 0.93804 0.31744
 H1008 H 0.61044 0.94685 0.30831
 O1009 O 0.52455 0.87503 0.40914
 O1010 O 0.52455 0.84567 0.37987
 C1011 C 0.53311 0.85457 0.40032
 C1012 C 0.55364 0.84138 0.41372
 C1013 C 0.56226 0.81787 0.40537
 H1014 H 0.55343 0.80877 0.38941
 O1015 O 0.47569 1.12554 0.40917
 O1016 O 0.47565 1.15494 0.37994
 C1017 C 0.46711 1.14602 0.40039
 C1018 C 0.44659 1.15919 0.41383
 C1019 C 0.43793 1.18269 0.40547
 H1020 H 0.44672 1.19178 0.38948
 O1021 O 0.37492 1.09126 0.47540
 O1022 O 0.34556 1.12050 0.47538
 C1023 C 0.35447 1.10008 0.46679
 C1024 C 0.34132 1.08671 0.44619
 C1025 C 0.31788 1.09515 0.43741
 H1026 H 0.30882 1.11116 0.44616
 O1027 O 0.62513 0.90951 0.47532
 O1028 O 0.65452 0.88030 0.47532
 C1029 C 0.64560 0.90073 0.46674
 C1030 C 0.65877 0.91413 0.44618
 C1031 C 0.68229 0.90578 0.43754
 H1032 H 0.69138 0.88982 0.44637
 O1033 O 0.47567 1.09107 0.37478
 O1034 O 0.47563 1.12030 0.34538
 C1035 C 0.46708 1.09985 0.35430
 C1036 C 0.44657 1.08640 0.34112
 C1037 C 0.43799 1.09465 0.31753
 H1038 H 0.44681 1.11056 0.30838
 O1039 O 0.52458 0.90951 0.37476
 O1040 O 0.52457 0.88031 0.34533
 C1041 C 0.53314 0.90074 0.35426
 C1042 C 0.55367 0.91415 0.34106
 C1043 C 0.56229 0.90578 0.31753
 H1044 H 0.55349 0.88981 0.30845
 O1045 O 0.62523 0.97583 0.40900
 O1046 O 0.65461 0.97575 0.37975
 C1047 C 0.64568 0.96721 0.40020
 C1048 C 0.65881 0.94666 0.41363
 C1049 C 0.68232 0.93801 0.40529
 H1050 H 0.69144 0.94682 0.38933
 O1051 O 0.37487 1.02489 0.40919
 O1052 O 0.34552 1.02494 0.37990
 C1053 C 0.35444 1.03351 0.40035
 C1054 C 0.34131 1.05412 0.41369
 C1055 C 0.31787 1.06285 0.40522
 H1056 H 0.30881 1.05405 0.38924
 O1057 O 0.40943 1.12556 0.47553
 O1058 O 0.38024 1.15498 0.47553
 C1059 C 0.40067 1.14604 0.46696
 C1060 C 0.41409 1.15921 0.44642
 C1061 C 0.40574 1.18271 0.43776
 H1062 H 0.38978 1.19181 0.44659
 O1063 O 0.59079 0.87503 0.47535
 O1064 O 0.62002 0.84566 0.47536
 C1065 C 0.59958 0.85456 0.46679
 C1066 C 0.58618 0.84138 0.44625
 C1067 C 0.59451 0.81786 0.43760
 H1068 H 0.61046 0.80876 0.44642
 O1069 O 0.59092 1.02490 0.37455
 O1070 O 0.62013 1.02490 0.34513
 C1071 C 0.59972 1.03348 0.35407
 C1072 C 0.58634 1.05407 0.34093
 C1073 C 0.59475 1.06282 0.31746
 H1074 H 0.61073 1.05405 0.30835
 O1075 O 0.40923 0.97578 0.37482
 O1076 O 0.38004 0.97576 0.34538
 C1077 C 0.40046 0.96720 0.35432
 C1078 C 0.41388 0.94667 0.34115
 C1079 C 0.40557 0.93804 0.31759
 H1080 H 0.38962 0.94684 0.30848
 O1081 O 0.52471 1.12540 0.40924
 O1082 O 0.52474 1.15483 0.38003
 C1083 C 0.53330 1.14587 0.40047
 C1084 C 0.55386 1.15900 0.41390
 C1085 C 0.56248 1.18254 0.40561
 H1086 H 0.55363 1.19168 0.38969
 O1087 O 0.47553 0.87512 0.40919
 O1088 O 0.47547 0.84576 0.37993
 C1089 C 0.46692 0.85468 0.40038
 C1090 C 0.44636 0.84152 0.41377
 C1091 C 0.43774 0.81801 0.40542
 H1092 H 0.44660 0.80890 0.38948
 O1093 O 0.62551 1.09084 0.47551
 O1094 O 0.65487 1.12009 0.47549
 C1095 C 0.64596 1.09966 0.46691
 C1096 C 0.65910 1.08630 0.44631
 C1097 C 0.68259 1.09467 0.43763
 H1098 H 0.69171 1.11060 0.44648
 O1099 O 0.37472 0.90955 0.47552
 O1100 O 0.34531 0.88036 0.47544
 C1101 C 0.35425 0.90080 0.46692
 C1102 C 0.34109 0.91425 0.44640
 C1103 C 0.31756 0.90596 0.43776
 H1104 H 0.30843 0.89001 0.44658
 Cu1105 Cu 0.50007 0.89523 0.39491
 Cu1106 Cu 0.50002 0.86008 0.35967
 Cu1107 Cu 0.50018 1.10536 0.39489
 Cu1108 Cu 0.50018 1.14057 0.35972
 Cu1109 Cu 0.39499 1.00032 0.39497
 Cu1110 Cu 0.35985 1.00034 0.35972
 Cu1111 Cu 0.60514 1.00037 0.39471
 Cu1112 Cu 0.64031 1.00031 0.35949
 C1113 C 0.43450 0.93477 0.35265
 H1114 H 0.44080 0.94108 0.37096
 C1115 C 0.41755 0.91777 0.30587
 C1116 C 0.56570 1.06593 0.35242
 H1117 H 0.55933 1.05953 0.37068
 C1118 C 0.58286 1.08318 0.30579
 C1119 C 0.35260 0.93485 0.43448
 H1120 H 0.37090 0.94113 0.44081
 C1121 C 0.30585 0.91792 0.41746
 C1122 C 0.64759 1.06573 0.43434
 H1123 H 0.62932 1.05938 0.44070
 C1124 C 0.69426 1.08281 0.41725
 C1125 C 0.43439 0.85301 0.43437
 H1126 H 0.44071 0.87129 0.44071
 C1127 C 0.41742 0.80629 0.41731
 C1128 C 0.56581 1.14746 0.43448
 H1129 H 0.55951 1.12915 0.44076
 C1130 C 0.58279 1.19423 0.41756
 C1131 C 0.43463 1.06583 0.35266
 H1132 H 0.44090 1.05958 0.37100
 C1133 C 0.41773 1.08263 0.30580
 C1134 C 0.56557 0.93479 0.35250
 H1135 H 0.55926 0.94114 0.37080
 C1136 C 0.58258 0.91771 0.30577
 C1137 C 0.56557 0.85286 0.43434
 H1138 H 0.55925 0.87114 0.44067
 C1139 C 0.58256 0.80615 0.41729
 C1140 C 0.43470 1.14773 0.43448
 H1141 H 0.44103 1.12945 0.44082
 C1142 C 0.41764 1.19441 0.41742
 C1143 C 0.35275 1.06603 0.43434
 H1144 H 0.37098 1.05962 0.44076
 C1145 C 0.30620 1.08324 0.41706
 C1146 C 0.64731 0.93474 0.43425
 H1147 H 0.62903 0.94108 0.44057
 C1148 C 0.69402 0.91770 0.41723
 O1149 O 0.52433 0.90948 0.62514
 O1150 O 0.52438 0.88028 0.65457
 C1151 C 0.53292 0.90072 0.64563
 C1152 C 0.55343 0.91416 0.65882
 C1153 C 0.56196 0.90589 0.68242
 H1154 H 0.55309 0.88998 0.69155
 O1155 O 0.47560 1.09094 0.62542
 O1156 O 0.47559 1.12019 0.65480
 C1157 C 0.46700 1.09977 0.64588
 C1158 C 0.44638 1.08643 0.65902
 C1159 C 0.43766 1.09489 0.68248
 H1160 H 0.44648 1.11085 0.69157
 O1161 O 0.37480 1.02479 0.59079
 O1162 O 0.34538 1.02485 0.62001
 C1163 C 0.35433 1.03338 0.59955
 C1164 C 0.34117 1.05388 0.58607
 C1165 C 0.31760 1.06246 0.59431
 H1166 H 0.30844 1.05362 0.61023
 O1167 O 0.62517 0.97581 0.59082
 O1168 O 0.65455 0.97565 0.62008
 C1169 C 0.64562 0.96717 0.59959
 C1170 C 0.65878 0.94668 0.58610
 C1171 C 0.68236 0.93811 0.59434
 H1172 H 0.69150 0.94694 0.61028
 O1173 O 0.59070 0.87515 0.52440
 O1174 O 0.61993 0.84577 0.52447
 C1175 C 0.59949 0.85469 0.53301
 C1176 C 0.58606 0.84152 0.55355
 C1177 C 0.59437 0.81798 0.56215
 H1178 H 0.61031 0.80888 0.55331
 O1179 O 0.40932 1.12552 0.52460
 O1180 O 0.38012 1.15492 0.52467
 C1181 C 0.40054 1.14596 0.53324
 C1182 C 0.41392 1.15907 0.55387
 C1183 C 0.40550 1.18251 0.56264
 H1184 H 0.38951 1.19160 0.55387
 O1185 O 0.40919 0.97583 0.62528
 O1186 O 0.37997 0.97582 0.65469
 C1187 C 0.40040 0.96725 0.64576
 C1188 C 0.41378 0.94669 0.65892
 C1189 C 0.40542 0.93805 0.68244
 H1190 H 0.38949 0.94690 0.69156
 O1191 O 0.59089 1.02483 0.62538
 O1192 O 0.62010 1.02472 0.65480
 C1193 C 0.59969 1.03336 0.64588
 C1194 C 0.58636 1.05393 0.65907
 C1195 C 0.59485 1.06266 0.68252
 H1196 H 0.61086 1.05387 0.69155
 O1197 O 0.47532 0.87499 0.59079
 O1198 O 0.47532 0.84560 0.62003
 C1199 C 0.46675 0.85452 0.59958
 C1200 C 0.44621 0.84135 0.58617
 C1201 C 0.43753 0.81784 0.59451
 H1202 H 0.44633 0.80873 0.61048
 O1203 O 0.52464 1.12527 0.59092
 O1204 O 0.52470 1.15470 0.62012
 C1205 C 0.53324 1.14575 0.59968
 C1206 C 0.55378 1.15888 0.58622
 C1207 C 0.56240 1.18242 0.59450
 H1208 H 0.55357 1.19157 0.61044
 O1209 O 0.37474 0.90949 0.52458
 O1210 O 0.34534 0.88028 0.52457
 C1211 C 0.35428 0.90069 0.53317
 C1212 C 0.34114 0.91406 0.55377
 C1213 C 0.31768 0.90563 0.56250
 H1214 H 0.30861 0.88965 0.55370
 O1215 O 0.62558 1.09091 0.52459
 O1216 O 0.65493 1.12017 0.52464
 C1217 C 0.64602 1.09973 0.53322
 C1218 C 0.65914 1.08638 0.55384
 C1219 C 0.68258 1.09479 0.56263
 H1220 H 0.69168 1.11077 0.55385
 O1221 O 0.52464 1.09102 0.62553
 O1222 O 0.52471 1.12028 0.65490
 C1223 C 0.53326 1.09984 0.64599
 C1224 C 0.55385 1.08647 0.65914
 C1225 C 0.56265 1.09491 0.68259
 H1226 H 0.55391 1.11091 0.69167
 O1227 O 0.47532 0.90944 0.62519
 O1228 O 0.47531 0.88023 0.65461
 C1229 C 0.46675 0.90066 0.64568
 C1230 C 0.44623 0.91409 0.65887
 C1231 C 0.43757 0.90574 0.68240
 H1232 H 0.44635 0.88977 0.69150
 O1233 O 0.62532 1.02482 0.59096
 O1234 O 0.65469 1.02471 0.62022
 C1235 C 0.64580 1.03333 0.59978
 C1236 C 0.65902 1.05388 0.58642
 C1237 C 0.68246 1.06258 0.59491
 H1238 H 0.69147 1.05381 0.61095
 O1239 O 0.37473 0.97577 0.59091
 O1240 O 0.34533 0.97576 0.62015
 C1241 C 0.35426 0.96718 0.59972
 C1242 C 0.34112 0.94659 0.58633
 C1243 C 0.31766 0.93786 0.59476
 H1244 H 0.30858 0.94663 0.61076
 O1245 O 0.59102 1.12516 0.52457
 O1246 O 0.62020 1.15458 0.52461
 C1247 C 0.59977 1.14564 0.53315
 C1248 C 0.58632 1.15882 0.55367
 C1249 C 0.59464 1.18236 0.56225
 H1250 H 0.61058 1.19145 0.55340
 O1251 O 0.40911 0.87505 0.52450
 O1252 O 0.37988 0.84568 0.52448
 C1253 C 0.40031 0.85458 0.53306
 C1254 C 0.41370 0.84139 0.55360
 C1255 C 0.40533 0.81788 0.56223
 H1256 H 0.38938 0.80880 0.55339
 O1257 O 0.59072 0.97581 0.62523
 O1258 O 0.61992 0.97565 0.65466
 C1259 C 0.59946 0.96717 0.64570
 C1260 C 0.58598 0.94666 0.65885
 C1261 C 0.59421 0.93809 0.68245
 H1262 H 0.61012 0.94693 0.69160
 O1263 O 0.40913 1.02485 0.62533
 O1264 O 0.37988 1.02492 0.65472
 C1265 C 0.40033 1.03346 0.64580
 C1266 C 0.41374 1.05401 0.65898
 C1267 C 0.40531 1.06277 0.68244
 H1268 H 0.38928 1.05405 0.69150
 O1269 O 0.47561 1.12538 0.59102
 O1270 O 0.47561 1.15479 0.62024
 C1271 C 0.46703 1.14586 0.59980
 C1272 C 0.44646 1.15901 0.58642
 C1273 C 0.43774 1.18246 0.59489
 H1274 H 0.44653 1.19151 0.61090
 O1275 O 0.52435 0.87507 0.59072
 O1276 O 0.52441 0.84569 0.61997
 C1277 C 0.53295 0.85462 0.59951
 C1278 C 0.55350 0.84147 0.58608
 C1279 C 0.56211 0.81793 0.59439
 H1280 H 0.55327 0.80880 0.61032
 O1281 O 0.62512 0.90954 0.52438
 O1282 O 0.65452 0.88034 0.52443
 C1283 C 0.64559 0.90078 0.53297
 C1284 C 0.65876 0.91421 0.55350
 C1285 C 0.68234 0.90594 0.56203
 H1286 H 0.69147 0.89005 0.55314
 O1287 O 0.37494 1.09108 0.52446
 O1288 O 0.34556 1.12031 0.52450
 C1289 C 0.35446 1.09985 0.53303
 C1290 C 0.34124 1.08640 0.55352
 C1291 C 0.31767 1.09468 0.56204
 H1292 H 0.30857 1.11060 0.55317
 Cu1293 Cu 0.49982 0.89517 0.60502
 Cu1294 Cu 0.49986 0.86000 0.64024
 Cu1295 Cu 0.50012 1.10522 0.60530
 Cu1296 Cu 0.50016 1.14044 0.64046
 Cu1297 Cu 0.39485 0.89523 0.50001
 Cu1298 Cu 0.35965 0.86007 0.49996
 Cu1299 Cu 0.60500 0.89523 0.49986
 Cu1300 Cu 0.64020 0.86008 0.49990
 Cu1301 Cu 0.39508 1.10543 0.49999
 Cu1302 Cu 0.35993 1.14063 0.50002
 Cu1303 Cu 0.60539 1.10510 0.50005
 Cu1304 Cu 0.64052 1.14032 0.50006
 Cu1305 Cu 0.39489 1.00031 0.60515
 Cu1306 Cu 0.35970 1.00035 0.64034
 Cu1307 Cu 0.60510 1.00033 0.60516
 Cu1308 Cu 0.64025 1.00016 0.64039
 C1309 C 0.56541 0.93472 0.64731
 H1310 H 0.55917 0.94099 0.62896
 C1311 C 0.58222 0.91784 0.69419
 C1312 C 0.43445 1.06582 0.64755
 H1313 H 0.44084 1.05941 0.62930
 C1314 C 0.41725 1.08308 0.69415
 C1315 C 0.35272 1.06583 0.56550
 H1316 H 0.37105 1.05956 0.55926
 C1317 C 0.30589 1.08272 0.58230
 C1318 C 0.64726 0.93476 0.56550
 H1319 H 0.62892 0.94102 0.55926
 C1320 C 0.69409 0.91788 0.58232
 C1321 C 0.56545 0.85299 0.56549
 H1322 H 0.55915 0.87129 0.55919
 C1323 C 0.58241 0.80623 0.58243
 C1324 C 0.43457 1.14759 0.56574
 H1325 H 0.44095 1.12936 0.55932
 C1326 C 0.41739 1.19416 0.58302
 C1327 C 0.43436 0.93474 0.64741
 H1328 H 0.44069 0.94107 0.62911
 C1329 C 0.41730 0.91771 0.69414
 C1330 C 0.56568 1.06581 0.64767
 H1331 H 0.55924 1.05941 0.62943
 C1332 C 0.58302 1.08302 0.69423
 C1333 C 0.43432 0.85284 0.56554
 H1334 H 0.44066 0.87112 0.55921
 C1335 C 0.41723 0.80615 0.58255
 C1336 C 0.56572 1.14735 0.56563
 H1337 H 0.55942 1.12904 0.55935
 C1338 C 0.58270 1.19412 0.58253
 C1339 C 0.35258 0.93471 0.56567
 H1340 H 0.37082 0.94111 0.55928
 C1341 C 0.30598 0.91750 0.58286
 C1342 C 0.64764 1.06575 0.56572
 H1343 H 0.62941 1.05937 0.55928
 C1344 C 0.69420 1.08291 0.58304
 O1345 O 0.47535 0.40892 0.87471
 O1346 O 0.47541 0.37972 0.84529
 C1347 C 0.46680 0.40013 0.85421
 C1348 C 0.44623 0.41348 0.84103
 C1349 C 0.43752 0.40502 0.81756
 H1350 H 0.44631 0.38904 0.80850
 O1351 O 0.52420 0.59066 0.87501
 O1352 O 0.52428 0.61988 0.84559
 C1353 C 0.53281 0.59945 0.85453
 C1354 C 0.55335 0.58603 0.84138
 C1355 C 0.56196 0.59432 0.81782
 H1356 H 0.55312 0.61024 0.80868
 O1357 O 0.37461 0.47513 0.90904
 O1358 O 0.34523 0.47517 0.87980
 C1359 C 0.35413 0.46659 0.90024
 C1360 C 0.34092 0.44607 0.91365
 C1361 C 0.31744 0.43740 0.90524
 H1362 H 0.30838 0.44618 0.88923
 O1363 O 0.62490 0.52441 0.90956
 O1364 O 0.65431 0.52449 0.88034
 C1365 C 0.64537 0.53302 0.90079
 C1366 C 0.65852 0.55354 0.91424
 C1367 C 0.68207 0.56213 0.90594
 H1368 H 0.69120 0.55330 0.89000
 O1369 O 0.40887 0.37458 0.97530
 O1370 O 0.37966 0.34519 0.97528
 C1371 C 0.40008 0.35412 0.96670
 C1372 C 0.41349 0.34097 0.94612
 C1373 C 0.40507 0.31752 0.93735
 H1374 H 0.38904 0.30846 0.94608
 O1375 O 0.59040 0.62507 0.97588
 O1376 O 0.61961 0.65447 0.97583
 C1377 C 0.59917 0.64553 0.96728
 C1378 C 0.58574 0.65869 0.94674
 C1379 C 0.59401 0.68226 0.93818
 H1380 H 0.60991 0.69140 0.94705
 O1381 O 0.40913 0.52414 0.87471
 O1382 O 0.37990 0.52424 0.84530
 C1383 C 0.40034 0.53277 0.85424
 C1384 C 0.41373 0.55334 0.84112
 C1385 C 0.40540 0.56199 0.81759
 H1386 H 0.38949 0.55314 0.80845
 O1387 O 0.59055 0.47540 0.87506
 O1388 O 0.61980 0.47544 0.84567
 C1389 C 0.59937 0.46685 0.85457
 C1390 C 0.58601 0.44632 0.84135
 C1391 C 0.59441 0.43775 0.81781
 H1392 H 0.61036 0.44662 0.80875
 O1393 O 0.52435 0.37458 0.90925
 O1394 O 0.52448 0.34521 0.87999
 C1395 C 0.53298 0.35413 0.90046
 C1396 C 0.55353 0.34100 0.91390
 C1397 C 0.56228 0.31754 0.90549
 H1398 H 0.55353 0.30846 0.88948
 O1399 O 0.47515 0.62509 0.90935
 O1400 O 0.47515 0.65448 0.88011
 C1401 C 0.46658 0.64556 0.90055
 C1402 C 0.44604 0.65872 0.91397
 C1403 C 0.43739 0.68223 0.90563
 H1404 H 0.44619 0.69134 0.88966
 O1405 O 0.37477 0.59049 0.97568
 O1406 O 0.34531 0.61964 0.97560
 C1407 C 0.35429 0.59921 0.96707
 C1408 C 0.34116 0.58575 0.94653
 C1409 C 0.31756 0.59396 0.93800
 H1410 H 0.30840 0.60984 0.94689
 O1411 O 0.62500 0.40901 0.97572
 O1412 O 0.65443 0.37984 0.97569
 C1413 C 0.64548 0.40026 0.96713
 C1414 C 0.65863 0.41370 0.94658
 C1415 C 0.68214 0.40537 0.93788
 H1416 H 0.69125 0.38940 0.94665
 O1417 O 0.47519 0.59064 0.87494
 O1418 O 0.47520 0.61986 0.84552
 C1419 C 0.46665 0.59942 0.85444
 C1420 C 0.44616 0.58598 0.84121
 C1421 C 0.43752 0.59433 0.81768
 H1422 H 0.44630 0.61032 0.80861
 O1423 O 0.52437 0.40901 0.87483
 O1424 O 0.52450 0.37982 0.84540
 C1425 C 0.53301 0.40026 0.85435
 C1426 C 0.55355 0.41372 0.84123
 C1427 C 0.56226 0.40544 0.81770
 H1428 H 0.55350 0.38948 0.80855
 O1429 O 0.62495 0.47539 0.90951
 O1430 O 0.65435 0.47543 0.88028
 C1431 C 0.64542 0.46684 0.90071
 C1432 C 0.65860 0.44629 0.91409
 C1433 C 0.68210 0.43767 0.90569
 H1434 H 0.69118 0.44652 0.88973
 O1435 O 0.37480 0.52413 0.90922
 O1436 O 0.34540 0.52424 0.87999
 C1437 C 0.35434 0.53274 0.90046
 C1438 C 0.34118 0.55324 0.91395
 C1439 C 0.31758 0.56176 0.90572
 H1440 H 0.30844 0.55290 0.88980
 O1441 O 0.40899 0.62508 0.97572
 O1442 O 0.37970 0.65439 0.97564
 C1443 C 0.40017 0.64552 0.96711
 C1444 C 0.41356 0.65870 0.94656
 C1445 C 0.40520 0.68221 0.93794
 H1446 H 0.38925 0.69130 0.94678
 O1447 O 0.59056 0.37462 0.97569
 O1448 O 0.61982 0.34528 0.97567
 C1449 C 0.59938 0.35418 0.96710
 C1450 C 0.58602 0.34102 0.94650
 C1451 C 0.59446 0.31756 0.93779
 H1452 H 0.61044 0.30850 0.94660
 O1453 O 0.59052 0.52441 0.87509
 O1454 O 0.61977 0.52449 0.84570
 C1455 C 0.59931 0.53301 0.85461
 C1456 C 0.58589 0.55352 0.84142
 C1457 C 0.59420 0.56211 0.81786
 H1458 H 0.61014 0.55327 0.80875
 O1459 O 0.40909 0.47511 0.87466
 O1460 O 0.37987 0.47514 0.84525
 C1461 C 0.40029 0.46655 0.85417
 C1462 C 0.41367 0.44597 0.84101
 C1463 C 0.40524 0.43722 0.81754
 H1464 H 0.38925 0.44597 0.80846
 O1465 O 0.52415 0.62504 0.90946
 O1466 O 0.52423 0.65443 0.88022
 C1467 C 0.53275 0.64551 0.90069
 C1468 C 0.55325 0.65868 0.91416
 C1469 C 0.56181 0.68225 0.90589
 H1470 H 0.55297 0.69138 0.88996
 O1471 O 0.47531 0.37455 0.90916
 O1472 O 0.47537 0.34517 0.87991
 C1473 C 0.46675 0.35409 0.90033
 C1474 C 0.44613 0.34095 0.91366
 C1475 C 0.43741 0.31751 0.90519
 H1476 H 0.44624 0.30844 0.88922
 O1477 O 0.62485 0.59072 0.97590
 O1478 O 0.65424 0.61994 0.97586
 C1479 C 0.64532 0.59950 0.96731
 C1480 C 0.65850 0.58607 0.94678
 C1481 C 0.68205 0.59437 0.93818
 H1482 H 0.69116 0.61031 0.94703
 O1483 O 0.37448 0.40900 0.97538
 O1484 O 0.34510 0.37977 0.97537
 C1485 C 0.35401 0.40021 0.96680
 C1486 C 0.34086 0.41359 0.94624
 C1487 C 0.31738 0.40521 0.93754
 H1488 H 0.30827 0.38926 0.94635
 Cu1489 Cu 0.49984 0.39469 0.89492
 Cu1490 Cu 0.49996 0.35953 0.85970
 Cu1491 Cu 0.49966 0.60493 0.89512
 Cu1492 Cu 0.49972 0.64011 0.85991
 Cu1493 Cu 0.39484 0.49961 0.89483
 Cu1494 Cu 0.35966 0.49971 0.85963
 Cu1495 Cu 0.60480 0.49990 0.89523
 Cu1496 Cu 0.64001 0.49997 0.86005
 C1497 C 0.43433 0.43413 0.85247
 H1498 H 0.44072 0.44053 0.87072
 C1499 C 0.41715 0.41687 0.80586
 C1500 C 0.56529 0.56545 0.85291
 H1501 H 0.55899 0.55917 0.87123
 C1502 C 0.58225 0.58237 0.80610
 C1503 C 0.35235 0.43419 0.93432
 H1504 H 0.37061 0.44054 0.94069
 C1505 C 0.30571 0.41710 0.91717
 C1506 C 0.64701 0.56548 0.93483
 H1507 H 0.62870 0.55918 0.94112
 C1508 C 0.69379 0.58242 0.91790
 C1509 C 0.43419 0.35240 0.93430
 H1510 H 0.44058 0.37063 0.94072
 C1511 C 0.41701 0.30584 0.91701
 C1512 C 0.56519 0.64718 0.93476
 H1513 H 0.55892 0.62885 0.94102
 C1514 C 0.58206 0.69400 0.91789
 C1515 C 0.43429 0.56531 0.85265
 H1516 H 0.44060 0.55898 0.87095
 C1517 C 0.41727 0.58235 0.80591
 C1518 C 0.56541 0.43434 0.85278
 H1519 H 0.55904 0.44062 0.87108
 C1520 C 0.58256 0.41744 0.80603
 C1521 C 0.56538 0.35246 0.93458
 H1522 H 0.55899 0.37070 0.94095
 C1523 C 0.58261 0.30587 0.91742
 C1524 C 0.43415 0.64723 0.93461
 H1525 H 0.44049 0.62895 0.94093
 C1526 C 0.41709 0.69393 0.91761
 C1527 C 0.35270 0.56521 0.93453
 H1528 H 0.37104 0.55898 0.94077
 C1529 C 0.30581 0.58198 0.91774
 C1530 C 0.64714 0.43433 0.93471
 H1531 H 0.62887 0.44065 0.94107
 C1532 C 0.69383 0.41734 0.91756
 O1533 O 0.52410 0.40903 1.12534
 O1534 O 0.52408 0.37982 1.15476
 C1535 C 0.53263 0.40027 1.14585
 C1536 C 0.55310 0.41371 1.15908
 C1537 C 0.56165 0.40541 1.18266
 H1538 H 0.55281 0.38947 1.19175
 O1539 O 0.47513 0.59062 1.12547
 O1540 O 0.47505 0.61981 1.15492
 C1541 C 0.46652 0.59937 1.14595
 C1542 C 0.44599 0.58593 1.15910
 C1543 C 0.43735 0.59425 1.18264
 H1544 H 0.44617 0.61019 1.19176
 O1545 O 0.37445 0.52429 1.09096
 O1546 O 0.34505 0.52429 1.12019
 C1547 C 0.35398 0.53286 1.09976
 C1548 C 0.34083 0.55342 1.08635
 C1549 C 0.31734 0.56212 1.09473
 H1550 H 0.30824 0.55332 1.11071
 O1551 O 0.62477 0.47539 1.09113
 O1552 O 0.65413 0.47533 1.12041
 C1553 C 0.64523 0.46680 1.09994
 C1554 C 0.65842 0.44628 1.08651
 C1555 C 0.68196 0.43771 1.09484
 H1556 H 0.69105 0.44655 1.11079
 O1557 O 0.59060 0.37455 1.02477
 O1558 O 0.61987 0.34522 1.02482
 C1559 C 0.59942 0.35411 1.03338
 C1560 C 0.58604 0.34096 1.05397
 C1561 C 0.59450 0.31753 1.06275
 H1562 H 0.61052 0.30848 1.05400
 O1563 O 0.40896 0.62506 1.02479
 O1564 O 0.37968 0.65438 1.02475
 C1565 C 0.40012 0.64551 1.03336
 C1566 C 0.41347 0.65869 1.05393
 C1567 C 0.40509 0.68220 1.06258
 H1568 H 0.38915 0.69128 1.05373
 O1569 O 0.40888 0.47526 1.12535
 O1570 O 0.37964 0.47520 1.15474
 C1571 C 0.40007 0.46665 1.14581
 C1572 C 0.41344 0.44607 1.15896
 C1573 C 0.40504 0.43740 1.18246
 H1574 H 0.38909 0.44623 1.19156
 O1575 O 0.59037 0.52441 1.12558
 O1576 O 0.61956 0.52440 1.15502
 C1577 C 0.59914 0.53298 1.14608
 C1578 C 0.58576 0.55354 1.15924
 C1579 C 0.59414 0.56222 1.18275
 H1580 H 0.61010 0.55341 1.19184
 O1581 O 0.47524 0.37458 1.09076
 O1582 O 0.47515 0.34517 1.11999
 C1583 C 0.46666 0.35410 1.09951
 C1584 C 0.44619 0.34092 1.08600
 C1585 C 0.43766 0.31731 1.09420
 H1586 H 0.44650 0.30816 1.11011
 O1587 O 0.52414 0.62515 1.09115
 O1588 O 0.52412 0.65451 1.12042
 C1589 C 0.53270 0.64561 1.09997
 C1590 C 0.55325 0.65879 1.08658
 C1591 C 0.56188 0.68230 1.09494
 H1592 H 0.55304 0.69140 1.11089
 O1593 O 0.37452 0.40897 1.02445
 O1594 O 0.34515 0.37973 1.02451
 C1595 C 0.35407 0.40017 1.03308
 C1596 C 0.34093 0.41356 1.05367
 C1597 C 0.31744 0.40517 1.06238
 H1598 H 0.30835 0.38920 1.05358
 O1599 O 0.62482 0.59072 1.02495
 O1600 O 0.65421 0.61993 1.02497
 C1601 C 0.64529 0.59950 1.03354
 C1602 C 0.65845 0.58609 1.05408
 C1603 C 0.68196 0.59441 1.06274
 H1604 H 0.69107 0.61037 1.05393
 O1605 O 0.52415 0.59072 1.12556
 O1606 O 0.52413 0.61991 1.15500
 C1607 C 0.53271 0.59949 1.14606
 C1608 C 0.55325 0.58609 1.15923
 C1609 C 0.56194 0.59447 1.18274
 H1610 H 0.55315 0.61045 1.19183
 O1611 O 0.47509 0.40888 1.12532
 O1612 O 0.47500 0.37964 1.15472
 C1613 C 0.46646 0.40008 1.14579
 C1614 C 0.44590 0.41348 1.15894
 C1615 C 0.43719 0.40510 1.18245
 H1616 H 0.44596 0.38912 1.19154
 O1617 O 0.62480 0.52440 1.09117
 O1618 O 0.65416 0.52440 1.12045
 C1619 C 0.64526 0.53297 1.09999
 C1620 C 0.65844 0.55352 1.08660
 C1621 C 0.68196 0.56215 1.09496
 H1622 H 0.69105 0.55331 1.11091
 O1623 O 0.37453 0.47527 1.09086
 O1624 O 0.34512 0.47521 1.12009
 C1625 C 0.35407 0.46666 1.09964
 C1626 C 0.34093 0.44610 1.08622
 C1627 C 0.31745 0.43742 1.09462
 H1628 H 0.30836 0.44622 1.11060
 O1629 O 0.59045 0.62515 1.02493
 O1630 O 0.61967 0.65455 1.02495
 C1631 C 0.59923 0.64563 1.03351
 C1632 C 0.58581 0.65880 1.05405
 C1633 C 0.59414 0.68231 1.06271
 H1634 H 0.61010 0.69141 1.05390
 O1635 O 0.40900 0.37463 1.02435
 O1636 O 0.37980 0.34521 1.02439
 C1637 C 0.40025 0.35414 1.03292
 C1638 C 0.41370 0.34095 1.05341
 C1639 C 0.40547 0.31735 1.06190
 H1640 H 0.38958 0.30822 1.05300
 O1641 O 0.59031 0.47539 1.12552
 O1642 O 0.61949 0.47532 1.15497
 C1643 C 0.59906 0.46679 1.14601
 C1644 C 0.58561 0.44626 1.15916
 C1645 C 0.59386 0.43766 1.18274
 H1646 H 0.60977 0.44650 1.19190
 O1647 O 0.40888 0.52428 1.12539
 O1648 O 0.37964 0.52428 1.15479
 C1649 C 0.40008 0.53285 1.14588
 C1650 C 0.41347 0.55339 1.15908
 C1651 C 0.40512 0.56202 1.18262
 H1652 H 0.38917 0.55319 1.19172
 O1653 O 0.47513 0.62513 1.09113
 O1654 O 0.47504 0.65448 1.12041
 C1655 C 0.46651 0.64558 1.09994
 C1656 C 0.44597 0.65873 1.08652
 C1657 C 0.43730 0.68223 1.09487
 H1658 H 0.44610 0.69134 1.11083
 O1659 O 0.52426 0.37453 1.09101
 O1660 O 0.52424 0.34515 1.12025
 C1661 C 0.53285 0.35408 1.09983
 C1662 C 0.55347 0.34095 1.08649
 C1663 C 0.56223 0.31752 1.09497
 H1664 H 0.55344 0.30846 1.11098
 O1665 O 0.62489 0.40908 1.02478
 O1666 O 0.65433 0.37991 1.02482
 C1667 C 0.64536 0.40033 1.03338
 C1668 C 0.65849 0.41377 1.05394
 C1669 C 0.68203 0.40549 1.06257
 H1670 H 0.69118 0.38957 1.05373
 O1671 O 0.37458 0.59062 1.02474
 O1672 O 0.34514 0.61978 1.02470
 C1673 C 0.35408 0.59937 1.03329
 C1674 C 0.34089 0.58596 1.05382
 C1675 C 0.31740 0.59435 1.06249
 H1676 H 0.30834 0.61034 1.05368
 Cu1677 Cu 0.49967 0.39468 1.10518
 Cu1678 Cu 0.49961 0.35950 1.14038
 Cu1679 Cu 0.49964 0.60499 1.10539
 Cu1680 Cu 0.49958 0.64012 1.14064
 Cu1681 Cu 0.39464 0.39473 0.99987
 Cu1682 Cu 0.35948 0.35953 0.99990
 Cu1683 Cu 0.60483 0.39473 1.00024
 Cu1684 Cu 0.64006 0.35962 1.00025
 Cu1685 Cu 0.39476 0.60489 1.00024
 Cu1686 Cu 0.35950 0.63999 1.00016
 Cu1687 Cu 0.60470 0.60499 1.00042
 Cu1688 Cu 0.63988 0.64017 1.00040
 Cu1689 Cu 0.39461 0.49979 1.10522
 Cu1690 Cu 0.35941 0.49974 1.14040
 Cu1691 Cu 0.60464 0.49990 1.10542
 Cu1692 Cu 0.63977 0.49985 1.14066
 C1693 C 0.56505 0.43431 1.14761
 H1694 H 0.55880 0.44061 1.12927
 C1695 C 0.58189 0.41737 1.19444
 C1696 C 0.43408 0.56533 1.14760
 H1697 H 0.44041 0.55902 1.12929
 C1698 C 0.41706 0.58232 1.19436
 C1699 C 0.35233 0.56532 1.06573
 H1700 H 0.37059 0.55896 1.05938
 C1701 C 0.30568 0.58246 1.08281
 C1702 C 0.64696 0.43434 1.06588
 H1703 H 0.62866 0.44062 1.05957
 C1704 C 0.69373 0.41744 1.08289
 C1705 C 0.56536 0.35238 1.06582
 H1706 H 0.55894 0.37060 1.05939
 C1707 C 0.58261 0.30585 1.08312
 C1708 C 0.43408 0.64724 1.06588
 H1709 H 0.44043 0.62897 1.05955
 C1710 C 0.41699 0.69393 1.08291
 C1711 C 0.43404 0.43414 1.14748
 H1712 H 0.44041 0.44049 1.12920
 C1713 C 0.41689 0.41705 1.19416
 C1714 C 0.56514 0.56545 1.14776
 H1715 H 0.55878 0.55910 1.12948
 C1716 C 0.58225 0.58255 1.19445
 C1717 C 0.43424 0.35246 1.06543
 H1718 H 0.44048 0.37082 1.05921
 C1719 C 0.41744 0.30557 1.08215
 C1720 C 0.56519 0.64732 1.06596
 H1721 H 0.55887 0.62903 1.05962
 C1722 C 0.58219 0.69402 1.08302
 C1723 C 0.35239 0.43419 1.06558
 H1724 H 0.37066 0.44055 1.05921
 C1725 C 0.30575 0.41709 1.08272
 C1726 C 0.64696 0.56547 1.06599
 H1727 H 0.62868 0.55915 1.05966
 C1728 C 0.69368 0.58246 1.08304
 C1729 C 1.11073 1.10994 1.26056
 C1730 C 1.09958 1.13087 1.27187
 C1731 C 1.10964 1.14089 1.29399
 C1732 C 1.13115 1.13013 1.30520
 C1733 C 1.14203 1.10884 1.29369
 C1734 C 1.13189 1.09889 1.27156
 C1735 C 1.10079 1.10016 1.23737
 C1736 C 1.09265 1.09220 1.21777
 H1737 H 1.08320 1.13958 1.26348
 H1738 H 1.10058 1.15720 1.30211
 H1739 H 1.15851 1.09989 1.30159
 H1740 H 1.14068 1.08268 1.26293
 C1741 C 1.10875 0.60856 0.76099
 C1742 C 1.09756 0.62956 0.77217
 C1743 C 1.10740 0.63950 0.79443
 C1744 C 1.12864 0.62855 0.80580
 C1745 C 1.13957 0.60725 0.79453
 C1746 C 1.12969 0.59736 0.77227
 C1747 C 1.09916 0.59891 0.73762
 C1748 C 1.09135 0.59105 0.71786
 H1749 H 1.08136 0.63840 0.76356
 H1750 H 1.09849 0.65588 0.80257
 H1751 H 1.15591 0.59832 0.80274
 H1752 H 1.13851 0.58111 0.76374
 C1753 C 0.61058 1.11014 0.76060
 C1754 C 0.63173 1.09908 0.77160
 C1755 C 0.64188 1.10904 0.79372
 C1756 C 0.63103 1.13035 0.80521
 C1757 C 0.60953 1.14113 0.79399
 C1758 C 0.59946 1.13109 0.77188
 C1759 C 0.60062 1.10034 0.73742
 C1760 C 0.59246 1.09234 0.71783
 H1761 H 0.64050 1.08285 0.76299
 H1762 H 0.65836 1.10007 0.80162
 H1763 H 0.60049 1.15746 0.80210
 H1764 H 0.58308 1.13981 0.76349
 C1765 C 0.60942 0.60964 1.26096
 C1766 C 0.59834 0.63068 1.27213
 C1767 C 0.60836 0.64073 1.29426
 C1768 C 0.62975 0.62987 1.30561
 C1769 C 0.64053 0.60846 1.29423
 C1770 C 0.63044 0.59850 1.27210
 C1771 C 0.59957 0.59984 1.23774
 C1772 C 0.59155 0.59185 1.21810
 H1773 H 0.58206 0.63947 1.26363
 H1774 H 0.59937 0.65714 1.30229
 H1775 H 0.65692 0.59943 1.30223
 H1776 H 0.63917 0.58220 1.26358
 C1777 C 0.89049 0.89048 1.26098
 C1778 C 0.86948 0.90160 1.27217
 C1779 C 0.85943 0.89159 1.29430
 C1780 C 0.87024 0.87017 1.30563
 C1781 C 0.89161 0.85934 1.29423
 C1782 C 0.90159 0.86942 1.27210
 C1783 C 0.90029 0.90031 1.23775
 C1784 C 0.90828 0.90833 1.21811
 H1785 H 0.86073 0.91791 1.26368
 H1786 H 0.84304 0.90061 1.30234
 H1787 H 0.90061 0.84292 1.30222
 H1788 H 0.91786 0.86066 1.26355
 C1789 C 0.89016 0.39002 0.76055
 C1790 C 0.90128 0.36904 0.77180
 C1791 C 0.89129 0.35906 0.79397
 C1792 C 0.86988 0.36992 0.80529
 C1793 C 0.85904 0.39125 0.79383
 C1794 C 0.86911 0.40115 0.77165
 C1795 C 0.90002 0.39976 0.73730
 C1796 C 0.90807 0.40771 0.71766
 H1797 H 0.91758 0.36026 0.76333
 H1798 H 0.90031 0.34271 0.80206
 H1799 H 0.84263 0.40028 0.80180
 H1800 H 0.86034 0.41740 0.76306
 C1801 C 0.39015 0.89083 0.76073
 C1802 C 0.40133 0.86989 0.77202
 C1803 C 0.39130 0.85990 0.79417
 C1804 C 0.36988 0.87073 0.80533
 C1805 C 0.35894 0.89196 0.79394
 C1806 C 0.36902 0.90191 0.77178
 C1807 C 0.39999 0.90056 0.73748
 C1808 C 0.40801 0.90848 0.71782
 H1809 H 0.41767 0.86114 0.76360
 H1810 H 0.40022 0.84357 0.80241
 H1811 H 0.34247 0.90079 0.80198
 H1812 H 0.36020 0.91811 0.76316
 C1813 C 0.38963 0.39013 1.26071
 C1814 C 0.36850 0.40120 1.27174
 C1815 C 0.35841 0.39128 1.29390
 C1816 C 0.36930 0.37001 1.30541
 C1817 C 0.39080 0.35924 1.29418
 C1818 C 0.40081 0.36922 1.27202
 C1819 C 0.39950 0.39986 1.23747
 C1820 C 0.40756 0.40780 1.21782
 H1821 H 0.35969 0.41739 1.26310
 H1822 H 0.34194 0.40025 1.30181
 H1823 H 0.39987 0.34293 1.30231
 H1824 H 0.41718 0.36050 1.26361
 C1825 C 0.88952 1.10992 0.73953
 C1826 C 0.86838 1.09887 0.72850
 C1827 C 0.85827 1.10882 0.70637
 C1828 C 0.86914 1.13012 0.69488
 C1829 C 0.89064 1.14089 0.70612
 C1830 C 0.90067 1.13087 0.72824
 C1831 C 0.89944 1.10013 0.76273
 C1832 C 0.90755 1.09215 0.78233
 H1833 H 0.85959 1.08265 0.73711
 H1834 H 0.84179 1.09986 0.69845
 H1835 H 0.89970 1.15722 0.69801
 H1836 H 0.91704 1.13958 0.73665
 C1837 C 0.89031 0.60952 0.23912
 C1838 C 0.86927 0.59843 0.22796
 C1839 C 0.85920 0.60843 0.20584
 C1840 C 0.87003 0.62983 0.19449
 C1841 C 0.89144 0.64064 0.20585
 C1842 C 0.90143 0.63055 0.22797
 C1843 C 0.90012 0.59969 0.26234
 C1844 C 0.90813 0.59167 0.28197
 H1845 H 0.86050 0.58213 0.23647
 H1846 H 0.84280 0.59943 0.19783
 H1847 H 0.90046 0.65704 0.19784
 H1848 H 0.91773 0.63930 0.23649
 C1849 C 0.39070 1.10900 0.23897
 C1850 C 0.36951 1.09790 0.22805
 C1851 C 0.35945 1.10769 0.20582
 C1852 C 0.37046 1.12877 0.19422
 C1853 C 0.39195 1.13961 0.20525
 C1854 C 0.40196 1.12978 0.22747
 C1855 C 0.40052 1.09947 0.26230
 C1856 C 0.40852 1.09171 0.28203
 H1857 H 0.36063 1.08182 0.23683
 H1858 H 0.34293 1.09886 0.19787
 H1859 H 0.40094 1.15583 0.19687
 H1860 H 0.41835 1.13854 0.23580
 C1861 C 0.39015 0.60924 0.73932
 C1862 C 0.36904 0.59814 0.72826
 C1863 C 0.35896 0.60808 0.70611
 C1864 C 0.36988 0.62933 0.69473
 C1865 C 0.39129 0.64019 0.70590
 C1866 C 0.40131 0.63020 0.72804
 C1867 C 0.39999 0.59952 0.76257
 C1868 C 0.40800 0.59158 0.78223
 H1869 H 0.36023 0.58193 0.73687
 H1870 H 0.34250 0.59924 0.69805
 H1871 H 0.40020 0.65653 0.69767
 H1872 H 0.41765 0.63896 0.73648
 C1873 C 1.10981 0.89049 0.73943
 C1874 C 1.13093 0.90161 0.72839
 C1875 C 1.14104 0.89168 0.70625
 C1876 C 1.13014 0.87043 0.69485
 C1877 C 1.10874 0.85955 0.70599
 C1878 C 1.09868 0.86953 0.72813
 C1879 C 1.09994 0.90021 0.76267
 C1880 C 1.09190 0.90815 0.78231
 H1881 H 1.13972 0.91783 0.73701
 H1882 H 1.15750 0.90054 0.69821
 H1883 H 1.09985 0.84321 0.69775
 H1884 H 1.08234 0.86076 0.73655
 C1885 C 1.11018 0.39021 0.23889
 C1886 C 1.09904 0.36927 0.22759
 C1887 C 1.10907 0.35927 0.20545
 C1888 C 1.13055 0.37007 0.19421
 C1889 C 1.14141 0.39138 0.20570
 C1890 C 1.13130 0.40130 0.22785
 C1891 C 1.10029 0.39995 0.26212
 C1892 C 1.09222 0.40789 0.28176
 H1893 H 1.08268 0.36053 0.23601
 H1894 H 1.10002 0.34295 0.19734
 H1895 H 1.15787 0.40036 0.19778
 H1896 H 1.14009 0.41752 0.23648
 C1897 C 0.60954 0.89060 0.23919
 C1898 C 0.63056 0.90171 0.22800
 C1899 C 0.64060 0.89172 0.20585
 C1900 C 0.62975 0.87032 0.19451
 C1901 C 0.60836 0.85951 0.20590
 C1902 C 0.59841 0.86958 0.22804
 C1903 C 0.59978 0.90042 0.26243
 C1904 C 0.59182 0.90842 0.28209
 H1905 H 0.63934 0.91799 0.23651
 H1906 H 0.65699 0.90072 0.19782
 H1907 H 0.59934 0.84311 0.19790
 H1908 H 0.58212 0.86082 0.23659
 C1909 C 0.60984 0.39079 0.73940
 C1910 C 0.59859 0.36995 0.72798
 C1911 C 0.60863 0.36002 0.70582
 C1912 C 0.63013 0.37080 0.69476
 C1913 C 0.64114 0.39193 0.70628
 C1914 C 0.63105 0.40182 0.72846
 C1915 C 0.59997 0.40044 0.76267
 C1916 C 0.59190 0.40829 0.78234
 H1917 H 0.58218 0.36124 0.73633
 H1918 H 0.59964 0.34377 0.69749
 H1919 H 0.65768 0.40072 0.69831
 H1920 H 0.63993 0.41794 0.73718
 C1921 C 1.26091 1.10941 1.10930
 C1922 C 1.27206 1.09825 1.13033
 C1923 C 1.29428 1.10810 1.14030
 C1924 C 1.30574 1.12941 1.12940
 C1925 C 1.29438 1.14027 1.10800
 C1926 C 1.27216 1.13034 1.09810
 C1927 C 1.23760 1.09974 1.09956
 C1928 C 1.21791 1.09186 1.09162
 H1929 H 1.26347 1.08203 1.13915
 H1930 H 1.30229 1.09907 1.15670
 H1931 H 1.30247 1.15660 1.09892
 H1932 H 1.26366 1.13914 1.08182
 C1933 C 1.26054 0.60972 0.60971
 C1934 C 1.27165 0.63078 0.59860
 C1935 C 1.29379 0.64085 0.60854
 C1936 C 1.30522 0.63000 0.62990
 C1937 C 1.29390 0.60858 0.64073
 C1938 C 1.27177 0.59859 0.63072
 C1939 C 1.23733 0.59987 0.59993
 C1940 C 1.21772 0.59182 0.59194
 H1941 H 1.26308 0.63956 0.58233
 H1942 H 1.30176 0.65727 0.59952
 H1943 H 1.30197 0.59955 0.65711
 H1944 H 1.26330 0.58228 0.63948
 C1945 C 0.76057 1.10998 0.61050
 C1946 C 0.77185 1.13093 0.59935
 C1947 C 0.79396 1.14095 0.60940
 C1948 C 0.80520 1.13016 0.63090
 C1949 C 0.79371 1.10886 0.64177
 C1950 C 0.77159 1.09892 0.63165
 C1951 C 0.73739 1.10020 0.60058
 C1952 C 0.71779 1.09222 0.59246
 H1953 H 0.76344 1.13966 0.58298
 H1954 H 0.80207 1.15728 0.60034
 H1955 H 0.80163 1.09988 0.65825
 H1956 H 0.76298 1.08269 0.64044
 C1957 C 0.76030 0.60934 1.10999
 C1958 C 0.77149 0.63036 1.09883
 C1959 C 0.79368 0.64033 1.10877
 C1960 C 0.80497 0.62940 1.13007
 C1961 C 0.79368 0.60811 1.14100
 C1962 C 0.77149 0.59818 1.13101
 C1963 C 0.73703 0.59961 1.10024
 C1964 C 0.71736 0.59168 1.09229
 H1965 H 0.76296 0.63917 1.08257
 H1966 H 0.80183 0.65671 1.09986
 H1967 H 0.80183 0.59920 1.15738
 H1968 H 0.76295 0.58192 1.13982
 C1969 C 1.26046 0.89017 0.89032
 C1970 C 1.27161 0.86914 0.90145
 C1971 C 1.29377 0.85912 0.89151
 C1972 C 1.30519 0.87000 0.87015
 C1973 C 1.29383 0.89139 0.85931
 C1974 C 1.27167 0.90132 0.86932
 C1975 C 1.23722 0.89995 0.90010
 C1976 C 1.21758 0.90794 0.90808
 H1977 H 1.26306 0.86034 0.91771
 H1978 H 1.30178 0.84273 0.90053
 H1979 H 1.30188 0.90044 0.84294
 H1980 H 1.26316 0.91761 0.86055
 C1981 C 1.26062 0.39010 0.38960
 C1982 C 1.27188 0.36917 0.40079
 C1983 C 1.29403 0.35917 0.39081
 C1984 C 1.30531 0.36996 0.36933
 C1985 C 1.29384 0.39125 0.35842
 C1986 C 1.27169 0.40117 0.36848
 C1987 C 1.23739 0.39986 0.39945
 C1988 C 1.21777 0.40783 0.40749
 H1989 H 1.26344 0.36044 0.41715
 H1990 H 1.30213 0.34285 0.39989
 H1991 H 1.30179 0.40023 0.34196
 H1992 H 1.26309 0.41738 0.35966
 C1993 C 0.76061 0.89076 0.39026
 C1994 C 0.77180 0.90192 0.36922
 C1995 C 0.79396 0.89198 0.35922
 C1996 C 0.80525 0.87067 0.37012
 C1997 C 0.79396 0.85975 0.39144
 C1998 C 0.77179 0.86974 0.40140
 C1999 C 0.73736 0.90051 0.40002
 C2000 C 0.71770 0.90846 0.40799
 H2001 H 0.76327 0.91819 0.36043
 H2002 H 0.80211 0.90088 0.34282
 H2003 H 0.80210 0.84336 0.40033
 H2004 H 0.76326 0.86093 0.41767
 C2005 C 0.76037 0.39057 0.89026
 C2006 C 0.77174 0.36970 0.90148
 C2007 C 0.79389 0.35976 0.89144
 C2008 C 0.80498 0.37058 0.86996
 C2009 C 0.79350 0.39174 0.85897
 C2010 C 0.77134 0.40163 0.86906
 C2011 C 0.73713 0.40025 0.90015
 C2012 C 0.71749 0.40814 0.90822
 H2013 H 0.76338 0.36097 0.91788
 H2014 H 0.80218 0.34349 0.90041
 H2015 H 0.80149 0.40056 0.84245
 H2016 H 0.76266 0.41779 0.86021
 C2017 C 0.73943 0.89087 1.10996
 C2018 C 0.72823 0.90202 1.13098
 C2019 C 0.70604 0.89209 1.14096
 C2020 C 0.69476 0.87079 1.13004
 C2021 C 0.70606 0.85987 1.10873
 C2022 C 0.72825 0.86985 1.09880
 C2023 C 0.76270 0.90060 1.10023
 C2024 C 0.78237 0.90854 1.09228
 H2025 H 0.73675 0.91829 1.13979
 H2026 H 0.69788 0.90100 1.15735
 H2027 H 0.69792 0.84348 1.09983
 H2028 H 0.73679 0.86104 1.08254
 C2029 C 0.73961 0.39002 0.60967
 C2030 C 0.72836 0.36905 0.59854
 C2031 C 0.70617 0.35911 0.60850
 C2032 C 0.69483 0.37000 0.62990
 C2033 C 0.70629 0.39134 0.64075
 C2034 C 0.72848 0.40120 0.63071
 C2035 C 0.76287 0.39972 0.59985
 C2036 C 0.78252 0.40765 0.59183
 H2037 H 0.73684 0.36024 0.58225
 H2038 H 0.69809 0.34276 0.59947
 H2039 H 0.69830 0.40039 0.65714
 H2040 H 0.73707 0.41744 0.63948
 C2041 C 0.23955 0.89019 0.60993
 C2042 C 0.22830 0.90129 0.63094
 C2043 C 0.20616 0.89127 0.64094
 C2044 C 0.19487 0.86985 0.63007
 C2045 C 0.20633 0.85903 0.60871
 C2046 C 0.22847 0.86913 0.59879
 C2047 C 0.26275 0.90008 0.60016
 C2048 C 0.28236 0.90815 0.59217
 H2049 H 0.23675 0.91760 0.63973
 H2050 H 0.19808 0.90028 0.65731
 H2051 H 0.19838 0.84262 0.59967
 H2052 H 0.23705 0.86038 0.58251
 C2053 C 0.23924 0.39014 1.10997
 C2054 C 0.22818 0.40125 1.13107
 C2055 C 0.20602 0.39133 1.14116
 C2056 C 0.19456 0.37002 1.13029
 C2057 C 0.20583 0.35921 1.10882
 C2058 C 0.22797 0.36919 1.09881
 C2059 C 0.26247 0.39988 1.10010
 C2060 C 0.28210 0.40782 1.09205
 H2061 H 0.23678 0.41747 1.13987
 H2062 H 0.19808 0.40033 1.15761
 H2063 H 0.19774 0.34287 1.09976
 H2064 H 0.23641 0.36044 1.08247
 C2065 C 0.73960 1.11021 0.88965
 C2066 C 0.72833 1.13118 0.90077
 C2067 C 0.70623 1.14120 0.89069
 C2068 C 0.69500 1.13040 0.86919
 C2069 C 0.70648 1.10909 0.85834
 C2070 C 0.72859 1.09914 0.86850
 C2071 C 0.76276 1.10041 0.89962
 C2072 C 0.78233 1.09241 0.90776
 H2073 H 0.73672 1.13992 0.91714
 H2074 H 0.69813 1.15754 0.89973
 H2075 H 0.69857 1.10010 0.84187
 H2076 H 0.73719 1.08290 0.85973
 C2077 C 0.73944 0.60913 0.39013
 C2078 C 0.72826 0.63014 0.40132
 C2079 C 0.70609 0.64014 0.39138
 C2080 C 0.69480 0.62926 0.37004
 C2081 C 0.70609 0.60797 0.35909
 C2082 C 0.72825 0.59802 0.36908
 C2083 C 0.76269 0.59938 0.39988
 C2084 C 0.78235 0.59143 0.40785
 H2085 H 0.73679 0.63891 0.41760
 H2086 H 0.69795 0.65651 0.40030
 H2087 H 0.69794 0.59910 0.34268
 H2088 H 0.73678 0.58177 0.36025
 C2089 C 0.23980 1.11022 0.38958
 C2090 C 0.22849 1.13116 0.40070
 C2091 C 0.20636 1.14112 0.39064
 C2092 C 0.19514 1.13029 0.36916
 C2093 C 0.20666 1.10899 0.35831
 C2094 C 0.22880 1.09910 0.36845
 C2095 C 0.26300 1.10048 0.39953
 C2096 C 0.28260 1.09253 0.40765
 H2097 H 0.23688 1.13992 0.41707
 H2098 H 0.19823 1.15745 0.39968
 H2099 H 0.19876 1.09998 0.34185
 H2100 H 0.23743 1.08288 0.35968
 C2101 C 0.23894 0.60862 0.89122
 C2102 C 0.22779 0.62963 0.90241
 C2103 C 0.20555 0.63956 0.89257
 C2104 C 0.19416 0.62859 0.87133
 C2105 C 0.20542 0.60727 0.86040
 C2106 C 0.22766 0.59739 0.87029
 C2107 C 0.26229 0.59896 0.90082
 C2108 C 0.28204 0.59109 0.90865
 H2109 H 0.23641 0.63849 0.91861
 H2110 H 0.19742 0.65596 0.90147
 H2111 H 0.19719 0.59833 0.84407
 H2112 H 0.23617 0.58113 0.86146
 C2113 C 1.10968 1.26074 1.10939
 C2114 C 1.09853 1.27194 1.13042
 C2115 C 1.10854 1.29406 1.14045
 C2116 C 1.12990 1.30529 1.12957
 C2117 C 1.14080 1.29399 1.10826
 C2118 C 1.13075 1.27186 1.09827
 C2119 C 1.09989 1.23751 1.09962
 C2120 C 1.09191 1.21786 1.09167
 H2121 H 1.08223 1.26345 1.13919
 H2122 H 1.09964 1.30222 1.15684
 H2123 H 1.15723 1.30209 1.09939
 H2124 H 1.13955 1.26332 1.08200
 C2125 C 1.11009 0.76027 0.60931
 C2126 C 1.13127 0.77127 0.59825
 C2127 C 1.14133 0.79343 0.60818
 C2128 C 1.13033 0.80488 0.62936
 C2129 C 1.10888 0.79377 0.64018
 C2130 C 1.09887 0.77162 0.63021
 C2131 C 1.10024 0.73704 0.59959
 C2132 C 1.09218 0.71741 0.59167
 H2133 H 1.14013 0.76261 0.58208
 H2134 H 1.15783 0.80144 0.59936
 H2135 H 1.09991 0.80204 0.65647
 H2136 H 1.08249 0.76324 0.63893
 C2137 C 0.60977 1.26075 0.60922
 C2138 C 0.63093 1.27174 0.59812
 C2139 C 0.64101 1.29389 0.60801
 C2140 C 0.63005 1.30535 0.62922
 C2141 C 0.60860 1.29426 0.64006
 C2142 C 0.59857 1.27211 0.63012
 C2143 C 0.59995 1.23749 0.59956
 C2144 C 0.59194 1.21782 0.59169
 H2145 H 0.63977 1.26306 0.58194
 H2146 H 0.65750 1.30189 0.59918
 H2147 H 0.59966 1.30254 0.65637
 H2148 H 0.58221 1.26373 0.63888
 C2149 C 0.60912 0.76063 1.10998
 C2150 C 0.63012 0.77181 1.09880
 C2151 C 0.64011 0.79399 1.10874
 C2152 C 0.62921 0.80528 1.13007
 C2153 C 0.60792 0.79399 1.14100
 C2154 C 0.59798 0.77181 1.13102
 C2155 C 0.59937 0.73736 1.10023
 C2156 C 0.59142 0.71770 1.09227
 H2157 H 0.63891 0.76328 1.08253
 H2158 H 0.65649 0.80214 1.09982
 H2159 H 0.59903 0.80214 1.15741
 H2160 H 0.58172 0.76328 1.13984
 C2161 C 0.89064 1.26062 0.89031
 C2162 C 0.90174 1.27168 0.86917
 C2163 C 0.89179 1.29381 0.85910
 C2164 C 0.87055 1.30519 0.87004
 C2165 C 0.85970 1.29403 0.89146
 C2166 C 0.86969 1.27190 0.90149
 C2167 C 0.90036 1.23739 0.90014
 C2168 C 0.90828 1.21774 0.90815
 H2169 H 0.91795 1.26307 0.86035
 H2170 H 0.90064 1.30186 0.84262
 H2171 H 0.84337 1.30224 0.90039
 H2172 H 0.86093 1.26346 0.91784
 C2173 C 0.89070 0.76040 0.39014
 C2174 C 0.90185 0.77155 0.36909
 C2175 C 0.89194 0.79374 0.35910
 C2176 C 0.87068 0.80508 0.37004
 C2177 C 0.85977 0.79382 0.39138
 C2178 C 0.86972 0.77163 0.40132
 C2179 C 0.90040 0.73713 0.39990
 C2180 C 0.90832 0.71745 0.40786
 H2181 H 0.91808 0.76298 0.36026
 H2182 H 0.90084 0.80187 0.34269
 H2183 H 0.84342 0.80200 0.40031
 H2184 H 0.86092 0.76312 0.41761
 C2185 C 0.39043 1.26085 0.39037
 C2186 C 0.36932 1.27191 0.40147
 C2187 C 0.35920 1.29400 0.39146
 C2188 C 0.37008 1.30531 0.37013
 C2189 C 0.39148 1.29415 0.35928
 C2190 C 0.40155 1.27206 0.36934
 C2191 C 0.40030 1.23766 0.40016
 C2192 C 0.40833 1.21804 0.40814
 H2193 H 0.36054 1.26336 0.41774
 H2194 H 0.34275 1.30206 0.40031
 H2195 H 0.40036 1.30232 0.34288
 H2196 H 0.41788 1.26362 0.36057
 C2197 C 0.39000 0.76052 0.89081
 C2198 C 0.36885 0.77154 0.90190
 C2199 C 0.35881 0.79371 0.89199
 C2200 C 0.36979 0.80515 0.87079
 C2201 C 0.39122 0.79402 0.85994
 C2202 C 0.40121 0.77185 0.86989
 C2203 C 0.39981 0.73727 0.90050
 C2204 C 0.40782 0.71761 0.90840
 H2205 H 0.36000 0.76289 0.91808
 H2206 H 0.34233 0.80174 0.90083
 H2207 H 0.40018 0.80228 0.84364
 H2208 H 0.41757 0.76345 0.86114
 C2209 C 1.10872 0.73894 0.89120
 C2210 C 1.09752 0.72769 0.87023
 C2211 C 1.10739 0.70544 0.86034
 C2212 C 1.12866 0.69414 0.87129
 C2213 C 1.13962 0.70549 0.89256
 C2214 C 1.12970 0.72774 0.90240
 C2215 C 1.09908 0.76228 0.90082
 C2216 C 1.09123 0.78203 0.90867
 H2217 H 1.08128 0.73623 0.86139
 H2218 H 1.09846 0.69724 0.84398
 H2219 H 1.15598 0.69734 0.90149
 H2220 H 1.13854 0.73633 0.91863
 C2221 C 1.11003 0.23937 0.39005
 C2222 C 1.13112 0.22830 0.40117
 C2223 C 1.14123 0.20621 0.39117
 C2224 C 1.13037 0.19490 0.36984
 C2225 C 1.10899 0.20607 0.35897
 C2226 C 1.09892 0.22816 0.36901
 C2227 C 1.10017 0.26257 0.39984
 C2228 C 1.09213 0.28218 0.40781
 H2229 H 1.13989 0.23686 0.41744
 H2230 H 1.15768 0.19815 0.40004
 H2231 H 1.10012 0.19790 0.34256
 H2232 H 1.08260 0.23661 0.36024
 C2233 C 0.60939 0.73953 0.39027
 C2234 C 0.63038 0.72829 0.40141
 C2235 C 0.64032 0.70611 0.39144
 C2236 C 0.62938 0.69487 0.37011
 C2237 C 0.60811 0.70621 0.35920
 C2238 C 0.59821 0.72840 0.36922
 C2239 C 0.59969 0.76280 0.40006
 C2240 C 0.59177 0.78246 0.40804
 H2241 H 0.63920 0.73678 0.41770
 H2242 H 0.65668 0.69792 0.40034
 H2243 H 0.59919 0.69810 0.34279
 H2244 H 0.58197 0.73697 0.36042
 C2245 C 0.60994 0.23954 0.89020
 C2246 C 0.63104 0.22845 0.90130
 C2247 C 0.64116 0.20638 0.89125
 C2248 C 0.63030 0.19510 0.86989
 C2249 C 0.60892 0.20630 0.85904
 C2250 C 0.59885 0.22837 0.86913
 C2251 C 0.60005 0.26269 0.90006
 C2252 C 0.59198 0.28227 0.90809
 H2253 H 0.63980 0.23697 0.91760
 H2254 H 0.65760 0.19830 0.90011
 H2255 H 0.60006 0.19816 0.84262
 H2256 H 0.58253 0.23683 0.86037
 C2257 C 0.89062 0.73955 1.10997
 C2258 C 0.86960 0.72837 1.09881
 C2259 C 0.85961 0.70619 1.10876
 C2260 C 0.87053 0.69490 1.13007
 C2261 C 0.89183 0.70618 1.14099
 C2262 C 0.90177 0.72836 1.13100
 C2263 C 0.90037 0.76281 1.10022
 C2264 C 0.90832 0.78247 1.09225
 H2265 H 0.86080 0.73690 1.08254
 H2266 H 0.84323 0.69805 1.09985
 H2267 H 0.90073 0.69803 1.15738
 H2268 H 0.91803 0.73689 1.13981
 C2269 C 0.89027 0.23928 0.60983
 C2270 C 0.86919 0.22817 0.59873
 C2271 C 0.85907 0.20610 0.60879
 C2272 C 0.86992 0.19485 0.63015
 C2273 C 0.89129 0.20606 0.64102
 C2274 C 0.90136 0.22813 0.63091
 C2275 C 0.90015 0.26244 0.59997
 C2276 C 0.90820 0.28203 0.59192
 H2277 H 0.86043 0.23667 0.58242
 H2278 H 0.84264 0.19801 0.59993
 H2279 H 0.90014 0.19794 0.65745
 H2280 H 0.91767 0.23661 0.63968
 C2281 C 0.39003 0.73958 0.60932
 C2282 C 0.40123 0.72821 0.63022
 C2283 C 0.39122 0.70605 0.64015
 C2284 C 0.36978 0.69494 0.62931
 C2285 C 0.35880 0.70641 0.60812
 C2286 C 0.36887 0.72859 0.59824
 C2287 C 0.39988 0.76283 0.59965
 C2288 C 0.40792 0.78248 0.59176
 H2289 H 0.41760 0.73659 0.63897
 H2290 H 0.40018 0.69776 0.65644
 H2291 H 0.34231 0.69841 0.59928
 H2292 H 0.36002 0.73726 0.58207
 C2293 C 0.39062 0.23877 1.10862
 C2294 C 0.36948 0.22775 1.09753
 C2295 C 0.35947 0.20555 1.10741
 C2296 C 0.37047 0.19410 1.12858
 C2297 C 0.39191 0.20522 1.13941
 C2298 C 0.40188 0.22740 1.12949
 C2299 C 0.40035 0.26208 1.09903
 C2300 C 0.40828 0.28181 1.09122
 H2301 H 0.36060 0.23643 1.08138
 H2302 H 0.34298 0.19753 1.09858
 H2303 H 0.40089 0.19694 1.15570
 H2304 H 0.41823 0.23581 1.13824
 C2305 C 1.10903 1.10946 0.73907
 C2306 C 1.09794 1.13061 0.72807
 C2307 C 1.10781 1.14067 0.70587
 C2308 C 1.12897 1.12969 0.69438
 C2309 C 1.13981 1.10825 0.70549
 C2310 C 1.12990 1.09824 0.72768
 C2311 C 1.09940 1.09964 0.76237
 C2312 C 1.09155 1.09164 0.78207
 H2313 H 1.08179 1.13946 0.73676
 H2314 H 1.09898 1.15716 0.69786
 H2315 H 1.15609 1.09929 0.69719
 H2316 H 1.13865 1.08188 0.73607
 C2317 C 1.10982 0.61024 0.23919
 C2318 C 1.09876 0.63143 0.22826
 C2319 C 1.10870 0.64163 0.20616
 C2320 C 1.12999 0.63079 0.19461
 C2321 C 1.14076 0.60925 0.20576
 C2322 C 1.13074 0.59913 0.22785
 C2323 C 1.10006 0.60025 0.26237
 C2324 C 1.09211 0.59208 0.28197
 H2325 H 1.08255 0.64020 0.23692
 H2326 H 1.09975 0.65814 0.19831
 H2327 H 1.15707 0.60021 0.19760
 H2328 H 1.13946 0.58272 0.23618
 C2329 C 0.60995 1.11057 0.23937
 C2330 C 0.59886 1.13166 0.22830
 C2331 C 0.60884 1.14180 0.20619
 C2332 C 0.63021 1.13099 0.19476
 C2333 C 0.64101 1.10953 0.20604
 C2334 C 0.63096 1.09948 0.22815
 C2335 C 0.60015 1.10066 0.26257
 C2336 C 0.59216 1.09256 0.28217
 H2337 H 0.58259 1.14041 0.23687
 H2338 H 0.59984 1.15824 0.19824
 H2339 H 0.65739 1.10053 0.19798
 H2340 H 0.63971 1.08315 0.23659
 C2341 C 0.60909 0.60915 0.73935
 C2342 C 0.59796 0.63017 0.72816
 C2343 C 0.60789 0.64013 0.70595
 C2344 C 0.62916 0.62919 0.69464
 C2345 C 0.64006 0.60788 0.70593
 C2346 C 0.63008 0.59797 0.72814
 C2347 C 0.59937 0.59945 0.76266
 C2348 C 0.59145 0.59155 0.78236
 H2349 H 0.58172 0.63900 0.73671
 H2350 H 0.59900 0.65652 0.69780
 H2351 H 0.65642 0.59896 0.69777
 H2352 H 0.63887 0.58170 0.73668
 C2353 C 0.89103 0.89106 0.73913
 C2354 C 0.90219 0.87001 0.72799
 C2355 C 0.89233 0.86005 0.70575
 C2356 C 0.87111 0.87101 0.69436
 C2357 C 0.86021 0.89235 0.70560
 C2358 C 0.87011 0.90226 0.72783
 C2359 C 0.90065 0.90076 0.76247
 C2360 C 0.90849 0.90867 0.78221
 H2361 H 0.91838 0.86117 0.73662
 H2362 H 0.90122 0.84364 0.69765
 H2363 H 0.84389 0.90128 0.69736
 H2364 H 0.86131 0.91854 0.73632
 C2365 C 0.89054 0.39033 0.23888
 C2366 C 0.90168 0.36936 0.22763
 C2367 C 0.89169 0.35937 0.20547
 C2368 C 0.87026 0.37020 0.19417
 C2369 C 0.85942 0.39154 0.20561
 C2370 C 0.86948 0.40145 0.22778
 C2371 C 0.90034 0.40005 0.26214
 C2372 C 0.90834 0.40797 0.28181
 H2373 H 0.91799 0.36059 0.23610
 H2374 H 0.90072 0.34302 0.19739
 H2375 H 0.84300 0.40055 0.19765
 H2376 H 0.86070 0.41769 0.23637
 C2377 C 0.39089 0.89059 0.23921
 C2378 C 0.40193 0.86937 0.22829
 C2379 C 0.39205 0.85927 0.20612
 C2380 C 0.37092 0.87026 0.19458
 C2381 C 0.36014 0.89177 0.20561
 C2382 C 0.37006 0.90183 0.22777
 C2383 C 0.40052 0.90046 0.26248
 C2384 C 0.40838 0.90850 0.28216
 H2385 H 0.41804 0.86050 0.23702
 H2386 H 0.40084 0.84272 0.19817
 H2387 H 0.34389 0.90075 0.19727
 H2388 H 0.36135 0.91824 0.23610
 C2389 C 0.39007 0.38945 0.73943
 C2390 C 0.40116 0.36835 0.72839
 C2391 C 0.39122 0.35821 0.70626
 C2392 C 0.36989 0.36904 0.69479
 C2393 C 0.35907 0.39050 0.70604
 C2394 C 0.36909 0.40055 0.72817
 C2395 C 0.39985 0.39937 0.76263
 C2396 C 0.40784 0.40748 0.78224
 H2397 H 0.41741 0.35959 0.73698
 H2398 H 0.40022 0.34177 0.69833
 H2399 H 0.34272 0.39953 0.69795
 H2400 H 0.36034 0.41690 0.73659
 C2401 C 1.10980 0.89048 1.26092
 C2402 C 1.09869 0.86940 1.27199
 C2403 C 1.10860 0.85932 1.29416
 C2404 C 1.12991 0.87019 1.30564
 C2405 C 1.14073 0.89164 1.29436
 C2406 C 1.13074 0.90163 1.27220
 C2407 C 1.10007 0.90032 1.23767
 C2408 C 1.09214 0.90833 1.21801
 H2409 H 1.08247 0.86060 1.26338
 H2410 H 1.09960 0.84289 1.30210
 H2411 H 1.15706 0.90069 1.30247
 H2412 H 1.13950 0.91796 1.26375
 C2413 C 1.10994 0.38937 0.76040
 C2414 C 1.09886 0.36824 0.77141
 C2415 C 1.10878 0.35809 0.79354
 C2416 C 1.13009 0.36894 0.80505
 C2417 C 1.14089 0.39043 0.79383
 C2418 C 1.13089 0.40049 0.77171
 C2419 C 1.10019 0.39931 0.73720
 C2420 C 1.09223 0.40744 0.71759
 H2421 H 1.08263 0.35947 0.76277
 H2422 H 1.09980 0.34162 0.80144
 H2423 H 1.15722 0.39946 0.80195
 H2424 H 1.13963 0.41686 0.76331
 C2425 C 0.60885 0.89113 0.76103
 C2426 C 0.59766 0.87014 0.77223
 C2427 C 0.60754 0.86019 0.79447
 C2428 C 0.62882 0.87112 0.80580
 C2429 C 0.63976 0.89240 0.79449
 C2430 C 0.62983 0.90230 0.77226
 C2431 C 0.59920 0.90080 0.73769
 C2432 C 0.59134 0.90869 0.71795
 H2433 H 0.58143 0.86132 0.76366
 H2434 H 0.59862 0.84382 0.80262
 H2435 H 0.65612 0.90131 0.80268
 H2436 H 0.63866 0.91854 0.76371
 C2437 C 0.60866 0.39048 1.26116
 C2438 C 0.59758 0.36940 1.27229
 C2439 C 0.60754 0.35940 1.29447
 C2440 C 0.62879 0.37036 1.30580
 C2441 C 0.63962 0.39174 1.29457
 C2442 C 0.62962 0.40169 1.27240
 C2443 C 0.59895 0.40021 1.23787
 C2444 C 0.59105 0.40816 1.21817
 H2445 H 0.58136 0.36055 1.26371
 H2446 H 0.59871 0.34295 1.30257
 H2447 H 0.65597 0.40068 1.30275
 H2448 H 0.63837 0.41800 1.26390
 C2449 C 0.89058 1.11028 1.26092
 C2450 C 0.86958 1.09917 1.27213
 C2451 C 0.85952 1.10920 1.29425
 C2452 C 0.87031 1.13065 1.30554
 C2453 C 0.89168 1.14148 1.29413
 C2454 C 0.90167 1.13137 1.27201
 C2455 C 0.90039 1.10041 1.23771
 C2456 C 0.90838 1.09234 1.21810
 H2457 H 0.86084 1.08284 1.26367
 H2458 H 0.84314 1.10017 1.30230
 H2459 H 0.90067 1.15791 1.30209
 H2460 H 0.91794 1.14014 1.26345
 C2461 C 0.89072 0.60914 0.76059
 C2462 C 0.90187 0.63016 0.77177
 C2463 C 0.89196 0.64013 0.79398
 C2464 C 0.87068 0.62920 0.80530
 C2465 C 0.85976 0.60790 0.79401
 C2466 C 0.86972 0.59797 0.77181
 C2467 C 0.90044 0.59940 0.73729
 C2468 C 0.90837 0.59146 0.71760
 H2469 H 0.91811 0.63897 0.76321
 H2470 H 0.90085 0.65652 0.80212
 H2471 H 0.84339 0.59899 0.80219
 H2472 H 0.86092 0.58171 0.76328
 C2473 C 0.39013 1.11049 0.76056
 C2474 C 0.40119 1.13161 0.77161
 C2475 C 0.39122 1.14174 0.79374
 C2476 C 0.36989 1.13088 0.80520
 C2477 C 0.35912 1.10940 0.79394
 C2478 C 0.36916 1.09936 0.77182
 C2479 C 0.39994 1.10058 0.73737
 C2480 C 0.40793 1.09247 0.71777
 H2481 H 0.41743 1.14040 0.76302
 H2482 H 0.40019 1.15820 0.80167
 H2483 H 0.34277 1.10035 0.80202
 H2484 H 0.36044 1.08300 0.76340
 C2485 C 0.39029 0.60945 1.26100
 C2486 C 0.40143 0.63054 1.27204
 C2487 C 0.39156 0.64063 1.29422
 C2488 C 0.37027 0.62978 1.30574
 C2489 C 0.35943 0.60832 1.29450
 C2490 C 0.36937 0.59831 1.27233
 C2491 C 0.39996 0.59960 1.23773
 C2492 C 0.40784 0.59158 1.21806
 H2493 H 0.41763 0.63933 1.26339
 H2494 H 0.40057 0.65708 1.30214
 H2495 H 0.34311 0.59928 1.30264
 H2496 H 0.36059 0.58197 1.26391
 C2497 C 1.10988 1.26033 0.88939
 C2498 C 1.13083 1.27159 0.90053
 C2499 C 1.14086 1.29370 0.89049
 C2500 C 1.13007 1.30495 0.86900
 C2501 C 1.10876 1.29348 0.85813
 C2502 C 1.09881 1.27136 0.86825
 C2503 C 1.10008 1.23715 0.89932
 C2504 C 1.09210 1.21756 0.90744
 H2505 H 1.13957 1.26318 0.91691
 H2506 H 1.15720 1.30179 0.89955
 H2507 H 1.09978 1.30140 0.84166
 H2508 H 1.08257 1.26277 0.85946
 C2509 C 1.10944 0.76039 0.39017
 C2510 C 1.09833 0.77148 0.36907
 C2511 C 1.10821 0.79369 0.35908
 C2512 C 1.12940 0.80511 0.37008
 C2513 C 1.14026 0.79391 0.39147
 C2514 C 1.13034 0.77170 0.40141
 C2515 C 1.09976 0.73710 0.39994
 C2516 C 1.09187 0.71742 0.40791
 H2517 H 1.08216 0.76285 0.36020
 H2518 H 1.09935 0.80177 0.34263
 H2519 H 1.15656 0.80215 0.40045
 H2520 H 1.13911 0.76324 0.41774
 C2521 C 0.60961 1.26093 0.39075
 C2522 C 0.63065 1.27209 0.40185
 C2523 C 0.64061 1.29429 0.39194
 C2524 C 0.62967 1.30572 0.37063
 C2525 C 0.60826 1.29436 0.35982
 C2526 C 0.59838 1.27216 0.36981
 C2527 C 0.59991 1.23764 0.40047
 C2528 C 0.59199 1.21794 0.40838
 H2529 H 0.63950 1.26351 0.41807
 H2530 H 0.65702 1.30230 0.40093
 H2531 H 0.59916 1.30242 0.34348
 H2532 H 0.58208 1.26364 0.36105
 C2533 C 0.60879 0.76079 0.89124
 C2534 C 0.59761 0.77203 0.87026
 C2535 C 0.60751 0.79426 0.86035
 C2536 C 0.62880 0.80554 0.87131
 C2537 C 0.63974 0.79419 0.89258
 C2538 C 0.62979 0.77196 0.90244
 C2539 C 0.59911 0.73746 0.90089
 C2540 C 0.59121 0.71775 0.90875
 H2541 H 0.58137 0.76351 0.86143
 H2542 H 0.59860 0.80245 0.84399
 H2543 H 0.65611 0.80233 0.90151
 H2544 H 0.63861 0.76338 0.91868
 C2545 C 0.89090 1.26068 1.10949
 C2546 C 0.86987 1.27184 1.09835
 C2547 C 0.85988 1.29401 1.10829
 C2548 C 0.87081 1.30532 1.12960
 C2549 C 0.89213 1.29405 1.14050
 C2550 C 0.90207 1.27188 1.13051
 C2551 C 0.90063 1.23741 1.09977
 C2552 C 0.90856 1.21773 1.09184
 H2553 H 0.86106 1.26330 1.08209
 H2554 H 0.84348 1.30214 1.09941
 H2555 H 0.90104 1.30221 1.15688
 H2556 H 0.91834 1.26337 1.13930
 C2557 C 0.89099 0.76062 0.60889
 C2558 C 0.90218 0.77184 0.62989
 C2559 C 0.89231 0.79407 0.63981
 C2560 C 0.87104 0.80539 0.62886
 C2561 C 0.86009 0.79407 0.60758
 C2562 C 0.87000 0.77183 0.59770
 C2563 C 0.90065 0.73730 0.59922
 C2564 C 0.90853 0.71759 0.59133
 H2565 H 0.91841 0.76329 0.63872
 H2566 H 0.90123 0.80224 0.65618
 H2567 H 0.84373 0.80224 0.59865
 H2568 H 0.86118 0.76328 0.58146
 C2569 C 0.39024 1.26051 0.61044
 C2570 C 0.36927 1.27174 0.59929
 C2571 C 0.35921 1.29383 0.60932
 C2572 C 0.36997 1.30510 0.63081
 C2573 C 0.39131 1.29367 0.64169
 C2574 C 0.40129 1.27157 0.63157
 C2575 C 0.40006 1.23734 0.60053
 C2576 C 0.40807 1.21776 0.59243
 H2577 H 0.36055 1.26330 0.58292
 H2578 H 0.34286 1.30189 0.60027
 H2579 H 0.40027 1.30162 0.65816
 H2580 H 0.41754 1.26301 0.64037
 C2581 C 0.39011 0.76058 1.10983
 C2582 C 0.36915 0.77179 1.09865
 C2583 C 0.35921 0.79401 1.10854
 C2584 C 0.37010 0.80542 1.12990
 C2585 C 0.39143 0.79399 1.14079
 C2586 C 0.40129 0.77177 1.13082
 C2587 C 0.39982 0.73729 1.10009
 C2588 C 0.40775 0.71761 1.09214
 H2589 H 0.36034 0.76326 1.08239
 H2590 H 0.34286 0.80207 1.09948
 H2591 H 0.40048 0.80203 1.15716
 H2592 H 0.41753 0.76321 1.13963
 C2593 C 0.89064 0.73947 0.89092
 C2594 C 0.86967 0.72824 0.90211
 C2595 C 0.85973 0.70603 0.89219
 C2596 C 0.87065 0.69476 0.87087
 C2597 C 0.89192 0.70610 0.85992
 C2598 C 0.90181 0.72830 0.86989
 C2599 C 0.90033 0.76276 0.90065
 C2600 C 0.90823 0.78245 0.90858
 H2601 H 0.86086 0.73676 0.91839
 H2602 H 0.84337 0.69785 0.90111
 H2603 H 0.90082 0.69796 0.84352
 H2604 H 0.91804 0.73687 0.86106
 C2605 C 0.89049 0.23927 0.38972
 C2606 C 0.86947 0.22809 0.40085
 C2607 C 0.85943 0.20597 0.39086
 C2608 C 0.87025 0.19463 0.36943
 C2609 C 0.89162 0.20602 0.35858
 C2610 C 0.90159 0.22814 0.36865
 C2611 C 0.90029 0.26248 0.39956
 C2612 C 0.90829 0.28209 0.40760
 H2613 H 0.86071 0.23658 0.41717
 H2614 H 0.84304 0.19794 0.39989
 H2615 H 0.90063 0.19802 0.34216
 H2616 H 0.91787 0.23667 0.35988
 C2617 C 0.39071 0.73962 0.39028
 C2618 C 0.36982 0.72828 0.40153
 C2619 C 0.35992 0.70607 0.39158
 C2620 C 0.37079 0.69489 0.37018
 C2621 C 0.39196 0.70633 0.35917
 C2622 C 0.40182 0.72855 0.36916
 C2623 C 0.40037 0.76291 0.40006
 C2624 C 0.40824 0.78259 0.40805
 H2625 H 0.36106 0.73672 0.41787
 H2626 H 0.34364 0.69780 0.40057
 H2627 H 0.40081 0.69827 0.34271
 H2628 H 0.41798 0.73720 0.36029
 C2629 C 0.38996 0.23946 0.88957
 C2630 C 0.36898 0.22819 0.90069
 C2631 C 0.35897 0.20608 0.89064
 C2632 C 0.36979 0.19483 0.86916
 C2633 C 0.39113 0.20630 0.85832
 C2634 C 0.40106 0.22842 0.86845
 C2635 C 0.39973 0.26264 0.89950
 C2636 C 0.40771 0.28224 0.90761
 H2637 H 0.36023 0.23661 0.91705
 H2638 H 0.34262 0.19799 0.89967
 H2639 H 0.40013 0.19837 0.84186
 H2640 H 0.41731 0.23701 0.85968
 C2641 C 1.11000 0.73968 1.11060
 C2642 C 1.13097 0.72845 1.09944
 C2643 C 1.14097 0.70630 1.10943
 C2644 C 1.13015 0.69499 1.13087
 C2645 C 1.10883 0.70643 1.14176
 C2646 C 1.09890 0.72859 1.13169
 C2647 C 1.10020 0.76289 1.10072
 C2648 C 1.09221 0.78249 1.09264
 H2649 H 1.13972 0.73691 1.08311
 H2650 H 1.15732 0.69823 1.10036
 H2651 H 1.09983 0.69846 1.15819
 H2652 H 1.08266 0.73716 1.14049
 C2653 C 1.10962 0.23914 0.60936
 C2654 C 1.13061 0.22792 0.59822
 C2655 C 1.14056 0.20573 0.60815
 C2656 C 1.12967 0.19437 0.62953
 C2657 C 1.10833 0.20578 0.64039
 C2658 C 1.09845 0.22797 0.63038
 C2659 C 1.09992 0.26241 0.59960
 C2660 C 1.09200 0.28208 0.59163
 H2661 H 1.13942 0.23644 0.58194
 H2662 H 1.15692 0.19768 0.59911
 H2663 H 1.09927 0.19776 0.65677
 H2664 H 1.08219 0.23653 0.63917
 C2665 C 0.60926 0.73952 0.60917
 C2666 C 0.59807 0.72827 0.63015
 C2667 C 0.60797 0.70605 0.64008
 C2668 C 0.62928 0.69478 0.62915
 C2669 C 0.64024 0.70614 0.60789
 C2670 C 0.63029 0.72836 0.59800
 C2671 C 0.59954 0.76282 0.59950
 C2672 C 0.59161 0.78251 0.59161
 H2673 H 0.58180 0.73678 0.63897
 H2674 H 0.59904 0.69785 0.65643
 H2675 H 0.65663 0.69801 0.59898
 H2676 H 0.63912 0.73694 0.58177
 C2677 C 0.60990 0.23954 1.11050
 C2678 C 0.59882 0.22842 1.13159
 C2679 C 0.60883 0.20633 1.14169
 C2680 C 0.63022 0.19496 1.13085
 C2681 C 0.64102 0.20629 1.10940
 C2682 C 0.63093 0.22838 1.09938
 C2683 C 0.60003 0.26270 1.10060
 C2684 C 0.59198 0.28228 1.09252
 H2685 H 0.58253 0.23694 1.14036
 H2686 H 0.59984 0.19834 1.15812
 H2687 H 0.65741 0.19828 1.10038
 H2688 H 0.63967 0.23686 1.08304
 C2689 C 1.26056 1.10987 0.89005
 C2690 C 1.27173 1.09877 0.86899
 C2691 C 1.29383 1.10881 0.85893
 C2692 C 1.30506 1.13017 0.86981
 C2693 C 1.29377 1.14103 0.89116
 C2694 C 1.27167 1.13094 0.90117
 C2695 C 1.23736 1.10002 0.89987
 C2696 C 1.21775 1.09200 0.90788
 H2697 H 1.26325 1.08247 0.86021
 H2698 H 1.30198 1.09995 0.84251
 H2699 H 1.30187 1.15745 0.90003
 H2700 H 1.26314 1.13971 0.91747
 C2701 C 1.26090 0.60899 0.39052
 C2702 C 1.27212 0.59783 0.36951
 C2703 C 1.29428 0.60780 0.35952
 C2704 C 1.30551 0.62915 0.37041
 C2705 C 1.29419 0.64006 0.39171
 C2706 C 1.27203 0.63004 0.40166
 C2707 C 1.23763 0.59924 0.40023
 C2708 C 1.21795 0.59130 0.40813
 H2709 H 1.26363 0.58154 0.36072
 H2710 H 1.30245 0.59890 0.34314
 H2711 H 1.30230 0.65648 0.40058
 H2712 H 1.26347 0.63885 0.41791
 C2713 C 0.76077 1.10990 0.39021
 C2714 C 0.77198 1.09876 0.36918
 C2715 C 0.79412 1.10875 0.35916
 C2716 C 0.80536 1.13010 0.37004
 C2717 C 0.79404 1.14101 0.39135
 C2718 C 0.77190 1.13097 0.40132
 C2719 C 0.73755 1.10009 0.39999
 C2720 C 0.71791 1.09209 0.40797
 H2721 H 0.76350 1.08246 0.36041
 H2722 H 0.80229 1.09985 0.34278
 H2723 H 0.80214 1.15743 0.40022
 H2724 H 0.76335 1.13977 0.41759
 C2725 C 0.76048 0.60920 0.89102
 C2726 C 0.77170 0.63019 0.90218
 C2727 C 0.79389 0.64014 0.89224
 C2728 C 0.80517 0.62921 0.87092
 C2729 C 0.79385 0.60793 0.86000
 C2730 C 0.77165 0.59802 0.86999
 C2731 C 0.73720 0.59951 0.90076
 C2732 C 0.71751 0.59160 0.90870
 H2733 H 0.76318 0.63901 0.91845
 H2734 H 0.80206 0.65651 0.90114
 H2735 H 0.80199 0.59902 0.84361
 H2736 H 0.76310 0.58178 0.86118
 C2737 C 1.26086 0.89049 1.10905
 C2738 C 1.27227 0.90175 1.12990
 C2739 C 1.29442 0.89172 1.13984
 C2740 C 1.30547 0.87023 1.12905
 C2741 C 1.29397 0.85922 1.10790
 C2742 C 1.27181 0.86929 1.09800
 C2743 C 1.23760 0.90031 1.09940
 C2744 C 1.21792 0.90831 1.09155
 H2745 H 1.26392 0.91815 1.13861
 H2746 H 1.30273 0.90071 1.15610
 H2747 H 1.30194 0.84269 1.09911
 H2748 H 1.26310 0.86040 1.08187
 C2749 C 1.26065 0.38990 0.60976
 C2750 C 1.27181 0.36884 0.59866
 C2751 C 1.29390 0.35878 0.60872
 C2752 C 1.30514 0.36966 0.63008
 C2753 C 1.29387 0.39100 0.64094
 C2754 C 1.27178 0.40101 0.63084
 C2755 C 1.23747 0.39973 0.59989
 C2756 C 1.21787 0.40775 0.59185
 H2757 H 1.26333 0.36006 0.58235
 H2758 H 1.30204 0.34237 0.59986
 H2759 H 1.30197 0.39988 0.65737
 H2760 H 1.26326 0.41731 0.63960
 C2761 C 0.76088 0.89108 0.60888
 C2762 C 0.77200 0.87003 0.59772
 C2763 C 0.79421 0.86006 0.60758
 C2764 C 0.80561 0.87102 0.62881
 C2765 C 0.79439 0.89236 0.63973
 C2766 C 0.77218 0.90229 0.62982
 C2767 C 0.73756 0.90079 0.59926
 C2768 C 0.71784 0.90871 0.59143
 H2769 H 0.76337 0.86120 0.58151
 H2770 H 0.80231 0.84365 0.59868
 H2771 H 0.80262 0.90130 0.65606
 H2772 H 0.76370 0.91857 0.63864
 C2773 C 0.76044 0.39070 1.10975
 C2774 C 0.77168 0.36976 1.09853
 C2775 C 0.79390 0.35982 1.10843
 C2776 C 0.80517 0.37071 1.12977
 C2777 C 0.79382 0.39194 1.14076
 C2778 C 0.77160 0.40183 1.13081
 C2779 C 0.73714 0.40039 1.10004
 C2780 C 0.71744 0.40828 1.09210
 H2781 H 0.76317 0.36097 1.08223
 H2782 H 0.80209 0.34349 1.09947
 H2783 H 0.80195 0.40082 1.15717
 H2784 H 0.76302 0.41804 1.13967
 C2785 C 0.73968 1.11016 1.11009
 C2786 C 0.72845 1.09903 1.13111
 C2787 C 0.70633 1.10906 1.14113
 C2788 C 0.69513 1.13044 1.13025
 C2789 C 0.70648 1.14134 1.10896
 C2790 C 0.72860 1.13126 1.09898
 C2791 C 0.76288 1.10030 1.10030
 C2792 C 0.78249 1.09225 1.09232
 H2793 H 0.73689 1.08271 1.13988
 H2794 H 0.69814 1.10017 1.15751
 H2795 H 0.69840 1.15778 1.10009
 H2796 H 0.73717 1.14005 1.08272
 C2797 C 0.73941 0.60903 0.60909
 C2798 C 0.72814 0.59786 0.63007
 C2799 C 0.70595 0.60782 0.64002
 C2800 C 0.69473 0.62916 0.62911
 C2801 C 0.70610 0.64009 0.60784
 C2802 C 0.72829 0.63009 0.59794
 C2803 C 0.76269 0.59928 0.59940
 C2804 C 0.78237 0.59132 0.59149
 H2805 H 0.73662 0.58158 0.63887
 H2806 H 0.69774 0.59890 0.65637
 H2807 H 0.69801 0.65650 0.59894
 H2808 H 0.73689 0.63890 0.58171
 C2809 C 0.23914 1.10960 0.60889
 C2810 C 0.22780 1.09836 0.62979
 C2811 C 0.20561 1.10832 0.63971
 C2812 C 0.19446 1.12973 0.62885
 C2813 C 0.20589 1.14072 0.60765
 C2814 C 0.22809 1.13071 0.59777
 C2815 C 0.26244 1.09985 0.59925
 C2816 C 0.28215 1.09191 0.59142
 H2817 H 0.23622 1.08203 0.63855
 H2818 H 0.19734 1.09936 0.65601
 H2819 H 0.19785 1.15718 0.59881
 H2820 H 0.23675 1.13958 0.58161
 C2821 C 0.23926 0.60979 1.10982
 C2822 C 0.22796 0.59863 1.13078
 C2823 C 0.20587 0.60872 1.14082
 C2824 C 0.19479 0.63019 1.13002
 C2825 C 0.20620 0.64112 1.10877
 C2826 C 0.22829 0.63098 1.09878
 C2827 C 0.26244 0.59988 1.10005
 C2828 C 0.28205 0.59180 1.09208
 H2829 H 0.23632 0.58224 1.13950
 H2830 H 0.19763 0.59980 1.15715
 H2831 H 0.19821 0.65763 1.09996
 H2832 H 0.23691 0.63979 1.08256
 C2833 C 0.73908 0.89104 0.89136
 C2834 C 0.72790 0.87003 0.90252
 C2835 C 0.70567 0.86010 0.89263
 C2836 C 0.69434 0.87106 0.87136
 C2837 C 0.70563 0.89236 0.86044
 C2838 C 0.72785 0.90225 0.87038
 C2839 C 0.76240 0.90071 0.90102
 C2840 C 0.78212 0.90861 0.90889
 H2841 H 0.73647 0.86119 0.91875
 H2842 H 0.69752 0.84371 0.90153
 H2843 H 0.69745 0.90130 0.84409
 H2844 H 0.73638 0.91850 0.86157
 C2845 C 0.73930 0.39038 0.39092
 C2846 C 0.72826 0.36928 0.40207
 C2847 C 0.70602 0.35929 0.39226
 C2848 C 0.69454 0.37029 0.37109
 C2849 C 0.70570 0.39167 0.36019
 C2850 C 0.72793 0.40161 0.37005
 C2851 C 0.76263 0.40011 0.40051
 C2852 C 0.78236 0.40804 0.40832
 H2853 H 0.73694 0.36042 0.41823
 H2854 H 0.69798 0.34285 0.40114
 H2855 H 0.69740 0.40064 0.34390
 H2856 H 0.73635 0.41793 0.36125
 C2857 C 0.23927 0.89100 0.39048
 C2858 C 0.22810 0.90214 0.36944
 C2859 C 0.20596 0.89217 0.35941
 C2860 C 0.19469 0.87084 0.37030
 C2861 C 0.20597 0.85994 0.39163
 C2862 C 0.22811 0.86997 0.40162
 C2863 C 0.26251 0.90076 0.40025
 C2864 C 0.28217 0.90871 0.40821
 H2865 H 0.23661 0.91842 0.36064
 H2866 H 0.19782 0.90105 0.34300
 H2867 H 0.19784 0.84354 0.40052
 H2868 H 0.23663 0.86117 0.41790
 C2869 C 0.23929 0.38992 0.89002
 C2870 C 0.22812 0.40103 0.86896
 C2871 C 0.20603 0.39099 0.85888
 C2872 C 0.19482 0.36961 0.86974
 C2873 C 0.20609 0.35874 0.89108
 C2874 C 0.22818 0.36883 0.90112
 C2875 C 0.26248 0.39977 0.89984
 C2876 C 0.28208 0.40780 0.90786
 H2877 H 0.23660 0.41734 0.86020
 H2878 H 0.19789 0.39986 0.84247
 H2879 H 0.19800 0.34230 0.89994
 H2880 H 0.23671 0.36005 0.91740
   
