data_POSCAR
  _audit_creation_date              2014-09-24
  _audit_creation_method            'ToBaCCo'
  _symmetry_space_group_name_H-M    'P1'
  _symmetry_Int_Tables_number       1
  _symmetry_cell_setting            triclinic
  loop_
  _symmetry_equiv_pos_as_xyz
 x,y,z
_cell_length_a 72.6525
_cell_length_b 76.9881
_cell_length_c 77.8075
_cell_angle_alpha 89.882700
_cell_angle_beta 89.637000
_cell_angle_gamma 90.057600
loop_
  _atom_site_label
  _atom_site_type_symbol
  _atom_site_fract_x
  _atom_site_fract_y
  _atom_site_fract_z
N1 N 0.35945 0.31873 0.32625
 N2 N 0.35863 0.33175 0.31528
 C3 C 0.37180 0.32982 0.30325
 C4 C 0.38140 0.31483 0.30672
 C5 C 0.37322 0.30800 0.32143
 H6 H 0.37437 0.33869 0.29271
 H7 H 0.37697 0.29620 0.32811
 Cu8 Cu 0.34056 0.35013 0.31747
 Cu9 Cu 0.34199 0.31687 0.34552
 Cu10 Cu 0.31554 0.35364 0.35332
 N11 N 0.32166 0.36780 0.31970
 N12 N 0.31197 0.36918 0.33393
 C13 C 0.30065 0.38293 0.33269
 C14 C 0.30334 0.39054 0.31678
 C15 C 0.31678 0.38060 0.30882
 H16 H 0.29138 0.38727 0.34272
 H17 H 0.32287 0.38275 0.29629
 N18 N 0.31588 0.33338 0.36870
 N19 N 0.32560 0.31917 0.36588
 C20 C 0.32179 0.30757 0.37849
 C21 C 0.30910 0.31501 0.38965
 C22 C 0.30573 0.33127 0.38303
 H23 H 0.32766 0.29470 0.37940
 H24 H 0.29626 0.34079 0.38818
 H25 H 0.32130 0.33313 0.33687
 H26 H 0.34158 0.34281 0.34793
 N27 N 0.36025 0.81763 -0.17532
 N28 N 0.35810 0.83042 -0.18632
 C29 C 0.37092 0.82912 -0.19881
 C30 C 0.38163 0.81474 -0.19547
 C31 C 0.37448 0.80769 -0.18044
 H32 H 0.37251 0.83803 -0.20948
 H33 H 0.37930 0.79637 -0.17357
 Cu34 Cu 0.33906 0.84776 -0.18321
 Cu35 Cu 0.34477 0.81510 -0.15503
 Cu36 Cu 0.31140 0.84661 -0.14831
 N37 N 0.32058 0.86540 -0.17906
 N38 N 0.30991 0.86511 -0.16536
 C39 C 0.29869 0.87904 -0.16572
 C40 C 0.30256 0.88849 -0.18044
 C41 C 0.31655 0.87944 -0.18860
 H42 H 0.28847 0.88208 -0.15601
 H43 H 0.32344 0.88282 -0.20049
 N44 N 0.31513 0.82678 -0.13262
 N45 N 0.32780 0.81478 -0.13526
 C46 C 0.32685 0.80295 -0.12253
 C47 C 0.31298 0.80770 -0.11135
 C48 C 0.30579 0.82289 -0.11809
 H49 H 0.33557 0.79164 -0.12142
 H50 H 0.29458 0.83048 -0.11290
 H51 H 0.32193 0.82791 -0.16458
 H52 H 0.33893 0.84134 -0.15252
 N53 N 0.86162 0.31659 -0.17465
 N54 N 0.86117 0.32916 -0.18612
 C55 C 0.87475 0.32669 -0.19768
 C56 C 0.88418 0.31182 -0.19333
 C57 C 0.87550 0.30565 -0.17861
 H58 H 0.87782 0.33520 -0.20840
 H59 H 0.87928 0.29438 -0.17111
 Cu60 Cu 0.84334 0.34791 -0.18476
 Cu61 Cu 0.84472 0.31599 -0.15497
 Cu62 Cu 0.81289 0.34949 -0.15238
 N63 N 0.82494 0.36622 -0.18343
 N64 N 0.81317 0.36680 -0.17055
 C65 C 0.80221 0.38073 -0.17239
 C66 C 0.80733 0.38938 -0.18722
 C67 C 0.82182 0.37980 -0.19398
 H68 H 0.79132 0.38438 -0.16357
 H69 H 0.82962 0.38255 -0.20555
 N70 N 0.81453 0.33089 -0.13517
 N71 N 0.82641 0.31795 -0.13609
 C72 C 0.82376 0.30740 -0.12239
 C73 C 0.80956 0.31418 -0.11250
 C74 C 0.80412 0.32898 -0.12096
 H75 H 0.83160 0.29577 -0.11978
 H76 H 0.79325 0.33770 -0.11697
 H77 H 0.82391 0.32929 -0.16692
 H78 H 0.84049 0.34231 -0.15400
 N79 N 0.85941 0.82144 0.32687
 N80 N 0.85764 0.83326 0.31477
 C81 C 0.87154 0.83171 0.30343
 C82 C 0.88257 0.81816 0.30851
 C83 C 0.87454 0.81182 0.32348
 H84 H 0.87367 0.83993 0.29230
 H85 H 0.87942 0.80125 0.33139
 Cu86 Cu 0.83791 0.85015 0.31467
 Cu87 Cu 0.84201 0.81975 0.34609
 Cu88 Cu 0.80450 0.84754 0.34433
 N89 N 0.81938 0.86813 0.31703
 N90 N 0.80647 0.86711 0.32886
 C91 C 0.79534 0.88098 0.32764
 C92 C 0.80158 0.89126 0.31427
 C93 C 0.81692 0.88274 0.30778
 H94 H 0.78347 0.88333 0.33577
 H95 H 0.82564 0.88680 0.29720
 N96 N 0.80815 0.83074 0.36283
 N97 N 0.82246 0.82026 0.36394
 C98 C 0.82086 0.81087 0.37859
 C99 C 0.80482 0.81593 0.38694
 C100 C 0.79723 0.82848 0.37662
 H101 H 0.83064 0.80124 0.38287
 H102 H 0.78471 0.83565 0.37915
 H103 H 0.82101 0.82866 0.33187
 H104 H 0.83309 0.84526 0.34521
 N105 N 0.64375 0.68245 0.33310
 N106 N 0.64288 0.67086 0.32064
 C107 C 0.62841 0.67464 0.31051
 C108 C 0.61977 0.68929 0.31699
 C109 C 0.62984 0.69384 0.33127
 H110 H 0.62437 0.66721 0.29939
 H111 H 0.62712 0.70470 0.33970
 Cu112 Cu 0.66046 0.65141 0.31849
 Cu113 Cu 0.66288 0.68218 0.35097
 Cu114 Cu 0.69446 0.65038 0.34778
 N115 N 0.67912 0.63318 0.31853
 N116 N 0.69240 0.63291 0.32992
 C117 C 0.70322 0.61905 0.32700
 C118 C 0.69643 0.61013 0.31307
 C119 C 0.68107 0.61943 0.30794
 H120 H 0.71516 0.61556 0.33447
 H121 H 0.67203 0.61647 0.29736
 N122 N 0.69519 0.66742 0.36614
 N123 N 0.68284 0.67982 0.36745
 C124 C 0.68671 0.68967 0.38128
 C125 C 0.70234 0.68300 0.38901
 C126 C 0.70728 0.66891 0.37909
 H127 H 0.67876 0.70080 0.38535
 H128 H 0.71888 0.66041 0.38123
 H129 H 0.67601 0.67024 0.33050
 H130 H 0.66160 0.65603 0.34467
 N131 N 0.63569 0.18286 -0.17207
 N132 N 0.63655 0.17038 -0.18356
 C133 C 0.62287 0.17274 -0.19505
 C134 C 0.61308 0.18749 -0.19032
 C135 C 0.62160 0.19347 -0.17575
 H136 H 0.62022 0.16442 -0.20593
 H137 H 0.61781 0.20484 -0.16840
 Cu138 Cu 0.65571 0.15252 -0.18200
 Cu139 Cu 0.65296 0.18511 -0.15332
 Cu140 Cu 0.68709 0.15415 -0.15014
 N141 N 0.67511 0.13496 -0.17990
 N142 N 0.68717 0.13583 -0.16738
 C143 C 0.69885 0.12236 -0.16859
 C144 C 0.69400 0.11243 -0.18258
 C145 C 0.67882 0.12079 -0.18956
 H146 H 0.71009 0.11989 -0.15988
 H147 H 0.67101 0.11682 -0.20067
 N148 N 0.68474 0.17368 -0.13389
 N149 N 0.67161 0.18542 -0.13519
 C150 C 0.67365 0.19726 -0.12265
 C151 C 0.68872 0.19280 -0.11297
 C152 C 0.69549 0.17775 -0.12038
 H153 H 0.66492 0.20845 -0.12071
 H154 H 0.70745 0.17047 -0.11641
 H155 H 0.67463 0.17256 -0.16543
 H156 H 0.65928 0.15894 -0.15149
 N157 N 0.14127 0.68555 -0.16824
 N158 N 0.14126 0.67384 -0.18053
 C159 C 0.12715 0.67714 -0.19124
 C160 C 0.11791 0.69169 -0.18528
 C161 C 0.12725 0.69665 -0.17071
 H162 H 0.12371 0.66939 -0.20233
 H163 H 0.12390 0.70745 -0.16240
 Cu164 Cu 0.15930 0.65505 -0.18107
 Cu165 Cu 0.15905 0.68549 -0.14964
 Cu166 Cu 0.18981 0.65141 -0.14887
 N167 N 0.17643 0.63553 -0.17974
 N168 N 0.18799 0.63421 -0.16688
 C169 C 0.19803 0.61970 -0.16869
 C170 C 0.19265 0.61144 -0.18349
 C171 C 0.17886 0.62178 -0.19029
 H172 H 0.20865 0.61547 -0.15996
 H173 H 0.17117 0.61946 -0.20192
 N174 N 0.18981 0.66996 -0.13168
 N175 N 0.17813 0.68307 -0.13189
 C176 C 0.18171 0.69355 -0.11843
 C177 C 0.19635 0.68660 -0.10943
 C178 C 0.20110 0.67173 -0.11817
 H179 H 0.17423 0.70530 -0.11543
 H180 H 0.21204 0.66285 -0.11483
 H181 H 0.17934 0.67232 -0.16267
 H182 H 0.16236 0.65900 -0.15014
 N183 N 0.14234 0.18305 0.32709
 N184 N 0.14396 0.17127 0.31495
 C185 C 0.13064 0.17372 0.30327
 C186 C 0.12012 0.18772 0.30828
 C187 C 0.12789 0.19339 0.32350
 H188 H 0.12860 0.16585 0.29194
 H189 H 0.12347 0.20422 0.33132
 Cu190 Cu 0.16283 0.15345 0.31548
 Cu191 Cu 0.15933 0.18413 0.34641
 Cu192 Cu 0.19498 0.15418 0.34622
 N193 N 0.18083 0.13492 0.31778
 N194 N 0.19331 0.13524 0.32991
 C195 C 0.20422 0.12121 0.32837
 C196 C 0.19824 0.11155 0.31456
 C197 C 0.18332 0.12061 0.30812
 H198 H 0.21579 0.11832 0.33658
 H199 H 0.17502 0.11716 0.29716
 N200 N 0.19161 0.17153 0.36441
 N201 N 0.17816 0.18304 0.36463
 C202 C 0.17975 0.19287 0.37891
 C203 C 0.19485 0.18705 0.38806
 C204 C 0.20192 0.17353 0.37855
 H205 H 0.17047 0.20322 0.38253
 H206 H 0.21368 0.16562 0.38184
 H207 H 0.18064 0.17372 0.33301
 H208 H 0.16673 0.15812 0.34616
 N209 N 0.63802 0.31882 0.67730
 N210 N 0.63943 0.33179 0.68818
 C211 C 0.62621 0.33010 0.70035
 C212 C 0.61600 0.31533 0.69681
 C213 C 0.62395 0.30851 0.68210
 H214 H 0.62400 0.33898 0.71091
 H215 H 0.61987 0.29693 0.67529
 Cu216 Cu 0.65831 0.34963 0.68492
 Cu217 Cu 0.65425 0.31605 0.65752
 Cu218 Cu 0.68808 0.34714 0.65166
 N219 N 0.67791 0.36679 0.68171
 N220 N 0.68925 0.36572 0.66851
 C221 C 0.70118 0.37905 0.66898
 C222 C 0.69726 0.38904 0.68321
 C223 C 0.68237 0.38092 0.69109
 H224 H 0.71201 0.38137 0.65964
 H225 H 0.67526 0.38505 0.70262
 N226 N 0.68479 0.32734 0.63597
 N227 N 0.67193 0.31543 0.63826
 C228 C 0.67336 0.30352 0.62566
 C229 C 0.68777 0.30814 0.61495
 C230 C 0.69473 0.32333 0.62185
 H231 H 0.66464 0.29222 0.62434
 H232 H 0.70623 0.33085 0.61704
 H233 H 0.67635 0.32904 0.66804
 H234 H 0.66031 0.34208 0.65450
 N235 N 0.63826 0.81727 1.17951
 N236 N 0.64025 0.82973 1.19087
 C237 C 0.62755 0.82767 1.20342
 C238 C 0.61710 0.81317 1.19971
 C239 C 0.62428 0.80688 1.18442
 H240 H 0.62592 0.83609 1.21443
 H241 H 0.61975 0.79561 1.17734
 Cu242 Cu 0.65916 0.84746 1.18807
 Cu243 Cu 0.65393 0.81528 1.15925
 Cu244 Cu 0.68696 0.84720 1.15323
 N245 N 0.67748 0.86554 1.18419
 N246 N 0.68813 0.86549 1.17047
 C247 C 0.69925 0.87948 1.17085
 C248 C 0.69544 0.88876 1.18562
 C249 C 0.68152 0.87957 1.19380
 H250 H 0.70940 0.88270 1.16113
 H251 H 0.67472 0.88291 1.20574
 N252 N 0.68367 0.82761 1.13724
 N253 N 0.67107 0.81544 1.13955
 C254 C 0.67249 0.80373 1.12677
 C255 C 0.68664 0.80871 1.11592
 C256 C 0.69344 0.82393 1.12292
 H257 H 0.66401 0.79227 1.12548
 H258 H 0.70476 0.83167 1.11808
 H259 H 0.67651 0.82806 1.16921
 H260 H 0.65945 0.84157 1.15729
 N261 N 0.14127 0.31660 1.17116
 N262 N 0.14095 0.32812 1.18374
 C263 C 0.12724 0.32391 1.19478
 C264 C 0.11865 0.30906 1.18876
 C265 C 0.12787 0.30484 1.17386
 H266 H 0.12369 0.33117 1.20620
 H267 H 0.12483 0.29402 1.16551
 Cu268 Cu 0.15824 0.34800 1.18470
 Cu269 Cu 0.15859 0.31754 1.15170
 Cu270 Cu 0.18828 0.35067 1.15176
 N271 N 0.17656 0.36663 1.18308
 N272 N 0.18818 0.36765 1.17009
 C273 C 0.19882 0.38178 1.17197
 C274 C 0.19374 0.39006 1.18691
 C275 C 0.17953 0.38014 1.19375
 H276 H 0.20947 0.38592 1.16309
 H277 H 0.17179 0.38266 1.20539
 N278 N 0.18836 0.33374 1.13336
 N279 N 0.17676 0.32064 1.13348
 C280 C 0.17962 0.31086 1.11939
 C281 C 0.19377 0.31834 1.10995
 C282 C 0.19896 0.33280 1.11914
 H283 H 0.17185 0.29935 1.11622
 H284 H 0.20967 0.34194 1.11564
 H285 H 0.17312 0.33004 1.17095
 H286 H 0.15641 0.34353 1.15867
 N287 N 0.14049 0.81536 0.67858
 N288 N 0.14028 0.82855 0.68932
 C289 C 0.12560 0.82712 0.69984
 C290 C 0.11613 0.81220 0.69560
 C291 C 0.12598 0.80498 0.68205
 H292 H 0.12211 0.83621 0.70993
 H293 H 0.12292 0.79312 0.67521
 Cu294 Cu 0.15963 0.84597 0.68910
 Cu295 Cu 0.15977 0.81301 0.66099
 Cu296 Cu 0.17905 0.85301 0.65081
 N297 N 0.17723 0.86471 0.68571
 N298 N 0.18488 0.86733 0.67058
 C299 C 0.19588 0.88134 0.67135
 C300 C 0.19513 0.88785 0.68784
 C301 C 0.18312 0.87699 0.69669
 H302 H 0.20361 0.88660 0.66060
 H303 H 0.17878 0.87807 0.70996
 N304 N 0.17918 0.83316 0.63500
 N305 N 0.17275 0.81762 0.63904
 C306 C 0.17596 0.80674 0.62578
 C307 C 0.18486 0.81601 0.61287
 C308 C 0.18663 0.83264 0.61917
 H309 H 0.17202 0.79319 0.62556
 H310 H 0.19320 0.84350 0.61278
 H311 H 0.17912 0.83250 0.66710
 H312 H 0.15604 0.83869 0.65876
 N313 N 0.36118 0.68716 0.66566
 N314 N 0.36376 0.67541 0.67765
 C315 C 0.37672 0.68106 0.68856
 C316 C 0.38261 0.69725 0.68300
 C317 C 0.37246 0.70072 0.66845
 H318 H 0.38161 0.67376 0.69949
 H319 H 0.37347 0.71209 0.66031
 Cu320 Cu 0.35050 0.65358 0.67763
 Cu321 Cu 0.34427 0.68337 0.64684
 Cu322 Cu 0.31201 0.65083 0.65392
 N323 N 0.33198 0.63607 0.68210
 N324 N 0.31687 0.63509 0.67296
 C325 C 0.30640 0.62198 0.67901
 C326 C 0.31549 0.61445 0.69272
 C327 C 0.33163 0.62373 0.69435
 H328 H 0.29316 0.61835 0.67388
 H329 H 0.34228 0.62168 0.70379
 N330 N 0.30993 0.66807 0.63527
 N331 N 0.32228 0.68040 0.63262
 C332 C 0.31724 0.68997 0.61897
 C333 C 0.30097 0.68326 0.61266
 C334 C 0.29676 0.66939 0.62323
 H335 H 0.32500 0.70083 0.61390
 H336 H 0.28502 0.66083 0.62211
 H337 H 0.32706 0.67125 0.66404
 H338 H 0.33877 0.65672 0.64824
 N339 N 0.36215 0.17901 1.17072
 N340 N 0.35980 0.16556 1.18093
 C341 C 0.37301 0.16566 1.19300
 C342 C 0.38416 0.17993 1.19023
 C343 C 0.37689 0.18814 1.17595
 H344 H 0.37442 0.15616 1.20316
 H345 H 0.38190 0.19982 1.16978
 Cu346 Cu 0.33957 0.14938 1.17763
 Cu347 Cu 0.34594 0.18371 1.15146
 Cu348 Cu 0.30916 0.15562 1.14572
 N349 N 0.31866 0.13396 1.17445
 N350 N 0.30678 0.13643 1.16201
 C351 C 0.29380 0.12394 1.16281
 C352 C 0.29774 0.11309 1.17647
 C353 C 0.31363 0.11984 1.18359
 H354 H 0.28232 0.12278 1.15410
 H355 H 0.32099 0.11488 1.19458
 N356 N 0.31395 0.17578 1.13060
 N357 N 0.32807 0.18635 1.13272
 C358 C 0.32784 0.19854 1.12028
 C359 C 0.31285 0.19559 1.10990
 C360 C 0.30431 0.18104 1.11678
 H361 H 0.33785 0.20885 1.11879
 H362 H 0.29215 0.17464 1.11199
 H363 H 0.32293 0.17203 1.16224
 H364 H 0.33735 0.15839 1.14762
 N365 N 0.86204 0.68152 1.17377
 N366 N 0.86445 0.66718 1.18269
 C367 C 0.87828 0.66947 1.19382
 C368 C 0.88498 0.68610 1.19185
 C369 C 0.87439 0.69348 1.17898
 H370 H 0.88311 0.65974 1.20277
 H371 H 0.87557 0.70647 1.17377
 Cu372 Cu 0.84925 0.64683 1.17953
 Cu373 Cu 0.84318 0.68305 1.15597
 Cu374 Cu 0.81112 0.64967 1.15564
 N375 N 0.82920 0.63050 1.18228
 N376 N 0.81409 0.63163 1.17315
 C377 C 0.80255 0.61873 1.17791
 C378 C 0.81099 0.60911 1.19075
 C379 C 0.82783 0.61698 1.19316
 H380 H 0.78909 0.61655 1.17246
 H381 H 0.83832 0.61314 1.20221
 N382 N 0.81078 0.66909 1.13898
 N383 N 0.82299 0.68182 1.13905
 C384 C 0.81966 0.69251 1.12567
 C385 C 0.80464 0.68615 1.11675
 C386 C 0.79940 0.67134 1.12556
 H387 H 0.82783 0.70381 1.12243
 H388 H 0.78833 0.66263 1.12214
 H389 H 0.82602 0.66723 1.17026
 H390 H 0.83847 0.65690 1.15175
 N391 N 0.85987 0.18075 0.67400
 N392 N 0.85899 0.16795 0.68521
 C393 C 0.87253 0.16986 0.69676
 C394 C 0.88236 0.18464 0.69269
 C395 C 0.87398 0.19131 0.67816
 H396 H 0.87531 0.16104 0.70726
 H397 H 0.87808 0.20269 0.67091
 Cu398 Cu 0.84068 0.14967 0.68337
 Cu399 Cu 0.84310 0.18221 0.65443
 Cu400 Cu 0.81085 0.14905 0.65097
 N401 N 0.82242 0.13129 0.68152
 N402 N 0.81095 0.13106 0.66853
 C403 C 0.79989 0.11711 0.66995
 C404 C 0.80461 0.10812 0.68462
 C405 C 0.81900 0.11745 0.69171
 H406 H 0.78910 0.11376 0.66104
 H407 H 0.82644 0.11437 0.70330
 N408 N 0.81271 0.16830 0.63446
 N409 N 0.82482 0.18105 0.63565
 C410 C 0.82220 0.19220 0.62245
 C411 C 0.80776 0.18604 0.61262
 C412 C 0.80215 0.17097 0.62059
 H413 H 0.83012 0.20389 0.62021
 H414 H 0.79103 0.16261 0.61654
 H415 H 0.82184 0.16887 0.66587
 H416 H 0.83849 0.15598 0.65277
 N417 N 0.30832 0.36500 0.66852
 N418 N 0.32101 0.36602 0.68043
 C419 C 0.31801 0.38039 0.68993
 C420 C 0.30261 0.38875 0.68347
 C421 C 0.29692 0.37867 0.66988
 H422 H 0.32633 0.38437 0.70069
 H423 H 0.28518 0.38106 0.66174
 Cu424 Cu 0.34033 0.34846 0.68251
 Cu425 Cu 0.30764 0.34558 0.65283
 Cu426 Cu 0.34100 0.31564 0.65161
 N427 N 0.35863 0.32949 0.68234
 N428 N 0.35885 0.31690 0.67080
 C429 C 0.37291 0.30605 0.67436
 C430 C 0.38190 0.31217 0.68880
 C431 C 0.37250 0.32699 0.69345
 H432 H 0.37643 0.29466 0.66694
 H433 H 0.37563 0.33534 0.70420
 N434 N 0.32206 0.31707 0.63374
 N435 N 0.30932 0.32919 0.63412
 C436 C 0.29861 0.32773 0.62019
 C437 C 0.30474 0.31387 0.61059
 C438 C 0.31970 0.30731 0.61951
 H439 H 0.28712 0.33611 0.61722
 H440 H 0.32832 0.29646 0.61587
 H441 H 0.32689 0.32765 0.67131
 H442 H 0.34055 0.34190 0.65665
 N443 N 0.31392 0.86371 0.16741
 N444 N 0.32506 0.86494 0.18061
 C445 C 0.32036 0.87903 0.18993
 C446 C 0.30554 0.88699 0.18203
 C447 C 0.30187 0.87694 0.16782
 H448 H 0.32731 0.88327 0.20143
 H449 H 0.29121 0.87918 0.15843
 Cu450 Cu 0.34476 0.84811 0.18399
 Cu451 Cu 0.31573 0.84517 0.15057
 Cu452 Cu 0.34995 0.81459 0.15663
 N453 N 0.36359 0.83043 0.18747
 N454 N 0.36541 0.81736 0.17674
 C455 C 0.37923 0.80708 0.18201
 C456 C 0.38650 0.81406 0.19687
 C457 C 0.37629 0.82889 0.19994
 H458 H 0.38370 0.79548 0.17540
 H459 H 0.37804 0.83785 0.21049
 N460 N 0.33291 0.81395 0.13706
 N461 N 0.31971 0.82550 0.13489
 C462 C 0.31025 0.82148 0.12061
 C463 C 0.31792 0.80672 0.11344
 C464 C 0.33227 0.80235 0.12414
 H465 H 0.29877 0.82886 0.11571
 H466 H 0.34148 0.79143 0.12259
 H467 H 0.32743 0.82723 0.16702
 H468 H 0.34354 0.84055 0.15358
 N469 N 0.81091 0.36246 0.16382
 N470 N 0.82173 0.36436 0.17717
 C471 C 0.81642 0.37851 0.18607
 C472 C 0.80148 0.38585 0.17782
 C473 C 0.79840 0.37534 0.16375
 H474 H 0.82297 0.38314 0.19762
 H475 H 0.78775 0.37695 0.15423
 Cu476 Cu 0.84170 0.34812 0.18152
 Cu477 Cu 0.81367 0.34328 0.14766
 Cu478 Cu 0.84890 0.31398 0.15555
 N479 N 0.86158 0.33175 0.18566
 N480 N 0.86420 0.31831 0.17555
 C481 C 0.87872 0.30912 0.18121
 C482 C 0.88557 0.31729 0.19566
 C483 C 0.87440 0.33159 0.19809
 H484 H 0.88398 0.29752 0.17513
 H485 H 0.87564 0.34117 0.20816
 N486 N 0.83200 0.31182 0.13594
 N487 N 0.81867 0.32302 0.13284
 C488 C 0.80975 0.31809 0.11850
 C489 C 0.81790 0.30308 0.11233
 C490 C 0.83190 0.29949 0.12368
 H491 H 0.79822 0.32492 0.11298
 H492 H 0.84135 0.28868 0.12295
 H493 H 0.82552 0.32618 0.16480
 H494 H 0.84152 0.33955 0.15136
 N495 N 0.80976 0.86399 0.67003
 N496 N 0.82144 0.86518 0.68283
 C497 C 0.81675 0.87879 0.69278
 C498 C 0.80128 0.88657 0.68588
 C499 C 0.79722 0.87682 0.67147
 H500 H 0.82396 0.88262 0.70427
 H501 H 0.78594 0.87892 0.66271
 Cu502 Cu 0.84140 0.84855 0.68558
 Cu503 Cu 0.81170 0.84582 0.65252
 Cu504 Cu 0.84731 0.81627 0.65728
 N505 N 0.86128 0.83177 0.68809
 N506 N 0.86330 0.81909 0.67697
 C507 C 0.87760 0.80911 0.68164
 C508 C 0.88499 0.81588 0.69654
 C509 C 0.87435 0.83030 0.70024
 H510 H 0.88226 0.79782 0.67463
 H511 H 0.87598 0.83894 0.71107
 N512 N 0.82986 0.81537 0.63814
 N513 N 0.81617 0.82646 0.63623
 C514 C 0.80671 0.82212 0.62197
 C515 C 0.81496 0.80763 0.61468
 C516 C 0.82952 0.80378 0.62524
 H517 H 0.79477 0.82896 0.61726
 H518 H 0.83913 0.79319 0.62359
 H519 H 0.82422 0.82789 0.66814
 H520 H 0.83957 0.84216 0.65495
 N521 N 0.68632 0.63441 0.67243
 N522 N 0.67273 0.63643 0.68349
 C523 C 0.67332 0.62351 0.69517
 C524 C 0.68805 0.61290 0.69125
 C525 C 0.69603 0.62018 0.67672
 H526 H 0.66377 0.62186 0.70577
 H527 H 0.70791 0.61550 0.66971
 Cu528 Cu 0.65558 0.65570 0.68150
 Cu529 Cu 0.69032 0.65025 0.65320
 Cu530 Cu 0.65961 0.68441 0.64915
 N531 N 0.63865 0.67510 0.67917
 N532 N 0.64019 0.68610 0.66630
 C533 C 0.62674 0.69804 0.66748
 C534 C 0.61628 0.69441 0.68188
 C535 C 0.62418 0.67974 0.68904
 H536 H 0.62471 0.70864 0.65855
 H537 H 0.61964 0.67287 0.70044
 N538 N 0.68019 0.68059 0.63309
 N539 N 0.69198 0.66767 0.63463
 C540 C 0.70447 0.66874 0.62178
 C541 C 0.70031 0.68300 0.61174
 C542 C 0.68483 0.69021 0.61927
 H543 H 0.71579 0.65984 0.61982
 H544 H 0.67749 0.70163 0.61505
 H545 H 0.67837 0.67166 0.66461
 H546 H 0.66322 0.65779 0.65101
 N547 N 0.69166 0.14029 0.17382
 N548 N 0.67640 0.13788 0.18268
 C549 C 0.67786 0.12294 0.19170
 C550 C 0.69500 0.11579 0.18814
 C551 C 0.70332 0.12716 0.17686
 H552 H 0.66723 0.11762 0.19996
 H553 H 0.71682 0.12586 0.17105
 Cu554 Cu 0.65640 0.15477 0.18116
 Cu555 Cu 0.69540 0.15997 0.15867
 Cu556 Cu 0.65500 0.17903 0.14518
 N557 N 0.63761 0.17256 0.17793
 N558 N 0.63703 0.18174 0.16366
 C559 C 0.62268 0.19271 0.16439
 C560 C 0.61389 0.19050 0.18001
 C561 C 0.62368 0.17755 0.18834
 H562 H 0.61902 0.20179 0.15435
 H563 H 0.62089 0.17213 0.20092
 N564 N 0.67832 0.18104 0.13230
 N565 N 0.69383 0.17424 0.13791
 C566 C 0.70736 0.17760 0.12654
 C567 C 0.70011 0.18710 0.11319
 C568 C 0.68162 0.18913 0.11721
 H569 H 0.72139 0.17308 0.12768
 H570 H 0.67130 0.19570 0.10965
 H571 H 0.67318 0.17653 0.16433
 H572 H 0.66887 0.15618 0.15197
 N573 N 0.18949 0.63791 0.16760
 N574 N 0.17790 0.63644 0.18057
 C575 C 0.18270 0.62264 0.19021
 C576 C 0.19811 0.61507 0.18283
 C577 C 0.20203 0.62509 0.16853
 H578 H 0.17547 0.61841 0.20165
 H579 H 0.21315 0.62310 0.15944
 Cu580 Cu 0.15756 0.65259 0.18363
 Cu581 Cu 0.18739 0.65615 0.15036
 Cu582 Cu 0.15181 0.68552 0.15576
 N583 N 0.13815 0.66975 0.18678
 N584 N 0.13604 0.68252 0.17574
 C585 C 0.12185 0.69251 0.18076
 C586 C 0.11464 0.68566 0.19581
 C587 C 0.12530 0.67122 0.19927
 H588 H 0.11723 0.70391 0.17393
 H589 H 0.12377 0.66250 0.21010
 N590 N 0.16914 0.68654 0.13635
 N591 N 0.18289 0.67553 0.13431
 C592 C 0.19235 0.67985 0.11996
 C593 C 0.18405 0.69426 0.11269
 C594 C 0.16943 0.69810 0.12336
 H595 H 0.20426 0.67298 0.11512
 H596 H 0.15975 0.70862 0.12173
 H597 H 0.17469 0.67371 0.16649
 H598 H 0.15944 0.65970 0.15309
 N599 N 0.19429 0.13642 0.67050
 N600 N 0.18050 0.13370 0.68117
 C601 C 0.18437 0.11995 0.69122
 C602 C 0.20158 0.11377 0.68652
 C603 C 0.20744 0.12451 0.67339
 H604 H 0.17518 0.11470 0.70090
 H605 H 0.22016 0.12337 0.66619
 Cu606 Cu 0.15824 0.14756 0.68040
 Cu607 Cu 0.19319 0.15430 0.65297
 Cu608 Cu 0.15922 0.18388 0.65380
 N609 N 0.13966 0.16604 0.68139
 N610 N 0.13983 0.17996 0.67143
 C611 C 0.12573 0.19039 0.67612
 C612 C 0.11648 0.18260 0.68976
 C613 C 0.12567 0.16728 0.69269
 H614 H 0.12270 0.20282 0.67031
 H615 H 0.12266 0.15793 0.70272
 N616 N 0.17704 0.18289 0.63481
 N617 N 0.19025 0.17122 0.63475
 C618 C 0.20086 0.17345 0.62075
 C619 C 0.19417 0.18728 0.61151
 C620 C 0.17896 0.19309 0.62075
 H621 H 0.21279 0.16570 0.61751
 H622 H 0.17003 0.20385 0.61755
 H623 H 0.17261 0.16937 0.67291
 H624 H 0.16001 0.15778 0.65552
 N625 N 0.30877 0.63539 0.33223
 N626 N 0.32162 0.63587 0.32026
 C627 C 0.31930 0.62223 0.30961
 C628 C 0.30419 0.61281 0.31537
 C629 C 0.29791 0.62152 0.32966
 H630 H 0.32799 0.61936 0.29864
 H631 H 0.28627 0.61787 0.33761
 Cu632 Cu 0.34036 0.65416 0.31982
 Cu633 Cu 0.30741 0.65266 0.35023
 Cu634 Cu 0.33784 0.68522 0.35226
 N635 N 0.35791 0.67373 0.32177
 N636 N 0.35687 0.68550 0.33407
 C637 C 0.37066 0.69702 0.33197
 C638 C 0.38089 0.69230 0.31775
 C639 C 0.37245 0.67747 0.31155
 H640 H 0.37322 0.70803 0.34022
 H641 H 0.37657 0.66995 0.30047
 N642 N 0.31798 0.68271 0.36910
 N643 N 0.30599 0.66995 0.36822
 C644 C 0.29393 0.67132 0.38133
 C645 C 0.29858 0.68563 0.39096
 C646 C 0.31394 0.69264 0.38287
 H647 H 0.28260 0.66253 0.38382
 H648 H 0.32162 0.70402 0.38667
 H649 H 0.32472 0.67279 0.33212
 H650 H 0.33993 0.65916 0.34585
 N651 N 0.31163 0.13416 0.83149
 N652 N 0.32356 0.13528 0.81877
 C653 C 0.32127 0.12147 0.80830
 C654 C 0.30715 0.11133 0.81503
 C655 C 0.30144 0.11976 0.82965
 H656 H 0.32927 0.11896 0.79681
 H657 H 0.29059 0.11565 0.83833
 Cu658 Cu 0.34089 0.15471 0.81762
 Cu659 Cu 0.30985 0.15114 0.84962
 Cu660 Cu 0.34101 0.18501 0.84918
 N661 N 0.35892 0.17351 0.81810
 N662 N 0.35886 0.18521 0.83041
 C663 C 0.37263 0.19658 0.82762
 C664 C 0.38186 0.19181 0.81282
 C665 C 0.37282 0.17708 0.80707
 H666 H 0.37577 0.20755 0.83576
 H667 H 0.37608 0.16954 0.79576
 N668 N 0.32177 0.18241 0.86702
 N669 N 0.30993 0.16941 0.86700
 C670 C 0.29855 0.17092 0.88057
 C671 C 0.30336 0.18552 0.88961
 C672 C 0.31816 0.19261 0.88073
 H673 H 0.28748 0.16206 0.88375
 H674 H 0.32572 0.20423 0.88399
 H675 H 0.32085 0.17213 0.83603
 H676 H 0.33744 0.15857 0.84854
 N677 N 0.80668 0.63796 0.83071
 N678 N 0.82071 0.63747 0.81997
 C679 C 0.81917 0.62320 0.81001
 C680 C 0.80328 0.61440 0.81485
 C681 C 0.79576 0.62415 0.82797
 H682 H 0.82878 0.61959 0.79998
 H683 H 0.78315 0.62144 0.83496
 Cu684 Cu 0.83924 0.65588 0.81980
 Cu685 Cu 0.80310 0.65669 0.84710
 Cu686 Cu 0.84011 0.68441 0.85270
 N687 N 0.85854 0.67343 0.82173
 N688 N 0.85894 0.68422 0.83480
 C689 C 0.87339 0.69501 0.83297
 C690 C 0.88261 0.69081 0.81799
 C691 C 0.87284 0.67699 0.81115
 H692 H 0.87681 0.70540 0.84172
 H693 H 0.87578 0.67019 0.79930
 N694 N 0.81940 0.68291 0.86912
 N695 N 0.80501 0.67278 0.86665
 C696 C 0.79285 0.67519 0.87957
 C697 C 0.79989 0.68744 0.89069
 C698 C 0.81677 0.69207 0.88367
 H699 H 0.77981 0.66851 0.88086
 H700 H 0.82630 0.70158 0.88860
 H701 H 0.82011 0.67603 0.83655
 H702 H 0.83111 0.65885 0.85002
 N703 N 0.80764 0.13768 0.33611
 N704 N 0.81913 0.13611 0.32308
 C705 C 0.81409 0.12239 0.31349
 C706 C 0.79859 0.11496 0.32091
 C707 C 0.79490 0.12498 0.33525
 H708 H 0.82119 0.11816 0.30201
 H709 H 0.78376 0.12314 0.34435
 Cu710 Cu 0.83951 0.15216 0.31973
 Cu711 Cu 0.81009 0.15612 0.35318
 Cu712 Cu 0.84655 0.18470 0.34739
 N713 N 0.86010 0.16810 0.31683
 N714 N 0.86252 0.18096 0.32765
 C715 C 0.87734 0.19024 0.32281
 C716 C 0.88467 0.18280 0.30813
 C717 C 0.87345 0.16872 0.30472
 H718 H 0.88248 0.20143 0.32964
 H719 H 0.87491 0.15971 0.29415
 N720 N 0.82904 0.18646 0.36662
 N721 N 0.81508 0.17570 0.36894
 C722 C 0.80588 0.18038 0.38334
 C723 C 0.81460 0.19473 0.39030
 C724 C 0.82914 0.19817 0.37941
 H725 H 0.79391 0.17375 0.38846
 H726 H 0.83914 0.20847 0.38085
 H727 H 0.82307 0.17350 0.33711
 H728 H 0.83808 0.15908 0.35026
 N729 N 0.68673 0.36181 0.33212
 N730 N 0.67479 0.36113 0.31948
 C731 C 0.67783 0.37466 0.30877
 C732 C 0.69244 0.38427 0.31510
 C733 C 0.69770 0.37573 0.32988
 H734 H 0.66982 0.37747 0.29745
 H735 H 0.70858 0.37956 0.33851
 Cu736 Cu 0.65596 0.34301 0.31853
 Cu737 Cu 0.68694 0.34506 0.35094
 Cu738 Cu 0.65236 0.31439 0.35114
 N739 N 0.63619 0.32574 0.31948
 N740 N 0.63493 0.31492 0.33252
 C741 C 0.62028 0.30454 0.33042
 C742 C 0.61184 0.30894 0.31528
 C743 C 0.62223 0.32250 0.30853
 H744 H 0.61605 0.29439 0.33923
 H745 H 0.61978 0.32947 0.29669
 N746 N 0.67115 0.31555 0.36900
 N747 N 0.68467 0.32699 0.36890
 C748 C 0.69536 0.32416 0.38277
 C749 C 0.68802 0.31030 0.39193
 C750 C 0.67275 0.30524 0.38287
 H751 H 0.70737 0.33172 0.38605
 H752 H 0.66351 0.29473 0.38621
 H753 H 0.67450 0.32520 0.33781
 H754 H 0.65911 0.34067 0.34961
 N755 N 0.68520 0.86246 0.83231
 N756 N 0.67248 0.86062 0.82048
 C757 C 0.67370 0.87383 0.80921
 C758 C 0.68788 0.88456 0.81411
 C759 C 0.69498 0.87701 0.82886
 H760 H 0.66485 0.87567 0.79824
 H761 H 0.70627 0.88174 0.83654
 Cu762 Cu 0.65501 0.84159 0.82099
 Cu763 Cu 0.68787 0.84570 0.85122
 Cu764 Cu 0.65933 0.80950 0.84956
 N765 N 0.63763 0.82242 0.82173
 N766 N 0.63931 0.81003 0.83324
 C767 C 0.62562 0.79846 0.83128
 C768 C 0.61482 0.80383 0.81778
 C769 C 0.62278 0.81912 0.81197
 H770 H 0.62366 0.78696 0.83908
 H771 H 0.61804 0.82727 0.80157
 N772 N 0.67728 0.81326 0.86788
 N773 N 0.68823 0.82693 0.86880
 C774 C 0.69852 0.82550 0.88317
 C775 C 0.69355 0.81026 0.89158
 C776 C 0.68008 0.80298 0.88156
 H777 H 0.70859 0.83492 0.88733
 H778 H 0.67269 0.79107 0.88424
 H779 H 0.67844 0.82571 0.83695
 H780 H 0.66113 0.83639 0.85124
 N781 N 0.18434 0.36736 0.82534
 N782 N 0.16957 0.36736 0.81569
 C783 C 0.17084 0.38013 0.80398
 C784 C 0.18720 0.38876 0.80647
 C785 C 0.19552 0.38037 0.82017
 H786 H 0.16059 0.38297 0.79435
 H787 H 0.20871 0.38336 0.82582
 Cu788 Cu 0.15003 0.35083 0.81911
 Cu789 Cu 0.18759 0.35012 0.84355
 Cu790 Cu 0.15571 0.31628 0.84484
 N791 N 0.13471 0.33059 0.81708
 N792 N 0.13667 0.31689 0.82702
 C793 C 0.12415 0.30481 0.82238
 C794 C 0.11405 0.31149 0.80877
 C795 C 0.12117 0.32777 0.80581
 H796 H 0.12263 0.29217 0.82832
 H797 H 0.11685 0.33688 0.79603
 N798 N 0.17616 0.31852 0.86150
 N799 N 0.18824 0.33137 0.86087
 C800 C 0.20001 0.32971 0.87404
 C801 C 0.19518 0.31521 0.88346
 C802 C 0.17999 0.30836 0.87517
 H803 H 0.21114 0.33858 0.87684
 H804 H 0.17213 0.29704 0.87894
 H805 H 0.17324 0.33125 0.83009
 H806 H 0.16037 0.34259 0.84764
 N807 N 0.18848 0.86637 0.32934
 N808 N 0.17585 0.86516 0.31736
 C809 C 0.17813 0.87840 0.30612
 C810 C 0.19295 0.88832 0.31151
 C811 C 0.19911 0.88030 0.32621
 H812 H 0.16952 0.88079 0.29508
 H813 H 0.21043 0.88448 0.33416
 Cu814 Cu 0.15750 0.84659 0.31828
 Cu815 Cu 0.19027 0.85020 0.34841
 Cu816 Cu 0.15865 0.81668 0.34998
 N817 N 0.14001 0.82731 0.31915
 N818 N 0.14067 0.81576 0.33161
 C819 C 0.12717 0.80404 0.32947
 C820 C 0.11747 0.80839 0.31493
 C821 C 0.12595 0.82326 0.30861
 H822 H 0.12446 0.79317 0.33794
 H823 H 0.12212 0.83061 0.29734
 N824 N 0.17792 0.81981 0.36738
 N825 N 0.18999 0.83261 0.36674
 C826 C 0.20127 0.83136 0.38033
 C827 C 0.19608 0.81714 0.38998
 C828 C 0.18122 0.81006 0.38143
 H829 H 0.21247 0.84017 0.38311
 H830 H 0.17337 0.79871 0.38514
 H831 H 0.17850 0.82941 0.33571
 H832 H 0.16277 0.84315 0.34905
 C833 C 0.23572 0.99946 0.24729
 C834 C 0.25133 0.99923 0.23748
 C835 C 0.26006 1.01551 0.23109
 C836 C 0.26084 0.98274 0.23306
 C837 C 0.22620 0.98320 0.25265
 C838 C 0.22791 1.01596 0.25396
 C839 C 0.25005 1.02766 0.22144
 C840 C 0.25849 1.04289 0.21548
 C841 C 0.27719 1.04614 0.21895
 C842 C 0.28710 1.03394 0.22861
 C843 C 0.27867 1.01873 0.23451
 C844 C 0.26497 0.97900 0.21583
 C845 C 0.27433 0.96378 0.21149
 C846 C 0.27979 0.95200 0.22435
 C847 C 0.27605 0.95599 0.24161
 C848 C 0.26663 0.97122 0.24595
 C849 C 0.22253 0.98024 0.27013
 C850 C 0.21391 0.96495 0.27549
 C851 C 0.20877 0.95223 0.26346
 C852 C 0.21180 0.95550 0.24590
 C853 C 0.22049 0.97084 0.24053
 C854 C 0.23865 1.02727 0.26387
 C855 C 0.23106 1.04252 0.27053
 C856 C 0.21244 1.04661 0.26760
 C857 C 0.20180 1.03531 0.25759
 C858 C 0.20941 1.02005 0.25096
 H859 H 0.23570 1.02534 0.21853
 H860 H 0.25023 1.05212 0.20845
 H861 H 0.30147 1.03615 0.23156
 H862 H 0.28664 1.00954 0.24193
 H863 H 0.26094 0.98790 0.20574
 H864 H 0.27758 0.96151 0.19810
 H865 H 0.26402 0.97410 0.25936
 H866 H 0.22655 0.98972 0.27967
 H867 H 0.21115 0.96322 0.28907
 H868 H 0.20771 0.94604 0.23637
 H869 H 0.22281 0.97306 0.22694
 H870 H 0.25291 1.02423 0.26652
 H871 H 0.23988 1.05110 0.27775
 H872 H 0.18748 1.03821 0.25505
 H873 H 0.20088 1.01144 0.24342
 H874 H 0.28035 0.94727 0.25176
 C875 C 0.24287 0.50179 0.75529
 C876 C 0.25649 0.50156 0.74333
 C877 C 0.26188 0.51754 0.73411
 C878 C 0.26572 0.48522 0.73821
 C879 C 0.23820 0.48617 0.76551
 C880 C 0.23333 0.51812 0.75980
 C881 C 0.25122 0.52366 0.72045
 C882 C 0.25627 0.53886 0.71179
 C883 C 0.27207 0.54815 0.71661
 C884 C 0.28274 0.54184 0.73037
 C885 C 0.27756 0.52675 0.73909
 C886 C 0.25584 0.47235 0.72948
 C887 C 0.26454 0.45702 0.72435
 C888 C 0.28334 0.45434 0.72783
 C889 C 0.29302 0.46708 0.73696
 C890 C 0.28433 0.48246 0.74199
 C891 C 0.25145 0.47837 0.77606
 C892 C 0.24710 0.46347 0.78553
 C893 C 0.22948 0.45610 0.78455
 C894 C 0.21606 0.46430 0.77436
 C895 C 0.22043 0.47918 0.76491
 C896 C 0.24127 0.52943 0.77169
 C897 C 0.23228 0.54475 0.77631
 C898 C 0.21500 0.54891 0.76926
 C899 C 0.20739 0.53777 0.75693
 C900 C 0.21647 0.52244 0.75225
 H901 H 0.23900 0.51668 0.71655
 H902 H 0.24782 0.54335 0.70126
 H903 H 0.29519 0.54823 0.73443
 H904 H 0.28578 0.52229 0.74978
 H905 H 0.24141 0.47424 0.72661
 H906 H 0.25644 0.44726 0.71788
 H907 H 0.29211 0.49208 0.74899
 H908 H 0.26516 0.48384 0.77694
 H909 H 0.25757 0.45758 0.79350
 H910 H 0.20211 0.45944 0.77379
 H911 H 0.20996 0.48512 0.75700
 H912 H 0.25446 0.52638 0.77737
 H913 H 0.23902 0.55335 0.78527
 H914 H 0.19426 0.54078 0.75112
 H915 H 0.21034 0.51395 0.74280
 H916 H 0.30741 0.46522 0.74001
 C917 C 0.73943 0.00200 0.24709
 C918 C 0.75513 0.00282 0.25654
 C919 C 0.76546 -0.01302 0.26138
 C920 C 0.76283 0.01953 0.26273
 C921 C 0.72977 0.01791 0.24128
 C922 C 0.73136 -0.01487 0.24172
 C923 C 0.76878 -0.01643 0.27878
 C924 C 0.77828 -0.03135 0.28367
 C925 C 0.78466 -0.04314 0.27120
 C926 C 0.78199 -0.03935 0.25374
 C927 C 0.77241 -0.02441 0.24885
 C928 C 0.75243 0.03075 0.27316
 C929 C 0.76019 0.04616 0.27934
 C930 C 0.77855 0.05049 0.27528
 C931 C 0.78879 0.03928 0.26472
 C932 C 0.78108 0.02390 0.25864
 C933 C 0.73909 0.03072 0.23180
 C934 C 0.72989 0.04566 0.22642
 C935 C 0.71100 0.04788 0.23006
 C936 C 0.70174 0.03502 0.23955
 C937 C 0.71099 0.02011 0.24501
 C938 C 0.72845 -0.01815 0.22422
 C939 C 0.72092 -0.03394 0.21891
 C940 C 0.71609 -0.04677 0.23105
 C941 C 0.71862 -0.04327 0.24859
 C942 C 0.72621 -0.02747 0.25389
 H943 H 0.76383 -0.00761 0.28859
 H944 H 0.78072 -0.03352 0.29721
 H945 H 0.78703 -0.04811 0.24392
 H946 H 0.77036 -0.02174 0.23532
 H947 H 0.73837 0.02752 0.27659
 H948 H 0.75170 0.05465 0.28708
 H949 H 0.78933 0.01538 0.25064
 H950 H 0.75353 0.02918 0.22862
 H951 H 0.73777 0.05547 0.21966
 H952 H 0.68726 0.03646 0.24264
 H953 H 0.70355 0.01032 0.25228
 H954 H 0.73211 -0.00849 0.21466
 H955 H 0.71860 -0.03586 0.20533
 H956 H 0.71478 -0.05282 0.25821
 H957 H 0.72801 -0.02505 0.26748
 H958 H 0.80291 0.04235 0.26132
 C959 C 0.75314 0.50113 0.73774
 C960 C 0.76768 0.50110 0.74874
 C961 C 0.77608 0.48461 0.75473
 C962 C 0.77581 0.51752 0.75537
 C963 C 0.74687 0.51737 0.72924
 C964 C 0.74300 0.48490 0.73341
 C965 C 0.77808 0.48145 0.77238
 C966 C 0.78581 0.46590 0.77814
 C967 C 0.79177 0.45325 0.76632
 C968 C 0.79027 0.45669 0.74866
 C969 C 0.78245 0.47220 0.74291
 C970 C 0.76472 0.53002 0.76349
 C971 C 0.77249 0.54523 0.77004
 C972 C 0.79160 0.54817 0.76878
 C973 C 0.80261 0.53571 0.76051
 C974 C 0.79483 0.52046 0.75402
 C975 C 0.75930 0.52778 0.71993
 C976 C 0.75321 0.54276 0.71157
 C977 C 0.73461 0.54763 0.71232
 C978 C 0.72210 0.53699 0.72140
 C979 C 0.72821 0.52201 0.72976
 C980 C 0.73994 0.48056 0.71616
 C981 C 0.73019 0.46553 0.71191
 C982 C 0.72327 0.45448 0.72488
 C983 C 0.72597 0.45907 0.74214
 C984 C 0.73574 0.47412 0.74638
 H985 H 0.77350 0.49097 0.78169
 H986 H 0.78735 0.46399 0.79184
 H987 H 0.79500 0.44726 0.73931
 H988 H 0.78139 0.47457 0.72922
 H989 H 0.75003 0.52794 0.76482
 H990 H 0.76343 0.55471 0.77586
 H991 H 0.80364 0.51098 0.74782
 H992 H 0.77368 0.52421 0.71899
 H993 H 0.76307 0.55058 0.70447
 H994 H 0.70756 0.53992 0.72181
 H995 H 0.71835 0.51398 0.73664
 H996 H 0.74514 0.48884 0.70595
 H997 H 0.72783 0.46285 0.69846
 H998 H 0.72057 0.45094 0.75237
 H999 H 0.73752 0.47744 0.75978
 H1000 H 0.81732 0.53768 0.75924
 C1001 C 0.24292 0.50173 0.24430
 C1002 C 0.25916 0.50152 0.25296
 C1003 C 0.26807 0.48504 0.25826
 C1004 C 0.26840 0.51782 0.25833
 C1005 C 0.23456 0.51821 0.23822
 C1006 C 0.23267 0.48554 0.24027
 C1007 C 0.27218 0.48230 0.27563
 C1008 C 0.28002 0.46669 0.28100
 C1009 C 0.28391 0.45348 0.26905
 C1010 C 0.28044 0.45650 0.25157
 C1011 C 0.27255 0.47215 0.24620
 C1012 C 0.25910 0.52999 0.26855
 C1013 C 0.26792 0.54519 0.27375
 C1014 C 0.28641 0.54835 0.26912
 C1015 C 0.29563 0.53619 0.25878
 C1016 C 0.28676 0.52098 0.25356
 C1017 C 0.24441 0.52966 0.22751
 C1018 C 0.23634 0.54512 0.22188
 C1019 C 0.21813 0.54926 0.22669
 C1020 C 0.20838 0.53775 0.23740
 C1021 C 0.21645 0.52232 0.24300
 C1022 C 0.22768 0.48218 0.22323
 C1023 C 0.21825 0.46700 0.21906
 C1024 C 0.21367 0.45477 0.23188
 C1025 C 0.21800 0.45848 0.24904
 C1026 C 0.22743 0.47375 0.25322
 H1027 H 0.26909 0.49220 0.28509
 H1028 H 0.28319 0.46513 0.29448
 H1029 H 0.28361 0.44664 0.24209
 H1030 H 0.26984 0.47417 0.23267
 H1031 H 0.24498 0.52771 0.27251
 H1032 H 0.26010 0.55447 0.28122
 H1033 H 0.29417 0.51169 0.24569
 H1034 H 0.25835 0.52663 0.22355
 H1035 H 0.24452 0.55381 0.21402
 H1036 H 0.19440 0.54066 0.24136
 H1037 H 0.20863 0.51364 0.25123
 H1038 H 0.23125 0.49128 0.21311
 H1039 H 0.21445 0.46497 0.20579
 H1040 H 0.21437 0.44941 0.25917
 H1041 H 0.23071 0.47633 0.26653
 H1042 H 0.30981 0.53836 0.25493
 C1043 C 0.74505 0.99858 0.76404
 C1044 C 0.75890 0.99859 0.75214
 C1045 C 0.76699 1.01507 0.74555
 C1046 C 0.76715 0.98218 0.74553
 C1047 C 0.74006 0.98252 0.77368
 C1048 C 0.73476 1.01477 0.76841
 C1049 C 0.76897 1.01775 0.72781
 C1050 C 0.77726 1.03289 0.72152
 C1051 C 0.78378 1.04564 0.73293
 C1052 C 0.78206 1.04277 0.75069
 C1053 C 0.77374 1.02764 0.75695
 C1054 C 0.75616 0.96928 0.73799
 C1055 C 0.76421 0.95429 0.73106
 C1056 C 0.78343 0.95196 0.73157
 C1057 C 0.79429 0.96480 0.73934
 C1058 C 0.78628 0.97982 0.74608
 C1059 C 0.75355 0.97306 0.78254
 C1060 C 0.74877 0.95818 0.79189
 C1061 C 0.73044 0.95244 0.79258
 C1062 C 0.71686 0.96220 0.78403
 C1063 C 0.72165 0.97710 0.77472
 C1064 C 0.73273 1.01987 0.78562
 C1065 C 0.72330 1.03513 0.78984
 C1066 C 0.71562 1.04563 0.77688
 C1067 C 0.71720 1.04022 0.75971
 C1068 C 0.72670 1.02498 0.75550
 H1069 H 0.76415 1.00807 0.71881
 H1070 H 0.77890 1.03430 0.70777
 H1071 H 0.78718 1.05226 0.75974
 H1072 H 0.77280 1.02563 0.77071
 H1073 H 0.74138 0.97091 0.73731
 H1074 H 0.75535 0.94450 0.72555
 H1075 H 0.79501 0.98960 0.75182
 H1076 H 0.76777 0.97728 0.78232
 H1077 H 0.75944 0.95108 0.79854
 H1078 H 0.70249 0.95860 0.78475
 H1079 H 0.71099 0.98442 0.76826
 H1080 H 0.73861 1.01209 0.79582
 H1081 H 0.72182 1.03847 0.80327
 H1082 H 0.71120 1.04790 0.74949
 H1083 H 0.72774 1.02112 0.74215
 H1084 H 0.80909 0.96329 0.74002
 C1085 C 0.73126 0.49635 0.24743
 C1086 C 0.74514 0.49671 0.23552
 C1087 C 0.75103 0.51322 0.22712
 C1088 C 0.75518 0.48068 0.23039
 C1089 C 0.72349 0.47971 0.25402
 C1090 C 0.72320 0.51265 0.25442
 C1091 C 0.73828 0.52382 0.21859
 C1092 C 0.74397 0.53930 0.21075
 C1093 C 0.76249 0.54450 0.21126
 C1094 C 0.77532 0.53362 0.21949
 C1095 C 0.76962 0.51815 0.22731
 C1096 C 0.75722 0.47651 0.21293
 C1097 C 0.76681 0.46160 0.20793
 C1098 C 0.77462 0.45055 0.22035
 C1099 C 0.77296 0.45500 0.23779
 C1100 C 0.76334 0.46991 0.24277
 C1101 C 0.72226 0.47672 0.27179
 C1102 C 0.71487 0.46118 0.27814
 C1103 C 0.70846 0.44832 0.26679
 C1104 C 0.70931 0.45155 0.24903
 C1105 C 0.71677 0.46706 0.24269
 C1106 C 0.73446 0.52532 0.26195
 C1107 C 0.72684 0.54071 0.26829
 C1108 C 0.70772 0.54361 0.26746
 C1109 C 0.69652 0.53090 0.25991
 C1110 C 0.70416 0.51549 0.25360
 H1111 H 0.72393 0.52007 0.21796
 H1112 H 0.73385 0.54727 0.20430
 H1113 H 0.78982 0.53677 0.21966
 H1114 H 0.77972 0.51004 0.23362
 H1115 H 0.75132 0.48482 0.20316
 H1116 H 0.76835 0.45902 0.19435
 H1117 H 0.76237 0.47311 0.25629
 H1118 H 0.72711 0.48642 0.28076
 H1119 H 0.71388 0.45948 0.29191
 H1120 H 0.70425 0.44199 0.24002
 H1121 H 0.71721 0.46925 0.22894
 H1122 H 0.74917 0.52332 0.26284
 H1123 H 0.73603 0.55037 0.27354
 H1124 H 0.68179 0.53284 0.25902
 H1125 H 0.69524 0.50587 0.24785
 H1126 H 0.77908 0.44689 0.24759
 C1127 C 0.24385 -0.00071 0.74714
 C1128 C 0.25989 -0.00051 0.75610
 C1129 C 0.26877 -0.01673 0.76200
 C1130 C 0.26921 0.01592 0.76080
 C1131 C 0.23524 0.01552 0.74077
 C1132 C 0.23438 -0.01719 0.74274
 C1133 C 0.27130 -0.01950 0.77964
 C1134 C 0.27914 -0.03492 0.78551
 C1135 C 0.28468 -0.04780 0.77378
 C1136 C 0.28271 -0.04472 0.75610
 C1137 C 0.27475 -0.02932 0.75023
 C1138 C 0.26012 0.02849 0.77069
 C1139 C 0.26904 0.04392 0.77501
 C1140 C 0.28737 0.04693 0.76974
 C1141 C 0.29634 0.03440 0.75968
 C1142 C 0.28740 0.01893 0.75539
 C1143 C 0.24513 0.02716 0.73035
 C1144 C 0.23697 0.04253 0.72468
 C1145 C 0.21852 0.04633 0.72900
 C1146 C 0.20865 0.03451 0.73928
 C1147 C 0.21689 0.01921 0.74504
 C1148 C 0.23063 -0.02085 0.72548
 C1149 C 0.22218 -0.03642 0.72093
 C1150 C 0.21735 -0.04872 0.73359
 C1151 C 0.22047 -0.04475 0.75094
 C1152 C 0.22891 -0.02910 0.75550
 H1153 H 0.26696 -0.00978 0.78886
 H1154 H 0.28107 -0.03657 0.79919
 H1155 H 0.28714 -0.05435 0.74682
 H1156 H 0.27318 -0.02723 0.73655
 H1157 H 0.24610 0.02635 0.77503
 H1158 H 0.26147 0.05352 0.78232
 H1159 H 0.29461 0.00935 0.74771
 H1160 H 0.25923 0.02440 0.72669
 H1161 H 0.24532 0.05135 0.71716
 H1162 H 0.19447 0.03710 0.74283
 H1163 H 0.20900 0.01033 0.75301
 H1164 H 0.23446 -0.01169 0.71549
 H1165 H 0.21928 -0.03865 0.70749
 H1166 H 0.21658 -0.05387 0.76094
 H1167 H 0.23129 -0.02631 0.76894
 H1168 H 0.31038 0.03647 0.75536
 C1169 C 0.25027 0.24447 0.99877
 C1170 C 0.23482 0.25433 0.99819
 C1171 C 0.22617 0.26046 1.01427
 C1172 C 0.22692 0.26059 0.98177
 C1173 C 0.26051 0.23955 0.98307
 C1174 C 0.25620 0.23637 1.01508
 C1175 C 0.21066 0.25217 1.02124
 C1176 C 0.20305 0.25796 1.03675
 C1177 C 0.21087 0.27206 1.04553
 C1178 C 0.22675 0.28004 1.03860
 C1179 C 0.23420 0.27434 1.02306
 C1180 C 0.20932 0.25513 0.97684
 C1181 C 0.20186 0.26063 0.96125
 C1182 C 0.21174 0.27183 0.95031
 C1183 C 0.22947 0.27726 0.95527
 C1184 C 0.23693 0.27175 0.97091
 C1185 C 0.27875 0.24506 0.98074
 C1186 C 0.28849 0.24053 0.96587
 C1187 C 0.28022 0.23020 0.95325
 C1188 C 0.26179 0.22490 0.95555
 C1189 C 0.25210 0.22942 0.97041
 C1190 C 0.27001 0.24385 1.02514
 C1191 C 0.27540 0.23590 1.04051
 C1192 C 0.26705 0.22026 1.04597
 C1193 C 0.25300 0.21307 1.03591
 C1194 C 0.24768 0.22100 1.02059
 H1195 H 0.20461 0.24110 1.01484
 H1196 H 0.19102 0.25141 1.04191
 H1197 H 0.23376 0.29044 1.04517
 H1198 H 0.24643 0.28061 1.01796
 H1199 H 0.20144 0.24634 0.98488
 H1200 H 0.18827 0.25611 0.95773
 H1201 H 0.25056 0.27606 0.97449
 H1202 H 0.28540 0.25302 0.99033
 H1203 H 0.30258 0.24491 0.96431
 H1204 H 0.25471 0.21746 0.94584
 H1205 H 0.23800 0.22508 0.97202
 H1206 H 0.27648 0.25590 1.02119
 H1207 H 0.28587 0.24219 1.04810
 H1208 H 0.24622 0.20116 1.03984
 H1209 H 0.23688 0.21516 1.01299
 H1210 H 0.23782 0.28549 0.94709
 C1211 C 0.25081 0.74477 0.50337
 C1212 C 0.23496 0.75423 0.50332
 C1213 C 0.22515 0.75903 0.51946
 C1214 C 0.22692 0.76072 0.48704
 C1215 C 0.26007 0.73925 0.48721
 C1216 C 0.25984 0.73946 0.51956
 C1217 C 0.21987 0.74643 0.53163
 C1218 C 0.21090 0.75134 0.54683
 C1219 C 0.20695 0.76889 0.55013
 C1220 C 0.21160 0.78137 0.53755
 C1221 C 0.22066 0.77647 0.52246
 C1222 C 0.20871 0.75652 0.48288
 C1223 C 0.20105 0.76240 0.46752
 C1224 C 0.21135 0.77280 0.45615
 C1225 C 0.22964 0.77703 0.46039
 C1226 C 0.23726 0.77117 0.47577
 C1227 C 0.27862 0.74350 0.48436
 C1228 C 0.28753 0.73836 0.46925
 C1229 C 0.27817 0.72865 0.45681
 C1230 C 0.25952 0.72441 0.45969
 C1231 C 0.25063 0.72953 0.47482
 C1232 C 0.26568 0.75184 0.53157
 C1233 C 0.27454 0.74657 0.54659
 C1234 C 0.27756 0.72887 0.54987
 C1235 C 0.27201 0.71653 0.53764
 C1236 C 0.26327 0.72181 0.52261
 H1237 H 0.22275 0.73283 0.52937
 H1238 H 0.20722 0.74142 0.55614
 H1239 H 0.20818 0.79493 0.53913
 H1240 H 0.22434 0.78637 0.51313
 H1241 H 0.20051 0.74849 0.49145
 H1242 H 0.18699 0.75886 0.46453
 H1243 H 0.25130 0.77468 0.47885
 H1244 H 0.28616 0.75095 0.49379
 H1245 H 0.30185 0.74186 0.46733
 H1246 H 0.25163 0.71737 0.45025
 H1247 H 0.23636 0.72596 0.47687
 H1248 H 0.26348 0.76555 0.52923
 H1249 H 0.27895 0.75631 0.55571
 H1250 H 0.27473 0.70284 0.53945
 H1251 H 0.25913 0.71211 0.51333
 H1252 H 0.23825 0.78459 0.45181
 C1253 C 0.24058 0.74885 0.00196
 C1254 C 0.25193 0.76292 0.00252
 C1255 C 0.25831 0.77186 -0.01336
 C1256 C 0.25816 0.77035 0.01909
 C1257 C 0.23620 0.73855 0.01763
 C1258 C 0.23174 0.74317 -0.01428
 C1259 C 0.26699 0.76259 -0.02663
 C1260 C 0.27276 0.77110 -0.04160
 C1261 C 0.27018 0.78914 -0.04345
 C1262 C 0.26155 0.79835 -0.03012
 C1263 C 0.25580 0.78984 -0.01516
 C1264 C 0.27699 0.77285 0.02210
 C1265 C 0.28294 0.78034 0.03743
 C1266 C 0.27008 0.78560 0.04999
 C1267 C 0.25124 0.78333 0.04681
 C1268 C 0.24532 0.77573 0.03153
 C1269 C 0.21778 0.73524 0.02202
 C1270 C 0.21343 0.72548 0.03662
 C1271 C 0.22747 0.71885 0.04716
 C1272 C 0.24590 0.72172 0.04244
 C1273 C 0.25025 0.73152 0.02781
 C1274 C 0.22154 0.75485 -0.02431
 C1275 C 0.21302 0.74925 -0.03938
 C1276 C 0.21445 0.73188 -0.04466
 C1277 C 0.22425 0.72010 -0.03431
 C1278 C 0.23282 0.72572 -0.01930
 H1279 H 0.26921 0.74873 -0.02542
 H1280 H 0.27890 0.76342 -0.05174
 H1281 H 0.25931 0.81222 -0.03125
 H1282 H 0.24914 0.79723 -0.00506
 H1283 H 0.28708 0.76901 0.01252
 H1284 H 0.29754 0.78240 0.03918
 H1285 H 0.23070 0.77426 0.02928
 H1286 H 0.20676 0.74028 0.01415
 H1287 H 0.19908 0.72296 0.03944
 H1288 H 0.25695 0.71652 0.05018
 H1289 H 0.26456 0.73355 0.02439
 H1290 H 0.22008 0.76828 -0.02041
 H1291 H 0.20533 0.75853 -0.04695
 H1292 H 0.22509 0.70646 -0.03749
 H1293 H 0.24032 0.71643 -0.01157
 H1294 H 0.24108 0.78747 0.05619
 C1295 C 0.24085 0.24648 0.49902
 C1296 C 0.25779 0.25417 0.49879
 C1297 C 0.26769 0.25826 0.48247
 C1298 C 0.26707 0.25947 0.51495
 C1299 C 0.23159 0.24159 0.51543
 C1300 C 0.23089 0.24201 0.48300
 C1301 C 0.27120 0.24549 0.46999
 C1302 C 0.28031 0.24982 0.45464
 C1303 C 0.28607 0.26697 0.45152
 C1304 C 0.28324 0.27953 0.46439
 C1305 C 0.27411 0.27522 0.47964
 C1306 C 0.28483 0.25340 0.51857
 C1307 C 0.29369 0.25831 0.53371
 C1308 C 0.28509 0.26962 0.54539
 C1309 C 0.26721 0.27564 0.54174
 C1310 C 0.25839 0.27073 0.52660
 C1311 C 0.21383 0.24777 0.51912
 C1312 C 0.20498 0.24319 0.53450
 C1313 C 0.21359 0.23212 0.54633
 C1314 C 0.23148 0.22605 0.54262
 C1315 C 0.24028 0.23060 0.52725
 C1316 C 0.22679 0.25467 0.47057
 C1317 C 0.21763 0.25004 0.45547
 C1318 C 0.21251 0.23270 0.45253
 C1319 C 0.21601 0.22022 0.46533
 C1320 C 0.22510 0.22485 0.48038
 H1321 H 0.26684 0.23220 0.47211
 H1322 H 0.28261 0.23984 0.44508
 H1323 H 0.28819 0.29270 0.46284
 H1324 H 0.27189 0.28520 0.48922
 H1325 H 0.29177 0.24471 0.50972
 H1326 H 0.30737 0.25339 0.53625
 H1327 H 0.24474 0.27569 0.52398
 H1328 H 0.20689 0.25625 0.51014
 H1329 H 0.19129 0.24815 0.53708
 H1330 H 0.23889 0.21797 0.55161
 H1331 H 0.25391 0.22557 0.52458
 H1332 H 0.23075 0.26808 0.47253
 H1333 H 0.21485 0.25993 0.44592
 H1334 H 0.21164 0.20687 0.46383
 H1335 H 0.22784 0.21495 0.48995
 H1336 H 0.25981 0.28391 0.55061
 C1337 C 0.76804 0.75434 1.00491
 C1338 C 0.75627 0.76813 1.00427
 C1339 C 0.74848 0.77607 1.02013
 C1340 C 0.75097 0.77647 0.98775
 C1341 C 0.77517 0.74590 0.98902
 C1342 C 0.77515 0.74752 1.02153
 C1343 C 0.73859 0.76613 1.03220
 C1344 C 0.73135 0.77389 1.04703
 C1345 C 0.73375 0.79181 1.04994
 C1346 C 0.74360 0.80166 1.03778
 C1347 C 0.75076 0.79392 1.02298
 C1348 C 0.73229 0.77872 0.98390
 C1349 C 0.72700 0.78724 0.96885
 C1350 C 0.74034 0.79372 0.95728
 C1351 C 0.75904 0.79179 0.96134
 C1352 C 0.76432 0.78322 0.97642
 C1353 C 0.79423 0.74438 0.98651
 C1354 C 0.80127 0.73683 0.97156
 C1355 C 0.78944 0.73037 0.95888
 C1356 C 0.77028 0.73171 0.96147
 C1357 C 0.76323 0.73935 0.97646
 C1358 C 0.78436 0.75845 1.03306
 C1359 C 0.79147 0.75182 1.04839
 C1360 C 0.78957 0.73414 1.05254
 C1361 C 0.78059 0.72314 1.04081
 C1362 C 0.77350 0.72979 1.02546
 H1363 H 0.73651 0.75236 1.03014
 H1364 H 0.72421 0.76575 1.05624
 H1365 H 0.74571 0.81545 1.03971
 H1366 H 0.75829 0.80185 1.01381
 H1367 H 0.72177 0.77393 0.99263
 H1368 H 0.71246 0.78901 0.96653
 H1369 H 0.77882 0.78204 0.97936
 H1370 H 0.80369 0.74932 0.99603
 H1371 H 0.81605 0.73603 0.96988
 H1372 H 0.76068 0.72724 0.95187
 H1373 H 0.74846 0.74025 0.97821
 H1374 H 0.78622 0.77210 1.03010
 H1375 H 0.79853 0.76055 1.05705
 H1376 H 0.77934 0.70934 1.04317
 H1377 H 0.76672 0.72108 1.01659
 H1378 H 0.76957 0.79686 0.95279
 C1379 C 0.76456 0.25146 0.50262
 C1380 C 0.75363 0.26583 0.50240
 C1381 C 0.74708 0.27420 0.51853
 C1382 C 0.74779 0.27396 0.48597
 C1383 C 0.76799 0.24115 0.48678
 C1384 C 0.77361 0.24537 0.51864
 C1385 C 0.73819 0.26445 0.53141
 C1386 C 0.73172 0.27250 0.54636
 C1387 C 0.73383 0.29054 0.54860
 C1388 C 0.74279 0.30021 0.53572
 C1389 C 0.74921 0.29216 0.52077
 C1390 C 0.72913 0.27747 0.48308
 C1391 C 0.72359 0.28562 0.46791
 C1392 C 0.73667 0.29048 0.45535
 C1393 C 0.75537 0.28725 0.45844
 C1394 C 0.76089 0.27902 0.47358
 C1395 C 0.78607 0.23718 0.48177
 C1396 C 0.78943 0.22724 0.46709
 C1397 C 0.77471 0.22103 0.45712
 C1398 C 0.75662 0.22461 0.46244
 C1399 C 0.75327 0.23462 0.47710
 C1400 C 0.78400 0.25680 0.52878
 C1401 C 0.79270 0.25085 0.54366
 C1402 C 0.79124 0.23338 0.54867
 C1403 C 0.78129 0.22184 0.53818
 C1404 C 0.77254 0.22781 0.52337
 H1405 H 0.73621 0.25059 0.52985
 H1406 H 0.72534 0.26450 0.55616
 H1407 H 0.74467 0.31409 0.53715
 H1408 H 0.75597 0.29994 0.51098
 H1409 H 0.71885 0.27389 0.49259
 H1410 H 0.70912 0.28841 0.46628
 H1411 H 0.77541 0.27678 0.47574
 H1412 H 0.79760 0.24183 0.48923
 H1413 H 0.80355 0.22422 0.46378
 H1414 H 0.74506 0.21976 0.45514
 H1415 H 0.73919 0.23717 0.48099
 H1416 H 0.78546 0.27031 0.52511
 H1417 H 0.80051 0.25995 0.55132
 H1418 H 0.78043 0.20814 0.54113
 H1419 H 0.76490 0.21869 0.51558
 H1420 H 0.76571 0.29105 0.44908
 C1421 C 0.74877 0.24135 -0.00145
 C1422 C 0.76306 0.25269 -0.00150
 C1423 C 0.77240 0.25760 -0.01774
 C1424 C 0.76832 0.26226 0.01424
 C1425 C 0.73908 0.23666 0.01468
 C1426 C 0.74337 0.23192 -0.01721
 C1427 C 0.79009 0.25143 -0.02166
 C1428 C 0.79879 0.25633 -0.03702
 C1429 C 0.79002 0.26755 -0.04861
 C1430 C 0.77202 0.27325 -0.04482
 C1431 C 0.76337 0.26838 -0.02948
 C1432 C 0.78543 0.25939 0.02195
 C1433 C 0.79035 0.26847 0.03678
 C1434 C 0.77814 0.28056 0.04424
 C1435 C 0.76109 0.28349 0.03633
 C1436 C 0.75621 0.27443 0.02149
 C1437 C 0.72100 0.24224 0.01777
 C1438 C 0.71179 0.23732 0.03283
 C1439 C 0.72046 0.22676 0.04508
 C1440 C 0.73887 0.22167 0.04215
 C1441 C 0.74800 0.22651 0.02703
 C1442 C 0.72662 0.23559 -0.02524
 C1443 C 0.72128 0.22635 -0.03980
 C1444 C 0.73277 0.21339 -0.04681
 C1445 C 0.74953 0.20974 -0.03866
 C1446 C 0.75480 0.21894 -0.02400
 H1447 H 0.79708 0.24273 -0.01294
 H1448 H 0.81250 0.25151 -0.03976
 H1449 H 0.76444 0.28129 -0.05373
 H1450 H 0.74957 0.27299 -0.02675
 H1451 H 0.79496 0.25005 0.01658
 H1452 H 0.80382 0.26611 0.04210
 H1453 H 0.74299 0.27691 0.01562
 H1454 H 0.71404 0.25052 0.00866
 H1455 H 0.69777 0.24169 0.03485
 H1456 H 0.74643 0.21411 0.05142
 H1457 H 0.76206 0.22231 0.02492
 H1458 H 0.71765 0.24563 -0.02032
 H1459 H 0.70797 0.22924 -0.04524
 H1460 H 0.75857 0.19974 -0.04365
 H1461 H 0.76775 0.21588 -0.01787
 H1462 H 0.75148 0.29280 0.04169
 C1463 C 0.74575 0.74676 0.50064
 C1464 C 0.75978 0.75846 0.50070
 C1465 C 0.76940 0.76388 0.48473
 C1466 C 0.76529 0.76746 0.51669
 C1467 C 0.73701 0.74069 0.51681
 C1468 C 0.73766 0.74001 0.48451
 C1469 C 0.78833 0.76076 0.48292
 C1470 C 0.79763 0.76565 0.46788
 C1471 C 0.78822 0.77401 0.45452
 C1472 C 0.76917 0.77705 0.45638
 C1473 C 0.75991 0.77218 0.47142
 C1474 C 0.77424 0.75865 0.53002
 C1475 C 0.77861 0.76736 0.54525
 C1476 C 0.77401 0.78503 0.54735
 C1477 C 0.76494 0.79368 0.53398
 C1478 C 0.76080 0.78504 0.51873
 C1479 C 0.72684 0.75203 0.52725
 C1480 C 0.71840 0.74591 0.54228
 C1481 C 0.72003 0.72839 0.54712
 C1482 C 0.72996 0.71700 0.53639
 C1483 C 0.73835 0.72313 0.52137
 C1484 C 0.71901 0.74319 0.48121
 C1485 C 0.71094 0.73728 0.46609
 C1486 C 0.72125 0.72781 0.45404
 C1487 C 0.74000 0.72455 0.45735
 C1488 C 0.74810 0.73055 0.47252
 H1489 H 0.79586 0.75438 0.49311
 H1490 H 0.81223 0.76304 0.46674
 H1491 H 0.76127 0.78294 0.44618
 H1492 H 0.74532 0.77479 0.47264
 H1493 H 0.77768 0.74503 0.52867
 H1494 H 0.78517 0.76012 0.55544
 H1495 H 0.75371 0.79197 0.50861
 H1496 H 0.72532 0.76556 0.52369
 H1497 H 0.71059 0.75488 0.55016
 H1498 H 0.73096 0.70329 0.53930
 H1499 H 0.74588 0.71416 0.51325
 H1500 H 0.71072 0.75047 0.49029
 H1501 H 0.69654 0.74005 0.46384
 H1502 H 0.74852 0.71768 0.44819
 H1503 H 0.76250 0.72791 0.47488
 H1504 H 0.76109 0.80720 0.53531
 C1505 C 1.00191 0.26153 0.25148
 C1506 C 1.00148 0.25010 0.26487
 C1507 C 1.01852 0.24414 0.27355
 C1508 C 0.98383 0.24336 0.27185
 C1509 C 0.98502 0.26606 0.24175
 C1510 C 1.01917 0.27037 0.24602
 C1511 C 1.03299 0.23658 0.26416
 C1512 C 1.04880 0.23075 0.27255
 C1513 C 1.05031 0.23220 0.29054
 C1514 C 1.03585 0.23987 0.29983
 C1515 C 1.02005 0.24564 0.29145
 C1516 C 0.98087 0.22539 0.27309
 C1517 C 0.96448 0.21894 0.28012
 C1518 C 0.95083 0.23042 0.28615
 C1519 C 0.95397 0.24838 0.28508
 C1520 C 0.97030 0.25481 0.27797
 C1521 C 0.98024 0.28355 0.23946
 C1522 C 0.96462 0.28807 0.23010
 C1523 C 0.95343 0.27512 0.22282
 C1524 C 0.95848 0.25763 0.22479
 C1525 C 0.97413 0.25312 0.23417
 C1526 C 1.02977 0.27984 0.25779
 C1527 C 1.04559 0.28866 0.25230
 C1528 C 1.05108 0.28820 0.23498
 C1529 C 1.04017 0.27902 0.22316
 C1530 C 1.02442 0.27018 0.22866
 H1531 H 1.03201 0.23516 0.25036
 H1532 H 1.05983 0.22536 0.26486
 H1533 H 1.03670 0.24122 0.31366
 H1534 H 1.00902 0.25141 0.29893
 H1535 H 0.99129 0.21638 0.26864
 H1536 H 0.96282 0.20502 0.28123
 H1537 H 0.97251 0.26871 0.27744
 H1538 H 0.98864 0.29374 0.24494
 H1539 H 0.96164 0.30171 0.22832
 H1540 H 0.95027 0.24743 0.21908
 H1541 H 0.97783 0.23956 0.23541
 H1542 H 1.02566 0.28057 0.27117
 H1543 H 1.05356 0.29585 0.26161
 H1544 H 1.04345 0.27891 0.20959
 H1545 H 1.01623 0.26325 0.21932
 H1546 H 0.94378 0.25747 0.28984
 C1547 C 0.49782 0.24357 0.73088
 C1548 C 0.49816 0.23024 0.74242
 C1549 C 0.51566 0.22223 0.74837
 C1550 C 0.48092 0.22262 0.74955
 C1551 C 0.48027 0.25007 0.72347
 C1552 C 0.51495 0.25190 0.72434
 C1553 C 0.52865 0.21558 0.73665
 C1554 C 0.54448 0.20715 0.74255
 C1555 C 0.54764 0.20525 0.76024
 C1556 C 0.53443 0.21164 0.77193
 C1557 C 0.51865 0.22004 0.76604
 C1558 C 0.47763 0.20475 0.74784
 C1559 C 0.46165 0.19730 0.75468
 C1560 C 0.44881 0.20748 0.76367
 C1561 C 0.45208 0.22544 0.76534
 C1562 C 0.46804 0.23291 0.75839
 C1563 C 0.47621 0.26787 0.72402
 C1564 C 0.46026 0.27432 0.71635
 C1565 C 0.44800 0.26304 0.70792
 C1566 C 0.45223 0.24526 0.70721
 C1567 C 0.46820 0.23882 0.71489
 C1568 C 0.52761 0.25978 0.73549
 C1569 C 0.54348 0.26784 0.72891
 C1570 C 0.54689 0.26811 0.71107
 C1571 C 0.53418 0.26019 0.70006
 C1572 C 0.51832 0.25233 0.70659
 H1573 H 0.52638 0.21665 0.72295
 H1574 H 0.55430 0.20212 0.73329
 H1575 H 0.53599 0.20982 0.78563
 H1576 H 0.50864 0.22471 0.77530
 H1577 H 0.48741 0.19659 0.74109
 H1578 H 0.45942 0.18348 0.75313
 H1579 H 0.47041 0.24671 0.75995
 H1580 H 0.48551 0.27680 0.73031
 H1581 H 0.45793 0.28818 0.71671
 H1582 H 0.44319 0.23632 0.70062
 H1583 H 0.47130 0.22510 0.71390
 H1584 H 0.52516 0.25971 0.74923
 H1585 H 0.55316 0.27351 0.73780
 H1586 H 0.53651 0.26014 0.68629
 H1587 H 0.50871 0.24637 0.69779
 H1588 H 0.44229 0.23380 0.77178
 C1589 C -0.00008 0.24228 0.74190
 C1590 C 0.00007 0.24984 0.75771
 C1591 C -0.01716 0.25469 0.76687
 C1592 C 0.01752 0.25418 0.76659
 C1593 C 0.01718 0.23729 0.73282
 C1594 C -0.01748 0.23821 0.73287
 C1595 C -0.01982 0.27199 0.77187
 C1596 C -0.03580 0.27690 0.78062
 C1597 C -0.04949 0.26455 0.78458
 C1598 C -0.04656 0.24712 0.78003
 C1599 C -0.03055 0.24222 0.77117
 C1600 C 0.03082 0.26482 0.75873
 C1601 C 0.04698 0.26907 0.76738
 C1602 C 0.04995 0.26311 0.78429
 C1603 C 0.03672 0.25230 0.79202
 C1604 C 0.02059 0.24797 0.78330
 C1605 C 0.02990 0.22598 0.74041
 C1606 C 0.04600 0.22133 0.73163
 C1607 C 0.04950 0.22768 0.71491
 C1608 C 0.03675 0.23905 0.70743
 C1609 C 0.02069 0.24370 0.71623
 C1610 C -0.02099 0.22104 0.72792
 C1611 C -0.03712 0.21683 0.71925
 C1612 C -0.05013 0.22976 0.71533
 C1613 C -0.04634 0.24705 0.71983
 C1614 C -0.03016 0.25126 0.72859
 H1615 H -0.00950 0.28174 0.76893
 H1616 H -0.03725 0.29032 0.78450
 H1617 H -0.05676 0.23733 0.78316
 H1618 H -0.02855 0.22872 0.76775
 H1619 H 0.02864 0.26989 0.74591
 H1620 H 0.05709 0.27695 0.76073
 H1621 H 0.01047 0.23977 0.78960
 H1622 H 0.02737 0.22077 0.75315
 H1623 H 0.05568 0.21295 0.73810
 H1624 H 0.03913 0.24419 0.69463
 H1625 H 0.01101 0.25243 0.71014
 H1626 H -0.01121 0.21086 0.73084
 H1627 H -0.03920 0.20348 0.71541
 H1628 H -0.05601 0.25727 0.71672
 H1629 H -0.02749 0.26466 0.73196
 H1630 H 0.03871 0.24746 0.80496
 C1631 C 0.49883 0.24293 0.24244
 C1632 C 0.49827 0.25588 0.25433
 C1633 C 0.48072 0.26075 0.26305
 C1634 C 0.51509 0.26571 0.25926
 C1635 C 0.51646 0.23465 0.23702
 C1636 C 0.48173 0.23674 0.23402
 C1637 C 0.47559 0.27826 0.26436
 C1638 C 0.45975 0.28300 0.27346
 C1639 C 0.44864 0.27027 0.28143
 C1640 C 0.45389 0.25278 0.28023
 C1641 C 0.46975 0.24804 0.27111
 C1642 C 0.52700 0.27265 0.24669
 C1643 C 0.54239 0.28241 0.25147
 C1644 C 0.54613 0.28545 0.26887
 C1645 C 0.53385 0.27893 0.28141
 C1646 C 0.51858 0.26910 0.27663
 C1647 C 0.52914 0.22873 0.24927
 C1648 C 0.54521 0.22017 0.24408
 C1649 C 0.54892 0.21731 0.22659
 C1650 C 0.53605 0.22303 0.21436
 C1651 C 0.52005 0.23164 0.21954
 C1652 C 0.47786 0.21892 0.23301
 C1653 C 0.46231 0.21306 0.22426
 C1654 C 0.45037 0.22498 0.21630
 C1655 C 0.45440 0.24278 0.21723
 C1656 C 0.46989 0.24862 0.22601
 H1657 H 0.48400 0.28829 0.25847
 H1658 H 0.45660 0.29668 0.27457
 H1659 H 0.44573 0.24275 0.28642
 H1660 H 0.47367 0.23449 0.27063
 H1661 H 0.52429 0.27066 0.23316
 H1662 H 0.55145 0.28751 0.24156
 H1663 H 0.50941 0.26418 0.28654
 H1664 H 0.52647 0.23049 0.26286
 H1665 H 0.55474 0.21570 0.25378
 H1666 H 0.53796 0.22054 0.20080
 H1667 H 0.51035 0.23583 0.20987
 H1668 H 0.48699 0.20954 0.23888
 H1669 H 0.46004 0.19921 0.22338
 H1670 H 0.44557 0.25221 0.21104
 H1671 H 0.47286 0.26241 0.22629
 H1672 H 0.53575 0.28160 0.29492
 C1673 C 0.99934 0.74413 0.73750
 C1674 C 0.99988 0.73120 0.74946
 C1675 C 1.01750 0.72357 0.75541
 C1676 C 0.98281 0.72346 0.75681
 C1677 C 0.98170 0.75128 0.73112
 C1678 C 1.01628 0.75124 0.72933
 C1679 C 1.02982 0.71568 0.74385
 C1680 C 1.04607 0.70809 0.74983
 C1681 C 1.05030 0.70825 0.76742
 C1682 C 1.03770 0.71585 0.77899
 C1683 C 1.02148 0.72341 0.77301
 C1684 C 0.97943 0.70567 0.75457
 C1685 C 0.96339 0.69808 0.76112
 C1686 C 0.95055 0.70802 0.77036
 C1687 C 0.95397 0.72589 0.77269
 C1688 C 0.97000 0.73352 0.76599
 C1689 C 0.97827 0.76916 0.73239
 C1690 C 0.96222 0.77630 0.72556
 C1691 C 0.94930 0.76563 0.71724
 C1692 C 0.95286 0.74774 0.71593
 C1693 C 0.96890 0.74062 0.72279
 C1694 C 1.03001 0.75941 0.73903
 C1695 C 1.04568 0.76627 0.73091
 C1696 C 1.04782 0.76507 0.71294
 C1697 C 1.03411 0.75677 0.70335
 C1698 C 1.01842 0.75009 0.71143
 H1699 H 1.02677 0.71525 0.73026
 H1700 H 1.05538 0.70208 0.74068
 H1701 H 1.04006 0.71567 0.79270
 H1702 H 1.01196 0.72913 0.78215
 H1703 H 0.98915 0.69770 0.74751
 H1704 H 0.96107 0.68434 0.75906
 H1705 H 0.97241 0.74726 0.76791
 H1706 H 0.98815 0.77762 0.73855
 H1707 H 0.96034 0.79020 0.72639
 H1708 H 0.94328 0.73927 0.70940
 H1709 H 0.97151 0.72685 0.72132
 H1710 H 1.02856 0.76050 0.75285
 H1711 H 1.05619 0.77220 0.73875
 H1712 H 1.03547 0.75560 0.68953
 H1713 H 1.00797 0.74385 0.70372
 H1714 H 0.94419 0.73406 0.77938
 C1715 C 0.50059 0.74414 0.24135
 C1716 C 0.50123 0.73114 0.25323
 C1717 C 0.51892 0.72350 0.25905
 C1718 C 0.48417 0.72333 0.26051
 C1719 C 0.48292 0.75089 0.23455
 C1720 C 0.51753 0.75169 0.23363
 C1721 C 0.53134 0.71603 0.24732
 C1722 C 0.54767 0.70845 0.25310
 C1723 C 0.55191 0.70818 0.27068
 C1724 C 0.53925 0.71541 0.28244
 C1725 C 0.52293 0.72296 0.27665
 C1726 C 0.48103 0.70547 0.25861
 C1727 C 0.46482 0.69793 0.26482
 C1728 C 0.45154 0.70803 0.27334
 C1729 C 0.45476 0.72596 0.27538
 C1730 C 0.47100 0.73351 0.26908
 C1731 C 0.47912 0.76872 0.23548
 C1732 C 0.46312 0.77548 0.22818
 C1733 C 0.45061 0.76447 0.21973
 C1734 C 0.45455 0.74664 0.21876
 C1735 C 0.47054 0.73989 0.22608
 C1736 C 0.53092 0.75985 0.24375
 C1737 C 0.54669 0.76699 0.23606
 C1738 C 0.54922 0.76609 0.21812
 C1739 C 0.53580 0.75786 0.20813
 C1740 C 0.52005 0.75088 0.21577
 H1741 H 0.52829 0.71590 0.23371
 H1742 H 0.55703 0.70276 0.24379
 H1743 H 0.54164 0.71492 0.29614
 H1744 H 0.51336 0.72837 0.28593
 H1745 H 0.49102 0.69740 0.25201
 H1746 H 0.46265 0.68413 0.26301
 H1747 H 0.47322 0.74731 0.27075
 H1748 H 0.48869 0.77744 0.24170
 H1749 H 0.46097 0.78936 0.22877
 H1750 H 0.44530 0.73791 0.21213
 H1751 H 0.47346 0.72616 0.22484
 H1752 H 0.52913 0.76067 0.25755
 H1753 H 0.55695 0.77288 0.24421
 H1754 H 0.53746 0.75693 0.19431
 H1755 H 0.50986 0.74464 0.20776
 H1756 H 0.44469 0.73428 0.28147
 C1757 C -0.00158 0.75269 0.23968
 C1758 C -0.00089 0.76331 0.25362
 C1759 C -0.01758 0.76739 0.26399
 C1760 C 0.01666 0.77155 0.25910
 C1761 C 0.01548 0.74606 0.23141
 C1762 C -0.01932 0.74707 0.23202
 C1763 C -0.02147 0.78468 0.26829
 C1764 C -0.03678 0.78872 0.27840
 C1765 C -0.04865 0.77552 0.28436
 C1766 C -0.04446 0.75817 0.28047
 C1767 C -0.02906 0.75412 0.27038
 C1768 C 0.02727 0.78138 0.24748
 C1769 C 0.04329 0.78975 0.25293
 C1770 C 0.04901 0.78846 0.27009
 C1771 C 0.03818 0.77880 0.28177
 C1772 C 0.02219 0.77044 0.27630
 C1773 C 0.02860 0.73692 0.24102
 C1774 C 0.04439 0.73031 0.23307
 C1775 C 0.04723 0.73261 0.21530
 C1776 C 0.03415 0.74190 0.20578
 C1777 C 0.01833 0.74841 0.21372
 C1778 C -0.02241 0.72941 0.22872
 C1779 C -0.03861 0.72399 0.22082
 C1780 C -0.05212 0.73615 0.21603
 C1781 C -0.04888 0.75385 0.21911
 C1782 C -0.03265 0.75928 0.22707
 H1783 H -0.01261 0.79509 0.26379
 H1784 H -0.03911 0.80219 0.28171
 H1785 H -0.05322 0.74776 0.28511
 H1786 H -0.02602 0.74064 0.26764
 H1787 H 0.02300 0.78279 0.23424
 H1788 H 0.05121 0.79729 0.24373
 H1789 H 0.01403 0.76317 0.28554
 H1790 H 0.02654 0.73485 0.25467
 H1791 H 0.05438 0.72363 0.24092
 H1792 H 0.03609 0.74395 0.19211
 H1793 H 0.00834 0.75540 0.20609
 H1794 H -0.01219 0.71981 0.23219
 H1795 H -0.04024 0.71030 0.21811
 H1796 H -0.05893 0.76349 0.21532
 H1797 H -0.03034 0.77301 0.22913
 H1798 H 0.04167 0.77799 0.29523
 C1799 C 0.50001 0.74231 0.74522
 C1800 C 0.49929 0.75584 0.75640
 C1801 C 0.48177 0.76107 0.76478
 C1802 C 0.51603 0.76550 0.76161
 C1803 C 0.51772 0.73469 0.73944
 C1804 C 0.48301 0.73380 0.73893
 C1805 C 0.47603 0.77842 0.76406
 C1806 C 0.46002 0.78364 0.77260
 C1807 C 0.44948 0.77153 0.78204
 C1808 C 0.45543 0.75422 0.78291
 C1809 C 0.47144 0.74902 0.77437
 C1810 C 0.52809 0.77271 0.74934
 C1811 C 0.54369 0.78191 0.75458
 C1812 C 0.54748 0.78398 0.77212
 C1813 C 0.53503 0.77723 0.78435
 C1814 C 0.51952 0.76805 0.77912
 C1815 C 0.53056 0.72859 0.75143
 C1816 C 0.54666 0.72039 0.74588
 C1817 C 0.55024 0.71819 0.72828
 C1818 C 0.53725 0.72418 0.71629
 C1819 C 0.52114 0.73233 0.72186
 C1820 C 0.48077 0.71581 0.74088
 C1821 C 0.46473 0.70769 0.73530
 C1822 C 0.45073 0.71735 0.72744
 C1823 C 0.45297 0.73542 0.72549
 C1824 C 0.46905 0.74353 0.73108
 H1825 H 0.48403 0.78795 0.75697
 H1826 H 0.45630 0.79723 0.77212
 H1827 H 0.44770 0.74471 0.79028
 H1828 H 0.47593 0.73566 0.77544
 H1829 H 0.52539 0.77128 0.73574
 H1830 H 0.55292 0.78725 0.74493
 H1831 H 0.51023 0.76286 0.78879
 H1832 H 0.52793 0.72988 0.76509
 H1833 H 0.55632 0.71568 0.75536
 H1834 H 0.53918 0.72217 0.70264
 H1835 H 0.51122 0.73665 0.71244
 H1836 H 0.49138 0.70809 0.74693
 H1837 H 0.46330 0.69379 0.73701
 H1838 H 0.44231 0.74339 0.71992
 H1839 H 0.47059 0.75743 0.72937
 H1840 H 0.53706 0.77919 0.79797
 C1841 C 0.39718 0.30863 0.29651
 C1842 C 0.40634 0.29398 0.29976
 C1843 C 0.42244 0.28941 0.28906
 C1844 C 0.43202 0.27484 0.29165
 H1845 H 0.40221 0.28560 0.31030
 H1846 H 0.42636 0.29820 0.27879
 H1847 H 0.40154 0.31675 0.28583
 H1848 H 0.42731 0.26573 0.30138
 C1849 C 0.39661 0.80926 0.79466
 C1850 C 0.40664 0.79526 0.79852
 C1851 C 0.42269 0.79055 0.78795
 C1852 C 0.43280 0.77660 0.79179
 H1853 H 0.40328 0.78733 0.80962
 H1854 H 0.42612 0.79857 0.77695
 H1855 H 0.40027 0.81692 0.78342
 H1856 H 0.42849 0.76832 0.80237
 C1857 C -0.09934 0.30532 0.79767
 C1858 C -0.09122 0.29018 0.80125
 C1859 C -0.07434 0.28516 0.79190
 C1860 C -0.06664 0.26949 0.79375
 H1861 H -0.09686 0.28163 0.81102
 H1862 H -0.06826 0.29450 0.78310
 H1863 H -0.09366 0.31348 0.78757
 H1864 H -0.07345 0.25982 0.80170
 C1865 C -0.10055 0.81283 0.29949
 C1866 C -0.09112 0.79842 0.30308
 C1867 C -0.07443 0.79444 0.29301
 C1868 C -0.06528 0.77949 0.29475
 H1869 H -0.09571 0.78964 0.31314
 H1870 H -0.06987 0.80388 0.28356
 H1871 H -0.09587 0.82116 0.28908
 H1872 H -0.07060 0.76961 0.30340
 C1873 C 0.60314 0.69828 0.31082
 C1874 C 0.59445 0.69399 0.29634
 C1875 C 0.57757 0.70321 0.29116
 C1876 C 0.56914 0.69959 0.27632
 H1877 H 0.59966 0.68360 0.28831
 H1878 H 0.57217 0.71319 0.29957
 H1879 H 0.59788 0.70887 0.31859
 H1880 H 0.57538 0.69019 0.26771
 C1881 C 0.59692 0.19582 0.80186
 C1882 C 0.58891 0.19057 0.78736
 C1883 C 0.57247 0.19987 0.78115
 C1884 C 0.56442 0.19610 0.76619
 H1885 H 0.59425 0.17955 0.78029
 H1886 H 0.56700 0.21028 0.78901
 H1887 H 0.59136 0.20702 0.80854
 H1888 H 0.57061 0.18644 0.75785
 C1889 C 1.10130 0.70022 0.80798
 C1890 C 1.09285 0.69526 0.79358
 C1891 C 1.07598 0.70417 0.78793
 C1892 C 1.06751 0.69982 0.77333
 H1893 H 1.09823 0.68458 0.78603
 H1894 H 1.07061 0.71458 0.79583
 H1895 H 1.09577 0.71102 0.81529
 H1896 H 1.07367 0.69001 0.76514
 C1897 C 1.10415 0.19450 0.29883
 C1898 C 1.09379 0.20768 0.30441
 C1899 C 1.07789 0.21359 0.29428
 C1900 C 1.06676 0.22615 0.30002
 H1901 H 1.09690 0.21404 0.31645
 H1902 H 1.07506 0.20716 0.28221
 H1903 H 1.10073 0.18821 0.28681
 H1904 H 1.06932 0.23172 0.31257
 C1905 C 0.59996 0.30861 0.70659
 C1906 C 0.59019 0.29499 0.70108
 C1907 C 0.57395 0.28825 0.71045
 C1908 C 0.56375 0.27572 0.70331
 H1909 H 0.59398 0.28868 0.68916
 H1910 H 0.57019 0.29380 0.72275
 H1911 H 0.59599 0.31515 0.71836
 H1912 H 0.56755 0.27116 0.69059
 C1913 C 0.60162 0.80630 0.21004
 C1914 C 0.59186 0.79248 0.20513
 C1915 C 0.57614 0.78599 0.21534
 C1916 C 0.56577 0.77304 0.20928
 H1917 H 0.59526 0.78590 0.19324
 H1918 H 0.57278 0.79219 0.22743
 H1919 H 0.59805 0.81293 0.22188
 H1920 H 0.56903 0.76776 0.19670
 C1921 C 1.10277 0.29944 0.19572
 C1922 C 1.09370 0.30393 0.21001
 C1923 C 1.07754 0.29375 0.21553
 C1924 C 1.06778 0.29790 0.22955
 H1925 H 1.09792 0.31514 0.21739
 H1926 H 1.07370 0.28258 0.20792
 H1927 H 1.09822 0.28819 0.18852
 H1928 H 1.07240 0.30855 0.23755
 C1929 C 1.09946 0.80573 0.70444
 C1930 C 1.09050 0.79140 0.69963
 C1931 C 1.07421 0.78528 0.70932
 C1932 C 1.06433 0.77175 0.70380
 H1933 H 1.09517 0.78408 0.68857
 H1934 H 1.07013 0.79214 0.72087
 H1935 H 1.09445 0.81307 0.71538
 H1936 H 1.06804 0.76574 0.69167
 C1937 C 0.39726 0.70827 0.69007
 C1938 C 0.40742 0.70334 0.70345
 C1939 C 0.42290 0.71399 0.70938
 C1940 C 0.43404 0.70806 0.72167
 H1941 H 0.40474 0.69105 0.70979
 H1942 H 0.42561 0.72626 0.70304
 H1943 H 0.40014 0.72053 0.68371
 H1944 H 0.43141 0.69531 0.72711
 C1945 C 0.40024 0.18489 0.20057
 C1946 C 0.40955 0.19963 0.19789
 C1947 C 0.42557 0.20418 0.20846
 C1948 C 0.43414 0.21942 0.20627
 H1949 H 0.40533 0.20852 0.18787
 H1950 H 0.43007 0.19512 0.21822
 H1951 H 0.40442 0.17619 0.21080
 H1952 H 0.42868 0.22854 0.19696
 C1953 C -0.09954 0.69338 0.20161
 C1954 C -0.09297 0.70945 0.19940
 C1955 C -0.07670 0.71505 0.20917
 C1956 C -0.06921 0.73080 0.20714
 H1957 H -0.09917 0.71820 0.19019
 H1958 H -0.07072 0.70594 0.21817
 H1959 H -0.09306 0.68487 0.21090
 H1960 H -0.07591 0.74016 0.19884
 C1961 C -0.10115 0.19064 0.70183
 C1962 C -0.09264 0.20569 0.69856
 C1963 C -0.07579 0.21016 0.70802
 C1964 C -0.06741 0.22554 0.70622
 H1965 H -0.09792 0.21454 0.68894
 H1966 H -0.07025 0.20060 0.71682
 H1967 H -0.09580 0.18216 0.71176
 H1968 H -0.07366 0.23547 0.69827
 C1969 C 0.29437 0.40648 0.31061
 C1970 C 0.29769 0.41330 0.29508
 C1971 C 0.28906 0.42979 0.28998
 C1972 C 0.29197 0.43668 0.27440
 H1973 H 0.30701 0.40694 0.28620
 H1974 H 0.28014 0.43627 0.29914
 H1975 H 0.28491 0.41297 0.31930
 H1976 H 0.30008 0.42952 0.26506
 C1977 C 0.29407 -0.09609 0.81443
 C1978 C 0.29838 -0.08795 0.79971
 C1979 C 0.28944 -0.07159 0.79478
 C1980 C 0.29308 -0.06428 0.77952
 H1981 H 0.30864 -0.09327 0.79106
 H1982 H 0.27967 -0.06572 0.80358
 H1983 H 0.28356 -0.09062 0.82276
 H1984 H 0.30211 -0.07096 0.77056
 C1985 C 0.79934 0.40468 0.80671
 C1986 C 0.80458 0.41262 0.79216
 C1987 C 0.79586 0.42904 0.78693
 C1988 C 0.80009 0.43665 0.77195
 H1989 H 0.81533 0.40718 0.78412
 H1990 H 0.78567 0.43479 0.79539
 H1991 H 0.78835 0.41034 0.81435
 H1992 H 0.80949 0.43017 0.76319
 C1993 C 0.79351 -0.09325 0.30892
 C1994 C 0.79940 -0.08409 0.29533
 C1995 C 0.79009 -0.06785 0.29064
 C1996 C 0.79417 -0.05935 0.27611
 H1997 H 0.81090 -0.08852 0.28757
 H1998 H 0.77934 -0.06303 0.29908
 H1999 H 0.78170 -0.08862 0.31616
 H2000 H 0.80406 -0.06489 0.26718
 C2001 C 0.30972 0.59980 0.70364
 C2002 C 0.29505 0.59000 0.70014
 C2003 C 0.29032 0.57510 0.71115
 C2004 C 0.27709 0.56394 0.70663
 H2005 H 0.28680 0.59263 0.68889
 H2006 H 0.29796 0.57339 0.72289
 H2007 H 0.31815 0.59672 0.71468
 H2008 H 0.26954 0.56645 0.69490
 C2009 C 0.28708 1.09766 0.18187
 C2010 C 0.29199 1.08772 0.19519
 C2011 C 0.28124 1.07226 0.20021
 C2012 C 0.28682 1.06216 0.21320
 H2013 H 0.30417 1.09090 0.20249
 H2014 H 0.26906 1.06902 0.19295
 H2015 H 0.27489 1.09437 0.17460
 H2016 H 0.29954 1.06547 0.21965
 C2017 C 0.80437 0.59365 0.20014
 C2018 C 0.78848 0.58564 0.19677
 C2019 C 0.78331 0.56973 0.20625
 C2020 C 0.76796 0.56091 0.20253
 H2021 H 0.77950 0.59053 0.18682
 H2022 H 0.79228 0.56529 0.21639
 H2023 H 0.81326 0.58845 0.21004
 H2024 H 0.75879 0.56610 0.19285
 C2025 C 0.79573 1.09206 0.69079
 C2026 C 0.79962 1.08471 0.70589
 C2027 C 0.79013 1.06869 0.71133
 C2028 C 0.79301 1.06172 0.72684
 H2029 H 0.80969 1.09052 0.71433
 H2030 H 0.78039 1.06282 0.70261
 H2031 H 0.78540 1.08623 0.68262
 H2032 H 0.80208 1.06838 0.73568
 C2033 C 0.70457 0.59419 0.30585
 C2034 C 0.69730 0.58534 0.29279
 C2035 C 0.70644 0.56949 0.28643
 C2036 C 0.69906 0.55978 0.27400
 H2037 H 0.68466 0.58968 0.28686
 H2038 H 0.71921 0.56557 0.29238
 H2039 H 0.71713 0.58951 0.31171
 H2040 H 0.68576 0.56344 0.26887
 C2041 C 0.70301 1.09720 0.81236
 C2042 C 0.69844 1.08760 0.79868
 C2043 C 0.70877 1.07149 0.79489
 C2044 C 0.70548 1.06193 0.78087
 H2045 H 0.68722 1.09144 0.79041
 H2046 H 0.71950 1.06761 0.80369
 H2047 H 0.71447 1.09299 0.82020
 H2048 H 0.69544 1.06651 0.77166
 C2049 C 0.20074 0.59514 0.81020
 C2050 C 0.19709 0.58805 0.79495
 C2051 C 0.20682 0.57206 0.78987
 C2052 C 0.20480 0.56479 0.77440
 H2053 H 0.18748 0.59414 0.78622
 H2054 H 0.21583 0.56609 0.79920
 H2055 H 0.21069 0.58891 0.81852
 H2056 H 0.19498 0.57028 0.76547
 C2057 C 0.20675 1.09542 0.30817
 C2058 C 0.20065 1.08700 0.29433
 C2059 C 0.20992 1.07115 0.28820
 C2060 C 0.20377 1.06263 0.27440
 H2061 H 0.18887 1.09183 0.28734
 H2062 H 0.22166 1.06638 0.29526
 H2063 H 0.21858 1.09046 0.31502
 H2064 H 0.19143 1.06727 0.26811
 C2065 C 0.70723 0.40497 0.68802
 C2066 C 0.70408 0.41383 0.70250
 C2067 C 0.71475 0.42971 0.70613
 C2068 C 0.71275 0.43844 0.72088
 H2069 H 0.69375 0.40942 0.71162
 H2070 H 0.72468 0.43405 0.69661
 H2071 H 0.71781 0.40950 0.67919
 H2072 H 0.70351 0.43333 0.73066
 C2073 C 0.70440 -0.09491 0.19085
 C2074 C 0.70118 -0.08732 0.20602
 C2075 C 0.71019 -0.07079 0.21049
 C2076 C 0.70772 -0.06356 0.22597
 H2077 H 0.69182 -0.09324 0.21520
 H2078 H 0.71907 -0.06467 0.20102
 H2079 H 0.71403 -0.08899 0.18189
 H2080 H 0.69958 -0.07045 0.23552
 C2081 C 0.20200 0.40633 0.19303
 C2082 C 0.19788 0.41386 0.20801
 C2083 C 0.20699 0.43032 0.21251
 C2084 C 0.20437 0.43819 0.22763
 H2085 H 0.18798 0.40804 0.21676
 H2086 H 0.21643 0.43593 0.20320
 H2087 H 0.21215 0.41236 0.18465
 H2088 H 0.19585 0.43198 0.23735
 C2089 C 0.20471 -0.09645 0.69379
 C2090 C 0.20221 -0.08960 0.70938
 C2091 C 0.21150 -0.07326 0.71393
 C2092 C 0.20869 -0.06553 0.72909
 H2093 H 0.19299 -0.09568 0.71859
 H2094 H 0.22081 -0.06752 0.70459
 H2095 H 0.21383 -0.09003 0.68470
 H2096 H 0.20013 -0.07191 0.73868
 C2097 C 0.30047 0.30821 0.40546
 C2098 C 0.30294 0.29220 0.41168
 C2099 C 0.29386 0.28735 0.42802
 C2100 C 0.29511 0.27145 0.43491
 H2101 H 0.31160 0.28294 0.40498
 H2102 H 0.28566 0.29715 0.43445
 H2103 H 0.29157 0.31711 0.41240
 H2104 H 0.30234 0.26135 0.42794
 C2105 C 0.30743 0.79808 -0.09579
 C2106 C 0.29398 0.80341 -0.08530
 C2107 C 0.28894 0.79321 -0.06995
 C2108 C 0.27581 0.79872 -0.05916
 H2109 H 0.28660 0.81532 -0.08798
 H2110 H 0.29637 0.78131 -0.06739
 H2111 H 0.31474 0.78616 -0.09290
 H2112 H 0.26927 0.81113 -0.06163
 C2113 C 0.80124 0.30783 -0.09638
 C2114 C 0.80586 0.29298 -0.08864
 C2115 C 0.79617 0.28778 -0.07273
 C2116 C 0.79982 0.27288 -0.06457
 H2117 H 0.81642 0.28467 -0.09405
 H2118 H 0.78595 0.29658 -0.06753
 H2119 H 0.79050 0.31581 -0.09075
 H2120 H 0.81079 0.26464 -0.06937
 C2121 C 0.79664 0.81012 0.40330
 C2122 C 0.80321 0.79723 0.41297
 C2123 C 0.79324 0.79236 0.42882
 C2124 C 0.79852 0.77914 0.43878
 H2125 H 0.81547 0.79021 0.40911
 H2126 H 0.78130 0.79997 0.43241
 H2127 H 0.78421 0.81676 0.40742
 H2128 H 0.81107 0.77220 0.43561
 C2129 C 0.69408 0.29846 0.59968
 C2130 C 0.70801 0.30386 0.58971
 C2131 C 0.71390 0.29381 0.57455
 C2132 C 0.72736 0.29971 0.56425
 H2133 H 0.71516 0.31583 0.59266
 H2134 H 0.70685 0.28178 0.57169
 H2135 H 0.68696 0.28650 0.59655
 H2136 H 0.73349 0.31223 0.56705
 C2137 C 0.69298 0.79920 1.10054
 C2138 C 0.70701 0.80465 1.09074
 C2139 C 0.71311 0.79473 1.07554
 C2140 C 0.72682 0.80070 1.06559
 H2141 H 0.71416 0.81656 1.09389
 H2142 H 0.70608 0.78275 1.07242
 H2143 H 0.68588 0.78727 1.09726
 H2144 H 0.73296 0.81314 1.06874
 C2145 C 0.20181 0.31276 1.09348
 C2146 C 0.19718 0.29791 1.08578
 C2147 C 0.20583 0.29306 1.06935
 C2148 C 0.20240 0.27770 1.06200
 H2149 H 0.18722 0.28922 1.09163
 H2150 H 0.21492 0.30238 1.06327
 H2151 H 0.21208 0.32114 1.08761
 H2152 H 0.19265 0.26898 1.06816
 C2153 C 0.19188 0.81027 0.59603
 C2154 C 0.19055 0.79403 0.59013
 C2155 C 0.19885 0.78967 0.57335
 C2156 C 0.19798 0.77367 0.56669
 H2157 H 0.18368 0.78407 0.59765
 H2158 H 0.20635 0.79980 0.56666
 H2159 H 0.19876 0.82001 0.58820
 H2160 H 0.19113 0.76352 0.57400
 C2161 C 0.29051 0.68890 0.59752
 C2162 C 0.29436 0.70360 0.58909
 C2163 C 0.28415 0.70844 0.57357
 C2164 C 0.28710 0.72370 0.56580
 H2165 H 0.30520 0.71212 0.59353
 H2166 H 0.27405 0.69944 0.56857
 H2167 H 0.27934 0.68068 0.59321
 H2168 H 0.29646 0.73296 0.57157
 C2169 C 0.30784 0.20588 1.09462
 C2170 C 0.29227 0.20329 1.08593
 C2171 C 0.28797 0.21364 1.07050
 C2172 C 0.27221 0.21108 1.06204
 H2173 H 0.28259 0.19344 1.09016
 H2174 H 0.29801 0.22297 1.06592
 H2175 H 0.31729 0.21597 1.09045
 H2176 H 0.26283 0.20117 1.06677
 C2177 C 0.79615 0.69267 1.10079
 C2178 C 0.80166 0.70716 1.09272
 C2179 C 0.79282 0.71282 1.07661
 C2180 C 0.79779 0.72766 1.06881
 H2181 H 0.81277 0.71487 1.09794
 H2182 H 0.78198 0.70483 1.07133
 H2183 H 0.78495 0.68514 1.09546
 H2184 H 0.80810 0.73574 1.07487
 C2185 C 0.79927 0.19320 0.59702
 C2186 C 0.80489 0.20768 0.58908
 C2187 C 0.79535 0.21344 0.57341
 C2188 C 0.80062 0.22754 0.56458
 H2189 H 0.81642 0.21508 0.59396
 H2190 H 0.78357 0.20599 0.56923
 H2191 H 0.78778 0.18600 0.59177
 H2192 H 0.81184 0.23537 0.56944
 C2193 C 0.71221 0.68907 0.40438
 C2194 C 0.70711 0.70303 0.41339
 C2195 C 0.71752 0.70846 0.42868
 C2196 C 0.71196 0.72199 0.43813
 H2197 H 0.69518 0.71049 0.40955
 H2198 H 0.72946 0.70099 0.43243
 H2199 H 0.72417 0.68172 0.40838
 H2200 H 0.69944 0.72868 0.43448
 C2201 C 0.69562 0.20283 -0.09826
 C2202 C 0.70938 0.19760 -0.08819
 C2203 C 0.71493 0.20843 -0.07350
 C2204 C 0.72748 0.20309 -0.06214
 H2205 H 0.71622 0.18532 -0.09050
 H2206 H 0.70852 0.22103 -0.07211
 H2207 H 0.68876 0.21501 -0.09547
 H2208 H 0.73432 0.19075 -0.06424
 C2209 C 0.20548 0.69293 -0.09381
 C2210 C 0.20033 0.70722 -0.08538
 C2211 C 0.21009 0.71240 -0.06966
 C2212 C 0.20510 0.72643 -0.06067
 H2213 H 0.18890 0.71498 -0.08990
 H2214 H 0.22166 0.70460 -0.06560
 H2215 H 0.21690 0.68531 -0.08901
 H2216 H 0.19405 0.73452 -0.06547
 C2217 C 0.20214 0.19285 0.40469
 C2218 C 0.19730 0.20767 0.41239
 C2219 C 0.20573 0.21231 0.42895
 C2220 C 0.20353 0.22796 0.43612
 H2221 H 0.18751 0.21639 0.40645
 H2222 H 0.21449 0.20279 0.43508
 H2223 H 0.21241 0.18463 0.41064
 H2224 H 0.19580 0.23784 0.42933
 C2225 C 0.29338 0.40467 0.68942
 C2226 C 0.29852 0.41352 0.70334
 C2227 C 0.28823 0.42912 0.70863
 C2228 C 0.29317 0.43840 0.72236
 H2229 H 0.31014 0.40923 0.71090
 H2230 H 0.27668 0.43320 0.70088
 H2231 H 0.28164 0.40912 0.68210
 H2232 H 0.30537 0.43463 0.72941
 C2233 C 0.29560 0.90293 0.18684
 C2234 C 0.29855 0.91154 0.20145
 C2235 C 0.28819 0.92754 0.20521
 C2236 C 0.28990 0.93580 0.22022
 H2237 H 0.30854 0.90684 0.21063
 H2238 H 0.27879 0.93240 0.19559
 H2239 H 0.28531 0.90767 0.17795
 H2240 H 0.29854 0.93017 0.23009
 C2241 C 0.79083 0.40147 0.18247
 C2242 C 0.79377 0.41049 0.19687
 C2243 C 0.78283 0.42612 0.20085
 C2244 C 0.78513 0.43472 0.21563
 H2245 H 0.80427 0.40639 0.20582
 H2246 H 0.77262 0.43034 0.19168
 H2247 H 0.78013 0.40561 0.17373
 H2248 H 0.79478 0.42964 0.22495
 C2249 C 0.79090 0.90176 0.69235
 C2250 C 0.79646 0.91111 0.70585
 C2251 C 0.78594 0.92627 0.71212
 C2252 C 0.79270 0.93624 0.72471
 H2253 H 0.80907 0.90770 0.71238
 H2254 H 0.77297 0.92946 0.70612
 H2255 H 0.77842 0.90541 0.68570
 H2256 H 0.80618 0.93316 0.72979
 C2257 C 0.69352 0.59720 0.70080
 C2258 C 0.70847 0.58795 0.69676
 C2259 C 0.71340 0.57232 0.70664
 C2260 C 0.72876 0.56345 0.70294
 H2261 H 0.71721 0.59188 0.68611
 H2262 H 0.70453 0.56833 0.71715
 H2263 H 0.68496 0.59321 0.71158
 H2264 H 0.73779 0.56830 0.69287
 C2265 C 0.70333 0.09945 0.19399
 C2266 C 0.69611 0.08921 0.20614
 C2267 C 0.70608 0.07337 0.21119
 C2268 C 0.70072 0.06354 0.22449
 H2269 H 0.68334 0.09265 0.21253
 H2270 H 0.71808 0.06978 0.20371
 H2271 H 0.71636 0.09590 0.18811
 H2272 H 0.68816 0.06687 0.23132
 C2273 C 0.20833 0.59955 0.18841
 C2274 C 0.20369 0.59045 0.20242
 C2275 C 0.21400 0.57479 0.20738
 C2276 C 0.20890 0.56548 0.22115
 H2277 H 0.19211 0.59445 0.21029
 H2278 H 0.22543 0.57070 0.19938
 H2279 H 0.21996 0.59544 0.18063
 H2280 H 0.19687 0.56958 0.22840
 C2281 C 0.21158 0.09852 0.69295
 C2282 C 0.20505 0.08826 0.70542
 C2283 C 0.21538 0.07276 0.71074
 C2284 C 0.20911 0.06242 0.72331
 H2285 H 0.19201 0.09113 0.71160
 H2286 H 0.22794 0.06971 0.70387
 H2287 H 0.22472 0.09552 0.68697
 H2288 H 0.19610 0.06564 0.72944
 C2289 C 0.29583 0.59681 0.30867
 C2290 C 0.30152 0.58861 0.29451
 C2291 C 0.29181 0.57276 0.28906
 C2292 C 0.29632 0.56421 0.27471
 H2293 H 0.31297 0.59357 0.28699
 H2294 H 0.28082 0.56792 0.29723
 H2295 H 0.28421 0.59163 0.31585
 H2296 H 0.30801 0.56861 0.26713
 C2297 C 0.29906 0.09501 0.80889
 C2298 C 0.30357 0.08731 0.79412
 C2299 C 0.29387 0.07128 0.78923
 C2300 C 0.29735 0.06297 0.77452
 H2301 H 0.31394 0.09286 0.78567
 H2302 H 0.28373 0.06607 0.79811
 H2303 H 0.28849 0.08921 0.81698
 H2304 H 0.30828 0.06761 0.76614
 C2305 C 0.79517 0.59835 0.80782
 C2306 C 0.80256 0.58935 0.79483
 C2307 C 0.79329 0.57359 0.78839
 C2308 C 0.80045 0.56414 0.77557
 H2309 H 0.81530 0.59360 0.78886
 H2310 H 0.78056 0.56959 0.79454
 H2311 H 0.78241 0.59387 0.81361
 H2312 H 0.81369 0.56790 0.77021
 C2313 C 0.78809 0.09965 0.31512
 C2314 C 0.79255 0.09093 0.30084
 C2315 C 0.78217 0.07547 0.29537
 C2316 C 0.78752 0.06661 0.28142
 H2317 H 0.80414 0.09509 0.29305
 H2318 H 0.77057 0.07114 0.30306
 H2319 H 0.77645 0.09544 0.32286
 H2320 H 0.79971 0.07095 0.27452
 C2321 C 0.70066 0.40053 0.30852
 C2322 C 0.69565 0.40807 0.29377
 C2323 C 0.70426 0.42454 0.28817
 C2324 C 0.70025 0.43175 0.27297
 H2325 H 0.68519 0.40217 0.28582
 H2326 H 0.71423 0.43059 0.29653
 H2327 H 0.71132 0.40652 0.31620
 H2328 H 0.69099 0.42495 0.26442
 C2329 C 0.69317 0.90062 0.80501
 C2330 C 0.70736 0.91068 0.80939
 C2331 C 0.71136 0.92655 0.79935
 C2332 C 0.72596 0.93656 0.80264
 H2333 H 0.71595 0.90727 0.82021
 H2334 H 0.70233 0.92977 0.78879
 H2335 H 0.68489 0.90425 0.79402
 H2336 H 0.73543 0.93260 0.81263
 C2337 C 0.19349 0.40369 0.79624
 C2338 C 0.20789 0.41353 0.80044
 C2339 C 0.21235 0.42889 0.78994
 C2340 C 0.22538 0.44017 0.79457
 H2341 H 0.21587 0.41067 0.81181
 H2342 H 0.20467 0.43096 0.77824
 H2343 H 0.18540 0.40707 0.78505
 H2344 H 0.23358 0.43747 0.80586
 C2345 C 0.20076 0.90445 0.30435
 C2346 C 0.19539 0.91174 0.28962
 C2347 C 0.20395 0.92819 0.28402
 C2348 C 0.20013 0.93563 0.26891
 H2349 H 0.18481 0.90574 0.28187
 H2350 H 0.21393 0.93416 0.29245
 H2351 H 0.21156 0.91061 0.31173
 H2352 H 0.19105 0.92905 0.26003
 C2353 C 0.39820 0.30523 0.69769
 C2354 C 0.40651 0.29037 0.69337
 C2355 C 0.42293 0.28447 0.70280
 C2356 C 0.43121 0.26940 0.69907
 H2357 H 0.40130 0.28259 0.68289
 H2358 H 0.42807 0.29258 0.71305
 H2359 H 0.40353 0.31276 0.70833
 H2360 H 0.42522 0.26114 0.68932
 C2361 C 0.40204 0.80763 0.20721
 C2362 C 0.41028 0.79244 0.20402
 C2363 C 0.42620 0.78655 0.21410
 C2364 C 0.43402 0.77113 0.21087
 H2365 H 0.40540 0.78424 0.19371
 H2366 H 0.43142 0.79490 0.22412
 H2367 H 0.40684 0.81567 0.21770
 H2368 H 0.42786 0.76282 0.20124
 C2369 C 0.90153 0.31254 0.20626
 C2370 C 0.91125 0.29801 0.20380
 C2371 C 0.92737 0.29416 0.21454
 C2372 C 0.93689 0.27941 0.21258
 H2373 H 0.90745 0.28896 0.19379
 H2374 H 0.93127 0.30348 0.22426
 H2375 H 0.90540 0.32138 0.21646
 H2376 H 0.93210 0.26986 0.20340
 C2377 C 0.90084 0.80943 0.70644
 C2378 C 0.90899 0.79429 0.70285
 C2379 C 0.92515 0.78816 0.71245
 C2380 C 0.93261 0.77267 0.70886
 H2381 H 0.90381 0.78623 0.69257
 H2382 H 0.93078 0.79636 0.72239
 H2383 H 0.90586 0.81732 0.71695
 H2384 H 0.92601 0.76455 0.69932
 C2385 C 0.59529 0.30024 0.30877
 C2386 C 0.58757 0.30348 0.29359
 C2387 C 0.57108 0.29354 0.28870
 C2388 C 0.56270 0.29563 0.27360
 H2389 H 0.59329 0.31317 0.28496
 H2390 H 0.56596 0.28391 0.29771
 H2391 H 0.58928 0.29036 0.31704
 H2392 H 0.56854 0.30452 0.26421
 C2393 C 0.59831 0.79484 0.81160
 C2394 C 0.58945 0.79946 0.79733
 C2395 C 0.57289 0.78991 0.79211
 C2396 C 0.56427 0.79341 0.77738
 H2397 H 0.59433 0.81019 0.78952
 H2398 H 0.56790 0.77961 0.80042
 H2399 H 0.59340 0.78384 0.81906
 H2400 H 0.57005 0.80298 0.76864
 C2401 C 0.09888 0.30398 0.79883
 C2402 C 0.09118 0.28855 0.80197
 C2403 C 0.07552 0.28298 0.79137
 C2404 C 0.06646 0.26813 0.79426
 H2405 H 0.09609 0.28037 0.81231
 H2406 H 0.07087 0.29173 0.78140
 H2407 H 0.09357 0.31190 0.78844
 H2408 H 0.07056 0.25996 0.80494
 C2409 C 0.10135 0.79887 0.30848
 C2410 C 0.09197 0.80355 0.29451
 C2411 C 0.07564 0.79353 0.28930
 C2412 C 0.06583 0.79792 0.27546
 H2413 H 0.09612 0.81483 0.28708
 H2414 H 0.07178 0.78232 0.29693
 H2415 H 0.09693 0.78757 0.31575
 H2416 H 0.07051 0.80867 0.26753
 C2417 C 0.60006 0.70425 0.68766
 C2418 C 0.59158 0.70119 0.70263
 C2419 C 0.57515 0.71116 0.70757
 C2420 C 0.56712 0.70887 0.72291
 H2421 H 0.59668 0.69127 0.71127
 H2422 H 0.56974 0.72058 0.69857
 H2423 H 0.59500 0.71444 0.67929
 H2424 H 0.57339 0.70009 0.73208
 C2425 C 0.59756 0.20025 0.18576
 C2426 C 0.59008 0.19865 0.20141
 C2427 C 0.57357 0.20878 0.20601
 C2428 C 0.56584 0.20770 0.22164
 H2429 H 0.59600 0.18988 0.21077
 H2430 H 0.56786 0.21737 0.19640
 H2431 H 0.59152 0.20923 0.17664
 H2432 H 0.57238 0.19970 0.23132
 C2433 C 0.09897 0.69209 0.20611
 C2434 C 0.08944 0.70619 0.20156
 C2435 C 0.07362 0.71235 0.21173
 C2436 C 0.06373 0.72591 0.20626
 H2437 H 0.09316 0.71332 0.19004
 H2438 H 0.06984 0.70544 0.22336
 H2439 H 0.09514 0.68498 0.21763
 H2440 H 0.06740 0.73195 0.19410
 C2441 C 0.10065 0.18873 0.69998
 C2442 C 0.09189 0.20368 0.69711
 C2443 C 0.07581 0.20837 0.70779
 C2444 C 0.06624 0.22291 0.70495
 H2445 H 0.09636 0.21229 0.68688
 H2446 H 0.07147 0.19937 0.71772
 H2447 H 0.09596 0.18036 0.71035
 H2448 H 0.07032 0.23126 0.69435
 C2449 C 0.39730 0.70153 0.31123
 C2450 C 0.40726 0.69595 0.29785
 C2451 C 0.42377 0.70555 0.29210
 C2452 C 0.43442 0.69940 0.27941
 H2453 H 0.40341 0.68417 0.29119
 H2454 H 0.42742 0.71741 0.29869
 H2455 H 0.40143 0.71326 0.31786
 H2456 H 0.43085 0.68704 0.27365
 C2457 C 0.39786 0.20092 0.80530
 C2458 C 0.40656 0.19547 0.79112
 C2459 C 0.42264 0.20498 0.78428
 C2460 C 0.43211 0.19892 0.77077
 H2461 H 0.40196 0.18387 0.78458
 H2462 H 0.42703 0.21670 0.79074
 H2463 H 0.40270 0.21249 0.81179
 H2464 H 0.42797 0.18666 0.76513
 C2465 C 0.89897 0.69993 0.81114
 C2466 C 0.90768 0.69520 0.79671
 C2467 C 0.92402 0.70484 0.79054
 C2468 C 0.93365 0.69933 0.77689
 H2469 H 0.90289 0.68410 0.78946
 H2470 H 0.92843 0.71621 0.79757
 H2471 H 0.90405 0.71095 0.81835
 H2472 H 0.92945 0.68739 0.77065
 C2473 C 0.90106 0.18828 0.29826
 C2474 C 0.90952 0.20338 0.30130
 C2475 C 0.92623 0.20860 0.29184
 C2476 C 0.93370 0.22424 0.29455
 H2477 H 0.90414 0.21211 0.31100
 H2478 H 0.93226 0.19967 0.28267
 H2479 H 0.90620 0.17977 0.28825
 H2480 H 0.92673 0.23317 0.30317
 C2481 C 0.29636 0.30820 0.59436
 C2482 C 0.30115 0.29382 0.58587
 C2483 C 0.29135 0.28920 0.56996
 C2484 C 0.29497 0.27459 0.56131
 H2485 H 0.31190 0.28543 0.59072
 H2486 H 0.28108 0.29816 0.56523
 H2487 H 0.28533 0.31621 0.58937
 H2488 H 0.30593 0.26620 0.56576
 C2489 C 0.31252 0.79748 0.09769
 C2490 C 0.29696 0.80104 0.08934
 C2491 C 0.29209 0.79175 0.07349
 C2492 C 0.27573 0.79425 0.06610
 H2493 H 0.28762 0.81085 0.09421
 H2494 H 0.30188 0.78266 0.06805
 H2495 H 0.32154 0.78732 0.09297
 H2496 H 0.26580 0.80266 0.07237
 C2497 C 0.81327 0.29273 0.09702
 C2498 C 0.79986 0.29708 0.08614
 C2499 C 0.79600 0.28631 0.07093
 C2500 C 0.78277 0.29072 0.05985
 H2501 H 0.79175 0.30867 0.08834
 H2502 H 0.80396 0.27460 0.06907
 H2503 H 0.82133 0.28114 0.09459
 H2504 H 0.77459 0.30219 0.06253
 C2505 C 0.81009 0.79775 0.59914
 C2506 C 0.79563 0.80142 0.58927
 C2507 C 0.79183 0.79086 0.57388
 C2508 C 0.77797 0.79479 0.56334
 H2509 H 0.78666 0.81219 0.59245
 H2510 H 0.80087 0.78008 0.57095
 H2511 H 0.81890 0.78692 0.59573
 H2512 H 0.76970 0.80618 0.56608
 C2513 C 0.28874 0.69142 0.40650
 C2514 C 0.29381 0.70517 0.41577
 C2515 C 0.28327 0.70998 0.43126
 C2516 C 0.28820 0.72349 0.44097
 H2517 H 0.30570 0.71282 0.41201
 H2518 H 0.27158 0.70202 0.43489
 H2519 H 0.27681 0.68391 0.41050
 H2520 H 0.30051 0.73071 0.43752
 C2521 C 0.29400 0.19142 0.90531
 C2522 C 0.29834 0.20593 0.91369
 C2523 C 0.28770 0.21072 0.92911
 C2524 C 0.29103 0.22530 0.93781
 H2525 H 0.30938 0.21426 0.90916
 H2526 H 0.27704 0.20189 0.93349
 H2527 H 0.28279 0.18339 0.91007
 H2528 H 0.30243 0.23355 0.93391
 C2529 C 0.79073 0.69411 0.90634
 C2530 C 0.79870 0.70561 0.91681
 C2531 C 0.78914 0.71221 0.93227
 C2532 C 0.79776 0.72304 0.94300
 H2533 H 0.81247 0.71026 0.91403
 H2534 H 0.77521 0.70793 0.93491
 H2535 H 0.77702 0.68938 0.90931
 H2536 H 0.81200 0.72639 0.94027
 C2537 C 0.81043 0.20456 0.40605
 C2538 C 0.79570 0.20165 0.41602
 C2539 C 0.79290 0.21213 0.43164
 C2540 C 0.77779 0.21050 0.44143
 H2541 H 0.78582 0.19168 0.41271
 H2542 H 0.80329 0.22163 0.43493
 H2543 H 0.82000 0.21477 0.40952
 H2544 H 0.76699 0.20170 0.43742
 C2545 C 0.69412 0.30225 0.40809
 C2546 C 0.71000 0.30602 0.41577
 C2547 C 0.71490 0.29717 0.43191
 C2548 C 0.73135 0.29936 0.43920
 H2549 H 0.71937 0.31543 0.41015
 H2550 H 0.70496 0.28835 0.43762
 H2551 H 0.68513 0.29251 0.41375
 H2552 H 0.74154 0.30740 0.43277
 C2553 C 0.69986 0.80279 0.90796
 C2554 C 0.71452 0.80832 0.91669
 C2555 C 0.71952 0.79946 0.93285
 C2556 C 0.73516 0.80287 0.94119
 H2557 H 0.72281 0.81900 0.91189
 H2558 H 0.71034 0.78946 0.93769
 H2559 H 0.69213 0.79177 0.91285
 H2560 H 0.74482 0.81209 0.93567
 C2561 C 0.20439 0.30938 0.89929
 C2562 C 0.19897 0.29555 0.90843
 C2563 C 0.20858 0.29077 0.92441
 C2564 C 0.20312 0.27712 0.93383
 H2565 H 0.18738 0.28782 0.90424
 H2566 H 0.21987 0.29886 0.92859
 H2567 H 0.21601 0.31697 0.90368
 H2568 H 0.19128 0.26975 0.92955
 C2569 C 0.20491 0.81132 0.40597
 C2570 C 0.19915 0.79749 0.41489
 C2571 C 0.20849 0.79230 0.43081
 C2572 C 0.20267 0.77859 0.43994
 H2573 H 0.18752 0.78993 0.41049
 H2574 H 0.21996 0.80006 0.43518
 H2575 H 0.21657 0.81876 0.41054
 H2576 H 0.19059 0.77159 0.43561
 C2577 C 0.71045 0.68886 0.59632
 C2578 C 0.70539 0.70283 0.58727
 C2579 C 0.71562 0.70821 0.57177
 C2580 C 0.71058 0.72237 0.56296
 H2581 H 0.69352 0.71036 0.59118
 H2582 H 0.72742 0.70063 0.56776
 H2583 H 0.72236 0.68142 0.59229
 H2584 H 0.69926 0.73017 0.56780
 C2585 C 0.71036 0.19264 0.09779
 C2586 C 0.70378 0.20395 0.08635
 C2587 C 0.71497 0.20875 0.07123
 C2588 C 0.70987 0.22156 0.06066
 H2589 H 0.69036 0.20979 0.08822
 H2590 H 0.72738 0.20141 0.06880
 H2591 H 0.72408 0.18737 0.09600
 H2592 H 0.69704 0.22827 0.06328
 C2593 C 0.18893 0.70387 0.09695
 C2594 C 0.20402 0.70061 0.08762
 C2595 C 0.20784 0.71083 0.07200
 C2596 C 0.22331 0.70864 0.06287
 H2597 H 0.21353 0.69052 0.09147
 H2598 H 0.19793 0.72058 0.06819
 H2599 H 0.17972 0.71419 0.09301
 H2600 H 0.23361 0.69958 0.06744
 C2601 C 0.20248 0.19352 0.59535
 C2602 C 0.19743 0.20790 0.58702
 C2603 C 0.20720 0.21265 0.57101
 C2604 C 0.20368 0.22732 0.56241
 H2605 H 0.18652 0.21609 0.59200
 H2606 H 0.21737 0.20365 0.56607
 H2607 H 0.21375 0.18584 0.59023
 H2608 H 0.19279 0.23578 0.56697
   
