data_POSCAR
  _audit_creation_date              2014-09-24
  _audit_creation_method            'ToBaCCo'
  _symmetry_space_group_name_H-M    'P1'
  _symmetry_Int_Tables_number       1
  _symmetry_cell_setting            triclinic
  loop_
  _symmetry_equiv_pos_as_xyz
 x,y,z
_cell_length_a 37.0459
_cell_length_b 36.3485
_cell_length_c 31.1604
_cell_angle_alpha 88.904500
_cell_angle_beta 90.440500
_cell_angle_gamma 91.978500
loop_
  _atom_site_label
  _atom_site_type_symbol
  _atom_site_fract_x
  _atom_site_fract_y
  _atom_site_fract_z
C1 C 0.32566 -0.04313 0.23070
 C2 C 0.34886 -0.01210 0.22549
 C3 C 0.37691 -0.01347 0.19611
 C4 C 0.37860 -0.04092 0.16487
 C5 C 0.35512 -0.07198 0.17048
 C6 C 0.32992 -0.07440 0.20481
 C7 C 0.34895 0.02038 0.25393
 C8 C 0.37796 0.02471 0.28280
 C9 C 0.38665 0.05898 0.30114
 C10 C 0.36420 0.08847 0.29304
 C11 C 0.33526 0.08516 0.26417
 C12 C 0.32751 0.05102 0.24444
 H13 H 0.30714 -0.04415 0.25745
 H14 H 0.39817 0.00728 0.19913
 H15 H 0.39535 0.00172 0.28881
 H16 H 0.30645 0.04895 0.22022
 H17 H 0.35681 -0.09501 0.14919
 H18 H 0.37106 0.11520 0.30626
 C19 C 0.17948 -0.04753 0.76374
 C20 C 0.15978 -0.01814 0.77970
 C21 C 0.13249 -0.02568 0.80970
 C22 C 0.12506 -0.06146 0.82537
 C23 C 0.14612 -0.08980 0.81183
 C24 C 0.17261 -0.08361 0.78007
 C25 C 0.15986 0.01888 0.75921
 C26 C 0.13495 0.02334 0.72570
 C27 C 0.12288 0.05821 0.71368
 C28 C 0.13942 0.08913 0.73240
 C29 C 0.16501 0.08596 0.76629
 C30 C 0.17489 0.05034 0.77985
 H31 H 0.19843 -0.04272 0.73778
 H32 H 0.11642 -0.00336 0.82075
 H33 H 0.12198 -0.00098 0.71193
 H34 H 0.19261 0.04704 0.80736
 H35 H 0.14108 -0.11726 0.82476
 H36 H 0.13223 0.11598 0.72006
 C37 C 0.66432 0.45159 0.25931
 C38 C 0.64588 0.48299 0.27194
 C39 C 0.61701 0.47864 0.30039
 C40 C 0.60559 0.44381 0.31588
 C41 C 0.62337 0.41285 0.30263
 C42 C 0.65336 0.41635 0.27549
 C43 C 0.64936 0.51888 0.24894
 C44 C 0.62579 0.52317 0.21410
 C45 C 0.61921 0.55782 0.19647
 C46 C 0.63884 0.58842 0.21157
 C47 C 0.66186 0.58571 0.24804
 C48 C 0.66706 0.55042 0.26671
 H49 H 0.68652 0.45444 0.23696
 H50 H 0.60276 0.50267 0.31012
 H51 H 0.61050 0.49938 0.20229
 H52 H 0.68304 0.54773 0.29578
 H53 H 0.61483 0.38605 0.31470
 H54 H 0.63482 0.61484 0.19586
 C55 C 0.81953 0.43782 0.74081
 C56 C 0.84127 0.46971 0.73150
 C57 C 0.86678 0.46879 0.69884
 C58 C 0.87057 0.43754 0.67401
 C59 C 0.84723 0.40693 0.68117
 C60 C 0.82210 0.40606 0.71531
 C61 C 0.84223 0.50334 0.75785
 C62 C 0.86706 0.50511 0.79218
 C63 C 0.87888 0.53909 0.80961
 C64 C 0.86271 0.57114 0.79396
 C65 C 0.83774 0.57038 0.75912
 C66 C 0.82761 0.53617 0.74140
 H67 H 0.80179 0.43736 0.76828
 H68 H 0.88454 0.49273 0.69314
 H69 H 0.87983 0.48003 0.80260
 H70 H 0.81030 0.53529 0.71324
 H71 H 0.84964 0.38307 0.66121
 H72 H 0.86974 0.59707 0.80903
 C73 C 0.24353 0.38116 1.06832
 C74 C 0.26390 0.40152 1.03795
 C75 C 0.29677 0.41798 1.05006
 C76 C 0.30968 0.41579 1.09247
 C77 C 0.28911 0.39525 1.12299
 C78 C 0.25640 0.37645 1.11061
 C79 C 0.25004 0.40716 0.99392
 C80 C 0.21990 0.42882 0.98807
 C81 C 0.20429 0.43338 0.94747
 C82 C 0.21869 0.41533 0.91256
 C83 C 0.25053 0.39510 0.91695
 C84 C 0.26603 0.39105 0.95822
 H85 H 0.21757 0.36903 1.05895
 H86 H 0.31364 0.43068 1.02563
 H87 H 0.20759 0.44103 1.01563
 H88 H 0.28986 0.37493 0.96277
 H89 H 0.29996 0.39133 1.15509
 H90 H 0.20444 0.41638 0.88208
 C91 C 0.76882 0.10418 1.06697
 C92 C 0.75990 0.07990 1.03342
 C93 C 0.73406 0.05181 1.03951
 C94 C 0.71305 0.05075 1.07612
 C95 C 0.72373 0.07186 1.11126
 C96 C 0.75084 0.10032 1.10699
 C97 C 0.77408 0.08429 0.98979
 C98 C 0.80455 0.06482 0.98015
 C99 C 0.81583 0.06171 0.93786
 C100 C 0.79587 0.07807 0.90471
 C101 C 0.76374 0.09670 0.91329
 C102 C 0.75321 0.09995 0.95637
 H103 H 0.78697 0.12755 1.06035
 H104 H 0.72555 0.03529 1.01231
 H105 H 0.82024 0.05266 1.00600
 H106 H 0.72833 0.11321 0.96380
 H107 H 0.70723 0.06954 1.13982
 H108 H 0.80641 0.07771 0.87237
 C109 C 0.25304 0.62861 0.55339
 C110 C 0.23971 0.60896 0.51820
 C111 C 0.20759 0.58794 0.52154
 C112 C 0.18896 0.58478 0.56046
 C113 C 0.20172 0.60598 0.59559
 C114 C 0.23366 0.62868 0.59187
 C115 C 0.25877 0.61113 0.47716
 C116 C 0.29212 0.59473 0.47283
 C117 C 0.31016 0.59631 0.43343
 C118 C 0.29523 0.61639 0.39889
 C119 C 0.26169 0.63355 0.40331
 C120 C 0.24313 0.62932 0.44214
 H121 H 0.27823 0.64453 0.55049
 H122 H 0.19739 0.57332 0.49369
 H123 H 0.30384 0.58026 0.50002
 H124 H 0.21658 0.64056 0.44538
 H125 H 0.18714 0.60465 0.62560
 H126 H 0.30963 0.61864 0.36877
 C127 C 0.74004 0.88905 0.56687
 C128 C 0.75559 0.91022 0.53336
 C129 C 0.78518 0.93346 0.54172
 C130 C 0.80039 0.93603 0.58304
 C131 C 0.78560 0.91351 0.61645
 C132 C 0.75615 0.88869 0.60805
 C133 C 0.74132 0.90845 0.48914
 C134 C 0.71131 0.92885 0.47843
 C135 C 0.69704 0.92841 0.43680
 C136 C 0.71220 0.90621 0.40599
 C137 C 0.74308 0.88580 0.41566
 C138 C 0.75830 0.88825 0.45730
 H139 H 0.71689 0.87095 0.56018
 H140 H 0.79734 0.94892 0.51526
 H141 H 0.69855 0.94475 0.50286
 H142 H 0.78294 0.87431 0.46513
 H143 H 0.79879 0.91289 0.64760
 H144 H 0.69944 0.90433 0.37465
 C145 C -0.05374 0.23990 0.35306
 C146 C -0.02003 0.23629 0.37281
 C147 C -0.01401 0.20713 0.40082
 C148 C -0.04155 0.18183 0.41096
 C149 C -0.07375 0.18228 0.38716
 C150 C -0.08070 0.21147 0.35725
 C151 C 0.00747 0.26572 0.37385
 C152 C 0.00318 0.29282 0.40378
 C153 C 0.03307 0.31316 0.41846
 C154 C 0.06789 0.30283 0.40792
 C155 C 0.07310 0.27350 0.37925
 C156 C 0.04188 0.25863 0.35882
 H157 H -0.05899 0.26560 0.33651
 H158 H 0.01137 0.20654 0.41853
 H159 H -0.02363 0.29870 0.41505
 H160 H 0.04320 0.23981 0.33268
 H161 H -0.09257 0.15920 0.39199
 H162 H 0.08987 0.31952 0.42062
 C163 C -0.04450 0.75337 0.15164
 C164 C -0.01769 0.75875 0.12088
 C165 C -0.01263 0.79234 0.09949
 C166 C -0.03314 0.82185 0.11010
 C167 C -0.05907 0.81753 0.14231
 C168 C -0.06569 0.78293 0.16290
 C169 C 0.00812 0.73112 0.11272
 C170 C 0.00180 0.70673 0.07956
 C171 C 0.03029 0.68675 0.06433
 C172 C 0.06543 0.69615 0.07787
 C173 C 0.07117 0.71577 0.11639
 C174 C 0.04169 0.73364 0.13322
 H175 H -0.04758 0.72683 0.16790
 H176 H 0.00854 0.79596 0.07573
 H177 H -0.02534 0.70212 0.06702
 H178 H 0.04441 0.75064 0.16121
 H179 H -0.07431 0.84113 0.15049
 H180 H 0.08748 0.68454 0.06086
 C181 C 0.45631 0.25930 0.65485
 C182 C 0.48408 0.26402 0.62485
 C183 C 0.48513 0.29483 0.59733
 C184 C 0.45851 0.32090 0.59933
 C185 C 0.43072 0.31643 0.62936
 C186 C 0.42950 0.28552 0.65708
 C187 C 0.51006 0.23535 0.61813
 C188 C 0.50784 0.21592 0.57972
 C189 C 0.53477 0.19205 0.56924
 C190 C 0.56485 0.18955 0.59637
 C191 C 0.56526 0.20443 0.63820
 C192 C 0.53759 0.22836 0.64831
 H193 H 0.45472 0.23470 0.67506
 H194 H 0.50652 0.29829 0.57386
 H195 H 0.48458 0.21861 0.55869
 H196 H 0.53752 0.24202 0.67886
 H197 H 0.40979 0.33648 0.63056
 H198 H 0.58682 0.17363 0.58509
 C199 C 0.45151 0.74990 0.86358
 C200 C 0.48475 0.73969 0.88096
 C201 C 0.48658 0.70949 0.90894
 C202 C 0.45558 0.68811 0.91974
 C203 C 0.42292 0.69682 0.89955
 C204 C 0.42027 0.72877 0.87314
 C205 C 0.51586 0.76520 0.87977
 C206 C 0.51587 0.79418 0.90816
 C207 C 0.54583 0.81785 0.91184
 C208 C 0.57622 0.81255 0.88616
 C209 C 0.57811 0.78113 0.86044
 C210 C 0.54697 0.75807 0.85641
 H211 H 0.44982 0.77501 0.84445
 H212 H 0.51220 0.70412 0.92461
 H213 H 0.49200 0.79876 0.92709
 H214 H 0.54724 0.73417 0.83618
 H215 H 0.39939 0.67866 0.90417
 H216 H 0.59785 0.83286 0.88603
 C217 C -0.30026 0.57473 0.99954
 C218 C -0.26682 0.58766 1.01684
 C219 C -0.26633 0.61520 1.04780
 C220 C -0.29832 0.63037 1.06156
 C221 C -0.33122 0.61599 1.04609
 C222 C -0.33307 0.58948 1.01309
 C223 C -0.23289 0.58328 0.99315
 C224 C -0.22706 0.60803 0.95895
 C225 C -0.19300 0.61319 0.94049
 C226 C -0.16547 0.59004 0.95307
 C227 C -0.17029 0.56429 0.98739
 C228 C -0.20409 0.56194 1.00846
 H229 H -0.30025 0.55578 0.97315
 H230 H -0.24065 0.62689 1.05886
 H231 H -0.24875 0.62564 0.94871
 H232 H -0.20757 0.54490 1.03711
 H233 H -0.35556 0.62601 1.06018
 H234 H -0.13979 0.59267 0.93658
 C235 C -0.30588 0.42344 0.50824
 C236 C -0.27489 0.40897 0.48989
 C237 C -0.27865 0.38551 0.45525
 C238 C -0.31241 0.36918 0.44511
 C239 C -0.34321 0.38347 0.46433
 C240 C -0.34083 0.41402 0.49237
 C241 C -0.24102 0.40675 0.51484
 C242 C -0.23849 0.37742 0.54396
 C243 C -0.20771 0.37228 0.56993
 C244 C -0.17696 0.39512 0.56133
 C245 C -0.17768 0.42259 0.52800
 C246 C -0.21017 0.42831 0.50534
 H247 H -0.30273 0.44004 0.53662
 H248 H -0.25436 0.37555 0.44095
 H249 H -0.26128 0.35797 0.54576
 H250 H -0.21099 0.44795 0.47880
 H251 H -0.36887 0.37027 0.45763
 H252 H -0.15224 0.39083 0.57923
 C253 C 0.21217 -0.07972 -0.01178
 C254 C 0.23880 -0.09944 -0.03211
 C255 C 0.22844 -0.12643 -0.06155
 C256 C 0.19210 -0.13929 -0.06620
 C257 C 0.16561 -0.11804 -0.04614
 C258 C 0.17528 -0.08655 -0.02096
 C259 C 0.27524 -0.10207 -0.01263
 C260 C 0.28030 -0.13162 0.01585
 C261 C 0.31400 -0.13791 0.03485
 C262 C 0.34320 -0.11400 0.02505
 C263 C 0.33874 -0.08377 -0.00310
 C264 C 0.30465 -0.07787 -0.02237
 H265 H 0.22014 -0.06064 0.01313
 H266 H 0.24990 -0.14049 -0.07726
 H267 H 0.25735 -0.14973 0.02407
 H268 H 0.30120 -0.05498 -0.04461
 H269 H 0.13781 -0.12742 -0.04606
 H270 H 0.36897 -0.11762 0.04107
 C271 C 0.20619 1.08415 0.49563
 C272 C 0.23862 1.10249 0.50910
 C273 C 0.23845 1.12495 0.54526
 C274 C 0.20692 1.12887 0.56864
 C275 C 0.17580 1.10854 0.55731
 C276 C 0.17425 1.08751 0.51958
 C277 C 0.27140 1.10491 0.48223
 C278 C 0.27719 1.13661 0.45645
 C279 C 0.31072 1.14420 0.43665
 C280 C 0.33819 1.11909 0.44208
 C281 C 0.33326 1.08780 0.46839
 C282 C 0.29978 1.08054 0.48856
 H283 H 0.20537 1.06943 0.46574
 H284 H 0.26252 1.14112 0.55378
 H285 H 0.25558 1.15583 0.45253
 H286 H 0.29635 1.05699 0.51017
 H287 H 0.15154 1.11187 0.57592
 H288 H 0.36446 1.12513 0.42813
 C289 C 0.14711 0.47800 0.20051
 C290 C 0.16947 0.49622 0.23082
 C291 C 0.19178 0.52588 0.21819
 C292 C 0.18917 0.54093 0.17692
 C293 C 0.16522 0.52448 0.14728
 C294 C 0.14358 0.49274 0.15845
 C295 C 0.16702 0.48771 0.27698
 C296 C 0.18552 0.45828 0.29402
 C297 C 0.18174 0.44799 0.33730
 C298 C 0.15999 0.46836 0.36418
 C299 C 0.14103 0.49833 0.34725
 C300 C 0.14606 0.50888 0.30389
 H301 H 0.13188 0.45337 0.21033
 H302 H 0.20785 0.54034 0.24225
 H303 H 0.20081 0.44149 0.27272
 H304 H 0.13166 0.53192 0.29042
 H305 H 0.16098 0.53872 0.11689
 H306 H 0.15495 0.45863 0.39676
 C307 C -0.10896 1.01000 0.20305
 C308 C -0.13054 0.99212 0.23424
 C309 C -0.15127 0.96084 0.22419
 C310 C -0.15249 0.94704 0.18245
 C311 C -0.13143 0.96615 0.15059
 C312 C -0.10779 0.99669 0.16098
 C313 C -0.13631 1.00879 0.27592
 C314 C -0.16106 1.03679 0.27818
 C315 C -0.17026 1.05219 0.31757
 C316 C -0.15247 1.03896 0.35474
 C317 C -0.12894 1.00873 0.35333
 C318 C -0.12110 0.99401 0.31337
 H319 H -0.09479 1.03555 0.21114
 H320 H -0.16733 0.94759 0.24944
 H321 H -0.17420 1.04567 0.24871
 H322 H -0.10360 0.97086 0.31123
 H323 H -0.13388 0.95781 0.11753
 H324 H -0.15605 1.05298 0.38467
 C325 C 0.36747 0.50869 -0.30275
 C326 C 0.34825 0.48592 -0.27351
 C327 C 0.33234 0.45285 -0.28698
 C328 C 0.33364 0.44302 -0.33000
 C329 C 0.35356 0.46519 -0.35922
 C330 C 0.37208 0.49766 -0.34537
 C331 C 0.34358 0.49720 -0.22907
 C332 C 0.32100 0.52628 -0.22072
 C333 C 0.31798 0.53978 -0.17913
 C334 C 0.33835 0.52354 -0.14607
 C335 C 0.36022 0.49298 -0.15365
 C336 C 0.36256 0.48003 -0.19555
 H337 H 0.37901 0.53482 -0.29215
 H338 H 0.31841 0.43493 -0.26398
 H339 H 0.30738 0.53990 -0.24725
 H340 H 0.37965 0.45727 -0.20230
 H341 H 0.35572 0.45636 -0.39211
 H342 H 0.33861 0.53602 -0.11475
 C343 C 0.62664 -0.04172 -0.31777
 C344 C 0.65075 -0.03340 -0.28430
 C345 C 0.67651 -0.00471 -0.28872
 C346 C 0.67643 0.01837 -0.32479
 C347 C 0.65130 0.01135 -0.35748
 C348 C 0.62623 -0.01913 -0.35493
 C349 C 0.64439 -0.04757 -0.24091
 C350 C 0.66536 -0.07547 -0.22421
 C351 C 0.66926 -0.08064 -0.17961
 C352 C 0.64967 -0.05820 -0.15225
 C353 C 0.62562 -0.03203 -0.16931
 C354 C 0.62467 -0.02605 -0.21365
 H355 H 0.60846 -0.06555 -0.31440
 H356 H 0.69405 0.00223 -0.26179
 H357 H 0.68107 -0.09110 -0.24615
 H358 H 0.61056 -0.00276 -0.22699
 H359 H 0.65003 0.03108 -0.38393
 H360 H 0.65427 -0.05954 -0.11801
 C361 C -0.00956 0.20346 0.85267
 C362 C -0.01677 0.23268 0.82411
 C363 C -0.03949 0.22740 0.78899
 C364 C -0.05536 0.19321 0.78136
 C365 C -0.04288 0.16277 0.80464
 C366 C -0.02308 0.16755 0.84389
 C367 C 0.00349 0.26749 0.82480
 C368 C 0.02703 0.27392 0.79048
 C369 C 0.04996 0.30463 0.78987
 C370 C 0.04317 0.33287 0.81798
 C371 C 0.02337 0.32540 0.85631
 C372 C 0.00218 0.29244 0.85871
 H373 H 0.00702 0.20904 0.88062
 H374 H -0.04746 0.25100 0.76968
 H375 H 0.03153 0.25210 0.76799
 H376 H -0.01385 0.28546 0.88677
 H377 H -0.05165 0.13604 0.79344
 H378 H 0.05801 0.35861 0.81271
 C379 C 0.51120 0.20495 0.11601
 C380 C 0.50614 0.23141 0.14658
 C381 C 0.52475 0.23045 0.18539
 C382 C 0.54925 0.20300 0.19370
 C383 C 0.54982 0.17284 0.16587
 C384 C 0.52943 0.17296 0.12683
 C385 C 0.48094 0.26023 0.13851
 C386 C 0.45144 0.26252 0.16567
 C387 C 0.43020 0.29332 0.16391
 C388 C 0.43734 0.32065 0.13231
 C389 C 0.46687 0.31793 0.10430
 C390 C 0.48854 0.28746 0.10753
 H391 H 0.49949 0.20905 0.08446
 H392 H 0.52207 0.25266 0.20780
 H393 H 0.44589 0.24083 0.18935
 H394 H 0.51291 0.28641 0.08859
 H395 H 0.56697 0.15045 0.17452
 H396 H 0.42154 0.34522 0.13137
 C397 C 0.01333 0.71249 0.59132
 C398 C 0.01567 0.73790 0.62419
 C399 C 0.04207 0.73480 0.65617
 C400 C 0.06591 0.70601 0.65580
 C401 C 0.06395 0.68061 0.62296
 C402 C 0.03732 0.68361 0.59112
 C403 C -0.01235 0.76428 0.63031
 C404 C -0.03521 0.75850 0.66533
 C405 C -0.05477 0.78735 0.68101
 C406 C -0.05003 0.82199 0.66121
 C407 C -0.03341 0.82635 0.62041
 C408 C -0.01324 0.79701 0.60593
 H409 H -0.00875 0.71332 0.56831
 H410 H 0.04374 0.75459 0.68181
 H411 H -0.03651 0.73186 0.68169
 H412 H 0.00286 0.79957 0.57719
 H413 H 0.08205 0.65778 0.62311
 H414 H -0.06169 0.84488 0.67661
 C415 C 0.49959 0.71306 0.36416
 C416 C 0.49135 0.73979 0.33311
 C417 C 0.46030 0.73622 0.30852
 C418 C 0.43721 0.70550 0.31284
 C419 C 0.44465 0.67851 0.34417
 C420 C 0.47595 0.68235 0.36997
 C421 C 0.51357 0.77269 0.32481
 C422 C 0.53560 0.77434 0.28884
 C423 C 0.55321 0.80751 0.27713
 C424 C 0.54166 0.84021 0.29468
 C425 C 0.51978 0.83903 0.33191
 C426 C 0.50731 0.80437 0.34756
 H427 H 0.52406 0.71594 0.38325
 H428 H 0.45377 0.75821 0.28597
 H429 H 0.54267 0.74901 0.27358
 H430 H 0.49277 0.80137 0.37744
 H431 H 0.42635 0.65483 0.34846
 H432 H 0.55394 0.86573 0.28269
 B433 B -0.02017 0.02720 1.01631
 B434 B -0.03747 0.00975 0.97098
 B435 B -0.00152 0.03748 0.96486
 B436 B 0.02562 0.03131 1.00957
 B437 B 0.00633 -0.00367 1.03961
 B438 B -0.03323 -0.01722 1.01535
 B439 B 0.02290 -0.03174 0.96205
 B440 B 0.04051 -0.01284 1.00692
 B441 B 0.00380 -0.04186 1.01094
 B442 B -0.02341 -0.03465 0.96720
 B443 B -0.00316 -0.00131 0.93770
 B444 B 0.03559 0.01341 0.96168
 B445 B 0.46246 0.52889 0.51625
 B446 B 0.44778 0.52053 0.46496
 B447 B 0.48625 0.54600 0.47257
 B448 B 0.50838 0.52872 0.51580
 B449 B 0.48360 0.49179 0.53479
 B450 B 0.44564 0.48688 0.50336
 B451 B 0.50493 0.47620 0.45381
 B452 B 0.51973 0.48522 0.50376
 B453 B 0.48060 0.45960 0.49694
 B454 B 0.45920 0.47706 0.45324
 B455 B 0.48391 0.51330 0.43411
 B456 B 0.52131 0.51896 0.46565
 B457 B 0.53592 0.98730 0.49129
 B458 B 0.55664 1.00051 0.44484
 B459 B 0.52058 0.97087 0.44269
 B460 B 0.49089 0.98251 0.48031
 B461 B 0.50788 1.01989 0.50544
 B462 B 0.54906 1.03173 0.48349
 B463 B 0.49803 1.03902 0.42109
 B464 B 0.47637 1.02416 0.46639
 B465 B 0.51237 1.05509 0.46915
 B466 B 0.54283 1.04346 0.43153
 B467 B 0.52551 1.00559 0.40643
 B468 B 0.48485 0.99457 0.42742
 B469 B 0.04198 0.47558 1.01183
 B470 B 0.05625 0.49057 0.96262
 B471 B 0.02412 0.45697 0.96466
 B472 B -0.00309 0.46495 1.00750
 B473 B 0.01221 0.50495 1.02966
 B474 B 0.04907 0.52074 1.00159
 B475 B -0.01002 0.52038 0.94723
 B476 B -0.02389 0.50517 0.99580
 B477 B 0.00885 0.53904 0.99315
 B478 B 0.03547 0.53051 0.95045
 B479 B 0.01995 0.49113 0.92833
 B480 B -0.01625 0.47483 0.95665
 B481 B 0.03288 0.51985 0.47294
 B482 B 0.04784 0.50985 0.52378
 B483 B 0.01441 0.54017 0.51539
 B484 B -0.01267 0.52554 0.47535
 B485 B 0.00378 0.48612 0.45808
 B486 B 0.04146 0.47644 0.48716
 B487 B -0.01642 0.47444 0.54170
 B488 B -0.03183 0.48457 0.49216
 B489 B 0.00177 0.45451 0.49739
 B490 B 0.02881 0.46877 0.53911
 B491 B 0.01226 0.50868 0.55701
 B492 B -0.02474 0.51851 0.52701
 B493 B 0.54637 0.02123 -0.03176
 B494 B 0.56500 0.01215 0.01674
 B495 B 0.53211 0.04301 0.01352
 B496 B 0.50164 0.02831 -0.02414
 B497 B 0.51539 -0.01210 -0.04206
 B498 B 0.55511 -0.02232 -0.01684
 B499 B 0.50150 -0.02132 0.04346
 B500 B 0.48294 -0.01173 -0.00500
 B501 B 0.51609 -0.04330 -0.00131
 B502 B 0.54636 -0.02854 0.03614
 B503 B 0.53281 0.01176 0.05397
 B504 B 0.49357 0.02227 0.02876
 B505 B 0.45855 0.48676 -0.00572
 B506 B 0.44912 0.48699 0.04694
 B507 B 0.48598 0.46526 0.03203
 B508 B 0.50533 0.48850 -0.00993
 B509 B 0.48095 0.52570 -0.02029
 B510 B 0.44589 0.52561 0.01501
 B511 B 0.50839 0.53250 0.06096
 B512 B 0.51956 0.53043 0.00947
 B513 B 0.48196 0.55311 0.02214
 B514 B 0.46255 0.52965 0.06508
 B515 B 0.48741 0.49285 0.07568
 B516 B 0.52212 0.49243 0.04067
 B517 B -0.04384 1.00408 0.51326
 B518 B -0.05650 1.01093 0.56433
 B519 B -0.02376 0.98139 0.55621
 B520 B 0.00189 0.99730 0.51390
 B521 B -0.01501 1.03765 0.49759
 B522 B -0.05119 1.04628 0.52888
 B523 B 0.00896 1.04563 0.58040
 B524 B 0.02170 1.03823 0.53007
 B525 B -0.01191 1.06789 0.53752
 B526 B -0.03666 1.05135 0.58008
 B527 B -0.01922 1.01104 0.59663
 B528 B 0.01638 1.00213 0.56514
 B529 B 0.74269 0.20510 0.25073
 B530 B 0.74115 0.18601 0.30128
 B531 B 0.76873 0.22338 0.29226
 B532 B 0.74827 0.25137 0.25589
 B533 B 0.70707 0.23175 0.24442
 B534 B 0.70297 0.19094 0.27285
 B535 B 0.70741 0.24665 0.32969
 B536 B 0.71093 0.26622 0.27976
 B537 B 0.68246 0.22850 0.28941
 B538 B 0.70319 0.20047 0.32538
 B539 B 0.74349 0.22028 0.33745
 B540 B 0.74847 0.26069 0.30957
 B541 B 0.74303 0.78142 0.74707
 B542 B 0.74939 0.79202 0.80056
 B543 B 0.72227 0.75595 0.78601
 B544 B 0.74128 0.73460 0.74398
 B545 B 0.77956 0.75910 0.73133
 B546 B 0.78400 0.79509 0.76574
 B547 B 0.78759 0.73035 0.81250
 B548 B 0.78260 0.71984 0.76121
 B549 B 0.80844 0.75791 0.77310
 B550 B 0.78945 0.77678 0.81652
 B551 B 0.75096 0.75216 0.82858
 B552 B 0.74612 0.71780 0.79378
 B553 B 0.26241 0.30208 0.76302
 B554 B 0.25931 0.30752 0.70791
 B555 B 0.28548 0.27396 0.72994
 B556 B 0.26476 0.25480 0.77307
 B557 B 0.22645 0.27703 0.77938
 B558 B 0.22257 0.30981 0.73988
 B559 B 0.22153 0.24260 0.70228
 B560 B 0.22490 0.23500 0.75490
 B561 B 0.19934 0.26982 0.73809
 B562 B 0.21953 0.28796 0.69264
 B563 B 0.25891 0.26608 0.68556
 B564 B 0.26211 0.23368 0.72501
 B565 B 0.23483 0.71274 0.24506
 B566 B 0.24515 0.69442 0.19804
 B567 B 0.21831 0.72963 0.19578
 B568 B 0.23066 0.75842 0.23640
 B569 B 0.26806 0.74163 0.26040
 B570 B 0.27724 0.70121 0.23586
 B571 B 0.28480 0.75767 0.17683
 B572 B 0.27263 0.77552 0.22442
 B573 B 0.30138 0.73983 0.22403
 B574 B 0.28778 0.71072 0.18422
 B575 B 0.25155 0.72893 0.16035
 B576 B 0.24146 0.76842 0.18496
 B577 B 0.25888 0.70749 0.74990
 B578 B 0.25071 0.68365 0.79597
 B579 B 0.27468 0.72309 0.79914
 B580 B 0.25890 0.75329 0.76202
 B581 B 0.22341 0.73252 0.73776
 B582 B 0.21768 0.68879 0.75888
 B583 B 0.20612 0.73829 0.82266
 B584 B 0.21600 0.76269 0.77718
 B585 B 0.19074 0.72235 0.77380
 B586 B 0.20727 0.69214 0.81129
 B587 B 0.24222 0.71344 0.83525
 B588 B 0.24821 0.75662 0.81449
 B589 B 0.22802 0.28812 0.25128
 B590 B 0.23835 0.30702 0.29891
 B591 B 0.21596 0.26603 0.29905
 B592 B 0.23126 0.24165 0.25773
 B593 B 0.26429 0.26691 0.23323
 B594 B 0.26896 0.30819 0.25895
 B595 B 0.28662 0.25367 0.31530
 B596 B 0.27482 0.23324 0.26831
 B597 B 0.29843 0.27483 0.26839
 B598 B 0.28294 0.29978 0.30936
 B599 B 0.25014 0.27396 0.33412
 B600 B 0.24527 0.23337 0.30931
 B601 B 0.76572 0.79894 0.26290
 B602 B 0.76357 0.81160 0.20864
 B603 B 0.78872 0.77650 0.22575
 B604 B 0.76675 0.75184 0.26513
 B605 B 0.72865 0.77393 0.27439
 B606 B 0.72654 0.81125 0.24018
 B607 B 0.72495 0.74840 0.19232
 B608 B 0.72668 0.73552 0.24387
 B609 B 0.70240 0.77252 0.23089
 B610 B 0.72388 0.79508 0.18931
 B611 B 0.76285 0.77286 0.18030
 B612 B 0.76499 0.73683 0.21465
 B613 B 0.73931 0.17990 0.75288
 B614 B 0.74425 0.16754 0.70108
 B615 B 0.71212 0.19749 0.71222
 B616 B 0.72792 0.22528 0.75245
 B617 B 0.77013 0.21281 0.76416
 B618 B 0.78055 0.17687 0.73258
 B619 B 0.76964 0.23723 0.68053
 B620 B 0.76405 0.25011 0.73136
 B621 B 0.79637 0.21943 0.72109
 B622 B 0.78066 0.19207 0.68069
 B623 B 0.73813 0.20467 0.66860
 B624 B 0.72786 0.24000 0.70091
 C625 C 0.45260 1.05284 0.30982
 C626 C 0.41882 1.06432 0.32489
 C627 C 0.41781 1.08178 0.36463
 C628 C 0.44703 1.08028 0.39295
 C629 C 0.47754 1.06061 0.38259
 C630 C 0.48262 1.05228 0.33849
 C631 C 0.45778 1.04436 0.26617
 C632 C 0.49146 1.03473 0.25141
 C633 C 0.52098 1.03512 0.27906
 C634 C 0.51682 1.04453 0.32179
 H635 H 0.43630 1.04650 0.24271
 H636 H 0.49496 1.02812 0.21807
 H637 H 0.54747 1.02916 0.26709
 H638 H 0.54110 1.04762 0.34082
 H639 H 0.39309 1.09326 0.37567
 H640 H 0.44414 1.09137 0.42458
 C641 C -0.06273 0.56393 0.84389
 C642 C -0.09437 0.54004 0.84300
 C643 C -0.09898 0.51481 0.87674
 C644 C -0.07374 0.51186 0.90935
 C645 C -0.04139 0.53400 0.91185
 C646 C -0.03688 0.56150 0.87888
 C647 C -0.05418 0.58786 0.80899
 C648 C -0.02373 0.61145 0.81006
 C649 C -0.00069 0.61121 0.84533
 C650 C -0.00678 0.58608 0.87886
 H651 H -0.07015 0.58768 0.78001
 H652 H -0.01752 0.62972 0.78317
 H653 H 0.02264 0.62993 0.84625
 H654 H 0.01234 0.58634 0.90457
 H655 H -0.12268 0.49645 0.87804
 H656 H -0.07984 0.48963 0.93161
 C657 C 0.06517 -0.08345 0.86125
 C658 C 0.10025 -0.06643 0.86209
 C659 C 0.11091 -0.04680 0.89741
 C660 C 0.08608 -0.03774 0.92704
 C661 C 0.05035 -0.05284 0.92928
 C662 C 0.04049 -0.07789 0.89606
 C663 C 0.05390 -0.10528 0.82654
 C664 C 0.02026 -0.12373 0.82723
 C665 C -0.00272 -0.12012 0.86202
 C666 C 0.00675 -0.09665 0.89539
 H667 H 0.07146 -0.10923 0.79955
 H668 H 0.01234 -0.14156 0.80112
 H669 H -0.02817 -0.13553 0.86334
 H670 H -0.01228 -0.09415 0.92082
 H671 H 0.13745 -0.03314 0.89863
 H672 H 0.09500 -0.01412 0.94415
 C673 C 0.54450 0.42632 0.35075
 C674 C 0.58010 0.44181 0.35217
 C675 C 0.59178 0.46015 0.38846
 C676 C 0.56803 0.46797 0.42026
 C677 C 0.53129 0.45580 0.41986
 C678 C 0.52012 0.43241 0.38544
 C679 C 0.53245 0.40546 0.31545
 C680 C 0.49780 0.38925 0.31489
 C681 C 0.47466 0.39370 0.34924
 C682 C 0.48565 0.41504 0.38403
 H683 H 0.54984 0.40111 0.28841
 H684 H 0.48900 0.37281 0.28791
 H685 H 0.44803 0.38044 0.34899
 H686 H 0.46738 0.41666 0.41021
 H687 H 0.61919 0.47156 0.39058
 H688 H 0.57915 0.48651 0.44371
 C689 C 0.55740 0.57551 0.16572
 C690 C 0.59214 0.56062 0.16127
 C691 C 0.60017 0.54286 0.12387
 C692 C 0.57403 0.53640 0.09303
 C693 C 0.53820 0.54882 0.09621
 C694 C 0.53069 0.57087 0.13229
 C695 C 0.54834 0.59425 0.20307
 C696 C 0.51489 0.61030 0.20663
 C697 C 0.48987 0.60789 0.17317
 C698 C 0.49757 0.58836 0.13643
 H699 H 0.56705 0.59675 0.22965
 H700 H 0.50847 0.62504 0.23530
 H701 H 0.46428 0.62116 0.17574
 H702 H 0.47777 0.58824 0.11106
 H703 H 0.62654 0.53138 0.11975
 H704 H 0.58267 0.51952 0.06732
 C705 C 0.06235 1.07972 0.68750
 C706 C 0.09548 1.06135 0.68203
 C707 C 0.10059 1.04299 0.64413
 C708 C 0.07415 1.04105 0.61306
 C709 C 0.04033 1.05801 0.61635
 C710 C 0.03518 1.07899 0.65401
 C711 C 0.05415 1.09607 0.72681
 C712 C 0.02179 1.11378 0.73223
 C713 C -0.00307 1.11565 0.69875
 C714 C 0.00345 1.09838 0.66018
 H715 H 0.07210 1.09443 0.75414
 H716 H 0.01594 1.12607 0.76262
 H717 H -0.02787 1.13005 0.70294
 H718 H -0.01647 1.10083 0.63540
 H719 H 0.12542 1.02883 0.63867
 H720 H 0.08065 1.02335 0.58726
 C721 C -0.07061 0.41830 0.63789
 C722 C -0.10215 0.43945 0.63902
 C723 C -0.10525 0.46860 0.61022
 C724 C -0.07779 0.47847 0.58243
 C725 C -0.04585 0.45833 0.57835
 C726 C -0.04216 0.42781 0.60773
 C727 C -0.06604 0.38891 0.66739
 C728 C -0.03467 0.36890 0.66755
 C729 C -0.00696 0.37832 0.63917
 C730 C -0.01045 0.40761 0.61005
 H731 H -0.08647 0.38124 0.69077
 H732 H -0.03156 0.34636 0.69034
 H733 H 0.01772 0.36321 0.64020
 H734 H 0.01254 0.41478 0.59087
 H735 H -0.12875 0.48560 0.61081
 H736 H -0.08281 0.50323 0.56427
 C737 C 0.42648 -0.00370 0.12317
 C738 C 0.40753 -0.03765 0.13034
 C739 C 0.42100 -0.06843 0.10902
 C740 C 0.45222 -0.06472 0.08302
 C741 C 0.47473 -0.03257 0.08424
 C742 C 0.46319 -0.00428 0.11231
 C743 C 0.41086 0.03087 0.12819
 C744 C 0.43284 0.06221 0.13486
 C745 C 0.47013 0.05890 0.13716
 C746 C 0.48531 0.02557 0.12685
 H747 H 0.38183 0.03318 0.12984
 H748 H 0.42093 0.08836 0.14095
 H749 H 0.48732 0.08223 0.14609
 H750 H 0.51419 0.02354 0.13007
 H751 H 0.40708 -0.09500 0.11093
 H752 H 0.45852 -0.08689 0.06196
 C753 C 0.37323 0.40609 0.07547
 C754 C 0.34878 0.42623 0.09883
 C755 C 0.35953 0.46174 0.11161
 C756 C 0.39300 0.47782 0.09872
 C757 C 0.41448 0.46149 0.06732
 C758 C 0.40250 0.42488 0.05400
 C759 C 0.36468 0.36865 0.06711
 C760 C 0.38046 0.35125 0.03328
 C761 C 0.40433 0.37110 0.00719
 C762 C 0.41540 0.40691 0.01769
 H763 H 0.34395 0.35351 0.08512
 H764 H 0.37274 0.32306 0.02595
 H765 H 0.41498 0.35849 -0.02100
 H766 H 0.43401 0.41943 -0.00390
 H767 H 0.34108 0.47796 0.12951
 H768 H 0.39990 0.50526 0.10970
 C769 C -0.15724 0.98592 0.61070
 C770 C -0.16529 0.95382 0.58652
 C771 C -0.13894 0.94102 0.55969
 C772 C -0.10618 0.95924 0.55511
 C773 C -0.09641 0.99191 0.57717
 C774 C -0.12258 1.00512 0.60630
 C775 C -0.18350 1.00051 0.63734
 C776 C -0.17623 1.03286 0.65947
 C777 C -0.14258 1.05075 0.65655
 C778 C -0.11593 1.03699 0.63063
 H779 H -0.21006 0.98746 0.64056
 H780 H -0.19701 1.04453 0.67843
 H781 H -0.13718 1.07570 0.67427
 H782 H -0.09046 1.05186 0.63031
 H783 H -0.14398 0.91640 0.54108
 H784 H -0.08835 0.94662 0.53299
 C785 C -0.11933 0.07764 0.94103
 C786 C -0.14646 0.05108 0.93174
 C787 C -0.13806 0.01386 0.93070
 C788 C -0.10312 0.00247 0.94026
 C789 C -0.07601 0.02742 0.95474
 C790 C -0.08521 0.06642 0.95676
 C791 C -0.12719 0.11560 0.93822
 C792 C -0.10347 0.14231 0.95405
 C793 C -0.07218 0.13182 0.97430
 C794 C -0.06354 0.09486 0.97643
 H795 H -0.15196 0.12505 0.92397
 H796 H -0.10996 0.17109 0.95186
 H797 H -0.05420 0.15249 0.98834
 H798 H -0.03907 0.09068 0.99357
 H799 H -0.15916 -0.00672 0.92437
 H800 H -0.09804 -0.02665 0.93900
 C801 C 0.35033 0.54363 0.41231
 C802 C 0.34571 0.57859 0.43049
 C803 C 0.37457 0.59533 0.45203
 C804 C 0.40630 0.57701 0.45919
 C805 C 0.41185 0.54107 0.44482
 C806 C 0.38400 0.52526 0.41779
 C807 C 0.32184 0.52639 0.38913
 C808 C 0.32641 0.49267 0.36984
 C809 C 0.35951 0.47589 0.37259
 C810 C 0.38804 0.49203 0.39579
 H811 H 0.29596 0.53904 0.38532
 H812 H 0.30439 0.47987 0.35186
 H813 H 0.36325 0.45030 0.35624
 H814 H 0.41327 0.47869 0.39407
 H815 H 0.37147 0.62182 0.46676
 H816 H 0.42437 0.58969 0.48168
 C817 C 0.15480 0.52354 0.54681
 C818 C 0.15552 0.56022 0.56205
 C819 C 0.12298 0.57495 0.57416
 C820 C 0.09013 0.55628 0.56620
 C821 C 0.08774 0.52290 0.54368
 C822 C 0.12097 0.50444 0.53806
 C823 C 0.18737 0.50522 0.54098
 C824 C 0.18716 0.46923 0.52658
 C825 C 0.15463 0.45040 0.51880
 C826 C 0.12199 0.46744 0.52497
 H827 H 0.21329 0.51821 0.54858
 H828 H 0.21238 0.45558 0.52247
 H829 H 0.15463 0.42202 0.50883
 H830 H 0.09816 0.45020 0.52137
 H831 H 0.12271 0.60212 0.58785
 H832 H 0.06643 0.56919 0.57712
 C833 C 0.65534 0.07105 0.04424
 C834 C 0.67435 0.04396 0.06760
 C835 C 0.65962 0.00841 0.07226
 C836 C 0.62588 -0.00072 0.05488
 C837 C 0.60623 0.02485 0.03028
 C838 C 0.62266 0.06112 0.02267
 C839 C 0.66941 0.10780 0.04044
 C840 C 0.65329 0.13364 0.01396
 C841 C 0.62295 0.12362 -0.00959
 C842 C 0.60796 0.08815 -0.00552
 H843 H 0.69314 0.11722 0.05763
 H844 H 0.66472 0.16139 0.01128
 H845 H 0.61064 0.14353 -0.03089
 H846 H 0.58452 0.08322 -0.02488
 H847 H 0.67471 -0.01266 0.08877
 H848 H 0.61554 -0.02856 0.06056
 C849 C 0.65822 0.97973 0.40631
 C850 C 0.66229 0.94601 0.42902
 C851 C 0.63280 0.92916 0.44900
 C852 C 0.60058 0.94655 0.45080
 C853 C 0.59581 0.98264 0.43383
 C854 C 0.62466 0.99838 0.40831
 C855 C 0.68664 0.99481 0.38109
 C856 C 0.68198 1.02673 0.35658
 C857 C 0.64966 1.04491 0.35812
 C858 C 0.62139 1.03117 0.38377
 H859 H 0.71225 0.98149 0.37919
 H860 H 0.70360 1.03749 0.33627
 H861 H 0.64640 1.06968 0.33889
 H862 H 0.59703 1.04612 0.38239
 H863 H 0.63515 0.90267 0.46523
 H864 H 0.57955 0.93144 0.46810
 C865 C 0.16185 0.48605 0.92938
 C866 C 0.16836 0.44978 0.94439
 C867 C 0.14021 0.42829 0.96111
 C868 C 0.10636 0.44207 0.96482
 C869 C 0.09747 0.47814 0.95054
 C870 C 0.12608 0.50033 0.93161
 C871 C 0.19041 0.50868 0.91319
 C872 C 0.18427 0.54448 0.89894
 C873 C 0.14965 0.55802 0.89955
 C874 C 0.12084 0.53629 0.91547
 H875 H 0.21766 0.49892 0.91174
 H876 H 0.20644 0.56191 0.88734
 H877 H 0.14508 0.58569 0.88772
 H878 H 0.09486 0.54829 0.91436
 H879 H 0.14481 0.40068 0.97330
 H880 H 0.08729 0.42386 0.98138
 C881 C 0.00861 0.37555 0.41219
 C882 C 0.02636 0.34899 0.43722
 C883 C 0.03259 0.35458 0.48076
 C884 C 0.02198 0.38679 0.49980
 C885 C 0.00241 0.41341 0.47687
 C886 C -0.00670 0.40594 0.43230
 C887 C 0.00553 0.37180 0.36704
 C888 C -0.01512 0.39541 0.34241
 C889 C -0.03370 0.42259 0.36223
 C890 C -0.03002 0.42750 0.40626
 H891 H 0.01900 0.35045 0.35030
 H892 H -0.01742 0.39199 0.30805
 H893 H -0.05092 0.44025 0.34337
 H894 H -0.04604 0.44864 0.41841
 H895 H 0.04636 0.33414 0.49996
 H896 H 0.03076 0.39122 0.53232
 C897 C 0.54217 -0.14811 -0.01752
 C898 C 0.54127 -0.14872 -0.06302
 C899 C 0.52753 -0.11935 -0.08569
 C900 C 0.51547 -0.08925 -0.06478
 C901 C 0.51728 -0.08559 -0.01930
 C902 C 0.53021 -0.11645 0.00467
 C903 C 0.55517 -0.17829 0.00628
 C904 C 0.55645 -0.17772 0.05097
 C905 C 0.54463 -0.14731 0.07266
 C906 C 0.53160 -0.11703 0.04993
 H907 H 0.56473 -0.20234 -0.00955
 H908 H 0.56662 -0.20103 0.06888
 H909 H 0.54546 -0.14721 0.10739
 H910 H 0.52214 -0.09461 0.06839
 H911 H 0.52511 -0.12009 -0.12040
 H912 H 0.50553 -0.06811 -0.08616
 C913 C -0.00536 -0.11414 1.10966
 C914 C -0.02493 -0.14250 1.08865
 C915 C -0.03152 -0.13976 1.04464
 C916 C -0.02010 -0.10888 1.02110
 C917 C -0.00074 -0.07948 1.04017
 C918 C 0.00815 -0.08288 1.08553
 C919 C 0.00217 -0.11712 1.15420
 C920 C 0.02273 -0.09022 1.17506
 C921 C 0.03746 -0.06066 1.15186
 C922 C 0.03105 -0.05740 1.10790
 H923 H -0.00739 -0.14037 1.17351
 H924 H 0.02810 -0.09289 1.20915
 H925 H 0.05467 -0.04041 1.16784
 H926 H 0.04602 -0.03529 1.09265
 H927 H -0.04583 -0.16197 1.02825
 H928 H -0.02758 -0.10800 0.98765
 C929 C 0.44073 0.35840 0.53336
 C930 C 0.46139 0.35382 0.57123
 C931 C 0.48628 0.38093 0.58328
 C932 C 0.49146 0.41240 0.55853
 C933 C 0.47279 0.41863 0.51925
 C934 C 0.44523 0.39147 0.50766
 C935 C 0.41517 0.33077 0.52114
 C936 C 0.39318 0.33568 0.48531
 C937 C 0.39574 0.36833 0.46159
 C938 C 0.42096 0.39595 0.47276
 H939 H 0.41178 0.30527 0.53940
 H940 H 0.37357 0.31434 0.47639
 H941 H 0.37784 0.37245 0.43441
 H942 H 0.41981 0.42052 0.45371
 H943 H 0.50189 0.37783 0.61264
 H944 H 0.51068 0.43234 0.57149
 C945 C 0.52955 1.16340 0.49427
 C946 C 0.52657 1.16146 0.53949
 C947 C 0.51613 1.12836 0.55915
 C948 C 0.51012 1.09704 0.53573
 C949 C 0.51339 1.09639 0.49040
 C950 C 0.52319 1.13077 0.46928
 C951 C 0.53955 1.19696 0.47360
 C952 C 0.54316 1.19903 0.42917
 C953 C 0.53717 1.16776 0.40475
 C954 C 0.52769 1.13402 0.42441
 H955 H 0.54459 1.22178 0.49169
 H956 H 0.55074 1.22501 0.41359
 H957 H 0.53995 1.16969 0.37024
 H958 H 0.52404 1.11101 0.40373
 H959 H 0.51339 1.12644 0.59377
 H960 H 0.50317 1.07290 0.55500
 C961 C 0.00609 0.62368 1.07435
 C962 C 0.02311 0.65159 1.04832
 C963 C 0.03527 0.64311 1.00772
 C964 C 0.02894 0.60827 0.99127
 C965 C 0.00943 0.58022 1.01404
 C966 C -0.00249 0.58838 1.05698
 C967 C -0.00056 0.62972 1.11851
 C968 C -0.01836 0.60341 1.14406
 C969 C -0.02973 0.57036 1.12663
 C970 C -0.02196 0.56286 1.08416
 H971 H 0.00863 0.65448 1.13439
 H972 H -0.02346 0.60878 1.17748
 H973 H -0.04430 0.55005 1.14631
 H974 H -0.03242 0.53674 1.07428
 H975 H 0.05011 0.66364 0.98855
 H976 H 0.04135 0.60330 0.96091
 C977 C 0.43557 0.64713 -0.01730
 C978 C 0.45906 0.65730 -0.05216
 C979 C 0.48810 0.63527 -0.05996
 C980 C 0.49425 0.60449 -0.03553
 C981 C 0.47391 0.59418 0.00136
 C982 C 0.44342 0.61594 0.01013
 C983 C 0.40504 0.66762 -0.00806
 C984 C 0.38048 0.65566 0.02318
 C985 C 0.38813 0.62607 0.04991
 C986 C 0.41973 0.60724 0.04450
 H987 H 0.39979 0.69306 -0.02452
 H988 H 0.35590 0.67022 0.02780
 H989 H 0.36975 0.61803 0.07553
 H990 H 0.42462 0.58595 0.06771
 H991 H 0.50540 0.64046 -0.08752
 H992 H 0.51517 0.58788 -0.04782
 C993 C -0.05562 1.15557 0.48356
 C994 C -0.03552 1.15681 0.44480
 C995 C -0.00439 1.13678 0.44243
 C996 C 0.00521 1.11314 0.47494
 C997 C -0.01495 1.10832 0.51324
 C998 C -0.04446 1.13229 0.51863
 C999 C -0.08539 1.17830 0.48916
 C1000 C -0.10401 1.17804 0.52781
 C1001 C -0.09290 1.15602 0.56199
 C1002 C -0.06333 1.13377 0.55768
 H1003 H -0.09433 1.19690 0.46413
 H1004 H -0.12677 1.19557 0.53153
 H1005 H -0.10696 1.15659 0.59230
 H1006 H -0.05494 1.11895 0.58582
 H1007 H 0.01189 1.13781 0.41357
 H1008 H 0.02659 1.09538 0.46670
 C1009 C 0.83198 0.67341 0.91151
 C1010 C 0.81154 0.63968 0.90750
 C1011 C 0.78963 0.63467 0.87190
 C1012 C 0.78494 0.66262 0.84260
 C1013 C 0.80197 0.69811 0.84610
 C1014 C 0.82741 0.70276 0.88037
 C1015 C 0.85560 0.67930 0.94662
 C1016 C 0.87544 0.71237 0.95034
 C1017 C 0.87203 0.74023 0.91947
 C1018 C 0.84827 0.73559 0.88493
 H1019 H 0.85908 0.65841 0.97134
 H1020 H 0.89373 0.71636 0.97725
 H1021 H 0.88789 0.76566 0.92232
 H1022 H 0.84723 0.75762 0.86153
 H1023 H 0.77414 0.60905 0.86777
 H1024 H 0.76555 0.65553 0.81803
 C1025 C 0.30728 0.21171 0.42625
 C1026 C 0.31674 0.17656 0.41185
 C1027 C 0.33226 0.17420 0.37100
 C1028 C 0.33008 0.20331 0.34148
 C1029 C 0.31166 0.23489 0.35190
 C1030 C 0.30667 0.24169 0.39633
 C1031 C 0.30086 0.21825 0.47011
 C1032 C 0.29437 0.25358 0.48411
 C1033 C 0.29521 0.28314 0.45513
 C1034 C 0.30177 0.27744 0.41182
 H1035 H 0.30222 0.19649 0.49418
 H1036 H 0.28975 0.25819 0.51782
 H1037 H 0.29137 0.31072 0.46636
 H1038 H 0.30417 0.30144 0.39102
 H1039 H 0.34242 0.14847 0.36009
 H1040 H 0.33958 0.19943 0.30929
 C1041 C 0.65806 0.32197 0.39215
 C1042 C 0.68656 0.33394 0.42013
 C1043 C 0.71491 0.30958 0.42751
 C1044 C 0.71890 0.27871 0.40258
 C1045 C 0.69307 0.26870 0.37134
 C1046 C 0.65977 0.28682 0.37268
 C1047 C 0.62768 0.34312 0.38280
 C1048 C 0.59686 0.32699 0.36389
 C1049 C 0.59628 0.28997 0.35333
 C1050 C 0.62757 0.27004 0.35796
 H1051 H 0.62741 0.37214 0.38940
 H1052 H 0.57310 0.34301 0.35847
 H1053 H 0.57171 0.27674 0.34130
 H1054 H 0.62597 0.24085 0.35355
 H1055 H 0.73559 0.31521 0.45145
 H1056 H 0.74379 0.26419 0.40621
 C1057 C 0.15509 0.81199 0.88931
 C1058 C 0.18567 0.82496 0.91443
 C1059 C 0.21206 0.79850 0.92272
 C1060 C 0.21379 0.76637 0.89962
 C1061 C 0.18951 0.75850 0.86564
 C1062 C 0.15667 0.77711 0.86776
 C1063 C 0.12294 0.83135 0.88454
 C1064 C 0.09169 0.81404 0.86813
 C1065 C 0.09220 0.77797 0.85408
 C1066 C 0.12458 0.75970 0.85351
 H1067 H 0.12109 0.85971 0.89283
 H1068 H 0.06671 0.82841 0.86705
 H1069 H 0.06766 0.76456 0.84223
 H1070 H 0.12467 0.73210 0.84131
 H1071 H 0.23299 0.80307 0.94672
 H1072 H 0.23717 0.75002 0.90578
 C1073 C 0.33325 0.80402 0.07110
 C1074 C 0.31523 0.83781 0.07020
 C1075 C 0.29353 0.84623 0.10429
 C1076 C 0.28718 0.82146 0.13714
 C1077 C 0.30138 0.78571 0.13871
 C1078 C 0.32487 0.77690 0.10423
 C1079 C 0.35887 0.79634 0.03957
 C1080 C 0.37740 0.76370 0.04159
 C1081 C 0.36847 0.73699 0.07255
 C1082 C 0.34123 0.74259 0.10201
 H1083 H 0.36574 0.81599 0.01419
 H1084 H 0.39852 0.75889 0.01877
 H1085 H 0.38360 0.71220 0.07485
 H1086 H 0.33581 0.72082 0.12507
 H1087 H 0.27998 0.87224 0.10484
 H1088 H 0.26797 0.83076 0.15971
 C1089 C 0.75670 0.33162 0.62159
 C1090 C 0.79055 0.34158 0.60361
 C1091 C 0.81874 0.31676 0.61034
 C1092 C 0.81250 0.28297 0.63326
 C1093 C 0.77707 0.27047 0.64395
 C1094 C 0.74848 0.29413 0.63054
 C1095 C 0.72929 0.35737 0.62599
 C1096 C 0.69323 0.34541 0.62843
 C1097 C 0.68440 0.30803 0.62542
 C1098 C 0.71178 0.28259 0.62528
 H1099 H 0.73559 0.38669 0.62437
 H1100 H 0.67213 0.36521 0.62987
 H1101 H 0.65637 0.29866 0.62387
 H1102 H 0.70379 0.25399 0.62176
 H1103 H 0.84548 0.32347 0.59815
 H1104 H 0.83523 0.26639 0.64198
 C1105 C 0.19093 0.19230 0.59447
 C1106 C 0.20545 0.15719 0.60221
 C1107 C 0.21922 0.14878 0.64259
 C1108 C 0.22096 0.17506 0.67432
 C1109 C 0.20731 0.21080 0.66842
 C1110 C 0.18956 0.21825 0.62843
 C1111 C 0.17849 0.20250 0.55320
 C1112 C 0.16252 0.23621 0.54598
 C1113 C 0.15764 0.25975 0.57990
 C1114 C 0.17069 0.25076 0.62070
 H1115 H 0.18137 0.18469 0.52617
 H1116 H 0.15314 0.24374 0.51413
 H1117 H 0.14376 0.28518 0.57458
 H1118 H 0.16469 0.26898 0.64608
 H1119 H 0.23059 0.12213 0.64897
 H1120 H 0.23573 0.16732 0.70268
 C1121 C 0.68971 0.69679 0.08428
 C1122 C 0.70299 0.66108 0.09280
 C1123 C 0.71971 0.65424 0.13182
 C1124 C 0.72466 0.68167 0.16153
 C1125 C 0.71183 0.71785 0.15569
 C1126 C 0.69322 0.72507 0.11606
 C1127 C 0.67419 0.70539 0.04405
 C1128 C 0.65999 0.73975 0.03573
 C1129 C 0.66186 0.76659 0.06684
 C1130 C 0.67857 0.75956 0.10625
 H1131 H 0.67342 0.68586 0.01847
 H1132 H 0.64755 0.74561 0.00492
 H1133 H 0.65068 0.79326 0.06020
 H1134 H 0.67941 0.78156 0.12843
 H1135 H 0.73040 0.62739 0.13897
 H1136 H 0.74071 0.67370 0.18876
 C1137 C 0.17579 0.60556 0.19107
 C1138 C 0.19917 0.58048 0.17297
 C1139 C 0.23430 0.59186 0.16170
 C1140 C 0.24696 0.62796 0.16857
 C1141 C 0.22568 0.65364 0.18904
 C1142 C 0.18894 0.64151 0.20181
 C1143 C 0.13950 0.59425 0.20057
 C1144 C 0.11668 0.61668 0.22213
 C1145 C 0.12934 0.65067 0.23522
 C1146 C 0.16443 0.66273 0.22566
 H1147 H 0.12804 0.56777 0.19171
 H1148 H 0.08923 0.60742 0.22914
 H1149 H 0.11171 0.66818 0.25263
 H1150 H 0.17005 0.68952 0.23740
 H1151 H 0.25248 0.57225 0.14876
 H1152 H 0.27437 0.63538 0.15913
 C1153 C 0.72374 0.06695 0.64983
 C1154 C 0.69572 0.05457 0.67766
 C1155 C 0.68399 0.07763 0.70913
 C1156 C 0.69966 0.11206 0.71425
 C1157 C 0.72929 0.12568 0.68927
 C1158 C 0.74123 0.10252 0.65568
 C1159 C 0.73402 0.04491 0.61569
 C1160 C 0.76022 0.05750 0.58684
 C1161 C 0.77770 0.09156 0.59237
 C1162 C 0.76857 0.11376 0.62644
 H1163 H 0.72152 0.01798 0.61058
 H1164 H 0.76694 0.04045 0.56028
 H1165 H 0.79841 0.10094 0.57001
 H1166 H 0.78285 0.13977 0.62837
 H1167 H 0.66171 0.06908 0.72983
 H1168 H 0.68750 0.12814 0.73867
 C1169 C 0.77781 0.08789 0.34828
 C1170 C 0.80573 0.08230 0.31768
 C1171 C 0.81040 0.10880 0.28508
 C1172 C 0.78931 0.13916 0.28198
 C1173 C 0.76082 0.14599 0.30987
 C1174 C 0.75576 0.12009 0.34492
 C1175 C 0.76989 0.06142 0.38088
 C1176 C 0.74424 0.06761 0.41208
 C1177 C 0.72470 0.09946 0.41052
 C1178 C 0.72997 0.12513 0.37725
 H1179 H 0.78257 0.03521 0.38201
 H1180 H 0.73874 0.04713 0.43704
 H1181 H 0.70464 0.10393 0.43479
 H1182 H 0.71353 0.14868 0.37810
 H1183 H 0.83252 0.10755 0.26262
 H1184 H 0.79852 0.15933 0.25918
 C1185 C 0.32631 0.60615 0.81514
 C1186 C 0.30400 0.57511 0.82545
 C1187 C 0.26653 0.57930 0.82717
 C1188 C 0.25123 0.61383 0.82048
 C1189 C 0.27211 0.64477 0.80615
 C1190 C 0.31046 0.63918 0.79988
 C1191 C 0.36445 0.60341 0.81528
 C1192 C 0.38646 0.63031 0.79581
 C1193 C 0.37086 0.65922 0.77410
 C1194 C 0.33359 0.66300 0.77524
 H1195 H 0.37763 0.57995 0.82923
 H1196 H 0.41547 0.62761 0.79554
 H1197 H 0.38767 0.67894 0.75618
 H1198 H 0.32409 0.68492 0.75578
 H1199 H 0.24891 0.55538 0.83303
 H1200 H 0.22228 0.61560 0.82387
 C1201 C 0.27661 0.40676 0.65213
 C1202 C 0.31444 0.40857 0.65760
 C1203 C 0.33273 0.37601 0.66199
 C1204 C 0.31364 0.34303 0.66960
 C1205 C 0.27628 0.34191 0.67757
 C1206 C 0.25700 0.37276 0.66041
 C1207 C 0.25801 0.43851 0.63992
 C1208 C 0.22068 0.43696 0.63449
 C1209 C 0.20137 0.40394 0.64134
 C1210 C 0.21909 0.37227 0.65428
 H1211 H 0.27235 0.46454 0.63387
 H1212 H 0.20668 0.46143 0.62475
 H1213 H 0.17236 0.40284 0.63669
 H1214 H 0.20233 0.34791 0.65829
 H1215 H 0.36198 0.37644 0.66291
 H1216 H 0.32897 0.31887 0.67043
 C1217 C 0.83352 0.88380 0.15209
 C1218 C 0.82396 0.91575 0.17476
 C1219 C 0.78925 0.91525 0.19322
 C1220 C 0.76779 0.88308 0.19657
 C1221 C 0.78098 0.84924 0.18468
 C1222 C 0.81049 0.85108 0.15477
 C1223 C 0.86545 0.88269 0.12768
 C1224 C 0.87091 0.85398 0.09987
 C1225 C 0.84666 0.82420 0.09868
 C1226 C 0.81710 0.82248 0.12594
 H1227 H 0.88667 0.90356 0.12918
 H1228 H 0.89434 0.85469 0.07935
 H1229 H 0.85080 0.80221 0.07649
 H1230 H 0.79846 0.79990 0.12070
 H1231 H 0.77900 0.93997 0.20694
 H1232 H 0.74194 0.88443 0.21233
 C1233 C 0.68930 0.86173 0.86261
 C1234 C 0.69688 0.89281 0.83552
 C1235 C 0.73044 0.89475 0.81478
 C1236 C 0.75022 0.86325 0.80989
 C1237 C 0.73632 0.82890 0.82467
 C1238 C 0.71052 0.82978 0.85863
 C1239 C 0.66251 0.86186 0.89448
 C1240 C 0.65905 0.83317 0.92464
 C1241 C 0.68071 0.80301 0.92226
 C1242 C 0.70609 0.80120 0.88980
 H1243 H 0.64442 0.88404 0.89766
 H1244 H 0.63922 0.83430 0.94990
 H1245 H 0.67826 0.78107 0.94612
 H1246 H 0.72373 0.77860 0.89252
 H1247 H 0.73892 0.91950 0.79711
 H1248 H 0.77335 0.86533 0.78886
 C1249 C 0.16717 0.38208 0.33429
 C1250 C 0.19153 0.41002 0.34804
 C1251 C 0.22821 0.40291 0.35142
 C1252 C 0.24133 0.36975 0.33758
 C1253 C 0.21877 0.34353 0.31667
 C1254 C 0.18053 0.35079 0.31372
 C1255 C 0.12954 0.38736 0.33598
 C1256 C 0.10527 0.36402 0.31480
 C1257 C 0.11806 0.33589 0.29049
 C1258 C 0.15496 0.32977 0.28926
 H1259 H 0.11862 0.40990 0.35325
 H1260 H 0.07662 0.36863 0.31597
 H1261 H 0.09930 0.31849 0.27257
 H1262 H 0.16212 0.30795 0.26901
 H1263 H 0.24724 0.42442 0.36145
 H1264 H 0.27009 0.36614 0.34072
 C1265 C 0.10920 0.27741 0.80927
 C1266 C 0.08789 0.29743 0.77953
 C1267 C 0.10152 0.30708 0.73923
 C1268 C 0.13600 0.29721 0.72746
 C1269 C 0.15827 0.27670 0.75518
 C1270 C 0.14463 0.26722 0.79809
 C1271 C 0.09532 0.26682 0.85029
 C1272 C 0.11508 0.24727 0.88011
 C1273 C 0.14944 0.23762 0.87028
 C1274 C 0.16395 0.24730 0.83058
 H1275 H 0.06911 0.27356 0.86078
 H1276 H 0.10364 0.23972 0.91105
 H1277 H 0.16508 0.22226 0.89356
 H1278 H 0.19032 0.23731 0.82785
 H1279 H 0.08516 0.32223 0.71649
 H1280 H 0.14548 0.30659 0.69630
 C1281 C 0.61489 0.79138 0.29932
 C1282 C 0.59169 0.80461 0.26680
 C1283 C 0.60342 0.80694 0.22443
 C1284 C 0.63811 0.79640 0.21405
 C1285 C 0.66056 0.77910 0.24457
 C1286 C 0.64690 0.77397 0.28788
 C1287 C 0.60536 0.79316 0.34324
 C1288 C 0.62411 0.77415 0.37475
 C1289 C 0.65204 0.75231 0.36312
 C1290 C 0.66291 0.75172 0.32051
 H1291 H 0.58317 0.80899 0.35376
 H1292 H 0.61607 0.77532 0.40801
 H1293 H 0.66556 0.73581 0.38723
 H1294 H 0.68361 0.73286 0.31467
 H1295 H 0.58571 0.81706 0.19936
 H1296 H 0.64696 0.80128 0.18154
 C1297 C 0.58679 0.18443 0.25966
 C1298 C 0.57763 0.20992 0.22693
 C1299 C 0.59559 0.24447 0.22589
 C1300 C 0.62488 0.25208 0.25245
 C1301 C 0.63920 0.22503 0.27941
 C1302 C 0.61707 0.19242 0.28721
 C1303 C 0.56550 0.15209 0.26686
 C1304 C 0.57313 0.12841 0.30102
 C1305 C 0.60127 0.13679 0.32922
 C1306 C 0.62279 0.16853 0.32277
 H1307 H 0.54204 0.14548 0.24725
 H1308 H 0.55617 0.10428 0.30664
 H1309 H 0.60565 0.11925 0.35710
 H1310 H 0.64183 0.17517 0.34785
 H1311 H 0.58801 0.26551 0.20274
 H1312 H 0.63761 0.27873 0.24946
 C1313 C 0.09626 0.68378 0.72454
 C1314 C 0.09565 0.70598 0.68682
 C1315 C 0.12281 0.73196 0.67895
 C1316 C 0.15054 0.73677 0.70763
 C1317 C 0.15276 0.71645 0.74702
 C1318 C 0.12454 0.68942 0.75567
 C1319 C 0.06931 0.65610 0.73173
 C1320 C 0.06993 0.63412 0.76875
 C1321 C 0.09629 0.64039 0.80001
 C1322 C 0.12301 0.66794 0.79392
 H1323 H 0.04793 0.65093 0.70851
 H1324 H 0.04963 0.61234 0.77339
 H1325 H 0.09593 0.62390 0.82932
 H1326 H 0.14143 0.67238 0.82017
 H1327 H 0.12235 0.74931 0.65023
 H1328 H 0.16993 0.75842 0.69865
 C1329 C 0.90832 0.80171 0.74545
 C1330 C 0.91625 0.78005 0.70941
 C1331 C 0.89092 0.75328 0.69644
 C1332 C 0.85810 0.74872 0.71652
 C1333 C 0.84962 0.76694 0.75468
 C1334 C 0.87516 0.79509 0.76871
 C1335 C 0.93308 0.82950 0.75926
 C1336 C 0.92432 0.85297 0.79187
 C1337 C 0.89254 0.84702 0.81445
 C1338 C 0.86872 0.81810 0.80381
 H1339 H 0.95928 0.83379 0.74458
 H1340 H 0.94234 0.87590 0.79965
 H1341 H 0.88632 0.86490 0.84059
 H1342 H 0.84543 0.81531 0.82357
 H1343 H 0.89508 0.73752 0.66778
 H1344 H 0.83929 0.72953 0.70148
 C1345 C 0.40362 0.29009 0.23950
 C1346 C 0.40000 0.29588 0.19444
 C1347 C 0.36616 0.30226 0.17720
 C1348 C 0.33576 0.29821 0.20228
 C1349 C 0.33722 0.28576 0.24577
 C1350 C 0.37201 0.28611 0.26566
 C1351 C 0.43804 0.29017 0.25932
 C1352 C 0.44148 0.28702 0.30377
 C1353 C 0.41086 0.28494 0.32931
 C1354 C 0.37657 0.28511 0.31057
 H1355 H 0.46254 0.29402 0.24088
 H1356 H 0.46803 0.28752 0.31854
 H1357 H 0.41367 0.28420 0.36393
 H1358 H 0.35417 0.28711 0.33178
 H1359 H 0.36284 0.30831 0.14324
 H1360 H 0.31058 0.30290 0.18561
 C1361 C 0.40424 0.71606 0.24347
 C1362 C 0.40347 0.70608 0.28760
 C1363 C 0.37211 0.71048 0.31067
 C1364 C 0.34197 0.72491 0.29109
 C1365 C 0.34130 0.73569 0.24690
 C1366 C 0.37452 0.73432 0.22449
 C1367 C 0.43563 0.71127 0.21901
 C1368 C 0.43966 0.72855 0.17902
 C1369 C 0.41289 0.75122 0.16348
 C1370 C 0.38066 0.75391 0.18598
 H1371 H 0.45775 0.69548 0.23162
 H1372 H 0.46431 0.72584 0.16110
 H1373 H 0.41718 0.76697 0.13404
 H1374 H 0.36174 0.77345 0.17479
 H1375 H 0.37147 0.70458 0.34491
 H1376 H 0.31882 0.72663 0.31170
 C1377 C 0.88154 0.20847 0.79617
 C1378 C 0.90656 0.19468 0.76694
 C1379 C 0.89797 0.19429 0.72310
 C1380 C 0.86419 0.20549 0.70824
 C1381 C 0.83897 0.22037 0.73618
 C1382 C 0.84995 0.22528 0.78053
 C1383 C 0.88888 0.20808 0.84099
 C1384 C 0.86776 0.22669 0.86937
 C1385 C 0.83939 0.24678 0.85383
 C1386 C 0.83087 0.24651 0.81031
 H1387 H 0.91129 0.19392 0.85482
 H1388 H 0.87416 0.22645 0.90332
 H1389 H 0.82367 0.26254 0.87562
 H1390 H 0.80891 0.26334 0.80132
 H1391 H 0.91753 0.18520 0.70028
 H1392 H 0.85753 0.20186 0.67465
 C1393 C 0.56502 0.96333 0.61208
 C1394 C 0.60265 0.97380 0.60984
 C1395 C 0.61763 0.97965 0.56947
 C1396 C 0.59645 0.98156 0.53354
 C1397 C 0.55925 0.97142 0.53280
 C1398 C 0.54411 0.95940 0.57300
 C1399 C 0.54660 0.95992 0.65162
 C1400 C 0.51052 0.94788 0.65324
 C1401 C 0.49171 0.93981 0.61566
 C1402 C 0.50813 0.94583 0.57599
 H1403 H 0.55917 0.96755 0.68162
 H1404 H 0.49708 0.94480 0.68389
 H1405 H 0.46390 0.92973 0.61721
 H1406 H 0.49242 0.93925 0.54794
 H1407 H 0.64623 0.98630 0.56556
 H1408 H 0.61015 0.99543 0.50744
 C1409 C 0.08081 0.46516 1.13135
 C1410 C 0.11771 0.47700 1.12511
 C1411 C 0.13035 0.47808 1.08322
 C1412 C 0.10680 0.47624 1.04886
 C1413 C 0.07015 0.46401 1.05200
 C1414 C 0.05848 0.45484 1.09482
 C1415 C 0.06471 0.46470 1.17226
 C1416 C 0.02994 0.44973 1.17838
 C1417 C 0.01033 0.43534 1.14398
 C1418 C 0.02430 0.43797 1.10261
 H1419 H 0.07814 0.47642 1.19983
 H1420 H 0.01828 0.44891 1.21014
 H1421 H -0.01620 0.42274 1.14925
 H1422 H 0.00834 0.42604 1.07705
 H1423 H 0.15824 0.48611 1.07655
 H1424 H 0.11800 0.48965 1.02108
 C1425 C -0.04991 0.02925 1.13407
 C1426 C -0.08648 0.01558 1.12870
 C1427 C -0.10286 0.02237 1.08900
 C1428 C -0.08343 0.03658 1.05421
 C1429 C -0.04552 0.04365 1.05574
 C1430 C -0.03095 0.04632 1.09819
 C1431 C -0.03027 0.02378 1.17262
 C1432 C 0.00469 0.03868 1.17763
 C1433 C 0.02124 0.05869 1.14427
 C1434 C 0.00377 0.06227 1.10478
 H1435 H -0.04104 0.00728 1.19897
 H1436 H 0.01907 0.03461 1.20762
 H1437 H 0.04819 0.07053 1.14862
 H1438 H 0.01767 0.07713 1.07904
 H1439 H -0.13130 0.01556 1.08404
 H1440 H -0.09889 0.03632 1.02547
 C1441 C 0.43084 0.52933 0.63370
 C1442 C 0.39402 0.51861 0.62556
 C1443 C 0.37934 0.52682 0.58529
 C1444 C 0.40078 0.53988 0.55179
 C1445 C 0.43863 0.54457 0.55606
 C1446 C 0.45262 0.54452 0.59927
 C1447 C 0.44777 0.52210 0.67378
 C1448 C 0.48354 0.53305 0.68146
 C1449 C 0.50374 0.55040 0.64926
 C1450 C 0.48879 0.55566 0.60862
 H1451 H 0.43429 0.50720 0.69957
 H1452 H 0.49576 0.52774 0.71254
 H1453 H 0.53155 0.55895 0.65544
 H1454 H 0.50641 0.56832 0.58503
 H1455 H 0.35105 0.52043 0.57858
 H1456 H 0.38749 0.53879 0.52124
 C1457 C 0.36636 0.47429 -0.07638
 C1458 C 0.38164 0.47667 -0.11734
 C1459 C 0.41885 0.47181 -0.12103
 C1460 C 0.44097 0.46949 -0.08435
 C1461 C 0.42763 0.47659 -0.04304
 C1462 C 0.38853 0.48076 -0.03969
 C1463 C 0.32848 0.47098 -0.07252
 C1464 C 0.31147 0.48221 -0.03595
 C1465 C 0.33223 0.49563 -0.00234
 C1466 C 0.36977 0.49443 -0.00377
 H1467 H 0.31204 0.46250 -0.09938
 H1468 H 0.28229 0.48186 -0.03435
 H1469 H 0.31917 0.50622 0.02563
 H1470 H 0.38212 0.50688 0.02324
 H1471 H 0.43134 0.47228 -0.15234
 H1472 H 0.46964 0.46659 -0.08915
 C1473 C -0.13031 0.99550 0.43271
 C1474 C -0.11190 0.99386 0.39378
 C1475 C -0.07531 0.98498 0.39541
 C1476 C -0.05682 0.98258 0.43485
 C1477 C -0.07238 0.99461 0.47324
 C1478 C -0.11037 1.00407 0.47048
 C1479 C -0.16839 0.99365 0.43338
 C1480 C -0.18680 1.00836 0.46723
 C1481 C -0.16732 1.02553 0.49972
 C1482 C -0.12980 1.02411 0.50099
 H1483 H -0.18375 0.98298 0.40634
 H1484 H -0.21600 1.00816 0.46713
 H1485 H -0.18108 1.03998 0.52431
 H1486 H -0.11775 1.03980 0.52614
 H1487 H -0.06027 0.98185 0.36615
 H1488 H -0.02861 0.97576 0.43412
 C1489 C 0.07547 0.51386 0.36109
 C1490 C 0.11248 0.51489 0.37349
 C1491 C 0.12224 0.53074 0.41277
 C1492 C 0.09595 0.54085 0.44183
 C1493 C 0.05902 0.53433 0.43328
 C1494 C 0.04920 0.52705 0.38971
 C1495 C 0.06350 0.49883 0.32169
 C1496 C 0.02757 0.50097 0.30862
 C1497 C 0.00291 0.51801 0.33432
 C1498 C 0.01352 0.53103 0.37439
 H1499 H 0.08136 0.48506 0.30057
 H1500 H 0.01895 0.48983 0.27810
 H1501 H -0.02475 0.52057 0.32353
 H1502 H -0.00643 0.54433 0.39311
 H1503 H 0.15044 0.53350 0.42204
 H1504 H 0.10488 0.55158 0.47217
 C1505 C 0.56902 0.00264 -0.14702
 C1506 C 0.60564 -0.00734 -0.14076
 C1507 C 0.62476 0.00788 -0.10643
 C1508 C 0.60711 0.02577 -0.07438
 C1509 C 0.56951 0.03113 -0.07577
 C1510 C 0.55266 0.02572 -0.11651
 C1511 C 0.54756 -0.01058 -0.18148
 C1512 C 0.51299 0.00237 -0.18880
 C1513 C 0.49887 0.02818 -0.16169
 C1514 C 0.51837 0.03962 -0.12565
 H1515 H 0.55681 -0.03124 -0.20284
 H1516 H 0.49715 -0.00752 -0.21582
 H1517 H 0.47230 0.03861 -0.16798
 H1518 H 0.50646 0.05915 -0.10466
 H1519 H 0.65333 0.00326 -0.10224
 H1520 H 0.62324 0.02993 -0.04652
 C1521 C 0.60385 0.60337 -0.00373
 C1522 C 0.63244 0.57890 -0.00484
 C1523 C 0.62336 0.54239 -0.01602
 C1524 C 0.58685 0.52991 -0.01745
 C1525 C 0.55882 0.55177 -0.00212
 C1526 C 0.56909 0.58959 0.00783
 C1527 C 0.61015 0.64164 -0.00953
 C1528 C 0.58561 0.66619 0.00583
 C1529 C 0.55571 0.65256 0.02838
 C1530 C 0.54812 0.61464 0.03050
 H1531 H 0.63502 0.65223 -0.02379
 H1532 H 0.59103 0.69558 0.00282
 H1533 H 0.53805 0.67132 0.04379
 H1534 H 0.52552 0.60630 0.04975
 H1535 H 0.64412 0.52256 -0.02013
 H1536 H 0.58128 0.50134 -0.02513
 C1537 C 0.11053 1.10234 0.50514
 C1538 C 0.13727 1.07600 0.50349
 C1539 C 0.12583 1.03885 0.50122
 C1540 C 0.08873 1.02861 0.50423
 C1541 C 0.06301 1.05411 0.51730
 C1542 C 0.07641 1.09176 0.52230
 C1543 C 0.11940 1.13986 0.49702
 C1544 C 0.09760 1.16695 0.51240
 C1545 C 0.06869 1.15684 0.53860
 C1546 C 0.05891 1.11969 0.54469
 H1547 H 0.14405 1.14800 0.48039
 H1548 H 0.10443 1.19572 0.50638
 H1549 H 0.05343 1.17779 0.55383
 H1550 H 0.03714 1.11428 0.56643
 H1551 H 0.14556 1.01768 0.49917
 H1552 H 0.08094 0.99977 0.50147
 C1553 C 0.14611 -0.02514 1.00275
 C1554 C 0.14640 -0.06454 1.00028
 C1555 C 0.11648 -0.08422 1.01673
 C1556 C 0.08460 -0.06699 1.02549
 C1557 C 0.08097 -0.02841 1.02181
 C1558 C 0.11413 -0.00746 1.01748
 C1559 C 0.17529 -0.00244 0.98800
 C1560 C 0.17503 0.03570 0.99203
 C1561 C 0.14553 0.05221 1.00997
 C1562 C 0.11519 0.03097 1.02214
 H1563 H 0.19833 -0.01338 0.97242
 H1564 H 0.19793 0.05258 0.98115
 H1565 H 0.14584 0.08178 1.01356
 H1566 H 0.09283 0.04485 1.03576
 H1567 H 0.11630 -0.11400 1.01899
 H1568 H 0.06227 -0.08575 1.03011
 C1569 C 0.62530 0.47061 0.51582
 C1570 C 0.62709 0.43218 0.50571
 C1571 C 0.59423 0.41165 0.50697
 C1572 C 0.56127 0.42826 0.50960
 C1573 C 0.55810 0.46587 0.51840
 C1574 C 0.59117 0.48587 0.52708
 C1575 C 0.65537 0.49551 0.51169
 C1576 C 0.65397 0.53153 0.52596
 C1577 C 0.62248 0.54397 0.54372
 C1578 C 0.59129 0.52155 0.54397
 H1579 H 0.67996 0.48837 0.49618
 H1580 H 0.67758 0.54982 0.52350
 H1581 H 0.62193 0.57152 0.55623
 H1582 H 0.56769 0.53215 0.55865
 H1583 H 0.59300 0.38213 0.50351
 H1584 H 0.53844 0.41117 0.50020
 C1585 C -0.13847 0.47900 0.50223
 C1586 C -0.14336 0.44076 0.51220
 C1587 C -0.11512 0.41772 0.50415
 C1588 C -0.08162 0.43173 0.49164
 C1589 C -0.07418 0.46980 0.48478
 C1590 C -0.10452 0.49308 0.48549
 C1591 C -0.16581 0.50397 0.51041
 C1592 C -0.16151 0.54103 0.49868
 C1593 C -0.12997 0.55398 0.47880
 C1594 C -0.10173 0.53039 0.47230
 H1595 H -0.19053 0.49533 0.52642
 H1596 H -0.18293 0.55974 0.50468
 H1597 H -0.12718 0.58260 0.46876
 H1598 H -0.07830 0.54161 0.45588
 H1599 H -0.11837 0.38825 0.50968
 H1600 H -0.06116 0.41181 0.49172
 C1601 C 0.37544 -0.02355 0.00461
 C1602 C 0.37084 -0.05942 -0.01180
 C1603 C 0.39937 -0.07476 -0.03307
 C1604 C 0.43308 -0.05709 -0.03443
 C1605 C 0.44036 -0.02325 -0.01461
 C1606 C 0.40977 -0.00431 0.00088
 C1607 C 0.34668 -0.00644 0.02485
 C1608 C 0.35035 0.02993 0.03782
 C1609 C 0.38236 0.04998 0.03025
 C1610 C 0.41160 0.03323 0.01182
 H1611 H 0.32097 -0.02074 0.03014
 H1612 H 0.32794 0.04293 0.05278
 H1613 H 0.38458 0.07871 0.03875
 H1614 H 0.43463 0.05077 0.00435
 H1615 H 0.39610 -0.10191 -0.04670
 H1616 H 0.45357 -0.07151 -0.04988
 C1617 C 0.36946 1.03201 0.45270
 C1618 C 0.36474 1.06450 0.47564
 C1619 C 0.39273 1.07804 0.50176
 C1620 C 0.42638 1.06218 0.50196
 C1621 C 0.43373 1.03225 0.47598
 C1622 C 0.40319 1.01409 0.45534
 C1623 C 0.34123 1.01707 0.42699
 C1624 C 0.34483 0.98356 0.40691
 C1625 C 0.37589 0.96384 0.41342
 C1626 C 0.40432 0.97849 0.43796
 H1627 H 0.31596 1.03081 0.42279
 H1628 H 0.32289 0.97219 0.38761
 H1629 H 0.37781 0.93676 0.39989
 H1630 H 0.42595 0.96048 0.44484
 H1631 H 0.38922 1.10270 0.52007
 H1632 H 0.44702 1.07511 0.52109
 C1633 C -0.13281 0.50680 1.00690
 C1634 C -0.13722 0.54549 1.00342
 C1635 C -0.10671 0.56839 1.00742
 C1636 C -0.07278 0.55461 1.00502
 C1637 C -0.06581 0.51668 1.00759
 C1638 C -0.09702 0.49235 1.01169
 C1639 C -0.16281 0.48207 1.00422
 C1640 C -0.15854 0.44427 1.00874
 C1641 C -0.12443 0.43037 1.01574
 C1642 C -0.09400 0.45399 1.01706
 H1643 H -0.18978 0.49160 0.99878
 H1644 H -0.18191 0.42561 1.00709
 H1645 H -0.12148 0.40098 1.01976
 H1646 H -0.06847 0.44161 1.02274
 H1647 H -0.10894 0.59807 1.00565
 H1648 H -0.05281 0.57520 0.99674
 C1649 C 0.03892 0.64676 0.52338
 C1650 C 0.02823 0.65126 0.56615
 C1651 C 0.00745 0.62415 0.58716
 C1652 C 0.00069 0.59079 0.56836
 C1653 C 0.01464 0.58308 0.52755
 C1654 C 0.02985 0.61304 0.50276
 C1655 C 0.05751 0.67525 0.50046
 C1656 C 0.06478 0.67155 0.45695
 C1657 C 0.05247 0.64019 0.43560
 C1658 C 0.03453 0.61159 0.45813
 H1659 H 0.06578 0.70070 0.51576
 H1660 H 0.07870 0.69368 0.43938
 H1661 H 0.05619 0.63830 0.40130
 H1662 H 0.02210 0.58986 0.43986
 H1663 H -0.00212 0.62821 0.61949
 H1664 H -0.01378 0.57029 0.58782
 C1665 C 0.50108 0.13463 0.06478
 C1666 C 0.52909 0.14170 0.09585
 C1667 C 0.55846 0.11887 0.09608
 C1668 C 0.55892 0.08898 0.06975
 C1669 C 0.53496 0.08418 0.03450
 C1670 C 0.50721 0.11020 0.03030
 C1671 C 0.46641 0.14934 0.06790
 C1672 C 0.44188 0.14687 0.03384
 C1673 C 0.45126 0.12938 -0.00357
 C1674 C 0.48361 0.11101 -0.00537
 H1675 H 0.45774 0.16242 0.09676
 H1676 H 0.41579 0.15919 0.03619
 H1677 H 0.43284 0.12885 -0.03070
 H1678 H 0.48996 0.09771 -0.03486
 H1679 H 0.58060 0.12207 0.11855
 H1680 H 0.57748 0.06849 0.07989
 C1681 C -0.04055 0.10363 0.87369
 C1682 C -0.01815 0.13576 0.87560
 C1683 C 0.01058 0.13541 0.90602
 C1684 C 0.01586 0.10464 0.93352
 C1685 C -0.00347 0.07111 0.92732
 C1686 C -0.02736 0.07010 0.88990
 C1687 C -0.07568 0.10326 0.85560
 C1688 C -0.09159 0.07066 0.84080
 C1689 C -0.07256 0.03853 0.84422
 C1690 C -0.04050 0.03819 0.86804
 H1691 H -0.09031 0.12829 0.85126
 H1692 H -0.11762 0.07074 0.82481
 H1693 H -0.08301 0.01364 0.82936
 H1694 H -0.02610 0.01318 0.86652
 H1695 H 0.02868 0.15908 0.90972
 H1696 H 0.03553 0.10692 0.95930
 C1697 C 0.47900 0.65392 0.44502
 C1698 C 0.48517 0.65258 0.40040
 C1699 C 0.49968 0.62145 0.38332
 C1700 C 0.50398 0.59017 0.40851
 C1701 C 0.49247 0.58785 0.45183
 C1702 C 0.48399 0.62173 0.47131
 C1703 C 0.46735 0.68636 0.46391
 C1704 C 0.46192 0.68768 0.50804
 C1705 C 0.46801 0.65687 0.53391
 C1706 C 0.47897 0.62438 0.51572
 H1707 H 0.46267 0.71095 0.44482
 H1708 H 0.45318 0.71278 0.52227
 H1709 H 0.46406 0.65806 0.56823
 H1710 H 0.48335 0.60143 0.53647
 H1711 H 0.50638 0.62078 0.34953
 H1712 H 0.51475 0.56701 0.39225
 C1713 C 0.48775 0.87712 0.38832
 C1714 C 0.51638 0.87230 0.35896
 C1715 C 0.54515 0.89798 0.35905
 C1716 C 0.54520 0.92782 0.38528
 C1717 C 0.52073 0.93075 0.41947
 C1718 C 0.49224 0.90313 0.42207
 C1719 C 0.45442 0.85738 0.38452
 C1720 C 0.42873 0.85829 0.41683
 C1721 C 0.43589 0.87870 0.45335
 C1722 C 0.46734 0.90075 0.45610
 H1723 H 0.44800 0.84116 0.35653
 H1724 H 0.40364 0.84233 0.41402
 H1725 H 0.41668 0.87800 0.47939
 H1726 H 0.47197 0.91498 0.48549
 H1727 H 0.56807 0.89612 0.33810
 H1728 H 0.56478 0.94914 0.37674
 C1729 C 0.05866 0.37487 0.89509
 C1730 C 0.02826 0.35069 0.89376
 C1731 C 0.00018 0.35725 0.92260
 C1732 C 0.00175 0.38898 0.94806
 C1733 C 0.02742 0.41791 0.93937
 C1734 C 0.05264 0.41144 0.90537
 C1735 C 0.09278 0.36571 0.87944
 C1736 C 0.11544 0.39318 0.86153
 C1737 C 0.10349 0.42905 0.85865
 C1738 C 0.07176 0.43814 0.87958
 H1739 H 0.09996 0.33732 0.87677
 H1740 H 0.14069 0.38621 0.84700
 H1741 H 0.11935 0.45011 0.84159
 H1742 H 0.06427 0.46628 0.87638
 H1743 H -0.02333 0.33884 0.92467
 H1744 H -0.01935 0.39244 0.97135
 C1745 C 0.48560 0.35535 0.03677
 C1746 C 0.48075 0.35129 0.08171
 C1747 C 0.49018 0.38040 0.10793
 C1748 C 0.49704 0.41481 0.09070
 C1749 C 0.49295 0.42237 0.04614
 C1750 C 0.49298 0.39139 0.01865
 C1751 C 0.48188 0.32503 0.00943
 C1752 C 0.48671 0.32966 -0.03471
 C1753 C 0.49474 0.36447 -0.05233
 C1754 C 0.49768 0.39512 -0.02608
 H1755 H 0.47522 0.29768 0.02186
 H1756 H 0.48403 0.30613 -0.05541
 H1757 H 0.49838 0.36780 -0.08663
 H1758 H 0.50369 0.42142 -0.04127
 H1759 H 0.49038 0.37691 0.14260
 H1760 H 0.50311 0.43554 0.11422
 C1761 C -0.06148 0.88785 0.60740
 C1762 C -0.03580 0.86227 0.59565
 C1763 C -0.00874 0.87486 0.56667
 C1764 C -0.00669 0.91196 0.55292
 C1765 C -0.02717 0.93850 0.57325
 C1766 C -0.05059 0.92520 0.60734
 C1767 C -0.09578 0.87735 0.62386
 C1768 C -0.11254 0.90024 0.65239
 C1769 C -0.09544 0.93348 0.66336
 C1770 C -0.06460 0.94607 0.64109
 H1771 H -0.10732 0.84997 0.61877
 H1772 H -0.13744 0.89122 0.66788
 H1773 H -0.10696 0.95036 0.68765
 H1774 H -0.05334 0.97229 0.65039
 H1775 H 0.01118 0.85668 0.55481
 H1776 H 0.01274 0.92015 0.52848
 C1777 C 0.22509 0.31683 0.13432
 C1778 C 0.23653 0.35436 0.14070
 C1779 C 0.22737 0.37055 0.17918
 C1780 C 0.21204 0.34979 0.21257
 C1781 C 0.20917 0.31091 0.21113
 C1782 C 0.20928 0.29590 0.16936
 C1783 C 0.23150 0.29840 0.09571
 C1784 C 0.21963 0.26190 0.09041
 C1785 C 0.20182 0.24271 0.12352
 C1786 C 0.19692 0.25938 0.16282
 H1787 H 0.24613 0.31147 0.06944
 H1788 H 0.22436 0.24839 0.06041
 H1789 H 0.19244 0.21451 0.11902
 H1790 H 0.18342 0.24369 0.18822
 H1791 H 0.23326 0.39961 0.18415
 H1792 H 0.20937 0.36449 0.24163
 C1793 C 0.74246 0.82169 0.63162
 C1794 C 0.74441 0.85993 0.64071
 C1795 C 0.73303 0.87094 0.68114
 C1796 C 0.72413 0.84491 0.71343
 C1797 C 0.72700 0.80698 0.70732
 C1798 C 0.72989 0.79584 0.66376
 C1799 C 0.75321 0.80814 0.59160
 C1800 C 0.74684 0.77132 0.58138
 C1801 C 0.72962 0.74740 0.61059
 C1802 C 0.72105 0.75950 0.65130
 H1803 H 0.76667 0.82558 0.56781
 H1804 H 0.75451 0.76154 0.55026
 H1805 H 0.72322 0.71923 0.60185
 H1806 H 0.70643 0.74051 0.67238
 H1807 H 0.73192 0.89995 0.68819
 H1808 H 0.71581 0.85476 0.74367
 C1809 C 0.25707 0.68887 0.62721
 C1810 C 0.24862 0.65031 0.62890
 C1811 C 0.25717 0.63088 0.66627
 C1812 C 0.26916 0.64896 0.70293
 C1813 C 0.27227 0.68793 0.70503
 C1814 C 0.27111 0.70712 0.66466
 C1815 C 0.25092 0.71009 0.58964
 C1816 C 0.26089 0.74743 0.58768
 C1817 C 0.27703 0.76439 0.62297
 C1818 C 0.28211 0.74453 0.66111
 H1819 H 0.23828 0.69822 0.56151
 H1820 H 0.25638 0.76322 0.55845
 H1821 H 0.28538 0.79320 0.62089
 H1822 H 0.29525 0.75846 0.68759
 H1823 H 0.25298 0.60121 0.66782
 H1824 H 0.27110 0.63144 0.73060
 C1825 C 0.78473 0.14772 0.15256
 C1826 C 0.75270 0.12854 0.13826
 C1827 C 0.71978 0.13991 0.15432
 C1828 C 0.71807 0.16526 0.18641
 C1829 C 0.74915 0.18210 0.20538
 C1830 C 0.78230 0.17637 0.18371
 C1831 C 0.81934 0.13822 0.13868
 C1832 C 0.85001 0.15906 0.15051
 C1833 C 0.84682 0.18953 0.17640
 C1834 C 0.81324 0.19802 0.19262
 H1835 H 0.82322 0.11447 0.11913
 H1836 H 0.87631 0.15179 0.13912
 H1837 H 0.87052 0.20628 0.18453
 H1838 H 0.81106 0.22154 0.21208
 H1839 H 0.69422 0.12938 0.14160
 H1840 H 0.69096 0.17105 0.19615
 C1841 C 0.74098 0.09317 0.83768
 C1842 C 0.74261 0.11246 0.87617
 C1843 C 0.73299 0.14943 0.87473
 C1844 C 0.72645 0.16749 0.83511
 C1845 C 0.73497 0.15133 0.79543
 C1846 C 0.74547 0.11307 0.79826
 C1847 C 0.74073 0.05433 0.83860
 C1848 C 0.75121 0.03539 0.80284
 C1849 C 0.76437 0.05513 0.76748
 C1850 C 0.76310 0.09355 0.76594
 H1851 H 0.73439 0.03887 0.86782
 H1852 H 0.75183 0.00563 0.80382
 H1853 H 0.77582 0.04050 0.74139
 H1854 H 0.77673 0.10671 0.73944
 H1855 H 0.73255 0.16503 0.90397
 H1856 H 0.71911 0.19603 0.83604
 C1857 C 0.23076 0.68893 0.36698
 C1858 C 0.24465 0.65287 0.36607
 C1859 C 0.24176 0.63353 0.32812
 C1860 C 0.23125 0.65066 0.29030
 C1861 C 0.22206 0.68825 0.28815
 C1862 C 0.21674 0.70532 0.32832
 C1863 C 0.23155 0.70982 0.40473
 C1864 C 0.21578 0.74409 0.40557
 C1865 C 0.19916 0.75833 0.36895
 C1866 C 0.19965 0.73923 0.33062
 H1867 H 0.24448 0.70021 0.43382
 H1868 H 0.21614 0.75953 0.43494
 H1869 H 0.18624 0.78454 0.37011
 H1870 H 0.18604 0.75084 0.30301
 H1871 H 0.25057 0.60542 0.32690
 H1872 H 0.23628 0.63487 0.26254
 C1873 C 0.76896 0.82628 0.38495
 C1874 C 0.75915 0.86373 0.38079
 C1875 C 0.76293 0.88101 0.34058
 C1876 C 0.77023 0.86111 0.30433
 C1877 C 0.77674 0.82323 0.30596
 C1878 C 0.78115 0.80729 0.34797
 C1879 C 0.76618 0.80667 0.42440
 C1880 C 0.77952 0.77140 0.42887
 C1881 C 0.79593 0.75510 0.39438
 C1882 C 0.79692 0.77287 0.35436
 H1883 H 0.75366 0.81802 0.45209
 H1884 H 0.77784 0.75697 0.45955
 H1885 H 0.80766 0.72839 0.39855
 H1886 H 0.81122 0.76000 0.32894
 H1887 H 0.75732 0.90994 0.33640
 H1888 H 0.76841 0.87569 0.27460
 C1889 C 0.26532 0.39383 0.83755
 C1890 C 0.26522 0.37641 0.87841
 C1891 C 0.27284 0.33901 0.88092
 C1892 C 0.27649 0.31824 0.84387
 C1893 C 0.27083 0.33297 0.80187
 C1894 C 0.26453 0.37215 0.79961
 C1895 C 0.26296 0.43260 0.83397
 C1896 C 0.25547 0.44969 0.79498
 C1897 C 0.24933 0.42841 0.75928
 C1898 C 0.25383 0.39054 0.76187
 H1899 H 0.26483 0.44993 0.86161
 H1900 H 0.25251 0.47920 0.79300
 H1901 H 0.24088 0.44124 0.72944
 H1902 H 0.24583 0.37595 0.73500
 H1903 H 0.27350 0.32490 0.91183
 H1904 H 0.28064 0.28914 0.84878
 C1905 C 0.76625 0.36225 0.73204
 C1906 C 0.80401 0.36956 0.72721
 C1907 C 0.82666 0.34002 0.73056
 C1908 C 0.81323 0.30426 0.73394
 C1909 C 0.77616 0.29449 0.73836
 C1910 C 0.75232 0.32486 0.73922
 C1911 C 0.74185 0.39102 0.72842
 C1912 C 0.70493 0.38419 0.73380
 C1913 C 0.69160 0.34870 0.74296
 C1914 C 0.71487 0.31941 0.74575
 H1915 H 0.75097 0.41897 0.72104
 H1916 H 0.68653 0.40662 0.73106
 H1917 H 0.66291 0.34377 0.74773
 H1918 H 0.70296 0.29283 0.75381
 H1919 H 0.85565 0.34437 0.72753
 H1920 H 0.83348 0.28468 0.73033
 C1921 C 0.27681 0.88462 0.22760
 C1922 C 0.31382 0.89079 0.21651
 C1923 C 0.33675 0.86098 0.22032
 C1924 C 0.32373 0.82579 0.23112
 C1925 C 0.28674 0.81758 0.23657
 C1926 C 0.26375 0.84828 0.24019
 C1927 C 0.25176 0.91295 0.22357
 C1928 C 0.21606 0.90717 0.23637
 C1929 C 0.20454 0.87319 0.25335
 C1930 C 0.22803 0.84409 0.25536
 H1931 H 0.25925 0.93967 0.20996
 H1932 H 0.19737 0.92936 0.23373
 H1933 H 0.17714 0.86928 0.26484
 H1934 H 0.21820 0.81911 0.27090
 H1935 H 0.36551 0.86480 0.21484
 H1936 H 0.34313 0.80465 0.23201
 C1937 C 0.16257 0.85596 0.74692
 C1938 C 0.18766 0.88286 0.76138
 C1939 C 0.22187 0.87180 0.77422
 C1940 C 0.23002 0.83437 0.77562
 C1941 C 0.20312 0.80603 0.76962
 C1942 C 0.16770 0.81840 0.75813
 C1943 C 0.12939 0.86687 0.72877
 C1944 C 0.09989 0.84227 0.72726
 C1945 C 0.10281 0.80751 0.74573
 C1946 C 0.13606 0.79652 0.76191
 H1947 H 0.12578 0.89506 0.71808
 H1948 H 0.07423 0.85097 0.71451
 H1949 H 0.07928 0.78909 0.74807
 H1950 H 0.13637 0.77127 0.77869
 H1951 H 0.24170 0.89197 0.78568
 H1952 H 0.25728 0.82788 0.78494
 C1953 C 0.67114 0.36115 0.23155
 C1954 C 0.67431 0.38278 0.26870
 C1955 C 0.69428 0.36973 0.30346
 C1956 C 0.70753 0.33445 0.30392
 C1957 C 0.70064 0.30965 0.27028
 C1958 C 0.68625 0.32522 0.23119
 C1959 C 0.65306 0.37453 0.19480
 C1960 C 0.65140 0.35420 0.15739
 C1961 C 0.66817 0.32065 0.15573
 C1962 C 0.68567 0.30644 0.19188
 H1963 H 0.64059 0.40103 0.19448
 H1964 H 0.63773 0.36492 0.12924
 H1965 H 0.66777 0.30554 0.12612
 H1966 H 0.69932 0.28128 0.18764
 H1967 H 0.69805 0.38637 0.33176
 H1968 H 0.72255 0.32656 0.33217
 C1969 C 0.65436 0.65151 0.26590
 C1970 C 0.67678 0.62115 0.26680
 C1971 C 0.71412 0.62856 0.27126
 C1972 C 0.72823 0.66530 0.26981
 C1973 C 0.70659 0.69474 0.25567
 C1974 C 0.66868 0.68540 0.24936
 C1975 C 0.61679 0.64662 0.27213
 C1976 C 0.59327 0.67188 0.25438
 C1977 C 0.60704 0.69990 0.22764
 C1978 C 0.64440 0.70540 0.22364
 H1979 H 0.60576 0.62198 0.28796
 H1980 H 0.56438 0.66775 0.25806
 H1981 H 0.58887 0.71713 0.20958
 H1982 H 0.65343 0.72452 0.19919
 H1983 H 0.73251 0.60608 0.27347
 H1984 H 0.75704 0.66989 0.27414
 C1985 C 0.15641 0.15068 0.78731
 C1986 C 0.17944 0.12091 0.78658
 C1987 C 0.21674 0.12940 0.78868
 C1988 C 0.22966 0.16646 0.78522
 C1989 C 0.20653 0.19457 0.77071
 C1990 C 0.16875 0.18374 0.76706
 C1991 C 0.11952 0.14531 0.79718
 C1992 C 0.09441 0.16915 0.77977
 C1993 C 0.10574 0.19524 0.74906
 C1994 C 0.14264 0.20115 0.74123
 H1995 H 0.11010 0.12124 0.81545
 H1996 H 0.06601 0.16509 0.78682
 H1997 H 0.08606 0.21090 0.73131
 H1998 H 0.14980 0.21915 0.71480
 H1999 H 0.23588 0.10756 0.78998
 H2000 H 0.25849 0.17204 0.78767
 C2001 C 0.33053 0.14761 0.22672
 C2002 C 0.31564 0.11919 0.25363
 C2003 C 0.28496 0.12600 0.27721
 C2004 C 0.27110 0.16107 0.27795
 C2005 C 0.28736 0.19156 0.25528
 C2006 C 0.31507 0.18328 0.22564
 C2007 C 0.36045 0.14108 0.20049
 C2008 C 0.37373 0.16821 0.17203
 C2009 C 0.35674 0.20166 0.16823
 C2010 C 0.32737 0.20880 0.19419
 H2011 H 0.37327 0.11474 0.20115
 H2012 H 0.39650 0.16280 0.15178
 H2013 H 0.36598 0.22196 0.14454
 H2014 H 0.31310 0.23336 0.18755
 H2015 H 0.27307 0.10455 0.29780
 H2016 H 0.24827 0.16400 0.29877
 C2017 C 0.84956 0.63656 0.73977
 C2018 C 0.82504 0.60641 0.74074
 C2019 C 0.78824 0.61393 0.73615
 C2020 C 0.77679 0.65069 0.73588
 C2021 C 0.80061 0.68010 0.74841
 C2022 C 0.83800 0.67058 0.75481
 C2023 C 0.88637 0.63186 0.73125
 C2024 C 0.91208 0.65777 0.74529
 C2025 C 0.90140 0.68555 0.77191
 C2026 C 0.86464 0.69087 0.77814
 H2027 H 0.89515 0.60732 0.71573
 H2028 H 0.94031 0.65461 0.73838
 H2029 H 0.92146 0.70349 0.78702
 H2030 H 0.85831 0.71177 0.80011
 H2031 H 0.76823 0.59154 0.73505
 H2032 H 0.74823 0.65523 0.73183
 C2033 C 0.89429 0.80592 0.21834
 C2034 C 0.90507 0.77772 0.19128
 C2035 C 0.88235 0.74643 0.18719
 C2036 C 0.84721 0.74618 0.20214
 C2037 C 0.83261 0.77754 0.22055
 C2038 C 0.85741 0.80773 0.23026
 C2039 C 0.91991 0.83252 0.23342
 C2040 C 0.90903 0.86287 0.25574
 C2041 C 0.87261 0.86729 0.26290
 C2042 C 0.84736 0.84038 0.24987
 H2043 H 0.94849 0.82997 0.22762
 H2044 H 0.92875 0.88346 0.26636
 H2045 H 0.86377 0.89174 0.27845
 H2046 H 0.82022 0.84698 0.25319
 H2047 H 0.89006 0.72335 0.16820
 H2048 H 0.83083 0.72175 0.19549
 C2049 C 0.39000 0.29926 0.72052
 C2050 C 0.39755 0.27833 0.68415
 C2051 C 0.37318 0.25054 0.67147
 C2052 C 0.33957 0.24648 0.69051
 C2053 C 0.32898 0.26990 0.72358
 C2054 C 0.35645 0.29310 0.74215
 C2055 C 0.41526 0.32571 0.73629
 C2056 C 0.40848 0.34421 0.77404
 C2057 C 0.37732 0.33554 0.79731
 C2058 C 0.35201 0.30970 0.78179
 H2059 H 0.44059 0.33171 0.72010
 H2060 H 0.42813 0.36424 0.78614
 H2061 H 0.37309 0.34827 0.82792
 H2062 H 0.33057 0.30035 0.80227
 H2063 H 0.37914 0.23359 0.64434
 H2064 H 0.32092 0.22656 0.67633
 C2065 C 0.35433 0.73322 0.88401
 C2066 C 0.38417 0.73962 0.85727
 C2067 C 0.37796 0.74714 0.81360
 C2068 C 0.34283 0.74408 0.79672
 C2069 C 0.31463 0.72710 0.82110
 C2070 C 0.32206 0.71896 0.86582
 C2071 C 0.35733 0.73686 0.92884
 C2072 C 0.33110 0.72077 0.95564
 C2073 C 0.30395 0.69841 0.93813
 C2074 C 0.30031 0.69630 0.89368
 H2075 H 0.38061 0.75100 0.94291
 H2076 H 0.33329 0.72317 0.99001
 H2077 H 0.28581 0.68249 0.95893
 H2078 H 0.28125 0.67576 0.88231
 H2079 H 0.40027 0.75380 0.79227
 H2080 H 0.33852 0.75146 0.76327
 C2081 C 0.87795 0.23475 0.29784
 C2082 C 0.88485 0.21384 0.33637
 C2083 C 0.85492 0.19740 0.35714
 C2084 C 0.82052 0.20026 0.34118
 C2085 C 0.81205 0.22209 0.30473
 C2086 C 0.84151 0.24294 0.28581
 C2087 C 0.90595 0.24686 0.26988
 C2088 C 0.89969 0.27270 0.23734
 C2089 C 0.86543 0.28646 0.23164
 C2090 C 0.83655 0.27186 0.25563
 H2091 H 0.93284 0.23640 0.27278
 H2092 H 0.92167 0.28261 0.21704
 H2093 H 0.86092 0.30763 0.20749
 H2094 H 0.81060 0.28303 0.24918
 H2095 H 0.85691 0.18335 0.38788
 H2096 H 0.80017 0.18594 0.36032
 C2097 C 0.11705 0.23154 0.33977
 C2098 C 0.11040 0.26112 0.36773
 C2099 C 0.14083 0.28073 0.38269
 C2100 C 0.17366 0.27833 0.36269
 C2101 C 0.17749 0.25891 0.32407
 C2102 C 0.14911 0.23258 0.31421
 C2103 C 0.09442 0.19954 0.33938
 C2104 C 0.09889 0.17256 0.30900
 C2105 C 0.12666 0.17646 0.27942
 C2106 C 0.15176 0.20583 0.28213
 H2107 H 0.07356 0.19485 0.36321
 H2108 H 0.08069 0.14863 0.30834
 H2109 H 0.12963 0.15581 0.25523
 H2110 H 0.17303 0.20597 0.25926
 H2111 H 0.14010 0.29924 0.40920
 H2112 H 0.19527 0.29515 0.37634
 C2113 C 0.62823 0.73679 0.84423
 C2114 C 0.61253 0.77171 0.83875
 C2115 C 0.62901 0.79742 0.81050
 C2116 C 0.66138 0.79006 0.79004
 C2117 C 0.67877 0.75648 0.79635
 C2118 C 0.65938 0.72804 0.81994
 C2119 C 0.61378 0.71021 0.87370
 C2120 C 0.62636 0.67457 0.87520
 C2121 C 0.65316 0.66460 0.84724
 C2122 C 0.66920 0.69082 0.81957
 H2123 H 0.59261 0.71655 0.89578
 H2124 H 0.61438 0.65425 0.89710
 H2125 H 0.66147 0.63635 0.84679
 H2126 H 0.68758 0.68083 0.79631
 H2127 H 0.61730 0.82405 0.80520
 H2128 H 0.67390 0.81207 0.77120
 C2129 C 0.61586 0.16417 0.66298
 C2130 C 0.59544 0.19550 0.66930
 C2131 C 0.60974 0.22157 0.69824
 C2132 C 0.64473 0.21805 0.71558
 C2133 C 0.66889 0.19263 0.69876
 C2134 C 0.65375 0.16831 0.66658
 C2135 C 0.60047 0.13165 0.64558
 C2136 C 0.62159 0.10948 0.62072
 C2137 C 0.65723 0.12061 0.61248
 C2138 C 0.67300 0.15042 0.63442
 H2139 H 0.57160 0.12591 0.64699
 H2140 H 0.60950 0.08585 0.60478
 H2141 H 0.67286 0.10588 0.58962
 H2142 H 0.69997 0.15866 0.62541
 H2143 H 0.59488 0.24558 0.70615
 H2144 H 0.65412 0.23830 0.73850
 C2145 C 0.13335 0.69102 0.13076
 C2146 C 0.10734 0.71749 0.13855
 C2147 C 0.11779 0.74754 0.16453
 C2148 C 0.15243 0.75042 0.18253
 C2149 C 0.17958 0.72699 0.16991
 C2150 C 0.17019 0.70077 0.13681
 C2151 C 0.12408 0.65530 0.11625
 C2152 C 0.14948 0.63498 0.09529
 C2153 C 0.18419 0.64983 0.08976
 C2154 C 0.19464 0.68241 0.11024
 H2155 H 0.09683 0.64383 0.11915
 H2156 H 0.14188 0.60850 0.08201
 H2157 H 0.20357 0.63531 0.07123
 H2158 H 0.22190 0.69177 0.10454
 H2159 H 0.09944 0.76897 0.17170
 H2160 H 0.15824 0.77198 0.20535
   
