data_POSCAR
  _audit_creation_date              2014-09-24
  _audit_creation_method            'ToBaCCo'
  _symmetry_space_group_name_H-M    'P1'
  _symmetry_Int_Tables_number       1
  _symmetry_cell_setting            triclinic
  loop_
  _symmetry_equiv_pos_as_xyz
 x,y,z
_cell_length_a 99.5434
_cell_length_b 99.9521
_cell_length_c 100.6493
_cell_angle_alpha 89.959700
_cell_angle_beta 90.040400
_cell_angle_gamma 89.981200
loop_
  _atom_site_label
  _atom_site_type_symbol
  _atom_site_fract_x
  _atom_site_fract_y
  _atom_site_fract_z
C1 C 0.34992 0.34953 0.33390
 C2 C 0.36123 0.34348 0.32815
 C3 C 0.36680 0.33194 0.33382
 C4 C 0.36117 0.32640 0.34533
 C5 C 0.34987 0.33232 0.35122
 C6 C 0.34419 0.34393 0.34549
 C7 C 0.34414 0.36097 0.32820
 C8 C 0.33274 0.36682 0.33392
 C9 C 0.32706 0.36132 0.34543
 C10 C 0.33271 0.34987 0.35126
 C11 C 0.32700 0.34416 0.36267
 C12 C 0.33261 0.33262 0.36830
 C13 C 0.34402 0.32674 0.36263
 H14 H 0.36563 0.34766 0.31921
 H15 H 0.36553 0.31743 0.34962
 H16 H 0.34842 0.36528 0.31926
 H17 H 0.31820 0.36589 0.34975
 H18 H 0.31813 0.34860 0.36711
 H19 H 0.34826 0.31777 0.36703
 C20 C 0.34930 0.84962 -0.16679
 C21 C 0.36062 0.84364 -0.17258
 C22 C 0.36621 0.83204 -0.16700
 C23 C 0.36055 0.82639 -0.15554
 C24 C 0.34923 0.83225 -0.14963
 C25 C 0.34356 0.84391 -0.15527
 C26 C 0.34352 0.86111 -0.17240
 C27 C 0.33209 0.86691 -0.16665
 C28 C 0.32641 0.86128 -0.15519
 C29 C 0.33207 0.84979 -0.14945
 C30 C 0.32635 0.84398 -0.13810
 C31 C 0.33197 0.83240 -0.13255
 C32 C 0.34338 0.82657 -0.13827
 H33 H 0.36502 0.84793 -0.18147
 H34 H 0.36489 0.81739 -0.15130
 H35 H 0.34785 0.86549 -0.18130
 H36 H 0.31753 0.86578 -0.15081
 H37 H 0.31748 0.84838 -0.13362
 H38 H 0.34762 0.81758 -0.13393
 C39 C 0.84953 0.34926 -0.16764
 C40 C 0.86084 0.34318 -0.17335
 C41 C 0.86636 0.33160 -0.16767
 C42 C 0.86064 0.32607 -0.15619
 C43 C 0.84933 0.33203 -0.15035
 C44 C 0.84373 0.34367 -0.15609
 C45 C 0.84383 0.36075 -0.17335
 C46 C 0.83242 0.36665 -0.16766
 C47 C 0.82668 0.36113 -0.15618
 C48 C 0.83226 0.34965 -0.15035
 C49 C 0.82648 0.34395 -0.13896
 C50 C 0.83203 0.33239 -0.13332
 C51 C 0.84343 0.32646 -0.13897
 H52 H 0.86528 0.34739 -0.18227
 H53 H 0.86493 0.31708 -0.15187
 H54 H 0.84820 0.36503 -0.18226
 H55 H 0.81782 0.36572 -0.15185
 H56 H 0.81762 0.34843 -0.13454
 H57 H 0.84761 0.31748 -0.13455
 C58 C 0.84876 0.84956 0.33312
 C59 C 0.86009 0.84359 0.32735
 C60 C 0.86570 0.83204 0.33297
 C61 C 0.86007 0.82640 0.34443
 C62 C 0.84874 0.83224 0.35033
 C63 C 0.84303 0.84387 0.34466
 C64 C 0.84294 0.86102 0.32747
 C65 C 0.83150 0.86680 0.33322
 C66 C 0.82584 0.86120 0.34470
 C67 C 0.83153 0.84974 0.35046
 C68 C 0.82583 0.84395 0.36184
 C69 C 0.83149 0.83239 0.36741
 C70 C 0.84291 0.82658 0.36170
 H71 H 0.86450 0.84784 0.31844
 H72 H 0.86446 0.81743 0.34867
 H73 H 0.84725 0.86537 0.31856
 H74 H 0.81696 0.86570 0.34907
 H75 H 0.81696 0.84834 0.36631
 H76 H 0.84718 0.81761 0.36607
 C77 C 0.65033 0.65016 0.33279
 C78 C 0.63897 0.65611 0.32702
 C79 C 0.63325 0.66755 0.33273
 C80 C 0.63879 0.67310 0.34428
 C81 C 0.65015 0.66728 0.35017
 C82 C 0.65597 0.65576 0.34442
 C83 C 0.65625 0.63881 0.32706
 C84 C 0.66770 0.63305 0.33281
 C85 C 0.67329 0.63856 0.34436
 C86 C 0.66750 0.64991 0.35022
 C87 C 0.67311 0.65561 0.36168
 C88 C 0.66735 0.66705 0.36734
 C89 C 0.65590 0.67285 0.36164
 H90 H 0.63463 0.65193 0.31805
 H91 H 0.63431 0.68198 0.34859
 H92 H 0.65204 0.63450 0.31810
 H93 H 0.68218 0.63405 0.34871
 H94 H 0.68200 0.65123 0.36615
 H95 H 0.65154 0.68173 0.36607
 C96 C 0.65053 0.14946 -0.16772
 C97 C 0.63916 0.15535 -0.17353
 C98 C 0.63344 0.16684 -0.16793
 C99 C 0.63901 0.17251 -0.15645
 C100 C 0.65038 0.16676 -0.15052
 C101 C 0.65619 0.15518 -0.15616
 C102 C 0.65644 0.13805 -0.17334
 C103 C 0.66791 0.13234 -0.16755
 C104 C 0.67351 0.13798 -0.15606
 C105 C 0.66773 0.14940 -0.15032
 C106 C 0.67336 0.15522 -0.13893
 C107 C 0.66760 0.16672 -0.13338
 C108 C 0.65614 0.17245 -0.13912
 H109 H 0.63479 0.15107 -0.18244
 H110 H 0.63453 0.18144 -0.15222
 H111 H 0.65218 0.13366 -0.18226
 H112 H 0.68242 0.13355 -0.15165
 H113 H 0.68226 0.15089 -0.13442
 H114 H 0.65179 0.18138 -0.13478
 C115 C 0.15053 0.64955 -0.16718
 C116 C 0.13921 0.65557 -0.17298
 C117 C 0.13360 0.66710 -0.16734
 C118 C 0.13921 0.67267 -0.15584
 C119 C 0.15052 0.66678 -0.14991
 C120 C 0.15622 0.65517 -0.15560
 C121 C 0.15633 0.63810 -0.17284
 C122 C 0.16774 0.63227 -0.16707
 C123 C 0.17338 0.63781 -0.15555
 C124 C 0.16770 0.64925 -0.14976
 C125 C 0.17337 0.65498 -0.13834
 C126 C 0.16772 0.66651 -0.13275
 C127 C 0.15632 0.67237 -0.13849
 H128 H 0.13482 0.65137 -0.18192
 H129 H 0.13482 0.68162 -0.15158
 H130 H 0.15204 0.63380 -0.18178
 H131 H 0.18225 0.63328 -0.15115
 H132 H 0.18223 0.65055 -0.13385
 H133 H 0.15205 0.68133 -0.13411
 C134 C 0.15032 0.15042 0.33172
 C135 C 0.13895 0.15639 0.32599
 C136 C 0.13338 0.16796 0.33162
 C137 C 0.13910 0.17359 0.34305
 C138 C 0.15047 0.16774 0.34890
 C139 C 0.15613 0.15610 0.34322
 C140 C 0.15610 0.13895 0.32606
 C141 C 0.16758 0.13317 0.33175
 C142 C 0.17332 0.13878 0.34318
 C143 C 0.16768 0.15024 0.34896
 C144 C 0.17347 0.15604 0.36029
 C145 C 0.16786 0.16760 0.36587
 C146 C 0.15639 0.17341 0.36023
 H147 H 0.13451 0.15211 0.31711
 H148 H 0.13477 0.18257 0.34733
 H149 H 0.15173 0.13459 0.31718
 H150 H 0.18224 0.13428 0.34751
 H151 H 0.18239 0.15166 0.36470
 H152 H 0.15216 0.18239 0.36459
 C153 C 0.65083 0.34975 0.66717
 C154 C 0.63939 0.34384 0.67280
 C155 C 0.63373 0.33238 0.66707
 C156 C 0.63943 0.32677 0.65563
 C157 C 0.65088 0.33255 0.64987
 C158 C 0.65662 0.34409 0.65566
 C159 C 0.65668 0.36113 0.67292
 C160 C 0.66820 0.36685 0.66731
 C161 C 0.67394 0.36128 0.65587
 C162 C 0.66822 0.34990 0.64999
 C163 C 0.67398 0.34414 0.63863
 C164 C 0.66829 0.33268 0.63294
 C165 C 0.65676 0.32692 0.63851
 H166 H 0.63492 0.34808 0.68168
 H167 H 0.63500 0.31787 0.65130
 H168 H 0.65234 0.36549 0.68180
 H169 H 0.68288 0.36575 0.65163
 H170 H 0.68293 0.34849 0.63427
 H171 H 0.65246 0.31802 0.63406
 C172 C 0.65076 0.84967 1.16721
 C173 C 0.63932 0.84375 1.17284
 C174 C 0.63370 0.83225 1.16712
 C175 C 0.63944 0.82664 1.15569
 C176 C 0.65088 0.83244 1.14994
 C177 C 0.65658 0.84400 1.15572
 C178 C 0.65657 0.86107 1.17295
 C179 C 0.66809 0.86681 1.16735
 C180 C 0.67386 0.86123 1.15594
 C181 C 0.66819 0.84983 1.15007
 C182 C 0.67398 0.84407 1.13873
 C183 C 0.66832 0.83258 1.13304
 C184 C 0.65680 0.82681 1.13861
 H185 H 0.63486 0.84802 1.18171
 H186 H 0.63506 0.81771 1.15134
 H187 H 0.65221 0.86544 1.18182
 H188 H 0.68281 0.86572 1.15171
 H189 H 0.68292 0.84843 1.13437
 H190 H 0.65253 0.81789 1.13415
 C191 C 0.15037 0.34984 1.16742
 C192 C 0.13889 0.34391 1.17294
 C193 C 0.13330 0.33245 1.16713
 C194 C 0.13911 0.32688 1.15571
 C195 C 0.15059 0.33269 1.15007
 C196 C 0.15627 0.34422 1.15593
 C197 C 0.15616 0.36121 1.17325
 C198 C 0.16773 0.36695 1.16776
 C199 C 0.17358 0.36142 1.15636
 C200 C 0.16792 0.35006 1.15039
 C201 C 0.17379 0.34434 1.13907
 C202 C 0.16815 0.33289 1.13329
 C203 C 0.15659 0.32711 1.13875
 H204 H 0.13437 0.34815 1.18180
 H205 H 0.13476 0.31798 1.15129
 H206 H 0.15174 0.36554 1.18211
 H207 H 0.18256 0.36591 1.15221
 H208 H 0.18277 0.34871 1.13480
 H209 H 0.15234 0.31821 1.13422
 C210 C 0.15072 0.84964 0.66723
 C211 C 0.13925 0.84378 0.67287
 C212 C 0.13350 0.83237 0.66710
 C213 C 0.13913 0.82679 0.65561
 C214 C 0.15059 0.83253 0.64984
 C215 C 0.15643 0.84400 0.65567
 C216 C 0.15667 0.86094 0.67303
 C217 C 0.16823 0.86659 0.66742
 C218 C 0.17389 0.86104 0.65594
 C219 C 0.16807 0.84975 0.65001
 C220 C 0.17376 0.84400 0.63861
 C221 C 0.16797 0.83261 0.63288
 C222 C 0.15642 0.82691 0.63844
 H223 H 0.13488 0.84802 0.68180
 H224 H 0.13466 0.81793 0.65121
 H225 H 0.15240 0.86528 0.68196
 H226 H 0.18287 0.86547 0.65171
 H227 H 0.18274 0.84831 0.63425
 H228 H 0.15205 0.81806 0.63395
 C229 C 0.34946 0.64997 0.66713
 C230 C 0.36087 0.65581 0.67290
 C231 C 0.36665 0.66724 0.66722
 C232 C 0.36113 0.67287 0.65570
 C233 C 0.34972 0.66715 0.64980
 C234 C 0.34384 0.65565 0.65553
 C235 C 0.34348 0.63864 0.67284
 C236 C 0.33198 0.63299 0.66711
 C237 C 0.32640 0.63857 0.65558
 C238 C 0.33226 0.64991 0.64974
 C239 C 0.32666 0.65570 0.63830
 C240 C 0.33249 0.66713 0.63267
 C241 C 0.34399 0.67282 0.63837
 H242 H 0.36519 0.65156 0.68185
 H243 H 0.36565 0.68175 0.65141
 H244 H 0.34768 0.63427 0.68179
 H245 H 0.31747 0.63416 0.65125
 H246 H 0.31773 0.65141 0.63384
 H247 H 0.34839 0.68170 0.63395
 C248 C 0.35000 0.14941 1.16754
 C249 C 0.36136 0.15522 1.17344
 C250 C 0.36717 0.16673 1.16792
 C251 C 0.36169 0.17247 1.15641
 C252 C 0.35033 0.16678 1.15039
 C253 C 0.34444 0.15521 1.15597
 C254 C 0.34401 0.13801 1.17311
 C255 C 0.33254 0.13240 1.16725
 C256 C 0.32703 0.13810 1.15574
 C257 C 0.33291 0.14950 1.15005
 C258 C 0.32737 0.15541 1.13864
 C259 C 0.33320 0.16691 1.13316
 C260 C 0.34466 0.17255 1.13898
 H261 H 0.36562 0.15086 1.18239
 H262 H 0.36620 0.18140 1.15221
 H263 H 0.34819 0.13358 1.18204
 H264 H 0.31813 0.13374 1.15128
 H265 H 0.31847 0.15115 1.13408
 H266 H 0.34906 0.18149 1.13469
 C267 C 0.84976 0.64936 1.16673
 C268 C 0.86110 0.65520 1.17264
 C269 C 0.86688 0.66670 1.16711
 C270 C 0.86144 0.67241 1.15558
 C271 C 0.85010 0.66670 1.14954
 C272 C 0.84421 0.65513 1.15513
 C273 C 0.84377 0.63796 1.17229
 C274 C 0.83232 0.63232 1.16642
 C275 C 0.82683 0.63800 1.15489
 C276 C 0.83270 0.64940 1.14920
 C277 C 0.82718 0.65528 1.13777
 C278 C 0.83301 0.66678 1.13228
 C279 C 0.84445 0.67244 1.13811
 H280 H 0.86536 0.65090 1.18159
 H281 H 0.86596 0.68135 1.15141
 H282 H 0.84794 0.63355 1.18125
 H283 H 0.81793 0.63362 1.15042
 H284 H 0.81829 0.65100 1.13320
 H285 H 0.84885 0.68138 1.13381
 C286 C 0.85013 0.14994 0.66636
 C287 C 0.86157 0.15573 0.67212
 C288 C 0.86738 0.16715 0.66647
 C289 C 0.86185 0.17284 0.65498
 C290 C 0.85042 0.16718 0.64908
 C291 C 0.84451 0.15568 0.65479
 C292 C 0.84411 0.13861 0.67205
 C293 C 0.83258 0.13304 0.66632
 C294 C 0.82701 0.13868 0.65482
 C295 C 0.83290 0.15000 0.64900
 C296 C 0.82730 0.15585 0.63760
 C297 C 0.83315 0.16728 0.63198
 C298 C 0.84468 0.17290 0.63768
 H299 H 0.86590 0.15144 0.68106
 H300 H 0.86639 0.18172 0.65071
 H301 H 0.84831 0.13420 0.68098
 H302 H 0.81804 0.13431 0.65049
 H303 H 0.81834 0.15161 0.63314
 H304 H 0.84910 0.18178 0.63329
 C305 C 0.34879 0.34961 0.66687
 C306 C 0.34294 0.36108 0.67243
 C307 C 0.33148 0.36678 0.66664
 C308 C 0.32582 0.36110 0.65521
 C309 C 0.33154 0.34963 0.64952
 C310 C 0.34308 0.34384 0.65537
 C311 C 0.36015 0.34371 0.67270
 C312 C 0.36579 0.33214 0.66717
 C313 C 0.36018 0.32643 0.65574
 C314 C 0.34882 0.33220 0.64979
 C315 C 0.34299 0.32644 0.63846
 C316 C 0.33153 0.33217 0.63271
 C317 C 0.32584 0.34374 0.63819
 H318 H 0.34721 0.36552 0.68131
 H319 H 0.31692 0.36556 0.65084
 H320 H 0.36454 0.34802 0.68158
 H321 H 0.36459 0.31744 0.65157
 H322 H 0.34728 0.31746 0.63416
 H323 H 0.31694 0.34807 0.63370
 C324 C 0.34937 0.85017 0.16645
 C325 C 0.34343 0.86150 0.17221
 C326 C 0.33191 0.86720 0.16654
 C327 C 0.32628 0.86167 0.15502
 C328 C 0.33208 0.85034 0.14913
 C329 C 0.34368 0.84455 0.15486
 C330 C 0.36078 0.84425 0.17216
 C331 C 0.36649 0.83282 0.16643
 C332 C 0.36089 0.82725 0.15492
 C333 C 0.34949 0.83304 0.14908
 C334 C 0.34368 0.82743 0.13767
 C335 C 0.33216 0.83317 0.13204
 C336 C 0.32641 0.84460 0.13772
 H337 H 0.34768 0.86582 0.18116
 H338 H 0.31733 0.86612 0.15075
 H339 H 0.36515 0.84845 0.18111
 H340 H 0.36536 0.81836 0.15061
 H341 H 0.34802 0.81854 0.13323
 H342 H 0.31746 0.84893 0.13332
 C343 C 0.84932 0.34974 0.16616
 C344 C 0.84343 0.36110 0.17191
 C345 C 0.83194 0.36684 0.16622
 C346 C 0.82631 0.36134 0.15469
 C347 C 0.83207 0.34999 0.14881
 C348 C 0.84363 0.34414 0.15456
 C349 C 0.86069 0.34377 0.17189
 C350 C 0.86636 0.33230 0.16618
 C351 C 0.86076 0.32676 0.15466
 C352 C 0.84940 0.33260 0.14879
 C353 C 0.84359 0.32702 0.13737
 C354 C 0.83211 0.33282 0.13171
 C355 C 0.82640 0.34428 0.13738
 H356 H 0.84767 0.36540 0.18087
 H357 H 0.81739 0.36583 0.15040
 H358 H 0.86507 0.34795 0.18085
 H359 H 0.86519 0.31785 0.15035
 H360 H 0.84790 0.31812 0.13293
 H361 H 0.81748 0.34866 0.13296
 C362 C 0.84991 0.85034 0.66628
 C363 C 0.84406 0.86181 0.67186
 C364 C 0.83263 0.86754 0.66607
 C365 C 0.82699 0.86192 0.65460
 C366 C 0.83270 0.85046 0.64888
 C367 C 0.84421 0.84462 0.65474
 C368 C 0.86123 0.84439 0.67211
 C369 C 0.86686 0.83282 0.66657
 C370 C 0.86126 0.82716 0.65510
 C371 C 0.84994 0.83298 0.64914
 C372 C 0.84413 0.82728 0.63777
 C373 C 0.83269 0.83305 0.63202
 C374 C 0.82702 0.84462 0.63752
 H375 H 0.84831 0.86621 0.68077
 H376 H 0.81810 0.86641 0.65022
 H377 H 0.86561 0.84866 0.68103
 H378 H 0.86566 0.81817 0.65092
 H379 H 0.84840 0.81829 0.63347
 H380 H 0.81814 0.84898 0.63302
 C381 C 0.65023 0.65039 0.66812
 C382 C 0.65603 0.63895 0.67382
 C383 C 0.66755 0.63324 0.66821
 C384 C 0.67333 0.63886 0.65681
 C385 C 0.66767 0.65030 0.65098
 C386 C 0.65607 0.65611 0.65665
 C387 C 0.63880 0.65631 0.67376
 C388 C 0.63321 0.66784 0.66809
 C389 C 0.63894 0.67351 0.65669
 C390 C 0.65037 0.66772 0.65092
 C391 C 0.65632 0.67342 0.63962
 C392 C 0.66784 0.66766 0.63405
 C393 C 0.67348 0.65613 0.63968
 H394 H 0.65167 0.63455 0.68268
 H395 H 0.68228 0.63439 0.65257
 H396 H 0.63431 0.65203 0.68262
 H397 H 0.63456 0.68246 0.65241
 H398 H 0.65207 0.68238 0.63522
 H399 H 0.68243 0.65179 0.63532
 C400 C 0.65081 0.15035 0.16725
 C401 C 0.65671 0.13898 0.17299
 C402 C 0.66821 0.13327 0.16732
 C403 C 0.67387 0.13884 0.15583
 C404 C 0.66809 0.15021 0.14996
 C405 C 0.65651 0.15600 0.15569
 C406 C 0.63939 0.15624 0.17294
 C407 C 0.63367 0.16768 0.16722
 C408 C 0.63928 0.17329 0.15573
 C409 C 0.65070 0.16753 0.14991
 C410 C 0.65650 0.17315 0.13850
 C411 C 0.66800 0.16741 0.13287
 C412 C 0.67376 0.15597 0.13856
 H413 H 0.65244 0.13461 0.18191
 H414 H 0.68280 0.13437 0.15155
 H415 H 0.63499 0.15201 0.18186
 H416 H 0.63480 0.18217 0.15140
 H417 H 0.65214 0.18204 0.13405
 H418 H 0.68269 0.15163 0.13415
 C419 C 0.15040 0.65025 0.16775
 C420 C 0.15625 0.63885 0.17348
 C421 C 0.16772 0.63309 0.16781
 C422 C 0.17341 0.63865 0.15634
 C423 C 0.16770 0.65005 0.15048
 C424 C 0.15615 0.65590 0.15620
 C425 C 0.13901 0.65620 0.17344
 C426 C 0.13336 0.66768 0.16773
 C427 C 0.13901 0.67328 0.15625
 C428 C 0.15040 0.66746 0.15044
 C429 C 0.15625 0.67307 0.13904
 C430 C 0.16772 0.66728 0.13342
 C431 C 0.17342 0.65579 0.13909
 H432 H 0.15194 0.63450 0.18239
 H433 H 0.18233 0.63414 0.15206
 H434 H 0.13459 0.65197 0.18235
 H435 H 0.13459 0.68220 0.15194
 H436 H 0.15195 0.68199 0.13460
 H437 H 0.18233 0.65141 0.13468
 C438 C 0.15038 0.14971 0.66743
 C439 C 0.15626 0.13831 0.67312
 C440 C 0.16760 0.13246 0.66730
 C441 C 0.17313 0.13792 0.65570
 C442 C 0.16739 0.14932 0.64988
 C443 C 0.15597 0.15527 0.65576
 C444 C 0.13913 0.15577 0.67328
 C445 C 0.13346 0.16726 0.66760
 C446 C 0.13895 0.17276 0.65601
 C447 C 0.15020 0.16684 0.65003
 C448 C 0.15590 0.17237 0.63853
 C449 C 0.16725 0.16648 0.63275
 C450 C 0.17296 0.15499 0.63837
 H451 H 0.15208 0.13403 0.68213
 H452 H 0.18195 0.13334 0.65130
 H453 H 0.13483 0.15162 0.68228
 H454 H 0.13452 0.18169 0.65173
 H455 H 0.15159 0.18130 0.63412
 H456 H 0.18178 0.15054 0.63385
 C457 C 0.35009 0.65050 0.33294
 C458 C 0.34421 0.63902 0.32742
 C459 C 0.33277 0.63336 0.33324
 C460 C 0.32715 0.63908 0.34466
 C461 C 0.33289 0.65056 0.35031
 C462 C 0.34442 0.65632 0.34444
 C463 C 0.36144 0.65637 0.32708
 C464 C 0.36710 0.66794 0.33256
 C465 C 0.36153 0.67371 0.34398
 C466 C 0.35018 0.66797 0.34997
 C467 C 0.34439 0.67377 0.36129
 C468 C 0.33294 0.66807 0.36707
 C469 C 0.32723 0.65649 0.36163
 H470 H 0.34845 0.63455 0.31855
 H471 H 0.31825 0.63466 0.34906
 H472 H 0.36579 0.65202 0.31820
 H473 H 0.36596 0.68270 0.34811
 H474 H 0.34870 0.68277 0.36555
 H475 H 0.31833 0.65220 0.36615
 C476 C 0.34977 0.15022 0.83337
 C477 C 0.34391 0.13875 0.82782
 C478 C 0.33246 0.13307 0.83362
 C479 C 0.32682 0.13875 0.84505
 C480 C 0.33255 0.15022 0.85073
 C481 C 0.34407 0.15601 0.84488
 C482 C 0.36110 0.15613 0.82754
 C483 C 0.36674 0.16770 0.83305
 C484 C 0.36115 0.17343 0.84448
 C485 C 0.34981 0.16766 0.85045
 C486 C 0.34400 0.17342 0.86177
 C487 C 0.33255 0.16770 0.86752
 C488 C 0.32686 0.15612 0.86206
 H489 H 0.34816 0.13431 0.81894
 H490 H 0.31792 0.13430 0.84942
 H491 H 0.36548 0.15181 0.81865
 H492 H 0.36555 0.18242 0.84863
 H493 H 0.34828 0.18242 0.86605
 H494 H 0.31796 0.15180 0.86655
 C495 C 0.85021 0.65022 0.83303
 C496 C 0.84433 0.63874 0.82752
 C497 C 0.83284 0.63313 0.83330
 C498 C 0.82719 0.63890 0.84468
 C499 C 0.83294 0.65037 0.85033
 C500 C 0.84451 0.65608 0.84449
 C501 C 0.86160 0.65604 0.82720
 C502 C 0.86728 0.66761 0.83267
 C503 C 0.86167 0.67342 0.84406
 C504 C 0.85029 0.66773 0.85002
 C505 C 0.84447 0.67357 0.86130
 C506 C 0.83298 0.66792 0.86705
 C507 C 0.82726 0.65635 0.86161
 H508 H 0.84859 0.63423 0.81867
 H509 H 0.81826 0.63451 0.84906
 H510 H 0.86598 0.65166 0.81835
 H511 H 0.86611 0.68242 0.84818
 H512 H 0.84878 0.68257 0.86555
 H513 H 0.81833 0.65209 0.86610
 C514 C 0.85017 0.15022 0.33301
 C515 C 0.84436 0.13872 0.32745
 C516 C 0.83288 0.13304 0.33320
 C517 C 0.82717 0.13875 0.34458
 C518 C 0.83285 0.15024 0.35026
 C519 C 0.84440 0.15603 0.34446
 C520 C 0.86153 0.15612 0.32722
 C521 C 0.86712 0.16772 0.33273
 C522 C 0.86145 0.17347 0.34410
 C523 C 0.85008 0.16770 0.35002
 C524 C 0.84419 0.17350 0.36129
 C525 C 0.83272 0.16777 0.36700
 C526 C 0.82709 0.15617 0.36153
 H527 H 0.84867 0.13425 0.31861
 H528 H 0.81825 0.13430 0.34891
 H529 H 0.86597 0.15178 0.31837
 H530 H 0.86581 0.18249 0.34826
 H531 H 0.84844 0.18252 0.36556
 H532 H 0.81817 0.15185 0.36599
 C533 C 0.65016 0.35029 0.33291
 C534 C 0.65618 0.36160 0.32719
 C535 C 0.66769 0.36722 0.33292
 C536 C 0.67324 0.36163 0.34445
 C537 C 0.66736 0.35032 0.35030
 C538 C 0.65577 0.34460 0.34451
 C539 C 0.63874 0.34446 0.32714
 C540 C 0.63293 0.33305 0.33282
 C541 C 0.63845 0.32741 0.34435
 C542 C 0.64986 0.33311 0.35025
 C543 C 0.65558 0.32744 0.36169
 C544 C 0.66710 0.33310 0.36738
 C545 C 0.67295 0.34451 0.36173
 H546 H 0.65199 0.36598 0.31823
 H547 H 0.68220 0.36602 0.34878
 H548 H 0.63443 0.34872 0.31818
 H549 H 0.63390 0.31855 0.34865
 H550 H 0.65117 0.31857 0.36611
 H551 H 0.68189 0.34879 0.36618
 C552 C 0.65030 0.85014 0.83319
 C553 C 0.65636 0.86139 0.82740
 C554 C 0.66797 0.86693 0.83304
 C555 C 0.67356 0.86132 0.84454
 C556 C 0.66762 0.85008 0.85046
 C557 C 0.65594 0.84444 0.84477
 C558 C 0.63879 0.84439 0.82753
 C559 C 0.63293 0.83304 0.83328
 C560 C 0.63848 0.82739 0.84479
 C561 C 0.64998 0.83301 0.85059
 C562 C 0.65574 0.82734 0.86200
 C563 C 0.66734 0.83293 0.86760
 C564 C 0.67324 0.84427 0.86187
 H565 H 0.65214 0.86578 0.81847
 H566 H 0.68258 0.86565 0.84879
 H567 H 0.63444 0.84866 0.81859
 H568 H 0.63389 0.81858 0.84913
 H569 H 0.65128 0.81852 0.86649
 H570 H 0.68225 0.84849 0.86625
 C571 C 0.14997 0.34963 0.83388
 C572 C 0.15576 0.36098 0.82801
 C573 C 0.16732 0.36674 0.83351
 C574 C 0.17315 0.36125 0.84496
 C575 C 0.16748 0.34990 0.85096
 C576 C 0.15584 0.34404 0.84540
 C577 C 0.13850 0.34368 0.82835
 C578 C 0.13290 0.33224 0.83419
 C579 C 0.13868 0.32670 0.84564
 C580 C 0.15015 0.33253 0.85130
 C581 C 0.15613 0.32698 0.86267
 C582 C 0.16768 0.33278 0.86813
 C583 C 0.17333 0.34421 0.86232
 H584 H 0.15135 0.36528 0.81912
 H585 H 0.18213 0.36575 0.84911
 H586 H 0.13397 0.34785 0.81946
 H587 H 0.13430 0.31781 0.85005
 H588 H 0.15187 0.31809 0.86721
 H589 H 0.18230 0.34860 0.86660
 C590 C 0.14989 0.85026 0.33327
 C591 C 0.15571 0.86165 0.32752
 C592 C 0.16724 0.86737 0.33312
 C593 C 0.17300 0.86180 0.34456
 C594 C 0.16730 0.85041 0.35045
 C595 C 0.15570 0.84459 0.34479
 C596 C 0.13846 0.84434 0.32763
 C597 C 0.13283 0.83286 0.33336
 C598 C 0.13855 0.82724 0.34480
 C599 C 0.14998 0.83303 0.35057
 C600 C 0.15590 0.82740 0.36193
 C601 C 0.16742 0.83317 0.36750
 C602 C 0.17308 0.84464 0.36181
 H603 H 0.15136 0.86601 0.31863
 H604 H 0.18195 0.86629 0.34880
 H605 H 0.13398 0.84858 0.31875
 H606 H 0.13414 0.81832 0.34912
 H607 H 0.15162 0.81848 0.36638
 H608 H 0.18204 0.84900 0.36617
 O609 O 0.26659 0.98717 0.24812
 O610 O 0.24844 1.01333 0.26659
 O611 O 0.24836 0.98724 0.26662
 O612 O 0.26666 1.01326 0.24806
 O613 O 0.25073 1.01330 0.23273
 O614 O 0.23244 0.98729 0.25128
 O615 O 0.23252 1.01337 0.25126
 O616 O 0.25067 0.98721 0.23278
 Cu617 Cu 0.25912 1.00025 0.25889
 Cu618 Cu 0.23998 1.00030 0.24046
 C619 C 0.26167 0.98274 0.23736
 C620 C 0.23743 1.01778 0.26203
 C621 C 0.23733 0.98285 0.26205
 C622 C 0.26177 1.01770 0.23728
 O623 O 0.26614 0.48672 0.74786
 O624 O 0.24805 0.51259 0.76678
 O625 O 0.24798 0.48651 0.76644
 O626 O 0.26622 0.51280 0.74822
 O627 O 0.25025 0.51307 0.73294
 O628 O 0.23200 0.48678 0.75116
 O629 O 0.23208 0.51286 0.75150
 O630 O 0.25017 0.48699 0.73258
 Cu631 Cu 0.25871 0.49962 0.75887
 Cu632 Cu 0.23951 0.49995 0.74050
 C633 C 0.26120 0.48246 0.73704
 C634 C 0.23703 0.51712 0.76232
 C635 C 0.23693 0.48219 0.76186
 C636 C 0.26129 0.51740 0.73753
 O637 O 0.75102 -0.01308 0.26771
 O638 O 0.73306 0.01306 0.24895
 O639 O 0.73289 -0.01302 0.24907
 O640 O 0.75119 0.01300 0.26760
 O641 O 0.76720 0.01284 0.25237
 O642 O 0.74889 -0.01318 0.23384
 O643 O 0.74907 0.01289 0.23373
 O644 O 0.76702 -0.01324 0.25248
 Cu645 Cu 0.74042 0.00001 0.25987
 Cu646 Cu 0.75966 -0.00019 0.24157
 C647 C 0.76203 -0.01760 0.26324
 C648 C 0.73805 0.01741 0.23819
 C649 C 0.73782 -0.01751 0.23835
 C650 C 0.76226 0.01734 0.26309
 O651 O 0.73332 0.51280 0.74904
 O652 O 0.75181 0.48668 0.76731
 O653 O 0.75159 0.51276 0.76755
 O654 O 0.73353 0.48672 0.74881
 O655 O 0.74942 0.48699 0.73346
 O656 O 0.76748 0.51303 0.75220
 O657 O 0.76769 0.48695 0.75196
 O658 O 0.74922 0.51307 0.73369
 Cu659 Cu 0.74096 0.49971 0.75972
 Cu660 Cu 0.76006 0.50004 0.74128
 C661 C 0.73817 0.51737 0.73829
 C662 C 0.76285 0.48238 0.76269
 C663 C 0.76257 0.51732 0.76302
 C664 C 0.73844 0.48244 0.73799
 O665 O 0.26715 0.51305 0.25250
 O666 O 0.24891 0.48687 0.23412
 O667 O 0.24887 0.51295 0.23402
 O668 O 0.26725 0.48697 0.25255
 O669 O 0.25140 0.48695 0.26794
 O670 O 0.23301 0.51296 0.24939
 O671 O 0.23306 0.48687 0.24951
 O672 O 0.25129 0.51303 0.26788
 Cu673 Cu 0.25964 0.49996 0.24174
 Cu674 Cu 0.24059 0.49995 0.26023
 C675 C 0.26228 0.51748 0.26328
 C676 C 0.23792 0.48243 0.23873
 C677 C 0.23785 0.51736 0.23859
 C678 C 0.26241 0.48255 0.26335
 O679 O 0.73308 0.98694 0.75130
 O680 O 0.75090 1.01331 0.73279
 O681 O 0.75107 0.98723 0.73257
 O682 O 0.73293 1.01303 0.75155
 O683 O 0.74905 1.01297 0.76668
 O684 O 0.76719 0.98718 0.74770
 O685 O 0.76702 1.01326 0.74792
 O686 O 0.74920 0.98688 0.76643
 Cu687 Cu 0.74037 1.00014 0.74053
 Cu688 Cu 0.75974 1.00007 0.75871
 C689 C 0.73815 0.98243 0.76196
 C690 C 0.76196 1.01776 0.73725
 C691 C 0.76218 0.98283 0.73696
 C692 C 0.73795 1.01738 0.76230
 O693 O 0.73292 0.48710 0.25120
 O694 O 0.75091 0.51315 0.23240
 O695 O 0.75094 0.48706 0.23251
 O696 O 0.73292 0.51319 0.25116
 O697 O 0.74903 0.51322 0.26630
 O698 O 0.76705 0.48711 0.24766
 O699 O 0.76701 0.51319 0.24754
 O700 O 0.74903 0.48714 0.26634
 Cu701 Cu 0.74030 0.50013 0.24029
 Cu702 Cu 0.75965 0.50018 0.25849
 C703 C 0.73797 0.48268 0.26191
 C704 C 0.76198 0.51759 0.23681
 C705 C 0.76201 0.48263 0.23697
 C706 C 0.73795 0.51764 0.26187
 O707 O 0.23304 0.01267 0.74907
 O708 O 0.25122 -0.01325 0.76792
 O709 O 0.25107 0.01283 0.76781
 O710 O 0.23319 -0.01342 0.74919
 O711 O 0.24928 -0.01339 0.73405
 O712 O 0.26716 0.01286 0.75267
 O713 O 0.26730 -0.01322 0.75277
 O714 O 0.24913 0.01269 0.73393
 Cu715 Cu 0.24050 -0.00029 0.76002
 Cu716 Cu 0.25984 -0.00026 0.74182
 C717 C 0.23803 0.01708 0.73833
 C718 C 0.26231 -0.01763 0.76351
 C719 C 0.26212 0.01729 0.76337
 C720 C 0.23824 -0.01787 0.73850
 O721 O 0.25216 0.23353 0.98774
 O722 O 0.23407 0.25211 1.01377
 O723 O 0.23387 0.25212 0.98787
 O724 O 0.25240 0.23352 1.01366
 O725 O 0.26825 0.24902 1.01353
 O726 O 0.24974 0.26761 0.98776
 O727 O 0.24993 0.26760 1.01365
 O728 O 0.26802 0.24902 0.98761
 Cu729 Cu 0.24153 0.24125 1.00078
 Cu730 Cu 0.26059 0.25987 1.00063
 C731 C 0.26311 0.23817 0.98324
 C732 C 0.23896 0.26297 1.01812
 C733 C 0.23871 0.26298 0.98343
 C734 C 0.26343 0.23815 1.01797
 O735 O 0.24916 0.76755 0.48706
 O736 O 0.26761 0.74894 0.51287
 O737 O 0.26753 0.74905 0.48696
 O738 O 0.24921 0.76744 0.51296
 O739 O 0.23342 0.75188 0.51294
 O740 O 0.25174 0.73348 0.48693
 O741 O 0.25182 0.73338 0.51285
 O742 O 0.23336 0.75199 0.48704
 Cu743 Cu 0.25997 0.75981 0.49997
 Cu744 Cu 0.24099 0.74111 0.49994
 C745 C 0.23817 0.76289 0.48266
 C746 C 0.26281 0.73805 0.51725
 C747 C 0.26270 0.73819 0.48252
 C748 C 0.23824 0.76275 0.51736
 O749 O 0.23243 0.74785 -0.01292
 O750 O 0.25053 0.76677 0.01287
 O751 O 0.25060 0.76655 -0.01303
 O752 O 0.23235 0.74809 0.01298
 O753 O 0.24830 0.73269 0.01318
 O754 O 0.26656 0.75116 -0.01283
 O755 O 0.26649 0.75138 0.01306
 O756 O 0.24839 0.73245 -0.01272
 Cu757 Cu 0.23986 0.75887 -0.00004
 Cu758 Cu 0.25905 0.74036 0.00019
 C759 C 0.23737 0.73697 -0.01720
 C760 C 0.26156 0.76225 0.01734
 C761 C 0.26164 0.76196 -0.01734
 C762 C 0.23726 0.73729 0.01750
 O763 O 0.23223 0.24799 0.48687
 O764 O 0.25041 0.26608 0.51320
 O765 O 0.25055 0.26654 0.48731
 O766 O 0.23210 0.24751 0.51279
 O767 O 0.24795 0.23200 0.51261
 O768 O 0.26639 0.25103 0.48713
 O769 O 0.26626 0.25057 0.51302
 O770 O 0.24808 0.23248 0.48669
 Cu771 Cu 0.23972 0.25859 0.50006
 Cu772 Cu 0.25877 0.23995 0.49985
 C773 C 0.23712 0.23722 0.48229
 C774 C 0.26139 0.26136 0.51757
 C775 C 0.26156 0.26198 0.48289
 C776 C 0.23694 0.23657 0.51704
 O777 O 0.76792 0.74894 1.01277
 O778 O 0.74924 0.76754 0.98712
 O779 O 0.74952 0.76743 1.01301
 O780 O 0.76764 0.74907 0.98686
 O781 O 0.75188 0.73349 0.98695
 O782 O 0.73375 0.75186 1.01312
 O783 O 0.73346 0.75196 0.98721
 O784 O 0.75216 0.73336 1.01287
 Cu785 Cu 0.76017 0.75981 0.99993
 Cu786 Cu 0.74122 0.74109 1.00005
 C787 C 0.76318 0.73803 1.01718
 C788 C 0.73822 0.76287 0.98281
 C789 C 0.73860 0.76273 1.01750
 C790 C 0.76279 0.73821 0.98246
 O791 O 0.74887 0.26753 0.48683
 O792 O 0.76756 0.24898 0.51250
 O793 O 0.76724 0.24902 0.48659
 O794 O 0.74919 0.26749 0.51272
 O795 O 0.73339 0.25194 0.51289
 O796 O 0.75145 0.23347 0.48676
 O797 O 0.75177 0.23342 0.51267
 O798 O 0.73307 0.25198 0.48698
 Cu799 Cu 0.75981 0.25982 0.49964
 Cu800 Cu 0.74082 0.24113 0.49984
 C801 C 0.73784 0.26287 0.48254
 C802 C 0.76280 0.23809 0.51694
 C803 C 0.76237 0.23815 0.48223
 C804 C 0.73826 0.26281 0.51724
 O805 O 0.75040 0.26714 0.01223
 O806 O 0.73218 0.24831 -0.01356
 O807 O 0.73217 0.24848 0.01235
 O808 O 0.75036 0.26701 -0.01367
 O809 O 0.76631 0.25159 -0.01357
 O810 O 0.74812 0.23306 0.01245
 O811 O 0.74812 0.23290 -0.01346
 O812 O 0.76634 0.25172 0.01232
 Cu813 Cu 0.73967 0.25929 -0.00067
 Cu814 Cu 0.75883 0.24076 -0.00056
 C815 C 0.76143 0.26259 0.01664
 C816 C 0.73710 0.23745 -0.01789
 C817 C 0.73709 0.23766 0.01682
 C818 C 0.76139 0.26241 -0.01803
 O819 O 0.73251 0.74769 0.48750
 O820 O 0.75103 0.76636 0.51321
 O821 O 0.75073 0.76636 0.48731
 O822 O 0.73279 0.74774 0.51343
 O823 O 0.74871 0.73229 0.51329
 O824 O 0.76665 0.75092 0.48717
 O825 O 0.76695 0.75091 0.51306
 O826 O 0.74843 0.73226 0.48737
 Cu827 Cu 0.74016 0.75859 0.50037
 Cu828 Cu 0.75928 0.74003 0.50020
 C829 C 0.73737 0.73685 0.48307
 C830 C 0.76210 0.76176 0.51750
 C831 C 0.76171 0.76177 0.48282
 C832 C 0.73775 0.73691 0.51781
 O833 O 1.01328 0.26687 0.24715
 O834 O 0.98723 0.24869 0.26583
 O835 O 1.01343 0.24875 0.26573
 O836 O 0.98709 0.26682 0.24728
 O837 O 0.98705 0.25094 0.23199
 O838 O 1.01339 0.23287 0.25044
 O839 O 0.98719 0.23281 0.25054
 O840 O 1.01324 0.25099 0.23186
 Cu841 Cu 1.00026 0.25939 0.25804
 Cu842 Cu 1.00022 0.24030 0.23967
 C843 C 1.01769 0.26198 0.23637
 C844 C 0.98277 0.23771 0.26131
 C845 C 1.01788 0.23779 0.26118
 C846 C 0.98259 0.26191 0.23655
 O847 O 0.51318 0.26669 0.74778
 O848 O 0.48701 0.24853 0.76632
 O849 O 0.51320 0.24836 0.76616
 O850 O 0.48699 0.26686 0.74798
 O851 O 0.48677 0.25115 0.73252
 O852 O 0.51298 0.23265 0.75070
 O853 O 0.48680 0.23282 0.75085
 O854 O 0.51296 0.25098 0.73232
 Cu855 Cu 0.50013 0.25920 0.75862
 Cu856 Cu 0.49987 0.24032 0.74004
 C857 C 0.51751 0.26188 0.73693
 C858 C 0.48245 0.23764 0.76169
 C859 C 0.51753 0.23739 0.76149
 C860 C 0.48241 0.26209 0.73721
 O861 O -0.01296 0.23254 0.74889
 O862 O 0.01284 0.25088 0.76776
 O863 O -0.01335 0.25066 0.76742
 O864 O 0.01323 0.23275 0.74921
 O865 O 0.01328 0.24864 0.73390
 O866 O -0.01329 0.26654 0.75210
 O867 O 0.01289 0.26675 0.75245
 O868 O -0.01291 0.24842 0.73358
 Cu869 Cu -0.00006 0.24010 0.75987
 Cu870 Cu 0.00000 0.25919 0.74147
 C871 C -0.01732 0.23741 0.73807
 C872 C 0.01725 0.26189 0.76327
 C873 C -0.01784 0.26161 0.76281
 C874 C 0.01776 0.23769 0.73850
 O875 O 0.51316 0.25121 0.26679
 O876 O 0.48702 0.23253 0.24871
 O877 O 0.51321 0.23289 0.24841
 O878 O 0.48698 0.25084 0.26706
 O879 O 0.48657 0.26656 0.25159
 O880 O 0.51281 0.24862 0.23295
 O881 O 0.48661 0.24826 0.23324
 O882 O 0.51276 0.26693 0.25133
 Cu883 Cu 0.50014 0.24028 0.25930
 Cu884 Cu 0.49965 0.25918 0.24072
 C885 C 0.51739 0.26221 0.26210
 C886 C 0.48237 0.23727 0.23795
 C887 C 0.51746 0.23774 0.23755
 C888 C 0.48231 0.26170 0.26245
 O889 O 1.01359 0.76730 0.74796
 O890 O 0.98744 0.74905 0.76644
 O891 O 1.01363 0.74907 0.76643
 O892 O 0.98739 0.76729 0.74800
 O893 O 0.98738 0.75151 0.73262
 O894 O 1.01363 0.73328 0.75104
 O895 O 0.98743 0.73326 0.75105
 O896 O 1.01358 0.75151 0.73257
 Cu897 Cu 1.00052 0.75977 0.75876
 Cu898 Cu 1.00051 0.74080 0.74027
 C899 C 1.01802 0.76247 0.73716
 C900 C 0.98299 0.73810 0.76183
 C901 C 1.01808 0.73812 0.76183
 C902 C 0.98291 0.76245 0.73723
 O903 O 0.48717 0.74943 0.26617
 O904 O 0.51345 0.76753 0.24769
 O905 O 0.48724 0.76760 0.24767
 O906 O 0.51336 0.74939 0.26626
 O907 O 0.51336 0.73353 0.25094
 O908 O 0.48723 0.75175 0.23235
 O909 O 0.51343 0.75167 0.23238
 O910 O 0.48718 0.73358 0.25085
 Cu911 Cu 0.50031 0.76009 0.25849
 Cu912 Cu 0.50031 0.74103 0.24008
 C913 C 0.48271 0.73847 0.26160
 C914 C 0.51790 0.76263 0.23694
 C915 C 0.48279 0.76272 0.23690
 C916 C 0.51779 0.73840 0.26173
 O917 O -0.01359 0.76701 0.25176
 O918 O 0.01272 0.74897 0.23332
 O919 O -0.01347 0.74873 0.23340
 O920 O 0.01260 0.76725 0.25173
 O921 O 0.01280 0.75150 0.26718
 O922 O -0.01327 0.73298 0.24885
 O923 O 0.01292 0.73322 0.24877
 O924 O -0.01339 0.75127 0.26721
 Cu925 Cu -0.00045 0.75958 0.24100
 Cu926 Cu -0.00021 0.74065 0.25956
 C927 C -0.01797 0.76216 0.26257
 C928 C 0.01728 0.73807 0.23795
 C929 C -0.01781 0.73775 0.23806
 C930 C 0.01711 0.76249 0.26253
 O931 O 0.48662 0.73335 0.74895
 O932 O 0.51259 0.75202 0.76726
 O933 O 0.48639 0.75170 0.76726
 O934 O 0.51280 0.73369 0.74890
 O935 O 0.51256 0.74939 0.73341
 O936 O 0.48616 0.76740 0.75177
 O937 O 0.51236 0.76772 0.75177
 O938 O 0.48638 0.74905 0.73346
 Cu939 Cu 0.49963 0.74111 0.75966
 Cu940 Cu 0.49935 0.75998 0.74104
 C941 C 0.48209 0.73807 0.73813
 C942 C 0.51689 0.76300 0.76259
 C943 C 0.48178 0.76256 0.76259
 C944 C 0.51715 0.73852 0.73807
 C945 C 0.37814 0.32556 0.32762
 C946 C 0.38753 0.32012 0.32233
 C947 C 0.39860 0.31350 0.31592
 C948 C 0.39819 0.29967 0.31384
 C949 C 0.40881 0.29324 0.30738
 C950 C 0.41999 0.30057 0.30291
 C951 C 0.42035 0.31447 0.30512
 C952 C 0.40971 0.32088 0.31157
 C953 C 0.43116 0.29376 0.29584
 C954 C 0.44461 0.29727 0.29838
 C955 C 0.45509 0.29083 0.29169
 C956 C 0.45226 0.28083 0.28238
 C957 C 0.43893 0.27728 0.27977
 C958 C 0.42844 0.28369 0.28645
 C959 C 0.46301 0.27420 0.27545
 C960 C 0.47189 0.26854 0.26956
 H961 H 0.38965 0.29386 0.31719
 H962 H 0.40832 0.28251 0.30599
 H963 H 0.42874 0.32041 0.30165
 H964 H 0.41010 0.33161 0.31309
 H965 H 0.44703 0.30487 0.30566
 H966 H 0.46538 0.29364 0.29381
 H967 H 0.43663 0.26958 0.27255
 H968 H 0.41819 0.28089 0.28413
 C969 C 0.37697 0.82607 0.82711
 C970 C 0.38639 0.82069 0.82182
 C971 C 0.39752 0.81414 0.81541
 C972 C 0.39699 0.80038 0.81294
 C973 C 0.40766 0.79400 0.80651
 C974 C 0.41902 0.80133 0.80246
 C975 C 0.41948 0.81515 0.80507
 C976 C 0.40879 0.82151 0.81149
 C977 C 0.43026 0.79458 0.79546
 C978 C 0.44369 0.79785 0.79839
 C979 C 0.45424 0.79144 0.79179
 C980 C 0.45152 0.78171 0.78217
 C981 C 0.43820 0.77841 0.77917
 C982 C 0.42764 0.78478 0.78576
 C983 C 0.46234 0.77507 0.77537
 C984 C 0.47129 0.76941 0.76958
 H985 H 0.38832 0.79457 0.81596
 H986 H 0.40708 0.78332 0.80482
 H987 H 0.42801 0.82109 0.80193
 H988 H 0.40927 0.83218 0.81331
 H989 H 0.44603 0.80523 0.80592
 H990 H 0.46452 0.79405 0.79422
 H991 H 0.43598 0.77092 0.77171
 H992 H 0.41742 0.78218 0.78314
 C993 C -0.12288 0.32555 0.82652
 C994 C -0.11345 0.32010 0.82131
 C995 C -0.10231 0.31349 0.81501
 C996 C -0.09097 0.32079 0.81117
 C997 C -0.08025 0.31437 0.80485
 C998 C -0.08076 0.30054 0.80227
 C999 C -0.09219 0.29328 0.80624
 C1000 C -0.10288 0.29972 0.81256
 C1001 C -0.06949 0.29372 0.79537
 C1002 C -0.07208 0.28393 0.78566
 C1003 C -0.06150 0.27751 0.77915
 C1004 C -0.04819 0.28076 0.78224
 C1005 C -0.04550 0.29049 0.79187
 C1006 C -0.05607 0.29694 0.79840
 C1007 C -0.03734 0.27411 0.77550
 C1008 C -0.02837 0.26844 0.76975
 H1009 H -0.09044 0.33146 0.81297
 H1010 H -0.07166 0.32025 0.80177
 H1011 H -0.09280 0.28260 0.80457
 H1012 H -0.11160 0.29396 0.81553
 H1013 H -0.08230 0.28137 0.78297
 H1014 H -0.06370 0.27003 0.77167
 H1015 H -0.03523 0.29307 0.79437
 H1016 H -0.05376 0.30432 0.80593
 C1017 C -0.12290 0.82575 0.32677
 C1018 C -0.11346 0.82037 0.32151
 C1019 C -0.10232 0.81382 0.31515
 C1020 C -0.09098 0.82116 0.31138
 C1021 C -0.08025 0.81479 0.30502
 C1022 C -0.08076 0.80098 0.30233
 C1023 C -0.09219 0.79369 0.30623
 C1024 C -0.10288 0.80007 0.31260
 C1025 C -0.06950 0.79422 0.29537
 C1026 C -0.07209 0.78452 0.28557
 C1027 C -0.06152 0.77814 0.27902
 C1028 C -0.04821 0.78134 0.28216
 C1029 C -0.04550 0.79098 0.29187
 C1030 C -0.05608 0.79740 0.29844
 C1031 C -0.03737 0.77470 0.27538
 C1032 C -0.02843 0.76903 0.26959
 H1033 H -0.09046 0.83182 0.31327
 H1034 H -0.07167 0.82070 0.30199
 H1035 H -0.09280 0.78302 0.30447
 H1036 H -0.11161 0.79429 0.31551
 H1037 H -0.08231 0.78200 0.28285
 H1038 H -0.06372 0.77072 0.27148
 H1039 H -0.03523 0.79351 0.29440
 H1040 H -0.05376 0.80470 0.30604
 C1041 C 0.62181 0.67379 0.32655
 C1042 C 0.61231 0.67911 0.32131
 C1043 C 0.60107 0.68555 0.31497
 C1044 C 0.59573 0.68028 0.30322
 C1045 C 0.58501 0.68670 0.29688
 C1046 C 0.57952 0.69851 0.30221
 C1047 C 0.58491 0.70368 0.31407
 C1048 C 0.59562 0.69723 0.32040
 C1049 C 0.56834 0.70551 0.29532
 C1050 C 0.56823 0.71956 0.29438
 C1051 C 0.55783 0.72615 0.28770
 C1052 C 0.54741 0.71880 0.28189
 C1053 C 0.54739 0.70483 0.28282
 C1054 C 0.55778 0.69822 0.28949
 C1055 C 0.53685 0.72562 0.27484
 C1056 C 0.52809 0.73141 0.26888
 H1057 H 0.59991 0.67127 0.29890
 H1058 H 0.58120 0.68258 0.28768
 H1059 H 0.58079 0.71265 0.31851
 H1060 H 0.59967 0.70138 0.32950
 H1061 H 0.57630 0.72545 0.29860
 H1062 H 0.55797 0.73696 0.28700
 H1063 H 0.53935 0.69905 0.27838
 H1064 H 0.55750 0.68741 0.29018
 C1065 C 0.62197 0.17301 0.82587
 C1066 C 0.61244 0.17825 0.82061
 C1067 C 0.60117 0.18461 0.81426
 C1068 C 0.59747 0.19762 0.81783
 C1069 C 0.58670 0.20393 0.81147
 C1070 C 0.57949 0.19728 0.80142
 C1071 C 0.58323 0.18416 0.79795
 C1072 C 0.59400 0.17788 0.80433
 C1073 C 0.56823 0.20408 0.79446
 C1074 C 0.56663 0.20272 0.78063
 C1075 C 0.55619 0.20933 0.77403
 C1076 C 0.54721 0.21736 0.78115
 C1077 C 0.54866 0.21871 0.79492
 C1078 C 0.55911 0.21213 0.80153
 C1079 C 0.53663 0.22435 0.77430
 C1080 C 0.52786 0.23027 0.76849
 H1081 H 0.60299 0.20294 0.82546
 H1082 H 0.58418 0.21409 0.81424
 H1083 H 0.57777 0.17873 0.79037
 H1084 H 0.59677 0.16779 0.80150
 H1085 H 0.57359 0.19676 0.77488
 H1086 H 0.55518 0.20825 0.76337
 H1087 H 0.54175 0.22489 0.80053
 H1088 H 0.55998 0.21324 0.81220
 C1089 C 1.12222 0.67342 0.82645
 C1090 C 1.11278 0.67883 0.82120
 C1091 C 1.10162 0.68542 0.81488
 C1092 C 1.09940 0.69907 0.81702
 C1093 C 1.08875 0.70557 0.81067
 C1094 C 1.08016 0.69849 0.80207
 C1095 C 1.08242 0.68474 0.80006
 C1096 C 1.09309 0.67826 0.80642
 C1097 C 1.06901 0.70547 0.79511
 C1098 C 1.05639 0.69929 0.79364
 C1099 C 1.04595 0.70586 0.78699
 C1100 C 1.04798 0.71866 0.78172
 C1101 C 1.06049 0.72489 0.78314
 C1102 C 1.07093 0.71835 0.78979
 C1103 C 1.03730 0.72540 0.77478
 C1104 C 1.02846 0.73115 0.76890
 H1105 H 1.10593 0.70470 0.82357
 H1106 H 1.08717 0.71612 0.81256
 H1107 H 1.07609 0.67906 0.79337
 H1108 H 1.09475 0.66770 0.80465
 H1109 H 1.05455 0.68945 0.79776
 H1110 H 1.03630 0.70096 0.78597
 H1111 H 1.06219 0.73477 0.77906
 H1112 H 1.08058 0.72329 0.79059
 C1113 C 1.12256 0.17392 0.32579
 C1114 C 1.11308 0.17929 0.32057
 C1115 C 1.10189 0.18583 0.31425
 C1116 C 1.10047 0.19973 0.31515
 C1117 C 1.08978 0.20615 0.30878
 C1118 C 1.08035 0.19875 0.30140
 C1119 C 1.08181 0.18476 0.30063
 C1120 C 1.09252 0.17836 0.30700
 C1121 C 1.06915 0.20560 0.29441
 C1122 C 1.05618 0.20000 0.29425
 C1123 C 1.04567 0.20646 0.28760
 C1124 C 1.04799 0.21858 0.28101
 C1125 C 1.06085 0.22423 0.28112
 C1126 C 1.07136 0.21780 0.28777
 C1127 C 1.03723 0.22522 0.27409
 C1128 C 1.02833 0.23090 0.26823
 H1129 H 1.10765 0.20560 0.32076
 H1130 H 1.08883 0.21690 0.30972
 H1131 H 1.07482 0.17880 0.29489
 H1132 H 1.09356 0.16760 0.30620
 H1133 H 1.05412 0.19071 0.29940
 H1134 H 1.03575 0.20201 0.28760
 H1135 H 1.06277 0.23358 0.27602
 H1136 H 1.08126 0.22227 0.28755
 C1137 C 0.62219 0.32620 0.67310
 C1138 C 0.61261 0.32093 0.67823
 C1139 C 0.60128 0.31456 0.68444
 C1140 C 0.59626 0.31946 0.69647
 C1141 C 0.58545 0.31308 0.70268
 C1142 C 0.57954 0.30168 0.69693
 C1143 C 0.58460 0.29688 0.68478
 C1144 C 0.59540 0.30329 0.67859
 C1145 C 0.56828 0.29470 0.70369
 C1146 C 0.56778 0.28063 0.70404
 C1147 C 0.55733 0.27406 0.71061
 C1148 C 0.54723 0.28143 0.71691
 C1149 C 0.54758 0.29542 0.71656
 C1150 C 0.55803 0.30203 0.71000
 C1151 C 0.53663 0.27462 0.72390
 C1152 C 0.52784 0.26885 0.72981
 H1153 H 0.60077 0.32815 0.70111
 H1154 H 0.58190 0.31691 0.71210
 H1155 H 0.58016 0.28824 0.68003
 H1156 H 0.59920 0.29942 0.66926
 H1157 H 0.57561 0.27471 0.69944
 H1158 H 0.55718 0.26322 0.71087
 H1159 H 0.53979 0.30123 0.72139
 H1160 H 0.55805 0.31286 0.70977
 C1161 C 0.62279 0.82637 0.17283
 C1162 C 0.61321 0.82109 0.17796
 C1163 C 0.60190 0.81468 0.18417
 C1164 C 0.59807 0.80180 0.18026
 C1165 C 0.58730 0.79542 0.18652
 C1166 C 0.58020 0.80185 0.19678
 C1167 C 0.58406 0.81484 0.20056
 C1168 C 0.59485 0.82121 0.19430
 C1169 C 0.56896 0.79495 0.20365
 C1170 C 0.55723 0.80197 0.20715
 C1171 C 0.54674 0.79548 0.21377
 C1172 C 0.54784 0.78190 0.21698
 C1173 C 0.55945 0.77482 0.21351
 C1174 C 0.56993 0.78128 0.20688
 C1175 C 0.53715 0.77523 0.22396
 C1176 C 0.52830 0.76954 0.22986
 H1177 H 0.60345 0.79667 0.17242
 H1178 H 0.58446 0.78549 0.18327
 H1179 H 0.57891 0.81999 0.20853
 H1180 H 0.59776 0.83116 0.19743
 H1181 H 0.55612 0.81246 0.20465
 H1182 H 0.53779 0.80105 0.21639
 H1183 H 0.56042 0.76431 0.21600
 H1184 H 0.57890 0.77564 0.20450
 C1185 C 1.12235 0.32654 0.17275
 C1186 C 1.11275 0.32124 0.17781
 C1187 C 1.10141 0.31482 0.18396
 C1188 C 1.09593 0.32006 0.19566
 C1189 C 1.08513 0.31364 0.20183
 C1190 C 1.07968 0.30186 0.19639
 C1191 C 1.08520 0.29673 0.18458
 C1192 C 1.09599 0.30318 0.17841
 C1193 C 1.06842 0.29485 0.20313
 C1194 C 1.06828 0.28080 0.20401
 C1195 C 1.05783 0.27420 0.21057
 C1196 C 1.04738 0.28154 0.21632
 C1197 C 1.04737 0.29552 0.21544
 C1198 C 1.05783 0.30214 0.20890
 C1199 C 1.03678 0.27473 0.22330
 C1200 C 1.02800 0.26895 0.22922
 H1201 H 1.10008 0.32904 0.20007
 H1202 H 1.08122 0.31774 0.21100
 H1203 H 1.08112 0.28779 0.18005
 H1204 H 1.10015 0.29905 0.16935
 H1205 H 1.07638 0.27492 0.19984
 H1206 H 1.05796 0.26338 0.21124
 H1207 H 1.03932 0.30129 0.21985
 H1208 H 1.05756 0.31295 0.20825
 C1209 C 1.12259 0.82653 0.67284
 C1210 C 1.11302 0.82126 0.67799
 C1211 C 1.10171 0.81486 0.68423
 C1212 C 1.09749 0.80224 0.67992
 C1213 C 1.08675 0.79583 0.68621
 C1214 C 1.08008 0.80199 0.69691
 C1215 C 1.08433 0.81474 0.70109
 C1216 C 1.09509 0.82111 0.69480
 C1217 C 1.06888 0.79505 0.70381
 C1218 C 1.05741 0.80217 0.70792
 C1219 C 1.04697 0.79563 0.71456
 C1220 C 1.04785 0.78191 0.71719
 C1221 C 1.05919 0.77473 0.71311
 C1222 C 1.06963 0.78124 0.70646
 C1223 C 1.03720 0.77518 0.72418
 C1224 C 1.02838 0.76944 0.73008
 H1225 H 1.10254 0.79732 0.67174
 H1226 H 1.08360 0.78611 0.68264
 H1227 H 1.07952 0.81966 0.70941
 H1228 H 1.09831 0.83086 0.69825
 H1229 H 1.05647 0.81277 0.70588
 H1230 H 1.03822 0.80128 0.71765
 H1231 H 1.05999 0.76412 0.71515
 H1232 H 1.07840 0.77552 0.70360
 C1233 C 0.37812 0.67338 0.67343
 C1234 C 0.38763 0.67858 0.67876
 C1235 C 0.39887 0.68484 0.68525
 C1236 C 0.40268 0.68075 0.69801
 C1237 C 0.41337 0.68705 0.70449
 C1238 C 0.42039 0.69755 0.69829
 C1239 C 0.41655 0.70152 0.68542
 C1240 C 0.40585 0.69521 0.67896
 C1241 C 0.43153 0.70447 0.70530
 C1242 C 0.44325 0.70824 0.69844
 C1243 C 0.45364 0.71491 0.70504
 C1244 C 0.45246 0.71791 0.71857
 C1245 C 0.44086 0.71418 0.72549
 C1246 C 0.43047 0.70750 0.71891
 C1247 C 0.46304 0.72495 0.72535
 C1248 C 0.47180 0.73091 0.73113
 H1249 H 0.39736 0.67272 0.70297
 H1250 H 0.41620 0.68365 0.71432
 H1251 H 0.42164 0.70968 0.68045
 H1252 H 0.40294 0.69850 0.66910
 H1253 H 0.44444 0.70591 0.68800
 H1254 H 0.46259 0.71773 0.69960
 H1255 H 0.43981 0.71650 0.73595
 H1256 H 0.42150 0.70491 0.72443
 C1257 C 0.37796 0.17253 0.17394
 C1258 C 0.38741 0.17774 0.17936
 C1259 C 0.39856 0.18406 0.18596
 C1260 C 0.40900 0.18970 0.17854
 C1261 C 0.41969 0.19608 0.18497
 C1262 C 0.42003 0.19691 0.19893
 C1263 C 0.40952 0.19112 0.20629
 C1264 C 0.39886 0.18474 0.19984
 C1265 C 0.43121 0.20392 0.20578
 C1266 C 0.42863 0.21219 0.21680
 C1267 C 0.43912 0.21885 0.22323
 C1268 C 0.45234 0.21734 0.21876
 C1269 C 0.45504 0.20913 0.20782
 C1270 C 0.44455 0.20247 0.20136
 C1271 C 0.46309 0.22426 0.22540
 C1272 C 0.47197 0.23015 0.23108
 H1273 H 0.40884 0.18927 0.16778
 H1274 H 0.42754 0.20058 0.17903
 H1275 H 0.40959 0.19143 0.21704
 H1276 H 0.39084 0.18038 0.20568
 H1277 H 0.41846 0.21367 0.22033
 H1278 H 0.43691 0.22522 0.23166
 H1279 H 0.46524 0.20787 0.20429
 H1280 H 0.44688 0.19605 0.19301
 C1281 C -0.12176 0.67287 0.17348
 C1282 C -0.11235 0.67812 0.17894
 C1283 C -0.10126 0.68449 0.18558
 C1284 C -0.10118 0.68545 0.19945
 C1285 C -0.09058 0.69188 0.20594
 C1286 C -0.07991 0.69745 0.19863
 C1287 C -0.08004 0.69634 0.18469
 C1288 C -0.09066 0.68992 0.17822
 C1289 C -0.06878 0.70450 0.20553
 C1290 C -0.05539 0.70283 0.20135
 C1291 C -0.04494 0.70950 0.20787
 C1292 C -0.04774 0.71793 0.21861
 C1293 C -0.06101 0.71967 0.22282
 C1294 C -0.07147 0.71301 0.21634
 C1295 C -0.03702 0.72483 0.22534
 C1296 C -0.02818 0.73069 0.23109
 H1297 H -0.10932 0.68126 0.20525
 H1298 H -0.09068 0.69240 0.21669
 H1299 H -0.07205 0.70067 0.17879
 H1300 H -0.09065 0.68927 0.16748
 H1301 H -0.05298 0.69623 0.19317
 H1302 H -0.03469 0.70806 0.20455
 H1303 H -0.06330 0.72621 0.23110
 H1304 H -0.08168 0.71465 0.21966
 C1305 C -0.12112 0.17326 0.67265
 C1306 C -0.11158 0.17849 0.67790
 C1307 C -0.10033 0.18487 0.68424
 C1308 C -0.09580 0.19731 0.67969
 C1309 C -0.08511 0.20371 0.68607
 C1310 C -0.07880 0.19774 0.69710
 C1311 C -0.08335 0.18517 0.70152
 C1312 C -0.09405 0.17880 0.69513
 C1313 C -0.06767 0.20470 0.70410
 C1314 C -0.05641 0.19753 0.70868
 C1315 C -0.04605 0.20409 0.71543
 C1316 C -0.04681 0.21788 0.71770
 C1317 C -0.05794 0.22510 0.71315
 C1318 C -0.06831 0.21857 0.70639
 C1319 C -0.03627 0.22464 0.72482
 C1320 C -0.02755 0.23041 0.73084
 H1321 H -0.10057 0.20209 0.67126
 H1322 H -0.08172 0.21329 0.68233
 H1323 H -0.07881 0.18040 0.71008
 H1324 H -0.09752 0.16919 0.69877
 H1325 H -0.05556 0.18687 0.70693
 H1326 H -0.03746 0.19841 0.71889
 H1327 H -0.05866 0.23577 0.71490
 H1328 H -0.07692 0.22433 0.70316
 C1329 C 0.32665 0.37833 0.32778
 C1330 C 0.32148 0.38788 0.32254
 C1331 C 0.31523 0.39917 0.31616
 C1332 C 0.30372 0.40497 0.32166
 C1333 C 0.29744 0.41571 0.31528
 C1334 C 0.30259 0.42078 0.30327
 C1335 C 0.31424 0.41494 0.29787
 C1336 C 0.32051 0.40421 0.30428
 C1337 C 0.29573 0.43196 0.29629
 C1338 C 0.29434 0.43180 0.28238
 C1339 C 0.28770 0.44221 0.27582
 C1340 C 0.28238 0.45292 0.28305
 C1341 C 0.28375 0.45321 0.29688
 C1342 C 0.29038 0.44280 0.30347
 C1343 C 0.27538 0.46351 0.27625
 C1344 C 0.26948 0.47226 0.27043
 H1345 H 0.29952 0.40111 0.33082
 H1346 H 0.28839 0.41988 0.31959
 H1347 H 0.31855 0.41873 0.28874
 H1348 H 0.32943 0.39980 0.29994
 H1349 H 0.29817 0.42352 0.27659
 H1350 H 0.28665 0.44186 0.26511
 H1351 H 0.27969 0.46147 0.30257
 H1352 H 0.29143 0.44329 0.31417
 C1353 C 0.32633 -0.12214 0.82764
 C1354 C 0.32114 -0.11254 0.82251
 C1355 C 0.31484 -0.10118 0.81630
 C1356 C 0.30395 -0.09486 0.82244
 C1357 C 0.29760 -0.08405 0.81624
 C1358 C 0.30207 -0.07943 0.80379
 C1359 C 0.31310 -0.08579 0.79775
 C1360 C 0.31943 -0.09660 0.80397
 C1361 C 0.29511 -0.06817 0.79703
 C1362 C 0.30250 -0.05835 0.79016
 C1363 C 0.29591 -0.04791 0.78357
 C1364 C 0.28187 -0.04716 0.78375
 C1365 C 0.27444 -0.05683 0.79061
 C1366 C 0.28101 -0.06726 0.79721
 C1367 C 0.27506 -0.03661 0.77671
 C1368 C 0.26928 -0.02789 0.77072
 H1369 H 0.30034 -0.09832 0.83199
 H1370 H 0.28925 -0.07926 0.82121
 H1371 H 0.31666 -0.08259 0.78810
 H1372 H 0.32782 -0.10147 0.79910
 H1373 H 0.31337 -0.05868 0.78997
 H1374 H 0.30175 -0.04047 0.77831
 H1375 H 0.26357 -0.05637 0.79076
 H1376 H 0.27503 -0.07476 0.80225
 C1377 C 0.82675 0.37760 0.82655
 C1378 C 0.82165 0.38721 0.82134
 C1379 C 0.81547 0.39856 0.81501
 C1380 C 0.80398 0.40440 0.82055
 C1381 C 0.79776 0.41521 0.81422
 C1382 C 0.80295 0.42031 0.80224
 C1383 C 0.81456 0.41443 0.79681
 C1384 C 0.82077 0.40363 0.80316
 C1385 C 0.79613 0.43156 0.79531
 C1386 C 0.79472 0.43146 0.78140
 C1387 C 0.78811 0.44192 0.77489
 C1388 C 0.78284 0.45262 0.78217
 C1389 C 0.78425 0.45285 0.79600
 C1390 C 0.79085 0.44239 0.80254
 C1391 C 0.77585 0.46325 0.77543
 C1392 C 0.76994 0.47205 0.76967
 H1393 H 0.79977 0.40052 0.82969
 H1394 H 0.78874 0.41940 0.81856
 H1395 H 0.81889 0.41824 0.78770
 H1396 H 0.82967 0.39920 0.79880
 H1397 H 0.79851 0.42318 0.77557
 H1398 H 0.78703 0.44161 0.76418
 H1399 H 0.78022 0.46110 0.80174
 H1400 H 0.79191 0.44283 0.81324
 C1401 C 0.82572 -0.12228 0.32748
 C1402 C 0.82051 -0.11269 0.32232
 C1403 C 0.81421 -0.10136 0.31607
 C1404 C 0.80306 -0.09528 0.32199
 C1405 C 0.79671 -0.08449 0.31574
 C1406 C 0.80145 -0.07964 0.30348
 C1407 C 0.81274 -0.08577 0.29767
 C1408 C 0.81906 -0.09656 0.30392
 C1409 C 0.79454 -0.06838 0.29669
 C1410 C 0.80197 -0.05835 0.29018
 C1411 C 0.79543 -0.04790 0.28359
 C1412 C 0.78138 -0.04732 0.28340
 C1413 C 0.77390 -0.05720 0.28989
 C1414 C 0.78042 -0.06766 0.29650
 C1415 C 0.77463 -0.03672 0.27638
 C1416 C 0.76892 -0.02793 0.27042
 H1417 H 0.79923 -0.09891 0.33140
 H1418 H 0.78815 -0.07988 0.32055
 H1419 H 0.81651 -0.08239 0.28816
 H1420 H 0.82765 -0.10124 0.29923
 H1421 H 0.81285 -0.05854 0.29029
 H1422 H 0.80132 -0.04029 0.27861
 H1423 H 0.76302 -0.05688 0.28975
 H1424 H 0.77441 -0.07532 0.30125
 C1425 C 0.32570 0.62161 0.67329
 C1426 C 0.32041 0.61218 0.67861
 C1427 C 0.31406 0.60104 0.68515
 C1428 C 0.31582 0.59915 0.69881
 C1429 C 0.30946 0.58851 0.70527
 C1430 C 0.30123 0.57961 0.69812
 C1431 C 0.29959 0.58155 0.68436
 C1432 C 0.30596 0.59221 0.67793
 C1433 C 0.29426 0.56846 0.70503
 C1434 C 0.29334 0.55574 0.69911
 C1435 C 0.28673 0.54528 0.70563
 C1436 C 0.28095 0.54740 0.71813
 C1437 C 0.28182 0.56001 0.72409
 C1438 C 0.28843 0.57047 0.71760
 C1439 C 0.27409 0.53669 0.72484
 C1440 C 0.26828 0.52782 0.73058
 H1441 H 0.32209 0.60592 0.70449
 H1442 H 0.31107 0.58718 0.71583
 H1443 H 0.29319 0.57497 0.67862
 H1444 H 0.30449 0.59361 0.66735
 H1445 H 0.29787 0.55383 0.68952
 H1446 H 0.28615 0.53555 0.70094
 H1447 H 0.27734 0.56178 0.73374
 H1448 H 0.28880 0.58019 0.72233
 C1449 C 0.32656 1.12155 0.17292
 C1450 C 0.32119 1.11204 0.17804
 C1451 C 0.31468 1.10082 0.18425
 C1452 C 0.30173 1.09707 0.18031
 C1453 C 0.29524 1.08640 0.18658
 C1454 C 0.30162 1.07933 0.19690
 C1455 C 0.31468 1.08310 0.20072
 C1456 C 0.32115 1.09379 0.19444
 C1457 C 0.29460 1.06820 0.20380
 C1458 C 0.30158 1.05650 0.20741
 C1459 C 0.29497 1.04612 0.21406
 C1460 C 0.28133 1.04731 0.21721
 C1461 C 0.27430 1.05889 0.21362
 C1462 C 0.28087 1.06926 0.20696
 C1463 C 0.27455 1.03674 0.22422
 C1464 C 0.26877 1.02798 0.23015
 H1465 H 0.29663 1.10244 0.17242
 H1466 H 0.28526 1.08363 0.18330
 H1467 H 0.31979 1.07797 0.20874
 H1468 H 0.33116 1.09664 0.19761
 H1469 H 0.31210 1.05531 0.20497
 H1470 H 0.30050 1.03719 0.21677
 H1471 H 0.26374 1.05993 0.21605
 H1472 H 0.27527 1.07822 0.20449
 C1473 C 0.82635 0.62147 0.17210
 C1474 C 0.82099 0.61196 0.17722
 C1475 C 0.81450 0.60073 0.18344
 C1476 C 0.80157 0.59694 0.17950
 C1477 C 0.79510 0.58626 0.18578
 C1478 C 0.80150 0.57922 0.19612
 C1479 C 0.81455 0.58304 0.19994
 C1480 C 0.82099 0.59373 0.19364
 C1481 C 0.79451 0.56808 0.20303
 C1482 C 0.80152 0.55641 0.20666
 C1483 C 0.79495 0.54604 0.21335
 C1484 C 0.78131 0.54719 0.21651
 C1485 C 0.77424 0.55873 0.21289
 C1486 C 0.78078 0.56911 0.20619
 C1487 C 0.77459 0.53663 0.22359
 C1488 C 0.76887 0.52788 0.22959
 H1489 H 0.79646 0.60228 0.17160
 H1490 H 0.78513 0.58345 0.18250
 H1491 H 0.81967 0.57793 0.20797
 H1492 H 0.83098 0.59662 0.19681
 H1493 H 0.81205 0.55525 0.20422
 H1494 H 0.80052 0.53713 0.21609
 H1495 H 0.76369 0.55975 0.21532
 H1496 H 0.77515 0.57804 0.20370
 C1497 C 0.82623 1.12167 0.67244
 C1498 C 0.82081 1.11225 0.67766
 C1499 C 0.81422 1.10112 0.68397
 C1500 C 0.82158 1.09222 0.69187
 C1501 C 0.81511 1.08160 0.69825
 C1502 C 0.80117 1.07975 0.69683
 C1503 C 0.79388 1.08871 0.68879
 C1504 C 0.80037 1.09932 0.68241
 C1505 C 0.79423 1.06864 0.70382
 C1506 C 0.78163 1.07073 0.70980
 C1507 C 0.77514 1.06031 0.71648
 C1508 C 0.78114 1.04768 0.71727
 C1509 C 0.79365 1.04548 0.71134
 C1510 C 0.80017 1.05589 0.70466
 C1511 C 0.77446 1.03701 0.72425
 C1512 C 0.76879 1.02817 0.73015
 H1513 H 0.83230 1.09356 0.69319
 H1514 H 0.82097 1.07498 0.70450
 H1515 H 0.78317 1.08745 0.68735
 H1516 H 0.79458 1.10614 0.67630
 H1517 H 0.77688 1.08048 0.70949
 H1518 H 0.76547 1.06214 0.72108
 H1519 H 0.79837 1.03572 0.71187
 H1520 H 0.80978 1.05393 0.70002
 C1521 C 0.67391 0.62162 0.32668
 C1522 C 0.67920 0.61212 0.32146
 C1523 C 0.68560 0.60090 0.31515
 C1524 C 0.69763 0.59578 0.32027
 C1525 C 0.70403 0.58508 0.31396
 C1526 C 0.69848 0.57935 0.30242
 C1527 C 0.68633 0.58452 0.29741
 C1528 C 0.67995 0.59522 0.30373
 C1529 C 0.70542 0.56819 0.29553
 C1530 C 0.69806 0.55743 0.29020
 C1531 C 0.70460 0.54704 0.28353
 C1532 C 0.71858 0.54726 0.28208
 C1533 C 0.72601 0.55788 0.28739
 C1534 C 0.71948 0.56827 0.29408
 C1535 C 0.72532 0.53670 0.27502
 C1536 C 0.73104 0.52794 0.26904
 H1537 H 0.70208 0.60008 0.32911
 H1538 H 0.71327 0.58122 0.31815
 H1539 H 0.68190 0.58045 0.28845
 H1540 H 0.67068 0.59915 0.29966
 H1541 H 0.68724 0.55700 0.29130
 H1542 H 0.69876 0.53886 0.27948
 H1543 H 0.73683 0.55817 0.28629
 H1544 H 0.72542 0.57649 0.29790
 C1545 C 0.67378 1.12146 0.82675
 C1546 C 0.67904 1.11190 0.82163
 C1547 C 0.68542 1.10061 0.81541
 C1548 C 0.69701 1.09502 0.82100
 C1549 C 0.70341 1.08427 0.81477
 C1550 C 0.69828 1.07895 0.80286
 C1551 C 0.68656 1.08458 0.79738
 C1552 C 0.68018 1.09534 0.80361
 C1553 C 0.70525 1.06775 0.79605
 C1554 C 0.69786 1.05734 0.79011
 C1555 C 0.70445 1.04695 0.78348
 C1556 C 0.71848 1.04682 0.78268
 C1557 C 0.72592 1.05708 0.78862
 C1558 C 0.71936 1.06747 0.79527
 C1559 C 0.72526 1.03630 0.77559
 C1560 C 0.73101 1.02760 0.76956
 H1561 H 0.70113 1.09901 0.83014
 H1562 H 0.71231 1.08005 0.81933
 H1563 H 0.68247 1.08084 0.78813
 H1564 H 0.67125 1.09963 0.79917
 H1565 H 0.68700 1.05718 0.79069
 H1566 H 0.69859 1.03904 0.77893
 H1567 H 0.73679 1.05710 0.78802
 H1568 H 0.72533 1.07542 0.79958
 C1569 C 0.17352 0.62136 0.82718
 C1570 C 0.17870 0.61179 0.82199
 C1571 C 0.18496 0.60048 0.81569
 C1572 C 0.18017 0.59586 0.80345
 C1573 C 0.18645 0.58509 0.79714
 C1574 C 0.19764 0.57880 0.80299
 C1575 C 0.20232 0.58347 0.81535
 C1576 C 0.19601 0.59424 0.82164
 C1577 C 0.20453 0.56758 0.79613
 C1578 C 0.21864 0.56676 0.79607
 C1579 C 0.22514 0.55635 0.78938
 C1580 C 0.21764 0.54663 0.78269
 C1581 C 0.20360 0.54730 0.78275
 C1582 C 0.19707 0.55771 0.78942
 C1583 C 0.22438 0.53609 0.77559
 C1584 C 0.23011 0.52737 0.76957
 H1585 H 0.17165 0.60067 0.79872
 H1586 H 0.18272 0.58186 0.78756
 H1587 H 0.21080 0.57873 0.82019
 H1588 H 0.19979 0.59772 0.83113
 H1589 H 0.22467 0.57430 0.80098
 H1590 H 0.23602 0.55596 0.78935
 H1591 H 0.19769 0.53981 0.77761
 H1592 H 0.18620 0.55798 0.78942
 C1593 C 0.17334 1.12226 0.32599
 C1594 C 0.17854 1.11268 0.32082
 C1595 C 0.18486 1.10137 0.31458
 C1596 C 0.18024 1.09679 0.30226
 C1597 C 0.18659 1.08601 0.29602
 C1598 C 0.19767 1.07968 0.30203
 C1599 C 0.20218 1.08431 0.31446
 C1600 C 0.19581 1.09509 0.32068
 C1601 C 0.20463 1.06845 0.29526
 C1602 C 0.21874 1.06757 0.29542
 C1603 C 0.22531 1.05714 0.28883
 C1604 C 0.21788 1.04744 0.28202
 C1605 C 0.20384 1.04818 0.28186
 C1606 C 0.19725 1.05861 0.28843
 C1607 C 0.22468 1.03687 0.27504
 C1608 C 0.23046 1.02810 0.26914
 H1609 H 0.17181 1.10162 0.29742
 H1610 H 0.18299 1.08281 0.28638
 H1611 H 0.21057 1.07955 0.31942
 H1612 H 0.19945 1.09854 0.33023
 H1613 H 0.22471 1.07509 0.30042
 H1614 H 0.23618 1.05670 0.28898
 H1615 H 0.19799 1.04070 0.27663
 H1616 H 0.18637 1.05891 0.28826
 C1617 C 0.67433 0.37832 0.67346
 C1618 C 0.67955 0.38784 0.67868
 C1619 C 0.68588 0.39911 0.68500
 C1620 C 0.68172 0.40319 0.69765
 C1621 C 0.68807 0.41393 0.70394
 C1622 C 0.69869 0.42074 0.69766
 C1623 C 0.70274 0.41661 0.68491
 C1624 C 0.69637 0.40587 0.67863
 C1625 C 0.70565 0.43196 0.70447
 C1626 C 0.71971 0.43323 0.70374
 C1627 C 0.72628 0.44363 0.71036
 C1628 C 0.71891 0.45290 0.71779
 C1629 C 0.70491 0.45178 0.71851
 C1630 C 0.69832 0.44138 0.71190
 C1631 C 0.72573 0.46343 0.72482
 C1632 C 0.73150 0.47217 0.73079
 H1633 H 0.67365 0.39799 0.70269
 H1634 H 0.68485 0.41675 0.71382
 H1635 H 0.71076 0.42175 0.67975
 H1636 H 0.69965 0.40280 0.66883
 H1637 H 0.72565 0.42603 0.69826
 H1638 H 0.73712 0.44437 0.70978
 H1639 H 0.69911 0.45893 0.72421
 H1640 H 0.68747 0.44077 0.71251
 C1641 C 0.67418 -0.12170 0.17350
 C1642 C 0.67936 -0.11216 0.17874
 C1643 C 0.68563 -0.10088 0.18509
 C1644 C 0.67865 -0.09358 0.19472
 C1645 C 0.68486 -0.08282 0.20113
 C1646 C 0.69816 -0.07923 0.19798
 C1647 C 0.70505 -0.08659 0.18820
 C1648 C 0.69882 -0.09734 0.18182
 C1649 C 0.70488 -0.06801 0.20500
 C1650 C 0.71323 -0.05906 0.19804
 C1651 C 0.71975 -0.04866 0.20472
 C1652 C 0.71801 -0.04706 0.21842
 C1653 C 0.70968 -0.05586 0.22542
 C1654 C 0.70315 -0.06626 0.21876
 C1655 C 0.72493 -0.03652 0.22535
 C1656 C 0.73079 -0.02779 0.23124
 H1657 H 0.66843 -0.09622 0.19732
 H1658 H 0.67924 -0.07725 0.20849
 H1659 H 0.71534 -0.08419 0.18568
 H1660 H 0.70433 -0.10297 0.17441
 H1661 H 0.71463 -0.06005 0.18742
 H1662 H 0.72616 -0.04189 0.19920
 H1663 H 0.70832 -0.05474 0.23604
 H1664 H 0.69695 -0.07309 0.22443
 C1665 C 0.17381 0.37838 0.17403
 C1666 C 0.17897 0.38787 0.17938
 C1667 C 0.18522 0.39908 0.18588
 C1668 C 0.19549 0.40617 0.17952
 C1669 C 0.20179 0.41685 0.18597
 C1670 C 0.19791 0.42056 0.19890
 C1671 C 0.18750 0.41342 0.20517
 C1672 C 0.18121 0.40275 0.19869
 C1673 C 0.20481 0.43169 0.20589
 C1674 C 0.20800 0.43060 0.21947
 C1675 C 0.21462 0.44100 0.22604
 C1676 C 0.21814 0.45264 0.21914
 C1677 C 0.21499 0.45385 0.20564
 C1678 C 0.20837 0.44345 0.19904
 C1679 C 0.22507 0.46327 0.22592
 C1680 C 0.23092 0.47207 0.23171
 H1681 H 0.19871 0.40337 0.16962
 H1682 H 0.20988 0.42203 0.18095
 H1683 H 0.18417 0.41614 0.21504
 H1684 H 0.17326 0.39734 0.20370
 H1685 H 0.20557 0.42161 0.22498
 H1686 H 0.21706 0.43994 0.23648
 H1687 H 0.21765 0.46283 0.20021
 H1688 H 0.20591 0.44465 0.18863
 C1689 C 0.17450 -0.12206 0.67365
 C1690 C 0.17988 -0.11265 0.67892
 C1691 C 0.18644 -0.10154 0.68528
 C1692 C 0.17884 -0.09154 0.69146
 C1693 C 0.18526 -0.08088 0.69785
 C1694 C 0.19937 -0.08011 0.69816
 C1695 C 0.20691 -0.09018 0.69184
 C1696 C 0.20048 -0.10081 0.68545
 C1697 C 0.20621 -0.06895 0.70516
 C1698 C 0.21775 -0.07139 0.71289
 C1699 C 0.22416 -0.06092 0.71954
 C1700 C 0.21916 -0.04787 0.71857
 C1701 C 0.20770 -0.04533 0.71090
 C1702 C 0.20126 -0.05579 0.70424
 C1703 C 0.22578 -0.03714 0.72550
 C1704 C 0.23142 -0.02828 0.73139
 H1705 H 0.16797 -0.09203 0.69142
 H1706 H 0.17918 -0.07338 0.70275
 H1707 H 0.21778 -0.08977 0.69175
 H1708 H 0.20646 -0.10848 0.68067
 H1709 H 0.22169 -0.08143 0.71395
 H1710 H 0.23300 -0.06301 0.72549
 H1711 H 0.20376 -0.03525 0.71006
 H1712 H 0.19250 -0.05357 0.69825
 C1713 C 0.32645 0.32659 0.37976
 C1714 C 0.32119 0.32143 0.38926
 C1715 C 0.31483 0.31516 0.40048
 C1716 C 0.30445 0.32171 0.40722
 C1717 C 0.29801 0.31546 0.41789
 C1718 C 0.30189 0.30255 0.42197
 C1719 C 0.31241 0.29609 0.41519
 C1720 C 0.31882 0.30236 0.40451
 C1721 C 0.29485 0.29576 0.43309
 C1722 C 0.30208 0.28812 0.44243
 C1723 C 0.29540 0.28149 0.45272
 C1724 C 0.28142 0.28240 0.45382
 C1725 C 0.27414 0.29003 0.44464
 C1726 C 0.28080 0.29668 0.43435
 C1727 C 0.27450 0.27530 0.46421
 C1728 C 0.26863 0.26926 0.47280
 H1729 H 0.30129 0.33163 0.40419
 H1730 H 0.29007 0.32076 0.42302
 H1731 H 0.31550 0.28609 0.41796
 H1732 H 0.32680 0.29717 0.39932
 H1733 H 0.31292 0.28735 0.44182
 H1734 H 0.30113 0.27562 0.45978
 H1735 H 0.26330 0.29075 0.44537
 H1736 H 0.27493 0.30232 0.42722
 C1737 C 0.32582 0.82629 -0.12112
 C1738 C 0.32059 0.82109 -0.11163
 C1739 C 0.31425 0.81479 -0.10041
 C1740 C 0.30320 0.82085 -0.09429
 C1741 C 0.29682 0.81458 -0.08360
 C1742 C 0.30143 0.80213 -0.07889
 C1743 C 0.31261 0.79617 -0.08505
 C1744 C 0.31896 0.80246 -0.09575
 C1745 C 0.29447 0.79530 -0.06773
 C1746 C 0.30187 0.78858 -0.05785
 C1747 C 0.29528 0.78197 -0.04748
 C1748 C 0.28124 0.78198 -0.04685
 C1749 C 0.27380 0.78868 -0.05660
 C1750 C 0.28036 0.79531 -0.06697
 C1751 C 0.27443 0.77498 -0.03633
 C1752 C 0.26864 0.76906 -0.02761
 H1753 H 0.29948 0.83041 -0.09781
 H1754 H 0.28835 0.81950 -0.07896
 H1755 H 0.31629 0.78652 -0.08177
 H1756 H 0.32748 0.79766 -0.10045
 H1757 H 0.31274 0.78853 -0.05807
 H1758 H 0.30114 0.77682 -0.03997
 H1759 H 0.26292 0.78871 -0.05624
 H1760 H 0.27438 0.80023 -0.07452
 C1761 C 0.82582 0.32639 -0.12186
 C1762 C 0.82055 0.32128 -0.11235
 C1763 C 0.81416 0.31506 -0.10111
 C1764 C 0.80282 0.32095 -0.09534
 C1765 C 0.79640 0.31473 -0.08464
 C1766 C 0.80125 0.30252 -0.07957
 C1767 C 0.81272 0.29674 -0.08538
 C1768 C 0.81911 0.30297 -0.09609
 C1769 C 0.79426 0.29574 -0.06841
 C1770 C 0.80163 0.28944 -0.05824
 C1771 C 0.79501 0.28285 -0.04788
 C1772 C 0.78096 0.28246 -0.04754
 C1773 C 0.77354 0.28875 -0.05757
 C1774 C 0.78013 0.29536 -0.06793
 C1775 C 0.77415 0.27546 -0.03702
 C1776 C 0.76836 0.26953 -0.02830
 H1777 H 0.79892 0.33032 -0.09914
 H1778 H 0.78770 0.31952 -0.08028
 H1779 H 0.81659 0.28727 -0.08182
 H1780 H 0.82785 0.29830 -0.10052
 H1781 H 0.81250 0.28970 -0.05824
 H1782 H 0.80085 0.27803 -0.04015
 H1783 H 0.76266 0.28847 -0.05744
 H1784 H 0.77418 0.29995 -0.07571
 C1785 C 0.82537 0.82630 0.37886
 C1786 C 0.82017 0.82110 0.38837
 C1787 C 0.81389 0.81476 0.39960
 C1788 C 0.80362 0.82132 0.40650
 C1789 C 0.79730 0.81503 0.41722
 C1790 C 0.80118 0.80209 0.42118
 C1791 C 0.81158 0.79562 0.41423
 C1792 C 0.81788 0.80192 0.40351
 C1793 C 0.79428 0.79527 0.43237
 C1794 C 0.80163 0.78759 0.44158
 C1795 C 0.79508 0.78097 0.45197
 C1796 C 0.78112 0.78193 0.45328
 C1797 C 0.77373 0.78960 0.44422
 C1798 C 0.78025 0.79623 0.43384
 C1799 C 0.77434 0.77490 0.46380
 C1800 C 0.76861 0.76894 0.47253
 H1801 H 0.80047 0.83127 0.40357
 H1802 H 0.78944 0.82033 0.42247
 H1803 H 0.81467 0.78559 0.41691
 H1804 H 0.82578 0.79674 0.39820
 H1805 H 0.81245 0.78679 0.44082
 H1806 H 0.80090 0.77508 0.45894
 H1807 H 0.76291 0.79037 0.44512
 H1808 H 0.77430 0.80191 0.42681
 C1809 C 0.67446 0.32665 0.62149
 C1810 C 0.67973 0.32153 0.61198
 C1811 C 0.68613 0.31535 0.60074
 C1812 C 0.69890 0.31958 0.59672
 C1813 C 0.70528 0.31337 0.58601
 C1814 C 0.69898 0.30282 0.57917
 C1815 C 0.68609 0.29871 0.58322
 C1816 C 0.67973 0.30494 0.59395
 C1817 C 0.70589 0.29600 0.56799
 C1818 C 0.69874 0.29221 0.55653
 C1819 C 0.70525 0.28562 0.54611
 C1820 C 0.71898 0.28274 0.54700
 C1821 C 0.72619 0.28650 0.55833
 C1822 C 0.71971 0.29309 0.56876
 C1823 C 0.72567 0.27578 0.53638
 C1824 C 0.73136 0.26989 0.52758
 H1825 H 0.70393 0.32765 0.60190
 H1826 H 0.71512 0.31688 0.58302
 H1827 H 0.68105 0.29051 0.57827
 H1828 H 0.66987 0.30155 0.59701
 H1829 H 0.68814 0.29445 0.55558
 H1830 H 0.69958 0.28277 0.53737
 H1831 H 0.73681 0.28427 0.55915
 H1832 H 0.72545 0.29571 0.57752
 C1833 C 0.67452 0.82655 1.12161
 C1834 C 0.67982 0.82144 1.11212
 C1835 C 0.68625 0.81526 1.10089
 C1836 C 0.67981 0.80493 1.09400
 C1837 C 0.68620 0.79870 1.08329
 C1838 C 0.69915 0.80272 1.07935
 C1839 C 0.70549 0.81319 1.08628
 C1840 C 0.69908 0.81940 1.09698
 C1841 C 0.70609 0.79589 1.06819
 C1842 C 0.71987 0.79287 1.06904
 C1843 C 0.72638 0.78627 1.05864
 C1844 C 0.71922 0.78261 1.04724
 C1845 C 0.70552 0.78561 1.04626
 C1846 C 0.69899 0.79221 1.05666
 C1847 C 0.72594 0.77566 1.03662
 C1848 C 0.73166 0.76979 1.02784
 H1849 H 0.66990 0.80160 1.09698
 H1850 H 0.68113 0.79057 1.07827
 H1851 H 0.71538 0.81663 1.08338
 H1852 H 0.70415 0.82741 1.10223
 H1853 H 0.72558 0.79540 1.07785
 H1854 H 0.73698 0.78395 1.05952
 H1855 H 0.69989 0.78285 1.03746
 H1856 H 0.68841 0.79454 1.05565
 C1857 C 0.17443 0.32690 1.12188
 C1858 C 0.17978 0.32181 1.11240
 C1859 C 0.18627 0.31565 1.10119
 C1860 C 0.17991 0.30526 1.09432
 C1861 C 0.18635 0.29905 1.08363
 C1862 C 0.19928 0.30315 1.07969
 C1863 C 0.20554 0.31367 1.08661
 C1864 C 0.19908 0.31987 1.09728
 C1865 C 0.20628 0.29633 1.06857
 C1866 C 0.22008 0.29341 1.06944
 C1867 C 0.22664 0.28680 1.05907
 C1868 C 0.21952 0.28303 1.04769
 C1869 C 0.20580 0.28595 1.04668
 C1870 C 0.19921 0.29255 1.05705
 C1871 C 0.22627 0.27604 1.03713
 C1872 C 0.23202 0.27011 1.02840
 H1873 H 0.17002 0.30188 1.09730
 H1874 H 0.18134 0.29087 1.07863
 H1875 H 0.21541 0.31717 1.08371
 H1876 H 0.20408 0.32792 1.10252
 H1877 H 0.22576 0.29601 1.07825
 H1878 H 0.23725 0.28454 1.05998
 H1879 H 0.20019 0.28310 1.03790
 H1880 H 0.18863 0.29481 1.05601
 C1881 C 0.17410 0.82658 0.62140
 C1882 C 0.17934 0.82146 0.61189
 C1883 C 0.18574 0.81527 0.60064
 C1884 C 0.17955 0.80454 0.59415
 C1885 C 0.18592 0.79830 0.58344
 C1886 C 0.19860 0.80272 0.57909
 C1887 C 0.20469 0.81359 0.58562
 C1888 C 0.19829 0.81981 0.59632
 C1889 C 0.20555 0.79589 0.56794
 C1890 C 0.21946 0.79342 0.56854
 C1891 C 0.22598 0.78683 0.55815
 C1892 C 0.21872 0.78262 0.54700
 C1893 C 0.20489 0.78506 0.54627
 C1894 C 0.19834 0.79165 0.55667
 C1895 C 0.22547 0.77568 0.53641
 C1896 C 0.23124 0.76980 0.52765
 H1897 H 0.16985 0.80090 0.59745
 H1898 H 0.18106 0.78986 0.57873
 H1899 H 0.21436 0.81734 0.58240
 H1900 H 0.20316 0.82813 0.60126
 H1901 H 0.22525 0.79639 0.57716
 H1902 H 0.23668 0.78495 0.55884
 H1903 H 0.19918 0.78187 0.53767
 H1904 H 0.18766 0.79354 0.55584
 C1905 C 0.32646 0.67325 0.62117
 C1906 C 0.32136 0.67852 0.61164
 C1907 C 0.31520 0.68495 0.60038
 C1908 C 0.30426 0.67898 0.59397
 C1909 C 0.29806 0.68542 0.58326
 C1910 C 0.30271 0.69795 0.57883
 C1911 C 0.31379 0.70381 0.58528
 C1912 C 0.31998 0.69735 0.59598
 C1913 C 0.29591 0.70497 0.56769
 C1914 C 0.29371 0.71887 0.56826
 C1915 C 0.28714 0.72547 0.55788
 C1916 C 0.28268 0.71829 0.54679
 C1917 C 0.28486 0.70448 0.54610
 C1918 C 0.29142 0.69785 0.55648
 C1919 C 0.27574 0.72512 0.53622
 C1920 C 0.26987 0.73095 0.52749
 H1921 H 0.30045 0.66941 0.59733
 H1922 H 0.28945 0.68072 0.57861
 H1923 H 0.31772 0.71336 0.58200
 H1924 H 0.32846 0.70206 0.60086
 H1925 H 0.29686 0.72460 0.57683
 H1926 H 0.28545 0.73616 0.55854
 H1927 H 0.28147 0.69883 0.53754
 H1928 H 0.29311 0.68717 0.55568
 C1929 C 0.32722 0.17313 1.12168
 C1930 C 0.32214 0.17845 1.11217
 C1931 C 0.31599 0.18494 1.10094
 C1932 C 0.30524 0.17885 1.09433
 C1933 C 0.29903 0.18532 1.08364
 C1934 C 0.30350 0.19799 1.07943
 C1935 C 0.31439 0.20397 1.08608
 C1936 C 0.32059 0.19748 1.09676
 C1937 C 0.29668 0.20504 1.06831
 C1938 C 0.29423 0.21889 1.06902
 C1939 C 0.28764 0.22550 1.05866
 C1940 C 0.28341 0.21839 1.04745
 C1941 C 0.28584 0.20462 1.04660
 C1942 C 0.29244 0.19798 1.05697
 C1943 C 0.27643 0.22522 1.03691
 C1944 C 0.27053 0.23106 1.02819
 H1945 H 0.30157 0.16916 1.09752
 H1946 H 0.29057 0.18053 1.07884
 H1947 H 0.31818 0.21363 1.08297
 H1948 H 0.32892 0.20227 1.10179
 H1949 H 0.29720 0.22457 1.07770
 H1950 H 0.28575 0.23615 1.05944
 H1951 H 0.28263 0.19902 1.03795
 H1952 H 0.29432 0.18735 1.05605
 C1953 C 0.82705 0.67297 1.12078
 C1954 C 0.82199 0.67827 1.11125
 C1955 C 0.81587 0.68474 1.09999
 C1956 C 0.80497 0.67876 1.09352
 C1957 C 0.79878 0.68523 1.08282
 C1958 C 0.80341 0.69779 1.07847
 C1959 C 0.81444 0.70366 1.08498
 C1960 C 0.82062 0.69717 1.09567
 C1961 C 0.79660 0.70486 1.06736
 C1962 C 0.79435 0.71874 1.06799
 C1963 C 0.78774 0.72537 1.05765
 C1964 C 0.78329 0.71823 1.04653
 C1965 C 0.78553 0.70443 1.04576
 C1966 C 0.79213 0.69777 1.05610
 C1967 C 0.77628 0.72508 1.03603
 C1968 C 0.77033 0.73093 1.02735
 H1969 H 0.80117 0.66916 1.09683
 H1970 H 0.79020 0.68053 1.07813
 H1971 H 0.81835 0.71324 1.08176
 H1972 H 0.82906 0.70188 1.10060
 H1973 H 0.79749 0.72444 1.07659
 H1974 H 0.78601 0.73605 1.05837
 H1975 H 0.78214 0.69881 1.03719
 H1976 H 0.79385 0.68711 1.05525
 C1977 C 0.82712 0.17344 0.62051
 C1978 C 0.82200 0.17872 0.61100
 C1979 C 0.81580 0.18515 0.59977
 C1980 C 0.82052 0.19757 0.59537
 C1981 C 0.81428 0.20401 0.58470
 C1982 C 0.80321 0.19811 0.57827
 C1983 C 0.79861 0.18556 0.58269
 C1984 C 0.80487 0.17914 0.59338
 C1985 C 0.79634 0.20512 0.56716
 C1986 C 0.79186 0.19799 0.55595
 C1987 C 0.78521 0.20460 0.54560
 C1988 C 0.78295 0.21840 0.54633
 C1989 C 0.78741 0.22558 0.55742
 C1990 C 0.79406 0.21900 0.56776
 C1991 C 0.77591 0.22520 0.53582
 C1992 C 0.76996 0.23102 0.52713
 H1993 H 0.82899 0.20230 0.60024
 H1994 H 0.81815 0.21358 0.58142
 H1995 H 0.79001 0.18084 0.57807
 H1996 H 0.80110 0.16955 0.59674
 H1997 H 0.79360 0.18733 0.55513
 H1998 H 0.78182 0.19894 0.53705
 H1999 H 0.78566 0.23626 0.55811
 H2000 H 0.79722 0.22473 0.57634
 C2001 C 0.67339 0.67305 0.37888
 C2002 C 0.67855 0.67815 0.38846
 C2003 C 0.68483 0.68433 0.39978
 C2004 C 0.69609 0.67839 0.40568
 C2005 C 0.70243 0.68458 0.41644
 C2006 C 0.69759 0.69680 0.42145
 C2007 C 0.68619 0.70263 0.41552
 C2008 C 0.67987 0.69643 0.40475
 C2009 C 0.70452 0.70356 0.43266
 C2010 C 0.69711 0.70991 0.44276
 C2011 C 0.70368 0.71648 0.45316
 C2012 C 0.71773 0.71679 0.45361
 C2013 C 0.72519 0.71046 0.44366
 C2014 C 0.71864 0.70388 0.43326
 C2015 C 0.72452 0.72379 0.46415
 C2016 C 0.73032 0.72972 0.47286
 H2017 H 0.70001 0.66902 0.40191
 H2018 H 0.71108 0.67976 0.42090
 H2019 H 0.68232 0.71211 0.41904
 H2020 H 0.67119 0.70114 0.40022
 H2021 H 0.68623 0.70970 0.44266
 H2022 H 0.69781 0.72134 0.46083
 H2023 H 0.73607 0.71069 0.44388
 H2024 H 0.72463 0.69926 0.42555
 C2025 C 0.67365 0.17284 -0.12190
 C2026 C 0.67878 0.17806 -0.11238
 C2027 C 0.68500 0.18441 -0.10111
 C2028 C 0.69455 0.17750 -0.09355
 C2029 C 0.70081 0.18379 -0.08280
 C2030 C 0.69760 0.19708 -0.07947
 C2031 C 0.68791 0.20391 -0.08709
 C2032 C 0.68167 0.19761 -0.09784
 C2033 C 0.70445 0.20389 -0.06824
 C2034 C 0.69724 0.21234 -0.05964
 C2035 C 0.70377 0.21896 -0.04924
 C2036 C 0.71758 0.21721 -0.04730
 C2037 C 0.72483 0.20876 -0.05574
 C2038 C 0.71832 0.20213 -0.06614
 C2039 C 0.72437 0.22426 -0.03680
 C2040 C 0.73014 0.23024 -0.02811
 H2041 H 0.69718 0.16728 -0.09599
 H2042 H 0.70810 0.17822 -0.07702
 H2043 H 0.68536 0.21420 -0.08491
 H2044 H 0.67433 0.20306 -0.10367
 H2045 H 0.68653 0.21377 -0.06090
 H2046 H 0.69806 0.22546 -0.04275
 H2047 H 0.73554 0.20738 -0.05436
 H2048 H 0.72418 0.19583 -0.07269
 C2049 C 0.17380 0.67254 -0.12125
 C2050 C 0.17897 0.67770 -0.11170
 C2051 C 0.18520 0.68398 -0.10041
 C2052 C 0.19526 0.67729 -0.09332
 C2053 C 0.20155 0.68353 -0.08255
 C2054 C 0.19785 0.69656 -0.07874
 C2055 C 0.18765 0.70316 -0.08588
 C2056 C 0.18138 0.69691 -0.09665
 C2057 C 0.20473 0.70334 -0.06751
 C2058 C 0.19742 0.71122 -0.05847
 C2059 C 0.20397 0.71783 -0.04808
 C2060 C 0.21790 0.71665 -0.04658
 C2061 C 0.22525 0.70876 -0.05547
 C2062 C 0.21872 0.70214 -0.06586
 C2063 C 0.22468 0.72372 -0.03609
 C2064 C 0.23044 0.72973 -0.02741
 H2065 H 0.19828 0.66727 -0.09614
 H2066 H 0.20925 0.67812 -0.07715
 H2067 H 0.18470 0.71326 -0.08331
 H2068 H 0.17365 0.70220 -0.10211
 H2069 H 0.18662 0.71220 -0.05938
 H2070 H 0.19818 0.72389 -0.04124
 H2071 H 0.23604 0.70783 -0.05443
 H2072 H 0.22466 0.69630 -0.07275
 C2073 C 0.17412 0.17373 0.37724
 C2074 C 0.17945 0.17897 0.38665
 C2075 C 0.18594 0.18534 0.39775
 C2076 C 0.19868 0.19102 0.39618
 C2077 C 0.20495 0.19738 0.40687
 C2078 C 0.19855 0.19815 0.41930
 C2079 C 0.18576 0.19235 0.42081
 C2080 C 0.17949 0.18600 0.41009
 C2081 C 0.20517 0.20505 0.43062
 C2082 C 0.20451 0.19968 0.44353
 C2083 C 0.21085 0.20615 0.45414
 C2084 C 0.21789 0.21807 0.45198
 C2085 C 0.21856 0.22352 0.43919
 C2086 C 0.21224 0.21706 0.42858
 C2087 C 0.22454 0.22470 0.46284
 C2088 C 0.23023 0.23036 0.47180
 H2089 H 0.20377 0.19053 0.38668
 H2090 H 0.21487 0.20158 0.40545
 H2091 H 0.18050 0.19292 0.43021
 H2092 H 0.16961 0.18167 0.41140
 H2093 H 0.19928 0.19037 0.44539
 H2094 H 0.21031 0.20183 0.46400
 H2095 H 0.22395 0.23276 0.43742
 H2096 H 0.21277 0.22155 0.41879
 C2097 C 0.32532 0.37832 0.67263
 C2098 C 0.32007 0.38789 0.67773
 C2099 C 0.31369 0.39920 0.68392
 C2100 C 0.31941 0.40506 0.69521
 C2101 C 0.31303 0.41583 0.70145
 C2102 C 0.30081 0.42086 0.69647
 C2103 C 0.29520 0.41496 0.68505
 C2104 C 0.30161 0.40420 0.67883
 C2105 C 0.29384 0.43205 0.70330
 C2106 C 0.27980 0.43186 0.70487
 C2107 C 0.27325 0.44225 0.71153
 C2108 C 0.28063 0.45297 0.71669
 C2109 C 0.29459 0.45330 0.71511
 C2110 C 0.30117 0.44291 0.70846
 C2111 C 0.27387 0.46351 0.72377
 C2112 C 0.26812 0.47222 0.72979
 H2113 H 0.32873 0.40123 0.69927
 H2114 H 0.31751 0.42003 0.71031
 H2115 H 0.28590 0.41871 0.68088
 H2116 H 0.29710 0.39975 0.67009
 H2117 H 0.27390 0.42356 0.70118
 H2118 H 0.26244 0.44187 0.71275
 H2119 H 0.30040 0.46156 0.71905
 H2120 H 0.31196 0.44342 0.70727
 C2121 C 0.32563 0.87855 0.17275
 C2122 C 0.32024 0.88794 0.17804
 C2123 C 0.31365 0.89901 0.18443
 C2124 C 0.32103 0.91024 0.18838
 C2125 C 0.31462 0.92089 0.19479
 C2126 C 0.30073 0.92041 0.19736
 C2127 C 0.29340 0.90910 0.19329
 C2128 C 0.29982 0.89848 0.18687
 C2129 C 0.29393 0.93158 0.20438
 C2130 C 0.28410 0.92894 0.21407
 C2131 C 0.27767 0.93943 0.22067
 C2132 C 0.28097 0.95271 0.21769
 C2133 C 0.29075 0.95546 0.20809
 C2134 C 0.29721 0.94497 0.20147
 C2135 C 0.27428 0.96346 0.22451
 C2136 C 0.26858 0.97234 0.23032
 H2137 H 0.33175 0.91073 0.18658
 H2138 H 0.32057 0.92938 0.19795
 H2139 H 0.28267 0.90851 0.19496
 H2140 H 0.29400 0.88985 0.18383
 H2141 H 0.28150 0.91875 0.21666
 H2142 H 0.27015 0.93719 0.22812
 H2143 H 0.29336 0.96570 0.20569
 H2144 H 0.30462 0.94732 0.19396
 C2145 C 0.82569 0.37822 0.17242
 C2146 C 0.82032 0.38764 0.17769
 C2147 C 0.81375 0.39873 0.18408
 C2148 C 0.82114 0.41000 0.18791
 C2149 C 0.81476 0.42066 0.19431
 C2150 C 0.80089 0.42017 0.19697
 C2151 C 0.79355 0.40883 0.19301
 C2152 C 0.79995 0.39819 0.18661
 C2153 C 0.79411 0.43138 0.20397
 C2154 C 0.78434 0.42877 0.21373
 C2155 C 0.77793 0.43929 0.22032
 C2156 C 0.78119 0.45256 0.21724
 C2157 C 0.79090 0.45527 0.20756
 C2158 C 0.79734 0.44475 0.20097
 C2159 C 0.77454 0.46334 0.22406
 C2160 C 0.76887 0.47223 0.22989
 H2161 H 0.83185 0.41050 0.18604
 H2162 H 0.82071 0.42919 0.19738
 H2163 H 0.78283 0.40823 0.19475
 H2164 H 0.79413 0.38952 0.18365
 H2165 H 0.78177 0.41859 0.21640
 H2166 H 0.77047 0.43708 0.22783
 H2167 H 0.79348 0.46550 0.20509
 H2168 H 0.80470 0.44708 0.19340
 C2169 C 0.82646 0.87905 0.67210
 C2170 C 0.82119 0.88859 0.67726
 C2171 C 0.81479 0.89985 0.68352
 C2172 C 0.82057 0.90572 0.69477
 C2173 C 0.81417 0.91643 0.70108
 C2174 C 0.80187 0.92139 0.69622
 C2175 C 0.79621 0.91547 0.68483
 C2176 C 0.80263 0.90478 0.67853
 C2177 C 0.79489 0.93252 0.70311
 C2178 C 0.78086 0.93226 0.70479
 C2179 C 0.77430 0.94262 0.71148
 C2180 C 0.78165 0.95339 0.71657
 C2181 C 0.79560 0.95379 0.71491
 C2182 C 0.80219 0.94343 0.70822
 C2183 C 0.77488 0.96391 0.72367
 C2184 C 0.76912 0.97261 0.72969
 H2185 H 0.82995 0.90194 0.69875
 H2186 H 0.81869 0.92064 0.70992
 H2187 H 0.78685 0.91917 0.68075
 H2188 H 0.79808 0.90031 0.66982
 H2189 H 0.77498 0.92392 0.70114
 H2190 H 0.76350 0.94218 0.71277
 H2191 H 0.80139 0.96209 0.71879
 H2192 H 0.81298 0.94400 0.70695
 C2193 C 0.67365 0.62172 0.67433
 C2194 C 0.67885 0.61217 0.67954
 C2195 C 0.68518 0.60087 0.68584
 C2196 C 0.69556 0.59404 0.67938
 C2197 C 0.70195 0.58328 0.68564
 C2198 C 0.69802 0.57921 0.69845
 C2199 C 0.68749 0.58608 0.70481
 C2200 C 0.68113 0.59685 0.69854
 C2201 C 0.70501 0.56799 0.70524
 C2202 C 0.69773 0.55861 0.71279
 C2203 C 0.70437 0.54819 0.71935
 C2204 C 0.71835 0.54701 0.71846
 C2205 C 0.72567 0.55625 0.71093
 C2206 C 0.71905 0.56666 0.70436
 C2207 C 0.72523 0.53644 0.72541
 C2208 C 0.73108 0.52768 0.73127
 H2209 H 0.69876 0.59706 0.66954
 H2210 H 0.70990 0.57808 0.68042
 H2211 H 0.68436 0.58331 0.71473
 H2212 H 0.67314 0.60210 0.70364
 H2213 H 0.68690 0.55927 0.71352
 H2214 H 0.69861 0.54108 0.72513
 H2215 H 0.73650 0.55545 0.71022
 H2216 H 0.72496 0.57382 0.69878
 C2217 C 0.67438 0.12180 0.17345
 C2218 C 0.67962 0.11226 0.17866
 C2219 C 0.68595 0.10098 0.18497
 C2220 C 0.68072 0.09582 0.19682
 C2221 C 0.68704 0.08505 0.20312
 C2222 C 0.69871 0.07931 0.19766
 C2223 C 0.70383 0.08452 0.18570
 C2224 C 0.69749 0.09528 0.17941
 C2225 C 0.70561 0.06808 0.20452
 C2226 C 0.71973 0.06769 0.20526
 C2227 C 0.72622 0.05726 0.21193
 C2228 C 0.71873 0.04708 0.21793
 C2229 C 0.70469 0.04733 0.21719
 C2230 C 0.69816 0.05776 0.21053
 C2231 C 0.72545 0.03649 0.22500
 C2232 C 0.73116 0.02773 0.23099
 H2233 H 0.67183 0.10020 0.20124
 H2234 H 0.68295 0.08139 0.21240
 H2235 H 0.71269 0.08021 0.18116
 H2236 H 0.70161 0.09919 0.17023
 H2237 H 0.72573 0.07558 0.20090
 H2238 H 0.73709 0.05719 0.21249
 H2239 H 0.69879 0.03948 0.22178
 H2240 H 0.68730 0.05769 0.20999
 C2241 C 0.17384 0.62160 0.17395
 C2242 C 0.17905 0.61205 0.17917
 C2243 C 0.18536 0.60077 0.18550
 C2244 C 0.18054 0.59606 0.19769
 C2245 C 0.18686 0.58530 0.20401
 C2246 C 0.19812 0.57911 0.19820
 C2247 C 0.20283 0.58387 0.18589
 C2248 C 0.19648 0.59462 0.17959
 C2249 C 0.20505 0.56790 0.20507
 C2250 C 0.21917 0.56717 0.20519
 C2251 C 0.22571 0.55676 0.21186
 C2252 C 0.21824 0.54694 0.21847
 C2253 C 0.20420 0.54753 0.21834
 C2254 C 0.19763 0.55794 0.21169
 C2255 C 0.22503 0.53638 0.22551
 C2256 C 0.23082 0.52764 0.23146
 H2257 H 0.17196 0.60078 0.20238
 H2258 H 0.18311 0.58199 0.21355
 H2259 H 0.21136 0.57921 0.18109
 H2260 H 0.20029 0.59818 0.17014
 H2261 H 0.22517 0.57478 0.20035
 H2262 H 0.23659 0.55642 0.21193
 H2263 H 0.19832 0.53997 0.22341
 H2264 H 0.18676 0.55814 0.21163
 C2265 C 0.17377 0.12097 0.67340
 C2266 C 0.17903 0.11144 0.67860
 C2267 C 0.18541 0.10018 0.68489
 C2268 C 0.17997 0.09471 0.69651
 C2269 C 0.18635 0.08399 0.70282
 C2270 C 0.19830 0.07860 0.69760
 C2271 C 0.20363 0.08410 0.68587
 C2272 C 0.19723 0.09482 0.67956
 C2273 C 0.20527 0.06743 0.70450
 C2274 C 0.21937 0.06736 0.70562
 C2275 C 0.22593 0.05699 0.71232
 C2276 C 0.21852 0.04655 0.71797
 C2277 C 0.20450 0.04648 0.71685
 C2278 C 0.19791 0.05685 0.71016
 C2279 C 0.22530 0.03603 0.72508
 C2280 C 0.23107 0.02732 0.73110
 H2281 H 0.17086 0.09882 0.70075
 H2282 H 0.18209 0.08009 0.71193
 H2283 H 0.21271 0.08007 0.68151
 H2284 H 0.20152 0.09897 0.67057
 H2285 H 0.22530 0.07545 0.70153
 H2286 H 0.23678 0.05718 0.71318
 H2287 H 0.19867 0.03843 0.72117
 H2288 H 0.18707 0.05654 0.70932
 C2289 C 0.32657 0.62182 0.32728
 C2290 C 0.32128 0.61226 0.32220
 C2291 C 0.31485 0.60097 0.31603
 C2292 C 0.30205 0.59697 0.32017
 C2293 C 0.29562 0.58624 0.31394
 C2294 C 0.30192 0.57936 0.30346
 C2295 C 0.31485 0.58338 0.29945
 C2296 C 0.32125 0.59412 0.30569
 C2297 C 0.29495 0.56819 0.29660
 C2298 C 0.30204 0.55662 0.29279
 C2299 C 0.29547 0.54621 0.28616
 C2300 C 0.28176 0.54722 0.28324
 C2301 C 0.27462 0.55866 0.28702
 C2302 C 0.28116 0.56907 0.29365
 C2303 C 0.27502 0.53661 0.27625
 C2304 C 0.26926 0.52782 0.27035
 H2305 H 0.29701 0.60219 0.32818
 H2306 H 0.28575 0.58328 0.31737
 H2307 H 0.31989 0.57840 0.29131
 H2308 H 0.33114 0.59717 0.30237
 H2309 H 0.31262 0.55557 0.29506
 H2310 H 0.30109 0.53738 0.28331
 H2311 H 0.26402 0.55957 0.28476
 H2312 H 0.27547 0.57792 0.29628
 C2313 C 0.32628 0.12154 0.82762
 C2314 C 0.32100 0.11199 0.82250
 C2315 C 0.31459 0.10070 0.81630
 C2316 C 0.32050 0.09457 0.80526
 C2317 C 0.31410 0.08384 0.79900
 C2318 C 0.30166 0.07911 0.80371
 C2319 C 0.29585 0.08528 0.81488
 C2320 C 0.30228 0.09601 0.82112
 C2321 C 0.29468 0.06793 0.79686
 C2322 C 0.28069 0.06833 0.79490
 C2323 C 0.27414 0.05792 0.78826
 C2324 C 0.28147 0.04698 0.78351
 C2325 C 0.29538 0.04645 0.78546
 C2326 C 0.30196 0.05685 0.79209
 C2327 C 0.27472 0.03640 0.77648
 C2328 C 0.26900 0.02762 0.77053
 H2329 H 0.33000 0.09817 0.80141
 H2330 H 0.31874 0.07941 0.79033
 H2331 H 0.28638 0.08176 0.81883
 H2332 H 0.29762 0.10067 0.82967
 H2333 H 0.27484 0.07680 0.79829
 H2334 H 0.26338 0.05846 0.78676
 H2335 H 0.30115 0.03801 0.78184
 H2336 H 0.31271 0.05618 0.79359
 C2337 C 0.82664 0.62159 0.82735
 C2338 C 0.82136 0.61202 0.82227
 C2339 C 0.81494 0.60071 0.81610
 C2340 C 0.80225 0.59655 0.82039
 C2341 C 0.79583 0.58581 0.81415
 C2342 C 0.80205 0.57908 0.80352
 C2343 C 0.81487 0.58327 0.79936
 C2344 C 0.82126 0.59402 0.80561
 C2345 C 0.79509 0.56790 0.79666
 C2346 C 0.80224 0.55646 0.79262
 C2347 C 0.79569 0.54605 0.78596
 C2348 C 0.78193 0.54695 0.78325
 C2349 C 0.77472 0.55826 0.78727
 C2350 C 0.78124 0.56867 0.79393
 C2351 C 0.77520 0.53637 0.77619
 C2352 C 0.76948 0.52761 0.77021
 H2353 H 0.79727 0.60164 0.82851
 H2354 H 0.78605 0.58271 0.81770
 H2355 H 0.81984 0.57842 0.79110
 H2356 H 0.83106 0.59720 0.80217
 H2357 H 0.81286 0.55550 0.79471
 H2358 H 0.80136 0.53733 0.78291
 H2359 H 0.76407 0.55909 0.78517
 H2360 H 0.77549 0.57742 0.79674
 C2361 C 0.82674 0.12149 0.32719
 C2362 C 0.82149 0.11193 0.32208
 C2363 C 0.81510 0.10064 0.31586
 C2364 C 0.82067 0.09494 0.30443
 C2365 C 0.81426 0.08420 0.29818
 C2366 C 0.80217 0.07904 0.30328
 C2367 C 0.79670 0.08478 0.31484
 C2368 C 0.80313 0.09550 0.32108
 C2369 C 0.79516 0.06787 0.29644
 C2370 C 0.78109 0.06796 0.29510
 C2371 C 0.77451 0.05757 0.28848
 C2372 C 0.78188 0.04694 0.28312
 C2373 C 0.79587 0.04672 0.28445
 C2374 C 0.80248 0.05711 0.29106
 C2375 C 0.77507 0.03638 0.27612
 C2376 C 0.76927 0.02763 0.27020
 H2377 H 0.82989 0.09888 0.30027
 H2378 H 0.81862 0.08013 0.28920
 H2379 H 0.78751 0.08091 0.31911
 H2380 H 0.79874 0.09983 0.32994
 H2381 H 0.77519 0.07618 0.29897
 H2382 H 0.76367 0.05786 0.28746
 H2383 H 0.80167 0.03853 0.28035
 H2384 H 0.81330 0.05668 0.29207
 C2385 C 0.67404 0.37858 0.32677
 C2386 C 0.67948 0.38798 0.32154
 C2387 C 0.68609 0.39907 0.31519
 C2388 C 0.67861 0.40997 0.31054
 C2389 C 0.68504 0.42062 0.30415
 C2390 C 0.69905 0.42048 0.30230
 C2391 C 0.70648 0.40951 0.30709
 C2392 C 0.70004 0.39889 0.31349
 C2393 C 0.70588 0.43163 0.29527
 C2394 C 0.71627 0.42900 0.28617
 C2395 C 0.72268 0.43948 0.27952
 C2396 C 0.71882 0.45272 0.28187
 C2397 C 0.70850 0.45547 0.29090
 C2398 C 0.70205 0.44499 0.29756
 C2399 C 0.72546 0.46346 0.27496
 C2400 C 0.73112 0.47231 0.26906
 H2401 H 0.66780 0.41019 0.31177
 H2402 H 0.67902 0.42884 0.30043
 H2403 H 0.71730 0.40919 0.30598
 H2404 H 0.70593 0.39051 0.31707
 H2405 H 0.71931 0.41882 0.28405
 H2406 H 0.73063 0.43724 0.27251
 H2407 H 0.70545 0.46569 0.29280
 H2408 H 0.69420 0.44735 0.30461
 C2409 C 0.67435 0.87823 0.82681
 C2410 C 0.67980 0.88759 0.82152
 C2411 C 0.68641 0.89865 0.81511
 C2412 C 0.67902 0.90983 0.81104
 C2413 C 0.68544 0.92047 0.80461
 C2414 C 0.69935 0.92002 0.80215
 C2415 C 0.70669 0.90875 0.80636
 C2416 C 0.70026 0.89815 0.81279
 C2417 C 0.70616 0.93119 0.79512
 C2418 C 0.71609 0.92855 0.78553
 C2419 C 0.72249 0.93904 0.77889
 C2420 C 0.71907 0.95231 0.78174
 C2421 C 0.70921 0.95506 0.79126
 C2422 C 0.70278 0.94457 0.79791
 C2423 C 0.72570 0.96307 0.77487
 C2424 C 0.73134 0.97198 0.76903
 H2425 H 0.66829 0.91030 0.81275
 H2426 H 0.67948 0.92892 0.80135
 H2427 H 0.71744 0.90819 0.80477
 H2428 H 0.70608 0.88955 0.81593
 H2429 H 0.71877 0.91836 0.78303
 H2430 H 0.73008 0.93680 0.77151
 H2431 H 0.70651 0.96530 0.79356
 H2432 H 0.69529 0.94693 0.80535
 C2433 C 0.17339 0.37816 0.82720
 C2434 C 0.17853 0.38763 0.82180
 C2435 C 0.18473 0.39882 0.81522
 C2436 C 0.18037 0.40268 0.80256
 C2437 C 0.18658 0.41334 0.79600
 C2438 C 0.19726 0.42029 0.80203
 C2439 C 0.20151 0.41640 0.81480
 C2440 C 0.19528 0.40572 0.82134
 C2441 C 0.20407 0.43143 0.79494
 C2442 C 0.20797 0.44307 0.80180
 C2443 C 0.21450 0.45347 0.79512
 C2444 C 0.21722 0.45239 0.78153
 C2445 C 0.21335 0.44087 0.77461
 C2446 C 0.20681 0.43046 0.78126
 C2447 C 0.22410 0.46301 0.77467
 C2448 C 0.22992 0.47181 0.76886
 H2449 H 0.17219 0.39742 0.79774
 H2450 H 0.18297 0.41622 0.78626
 H2451 H 0.20981 0.42143 0.81963
 H2452 H 0.19877 0.40278 0.83111
 H2453 H 0.20586 0.44418 0.81229
 H2454 H 0.21744 0.46235 0.80056
 H2455 H 0.21546 0.43990 0.76410
 H2456 H 0.20411 0.42157 0.77575
 C2457 C 0.17334 0.87883 0.32693
 C2458 C 0.17851 0.88834 0.32162
 C2459 C 0.18475 0.89956 0.31513
 C2460 C 0.18037 0.90357 0.30253
 C2461 C 0.18664 0.91425 0.29605
 C2462 C 0.19739 0.92107 0.30210
 C2463 C 0.20164 0.91704 0.31483
 C2464 C 0.19536 0.90634 0.32129
 C2465 C 0.20426 0.93220 0.29508
 C2466 C 0.20827 0.94376 0.30201
 C2467 C 0.21486 0.95417 0.29538
 C2468 C 0.21755 0.95314 0.28177
 C2469 C 0.21358 0.94170 0.27480
 C2470 C 0.20698 0.93130 0.28139
 C2471 C 0.22447 0.96376 0.27496
 C2472 C 0.23032 0.97254 0.26913
 H2473 H 0.17215 0.89840 0.29768
 H2474 H 0.18302 0.91723 0.28634
 H2475 H 0.20999 0.92197 0.31968
 H2476 H 0.19886 0.90329 0.33102
 H2477 H 0.20618 0.94482 0.31251
 H2478 H 0.21787 0.96299 0.30087
 H2479 H 0.21566 0.94079 0.26427
 H2480 H 0.20420 0.92246 0.27582
 C2481 C 0.37719 0.32591 0.67343
 C2482 C 0.38664 0.32057 0.67874
 C2483 C 0.39777 0.31404 0.68517
 C2484 C 0.41002 0.32073 0.68673
 C2485 C 0.42077 0.31439 0.69311
 C2486 C 0.41938 0.30128 0.69804
 C2487 C 0.40704 0.29464 0.69636
 C2488 C 0.39632 0.30098 0.68997
 C2489 C 0.43072 0.29457 0.70496
 C2490 C 0.42837 0.28675 0.71635
 C2491 C 0.43900 0.28034 0.72282
 C2492 C 0.45212 0.28165 0.71801
 C2493 C 0.45458 0.28944 0.70671
 C2494 C 0.44395 0.29588 0.70022
 C2495 C 0.46299 0.27489 0.72464
 C2496 C 0.47194 0.26911 0.73032
 H2497 H 0.41124 0.33085 0.68308
 H2498 H 0.43009 0.31982 0.69438
 H2499 H 0.40571 0.28448 0.69987
 H2500 H 0.38689 0.29570 0.68878
 H2501 H 0.41833 0.28571 0.72035
 H2502 H 0.43699 0.27436 0.73158
 H2503 H 0.46469 0.29049 0.70288
 H2504 H 0.44606 0.30170 0.69139
 C2505 C 0.37793 0.82656 0.17259
 C2506 C 0.38740 0.82118 0.17782
 C2507 C 0.39856 0.81461 0.18416
 C2508 C 0.40984 0.82197 0.18809
 C2509 C 0.42057 0.81558 0.19446
 C2510 C 0.42012 0.80174 0.19701
 C2511 C 0.40876 0.79443 0.19294
 C2512 C 0.39806 0.80083 0.18657
 C2513 C 0.43137 0.79496 0.20399
 C2514 C 0.42876 0.78514 0.21367
 C2515 C 0.43933 0.77873 0.22024
 C2516 C 0.45264 0.78203 0.21724
 C2517 C 0.45536 0.79179 0.20764
 C2518 C 0.44480 0.79823 0.20105
 C2519 C 0.46346 0.77535 0.22403
 C2520 C 0.47237 0.76965 0.22984
 H2521 H 0.41031 0.83265 0.18631
 H2522 H 0.42910 0.82150 0.19760
 H2523 H 0.40819 0.78374 0.19459
 H2524 H 0.38939 0.79504 0.18354
 H2525 H 0.41854 0.78254 0.21629
 H2526 H 0.43711 0.77122 0.22769
 H2527 H 0.46563 0.79440 0.20521
 H2528 H 0.44713 0.80564 0.19354
 C2529 C 0.87775 0.32598 0.17237
 C2530 C 0.88719 0.32056 0.17763
 C2531 C 0.89830 0.31394 0.18399
 C2532 C 0.90988 0.32113 0.18735
 C2533 C 0.92059 0.31470 0.19371
 C2534 C 0.91982 0.30099 0.19683
 C2535 C 0.90816 0.29385 0.19335
 C2536 C 0.89748 0.30029 0.18698
 C2537 C 0.93107 0.29418 0.20379
 C2538 C 0.92847 0.28480 0.21390
 C2539 C 0.93903 0.27836 0.22044
 C2540 C 0.95235 0.28119 0.21698
 C2541 C 0.95506 0.29051 0.20695
 C2542 C 0.94450 0.29697 0.20040
 C2543 C 0.96317 0.27450 0.22375
 C2544 C 0.97211 0.26880 0.22954
 H2545 H 0.91061 0.33171 0.18512
 H2546 H 0.92936 0.32050 0.19641
 H2547 H 0.90733 0.28326 0.19545
 H2548 H 0.88858 0.29463 0.18439
 H2549 H 0.91826 0.28257 0.21687
 H2550 H 0.93682 0.27120 0.22822
 H2551 H 0.96533 0.29274 0.20418
 H2552 H 0.94682 0.30402 0.19255
 C2553 C 0.87821 0.82653 0.67285
 C2554 C 0.88761 0.82113 0.67819
 C2555 C 0.89869 0.81453 0.68464
 C2556 C 0.91061 0.82150 0.68720
 C2557 C 0.92130 0.81509 0.69361
 C2558 C 0.92018 0.80163 0.69757
 C2559 C 0.90816 0.79471 0.69490
 C2560 C 0.89750 0.80113 0.68848
 C2561 C 0.93143 0.79484 0.70454
 C2562 C 0.92888 0.78617 0.71526
 C2563 C 0.93945 0.77972 0.72180
 C2564 C 0.95271 0.78184 0.71772
 C2565 C 0.95538 0.79046 0.70708
 C2566 C 0.94481 0.79694 0.70053
 C2567 C 0.96353 0.77512 0.72446
 C2568 C 0.97246 0.76939 0.73023
 H2569 H 0.91161 0.83189 0.68430
 H2570 H 0.93035 0.82073 0.69567
 H2571 H 0.90706 0.78430 0.69766
 H2572 H 0.88833 0.79564 0.68652
 H2573 H 0.91871 0.78449 0.71871
 H2574 H 0.93727 0.77310 0.73005
 H2575 H 0.96561 0.79215 0.70382
 H2576 H 0.94709 0.80343 0.69222
 C2577 C 0.62145 0.32692 0.32662
 C2578 C 0.61193 0.32170 0.32134
 C2579 C 0.60068 0.31537 0.31493
 C2580 C 0.59584 0.30311 0.31964
 C2581 C 0.58512 0.29679 0.31323
 C2582 C 0.57910 0.30265 0.30199
 C2583 C 0.58398 0.31503 0.29739
 C2584 C 0.59470 0.32134 0.30382
 C2585 C 0.56792 0.29579 0.29498
 C2586 C 0.56737 0.29566 0.28101
 C2587 C 0.55698 0.28901 0.27441
 C2588 C 0.54699 0.28241 0.28166
 C2589 C 0.54740 0.28253 0.29556
 C2590 C 0.55779 0.28917 0.30219
 C2591 C 0.53644 0.27536 0.27483
 C2592 C 0.52769 0.26939 0.26905
 H2593 H 0.60044 0.29838 0.32820
 H2594 H 0.58172 0.28719 0.31691
 H2595 H 0.57945 0.31988 0.28887
 H2596 H 0.59835 0.33084 0.30010
 H2597 H 0.57511 0.30050 0.27518
 H2598 H 0.55679 0.28893 0.26365
 H2599 H 0.53970 0.27747 0.30128
 H2600 H 0.55784 0.28923 0.31295
 C2601 C 0.62135 0.82699 0.82717
 C2602 C 0.61176 0.82184 0.82194
 C2603 C 0.60042 0.81561 0.81558
 C2604 C 0.59587 0.80311 0.81994
 C2605 C 0.58509 0.79688 0.81355
 C2606 C 0.57872 0.80307 0.80267
 C2607 C 0.58331 0.81569 0.79843
 C2608 C 0.59409 0.82190 0.80485
 C2609 C 0.56748 0.79631 0.79566
 C2610 C 0.56662 0.79670 0.78171
 C2611 C 0.55619 0.79012 0.77509
 C2612 C 0.54648 0.78308 0.78230
 C2613 C 0.54719 0.78269 0.79618
 C2614 C 0.55762 0.78926 0.80283
 C2615 C 0.53592 0.77609 0.77543
 C2616 C 0.52717 0.77016 0.76961
 H2617 H 0.60074 0.79812 0.82821
 H2618 H 0.58191 0.78710 0.81694
 H2619 H 0.57851 0.82079 0.79021
 H2620 H 0.59752 0.83159 0.80140
 H2621 H 0.57415 0.80188 0.77590
 H2622 H 0.55577 0.79043 0.76433
 H2623 H 0.53972 0.77728 0.80187
 H2624 H 0.55792 0.78891 0.81358
 C2625 C 0.12135 0.32600 0.82823
 C2626 C 0.11176 0.32073 0.82311
 C2627 C 0.10044 0.31439 0.81684
 C2628 C 0.09742 0.30101 0.81965
 C2629 C 0.08665 0.29473 0.81328
 C2630 C 0.07875 0.30176 0.80400
 C2631 C 0.08181 0.31524 0.80134
 C2632 C 0.09258 0.32151 0.80772
 C2633 C 0.06754 0.29498 0.79697
 C2634 C 0.06536 0.29726 0.78333
 C2635 C 0.05499 0.29068 0.77664
 C2636 C 0.04664 0.28176 0.78346
 C2637 C 0.04866 0.27948 0.79704
 C2638 C 0.05905 0.28604 0.80375
 C2639 C 0.03614 0.27481 0.77646
 C2640 C 0.02746 0.26893 0.77050
 H2641 H 0.10348 0.29540 0.82665
 H2642 H 0.08466 0.28430 0.81542
 H2643 H 0.07582 0.32097 0.79438
 H2644 H 0.09482 0.33188 0.80549
 H2645 H 0.07184 0.30393 0.77779
 H2646 H 0.05354 0.29248 0.76611
 H2647 H 0.04224 0.27261 0.80242
 H2648 H 0.06037 0.28420 0.81428
 C2649 C 0.12132 0.82666 0.32729
 C2650 C 0.11176 0.82142 0.32209
 C2651 C 0.10046 0.81511 0.31574
 C2652 C 0.09674 0.80210 0.31930
 C2653 C 0.08598 0.79583 0.31290
 C2654 C 0.07881 0.80251 0.30283
 C2655 C 0.08258 0.81563 0.29939
 C2656 C 0.09333 0.82188 0.30581
 C2657 C 0.06759 0.79574 0.29580
 C2658 C 0.06607 0.79712 0.28197
 C2659 C 0.05567 0.79054 0.27531
 C2660 C 0.04664 0.78251 0.28237
 C2661 C 0.04801 0.78113 0.29614
 C2662 C 0.05842 0.78769 0.30283
 C2663 C 0.03612 0.77553 0.27545
 C2664 C 0.02739 0.76961 0.26958
 H2665 H 0.10224 0.79675 0.32693
 H2666 H 0.08345 0.78567 0.31565
 H2667 H 0.07715 0.82110 0.29180
 H2668 H 0.09612 0.83197 0.30299
 H2669 H 0.07308 0.80309 0.27626
 H2670 H 0.05474 0.79163 0.26464
 H2671 H 0.04106 0.77495 0.30171
 H2672 H 0.05922 0.78657 0.31350
 C2673 C 0.62170 0.67406 0.67415
 C2674 C 0.61216 0.67936 0.67931
 C2675 C 0.60088 0.68579 0.68555
 C2676 C 0.59551 0.68057 0.69731
 C2677 C 0.58476 0.68700 0.70356
 C2678 C 0.57923 0.69875 0.69812
 C2679 C 0.58464 0.70387 0.68624
 C2680 C 0.59539 0.69742 0.68001
 C2681 C 0.56801 0.70575 0.70492
 C2682 C 0.56782 0.71980 0.70574
 C2683 C 0.55737 0.72639 0.71232
 C2684 C 0.54698 0.71903 0.71816
 C2685 C 0.54703 0.70505 0.71735
 C2686 C 0.55747 0.69845 0.71077
 C2687 C 0.53636 0.72583 0.72511
 C2688 C 0.52754 0.73159 0.73100
 H2689 H 0.59972 0.67161 0.70172
 H2690 H 0.58094 0.68291 0.71278
 H2691 H 0.58050 0.71279 0.68172
 H2692 H 0.59946 0.70153 0.67090
 H2693 H 0.57587 0.72570 0.70149
 H2694 H 0.55746 0.73721 0.71293
 H2695 H 0.53901 0.69926 0.72181
 H2696 H 0.55724 0.68763 0.71017
 C2697 C 0.62215 0.17386 0.17330
 C2698 C 0.61259 0.17911 0.17848
 C2699 C 0.60128 0.18548 0.18474
 C2700 C 0.59605 0.18030 0.19658
 C2701 C 0.58526 0.18665 0.20284
 C2702 C 0.57957 0.19830 0.19734
 C2703 C 0.58485 0.20338 0.18538
 C2704 C 0.59564 0.19700 0.17914
 C2705 C 0.56831 0.20523 0.20414
 C2706 C 0.56798 0.21929 0.20486
 C2707 C 0.55752 0.22582 0.21147
 C2708 C 0.54724 0.21840 0.21743
 C2709 C 0.54743 0.20442 0.21672
 C2710 C 0.55789 0.19787 0.21012
 C2711 C 0.53662 0.22514 0.22445
 C2712 C 0.52782 0.23086 0.23039
 H2713 H 0.60039 0.17142 0.20103
 H2714 H 0.58154 0.18261 0.21211
 H2715 H 0.58058 0.21222 0.18082
 H2716 H 0.59960 0.20108 0.16997
 H2717 H 0.57594 0.22524 0.20052
 H2718 H 0.55749 0.23664 0.21200
 H2719 H 0.53951 0.19858 0.22129
 H2720 H 0.55778 0.18705 0.20960
 C2721 C 0.12188 0.67391 0.17382
 C2722 C 0.11235 0.67921 0.17901
 C2723 C 0.10108 0.68562 0.18528
 C2724 C 0.09557 0.69725 0.17978
 C2725 C 0.08481 0.70366 0.18603
 C2726 C 0.07942 0.69850 0.19790
 C2727 C 0.08497 0.68674 0.20330
 C2728 C 0.09573 0.68036 0.19703
 C2729 C 0.06818 0.70545 0.20471
 C2730 C 0.05765 0.69811 0.21054
 C2731 C 0.04719 0.70467 0.21713
 C2732 C 0.04711 0.71865 0.21798
 C2733 C 0.05749 0.72604 0.21217
 C2734 C 0.06796 0.71950 0.20557
 C2735 C 0.03648 0.72541 0.22496
 C2736 C 0.02766 0.73115 0.23086
 H2737 H 0.09962 0.70140 0.17067
 H2738 H 0.08065 0.71259 0.18154
 H2739 H 0.08116 0.68263 0.21251
 H2740 H 0.09996 0.67139 0.20141
 H2741 H 0.05745 0.68730 0.20991
 H2742 H 0.03919 0.69885 0.22158
 H2743 H 0.05756 0.73686 0.21282
 H2744 H 0.07600 0.72543 0.20135
 C2745 C 0.12215 0.17362 0.67387
 C2746 C 0.11277 0.17906 0.67917
 C2747 C 0.10169 0.18567 0.68559
 C2748 C 0.09095 0.17821 0.69062
 C2749 C 0.08030 0.18465 0.69704
 C2750 C 0.08028 0.19865 0.69852
 C2751 C 0.09110 0.20606 0.69336
 C2752 C 0.10173 0.19961 0.68694
 C2753 C 0.06910 0.20549 0.70553
 C2754 C 0.07174 0.21613 0.71431
 C2755 C 0.06123 0.22257 0.72093
 C2756 C 0.04795 0.21848 0.71887
 C2757 C 0.04521 0.20792 0.71017
 C2758 C 0.05571 0.20145 0.70354
 C2759 C 0.03718 0.22515 0.72572
 C2760 C 0.02825 0.23083 0.73152
 H2761 H 0.09084 0.16742 0.68967
 H2762 H 0.07220 0.17865 0.70105
 H2763 H 0.09130 0.21686 0.69418
 H2764 H 0.10998 0.20548 0.68304
 H2765 H 0.08195 0.21935 0.71619
 H2766 H 0.06348 0.23070 0.72768
 H2767 H 0.03495 0.20470 0.70848
 H2768 H 0.05334 0.19341 0.69673
 C2769 C 0.37849 0.67413 0.32624
 C2770 C 0.38791 0.67938 0.32082
 C2771 C 0.39902 0.68573 0.31421
 C2772 C 0.40939 0.69155 0.32161
 C2773 C 0.42004 0.69795 0.31515
 C2774 C 0.42043 0.69863 0.30118
 C2775 C 0.40999 0.69267 0.29384
 C2776 C 0.39937 0.68627 0.30032
 C2777 C 0.43159 0.70564 0.29430
 C2778 C 0.42898 0.71375 0.28316
 C2779 C 0.43946 0.72037 0.27666
 C2780 C 0.45268 0.71897 0.28119
 C2781 C 0.45539 0.71093 0.29227
 C2782 C 0.44491 0.70431 0.29879
 C2783 C 0.46342 0.72578 0.27443
 C2784 C 0.47230 0.73154 0.26864
 H2785 H 0.40919 0.69123 0.33237
 H2786 H 0.42784 0.70258 0.32108
 H2787 H 0.41010 0.69286 0.28309
 H2788 H 0.39141 0.68177 0.29449
 H2789 H 0.41882 0.71513 0.27957
 H2790 H 0.43725 0.72660 0.26812
 H2791 H 0.46559 0.70975 0.29583
 H2792 H 0.44726 0.69802 0.30724
 C2793 C 0.37811 0.17395 0.82676
 C2794 C 0.38752 0.17931 0.82143
 C2795 C 0.39860 0.18586 0.81497
 C2796 C 0.40979 0.17847 0.81085
 C2797 C 0.42045 0.18484 0.80438
 C2798 C 0.42003 0.19870 0.80192
 C2799 C 0.40876 0.20605 0.80617
 C2800 C 0.39813 0.19966 0.81265
 C2801 C 0.43122 0.20547 0.79485
 C2802 C 0.42853 0.21537 0.78527
 C2803 C 0.43904 0.22177 0.77862
 C2804 C 0.45238 0.21838 0.78144
 C2805 C 0.45517 0.20853 0.79094
 C2806 C 0.44467 0.20210 0.79760
 C2807 C 0.46315 0.22504 0.77458
 C2808 C 0.47204 0.23073 0.76875
 H2809 H 0.41024 0.16778 0.81256
 H2810 H 0.42891 0.17890 0.80109
 H2811 H 0.40822 0.21675 0.80460
 H2812 H 0.38953 0.20548 0.81583
 H2813 H 0.41829 0.21805 0.78279
 H2814 H 0.43676 0.22935 0.77125
 H2815 H 0.46546 0.20585 0.79323
 H2816 H 0.44706 0.19463 0.80504
 C2817 C 0.87870 0.67375 0.82637
 C2818 C 0.88815 0.67897 0.82097
 C2819 C 0.89929 0.68529 0.81437
 C2820 C 0.90951 0.69136 0.82179
 C2821 C 0.92017 0.69774 0.81534
 C2822 C 0.92073 0.69816 0.80137
 C2823 C 0.91045 0.69195 0.79402
 C2824 C 0.89981 0.68557 0.80048
 C2825 C 0.93189 0.70517 0.79448
 C2826 C 0.92933 0.71304 0.78317
 C2827 C 0.93981 0.71966 0.77668
 C2828 C 0.95299 0.71850 0.78139
 C2829 C 0.95565 0.71070 0.79264
 C2830 C 0.94518 0.70408 0.79916
 C2831 C 0.96373 0.72533 0.77464
 C2832 C 0.97259 0.73113 0.76886
 H2833 H 0.90918 0.69124 0.83255
 H2834 H 0.92785 0.70256 0.82127
 H2835 H 0.91069 0.69194 0.78326
 H2836 H 0.89196 0.68088 0.79465
 H2837 H 0.91920 0.71424 0.77944
 H2838 H 0.93763 0.72571 0.76800
 H2839 H 0.96582 0.70971 0.79635
 H2840 H 0.94749 0.69797 0.80775
 C2841 C 0.87851 0.17397 0.32648
 C2842 C 0.88793 0.17934 0.32117
 C2843 C 0.89903 0.18591 0.31474
 C2844 C 0.91009 0.17848 0.31036
 C2845 C 0.92075 0.18487 0.30390
 C2846 C 0.92045 0.19877 0.30172
 C2847 C 0.90932 0.20615 0.30624
 C2848 C 0.89869 0.19975 0.31271
 C2849 C 0.93163 0.20555 0.29464
 C2850 C 0.92893 0.21567 0.28528
 C2851 C 0.93943 0.22207 0.27860
 C2852 C 0.95276 0.21846 0.28118
 C2853 C 0.95557 0.20840 0.29046
 C2854 C 0.94507 0.20197 0.29715
 C2855 C 0.96352 0.22511 0.27428
 C2856 C 0.97239 0.23080 0.26841
 H2857 H 0.91043 0.16775 0.31185
 H2858 H 0.92910 0.17889 0.30040
 H2859 H 0.90888 0.21689 0.30488
 H2860 H 0.89019 0.20560 0.31609
 H2861 H 0.91869 0.21852 0.28299
 H2862 H 0.93714 0.22981 0.27141
 H2863 H 0.96585 0.20555 0.29255
 H2864 H 0.94748 0.19434 0.30440
 C2865 C 0.32539 0.32595 0.62133
 C2866 C 0.32019 0.32062 0.61190
 C2867 C 0.31391 0.31412 0.60076
 C2868 C 0.31800 0.30127 0.59701
 C2869 C 0.31170 0.29478 0.58640
 C2870 C 0.30121 0.30108 0.57939
 C2871 C 0.29725 0.31405 0.58318
 C2872 C 0.30356 0.32051 0.59381
 C2873 C 0.29433 0.29409 0.56829
 C2874 C 0.29070 0.30106 0.55668
 C2875 C 0.28412 0.29446 0.54629
 C2876 C 0.28108 0.28084 0.54738
 C2877 C 0.28467 0.27381 0.55888
 C2878 C 0.29125 0.28038 0.56927
 C2879 C 0.27420 0.27406 0.53676
 C2880 C 0.26838 0.26830 0.52795
 H2881 H 0.32602 0.29624 0.60231
 H2882 H 0.31509 0.28489 0.58361
 H2883 H 0.28910 0.31909 0.57810
 H2884 H 0.30028 0.33043 0.59667
 H2885 H 0.29307 0.31157 0.55556
 H2886 H 0.28141 0.29999 0.53742
 H2887 H 0.28232 0.26327 0.55985
 H2888 H 0.29374 0.27478 0.57815
 C2889 C 0.32603 0.82710 0.12058
 C2890 C 0.32079 0.82192 0.11109
 C2891 C 0.31443 0.81563 0.09988
 C2892 C 0.31906 0.80324 0.09530
 C2893 C 0.31267 0.79694 0.08464
 C2894 C 0.30152 0.80294 0.07842
 C2895 C 0.29700 0.81544 0.08304
 C2896 C 0.30342 0.82173 0.09370
 C2897 C 0.29451 0.79608 0.06732
 C2898 C 0.28039 0.79617 0.06656
 C2899 C 0.27377 0.78948 0.05627
 C2900 C 0.28116 0.78265 0.04659
 C2901 C 0.29520 0.78257 0.04720
 C2902 C 0.30185 0.78924 0.05750
 C2903 C 0.27431 0.77555 0.03616
 C2904 C 0.26851 0.76952 0.02752
 H2905 H 0.32754 0.79840 0.10005
 H2906 H 0.31627 0.78724 0.08143
 H2907 H 0.28856 0.82040 0.07836
 H2908 H 0.29976 0.83133 0.09716
 H2909 H 0.27445 0.80118 0.07407
 H2910 H 0.26289 0.78956 0.05591
 H2911 H 0.30102 0.77732 0.03975
 H2912 H 0.31272 0.78913 0.05772
 C2913 C 0.82599 0.32680 0.12023
 C2914 C 0.82076 0.32167 0.11070
 C2915 C 0.81441 0.31544 0.09945
 C2916 C 0.81885 0.30294 0.09498
 C2917 C 0.81246 0.29671 0.08427
 C2918 C 0.80152 0.30291 0.07789
 C2919 C 0.79720 0.31552 0.08239
 C2920 C 0.80361 0.32174 0.09310
 C2921 C 0.79450 0.29613 0.06674
 C2922 C 0.78040 0.29651 0.06580
 C2923 C 0.77377 0.28990 0.05547
 C2924 C 0.78113 0.28284 0.04593
 C2925 C 0.79517 0.28247 0.04671
 C2926 C 0.80182 0.28907 0.05704
 C2927 C 0.77426 0.27579 0.03548
 C2928 C 0.76843 0.26981 0.02682
 H2929 H 0.82716 0.29795 0.09987
 H2930 H 0.81591 0.28693 0.08116
 H2931 H 0.78892 0.32062 0.07758
 H2932 H 0.80010 0.33142 0.09647
 H2933 H 0.77448 0.30169 0.07320
 H2934 H 0.76290 0.29019 0.05498
 H2935 H 0.80096 0.27706 0.03937
 H2936 H 0.81269 0.28874 0.05740
 C2937 C 0.82657 0.82688 0.62061
 C2938 C 0.82138 0.82158 0.61115
 C2939 C 0.81512 0.81509 0.59999
 C2940 C 0.81977 0.80261 0.59571
 C2941 C 0.81347 0.79611 0.58510
 C2942 C 0.80243 0.80203 0.57863
 C2943 C 0.79791 0.81464 0.58294
 C2944 C 0.80421 0.82112 0.59356
 C2945 C 0.79552 0.79497 0.56759
 C2946 C 0.79107 0.80204 0.55632
 C2947 C 0.78442 0.79538 0.54601
 C2948 C 0.78212 0.78160 0.54685
 C2949 C 0.78655 0.77447 0.55800
 C2950 C 0.79320 0.78110 0.56830
 C2951 C 0.77512 0.77474 0.53635
 C2952 C 0.76920 0.76888 0.52768
 H2953 H 0.82822 0.79786 0.60061
 H2954 H 0.81730 0.78649 0.58191
 H2955 H 0.78933 0.81938 0.57828
 H2956 H 0.80050 0.83076 0.59683
 H2957 H 0.79284 0.81269 0.55541
 H2958 H 0.78106 0.80099 0.53741
 H2959 H 0.78478 0.76381 0.55876
 H2960 H 0.79633 0.77541 0.57692
 C2961 C 0.32682 0.67434 0.37843
 C2962 C 0.32161 0.67971 0.38782
 C2963 C 0.31527 0.68627 0.39889
 C2964 C 0.31173 0.67897 0.41023
 C2965 C 0.30535 0.68533 0.42088
 C2966 C 0.30241 0.69910 0.42028
 C2967 C 0.30610 0.70635 0.40887
 C2968 C 0.31248 0.69997 0.39825
 C2969 C 0.29542 0.70585 0.43146
 C2970 C 0.28534 0.71539 0.42893
 C2971 C 0.27878 0.72180 0.43941
 C2972 C 0.28218 0.71877 0.45257
 C2973 C 0.29218 0.70927 0.45520
 C2974 C 0.29875 0.70284 0.44472
 C2975 C 0.27542 0.72547 0.46331
 C2976 C 0.26967 0.73121 0.47216
 H2977 H 0.31381 0.66834 0.41081
 H2978 H 0.30251 0.67945 0.42946
 H2979 H 0.30414 0.71699 0.40819
 H2980 H 0.31520 0.70572 0.38954
 H2981 H 0.28241 0.71779 0.41884
 H2982 H 0.27103 0.72910 0.43726
 H2983 H 0.29492 0.70688 0.46535
 H2984 H 0.30657 0.69566 0.44698
 C2985 C 0.32641 0.17394 0.87888
 C2986 C 0.32119 0.17932 0.88827
 C2987 C 0.31487 0.18590 0.89934
 C2988 C 0.31235 0.17888 0.91111
 C2989 C 0.30604 0.18527 0.92178
 C2990 C 0.30215 0.19878 0.92078
 C2991 C 0.30480 0.20575 0.90891
 C2992 C 0.31112 0.19935 0.89828
 C2993 C 0.29526 0.20555 0.93200
 C2994 C 0.28447 0.21432 0.92959
 C2995 C 0.27802 0.22077 0.94012
 C2996 C 0.28226 0.21856 0.95320
 C2997 C 0.29296 0.20983 0.95571
 C2998 C 0.29942 0.20335 0.94519
 C2999 C 0.27563 0.22533 0.96397
 C3000 C 0.26997 0.23112 0.97285
 H3001 H 0.31518 0.16845 0.91202
 H3002 H 0.30400 0.17960 0.93071
 H3003 H 0.30210 0.21620 0.90791
 H3004 H 0.31306 0.20489 0.88922
 H3005 H 0.28090 0.21607 0.91957
 H3006 H 0.26972 0.22747 0.93806
 H3007 H 0.29635 0.20808 0.96580
 H3008 H 0.30780 0.19678 0.94735
 C3009 C 0.82683 0.67423 0.87837
 C3010 C 0.82160 0.67962 0.88775
 C3011 C 0.81526 0.68620 0.89880
 C3012 C 0.81164 0.67890 0.91012
 C3013 C 0.80526 0.68528 0.92075
 C3014 C 0.80240 0.69906 0.92018
 C3015 C 0.80615 0.70632 0.90878
 C3016 C 0.81253 0.69992 0.89818
 C3017 C 0.79542 0.70583 0.93134
 C3018 C 0.78540 0.71545 0.92881
 C3019 C 0.77884 0.72186 0.93930
 C3020 C 0.78218 0.71877 0.95245
 C3021 C 0.79211 0.70921 0.95509
 C3022 C 0.79868 0.70276 0.94461
 C3023 C 0.77544 0.72548 0.96319
 C3024 C 0.76971 0.73122 0.97206
 H3025 H 0.81367 0.66826 0.91069
 H3026 H 0.80236 0.67940 0.92932
 H3027 H 0.80426 0.71696 0.90811
 H3028 H 0.81532 0.70567 0.88947
 H3029 H 0.78252 0.71789 0.91872
 H3030 H 0.77114 0.72922 0.93714
 H3031 H 0.79480 0.70677 0.96524
 H3032 H 0.80645 0.69553 0.94687
 C3033 C 0.82649 0.17404 0.37829
 C3034 C 0.82120 0.17942 0.38764
 C3035 C 0.81478 0.18599 0.39866
 C3036 C 0.81203 0.17892 0.41035
 C3037 C 0.80562 0.18530 0.42096
 C3038 C 0.80184 0.19884 0.41999
 C3039 C 0.80471 0.20586 0.40821
 C3040 C 0.81113 0.19947 0.39762
 C3041 C 0.79485 0.20560 0.43116
 C3042 C 0.78415 0.21446 0.42866
 C3043 C 0.77761 0.22089 0.43914
 C3044 C 0.78166 0.21857 0.45226
 C3045 C 0.79226 0.20975 0.45487
 C3046 C 0.79881 0.20329 0.44439
 C3047 C 0.77495 0.22533 0.46299
 C3048 C 0.76925 0.23112 0.47185
 H3049 H 0.81477 0.16847 0.41124
 H3050 H 0.80340 0.17959 0.42984
 H3051 H 0.80211 0.21633 0.40722
 H3052 H 0.81324 0.20505 0.38863
 H3053 H 0.78074 0.21630 0.41861
 H3054 H 0.76939 0.22767 0.43702
 H3055 H 0.79550 0.20791 0.46498
 H3056 H 0.80711 0.19664 0.44662
 C3057 C 0.67314 0.32701 0.37888
 C3058 C 0.67834 0.32185 0.38842
 C3059 C 0.68470 0.31563 0.39968
 C3060 C 0.67936 0.30388 0.40511
 C3061 C 0.68576 0.29763 0.41582
 C3062 C 0.69762 0.30305 0.42122
 C3063 C 0.70284 0.31492 0.41576
 C3064 C 0.69642 0.32116 0.40506
 C3065 C 0.70464 0.29621 0.43234
 C3066 C 0.71874 0.29525 0.43246
 C3067 C 0.72535 0.28863 0.44280
 C3068 C 0.71798 0.28290 0.45318
 C3069 C 0.70396 0.28385 0.45320
 C3070 C 0.69731 0.29046 0.44285
 C3071 C 0.72484 0.27589 0.46368
 C3072 C 0.73071 0.26997 0.47236
 H3073 H 0.67033 0.29949 0.40098
 H3074 H 0.68159 0.28842 0.41969
 H3075 H 0.71184 0.31943 0.41980
 H3076 H 0.70062 0.33026 0.40094
 H3077 H 0.72465 0.29941 0.42443
 H3078 H 0.73621 0.28790 0.44266
 H3079 H 0.69815 0.27946 0.46119
 H3080 H 0.68646 0.29117 0.44312
 C3081 C 0.67340 0.82684 0.87910
 C3082 C 0.67861 0.82170 0.88864
 C3083 C 0.68499 0.81551 0.89992
 C3084 C 0.67966 0.80379 0.90539
 C3085 C 0.68607 0.79758 0.91611
 C3086 C 0.69792 0.80301 0.92149
 C3087 C 0.70313 0.81487 0.91598
 C3088 C 0.69670 0.82106 0.90527
 C3089 C 0.70496 0.79621 0.93263
 C3090 C 0.71906 0.79527 0.93274
 C3091 C 0.72569 0.78867 0.94309
 C3092 C 0.71833 0.78293 0.95347
 C3093 C 0.70430 0.78387 0.95350
 C3094 C 0.69765 0.79046 0.94315
 C3095 C 0.72520 0.77593 0.96397
 C3096 C 0.73108 0.77000 0.97264
 H3097 H 0.67062 0.79938 0.90129
 H3098 H 0.68190 0.78837 0.92002
 H3099 H 0.71214 0.81939 0.92001
 H3100 H 0.70090 0.83015 0.90112
 H3101 H 0.72497 0.79943 0.92471
 H3102 H 0.73655 0.78796 0.94295
 H3103 H 0.69851 0.77948 0.96150
 H3104 H 0.68680 0.79116 0.94343
 C3105 C 0.17395 0.32682 0.87959
 C3106 C 0.17929 0.32176 0.88910
 C3107 C 0.18579 0.31563 0.90034
 C3108 C 0.19887 0.31939 0.90382
 C3109 C 0.20534 0.31320 0.91451
 C3110 C 0.19881 0.30314 0.92187
 C3111 C 0.18562 0.29952 0.91836
 C3112 C 0.17917 0.30572 0.90765
 C3113 C 0.20582 0.29630 0.93300
 C3114 C 0.19894 0.29313 0.94479
 C3115 C 0.20553 0.28652 0.95517
 C3116 C 0.21907 0.28299 0.95389
 C3117 C 0.22602 0.28614 0.94222
 C3118 C 0.21945 0.29275 0.93184
 C3119 C 0.22585 0.27601 0.96447
 C3120 C 0.23165 0.27009 0.97320
 H3121 H 0.20408 0.32707 0.89824
 H3122 H 0.21543 0.31633 0.91707
 H3123 H 0.18039 0.29170 0.92372
 H3124 H 0.16906 0.30270 0.90501
 H3125 H 0.18849 0.29587 0.94604
 H3126 H 0.20007 0.28415 0.96418
 H3127 H 0.23649 0.28340 0.94111
 H3128 H 0.22498 0.29487 0.92282
 C3129 C 0.17363 0.82712 0.37894
 C3130 C 0.17895 0.82199 0.38842
 C3131 C 0.18542 0.81579 0.39963
 C3132 C 0.19847 0.81955 0.40319
 C3133 C 0.20493 0.81330 0.41385
 C3134 C 0.19840 0.80318 0.42111
 C3135 C 0.18523 0.79954 0.41753
 C3136 C 0.17880 0.80580 0.40685
 C3137 C 0.20538 0.79629 0.43223
 C3138 C 0.19846 0.79305 0.44399
 C3139 C 0.20504 0.78641 0.45436
 C3140 C 0.21860 0.78292 0.45311
 C3141 C 0.22557 0.78613 0.44148
 C3142 C 0.21903 0.79277 0.43111
 C3143 C 0.22535 0.77593 0.46369
 C3144 C 0.23114 0.77001 0.47242
 H3145 H 0.20368 0.82729 0.39768
 H3146 H 0.21500 0.81644 0.41648
 H3147 H 0.18000 0.79167 0.42282
 H3148 H 0.16871 0.80277 0.40415
 H3149 H 0.18800 0.79576 0.44521
 H3150 H 0.19955 0.78399 0.46334
 H3151 H 0.23606 0.78343 0.44039
 H3152 H 0.22458 0.79496 0.42212
 C3153 C 0.67411 0.67381 0.62270
 C3154 C 0.67945 0.67907 0.61330
 C3155 C 0.68594 0.68546 0.60222
 C3156 C 0.69340 0.69715 0.60422
 C3157 C 0.69982 0.70335 0.59352
 C3158 C 0.69886 0.69794 0.58065
 C3159 C 0.69128 0.68621 0.57873
 C3160 C 0.68488 0.68001 0.58946
 C3161 C 0.70576 0.70451 0.56931
 C3162 C 0.69939 0.70561 0.55686
 C3163 C 0.70585 0.71198 0.54626
 C3164 C 0.71874 0.71729 0.54795
 C3165 C 0.72519 0.71616 0.56026
 C3166 C 0.71875 0.70982 0.57087
 C3167 C 0.72533 0.72406 0.53714
 C3168 C 0.73095 0.72985 0.52823
 H3169 H 0.69426 0.70147 0.61405
 H3170 H 0.70541 0.71247 0.59529
 H3171 H 0.69048 0.68172 0.56897
 H3172 H 0.67915 0.67095 0.58781
 H3173 H 0.68933 0.70176 0.55539
 H3174 H 0.70075 0.71283 0.53678
 H3175 H 0.73518 0.72022 0.56167
 H3176 H 0.72399 0.70896 0.58026
 C3177 C 0.67407 0.17345 0.12136
 C3178 C 0.67922 0.17860 0.11181
 C3179 C 0.68546 0.18486 0.10050
 C3180 C 0.69891 0.18215 0.09749
 C3181 C 0.70507 0.18846 0.08669
 C3182 C 0.69785 0.19758 0.07877
 C3183 C 0.68431 0.20016 0.08183
 C3184 C 0.67816 0.19383 0.09263
 C3185 C 0.70449 0.20451 0.06748
 C3186 C 0.70201 0.21816 0.06504
 C3187 C 0.70847 0.22475 0.05458
 C3188 C 0.71747 0.21782 0.04643
 C3189 C 0.71994 0.20423 0.04872
 C3190 C 0.71351 0.19761 0.05918
 C3191 C 0.72432 0.22471 0.03586
 C3192 C 0.73012 0.23058 0.02711
 H3193 H 0.70466 0.17526 0.10355
 H3194 H 0.71556 0.18640 0.08470
 H3195 H 0.67844 0.20699 0.07582
 H3196 H 0.66773 0.19598 0.09486
 H3197 H 0.69528 0.22379 0.07136
 H3198 H 0.70652 0.23529 0.05293
 H3199 H 0.72688 0.19876 0.04246
 H3200 H 0.71550 0.18707 0.06070
 C3201 C 0.17384 0.67330 0.12193
 C3202 C 0.17904 0.67844 0.11239
 C3203 C 0.18532 0.68468 0.10110
 C3204 C 0.17808 0.69371 0.09323
 C3205 C 0.18427 0.70001 0.08245
 C3206 C 0.19780 0.69736 0.07939
 C3207 C 0.20496 0.68819 0.08731
 C3208 C 0.19875 0.68191 0.09809
 C3209 C 0.20449 0.70427 0.06813
 C3210 C 0.21343 0.69731 0.05980
 C3211 C 0.21991 0.70391 0.04935
 C3212 C 0.21754 0.71752 0.04710
 C3213 C 0.20861 0.72451 0.05528
 C3214 C 0.20212 0.71794 0.06572
 C3215 C 0.22443 0.72439 0.03654
 C3216 C 0.23026 0.73023 0.02779
 H3217 H 0.16766 0.69591 0.09546
 H3218 H 0.17844 0.70689 0.07645
 H3219 H 0.21544 0.68607 0.08533
 H3220 H 0.20447 0.67497 0.10415
 H3221 H 0.21534 0.68675 0.06129
 H3222 H 0.22679 0.69840 0.04306
 H3223 H 0.20675 0.73507 0.05366
 H3224 H 0.19544 0.72361 0.07207
 C3225 C 0.17325 0.17246 0.62117
 C3226 C 0.17836 0.17757 0.61158
 C3227 C 0.18455 0.18381 0.60024
 C3228 C 0.19427 0.17691 0.59290
 C3229 C 0.20055 0.18311 0.58210
 C3230 C 0.19717 0.19629 0.57850
 C3231 C 0.18730 0.20310 0.58588
 C3232 C 0.18105 0.19689 0.59668
 C3233 C 0.20406 0.20302 0.56724
 C3234 C 0.19683 0.21124 0.55841
 C3235 C 0.20340 0.21781 0.54800
 C3236 C 0.21726 0.21626 0.54629
 C3237 C 0.22453 0.20803 0.55497
 C3238 C 0.21798 0.20145 0.56537
 C3239 C 0.22410 0.22331 0.53582
 C3240 C 0.22991 0.22931 0.52717
 H3241 H 0.19705 0.16678 0.59556
 H3242 H 0.20798 0.17755 0.57651
 H3243 H 0.18461 0.21331 0.58348
 H3244 H 0.17358 0.20234 0.60233
 H3245 H 0.18608 0.21252 0.55949
 H3246 H 0.19768 0.22414 0.54134
 H3247 H 0.23527 0.20681 0.55377
 H3248 H 0.22385 0.19534 0.57211
   
