data_POSCAR
  _audit_creation_date              2014-09-24
  _audit_creation_method            'ToBaCCo'
  _symmetry_space_group_name_H-M    'P1'
  _symmetry_Int_Tables_number       1
  _symmetry_cell_setting            triclinic
  loop_
  _symmetry_equiv_pos_as_xyz
 x,y,z
_cell_length_a 47.1201
_cell_length_b 46.9548
_cell_length_c 47.0158
_cell_angle_alpha 90.025800
_cell_angle_beta 90.108900
_cell_angle_gamma 90.002700
loop_
  _atom_site_label
  _atom_site_type_symbol
  _atom_site_fract_x
  _atom_site_fract_y
  _atom_site_fract_z
C1 C 0.30074 0.45046 0.91418
 C2 C 0.32538 0.46233 0.92598
 C3 C 0.33751 0.45035 0.95047
 C4 C 0.32482 0.42657 0.96323
 C5 C 0.30018 0.41470 0.95143
 C6 C 0.28811 0.42671 0.92698
 H7 H 0.33561 0.48019 0.91553
 H8 H 0.33464 0.41664 0.98162
 H9 H 0.26960 0.41694 0.91730
 C10 C 0.45020 0.83770 0.45007
 C11 C 0.46215 0.82568 0.42553
 C12 C 0.45024 0.80111 0.41347
 C13 C 0.42645 0.78845 0.42606
 C14 C 0.41445 0.80038 0.45057
 C15 C 0.42638 0.82495 0.46261
 H16 H 0.48007 0.83591 0.41527
 H17 H 0.41669 0.76997 0.41624
 H18 H 0.41652 0.83465 0.48107
 C19 C 0.94904 0.91418 0.80144
 C20 C 0.96123 0.92628 0.82582
 C21 C 0.94904 0.95054 0.83821
 C22 C 0.92472 0.96274 0.82605
 C23 C 0.91253 0.95064 0.80167
 C24 C 0.92476 0.92642 0.78934
 H25 H 0.97954 0.91626 0.83564
 H26 H 0.91471 0.98100 0.83604
 H27 H 0.91483 0.91655 0.77098
 C28 C 0.44991 -0.08641 0.29982
 C29 C 0.46218 -0.07433 0.32415
 C30 C 0.45001 -0.05014 0.33657
 C31 C 0.42567 -0.03791 0.32455
 C32 C 0.41341 -0.04999 0.30020
 C33 C 0.42559 -0.07418 0.28780
 H34 H 0.48047 -0.08434 0.33399
 H35 H 0.41572 -0.01973 0.33469
 H36 H 0.41557 -0.08408 0.26950
 C37 C 0.79971 0.29846 0.33486
 C38 C 0.78781 0.32307 0.32295
 C39 C 0.80042 0.33581 0.29918
 C40 C 0.82487 0.32380 0.28722
 C41 C 0.83680 0.29920 0.29912
 C42 C 0.82416 0.28649 0.32288
 H43 H 0.76945 0.33290 0.33280
 H44 H 0.83515 0.33415 0.26938
 H45 H 0.83393 0.26801 0.33268
 C46 C -0.20003 0.83841 0.80063
 C47 C -0.17552 0.82631 0.78881
 C48 C -0.16362 0.80173 0.80083
 C49 C -0.17634 0.78913 0.82462
 C50 C -0.20085 0.80114 0.83654
 C51 C -0.21271 0.82575 0.82446
 H52 H -0.16517 0.83647 0.77087
 H53 H -0.16660 0.77061 0.83440
 H54 H -0.23118 0.83556 0.83416
 C55 C 0.95071 0.33541 0.45037
 C56 C 0.92704 0.32248 0.46291
 C57 C 0.91534 0.29782 0.45086
 C58 C 0.92743 0.28600 0.42636
 C59 C 0.95109 0.29891 0.41379
 C60 C 0.96278 0.32356 0.42586
 H61 H 0.91710 0.33219 0.48130
 H62 H 0.91778 0.26750 0.41646
 H63 H 0.98053 0.33406 0.41562
 C64 C 0.44937 0.44878 0.83796
 C65 C 0.42516 0.46112 0.82572
 C66 C 0.41293 0.44904 0.80135
 C67 C 0.42501 0.42469 0.78911
 C68 C 0.44921 0.41232 0.80130
 C69 C 0.46142 0.42442 0.82566
 H70 H 0.41527 0.47947 0.83564
 H71 H 0.41506 0.41484 0.77076
 H72 H 0.47967 0.41431 0.83553
 C73 C 0.79849 0.91642 0.95167
 C74 C 0.82306 0.92838 0.96348
 C75 C 0.83567 0.95215 0.95070
 C76 C 0.82358 0.96408 0.92620
 C77 C 0.79900 0.95212 0.91438
 C78 C 0.78641 0.92836 0.92718
 H79 H 0.83298 0.91853 0.98184
 H80 H 0.83387 0.98189 0.91577
 H81 H 0.76798 0.91848 0.91746
 C82 C 0.30028 0.83696 0.29950
 C83 C 0.32477 0.82484 0.28767
 C84 C 0.33665 0.80028 0.29972
 C85 C 0.32393 0.78772 0.32353
 C86 C 0.29946 0.79977 0.33539
 C87 C 0.28760 0.82432 0.32333
 H88 H 0.33514 0.83501 0.26975
 H89 H 0.33365 0.76926 0.33342
 H90 H 0.26918 0.83413 0.33311
 C91 C 0.80056 0.41439 0.45096
 C92 C 0.78843 0.42631 0.42648
 C93 C 0.80089 0.45017 0.41370
 C94 C 0.82544 0.46222 0.42552
 C95 C 0.83764 0.45032 0.45002
 C96 C 0.82510 0.42644 0.46277
 H97 H 0.76998 0.41642 0.41681
 H98 H 0.83553 0.48017 0.41509
 H99 H 0.83497 0.41661 0.48118
 C100 C 0.95020 0.83797 -0.04941
 C101 C 0.92640 0.82525 -0.03683
 C102 C 0.91455 0.80061 -0.04877
 C103 C 0.92659 0.78858 -0.07320
 C104 C 0.95036 0.80123 -0.08581
 C105 C 0.96222 0.82586 -0.07387
 H106 H 0.91647 0.83505 -0.01847
 H107 H 0.91684 0.77007 -0.08299
 H108 H 0.98009 0.83611 -0.08418
 C109 C 0.30036 0.33592 0.79940
 C110 C 0.32481 0.32380 0.78755
 C111 C 0.33659 0.29914 0.79951
 C112 C 0.32379 0.28652 0.82324
 C113 C 0.29934 0.29862 0.83511
 C114 C 0.28759 0.32326 0.82312
 H115 H 0.33520 0.33408 0.76973
 H116 H 0.33343 0.26801 0.83309
 H117 H 0.26923 0.33316 0.83288
 C118 C 0.16521 0.54846 0.54810
 C119 C 0.17703 0.57321 0.53643
 C120 C 0.20110 0.58556 0.54891
 C121 C 0.21345 0.57302 0.57297
 C122 C 0.20165 0.54827 0.58466
 C123 C 0.17759 0.53596 0.57216
 H124 H 0.16688 0.58346 0.51842
 H125 H 0.23147 0.58311 0.58322
 H126 H 0.16783 0.51742 0.58182
 C127 C 0.58576 0.70105 0.04818
 C128 C 0.57320 0.67701 0.03578
 C129 C 0.54856 0.66529 0.04759
 C130 C 0.53634 0.67775 0.07171
 C131 C 0.54885 0.70179 0.08416
 C132 C 0.57351 0.71348 0.07233
 H133 H 0.58321 0.66678 0.01769
 H134 H 0.51786 0.66807 0.08145
 H135 H 0.58375 0.73150 0.08252
 C136 C 0.70123 0.20076 0.66431
 C137 C 0.67723 0.21313 0.67676
 C138 C 0.66556 0.20134 0.70148
 C139 C 0.67804 0.17727 0.71388
 C140 C 0.70207 0.16484 0.70146
 C141 C 0.71371 0.17668 0.67672
 H142 H 0.66699 0.23116 0.66661
 H143 H 0.66834 0.16757 0.73242
 H144 H 0.73171 0.16657 0.66648
 C145 C 1.08396 0.04649 0.20189
 C146 C 1.07183 0.03438 0.17749
 C147 C 1.04770 0.04674 0.16511
 C148 C 1.03559 0.07110 0.17734
 C149 C 1.04771 0.08323 0.20174
 C150 C 1.07182 0.07085 0.21406
 H151 H 1.08188 0.01615 0.16750
 H152 H 1.01754 0.08134 0.16725
 H153 H 1.08183 0.08084 0.23230
 C154 C 0.04821 0.16640 1.04861
 C155 C 0.03598 0.17886 1.07274
 C156 C 0.04851 0.20290 1.08524
 C157 C 0.07322 0.21457 1.07342
 C158 C 0.08546 0.20211 1.04928
 C159 C 0.07288 0.17811 1.03684
 H160 H 0.01747 0.16912 1.08241
 H161 H 0.08354 0.23256 1.08358
 H162 H 0.08290 0.16788 1.01877
 C163 C 0.16485 0.70246 0.70187
 C164 C 0.17655 0.71415 0.67710
 C165 C 0.20059 0.70174 0.66473
 C166 C 0.21305 0.67773 0.67727
 C167 C 0.20139 0.66600 0.70203
 C168 C 0.17734 0.67843 0.71436
 H169 H 0.16633 0.73214 0.66688
 H170 H 0.23107 0.66753 0.66717
 H171 H 0.16770 0.66875 0.73292
 C172 C 1.20249 0.16535 0.20180
 C173 C 1.17854 0.17775 0.21432
 C174 C 1.16606 0.20187 0.20205
 C175 C 1.17768 0.21374 0.17735
 C176 C 1.20163 0.20136 0.16480
 C177 C 1.21409 0.17723 0.17709
 H178 H 1.16890 0.16791 0.23281
 H179 H 1.16742 0.23179 0.16726
 H180 H 1.23200 0.16704 0.16681
 C181 C 0.66425 1.04941 0.54775
 C182 C 0.67672 1.03685 0.57176
 C183 C 0.70081 1.04911 0.58424
 C184 C 0.71262 1.07388 0.57258
 C185 C 0.70024 1.08653 0.54855
 C186 C 0.67609 1.07421 0.53610
 H187 H 0.66706 1.01824 0.58143
 H188 H 0.73073 1.08384 0.58284
 H189 H 0.66594 1.08447 0.51806
 C190 C 0.54756 0.54683 0.16604
 C191 C 0.57195 0.53487 0.17825
 C192 C 0.58410 0.54722 0.20253
 C193 C 0.57170 0.57142 0.21473
 C194 C 0.54732 0.58342 0.20256
 C195 C 0.53520 0.57105 0.17828
 H196 H 0.58214 0.51678 0.16818
 H197 H 0.58170 0.58161 0.23287
 H198 H 0.51697 0.58095 0.16822
 C199 C 0.66544 0.70217 0.20129
 C200 C 0.67805 0.67820 0.21373
 C201 C 0.70206 0.66582 0.20128
 C202 C 0.71358 0.67757 0.17647
 C203 C 0.70101 0.70156 0.16399
 C204 C 0.67699 0.71390 0.17647
 H205 H 0.66851 0.66848 0.23232
 H206 H 0.73157 0.66742 0.16628
 H207 H 0.66666 0.73186 0.16629
 C208 C 0.16407 0.04804 1.04771
 C209 C 0.17591 0.07286 1.03616
 C210 C 0.20003 0.08510 1.04864
 C211 C 0.21244 0.07239 1.07258
 C212 C 0.20066 0.04759 1.08416
 C213 C 0.17655 0.03536 1.07166
 H214 H 0.16578 0.08328 1.01821
 H215 H 0.23051 0.08240 1.08283
 H216 H 0.16687 0.01675 1.08129
 C217 C 0.58556 0.20210 0.54778
 C218 C 0.57323 0.21460 0.57183
 C219 C 0.54851 0.20295 0.58355
 C220 C 0.53601 0.17894 0.57108
 C221 C 0.54832 0.16642 0.54705
 C222 C 0.57303 0.17807 0.53533
 H223 H 0.58351 0.23256 0.58209
 H224 H 0.51752 0.16925 0.58081
 H225 H 0.58315 0.16776 0.51736
 C226 C 0.08395 0.54817 0.70294
 C227 C 0.07151 0.57241 0.71505
 C228 C 0.04719 0.58443 0.70273
 C229 C 0.03522 0.57206 0.67838
 C230 C 0.04762 0.54784 0.66623
 C231 C 0.07193 0.53585 0.67858
 H232 H 0.08140 0.58257 0.73327
 H233 H 0.01703 0.58196 0.66824
 H234 H 0.08213 0.51772 0.66859
 C235 C 0.66541 0.54859 0.04765
 C236 C 0.67715 0.57335 0.03591
 C237 C 0.70122 0.58578 0.04831
 C238 C 0.71365 0.57330 0.07238
 C239 C 0.70194 0.54854 0.08415
 C240 C 0.67787 0.53615 0.07171
 H241 H 0.66695 0.58352 0.01789
 H242 H 0.73168 0.58345 0.08256
 H243 H 0.66819 0.51759 0.08140
 C244 C 0.04851 0.70238 0.58473
 C245 C 0.03596 0.67837 0.57225
 C246 C 0.04824 0.66581 0.54821
 C247 C 0.07302 0.67740 0.53652
 C248 C 0.08562 0.70141 0.54896
 C249 C 0.07330 0.71394 0.57302
 H250 H 0.01737 0.66881 0.58191
 H251 H 0.08307 0.66711 0.51850
 H252 H 0.08355 0.73193 0.58322
 C253 C 0.54734 1.04771 0.66489
 C254 C 0.57154 1.03556 0.67731
 C255 C 0.58364 1.04784 0.70163
 C256 C 0.57139 1.07219 0.71372
 C257 C 0.54716 1.08442 0.70138
 C258 C 0.53509 1.07209 0.67701
 H259 H 0.58167 1.01732 0.66742
 H260 H 0.58141 1.08224 0.73194
 H261 H 0.51695 1.08210 0.66684
 C262 C 0.45055 0.33487 0.95032
 C263 C 0.46259 0.32286 0.92587
 C264 C 0.45078 0.29823 0.91388
 C265 C 0.42704 0.28551 0.92646
 C266 C 0.41498 0.29749 0.95090
 C267 C 0.42680 0.32211 0.96288
 H268 H 0.48041 0.33324 0.91561
 H269 H 0.41730 0.26703 0.91662
 H270 H 0.41688 0.33195 0.98122
 C271 C 0.94957 0.44925 0.33801
 C272 C 0.92536 0.46154 0.32572
 C273 C 0.91324 0.44947 0.30130
 C274 C 0.92541 0.42519 0.28905
 C275 C 0.94959 0.41286 0.30127
 C276 C 0.96171 0.42493 0.32570
 H277 H 0.91539 0.47985 0.33564
 H278 H 0.91553 0.41534 0.27065
 H279 H 0.97995 0.41485 0.33560
 C280 C 0.29982 0.95103 0.41418
 C281 C 0.28702 0.92746 0.42713
 C282 C 0.29891 0.91566 0.45178
 C283 C 0.32351 0.92756 0.46359
 C284 C 0.33634 0.95113 0.45067
 C285 C 0.32443 0.96292 0.42601
 H286 H 0.26856 0.91763 0.41742
 H287 H 0.33328 0.91780 0.48208
 H288 H 0.33487 0.98059 0.41548
 O289 O 0.24795 0.57608 0.71447
 O290 O 0.29777 0.56570 0.71659
 O291 O 0.21396 0.50149 0.67465
 O292 O 0.21383 0.45449 0.68271
 O293 O 0.17426 0.53642 0.74924
 O294 O 0.18508 0.53387 0.79906
 O295 O 0.28692 0.42569 0.75225
 O296 O 0.28181 0.43415 0.70279
 O297 O 0.32445 0.49786 0.78694
 O298 O 0.31417 0.54976 0.78448
 O299 O 0.25277 0.46342 0.82480
 O300 O 0.20126 0.46549 0.81477
 O301 O 0.25298 0.42555 0.78664
 O302 O 0.20102 0.43569 0.78396
 O303 O 0.28674 0.49788 0.82488
 O304 O 0.28391 0.54979 0.81462
 O305 O 0.32435 0.46339 0.75288
 O306 O 0.31491 0.46737 0.70142
 O307 O 0.21396 0.57610 0.74891
 O308 O 0.21693 0.56542 0.79912
 O309 O 0.17419 0.50238 0.71468
 O310 O 0.18516 0.45135 0.71948
 O311 O 0.24776 0.53622 0.67473
 O312 O 0.29782 0.53378 0.68516
 Zr313 Zr 0.26521 0.53473 0.71596
 O314 O 0.29267 0.50979 0.74102
 Zr315 Zr 0.21528 0.48467 0.71612
 O316 O 0.24083 0.45729 0.74082
 Zr317 Zr 0.21563 0.53476 0.76620
 O318 O 0.24077 0.50949 0.79335
 Zr319 Zr 0.28392 0.46645 0.73410
 O320 O 0.25850 0.49136 0.70648
 Zr321 Zr 0.28387 0.51645 0.78428
 O322 O 0.25875 0.54423 0.75927
 Zr323 Zr 0.23415 0.46615 0.78416
 O324 O 0.20621 0.49145 0.75943
 O325 O 0.22229 0.52775 0.72313
 O326 O 0.27724 0.47312 0.77739
 C327 C 0.22815 0.58806 0.72890
 C328 C 0.22806 0.52160 0.66272
 C329 C 0.16226 0.52219 0.72922
 C330 C 0.27328 0.41390 0.77268
 C331 C 0.33604 0.47728 0.77327
 C332 C 0.27308 0.47737 0.83653
 H333 H 0.31254 0.51463 0.73645
 H334 H 0.23619 0.51404 0.81333
 H335 H 0.21015 0.53989 0.71096
 H336 H 0.23656 0.43723 0.73606
 H337 H 0.27252 0.44266 0.68590
 H338 H 0.22521 0.43785 0.68872
 H339 H 0.26722 0.54716 0.82707
 H340 H 0.23558 0.57501 0.79769
 H341 H 0.32717 0.48421 0.70437
 H342 H 0.29674 0.51488 0.67588
 H343 H 0.20329 0.48268 0.82677
 H344 H 0.17601 0.51487 0.79822
 H345 H 0.29714 0.57469 0.73563
 H346 H 0.32646 0.54734 0.76763
 H347 H 0.17455 0.45451 0.73735
 H348 H 0.20383 0.42311 0.76732
 O349 O 0.17418 0.03499 0.24782
 O350 O 0.18471 0.03304 0.29767
 O351 O 0.24849 0.07505 0.21375
 O352 O 0.29520 0.06702 0.21322
 O353 O 0.21346 0.00030 0.17390
 O354 O 0.21630 -0.04963 0.18460
 O355 O 0.32423 -0.00244 0.28661
 O356 O 0.31575 0.04714 0.28131
 O357 O 0.25250 -0.03690 0.32439
 O358 O 0.20094 -0.03514 0.31402
 O359 O 0.28692 -0.07512 0.25219
 O360 O 0.28461 -0.06523 0.20075
 O361 O 0.32441 -0.03681 0.25244
 O362 O 0.31400 -0.03408 0.20028
 O363 O 0.25294 -0.07520 0.28652
 O364 O 0.20102 -0.06528 0.28367
 O365 O 0.28668 -0.00263 0.32423
 O366 O 0.28288 0.04856 0.31464
 O367 O 0.17409 0.00037 0.21382
 O368 O 0.18500 -0.04981 0.21659
 O369 O 0.24728 0.03498 0.17381
 O370 O 0.29824 0.03011 0.18461
 O371 O 0.21388 0.07493 0.24757
 O372 O 0.21641 0.06452 0.29774
 Zr373 Zr 0.21546 0.03366 0.26500
 O374 O 0.24051 0.00869 0.29243
 Zr375 Zr 0.26518 0.03354 0.21489
 O376 O 0.29265 0.00895 0.24040
 Zr377 Zr 0.21540 -0.01673 0.21530
 O378 O 0.24079 -0.04380 0.24041
 Zr379 Zr 0.28363 0.01576 0.28359
 O380 O 0.25862 0.04328 0.25820
 Zr381 Zr 0.23404 -0.03469 0.28363
 O382 O 0.20615 -0.00976 0.25855
 Zr383 Zr 0.28390 -0.03446 0.23366
 O384 O 0.25849 -0.00984 0.20574
 O385 O 0.22228 0.02644 0.22199
 O386 O 0.27716 -0.02764 0.27690
 C387 C 0.16217 0.02039 0.22807
 C388 C 0.22847 0.08698 0.22791
 C389 C 0.22750 0.02041 0.16190
 C390 C 0.33599 -0.02285 0.27285
 C391 C 0.27285 -0.02293 0.33604
 C392 C 0.27331 -0.08685 0.27268
 H393 H 0.23571 0.01331 0.31234
 H394 H 0.23632 -0.06384 0.23581
 H395 H 0.21007 0.03860 0.20990
 H396 H 0.31260 0.01377 0.23609
 H397 H 0.30718 0.06402 0.27205
 H398 H 0.31182 0.06111 0.22465
 H399 H 0.20379 -0.07791 0.26707
 H400 H 0.17567 -0.04856 0.23540
 H401 H 0.26581 0.04600 0.32656
 H402 H 0.23512 0.07404 0.29652
 H403 H 0.26737 -0.07709 0.20261
 H404 H 0.23515 -0.04864 0.17540
 H405 H 0.17578 0.01397 0.29705
 H406 H 0.20297 -0.01797 0.32604
 H407 H 0.29495 0.01230 0.17383
 H408 H 0.32668 -0.01756 0.20326
 O409 O 0.57569 0.71392 0.24807
 O410 O 0.56531 0.71620 0.29802
 O411 O 0.50125 0.67387 0.21419
 O412 O 0.45450 0.68200 0.21376
 O413 O 0.53624 0.74841 0.17407
 O414 O 0.53360 0.79833 0.18456
 O415 O 0.42582 0.75225 0.28671
 O416 O 0.43413 0.70257 0.28188
 O417 O 0.49788 0.78683 0.32426
 O418 O 0.54932 0.78451 0.31413
 O419 O 0.46343 0.82439 0.25191
 O420 O 0.46559 0.81401 0.20035
 O421 O 0.42571 0.78638 0.25233
 O422 O 0.43578 0.78325 0.20035
 O423 O 0.49765 0.82459 0.28614
 O424 O 0.54959 0.81422 0.28332
 O425 O 0.46348 0.75279 0.32434
 O426 O 0.46718 0.70127 0.31515
 O427 O 0.57569 0.74833 0.21389
 O428 O 0.56501 0.79856 0.21655
 O429 O 0.50233 0.71381 0.17408
 O430 O 0.45138 0.71872 0.18495
 O431 O 0.53589 0.67407 0.24809
 O432 O 0.53353 0.68474 0.29817
 Zr433 Zr 0.53446 0.71546 0.26533
 O434 O 0.50960 0.74071 0.29264
 Zr435 Zr 0.48458 0.71543 0.21520
 O436 O 0.45728 0.74030 0.24061
 Zr437 Zr 0.53449 0.76558 0.21538
 O438 O 0.50931 0.79288 0.24033
 Zr439 Zr 0.46639 0.73383 0.28387
 O440 O 0.49122 0.70601 0.25861
 Zr441 Zr 0.51626 0.78398 0.28358
 O442 O 0.54394 0.75879 0.25864
 Zr443 Zr 0.46615 0.78363 0.23359
 O444 O 0.49136 0.75874 0.20582
 O445 O 0.52751 0.72246 0.22228
 O446 O 0.47307 0.77711 0.27687
 C447 C 0.58762 0.72835 0.22821
 C448 C 0.52128 0.66196 0.22843
 C449 C 0.52211 0.72831 0.16212
 C450 C 0.41411 0.77264 0.27282
 C451 C 0.47741 0.77320 0.33598
 C452 C 0.47725 0.83619 0.27226
 H453 H 0.51443 0.73623 0.31259
 H454 H 0.51386 0.81286 0.23561
 H455 H 0.53963 0.71021 0.21023
 H456 H 0.43729 0.73552 0.23633
 H457 H 0.44257 0.68560 0.27267
 H458 H 0.43797 0.68801 0.22523
 H459 H 0.54668 0.82693 0.26680
 H460 H 0.57457 0.79723 0.23528
 H461 H 0.48412 0.70407 0.32727
 H462 H 0.51467 0.67550 0.29715
 H463 H 0.48264 0.82613 0.20243
 H464 H 0.51471 0.79738 0.17535
 H465 H 0.57435 0.73522 0.29725
 H466 H 0.54729 0.76737 0.32617
 H467 H 0.45463 0.73649 0.17410
 H468 H 0.42325 0.76661 0.20326
 O469 O 0.07511 0.71464 0.74845
 O470 O 0.06473 0.71691 0.79842
 O471 O 0.00070 0.67481 0.71446
 O472 O -0.04614 0.68301 0.71424
 O473 O 0.03571 0.74933 0.67450
 O474 O 0.03314 0.79926 0.68506
 O475 O -0.07463 0.75331 0.78731
 O476 O -0.06654 0.70358 0.78215
 O477 O -0.00240 0.78739 0.82484
 O478 O 0.04905 0.78510 0.81450
 O479 O -0.03701 0.82535 0.75273
 O480 O -0.03475 0.81511 0.70099
 O481 O -0.07475 0.78746 0.75295
 O482 O -0.06473 0.78447 0.70098
 O483 O -0.00281 0.82535 0.78697
 O484 O 0.04910 0.81508 0.78392
 O485 O -0.03687 0.75341 0.82484
 O486 O -0.03347 0.70201 0.81543
 O487 O 0.07519 0.74912 0.71433
 O488 O 0.06458 0.79940 0.71708
 O489 O 0.00174 0.71479 0.67448
 O490 O -0.04914 0.71978 0.68529
 O491 O 0.03534 0.67492 0.74837
 O492 O 0.03291 0.68545 0.79847
 Zr493 Zr 0.03390 0.71625 0.76570
 O494 O 0.00909 0.74147 0.79306
 Zr495 Zr -0.01600 0.71640 0.71560
 O496 O -0.04325 0.74130 0.74105
 Zr497 Zr 0.03400 0.76647 0.71585
 O498 O 0.00888 0.79378 0.74088
 Zr499 Zr -0.03415 0.73469 0.78428
 O500 O -0.00936 0.70688 0.75898
 Zr501 Zr 0.01584 0.78476 0.78410
 O502 O 0.04346 0.75958 0.75909
 Zr503 Zr -0.03431 0.78465 0.73418
 O504 O -0.00916 0.75973 0.70634
 O505 O 0.02694 0.72336 0.72268
 O506 O -0.02737 0.77798 0.77742
 C507 C 0.08708 0.72907 0.72860
 C508 C 0.02075 0.66286 0.72866
 C509 C 0.02156 0.72925 0.66254
 C510 C -0.08633 0.77376 0.77349
 C511 C -0.02285 0.77371 0.83654
 C512 C -0.02324 0.83703 0.77320
 H513 H 0.01392 0.73692 0.81299
 H514 H 0.01345 0.81378 0.73623
 H515 H 0.03904 0.71112 0.71060
 H516 H -0.06326 0.73659 0.73678
 H517 H -0.05815 0.68659 0.77292
 H518 H -0.06277 0.68917 0.72548
 H519 H 0.04618 0.82782 0.76742
 H520 H 0.07408 0.79806 0.73582
 H521 H -0.01638 0.70458 0.82740
 H522 H 0.01409 0.67615 0.79735
 H523 H -0.01780 0.82733 0.70325
 H524 H 0.01421 0.79840 0.67594
 H525 H 0.07391 0.73585 0.79758
 H526 H 0.04696 0.76798 0.82656
 H527 H -0.04593 0.73765 0.67460
 H528 H -0.07722 0.76778 0.70379
 O529 O 0.07555 0.03651 0.00184
 O530 O 0.06494 0.03443 -0.04801
 O531 O 0.00150 0.07641 0.03622
 O532 O -0.04532 0.06845 0.03646
 O533 O 0.03631 0.00158 0.07589
 O534 O 0.03382 -0.04823 0.06507
 O535 O -0.07460 -0.00110 -0.03651
 O536 O -0.06600 0.04839 -0.03159
 O537 O -0.00290 -0.03596 -0.07444
 O538 O 0.04871 -0.03378 -0.06440
 O539 O -0.03700 -0.07384 -0.00236
 O540 O -0.03456 -0.06382 0.04921
 O541 O -0.07462 -0.03553 -0.00242
 O542 O -0.06413 -0.03289 0.04959
 O543 O -0.00288 -0.07399 -0.03655
 O544 O 0.04901 -0.06373 -0.03384
 O545 O -0.03721 -0.00182 -0.07425
 O546 O -0.03315 0.04964 -0.06492
 O547 O 0.07571 0.00202 0.03595
 O548 O 0.06500 -0.04826 0.03301
 O549 O 0.00246 0.03624 0.07606
 O550 O -0.04843 0.03163 0.06520
 O551 O 0.03590 0.07633 0.00219
 O552 O 0.03311 0.06589 -0.04801
 Zr553 Zr 0.03425 0.03505 -0.01528
 O554 O 0.00921 0.00997 -0.04266
 Zr555 Zr -0.01535 0.03493 0.03493
 O556 O -0.04282 0.01024 0.00947
 Zr557 Zr 0.03448 -0.01529 0.03444
 O558 O 0.00909 -0.04244 0.00940
 Zr559 Zr -0.03391 0.01697 -0.03376
 O560 O -0.00891 0.04460 -0.00841
 Zr561 Zr 0.01579 -0.03337 -0.03382
 O562 O 0.04367 -0.00833 -0.00882
 Zr563 Zr -0.03403 -0.03316 0.01622
 O564 O -0.00860 -0.00845 0.04406
 O565 O 0.02753 0.02785 0.02776
 O566 O -0.02734 -0.02640 -0.02702
 C567 C 0.08758 0.02205 0.02166
 C568 C 0.02148 0.08834 0.02200
 C569 C 0.02220 0.02159 0.08797
 C570 C -0.08632 -0.02150 -0.02271
 C571 C -0.02344 -0.02222 -0.08600
 C572 C -0.02327 -0.08562 -0.02275
 H573 H 0.01393 0.01453 -0.06260
 H574 H 0.01361 -0.06246 0.01401
 H575 H 0.03971 0.04000 0.03990
 H576 H -0.06277 0.01506 0.01383
 H577 H -0.05742 0.06529 -0.02235
 H578 H -0.06196 0.06249 0.02507
 H579 H 0.04631 -0.07636 -0.01723
 H580 H 0.07446 -0.04681 0.01428
 H581 H -0.01635 0.04676 -0.07715
 H582 H 0.01434 0.07527 -0.04679
 H583 H -0.01749 -0.07589 0.04710
 H584 H 0.01491 -0.04748 0.07417
 H585 H 0.07385 0.01534 -0.04743
 H586 H 0.04652 -0.01668 -0.07649
 H587 H -0.04526 0.01373 0.07588
 H588 H -0.07669 -0.01625 0.04678
 O589 O 0.07528 0.53609 0.50166
 O590 O 0.06472 0.53379 0.45177
 O591 O 0.00110 0.57595 0.53575
 O592 O -0.04580 0.56790 0.53568
 O593 O 0.03595 0.50152 0.57582
 O594 O 0.03358 0.45162 0.56527
 O595 O -0.07461 0.49762 0.46295
 O596 O -0.06636 0.54725 0.46787
 O597 O -0.00271 0.46304 0.42556
 O598 O 0.04891 0.46554 0.43577
 O599 O -0.03678 0.42534 0.49777
 O600 O -0.03459 0.43578 0.54934
 O601 O -0.07460 0.46338 0.49721
 O602 O -0.06446 0.46646 0.54926
 O603 O -0.00260 0.42520 0.46364
 O604 O 0.04919 0.43566 0.46641
 O605 O -0.03707 0.49712 0.42544
 O606 O -0.03336 0.54861 0.43463
 O607 O 0.07544 0.50180 0.53596
 O608 O 0.06487 0.45148 0.53332
 O609 O 0.00194 0.53601 0.57574
 O610 O -0.04887 0.53120 0.56476
 O611 O 0.03559 0.57580 0.50182
 O612 O 0.03283 0.56521 0.45165
 Zr613 Zr 0.03401 0.53447 0.48448
 O614 O 0.00912 0.50918 0.45715
 Zr615 Zr -0.01574 0.53444 0.53454
 O616 O -0.04306 0.50949 0.50912
 Zr617 Zr 0.03426 0.48438 0.53445
 O618 O 0.00905 0.45702 0.50947
 Zr619 Zr -0.03406 0.51603 0.46589
 O620 O -0.00922 0.54389 0.49116
 Zr621 Zr 0.01586 0.46591 0.46622
 O622 O 0.04357 0.49116 0.49119
 Zr623 Zr -0.03412 0.46616 0.51609
 O624 O -0.00888 0.49112 0.54389
 O625 O 0.02718 0.52746 0.52753
 O626 O -0.02732 0.47273 0.47285
 C627 C 0.08730 0.52176 0.52158
 C628 C 0.02113 0.58786 0.52157
 C629 C 0.02173 0.52153 0.58776
 C630 C -0.08627 0.47717 0.47674
 C631 C -0.02321 0.47669 0.41384
 C632 C -0.02294 0.41353 0.47747
 H633 H 0.01389 0.51366 0.43720
 H634 H 0.01365 0.43704 0.51419
 H635 H 0.03932 0.53968 0.53964
 H636 H -0.06305 0.51423 0.51337
 H637 H -0.05790 0.56425 0.47704
 H638 H -0.06248 0.56171 0.52447
 H639 H 0.04654 0.42316 0.48312
 H640 H 0.07438 0.45285 0.51461
 H641 H -0.01643 0.54585 0.42255
 H642 H 0.01404 0.57456 0.45283
 H643 H -0.01752 0.42370 0.54731
 H644 H 0.01466 0.45242 0.57436
 H645 H 0.07373 0.51476 0.45248
 H646 H 0.04659 0.48248 0.42349
 H647 H -0.04577 0.51328 0.57541
 H648 H -0.07705 0.48305 0.54631
 O649 O 0.50220 0.07608 0.53580
 O650 O 0.45239 0.06544 0.53379
 O651 O 0.53628 0.00163 0.57603
 O652 O 0.53666 -0.04539 0.56798
 O653 O 0.57602 0.03666 0.50148
 O654 O 0.56550 0.03365 0.45163
 O655 O 0.46347 -0.07442 0.49783
 O656 O 0.46877 -0.06619 0.54747
 O657 O 0.42602 -0.00215 0.46365
 O658 O 0.43633 0.04947 0.46570
 O659 O 0.49808 -0.03677 0.42576
 O660 O 0.54965 -0.03453 0.43614
 O661 O 0.49769 -0.07460 0.46373
 O662 O 0.54955 -0.06456 0.46675
 O663 O 0.46384 -0.00258 0.42568
 O664 O 0.46676 0.04949 0.43580
 O665 O 0.42602 -0.03653 0.49778
 O666 O 0.43562 -0.03302 0.54906
 O667 O 0.53617 0.07608 0.50134
 O668 O 0.53356 0.06509 0.45124
 O669 O 0.57616 0.00270 0.53608
 O670 O 0.56542 -0.04846 0.53126
 O671 O 0.50249 0.03636 0.57576
 O672 O 0.45251 0.03371 0.56531
 Zr673 Zr 0.48511 0.03465 0.53450
 O674 O 0.45779 0.00958 0.50942
 Zr675 Zr 0.53515 -0.01528 0.53455
 O676 O 0.50972 -0.04280 0.50979
 Zr677 Zr 0.53479 0.03464 0.48433
 O678 O 0.50977 0.00927 0.45717
 Zr679 Zr 0.46658 -0.03375 0.51635
 O680 O 0.49187 -0.00871 0.54403
 Zr681 Zr 0.46667 0.01621 0.46617
 O682 O 0.49165 0.04408 0.49120
 Zr683 Zr 0.51650 -0.03401 0.46647
 O684 O 0.54431 -0.00861 0.49124
 O685 O 0.52804 0.02776 0.52742
 O686 O 0.47335 -0.02711 0.47308
 C687 C 0.52190 0.08808 0.52126
 C688 C 0.52213 0.02178 0.58787
 C689 C 0.58801 0.02259 0.52159
 C690 C 0.47720 -0.08620 0.47743
 C691 C 0.41431 -0.02254 0.47748
 C692 C 0.47767 -0.02299 0.41404
 H693 H 0.43792 0.01442 0.51397
 H694 H 0.51440 0.01380 0.43719
 H695 H 0.54008 0.04003 0.53959
 H696 H 0.51398 -0.06285 0.51456
 H697 H 0.47807 -0.05773 0.56439
 H698 H 0.52540 -0.06211 0.56193
 H699 H 0.48323 0.04659 0.42311
 H700 H 0.51486 0.07460 0.45249
 H701 H 0.42373 -0.01586 0.54652
 H702 H 0.45369 0.01488 0.57471
 H703 H 0.54748 -0.01750 0.42395
 H704 H 0.57472 0.01474 0.45269
 H705 H 0.45313 0.07456 0.51483
 H706 H 0.42431 0.04741 0.48280
 H707 H 0.57605 -0.04528 0.51340
 H708 H 0.54679 -0.07698 0.48350
 O709 O 0.50191 0.57524 0.03565
 O710 O 0.45208 0.56476 0.03349
 O711 O 0.53586 0.50066 0.07559
 O712 O 0.53621 0.45371 0.06746
 O713 O 0.57562 0.53572 0.00102
 O714 O 0.56493 0.53302 -0.04883
 O715 O 0.46324 0.42475 -0.00236
 O716 O 0.46826 0.43319 0.04721
 O717 O 0.42550 0.49710 -0.03673
 O718 O 0.43582 0.54873 -0.03465
 O719 O 0.49736 0.46233 -0.07460
 O720 O 0.54897 0.46481 -0.06453
 O721 O 0.49744 0.42461 -0.03650
 O722 O 0.54923 0.43494 -0.03379
 O723 O 0.46322 0.49661 -0.07470
 O724 O 0.46629 0.54878 -0.06456
 O725 O 0.42562 0.46256 -0.00276
 O726 O 0.43503 0.46622 0.04854
 O727 O 0.53585 0.57529 0.00117
 O728 O 0.53303 0.56451 -0.04898
 O729 O 0.57571 0.50176 0.03562
 O730 O 0.56490 0.45066 0.03075
 O731 O 0.50205 0.53538 0.07545
 O732 O 0.45203 0.53290 0.06492
 Zr733 Zr 0.48469 0.53386 0.03417
 O734 O 0.45734 0.50884 0.00905
 Zr735 Zr 0.53469 0.48389 0.03408
 O736 O 0.50924 0.45644 0.00932
 Zr737 Zr 0.53431 0.53391 -0.01604
 O738 O 0.50927 0.50858 -0.04323
 Zr739 Zr 0.46611 0.46550 0.01594
 O740 O 0.49143 0.49049 0.04363
 Zr741 Zr 0.46616 0.51547 -0.03421
 O742 O 0.49118 0.54332 -0.00914
 Zr743 Zr 0.51601 0.46529 -0.03400
 O744 O 0.54384 0.49065 -0.00921
 O745 O 0.52761 0.52695 0.02705
 O746 O 0.47286 0.47215 -0.02732
 C747 C 0.52166 0.58724 0.02118
 C748 C 0.52171 0.52075 0.08751
 C749 C 0.58760 0.52160 0.02109
 C750 C 0.47707 0.41295 -0.02268
 C751 C 0.41387 0.47658 -0.02303
 C752 C 0.47692 0.47609 -0.08630
 H753 H 0.43746 0.51367 0.01360
 H754 H 0.51386 0.51311 -0.06322
 H755 H 0.53969 0.53914 0.03925
 H756 H 0.51355 0.43639 0.01409
 H757 H 0.47752 0.44172 0.06412
 H758 H 0.52483 0.43706 0.06144
 H759 H 0.48268 0.54580 -0.07732
 H760 H 0.51430 0.57397 -0.04770
 H761 H 0.42308 0.48332 0.04592
 H762 H 0.45315 0.51403 0.07423
 H763 H 0.54669 0.48180 -0.07675
 H764 H 0.57403 0.51404 -0.04795
 H765 H 0.45282 0.57387 0.01452
 H766 H 0.42388 0.54672 -0.01749
 H767 H 0.57562 0.45391 0.01295
 H768 H 0.54656 0.42248 -0.01705
 O769 O 0.75262 0.28548 0.42416
 O770 O 0.70274 0.28364 0.43449
 O771 O 0.78695 0.32493 0.49864
 O772 O 0.78668 0.31685 0.54568
 O773 O 0.82609 0.25021 0.46373
 O774 O 0.81514 0.20030 0.46625
 O775 O 0.71363 0.24744 0.57422
 O776 O 0.71905 0.29704 0.56590
 O777 O 0.67567 0.21359 0.50169
 O778 O 0.68614 0.21550 0.45020
 O779 O 0.74740 0.17473 0.53646
 O780 O 0.79897 0.18451 0.53431
 O781 O 0.74759 0.21295 0.57437
 O782 O 0.79939 0.21518 0.56418
 O783 O 0.71326 0.17500 0.50216
 O784 O 0.71628 0.18527 0.45023
 O785 O 0.67596 0.24762 0.53620
 O786 O 0.68572 0.29862 0.53301
 O787 O 0.78643 0.25076 0.42409
 O788 O 0.78325 0.20048 0.43464
 O789 O 0.82631 0.28472 0.49783
 O790 O 0.81550 0.27985 0.54871
 O791 O 0.75314 0.32513 0.46389
 O792 O 0.70295 0.31511 0.46644
 Zr793 Zr 0.73537 0.28400 0.46541
 O794 O 0.70787 0.25902 0.49025
 Zr795 Zr 0.78528 0.28343 0.51549
 O796 O 0.75970 0.25874 0.54274
 Zr797 Zr 0.78470 0.23336 0.46535
 O798 O 0.75946 0.20626 0.49049
 Zr799 Zr 0.71665 0.26578 0.53357
 O800 O 0.74211 0.29338 0.50876
 Zr801 Zr 0.71641 0.21564 0.48354
 O802 O 0.74160 0.24060 0.45586
 Zr803 Zr 0.76618 0.21533 0.53378
 O804 O 0.79418 0.24001 0.50862
 O805 O 0.77821 0.27650 0.47245
 O806 O 0.72307 0.22238 0.52686
 C807 C 0.77237 0.27095 0.41220
 C808 C 0.77299 0.33696 0.47846
 C809 C 0.83812 0.27021 0.47795
 C810 C 0.72736 0.22700 0.58602
 C811 C 0.66406 0.22752 0.52207
 C812 C 0.72696 0.16316 0.52258
 H813 H 0.68803 0.26377 0.48537
 H814 H 0.76394 0.18623 0.48591
 H815 H 0.79039 0.28861 0.46033
 H816 H 0.76403 0.26344 0.56278
 H817 H 0.72835 0.31393 0.55740
 H818 H 0.77565 0.31066 0.56245
 H819 H 0.73279 0.17256 0.45300
 H820 H 0.76455 0.20197 0.42513
 H821 H 0.67423 0.29659 0.51551
 H822 H 0.70435 0.32461 0.48520
 H823 H 0.79680 0.17248 0.51717
 H824 H 0.82429 0.20114 0.48520
 H825 H 0.70346 0.26471 0.42525
 H826 H 0.67437 0.23282 0.45215
 H827 H 0.82601 0.26188 0.54553
 H828 H 0.79685 0.23197 0.57663
 O829 O 0.82545 0.75294 -0.03622
 O830 O 0.81507 0.70285 -0.03436
 O831 O 0.75141 0.78729 -0.07609
 O832 O 0.70437 0.78652 -0.06842
 O833 O 0.78571 0.82672 -0.00137
 O834 O 0.78320 0.81588 0.04843
 O835 O 0.67557 0.71363 0.00131
 O836 O 0.68403 0.71879 -0.04827
 O837 O 0.74773 0.67594 0.03574
 O838 O 0.79899 0.68622 0.03393
 O839 O 0.71314 0.74818 0.07387
 O840 O 0.71522 0.79987 0.06367
 O841 O 0.67536 0.74783 0.03564
 O842 O 0.68534 0.79980 0.03305
 O843 O 0.74739 0.71401 0.07395
 O844 O 0.79935 0.71703 0.06358
 O845 O 0.71346 0.67591 0.00155
 O846 O 0.71686 0.68537 -0.04949
 O847 O 0.82533 0.78707 -0.00173
 O848 O 0.81469 0.78395 0.04845
 O849 O 0.75177 0.82677 -0.03597
 O850 O 0.70102 0.81567 -0.03157
 O851 O 0.78604 0.75339 -0.07604
 O852 O 0.78324 0.70296 -0.06596
 Zr853 Zr 0.78426 0.73555 -0.03495
 O854 O 0.75941 0.70800 -0.00996
 Zr855 Zr 0.73428 0.78550 -0.03479
 O856 O 0.70701 0.75988 -0.01015
 Zr857 Zr 0.78414 0.78524 0.01549
 O858 O 0.75897 0.76002 0.04252
 Zr859 Zr 0.71618 0.71664 -0.01690
 O860 O 0.74101 0.74214 -0.04449
 Zr861 Zr 0.76597 0.71679 0.03337
 O862 O 0.79365 0.74199 0.00843
 Zr863 Zr 0.71581 0.76665 0.03321
 O864 O 0.74099 0.79466 0.00856
 O865 O 0.77719 0.77856 -0.02761
 O866 O 0.72276 0.72336 0.02644
 C867 C 0.83730 0.77289 -0.02175
 C868 C 0.77164 0.77334 -0.08796
 C869 C 0.77152 0.83873 -0.02138
 C870 C 0.66377 0.72743 0.02168
 C871 C 0.72742 0.66416 0.02185
 C872 C 0.72704 0.72785 0.08564
 H873 H 0.76429 0.68807 -0.01456
 H874 H 0.76350 0.76466 0.06252
 H875 H 0.78932 0.79081 -0.03963
 H876 H 0.68702 0.76413 -0.01495
 H877 H 0.69256 0.72800 -0.06516
 H878 H 0.68760 0.77549 -0.06225
 H879 H 0.79642 0.73348 0.07638
 H880 H 0.82433 0.76528 0.04694
 H881 H 0.73435 0.67395 -0.04736
 H882 H 0.76456 0.70435 -0.07553
 H883 H 0.73220 0.79773 0.07588
 H884 H 0.76431 0.82506 0.04749
 H885 H 0.82416 0.70358 -0.01537
 H886 H 0.79727 0.67454 0.01650
 H887 H 0.70401 0.82625 -0.01360
 H888 H 0.67296 0.79708 0.01626
 O889 O 1.00227 0.17397 0.21332
 O890 O 0.95252 0.18456 0.21521
 O891 O 1.03648 0.24878 0.17394
 O892 O 1.03636 0.29574 0.18220
 O893 O 1.07617 0.21349 0.24832
 O894 O 1.06554 0.21562 0.29812
 O895 O 0.96357 0.32413 0.25236
 O896 O 0.96881 0.31620 0.20263
 O897 O 0.92613 0.25174 0.28598
 O898 O 0.93633 0.20015 0.28363
 O899 O 0.99830 0.28601 0.32432
 O900 O 1.04976 0.28385 0.31408
 O901 O 0.99778 0.32404 0.28663
 O902 O 1.04970 0.31401 0.28361
 O903 O 0.96407 0.25182 0.32410
 O904 O 0.96694 0.19973 0.31346
 O905 O 0.92611 0.28632 0.25205
 O906 O 0.93548 0.28319 0.20093
 O907 O 1.03636 0.17373 0.24778
 O908 O 1.03369 0.18418 0.29797
 O909 O 1.07619 0.24781 0.21406
 O910 O 1.06525 0.29873 0.21904
 O911 O 1.00270 0.21403 0.17374
 O912 O 0.95258 0.21665 0.18402
 Zr913 Zr 0.98520 0.21540 0.21492
 O914 O 0.95788 0.24022 0.24017
 Zr915 Zr 1.03512 0.26543 0.21548
 O916 O 1.00973 0.29270 0.24039
 Zr917 Zr 1.03488 0.21502 0.26524
 O918 O 1.00990 0.24016 0.29256
 Zr919 Zr 0.96662 0.28361 0.23359
 O920 O 0.99187 0.25884 0.20576
 Zr921 Zr 0.96677 0.23332 0.28341
 O922 O 0.99173 0.20565 0.25819
 Zr923 Zr 1.01660 0.28351 0.28364
 O924 O 1.04436 0.25834 0.25873
 O925 O 1.02812 0.22229 0.22220
 O926 O 0.97344 0.27667 0.27684
 C927 C 1.02203 0.16186 0.22776
 C928 C 1.02241 0.22869 0.16188
 C929 C 1.08812 0.22791 0.22848
 C930 C 0.97732 0.33574 0.27291
 C931 C 0.91443 0.27225 0.27227
 C932 C 0.97794 0.27214 0.33593
 H933 H 0.93800 0.23541 0.23554
 H934 H 1.01456 0.23547 0.31251
 H935 H 1.04023 0.21016 0.21002
 H936 H 1.01397 0.31279 0.23578
 H937 H 0.97790 0.30777 0.18561
 H938 H 1.02521 0.31246 0.18842
 H939 H 0.98339 0.20256 0.32624
 H940 H 1.01496 0.17472 0.29660
 H941 H 0.92385 0.26580 0.20309
 H942 H 0.95388 0.23550 0.17468
 H943 H 1.04765 0.26670 0.32610
 H944 H 1.07468 0.23459 0.29740
 H945 H 0.95313 0.17542 0.23417
 H946 H 0.92440 0.20224 0.26643
 H947 H 1.07585 0.29554 0.23696
 H948 H 1.04673 0.32678 0.26715
 O949 O 0.67382 1.03638 0.74774
 O950 O 0.68422 1.03450 0.79763
 O951 O 0.74819 1.07631 0.71376
 O952 O 0.79504 1.06829 0.71384
 O953 O 0.71341 1.00168 0.67396
 O954 O 0.71616 0.95172 0.68466
 O955 O 0.82365 0.99866 0.78726
 O956 O 0.81536 1.04829 0.78175
 O957 O 0.75169 0.96445 0.82464
 O958 O 0.70014 0.96631 0.81398
 O959 O 0.78646 0.92610 0.75276
 O960 O 0.78426 0.93598 0.70115
 O961 O 0.82395 0.96430 0.75308
 O962 O 0.81384 0.96700 0.70089
 O963 O 0.75233 0.92613 0.78693
 O964 O 0.70040 0.93607 0.78369
 O965 O 0.78591 0.99868 0.82462
 O966 O 0.78230 1.04986 0.81495
 O967 O 0.67384 1.00176 0.71374
 O968 O 0.68470 0.95156 0.71651
 O969 O 0.74732 1.03627 0.67399
 O970 O 0.79816 1.03137 0.68500
 O971 O 0.71347 1.07625 0.74745
 O972 O 0.71599 1.06597 0.79771
 Zr973 Zr 0.71506 1.03503 0.76504
 O974 O 0.73994 1.01003 0.79259
 Zr975 Zr 0.76500 1.03482 0.71516
 O976 O 0.79232 1.01016 0.74081
 Zr977 Zr 0.71515 0.98460 0.71536
 O978 O 0.74038 0.95749 0.74062
 Zr979 Zr 0.78312 1.01702 0.78394
 O980 O 0.75826 1.04459 0.75844
 Zr981 Zr 0.73343 0.96665 0.78380
 O982 O 0.70570 0.99162 0.75857
 Zr983 Zr 0.78354 0.96674 0.73408
 O984 O 0.75830 0.99142 0.70603
 O985 O 0.72206 1.02775 0.72208
 O986 O 0.77658 0.97363 0.77726
 C987 C 0.66187 1.02180 0.72795
 C988 C 0.72806 1.08824 0.72777
 C989 C 0.72753 1.02176 0.66201
 C990 C 0.83544 0.97820 0.77359
 C991 C 0.77200 0.97839 0.83637
 C992 C 0.77279 0.91444 0.77325
 H993 H 0.73506 1.01467 0.81248
 H994 H 0.73590 0.93745 0.73603
 H995 H 0.70989 1.03988 0.70992
 H996 H 0.81231 1.01493 0.73660
 H997 H 0.80686 1.06520 0.77247
 H998 H 0.81173 1.06220 0.72507
 H999 H 0.70330 0.92337 0.76716
 H1000 H 0.67534 0.95279 0.73530
 H1001 H 0.76511 1.04742 0.82672
 H1002 H 0.73467 1.07553 0.79644
 H1003 H 0.76711 0.92401 0.70310
 H1004 H 0.73508 0.95265 0.67559
 H1005 H 0.67524 1.01545 0.79699
 H1006 H 0.70222 0.98343 0.82608
 H1007 H 0.79498 1.01347 0.67433
 H1008 H 0.82648 0.98356 0.70387
 O1009 O 0.74854 0.57588 0.21384
 O1010 O 0.79832 0.56542 0.21611
 O1011 O 0.71448 0.50142 0.17396
 O1012 O 0.71470 0.45432 0.18194
 O1013 O 0.67460 0.53611 0.24840
 O1014 O 0.68525 0.53385 0.29820
 O1015 O 0.78721 0.42554 0.25204
 O1016 O 0.78235 0.43391 0.20251
 O1017 O 0.82464 0.49787 0.28668
 O1018 O 0.81436 0.54963 0.28427
 O1019 O 0.75283 0.46328 0.32429
 O1020 O 0.70121 0.46557 0.31397
 O1021 O 0.75305 0.42543 0.28622
 O1022 O 0.70122 0.43555 0.28337
 O1023 O 0.78681 0.49773 0.32447
 O1024 O 0.78384 0.54975 0.31414
 O1025 O 0.82469 0.46332 0.25269
 O1026 O 0.81553 0.46703 0.20129
 O1027 O 0.71435 0.57593 0.24808
 O1028 O 0.71707 0.56534 0.29831
 O1029 O 0.67467 0.50203 0.21389
 O1030 O 0.68568 0.45113 0.21854
 O1031 O 0.74834 0.53610 0.17413
 O1032 O 0.79841 0.53343 0.18471
 Zr1033 Zr 0.76570 0.53452 0.21541
 O1034 O 0.79303 0.50962 0.24065
 Zr1035 Zr 0.71580 0.48447 0.21540
 O1036 O 0.74120 0.45712 0.24029
 Zr1037 Zr 0.71592 0.53461 0.26546
 O1038 O 0.74092 0.50938 0.29277
 Zr1039 Zr 0.78432 0.46626 0.23376
 O1040 O 0.75906 0.49113 0.20595
 Zr1041 Zr 0.78404 0.51634 0.28387
 O1042 O 0.75906 0.54408 0.25868
 Zr1043 Zr 0.73432 0.46605 0.28359
 O1044 O 0.70653 0.49130 0.25867
 O1045 O 0.72276 0.52755 0.22242
 O1046 O 0.77745 0.47299 0.27701
 C1047 C 0.72867 0.58787 0.22816
 C1048 C 0.72861 0.52156 0.16208
 C1049 C 0.66266 0.52179 0.22842
 C1050 C 0.77342 0.41377 0.27239
 C1051 C 0.83630 0.47730 0.27307
 C1052 C 0.77313 0.47719 0.33608
 H1053 H 0.81292 0.51446 0.23617
 H1054 H 0.73625 0.51396 0.31274
 H1055 H 0.71063 0.53970 0.21024
 H1056 H 0.73695 0.43706 0.23553
 H1057 H 0.77320 0.44241 0.18553
 H1058 H 0.72588 0.43760 0.18812
 H1059 H 0.76726 0.54695 0.32670
 H1060 H 0.73576 0.57489 0.29699
 H1061 H 0.82753 0.48409 0.20403
 H1062 H 0.79723 0.51457 0.17536
 H1063 H 0.70348 0.48253 0.32624
 H1064 H 0.67629 0.51479 0.29749
 H1065 H 0.79761 0.57448 0.23511
 H1066 H 0.82658 0.54736 0.26734
 H1067 H 0.67510 0.45415 0.23646
 H1068 H 0.70399 0.42305 0.26666
 O1069 O 0.57570 0.21308 0.74779
 O1070 O 0.56519 0.21481 0.79769
 O1071 O 0.50149 0.17346 0.71311
 O1072 O 0.45466 0.18150 0.71297
 O1073 O 0.53631 0.24854 0.67400
 O1074 O 0.53394 0.29823 0.68505
 O1075 O 0.42580 0.25112 0.78643
 O1076 O 0.43405 0.20147 0.78104
 O1077 O 0.49793 0.28509 0.82451
 O1078 O 0.54919 0.28323 0.81443
 O1079 O 0.46332 0.32356 0.75254
 O1080 O 0.46581 0.31373 0.70077
 O1081 O 0.42572 0.28553 0.75233
 O1082 O 0.43594 0.28302 0.70039
 O1083 O 0.49741 0.32340 0.78689
 O1084 O 0.54954 0.31311 0.78378
 O1085 O 0.46350 0.25107 0.82416
 O1086 O 0.46697 0.19981 0.81442
 O1087 O 0.57581 0.24782 0.71394
 O1088 O 0.56517 0.29808 0.71718
 O1089 O 0.50239 0.21394 0.67357
 O1090 O 0.45153 0.21850 0.68441
 O1091 O 0.53600 0.17328 0.74715
 O1092 O 0.53333 0.18340 0.79741
 Zr1093 Zr 0.53444 0.21446 0.76489
 O1094 O 0.50954 0.23947 0.79237
 Zr1095 Zr 0.48468 0.21498 0.71469
 O1096 O 0.45733 0.23961 0.74025
 Zr1097 Zr 0.53462 0.26514 0.71552
 O1098 O 0.50935 0.29222 0.74064
 Zr1099 Zr 0.46634 0.23267 0.78346
 O1100 O 0.49121 0.20508 0.75799
 Zr1101 Zr 0.51620 0.28286 0.78380
 O1102 O 0.54395 0.25787 0.75872
 Zr1103 Zr 0.46622 0.28302 0.73373
 O1104 O 0.49150 0.25839 0.70580
 O1105 O 0.52760 0.22195 0.72191
 O1106 O 0.47303 0.27604 0.77694
 C1107 C 0.58770 0.22769 0.72810
 C1108 C 0.52150 0.16139 0.72726
 C1109 C 0.52213 0.22863 0.66180
 C1110 C 0.41409 0.27161 0.77268
 C1111 C 0.47749 0.27128 0.83606
 C1112 C 0.47700 0.33514 0.77312
 H1113 H 0.51435 0.23477 0.81228
 H1114 H 0.51389 0.31226 0.73616
 H1115 H 0.53974 0.20986 0.70972
 H1116 H 0.43735 0.23488 0.73588
 H1117 H 0.44252 0.18457 0.77173
 H1118 H 0.43804 0.18746 0.72431
 H1119 H 0.54641 0.32621 0.76761
 H1120 H 0.57466 0.29653 0.73591
 H1121 H 0.48412 0.20221 0.82632
 H1122 H 0.51457 0.17400 0.79605
 H1123 H 0.48267 0.32604 0.70323
 H1124 H 0.51498 0.29761 0.67597
 H1125 H 0.57429 0.23380 0.79712
 H1126 H 0.54744 0.26574 0.82601
 H1127 H 0.45467 0.23647 0.67386
 H1128 H 0.42341 0.26634 0.70307
 O1129 O 0.25193 0.78660 0.42460
 O1130 O 0.20204 0.78418 0.43485
 O1131 O 0.28564 0.82633 0.49927
 O1132 O 0.28580 0.81816 0.54620
 O1133 O 0.32563 0.75209 0.46408
 O1134 O 0.31520 0.70201 0.46680
 O1135 O 0.21311 0.74825 0.57466
 O1136 O 0.21803 0.79784 0.56631
 O1137 O 0.17556 0.71381 0.50228
 O1138 O 0.18599 0.71606 0.45064
 O1139 O 0.24774 0.67577 0.53682
 O1140 O 0.29899 0.68597 0.53501
 O1141 O 0.24730 0.71400 0.57483
 O1142 O 0.29925 0.71689 0.56463
 O1143 O 0.21364 0.67569 0.50247
 O1144 O 0.21633 0.68603 0.45068
 O1145 O 0.17551 0.74789 0.53673
 O1146 O 0.18483 0.79917 0.53327
 O1147 O 0.28602 0.75216 0.42456
 O1148 O 0.28330 0.70184 0.43515
 O1149 O 0.32553 0.78662 0.49816
 O1150 O 0.31475 0.78137 0.54918
 O1151 O 0.25190 0.82621 0.46445
 O1152 O 0.20184 0.81565 0.46680
 Zr1153 Zr 0.23459 0.78489 0.46585
 O1154 O 0.20728 0.75969 0.49068
 Zr1155 Zr 0.28452 0.78479 0.51595
 O1156 O 0.25911 0.75992 0.54320
 Zr1157 Zr 0.28443 0.73476 0.46582
 O1158 O 0.25941 0.70746 0.49096
 Zr1159 Zr 0.21599 0.76655 0.53400
 O1160 O 0.24125 0.79433 0.50920
 Zr1161 Zr 0.21625 0.71639 0.48399
 O1162 O 0.24126 0.74156 0.45630
 Zr1163 Zr 0.26601 0.71658 0.53427
 O1164 O 0.29384 0.74147 0.50910
 O1165 O 0.27751 0.77783 0.47292
 O1166 O 0.22284 0.72320 0.52731
 C1167 C 0.27183 0.77225 0.41266
 C1168 C 0.27156 0.83823 0.47911
 C1169 C 0.33747 0.77227 0.47823
 C1170 C 0.22695 0.72790 0.58646
 C1171 C 0.16382 0.72760 0.52269
 C1172 C 0.22748 0.66397 0.52286
 H1173 H 0.18740 0.76423 0.48580
 H1174 H 0.26410 0.68748 0.48637
 H1175 H 0.28954 0.79009 0.46081
 H1176 H 0.26337 0.76467 0.56325
 H1177 H 0.22728 0.81477 0.55785
 H1178 H 0.27461 0.81197 0.56287
 H1179 H 0.23314 0.67368 0.45325
 H1180 H 0.26464 0.70321 0.42555
 H1181 H 0.17302 0.79668 0.51605
 H1182 H 0.20301 0.82506 0.48561
 H1183 H 0.29733 0.67431 0.51756
 H1184 H 0.32447 0.70310 0.48568
 H1185 H 0.20292 0.76521 0.42568
 H1186 H 0.17388 0.73312 0.45277
 H1187 H 0.32559 0.76362 0.54582
 H1188 H 0.29636 0.73350 0.57725
 O1189 O 0.25197 0.28585 0.92439
 O1190 O 0.20209 0.28401 0.93487
 O1191 O 0.28650 0.32524 0.99882
 O1192 O 0.28648 0.31716 1.04580
 O1193 O 0.32548 0.25043 0.96377
 O1194 O 0.31441 0.20053 0.96626
 O1195 O 0.21352 0.24793 1.07464
 O1196 O 0.21885 0.29753 1.06618
 O1197 O 0.17519 0.21393 1.00238
 O1198 O 0.18532 0.21597 0.95078
 O1199 O 0.24710 0.17509 1.03661
 O1200 O 0.29859 0.18486 1.03439
 O1201 O 0.24737 0.21333 1.07460
 O1202 O 0.29912 0.21552 1.06425
 O1203 O 0.21287 0.17536 1.00241
 O1204 O 0.21546 0.18577 0.95054
 O1205 O 0.17564 0.24798 1.03685
 O1206 O 0.18534 0.29900 1.03349
 O1207 O 0.28574 0.25109 0.92425
 O1208 O 0.28247 0.20084 0.93474
 O1209 O 0.32586 0.28496 0.99784
 O1210 O 0.31518 0.28014 1.04876
 O1211 O 0.25258 0.32550 0.96419
 O1212 O 0.20240 0.31550 0.96680
 Zr1213 Zr 0.23480 0.28438 0.96570
 O1214 O 0.20735 0.25944 0.99066
 Zr1215 Zr 0.28488 0.28375 1.01562
 O1216 O 0.25938 0.25910 1.04296
 Zr1217 Zr 0.28407 0.23368 0.96548
 O1218 O 0.25889 0.20664 0.99070
 Zr1219 Zr 0.21630 0.26619 1.03395
 O1220 O 0.24170 0.29374 1.00903
 Zr1221 Zr 0.21581 0.21605 0.98392
 O1222 O 0.24094 0.24097 0.95614
 Zr1223 Zr 0.26581 0.21569 1.03396
 O1224 O 0.29374 0.24033 1.00870
 O1225 O 0.27767 0.27684 0.97260
 O1226 O 0.22267 0.22277 1.02722
 C1227 C 0.27169 0.27131 0.91239
 C1228 C 0.27246 0.33731 0.97872
 C1229 C 0.33760 0.27040 0.97796
 C1230 C 0.22726 0.22746 1.08636
 C1231 C 0.16369 0.22784 1.02283
 C1232 C 0.22669 0.16349 1.02272
 H1233 H 0.18749 0.26420 0.98587
 H1234 H 0.26335 0.18661 0.98607
 H1235 H 0.28983 0.28894 0.96046
 H1236 H 0.26380 0.26381 1.06297
 H1237 H 0.22809 0.31440 1.05760
 H1238 H 0.27540 0.31104 1.06256
 H1239 H 0.23207 0.17315 0.95310
 H1240 H 0.26377 0.20240 0.92525
 H1241 H 0.17373 0.29692 1.01608
 H1242 H 0.20378 0.32491 0.98560
 H1243 H 0.29642 0.17291 1.01720
 H1244 H 0.32372 0.20141 0.98513
 H1245 H 0.20274 0.26505 0.92568
 H1246 H 0.17355 0.23328 0.95283
 H1247 H 0.32569 0.26217 1.04554
 H1248 H 0.29662 0.23229 1.07672
 C1249 C 0.29000 0.36283 0.78903
 C1250 C 0.28198 0.38589 0.78115
 C1251 C 0.29034 -0.13768 0.28952
 C1252 C 0.28217 -0.11474 0.28141
 C1253 C 0.78995 0.86372 0.79052
 C1254 C 0.78171 0.88661 0.78222
 C1255 C 0.46048 0.88700 0.28904
 C1256 C 0.46856 0.86409 0.28089
 C1257 C -0.04024 0.88767 0.79051
 C1258 C -0.03205 0.86485 0.78212
 C1259 C -0.04001 -0.13659 -0.03949
 C1260 C -0.03199 -0.11357 -0.03141
 C1261 C -0.03920 0.36235 0.46092
 C1262 C -0.03142 0.38546 0.46894
 C1263 C 0.46015 -0.13698 0.46023
 C1264 C 0.46832 -0.11407 0.46854
 C1265 C 0.46074 0.36180 -0.03921
 C1266 C 0.46856 0.38490 -0.03121
 C1267 C 0.78971 0.38797 0.46202
 C1268 C 0.78152 0.36508 0.47020
 C1269 C 0.78774 0.88993 -0.03746
 C1270 C 0.77974 0.86694 -0.02945
 C1271 C 0.78883 0.28747 0.36124
 C1272 C 0.78072 0.27929 0.38411
 C1273 C 0.78861 0.79062 -0.13859
 C1274 C 0.78021 0.78213 -0.11589
 C1275 C 0.29006 0.46083 0.88742
 C1276 C 0.28186 0.46876 0.86445
 C1277 C 0.28941 -0.03890 0.38722
 C1278 C 0.28142 -0.03124 0.36410
 C1279 C -0.04075 -0.03935 -0.13661
 C1280 C -0.03240 -0.03109 -0.11379
 C1281 C -0.04029 0.45937 0.36321
 C1282 C -0.03203 0.46769 0.38604
 C1283 C 0.46076 -0.03967 0.36323
 C1284 C 0.46897 -0.03167 0.38616
 C1285 C 0.45962 0.45888 -0.13687
 C1286 C 0.46799 0.46715 -0.11407
 C1287 C 0.46074 0.79044 0.38675
 C1288 C 0.46877 0.78216 0.36384
 C1289 C -0.03924 0.79063 0.88745
 C1290 C -0.03133 0.78247 0.86448
 C1291 C 0.36336 0.78960 0.28940
 C1292 C 0.38626 0.78140 0.28146
 C1293 C -0.13696 0.79096 0.79037
 C1294 C -0.11412 0.78266 0.78229
 C1295 C 0.88902 0.28668 0.46160
 C1296 C 0.86618 0.27845 0.46962
 C1297 C 0.88819 0.78961 -0.03795
 C1298 C 0.86535 0.78136 -0.02994
 C1299 C -0.13742 -0.03761 -0.03906
 C1300 C -0.11433 -0.02984 -0.03119
 C1301 C -0.13703 0.46030 0.45988
 C1302 C -0.11411 0.46843 0.46798
 C1303 C 0.36325 -0.03868 0.46100
 C1304 C 0.38632 -0.03093 0.46894
 C1305 C 0.36295 0.46010 -0.03972
 C1306 C 0.38595 0.46803 -0.03168
 C1307 C 0.38649 0.45998 0.79053
 C1308 C 0.36376 0.46836 0.78222
 C1309 C 0.38676 -0.03939 0.28969
 C1310 C 0.36385 -0.03137 0.28159
 C1311 C 0.11082 0.53796 0.71345
 C1312 C 0.13398 0.53026 0.72124
 C1313 C 0.11074 0.03605 0.21232
 C1314 C 0.13388 0.02831 0.22008
 C1315 C 0.63882 0.71258 0.21203
 C1316 C 0.61580 0.72031 0.22005
 C1317 C 0.13824 0.71303 0.71251
 C1318 C 0.11524 0.72091 0.72045
 C1319 C 0.61267 0.21196 0.53781
 C1320 C 0.63591 0.21945 0.53022
 C1321 C 0.61271 0.71113 0.03792
 C1322 C 0.63579 0.71889 0.03006
 C1323 C 0.13880 0.03811 0.03769
 C1324 C 0.11577 0.03019 0.02977
 C1325 C 0.13855 0.53788 0.53750
 C1326 C 0.11550 0.52995 0.52965
 C1327 C 0.63905 0.03928 0.53770
 C1328 C 0.61611 0.03109 0.52976
 C1329 C 0.63877 0.53791 0.03707
 C1330 C 0.61576 0.52990 0.02920
 C1331 C 0.03802 0.03706 0.13955
 C1332 C 0.03028 0.02942 0.11632
 C1333 C 0.03742 0.53735 0.63930
 C1334 C 0.02975 0.52956 0.61609
 C1335 C 0.53770 0.03778 0.63940
 C1336 C 0.53007 0.02986 0.61621
 C1337 C 0.53730 0.53639 0.13913
 C1338 C 0.52965 0.52866 0.11590
 C1339 C 0.21212 0.53756 0.61136
 C1340 C 0.21994 0.52964 0.63445
 C1341 C 0.21123 0.03667 0.11073
 C1342 C 0.21917 0.02858 0.13373
 C1343 C 0.71124 0.21092 0.63726
 C1344 C 0.71893 0.21867 0.61409
 C1345 C 0.71098 0.71169 0.13690
 C1346 C 0.71867 0.71944 0.11372
 C1347 C 0.53829 0.71236 0.11085
 C1348 C 0.53033 0.72020 0.13392
 C1349 C 0.03786 0.71309 0.61135
 C1350 C 0.02984 0.72105 0.63436
 C1351 C 0.53686 0.61031 0.21285
 C1352 C 0.52915 0.63355 0.22052
 C1353 C 0.03659 0.61129 0.71300
 C1354 C 0.02872 0.63449 0.72067
 C1355 C 0.03750 0.13972 0.03804
 C1356 C 0.02957 0.11662 0.03014
 C1357 C 0.03738 0.63918 0.53762
 C1358 C 0.02931 0.61612 0.52973
 C1359 C 0.53772 0.13964 0.53671
 C1360 C 0.52987 0.11645 0.52909
 C1361 C 0.53781 0.63861 0.03707
 C1362 C 0.52982 0.61552 0.02924
 C1363 C 0.71008 0.11209 0.53894
 C1364 C 0.71817 0.13516 0.53110
 C1365 C 0.71135 0.61284 0.03812
 C1366 C 0.71907 0.63603 0.03029
 C1367 C 0.21201 0.63936 0.71276
 C1368 C 0.21995 0.61630 0.72074
 C1369 C 0.21292 0.13853 0.21220
 C1370 C 0.22061 0.11534 0.21995
 C1371 C 0.71208 1.13955 0.71150
 C1372 C 0.71999 1.11649 0.71951
 C1373 C 0.71270 0.63918 0.21197
 C1374 C 0.72058 0.61612 0.21996
 C1375 C 0.53730 0.10990 0.71116
 C1376 C 0.52948 0.13307 0.71902
 C1377 C 1.03749 0.11020 0.21206
 C1378 C 1.02989 0.13346 0.21976
 C1379 C 0.21130 0.61264 0.53888
 C1380 C 0.21910 0.63584 0.53121
 C1381 C 0.21028 0.11220 1.03869
 C1382 C 0.21815 0.13539 1.03105
 C1383 C 0.21071 0.71182 0.63768
 C1384 C 0.21850 0.71953 0.61453
 C1385 C 0.21148 0.21150 1.13771
 C1386 C 0.21902 0.21921 1.11449
 C1387 C 0.71254 0.53778 0.11080
 C1388 C 0.72044 0.52975 0.13384
 C1389 C 0.71139 1.03818 0.61082
 C1390 C 0.71929 1.03002 0.63382
 C1391 C 0.53807 0.21335 0.61032
 C1392 C 0.53023 0.22093 0.63348
 C1393 C 1.03858 0.21287 0.11056
 C1394 C 1.03063 0.22072 0.13362
 C1395 C 0.63893 0.21184 0.71211
 C1396 C 0.61589 0.21965 0.72001
 C1397 C 1.13941 0.21223 0.21267
 C1398 C 1.11634 0.21993 0.22051
 C1399 C 0.11265 0.71142 0.53880
 C1400 C 0.13579 0.71913 0.53102
 C1401 C 0.11247 0.21209 1.03909
 C1402 C 0.13562 0.21966 1.03127
 C1403 C 0.61107 0.53715 0.21284
 C1404 C 0.63432 0.52964 0.22051
 C1405 C 0.61045 1.03748 0.71211
 C1406 C 0.63359 1.02974 0.71988
 C1407 C 0.88678 0.46029 0.29044
 C1408 C 0.86403 0.46852 0.28207
 C1409 C 0.88600 0.96136 0.79092
 C1410 C 0.86320 0.96951 0.78260
 C1411 C 0.36330 0.28846 0.78923
 C1412 C 0.38623 0.28029 0.78132
 C1413 C 0.86355 0.28874 0.28877
 C1414 C 0.88652 0.28076 0.28084
 C1415 C 0.38817 0.78924 0.46153
 C1416 C 0.36542 0.78087 0.46974
 C1417 C 0.38858 0.28656 0.96162
 C1418 C 0.36569 0.27849 0.96964
 C1419 C 0.79013 0.46054 0.38695
 C1420 C 0.78189 0.46851 0.36400
 C1421 C 0.78850 0.96230 0.88751
 C1422 C 0.78050 0.97003 0.86442
 C1423 C 0.28845 0.78885 0.36176
 C1424 C 0.28022 0.78067 0.38460
 C1425 C 0.28830 0.28773 0.86146
 C1426 C 0.28007 0.27963 0.88431
 C1427 C 0.46113 0.28777 0.88708
 C1428 C 0.46900 0.27978 0.86405
 C1429 C 0.96150 0.28858 0.38695
 C1430 C 0.96942 0.28065 0.36392
 C1431 C 0.45989 0.38575 0.79043
 C1432 C 0.46813 0.36293 0.78210
 C1433 C 0.96029 0.38632 0.29035
 C1434 C 0.96847 0.36351 0.28193
 C1435 C 0.28796 0.88932 0.46281
 C1436 C 0.27983 0.86641 0.47094
 C1437 C 0.28922 0.38831 0.96241
 C1438 C 0.28098 0.36542 0.97052
 C1439 C 0.79001 0.36270 0.28886
 C1440 C 0.78203 0.38576 0.28093
   
