data_POSCAR
  _audit_creation_date              2014-09-24
  _audit_creation_method            'ToBaCCo'
  _symmetry_space_group_name_H-M    'P1'
  _symmetry_Int_Tables_number       1
  _symmetry_cell_setting            triclinic
  loop_
  _symmetry_equiv_pos_as_xyz
 x,y,z
_cell_length_a 80.5667
_cell_length_b 80.5755
_cell_length_c 80.6426
_cell_angle_alpha 90.014500
_cell_angle_beta 89.985000
_cell_angle_gamma 89.895300
loop_
  _atom_site_label
  _atom_site_type_symbol
  _atom_site_fract_x
  _atom_site_fract_y
  _atom_site_fract_z
C1 C 0.35800 0.33357 0.34606
 C2 C 0.34570 0.33360 0.35836
 C3 C 0.33353 0.34577 0.35837
 C4 C 0.33352 0.35808 0.34607
 C5 C 0.34568 0.35806 0.33391
 C6 C 0.35799 0.34573 0.33391
 C7 C 0.37091 0.32290 0.34260
 N8 N 0.37863 0.32836 0.32872
 C9 C 0.37090 0.34225 0.32325
 C10 C 0.34222 0.37096 0.32326
 N11 N 0.32833 0.37870 0.32874
 C12 C 0.32285 0.37100 0.34262
 C13 C 0.32287 0.34233 0.37127
 N14 N 0.32836 0.32844 0.37898
 C15 C 0.34224 0.32295 0.37126
 H16 H 0.37426 0.31182 0.34944
 H17 H 0.37423 0.34909 0.31219
 H18 H 0.34906 0.37429 0.31220
 H19 H 0.31178 0.37435 0.34946
 H20 H 0.31180 0.34920 0.37461
 H21 H 0.34910 0.31187 0.37459
 C22 C 0.35825 0.83369 -0.15454
 C23 C 0.34594 0.83370 -0.14225
 C24 C 0.33376 0.84587 -0.14225
 C25 C 0.33375 0.85818 -0.15454
 C26 C 0.34592 0.85817 -0.16670
 C27 C 0.35824 0.84585 -0.16669
 C28 C 0.37118 0.82302 -0.15798
 N29 N 0.37890 0.82851 -0.17185
 C30 C 0.37116 0.84239 -0.17734
 C31 C 0.34246 0.87107 -0.17735
 N32 N 0.32856 0.87880 -0.17186
 C33 C 0.32307 0.87109 -0.15799
 C34 C 0.32310 0.84243 -0.12935
 N35 N 0.32859 0.82854 -0.12163
 C36 C 0.34249 0.82305 -0.12935
 H37 H 0.37452 0.81195 -0.15112
 H38 H 0.37449 0.84925 -0.18841
 H39 H 0.34932 0.87440 -0.18841
 H40 H 0.31199 0.87442 -0.15114
 H41 H 0.31202 0.84929 -0.12602
 H42 H 0.34935 0.81198 -0.12601
 C43 C 0.85812 0.33379 -0.15449
 C44 C 0.84581 0.33380 -0.14220
 C45 C 0.83365 0.34598 -0.14218
 C46 C 0.83364 0.35830 -0.15447
 C47 C 0.84581 0.35829 -0.16662
 C48 C 0.85812 0.34597 -0.16664
 C49 C 0.87104 0.32311 -0.15795
 N50 N 0.87876 0.32861 -0.17182
 C51 C 0.87104 0.34250 -0.17730
 C52 C 0.84235 0.37121 -0.17726
 N53 N 0.82847 0.37895 -0.17176
 C54 C 0.82297 0.37123 -0.15790
 C55 C 0.82299 0.34253 -0.12929
 N56 N 0.82848 0.32864 -0.12158
 C57 C 0.84236 0.32315 -0.12931
 H58 H 0.87437 0.31203 -0.15110
 H59 H 0.87436 0.34937 -0.18835
 H60 H 0.84922 0.37454 -0.18832
 H61 H 0.81190 0.37457 -0.15104
 H62 H 0.81192 0.34940 -0.12594
 H63 H 0.84922 0.31207 -0.12598
 C64 C 0.85834 0.83391 0.34591
 C65 C 0.84604 0.83392 0.35821
 C66 C 0.83385 0.84608 0.35821
 C67 C 0.83381 0.85837 0.34591
 C68 C 0.84597 0.85837 0.33375
 C69 C 0.85831 0.84607 0.33375
 C70 C 0.87127 0.82325 0.34246
 N71 N 0.87897 0.82873 0.32858
 C72 C 0.87122 0.84261 0.32308
 C73 C 0.84249 0.87126 0.32308
 N74 N 0.82859 0.87898 0.32858
 C75 C 0.82311 0.87127 0.34246
 C76 C 0.82320 0.84263 0.37112
 N77 N 0.82872 0.82876 0.37884
 C78 C 0.84261 0.82328 0.37112
 H79 H 0.87463 0.81219 0.34932
 H80 H 0.87453 0.84946 0.31202
 H81 H 0.84934 0.87458 0.31201
 H82 H 0.81204 0.87460 0.34932
 H83 H 0.81212 0.84948 0.37446
 H84 H 0.84949 0.81221 0.37446
 C85 C 0.64195 0.66646 0.34606
 C86 C 0.65425 0.66645 0.35836
 C87 C 0.66640 0.65425 0.35838
 C88 C 0.66640 0.64193 0.34610
 C89 C 0.65424 0.64194 0.33395
 C90 C 0.64195 0.65428 0.33393
 C91 C 0.62905 0.67715 0.34259
 N92 N 0.62134 0.67168 0.32872
 C93 C 0.62905 0.65776 0.32326
 C94 C 0.65770 0.62902 0.32331
 N95 N 0.67157 0.62127 0.32880
 C96 C 0.67705 0.62899 0.34266
 C97 C 0.67705 0.65770 0.37128
 N98 N 0.67158 0.67161 0.37898
 C99 C 0.65771 0.67712 0.37125
 H100 H 0.62572 0.68825 0.34941
 H101 H 0.62571 0.65090 0.31221
 H102 H 0.65085 0.62568 0.31225
 H103 H 0.68812 0.62563 0.34951
 H104 H 0.68812 0.65083 0.37463
 H105 H 0.65086 0.68821 0.37457
 C106 C 0.64165 0.16628 -0.15445
 C107 C 0.65397 0.16628 -0.14216
 C108 C 0.66614 0.15411 -0.14217
 C109 C 0.66616 0.14180 -0.15445
 C110 C 0.65399 0.14179 -0.16660
 C111 C 0.64167 0.15410 -0.16660
 C112 C 0.62873 0.17694 -0.15790
 N113 N 0.62101 0.17144 -0.17176
 C114 C 0.62875 0.15755 -0.17725
 C115 C 0.65746 0.12887 -0.17725
 N116 N 0.67136 0.12115 -0.17177
 C117 C 0.67684 0.12888 -0.15790
 C118 C 0.67680 0.15757 -0.12927
 N119 N 0.67130 0.17146 -0.12156
 C120 C 0.65741 0.17694 -0.12927
 H121 H 0.62538 0.18802 -0.15104
 H122 H 0.62542 0.15068 -0.18831
 H123 H 0.65060 0.12554 -0.18831
 H124 H 0.68792 0.12556 -0.15104
 H125 H 0.68788 0.15071 -0.12594
 H126 H 0.65054 0.18802 -0.12593
 C127 C 0.14176 0.66621 -0.15442
 C128 C 0.15408 0.66620 -0.14213
 C129 C 0.16624 0.65401 -0.14214
 C130 C 0.16624 0.64170 -0.15442
 C131 C 0.15407 0.64171 -0.16657
 C132 C 0.14176 0.65404 -0.16657
 C133 C 0.12885 0.67689 -0.15785
 N134 N 0.12112 0.67141 -0.17172
 C135 C 0.12884 0.65750 -0.17721
 C136 C 0.15751 0.62879 -0.17722
 N137 N 0.17140 0.62105 -0.17174
 C138 C 0.17690 0.62877 -0.15787
 C139 C 0.17691 0.65746 -0.12925
 N140 N 0.17143 0.67136 -0.12153
 C141 C 0.15754 0.67685 -0.12924
 H142 H 0.12553 0.68798 -0.15100
 H143 H 0.12551 0.65064 -0.18827
 H144 H 0.15064 0.62546 -0.18828
 H145 H 0.18798 0.62542 -0.15102
 H146 H 0.18798 0.65059 -0.12591
 H147 H 0.15069 0.68794 -0.12590
 C148 C 0.14183 0.16633 0.34570
 C149 C 0.15410 0.16629 0.35802
 C150 C 0.16628 0.15412 0.35802
 C151 C 0.16632 0.14184 0.34569
 C152 C 0.15419 0.14188 0.33351
 C153 C 0.14187 0.15419 0.33351
 C154 C 0.12891 0.17701 0.34225
 N155 N 0.12123 0.17156 0.32834
 C156 C 0.12898 0.15768 0.32284
 C157 C 0.15768 0.12899 0.32283
 N158 N 0.17156 0.12125 0.32833
 C159 C 0.17701 0.12893 0.34224
 C160 C 0.17690 0.15754 0.37095
 N161 N 0.17139 0.17141 0.37869
 C162 C 0.15752 0.17692 0.37095
 H163 H 0.12556 0.18807 0.34912
 H164 H 0.12569 0.15084 0.31175
 H165 H 0.15085 0.12569 0.31175
 H166 H 0.18807 0.12558 0.34911
 H167 H 0.18797 0.15067 0.37429
 H168 H 0.15065 0.18799 0.37430
 C169 C 0.64188 0.33362 0.65413
 C170 C 0.65416 0.33363 0.64181
 C171 C 0.66631 0.34579 0.64181
 C172 C 0.66631 0.35807 0.65413
 C173 C 0.65417 0.35806 0.66630
 C174 C 0.64188 0.34576 0.66630
 C175 C 0.62899 0.32296 0.65759
 N176 N 0.62128 0.32841 0.67148
 C177 C 0.62899 0.34229 0.67697
 C178 C 0.65763 0.37094 0.67697
 N179 N 0.67150 0.37867 0.67149
 C180 C 0.67697 0.37096 0.65759
 C181 C 0.67696 0.34234 0.62889
 N182 N 0.67149 0.32847 0.62116
 C183 C 0.65762 0.32299 0.62889
 H184 H 0.62566 0.31190 0.65073
 H185 H 0.62566 0.34912 0.68805
 H186 H 0.65080 0.37427 0.68805
 H187 H 0.68802 0.37431 0.65073
 H188 H 0.68802 0.34919 0.62555
 H189 H 0.65079 0.31192 0.62555
 C190 C 0.64137 0.83363 1.15437
 C191 C 0.65366 0.83362 1.14205
 C192 C 0.66584 0.84574 1.14207
 C193 C 0.66589 0.85801 1.15441
 C194 C 0.65375 0.85801 1.16659
 C195 C 0.64142 0.84575 1.16657
 C196 C 0.62845 0.82300 1.15781
 N197 N 0.62076 0.82848 1.17172
 C198 C 0.62852 0.84232 1.17724
 C199 C 0.65725 0.87087 1.17727
 N200 N 0.67114 0.87856 1.17179
 C201 C 0.67658 0.87086 1.15788
 C202 C 0.67648 0.84229 1.12915
 N203 N 0.67096 0.82845 1.12139
 C204 C 0.65708 0.82299 1.12911
 H205 H 0.62509 0.81196 1.15092
 H206 H 0.62522 0.84915 1.18833
 H207 H 0.65043 0.87421 1.18836
 H208 H 0.68764 0.87418 1.15102
 H209 H 0.68756 0.84911 1.12581
 H210 H 0.65021 0.81195 1.12575
 C211 C 0.14148 0.33353 1.15437
 C212 C 0.15376 0.33356 1.14204
 C213 C 0.16588 0.34574 1.14202
 C214 C 0.16587 0.35804 1.15432
 C215 C 0.15374 0.35801 1.16651
 C216 C 0.14147 0.34569 1.16654
 C217 C 0.12862 0.32285 1.15784
 N218 N 0.12092 0.32832 1.17174
 C219 C 0.12860 0.34221 1.17723
 C220 C 0.15719 0.37092 1.17716
 N221 N 0.17103 0.37867 1.17165
 C222 C 0.17650 0.37096 1.15776
 C223 C 0.17652 0.34231 1.12909
 N224 N 0.17107 0.32842 1.12137
 C225 C 0.15722 0.32292 1.12912
 H226 H 0.12531 0.31178 1.15098
 H227 H 0.12528 0.34906 1.18831
 H228 H 0.15035 0.37424 1.18825
 H229 H 0.18754 0.37432 1.15088
 H230 H 0.18756 0.34918 1.12573
 H231 H 0.15040 0.31184 1.12580
 C232 C 0.14216 0.83404 0.65444
 C233 C 0.15443 0.83407 0.64210
 C234 C 0.16658 0.84622 0.64210
 C235 C 0.16661 0.85849 0.65444
 C236 C 0.15447 0.85846 0.66664
 C237 C 0.14218 0.84616 0.66663
 C238 C 0.12928 0.82337 0.65789
 N239 N 0.12159 0.82881 0.67181
 C240 C 0.12931 0.84267 0.67731
 C241 C 0.15794 0.87133 0.67732
 N242 N 0.17180 0.87905 0.67182
 C243 C 0.17727 0.87138 0.65790
 C244 C 0.17720 0.84279 0.62916
 N245 N 0.17172 0.82894 0.62141
 C246 C 0.15786 0.82345 0.62916
 H247 H 0.12593 0.81233 0.65102
 H248 H 0.12599 0.84949 0.68840
 H249 H 0.15111 0.87462 0.68842
 H250 H 0.18831 0.87472 0.65102
 H251 H 0.18826 0.84964 0.62581
 H252 H 0.15101 0.81239 0.62581
 C253 C 0.35809 0.66619 0.65405
 C254 C 0.34581 0.66619 0.64173
 C255 C 0.33365 0.65405 0.64173
 C256 C 0.33362 0.64177 0.65405
 C257 C 0.34576 0.64177 0.66623
 C258 C 0.35806 0.65406 0.66623
 C259 C 0.37098 0.67684 0.65752
 N260 N 0.37868 0.67138 0.67142
 C261 C 0.37094 0.65752 0.67690
 C262 C 0.34228 0.62890 0.67690
 N263 N 0.32840 0.62119 0.67141
 C264 C 0.32295 0.62889 0.65751
 C265 C 0.32301 0.65750 0.62881
 N266 N 0.32851 0.67136 0.62108
 C267 C 0.34238 0.67683 0.62882
 H268 H 0.37434 0.68789 0.65066
 H269 H 0.37426 0.65069 0.68798
 H270 H 0.34910 0.62557 0.68798
 H271 H 0.31190 0.62555 0.65065
 H272 H 0.31195 0.65067 0.62547
 H273 H 0.34923 0.68788 0.62548
 C274 C 0.35796 0.16588 1.15416
 C275 C 0.34566 0.16589 1.14187
 C276 C 0.33348 0.15376 1.14189
 C277 C 0.33346 0.14149 1.15421
 C278 C 0.34562 0.14148 1.16637
 C279 C 0.35794 0.15375 1.16634
 C280 C 0.37088 0.17650 1.15760
 N281 N 0.37859 0.17104 1.17148
 C282 C 0.37085 0.15719 1.17699
 C283 C 0.34214 0.12861 1.17705
 N284 N 0.32825 0.12092 1.17158
 C285 C 0.32277 0.12862 1.15768
 C286 C 0.32283 0.15722 1.12898
 N287 N 0.32833 0.17107 1.12124
 C288 C 0.34222 0.17653 1.12895
 H289 H 0.37424 0.18755 1.15073
 H290 H 0.37417 0.15036 1.18806
 H291 H 0.34899 0.12528 1.18812
 H292 H 0.31170 0.12531 1.15083
 H293 H 0.31175 0.15040 1.12566
 H294 H 0.34909 0.18757 1.12559
 C295 C 0.85809 0.66640 1.15426
 C296 C 0.84581 0.66635 1.14194
 C297 C 0.83370 0.65416 1.14193
 C298 C 0.83373 0.64186 1.15423
 C299 C 0.84586 0.64191 1.16641
 C300 C 0.85811 0.65425 1.16642
 C301 C 0.87094 0.67709 1.15773
 N302 N 0.87866 0.67164 1.17162
 C303 C 0.87099 0.65775 1.17709
 C304 C 0.84244 0.62900 1.17706
 N305 N 0.82860 0.62123 1.17156
 C306 C 0.82312 0.62893 1.15767
 C307 C 0.82305 0.65757 1.12901
 N308 N 0.82848 0.67147 1.12129
 C309 C 0.84233 0.67699 1.12903
 H310 H 0.87425 0.68816 1.15088
 H311 H 0.87434 0.65091 1.18816
 H312 H 0.84928 0.62569 1.18813
 H313 H 0.81208 0.62555 1.15081
 H314 H 0.81202 0.65069 1.12566
 H315 H 0.84913 0.68807 1.12570
 C316 C 0.85859 0.16653 0.65447
 C317 C 0.84633 0.16650 0.64213
 C318 C 0.83418 0.15434 0.64212
 C319 C 0.83414 0.14208 0.65446
 C320 C 0.84626 0.14211 0.66666
 C321 C 0.85855 0.15441 0.66666
 C322 C 0.87147 0.17720 0.65793
 N323 N 0.87914 0.17175 0.67185
 C324 C 0.87142 0.15789 0.67735
 C325 C 0.84277 0.12924 0.67733
 N326 N 0.82891 0.12151 0.67183
 C327 C 0.82348 0.12920 0.65791
 C328 C 0.82356 0.15776 0.62918
 N329 N 0.82906 0.17162 0.62144
 C330 C 0.84291 0.17711 0.62919
 H331 H 0.87482 0.18824 0.65105
 H332 H 0.87471 0.15106 0.68845
 H333 H 0.84958 0.12593 0.68843
 H334 H 0.81244 0.12584 0.65104
 H335 H 0.81251 0.15091 0.62583
 H336 H 0.84975 0.18817 0.62584
 C337 C 0.33350 0.35796 0.65437
 C338 C 0.33351 0.34565 0.64208
 C339 C 0.34569 0.33348 0.64208
 C340 C 0.35800 0.33347 0.65437
 C341 C 0.35799 0.34564 0.66652
 C342 C 0.34567 0.35796 0.66652
 C343 C 0.32284 0.37089 0.65783
 N344 N 0.32831 0.37861 0.67169
 C345 C 0.34221 0.37088 0.67717
 C346 C 0.37091 0.34218 0.67716
 N347 N 0.37864 0.32829 0.67168
 C348 C 0.37092 0.32281 0.65781
 C349 C 0.34224 0.32282 0.62918
 N350 N 0.32835 0.32831 0.62147
 C351 C 0.32286 0.34220 0.62919
 H352 H 0.31177 0.37424 0.65098
 H353 H 0.34906 0.37422 0.68822
 H354 H 0.37425 0.34904 0.68821
 H355 H 0.37427 0.31174 0.65097
 H356 H 0.34910 0.31175 0.62584
 H357 H 0.31178 0.34906 0.62585
 C358 C 0.33357 0.85858 0.15372
 C359 C 0.33358 0.84627 0.14142
 C360 C 0.34576 0.83410 0.14141
 C361 C 0.35807 0.83410 0.15369
 C362 C 0.35807 0.84627 0.16584
 C363 C 0.34574 0.85858 0.16585
 C364 C 0.32290 0.87149 0.15718
 N365 N 0.32838 0.87922 0.17105
 C366 C 0.34228 0.87149 0.17651
 C367 C 0.37099 0.84281 0.17648
 N368 N 0.37873 0.82892 0.17100
 C369 C 0.37100 0.82344 0.15713
 C370 C 0.34230 0.82344 0.12852
 N371 N 0.32840 0.82892 0.12082
 C372 C 0.32291 0.84281 0.12854
 H373 H 0.31181 0.87484 0.15035
 H374 H 0.34914 0.87483 0.18756
 H375 H 0.37433 0.84966 0.18753
 H376 H 0.37435 0.81236 0.15029
 H377 H 0.34917 0.81237 0.12517
 H378 H 0.31183 0.84967 0.12521
 C379 C 0.83405 0.35789 0.15381
 C380 C 0.83406 0.34558 0.14151
 C381 C 0.84624 0.33341 0.14150
 C382 C 0.85855 0.33340 0.15379
 C383 C 0.85853 0.34557 0.16595
 C384 C 0.84621 0.35788 0.16595
 C385 C 0.82337 0.37080 0.15727
 N386 N 0.82884 0.37852 0.17114
 C387 C 0.84273 0.37079 0.17661
 C388 C 0.87144 0.34210 0.17659
 N389 N 0.87918 0.32821 0.17112
 C390 C 0.87147 0.32274 0.15725
 C391 C 0.84279 0.32275 0.12860
 N392 N 0.82890 0.32824 0.12089
 C393 C 0.82340 0.34213 0.12861
 H394 H 0.81229 0.37414 0.15043
 H395 H 0.84958 0.37412 0.18767
 H396 H 0.87477 0.34895 0.18765
 H397 H 0.87482 0.31166 0.15040
 H398 H 0.84965 0.31168 0.12526
 H399 H 0.81233 0.34899 0.12528
 C400 C 0.83395 0.85838 0.65436
 C401 C 0.83397 0.84608 0.64206
 C402 C 0.84614 0.83391 0.64206
 C403 C 0.85844 0.83389 0.65436
 C404 C 0.85842 0.84605 0.66651
 C405 C 0.84611 0.85837 0.66651
 C406 C 0.82328 0.87130 0.65781
 N407 N 0.82874 0.87901 0.67169
 C408 C 0.84263 0.87128 0.67717
 C409 C 0.87133 0.84258 0.67717
 N410 N 0.87907 0.82869 0.67169
 C411 C 0.87136 0.82322 0.65781
 C412 C 0.84270 0.82325 0.62915
 N413 N 0.82882 0.82875 0.62143
 C414 C 0.82332 0.84264 0.62915
 H415 H 0.81221 0.87465 0.65097
 H416 H 0.84947 0.87461 0.68823
 H417 H 0.87466 0.84942 0.68823
 H418 H 0.87471 0.81215 0.65096
 H419 H 0.84956 0.81218 0.62581
 H420 H 0.81225 0.84950 0.62581
 C421 C 0.66648 0.64190 0.65427
 C422 C 0.66648 0.65421 0.64198
 C423 C 0.65430 0.66638 0.64197
 C424 C 0.64198 0.66639 0.65426
 C425 C 0.64198 0.65422 0.66640
 C426 C 0.65430 0.64190 0.66640
 C427 C 0.67715 0.62898 0.65772
 N428 N 0.67166 0.62126 0.67158
 C429 C 0.65776 0.62899 0.67705
 C430 C 0.62905 0.65768 0.67704
 N431 N 0.62131 0.67157 0.67156
 C432 C 0.62905 0.67705 0.65770
 C433 C 0.65776 0.67704 0.62909
 N434 N 0.67166 0.67156 0.62138
 C435 C 0.67715 0.65767 0.62909
 H436 H 0.68823 0.62564 0.65088
 H437 H 0.65089 0.62564 0.68809
 H438 H 0.62570 0.65082 0.68809
 H439 H 0.62570 0.68812 0.65086
 H440 H 0.65090 0.68812 0.62575
 H441 H 0.68823 0.65081 0.62576
 C442 C 0.66659 0.14143 0.15383
 C443 C 0.66657 0.15373 0.14152
 C444 C 0.65437 0.16588 0.14150
 C445 C 0.64205 0.16588 0.15379
 C446 C 0.64207 0.15373 0.16595
 C447 C 0.65441 0.14144 0.16597
 C448 C 0.67728 0.12854 0.15731
 N449 N 0.67181 0.12083 0.17118
 C450 C 0.65789 0.12855 0.17663
 C451 C 0.62915 0.15719 0.17659
 N452 N 0.62139 0.17106 0.17110
 C453 C 0.62911 0.17653 0.15723
 C454 C 0.65782 0.17653 0.12860
 N455 N 0.67173 0.17105 0.12090
 C456 C 0.67724 0.15718 0.12863
 H457 H 0.68837 0.12520 0.15048
 H458 H 0.65104 0.12521 0.18769
 H459 H 0.62582 0.15035 0.18765
 H460 H 0.62575 0.18759 0.15038
 H461 H 0.65094 0.18759 0.12525
 H462 H 0.68833 0.15034 0.12531
 C463 C 0.16603 0.64212 0.15386
 C464 C 0.16603 0.65443 0.14157
 C465 C 0.15388 0.66662 0.14159
 C466 C 0.14159 0.66666 0.15390
 C467 C 0.14159 0.65449 0.16605
 C468 C 0.15388 0.64215 0.16602
 C469 C 0.17668 0.62918 0.15729
 N470 N 0.17121 0.62147 0.17117
 C471 C 0.15734 0.62923 0.17666
 C472 C 0.12870 0.65798 0.17672
 N473 N 0.12098 0.67189 0.17126
 C474 C 0.12869 0.67735 0.15738
 C475 C 0.15734 0.67727 0.12869
 N476 N 0.17121 0.67176 0.12095
 C477 C 0.17668 0.65785 0.12866
 H478 H 0.18774 0.62581 0.15043
 H479 H 0.15050 0.62591 0.18773
 H480 H 0.12536 0.65114 0.18778
 H481 H 0.12536 0.68843 0.15055
 H482 H 0.15049 0.68837 0.12537
 H483 H 0.18774 0.65097 0.12530
 C484 C 0.16608 0.14154 0.65432
 C485 C 0.16606 0.15384 0.64203
 C486 C 0.15389 0.16602 0.64203
 C487 C 0.14159 0.16604 0.65434
 C488 C 0.14160 0.15388 0.66649
 C489 C 0.15392 0.14156 0.66648
 C490 C 0.17674 0.12862 0.65777
 N491 N 0.17127 0.12091 0.67165
 C492 C 0.15738 0.12865 0.67713
 C493 C 0.12869 0.15735 0.67714
 N494 N 0.12095 0.17124 0.67167
 C495 C 0.12867 0.17671 0.65779
 C496 C 0.15734 0.17667 0.62913
 N497 N 0.17122 0.17117 0.62141
 C498 C 0.17671 0.15728 0.62912
 H499 H 0.18781 0.12527 0.65092
 H500 H 0.15054 0.12532 0.68819
 H501 H 0.12535 0.15051 0.68820
 H502 H 0.12532 0.18778 0.65095
 H503 H 0.15048 0.18774 0.62580
 H504 H 0.18779 0.15042 0.62578
 C505 C 0.33378 0.64195 0.34550
 C506 C 0.33378 0.65425 0.35781
 C507 C 0.34593 0.66640 0.35780
 C508 C 0.35822 0.66641 0.34548
 C509 C 0.35822 0.65425 0.33332
 C510 C 0.34593 0.64196 0.33332
 C511 C 0.32313 0.62906 0.34205
 N512 N 0.32860 0.62134 0.32816
 C513 C 0.34247 0.62906 0.32267
 C514 C 0.37111 0.65771 0.32265
 N515 N 0.37883 0.67158 0.32814
 C516 C 0.37112 0.67706 0.34203
 C517 C 0.34248 0.67705 0.37071
 N518 N 0.32861 0.67158 0.37845
 C519 C 0.32314 0.65770 0.37072
 H520 H 0.31208 0.62572 0.34891
 H521 H 0.34931 0.62572 0.31159
 H522 H 0.37445 0.65087 0.31158
 H523 H 0.37446 0.68811 0.34888
 H524 H 0.34932 0.68811 0.37405
 H525 H 0.31208 0.65086 0.37407
 C526 C 0.33384 0.14137 0.84592
 C527 C 0.33381 0.15368 0.85821
 C528 C 0.34596 0.16583 0.85822
 C529 C 0.35828 0.16581 0.84594
 C530 C 0.35831 0.15364 0.83379
 C531 C 0.34602 0.14135 0.83378
 C532 C 0.32319 0.12847 0.84246
 N533 N 0.32870 0.12073 0.82860
 C534 C 0.34259 0.12843 0.82314
 C535 C 0.37123 0.15708 0.82316
 N536 N 0.37893 0.17096 0.82863
 C537 C 0.37118 0.17646 0.84249
 C538 C 0.34247 0.17650 0.87110
 N539 N 0.32858 0.17104 0.87881
 C540 C 0.32312 0.15716 0.87109
 H541 H 0.31212 0.12514 0.84930
 H542 H 0.34945 0.12508 0.81209
 H543 H 0.37459 0.15022 0.81210
 H544 H 0.37450 0.18753 0.84933
 H545 H 0.34930 0.18757 0.87444
 H546 H 0.31206 0.15032 0.87442
 C547 C 0.83405 0.64164 0.84599
 C548 C 0.83402 0.65396 0.85827
 C549 C 0.84617 0.66611 0.85828
 C550 C 0.85850 0.66608 0.84599
 C551 C 0.85853 0.65391 0.83386
 C552 C 0.84623 0.64161 0.83385
 C553 C 0.82341 0.62873 0.84254
 N554 N 0.82892 0.62099 0.82868
 C555 C 0.84280 0.62869 0.82321
 C556 C 0.87145 0.65734 0.82322
 N557 N 0.87915 0.67123 0.82869
 C558 C 0.87140 0.67673 0.84254
 C559 C 0.84268 0.67679 0.87116
 N560 N 0.82879 0.67133 0.87886
 C561 C 0.82334 0.65744 0.87115
 H562 H 0.81233 0.62541 0.84937
 H563 H 0.84967 0.62533 0.81216
 H564 H 0.87481 0.65048 0.81217
 H565 H 0.87472 0.68780 0.84938
 H566 H 0.84952 0.68786 0.87449
 H567 H 0.81227 0.65060 0.87448
 C568 C 0.83439 0.14141 0.34583
 C569 C 0.83438 0.15371 0.35813
 C570 C 0.84654 0.16586 0.35812
 C571 C 0.85883 0.16585 0.34581
 C572 C 0.85884 0.15369 0.33365
 C573 C 0.84654 0.14139 0.33366
 C574 C 0.82374 0.12851 0.34238
 N575 N 0.82921 0.12078 0.32850
 C576 C 0.84309 0.12849 0.32302
 C577 C 0.87173 0.15714 0.32299
 N578 N 0.87945 0.17102 0.32846
 C579 C 0.87173 0.17650 0.34234
 C580 C 0.84307 0.17653 0.37101
 N581 N 0.82920 0.17107 0.37874
 C582 C 0.82373 0.15718 0.37103
 H583 H 0.81267 0.12518 0.34923
 H584 H 0.84993 0.12514 0.31195
 H585 H 0.87507 0.15028 0.31193
 H586 H 0.87506 0.18757 0.34918
 H587 H 0.84991 0.18760 0.37434
 H588 H 0.81266 0.15035 0.37437
 C589 C 0.66628 0.35790 0.34570
 C590 C 0.66629 0.34560 0.35799
 C591 C 0.65414 0.33344 0.35799
 C592 C 0.64185 0.33344 0.34569
 C593 C 0.64184 0.34560 0.33354
 C594 C 0.65413 0.35790 0.33354
 C595 C 0.67693 0.37080 0.34225
 N596 N 0.67145 0.37852 0.32838
 C597 C 0.65758 0.37081 0.32289
 C598 C 0.62894 0.34215 0.32288
 N599 N 0.62123 0.32827 0.32836
 C600 C 0.62895 0.32279 0.34223
 C601 C 0.65761 0.32279 0.37089
 N602 N 0.67148 0.32826 0.37861
 C603 C 0.67694 0.34214 0.37089
 H604 H 0.68799 0.37414 0.34910
 H605 H 0.65073 0.37415 0.31183
 H606 H 0.62559 0.34900 0.31182
 H607 H 0.62562 0.31173 0.34908
 H608 H 0.65077 0.31172 0.37423
 H609 H 0.68800 0.34899 0.37424
 C610 C 0.66594 0.85858 0.84595
 C611 C 0.66594 0.84627 0.85823
 C612 C 0.65379 0.83412 0.85822
 C613 C 0.64148 0.83414 0.84593
 C614 C 0.64148 0.84631 0.83379
 C615 C 0.65378 0.85861 0.83380
 C616 C 0.67659 0.87148 0.84250
 N617 N 0.67111 0.87922 0.82864
 C618 C 0.65723 0.87151 0.82316
 C619 C 0.62858 0.84287 0.82313
 N620 N 0.62086 0.82899 0.82860
 C621 C 0.62859 0.82350 0.84246
 C622 C 0.65725 0.82345 0.87111
 N623 N 0.67113 0.82891 0.87883
 C624 C 0.67660 0.84279 0.87112
 H625 H 0.68766 0.87480 0.84935
 H626 H 0.65038 0.87487 0.81210
 H627 H 0.62523 0.84973 0.81208
 H628 H 0.62525 0.81243 0.84930
 H629 H 0.65041 0.81239 0.87443
 H630 H 0.68767 0.84962 0.87447
 C631 C 0.16574 0.35839 0.84604
 C632 C 0.16576 0.34607 0.85832
 C633 C 0.15361 0.33392 0.85831
 C634 C 0.14130 0.33394 0.84602
 C635 C 0.14128 0.34611 0.83388
 C636 C 0.15358 0.35841 0.83389
 C637 C 0.17639 0.37128 0.84259
 N638 N 0.17090 0.37902 0.82873
 C639 C 0.15702 0.37132 0.82325
 C640 C 0.12838 0.34267 0.82323
 N641 N 0.12067 0.32879 0.82869
 C642 C 0.12840 0.32329 0.84256
 C643 C 0.15708 0.32324 0.87119
 N644 N 0.17096 0.32870 0.87890
 C645 C 0.17643 0.34259 0.87120
 H646 H 0.18746 0.37460 0.84943
 H647 H 0.15017 0.37467 0.81220
 H648 H 0.12503 0.34953 0.81218
 H649 H 0.12507 0.31222 0.84939
 H650 H 0.15024 0.31217 0.87451
 H651 H 0.18749 0.34942 0.87454
 C652 C 0.16608 0.85885 0.34588
 C653 C 0.16610 0.84655 0.35818
 C654 C 0.15395 0.83440 0.35819
 C655 C 0.14163 0.83442 0.34591
 C656 C 0.14161 0.84658 0.33376
 C657 C 0.15391 0.85887 0.33375
 C658 C 0.17673 0.87175 0.34241
 N659 N 0.17123 0.87947 0.32855
 C660 C 0.15735 0.87177 0.32309
 C661 C 0.12869 0.84313 0.32313
 N662 N 0.12098 0.82926 0.32861
 C663 C 0.12872 0.82377 0.34247
 C664 C 0.15743 0.82374 0.37108
 N665 N 0.17132 0.82921 0.37878
 C666 C 0.17678 0.84308 0.37106
 H667 H 0.18781 0.87507 0.34924
 H668 H 0.15048 0.87511 0.31204
 H669 H 0.12534 0.84998 0.31207
 H670 H 0.12540 0.81271 0.34932
 H671 H 0.15059 0.81268 0.37443
 H672 H 0.18785 0.84992 0.37438
 O673 O 0.24817 1.01681 0.27101
 O674 O 0.27094 0.98442 0.24812
 O675 O 0.27097 1.01677 0.24816
 O676 O 0.24814 0.98446 0.27098
 O677 O 0.22870 0.98453 0.25162
 O678 O 0.25154 1.01684 0.22880
 O679 O 0.25150 0.98449 0.22876
 O680 O 0.22873 1.01688 0.25165
 Cu681 Cu 0.26152 1.00061 0.26152
 Cu682 Cu 0.23816 1.00069 0.23826
 C683 C 0.23463 1.02235 0.26517
 C684 C 0.26504 0.97895 0.23460
 C685 C 0.26509 1.02229 0.23465
 C686 C 0.23459 0.97901 0.26513
 O687 O 0.25134 0.51634 0.72903
 O688 O 0.22847 0.48406 0.75187
 O689 O 0.22849 0.51641 0.75184
 O690 O 0.25133 0.48398 0.72906
 O691 O 0.27072 0.48396 0.74846
 O692 O 0.24789 0.51639 0.77124
 O693 O 0.24787 0.48404 0.77126
 O694 O 0.27073 0.51631 0.74843
 Cu695 Cu 0.23795 0.50020 0.73849
 Cu696 Cu 0.26126 0.50017 0.76181
 C697 C 0.26487 0.52180 0.73490
 C698 C 0.23434 0.47857 0.76540
 C699 C 0.23436 0.52191 0.76536
 C700 C 0.26486 0.47846 0.73494
 O701 O 0.72926 0.01583 0.24842
 O702 O 0.75202 -0.01656 0.27132
 O703 O 0.75211 0.01580 0.27122
 O704 O 0.72916 -0.01653 0.24853
 O705 O 0.74856 -0.01669 0.22912
 O706 O 0.77151 0.01564 0.25181
 O707 O 0.77142 -0.01672 0.25192
 O708 O 0.74866 0.01566 0.22901
 Cu709 Cu 0.73868 -0.00035 0.26183
 Cu710 Cu 0.76200 -0.00054 0.23851
 C711 C 0.73515 0.02124 0.23487
 C712 C 0.76554 -0.02213 0.26546
 C713 C 0.76565 0.02121 0.26532
 C714 C 0.73501 -0.02209 0.23502
 O715 O 0.75197 0.48358 0.77124
 O716 O 0.72916 0.51599 0.74843
 O717 O 0.72913 0.48363 0.74843
 O718 O 0.75200 0.51593 0.77124
 O719 O 0.77141 0.51588 0.75184
 O720 O 0.74854 0.48358 0.72903
 O721 O 0.74857 0.51593 0.72903
 O722 O 0.77138 0.48352 0.75184
 Cu723 Cu 0.73861 0.49979 0.76179
 Cu724 Cu 0.76193 0.49972 0.73848
 C725 C 0.76550 0.47805 0.76536
 C726 C 0.73504 0.52146 0.73491
 C727 C 0.73500 0.47812 0.73491
 C728 C 0.76554 0.52139 0.76536
 O729 O 0.24801 0.48380 0.22885
 O730 O 0.27091 0.51615 0.25154
 O731 O 0.27085 0.48380 0.25165
 O732 O 0.24806 0.51616 0.22875
 O733 O 0.22866 0.51629 0.24815
 O734 O 0.25145 0.48394 0.27105
 O735 O 0.25151 0.51629 0.27095
 O736 O 0.22861 0.48394 0.24826
 Cu737 Cu 0.26141 0.49996 0.23824
 Cu738 Cu 0.23810 0.50013 0.26156
 C739 C 0.23446 0.47838 0.23475
 C740 C 0.26505 0.52171 0.26505
 C741 C 0.26498 0.47837 0.26519
 C742 C 0.23454 0.52172 0.23461
 O743 O 0.75169 1.01662 0.72915
 O744 O 0.72877 0.98430 0.75188
 O745 O 0.72877 1.01666 0.75189
 O746 O 0.75167 0.98426 0.72913
 O747 O 0.77102 0.98422 0.74858
 O748 O 0.74811 1.01662 0.77134
 O749 O 0.74811 0.98426 0.77133
 O750 O 0.77103 1.01657 0.74860
 Cu751 Cu 0.73827 1.00047 0.73855
 Cu752 Cu 0.76152 1.00041 0.76192
 C753 C 0.76521 1.02208 0.73506
 C754 C 0.73460 0.97880 0.76541
 C755 C 0.73460 1.02214 0.76543
 C756 C 0.76519 0.97874 0.73503
 O757 O 0.72899 0.48369 0.25167
 O758 O 0.75183 0.51605 0.22892
 O759 O 0.75182 0.48369 0.22884
 O760 O 0.72901 0.51605 0.25175
 O761 O 0.74843 0.51596 0.27113
 O762 O 0.77124 0.48361 0.24822
 O763 O 0.77125 0.51597 0.24830
 O764 O 0.74841 0.48361 0.27105
 Cu765 Cu 0.73845 0.49988 0.23834
 Cu766 Cu 0.76179 0.49978 0.26163
 C767 C 0.73487 0.47816 0.26518
 C768 C 0.76537 0.52150 0.23479
 C769 C 0.76536 0.47816 0.23469
 C770 C 0.73489 0.52150 0.26529
 O771 O 0.25186 -0.01673 0.77115
 O772 O 0.22897 0.01565 0.74839
 O773 O 0.22899 -0.01670 0.74837
 O774 O 0.25183 0.01562 0.77116
 O775 O 0.27122 0.01561 0.75174
 O776 O 0.24838 -0.01671 0.72894
 O777 O 0.24835 0.01564 0.72897
 O778 O 0.27125 -0.01674 0.75172
 Cu779 Cu 0.23846 -0.00054 0.76173
 Cu780 Cu 0.26175 -0.00055 0.73838
 C781 C 0.26539 -0.02223 0.76525
 C782 C 0.23482 0.02115 0.73486
 C783 C 0.23486 -0.02219 0.73483
 C784 C 0.26536 0.02111 0.76528
 O785 O 0.24801 0.27095 0.98383
 O786 O 0.27085 0.24807 1.01614
 O787 O 0.27086 0.24809 0.98381
 O788 O 0.24800 0.27093 1.01616
 O789 O 0.22860 0.25155 1.01614
 O790 O 0.25146 0.22871 0.98380
 O791 O 0.25145 0.22869 1.01613
 O792 O 0.22861 0.25157 0.98382
 Cu793 Cu 0.26139 0.26147 0.99999
 Cu794 Cu 0.23807 0.23817 0.99997
 C795 C 0.23448 0.26510 0.97834
 C796 C 0.26498 0.23454 1.02162
 C797 C 0.26499 0.23456 0.97832
 C798 C 0.23447 0.26507 1.02164
 O799 O 0.24837 0.77143 0.48371
 O800 O 0.27118 0.74848 0.51599
 O801 O 0.27117 0.74852 0.48366
 O802 O 0.24839 0.77140 0.51604
 O803 O 0.22895 0.75206 0.51603
 O804 O 0.25173 0.72918 0.48365
 O805 O 0.25174 0.72914 0.51598
 O806 O 0.22893 0.75209 0.48370
 Cu807 Cu 0.26174 0.76191 0.49985
 Cu808 Cu 0.23837 0.73867 0.49984
 C809 C 0.23482 0.76561 0.47822
 C810 C 0.26529 0.73496 0.52147
 C811 C 0.26527 0.73501 0.47816
 C812 C 0.23485 0.76557 0.52153
 O813 O 0.27105 0.75179 -0.01649
 O814 O 0.24820 0.72904 0.01586
 O815 O 0.24825 0.72897 -0.01647
 O816 O 0.27101 0.75186 0.01584
 O817 O 0.25158 0.77128 0.01578
 O818 O 0.22881 0.74839 -0.01653
 O819 O 0.22877 0.74847 0.01580
 O820 O 0.25162 0.77121 -0.01655
 Cu821 Cu 0.26159 0.73846 -0.00031
 Cu822 Cu 0.23823 0.76180 -0.00038
 C823 C 0.26517 0.76532 -0.02201
 C824 C 0.23465 0.73494 0.02132
 C825 C 0.23471 0.73484 -0.02199
 C826 C 0.26511 0.76541 0.02129
 O827 O 0.22866 0.24811 0.48401
 O828 O 0.25146 0.27090 0.51637
 O829 O 0.25147 0.27093 0.48404
 O830 O 0.22866 0.24808 0.51634
 O831 O 0.24809 0.22866 0.51632
 O832 O 0.27090 0.25151 0.48401
 O833 O 0.27090 0.25148 0.51634
 O834 O 0.24810 0.22869 0.48399
 Cu835 Cu 0.23810 0.26146 0.50019
 Cu836 Cu 0.26146 0.23812 0.50016
 C837 C 0.23456 0.23458 0.47850
 C838 C 0.26501 0.26501 0.52185
 C839 C 0.26501 0.26505 0.47854
 C840 C 0.23455 0.23454 0.52181
 O841 O 0.74805 0.77117 0.98384
 O842 O 0.77088 0.74830 1.01617
 O843 O 0.77093 0.74834 0.98384
 O844 O 0.74799 0.77112 1.01617
 O845 O 0.72862 0.75170 1.01612
 O846 O 0.75156 0.72892 0.98379
 O847 O 0.75151 0.72889 1.01611
 O848 O 0.72868 0.75175 0.98379
 Cu849 Cu 0.76142 0.76169 1.00001
 Cu850 Cu 0.73814 0.73836 0.99994
 C851 C 0.73453 0.76530 0.97833
 C852 C 0.76502 0.73476 1.02163
 C853 C 0.76509 0.73480 0.97833
 C854 C 0.73446 0.76523 1.02163
 O855 O 0.75213 0.22869 0.48378
 O856 O 0.72922 0.25154 0.51608
 O857 O 0.72922 0.25148 0.48375
 O858 O 0.75214 0.22875 0.51611
 O859 O 0.77147 0.24819 0.51607
 O860 O 0.74856 0.27092 0.48371
 O861 O 0.74856 0.27098 0.51604
 O862 O 0.77147 0.24813 0.48374
 Cu863 Cu 0.73872 0.23815 0.49993
 Cu864 Cu 0.76197 0.26152 0.49989
 C865 C 0.76565 0.23457 0.47828
 C866 C 0.73504 0.26509 0.52154
 C867 C 0.73504 0.26501 0.47824
 C868 C 0.76565 0.23466 0.52159
 O869 O 0.77118 0.25159 -0.01656
 O870 O 0.74845 0.22870 0.01578
 O871 O 0.74836 0.22878 -0.01655
 O872 O 0.77126 0.25151 0.01577
 O873 O 0.75184 0.27093 0.01588
 O874 O 0.72894 0.24820 -0.01644
 O875 O 0.72902 0.24812 0.01589
 O876 O 0.75175 0.27102 -0.01645
 Cu877 Cu 0.76177 0.23818 -0.00040
 Cu878 Cu 0.73843 0.26153 -0.00027
 C879 C 0.76528 0.26514 -0.02199
 C880 C 0.73492 0.23457 0.02132
 C881 C 0.73481 0.23468 -0.02199
 C882 C 0.76539 0.26503 0.02132
 O883 O 0.72911 0.74850 0.48402
 O884 O 0.75194 0.77131 0.51634
 O885 O 0.75193 0.77132 0.48401
 O886 O 0.72913 0.74850 0.51635
 O887 O 0.74856 0.72907 0.51632
 O888 O 0.77136 0.75189 0.48399
 O889 O 0.77137 0.75189 0.51632
 O890 O 0.74854 0.72908 0.48400
 Cu891 Cu 0.73857 0.76187 0.50018
 Cu892 Cu 0.76192 0.73852 0.50015
 C893 C 0.73500 0.73497 0.47852
 C894 C 0.76548 0.76542 0.52182
 C895 C 0.76546 0.76543 0.47851
 C896 C 0.73502 0.73495 0.52182
 O897 O 0.98449 0.25142 0.22879
 O898 O 1.01689 0.22867 0.25167
 O899 O 0.98453 0.22861 0.25161
 O900 O 1.01685 0.25149 0.22885
 O901 O 1.01673 0.27092 0.24823
 O902 O 0.98442 0.24803 0.27100
 O903 O 1.01677 0.24809 0.27106
 O904 O 0.98437 0.27084 0.24817
 Cu905 Cu 1.00070 0.23809 0.23827
 Cu906 Cu 1.00056 0.26143 0.26157
 C907 C 0.97893 0.26495 0.23464
 C908 C 1.02233 0.23457 0.26520
 C909 C 0.97899 0.23448 0.26512
 C910 C 1.02228 0.26505 0.23472
 O911 O 0.48402 0.24790 0.77124
 O912 O 0.51632 0.27077 0.74844
 O913 O 0.48396 0.27075 0.74845
 O914 O 0.51638 0.24792 0.77124
 O915 O 0.51642 0.22852 0.75183
 O916 O 0.48401 0.25135 0.72904
 O917 O 0.51636 0.25137 0.72903
 O918 O 0.48406 0.22850 0.75184
 Cu919 Cu 0.50016 0.26129 0.76180
 Cu920 Cu 0.50022 0.23798 0.73848
 C921 C 0.47856 0.23437 0.76536
 C922 C 0.52183 0.26490 0.73491
 C923 C 0.47848 0.26488 0.73492
 C924 C 0.52190 0.23439 0.76535
 O925 O -0.01673 0.27126 0.75177
 O926 O 0.01568 0.24836 0.72902
 O927 O -0.01668 0.24838 0.72899
 O928 O 0.01563 0.27124 0.75180
 O929 O 0.01563 0.25187 0.77122
 O930 O -0.01668 0.22901 0.74842
 O931 O 0.01568 0.22899 0.74845
 O932 O -0.01673 0.25189 0.77119
 Cu933 Cu -0.00053 0.26177 0.73843
 Cu934 Cu -0.00053 0.23849 0.76178
 C935 C -0.02223 0.26542 0.76530
 C936 C 0.02118 0.23483 0.73492
 C937 C -0.02217 0.23487 0.73488
 C938 C 0.02111 0.26539 0.76533
 O939 O 0.48373 0.27076 0.25163
 O940 O 0.51609 0.24795 0.22873
 O941 O 0.48373 0.24793 0.22881
 O942 O 0.51608 0.27077 0.25156
 O943 O 0.51616 0.25135 0.27094
 O944 O 0.48381 0.22852 0.24818
 O945 O 0.51617 0.22853 0.24811
 O946 O 0.48380 0.25134 0.27101
 Cu947 Cu 0.49990 0.26131 0.23823
 Cu948 Cu 0.49999 0.23797 0.26152
 C949 C 0.47827 0.26488 0.26517
 C950 C 0.52162 0.23441 0.23458
 C951 C 0.47828 0.23440 0.23468
 C952 C 0.52161 0.26489 0.26507
 O953 O 1.01667 0.72876 0.75192
 O954 O 0.98429 0.75165 0.72914
 O955 O 1.01664 0.75165 0.72917
 O956 O 0.98431 0.72877 0.75191
 O957 O 0.98426 0.74813 0.77135
 O958 O 1.01659 0.77102 0.74861
 O959 O 0.98424 0.77101 0.74859
 O960 O 1.01662 0.74813 0.77136
 Cu961 Cu 1.00048 0.73825 0.73857
 Cu962 Cu 1.00042 0.76153 0.76194
 C963 C 1.02214 0.73461 0.76546
 C964 C 0.97876 0.76517 0.73504
 C965 C 1.02211 0.76518 0.73507
 C966 C 0.97879 0.73461 0.76544
 O967 O 0.48400 0.75200 0.22859
 O968 O 0.51635 0.72921 0.25150
 O969 O 0.48399 0.72918 0.25141
 O970 O 0.51636 0.75203 0.22867
 O971 O 0.51625 0.77145 0.24806
 O972 O 0.48388 0.74860 0.27079
 O973 O 0.51624 0.74863 0.27089
 O974 O 0.48389 0.77142 0.24798
 Cu975 Cu 0.50018 0.73865 0.23809
 Cu976 Cu 0.50006 0.76199 0.26138
 C977 C 0.47845 0.76554 0.23444
 C978 C 0.52178 0.73510 0.26504
 C979 C 0.47844 0.73506 0.26492
 C980 C 0.52180 0.76557 0.23455
 O981 O -0.01655 0.77169 0.25194
 O982 O 0.01584 0.74890 0.22905
 O983 O -0.01652 0.74886 0.22911
 O984 O 0.01581 0.77172 0.25188
 O985 O 0.01590 0.75231 0.27126
 O986 O -0.01643 0.72944 0.24849
 O987 O 0.01593 0.72948 0.24842
 O988 O -0.01646 0.75227 0.27132
 Cu989 Cu -0.00036 0.76225 0.23854
 Cu990 Cu -0.00025 0.73892 0.26183
 C991 C -0.02200 0.76580 0.26547
 C992 C 0.02138 0.73537 0.23489
 C993 C -0.02196 0.73532 0.23498
 C994 C 0.02135 0.76585 0.26538
 O995 O 0.51591 0.74850 0.72894
 O996 O 0.48348 0.77134 0.75173
 O997 O 0.51584 0.77137 0.75173
 O998 O 0.48355 0.74847 0.72894
 O999 O 0.48360 0.72909 0.74835
 O1000 O 0.51589 0.75199 0.77114
 O1001 O 0.48353 0.75196 0.77114
 O1002 O 0.51596 0.72912 0.74836
 Cu1003 Cu 0.49969 0.76188 0.73837
 Cu1004 Cu 0.49975 0.73858 0.76171
 C1005 C 0.52144 0.73498 0.73483
 C1006 C 0.47800 0.76548 0.76525
 C1007 C 0.52134 0.76552 0.76526
 C1008 C 0.47810 0.73494 0.73482
 C1009 C 0.42737 0.29941 0.28123
 C1010 C 0.41446 0.29100 0.29270
 C1011 C 0.41692 0.30501 0.30539
 C1012 C 0.42963 0.31355 0.29405
 C1013 C 0.44120 0.28956 0.28993
 C1014 C 0.44368 0.30357 0.30262
 C1015 C 0.42849 0.28103 0.30127
 C1016 C 0.43075 0.29516 0.31409
 C1017 C 0.40327 0.31351 0.31390
 C1018 C 0.39192 0.32041 0.32079
 C1019 C 0.45459 0.28087 0.28121
 C1020 C 0.46547 0.27362 0.27394
 H1021 H 0.42612 0.30107 0.26762
 H1022 H 0.40229 0.28593 0.28871
 H1023 H 0.42994 0.32702 0.29118
 H1024 H 0.45584 0.30863 0.30660
 H1025 H 0.42816 0.26756 0.30414
 H1026 H 0.43198 0.29351 0.32770
 C1027 C 0.43708 0.78847 0.80850
 C1028 C 0.43500 0.80756 0.80961
 C1029 C 0.41653 0.80561 0.80530
 C1030 C 0.41840 0.78665 0.80432
 C1031 C 0.44085 0.79017 0.78990
 C1032 C 0.42238 0.78823 0.78560
 C1033 C 0.43898 0.80913 0.79087
 C1034 C 0.42030 0.80731 0.78670
 C1035 C 0.40286 0.81410 0.81378
 C1036 C 0.39149 0.82100 0.82066
 C1037 C 0.45427 0.78148 0.78122
 C1038 C 0.46517 0.77422 0.77398
 H1039 H 0.44413 0.78062 0.81736
 H1040 H 0.44003 0.81561 0.81958
 H1041 H 0.40979 0.77751 0.80995
 H1042 H 0.41733 0.78018 0.77563
 H1043 H 0.44760 0.81827 0.78525
 H1044 H 0.41325 0.81515 0.77784
 C1045 C -0.06310 0.28852 0.80852
 C1046 C -0.06517 0.30761 0.80961
 C1047 C -0.08364 0.30567 0.80532
 C1048 C -0.08179 0.28671 0.80436
 C1049 C -0.05935 0.29019 0.78992
 C1050 C -0.07782 0.28826 0.78563
 C1051 C -0.06120 0.30915 0.79087
 C1052 C -0.07988 0.30734 0.78671
 C1053 C -0.09730 0.31418 0.81380
 C1054 C -0.10866 0.32109 0.82068
 C1055 C -0.04594 0.28147 0.78124
 C1056 C -0.03505 0.27420 0.77401
 H1057 H -0.05605 0.28068 0.81739
 H1058 H -0.06013 0.31567 0.81957
 H1059 H -0.09040 0.27758 0.81000
 H1060 H -0.08288 0.28020 0.77568
 H1061 H -0.05258 0.31828 0.78522
 H1062 H -0.08693 0.31518 0.77784
 C1063 C -0.07642 0.79349 0.28282
 C1064 C -0.08428 0.78787 0.29941
 C1065 C -0.08342 0.80585 0.30568
 C1066 C -0.07576 0.81161 0.28921
 C1067 C -0.05911 0.79044 0.29022
 C1068 C -0.05824 0.80843 0.29648
 C1069 C -0.06677 0.78469 0.30669
 C1070 C -0.06611 0.80281 0.31309
 C1071 C -0.09708 0.81434 0.31418
 C1072 C -0.10844 0.82123 0.32107
 C1073 C -0.04571 0.78176 0.28151
 C1074 C -0.03481 0.77453 0.27424
 H1075 H -0.08052 0.78957 0.27028
 H1076 H -0.09514 0.77950 0.30071
 H1077 H -0.07961 0.82278 0.28212
 H1078 H -0.04738 0.81679 0.29518
 H1079 H -0.06292 0.77352 0.31378
 H1080 H -0.06203 0.80674 0.32564
 C1081 C 0.57319 0.70137 0.28114
 C1082 C 0.58551 0.70962 0.29335
 C1083 C 0.58308 0.69501 0.30534
 C1084 C 0.57097 0.68663 0.29326
 C1085 C 0.55883 0.71044 0.28984
 C1086 C 0.55639 0.69583 0.30183
 C1087 C 0.57095 0.71882 0.30191
 C1088 C 0.56873 0.70408 0.31404
 C1089 C 0.59672 0.68652 0.31387
 C1090 C 0.60805 0.67962 0.32077
 C1091 C 0.54545 0.71912 0.28110
 C1092 C 0.53458 0.72636 0.27382
 H1093 H 0.57488 0.70035 0.26752
 H1094 H 0.59763 0.71521 0.28995
 H1095 H 0.57113 0.67329 0.28980
 H1096 H 0.54427 0.69026 0.30522
 H1097 H 0.57079 0.73216 0.30538
 H1098 H 0.56705 0.70510 0.32767
 C1099 C 0.57620 0.20628 0.78239
 C1100 C 0.58439 0.21215 0.79874
 C1101 C 0.58337 0.19431 0.80540
 C1102 C 0.57539 0.18831 0.78917
 C1103 C 0.55905 0.20972 0.78999
 C1104 C 0.55803 0.19189 0.79664
 C1105 C 0.56703 0.21572 0.80622
 C1106 C 0.56623 0.19775 0.81301
 C1107 C 0.59704 0.18583 0.81387
 C1108 C 0.60842 0.17894 0.82075
 C1109 C 0.54563 0.21841 0.78132
 C1110 C 0.53473 0.22565 0.77408
 H1111 H 0.58016 0.20988 0.76971
 H1112 H 0.59537 0.22038 0.79970
 H1113 H 0.57899 0.17694 0.78225
 H1114 H 0.54704 0.18365 0.79568
 H1115 H 0.56344 0.22709 0.81314
 H1116 H 0.56228 0.19415 0.82569
 C1117 C 1.06213 0.71038 0.80890
 C1118 C 1.06500 0.69135 0.80878
 C1119 C 1.08353 0.69436 0.80546
 C1120 C 1.08087 0.71324 0.80571
 C1121 C 1.05924 0.70984 0.79007
 C1122 C 1.07778 0.71284 0.78676
 C1123 C 1.06190 0.69096 0.78981
 C1124 C 1.08064 0.69383 0.78663
 C1125 C 1.09719 0.68584 0.81392
 C1126 C 1.10854 0.67893 0.82079
 C1127 C 1.04584 0.71857 0.78141
 C1128 C 1.03495 0.72584 0.77418
 H1129 H 1.05437 0.71728 0.81796
 H1130 H 1.05991 0.68242 0.81793
 H1131 H 1.08883 0.72231 0.81234
 H1132 H 1.08288 0.72177 0.77762
 H1133 H 1.05394 0.68189 0.78318
 H1134 H 1.08840 0.68693 0.77757
 C1135 C 1.07523 0.20341 0.28150
 C1136 C 1.08567 0.21082 0.29580
 C1137 C 1.08369 0.19449 0.30543
 C1138 C 1.07344 0.18695 0.29125
 C1139 C 1.05942 0.20992 0.28996
 C1140 C 1.05741 0.19359 0.29958
 C1141 C 1.06967 0.21746 0.30414
 C1142 C 1.06788 0.20100 0.31390
 C1143 C 1.09733 0.18599 0.31394
 C1144 C 1.10867 0.17908 0.32083
 C1145 C 1.04602 0.21861 0.28125
 C1146 C 1.03514 0.22585 0.27397
 H1147 H 1.07810 0.20449 0.26808
 H1148 H 1.09744 0.21781 0.29434
 H1149 H 1.07514 0.17430 0.28605
 H1150 H 1.04564 0.18661 0.30104
 H1151 H 1.06797 0.23011 0.30935
 H1152 H 1.06502 0.19991 0.32732
 C1153 C 0.55642 0.30118 0.69527
 C1154 C 0.56843 0.31382 0.70337
 C1155 C 0.58306 0.30508 0.69480
 C1156 C 0.57128 0.29259 0.68656
 C1157 C 0.55883 0.28963 0.71023
 C1158 C 0.57347 0.28090 0.70165
 C1159 C 0.57062 0.30213 0.71847
 C1160 C 0.58546 0.29353 0.70976
 C1161 C 0.59668 0.31359 0.68630
 C1162 C 0.60801 0.32048 0.67941
 C1163 C 0.54546 0.28093 0.71892
 C1164 C 0.53460 0.27366 0.72617
 H1165 H 0.54433 0.30423 0.68940
 H1166 H 0.56650 0.32745 0.70398
 H1167 H 0.57170 0.28876 0.67334
 H1168 H 0.57540 0.26727 0.70104
 H1169 H 0.57020 0.30596 0.73169
 H1170 H 0.59754 0.29047 0.71563
 C1171 C 0.55645 0.80463 0.19768
 C1172 C 0.57076 0.81412 0.20631
 C1173 C 0.58318 0.80565 0.19456
 C1174 C 0.56909 0.79629 0.18580
 C1175 C 0.55889 0.79025 0.20995
 C1176 C 0.57131 0.78178 0.19821
 C1177 C 0.57299 0.79960 0.21871
 C1178 C 0.58561 0.79127 0.20684
 C1179 C 0.59683 0.81412 0.18609
 C1180 C 0.60819 0.82099 0.17921
 C1181 C 0.54549 0.78156 0.21862
 C1182 C 0.53460 0.77431 0.22584
 H1183 H 0.54430 0.81002 0.19401
 H1184 H 0.57069 0.82751 0.20955
 H1185 H 0.56764 0.79503 0.17217
 H1186 H 0.57139 0.76839 0.19497
 H1187 H 0.57445 0.80087 0.23234
 H1188 H 0.59775 0.78587 0.21051
 C1189 C 1.07730 0.29048 0.21621
 C1190 C 1.08330 0.28664 0.19837
 C1191 C 1.08347 0.30534 0.19466
 C1192 C 1.07767 0.30931 0.21237
 C1193 C 1.05926 0.28983 0.21008
 C1194 C 1.05942 0.30854 0.20637
 C1195 C 1.06506 0.28586 0.19236
 C1196 C 1.06543 0.30470 0.18851
 C1197 C 1.09707 0.31387 0.18616
 C1198 C 1.10839 0.32079 0.17927
 C1199 C 1.04591 0.28110 0.21876
 C1200 C 1.03505 0.27382 0.22600
 H1201 H 1.08204 0.28455 0.22770
 H1202 H 1.09327 0.27773 0.19499
 H1203 H 1.08301 0.31905 0.22051
 H1204 H 1.04945 0.31744 0.20975
 H1205 H 1.05972 0.27612 0.18423
 H1206 H 1.06071 0.31064 0.17702
 C1207 C 1.07540 0.79542 0.71874
 C1208 C 1.08514 0.78852 0.70368
 C1209 C 1.08337 0.80544 0.69508
 C1210 C 1.07383 0.81248 0.71002
 C1211 C 1.05913 0.78995 0.71047
 C1212 C 1.05734 0.80687 0.70188
 C1213 C 1.06867 0.78291 0.69554
 C1214 C 1.06710 0.79997 0.68680
 C1215 C 1.09699 0.81396 0.68661
 C1216 C 1.10832 0.82087 0.67973
 C1217 C 1.04576 0.78122 0.71913
 C1218 C 1.03489 0.77395 0.72636
 H1219 H 1.07867 0.79346 0.73197
 H1220 H 1.09672 0.78106 0.70433
 H1221 H 1.07610 0.82474 0.71588
 H1222 H 1.04575 0.81432 0.70123
 H1223 H 1.06640 0.77066 0.68968
 H1224 H 1.06384 0.80194 0.67357
 C1225 C 0.43385 0.71554 0.69337
 C1226 C 0.43437 0.69722 0.68756
 C1227 C 0.41689 0.69471 0.69473
 C1228 C 0.41617 0.71290 0.70041
 C1229 C 0.44111 0.71018 0.71016
 C1230 C 0.42362 0.70767 0.71732
 C1231 C 0.44184 0.69199 0.70449
 C1232 C 0.42414 0.68935 0.71152
 C1233 C 0.40327 0.68620 0.68624
 C1234 C 0.39195 0.67931 0.67935
 C1235 C 0.45447 0.71890 0.71885
 C1236 C 0.46533 0.72617 0.72609
 H1237 H 0.43800 0.72641 0.68601
 H1238 H 0.43864 0.69282 0.67522
 H1239 H 0.40546 0.72141 0.69865
 H1240 H 0.41935 0.71206 0.72966
 H1241 H 0.45256 0.68349 0.70626
 H1242 H 0.42000 0.67848 0.71889
 C1243 C 0.42530 0.21819 0.20379
 C1244 C 0.42703 0.20859 0.18723
 C1245 C 0.41690 0.19430 0.19471
 C1246 C 0.41497 0.20377 0.21114
 C1247 C 0.44119 0.20971 0.21008
 C1248 C 0.43106 0.19542 0.21756
 C1249 C 0.44314 0.20025 0.19365
 C1250 C 0.43279 0.18581 0.20100
 C1251 C 0.40325 0.18581 0.18625
 C1252 C 0.39189 0.17894 0.17938
 C1253 C 0.45459 0.21840 0.21874
 C1254 C 0.46548 0.22565 0.22596
 H1255 H 0.42237 0.23160 0.20503
 H1256 H 0.42522 0.21392 0.17466
 H1257 H 0.40324 0.20512 0.21824
 H1258 H 0.43287 0.19009 0.23013
 H1259 H 0.45488 0.19890 0.18656
 H1260 H 0.43572 0.17240 0.19975
 C1261 C -0.07488 0.71897 0.20404
 C1262 C -0.07309 0.70940 0.18747
 C1263 C -0.08317 0.69506 0.19492
 C1264 C -0.08516 0.70449 0.21136
 C1265 C -0.05896 0.71055 0.21034
 C1266 C -0.06904 0.69620 0.21779
 C1267 C -0.05696 0.70112 0.19390
 C1268 C -0.06725 0.68663 0.20122
 C1269 C -0.09677 0.68652 0.18644
 C1270 C -0.10809 0.67961 0.17955
 C1271 C -0.04560 0.71928 0.21902
 C1272 C -0.03474 0.72655 0.22626
 H1273 H -0.07787 0.73237 0.20530
 H1274 H -0.07491 0.71474 0.17491
 H1275 H -0.09690 0.70579 0.21845
 H1276 H -0.06722 0.69087 0.23035
 H1277 H -0.04521 0.69983 0.18682
 H1278 H -0.06427 0.67323 0.19996
 C1279 C -0.05935 0.19144 0.70647
 C1280 C -0.07761 0.19069 0.71248
 C1281 C -0.08338 0.19468 0.69476
 C1282 C -0.06534 0.19529 0.68862
 C1283 C -0.05917 0.21014 0.71020
 C1284 C -0.06494 0.21413 0.69249
 C1285 C -0.07721 0.20951 0.71633
 C1286 C -0.08319 0.21338 0.69850
 C1287 C -0.09700 0.18617 0.68626
 C1288 C -0.10832 0.17927 0.67937
 C1289 C -0.04580 0.21885 0.71890
 C1290 C -0.03494 0.22611 0.72614
 H1291 H -0.04940 0.18252 0.70985
 H1292 H -0.08296 0.18095 0.72060
 H1293 H -0.06062 0.18935 0.67713
 H1294 H -0.05958 0.22387 0.68437
 H1295 H -0.08194 0.21546 0.72783
 H1296 H -0.09314 0.22230 0.69512
 C1297 C 0.29084 0.42340 0.28347
 C1298 C 0.30952 0.42324 0.28798
 C1299 C 0.30503 0.41701 0.30542
 C1300 C 0.28647 0.41698 0.30103
 C1301 C 0.28962 0.44129 0.28995
 C1302 C 0.28512 0.43507 0.30739
 C1303 C 0.30818 0.44134 0.29434
 C1304 C 0.30381 0.43490 0.31191
 C1305 C 0.31351 0.40336 0.31393
 C1306 C 0.32040 0.39201 0.32082
 C1307 C 0.28094 0.45469 0.28124
 C1308 C 0.27370 0.46558 0.27396
 H1309 H 0.28541 0.41882 0.27168
 H1310 H 0.31966 0.41822 0.28010
 H1311 H 0.27764 0.40681 0.30387
 H1312 H 0.27498 0.44009 0.31527
 H1313 H 0.31700 0.45151 0.29149
 H1314 H 0.30924 0.43947 0.32371
 C1315 C 0.29197 -0.06065 0.80880
 C1316 C 0.28722 -0.07924 0.80773
 C1317 C 0.30562 -0.08362 0.80528
 C1318 C 0.31052 -0.06524 0.80648
 C1319 C 0.29015 -0.05933 0.78988
 C1320 C 0.30856 -0.06370 0.78742
 C1321 C 0.28527 -0.07771 0.78869
 C1322 C 0.30380 -0.08229 0.78636
 C1323 C 0.31414 -0.09727 0.81376
 C1324 C 0.32104 -0.10862 0.82064
 C1325 C 0.28144 -0.04593 0.78120
 C1326 C 0.27416 -0.03504 0.77397
 H1327 H 0.28701 -0.05159 0.81792
 H1328 H 0.27853 -0.08578 0.81618
 H1329 H 0.32100 -0.06026 0.81389
 H1330 H 0.31724 -0.05716 0.77897
 H1331 H 0.27479 -0.08270 0.78128
 H1332 H 0.30876 -0.09134 0.77723
 C1333 C 0.78497 0.43388 0.80694
 C1334 C 0.78730 0.41609 0.80002
 C1335 C 0.80558 0.41658 0.80541
 C1336 C 0.80339 0.43416 0.81247
 C1337 C 0.79017 0.44090 0.79001
 C1338 C 0.80845 0.44140 0.79539
 C1339 C 0.79236 0.42332 0.78297
 C1340 C 0.81078 0.42361 0.78848
 C1341 C 0.81407 0.40291 0.81388
 C1342 C 0.82096 0.39154 0.82075
 C1343 C 0.78148 0.45432 0.78133
 C1344 C 0.77424 0.46522 0.77409
 H1345 H 0.77427 0.43826 0.81444
 H1346 H 0.77870 0.40553 0.80202
 H1347 H 0.80803 0.43847 0.82469
 H1348 H 0.81705 0.45197 0.79339
 H1349 H 0.78773 0.41900 0.77074
 H1350 H 0.82148 0.41923 0.78098
 C1351 C 0.78501 -0.06619 0.30717
 C1352 C 0.78735 -0.08400 0.30030
 C1353 C 0.80563 -0.08347 0.30568
 C1354 C 0.80343 -0.06588 0.31269
 C1355 C 0.79019 -0.05921 0.29022
 C1356 C 0.80847 -0.05867 0.29560
 C1357 C 0.79240 -0.07681 0.28322
 C1358 C 0.81082 -0.07649 0.28873
 C1359 C 0.81414 -0.09711 0.31418
 C1360 C 0.82105 -0.10846 0.32107
 C1361 C 0.78150 -0.04582 0.28151
 C1362 C 0.77426 -0.03493 0.27424
 H1363 H 0.77430 -0.06181 0.31466
 H1364 H 0.77876 -0.09456 0.30232
 H1365 H 0.80806 -0.06154 0.32491
 H1366 H 0.81706 -0.04811 0.29357
 H1367 H 0.78777 -0.08116 0.27101
 H1368 H 0.82152 -0.08087 0.28124
 C1369 C 0.30850 0.56129 0.71028
 C1370 C 0.30795 0.56445 0.69133
 C1371 C 0.30505 0.58299 0.69474
 C1372 C 0.30573 0.58004 0.71355
 C1373 C 0.28960 0.55878 0.71019
 C1374 C 0.28671 0.57733 0.71358
 C1375 C 0.28891 0.56173 0.69138
 C1376 C 0.28615 0.58048 0.69465
 C1377 C 0.31356 0.59660 0.68623
 C1378 C 0.32046 0.60793 0.67934
 C1379 C 0.28089 0.54542 0.71889
 C1380 C 0.27363 0.53457 0.72615
 H1381 H 0.31759 0.55324 0.71681
 H1382 H 0.31678 0.55931 0.68209
 H1383 H 0.31274 0.58772 0.72257
 H1384 H 0.27788 0.58248 0.72283
 H1385 H 0.28189 0.55405 0.68236
 H1386 H 0.27706 0.58853 0.68812
 C1387 C 0.28175 1.07586 0.20508
 C1388 C 0.29724 1.08507 0.21171
 C1389 C 0.30529 1.08347 0.19451
 C1390 C 0.28993 1.07446 0.18774
 C1391 C 0.28982 1.05927 0.20995
 C1392 C 0.29787 1.05766 0.19275
 C1393 C 0.30518 1.06829 0.21672
 C1394 C 0.31337 1.06689 0.19938
 C1395 C 0.31381 1.09707 0.18600
 C1396 C 0.32072 1.10839 0.17910
 C1397 C 0.28110 1.04592 0.21865
 C1398 C 0.27384 1.03506 0.22591
 H1399 H 0.26865 1.07940 0.20751
 H1400 H 0.29707 1.09649 0.21941
 H1401 H 0.28375 1.07715 0.17574
 H1402 H 0.29803 1.04623 0.18506
 H1403 H 0.31136 1.06560 0.22872
 H1404 H 0.32647 1.06336 0.19694
 C1405 C 0.80892 0.56114 0.21026
 C1406 C 0.80833 0.56438 0.19133
 C1407 C 0.80541 0.58290 0.19481
 C1408 C 0.80613 0.57987 0.21360
 C1409 C 0.79002 0.55860 0.21019
 C1410 C 0.78711 0.57713 0.21366
 C1411 C 0.78930 0.56162 0.19140
 C1412 C 0.78651 0.58036 0.19474
 C1413 C 0.81387 0.59656 0.18634
 C1414 C 0.82072 0.60792 0.17947
 C1415 C 0.78135 0.54520 0.21886
 C1416 C 0.77411 0.53430 0.22608
 H1417 H 0.81803 0.55308 0.21674
 H1418 H 0.81716 0.55929 0.18204
 H1419 H 0.81314 0.58753 0.22264
 H1420 H 0.77828 0.58222 0.22294
 H1421 H 0.78228 0.55397 0.18236
 H1422 H 0.77739 0.58841 0.18827
 C1423 C 0.78263 1.06921 0.69611
 C1424 C 0.78902 1.08530 0.70444
 C1425 C 0.80552 1.08331 0.69510
 C1426 C 0.79927 1.06742 0.68663
 C1427 C 0.79001 1.05908 0.71047
 C1428 C 0.80652 1.05708 0.70113
 C1429 C 0.79627 1.07497 0.71894
 C1430 C 0.81291 1.07319 0.70946
 C1431 C 0.81406 1.09692 0.68663
 C1432 C 0.82097 1.10825 0.67975
 C1433 C 0.78128 1.04572 0.71913
 C1434 C 0.77399 1.03486 0.72635
 H1435 H 0.77009 1.06743 0.69071
 H1436 H 0.78191 1.09705 0.70571
 H1437 H 0.80060 1.06448 0.67325
 H1438 H 0.81362 1.04533 0.69987
 H1439 H 0.79494 1.07793 0.73232
 H1440 H 0.82545 1.07497 0.71486
 C1441 C 0.69136 0.55962 0.29247
 C1442 C 0.69419 0.56461 0.31081
 C1443 C 0.69485 0.58291 0.30550
 C1444 C 0.69188 0.57813 0.28730
 C1445 C 0.71025 0.55860 0.29004
 C1446 C 0.71090 0.57690 0.28475
 C1447 C 0.71322 0.56338 0.30825
 C1448 C 0.71374 0.58189 0.30307
 C1449 C 0.68637 0.59658 0.31400
 C1450 C 0.67949 0.60795 0.32088
 C1451 C 0.71892 0.54520 0.28133
 C1452 C 0.72616 0.53430 0.27406
 H1453 H 0.68225 0.55030 0.28801
 H1454 H 0.68723 0.55971 0.32163
 H1455 H 0.68301 0.58434 0.27878
 H1456 H 0.71786 0.58181 0.27393
 H1457 H 0.72209 0.55717 0.31676
 H1458 H 0.72285 0.59120 0.30753
 C1459 C 0.71745 1.07633 0.79366
 C1460 C 0.70118 1.08465 0.78766
 C1461 C 0.69432 1.08355 0.80541
 C1462 C 0.71046 1.07543 0.81153
 C1463 C 0.70981 1.05925 0.79003
 C1464 C 0.70295 1.05814 0.80777
 C1465 C 0.69367 1.06737 0.78391
 C1466 C 0.68667 1.06648 0.80179
 C1467 C 0.68579 1.09721 0.81387
 C1468 C 0.67888 1.10857 0.82074
 C1469 C 0.71854 1.04585 0.78137
 C1470 C 0.72582 1.03495 0.77415
 H1471 H 0.73020 1.08024 0.79022
 H1472 H 0.70036 1.09571 0.77949
 H1473 H 0.71726 1.07890 0.82298
 H1474 H 0.70378 1.04708 0.81594
 H1475 H 0.68687 1.06391 0.77246
 H1476 H 0.67392 1.06258 0.80522
 C1477 C 0.21712 0.56916 0.80435
 C1478 C 0.21075 0.58528 0.79602
 C1479 C 0.19427 0.58340 0.80541
 C1480 C 0.20050 0.56749 0.81387
 C1481 C 0.20968 0.55907 0.79000
 C1482 C 0.19319 0.55718 0.79938
 C1483 C 0.20344 0.57499 0.78155
 C1484 C 0.18682 0.57331 0.79106
 C1485 C 0.18578 0.59708 0.81389
 C1486 C 0.17890 0.60845 0.82077
 C1487 C 0.21837 0.54565 0.78132
 C1488 C 0.22561 0.53474 0.77409
 H1489 H 0.22967 0.56731 0.80971
 H1490 H 0.21788 0.59699 0.79473
 H1491 H 0.19919 0.56456 0.82725
 H1492 H 0.18607 0.54547 0.80067
 H1493 H 0.20475 0.57793 0.76816
 H1494 H 0.17427 0.57517 0.78570
 C1495 C 0.20351 1.07527 0.28149
 C1496 C 0.18700 1.07350 0.29118
 C1497 C 0.19451 1.08370 0.30541
 C1498 C 0.21089 1.08567 0.29585
 C1499 C 0.20996 1.05943 0.28994
 C1500 C 0.21746 1.06963 0.30417
 C1501 C 0.19358 1.05744 0.29949
 C1502 C 0.20095 1.06786 0.31387
 C1503 C 0.18600 1.09734 0.31392
 C1504 C 0.17909 1.10868 0.32082
 C1505 C 0.21865 1.04604 0.28122
 C1506 C 0.22590 1.03515 0.27395
 H1507 H 0.20466 1.07817 0.26808
 H1508 H 0.17438 1.07524 0.28593
 H1509 H 0.21791 1.09743 0.29445
 H1510 H 0.23008 1.06790 0.30942
 H1511 H 0.18656 1.04568 0.30089
 H1512 H 0.19980 1.06497 0.32728
 C1513 C 0.70866 0.42335 0.71694
 C1514 C 0.69007 0.42345 0.71206
 C1515 C 0.69482 0.41689 0.69480
 C1516 C 0.71328 0.41659 0.69956
 C1517 C 0.71027 0.44112 0.71023
 C1518 C 0.71502 0.43456 0.69298
 C1519 C 0.69181 0.44143 0.70548
 C1520 C 0.69642 0.43466 0.68809
 C1521 C 0.68632 0.40327 0.68631
 C1522 C 0.67943 0.39194 0.67942
 C1523 C 0.71898 0.45449 0.71892
 C1524 C 0.72624 0.46535 0.72617
 H1525 H 0.71379 0.41884 0.72890
 H1526 H 0.67972 0.41873 0.71981
 H1527 H 0.72202 0.40622 0.69703
 H1528 H 0.72538 0.43928 0.68523
 H1529 H 0.68308 0.45180 0.70801
 H1530 H 0.69129 0.43915 0.67612
 C1531 C 0.71318 -0.07763 0.21369
 C1532 C 0.69417 -0.08044 0.21392
 C1533 C 0.69459 -0.08328 0.19508
 C1534 C 0.71348 -0.08067 0.19473
 C1535 C 0.71015 -0.05908 0.21046
 C1536 C 0.71058 -0.06192 0.19162
 C1537 C 0.69126 -0.06168 0.21081
 C1538 C 0.69155 -0.06473 0.19184
 C1539 C 0.68604 -0.09688 0.18661
 C1540 C 0.67911 -0.10819 0.17972
 C1541 C 0.71891 -0.04573 0.21911
 C1542 C 0.72621 -0.03487 0.22633
 H1543 H 0.72217 -0.08279 0.22277
 H1544 H 0.68732 -0.08820 0.22299
 H1545 H 0.72252 -0.08863 0.18802
 H1546 H 0.71742 -0.05415 0.18255
 H1547 H 0.68223 -0.05372 0.21753
 H1548 H 0.68256 -0.05958 0.18276
 C1549 C 0.21848 0.42677 0.20145
 C1550 C 0.20607 0.41463 0.20967
 C1551 C 0.19429 0.41699 0.19487
 C1552 C 0.20658 0.42892 0.18652
 C1553 C 0.20973 0.44128 0.21021
 C1554 C 0.19796 0.44366 0.19541
 C1555 C 0.19744 0.42935 0.21855
 C1556 C 0.18554 0.43150 0.20362
 C1557 C 0.18581 0.40333 0.18641
 C1558 C 0.17893 0.39197 0.17955
 C1559 C 0.21843 0.45469 0.21885
 C1560 C 0.22570 0.46557 0.22606
 H1561 H 0.23212 0.42496 0.20066
 H1562 H 0.20931 0.40255 0.21544
 H1563 H 0.21024 0.42859 0.17325
 H1564 H 0.19473 0.45575 0.18964
 H1565 H 0.19378 0.42967 0.23182
 H1566 H 0.17190 0.43330 0.20441
 C1567 C 0.19690 -0.05668 0.69669
 C1568 C 0.20544 -0.07029 0.68609
 C1569 C 0.19471 -0.08345 0.69472
 C1570 C 0.18603 -0.07006 0.70519
 C1571 C 0.21015 -0.05921 0.71016
 C1572 C 0.19942 -0.07238 0.71878
 C1573 C 0.21882 -0.07260 0.69969
 C1574 C 0.20796 -0.08597 0.70819
 C1575 C 0.18621 -0.09707 0.68623
 C1576 C 0.17932 -0.10840 0.67933
 C1577 C 0.21885 -0.04584 0.71885
 C1578 C 0.22611 -0.03497 0.72609
 H1579 H 0.19245 -0.04449 0.69206
 H1580 H 0.20782 -0.06958 0.67255
 H1581 H 0.17245 -0.06918 0.70735
 H1582 H 0.19704 -0.07309 0.73232
 H1583 H 0.23240 -0.07350 0.69753
 H1584 H 0.21242 -0.09816 0.71283
 C1585 C 0.30817 0.28758 0.43739
 C1586 C 0.30363 0.28622 0.41877
 C1587 C 0.30508 0.30517 0.41725
 C1588 C 0.30975 0.30667 0.43566
 C1589 C 0.28967 0.28974 0.44151
 C1590 C 0.29112 0.30869 0.43999
 C1591 C 0.28500 0.28825 0.42310
 C1592 C 0.28658 0.30733 0.42137
 C1593 C 0.31356 0.31366 0.40361
 C1594 C 0.32044 0.32053 0.39227
 C1595 C 0.28099 0.28105 0.45489
 C1596 C 0.27375 0.27380 0.46576
 H1597 H 0.31695 0.27937 0.44412
 H1598 H 0.30886 0.27707 0.40989
 H1599 H 0.32003 0.31434 0.44067
 H1600 H 0.28587 0.31784 0.44887
 H1601 H 0.27473 0.28058 0.41808
 H1602 H 0.27780 0.31554 0.41464
 C1603 C 0.30669 0.78452 -0.06630
 C1604 C 0.29964 0.78711 -0.08399
 C1605 C 0.30531 0.80530 -0.08335
 C1606 C 0.31248 0.80284 -0.06587
 C1607 C 0.28988 0.78992 -0.05908
 C1608 C 0.29553 0.80811 -0.05843
 C1609 C 0.28271 0.79238 -0.07656
 C1610 C 0.28849 0.81070 -0.07612
 C1611 C 0.31380 0.81377 -0.09699
 C1612 C 0.32068 0.82064 -0.10834
 C1613 C 0.28118 0.78126 -0.04569
 C1614 C 0.27392 0.77403 -0.03481
 H1615 H 0.31407 0.77366 -0.06211
 H1616 H 0.30143 0.77857 -0.09465
 H1617 H 0.32482 0.80724 -0.06163
 H1618 H 0.29374 0.81664 -0.04777
 H1619 H 0.27037 0.78799 -0.08081
 H1620 H 0.28111 0.82156 -0.08031
 C1621 C 0.80835 0.28773 -0.06319
 C1622 C 0.80378 0.28639 -0.08180
 C1623 C 0.80523 0.30534 -0.08331
 C1624 C 0.80993 0.30682 -0.06491
 C1625 C 0.78986 0.28989 -0.05904
 C1626 C 0.79130 0.30884 -0.06054
 C1627 C 0.78517 0.28841 -0.07745
 C1628 C 0.78674 0.30749 -0.07916
 C1629 C 0.81370 0.31384 -0.09695
 C1630 C 0.82057 0.32072 -0.10829
 C1631 C 0.78120 0.28118 -0.04566
 C1632 C 0.77398 0.27391 -0.03478
 H1633 H 0.81714 0.27951 -0.05648
 H1634 H 0.80901 0.27725 -0.09070
 H1635 H 0.82021 0.31449 -0.05990
 H1636 H 0.78606 0.31797 -0.05165
 H1637 H 0.77489 0.28074 -0.08246
 H1638 H 0.77794 0.31571 -0.08587
 C1639 C 0.80690 0.78470 0.43418
 C1640 C 0.79983 0.78731 0.41651
 C1641 C 0.80549 0.80549 0.41715
 C1642 C 0.81269 0.80303 0.43462
 C1643 C 0.79010 0.79009 0.44144
 C1644 C 0.79575 0.80828 0.44209
 C1645 C 0.78290 0.79256 0.42397
 C1646 C 0.78868 0.81088 0.42441
 C1647 C 0.81395 0.81397 0.40350
 C1648 C 0.82082 0.82085 0.39215
 C1649 C 0.78143 0.78141 0.45483
 C1650 C 0.77419 0.77417 0.46572
 H1651 H 0.81429 0.77384 0.43835
 H1652 H 0.80160 0.77877 0.40584
 H1653 H 0.82503 0.80743 0.43884
 H1654 H 0.79397 0.81681 0.45276
 H1655 H 0.77056 0.78817 0.41973
 H1656 H 0.78129 0.82174 0.42023
 C1657 C 0.71872 0.30148 0.57103
 C1658 C 0.70423 0.31396 0.56881
 C1659 C 0.69482 0.30519 0.58286
 C1660 C 0.70917 0.29285 0.58528
 C1661 C 0.71028 0.28978 0.55859
 C1662 C 0.70086 0.28102 0.57264
 C1663 C 0.69592 0.30211 0.55615
 C1664 C 0.68637 0.29349 0.57042
 C1665 C 0.68631 0.31367 0.59651
 C1666 C 0.67942 0.32055 0.60786
 C1667 C 0.71900 0.28109 0.54520
 C1668 C 0.72627 0.27384 0.53432
 H1669 H 0.73212 0.30467 0.57113
 H1670 H 0.70552 0.32760 0.56738
 H1671 H 0.71453 0.28913 0.59741
 H1672 H 0.69957 0.26738 0.57407
 H1673 H 0.69058 0.30582 0.54402
 H1674 H 0.67297 0.29030 0.57033
 C1675 C 0.71119 0.80848 1.06239
 C1676 C 0.69210 0.80941 1.06457
 C1677 C 0.69423 0.80521 1.08303
 C1678 C 0.71319 0.80442 1.08106
 C1679 C 0.70969 0.78984 1.05873
 C1680 C 0.71181 0.78564 1.07719
 C1681 C 0.69074 0.79062 1.06069
 C1682 C 0.69273 0.78656 1.07936
 C1683 C 0.68574 0.81367 1.09670
 C1684 C 0.67886 0.82054 1.10807
 C1685 C 0.71840 0.78118 1.04532
 C1686 C 0.72568 0.77395 1.03443
 H1687 H 0.71888 0.81740 1.05527
 H1688 H 0.68390 0.81928 1.05954
 H1689 H 0.72233 0.81018 1.08959
 H1690 H 0.72002 0.77578 1.08223
 H1691 H 0.68160 0.78485 1.05216
 H1692 H 0.68505 0.77763 1.08649
 C1693 C 0.21853 0.29912 1.07283
 C1694 C 0.20608 0.31363 1.07063
 C1695 C 0.19435 0.30517 1.08304
 C1696 C 0.20668 0.29079 1.08543
 C1697 C 0.20978 0.28975 1.05874
 C1698 C 0.19805 0.28129 1.07114
 C1699 C 0.19746 0.30413 1.05633
 C1700 C 0.18559 0.29580 1.06895
 C1701 C 0.18587 0.31365 1.09670
 C1702 C 0.17898 0.32052 1.10806
 C1703 C 0.21847 0.28107 1.04534
 C1704 C 0.22572 0.27382 1.03445
 H1705 H 0.23217 0.30039 1.07428
 H1706 H 0.20929 0.32702 1.07058
 H1707 H 0.21038 0.28540 1.09755
 H1708 H 0.19484 0.26790 1.07121
 H1709 H 0.19376 0.30951 1.04420
 H1710 H 0.17195 0.29453 1.06751
 C1711 C 0.21214 0.78584 0.57711
 C1712 C 0.21386 0.80454 0.58120
 C1713 C 0.19491 0.80570 0.58301
 C1714 C 0.19306 0.78713 0.57913
 C1715 C 0.21026 0.79027 0.55867
 C1716 C 0.19131 0.79143 0.56048
 C1717 C 0.21212 0.80885 0.56256
 C1718 C 0.19303 0.81014 0.56458
 C1719 C 0.18646 0.81418 0.59670
 C1720 C 0.17961 0.82105 0.60808
 C1721 C 0.21892 0.78158 0.54525
 C1722 C 0.22614 0.77432 0.53435
 H1723 H 0.22009 0.77576 0.58211
 H1724 H 0.22304 0.81003 0.58987
 H1725 H 0.18513 0.77829 0.58609
 H1726 H 0.18214 0.78594 0.55181
 H1727 H 0.22005 0.81768 0.55559
 H1728 H 0.18507 0.82023 0.55959
 C1729 C 0.30751 0.70291 0.55725
 C1730 C 0.31163 0.71058 0.57439
 C1731 C 0.30528 0.69469 0.58278
 C1732 C 0.30130 0.68689 0.56586
 C1733 C 0.28991 0.71017 0.55850
 C1734 C 0.28356 0.69429 0.56689
 C1735 C 0.29390 0.71797 0.57543
 C1736 C 0.28768 0.70195 0.58402
 C1737 C 0.31374 0.68618 0.59643
 C1738 C 0.32061 0.67929 0.60778
 C1739 C 0.28125 0.71890 0.54512
 C1740 C 0.27401 0.72618 0.53425
 H1741 H 0.31557 0.70341 0.54610
 H1742 H 0.32327 0.71718 0.57763
 H1743 H 0.30444 0.67401 0.56208
 H1744 H 0.27192 0.68768 0.56366
 H1745 H 0.29076 0.73084 0.57921
 H1746 H 0.27962 0.70147 0.59517
 C1747 C 0.28487 0.21121 1.07706
 C1748 C 0.28661 0.19214 1.07872
 C1749 C 0.30506 0.19438 1.08294
 C1750 C 0.30345 0.21332 1.08149
 C1751 C 0.28965 0.20982 1.05867
 C1752 C 0.30811 0.21206 1.06289
 C1753 C 0.29126 0.19087 1.06011
 C1754 C 0.30986 0.19298 1.06455
 C1755 C 0.31355 0.18588 1.09659
 C1756 C 0.32042 0.17900 1.10794
 C1757 C 0.28097 0.21852 1.04528
 C1758 C 0.27372 0.22578 1.03441
 H1759 H 0.27450 0.21880 1.08206
 H1760 H 0.27786 0.18385 1.08537
 H1761 H 0.30856 0.22246 1.09043
 H1762 H 0.31685 0.22035 1.05624
 H1763 H 0.28615 0.18174 1.05117
 H1764 H 0.32023 0.18538 1.05956
 C1765 C 0.79037 0.71630 1.07670
 C1766 C 0.78647 0.69849 1.08275
 C1767 C 0.80516 0.69469 1.08298
 C1768 C 0.80919 0.71237 1.07713
 C1769 C 0.78972 0.71008 1.05870
 C1770 C 0.80841 0.70628 1.05892
 C1771 C 0.78568 0.69240 1.06455
 C1772 C 0.80451 0.68845 1.06499
 C1773 C 0.81366 0.68622 1.09663
 C1774 C 0.82055 0.67936 1.10799
 C1775 C 0.78102 0.71876 1.04531
 C1776 C 0.77377 0.72601 1.03442
 H1777 H 0.78445 0.72785 1.08137
 H1778 H 0.77753 0.69520 1.09270
 H1779 H 0.81894 0.72049 1.08245
 H1780 H 0.81733 0.70958 1.04897
 H1781 H 0.77592 0.68428 1.05923
 H1782 H 0.81043 0.67691 1.06033
 C1783 C 0.80548 0.19866 0.55642
 C1784 C 0.81403 0.20733 0.57129
 C1785 C 0.80581 0.19479 0.58305
 C1786 C 0.79740 0.18598 0.56840
 C1787 C 0.79038 0.21012 0.55872
 C1788 C 0.78217 0.19758 0.57047
 C1789 C 0.79880 0.21892 0.57337
 C1790 C 0.79072 0.20625 0.58533
 C1791 C 0.81430 0.18635 0.59673
 C1792 C 0.82116 0.17950 0.60811
 C1793 C 0.78168 0.21876 0.54530
 C1794 C 0.77442 0.22597 0.53440
 H1795 H 0.81145 0.19565 0.54438
 H1796 H 0.82722 0.21125 0.57179
 H1797 H 0.79692 0.17235 0.56651
 H1798 H 0.76898 0.19366 0.56999
 H1799 H 0.79928 0.23255 0.57527
 H1800 H 0.78474 0.20927 0.59736
 C1801 C 0.69776 0.71855 0.42973
 C1802 C 0.70637 0.70991 0.41488
 C1803 C 0.69488 0.69490 0.41723
 C1804 C 0.68613 0.70341 0.43188
 C1805 C 0.71031 0.71031 0.44148
 C1806 C 0.69882 0.69529 0.44384
 C1807 C 0.71905 0.70179 0.42683
 C1808 C 0.70743 0.68664 0.42897
 C1809 C 0.68639 0.68641 0.40360
 C1810 C 0.67950 0.67953 0.39226
 C1811 C 0.71900 0.71899 0.45486
 C1812 C 0.72625 0.72623 0.46574
 H1813 H 0.69388 0.73177 0.43019
 H1814 H 0.70939 0.71583 0.40282
 H1815 H 0.67250 0.70398 0.43380
 H1816 H 0.69582 0.68938 0.45591
 H1817 H 0.73268 0.70122 0.42490
 H1818 H 0.71131 0.67342 0.42851
 C1819 C 0.71366 0.19217 -0.06446
 C1820 C 0.69474 0.18884 -0.06517
 C1821 C 0.69460 0.19472 -0.08329
 C1822 C 0.71339 0.19791 -0.08279
 C1823 C 0.71006 0.21010 -0.05903
 C1824 C 0.70992 0.21596 -0.07716
 C1825 C 0.69127 0.20691 -0.05953
 C1826 C 0.69100 0.21265 -0.07786
 C1827 C 0.68610 0.18625 -0.09693
 C1828 C 0.67922 0.17938 -0.10827
 C1829 C 0.71877 0.21876 -0.04565
 C1830 C 0.72604 0.22597 -0.03477
 H1831 H 0.72308 0.18385 -0.05880
 H1832 H 0.68840 0.17760 -0.06040
 H1833 H 0.72240 0.19412 -0.09251
 H1834 H 0.71625 0.22721 -0.08194
 H1835 H 0.68227 0.21071 -0.04981
 H1836 H 0.68159 0.22097 -0.08353
 C1837 C 0.21499 0.69291 -0.06567
 C1838 C 0.19644 0.68786 -0.06556
 C1839 C 0.19471 0.69466 -0.08328
 C1840 C 0.21312 0.69957 -0.08359
 C1841 C 0.21010 0.71011 -0.05902
 C1842 C 0.20836 0.71689 -0.07674
 C1843 C 0.19168 0.70520 -0.05869
 C1844 C 0.18981 0.71185 -0.07662
 C1845 C 0.18623 0.68616 -0.09691
 C1846 C 0.17935 0.67927 -0.10825
 C1847 C 0.21877 0.71881 -0.04564
 C1848 C 0.22599 0.72608 -0.03477
 H1849 H 0.22544 0.68522 -0.06102
 H1850 H 0.19145 0.67582 -0.06112
 H1851 H 0.22184 0.69716 -0.09398
 H1852 H 0.21335 0.72892 -0.08119
 H1853 H 0.18296 0.70761 -0.04830
 H1854 H 0.17936 0.71955 -0.08128
 C1855 C 0.19356 0.21585 0.43357
 C1856 C 0.20097 0.21254 0.41615
 C1857 C 0.19457 0.19461 0.41706
 C1858 C 0.18703 0.19778 0.43427
 C1859 C 0.20994 0.20997 0.44138
 C1860 C 0.20354 0.19204 0.44230
 C1861 C 0.21748 0.20679 0.42417
 C1862 C 0.21095 0.18873 0.42487
 C1863 C 0.18612 0.18615 0.40339
 C1864 C 0.17927 0.17930 0.39201
 C1865 C 0.21860 0.21863 0.45480
 C1866 C 0.22583 0.22586 0.46570
 H1867 H 0.18650 0.22709 0.43730
 H1868 H 0.19982 0.22087 0.40525
 H1869 H 0.17441 0.19398 0.43827
 H1870 H 0.20470 0.18372 0.45320
 H1871 H 0.23009 0.21059 0.42016
 H1872 H 0.21801 0.17749 0.42114
 C1873 C 0.30091 0.42858 0.71887
 C1874 C 0.29231 0.41456 0.70895
 C1875 C 0.30500 0.41698 0.69494
 C1876 C 0.31373 0.43079 0.70473
 C1877 C 0.28956 0.44131 0.71032
 C1878 C 0.30225 0.44374 0.69631
 C1879 C 0.28083 0.42749 0.70053
 C1880 C 0.29365 0.42970 0.68638
 C1881 C 0.31350 0.40330 0.68647
 C1882 C 0.32039 0.39193 0.67960
 C1883 C 0.28086 0.45473 0.71899
 C1884 C 0.27360 0.46564 0.72622
 H1885 H 0.30380 0.42827 0.73233
 H1886 H 0.28831 0.40241 0.71406
 H1887 H 0.32736 0.43200 0.70636
 H1888 H 0.30623 0.45589 0.69121
 H1889 H 0.26721 0.42627 0.69889
 H1890 H 0.29076 0.43001 0.67292
 C1891 C 0.30105 0.92910 0.21835
 C1892 C 0.29243 0.91509 0.20842
 C1893 C 0.30508 0.91754 0.19438
 C1894 C 0.31384 0.93134 0.20417
 C1895 C 0.28967 0.94184 0.20985
 C1896 C 0.30232 0.94430 0.19580
 C1897 C 0.28092 0.92803 0.20006
 C1898 C 0.29370 0.93027 0.18588
 C1899 C 0.31356 0.90388 0.18587
 C1900 C 0.32045 0.89252 0.17898
 C1901 C 0.28100 0.95524 0.21856
 C1902 C 0.27377 0.96614 0.22584
 H1903 H 0.30398 0.92876 0.23179
 H1904 H 0.28845 0.90294 0.21352
 H1905 H 0.32747 0.93254 0.20577
 H1906 H 0.30629 0.95646 0.19071
 H1907 H 0.26729 0.92682 0.19846
 H1908 H 0.29078 0.93060 0.17243
 C1909 C 0.80195 0.42877 0.21831
 C1910 C 0.79334 0.41439 0.20895
 C1911 C 0.80549 0.41681 0.19447
 C1912 C 0.81424 0.43099 0.20370
 C1913 C 0.79005 0.44109 0.20993
 C1914 C 0.80220 0.44353 0.19545
 C1915 C 0.78130 0.42690 0.20069
 C1916 C 0.79358 0.42913 0.18607
 C1917 C 0.81400 0.40317 0.18596
 C1918 C 0.82090 0.39182 0.17907
 C1919 C 0.78135 0.45448 0.21864
 C1920 C 0.77410 0.46536 0.22591
 H1921 H 0.80530 0.42877 0.23167
 H1922 H 0.78979 0.40225 0.21440
 H1923 H 0.82789 0.43252 0.20485
 H1924 H 0.80574 0.45567 0.19000
 H1925 H 0.76766 0.42537 0.19954
 H1926 H 0.79024 0.42912 0.17272
 C1927 C 0.80131 0.92891 0.71893
 C1928 C 0.79272 0.91489 0.70900
 C1929 C 0.80540 0.91733 0.69498
 C1930 C 0.81413 0.93115 0.70478
 C1931 C 0.78994 0.94163 0.71040
 C1932 C 0.80262 0.94409 0.69638
 C1933 C 0.78122 0.92781 0.70060
 C1934 C 0.79403 0.93005 0.68644
 C1935 C 0.81391 0.90368 0.68649
 C1936 C 0.82081 0.89232 0.67961
 C1937 C 0.78123 0.95504 0.71908
 C1938 C 0.77396 0.96593 0.72631
 H1939 H 0.80421 0.92859 0.73238
 H1940 H 0.78874 0.90273 0.71410
 H1941 H 0.82775 0.93237 0.70640
 H1942 H 0.80659 0.95625 0.69129
 H1943 H 0.76760 0.92659 0.69897
 H1944 H 0.79114 0.93037 0.67299
 C1945 C 0.69305 0.56509 0.71491
 C1946 C 0.69958 0.58309 0.71332
 C1947 C 0.69495 0.58291 0.69484
 C1948 C 0.68828 0.56512 0.69630
 C1949 C 0.71037 0.55860 0.71025
 C1950 C 0.70574 0.55841 0.69177
 C1951 C 0.71703 0.57639 0.70879
 C1952 C 0.71227 0.57641 0.69018
 C1953 C 0.68646 0.59658 0.68636
 C1954 C 0.67958 0.60794 0.67949
 C1955 C 0.71906 0.54518 0.71893
 C1956 C 0.72630 0.53428 0.72617
 H1957 H 0.68523 0.56029 0.72518
 H1958 H 0.69696 0.59339 0.72209
 H1959 H 0.67635 0.56064 0.69107
 H1960 H 0.70837 0.54811 0.68301
 H1961 H 0.72895 0.58088 0.71402
 H1962 H 0.72009 0.58122 0.67991
 C1963 C 0.71759 0.06770 0.19507
 C1964 C 0.70052 0.06621 0.18636
 C1965 C 0.69513 0.08257 0.19456
 C1966 C 0.71207 0.08426 0.20312
 C1967 C 0.71053 0.05831 0.21007
 C1968 C 0.70514 0.07467 0.21825
 C1969 C 0.69358 0.05660 0.20150
 C1970 C 0.68806 0.07318 0.20955
 C1971 C 0.68664 0.09620 0.18603
 C1972 C 0.67975 0.10754 0.17912
 C1973 C 0.71920 0.04492 0.21880
 C1974 C 0.72643 0.03404 0.22609
 H1975 H 0.72983 0.06529 0.18921
 H1976 H 0.69852 0.06288 0.17316
 H1977 H 0.71958 0.09579 0.20370
 H1978 H 0.70713 0.07801 0.23145
 H1979 H 0.68608 0.04507 0.20093
 H1980 H 0.67582 0.07559 0.21541
 C1981 C 0.21695 0.56824 0.19490
 C1982 C 0.19987 0.56678 0.18620
 C1983 C 0.19449 0.58313 0.19444
 C1984 C 0.21144 0.58479 0.20300
 C1985 C 0.20990 0.55882 0.20988
 C1986 C 0.20452 0.57517 0.21810
 C1987 C 0.19294 0.55714 0.20132
 C1988 C 0.18744 0.57370 0.20942
 C1989 C 0.18601 0.59679 0.18595
 C1990 C 0.17913 0.60816 0.17908
 C1991 C 0.21857 0.54542 0.21858
 C1992 C 0.22581 0.53452 0.22584
 H1993 H 0.22919 0.56585 0.18902
 H1994 H 0.19786 0.56349 0.17299
 H1995 H 0.21896 0.59631 0.20359
 H1996 H 0.20653 0.57847 0.23132
 H1997 H 0.18544 0.54562 0.20073
 H1998 H 0.17520 0.57610 0.21530
 C1999 C 0.19273 0.06472 0.71493
 C2000 C 0.19924 0.08273 0.71336
 C2001 C 0.19461 0.08257 0.69488
 C2002 C 0.18796 0.06477 0.69632
 C2003 C 0.21007 0.05827 0.71026
 C2004 C 0.20544 0.05809 0.69178
 C2005 C 0.21670 0.07607 0.70882
 C2006 C 0.21194 0.07611 0.69021
 C2007 C 0.18610 0.09624 0.68642
 C2008 C 0.17920 0.10760 0.67955
 C2009 C 0.21878 0.04486 0.71892
 C2010 C 0.22605 0.03396 0.72615
 H2011 H 0.18493 0.05989 0.72519
 H2012 H 0.19660 0.09302 0.72215
 H2013 H 0.17605 0.06028 0.69108
 H2014 H 0.20809 0.04781 0.68300
 H2015 H 0.22861 0.08058 0.71406
 H2016 H 0.21975 0.08095 0.67996
 C2017 C 0.30545 0.55653 0.30027
 C2018 C 0.31324 0.57187 0.29169
 C2019 C 0.30529 0.58306 0.30493
 C2020 C 0.29764 0.56794 0.31365
 C2021 C 0.28982 0.55878 0.28959
 C2022 C 0.28187 0.56997 0.30283
 C2023 C 0.29747 0.57390 0.28088
 C2024 C 0.28966 0.58529 0.29425
 C2025 C 0.31379 0.59670 0.31339
 C2026 C 0.32068 0.60805 0.32025
 C2027 C 0.28110 0.54539 0.28095
 C2028 C 0.27383 0.53451 0.27374
 H2029 H 0.31185 0.54455 0.30264
 H2030 H 0.32623 0.57280 0.28720
 H2031 H 0.29780 0.56564 0.32722
 H2032 H 0.26888 0.56905 0.30732
 H2033 H 0.29731 0.57621 0.26731
 H2034 H 0.28325 0.59727 0.29187
 C2035 C 0.28938 0.07646 0.78460
 C2036 C 0.28656 0.08148 0.80293
 C2037 C 0.30545 0.08244 0.80533
 C2038 C 0.30840 0.07762 0.78712
 C2039 C 0.29003 0.05816 0.78992
 C2040 C 0.30893 0.05911 0.79231
 C2041 C 0.28708 0.06298 0.80812
 C2042 C 0.30611 0.06414 0.81066
 C2043 C 0.31393 0.09608 0.81381
 C2044 C 0.32080 0.10743 0.82068
 C2045 C 0.28135 0.04478 0.78124
 C2046 C 0.27410 0.03390 0.77401
 H2047 H 0.28240 0.08138 0.77379
 H2048 H 0.27745 0.09082 0.80738
 H2049 H 0.31725 0.08379 0.77858
 H2050 H 0.31803 0.04976 0.78785
 H2051 H 0.27822 0.05680 0.81666
 H2052 H 0.31309 0.05923 0.82147
 C2053 C 0.80758 0.55694 0.79778
 C2054 C 0.81230 0.57383 0.78989
 C2055 C 0.80565 0.58270 0.80541
 C2056 C 0.80108 0.56603 0.81343
 C2057 C 0.79023 0.55843 0.79001
 C2058 C 0.78359 0.56730 0.80552
 C2059 C 0.79482 0.57510 0.78200
 C2060 C 0.78831 0.58418 0.79764
 C2061 C 0.81414 0.59634 0.81389
 C2062 C 0.82101 0.60769 0.82076
 C2063 C 0.78154 0.54505 0.78133
 C2064 C 0.77429 0.53417 0.77409
 H2065 H 0.81541 0.54559 0.79773
 H2066 H 0.82419 0.57667 0.78356
 H2067 H 0.80375 0.56246 0.82645
 H2068 H 0.77170 0.56447 0.81186
 H2069 H 0.79214 0.57869 0.76898
 H2070 H 0.78047 0.59552 0.79767
 C2071 C 0.80831 0.05718 0.29642
 C2072 C 0.81182 0.07456 0.28897
 C2073 C 0.80590 0.08251 0.30525
 C2074 C 0.80253 0.06536 0.31284
 C2075 C 0.79044 0.05825 0.28988
 C2076 C 0.78452 0.06621 0.30616
 C2077 C 0.79381 0.07541 0.28230
 C2078 C 0.78802 0.08357 0.29871
 C2079 C 0.81440 0.09615 0.31372
 C2080 C 0.82129 0.10749 0.32059
 C2081 C 0.78172 0.04487 0.28123
 C2082 C 0.77444 0.03400 0.27401
 H2083 H 0.81656 0.04618 0.29539
 H2084 H 0.82314 0.07814 0.28200
 H2085 H 0.80621 0.06138 0.32550
 H2086 H 0.77319 0.06263 0.31313
 H2087 H 0.79013 0.07940 0.26965
 H2088 H 0.77977 0.09457 0.29974
 C2089 C 0.71220 0.43703 0.30827
 C2090 C 0.69311 0.43525 0.30975
 C2091 C 0.69473 0.41681 0.30514
 C2092 C 0.71369 0.41839 0.30380
 C2093 C 0.71017 0.44109 0.28977
 C2094 C 0.71179 0.42265 0.28517
 C2095 C 0.69121 0.43952 0.29111
 C2096 C 0.69270 0.42087 0.28664
 C2097 C 0.68624 0.40317 0.31360
 C2098 C 0.67936 0.39182 0.32047
 C2099 C 0.71887 0.45448 0.28111
 C2100 C 0.72612 0.46536 0.27389
 H2101 H 0.72032 0.44383 0.31707
 H2102 H 0.68533 0.44027 0.31995
 H2103 H 0.72284 0.40955 0.30911
 H2104 H 0.71956 0.41762 0.27497
 H2105 H 0.68207 0.44836 0.28579
 H2106 H 0.68459 0.41408 0.27783
 C2107 C 0.71186 0.93772 0.80852
 C2108 C 0.69277 0.93593 0.80997
 C2109 C 0.69441 0.91749 0.80539
 C2110 C 0.71336 0.91907 0.80407
 C2111 C 0.70985 0.94175 0.79001
 C2112 C 0.71148 0.92331 0.78543
 C2113 C 0.69089 0.94018 0.79132
 C2114 C 0.69240 0.92153 0.78688
 C2115 C 0.68591 0.90385 0.81386
 C2116 C 0.67903 0.89251 0.82073
 C2117 C 0.71856 0.95514 0.78134
 C2118 C 0.72582 0.96601 0.77412
 H2119 H 0.71996 0.94453 0.81732
 H2120 H 0.68497 0.94096 0.82016
 H2121 H 0.72251 0.91025 0.80940
 H2122 H 0.71927 0.91827 0.77525
 H2123 H 0.68175 0.94901 0.78598
 H2124 H 0.68430 0.91471 0.77807
 C2125 C 0.19735 0.42959 0.78175
 C2126 C 0.20597 0.41489 0.79066
 C2127 C 0.19420 0.41729 0.80547
 C2128 C 0.18544 0.43178 0.79669
 C2129 C 0.20963 0.44155 0.79006
 C2130 C 0.19786 0.44396 0.80487
 C2131 C 0.21838 0.42705 0.79884
 C2132 C 0.20648 0.42924 0.81378
 C2133 C 0.18570 0.40366 0.81394
 C2134 C 0.17882 0.39231 0.82082
 C2135 C 0.21833 0.45492 0.78138
 C2136 C 0.22559 0.46579 0.77414
 H2137 H 0.19368 0.42988 0.76848
 H2138 H 0.20921 0.40279 0.78491
 H2139 H 0.17180 0.43358 0.79590
 H2140 H 0.19463 0.45606 0.81061
 H2141 H 0.23202 0.42525 0.79964
 H2142 H 0.21014 0.42895 0.82705
 C2143 C 0.21196 0.93796 0.30832
 C2144 C 0.19287 0.93617 0.30981
 C2145 C 0.19450 0.91773 0.30524
 C2146 C 0.21345 0.91931 0.30388
 C2147 C 0.20991 0.94198 0.28981
 C2148 C 0.21153 0.92353 0.28524
 C2149 C 0.19096 0.94041 0.29116
 C2150 C 0.19245 0.92175 0.28673
 C2151 C 0.18602 0.90410 0.31373
 C2152 C 0.17914 0.89276 0.32062
 C2153 C 0.21860 0.95535 0.28111
 C2154 C 0.22585 0.96623 0.27387
 H2155 H 0.22008 0.94478 0.31710
 H2156 H 0.18510 0.94121 0.32001
 H2157 H 0.22261 0.91048 0.30920
 H2158 H 0.21930 0.91848 0.27504
 H2159 H 0.18181 0.94923 0.28583
 H2160 H 0.18434 0.91493 0.27794
 C2161 C 0.43794 0.28834 0.69159
 C2162 C 0.41923 0.28605 0.69536
 C2163 C 0.41701 0.30499 0.69492
 C2164 C 0.43551 0.30742 0.69101
 C2165 C 0.44133 0.28956 0.71030
 C2166 C 0.43912 0.30850 0.70986
 C2167 C 0.42283 0.28714 0.71420
 C2168 C 0.42040 0.30621 0.71362
 C2169 C 0.40333 0.31348 0.68645
 C2170 C 0.39196 0.32037 0.67958
 C2171 C 0.45475 0.28087 0.71897
 C2172 C 0.46566 0.27362 0.72620
 H2173 H 0.44530 0.28089 0.68263
 H2174 H 0.41090 0.27692 0.68931
 H2175 H 0.44057 0.31585 0.68138
 H2176 H 0.44745 0.31763 0.71591
 H2177 H 0.41776 0.27871 0.72382
 H2178 H 0.41304 0.31365 0.72259
 C2179 C 0.42871 0.80168 0.21820
 C2180 C 0.43095 0.81436 0.20394
 C2181 C 0.41706 0.80561 0.19427
 C2182 C 0.41462 0.79306 0.20840
 C2183 C 0.44136 0.79019 0.20970
 C2184 C 0.42747 0.78144 0.20003
 C2185 C 0.44381 0.80274 0.19558
 C2186 C 0.42971 0.79412 0.18577
 C2187 C 0.40340 0.81410 0.18578
 C2188 C 0.39204 0.82099 0.17890
 C2189 C 0.45476 0.78151 0.21841
 C2190 C 0.46565 0.77427 0.22567
 H2191 H 0.42845 0.80469 0.23163
 H2192 H 0.43222 0.82799 0.20545
 H2193 H 0.40247 0.78917 0.21358
 H2194 H 0.42618 0.76781 0.19852
 H2195 H 0.45597 0.80662 0.19040
 H2196 H 0.42996 0.79111 0.17234
 C2197 C 0.93845 0.28827 0.19118
 C2198 C 0.91973 0.28600 0.19494
 C2199 C 0.91751 0.30493 0.19442
 C2200 C 0.93602 0.30734 0.19053
 C2201 C 0.94182 0.28955 0.20989
 C2202 C 0.93961 0.30849 0.20938
 C2203 C 0.92330 0.28715 0.21377
 C2204 C 0.92089 0.30621 0.21313
 C2205 C 0.90385 0.31341 0.18592
 C2206 C 0.89249 0.32029 0.17903
 C2207 C 0.95522 0.28089 0.21860
 C2208 C 0.96612 0.27366 0.22587
 H2209 H 0.94582 0.28079 0.18225
 H2210 H 0.91140 0.27685 0.18890
 H2211 H 0.94109 0.31574 0.18088
 H2212 H 0.94793 0.31764 0.21541
 H2213 H 0.91822 0.27875 0.22342
 H2214 H 0.91352 0.31369 0.22206
 C2215 C 0.93830 0.78868 0.69168
 C2216 C 0.91958 0.78642 0.69543
 C2217 C 0.91738 0.80535 0.69498
 C2218 C 0.93589 0.80776 0.69109
 C2219 C 0.94167 0.78991 0.71039
 C2220 C 0.93947 0.80884 0.70994
 C2221 C 0.92315 0.78751 0.71427
 C2222 C 0.92075 0.80658 0.71369
 C2223 C 0.90372 0.81386 0.68649
 C2224 C 0.89237 0.82075 0.67961
 C2225 C 0.95507 0.78120 0.71908
 C2226 C 0.96596 0.77393 0.72632
 H2227 H 0.94566 0.78122 0.68273
 H2228 H 0.91124 0.77729 0.68937
 H2229 H 0.94097 0.81618 0.68146
 H2230 H 0.94781 0.81797 0.71600
 H2231 H 0.91806 0.77909 0.72390
 H2232 H 0.91339 0.81403 0.72264
 C2233 C 0.56554 0.28455 0.30674
 C2234 C 0.58340 0.28664 0.29994
 C2235 C 0.58295 0.30499 0.30509
 C2236 C 0.56530 0.30304 0.31203
 C2237 C 0.55868 0.28957 0.28969
 C2238 C 0.55822 0.30793 0.29484
 C2239 C 0.57633 0.29153 0.28276
 C2240 C 0.57609 0.31002 0.28804
 C2241 C 0.59659 0.31348 0.31357
 C2242 C 0.60794 0.32036 0.32044
 C2243 C 0.54529 0.28088 0.28102
 C2244 C 0.53441 0.27363 0.27379
 H2245 H 0.56106 0.27398 0.31434
 H2246 H 0.59390 0.27798 0.30213
 H2247 H 0.56092 0.30787 0.32416
 H2248 H 0.54771 0.31659 0.29264
 H2249 H 0.58073 0.28671 0.27063
 H2250 H 0.58057 0.32058 0.28044
 C2251 C 0.56305 0.78745 0.80815
 C2252 C 0.58158 0.78680 0.80306
 C2253 C 0.58261 0.80571 0.80531
 C2254 C 0.56428 0.80649 0.81053
 C2255 C 0.55836 0.79026 0.78990
 C2256 C 0.55937 0.80917 0.79214
 C2257 C 0.57669 0.78948 0.78468
 C2258 C 0.57791 0.80852 0.78706
 C2259 C 0.59624 0.81420 0.81379
 C2260 C 0.60758 0.82108 0.82067
 C2261 C 0.54499 0.78155 0.78122
 C2262 C 0.53412 0.77429 0.77398
 H2263 H 0.55679 0.77869 0.81673
 H2264 H 0.59087 0.77770 0.80764
 H2265 H 0.55934 0.81359 0.82126
 H2266 H 0.55008 0.81827 0.78756
 H2267 H 0.58164 0.78239 0.77396
 H2268 H 0.58417 0.81727 0.77848
 C2269 C 0.06485 0.30723 0.78508
 C2270 C 0.06469 0.31237 0.80360
 C2271 C 0.08240 0.30551 0.80540
 C2272 C 0.08277 0.30051 0.78702
 C2273 C 0.05815 0.29009 0.78999
 C2274 C 0.07587 0.28324 0.79180
 C2275 C 0.05777 0.29508 0.80837
 C2276 C 0.07570 0.28836 0.81031
 C2277 C 0.09604 0.31400 0.81389
 C2278 C 0.10738 0.32088 0.82077
 C2279 C 0.04477 0.28139 0.78131
 C2280 C 0.03390 0.27414 0.77407
 H2281 H 0.06024 0.31490 0.77460
 H2282 H 0.06025 0.32444 0.80855
 H2283 H 0.09320 0.30284 0.77833
 H2284 H 0.08032 0.27117 0.78685
 H2285 H 0.04734 0.29275 0.81706
 H2286 H 0.08032 0.28070 0.82078
 C2287 C 0.05964 0.79253 0.30890
 C2288 C 0.07823 0.78763 0.30797
 C2289 C 0.08269 0.80598 0.30537
 C2290 C 0.06432 0.81102 0.30644
 C2291 C 0.05841 0.79055 0.28999
 C2292 C 0.06287 0.80890 0.28740
 C2293 C 0.07678 0.78552 0.28893
 C2294 C 0.08144 0.80399 0.28647
 C2295 C 0.09633 0.81446 0.31384
 C2296 C 0.10768 0.82134 0.32071
 C2297 C 0.04502 0.78186 0.28133
 C2298 C 0.03414 0.77460 0.27410
 H2299 H 0.05053 0.78772 0.31803
 H2300 H 0.08469 0.77898 0.31652
 H2301 H 0.05935 0.82160 0.31374
 H2302 H 0.05640 0.81755 0.27884
 H2303 H 0.08176 0.77494 0.28164
 H2304 H 0.09056 0.80880 0.27733
 C2305 C 0.55749 0.70341 0.69247
 C2306 C 0.57475 0.71097 0.68868
 C2307 C 0.58294 0.69487 0.69481
 C2308 C 0.56589 0.68717 0.69846
 C2309 C 0.55860 0.71029 0.71020
 C2310 C 0.56679 0.69419 0.71633
 C2311 C 0.57565 0.71798 0.70654
 C2312 C 0.58404 0.70175 0.71254
 C2313 C 0.59662 0.68637 0.68634
 C2314 C 0.60799 0.67949 0.67947
 C2315 C 0.54518 0.71899 0.71887
 C2316 C 0.53427 0.72624 0.72610
 H2317 H 0.54642 0.70419 0.68431
 H2318 H 0.57818 0.71777 0.67721
 H2319 H 0.56204 0.67440 0.69504
 H2320 H 0.56337 0.68739 0.72780
 H2321 H 0.57952 0.73075 0.70995
 H2322 H 0.59511 0.70098 0.72070
 C2323 C 0.57203 0.19915 0.21847
 C2324 C 0.56978 0.18567 0.20496
 C2325 C 0.58304 0.19435 0.19439
 C2326 C 0.58549 0.20770 0.20777
 C2327 C 0.55873 0.20976 0.20984
 C2328 C 0.57199 0.21843 0.19926
 C2329 C 0.55626 0.19641 0.19646
 C2330 C 0.56974 0.20496 0.18575
 C2331 C 0.59670 0.18587 0.18589
 C2332 C 0.60807 0.17898 0.17901
 C2333 C 0.54532 0.21844 0.21854
 C2334 C 0.53443 0.22568 0.22581
 H2335 H 0.57282 0.19686 0.23202
 H2336 H 0.56902 0.17210 0.20720
 H2337 H 0.59766 0.21225 0.21233
 H2338 H 0.57276 0.23200 0.19702
 H2339 H 0.54408 0.19187 0.19191
 H2340 H 0.56896 0.20725 0.17220
 C2341 C 0.06120 0.71113 0.19126
 C2342 C 0.07995 0.71412 0.19428
 C2343 C 0.08272 0.69526 0.19463
 C2344 C 0.06418 0.69212 0.19147
 C2345 C 0.05845 0.71070 0.21011
 C2346 C 0.06122 0.69183 0.21046
 C2347 C 0.07699 0.71382 0.21326
 C2348 C 0.07997 0.69483 0.21347
 C2349 C 0.09635 0.68675 0.18610
 C2350 C 0.10770 0.67985 0.17920
 C2351 C 0.04507 0.71939 0.21884
 C2352 C 0.03418 0.72664 0.22612
 H2353 H 0.05333 0.71793 0.18223
 H2354 H 0.08780 0.72320 0.18753
 H2355 H 0.05907 0.68310 0.18242
 H2356 H 0.05337 0.68276 0.21721
 H2357 H 0.08212 0.72284 0.22231
 H2358 H 0.08784 0.68803 0.22251
 C2359 C 0.06111 0.21046 0.69147
 C2360 C 0.07985 0.21346 0.69454
 C2361 C 0.08262 0.19459 0.69493
 C2362 C 0.06409 0.19146 0.69173
 C2363 C 0.05831 0.21007 0.71031
 C2364 C 0.06107 0.19120 0.71071
 C2365 C 0.07684 0.21320 0.71351
 C2366 C 0.07981 0.19420 0.71377
 C2367 C 0.09628 0.18608 0.68646
 C2368 C 0.10764 0.17918 0.67958
 C2369 C 0.04490 0.21879 0.71898
 C2370 C 0.03400 0.22606 0.72621
 H2371 H 0.05327 0.21725 0.68240
 H2372 H 0.08772 0.22252 0.68780
 H2373 H 0.05900 0.18242 0.68267
 H2374 H 0.05320 0.18214 0.71745
 H2375 H 0.08194 0.22223 0.72256
 H2376 H 0.08765 0.18742 0.72285
 C2377 C 0.42306 0.71107 0.28424
 C2378 C 0.42187 0.69204 0.28665
 C2379 C 0.41710 0.69489 0.30488
 C2380 C 0.41810 0.71379 0.30259
 C2381 C 0.44137 0.71034 0.28951
 C2382 C 0.43661 0.71319 0.30774
 C2383 C 0.44039 0.69144 0.29179
 C2384 C 0.43541 0.69415 0.31016
 C2385 C 0.40346 0.68639 0.31335
 C2386 C 0.39212 0.67950 0.32022
 C2387 C 0.45476 0.71905 0.28085
 C2388 C 0.46564 0.72631 0.27363
 H2389 H 0.41813 0.71812 0.27348
 H2390 H 0.41565 0.68325 0.27807
 H2391 H 0.40878 0.72289 0.30713
 H2392 H 0.44283 0.72199 0.31631
 H2393 H 0.44971 0.68234 0.28725
 H2394 H 0.44033 0.68710 0.32091
 C2395 C 0.42319 0.21044 0.78476
 C2396 C 0.42196 0.19141 0.78715
 C2397 C 0.41723 0.19424 0.80539
 C2398 C 0.41826 0.21314 0.80313
 C2399 C 0.44151 0.20966 0.79000
 C2400 C 0.43678 0.21250 0.80824
 C2401 C 0.44049 0.19076 0.79225
 C2402 C 0.43555 0.19346 0.81064
 C2403 C 0.40358 0.18575 0.81386
 C2404 C 0.39223 0.17887 0.82073
 C2405 C 0.45489 0.21836 0.78133
 C2406 C 0.46577 0.22561 0.77409
 H2407 H 0.41825 0.21751 0.77403
 H2408 H 0.41571 0.18264 0.77856
 H2409 H 0.40897 0.22225 0.80769
 H2410 H 0.44302 0.22127 0.81682
 H2411 H 0.44978 0.18166 0.78769
 H2412 H 0.44047 0.18638 0.82137
 C2413 C 0.92341 0.71068 0.78480
 C2414 C 0.92217 0.69165 0.78719
 C2415 C 0.91745 0.69449 0.80543
 C2416 C 0.91848 0.71339 0.80317
 C2417 C 0.94173 0.70990 0.79004
 C2418 C 0.93700 0.71274 0.80828
 C2419 C 0.94070 0.69100 0.79230
 C2420 C 0.93576 0.69370 0.81068
 C2421 C 0.90380 0.68600 0.81390
 C2422 C 0.89245 0.67913 0.82078
 C2423 C 0.95512 0.71860 0.78137
 C2424 C 0.96600 0.72585 0.77415
 H2425 H 0.91847 0.71776 0.77407
 H2426 H 0.91592 0.68289 0.77861
 H2427 H 0.90919 0.72250 0.80774
 H2428 H 0.94325 0.72151 0.81686
 H2429 H 0.94999 0.68189 0.78773
 H2430 H 0.94069 0.68662 0.82142
 C2431 C 0.94423 0.19893 0.30528
 C2432 C 0.92890 0.20748 0.31317
 C2433 C 0.91770 0.19431 0.30516
 C2434 C 0.93281 0.18562 0.29740
 C2435 C 0.94195 0.20975 0.28975
 C2436 C 0.93076 0.19658 0.28174
 C2437 C 0.92684 0.21843 0.29752
 C2438 C 0.91544 0.20513 0.28964
 C2439 C 0.90407 0.18581 0.31365
 C2440 C 0.89273 0.17893 0.32053
 C2441 C 0.95533 0.21845 0.28108
 C2442 C 0.96620 0.22571 0.27384
 H2443 H 0.95622 0.19648 0.31161
 H2444 H 0.92798 0.21186 0.32619
 H2445 H 0.93512 0.17203 0.29745
 H2446 H 0.93167 0.19219 0.26873
 H2447 H 0.92453 0.23201 0.29747
 H2448 H 0.90346 0.20759 0.28330
 C2449 C 0.28615 0.28683 0.57743
 C2450 C 0.30508 0.28614 0.58069
 C2451 C 0.30508 0.30505 0.58319
 C2452 C 0.28627 0.30586 0.58013
 C2453 C 0.28967 0.28965 0.55892
 C2454 C 0.28966 0.30855 0.56141
 C2455 C 0.30847 0.28883 0.56197
 C2456 C 0.30860 0.30788 0.56468
 C2457 C 0.31356 0.31353 0.59683
 C2458 C 0.32044 0.32040 0.60818
 C2459 C 0.28098 0.28097 0.54553
 C2460 C 0.27374 0.27374 0.53464
 H2461 H 0.27683 0.27808 0.58253
 H2462 H 0.31152 0.27702 0.58876
 H2463 H 0.27724 0.31295 0.58775
 H2464 H 0.28321 0.31767 0.55334
 H2465 H 0.31750 0.28173 0.55435
 H2466 H 0.31793 0.31663 0.55959
 C2467 C 0.30378 0.80279 0.05584
 C2468 C 0.29535 0.81434 0.06872
 C2469 C 0.30513 0.80561 0.08257
 C2470 C 0.31369 0.79420 0.06991
 C2471 C 0.28973 0.79015 0.05832
 C2472 C 0.29951 0.78143 0.07217
 C2473 C 0.28118 0.80157 0.07099
 C2474 C 0.29108 0.79297 0.08503
 C2475 C 0.31360 0.81411 0.09620
 C2476 C 0.32048 0.82100 0.10754
 C2477 C 0.28106 0.78144 0.04495
 C2478 C 0.27383 0.77418 0.03408
 H2479 H 0.30890 0.80672 0.04369
 H2480 H 0.29374 0.82796 0.06746
 H2481 H 0.32715 0.79126 0.06962
 H2482 H 0.30112 0.76781 0.07344
 H2483 H 0.26771 0.80450 0.07128
 H2484 H 0.28595 0.78903 0.09719
 C2485 C 0.80728 0.29779 0.05675
 C2486 C 0.80056 0.31317 0.06617
 C2487 C 0.80560 0.30499 0.08262
 C2488 C 0.81245 0.28975 0.07342
 C2489 C 0.79014 0.28962 0.05836
 C2490 C 0.79518 0.28145 0.07482
 C2491 C 0.78329 0.30486 0.06757
 C2492 C 0.78846 0.29681 0.08423
 C2493 C 0.81410 0.31346 0.09626
 C2494 C 0.82098 0.32033 0.10760
 C2495 C 0.78143 0.28096 0.04498
 C2496 C 0.77416 0.27374 0.03410
 H2497 H 0.81492 0.29810 0.04529
 H2498 H 0.80287 0.32632 0.06276
 H2499 H 0.82454 0.28364 0.07598
 H2500 H 0.79288 0.26830 0.07824
 H2501 H 0.77120 0.31097 0.06501
 H2502 H 0.78081 0.29650 0.09568
 C2503 C 0.78632 0.78761 0.57737
 C2504 C 0.80518 0.78655 0.58091
 C2505 C 0.80556 0.80548 0.58314
 C2506 C 0.78682 0.80666 0.57981
 C2507 C 0.79015 0.79008 0.55887
 C2508 C 0.79053 0.80901 0.56110
 C2509 C 0.80889 0.78889 0.56221
 C2510 C 0.80941 0.80797 0.56465
 C2511 C 0.81404 0.81396 0.59679
 C2512 C 0.82091 0.82084 0.60814
 C2513 C 0.78147 0.78140 0.54549
 C2514 C 0.77422 0.77416 0.53461
 H2515 H 0.77673 0.77914 0.58246
 H2516 H 0.81130 0.77741 0.58921
 H2517 H 0.77784 0.81407 0.58719
 H2518 H 0.78440 0.81815 0.55280
 H2519 H 0.81787 0.78149 0.55482
 H2520 H 0.81900 0.81643 0.55958
 C2521 C 0.30414 0.69780 0.44349
 C2522 C 0.29577 0.68611 0.43073
 C2523 C 0.30533 0.69486 0.41677
 C2524 C 0.31384 0.70641 0.42931
 C2525 C 0.28992 0.71029 0.44106
 C2526 C 0.29948 0.71904 0.42710
 C2527 C 0.28141 0.69875 0.42852
 C2528 C 0.29111 0.70736 0.41435
 C2529 C 0.31382 0.68637 0.40311
 C2530 C 0.32070 0.67949 0.39175
 C2531 C 0.28123 0.71899 0.45446
 C2532 C 0.27400 0.72625 0.46536
 H2533 H 0.30940 0.69397 0.45563
 H2534 H 0.29434 0.67248 0.43207
 H2535 H 0.32727 0.70947 0.42948
 H2536 H 0.30091 0.73267 0.42575
 H2537 H 0.26799 0.69569 0.42834
 H2538 H 0.28584 0.71120 0.40223
 C2539 C 0.30394 0.19735 0.94376
 C2540 C 0.29560 0.18565 0.93098
 C2541 C 0.30520 0.19439 0.91704
 C2542 C 0.31368 0.20594 0.92959
 C2543 C 0.28973 0.20984 0.94128
 C2544 C 0.29934 0.21857 0.92733
 C2545 C 0.28126 0.19829 0.92873
 C2546 C 0.29099 0.20689 0.91458
 C2547 C 0.31372 0.18588 0.90341
 C2548 C 0.32063 0.17898 0.89208
 C2549 C 0.28102 0.21855 0.95466
 C2550 C 0.27375 0.22581 0.96553
 H2551 H 0.30917 0.19352 0.95591
 H2552 H 0.29416 0.17202 0.93233
 H2553 H 0.32711 0.20900 0.92979
 H2554 H 0.30078 0.23220 0.92598
 H2555 H 0.26783 0.19523 0.92852
 H2556 H 0.28576 0.21072 0.90243
 C2557 C 0.80860 0.70634 0.94112
 C2558 C 0.80473 0.68850 0.93509
 C2559 C 0.80540 0.69468 0.91708
 C2560 C 0.80940 0.71239 0.92290
 C2561 C 0.78990 0.71013 0.94131
 C2562 C 0.79058 0.71630 0.92330
 C2563 C 0.78590 0.69242 0.93549
 C2564 C 0.78670 0.69847 0.91728
 C2565 C 0.81393 0.68618 0.90346
 C2566 C 0.82084 0.67927 0.89213
 C2567 C 0.78117 0.71882 0.95468
 C2568 C 0.77388 0.72607 0.96555
 H2569 H 0.81750 0.70968 0.95107
 H2570 H 0.81065 0.67697 0.93978
 H2571 H 0.81916 0.72050 0.91757
 H2572 H 0.78466 0.72783 0.91859
 H2573 H 0.77614 0.68431 0.94082
 H2574 H 0.77779 0.69514 0.90733
 C2575 C 0.78602 0.21167 0.42281
 C2576 C 0.80473 0.21336 0.41875
 C2577 C 0.80587 0.19440 0.41700
 C2578 C 0.78728 0.19259 0.42086
 C2579 C 0.79041 0.20986 0.44126
 C2580 C 0.79154 0.19090 0.43952
 C2581 C 0.80900 0.21167 0.43741
 C2582 C 0.81027 0.19258 0.43545
 C2583 C 0.81438 0.18590 0.40337
 C2584 C 0.82127 0.17900 0.39203
 C2585 C 0.78170 0.21856 0.45463
 C2586 C 0.77442 0.22582 0.46550
 H2587 H 0.77595 0.21962 0.41775
 H2588 H 0.81025 0.22250 0.41007
 H2589 H 0.77845 0.18465 0.41390
 H2590 H 0.78602 0.18176 0.44820
 H2591 H 0.81783 0.21962 0.44437
 H2592 H 0.82034 0.18463 0.44050
 C2593 C 0.69533 0.30124 0.44353
 C2594 C 0.70344 0.31377 0.43143
 C2595 C 0.69481 0.30499 0.41689
 C2596 C 0.68655 0.29260 0.42878
 C2597 C 0.71027 0.28961 0.44117
 C2598 C 0.70163 0.28084 0.42663
 C2599 C 0.71852 0.30200 0.42928
 C2600 C 0.70975 0.29336 0.41454
 C2601 C 0.68630 0.31347 0.40325
 C2602 C 0.67940 0.32035 0.39190
 C2603 C 0.71899 0.28094 0.45456
 C2604 C 0.72626 0.27372 0.46544
 H2605 H 0.68949 0.30438 0.45561
 H2606 H 0.70409 0.32741 0.43325
 H2607 H 0.67331 0.28883 0.42842
 H2608 H 0.70099 0.26720 0.42480
 H2609 H 0.73176 0.30578 0.42963
 H2610 H 0.71559 0.29021 0.40247
 C2611 C 0.69491 0.80169 0.94369
 C2612 C 0.70306 0.81425 0.93164
 C2613 C 0.69443 0.80553 0.91706
 C2614 C 0.68615 0.79310 0.92889
 C2615 C 0.70985 0.79005 0.94130
 C2616 C 0.70123 0.78134 0.92672
 C2617 C 0.71813 0.80248 0.92947
 C2618 C 0.70937 0.79389 0.91469
 C2619 C 0.68594 0.81405 0.90344
 C2620 C 0.67906 0.82096 0.89210
 C2621 C 0.71854 0.78133 0.95468
 C2622 C 0.72579 0.77406 0.96555
 H2623 H 0.68907 0.80479 0.95577
 H2624 H 0.70371 0.82789 0.93351
 H2625 H 0.67291 0.78934 0.92850
 H2626 H 0.70057 0.76770 0.92484
 H2627 H 0.73137 0.80624 0.92986
 H2628 H 0.71523 0.79078 0.90262
 C2629 C 0.19676 0.30360 0.94385
 C2630 C 0.20532 0.31391 0.93008
 C2631 C 0.19431 0.30533 0.91711
 C2632 C 0.18561 0.29516 0.93067
 C2633 C 0.20976 0.28986 0.94134
 C2634 C 0.19875 0.28128 0.92837
 C2635 C 0.21845 0.30003 0.92778
 C2636 C 0.20731 0.29158 0.91461
 C2637 C 0.18580 0.31385 0.90350
 C2638 C 0.17890 0.32075 0.89217
 C2639 C 0.21847 0.28114 0.95470
 C2640 C 0.22573 0.27387 0.96557
 H2641 H 0.19252 0.30844 0.95603
 H2642 H 0.20793 0.32742 0.93062
 H2643 H 0.17200 0.29325 0.93170
 H2644 H 0.19614 0.26777 0.92782
 H2645 H 0.23206 0.30194 0.92674
 H2646 H 0.21156 0.28674 0.90244
 C2647 C 0.19457 0.80122 0.44351
 C2648 C 0.20243 0.81454 0.43208
 C2649 C 0.19467 0.80586 0.41700
 C2650 C 0.18667 0.79269 0.42820
 C2651 C 0.21012 0.79040 0.44123
 C2652 C 0.20236 0.78173 0.42614
 C2653 C 0.21812 0.80357 0.43003
 C2654 C 0.21022 0.79503 0.41474
 C2655 C 0.18616 0.81438 0.40338
 C2656 C 0.17926 0.82127 0.39205
 C2657 C 0.21883 0.78167 0.45459
 C2658 C 0.22608 0.77439 0.46546
 H2659 H 0.18824 0.80367 0.45549
 H2660 H 0.20237 0.82812 0.43437
 H2661 H 0.17365 0.78832 0.42730
 H2662 H 0.20242 0.76815 0.42384
 H2663 H 0.23114 0.80794 0.43092
 H2664 H 0.21657 0.79258 0.40276
 C2665 C 0.70805 0.71736 0.57641
 C2666 C 0.68967 0.71175 0.57603
 C2667 C 0.69495 0.69485 0.58313
 C2668 C 0.71320 0.70034 0.58370
 C2669 C 0.71036 0.71027 0.55887
 C2670 C 0.71564 0.69337 0.56596
 C2671 C 0.69212 0.70479 0.55828
 C2672 C 0.69726 0.68775 0.56559
 C2673 C 0.68647 0.68636 0.59676
 C2674 C 0.67958 0.67948 0.60810
 C2675 C 0.71905 0.71896 0.54549
 C2676 C 0.72629 0.72621 0.53461
 H2677 H 0.71258 0.72963 0.58071
 H2678 H 0.67890 0.71921 0.58032
 H2679 H 0.72177 0.69841 0.59431
 H2680 H 0.72642 0.68592 0.56167
 H2681 H 0.68355 0.70672 0.54767
 H2682 H 0.69273 0.67548 0.56130
 C2683 C 0.70803 0.21690 0.07591
 C2684 C 0.68966 0.21126 0.07555
 C2685 C 0.69497 0.19436 0.08263
 C2686 C 0.71321 0.19988 0.08320
 C2687 C 0.71034 0.20982 0.05837
 C2688 C 0.71565 0.19293 0.06545
 C2689 C 0.69211 0.20431 0.05779
 C2690 C 0.69728 0.18727 0.06509
 C2691 C 0.68651 0.18586 0.09627
 C2692 C 0.67964 0.17897 0.10761
 C2693 C 0.71900 0.21853 0.04499
 C2694 C 0.72622 0.22580 0.03411
 H2695 H 0.71254 0.22917 0.08022
 H2696 H 0.67888 0.21870 0.07985
 H2697 H 0.72179 0.19796 0.09379
 H2698 H 0.72644 0.18549 0.06115
 H2699 H 0.68353 0.20623 0.04719
 H2700 H 0.69277 0.17499 0.06080
 C2701 C 0.20226 0.69296 0.05697
 C2702 C 0.21010 0.68836 0.07390
 C2703 C 0.19450 0.69498 0.08266
 C2704 C 0.18652 0.69945 0.06595
 C2705 C 0.20994 0.71035 0.05839
 C2706 C 0.19434 0.71697 0.06714
 C2707 C 0.21791 0.70587 0.07511
 C2708 C 0.20218 0.71236 0.08406
 C2709 C 0.18601 0.68652 0.09631
 C2710 C 0.17912 0.67966 0.10766
 C2711 C 0.21864 0.71901 0.04499
 C2712 C 0.22590 0.72623 0.03411
 H2713 H 0.20239 0.68509 0.04568
 H2714 H 0.21649 0.67650 0.07684
 H2715 H 0.17351 0.69671 0.06233
 H2716 H 0.18795 0.72883 0.06421
 H2717 H 0.23091 0.70861 0.07873
 H2718 H 0.20206 0.72025 0.09535
 C2719 C 0.20758 0.21694 0.57640
 C2720 C 0.18921 0.21133 0.57603
 C2721 C 0.19449 0.19444 0.58313
 C2722 C 0.21273 0.19992 0.58369
 C2723 C 0.20989 0.20985 0.55886
 C2724 C 0.21517 0.19295 0.56595
 C2725 C 0.19165 0.20437 0.55828
 C2726 C 0.19679 0.18733 0.56559
 C2727 C 0.18601 0.18595 0.59677
 C2728 C 0.17913 0.17908 0.60811
 C2729 C 0.21857 0.21854 0.54547
 C2730 C 0.22581 0.22579 0.53460
 H2731 H 0.21212 0.22921 0.58069
 H2732 H 0.17844 0.21880 0.58032
 H2733 H 0.22131 0.19800 0.59429
 H2734 H 0.22594 0.18549 0.56166
 H2735 H 0.18307 0.20630 0.54767
 H2736 H 0.19225 0.17506 0.56130
   
