data_POSCAR
  _audit_creation_date              2014-09-24
  _audit_creation_method            'ToBaCCo'
  _symmetry_space_group_name_H-M    'P1'
  _symmetry_Int_Tables_number       1
  _symmetry_cell_setting            triclinic
  loop_
  _symmetry_equiv_pos_as_xyz
 x,y,z
_cell_length_a 48.5209
_cell_length_b 48.2693
_cell_length_c 48.3263
_cell_angle_alpha 88.633000
_cell_angle_beta 88.708400
_cell_angle_gamma 88.327000
loop_
  _atom_site_label
  _atom_site_type_symbol
  _atom_site_fract_x
  _atom_site_fract_y
  _atom_site_fract_z
C1 C 0.72809 0.66008 0.96740
 H2 H 0.74766 0.66175 0.95641
 C3 C 0.70457 0.67385 0.95709
 H4 H 0.70610 0.68638 0.93826
 C5 C 0.70169 0.64041 1.00434
 H6 H 0.70026 0.62663 1.02218
 C7 C 0.67777 0.65374 0.99475
 H8 H 0.65845 0.65035 1.00571
 N9 N 0.72623 0.64360 0.99058
 C10 C 0.80833 0.62803 1.02380
 H11 H 0.80679 0.60589 1.02715
 C12 C 0.83170 0.64138 1.03213
 H13 H 0.84815 0.62950 1.04206
 C14 C 0.78854 0.67056 1.00717
 H15 H 0.77152 0.68183 0.99768
 C16 C 0.81175 0.68478 1.01509
 H17 H 0.81245 0.70698 1.01167
 Zn18 Zn 0.75718 0.62133 1.00152
 N19 N 0.78742 0.64263 1.01145
 C20 C 0.79371 0.59985 0.96062
 N21 N 0.76755 0.59887 0.97126
 C22 C 0.74797 0.58402 0.95898
 C23 C 0.75430 0.56984 0.93463
 C24 C 0.80091 0.58587 0.93651
 C25 C 0.74150 0.61392 1.05646
 C26 C 0.73203 0.60018 1.08031
 C27 C 0.73636 0.55691 1.05618
 C28 C 0.74553 0.57161 1.03259
 N29 N 0.74733 0.59966 1.03305
 H30 H 0.80885 0.61217 0.97023
 H31 H 0.72722 0.58396 0.96764
 H32 H 0.73838 0.55874 0.92462
 H33 H 0.82163 0.58735 0.92789
 H34 H 0.74330 0.63621 1.05623
 H35 H 0.72636 0.61212 1.09837
 H36 H 0.73412 0.53475 1.05506
 H37 H 0.75056 0.56070 1.01379
 C38 C 0.83361 0.67002 1.02770
 C39 C 0.67900 0.67031 0.97061
 C40 C 0.72915 0.57132 1.08037
 C41 C 0.78097 0.57111 0.92303
 C42 C 0.73080 0.33180 0.52612
 H43 H 0.75068 0.32884 0.53564
 C44 C 0.70792 0.31795 0.53702
 H45 H 0.71037 0.30419 0.55484
 C46 C 0.70307 0.35466 0.49233
 H47 H 0.70098 0.36962 0.47549
 C48 C 0.67972 0.34141 0.50266
 H49 H 0.65988 0.34602 0.49351
 N50 N 0.72795 0.34990 0.50429
 C51 C 0.81106 0.36532 0.47189
 H52 H 0.81003 0.38773 0.47221
 C53 C 0.83501 0.35167 0.46238
 H54 H 0.85250 0.36362 0.45541
 C55 C 0.78941 0.32246 0.48052
 H56 H 0.77148 0.31124 0.48743
 C57 C 0.81294 0.30794 0.47076
 H58 H 0.81304 0.28554 0.47040
 Zn59 Zn 0.75798 0.37208 0.49323
 N60 N 0.78903 0.35065 0.48106
 C61 C 0.79264 0.38888 0.53546
 N62 N 0.76730 0.39287 0.52429
 C63 C 0.74798 0.41014 0.53612
 C64 C 0.75424 0.42505 0.55954
 C65 C 0.79964 0.40315 0.55888
 C66 C 0.74406 0.38179 0.43880
 C67 C 0.73397 0.39610 0.41563
 C68 C 0.73138 0.43796 0.44211
 C69 C 0.74195 0.42289 0.46478
 N70 N 0.74729 0.39514 0.46292
 H71 H 0.80737 0.37427 0.52657
 H72 H 0.72765 0.41224 0.52743
 H73 H 0.73878 0.43885 0.56864
 H74 H 0.81989 0.39978 0.56756
 H75 H 0.74862 0.35975 0.43787
 H76 H 0.73082 0.38506 0.39675
 H77 H 0.72636 0.45982 0.44406
 H78 H 0.74514 0.43325 0.48394
 C79 C 0.83605 0.32270 0.46164
 C80 C 0.68197 0.32313 0.52546
 C81 C 0.72685 0.42431 0.41741
 C82 C 0.78041 0.42158 0.57101
 C83 C 0.22619 -0.16673 0.02943
 H84 H 0.24603 -0.16981 0.03899
 C85 C 0.20348 -0.18142 0.03947
 H86 H 0.20601 -0.19592 0.05669
 C87 C 0.19840 -0.14295 -0.00371
 H88 H 0.19622 -0.12739 -0.01999
 C89 C 0.17521 -0.15703 0.00578
 H90 H 0.15541 -0.15242 -0.00346
 N91 N 0.22324 -0.14782 0.00830
 C92 C 0.30624 -0.13088 -0.02364
 H93 H 0.30500 -0.10851 -0.02265
 C94 C 0.33032 -0.14403 -0.03349
 H95 H 0.34770 -0.13173 -0.04009
 C96 C 0.28500 -0.17414 -0.01626
 H97 H 0.26718 -0.18571 -0.00968
 C98 C 0.30868 -0.18816 -0.02638
 H99 H 0.30900 -0.21053 -0.02737
 Zn100 Zn 0.25314 -0.12512 -0.00206
 N101 N 0.28433 -0.14599 -0.01492
 C102 C 0.28788 -0.11003 0.04065
 N103 N 0.26260 -0.10520 0.02958
 C104 C 0.24376 -0.08763 0.04174
 C105 C 0.25058 -0.07309 0.06523
 C106 C 0.29539 -0.09622 0.06417
 C107 C 0.23944 -0.11410 -0.05626
 C108 C 0.22932 -0.09941 -0.07917
 C109 C 0.22592 -0.05821 -0.05171
 C110 C 0.23660 -0.07368 -0.02934
 N111 N 0.24231 -0.10130 -0.03180
 H112 H 0.30221 -0.12489 0.03155
 H113 H 0.22342 -0.08491 0.03318
 H114 H 0.23556 -0.05894 0.07452
 H115 H 0.31562 -0.10020 0.07270
 H116 H 0.24435 -0.13603 -0.05769
 H117 H 0.22664 -0.11018 -0.09830
 H118 H 0.22084 -0.03647 -0.04906
 H119 H 0.23962 -0.06371 -0.00994
 C120 C 0.33166 -0.17295 -0.03504
 C121 C 0.17757 -0.17626 0.02778
 C122 C 0.22158 -0.07129 -0.07688
 C123 C 0.27677 -0.07731 0.07649
 C124 C 0.23353 0.16001 0.46910
 H125 H 0.25257 0.16038 0.45703
 C126 C 0.20957 0.17280 0.45865
 H127 H 0.21025 0.18328 0.43859
 C128 C 0.20885 0.14442 0.50912
 H129 H 0.20836 0.13270 0.52842
 C130 C 0.18450 0.15684 0.49943
 H131 H 0.16569 0.15475 0.51163
 N132 N 0.23265 0.14582 0.49375
 C133 C 0.31493 0.13144 0.52645
 H134 H 0.31354 0.10941 0.53073
 C135 C 0.33803 0.14539 0.53451
 H136 H 0.35444 0.13410 0.54512
 C137 C 0.29491 0.17310 0.50799
 H138 H 0.27787 0.18379 0.49792
 C139 C 0.31784 0.18791 0.51560
 H140 H 0.31833 0.21001 0.51139
 Zn141 Zn 0.26361 0.12372 0.50467
 N142 N 0.29399 0.14534 0.51342
 C143 C 0.29988 0.09986 0.46487
 N144 N 0.27344 0.10039 0.47488
 C145 C 0.25334 0.08669 0.46210
 C146 C 0.25942 0.07225 0.43785
 C147 C 0.30684 0.08555 0.44091
 C148 C 0.25309 0.11728 0.56090
 C149 C 0.24401 0.10463 0.58551
 C150 C 0.23715 0.06268 0.56055
 C151 C 0.24668 0.07608 0.53635
 N152 N 0.25392 0.10307 0.53693
 H153 H 0.31549 0.11126 0.47486
 H154 H 0.23237 0.08788 0.47018
 H155 H 0.24311 0.06215 0.42742
 H156 H 0.32783 0.08586 0.43279
 H157 H 0.25878 0.13879 0.56069
 H158 H 0.24274 0.11661 0.60414
 H159 H 0.23049 0.04150 0.55982
 H160 H 0.24747 0.06520 0.51706
 C161 C 0.33963 0.17391 0.52909
 C162 C 0.18461 0.17068 0.47364
 C163 C 0.23552 0.07716 0.58537
 C164 C 0.28640 0.07204 0.42688
 C165 C 0.16293 0.46197 0.23430
 H166 H 0.16482 0.45266 0.25478
 C167 C 0.17613 0.44942 0.21162
 H168 H 0.18837 0.43058 0.21485
 C169 C 0.14307 0.49675 0.20490
 H170 H 0.12938 0.51456 0.20208
 C171 C 0.15581 0.48485 0.18174
 H172 H 0.15212 0.49381 0.16135
 N173 N 0.14665 0.48513 0.23057
 C174 C 0.13282 0.52410 0.31042
 H175 H 0.11081 0.52776 0.30878
 C176 C 0.14642 0.53315 0.33344
 H177 H 0.13488 0.54400 0.34951
 C178 C 0.17469 0.50555 0.29138
 H179 H 0.18560 0.49492 0.27484
 C180 C 0.18915 0.51416 0.31427
 H181 H 0.21116 0.51015 0.31519
 Zn182 Zn 0.12511 0.49852 0.26090
 N183 N 0.14695 0.51035 0.29010
 C184 C 0.10566 0.45964 0.30048
 N185 N 0.10318 0.46894 0.27385
 C186 C 0.08778 0.45537 0.25559
 C187 C 0.07483 0.43087 0.26375
 C188 C 0.09302 0.43540 0.30947
 C189 C 0.11757 0.55226 0.24106
 C190 C 0.10366 0.57585 0.23090
 C191 C 0.06053 0.55285 0.23903
 C192 C 0.07535 0.52945 0.24882
 N193 N 0.10339 0.52949 0.24919
 H194 H 0.11838 0.47028 0.31458
 H195 H 0.08652 0.46295 0.23439
 H196 H 0.06342 0.41964 0.24885
 H197 H 0.09598 0.42811 0.33053
 H198 H 0.13985 0.55175 0.24187
 H199 H 0.11526 0.59355 0.22369
 H200 H 0.03828 0.55245 0.23821
 H201 H 0.06452 0.51121 0.25575
 C202 C 0.17483 0.52800 0.33562
 C203 C 0.17219 0.46071 0.18495
 C204 C 0.07486 0.57620 0.22966
 C205 C 0.07797 0.42037 0.29082
 C206 C -0.16490 0.03035 0.22603
 H207 H -0.16702 0.04031 0.24581
 C208 C -0.17860 0.04165 0.20304
 H209 H -0.19127 0.06024 0.20559
 C210 C -0.14432 -0.00501 0.19865
 H211 H -0.13039 -0.02275 0.19675
 C212 C -0.15740 0.00567 0.17515
 H213 H -0.15352 -0.00415 0.15546
 N214 N -0.14817 0.00742 0.22346
 C215 C -0.13568 -0.03115 0.30501
 H216 H -0.11359 -0.03462 0.30319
 C217 C -0.14997 -0.04075 0.32848
 H218 H -0.13888 -0.05180 0.34473
 C219 C -0.17710 -0.01279 0.28585
 H220 H -0.18759 -0.00213 0.26905
 C221 C -0.19220 -0.02180 0.30923
 H222 H -0.21428 -0.01803 0.31023
 Zn223 Zn -0.12698 -0.00528 0.25397
 N224 N -0.14929 -0.01733 0.28435
 C225 C -0.10889 0.03402 0.29114
 N226 N -0.10551 0.02452 0.26497
 C227 C -0.08843 0.03722 0.24620
 C228 C -0.07342 0.06006 0.25376
 C229 C -0.09453 0.05687 0.29943
 C230 C -0.11816 -0.05999 0.23953
 C231 C -0.10403 -0.08345 0.22978
 C232 C -0.06208 -0.05764 0.22795
 C233 C -0.07697 -0.03468 0.23817
 N234 N -0.10464 -0.03609 0.24307
 H235 H -0.12309 0.02424 0.30556
 H236 H -0.08669 0.02975 0.22529
 H237 H -0.05992 0.06998 0.23866
 H238 H -0.09755 0.06434 0.32026
 H239 H -0.14013 -0.06057 0.24374
 H240 H -0.11516 -0.10218 0.22650
 H241 H -0.04024 -0.05606 0.22340
 H242 H -0.06651 -0.01566 0.24152
 C243 C -0.17849 -0.03588 0.33085
 C244 C -0.17475 0.02937 0.17706
 C245 C -0.07583 -0.08219 0.22329
 C246 C -0.07652 0.07003 0.28067
 C247 C 0.33216 0.52931 0.73207
 H248 H 0.32892 0.53900 0.75188
 C249 C 0.31801 0.53955 0.70889
 H250 H 0.30374 0.55704 0.71105
 C251 C 0.35592 0.49573 0.70478
 H252 H 0.37131 0.47923 0.70296
 C253 C 0.34238 0.50540 0.68115
 H254 H 0.34722 0.49608 0.66140
 N255 N 0.35083 0.50788 0.72958
 C256 C 0.36728 0.47562 0.81308
 H257 H 0.38956 0.47602 0.81184
 C258 C 0.35419 0.46582 0.83717
 H259 H 0.36658 0.45853 0.85433
 C260 C 0.32425 0.48415 0.79172
 H261 H 0.31275 0.49107 0.77383
 C262 C 0.31028 0.47419 0.81543
 H263 H 0.28799 0.47350 0.81576
 Zn264 Zn 0.37317 0.49749 0.75999
 N265 N 0.35228 0.48488 0.79112
 C266 C 0.38851 0.54008 0.79493
 N267 N 0.39293 0.52907 0.76950
 C268 C 0.40998 0.54132 0.75039
 C269 C 0.42425 0.56496 0.75701
 C270 C 0.40211 0.56374 0.80227
 C271 C 0.38438 0.44312 0.74641
 C272 C 0.39920 0.42022 0.73638
 C273 C 0.44005 0.44770 0.73370
 C274 C 0.42448 0.47010 0.74421
 N275 N 0.39697 0.46761 0.74954
 H276 H 0.37410 0.53084 0.80950
 H277 H 0.41244 0.53274 0.72998
 H278 H 0.43792 0.57437 0.74174
 H279 H 0.39842 0.57226 0.82260
 H280 H 0.36253 0.44169 0.75096
 H281 H 0.38874 0.40105 0.73326
 H282 H 0.46168 0.45015 0.72863
 H283 H 0.43425 0.48954 0.74732
 C284 C 0.32535 0.46513 0.83854
 C285 C 0.32347 0.52775 0.68302
 C286 C 0.42715 0.42263 0.72923
 C287 C 0.42036 0.57625 0.78331
 C288 C 0.66224 0.96902 0.73005
 H289 H 0.66478 0.95807 0.74966
 C290 C 0.67501 0.95864 0.70603
 H291 H 0.68765 0.93981 0.70722
 C292 C 0.64135 1.00590 0.70410
 H293 H 0.62746 1.02374 0.70306
 C294 C 0.65361 0.99622 0.67970
 H295 H 0.64936 1.00713 0.66040
 N296 N 0.64564 0.99221 0.72865
 C297 C 0.63264 1.02481 0.81159
 H298 H 0.61054 1.02810 0.81057
 C299 C 0.64656 1.03318 0.83469
 H300 H 0.63500 1.04308 0.85136
 C301 C 0.67448 1.00851 0.79065
 H302 H 0.68525 0.99923 0.77323
 C303 C 0.68930 1.01646 0.81357
 H304 H 0.71144 1.01319 0.81337
 Zn305 Zn 0.62452 1.00321 0.76028
 N306 N 0.64663 1.01263 0.79023
 C307 C 0.60360 0.96220 0.79700
 N308 N 0.60210 0.97322 0.77090
 C309 C 0.58655 0.96156 0.75143
 C310 C 0.57208 0.93751 0.75782
 C311 C 0.58934 0.93839 0.80429
 C312 C 0.61741 1.05835 0.74482
 C313 C 0.60377 1.08251 0.73567
 C314 C 0.56048 1.05925 0.74124
 C315 C 0.57503 1.03530 0.75006
 N316 N 0.60304 1.03518 0.75105
 H317 H 0.61648 0.97132 0.81204
 H318 H 0.58606 0.97052 0.73070
 H319 H 0.56032 0.92805 0.74199
 H320 H 0.59113 0.92949 0.82498
 H321 H 0.63966 1.05766 0.74604
 H322 H 0.61557 1.10047 0.72967
 H323 H 0.53828 1.05892 0.73962
 H324 H 0.56402 1.01673 0.75547
 C325 C 0.67525 1.02899 0.83601
 C326 C 0.67026 0.97206 0.68045
 C327 C 0.57505 1.08298 0.73352
 C328 C 0.57377 0.92557 0.78446
 C329 C 0.02482 0.23021 -0.17093
 H330 H 0.03454 0.24999 -0.17380
 C331 C 0.03507 0.20711 -0.18523
 H332 H 0.05259 0.20930 -0.19926
 C333 C -0.00876 0.20287 -0.14778
 H334 H -0.02524 0.20098 -0.13253
 C335 C 0.00092 0.17930 -0.16150
 H336 H -0.00838 0.15953 -0.15694
 N337 N 0.00342 0.22765 -0.15245
 C338 C -0.02792 0.31138 -0.13476
 H339 H -0.02763 0.30966 -0.11240
 C340 C -0.03721 0.33597 -0.14756
 H341 H -0.04424 0.35303 -0.13486
 C342 C -0.01950 0.29076 -0.17829
 H343 H -0.01278 0.27298 -0.19011
 C344 C -0.02894 0.31500 -0.19198
 H345 H -0.02945 0.31584 -0.21438
 Zn346 Zn -0.00668 0.25782 -0.12960
 N347 N -0.01894 0.28955 -0.15015
 C348 C 0.03613 0.29182 -0.11358
 N349 N 0.02489 0.26651 -0.10945
 C350 C 0.03691 0.24696 -0.09250
 C351 C 0.06058 0.25299 -0.07802
 C352 C 0.05980 0.29857 -0.09976
 C353 C -0.06082 0.24456 -0.11880
 C354 C -0.08362 0.23458 -0.10413
 C355 C -0.05626 0.23147 -0.06294
 C356 C -0.03399 0.24192 -0.07841
 N357 N -0.03645 0.24740 -0.10600
 H358 H 0.02706 0.30674 -0.12792
 H359 H 0.02813 0.22666 -0.09028
 H360 H 0.06980 0.23738 -0.06441
 H361 H 0.06850 0.31881 -0.10321
 H362 H -0.06225 0.24931 -0.14072
 H363 H -0.10265 0.23180 -0.11490
 H364 H -0.05357 0.22650 -0.04122
 H365 H -0.01465 0.24491 -0.06845
 C366 C -0.03766 0.33799 -0.17650
 C367 C 0.02330 0.18122 -0.18014
 C368 C -0.08131 0.22706 -0.07601
 C369 C 0.07210 0.27915 -0.08160
 C370 C 0.46712 0.22830 0.15882
 H371 H 0.45646 0.24816 0.16099
 C372 C 0.45666 0.20470 0.17222
 H373 H 0.43809 0.20647 0.18499
 C374 C 0.50332 0.20132 0.13831
 H375 H 0.52093 0.19974 0.12435
 C376 C 0.49352 0.17728 0.15118
 H377 H 0.50412 0.15770 0.14732
 N378 N 0.49003 0.22620 0.14215
 C379 C 0.52262 0.30887 0.12783
 H380 H 0.52575 0.30757 0.10566
 C381 C 0.53097 0.33216 0.14150
 H382 H 0.54068 0.34880 0.12983
 C383 C 0.50668 0.28845 0.17012
 H384 H 0.49754 0.27119 0.18118
 C385 C 0.51462 0.31159 0.18465
 H386 H 0.51153 0.31198 0.20688
 Zn387 Zn 0.50112 0.25740 0.12042
 N388 N 0.51062 0.28767 0.14216
 C389 C 0.46009 0.29402 0.09888
 N390 N 0.47124 0.26789 0.09762
 C391 C 0.45970 0.24824 0.08219
 C392 C 0.43557 0.25443 0.06770
 C393 C 0.43618 0.30110 0.08461
 C394 C 0.55587 0.24105 0.11376
 C395 C 0.57996 0.23192 0.10022
 C396 C 0.55693 0.23801 0.05656
 C397 C 0.53305 0.24678 0.07102
 N398 N 0.53287 0.24758 0.09916
 H399 H 0.46914 0.30921 0.11168
 H400 H 0.46876 0.22750 0.08190
 H401 H 0.42615 0.23843 0.05614
 H402 H 0.42711 0.32179 0.08632
 H403 H 0.55516 0.24215 0.13611
 H404 H 0.59784 0.22581 0.11218
 H405 H 0.55668 0.23668 0.03425
 H406 H 0.51462 0.25245 0.05983
 C407 C 0.52694 0.33370 0.17019
 C408 C 0.46968 0.17878 0.16800
 C409 C 0.58054 0.23012 0.07135
 C410 C 0.42342 0.28105 0.06926
 C411 C 0.96441 0.73607 0.66011
 H412 H 0.95522 0.75670 0.66139
 C413 C 0.95203 0.71384 0.67415
 H414 H 0.93343 0.71757 0.68642
 C415 C 0.99864 0.70575 0.64085
 H416 H 1.01610 0.70236 0.62700
 C417 C 0.98690 0.68303 0.65443
 H418 H 0.99565 0.66242 0.65123
 N419 N 0.98716 0.73164 0.64365
 C420 C 1.02393 0.81151 0.62468
 H421 H 1.02610 0.80907 0.60253
 C422 C 1.03415 0.83483 0.63686
 H423 H 1.04410 0.85023 0.62382
 C424 C 1.00845 0.79389 0.66834
 H425 H 0.99874 0.77767 0.68051
 C426 C 1.01835 0.81709 0.68142
 H427 H 1.01619 0.81871 0.70368
 Zn428 Zn 0.99991 0.76097 0.62038
 N429 N 1.01135 0.79165 0.64040
 C430 C 0.96039 0.79859 0.59765
 N431 N 0.97041 0.77198 0.59732
 C432 C 0.95782 0.75227 0.58283
 C433 C 0.93373 0.75891 0.56845
 C434 C 0.93656 0.80612 0.58343
 C435 C 1.05359 0.74115 0.61440
 C436 C 1.07743 0.73096 0.60116
 C437 C 1.05494 0.73742 0.55725
 C438 C 1.03127 0.74723 0.57141
 N439 N 1.03098 0.74849 0.59952
 H440 H 0.97021 0.81384 0.60975
 H441 H 0.96598 0.73117 0.58329
 H442 H 0.92345 0.74288 0.55770
 H443 H 0.92838 0.82720 0.58445
 H444 H 1.05282 0.74270 0.63670
 H445 H 1.09505 0.72444 0.61332
 H446 H 1.05485 0.73597 0.53495
 H447 H 1.01317 0.75361 0.56001
 C448 C 1.03158 0.83772 0.66558
 C449 C 0.96307 0.68691 0.67087
 C450 C 1.07819 0.72894 0.57231
 C451 C 0.92271 0.78605 0.56913
 C452 C 0.52915 0.72767 0.33467
 H453 H 0.53905 0.74741 0.33233
 C454 C 0.53981 0.70464 0.32053
 H455 H 0.55782 0.70685 0.30715
 C456 C 0.49451 0.70041 0.35614
 H457 H 0.47730 0.69856 0.37056
 C458 C 0.50461 0.67689 0.34261
 H459 H 0.49496 0.65718 0.34650
 N460 N 0.50687 0.72518 0.35207
 C461 C 0.46966 0.80730 0.36580
 H462 H 0.46704 0.80551 0.38805
 C463 C 0.45976 0.83095 0.35173
 H464 H 0.44932 0.84725 0.36331
 C465 C 0.48597 0.78782 0.32375
 H466 H 0.49586 0.77078 0.31293
 C467 C 0.47662 0.81133 0.30881
 H468 H 0.47941 0.81188 0.28655
 Zn469 Zn 0.49501 0.75569 0.37377
 N470 N 0.48262 0.78642 0.35177
 C471 C 0.53501 0.79217 0.39127
 N472 N 0.52533 0.76613 0.39481
 C473 C 0.53813 0.74710 0.41174
 C474 C 0.56128 0.75425 0.42648
 C475 C 0.55816 0.80005 0.40534
 C476 C 0.44076 0.74162 0.38348
 C477 C 0.41773 0.73191 0.39799
 C478 C 0.44430 0.72989 0.43971
 C479 C 0.46683 0.74004 0.42444
 N480 N 0.46484 0.74499 0.39669
 H481 H 0.52513 0.80680 0.37716
 H482 H 0.53049 0.72629 0.41361
 H483 H 0.57128 0.73895 0.43988
 H484 H 0.56576 0.82079 0.40220
 H485 H 0.43972 0.74588 0.36144
 H486 H 0.39886 0.72870 0.38709
 H487 H 0.44635 0.72524 0.46159
 H488 H 0.48598 0.74329 0.43466
 C489 C 0.46345 0.83340 0.32288
 C490 C 0.52759 0.67885 0.32473
 C491 C 0.41960 0.72533 0.42626
 C492 C 0.57144 0.78103 0.42323
 C493 C 0.40664 -0.02299 0.27610
 H494 H 0.40738 -0.00371 0.28698
 C495 C 0.42077 -0.04662 0.28627
 H496 H 0.43266 -0.04545 0.30489
 C497 C 0.38916 -0.04854 0.23940
 H498 H 0.37642 -0.04942 0.22143
 C499 C 0.40274 -0.07265 0.24900
 H500 H 0.40048 -0.09175 0.23812
 N501 N 0.39106 -0.02441 0.25314
 C502 C 0.37618 0.05773 0.21568
 H503 H 0.35434 0.05623 0.21219
 C504 C 0.39009 0.08110 0.20618
 H505 H 0.37896 0.09756 0.19518
 C506 C 0.41738 0.03802 0.23410
 H507 H 0.42795 0.02111 0.24484
 C508 C 0.43206 0.06120 0.22512
 H509 H 0.45390 0.06189 0.22897
 Zn510 Zn 0.36856 0.00655 0.24222
 N511 N 0.38986 0.03687 0.22953
 C512 C 0.34589 0.04438 0.28067
 N513 N 0.34686 0.01731 0.27342
 C514 C 0.33485 -0.00255 0.28971
 C515 C 0.32177 0.00450 0.31479
 C516 C 0.33289 0.05230 0.30534
 C517 C 0.35844 -0.00377 0.18719
 C518 C 0.34457 -0.01368 0.16471
 C519 C 0.30581 -0.02371 0.19522
 C520 C 0.32033 -0.01324 0.21718
 N521 N 0.34633 -0.00396 0.21284
 H522 H 0.35589 0.05983 0.26783
 H523 H 0.33634 -0.02400 0.28373
 H524 H 0.31303 -0.01156 0.32797
 H525 H 0.33284 0.07383 0.31118
 H526 H 0.37925 0.00341 0.18438
 H527 H 0.35469 -0.01397 0.14450
 H528 H 0.28547 -0.03178 0.19903
 H529 H 0.31118 -0.01335 0.23777
 C530 C 0.41827 0.08308 0.21110
 C531 C 0.41839 -0.07189 0.27295
 C532 C 0.31823 -0.02433 0.16875
 C533 C 0.32117 0.03219 0.32290
 C534 C 0.08000 1.03242 0.78120
 H535 H 0.07631 1.01232 0.79073
 C536 C 0.06479 1.05577 0.79004
 H537 H 0.04929 1.05347 0.80631
 C538 C 0.10578 1.06013 0.74947
 H539 H 0.12234 1.06201 0.73432
 C540 C 0.09121 1.08395 0.75779
 H541 H 0.09643 1.10391 0.74874
 N542 N 0.10008 1.03499 0.76127
 C543 C 0.11946 0.95228 0.73065
 H544 H 0.14163 0.95332 0.73205
 C545 C 0.10789 0.92907 0.71958
 H546 H 0.12140 0.91233 0.71264
 C547 C 0.07521 0.97333 0.73792
 H548 H 0.06266 0.99084 0.74474
 C549 C 0.06270 0.95030 0.72701
 H550 H 0.04048 0.95008 0.72551
 Zn551 Zn 0.12305 1.00389 0.75236
 N552 N 0.10316 0.97381 0.73952
 C553 C 0.13650 0.96742 0.79655
 N554 N 0.14211 0.99251 0.78465
 C555 C 0.16023 1.00968 0.79615
 C556 C 0.17459 1.00115 0.81980
 C557 C 0.15001 0.95832 0.82036
 C558 C 0.13553 1.02030 0.69855
 C559 C 0.15143 1.02876 0.67571
 C560 C 0.19222 1.02248 0.70319
 C561 C 0.17551 1.01398 0.72559
 N562 N 0.14763 1.01371 0.72304
 H563 H 0.12136 0.95446 0.78776
 H564 H 0.16372 1.02988 0.78675
 H565 H 0.18929 1.01474 0.82851
 H566 H 0.14543 0.93825 0.82957
 H567 H 0.11336 1.01948 0.69701
 H568 H 0.14147 1.03461 0.65651
 H569 H 0.21429 1.02325 0.70564
 H570 H 0.18483 1.00788 0.74495
 C571 C 0.07920 0.92800 0.71744
 C572 C 0.07066 1.08192 0.77845
 C573 C 0.18002 1.03033 0.67807
 C574 C 0.16956 0.97508 0.83194
 C575 C 0.58088 0.53040 0.28077
 H576 H 0.57683 0.51012 0.28970
 C577 C 0.56676 0.55382 0.29098
 H578 H 0.55171 0.55138 0.30765
 C579 C 0.60653 0.55842 0.24923
 H580 H 0.62268 0.56034 0.23363
 C581 C 0.59310 0.58232 0.25897
 H582 H 0.59870 0.60241 0.25050
 N583 N 0.60021 0.53305 0.26011
 C584 C 0.61402 0.45029 0.22697
 H585 H 0.63631 0.45060 0.22633
 C586 C 0.60066 0.42743 0.21731
 H587 H 0.61269 0.41012 0.20909
 C588 C 0.57120 0.47274 0.23804
 H589 H 0.55986 0.49064 0.24576
 C590 C 0.55693 0.45006 0.22869
 H591 H 0.53462 0.45060 0.22933
 Zn592 Zn 0.62129 0.50138 0.24889
 N593 N 0.59929 0.47228 0.23721
 C594 C 0.63670 0.46391 0.29175
 N595 N 0.64225 0.48884 0.27948
 C596 C 0.66165 0.50545 0.28964
 C597 C 0.67709 0.49665 0.31247
 C598 C 0.65136 0.45452 0.31476
 C599 C 0.63126 0.52077 0.19531
 C600 C 0.64642 0.52893 0.17184
 C601 C 0.68824 0.51481 0.19518
 C602 C 0.67226 0.50720 0.21844
 N603 N 0.64432 0.51079 0.21822
 H604 H 0.62063 0.45139 0.28396
 H605 H 0.66519 0.52548 0.27989
 H606 H 0.69262 0.50992 0.32023
 H607 H 0.64671 0.43466 0.32439
 H608 H 0.60900 0.52293 0.19556
 H609 H 0.63583 0.53762 0.15401
 H610 H 0.71046 0.51237 0.19572
 H611 H 0.68219 0.49848 0.23656
 C612 C 0.57183 0.42713 0.21820
 C613 C 0.57306 0.58014 0.28012
 C614 C 0.67520 0.52609 0.17173
 C615 C 0.67196 0.47085 0.32515
 C616 C 0.90199 0.48211 0.77479
 H617 H 0.89905 0.50057 0.78690
 C618 C 0.91654 0.45910 0.78572
 H619 H 0.92498 0.45994 0.80623
 C620 C 0.89295 0.45768 0.73415
 H621 H 0.88307 0.45687 0.71440
 C622 C 0.90757 0.43434 0.74417
 H623 H 0.90883 0.41585 0.73194
 N624 N 0.89011 0.48081 0.74965
 C625 C 0.86982 0.56138 0.71170
 H626 H 0.84836 0.55806 0.70756
 C627 C 0.88194 0.58590 0.70267
 H628 H 0.86965 0.60126 0.69147
 C629 C 0.91168 0.54521 0.73162
 H630 H 0.92310 0.52929 0.74299
 C631 C 0.92464 0.56957 0.72300
 H632 H 0.94610 0.57233 0.72765
 Zn633 Zn 0.86553 0.50990 0.73831
 N634 N 0.88466 0.54173 0.72604
 C635 C 0.83946 0.54625 0.77612
 N636 N 0.84255 0.51918 0.76915
 C637 C 0.83204 0.49860 0.78564
 C638 C 0.81857 0.50493 0.81072
 C639 C 0.82598 0.55345 0.80076
 C640 C 0.85698 0.49893 0.68303
 C641 C 0.84405 0.48822 0.66035
 C642 C 0.80593 0.47523 0.69051
 C643 C 0.81951 0.48647 0.71269
 N644 N 0.84475 0.49764 0.70861
 H645 H 0.84824 0.56233 0.76314
 H646 H 0.83520 0.47720 0.77988
 H647 H 0.81119 0.48835 0.82413
 H648 H 0.82437 0.57503 0.80642
 H649 H 0.87718 0.50766 0.68042
 H650 H 0.85427 0.48884 0.64019
 H651 H 0.78620 0.46576 0.69410
 H652 H 0.81024 0.48558 0.73322
 C653 C 0.90964 0.59023 0.70843
 C654 C 0.91903 0.43477 0.77048
 C655 C 0.81851 0.47577 0.66410
 C656 C 0.81597 0.53264 0.81861
 C657 C 0.27521 0.40135 -0.02001
 H658 H 0.28693 0.39829 -0.00135
 C659 C 0.28625 0.41641 -0.04247
 H660 H 0.30647 0.42512 -0.04102
 C661 C 0.23541 0.39217 -0.04546
 H662 H 0.21595 0.38206 -0.04687
 C663 C 0.24557 0.40729 -0.06828
 H664 H 0.23374 0.40871 -0.08699
 N665 N 0.25042 0.38919 -0.02206
 C666 C 0.21179 0.36830 0.05762
 H667 H 0.20765 0.34682 0.05391
 C668 C 0.20267 0.38029 0.08225
 H669 H 0.19139 0.36788 0.09730
 C670 C 0.23189 0.41033 0.04237
 H671 H 0.24338 0.42186 0.02677
 C672 C 0.22319 0.42315 0.06685
 H673 H 0.22791 0.44461 0.07003
 Zn674 Zn 0.23893 0.36426 0.00649
 N675 N 0.22631 0.38327 0.03839
 C676 C 0.27627 0.33774 0.04297
 N677 N 0.26969 0.34108 0.01586
 C678 C 0.28657 0.33088 -0.00461
 C679 C 0.31172 0.31761 0.00190
 C680 C 0.30095 0.32443 0.05034
 C681 C 0.18410 0.35608 -0.00533
 C682 C 0.16155 0.34313 -0.01606
 C683 C 0.19160 0.30443 -0.02863
 C684 C 0.21366 0.31803 -0.01733
 N685 N 0.20956 0.34355 -0.00634
 H686 H 0.26295 0.34627 0.05897
 H687 H 0.28110 0.33421 -0.02604
 H688 H 0.32546 0.31053 -0.01457
 H689 H 0.30630 0.32268 0.07197
 H690 H 0.18147 0.37648 0.00331
 H691 H 0.14147 0.35355 -0.01557
 H692 H 0.19518 0.28444 -0.03792
 H693 H 0.23410 0.30853 -0.01798
 C694 C 0.20852 0.40798 0.08712
 C695 C 0.27151 0.41912 -0.06705
 C696 C 0.16530 0.31726 -0.02828
 C697 C 0.31924 0.31486 0.02968
 C698 C 0.78491 0.08309 1.03043
 H699 H 0.79396 0.07884 1.01025
 C700 C 0.79481 0.06888 1.05391
 H701 H 0.81136 0.05354 1.05166
 C702 C 0.75327 0.10925 1.05813
 H703 H 0.73772 0.12560 1.05991
 C704 C 0.76268 0.09572 1.08207
 H705 H 0.75401 0.10143 1.10206
 N706 N 0.76433 0.10270 1.03289
 C707 C 0.73153 0.11607 0.95012
 H708 H 0.73086 0.13849 0.95040
 C709 C 0.72195 0.10254 0.92729
 H710 H 0.71375 0.11456 0.90997
 C711 C 0.74258 0.07311 0.97263
 H712 H 0.75025 0.06179 0.99054
 C713 C 0.73327 0.05866 0.94998
 H714 H 0.73389 0.03623 0.95054
 Zn715 Zn 0.75313 0.12367 1.00118
 N716 N 0.74171 0.10134 0.97213
 C717 C 0.79581 0.13851 0.96390
 N718 N 0.78345 0.14468 0.98862
 C719 C 0.79336 0.16461 1.00488
 C720 C 0.81607 0.17991 0.99592
 C721 C 0.81868 0.15301 0.95438
 C722 C 0.69963 0.13323 1.02009
 C723 C 0.67591 0.14812 1.02814
 C724 C 0.69842 0.19052 1.01468
 C725 C 0.72197 0.17479 1.00716
 N726 N 0.72226 0.14669 1.01046
 H727 H 0.78825 0.12203 0.95167
 H728 H 0.78355 0.16864 1.02476
 H729 H 0.82367 0.19586 1.00889
 H730 H 0.82839 0.14785 0.93469
 H731 H 0.70031 0.11085 1.02204
 H732 H 0.65831 0.13719 1.03654
 H733 H 0.69854 0.21288 1.01247
 H734 H 0.73990 0.18503 0.99875
 C735 C 0.72282 0.07356 0.92706
 C736 C 0.78369 0.07536 1.08008
 C737 C 0.67522 0.17707 1.02556
 C738 C 0.82885 0.17408 0.97035
 C739 C 0.28289 0.58144 0.53393
 H740 H 0.29214 0.57723 0.51384
 C741 C 0.29257 0.56719 0.55749
 H742 H 0.30917 0.55189 0.55535
 C743 C 0.25097 0.60753 0.56137
 H744 H 0.23541 0.62388 0.56304
 C745 C 0.26013 0.59394 0.58539
 H746 H 0.25126 0.59963 0.60530
 N747 N 0.26231 0.60106 0.53624
 C748 C 0.23046 0.61485 0.45317
 H749 H 0.22989 0.63726 0.45358
 C750 C 0.22116 0.60150 0.43011
 H751 H 0.21327 0.61367 0.41275
 C752 C 0.24105 0.57172 0.47559
 H753 H 0.24847 0.56027 0.49353
 C754 C 0.23199 0.55745 0.45272
 H755 H 0.23253 0.53503 0.45316
 Zn756 Zn 0.25150 0.62213 0.50445
 N757 N 0.24029 0.59995 0.47524
 C758 C 0.29463 0.63651 0.46761
 N759 N 0.28201 0.64303 0.49211
 C760 C 0.29177 0.66315 0.50822
 C761 C 0.31457 0.67835 0.49927
 C762 C 0.31758 0.65089 0.45811
 C763 C 0.19785 0.63169 0.52276
 C764 C 0.17398 0.64654 0.53046
 C765 C 0.19658 0.68897 0.51725
 C766 C 0.22026 0.67326 0.51009
 N767 N 0.22057 0.64517 0.51343
 H768 H 0.28721 0.61986 0.45552
 H769 H 0.28177 0.66745 0.52795
 H770 H 0.32202 0.69446 0.51211
 H771 H 0.32747 0.64545 0.43859
 H772 H 0.19854 0.60930 0.52473
 H773 H 0.15630 0.63559 0.53862
 H774 H 0.19668 0.71132 0.51500
 H775 H 0.23827 0.68353 0.50190
 C776 C 0.22192 0.57253 0.42971
 C777 C 0.28120 0.57361 0.58358
 C778 C 0.17326 0.67548 0.52780
 C779 C 0.32758 0.67220 0.47388
 C780 C 0.77277 0.90838 0.47602
 H781 H 0.78383 0.90877 0.49519
 C782 C 0.78303 0.92225 0.45241
 H783 H 0.80188 0.93361 0.45352
 C784 C 0.73557 0.89190 0.45068
 H785 H 0.71736 0.87963 0.44989
 C786 C 0.74526 0.90522 0.42659
 H787 H 0.73418 0.90325 0.40760
 N788 N 0.74956 0.89336 0.47469
 C789 C 0.71285 0.87876 0.55686
 H790 H 0.70880 0.85697 0.55503
 C791 C 0.70416 0.89268 0.58058
 H792 H 0.69319 0.88164 0.59699
 C793 C 0.73205 0.91975 0.53769
 H794 H 0.74283 0.93022 0.52087
 C795 C 0.72388 0.93444 0.56124
 H796 H 0.72836 0.95621 0.56230
 Zn797 Zn 0.73867 0.87084 0.50546
 N798 N 0.72673 0.89231 0.53610
 C799 C 0.77683 0.84678 0.54275
 N800 N 0.76961 0.84839 0.51572
 C801 C 0.78586 0.83665 0.49559
 C802 C 0.81089 0.82329 0.50233
 C803 C 0.80144 0.83346 0.55037
 C804 C 0.68347 0.86152 0.49608
 C805 C 0.66079 0.84800 0.48630
 C806 C 0.69089 0.80911 0.47444
 C807 C 0.71306 0.82327 0.48480
 N808 N 0.70900 0.84915 0.49498
 H809 H 0.76401 0.85655 0.55844
 H810 H 0.77991 0.83865 0.47418
 H811 H 0.82406 0.81481 0.48607
 H812 H 0.80725 0.83293 0.57189
 H813 H 0.68087 0.88226 0.50390
 H814 H 0.64066 0.85830 0.48679
 H815 H 0.69447 0.78885 0.46572
 H816 H 0.73357 0.81395 0.48393
 C817 C 0.70991 0.92075 0.58303
 C818 C 0.76952 0.92018 0.42724
 C819 C 0.66451 0.82177 0.47484
 C820 C 0.81900 0.82209 0.52999
 C821 C -0.01821 0.27546 0.40303
 H822 H 0.00042 0.28706 0.40004
 C823 C -0.04121 0.28760 0.41636
 H824 H -0.04000 0.30845 0.42386
 C825 C -0.04274 0.23458 0.39582
 H826 H -0.04346 0.21414 0.38729
 C827 C -0.06608 0.24581 0.40933
 H828 H -0.08462 0.23389 0.41126
 N829 N -0.01953 0.24960 0.39264
 C830 C 0.05925 0.20588 0.38071
 H831 H 0.05642 0.19873 0.35995
 C832 C 0.08277 0.19752 0.39510
 H833 H 0.09789 0.18361 0.38553
 C834 C 0.04337 0.23321 0.41828
 H835 H 0.02806 0.24732 0.42708
 C836 C 0.06676 0.22549 0.43335
 H837 H 0.06916 0.23354 0.45382
 Zn838 Zn 0.01025 0.23602 0.37031
 N839 N 0.04019 0.22352 0.39236
 C840 C 0.04988 0.26932 0.34382
 N841 N 0.02232 0.26544 0.34681
 C842 C 0.00363 0.28427 0.33637
 C843 C 0.01252 0.30889 0.32366
 C844 C 0.05960 0.29344 0.33115
 C845 C -0.00160 0.18062 0.36200
 C846 C -0.01221 0.15815 0.34861
 C847 C -0.02355 0.18864 0.30988
 C848 C -0.01240 0.21057 0.32391
 N849 N -0.00195 0.20621 0.34959
 H850 H 0.06445 0.25429 0.35229
 H851 H -0.01820 0.28087 0.33927
 H852 H -0.00248 0.32439 0.31663
 H853 H 0.08159 0.29638 0.32997
 H854 H 0.00639 0.17780 0.38262
 H855 H -0.01218 0.13796 0.35887
 H856 H -0.03231 0.19246 0.28971
 H857 H -0.01270 0.23116 0.31461
 C858 C 0.08682 0.20760 0.42157
 C859 C -0.06564 0.27286 0.41913
 C860 C -0.02372 0.16217 0.32247
 C861 C 0.04081 0.31394 0.32173
 C862 C 1.03042 0.77921 0.08066
 H863 H 1.01017 0.78823 0.07671
 C864 C 1.05356 0.78948 0.06650
 H865 H 1.05095 0.80630 0.05151
 C866 C 1.05862 0.74734 0.10613
 H867 H 1.06074 0.73160 0.12223
 C868 C 1.08225 0.75710 0.09261
 H869 H 1.10231 0.74851 0.09811
 N870 N 1.03330 0.75840 0.09996
 C871 C 0.95137 0.72508 0.11411
 H872 H 0.95198 0.72437 0.13648
 C873 C 0.92845 0.71558 0.10084
 H874 H 0.91140 0.70739 0.11302
 C875 C 0.97308 0.73633 0.07100
 H876 H 0.99069 0.74414 0.05952
 C877 C 0.95032 0.72712 0.05681
 H878 H 0.95051 0.72791 0.03442
 Zn879 Zn 1.00202 0.74716 0.12119
 N880 N 0.97301 0.73536 0.09919
 C881 C 0.96454 0.79014 0.13590
 N882 N 0.98933 0.77788 0.14202
 C883 C 1.00559 0.78824 0.16166
 C884 C 0.99660 0.81132 0.17672
 C885 C 0.95498 0.81338 0.15014
 C886 C 1.02150 0.69350 0.13115
 C887 C 1.02987 0.66993 0.14626
 C888 C 1.01650 0.69327 0.18837
 C889 C 1.00866 0.71663 0.17243
 N890 N 1.01177 0.71646 0.14436
 H891 H 0.95230 0.78223 0.11962
 H892 H 1.02553 0.77851 0.16564
 H893 H 1.00962 0.81927 0.19241
 H894 H 0.93527 0.82303 0.14498
 H895 H 1.02329 0.69380 0.10879
 H896 H 1.03836 0.65207 0.13552
 H897 H 1.01445 0.69379 0.21070
 H898 H 1.00015 0.73480 0.18249
 C899 C 0.92772 0.71665 0.07191
 C900 C 1.07984 0.77848 0.07268
 C901 C 1.02750 0.66974 0.17517
 C902 C 0.97097 0.82402 0.17094
 C903 C 0.53445 0.28515 0.58279
 H904 H 0.51436 0.29451 0.57875
 C905 C 0.55769 0.29439 0.56805
 H906 H 0.55532 0.31078 0.55257
 C907 C 0.56215 0.25332 0.60885
 H908 H 0.56403 0.23795 0.62534
 C909 C 0.58587 0.26207 0.59478
 H910 H 0.60579 0.25308 0.60025
 N911 N 0.53702 0.26478 0.60259
 C912 C 0.45444 0.23314 0.61646
 H913 H 0.45457 0.23305 0.63884
 C914 C 0.43178 0.22335 0.60296
 H915 H 0.41442 0.21559 0.61499
 C916 C 0.47724 0.24283 0.57354
 H917 H 0.49521 0.25001 0.56222
 C918 C 0.45478 0.23329 0.55913
 H919 H 0.45556 0.23326 0.53674
 Zn920 Zn 0.50551 0.25435 0.62384
 N921 N 0.47652 0.24274 0.60173
 C922 C 0.46854 0.29787 0.63839
 N923 N 0.49323 0.28537 0.64442
 C924 C 0.50960 0.29543 0.66414
 C925 C 0.50073 0.31835 0.67950
 C926 C 0.45910 0.32096 0.65295
 C927 C 0.52414 0.20054 0.63434
 C928 C 0.53204 0.17697 0.64969
 C929 C 0.51859 0.20076 0.69153
 C930 C 0.51123 0.22412 0.67535
 N931 N 0.51462 0.22372 0.64731
 H932 H 0.45622 0.29017 0.62207
 H933 H 0.52945 0.28548 0.66807
 H934 H 0.51376 0.32597 0.69536
 H935 H 0.43938 0.33072 0.64798
 H936 H 0.52613 0.20066 0.61200
 H937 H 0.54038 0.15893 0.63914
 H938 H 0.51633 0.20145 0.71383
 H939 H 0.50286 0.24246 0.68521
 C940 C 0.43180 0.22339 0.57402
 C941 C 0.58376 0.28283 0.57418
 C942 C 0.52939 0.17702 0.67858
 C943 C 0.47512 0.33119 0.67394
 C944 C 0.47755 0.78264 0.90436
 H945 H 0.49597 0.79452 0.90122
 C946 C 0.45459 0.79429 0.91821
 H947 H 0.45563 0.81506 0.92595
 C948 C 0.45342 0.74156 0.89694
 H949 H 0.45279 0.72126 0.88809
 C950 C 0.43015 0.75228 0.91096
 H951 H 0.41178 0.74011 0.91296
 N952 N 0.47638 0.75692 0.89360
 C953 C 0.55614 0.71593 0.87806
 H954 H 0.55356 0.71071 0.85664
 C955 C 0.57968 0.70662 0.89190
 H956 H 0.59516 0.69402 0.88118
 C957 C 0.53912 0.73871 0.91816
 H958 H 0.52323 0.75125 0.92823
 C959 C 0.56251 0.72995 0.93276
 H960 H 0.56437 0.73567 0.95412
 Zn961 Zn 0.50581 0.74421 0.87032
 N962 N 0.53650 0.73175 0.89124
 C963 C 0.54369 0.77989 0.84400
 N964 N 0.51646 0.77419 0.84683
 C965 C 0.49672 0.79144 0.83572
 C966 C 0.50408 0.81611 0.82205
 C967 C 0.55191 0.80407 0.83031
 C968 C 0.49462 0.68879 0.86220
 C969 C 0.48422 0.66607 0.84908
 C970 C 0.47202 0.69613 0.81029
 C971 C 0.48296 0.71834 0.82406
 N972 N 0.49367 0.71432 0.84968
 H973 H 0.55910 0.76624 0.85319
 H974 H 0.47518 0.78667 0.83861
 H975 H 0.48815 0.83017 0.81425
 H976 H 0.57360 0.80876 0.82894
 H977 H 0.50293 0.68622 0.88271
 H978 H 0.48467 0.64593 0.85946
 H979 H 0.46300 0.69967 0.79020
 H980 H 0.48227 0.73885 0.81460
 C981 C 0.58308 0.71378 0.91948
 C982 C 0.43038 0.77920 0.92111
 C983 C 0.47236 0.66975 0.82306
 C984 C 0.53196 0.82278 0.81982
 C985 C 0.42649 -0.10709 0.31581
 C986 C 0.42289 -0.13718 0.30668
 C987 C 0.45279 -0.14237 0.30859
 C988 C 0.45762 -0.11417 0.31805
 C989 C 0.45794 -0.13458 0.27931
 C990 C 0.42679 -0.12799 0.27602
 C991 C 0.43118 -0.09799 0.28523
 C992 C 0.46241 -0.10429 0.28771
 H993 H 0.41356 -0.09625 0.33165
 H994 H 0.40723 -0.15170 0.31499
 H995 H 0.47084 -0.10953 0.33574
 H996 H 0.47136 -0.14621 0.26445
 H997 H 0.41419 -0.13513 0.25883
 H998 H 0.47946 -0.09109 0.28008
 C999 C 0.91747 0.39400 0.80815
 C1000 C 0.92397 0.36584 0.79443
 C1001 C 0.95171 0.36408 0.80923
 C1002 C 0.94532 0.39206 0.82306
 C1003 C 0.96597 0.37893 0.78452
 C1004 C 0.93804 0.38097 0.76956
 C1005 C 0.93164 0.40891 0.78345
 C1006 C 0.95942 0.40718 0.79818
 H1007 H 0.89735 0.40037 0.81778
 H1008 H 0.90939 0.34865 0.79305
 H1009 H 0.94826 0.39720 0.84503
 H1010 H 0.98609 0.37252 0.77493
 H1011 H 0.93528 0.37613 0.74748
 H1012 H 0.97398 0.42438 0.79956
 C1013 C 0.03313 1.11031 0.81070
 C1014 C 0.04929 1.13239 0.82576
 C1015 C 0.03558 1.15523 0.80755
 C1016 C 0.01927 1.13343 0.79257
 C1017 C 0.05928 1.15287 0.78594
 C1018 C 0.07309 1.12980 0.80407
 C1019 C 0.05684 1.10795 0.78910
 C1020 C 0.04312 1.13074 0.77083
 H1021 H 0.02210 1.09297 0.82104
 H1022 H 0.05184 1.13330 0.84848
 H1023 H -0.00300 1.13520 0.78784
 H1024 H 0.07022 1.17021 0.77548
 H1025 H 0.09535 1.12808 0.80883
 H1026 H 0.04061 1.12979 0.74810
 C1027 C 0.53625 0.60818 0.31340
 C1028 C 0.55282 0.62934 0.32930
 C1029 C 0.53962 0.65305 0.31183
 C1030 C 0.52291 0.63217 0.29602
 C1031 C 0.56334 0.65095 0.29020
 C1032 C 0.57664 0.62700 0.30758
 C1033 C 0.55998 0.60608 0.29179
 C1034 C 0.54676 0.62975 0.27427
 H1035 H 0.52482 0.59075 0.32309
 H1036 H 0.55531 0.62940 0.35207
 H1037 H 0.50068 0.63457 0.29126
 H1038 H 0.57465 0.66840 0.28039
 H1039 H 0.59887 0.62462 0.31235
 H1040 H 0.54428 0.62967 0.25149
 C1041 C 0.56483 0.37245 0.21581
 C1042 C 0.53379 0.36584 0.21551
 C1043 C 0.53706 0.35847 0.18476
 C1044 C 0.56793 0.36483 0.18498
 C1045 C 0.52992 0.38863 0.17592
 C1046 C 0.52685 0.39638 0.20680
 C1047 C 0.55778 0.40262 0.20691
 C1048 C 0.56093 0.39514 0.17621
 H1049 H 0.57933 0.36596 0.23236
 H1050 H 0.52259 0.35380 0.23182
 H1051 H 0.58481 0.35166 0.17594
 H1052 H 0.51543 0.39511 0.15937
 H1053 H 0.50982 0.40937 0.21580
 H1054 H 0.57216 0.40738 0.16008
 C1055 C 0.04612 0.90691 0.68007
 C1056 C 0.06225 0.88359 0.66474
 C1057 C 0.04382 0.86201 0.67934
 C1058 C 0.02752 0.88510 0.69457
 C1059 C 0.06407 0.85891 0.70334
 C1060 C 0.08261 0.88060 0.68880
 C1061 C 0.06641 0.90380 0.70403
 C1062 C 0.04797 0.88233 0.71873
 H1063 H 0.03878 0.92686 0.67055
 H1064 H 0.06867 0.88481 0.64258
 H1065 H 0.00472 0.88677 0.69678
 H1066 H 0.07142 0.83896 0.71286
 H1067 H 0.10527 0.87801 0.68588
 H1068 H 0.04223 0.88199 0.74110
 C1069 C 0.90986 0.64035 0.68175
 C1070 C 0.92240 0.66152 0.70109
 C1071 C 0.94847 0.66199 0.68235
 C1072 C 0.93606 0.64104 0.66298
 C1073 C 0.96192 0.63822 0.69956
 C1074 C 0.93568 0.63740 0.71842
 C1075 C 0.92327 0.61651 0.69897
 C1076 C 0.94934 0.61702 0.68027
 H1077 H 0.88851 0.64182 0.67400
 H1078 H 0.91116 0.67970 0.70995
 H1079 H 0.93631 0.64270 0.64003
 H1080 H 0.98346 0.63759 0.70687
 H1081 H 0.93540 0.63566 0.74137
 H1082 H 0.96031 0.59853 0.67169
 C1083 C 0.46326 0.11567 0.20571
 C1084 C 0.46697 0.12282 0.17447
 C1085 C 0.45715 0.15288 0.18001
 C1086 C 0.45359 0.14602 0.21111
 C1087 C 0.42708 0.14538 0.17502
 C1088 C 0.43675 0.11516 0.16959
 C1089 C 0.43318 0.10823 0.20065
 C1090 C 0.42336 0.13824 0.20623
 H1091 H 0.47837 0.10362 0.21841
 H1092 H 0.48483 0.11585 0.16141
 H1093 H 0.46063 0.15896 0.22812
 H1094 H 0.41224 0.15777 0.16228
 H1095 H 0.42971 0.10226 0.15254
 H1096 H 0.40529 0.14440 0.21942
 C1097 C 0.30991 0.41886 -0.10692
 C1098 C 0.29675 0.42564 -0.13524
 C1099 C 0.31080 0.45380 -0.13600
 C1100 C 0.32408 0.44713 -0.10784
 C1101 C 0.28553 0.46746 -0.12144
 C1102 C 0.27131 0.43910 -0.12042
 C1103 C 0.28465 0.43241 -0.09230
 C1104 C 0.29863 0.46062 -0.09302
 H1105 H 0.31986 0.39870 -0.10079
 H1106 H 0.29613 0.41127 -0.15280
 H1107 H 0.34573 0.45038 -0.10209
 H1108 H 0.27563 0.48762 -0.12760
 H1109 H 0.24953 0.43602 -0.12585
 H1110 H 0.29924 0.47497 -0.07546
 C1111 C 0.81232 0.92675 0.39239
 C1112 C 0.80321 0.92235 0.36241
 C1113 C 0.80624 0.95351 0.35615
 C1114 C 0.81548 0.95805 0.38594
 C1115 C 0.77592 0.95927 0.36479
 C1116 C 0.77275 0.92793 0.37130
 C1117 C 0.78202 0.93246 0.40112
 C1118 C 0.78503 0.96363 0.39492
 H1119 H 0.82727 0.91326 0.40388
 H1120 H 0.81081 0.90541 0.34883
 H1121 H 0.83318 0.97056 0.39180
 H1122 H 0.76077 0.97275 0.35356
 H1123 H 0.75525 0.91551 0.36478
 H1124 H 0.77744 0.98054 0.40854
 C1125 C 0.80998 0.07842 1.12784
 C1126 C 0.79276 0.06420 1.15110
 C1127 C 0.81352 0.04135 1.15242
 C1128 C 0.83124 0.05413 1.13087
 C1129 C 0.79912 0.02485 1.13230
 C1130 C 0.77702 0.04839 1.12924
 C1131 C 0.79483 0.06199 1.10606
 C1132 C 0.81653 0.03803 1.10851
 H1133 H 0.81497 0.10072 1.12666
 H1134 H 0.78283 0.07476 1.16903
 H1135 H 0.85388 0.05608 1.13271
 H1136 H 0.79498 0.00245 1.13532
 H1137 H 0.75440 0.04555 1.12923
 H1138 H 0.82704 0.02635 1.09161
 C1139 C 0.30686 0.57717 0.63138
 C1140 C 0.28910 0.56337 0.65454
 C1141 C 0.31105 0.53981 0.65703
 C1142 C 0.32889 0.55351 0.63411
 C1143 C 0.29638 0.52296 0.63539
 C1144 C 0.27431 0.54666 0.63257
 C1145 C 0.29222 0.56037 0.60970
 C1146 C 0.31415 0.53680 0.61220
 H1147 H 0.31121 0.59960 0.62948
 H1148 H 0.27854 0.57446 0.67180
 H1149 H 0.35148 0.55633 0.63498
 H1150 H 0.29206 0.50053 0.63732
 H1151 H 0.25173 0.54386 0.63167
 H1152 H 0.32462 0.52559 0.59496
 C1153 C 0.22043 0.56522 0.37505
 C1154 C 0.21963 0.53400 0.36846
 C1155 C 0.18920 0.53808 0.36050
 C1156 C 0.18992 0.56912 0.36684
 C1157 C 0.17974 0.53133 0.39047
 C1158 C 0.21029 0.52745 0.39880
 C1159 C 0.21090 0.55856 0.40501
 C1160 C 0.18053 0.56250 0.39695
 H1161 H 0.23731 0.57929 0.36890
 H1162 H 0.23585 0.52225 0.35674
 H1163 H 0.18148 0.58623 0.35350
 H1164 H 0.16285 0.51727 0.39662
 H1165 H 0.21868 0.51019 0.41196
 H1166 H 0.16446 0.57429 0.40887
 C1167 C 0.71098 0.02814 0.89637
 C1168 C 0.68046 0.03179 0.88804
 C1169 C 0.68931 0.03882 0.85945
 C1170 C 0.71876 0.03485 0.86569
 C1171 C 0.68940 0.06869 0.86473
 C1172 C 0.68077 0.06279 0.89514
 C1173 C 0.71145 0.05936 0.90268
 C1174 C 0.72011 0.06597 0.87232
 H1175 H 0.71966 0.01054 0.90889
 H1176 H 0.66373 0.01725 0.89344
 H1177 H 0.73422 0.02298 0.85312
 H1178 H 0.68011 0.08483 0.85075
 H1179 H 0.66431 0.07423 0.90687
 H1180 H 0.73651 0.08011 0.86498
 C1181 C 0.70653 0.92520 0.63829
 C1182 C 0.71218 0.95529 0.64651
 C1183 C 0.68143 0.95958 0.65412
 C1184 C 0.67567 0.92963 0.64618
 C1185 C 0.67537 0.97002 0.62442
 C1186 C 0.70626 0.96559 0.61651
 C1187 C 0.70043 0.93564 0.60864
 C1188 C 0.66971 0.93993 0.61632
 H1189 H 0.71947 0.90662 0.64380
 H1190 H 0.72959 0.96172 0.65917
 H1191 H 0.66298 0.91489 0.65856
 H1192 H 0.66256 0.98839 0.61806
 H1193 H 0.71891 0.98061 0.60447
 H1194 H 0.65227 0.93350 0.60370
 C1195 C 0.18217 0.40779 0.13727
 C1196 C 0.20168 0.41981 0.15856
 C1197 C 0.18318 0.44622 0.15966
 C1198 C 0.16363 0.43435 0.13860
 C1199 C 0.20023 0.45987 0.13610
 C1200 C 0.21885 0.43328 0.13465
 C1201 C 0.19924 0.42140 0.11364
 C1202 C 0.18077 0.44782 0.11478
 H1203 H 0.17433 0.38643 0.13833
 H1204 H 0.21058 0.40810 0.17643
 H1205 H 0.14078 0.43488 0.14040
 H1206 H 0.20765 0.48142 0.13586
 H1207 H 0.24170 0.43273 0.13278
 H1208 H 0.17216 0.45923 0.09657
 C1209 C -0.10538 0.27767 0.45883
 C1210 C -0.11032 0.30878 0.46525
 C1211 C -0.13822 0.30825 0.45079
 C1212 C -0.13363 0.27731 0.44452
 C1213 C -0.12440 0.31657 0.42296
 C1214 C -0.09626 0.31702 0.43732
 C1215 C -0.09159 0.28608 0.43104
 C1216 C -0.11952 0.28556 0.41658
 H1217 H -0.09727 0.26159 0.47356
 H1218 H -0.10676 0.31840 0.48544
 H1219 H -0.14894 0.26079 0.44734
 H1220 H -0.13246 0.33261 0.40816
 H1221 H -0.08121 0.33376 0.43443
 H1222 H -0.12315 0.27598 0.39637
 C1223 C 0.39068 0.78269 0.96102
 C1224 C 0.38545 0.81356 0.96824
 C1225 C 0.35755 0.81316 0.95376
 C1226 C 0.36244 0.78244 0.94669
 C1227 C 0.37127 0.82231 0.92615
 C1228 C 0.39941 0.82265 0.94052
 C1229 C 0.40438 0.79194 0.93344
 C1230 C 0.37644 0.79154 0.91896
 H1231 H 0.39896 0.76632 0.97533
 H1232 H 0.38893 0.82269 0.98869
 H1233 H 0.34730 0.76572 0.94907
 H1234 H 0.36306 0.83865 0.91175
 H1235 H 0.41431 0.83958 0.93808
 H1236 H 0.37290 0.78246 0.89850
 C1237 C 1.10735 0.81268 0.03653
 C1238 C 1.12871 0.82779 0.05353
 C1239 C 1.15205 0.81055 0.03955
 C1240 C 1.13096 0.79552 0.02241
 C1241 C 1.15021 0.78814 0.06268
 C1242 C 1.12664 0.80530 0.07676
 C1243 C 1.10551 0.79029 0.05967
 C1244 C 1.12881 0.77298 0.04568
 H1245 H 1.08989 0.82295 0.02549
 H1246 H 1.12890 0.85048 0.05677
 H1247 H 1.13301 0.79150 -0.00007
 H1248 H 1.16769 0.77778 0.07360
 H1249 H 1.12462 0.80934 0.09924
 H1250 H 1.12858 0.75030 0.04246
 C1251 C 0.61158 0.31464 0.53613
 C1252 C 0.63381 0.32974 0.55198
 C1253 C 0.65629 0.31120 0.53828
 C1254 C 0.63434 0.29617 0.52228
 C1255 C 0.65426 0.28984 0.56235
 C1256 C 0.63154 0.30830 0.57617
 C1257 C 0.60954 0.29329 0.56022
 C1258 C 0.63198 0.27469 0.54650
 H1259 H 0.59420 0.32501 0.52506
 H1260 H 0.63481 0.35252 0.55424
 H1261 H 0.63576 0.29117 0.49998
 H1262 H 0.67167 0.27937 0.57330
 H1263 H 0.63014 0.31332 0.59846
 H1264 H 0.63095 0.25191 0.54427
 C1265 C 0.37753 0.22098 0.56600
 C1266 C 0.37140 0.21951 0.53475
 C1267 C 0.36408 0.18886 0.53908
 C1268 C 0.36996 0.19025 0.57015
 C1269 C 0.39418 0.17966 0.53286
 C1270 C 0.40187 0.21044 0.52873
 C1271 C 0.40763 0.21171 0.55987
 C1272 C 0.40021 0.18112 0.56406
 H1273 H 0.37087 0.23812 0.57976
 H1274 H 0.35955 0.23544 0.52265
 H1275 H 0.35665 0.18188 0.58716
 H1276 H 0.40083 0.16251 0.51911
 H1277 H 0.41501 0.21877 0.51157
 H1278 H 0.41225 0.16535 0.57620
 C1279 C 0.89641 0.70561 0.02700
 C1280 C 0.88837 0.67484 0.03029
 C1281 C 0.85855 0.68422 0.03762
 C1282 C 0.86621 0.71486 0.03413
 C1283 C 0.86532 0.68443 0.06855
 C1284 C 0.89529 0.67511 0.06136
 C1285 C 0.90304 0.70570 0.05800
 C1286 C 0.87322 0.71514 0.06524
 H1287 H 0.90921 0.71434 0.00978
 H1288 H 0.89442 0.65812 0.01579
 H1289 H 0.85426 0.73136 0.02290
 H1290 H 0.85234 0.67566 0.08563
 H1291 H 0.90744 0.65879 0.07263
 H1292 H 0.86717 0.73186 0.07974
 C1293 C 0.61699 0.70986 0.96391
 C1294 C 0.62338 0.67859 0.96921
 C1295 C 0.65310 0.68261 0.95823
 C1296 C 0.64700 0.71374 0.95307
 C1297 C 0.64442 0.67625 0.92867
 C1298 C 0.61453 0.67233 0.93951
 C1299 C 0.60836 0.70342 0.93434
 C1300 C 0.63804 0.70749 0.92336
 H1301 H 0.60587 0.72375 0.97863
 H1302 H 0.61670 0.66677 0.98804
 H1303 H 0.66061 0.73070 0.95877
 H1304 H 0.65587 0.66231 0.91422
 H1305 H 0.60098 0.65532 0.93382
 H1306 H 0.64387 0.71950 0.90435
 C1307 C 0.12197 0.20880 0.46495
 C1308 C 0.12881 0.17828 0.47351
 C1309 C 0.15815 0.18133 0.46111
 C1310 C 0.15161 0.21170 0.45271
 C1311 C 0.14859 0.17158 0.43289
 C1312 C 0.11908 0.16862 0.44513
 C1313 C 0.11249 0.19896 0.43671
 C1314 C 0.14179 0.20204 0.42434
 H1315 H 0.11118 0.22419 0.47835
 H1316 H 0.12291 0.16856 0.49373
 H1317 H 0.16524 0.22936 0.45594
 H1318 H 0.15972 0.15616 0.41974
 H1319 H 0.10551 0.15092 0.44190
 H1320 H 0.14693 0.21191 0.40396
 C1321 C 0.57064 0.14491 0.69641
 C1322 C 0.56705 0.13811 0.72770
 C1323 C 0.56089 0.10800 0.72073
 C1324 C 0.56455 0.11465 0.68960
 C1325 C 0.52982 0.11519 0.71944
 C1326 C 0.53586 0.14569 0.72619
 C1327 C 0.53964 0.15222 0.69502
 C1328 C 0.53341 0.12211 0.68812
 H1329 H 0.58738 0.15733 0.68682
 H1330 H 0.58099 0.14452 0.74413
 H1331 H 0.57645 0.10167 0.67461
 H1332 H 0.51294 0.10297 0.72901
 H1333 H 0.52395 0.15846 0.74134
 H1334 H 0.51945 0.11570 0.67170
 C1335 C 1.03226 0.61479 0.18451
 C1336 C 1.06350 0.60766 0.18561
 C1337 C 1.06027 0.60094 0.21676
 C1338 C 1.02911 0.60780 0.21585
 C1339 C 1.06617 0.63112 0.22368
 C1340 C 1.06933 0.63800 0.19238
 C1341 C 1.03824 0.64497 0.19136
 C1342 C 1.03490 0.63836 0.22256
 H1343 H 1.01818 0.60825 0.16825
 H1344 H 1.07536 0.59482 0.17047
 H1345 H 1.01245 0.59538 0.22559
 H1346 H 1.08024 0.63767 0.23995
 H1347 H 1.08582 0.65062 0.18261
 H1348 H 1.02304 0.65097 0.23788
 C1349 C 0.93105 0.85106 0.19883
 C1350 C 0.94260 0.86477 0.22457
 C1351 C 0.93861 0.89334 0.21022
 C1352 C 0.92698 0.87983 0.18459
 C1353 C 0.96801 0.89142 0.19759
 C1354 C 0.97217 0.86247 0.21176
 C1355 C 0.96038 0.84905 0.18614
 C1356 C 0.95642 0.87764 0.17184
 H1357 H 0.91588 0.83427 0.19928
 H1358 H 0.93680 0.85970 0.24641
 H1359 H 0.90829 0.88714 0.17341
 H1360 H 0.98338 0.90800 0.19694
 H1361 H 0.99079 0.85530 0.22309
 H1362 H 0.96219 0.88274 0.14999
 C1363 C 0.43525 0.35673 0.70309
 C1364 C 0.44693 0.37005 0.72897
 C1365 C 0.44207 0.39887 0.71540
 C1366 C 0.43033 0.38574 0.68962
 C1367 C 0.47128 0.39794 0.70225
 C1368 C 0.47631 0.36874 0.71563
 C1369 C 0.46440 0.35569 0.68986
 C1370 C 0.45957 0.38454 0.67634
 H1371 H 0.42047 0.33960 0.70335
 H1372 H 0.44162 0.36431 0.75078
 H1373 H 0.41130 0.39289 0.67894
 H1374 H 0.48625 0.41489 0.70180
 H1375 H 0.49528 0.36172 0.72646
 H1376 H 0.46486 0.39029 0.65453
 C1377 C 0.44235 0.64527 0.78352
 C1378 C 0.45749 0.61771 0.77569
 C1379 C 0.43509 0.60153 0.79167
 C1380 C 0.41980 0.62874 0.79931
 C1381 C 0.45176 0.60203 0.81835
 C1382 C 0.47430 0.61848 0.80258
 C1383 C 0.45898 0.64566 0.81027
 C1384 C 0.43655 0.62941 0.82609
 H1385 H 0.43834 0.66304 0.76903
 H1386 H 0.46625 0.61290 0.75489
 H1387 H 0.39723 0.63275 0.79790
 H1388 H 0.45557 0.58405 0.83264
 H1389 H 0.49687 0.61448 0.80402
 H1390 H 0.42795 0.63439 0.84693
 C1391 C -0.02214 0.11130 0.30100
 C1392 C -0.04475 0.09465 0.31644
 C1393 C -0.06149 0.09486 0.28977
 C1394 C -0.03901 0.11124 0.27411
 C1395 C -0.07658 0.12198 0.29804
 C1396 C -0.05978 0.12194 0.32481
 C1397 C -0.03728 0.13839 0.30930
 C1398 C -0.05398 0.13869 0.28257
 H1399 H 0.00042 0.10714 0.30232
 H1400 H -0.04101 0.07635 0.33034
 H1401 H -0.03031 0.10685 0.25319
 H1402 H -0.09914 0.12617 0.29676
 H1403 H -0.06831 0.12651 0.34578
 H1404 H -0.05794 0.15677 0.26846
 C1405 C 0.08087 0.35084 0.31193
 C1406 C 0.07622 0.36579 0.28370
 C1407 C 0.06733 0.39231 0.29898
 C1408 C 0.07197 0.37751 0.32714
 C1409 C 0.03705 0.38362 0.29933
 C1410 C 0.04583 0.35667 0.28423
 C1411 C 0.05062 0.34200 0.31241
 C1412 C 0.04164 0.36855 0.32760
 H1413 H 0.09956 0.33803 0.31680
 H1414 H 0.09058 0.36485 0.26552
 H1415 H 0.08249 0.38530 0.34543
 H1416 H 0.01909 0.39739 0.29418
 H1417 H 0.03508 0.34780 0.26660
 H1418 H 0.02729 0.36951 0.34579
 C1419 C 0.52323 0.87524 0.79789
 C1420 C 0.53982 0.89469 0.81592
 C1421 C 0.56075 0.89850 0.79186
 C1422 C 0.54433 0.87944 0.77361
 C1423 C 0.57828 0.87358 0.80254
 C1424 C 0.55731 0.86961 0.82669
 C1425 C 0.54093 0.85041 0.80860
 C1426 C 0.56179 0.85422 0.78448
 H1427 H 0.50048 0.87600 0.79591
 H1428 H 0.53088 0.91158 0.82881
 H1429 H 0.53891 0.88344 0.75166
 H1430 H 0.60105 0.87304 0.80443
 H1431 H 0.56261 0.86542 0.84865
 H1432 H 0.57076 0.83732 0.77162
 C1433 C 0.68486 0.53057 0.11675
 C1434 C 0.68694 0.56179 0.10954
 C1435 C 0.71670 0.55782 0.10398
 C1436 C 0.71609 0.52776 0.10984
 C1437 C 0.72382 0.56403 0.13259
 C1438 C 0.69283 0.56783 0.13999
 C1439 C 0.69148 0.53655 0.14712
 C1440 C 0.72266 0.53285 0.14051
 H1441 H 0.66880 0.51678 0.10936
 H1442 H 0.67292 0.57412 0.09583
 H1443 H 0.72624 0.51150 0.09698
 H1444 H 0.74044 0.57811 0.13809
 H1445 H 0.68342 0.58513 0.15203
 H1446 H 0.73832 0.52098 0.15271
 C1447 C 0.19025 1.07091 0.64194
 C1448 C 0.22147 1.07629 0.64003
 C1449 C 0.22249 1.06418 0.61081
 C1450 C 0.19139 1.05887 0.61258
 C1451 C 0.22902 1.03501 0.62291
 C1452 C 0.22780 1.04698 0.65244
 C1453 C 0.19666 1.04176 0.65411
 C1454 C 0.19770 1.02960 0.62495
 H1455 H 0.17414 1.08565 0.64992
 H1456 H 0.23122 1.09543 0.64680
 H1457 H 0.17646 1.06391 0.59599
 H1458 H 0.24515 1.02035 0.61484
 H1459 H 0.24302 1.04209 0.66878
 H1460 H 0.18779 1.01025 0.61897
 C1461 C 0.19840 0.93535 0.85855
 C1462 C 0.22303 0.94729 0.87354
 C1463 C 0.20856 0.94274 0.90025
 C1464 C 0.18468 0.93059 0.88729
 C1465 C 0.19576 0.97081 0.89987
 C1466 C 0.20965 0.97677 0.87125
 C1467 C 0.18464 0.96460 0.85701
 C1468 C 0.17038 0.95950 0.88547
 H1469 H 0.19995 0.91997 0.84183
 H1470 H 0.24515 0.94175 0.86978
 H1471 H 0.17487 0.91124 0.89485
 H1472 H 0.19477 0.98525 0.91741
 H1473 H 0.22076 0.99585 0.86529
 H1474 H 0.14850 0.96428 0.89119
 C1475 C 0.70110 0.43110 0.35130
 C1476 C 0.72673 0.44309 0.36461
 C1477 C 0.71309 0.43876 0.39336
 C1478 C 0.68757 0.42670 0.38025
 C1479 C 0.69982 0.46812 0.39194
 C1480 C 0.71327 0.47262 0.36281
 C1481 C 0.68776 0.46039 0.34979
 C1482 C 0.67417 0.45609 0.37856
 H1483 H 0.70155 0.41591 0.33440
 H1484 H 0.74851 0.43763 0.35909
 H1485 H 0.67700 0.40771 0.38758
 H1486 H 0.69917 0.48351 0.40865
 H1487 H 0.72400 0.49155 0.35562
 H1488 H 0.65238 0.46153 0.38410
 C1489 C 0.79824 0.47674 0.61281
 C1490 C 0.81450 0.45409 0.59663
 C1491 C 0.78833 0.43690 0.59615
 C1492 C 0.77186 0.45941 0.61205
 C1493 C 0.79615 0.42203 0.62348
 C1494 C 0.82243 0.43929 0.62412
 C1495 C 0.80612 0.46183 0.64010
 C1496 C 0.77987 0.44468 0.63973
 H1497 H 0.79919 0.49941 0.60864
 H1498 H 0.82872 0.45789 0.57871
 H1499 H 0.75097 0.46783 0.60709
 H1500 H 0.79524 0.39935 0.62766
 H1501 H 0.84334 0.43104 0.62926
 H1502 H 0.76546 0.44068 0.65743
 C1503 C 0.29735 -0.02276 0.11768
 C1504 C 0.31243 -0.04623 0.10159
 C1505 C 0.28545 -0.06220 0.10148
 C1506 C 0.27015 -0.03886 0.11730
 C1507 C 0.29287 -0.07718 0.12887
 C1508 C 0.31994 -0.06116 0.12913
 C1509 C 0.30483 -0.03779 0.14503
 C1510 C 0.27777 -0.05370 0.14505
 H1511 H 0.29930 -0.00022 0.11329
 H1512 H 0.32666 -0.04322 0.08353
 H1513 H 0.24960 -0.02957 0.11242
 H1514 H 0.29095 -0.09973 0.13328
 H1515 H 0.34053 -0.07032 0.13414
 H1516 H 0.26337 -0.05688 0.16293
 C1517 C 0.29785 0.02261 0.37448
 C1518 C 0.31637 0.03710 0.39515
 C1519 C 0.29359 0.05951 0.39944
 C1520 C 0.27486 0.04519 0.37917
 C1521 C 0.30580 0.07735 0.37564
 C1522 C 0.32866 0.05491 0.37119
 C1523 C 0.31009 0.04063 0.35079
 C1524 C 0.28726 0.06297 0.35509
 H1525 H 0.29451 -0.00002 0.37406
 H1526 H 0.32829 0.02654 0.41187
 H1527 H 0.25262 0.04111 0.38241
 H1528 H 0.30904 0.10000 0.37626
 H1529 H 0.35092 0.05888 0.36775
 H1530 H 0.27535 0.07356 0.33837
 C1531 C 0.82290 0.55615 0.86652
 C1532 C 0.79884 0.57720 0.87135
 C1533 C 0.78827 0.55879 0.89552
 C1534 C 0.81224 0.53776 0.89083
 C1535 C 0.77005 0.54313 0.87578
 C1536 C 0.78081 0.56150 0.85133
 C1537 C 0.80485 0.54054 0.84664
 C1538 C 0.79424 0.52195 0.87070
 H1539 H 0.84477 0.56148 0.86256
 H1540 H 0.80071 0.60006 0.87176
 H1541 H 0.82512 0.52808 0.90733
 H1542 H 0.74820 0.53771 0.87957
 H1543 H 0.76795 0.57121 0.83483
 H1544 H 0.79230 0.49911 0.87047
 C1545 C 0.14079 0.72245 0.53373
 C1546 C 0.11070 0.71502 0.52735
 C1547 C 0.10333 0.71628 0.55846
 C1548 C 0.13303 0.72392 0.56494
 C1549 C 0.11074 0.68526 0.56236
 C1550 C 0.11838 0.68381 0.53118
 C1551 C 0.14809 0.69139 0.53776
 C1552 C 0.14060 0.69275 0.56879
 H1553 H 0.15314 0.73786 0.52186
 H1554 H 0.09840 0.72425 0.51020
 H1555 H 0.13888 0.74058 0.57894
 H1556 H 0.09817 0.67002 0.57424
 H1557 H 0.11254 0.66717 0.51717
 H1558 H 0.15311 0.68348 0.58579
 C1559 C 0.64295 0.19400 1.06700
 C1560 C 0.63544 0.22524 1.06360
 C1561 C 0.60567 0.21777 1.05720
 C1562 C 0.61302 0.18669 1.06067
 C1563 C 0.61282 0.21687 1.02603
 C1564 C 0.64298 0.22413 1.03231
 C1565 C 0.65021 0.19300 1.03590
 C1566 C 0.62044 0.18561 1.02943
 H1567 H 0.65554 0.18448 1.08381
 H1568 H 0.64144 0.24169 1.07776
 H1569 H 0.60049 0.17135 1.07244
 H1570 H 0.60043 0.22638 1.00908
 H1571 H 0.65531 0.23964 1.02054
 H1572 H 0.61443 0.16917 1.01526
 C1573 C 0.88215 0.17578 0.95541
 C1574 C 0.88399 0.18932 0.92624
 C1575 C 0.89603 0.21398 0.93797
 C1576 C 0.89558 0.20196 0.96629
 C1577 C 0.86898 0.22810 0.94176
 C1578 C 0.85493 0.20262 0.93024
 C1579 C 0.85335 0.18965 0.95974
 C1580 C 0.86663 0.21549 0.97147
 H1581 H 0.88839 0.15405 0.96080
 H1582 H 0.89209 0.17905 0.90727
 H1583 H 0.91279 0.20179 0.98103
 H1584 H 0.86471 0.25010 0.93564
 H1585 H 0.83848 0.20332 0.91462
 H1586 H 0.86011 0.22712 0.99016
 C1587 C 0.38080 0.67364 0.45925
 C1588 C 0.38249 0.68623 0.42961
 C1589 C 0.39562 0.71214 0.44103
 C1590 C 0.39419 0.69967 0.47064
 C1591 C 0.36701 0.72622 0.44502
 C1592 C 0.35369 0.70021 0.43366
 C1593 C 0.35216 0.68766 0.46321
 C1594 C 0.36519 0.71356 0.47480
 H1595 H 0.38628 0.65185 0.46520
 H1596 H 0.38977 0.67499 0.41092
 H1597 H 0.41083 0.69932 0.48603
 H1598 H 0.36156 0.74800 0.43904
 H1599 H 0.33685 0.70036 0.41848
 H1600 H 0.35805 0.72493 0.49343
 C1601 C 0.64028 0.78198 0.44495
 C1602 C 0.61319 0.77383 0.46034
 C1603 C 0.59654 0.78973 0.43799
 C1604 C 0.62329 0.79769 0.42247
 C1605 C 0.59687 0.81640 0.45476
 C1606 C 0.61379 0.80072 0.47724
 C1607 C 0.64050 0.80873 0.46168
 C1608 C 0.62377 0.82446 0.43930
 H1609 H 0.65811 0.76766 0.44077
 H1610 H 0.60884 0.75293 0.46914
 H1611 H 0.62699 0.79638 0.39978
 H1612 H 0.57882 0.83053 0.45874
 H1613 H 0.61011 0.80207 0.49993
 H1614 H 0.62829 0.84540 0.43065
 C1615 C 0.11430 0.29710 -0.02694
 C1616 C 0.09798 0.31338 -0.04947
 C1617 C 0.09736 0.28694 -0.06657
 C1618 C 0.11341 0.27045 -0.04418
 C1619 C 0.12445 0.29454 -0.08165
 C1620 C 0.12523 0.32108 -0.06448
 C1621 C 0.14136 0.30477 -0.04206
 C1622 C 0.14086 0.27825 -0.05911
 H1623 H 0.11035 0.29825 -0.00428
 H1624 H 0.08016 0.32780 -0.04556
 H1625 H 0.10855 0.24955 -0.03571
 H1626 H 0.12841 0.29343 -0.10431
 H1627 H 0.13025 0.34201 -0.07281
 H1628 H 0.15850 0.26366 -0.06319
 C1629 C 0.35225 0.27981 0.05848
 C1630 C 0.37712 0.26961 0.04035
 C1631 C 0.39606 0.28810 0.05662
 C1632 C 0.37148 0.29812 0.07479
 C1633 C 0.39112 0.31233 0.03591
 C1634 C 0.37177 0.29405 0.01949
 C1635 C 0.34729 0.30409 0.03785
 C1636 C 0.36638 0.32243 0.05406
 H1637 H 0.33602 0.26649 0.06769
 H1638 H 0.38151 0.24777 0.03463
 H1639 H 0.37150 0.29977 0.09766
 H1640 H 0.40735 0.32567 0.02672
 H1641 H 0.37193 0.29232 -0.00337
 H1642 H 0.36181 0.34428 0.05967
 C1643 C 0.85124 0.78728 0.55982
 C1644 C 0.87533 0.77527 0.54176
 C1645 C 0.89537 0.79370 0.55672
 C1646 C 0.87156 0.80552 0.57484
 C1647 C 0.89098 0.81713 0.53501
 C1648 C 0.87055 0.79891 0.51989
 C1649 C 0.84684 0.81077 0.53818
 C1650 C 0.86701 0.82905 0.55310
 H1651 H 0.83465 0.77507 0.56997
 H1652 H 0.87869 0.75303 0.53701
 H1653 H 0.87211 0.80821 0.59757
 H1654 H 0.90758 0.82936 0.52490
 H1655 H 0.87019 0.79614 0.49718
 H1656 H 0.86342 0.85130 0.55774
   
