data_POSCAR
  _audit_creation_date              2014-09-24
  _audit_creation_method            'ToBaCCo'
  _symmetry_space_group_name_H-M    'P1'
  _symmetry_Int_Tables_number       1
  _symmetry_cell_setting            triclinic
  loop_
  _symmetry_equiv_pos_as_xyz
 x,y,z
_cell_length_a 67.4962
_cell_length_b 67.6900
_cell_length_c 68.9310
_cell_angle_alpha 90.001600
_cell_angle_beta 89.588800
_cell_angle_gamma 90.096900
loop_
  _atom_site_label
  _atom_site_type_symbol
  _atom_site_fract_x
  _atom_site_fract_y
  _atom_site_fract_z
N1 N 0.37209 0.31619 0.33008
 N2 N 0.37017 0.32807 0.31515
 C3 C 0.38647 0.32681 0.30388
 C4 C 0.39937 0.31334 0.31216
 C5 C 0.38971 0.30698 0.32886
 H6 H 0.38870 0.33517 0.29069
 H7 H 0.39493 0.29637 0.33933
 Cu8 Cu 0.34675 0.34439 0.31194
 Cu9 Cu 0.35107 0.31278 0.34926
 Cu10 Cu 0.31377 0.34778 0.34844
 N11 N 0.32819 0.36626 0.31372
 N12 N 0.31572 0.36785 0.32835
 C13 C 0.30502 0.38445 0.32625
 C14 C 0.31105 0.39380 0.30932
 C15 C 0.32586 0.38179 0.30178
 H16 H 0.29376 0.38933 0.33636
 H17 H 0.33445 0.38418 0.28870
 N18 N 0.31661 0.32845 0.36957
 N19 N 0.33070 0.31496 0.36980
 C20 C 0.32852 0.30378 0.38583
 C21 C 0.31224 0.31053 0.39620
 C22 C 0.30513 0.32624 0.38548
 H23 H 0.33805 0.29158 0.38960
 H24 H 0.29257 0.33546 0.38903
 H25 H 0.32710 0.32417 0.33473
 H26 H 0.34380 0.34214 0.34697
 N27 N 0.36971 0.81820 -0.17073
 N28 N 0.36758 0.83009 -0.18562
 C29 C 0.38300 0.82769 -0.19788
 C30 C 0.39557 0.81346 -0.19026
 C31 C 0.38661 0.80791 -0.17289
 H32 H 0.38483 0.83583 -0.21126
 H33 H 0.39179 0.79711 -0.16260
 Cu34 Cu 0.34508 0.84790 -0.18739
 Cu35 Cu 0.34955 0.81589 -0.15056
 Cu36 Cu 0.31216 0.85082 -0.15066
 N37 N 0.32751 0.87049 -0.18445
 N38 N 0.31467 0.87158 -0.17009
 C39 C 0.30421 0.88839 -0.17174
 C40 C 0.31089 0.89855 -0.18805
 C41 C 0.32582 0.88668 -0.19565
 H42 H 0.29256 0.89270 -0.16179
 H43 H 0.33489 0.88955 -0.20832
 N44 N 0.31544 0.83132 -0.12963
 N45 N 0.32975 0.81806 -0.12953
 C46 C 0.32803 0.80697 -0.11339
 C47 C 0.31183 0.81352 -0.10278
 C48 C 0.30428 0.82904 -0.11351
 H49 H 0.33778 0.79491 -0.10974
 H50 H 0.29165 0.83811 -0.10979
 H51 H 0.32549 0.82745 -0.16472
 H52 H 0.34207 0.84544 -0.15236
 N53 N 0.86835 0.31715 -0.17082
 N54 N 0.86644 0.32922 -0.18560
 C55 C 0.88198 0.32690 -0.19771
 C56 C 0.89436 0.31253 -0.19013
 C57 C 0.88520 0.30677 -0.17296
 H58 H 0.88418 0.33527 -0.21090
 H59 H 0.89030 0.29583 -0.16276
 Cu60 Cu 0.84414 0.34725 -0.18732
 Cu61 Cu 0.84828 0.31519 -0.15049
 Cu62 Cu 0.81267 0.35200 -0.14967
 N63 N 0.82724 0.37032 -0.18451
 N64 N 0.81510 0.37229 -0.16965
 C65 C 0.80526 0.38948 -0.17134
 C66 C 0.81157 0.39890 -0.18821
 C67 C 0.82565 0.38621 -0.19611
 H68 H 0.79443 0.39472 -0.16095
 H69 H 0.83409 0.38821 -0.20935
 N70 N 0.81553 0.33237 -0.12865
 N71 N 0.82908 0.31832 -0.12903
 C72 C 0.82724 0.30723 -0.11291
 C73 C 0.81176 0.31457 -0.10178
 C74 C 0.80474 0.33057 -0.11221
 H75 H 0.83643 0.29464 -0.10961
 H76 H 0.79270 0.34024 -0.10810
 H77 H 0.82430 0.32791 -0.16393
 H78 H 0.84225 0.34499 -0.15223
 N79 N 0.87260 0.81937 0.33400
 N80 N 0.87098 0.83126 0.31904
 C81 C 0.88648 0.82839 0.30698
 C82 C 0.89852 0.81390 0.31481
 C83 C 0.88921 0.80858 0.33203
 H84 H 0.88835 0.83570 0.29316
 H85 H 0.89347 0.79691 0.34184
 Cu86 Cu 0.84804 0.84827 0.31588
 Cu87 Cu 0.85165 0.81681 0.35334
 Cu88 Cu 0.81471 0.85214 0.35216
 N89 N 0.82965 0.87029 0.31747
 N90 N 0.81692 0.87202 0.33187
 C91 C 0.80615 0.88851 0.32935
 C92 C 0.81239 0.89769 0.31235
 C93 C 0.82744 0.88564 0.30527
 H94 H 0.79467 0.89339 0.33923
 H95 H 0.83618 0.88773 0.29224
 N96 N 0.81737 0.83299 0.37355
 N97 N 0.83139 0.81943 0.37389
 C98 C 0.82912 0.80836 0.38997
 C99 C 0.81286 0.81523 0.40029
 C100 C 0.80585 0.83094 0.38945
 H101 H 0.83853 0.79609 0.39378
 H102 H 0.79329 0.84019 0.39290
 H103 H 0.82793 0.82845 0.33861
 H104 H 0.84469 0.84631 0.35093
 N105 N 0.62583 0.68068 0.33659
 N106 N 0.62613 0.66679 0.32326
 C107 C 0.61169 0.67035 0.31034
 C108 C 0.60182 0.68740 0.31586
 C109 C 0.61120 0.69350 0.33264
 H110 H 0.60910 0.66172 0.29742
 H111 H 0.60813 0.70665 0.34101
 Cu112 Cu 0.64640 0.64640 0.32348
 Cu113 Cu 0.64552 0.68224 0.35710
 Cu114 Cu 0.68333 0.64765 0.35551
 N115 N 0.66666 0.62597 0.32373
 N116 N 0.68099 0.62642 0.33654
 C117 C 0.69382 0.61170 0.33272
 C118 C 0.68727 0.60151 0.31656
 C119 C 0.66992 0.61096 0.31129
 H120 H 0.70750 0.60932 0.34042
 H121 H 0.66081 0.60768 0.29888
 N122 N 0.68118 0.66790 0.37601
 N123 N 0.66695 0.68124 0.37638
 C124 C 0.66978 0.69333 0.39162
 C125 C 0.68655 0.68730 0.40143
 C126 C 0.69328 0.67100 0.39117
 H127 H 0.66019 0.70551 0.39539
 H128 H 0.70608 0.66209 0.39440
 H129 H 0.66756 0.66947 0.34097
 H130 H 0.65334 0.65266 0.35741
 N131 N 0.62728 0.18215 -0.16604
 N132 N 0.62763 0.16843 -0.17951
 C133 C 0.61304 0.17197 -0.19227
 C134 C 0.60304 0.18883 -0.18652
 C135 C 0.61248 0.19488 -0.16977
 H136 H 0.61033 0.16339 -0.20520
 H137 H 0.60920 0.20784 -0.16120
 Cu138 Cu 0.64764 0.14783 -0.17975
 Cu139 Cu 0.64683 0.18330 -0.14548
 Cu140 Cu 0.68396 0.14803 -0.14661
 N141 N 0.66702 0.12668 -0.17835
 N142 N 0.68103 0.12662 -0.16522
 C143 C 0.69247 0.11055 -0.16781
 C144 C 0.68532 0.09993 -0.18352
 C145 C 0.66907 0.11067 -0.18975
 H146 H 0.70503 0.10696 -0.15887
 H147 H 0.65958 0.10732 -0.20186
 N148 N 0.68203 0.16842 -0.12627
 N149 N 0.66801 0.18197 -0.12603
 C150 C 0.67086 0.19402 -0.11078
 C151 C 0.68744 0.18776 -0.10081
 C152 C 0.69405 0.17136 -0.11101
 H153 H 0.66141 0.20634 -0.10711
 H154 H 0.70668 0.16226 -0.10767
 H155 H 0.66886 0.17021 -0.16135
 H156 H 0.65391 0.15341 -0.14546
 N157 N 0.12680 0.68044 -0.16562
 N158 N 0.12626 0.66592 -0.17825
 C159 C 0.11191 0.66959 -0.19123
 C160 C 0.10294 0.68735 -0.18647
 C161 C 0.11279 0.69377 -0.17007
 H162 H 0.10876 0.66041 -0.20366
 H163 H 0.11042 0.70741 -0.16227
 Cu164 Cu 0.14497 0.64409 -0.17745
 Cu165 Cu 0.14659 0.68183 -0.14535
 Cu166 Cu 0.18304 0.64605 -0.14599
 N167 N 0.16639 0.62488 -0.17804
 N168 N 0.18148 0.62609 -0.16617
 C169 C 0.19402 0.61109 -0.16979
 C170 C 0.18641 0.59975 -0.18473
 C171 C 0.16879 0.60897 -0.18956
 H172 H 0.20742 0.60840 -0.16175
 H173 H 0.15838 0.60440 -0.20050
 N174 N 0.18206 0.66734 -0.12656
 N175 N 0.16794 0.68078 -0.12611
 C176 C 0.17089 0.69278 -0.11083
 C177 C 0.18767 0.68661 -0.10115
 C178 C 0.19436 0.67043 -0.11156
 H179 H 0.16133 0.70492 -0.10681
 H180 H 0.20711 0.66141 -0.10835
 H181 H 0.16761 0.66701 -0.16174
 H182 H 0.15304 0.65198 -0.14383
 N183 N 0.12831 0.18332 0.33457
 N184 N 0.12860 0.16962 0.32105
 C185 C 0.11388 0.17309 0.30844
 C186 C 0.10386 0.18993 0.31426
 C187 C 0.11345 0.19602 0.33095
 H188 H 0.11114 0.16452 0.29552
 H189 H 0.11028 0.20903 0.33949
 Cu190 Cu 0.14888 0.14925 0.32081
 Cu191 Cu 0.14859 0.18464 0.35458
 Cu192 Cu 0.18503 0.14870 0.35382
 N193 N 0.16907 0.12880 0.32059
 N194 N 0.18290 0.12833 0.33391
 C195 C 0.19456 0.11251 0.33080
 C196 C 0.18776 0.10254 0.31459
 C197 C 0.17152 0.11335 0.30854
 H198 H 0.20700 0.10855 0.33976
 H199 H 0.16206 0.11013 0.29638
 N200 N 0.18245 0.16831 0.37493
 N201 N 0.16843 0.18189 0.37533
 C202 C 0.17046 0.19285 0.39150
 C203 C 0.18659 0.18594 0.40176
 C204 C 0.19377 0.17032 0.39082
 H205 H 0.16086 0.20493 0.39556
 H206 H 0.20639 0.16114 0.39411
 H207 H 0.17082 0.17091 0.33906
 H208 H 0.15514 0.15475 0.35488
 N209 N 0.62769 0.31776 0.66711
 N210 N 0.62767 0.33188 0.68019
 C211 C 0.61119 0.33025 0.69120
 C212 C 0.60034 0.31420 0.68474
 C213 C 0.61130 0.30664 0.66939
 H214 H 0.60728 0.34010 0.70295
 H215 H 0.60774 0.29392 0.66058
 Cu216 Cu 0.64902 0.35123 0.68139
 Cu217 Cu 0.64911 0.31478 0.64828
 Cu218 Cu 0.68763 0.34839 0.65039
 N219 N 0.67066 0.37026 0.68207
 N220 N 0.68573 0.36905 0.66995
 C221 C 0.69829 0.38411 0.67328
 C222 C 0.69067 0.39549 0.68828
 C223 C 0.67308 0.38624 0.69345
 H224 H 0.71178 0.38669 0.66514
 H225 H 0.66263 0.39101 0.70441
 N226 N 0.68483 0.32909 0.62918
 N227 N 0.67009 0.31629 0.62832
 C228 C 0.67180 0.30577 0.61181
 C229 C 0.68841 0.31225 0.60177
 C230 C 0.69629 0.32706 0.61323
 H231 H 0.66143 0.29456 0.60719
 H232 H 0.70927 0.33590 0.61012
 H233 H 0.67074 0.32768 0.66510
 H234 H 0.65732 0.34433 0.64792
 N235 N 0.62981 0.81673 1.17016
 N236 N 0.63174 0.82891 1.18485
 C237 C 0.61572 0.82737 1.19648
 C238 C 0.60300 0.81341 1.18866
 C239 C 0.61247 0.80704 1.17189
 H240 H 0.61350 0.83596 1.20953
 H241 H 0.60727 0.79617 1.16165
 Cu242 Cu 0.65473 0.84602 1.18718
 Cu243 Cu 0.65034 0.81375 1.15045
 Cu244 Cu 0.68578 0.85077 1.14925
 N245 N 0.67240 0.86856 1.18469
 N246 N 0.68415 0.87072 1.16955
 C247 C 0.69443 0.88766 1.17142
 C248 C 0.68883 0.89663 1.18869
 C249 C 0.67475 0.88405 1.19669
 H250 H 0.70517 0.89302 1.16097
 H251 H 0.66675 0.88595 1.21019
 N252 N 0.68283 0.83113 1.12830
 N253 N 0.66960 0.81677 1.12904
 C254 C 0.67158 0.80540 1.11314
 C255 C 0.68682 0.81291 1.10176
 C256 C 0.69350 0.82933 1.11181
 H257 H 0.66255 0.79259 1.11013
 H258 H 0.70532 0.83921 1.10750
 H259 H 0.67441 0.82668 1.16374
 H260 H 0.65618 0.84347 1.15210
 N261 N 0.12789 0.31828 1.16872
 N262 N 0.13003 0.32994 1.18379
 C263 C 0.11399 0.32827 1.19538
 C264 C 0.10102 0.31477 1.18715
 C265 C 0.11039 0.30883 1.17016
 H266 H 0.11196 0.33640 1.20874
 H267 H 0.10503 0.29832 1.15963
 Cu268 Cu 0.15330 0.34662 1.18664
 Cu269 Cu 0.14863 0.31545 1.14914
 Cu270 Cu 0.18647 0.35005 1.15023
 N271 N 0.17136 0.36892 1.18450
 N272 N 0.18397 0.37049 1.16998
 C273 C 0.19424 0.38744 1.17183
 C274 C 0.18775 0.39705 1.18846
 C275 C 0.17315 0.38480 1.19610
 H276 H 0.20552 0.39239 1.16174
 H277 H 0.16435 0.38723 1.20903
 N278 N 0.18350 0.33066 1.12906
 N279 N 0.16900 0.31756 1.12859
 C280 C 0.17098 0.30648 1.11247
 C281 C 0.18757 0.31283 1.10231
 C282 C 0.19509 0.32825 1.11325
 H283 H 0.16104 0.29470 1.10838
 H284 H 0.20812 0.33699 1.11005
 H285 H 0.17281 0.32647 1.16372
 H286 H 0.15650 0.34480 1.15160
 N287 N 0.12823 0.81668 0.66957
 N288 N 0.12995 0.82910 0.68410
 C289 C 0.11363 0.82793 0.69537
 C290 C 0.10093 0.81397 0.68750
 C291 C 0.11074 0.80722 0.67104
 H292 H 0.11123 0.83670 0.70827
 H293 H 0.10570 0.79618 0.66090
 Cu294 Cu 0.15318 0.84582 0.68685
 Cu295 Cu 0.14929 0.81303 0.65049
 Cu296 Cu 0.18562 0.84919 0.64988
 N297 N 0.17161 0.86780 0.68468
 N298 N 0.18403 0.86930 0.66998
 C299 C 0.19493 0.88581 0.67206
 C300 C 0.18900 0.89521 0.68897
 C301 C 0.17411 0.88336 0.69657
 H302 H 0.20629 0.89062 0.66198
 H303 H 0.16572 0.88576 0.70978
 N304 N 0.18270 0.82955 0.62899
 N305 N 0.16921 0.81542 0.62956
 C306 C 0.17131 0.80396 0.61374
 C307 C 0.18687 0.81120 0.60259
 C308 C 0.19360 0.82756 0.61268
 H309 H 0.16199 0.79142 0.61049
 H310 H 0.20563 0.83725 0.60857
 H311 H 0.17317 0.82563 0.66435
 H312 H 0.15575 0.84265 0.65186
 N313 N 0.36880 0.68549 0.66878
 N314 N 0.36892 0.67130 0.68179
 C315 C 0.38510 0.67327 0.69293
 C316 C 0.39571 0.68963 0.68659
 C317 C 0.38488 0.69698 0.67120
 H318 H 0.38892 0.66345 0.70467
 H319 H 0.38848 0.70959 0.66223
 Cu320 Cu 0.34809 0.65146 0.68214
 Cu321 Cu 0.34770 0.68816 0.64978
 Cu322 Cu 0.31392 0.64940 0.64731
 N323 N 0.32784 0.63104 0.68235
 N324 N 0.31455 0.63031 0.66853
 C325 C 0.30273 0.61455 0.67144
 C326 C 0.30898 0.60478 0.68796
 C327 C 0.32500 0.61568 0.69446
 H328 H 0.29067 0.61043 0.66204
 H329 H 0.33420 0.61237 0.70680
 N330 N 0.31575 0.67041 0.62754
 N331 N 0.32839 0.68528 0.62862
 C332 C 0.32611 0.69697 0.61300
 C333 C 0.31127 0.68915 0.60154
 C334 C 0.30508 0.67231 0.61122
 H335 H 0.33473 0.71013 0.61014
 H336 H 0.29381 0.66204 0.60656
 H337 H 0.32538 0.67184 0.66335
 H338 H 0.34349 0.65809 0.64792
 N339 N 0.37089 0.18354 1.16793
 N340 N 0.36982 0.17053 1.18204
 C341 C 0.38502 0.17345 1.19424
 C342 C 0.39615 0.18928 1.18751
 C343 C 0.38674 0.19526 1.17071
 H344 H 0.38727 0.16533 1.20755
 H345 H 0.39063 0.20766 1.16157
 Cu346 Cu 0.34768 0.15223 1.18426
 Cu347 Cu 0.35040 0.18570 1.14838
 Cu348 Cu 0.31524 0.14847 1.14768
 N349 N 0.32985 0.12978 1.18199
 N350 N 0.31745 0.12810 1.16747
 C351 C 0.30678 0.11142 1.16972
 C352 C 0.31278 0.10214 1.18661
 C353 C 0.32752 0.11423 1.19396
 H354 H 0.29541 0.10654 1.15986
 H355 H 0.33583 0.11205 1.20712
 N356 N 0.31766 0.16847 1.12696
 N357 N 0.33097 0.18276 1.12737
 C358 C 0.32869 0.19429 1.11163
 C359 C 0.31316 0.18695 1.10076
 C360 C 0.30659 0.17051 1.11091
 H361 H 0.33760 0.20716 1.10843
 H362 H 0.29462 0.16074 1.10689
 H363 H 0.32705 0.17207 1.16237
 H364 H 0.34492 0.15575 1.14934
 N365 N 0.87275 0.68156 1.16475
 N366 N 0.87160 0.66878 1.17907
 C367 C 0.88713 0.67139 1.19091
 C368 C 0.89859 0.68678 1.18377
 C369 C 0.88901 0.69284 1.16707
 H370 H 0.88934 0.66345 1.20433
 H371 H 0.89300 0.70512 1.15780
 Cu372 Cu 0.84891 0.65132 1.18215
 Cu373 Cu 0.85161 0.68414 1.14582
 Cu374 Cu 0.81330 0.65011 1.14831
 N375 N 0.83038 0.62941 1.18041
 N376 N 0.81656 0.62892 1.16710
 C377 C 0.80566 0.61242 1.16941
 C378 C 0.81304 0.60195 1.18505
 C379 C 0.82880 0.61320 1.19162
 H380 H 0.79329 0.60837 1.16037
 H381 H 0.83830 0.61000 1.20378
 N382 N 0.81585 0.66976 1.12729
 N383 N 0.83065 0.68248 1.12607
 C384 C 0.82843 0.69345 1.10993
 C385 C 0.81135 0.68745 1.10057
 C386 C 0.80381 0.67235 1.11202
 H387 H 0.83858 0.70489 1.10526
 H388 H 0.79059 0.66377 1.10941
 H389 H 0.82836 0.67278 1.16164
 H390 H 0.84341 0.65467 1.14756
 N391 N 0.87050 0.18439 0.66844
 N392 N 0.86958 0.17102 0.68223
 C393 C 0.88554 0.17288 0.69368
 C394 C 0.89706 0.18834 0.68674
 C395 C 0.88704 0.19524 0.67065
 H396 H 0.88839 0.16376 0.70622
 H397 H 0.89139 0.20728 0.66124
 Cu398 Cu 0.84752 0.15261 0.68419
 Cu399 Cu 0.84975 0.18734 0.64929
 Cu400 Cu 0.81521 0.14961 0.64756
 N401 N 0.82992 0.13005 0.68131
 N402 N 0.81756 0.12868 0.66673
 C403 C 0.80622 0.11247 0.66909
 C404 C 0.81171 0.10317 0.68614
 C405 C 0.82689 0.11475 0.69344
 H406 H 0.79420 0.10841 0.65961
 H407 H 0.83443 0.11277 0.70707
 N408 N 0.81719 0.17028 0.62751
 N409 N 0.83025 0.18478 0.62831
 C410 C 0.82781 0.19668 0.61287
 C411 C 0.81240 0.18938 0.60182
 C412 C 0.80608 0.17259 0.61153
 H413 H 0.83655 0.20976 0.60997
 H414 H 0.79430 0.16274 0.60719
 H415 H 0.82665 0.17295 0.66295
 H416 H 0.84481 0.15737 0.64941
 N417 N 0.31803 0.37269 0.66650
 N418 N 0.33045 0.37096 0.68098
 C419 C 0.32840 0.38662 0.69284
 C420 C 0.31381 0.39885 0.68548
 C421 C 0.30766 0.38953 0.66863
 H422 H 0.33692 0.38885 0.70586
 H423 H 0.29630 0.39439 0.65878
 Cu424 Cu 0.34791 0.34826 0.68333
 Cu425 Cu 0.31536 0.35222 0.64689
 Cu426 Cu 0.34904 0.31371 0.64832
 N427 N 0.36902 0.32879 0.68176
 N428 N 0.36939 0.31530 0.66808
 C429 C 0.38496 0.30328 0.67088
 C430 C 0.39499 0.30960 0.68723
 C431 C 0.38445 0.32590 0.69370
 H432 H 0.38842 0.29066 0.66188
 H433 H 0.38757 0.33486 0.70627
 N434 N 0.33025 0.31743 0.62689
 N435 N 0.31746 0.33215 0.62627
 C436 C 0.30697 0.33078 0.60978
 C437 C 0.31344 0.31441 0.59952
 C438 C 0.32825 0.30634 0.61081
 H439 H 0.29558 0.34104 0.60544
 H440 H 0.33691 0.29332 0.60761
 H441 H 0.32635 0.32857 0.66212
 H442 H 0.34478 0.34389 0.64857
 N443 N 0.31564 0.87006 0.16918
 N444 N 0.32984 0.86993 0.18212
 C445 C 0.32776 0.88573 0.19380
 C446 C 0.31136 0.89638 0.18788
 C447 C 0.30409 0.88597 0.17215
 H448 H 0.33763 0.88935 0.20554
 H449 H 0.29146 0.88971 0.16336
 Cu450 Cu 0.35011 0.84954 0.18161
 Cu451 Cu 0.31295 0.84939 0.14968
 Cu452 Cu 0.35012 0.81426 0.14772
 N453 N 0.37049 0.82925 0.18107
 N454 N 0.37068 0.81567 0.16743
 C455 C 0.38608 0.80345 0.17034
 C456 C 0.39615 0.80971 0.18669
 C457 C 0.38583 0.82617 0.19306
 H458 H 0.38944 0.79078 0.16139
 H459 H 0.38910 0.83513 0.20558
 N460 N 0.32977 0.81679 0.12746
 N461 N 0.31528 0.82983 0.12855
 C462 C 0.30352 0.82772 0.11301
 C463 C 0.31093 0.81263 0.10149
 C464 C 0.32769 0.80617 0.11107
 H465 H 0.29071 0.83677 0.11015
 H466 H 0.33766 0.79459 0.10652
 H467 H 0.32813 0.82744 0.16393
 H468 H 0.34291 0.84405 0.14773
 N469 N 0.81595 0.36989 0.16962
 N470 N 0.83135 0.37174 0.18102
 C471 C 0.82910 0.38800 0.19204
 C472 C 0.81128 0.39688 0.18732
 C473 C 0.80337 0.38494 0.17296
 H474 H 0.83967 0.39292 0.20269
 H475 H 0.78954 0.38697 0.16542
 Cu476 Cu 0.85263 0.35251 0.18066
 Cu477 Cu 0.81313 0.34755 0.15201
 Cu478 Cu 0.85653 0.32141 0.14305
 N479 N 0.87155 0.33095 0.18074
 N480 N 0.87326 0.31884 0.16593
 C481 C 0.88779 0.30578 0.16956
 C482 C 0.89555 0.30987 0.18772
 C483 C 0.88479 0.32595 0.19436
 H484 H 0.89219 0.29407 0.15978
 H485 H 0.88641 0.33351 0.20806
 N486 N 0.83319 0.32003 0.12603
 N487 N 0.81648 0.32937 0.12989
 C488 C 0.80331 0.32533 0.11586
 C489 C 0.81211 0.31280 0.10245
 C490 C 0.83110 0.30978 0.10942
 H491 H 0.78856 0.33147 0.11532
 H492 H 0.84264 0.30096 0.10280
 H493 H 0.83461 0.32776 0.16205
 H494 H 0.84270 0.34906 0.14675
 N495 N 0.81766 0.87358 0.66818
 N496 N 0.83129 0.87325 0.68167
 C497 C 0.82909 0.88920 0.69313
 C498 C 0.81318 0.90017 0.68650
 C499 C 0.80636 0.88977 0.67055
 H500 H 0.83839 0.89254 0.70539
 H501 H 0.79406 0.89360 0.66135
 Cu502 Cu 0.85066 0.85204 0.68318
 Cu503 Cu 0.81506 0.85247 0.64923
 Cu504 Cu 0.85299 0.81809 0.64740
 N505 N 0.87102 0.83173 0.68254
 N506 N 0.87204 0.81871 0.66844
 C507 C 0.88705 0.80616 0.67192
 C508 C 0.89598 0.81159 0.68915
 C509 C 0.88541 0.82794 0.69544
 H510 H 0.89071 0.79357 0.66295
 H511 H 0.88775 0.83622 0.70863
 N512 N 0.83218 0.81977 0.62757
 N513 N 0.81766 0.83277 0.62835
 C514 C 0.80579 0.83009 0.61295
 C515 C 0.81309 0.81454 0.60198
 C516 C 0.82987 0.80840 0.61172
 H517 H 0.79288 0.83892 0.60984
 H518 H 0.83961 0.79643 0.60765
 H519 H 0.83033 0.82994 0.66338
 H520 H 0.84519 0.84780 0.64857
 N521 N 0.68387 0.62977 0.67058
 N522 N 0.67124 0.63145 0.68507
 C523 C 0.67268 0.61545 0.69656
 C524 C 0.68706 0.60304 0.68889
 C525 C 0.69379 0.61265 0.67234
 H526 H 0.66387 0.61311 0.70951
 H527 H 0.70504 0.60761 0.66228
 Cu528 Cu 0.65390 0.65420 0.68747
 Cu529 Cu 0.68699 0.65033 0.65106
 Cu530 Cu 0.65085 0.68659 0.65080
 N531 N 0.63150 0.67201 0.68509
 N532 N 0.63021 0.68448 0.67054
 C533 C 0.61340 0.69497 0.67241
 C534 C 0.60356 0.68873 0.68903
 C535 C 0.61550 0.67407 0.69668
 H536 H 0.60867 0.70626 0.66238
 H537 H 0.61287 0.66558 0.70973
 N538 N 0.67077 0.68373 0.62993
 N539 N 0.68465 0.67002 0.63011
 C540 C 0.69604 0.67198 0.61411
 C541 C 0.68903 0.68771 0.60331
 C542 C 0.67293 0.69472 0.61378
 H543 H 0.70856 0.66266 0.61063
 H544 H 0.66341 0.70687 0.60986
 H545 H 0.67439 0.67410 0.66509
 H546 H 0.65724 0.65684 0.65250
 N547 N 0.68035 0.12508 0.16486
 N548 N 0.66678 0.12550 0.17862
 C549 C 0.67018 0.11068 0.19119
 C550 C 0.68677 0.10038 0.18497
 C551 C 0.69281 0.10998 0.16817
 H552 H 0.66162 0.10795 0.20422
 H553 H 0.70562 0.10664 0.15928
 Cu554 Cu 0.64636 0.14571 0.17872
 Cu555 Cu 0.68183 0.14498 0.14444
 Cu556 Cu 0.64802 0.18352 0.14749
 N557 N 0.62588 0.16588 0.17881
 N558 N 0.62645 0.18048 0.16625
 C559 C 0.61060 0.19217 0.16908
 C560 C 0.59943 0.18453 0.18428
 C561 C 0.60961 0.16780 0.19007
 H562 H 0.60740 0.20517 0.16057
 H563 H 0.60551 0.15776 0.20161
 N564 N 0.66806 0.18142 0.12662
 N565 N 0.68085 0.16674 0.12544
 C566 C 0.69239 0.16940 0.10964
 C567 C 0.68656 0.18653 0.10033
 C568 C 0.67102 0.19370 0.11150
 H569 H 0.70415 0.15953 0.10524
 H570 H 0.66231 0.20675 0.10869
 H571 H 0.66977 0.16682 0.16118
 H572 H 0.65226 0.15357 0.14481
 N573 N 0.18019 0.62508 0.16467
 N574 N 0.16702 0.62601 0.17878
 C575 C 0.17051 0.61137 0.19151
 C576 C 0.18675 0.60066 0.18508
 C577 C 0.19245 0.60980 0.16793
 H578 H 0.16240 0.60919 0.20492
 H579 H 0.20509 0.60622 0.15890
 Cu580 Cu 0.14750 0.64708 0.17978
 Cu581 Cu 0.18195 0.64499 0.14429
 Cu582 Cu 0.15129 0.68577 0.14958
 N583 N 0.12755 0.66779 0.17947
 N584 N 0.12942 0.68310 0.16790
 C585 C 0.11431 0.69563 0.17108
 C586 C 0.10213 0.68774 0.18539
 C587 C 0.11099 0.66996 0.19028
 H588 H 0.11234 0.70936 0.16335
 H589 H 0.10586 0.65941 0.20095
 N590 N 0.17013 0.68268 0.12788
 N591 N 0.18159 0.66708 0.12566
 C592 C 0.19240 0.66926 0.10930
 C593 C 0.18740 0.68706 0.10069
 C594 C 0.17314 0.69508 0.11288
 H595 H 0.20303 0.65860 0.10402
 H596 H 0.16526 0.70878 0.11086
 H597 H 0.17212 0.66681 0.16214
 H598 H 0.15301 0.65559 0.14600
 N599 N 0.18243 0.12752 0.66767
 N600 N 0.17005 0.12891 0.68240
 C601 C 0.17218 0.11300 0.69391
 C602 C 0.18680 0.10103 0.68601
 C603 C 0.19293 0.11074 0.66933
 H604 H 0.16387 0.11050 0.70715
 H605 H 0.20424 0.10601 0.65917
 Cu606 Cu 0.15250 0.15148 0.68538
 Cu607 Cu 0.18472 0.14810 0.64811
 Cu608 Cu 0.14870 0.18430 0.64904
 N609 N 0.13021 0.16956 0.68370
 N610 N 0.12862 0.18214 0.66928
 C611 C 0.11208 0.19292 0.67178
 C612 C 0.10276 0.18678 0.68870
 C613 C 0.11468 0.17185 0.69585
 H614 H 0.10723 0.20440 0.66201
 H615 H 0.11239 0.16340 0.70898
 N616 N 0.16818 0.18180 0.62775
 N617 N 0.18196 0.16799 0.62742
 C618 C 0.19376 0.17088 0.61186
 C619 C 0.18721 0.18738 0.60194
 C620 C 0.17087 0.19385 0.61241
 H621 H 0.20678 0.16222 0.60850
 H622 H 0.16204 0.20679 0.60951
 H623 H 0.17245 0.17162 0.66280
 H624 H 0.15498 0.15452 0.65038
 N625 N 0.31775 0.62764 0.33184
 N626 N 0.33258 0.62730 0.31939
 C627 C 0.33081 0.61124 0.30801
 C628 C 0.31397 0.60091 0.31363
 C629 C 0.30613 0.61177 0.32889
 H630 H 0.34115 0.60727 0.29664
 H631 H 0.29300 0.60843 0.33732
 Cu632 Cu 0.35326 0.64739 0.31982
 Cu633 Cu 0.31434 0.64889 0.35057
 Cu634 Cu 0.35109 0.68436 0.35224
 N635 N 0.37361 0.66781 0.32079
 N636 N 0.37268 0.68224 0.33352
 C637 C 0.38838 0.69425 0.33101
 C638 C 0.39991 0.68694 0.31592
 C639 C 0.39009 0.67005 0.30989
 H640 H 0.39121 0.70724 0.33967
 H641 H 0.39457 0.66010 0.29844
 N642 N 0.32993 0.68241 0.37197
 N643 N 0.31556 0.66923 0.37099
 C644 C 0.30323 0.67176 0.38621
 C645 C 0.31020 0.68723 0.39741
 C646 C 0.32727 0.69351 0.38799
 H647 H 0.29039 0.66265 0.38920
 H648 H 0.33707 0.70527 0.39240
 H649 H 0.33020 0.67006 0.33555
 H650 H 0.34426 0.65444 0.35314
 N651 N 0.31857 0.12748 0.83267
 N652 N 0.33260 0.12764 0.81934
 C653 C 0.32972 0.11237 0.80713
 C654 C 0.31305 0.10202 0.81323
 C655 C 0.30641 0.11209 0.82950
 H656 H 0.33883 0.10925 0.79456
 H657 H 0.29317 0.10906 0.83791
 Cu658 Cu 0.35296 0.14805 0.81973
 Cu659 Cu 0.31588 0.14843 0.85194
 Cu660 Cu 0.35300 0.18382 0.85308
 N661 N 0.37410 0.16766 0.82032
 N662 N 0.37426 0.18136 0.83385
 C663 C 0.39048 0.19271 0.83153
 C664 C 0.40113 0.18578 0.81568
 C665 C 0.39027 0.16982 0.80896
 H666 H 0.39427 0.20504 0.84076
 H667 H 0.39386 0.16049 0.79671
 N668 N 0.33208 0.18186 0.87322
 N669 N 0.31775 0.16858 0.87253
 C670 C 0.30559 0.17117 0.88787
 C671 C 0.31254 0.18682 0.89883
 C672 C 0.32948 0.19313 0.88915
 H673 H 0.29276 0.16211 0.89094
 H674 H 0.33920 0.20504 0.89333
 H675 H 0.33101 0.17040 0.83746
 H676 H 0.34586 0.15417 0.85362
 N677 N 0.82317 0.62305 0.83840
 N678 N 0.83585 0.62421 0.82389
 C679 C 0.83064 0.61119 0.81008
 C680 C 0.81384 0.60118 0.81631
 C681 C 0.80954 0.60912 0.83440
 H682 H 0.83834 0.60937 0.79640
 H683 H 0.79735 0.60524 0.84394
 Cu684 Cu 0.85820 0.64236 0.82453
 Cu685 Cu 0.82549 0.63986 0.86126
 Cu686 Cu 0.85312 0.68233 0.85276
 N687 N 0.87796 0.66327 0.82449
 N688 N 0.87570 0.67904 0.83538
 C689 C 0.89072 0.69165 0.83193
 C690 C 0.90324 0.68332 0.81816
 C691 C 0.89465 0.66523 0.81384
 H692 H 0.89225 0.70584 0.83894
 H693 H 0.90000 0.65436 0.80360
 N694 N 0.83454 0.67953 0.87473
 N695 N 0.82422 0.66332 0.87816
 C696 C 0.81262 0.66624 0.89388
 C697 C 0.81599 0.68516 0.90086
 C698 C 0.83002 0.69309 0.88831
 H699 H 0.80214 0.65555 0.89945
 H700 H 0.83613 0.70784 0.88866
 H701 H 0.83317 0.66118 0.84229
 H702 H 0.85377 0.65287 0.85825
 N703 N 0.82221 0.12406 0.33643
 N704 N 0.83620 0.12428 0.32307
 C705 C 0.83308 0.10929 0.31061
 C706 C 0.81626 0.09909 0.31651
 C707 C 0.80982 0.10891 0.33300
 H708 H 0.84191 0.10647 0.29777
 H709 H 0.79667 0.10581 0.34151
 Cu710 Cu 0.85627 0.14493 0.32270
 Cu711 Cu 0.82009 0.14424 0.35640
 Cu712 Cu 0.85586 0.18104 0.35619
 N713 N 0.87657 0.16535 0.32303
 N714 N 0.87599 0.17968 0.33588
 C715 C 0.89137 0.19195 0.33277
 C716 C 0.90234 0.18492 0.31717
 C717 C 0.89251 0.16792 0.31143
 H718 H 0.89450 0.20481 0.34151
 H719 H 0.89663 0.15812 0.29974
 N720 N 0.83428 0.17975 0.37554
 N721 N 0.82050 0.16591 0.37541
 C722 C 0.80794 0.16899 0.39035
 C723 C 0.81415 0.18549 0.40051
 C724 C 0.83097 0.19186 0.39072
 H725 H 0.79547 0.15959 0.39386
 H726 H 0.84024 0.20428 0.39443
 H727 H 0.83404 0.16650 0.34093
 H728 H 0.84997 0.15111 0.35699
 N729 N 0.68009 0.37577 0.33516
 N730 N 0.66723 0.37457 0.32099
 C731 C 0.66994 0.38997 0.30891
 C732 C 0.68532 0.40152 0.31581
 C733 C 0.69132 0.39204 0.33262
 H734 H 0.66130 0.39256 0.29603
 H735 H 0.70313 0.39645 0.34218
 Cu736 Cu 0.64804 0.35311 0.31932
 Cu737 Cu 0.68218 0.35522 0.35481
 Cu738 Cu 0.64653 0.31870 0.35447
 N739 N 0.62737 0.33297 0.32038
 N740 N 0.62653 0.31982 0.33439
 C741 C 0.61164 0.30710 0.33088
 C742 C 0.60264 0.31249 0.31369
 C743 C 0.61299 0.32904 0.30749
 H744 H 0.60829 0.29424 0.33960
 H745 H 0.61071 0.33721 0.29424
 N746 N 0.66601 0.32129 0.37541
 N747 N 0.67977 0.33516 0.37550
 C748 C 0.69188 0.33204 0.39065
 C749 C 0.68548 0.31535 0.40053
 C750 C 0.66897 0.30902 0.39048
 H751 H 0.70501 0.34063 0.39368
 H752 H 0.66025 0.29594 0.39338
 H753 H 0.66930 0.33257 0.33961
 H754 H 0.65240 0.34884 0.35404
 N755 N 0.68106 0.87115 0.83187
 N756 N 0.66922 0.86899 0.81698
 C757 C 0.67201 0.88415 0.80462
 C758 C 0.68647 0.89646 0.81216
 C759 C 0.69181 0.88773 0.82952
 H760 H 0.66415 0.88597 0.79114
 H761 H 0.70273 0.89298 0.83969
 Cu762 Cu 0.65130 0.84660 0.81503
 Cu763 Cu 0.68245 0.85161 0.85246
 Cu764 Cu 0.64671 0.81497 0.85242
 N765 N 0.62866 0.82901 0.81753
 N766 N 0.62689 0.81668 0.83216
 C767 C 0.61024 0.80598 0.83002
 C768 C 0.60096 0.81198 0.81315
 C769 C 0.61307 0.82672 0.80567
 H770 H 0.60540 0.79461 0.83999
 H771 H 0.61078 0.83519 0.79260
 N772 N 0.66555 0.81860 0.87384
 N773 N 0.67921 0.83258 0.87386
 C774 C 0.69058 0.83041 0.88967
 C775 C 0.68382 0.81427 0.90014
 C776 C 0.66784 0.80723 0.88969
 H777 H 0.70347 0.83930 0.89283
 H778 H 0.65905 0.79426 0.89286
 H779 H 0.67075 0.82745 0.83851
 H780 H 0.65274 0.84470 0.85013
 N781 N 0.18185 0.37099 0.83367
 N782 N 0.16807 0.37077 0.82030
 C783 C 0.17095 0.38617 0.80824
 C784 C 0.18749 0.39654 0.81428
 C785 C 0.19399 0.38648 0.83053
 H786 H 0.16221 0.38912 0.79549
 H787 H 0.20698 0.38971 0.83905
 Cu788 Cu 0.14836 0.34977 0.81901
 Cu789 Cu 0.18409 0.35006 0.85282
 Cu790 Cu 0.14860 0.31328 0.85232
 N791 N 0.12774 0.32963 0.82002
 N792 N 0.12779 0.31551 0.83310
 C793 C 0.11195 0.30376 0.83042
 C794 C 0.10133 0.31090 0.81479
 C795 C 0.11179 0.32738 0.80862
 H796 H 0.10852 0.29092 0.83915
 H797 H 0.10795 0.33711 0.79681
 N798 N 0.16849 0.31566 0.87297
 N799 N 0.18208 0.32969 0.87315
 C800 C 0.19332 0.32752 0.88907
 C801 C 0.18648 0.31133 0.89944
 C802 C 0.17067 0.30424 0.88880
 H803 H 0.20554 0.33707 0.89283
 H804 H 0.16127 0.29183 0.89244
 H805 H 0.17050 0.32801 0.83710
 H806 H 0.15412 0.34331 0.85310
 N807 N 0.18294 0.86975 0.33074
 N808 N 0.17057 0.86802 0.31622
 C809 C 0.17246 0.88389 0.30456
 C810 C 0.18687 0.89623 0.31218
 C811 C 0.19310 0.88675 0.32888
 H812 H 0.16401 0.88615 0.29150
 H813 H 0.20427 0.89175 0.33891
 Cu814 Cu 0.15316 0.84524 0.31391
 Cu815 Cu 0.18577 0.84921 0.35025
 Cu816 Cu 0.15035 0.81212 0.35012
 N817 N 0.13079 0.82726 0.31646
 N818 N 0.12973 0.81433 0.33065
 C819 C 0.11311 0.80353 0.32872
 C820 C 0.10309 0.81008 0.31244
 C821 C 0.11476 0.82526 0.30511
 H822 H 0.10878 0.79173 0.33842
 H823 H 0.11187 0.83423 0.29249
 N824 N 0.16994 0.81522 0.37100
 N825 N 0.18349 0.82930 0.37100
 C826 C 0.19456 0.82757 0.38708
 C827 C 0.18766 0.81163 0.39777
 C828 C 0.17199 0.80422 0.38713
 H829 H 0.20673 0.83725 0.39072
 H830 H 0.16261 0.79186 0.39096
 H831 H 0.17374 0.82542 0.33595
 H832 H 0.15606 0.84202 0.34885
 C833 C 0.24327 1.06212 0.25788
 C834 C 0.25797 1.06205 0.24404
 C835 C 0.26180 1.04242 0.23972
 N836 N 0.25003 1.03057 0.25058
 C837 C 0.23871 1.04252 0.26175
 C838 C 0.27544 1.03591 0.22542
 C839 C 0.27890 1.01586 0.22054
 C840 C 0.29023 1.00978 0.20477
 C841 C 0.29010 0.98952 0.20481
 C842 C 0.27868 0.98362 0.22059
 N843 N 0.27219 0.99978 0.23030
 C844 C 0.27494 0.96362 0.22554
 C845 C 0.26105 0.95726 0.23969
 C846 C 0.25690 0.93765 0.24394
 C847 C 0.24198 0.93770 0.25754
 C848 C 0.23762 0.95734 0.26136
 N849 N 0.24927 0.96920 0.25039
 C850 C 0.22351 0.96383 0.27524
 C851 C 0.21986 0.98388 0.28003
 C852 C 0.20792 0.98992 0.29538
 C853 C 0.20828 1.01019 0.29556
 C854 C 0.22042 1.01613 0.28030
 N855 N 0.22714 0.99998 0.27072
 C856 C 0.22466 1.03614 0.27576
 H857 H 0.23679 1.07515 0.26445
 H858 H 0.26489 1.07501 0.23774
 H859 H 0.23498 0.99998 0.25779
 H860 H 0.29777 1.01897 0.19419
 H861 H 0.29752 0.98021 0.19426
 H862 H 0.26373 0.92463 0.23773
 H863 H 0.23526 0.92473 0.26402
 H864 H 0.20053 1.01947 0.30589
 H865 H 0.26510 0.99981 0.24366
 H866 H 0.19987 0.98071 0.30557
 C867 C 0.25465 0.43827 0.73677
 C868 C 0.24028 0.43735 0.75088
 C869 C 0.23779 0.45643 0.75783
 N870 N 0.25024 0.46891 0.74849
 C871 C 0.26045 0.45788 0.73549
 C872 C 0.22513 0.46164 0.77343
 C873 C 0.22190 0.48125 0.77979
 C874 C 0.21245 0.48630 0.79701
 C875 C 0.21180 0.50659 0.79767
 C876 C 0.22086 0.51343 0.78082
 N877 N 0.22673 0.49786 0.76990
 C878 C 0.22282 0.53361 0.77577
 C879 C 0.23487 0.54067 0.76040
 C880 C 0.23578 0.56021 0.75439
 C881 C 0.24978 0.56109 0.73990
 C882 C 0.25710 0.54210 0.73763
 N883 N 0.24804 0.52969 0.75025
 C884 C 0.27279 0.53686 0.72498
 C885 C 0.27948 0.51730 0.72207
 C886 C 0.29688 0.51230 0.71242
 C887 C 0.29768 0.49204 0.71190
 C888 C 0.28074 0.48516 0.72120
 N889 N 0.26963 0.50066 0.72717
 C890 C 0.27571 0.46498 0.72321
 H891 H 0.26033 0.42586 0.72855
 H892 H 0.23273 0.42407 0.75565
 H893 H 0.25524 0.49995 0.73248
 H894 H 0.20661 0.47639 0.80798
 H895 H 0.20536 0.51532 0.80925
 H896 H 0.22738 0.57259 0.75999
 H897 H 0.25431 0.57428 0.73216
 H898 H 0.30939 0.48336 0.70533
 H899 H 0.23191 0.49849 0.75572
 H900 H 0.30786 0.52222 0.70631
 C901 C 0.74299 -0.06202 0.24357
 C902 C 0.75788 -0.06213 0.25700
 C903 C 0.76236 -0.04254 0.26094
 N904 N 0.75078 -0.03055 0.25021
 C905 C 0.73894 -0.04237 0.23955
 C906 C 0.77647 -0.03625 0.27474
 C907 C 0.78052 -0.01625 0.27945
 C908 C 0.79230 -0.01032 0.29483
 C909 C 0.79237 0.00996 0.29488
 C910 C 0.78070 0.01598 0.27952
 N911 N 0.77382 -0.00010 0.26998
 C912 C 0.77679 0.03598 0.27493
 C913 C 0.76282 0.04242 0.26111
 C914 C 0.75855 0.06208 0.25733
 C915 C 0.74387 0.06219 0.24377
 C916 C 0.73963 0.04259 0.23959
 N917 N 0.75124 0.03058 0.25022
 C918 C 0.72570 0.03637 0.22562
 C919 C 0.72167 0.01642 0.22087
 C920 C 0.71015 0.01056 0.20532
 C921 C 0.70994 -0.00973 0.20534
 C922 C 0.72140 -0.01582 0.22087
 N923 N 0.72819 0.00025 0.23046
 C924 C 0.72502 -0.03587 0.22566
 H925 H 0.73610 -0.07497 0.23732
 H926 H 0.76450 -0.07518 0.26328
 H927 H 0.73549 0.00017 0.24361
 H928 H 0.79991 -0.01961 0.30513
 H929 H 0.80002 0.01922 0.30523
 H930 H 0.76520 0.07506 0.26376
 H931 H 0.73718 0.07527 0.23763
 H932 H 0.70233 -0.01892 0.19493
 H933 H 0.76625 -0.00005 0.25699
 H934 H 0.70278 0.01993 0.19490
 C935 C 0.74642 0.43831 0.74327
 C936 C 0.76097 0.43917 0.75702
 C937 C 0.76386 0.45900 0.76127
 N938 N 0.75155 0.47019 0.75052
 C939 C 0.74087 0.45763 0.73949
 C940 C 0.77708 0.46619 0.77551
 C941 C 0.77960 0.48642 0.78034
 C942 C 0.79058 0.49313 0.79598
 C943 C 0.78944 0.51340 0.79591
 C944 C 0.77782 0.51865 0.78023
 N945 N 0.77216 0.50213 0.77064
 C946 C 0.77299 0.53840 0.77532
 C947 C 0.75868 0.54391 0.76142
 C948 C 0.75350 0.56325 0.75720
 C949 C 0.73881 0.56237 0.74363
 C950 C 0.73553 0.54252 0.73985
 N951 N 0.74766 0.53131 0.75079
 C952 C 0.72203 0.53531 0.72592
 C953 C 0.71920 0.51510 0.72133
 C954 C 0.70776 0.50842 0.70603
 C955 C 0.70896 0.48819 0.70602
 C956 C 0.72110 0.48292 0.72133
 N957 N 0.72698 0.49941 0.73080
 C958 C 0.72637 0.46318 0.72581
 H959 H 0.74060 0.42495 0.73682
 H960 H 0.76838 0.42657 0.76334
 H961 H 0.73467 0.49985 0.74371
 H962 H 0.79851 0.48435 0.80648
 H963 H 0.79628 0.52316 0.80636
 H964 H 0.75959 0.57667 0.76331
 H965 H 0.73157 0.57496 0.73712
 H966 H 0.70188 0.47849 0.69568
 H967 H 0.76505 0.50169 0.75740
 H968 H 0.69954 0.51720 0.69574
 C969 C 0.24577 0.56216 0.24412
 C970 C 0.26051 0.56138 0.25764
 C971 C 0.26366 0.54156 0.26162
 N972 N 0.25139 0.53027 0.25087
 C973 C 0.24043 0.54278 0.24013
 C974 C 0.27720 0.53443 0.27551
 C975 C 0.28034 0.51421 0.27981
 C976 C 0.29185 0.50753 0.29505
 C977 C 0.29133 0.48727 0.29449
 C978 C 0.27947 0.48201 0.27896
 N979 N 0.27311 0.49854 0.26988
 C980 C 0.27514 0.46224 0.27367
 C981 C 0.26078 0.45658 0.25988
 C982 C 0.25587 0.43719 0.25552
 C983 C 0.24085 0.43795 0.24227
 C984 C 0.23715 0.45779 0.23877
 N985 N 0.24932 0.46908 0.24961
 C986 C 0.22325 0.46492 0.22517
 C987 C 0.22003 0.48516 0.22087
 C988 C 0.20845 0.49185 0.20567
 C989 C 0.20925 0.51213 0.20599
 C990 C 0.22124 0.51740 0.22141
 N991 N 0.22746 0.50086 0.23060
 C992 C 0.22605 0.53717 0.22631
 H993 H 0.23978 0.57552 0.23786
 H994 H 0.26794 0.57400 0.26394
 H995 H 0.23510 0.50035 0.24355
 H996 H 0.29977 0.51631 0.30558
 H997 H 0.29878 0.47756 0.30454
 H998 H 0.26230 0.42386 0.26141
 H999 H 0.23365 0.42530 0.23578
 H1000 H 0.20197 0.52187 0.19585
 H1001 H 0.26571 0.49907 0.25680
 H1002 H 0.20042 0.48305 0.19523
 C1003 C 0.73828 1.06249 0.75831
 C1004 C 0.75273 1.06333 0.74427
 C1005 C 0.75837 1.04400 0.74045
 N1006 N 0.74789 1.03148 0.75181
 C1007 C 0.73563 1.04269 0.76276
 C1008 C 0.77270 1.03845 0.72638
 C1009 C 0.77754 1.01871 0.72135
 C1010 C 0.78981 1.01355 0.70595
 C1011 C 0.79048 0.99327 0.70545
 C1012 C 0.77856 0.98647 0.72054
 N1013 N 0.77103 1.00211 0.73035
 C1014 C 0.77510 0.96620 0.72463
 C1015 C 0.76117 0.95900 0.73839
 C1016 C 0.75723 0.93915 0.74171
 C1017 C 0.74239 0.93836 0.75538
 C1018 C 0.73788 0.95772 0.76019
 N1019 N 0.74935 0.97025 0.74977
 C1020 C 0.72398 0.96335 0.77462
 C1021 C 0.72019 0.98308 0.78041
 C1022 C 0.70911 0.98825 0.79667
 C1023 C 0.70883 1.00849 0.79747
 C1024 C 0.71967 1.01527 0.78164
 N1025 N 0.72630 0.99967 0.77115
 C1026 C 0.72259 1.03550 0.77726
 H1027 H 0.73071 1.07505 0.76463
 H1028 H 0.75832 1.07669 0.73755
 H1029 H 0.73295 1.00029 0.75758
 H1030 H 0.79735 1.02336 0.69593
 H1031 H 0.79866 0.98454 0.69497
 H1032 H 0.76421 0.92653 0.73488
 H1033 H 0.73588 0.92501 0.76130
 H1034 H 0.70146 1.01720 0.80852
 H1035 H 0.76301 1.00151 0.74315
 H1036 H 0.70200 0.97849 0.80703
 C1037 C 0.76589 0.56166 0.24669
 C1038 C 0.75213 0.56255 0.26139
 C1039 C 0.74429 0.54369 0.26336
 N1040 N 0.75268 0.53140 0.25025
 C1041 C 0.76598 0.54230 0.24012
 C1042 C 0.72864 0.53855 0.27612
 C1043 C 0.72177 0.51901 0.27900
 C1044 C 0.70443 0.51409 0.28879
 C1045 C 0.70341 0.49380 0.28913
 C1046 C 0.72012 0.48685 0.27951
 N1047 N 0.73135 0.50232 0.27360
 C1048 C 0.72486 0.46662 0.27716
 C1049 C 0.73969 0.45952 0.26436
 C1050 C 0.74547 0.43993 0.26285
 C1051 C 0.75941 0.43909 0.24828
 C1052 C 0.76158 0.45816 0.24126
 N1053 N 0.74941 0.47057 0.25101
 C1054 C 0.77377 0.46355 0.22535
 C1055 C 0.77658 0.48322 0.21897
 C1056 C 0.78554 0.48847 0.20153
 C1057 C 0.78649 0.50875 0.20118
 C1058 C 0.77812 0.51537 0.21842
 N1059 N 0.77229 0.49970 0.22924
 C1060 C 0.77718 0.53541 0.22413
 H1061 H 0.77456 0.57395 0.24123
 H1062 H 0.74816 0.57566 0.26950
 H1063 H 0.76781 0.50012 0.24365
 H1064 H 0.69367 0.52406 0.29513
 H1065 H 0.69167 0.48516 0.29576
 H1066 H 0.74009 0.42750 0.27126
 H1067 H 0.76687 0.42589 0.24323
 H1068 H 0.79286 0.51757 0.18962
 H1069 H 0.74564 0.50151 0.26804
 H1070 H 0.79103 0.47872 0.19028
 C1071 C 0.23896 -0.06154 0.74892
 C1072 C 0.25303 -0.06080 0.76317
 C1073 C 0.25972 -0.04144 0.76392
 N1074 N 0.25030 -0.03040 0.75051
 C1075 C 0.23749 -0.04260 0.74143
 C1076 C 0.27513 -0.03460 0.77601
 C1077 C 0.28061 -0.01449 0.77787
 C1078 C 0.29734 -0.00783 0.78746
 C1079 C 0.29683 0.01249 0.78695
 C1080 C 0.27985 0.01772 0.77700
 N1081 N 0.26994 0.00119 0.77174
 C1082 C 0.27353 0.03738 0.77386
 C1083 C 0.25800 0.04273 0.76126
 C1084 C 0.25042 0.06168 0.75946
 C1085 C 0.23634 0.06091 0.74525
 C1086 C 0.23576 0.04153 0.73883
 N1087 N 0.24912 0.03049 0.74851
 C1088 C 0.22389 0.03465 0.72344
 C1089 C 0.22244 0.01459 0.71799
 C1090 C 0.21365 0.00792 0.70108
 C1091 C 0.21408 -0.01237 0.70170
 C1092 C 0.22313 -0.01757 0.71897
 N1093 N 0.22801 -0.00105 0.72888
 C1094 C 0.22541 -0.03719 0.72565
 H1095 H 0.23095 -0.07459 0.74439
 H1096 H 0.25798 -0.07319 0.77180
 H1097 H 0.23261 -0.00050 0.74318
 H1098 H 0.30865 -0.01666 0.79432
 H1099 H 0.30767 0.02228 0.79335
 H1100 H 0.25468 0.07476 0.76746
 H1101 H 0.22771 0.07328 0.74009
 H1102 H 0.20814 -0.02213 0.69076
 H1103 H 0.25573 0.00070 0.76619
 H1104 H 0.20733 0.01672 0.68958
 C1105 C 0.26237 0.24775 1.06052
 C1106 C 0.24797 0.26204 1.06069
 C1107 C 0.24072 0.26319 1.04196
 N1108 N 0.25012 0.25000 1.03042
 C1109 C 0.26348 0.24067 1.04167
 C1110 C 0.22481 0.27531 1.03614
 C1111 C 0.21839 0.27715 1.01672
 C1112 C 0.20090 0.28622 1.01117
 C1113 C 0.20059 0.28601 0.99123
 C1114 C 0.21789 0.27683 0.98510
 N1115 N 0.22872 0.27164 1.00073
 C1116 C 0.22368 0.27460 0.96546
 C1117 C 0.23943 0.26241 0.95917
 C1118 C 0.24611 0.26096 0.94015
 C1119 C 0.26051 0.24669 0.93993
 C1120 C 0.26227 0.23999 0.95884
 N1121 N 0.24925 0.24948 0.97052
 C1122 C 0.27495 0.22458 0.96478
 C1123 C 0.27752 0.21878 0.98431
 C1124 C 0.28697 0.20159 0.99006
 C1125 C 0.28715 0.20166 1.00999
 C1126 C 0.27780 0.21890 1.01593
 N1127 N 0.27217 0.22934 1.00016
 C1128 C 0.27576 0.22496 1.03548
 H1129 H 0.27085 0.24293 1.07291
 H1130 H 0.24315 0.27039 1.07325
 H1131 H 0.26700 0.24375 1.00018
 H1132 H 0.18961 0.29254 1.02048
 H1133 H 0.18900 0.29213 0.98228
 H1134 H 0.24090 0.26910 0.92767
 H1135 H 0.26861 0.24168 0.92725
 H1136 H 0.29359 0.19035 1.01905
 H1137 H 0.24327 0.26676 1.00045
 H1138 H 0.29319 0.19019 0.98086
 C1139 C 0.24673 0.76186 0.56018
 C1140 C 0.26132 0.74779 0.55998
 C1141 C 0.26294 0.74118 0.54100
 N1142 N 0.24981 0.75072 0.52965
 C1143 C 0.24000 0.76350 0.54129
 C1144 C 0.27534 0.72557 0.53481
 C1145 C 0.27722 0.71936 0.51529
 C1146 C 0.28609 0.70186 0.50944
 C1147 C 0.28561 0.70156 0.48951
 C1148 C 0.27657 0.71894 0.48370
 N1149 N 0.27167 0.72979 0.49950
 C1150 C 0.27393 0.72464 0.46414
 C1151 C 0.26201 0.74065 0.45826
 C1152 C 0.26093 0.74777 0.43945
 C1153 C 0.24700 0.76251 0.43963
 C1154 C 0.24000 0.76385 0.45854
 N1155 N 0.24913 0.75042 0.46986
 C1156 C 0.22441 0.77630 0.46469
 C1157 C 0.21844 0.77854 0.48427
 C1158 C 0.20113 0.78780 0.49027
 C1159 C 0.20111 0.78767 0.51020
 C1160 C 0.21843 0.77837 0.51589
 N1161 N 0.22900 0.77306 0.49998
 C1162 C 0.22427 0.77582 0.53539
 H1163 H 0.24150 0.76979 0.57285
 H1164 H 0.26949 0.74271 0.57247
 H1165 H 0.24347 0.76793 0.49984
 H1166 H 0.29232 0.69046 0.51854
 H1167 H 0.29139 0.68989 0.48036
 H1168 H 0.26920 0.74278 0.42687
 H1169 H 0.24233 0.77103 0.42719
 H1170 H 0.18966 0.79382 0.51946
 H1171 H 0.26683 0.74431 0.49946
 H1172 H 0.18971 0.79408 0.48123
 C1173 C 0.24918 0.73758 -0.06076
 C1174 C 0.26348 0.75202 -0.06078
 C1175 C 0.26424 0.75939 -0.04203
 N1176 N 0.25083 0.75004 -0.03065
 C1177 C 0.24169 0.73661 -0.04201
 C1178 C 0.27614 0.77544 -0.03610
 C1179 C 0.27802 0.78161 -0.01658
 C1180 C 0.28693 0.79911 -0.01080
 C1181 C 0.28667 0.79924 0.00914
 C1182 C 0.27761 0.78182 0.01504
 N1183 N 0.27258 0.77107 -0.00073
 C1184 C 0.27509 0.77599 0.03461
 C1185 C 0.26274 0.76027 0.04068
 C1186 C 0.26122 0.75338 0.05958
 C1187 C 0.24707 0.73882 0.05955
 C1188 C 0.24026 0.73742 0.04067
 N1189 N 0.24978 0.75062 0.02921
 C1190 C 0.22461 0.72505 0.03463
 C1191 C 0.21880 0.72282 0.01508
 C1192 C 0.20150 0.71359 0.00918
 C1193 C 0.20181 0.71345 -0.01076
 C1194 C 0.21929 0.72260 -0.01654
 N1195 N 0.22963 0.72810 -0.00068
 C1196 C 0.22573 0.72449 -0.03603
 H1197 H 0.24460 0.72901 -0.07321
 H1198 H 0.27209 0.75678 -0.07324
 H1199 H 0.24419 0.73303 -0.00061
 H1200 H 0.29311 0.81057 -0.01998
 H1201 H 0.29258 0.81083 0.01825
 H1202 H 0.26933 0.75845 0.07213
 H1203 H 0.24210 0.73047 0.07206
 H1204 H 0.19051 0.70711 -0.01994
 H1205 H 0.26773 0.75653 -0.00064
 H1206 H 0.18993 0.70741 0.01828
 C1207 C 0.24739 0.23540 0.44082
 C1208 C 0.26166 0.24984 0.43979
 C1209 C 0.26314 0.25785 0.45823
 N1210 N 0.25019 0.24888 0.47042
 C1211 C 0.24065 0.23504 0.45987
 C1212 C 0.27529 0.27407 0.46319
 C1213 C 0.27765 0.28110 0.48235
 C1214 C 0.28658 0.29889 0.48719
 C1215 C 0.28713 0.29972 0.50710
 C1216 C 0.27854 0.28242 0.51390
 N1217 N 0.27295 0.27109 0.49872
 C1218 C 0.27726 0.27700 0.53367
 C1219 C 0.26561 0.26115 0.54064
 C1220 C 0.26528 0.25462 0.55969
 C1221 C 0.25113 0.24012 0.56075
 C1222 C 0.24329 0.23823 0.54230
 N1223 N 0.25207 0.25121 0.53008
 C1224 C 0.22733 0.22569 0.53741
 C1225 C 0.22059 0.22274 0.51826
 C1226 C 0.20302 0.21336 0.51345
 C1227 C 0.20235 0.21263 0.49352
 C1228 C 0.21952 0.22161 0.48667
 N1229 N 0.23063 0.22753 0.50186
 C1230 C 0.22499 0.22305 0.46686
 H1231 H 0.24234 0.22640 0.42884
 H1232 H 0.26977 0.25418 0.42687
 H1233 H 0.24516 0.23252 0.50112
 H1234 H 0.29234 0.31004 0.47740
 H1235 H 0.29339 0.31162 0.51558
 H1236 H 0.27407 0.25999 0.57167
 H1237 H 0.24690 0.23209 0.57372
 H1238 H 0.19062 0.20606 0.48505
 H1239 H 0.26843 0.25645 0.49944
 H1240 H 0.19191 0.20748 0.52329
 C1241 C 0.74081 0.75662 1.06043
 C1242 C 0.75457 0.74173 1.06030
 C1243 C 0.75942 0.73822 1.04102
 N1244 N 0.74899 0.75044 1.02944
 C1245 C 0.73758 0.76170 1.04122
 C1246 C 0.77389 0.72450 1.03466
 C1247 C 0.77910 0.72105 1.01497
 C1248 C 0.79515 0.70973 1.00899
 C1249 C 0.79531 0.70990 0.98906
 C1250 C 0.77935 0.72127 0.98330
 N1251 N 0.76935 0.72776 0.99918
 C1252 C 0.77455 0.72518 0.96370
 C1253 C 0.76040 0.73922 0.95761
 C1254 C 0.75622 0.74341 0.93837
 C1255 C 0.74246 0.75821 0.93849
 C1256 C 0.73854 0.76260 0.95780
 N1257 N 0.74958 0.75099 0.96942
 C1258 C 0.72445 0.77670 0.96413
 C1259 C 0.71977 0.78082 0.98377
 C1260 C 0.70415 0.79270 0.98970
 C1261 C 0.70407 0.79266 1.00962
 C1262 C 0.71961 0.78068 1.01543
 N1263 N 0.72934 0.77384 0.99956
 C1264 C 0.72395 0.77626 1.03506
 H1265 H 0.73394 0.76292 1.07324
 H1266 H 0.76047 0.73447 1.07300
 H1267 H 0.74245 0.76596 0.99952
 H1268 H 0.80578 0.70220 1.01803
 H1269 H 0.80611 0.70260 0.97986
 H1270 H 0.76250 0.73661 0.92552
 H1271 H 0.73601 0.76487 0.92574
 H1272 H 0.69346 0.80028 1.01877
 H1273 H 0.75580 0.73491 0.99925
 H1274 H 0.69365 0.80038 0.98062
 C1275 C 0.74766 0.26500 0.55952
 C1276 C 0.76203 0.25071 0.56003
 C1277 C 0.76353 0.24312 0.54141
 N1278 N 0.75047 0.25219 0.52961
 C1279 C 0.74085 0.26569 0.54060
 C1280 C 0.77579 0.22715 0.53594
 C1281 C 0.77812 0.22044 0.51664
 C1282 C 0.78734 0.20291 0.51140
 C1283 C 0.78745 0.20219 0.49148
 C1284 C 0.77832 0.21930 0.48506
 N1285 N 0.77287 0.23043 0.50048
 C1286 C 0.77611 0.22449 0.46534
 C1287 C 0.76384 0.23991 0.45872
 C1288 C 0.76246 0.24586 0.43953
 C1289 C 0.74842 0.26045 0.43903
 C1290 C 0.74160 0.26289 0.45791
 N1291 N 0.75095 0.25020 0.46988
 C1292 C 0.72610 0.27577 0.46346
 C1293 C 0.71986 0.27873 0.48288
 C1294 C 0.70253 0.28825 0.48833
 C1295 C 0.70219 0.28870 0.50829
 C1296 C 0.71934 0.27946 0.51451
 N1297 N 0.73011 0.27363 0.49891
 C1298 C 0.72505 0.27765 0.53416
 H1299 H 0.74258 0.27366 0.57178
 H1300 H 0.77021 0.24619 0.57273
 H1301 H 0.74455 0.26844 0.49916
 H1302 H 0.79350 0.19182 0.52091
 H1303 H 0.79367 0.19042 0.48273
 H1304 H 0.77055 0.24015 0.42714
 H1305 H 0.74360 0.26816 0.42615
 H1306 H 0.69067 0.29525 0.51718
 H1307 H 0.76790 0.24490 0.49997
 H1308 H 0.69132 0.29433 0.47891
 C1309 C 0.74805 0.24026 -0.06047
 C1310 C 0.76231 0.25472 -0.06028
 C1311 C 0.76378 0.26111 -0.04123
 N1312 N 0.75086 0.25107 -0.02984
 C1313 C 0.74135 0.23818 -0.04152
 C1314 C 0.77599 0.27683 -0.03497
 C1315 C 0.77826 0.28244 -0.01531
 C1316 C 0.78757 0.29962 -0.00924
 C1317 C 0.78748 0.29934 0.01071
 C1318 C 0.77814 0.28197 0.01634
 N1319 N 0.77277 0.27166 0.00038
 C1320 C 0.77553 0.27588 0.03585
 C1321 C 0.76306 0.26015 0.04172
 C1322 C 0.76135 0.25318 0.06057
 C1323 C 0.74717 0.23865 0.06034
 C1324 C 0.74058 0.23731 0.04139
 N1325 N 0.75023 0.25054 0.03007
 C1326 C 0.72504 0.22488 0.03516
 C1327 C 0.71941 0.22258 0.01556
 C1328 C 0.70232 0.21300 0.00957
 C1329 C 0.70261 0.21307 -0.01036
 C1330 C 0.71986 0.22269 -0.01606
 N1331 N 0.73011 0.22824 -0.00017
 C1332 C 0.72591 0.22536 -0.03559
 H1333 H 0.74302 0.23236 -0.07318
 H1334 H 0.77041 0.26014 -0.07280
 H1335 H 0.74449 0.23363 -0.00006
 H1336 H 0.79387 0.31117 -0.01823
 H1337 H 0.79366 0.31063 0.02000
 H1338 H 0.76934 0.25817 0.07322
 H1339 H 0.74207 0.23026 0.07278
 H1340 H 0.69138 0.20668 -0.01959
 H1341 H 0.76759 0.25725 0.00021
 H1342 H 0.69086 0.20652 0.01861
 C1343 C 0.74744 0.74029 0.44087
 C1344 C 0.76159 0.75487 0.44089
 C1345 C 0.76304 0.76147 0.45987
 N1346 N 0.75025 0.75143 0.47139
 C1347 C 0.74085 0.73833 0.45987
 C1348 C 0.77510 0.77734 0.46598
 C1349 C 0.77720 0.78319 0.48556
 C1350 C 0.78605 0.80066 0.49151
 C1351 C 0.78623 0.80036 0.51145
 C1352 C 0.77751 0.78271 0.51718
 N1353 N 0.77220 0.77227 0.50129
 C1354 C 0.77583 0.77625 0.53664
 C1355 C 0.76422 0.75994 0.54261
 C1356 C 0.76353 0.75245 0.56132
 C1357 C 0.74956 0.73769 0.56135
 C1358 C 0.74222 0.73663 0.54264
 N1359 N 0.75110 0.75033 0.53128
 C1360 C 0.72658 0.72416 0.53673
 C1361 C 0.72040 0.72209 0.51727
 C1362 C 0.70317 0.71257 0.51161
 C1363 C 0.70292 0.71288 0.49168
 C1364 C 0.72001 0.72257 0.48565
 N1365 N 0.73068 0.72794 0.50134
 C1366 C 0.72560 0.72539 0.46602
 H1367 H 0.74245 0.73219 0.42827
 H1368 H 0.76963 0.76024 0.42831
 H1369 H 0.74507 0.73333 0.50114
 H1370 H 0.79196 0.81234 0.48244
 H1371 H 0.79232 0.81177 0.52065
 H1372 H 0.77196 0.75734 0.57373
 H1373 H 0.74510 0.72895 0.57379
 H1374 H 0.69147 0.70658 0.48266
 H1375 H 0.76763 0.75764 0.50114
 H1376 H 0.69196 0.70595 0.52085
 C1377 C 1.06116 0.25813 0.23623
 C1378 C 1.06288 0.24397 0.25032
 C1379 C 1.04398 0.24069 0.25764
 N1380 N 1.03080 0.25244 0.24854
 C1381 C 1.04123 0.26300 0.23531
 C1382 C 1.03951 0.22790 0.27329
 C1383 C 1.02011 0.22394 0.28010
 C1384 C 1.01568 0.21445 0.29742
 C1385 C 0.99539 0.21292 0.29849
 C1386 C 0.98796 0.22151 0.28178
 N1387 N 1.00315 0.22796 0.27055
 C1388 C 0.96761 0.22250 0.27712
 C1389 C 0.95980 0.23398 0.26186
 C1390 C 0.94002 0.23415 0.25658
 C1391 C 0.93830 0.24772 0.24195
 C1392 C 0.95705 0.25557 0.23886
 N1393 N 0.97014 0.24722 0.25113
 C1394 C 0.96137 0.27113 0.22581
 C1395 C 0.98065 0.27864 0.22231
 C1396 C 0.98474 0.29616 0.21264
 C1397 C 1.00504 0.29802 0.21189
 C1398 C 1.01282 0.28161 0.22114
 N1399 N 0.99785 0.26976 0.22723
 C1400 C 1.03331 0.27775 0.22310
 H1401 H 1.07325 0.26425 0.22775
 H1402 H 1.07656 0.23709 0.25482
 H1403 H 0.99932 0.25556 0.23266
 H1404 H 1.02599 0.20913 0.30818
 H1405 H 0.98706 0.20621 0.31024
 H1406 H 0.92799 0.22557 0.26276
 H1407 H 0.92470 0.25160 0.23468
 H1408 H 1.01313 0.31013 0.20530
 H1409 H 1.00211 0.23294 0.25637
 H1410 H 0.97420 0.30656 0.20677
 C1411 C 0.43995 0.23447 0.75519
 C1412 C 0.43849 0.24835 0.74076
 C1413 C 0.45720 0.25655 0.73846
 N1414 N 0.46994 0.24829 0.75112
 C1415 C 0.45949 0.23467 0.76126
 C1416 C 0.46188 0.27226 0.72573
 C1417 C 0.48127 0.27964 0.72276
 C1418 C 0.48578 0.29717 0.71326
 C1419 C 0.50610 0.29846 0.71235
 C1420 C 0.51346 0.28167 0.72128
 N1421 N 0.49822 0.27022 0.72744
 C1422 C 0.53376 0.27678 0.72239
 C1423 C 0.54126 0.26146 0.73412
 C1424 C 0.56081 0.25524 0.73414
 C1425 C 0.56228 0.24124 0.74843
 C1426 C 0.54355 0.23933 0.75663
 N1427 N 0.53079 0.25182 0.74796
 C1428 C 0.53891 0.22722 0.77272
 C1429 C 0.51947 0.22423 0.77992
 C1430 C 0.51489 0.21531 0.79750
 C1431 C 0.49456 0.21421 0.79864
 C1432 C 0.48727 0.22251 0.78173
 N1433 N 0.50257 0.22840 0.77034
 C1434 C 0.46699 0.22334 0.77677
 H1435 H 0.42791 0.22549 0.76078
 H1436 H 0.42512 0.25216 0.73305
 H1437 H 0.50161 0.23287 0.75599
 H1438 H 0.47551 0.30784 0.70739
 H1439 H 0.51448 0.31030 0.70565
 H1440 H 0.57285 0.26048 0.72503
 H1441 H 0.57568 0.23355 0.75248
 H1442 H 0.48613 0.20781 0.81049
 H1443 H 0.49929 0.25581 0.73241
 H1444 H 0.52513 0.20994 0.80829
 C1445 C 0.06059 0.23630 0.75020
 C1446 C 0.06032 0.25052 0.76439
 C1447 C 0.04115 0.25782 0.76516
 N1448 N 0.02979 0.24863 0.75186
 C1449 C 0.04157 0.23536 0.74280
 C1450 C 0.03485 0.27368 0.77700
 C1451 C 0.01499 0.28021 0.77843
 C1452 C 0.00910 0.29769 0.78725
 C1453 C -0.01123 0.29824 0.78647
 C1454 C -0.01726 0.28109 0.77721
 N1455 N -0.00120 0.27010 0.77253
 C1456 C -0.03726 0.27569 0.77421
 C1457 C -0.04331 0.26015 0.76192
 C1458 C -0.06266 0.25359 0.76002
 C1459 C -0.06238 0.23904 0.74616
 C1460 C -0.04287 0.23728 0.73998
 N1461 N -0.03129 0.25029 0.74953
 C1462 C -0.03633 0.22474 0.72487
 C1463 C -0.01623 0.22225 0.71953
 C1464 C -0.00982 0.21291 0.70272
 C1465 C 0.01051 0.21254 0.70332
 C1466 C 0.01602 0.22166 0.72049
 N1467 N -0.00040 0.22735 0.73036
 C1468 C 0.03577 0.22340 0.72703
 H1469 H 0.07341 0.22786 0.74564
 H1470 H 0.07289 0.25520 0.77292
 H1471 H -0.00088 0.23232 0.74458
 H1472 H 0.01845 0.30885 0.79373
 H1473 H -0.02052 0.30993 0.79218
 H1474 H -0.07567 0.25883 0.76772
 H1475 H -0.07512 0.23092 0.74101
 H1476 H 0.02011 0.20606 0.69242
 H1477 H -0.00138 0.25563 0.76760
 H1478 H -0.01884 0.20679 0.69127
 C1479 C 0.56235 0.24644 0.25975
 C1480 C 0.56074 0.23250 0.24541
 C1481 C 0.54122 0.23287 0.23930
 N1482 N 0.53091 0.24663 0.24934
 C1483 C 0.54375 0.25487 0.26194
 C1484 C 0.53367 0.22160 0.22375
 C1485 C 0.51339 0.22081 0.21875
 C1486 C 0.50609 0.21220 0.20199
 C1487 C 0.48578 0.21357 0.20296
 C1488 C 0.48122 0.22302 0.22027
 N1489 N 0.49811 0.22716 0.22989
 C1490 C 0.46178 0.22674 0.22707
 C1491 C 0.45719 0.23956 0.24264
 C1492 C 0.43825 0.24269 0.24994
 C1493 C 0.43985 0.25700 0.26389
 C1494 C 0.45972 0.26212 0.26474
 N1495 N 0.47026 0.25157 0.25161
 C1496 C 0.46752 0.27711 0.27676
 C1497 C 0.48796 0.28124 0.27856
 C1498 C 0.49565 0.29792 0.28745
 C1499 C 0.51594 0.29620 0.28673
 C1500 C 0.52010 0.27849 0.27745
 N1501 N 0.50296 0.26936 0.27273
 C1502 C 0.53937 0.27088 0.27440
 H1503 H 0.57576 0.25016 0.26746
 H1504 H 0.57267 0.22340 0.23988
 H1505 H 0.50157 0.25499 0.26770
 H1506 H 0.51449 0.20545 0.19032
 H1507 H 0.47553 0.20813 0.19219
 H1508 H 0.42463 0.23561 0.24550
 H1509 H 0.42771 0.26307 0.27230
 H1510 H 0.52642 0.30675 0.29249
 H1511 H 0.49902 0.23204 0.24412
 H1512 H 0.48749 0.31009 0.29382
 C1513 C 1.06092 0.75758 0.73590
 C1514 C 1.06271 0.74303 0.74959
 C1515 C 1.04385 0.73960 0.75696
 N1516 N 1.03063 0.75163 0.74827
 C1517 C 1.04100 0.76252 0.73525
 C1518 C 1.03947 0.72642 0.77230
 C1519 C 1.02012 0.72244 0.77928
 C1520 C 1.01588 0.71258 0.79645
 C1521 C 0.99560 0.71123 0.79782
 C1522 C 0.98797 0.72031 0.78146
 N1523 N 1.00304 0.72687 0.77012
 C1524 C 0.96754 0.72170 0.77724
 C1525 C 0.95959 0.73375 0.76246
 C1526 C 0.93972 0.73437 0.75756
 C1527 C 0.93793 0.74839 0.74334
 C1528 C 0.95675 0.75602 0.74009
 N1529 N 0.96993 0.74713 0.75190
 C1530 C 0.96110 0.77178 0.72727
 C1531 C 0.98040 0.77914 0.72362
 C1532 C 0.98453 0.79671 0.71406
 C1533 C 1.00482 0.79834 0.71297
 C1534 C 1.01256 0.78172 0.72190
 N1535 N 0.99756 0.76999 0.72814
 C1536 C 1.03302 0.77757 0.72344
 H1537 H 1.07297 0.76390 0.72751
 H1538 H 1.07640 0.73600 0.75381
 H1539 H 0.99893 0.75571 0.73336
 H1540 H 1.02631 0.70691 0.80691
 H1541 H 0.98742 0.70433 0.80957
 H1542 H 0.92769 0.72579 0.76373
 H1543 H 0.92426 0.75268 0.73642
 H1544 H 1.01295 0.81040 0.70634
 H1545 H 1.00182 0.73223 0.75610
 H1546 H 0.97402 0.80729 0.70844
 C1547 C 0.56295 0.74250 0.25205
 C1548 C 0.56188 0.75691 0.23815
 C1549 C 0.54211 0.76224 0.23686
 N1550 N 0.53113 0.75173 0.24970
 C1551 C 0.54381 0.73954 0.25891
 C1552 C 0.53479 0.77721 0.22457
 C1553 C 0.51447 0.78154 0.22213
 C1554 C 0.50735 0.79788 0.21226
 C1555 C 0.48703 0.79647 0.21248
 C1556 C 0.48226 0.77935 0.22256
 N1557 N 0.49909 0.77023 0.22816
 C1558 C 0.46274 0.77234 0.22564
 C1559 C 0.45759 0.75725 0.23893
 C1560 C 0.43849 0.75028 0.24198
 C1561 C 0.43953 0.73670 0.25669
 C1562 C 0.45925 0.73570 0.26210
 N1563 N 0.47020 0.74844 0.25137
 C1564 C 0.46653 0.72380 0.27733
 C1565 C 0.48680 0.72192 0.28210
 C1566 C 0.49375 0.71276 0.29872
 C1567 C 0.51409 0.71353 0.29786
 C1568 C 0.51906 0.72316 0.28074
 N1569 N 0.50235 0.72798 0.27111
 C1570 C 0.53868 0.72661 0.27425
 H1571 H 0.57636 0.73523 0.25674
 H1572 H 0.57429 0.76285 0.23000
 H1573 H 0.50165 0.73325 0.25703
 H1574 H 0.51589 0.80958 0.20551
 H1575 H 0.47695 0.80691 0.20594
 H1576 H 0.42512 0.75473 0.23460
 H1577 H 0.42712 0.72862 0.26281
 H1578 H 0.52408 0.70766 0.30862
 H1579 H 0.50004 0.75614 0.23393
 H1580 H 0.48507 0.70618 0.31030
 C1581 C 0.06102 0.75155 0.26085
 C1582 C 0.06098 0.73783 0.24620
 C1583 C 0.04163 0.73650 0.23971
 N1584 N 0.02993 0.74913 0.24976
 C1585 C 0.04172 0.75826 0.26278
 C1586 C 0.03537 0.72454 0.22407
 C1587 C 0.01539 0.72224 0.21840
 C1588 C 0.00936 0.71344 0.20123
 C1589 C -0.01101 0.71344 0.20140
 C1590 C -0.01690 0.72226 0.21864
 N1591 N -0.00072 0.72735 0.22901
 C1592 C -0.03680 0.72452 0.22471
 C1593 C -0.04281 0.73634 0.24057
 C1594 C -0.06208 0.73751 0.24759
 C1595 C -0.06201 0.75135 0.26206
 C1596 C -0.04272 0.75826 0.26341
 N1597 N -0.03104 0.74915 0.25017
 C1598 C -0.03660 0.77356 0.27598
 C1599 C -0.01665 0.77928 0.27861
 C1600 C -0.01067 0.79604 0.28856
 C1601 C 0.00970 0.79603 0.28840
 C1602 C 0.01565 0.77926 0.27836
 N1603 N -0.00052 0.76903 0.27267
 C1604 C 0.03560 0.77344 0.27559
 H1605 H 0.07387 0.75626 0.26896
 H1606 H 0.07379 0.72988 0.24082
 H1607 H -0.00055 0.75489 0.26690
 H1608 H 0.01867 0.70754 0.18978
 H1609 H -0.02042 0.70753 0.19014
 H1610 H -0.07494 0.72941 0.24267
 H1611 H -0.07478 0.75592 0.27050
 H1612 H 0.01906 0.80709 0.29505
 H1613 H -0.00067 0.73207 0.24332
 H1614 H -0.02001 0.80708 0.29534
 C1615 C 0.56002 0.73732 0.74880
 C1616 C 0.55977 0.75157 0.76296
 C1617 C 0.54063 0.75896 0.76365
 N1618 N 0.52926 0.74977 0.75037
 C1619 C 0.54101 0.73642 0.74137
 C1620 C 0.53437 0.77486 0.77546
 C1621 C 0.51449 0.78126 0.77710
 C1622 C 0.50859 0.79863 0.78611
 C1623 C 0.48825 0.79906 0.78557
 C1624 C 0.48223 0.78195 0.77622
 N1625 N 0.49831 0.77109 0.77130
 C1626 C 0.46224 0.77648 0.77335
 C1627 C 0.45614 0.76113 0.76084
 C1628 C 0.43675 0.75475 0.75876
 C1629 C 0.43702 0.74031 0.74479
 C1630 C 0.45654 0.73847 0.73868
 N1631 N 0.46816 0.75131 0.74841
 C1632 C 0.46306 0.72596 0.72353
 C1633 C 0.48316 0.72340 0.71817
 C1634 C 0.48954 0.71400 0.70138
 C1635 C 0.50988 0.71358 0.70196
 C1636 C 0.51542 0.72272 0.71910
 N1637 N 0.49902 0.72848 0.72897
 C1638 C 0.53519 0.72443 0.72562
 H1639 H 0.57281 0.72882 0.74430
 H1640 H 0.57233 0.75621 0.77152
 H1641 H 0.49858 0.73348 0.74318
 H1642 H 0.51795 0.80980 0.79258
 H1643 H 0.47896 0.81063 0.79149
 H1644 H 0.42373 0.76006 0.76637
 H1645 H 0.42424 0.73233 0.73951
 H1646 H 0.51945 0.70704 0.69107
 H1647 H 0.49816 0.75666 0.76627
 H1648 H 0.48048 0.70788 0.68995
 C1649 C 0.43098 0.29370 0.31491
 C1650 C 0.41902 0.30698 0.30464
 C1651 C 0.42631 0.31371 0.28652
 C1652 C 0.44320 0.30505 0.27796
 C1653 C 0.45330 0.28974 0.28747
 C1654 C 0.44780 0.28542 0.30658
 C1655 C 0.44460 0.26603 0.31636
 C1656 C 0.42603 0.27493 0.32533
 H1657 H 0.41826 0.32456 0.27821
 H1658 H 0.44746 0.30923 0.26334
 H1659 H 0.45631 0.26284 0.32717
 H1660 H 0.44148 0.25381 0.30605
 H1661 H 0.42700 0.27656 0.34134
 H1662 H 0.41214 0.26798 0.32001
 C1663 C 0.42486 0.79202 0.81137
 C1664 C 0.41341 0.80625 0.80172
 C1665 C 0.42075 0.81302 0.78357
 C1666 C 0.43718 0.80388 0.77460
 C1667 C 0.44679 0.78798 0.78365
 C1668 C 0.44122 0.78329 0.80263
 C1669 C 0.43728 0.76371 0.81176
 C1670 C 0.41920 0.77310 0.82122
 H1671 H 0.41332 0.82460 0.77566
 H1672 H 0.44173 0.80852 0.76021
 H1673 H 0.44893 0.75962 0.82233
 H1674 H 0.43351 0.75203 0.80107
 H1675 H 0.42043 0.77410 0.83726
 H1676 H 0.40496 0.76697 0.81584
 C1677 C -0.07445 0.29224 0.81196
 C1678 C -0.08666 0.30522 0.80160
 C1679 C -0.08004 0.31108 0.78295
 C1680 C -0.06333 0.30217 0.77428
 C1681 C -0.05278 0.28742 0.78416
 C1682 C -0.05783 0.28371 0.80349
 C1683 C -0.06089 0.26456 0.81373
 C1684 C -0.07922 0.27374 0.82292
 H1685 H -0.08835 0.32163 0.77451
 H1686 H -0.05933 0.30597 0.75950
 H1687 H -0.04895 0.26153 0.82434
 H1688 H -0.06431 0.25217 0.80371
 H1689 H -0.07786 0.27575 0.83886
 H1690 H -0.09326 0.26673 0.81808
 C1691 C -0.07981 0.80754 0.28579
 C1692 C -0.08443 0.80395 0.30534
 C1693 C -0.07350 0.78913 0.31495
 C1694 C -0.05761 0.77952 0.30558
 C1695 C -0.05231 0.78453 0.28645
 C1696 C -0.06423 0.79794 0.27654
 C1697 C -0.05833 0.81595 0.26547
 C1698 C -0.07529 0.82654 0.27563
 H1699 H -0.07690 0.78514 0.32980
 H1700 H -0.04936 0.76832 0.31329
 H1701 H -0.06065 0.81415 0.24962
 H1702 H -0.04348 0.82164 0.26960
 H1703 H -0.08728 0.83093 0.26554
 H1704 H -0.07030 0.83833 0.28572
 C1705 C 0.57767 0.68943 0.28845
 C1706 C 0.58629 0.69795 0.30490
 C1707 C 0.58036 0.71732 0.30990
 C1708 C 0.56494 0.72675 0.29985
 C1709 C 0.55508 0.71696 0.28473
 C1710 C 0.56246 0.69874 0.27858
 C1711 C 0.55182 0.67979 0.27499
 C1712 C 0.56843 0.66955 0.28583
 H1713 H 0.58721 0.72507 0.32183
 H1714 H 0.56031 0.74140 0.30425
 H1715 H 0.55145 0.67598 0.25931
 H1716 H 0.53728 0.67895 0.28263
 H1717 H 0.57754 0.65980 0.27636
 H1718 H 0.56355 0.66282 0.29979
 C1719 C 0.57797 0.19016 0.78689
 C1720 C 0.58718 0.19913 0.80279
 C1721 C 0.58158 0.21869 0.80738
 C1722 C 0.56595 0.22796 0.79750
 C1723 C 0.55556 0.21779 0.78296
 C1724 C 0.56255 0.19930 0.77719
 C1725 C 0.55155 0.18038 0.77458
 C1726 C 0.56838 0.17032 0.78526
 H1727 H 0.58889 0.22672 0.81885
 H1728 H 0.56156 0.24277 0.80159
 H1729 H 0.55064 0.17602 0.75906
 H1730 H 0.53725 0.18002 0.78269
 H1731 H 0.57704 0.16008 0.77588
 H1732 H 0.56385 0.16417 0.79958
 C1733 C 1.07885 0.68944 0.78602
 C1734 C 1.08762 0.69801 0.80237
 C1735 C 1.08189 0.71749 0.80720
 C1736 C 1.06643 0.72692 0.79720
 C1737 C 1.05637 0.71704 0.78226
 C1738 C 1.06363 0.69875 0.77619
 C1739 C 1.05293 0.67983 0.77261
 C1740 C 1.06955 0.66957 0.78344
 H1741 H 1.08881 0.72529 0.81905
 H1742 H 1.06184 0.74158 0.80159
 H1743 H 1.05255 0.67602 0.75694
 H1744 H 1.03841 0.67900 0.78027
 H1745 H 1.07860 0.65977 0.77397
 H1746 H 1.06468 0.66288 0.79742
 C1747 C 1.07919 0.19141 0.28733
 C1748 C 1.08797 0.20020 0.30356
 C1749 C 1.08192 0.21956 0.30843
 C1750 C 1.06627 0.22874 0.29846
 C1751 C 1.05632 0.21869 0.28354
 C1752 C 1.06377 0.20045 0.27754
 C1753 C 1.05323 0.18136 0.27432
 C1754 C 1.07008 0.17141 0.28508
 H1755 H 1.08886 0.22747 0.32020
 H1756 H 1.06153 0.24338 0.30277
 H1757 H 1.05269 0.17734 0.25870
 H1758 H 1.03881 0.18047 0.28216
 H1759 H 1.07914 0.16161 0.27562
 H1760 H 1.06545 0.16482 0.29918
 C1761 C 0.57328 0.31424 0.70996
 C1762 C 0.58123 0.30681 0.69259
 C1763 C 0.57042 0.29179 0.68311
 C1764 C 0.55399 0.28279 0.69226
 C1765 C 0.54807 0.28870 0.71098
 C1766 C 0.55711 0.30538 0.71894
 C1767 C 0.56507 0.30889 0.73877
 C1768 C 0.58290 0.31850 0.72899
 H1769 H 0.57525 0.28613 0.66919
 H1770 H 0.54682 0.27035 0.68534
 H1771 H 0.56879 0.29503 0.74657
 H1772 H 0.55584 0.31951 0.74715
 H1773 H 0.59689 0.31011 0.73099
 H1774 H 0.58397 0.33461 0.73193
 C1775 C 0.57155 0.79343 0.18637
 C1776 C 0.58357 0.80679 0.19651
 C1777 C 0.57648 0.81349 0.21472
 C1778 C 0.55964 0.80481 0.22341
 C1779 C 0.54943 0.78950 0.21396
 C1780 C 0.55479 0.78512 0.19485
 C1781 C 0.55797 0.76567 0.18520
 C1782 C 0.57647 0.77461 0.17605
 H1783 H 0.58461 0.82438 0.22293
 H1784 H 0.55546 0.80904 0.23802
 H1785 H 0.54620 0.76232 0.17450
 H1786 H 0.56120 0.75356 0.19560
 H1787 H 0.57538 0.77612 0.16003
 H1788 H 0.59041 0.76778 0.18132
 C1789 C 1.06962 0.29468 0.18474
 C1790 C 1.08155 0.30809 0.19492
 C1791 C 1.07440 0.31467 0.21314
 C1792 C 1.05761 0.30584 0.22181
 C1793 C 1.04750 0.29046 0.21234
 C1794 C 1.05293 0.28618 0.19321
 C1795 C 1.05630 0.26680 0.18349
 C1796 C 1.07470 0.27594 0.17434
 H1797 H 1.08244 0.32559 0.22139
 H1798 H 1.05346 0.30995 0.23646
 H1799 H 1.04456 0.26336 0.17278
 H1800 H 1.05967 0.25469 0.19384
 H1801 H 1.07358 0.27751 0.15834
 H1802 H 1.08872 0.26923 0.17957
 C1803 C 1.06934 0.79416 0.68503
 C1804 C 1.08135 0.80754 0.69517
 C1805 C 1.07414 0.81433 0.71330
 C1806 C 1.05729 0.80565 0.72198
 C1807 C 1.04714 0.79026 0.71258
 C1808 C 1.05255 0.78587 0.69347
 C1809 C 1.05568 0.76645 0.68374
 C1810 C 1.07422 0.77536 0.67465
 H1811 H 1.08225 0.82523 0.72152
 H1812 H 1.05313 0.80986 0.73660
 H1813 H 1.04392 0.76319 0.67300
 H1814 H 1.05885 0.75426 0.69406
 H1815 H 1.07318 0.77693 0.65864
 H1816 H 1.08812 0.76846 0.67994
 C1817 C 0.42323 0.71471 0.68695
 C1818 C 0.41466 0.69732 0.69427
 C1819 C 0.42486 0.68750 0.70929
 C1820 C 0.44134 0.69637 0.71823
 C1821 C 0.44794 0.71514 0.71228
 C1822 C 0.43949 0.72337 0.69573
 C1823 C 0.43223 0.74379 0.69198
 C1824 C 0.41430 0.73436 0.68246
 H1825 H 0.41959 0.67354 0.71493
 H1826 H 0.44815 0.68915 0.73052
 H1827 H 0.44194 0.75186 0.68156
 H1828 H 0.42852 0.75202 0.70547
 H1829 H 0.41364 0.73722 0.66660
 H1830 H 0.40022 0.73700 0.69053
 C1831 C 0.42132 0.19062 0.21399
 C1832 C 0.41264 0.19923 0.19764
 C1833 C 0.41926 0.21826 0.19216
 C1834 C 0.43525 0.22728 0.20174
 C1835 C 0.44503 0.21739 0.21684
 C1836 C 0.43712 0.19951 0.22339
 C1837 C 0.44719 0.18026 0.22684
 C1838 C 0.42992 0.17048 0.21653
 H1839 H 0.41239 0.22608 0.18031
 H1840 H 0.44033 0.24171 0.19707
 H1841 H 0.44787 0.17655 0.24253
 H1842 H 0.46148 0.17893 0.21882
 H1843 H 0.42074 0.16109 0.22631
 H1844 H 0.43417 0.16349 0.20251
 C1845 C -0.07599 0.68771 0.20999
 C1846 C -0.08465 0.69649 0.19372
 C1847 C -0.07803 0.71557 0.18843
 C1848 C -0.06221 0.72460 0.19829
 C1849 C -0.05257 0.71466 0.21345
 C1850 C -0.06036 0.69659 0.21964
 C1851 C -0.05006 0.67740 0.22273
 C1852 C -0.06716 0.66762 0.21217
 H1853 H -0.08492 0.72351 0.17666
 H1854 H -0.05733 0.73920 0.19396
 H1855 H -0.04939 0.67337 0.23834
 H1856 H -0.03573 0.67643 0.21474
 H1857 H -0.07628 0.65793 0.22171
 H1858 H -0.06277 0.66097 0.19802
 C1859 C -0.07553 0.21344 0.68767
 C1860 C -0.08416 0.19601 0.69479
 C1861 C -0.07430 0.18624 0.71005
 C1862 C -0.05806 0.19517 0.71934
 C1863 C -0.05141 0.21397 0.71354
 C1864 C -0.05954 0.22219 0.69682
 C1865 C -0.06690 0.24257 0.69305
 C1866 C -0.08454 0.23305 0.68311
 H1867 H -0.07967 0.17223 0.71552
 H1868 H -0.05146 0.18795 0.73173
 H1869 H -0.05706 0.25080 0.68289
 H1870 H -0.07097 0.25066 0.70653
 H1871 H -0.08489 0.23600 0.66726
 H1872 H -0.09881 0.23551 0.69091
 C1873 C 0.28816 0.42306 0.31050
 C1874 C 0.30358 0.41269 0.30134
 C1875 C 0.31176 0.42110 0.28428
 C1876 C 0.30298 0.43777 0.27564
 C1877 C 0.28595 0.44637 0.28390
 C1878 C 0.27961 0.43951 0.30201
 C1879 C 0.25937 0.43427 0.30910
 C1880 C 0.26863 0.41612 0.31831
 H1881 H 0.32427 0.41434 0.27702
 H1882 H 0.30884 0.44329 0.26201
 H1883 H 0.24898 0.43068 0.29717
 H1884 H 0.25371 0.44510 0.31991
 H1885 H 0.26369 0.40201 0.31163
 H1886 H 0.26805 0.41647 0.33443
 C1887 C 0.31177 -0.07497 0.78754
 C1888 C 0.30404 -0.08323 0.80472
 C1889 C 0.28893 -0.07237 0.81432
 C1890 C 0.28027 -0.05571 0.80552
 C1891 C 0.28655 -0.04947 0.78702
 C1892 C 0.30326 -0.05853 0.77897
 C1893 C 0.30705 -0.06586 0.75892
 C1894 C 0.31626 -0.08401 0.76818
 H1895 H 0.28290 -0.07720 0.82809
 H1896 H 0.26783 -0.04853 0.81256
 H1897 H 0.31799 -0.05651 0.75101
 H1898 H 0.29325 -0.06917 0.75084
 H1899 H 0.33245 -0.08514 0.76534
 H1900 H 0.30769 -0.09779 0.76556
 C1901 C 0.78977 0.42789 0.81332
 C1902 C 0.80518 0.41721 0.80440
 C1903 C 0.81386 0.42571 0.78756
 C1904 C 0.80554 0.44257 0.77883
 C1905 C 0.78844 0.45137 0.78672
 C1906 C 0.78163 0.44451 0.80467
 C1907 C 0.76115 0.43956 0.81125
 C1908 C 0.76990 0.42127 0.82064
 H1909 H 0.82640 0.41889 0.78041
 H1910 H 0.81163 0.44789 0.76522
 H1911 H 0.75102 0.43614 0.79905
 H1912 H 0.75537 0.45044 0.82195
 H1913 H 0.76490 0.40725 0.81381
 H1914 H 0.76890 0.42160 0.83674
 C1915 C 0.78931 -0.07431 0.31277
 C1916 C 0.80516 -0.08468 0.30422
 C1917 C 0.81354 -0.07645 0.28711
 C1918 C 0.80468 -0.06013 0.27792
 C1919 C 0.78733 -0.05165 0.28560
 C1920 C 0.78070 -0.05820 0.30371
 C1921 C 0.76038 -0.06355 0.31046
 C1922 C 0.76966 -0.08133 0.32028
 H1923 H 0.82636 -0.08300 0.28020
 H1924 H 0.81077 -0.05481 0.26431
 H1925 H 0.75031 -0.06758 0.29839
 H1926 H 0.75432 -0.05256 0.32089
 H1927 H 0.76508 -0.09566 0.31380
 H1928 H 0.76866 -0.08061 0.33637
 C1929 C 0.30856 0.57831 0.71351
 C1930 C 0.30106 0.58615 0.69623
 C1931 C 0.28595 0.57533 0.68688
 C1932 C 0.27716 0.55881 0.69593
 C1933 C 0.28330 0.55282 0.71447
 C1934 C 0.29991 0.56203 0.72238
 C1935 C 0.30329 0.56996 0.74226
 C1936 C 0.31269 0.58791 0.73259
 H1937 H 0.28024 0.58003 0.67301
 H1938 H 0.26494 0.55134 0.68893
 H1939 H 0.31407 0.56088 0.75048
 H1940 H 0.28932 0.57342 0.75017
 H1941 H 0.32883 0.58918 0.73544
 H1942 H 0.30407 0.60173 0.73478
 C1943 C 0.28845 1.07395 0.18717
 C1944 C 0.30494 1.08356 0.19510
 C1945 C 0.31364 1.07487 0.21163
 C1946 C 0.30445 1.05882 0.22112
 C1947 C 0.28645 1.05112 0.21425
 C1948 C 0.27947 1.05809 0.19649
 C1949 C 0.25921 1.06440 0.19071
 C1950 C 0.26897 1.08188 0.18059
 H1951 H 0.32696 1.08099 0.21787
 H1952 H 0.31082 1.05310 0.23435
 H1953 H 0.24974 1.06873 0.20325
 H1954 H 0.25229 1.05378 0.18047
 H1955 H 0.26528 1.09634 0.18738
 H1956 H 0.26746 1.08137 0.16455
 C1957 C 0.78765 0.57482 0.18668
 C1958 C 0.80554 0.58304 0.19307
 C1959 C 0.81589 0.57270 0.20764
 C1960 C 0.80714 0.55638 0.21712
 C1961 C 0.78795 0.55013 0.21217
 C1962 C 0.77908 0.55876 0.19602
 C1963 C 0.75860 0.56649 0.19346
 C1964 C 0.76793 0.58418 0.18331
 H1965 H 0.83022 0.57777 0.21252
 H1966 H 0.81479 0.54949 0.22910
 H1967 H 0.75122 0.57033 0.20742
 H1968 H 0.74972 0.55704 0.18360
 H1969 H 0.76604 0.59825 0.19144
 H1970 H 0.76424 0.58495 0.16764
 C1971 C 0.80855 1.07948 0.71389
 C1972 C 0.80159 1.08656 0.69610
 C1973 C 0.78374 1.07842 0.68903
 C1974 C 0.77437 1.06264 0.69876
 C1975 C 0.78269 1.05463 0.71566
 C1976 C 0.79927 1.06394 0.72348
 C1977 C 0.81846 1.05519 0.72971
 C1978 C 0.82867 1.07215 0.71919
 H1979 H 0.77712 1.08394 0.67587
 H1980 H 0.76085 1.05646 0.69294
 H1981 H 0.82138 1.04053 0.72300
 H1982 H 0.82029 1.05576 0.74571
 H1983 H 0.83748 1.06735 0.70635
 H1984 H 0.83644 1.08240 0.72918
 C1985 C 0.71488 0.57696 0.31366
 C1986 C 0.69804 0.58591 0.30578
 C1987 C 0.69262 0.58036 0.28678
 C1988 C 0.70267 0.56503 0.27704
 C1989 C 0.71819 0.55486 0.28615
 C1990 C 0.72473 0.56181 0.30406
 C1991 C 0.72845 0.55081 0.32241
 C1992 C 0.71766 0.56737 0.33296
 H1993 H 0.68042 0.58750 0.27953
 H1994 H 0.69796 0.56071 0.26266
 H1995 H 0.74449 0.55011 0.32588
 H1996 H 0.72049 0.53643 0.32308
 H1997 H 0.72750 0.57614 0.34254
 H1998 H 0.70341 0.56261 0.33971
 C1999 C 0.71020 1.07348 0.81568
 C2000 C 0.69290 1.08231 0.80851
 C2001 C 0.68356 1.07271 0.79274
 C2002 C 0.69280 1.05682 0.78310
 C2003 C 0.71150 1.05014 0.78901
 C2004 C 0.71922 1.05778 0.80618
 C2005 C 0.73956 1.06481 0.81084
 C2006 C 0.72980 1.08216 0.82112
 H2007 H 0.66963 1.07791 0.78707
 H2008 H 0.68588 1.05050 0.77040
 H2009 H 0.74829 1.06923 0.79782
 H2010 H 0.74728 1.05463 0.82090
 H2011 H 0.73273 1.09659 0.81392
 H2012 H 0.73216 1.08200 0.83705
 C2013 C 0.18414 0.56947 0.79407
 C2014 C 0.19485 0.58130 0.80704
 C2015 C 0.21396 0.57472 0.81223
 C2016 C 0.22275 0.55849 0.80274
 C2017 C 0.21254 0.54837 0.78806
 C2018 C 0.19273 0.55330 0.78494
 C2019 C 0.18195 0.55687 0.76648
 C2020 C 0.17265 0.57472 0.77634
 H2021 H 0.22270 0.58272 0.82271
 H2022 H 0.23791 0.55457 0.80605
 H2023 H 0.17109 0.54495 0.76335
 H2024 H 0.19193 0.56082 0.75419
 H2025 H 0.15641 0.57310 0.77863
 H2026 H 0.17744 0.58901 0.76986
 C2027 C 0.21175 1.07408 0.31407
 C2028 C 0.19567 1.08411 0.30588
 C2029 C 0.18721 1.07578 0.28903
 C2030 C 0.19622 1.05964 0.27959
 C2031 C 0.21380 1.05147 0.28683
 C2032 C 0.22053 1.05811 0.30481
 C2033 C 0.24080 1.06381 0.31117
 C2034 C 0.23128 1.08145 0.32120
 H2035 H 0.17424 1.08223 0.28248
 H2036 H 0.19007 1.05423 0.26613
 H2037 H 0.25073 1.06800 0.29892
 H2038 H 0.24710 1.05292 0.32149
 H2039 H 0.23557 1.09585 0.31462
 H2040 H 0.23236 1.08076 0.33727
 C2041 C 0.68931 0.42401 0.71159
 C2042 C 0.69892 0.41403 0.69639
 C2043 C 0.71652 0.42257 0.68894
 C2044 C 0.72522 0.43903 0.69809
 C2045 C 0.71643 0.44728 0.71477
 C2046 C 0.69783 0.44029 0.72049
 C2047 C 0.69047 0.43443 0.74010
 C2048 C 0.68119 0.41650 0.73045
 H2049 H 0.72414 0.41611 0.67664
 H2050 H 0.73922 0.44472 0.69271
 H2051 H 0.67935 0.44502 0.74591
 H2052 H 0.70263 0.43061 0.75022
 H2053 H 0.66473 0.41677 0.73088
 H2054 H 0.68802 0.40229 0.73492
 C2055 C 0.71191 -0.07418 0.18795
 C2056 C 0.69618 -0.08445 0.19674
 C2057 C 0.68772 -0.07604 0.21365
 C2058 C 0.69654 -0.05955 0.22261
 C2059 C 0.71392 -0.05113 0.21482
 C2060 C 0.72054 -0.05791 0.19677
 C2061 C 0.74084 -0.06338 0.19005
 C2062 C 0.73148 -0.08132 0.18048
 H2063 H 0.67494 -0.08271 0.22058
 H2064 H 0.69050 -0.05411 0.23619
 H2065 H 0.75091 -0.06724 0.20215
 H2066 H 0.74693 -0.05255 0.17945
 H2067 H 0.73601 -0.09556 0.18714
 H2068 H 0.73240 -0.08084 0.16438
 C2069 C 0.21026 0.42674 0.18736
 C2070 C 0.19469 0.41628 0.19623
 C2071 C 0.18602 0.42479 0.21299
 C2072 C 0.19459 0.44150 0.22182
 C2073 C 0.21187 0.45008 0.21401
 C2074 C 0.21860 0.44325 0.19601
 C2075 C 0.23897 0.43815 0.18924
 C2076 C 0.22994 0.41993 0.17987
 H2077 H 0.17337 0.41797 0.22001
 H2078 H 0.18852 0.44688 0.23542
 H2079 H 0.24921 0.43461 0.20130
 H2080 H 0.24478 0.44901 0.17851
 H2081 H 0.23481 0.40586 0.18664
 H2082 H 0.23080 0.42028 0.16376
 C2083 C 0.21414 -0.07746 0.68942
 C2084 C 0.19684 -0.08609 0.69699
 C2085 C 0.18726 -0.07622 0.71249
 C2086 C 0.19619 -0.05978 0.72143
 C2087 C 0.21484 -0.05298 0.71508
 C2088 C 0.22292 -0.06131 0.69828
 C2089 C 0.24335 -0.06867 0.69436
 C2090 C 0.23380 -0.08645 0.68469
 H2091 H 0.17334 -0.08163 0.71828
 H2092 H 0.18906 -0.05303 0.73389
 H2093 H 0.25149 -0.07245 0.70782
 H2094 H 0.25155 -0.05901 0.68401
 H2095 H 0.23637 -0.10055 0.69257
 H2096 H 0.23665 -0.08705 0.66880
 C2097 C 0.28616 0.30977 0.42236
 C2098 C 0.30414 0.30278 0.41473
 C2099 C 0.31413 0.28807 0.42542
 C2100 C 0.30503 0.27913 0.44167
 C2101 C 0.28582 0.28471 0.44747
 C2102 C 0.27725 0.30096 0.43835
 C2103 C 0.25693 0.30360 0.43047
 C2104 C 0.26663 0.31320 0.41286
 H2105 H 0.32852 0.28278 0.42082
 H2106 H 0.31254 0.26722 0.44908
 H2107 H 0.24800 0.31409 0.43931
 H2108 H 0.24947 0.28937 0.42709
 H2109 H 0.26312 0.32918 0.41154
 H2110 H 0.26488 0.30448 0.39930
 C2111 C 0.28622 0.81227 -0.07616
 C2112 C 0.30422 0.80568 -0.08407
 C2113 C 0.31466 0.79114 -0.07355
 C2114 C 0.30593 0.78188 -0.05727
 C2115 C 0.28667 0.78699 -0.05123
 C2116 C 0.27767 0.80315 -0.06013
 C2117 C 0.25719 0.80554 -0.06773
 C2118 C 0.26650 0.81544 -0.08539
 H2119 H 0.32908 0.78615 -0.07836
 H2120 H 0.31372 0.76997 -0.05013
 H2121 H 0.24822 0.81581 -0.05868
 H2122 H 0.24990 0.79123 -0.07114
 H2123 H 0.26270 0.83136 -0.08653
 H2124 H 0.26472 0.80679 -0.09899
 C2125 C 0.78677 0.31414 -0.07451
 C2126 C 0.80430 0.30693 -0.08292
 C2127 C 0.81437 0.29185 -0.07279
 C2128 C 0.80564 0.28270 -0.05646
 C2129 C 0.78672 0.28846 -0.04993
 C2130 C 0.77820 0.30512 -0.05843
 C2131 C 0.75768 0.30848 -0.06557
 C2132 C 0.76701 0.31829 -0.08326
 H2133 H 0.82847 0.28633 -0.07799
 H2134 H 0.81308 0.27035 -0.04969
 H2135 H 0.74934 0.31897 -0.05618
 H2136 H 0.74972 0.29456 -0.06904
 H2137 H 0.76388 0.33438 -0.08408
 H2138 H 0.76457 0.30997 -0.09695
 C2139 C 0.78673 0.81442 0.42648
 C2140 C 0.80469 0.80743 0.41878
 C2141 C 0.81452 0.79247 0.42929
 C2142 C 0.80525 0.78323 0.44527
 C2143 C 0.78602 0.78877 0.45104
 C2144 C 0.77764 0.80533 0.44223
 C2145 C 0.75739 0.80846 0.43435
 C2146 C 0.76729 0.81833 0.41699
 H2147 H 0.82889 0.78714 0.42467
 H2148 H 0.81258 0.77103 0.45239
 H2149 H 0.74859 0.81887 0.44340
 H2150 H 0.74970 0.79445 0.43062
 H2151 H 0.76400 0.83438 0.41601
 H2152 H 0.76547 0.80994 0.40323
 C2153 C 0.68807 0.28808 0.57414
 C2154 C 0.69570 0.30527 0.58265
 C2155 C 0.71072 0.31548 0.57234
 C2156 C 0.71950 0.30711 0.55565
 C2157 C 0.71338 0.28844 0.54899
 C2158 C 0.69674 0.27985 0.55773
 C2159 C 0.69334 0.25925 0.56466
 C2160 C 0.68391 0.26821 0.58272
 H2161 H 0.71651 0.32934 0.57767
 H2162 H 0.73192 0.31453 0.54877
 H2163 H 0.70731 0.25118 0.56766
 H2164 H 0.68258 0.25118 0.55543
 H2165 H 0.69250 0.26544 0.59616
 H2166 H 0.66777 0.26514 0.58391
 C2167 C 0.71016 0.81408 1.07310
 C2168 C 0.69436 0.80502 1.08303
 C2169 C 0.68608 0.78791 1.07451
 C2170 C 0.69516 0.77894 1.05828
 C2171 C 0.71258 0.78698 1.05019
 C2172 C 0.71897 0.80531 1.05702
 C2173 C 0.73918 0.81209 1.06251
 C2174 C 0.72964 0.82163 1.08022
 H2175 H 0.67331 0.78072 1.08091
 H2176 H 0.68927 0.76517 1.05276
 H2177 H 0.74529 0.82301 1.05201
 H2178 H 0.74927 0.79970 1.06617
 H2179 H 0.73045 0.83803 1.07991
 H2180 H 0.73414 0.81470 1.09413
 C2181 C 0.18789 0.28729 1.07587
 C2182 C 0.19546 0.30480 1.08381
 C2183 C 0.21094 0.31432 1.07350
 C2184 C 0.21999 0.30514 1.05737
 C2185 C 0.21375 0.28630 1.05129
 C2186 C 0.19683 0.27828 1.06001
 C2187 C 0.19313 0.25803 1.06772
 C2188 C 0.18339 0.26783 1.08518
 H2189 H 0.21673 0.32836 1.07836
 H2190 H 0.23253 0.31221 1.05035
 H2191 H 0.20700 0.25003 1.07134
 H2192 H 0.18253 0.24963 1.05861
 H2193 H 0.19165 0.26559 1.09891
 H2194 H 0.16720 0.26492 1.08614
 C2195 C 0.20783 0.81379 0.57223
 C2196 C 0.19440 0.80319 0.58391
 C2197 C 0.18826 0.78448 0.57706
 C2198 C 0.19733 0.77588 0.56066
 C2199 C 0.21252 0.78590 0.55064
 C2200 C 0.21649 0.80542 0.55588
 C2201 C 0.23576 0.81565 0.55905
 C2202 C 0.22644 0.82468 0.57712
 H2203 H 0.17740 0.77585 0.58498
 H2204 H 0.19330 0.76099 0.55648
 H2205 H 0.23901 0.82669 0.54753
 H2206 H 0.24808 0.80532 0.56228
 H2207 H 0.22460 0.84095 0.57604
 H2208 H 0.23327 0.81936 0.59079
 C2209 C 0.28695 0.68868 0.57416
 C2210 C 0.30387 0.69676 0.58280
 C2211 C 0.31344 0.71245 0.57295
 C2212 C 0.30471 0.72122 0.55656
 C2213 C 0.28631 0.71445 0.54975
 C2214 C 0.27838 0.69734 0.55804
 C2215 C 0.25786 0.69301 0.56496
 C2216 C 0.26717 0.68359 0.58271
 H2217 H 0.32709 0.71866 0.57838
 H2218 H 0.31167 0.73402 0.54997
 H2219 H 0.25021 0.68219 0.55546
 H2220 H 0.24925 0.70657 0.56836
 H2221 H 0.26471 0.66737 0.58346
 H2222 H 0.26403 0.69174 0.59639
 C2223 C 0.28782 0.18744 1.07421
 C2224 C 0.30520 0.19501 1.08241
 C2225 C 0.31467 0.21078 1.07254
 C2226 C 0.30550 0.22007 1.05667
 C2227 C 0.28675 0.21377 1.05037
 C2228 C 0.27884 0.19659 1.05858
 C2229 C 0.25850 0.19242 1.06606
 C2230 C 0.26826 0.18244 1.08328
 H2231 H 0.32863 0.21664 1.07758
 H2232 H 0.31249 0.23282 1.05004
 H2233 H 0.25037 0.18194 1.05658
 H2234 H 0.25023 0.20603 1.07004
 H2235 H 0.26559 0.16623 1.08373
 H2236 H 0.26570 0.19030 1.09724
 C2237 C 0.81183 0.71145 1.07267
 C2238 C 0.80317 0.69523 1.08216
 C2239 C 0.78634 0.68663 1.07341
 C2240 C 0.77728 0.69565 1.05733
 C2241 C 0.78487 0.71338 1.04966
 C2242 C 0.80292 0.72027 1.05681
 C2243 C 0.80902 0.74051 1.06287
 C2244 C 0.81869 0.73094 1.08036
 H2245 H 0.77952 0.67353 1.07947
 H2246 H 0.76374 0.68941 1.05160
 H2247 H 0.79627 0.75013 1.06676
 H2248 H 0.81988 0.74716 1.05258
 H2249 H 0.81143 0.73489 1.09436
 H2250 H 0.83510 0.73228 1.08016
 C2251 C 0.78676 0.19040 0.57567
 C2252 C 0.80445 0.19758 0.58356
 C2253 C 0.81429 0.21290 0.57340
 C2254 C 0.80530 0.22214 0.55740
 C2255 C 0.78633 0.21626 0.55135
 C2256 C 0.77793 0.19953 0.55995
 C2257 C 0.75755 0.19627 0.56779
 C2258 C 0.76717 0.18632 0.58510
 H2259 H 0.82849 0.21837 0.57823
 H2260 H 0.81267 0.23447 0.55041
 H2261 H 0.74889 0.18589 0.55865
 H2262 H 0.74983 0.21026 0.57157
 H2263 H 0.76390 0.17024 0.58596
 H2264 H 0.76511 0.19459 0.59891
 C2265 C 0.70931 0.68637 0.43027
 C2266 C 0.69503 0.69622 0.41920
 C2267 C 0.68871 0.71494 0.42592
 C2268 C 0.69822 0.72422 0.44160
 C2269 C 0.71406 0.71489 0.45103
 C2270 C 0.71842 0.69541 0.44594
 C2271 C 0.73787 0.68586 0.44178
 C2272 C 0.72803 0.67611 0.42446
 H2273 H 0.67724 0.72300 0.41846
 H2274 H 0.69385 0.73902 0.44577
 H2275 H 0.74206 0.67518 0.45328
 H2276 H 0.74963 0.69659 0.43764
 H2277 H 0.72683 0.65980 0.42594
 H2278 H 0.73400 0.68140 0.41030
 C2279 C 0.70997 0.18659 -0.07179
 C2280 C 0.69580 0.19654 -0.08292
 C2281 C 0.68940 0.21519 -0.07609
 C2282 C 0.69876 0.22434 -0.06025
 C2283 C 0.71453 0.21495 -0.05077
 C2284 C 0.71894 0.19550 -0.05597
 C2285 C 0.73841 0.18596 -0.06003
 C2286 C 0.72873 0.17635 -0.07751
 H2287 H 0.67799 0.22331 -0.08357
 H2288 H 0.69434 0.23910 -0.05601
 H2289 H 0.74248 0.17519 -0.04857
 H2290 H 0.75023 0.19671 -0.06398
 H2291 H 0.72750 0.16003 -0.07617
 H2292 H 0.73482 0.18174 -0.09158
 C2293 C 0.18883 0.71275 -0.07534
 C2294 C 0.19603 0.69500 -0.08312
 C2295 C 0.21133 0.68538 -0.07291
 C2296 C 0.22054 0.69461 -0.05701
 C2297 C 0.21464 0.71360 -0.05107
 C2298 C 0.19792 0.72182 -0.05971
 C2299 C 0.19470 0.74202 -0.06767
 C2300 C 0.18480 0.73215 -0.08489
 H2301 H 0.21682 0.67116 -0.07762
 H2302 H 0.23290 0.68741 -0.05003
 H2303 H 0.20875 0.74970 -0.07155
 H2304 H 0.18425 0.75075 -0.05857
 H2305 H 0.19316 0.73403 -0.09873
 H2306 H 0.16868 0.73536 -0.08573
 C2307 C 0.18725 0.21135 0.42834
 C2308 C 0.19443 0.19370 0.42030
 C2309 C 0.20962 0.18386 0.43048
 C2310 C 0.21891 0.19290 0.44645
 C2311 C 0.21316 0.21189 0.45254
 C2312 C 0.19640 0.22021 0.44406
 C2313 C 0.19304 0.24053 0.43643
 C2314 C 0.18310 0.23089 0.41911
 H2315 H 0.21512 0.16971 0.42555
 H2316 H 0.23136 0.18565 0.45323
 H2317 H 0.20702 0.24835 0.43258
 H2318 H 0.18259 0.24906 0.44571
 H2319 H 0.19138 0.23302 0.40526
 H2320 H 0.16697 0.23405 0.41840
 C2321 C 0.29248 0.42939 0.68428
 C2322 C 0.30628 0.41755 0.69400
 C2323 C 0.31262 0.42413 0.71243
 C2324 C 0.30337 0.44029 0.72161
 C2325 C 0.28780 0.45034 0.71247
 C2326 C 0.28361 0.44550 0.69325
 C2327 C 0.26422 0.44195 0.68364
 C2328 C 0.27378 0.42416 0.67396
 H2329 H 0.32379 0.41615 0.72038
 H2330 H 0.30753 0.44417 0.73627
 H2331 H 0.26047 0.45392 0.67326
 H2332 H 0.25219 0.43796 0.69402
 H2333 H 0.27526 0.42583 0.65797
 H2334 H 0.26739 0.40985 0.67891
 C2335 C 0.28754 0.92496 0.18791
 C2336 C 0.30368 0.91511 0.19617
 C2337 C 0.31242 0.92388 0.21266
 C2338 C 0.30355 0.94029 0.22178
 C2339 C 0.28587 0.94829 0.21456
 C2340 C 0.27892 0.94119 0.19684
 C2341 C 0.25855 0.93543 0.19083
 C2342 C 0.26789 0.91750 0.18116
 H2343 H 0.32544 0.91755 0.21922
 H2344 H 0.30986 0.94601 0.23506
 H2345 H 0.25219 0.94608 0.18031
 H2346 H 0.24872 0.93159 0.20327
 H2347 H 0.26665 0.91778 0.16509
 H2348 H 0.26361 0.90329 0.18813
 C2349 C 0.78472 0.42292 0.18915
 C2350 C 0.80278 0.41524 0.19565
 C2351 C 0.81266 0.42589 0.21037
 C2352 C 0.80343 0.44198 0.21970
 C2353 C 0.78419 0.44776 0.21451
 C2354 C 0.77570 0.43883 0.19830
 C2355 C 0.75542 0.43067 0.19544
 C2356 C 0.76523 0.41314 0.18548
 H2357 H 0.82707 0.42133 0.21541
 H2358 H 0.81091 0.44928 0.23156
 H2359 H 0.74655 0.43991 0.18540
 H2360 H 0.74787 0.42672 0.20928
 H2361 H 0.76184 0.41227 0.16975
 H2362 H 0.76347 0.39906 0.19362
 C2363 C 0.78909 0.92859 0.68637
 C2364 C 0.80526 0.91885 0.69472
 C2365 C 0.81364 0.92758 0.71142
 C2366 C 0.80435 0.94369 0.72066
 C2367 C 0.78662 0.95149 0.71335
 C2368 C 0.78007 0.94456 0.69541
 C2369 C 0.75991 0.93859 0.68892
 C2370 C 0.76970 0.92095 0.67915
 H2371 H 0.82667 0.92137 0.71808
 H2372 H 0.81035 0.94928 0.73413
 H2373 H 0.75360 0.94931 0.67843
 H2374 H 0.74988 0.93441 0.70109
 H2375 H 0.76876 0.92146 0.66306
 H2376 H 0.76550 0.90657 0.68584
 C2377 C 0.70949 0.57340 0.68797
 C2378 C 0.69379 0.58378 0.69665
 C2379 C 0.68487 0.57522 0.71327
 C2380 C 0.69333 0.55855 0.72221
 C2381 C 0.71074 0.55007 0.71463
 C2382 C 0.71772 0.55693 0.69673
 C2383 C 0.73819 0.56214 0.69028
 C2384 C 0.72928 0.58031 0.68079
 H2385 H 0.67212 0.58198 0.72012
 H2386 H 0.68708 0.55313 0.73572
 H2387 H 0.74419 0.55132 0.67964
 H2388 H 0.74821 0.56572 0.70252
 H2389 H 0.73040 0.57998 0.66470
 H2390 H 0.73401 0.59441 0.68765
 C2391 C 0.68913 0.07626 0.21246
 C2392 C 0.69693 0.08407 0.19518
 C2393 C 0.71540 0.07670 0.18869
 C2394 C 0.72460 0.06090 0.19836
 C2395 C 0.71550 0.05208 0.21461
 C2396 C 0.69826 0.06072 0.22201
 C2397 C 0.67898 0.05130 0.22725
 C2398 C 0.66894 0.06827 0.21679
 H2399 H 0.72265 0.08281 0.17601
 H2400 H 0.73867 0.05538 0.19303
 H2401 H 0.67626 0.05137 0.24318
 H2402 H 0.67677 0.03677 0.22006
 H2403 H 0.66039 0.07804 0.22674
 H2404 H 0.66094 0.06361 0.20350
 C2405 C 0.18982 0.57749 0.21331
 C2406 C 0.19718 0.58470 0.19560
 C2407 C 0.21550 0.57710 0.18894
 C2408 C 0.22491 0.56158 0.19888
 C2409 C 0.21617 0.55330 0.21559
 C2410 C 0.19914 0.56223 0.22310
 C2411 C 0.17996 0.55310 0.22920
 C2412 C 0.16971 0.56976 0.21844
 H2413 H 0.22243 0.58275 0.17588
 H2414 H 0.23875 0.55574 0.19330
 H2415 H 0.17771 0.55376 0.24517
 H2416 H 0.17747 0.53834 0.22257
 H2417 H 0.16149 0.57991 0.22827
 H2418 H 0.16132 0.56468 0.20554
 C2419 C 0.21192 0.07376 0.68631
 C2420 C 0.19450 0.08218 0.69376
 C2421 C 0.18485 0.07214 0.70913
 C2422 C 0.19390 0.05585 0.71819
 C2423 C 0.21271 0.04936 0.71204
 C2424 C 0.22081 0.05775 0.69526
 C2425 C 0.24119 0.06535 0.69136
 C2426 C 0.23151 0.08298 0.68161
 H2427 H 0.17087 0.07742 0.71486
 H2428 H 0.18683 0.04915 0.73072
 H2429 H 0.24950 0.05576 0.68106
 H2430 H 0.24928 0.06930 0.70481
 H2431 H 0.23441 0.08357 0.66573
 H2432 H 0.23392 0.09713 0.68946
 C2433 C 0.28988 0.57245 0.31356
 C2434 C 0.30632 0.58216 0.30541
 C2435 C 0.31533 0.57327 0.28900
 C2436 C 0.30641 0.55697 0.27979
 C2437 C 0.28844 0.54918 0.28686
 C2438 C 0.28123 0.55631 0.30456
 C2439 C 0.26082 0.56222 0.31053
 C2440 C 0.27019 0.58006 0.32026
 H2441 H 0.32854 0.57951 0.28250
 H2442 H 0.31286 0.55126 0.26650
 H2443 H 0.25416 0.55160 0.32101
 H2444 H 0.25125 0.56617 0.29808
 H2445 H 0.26866 0.57976 0.33632
 H2446 H 0.26618 0.59431 0.31329
 C2447 C 0.30705 0.08094 0.78385
 C2448 C 0.30298 0.08542 0.80333
 C2449 C 0.28770 0.07462 0.81264
 C2450 C 0.27827 0.05881 0.80315
 C2451 C 0.28384 0.05353 0.78416
 C2452 C 0.29754 0.06551 0.77443
 C2453 C 0.31575 0.05984 0.76344
 C2454 C 0.32626 0.07660 0.77382
 H2455 H 0.28340 0.07790 0.82743
 H2456 H 0.26687 0.05050 0.81072
 H2457 H 0.31418 0.06242 0.74760
 H2458 H 0.32139 0.04498 0.76745
 H2459 H 0.33087 0.08873 0.76389
 H2460 H 0.33788 0.07145 0.78399
 C2461 C 0.80990 0.57834 0.78794
 C2462 C 0.80260 0.58597 0.80549
 C2463 C 0.78395 0.57903 0.81201
 C2464 C 0.77423 0.56352 0.80223
 C2465 C 0.78302 0.55462 0.78586
 C2466 C 0.80031 0.56310 0.77834
 C2467 C 0.81932 0.55356 0.77244
 C2468 C 0.82987 0.57023 0.78295
 H2469 H 0.77706 0.58511 0.82489
 H2470 H 0.76016 0.55813 0.80773
 H2471 H 0.82163 0.55391 0.75647
 H2472 H 0.82151 0.53888 0.77933
 H2473 H 0.83828 0.58012 0.77298
 H2474 H 0.83815 0.56524 0.79595
 C2475 C 0.81356 0.07565 0.28848
 C2476 C 0.80605 0.08294 0.30608
 C2477 C 0.78769 0.07532 0.31267
 C2478 C 0.77831 0.05979 0.30273
 C2479 C 0.78712 0.05151 0.28608
 C2480 C 0.80424 0.06038 0.27865
 C2481 C 0.82341 0.05113 0.27285
 C2482 C 0.83366 0.06779 0.28362
 H2483 H 0.78066 0.08098 0.32566
 H2484 H 0.76435 0.05404 0.30816
 H2485 H 0.82586 0.05168 0.25689
 H2486 H 0.82568 0.03639 0.27959
 H2487 H 0.84208 0.07785 0.27383
 H2488 H 0.84186 0.06276 0.29665
 C2489 C 0.70790 0.43127 0.31640
 C2490 C 0.69348 0.41986 0.30700
 C2491 C 0.68705 0.42659 0.28866
 C2492 C 0.69672 0.44240 0.27923
 C2493 C 0.71283 0.45197 0.28802
 C2494 C 0.71721 0.44704 0.30719
 C2495 C 0.73662 0.44286 0.31648
 C2496 C 0.72655 0.42547 0.32647
 H2497 H 0.67540 0.41900 0.28097
 H2498 H 0.69231 0.44647 0.26470
 H2499 H 0.74103 0.45475 0.32671
 H2500 H 0.74828 0.43835 0.30592
 H2501 H 0.72537 0.42733 0.34246
 H2502 H 0.73229 0.41089 0.32157
 C2503 C 0.71072 0.92460 0.81201
 C2504 C 0.69452 0.91490 0.80365
 C2505 C 0.68622 0.92347 0.78688
 C2506 C 0.69549 0.93965 0.77769
 C2507 C 0.71318 0.94753 0.78509
 C2508 C 0.71979 0.94055 0.80296
 C2509 C 0.73997 0.93434 0.80908
 C2510 C 0.73012 0.91675 0.81893
 H2511 H 0.67311 0.91724 0.78033
 H2512 H 0.68937 0.94543 0.76436
 H2513 H 0.74663 0.94494 0.81949
 H2514 H 0.74969 0.93012 0.79668
 H2515 H 0.73130 0.91720 0.83500
 H2516 H 0.73402 0.90235 0.81216
 C2517 C 0.18847 0.42200 0.78791
 C2518 C 0.19738 0.41307 0.80397
 C2519 C 0.21664 0.41943 0.80893
 C2520 C 0.22565 0.43536 0.79910
 C2521 C 0.21553 0.44532 0.78426
 C2522 C 0.19736 0.43771 0.77825
 C2523 C 0.17810 0.44803 0.77540
 C2524 C 0.16832 0.43086 0.78599
 H2525 H 0.22468 0.41240 0.82054
 H2526 H 0.24031 0.44016 0.80331
 H2527 H 0.17400 0.44889 0.75984
 H2528 H 0.17714 0.46222 0.78347
 H2529 H 0.15855 0.42191 0.77650
 H2530 H 0.16171 0.43507 0.80023
 C2531 C 0.20990 0.92549 0.31293
 C2532 C 0.19422 0.91524 0.30420
 C2533 C 0.18594 0.92372 0.28736
 C2534 C 0.19492 0.94019 0.27837
 C2535 C 0.21225 0.94855 0.28609
 C2536 C 0.21864 0.94176 0.30412
 C2537 C 0.23884 0.93633 0.31084
 C2538 C 0.22937 0.91837 0.32040
 H2539 H 0.17322 0.91708 0.28047
 H2540 H 0.18902 0.94567 0.26483
 H2541 H 0.24476 0.94716 0.32145
 H2542 H 0.24911 0.93248 0.29875
 H2543 H 0.23006 0.91886 0.33650
 H2544 H 0.23402 0.90414 0.31374
 C2545 C 0.42033 0.30715 0.71377
 C2546 C 0.41252 0.30037 0.69629
 C2547 C 0.42219 0.28372 0.68800
 C2548 C 0.43847 0.27461 0.69739
 C2549 C 0.44547 0.28189 0.71529
 C2550 C 0.43587 0.29835 0.72273
 C2551 C 0.43527 0.31174 0.73978
 C2552 C 0.41763 0.32180 0.72975
 H2553 H 0.41720 0.27754 0.67442
 H2554 H 0.44539 0.26181 0.69082
 H2555 H 0.44870 0.32122 0.74065
 H2556 H 0.43113 0.30383 0.75335
 H2557 H 0.42085 0.33716 0.72496
 H2558 H 0.40336 0.31973 0.73765
 C2559 C 0.42198 0.80779 0.21280
 C2560 C 0.41365 0.80044 0.19578
 C2561 C 0.42276 0.78323 0.18801
 C2562 C 0.43900 0.77414 0.19749
 C2563 C 0.44655 0.78204 0.21492
 C2564 C 0.43751 0.79905 0.22181
 C2565 C 0.43752 0.81310 0.23834
 C2566 C 0.41991 0.82313 0.22824
 H2567 H 0.41732 0.77658 0.17482
 H2568 H 0.44544 0.76087 0.19138
 H2569 H 0.45115 0.82232 0.23861
 H2570 H 0.43346 0.80582 0.25226
 H2571 H 0.42335 0.83821 0.22279
 H2572 H 0.40576 0.82168 0.23646
 C2573 C 0.92183 0.28362 0.18914
 C2574 C 0.91142 0.29911 0.19804
 C2575 C 0.91642 0.30376 0.21740
 C2576 C 0.93270 0.29469 0.22643
 C2577 C 0.94435 0.28085 0.21630
 C2578 C 0.93786 0.27467 0.19808
 C2579 C 0.94900 0.27265 0.17943
 C2580 C 0.93147 0.28244 0.16961
 H2581 H 0.90825 0.31481 0.22545
 H2582 H 0.93654 0.29888 0.24109
 H2583 H 0.95097 0.25693 0.17518
 H2584 H 0.96271 0.28176 0.17894
 H2585 H 0.92343 0.27232 0.15969
 H2586 H 0.93499 0.29724 0.16348
 C2587 C 0.92172 0.78495 0.69077
 C2588 C 0.91199 0.80101 0.69942
 C2589 C 0.91736 0.80597 0.71859
 C2590 C 0.93327 0.79638 0.72775
 C2591 C 0.94417 0.78174 0.71790
 C2592 C 0.93739 0.77552 0.69981
 C2593 C 0.94844 0.77280 0.68120
 C2594 C 0.93133 0.78318 0.67126
 H2595 H 0.90972 0.81756 0.72640
 H2596 H 0.93745 0.80078 0.74226
 H2597 H 0.94976 0.75696 0.67715
 H2598 H 0.96252 0.78132 0.68060
 H2599 H 0.92291 0.77329 0.66142
 H2600 H 0.93547 0.79776 0.66498
 C2601 C 0.57774 0.28504 0.31159
 C2602 C 0.58717 0.30140 0.30311
 C2603 C 0.58219 0.30605 0.28376
 C2604 C 0.56688 0.29585 0.27423
 C2605 C 0.55619 0.28091 0.28389
 C2606 C 0.56264 0.27502 0.30219
 C2607 C 0.55119 0.27194 0.32052
 C2608 C 0.56764 0.28302 0.33085
 H2609 H 0.58966 0.31788 0.27610
 H2610 H 0.56287 0.30012 0.25963
 H2611 H 0.55036 0.25607 0.32461
 H2612 H 0.53679 0.27989 0.32072
 H2613 H 0.57612 0.27355 0.34100
 H2614 H 0.56282 0.29748 0.33689
 C2615 C 0.57513 0.81116 0.78705
 C2616 C 0.58227 0.80429 0.80487
 C2617 C 0.57093 0.78964 0.81452
 C2618 C 0.55474 0.78056 0.80529
 C2619 C 0.54958 0.78598 0.78630
 C2620 C 0.55915 0.80225 0.77803
 C2621 C 0.56783 0.80499 0.75827
 C2622 C 0.58546 0.81466 0.76809
 H2623 H 0.57509 0.78440 0.82873
 H2624 H 0.54698 0.76860 0.81251
 H2625 H 0.55904 0.81547 0.74940
 H2626 H 0.57157 0.79082 0.75099
 H2627 H 0.58686 0.83065 0.76467
 H2628 H 0.59938 0.80600 0.76662
 C2629 C 0.07508 0.31037 0.78920
 C2630 C 0.08276 0.30293 0.80657
 C2631 C 0.07204 0.28760 0.81583
 C2632 C 0.05581 0.27857 0.80660
 C2633 C 0.05003 0.28469 0.78799
 C2634 C 0.05911 0.30146 0.78014
 C2635 C 0.06745 0.30496 0.76036
 C2636 C 0.08504 0.31465 0.77021
 H2637 H 0.07668 0.28191 0.82974
 H2638 H 0.04849 0.26613 0.81349
 H2639 H 0.05834 0.31552 0.75191
 H2640 H 0.07133 0.29106 0.75264
 H2641 H 0.08609 0.33076 0.76726
 H2642 H 0.09911 0.30632 0.76828
 C2643 C 0.07608 0.81008 0.28743
 C2644 C 0.08416 0.80244 0.30455
 C2645 C 0.07355 0.78705 0.31386
 C2646 C 0.05715 0.77809 0.30483
 C2647 C 0.05103 0.78437 0.28638
 C2648 C 0.05990 0.80129 0.27861
 C2649 C 0.06763 0.80533 0.25870
 C2650 C 0.08546 0.81488 0.26829
 H2651 H 0.07844 0.78114 0.32759
 H2652 H 0.04998 0.76557 0.31173
 H2653 H 0.05821 0.81604 0.25078
 H2654 H 0.07138 0.79167 0.25053
 H2655 H 0.08633 0.83107 0.26569
 H2656 H 0.09951 0.80667 0.26576
 C2657 C 0.57576 0.71329 0.68928
 C2658 C 0.58447 0.69617 0.69680
 C2659 C 0.57437 0.68647 0.71212
 C2660 C 0.55765 0.69517 0.72100
 C2661 C 0.55078 0.71370 0.71473
 C2662 C 0.55934 0.72184 0.69805
 C2663 C 0.56657 0.74231 0.69429
 C2664 C 0.58465 0.73302 0.68472
 H2665 H 0.57986 0.67268 0.71789
 H2666 H 0.55082 0.68803 0.73341
 H2667 H 0.57006 0.75050 0.70783
 H2668 H 0.55696 0.75032 0.68391
 H2669 H 0.59863 0.73578 0.69274
 H2670 H 0.58547 0.73584 0.66885
 C2671 C 0.57287 0.21048 0.18602
 C2672 C 0.58064 0.19243 0.19237
 C2673 C 0.56988 0.18221 0.20693
 C2674 C 0.55369 0.19121 0.21645
 C2675 C 0.54794 0.21052 0.21153
 C2676 C 0.55691 0.21929 0.19536
 C2677 C 0.56509 0.23958 0.19265
 C2678 C 0.58269 0.22999 0.18251
 H2679 H 0.57456 0.16778 0.21182
 H2680 H 0.54655 0.18366 0.22846
 H2681 H 0.56904 0.24690 0.20654
 H2682 H 0.55584 0.24860 0.18275
 H2683 H 0.59679 0.23162 0.19061
 H2684 H 0.58361 0.23369 0.16682
 C2685 C 0.07146 0.68581 0.20640
 C2686 C 0.08362 0.69636 0.19343
 C2687 C 0.07740 0.71558 0.18821
 C2688 C 0.06117 0.72455 0.19765
 C2689 C 0.05072 0.71443 0.21231
 C2690 C 0.05530 0.69459 0.21547
 C2691 C 0.05856 0.68374 0.23398
 C2692 C 0.07639 0.67422 0.22418
 H2693 H 0.08564 0.72420 0.17770
 H2694 H 0.05742 0.73969 0.19422
 H2695 H 0.04640 0.67311 0.23716
 H2696 H 0.06257 0.69364 0.24621
 H2697 H 0.07452 0.65806 0.22196
 H2698 H 0.09074 0.67874 0.23067
 C2699 C 0.07565 0.21202 0.69002
 C2700 C 0.08417 0.19465 0.69718
 C2701 C 0.07434 0.18506 0.71272
 C2702 C 0.05803 0.19403 0.72207
 C2703 C 0.05135 0.21272 0.71608
 C2704 C 0.05964 0.22083 0.69927
 C2705 C 0.06723 0.24118 0.69555
 C2706 C 0.08486 0.23160 0.68545
 H2707 H 0.07969 0.17110 0.71823
 H2708 H 0.05131 0.18689 0.73455
 H2709 H 0.07124 0.24914 0.70908
 H2710 H 0.05754 0.24952 0.68548
 H2711 H 0.09909 0.23397 0.69315
 H2712 H 0.08534 0.23458 0.66960
 C2713 C 0.43042 0.68494 0.29469
 C2714 C 0.41871 0.69527 0.30819
 C2715 C 0.42563 0.71403 0.31414
 C2716 C 0.44199 0.72297 0.30484
 C2717 C 0.45190 0.71322 0.28960
 C2718 C 0.44673 0.69364 0.28577
 C2719 C 0.44310 0.68344 0.26697
 C2720 C 0.42506 0.67406 0.27658
 H2721 H 0.41774 0.72245 0.32504
 H2722 H 0.44611 0.73793 0.30869
 H2723 H 0.45494 0.67262 0.26342
 H2724 H 0.43929 0.69375 0.25502
 H2725 H 0.42647 0.65779 0.27828
 H2726 H 0.41082 0.67917 0.27032
 C2727 C 0.42786 0.21164 0.81443
 C2728 C 0.41999 0.19371 0.80777
 C2729 C 0.43067 0.18372 0.79304
 C2730 C 0.44689 0.19286 0.78366
 C2731 C 0.45272 0.21210 0.78887
 C2732 C 0.44382 0.22060 0.80519
 C2733 C 0.43569 0.24084 0.80820
 C2734 C 0.41809 0.23108 0.81822
 H2735 H 0.42592 0.16938 0.78796
 H2736 H 0.45399 0.18550 0.77153
 H2737 H 0.43175 0.24834 0.79442
 H2738 H 0.44497 0.24972 0.81822
 H2739 H 0.40398 0.23281 0.81017
 H2740 H 0.41718 0.23454 0.83397
 C2741 C 0.93287 0.68197 0.79574
 C2742 C 0.92163 0.69197 0.80983
 C2743 C 0.92850 0.71080 0.81565
 C2744 C 0.94421 0.72013 0.80568
 C2745 C 0.95350 0.71075 0.78986
 C2746 C 0.94851 0.69110 0.78608
 C2747 C 0.94402 0.68102 0.76739
 C2748 C 0.92675 0.67113 0.77784
 H2749 H 0.92109 0.71891 0.82709
 H2750 H 0.94830 0.73509 0.80954
 H2751 H 0.95587 0.67049 0.76308
 H2752 H 0.93931 0.69136 0.75580
 H2753 H 0.92863 0.65489 0.77929
 H2754 H 0.91204 0.67595 0.77244
 C2755 C 0.93247 0.18318 0.29540
 C2756 C 0.92080 0.19348 0.30895
 C2757 C 0.92750 0.21242 0.31460
 C2758 C 0.94359 0.22149 0.30499
 C2759 C 0.95344 0.21173 0.28974
 C2760 C 0.94852 0.19202 0.28617
 C2761 C 0.94481 0.18150 0.26755
 C2762 C 0.92703 0.17199 0.27750
 H2763 H 0.91963 0.22085 0.32551
 H2764 H 0.94750 0.23657 0.30860
 H2765 H 0.95677 0.17080 0.26401
 H2766 H 0.94071 0.19156 0.25550
 H2767 H 0.92868 0.15577 0.27938
 H2768 H 0.91263 0.17683 0.27135
 C2769 C 0.28852 0.31443 0.57264
 C2770 C 0.30609 0.30713 0.58063
 C2771 C 0.31619 0.29223 0.57016
 C2772 C 0.30737 0.28320 0.55394
 C2773 C 0.28835 0.28893 0.54793
 C2774 C 0.27985 0.30551 0.55670
 C2775 C 0.25938 0.30871 0.56432
 C2776 C 0.26882 0.31841 0.58188
 H2777 H 0.33032 0.28672 0.57506
 H2778 H 0.31474 0.27087 0.54697
 H2779 H 0.25152 0.29470 0.56785
 H2780 H 0.25090 0.31922 0.55521
 H2781 H 0.26654 0.30997 0.59555
 H2782 H 0.26562 0.33448 0.58290
 C2783 C 0.31341 0.79228 0.07091
 C2784 C 0.30278 0.80535 0.08287
 C2785 C 0.28390 0.81140 0.07637
 C2786 C 0.27520 0.80254 0.06001
 C2787 C 0.28528 0.78768 0.04969
 C2788 C 0.30492 0.78383 0.05461
 C2789 C 0.31528 0.76464 0.05750
 C2790 C 0.32444 0.77374 0.07550
 H2791 H 0.27524 0.82199 0.08451
 H2792 H 0.26019 0.80645 0.05611
 H2793 H 0.32628 0.76165 0.04579
 H2794 H 0.30499 0.75223 0.06078
 H2795 H 0.34074 0.77571 0.07419
 H2796 H 0.31925 0.76669 0.08920
 C2797 C 0.81408 0.29226 0.07204
 C2798 C 0.80348 0.30518 0.08416
 C2799 C 0.78436 0.31087 0.07804
 C2800 C 0.77555 0.30198 0.06175
 C2801 C 0.78570 0.28736 0.05116
 C2802 C 0.80543 0.28364 0.05588
 C2803 C 0.81577 0.26446 0.05895
 C2804 C 0.82514 0.27377 0.07674
 H2805 H 0.77574 0.32143 0.08628
 H2806 H 0.76046 0.30576 0.05803
 H2807 H 0.82664 0.26126 0.04719
 H2808 H 0.80546 0.25214 0.06249
 H2809 H 0.84143 0.27567 0.07524
 H2810 H 0.82010 0.26694 0.09061
 C2811 C 0.78657 0.81288 0.57661
 C2812 C 0.80487 0.80646 0.58374
 C2813 C 0.81508 0.79198 0.57280
 C2814 C 0.80597 0.78266 0.55689
 C2815 C 0.78650 0.78763 0.55165
 C2816 C 0.77763 0.80371 0.56095
 C2817 C 0.75738 0.80590 0.56941
 C2818 C 0.76711 0.81586 0.58668
 H2819 H 0.82970 0.78712 0.57697
 H2820 H 0.81366 0.77086 0.54938
 H2821 H 0.75032 0.79152 0.57310
 H2822 H 0.74805 0.81610 0.56077
 H2823 H 0.76581 0.80719 0.60033
 H2824 H 0.76320 0.83175 0.58800
 C2825 C 0.31265 0.70591 0.42894
 C2826 C 0.30149 0.69480 0.41574
 C2827 C 0.28156 0.69075 0.42081
 C2828 C 0.27272 0.69972 0.43714
 C2829 C 0.28372 0.71266 0.44888
 C2830 C 0.30401 0.71441 0.44524
 C2831 C 0.31665 0.73242 0.44400
 C2832 C 0.32603 0.72331 0.42600
 H2833 H 0.27237 0.68175 0.41152
 H2834 H 0.25707 0.69748 0.43996
 H2835 H 0.32701 0.73354 0.45641
 H2836 H 0.30799 0.74602 0.44093
 H2837 H 0.34188 0.71943 0.42801
 H2838 H 0.32269 0.73166 0.41253
 C2839 C 0.31398 0.20846 0.92857
 C2840 C 0.30383 0.19472 0.91706
 C2841 C 0.28495 0.18850 0.92370
 C2842 C 0.27580 0.19768 0.93974
 C2843 C 0.28541 0.21309 0.94960
 C2844 C 0.30504 0.21727 0.94457
 C2845 C 0.31498 0.23662 0.94098
 C2846 C 0.32464 0.22711 0.92332
 H2847 H 0.27664 0.17741 0.91591
 H2848 H 0.26085 0.19348 0.94382
 H2849 H 0.32572 0.24035 0.95257
 H2850 H 0.30444 0.24860 0.93725
 H2851 H 0.34097 0.22563 0.92471
 H2852 H 0.31952 0.23349 0.90937
 C2853 C 0.78813 0.68772 0.92517
 C2854 C 0.80553 0.69547 0.91691
 C2855 C 0.81188 0.71420 0.92354
 C2856 C 0.80206 0.72371 0.93902
 C2857 C 0.78573 0.71471 0.94824
 C2858 C 0.77838 0.69721 0.94033
 C2859 C 0.77319 0.67824 0.95011
 C2860 C 0.78391 0.66780 0.93359
 H2861 H 0.82472 0.72134 0.91722
 H2862 H 0.80737 0.73793 0.94399
 H2863 H 0.75694 0.67551 0.95023
 H2864 H 0.78058 0.67645 0.96436
 H2865 H 0.77380 0.65898 0.92431
 H2866 H 0.79756 0.66001 0.93825
 C2867 C 0.81538 0.20757 0.42988
 C2868 C 0.80525 0.19374 0.41846
 C2869 C 0.78632 0.18762 0.42505
 C2870 C 0.77710 0.19700 0.44095
 C2871 C 0.78673 0.21248 0.45070
 C2872 C 0.80639 0.21656 0.44574
 C2873 C 0.81644 0.23583 0.44206
 C2874 C 0.82614 0.22614 0.42452
 H2875 H 0.77804 0.17648 0.41730
 H2876 H 0.76209 0.19294 0.44494
 H2877 H 0.82713 0.23960 0.45368
 H2878 H 0.80598 0.24783 0.43818
 H2879 H 0.84245 0.22461 0.42599
 H2880 H 0.82109 0.23243 0.41050
 C2881 C 0.71236 0.31341 0.42539
 C2882 C 0.69577 0.30498 0.41648
 C2883 C 0.69021 0.28574 0.42236
 C2884 C 0.69993 0.27628 0.43779
 C2885 C 0.71527 0.28592 0.44777
 C2886 C 0.72191 0.30407 0.44062
 C2887 C 0.72528 0.32303 0.45111
 C2888 C 0.71483 0.33328 0.43446
 H2889 H 0.67820 0.27802 0.41534
 H2890 H 0.69525 0.26163 0.44218
 H2891 H 0.74127 0.32681 0.45201
 H2892 H 0.71698 0.32388 0.46508
 H2893 H 0.72484 0.34298 0.42582
 H2894 H 0.70045 0.34007 0.43874
 C2895 C 0.71098 0.81284 0.92469
 C2896 C 0.69356 0.80485 0.91696
 C2897 C 0.68685 0.78664 0.92459
 C2898 C 0.69655 0.77775 0.94034
 C2899 C 0.71306 0.78691 0.94885
 C2900 C 0.72058 0.80401 0.94018
 C2901 C 0.72545 0.82341 0.94922
 C2902 C 0.71494 0.83311 0.93231
 H2903 H 0.67405 0.77927 0.91862
 H2904 H 0.69114 0.76379 0.94594
 H2905 H 0.74167 0.82629 0.94928
 H2906 H 0.71781 0.82573 0.96338
 H2907 H 0.72514 0.84163 0.92272
 H2908 H 0.70115 0.84100 0.93663
 C2909 C 0.18684 0.28581 0.92595
 C2910 C 0.19414 0.30348 0.91801
 C2911 C 0.20914 0.31340 0.92842
 C2912 C 0.21815 0.30443 0.94457
 C2913 C 0.21230 0.28543 0.95060
 C2914 C 0.19570 0.27702 0.94186
 C2915 C 0.19239 0.25667 0.93426
 C2916 C 0.18279 0.26624 0.91673
 H2917 H 0.21471 0.32757 0.92361
 H2918 H 0.23043 0.31177 0.95158
 H2919 H 0.18175 0.24819 0.94341
 H2920 H 0.20638 0.24880 0.93068
 H2921 H 0.16667 0.26307 0.91575
 H2922 H 0.19132 0.26405 0.90303
 C2923 C 0.18777 0.78681 0.42490
 C2924 C 0.19518 0.80425 0.41658
 C2925 C 0.21017 0.81438 0.42683
 C2926 C 0.21905 0.80578 0.44324
 C2927 C 0.21307 0.78697 0.44969
 C2928 C 0.19649 0.77840 0.44106
 C2929 C 0.19320 0.75788 0.43394
 C2930 C 0.18375 0.76702 0.41612
 H2931 H 0.21584 0.82839 0.42168
 H2932 H 0.23135 0.81323 0.45011
 H2933 H 0.18247 0.74966 0.44322
 H2934 H 0.20720 0.74990 0.43066
 H2935 H 0.16763 0.76384 0.41510
 H2936 H 0.19238 0.76447 0.40254
 C2937 C 0.68956 0.71289 0.57655
 C2938 C 0.69690 0.69540 0.58465
 C2939 C 0.71217 0.68557 0.57436
 C2940 C 0.72132 0.69449 0.55812
 C2941 C 0.71535 0.71333 0.55189
 C2942 C 0.69857 0.72162 0.56057
 C2943 C 0.69510 0.74201 0.56801
 C2944 C 0.68529 0.73251 0.58561
 H2945 H 0.71779 0.67152 0.57935
 H2946 H 0.73375 0.68722 0.55114
 H2947 H 0.68457 0.75035 0.55880
 H2948 H 0.70905 0.74996 0.57150
 H2949 H 0.66914 0.73557 0.58656
 H2950 H 0.69360 0.73488 0.59929
 C2951 C 0.68781 0.21300 0.07471
 C2952 C 0.69476 0.19503 0.08213
 C2953 C 0.70984 0.18533 0.07145
 C2954 C 0.71918 0.19469 0.05557
 C2955 C 0.71361 0.21388 0.05006
 C2956 C 0.69697 0.22216 0.05905
 C2957 C 0.69373 0.24232 0.06717
 C2958 C 0.68381 0.23233 0.08446
 H2959 H 0.71519 0.17097 0.07583
 H2960 H 0.73145 0.18744 0.04831
 H2961 H 0.68329 0.25109 0.05826
 H2962 H 0.70773 0.25002 0.07095
 H2963 H 0.66770 0.23557 0.08554
 H2964 H 0.69217 0.23408 0.09820
 C2965 C 0.18821 0.71349 0.07499
 C2966 C 0.19516 0.69544 0.08224
 C2967 C 0.20978 0.68555 0.07113
 C2968 C 0.21878 0.69481 0.05499
 C2969 C 0.21330 0.71408 0.04964
 C2970 C 0.19701 0.72253 0.05906
 C2971 C 0.19410 0.74275 0.06714
 C2972 C 0.18460 0.73291 0.08472
 H2973 H 0.21512 0.67115 0.07540
 H2974 H 0.23078 0.68742 0.04743
 H2975 H 0.18345 0.75152 0.05845
 H2976 H 0.20822 0.75042 0.07052
 H2977 H 0.16854 0.73626 0.08621
 H2978 H 0.19336 0.73470 0.09822
 C2979 C 0.21355 0.18862 0.57618
 C2980 C 0.19727 0.19739 0.58551
 C2981 C 0.19197 0.21666 0.57965
 C2982 C 0.20163 0.22584 0.56387
 C2983 C 0.21663 0.21588 0.55355
 C2984 C 0.22304 0.19767 0.56061
 C2985 C 0.22586 0.17860 0.55016
 C2986 C 0.21545 0.16864 0.56717
 H2987 H 0.18022 0.22460 0.58698
 H2988 H 0.19716 0.24052 0.55948
 H2989 H 0.24177 0.17455 0.54884
 H2990 H 0.21735 0.17780 0.53643
 H2991 H 0.22538 0.15880 0.57557
 H2992 H 0.20087 0.16209 0.56333
   
