data_POSCAR
  _audit_creation_date              2014-09-24
  _audit_creation_method            'ToBaCCo'
  _symmetry_space_group_name_H-M    'P1'
  _symmetry_Int_Tables_number       1
  _symmetry_cell_setting            triclinic
  loop_
  _symmetry_equiv_pos_as_xyz
 x,y,z
_cell_length_a 48.4167
_cell_length_b 48.5864
_cell_length_c 48.5293
_cell_angle_alpha 89.956200
_cell_angle_beta 90.092100
_cell_angle_gamma 90.001300
loop_
  _atom_site_label
  _atom_site_type_symbol
  _atom_site_fract_x
  _atom_site_fract_y
  _atom_site_fract_z
C1 C 0.25351 0.94054 -0.02731
 C2 C 0.25268 0.92755 -0.00143
 C3 C 0.25405 0.94214 0.02328
 C4 C 0.25533 0.97117 0.02262
 C5 C 0.25482 0.98521 -0.00307
 C6 C 0.25497 0.96990 -0.02812
 C7 C 0.25967 0.98430 -0.05281
 C8 C 0.26091 1.01286 -0.05342
 C9 C 0.25757 1.02863 -0.02936
 C10 C 0.25605 1.01460 -0.00365
 C11 C 0.25906 0.98640 0.04687
 C12 C 0.26063 1.01488 0.04627
 C13 C 0.25763 1.02967 0.02150
 C14 C 0.25898 1.05893 0.02091
 C15 C 0.25946 1.07214 -0.00479
 C16 C 0.25879 1.05791 -0.02995
 H17 H 0.26375 0.97374 -0.07195
 H18 H 0.26577 1.02229 -0.07298
 H19 H 0.26175 0.97645 0.06662
 H20 H 0.26528 1.02495 0.06554
 H21 H 0.25058 0.90534 -0.00026
 H22 H 0.25852 1.09445 -0.00520
 C23 C 0.75798 0.43960 0.52495
 C24 C 0.75693 0.42657 0.49926
 C25 C 0.75768 0.44136 0.47454
 C26 C 0.75835 0.47048 0.47531
 C27 C 0.75832 0.48421 0.50113
 C28 C 0.75913 0.46875 0.52601
 C29 C 0.76226 0.48288 0.55109
 C30 C 0.76228 0.51148 0.55201
 C31 C 0.75933 0.52722 0.52788
 C32 C 0.75836 0.51348 0.50207
 C33 C 0.76023 0.48622 0.45107
 C34 C 0.76021 0.51482 0.45199
 C35 C 0.75830 0.52893 0.47719
 C36 C 0.75756 0.55807 0.47831
 C37 C 0.75728 0.57113 0.50399
 C38 C 0.75856 0.55634 0.52870
 H39 H 0.76522 0.47205 0.57032
 H40 H 0.76508 0.52105 0.57192
 H41 H 0.76210 0.47665 0.43107
 H42 H 0.76213 0.52567 0.43265
 H43 H 0.75565 0.40429 0.49844
 H44 H 0.75625 0.59343 0.50477
 C45 C 0.74099 1.02431 1.05983
 C46 C 0.74086 0.99933 1.07409
 C47 C 0.74076 0.97373 1.06062
 C48 C 0.74101 0.97340 1.03124
 C49 C 0.74213 0.99868 1.01638
 C50 C 0.74134 1.02415 1.03071
 C51 C 0.73955 1.04871 1.01550
 C52 C 0.74030 1.04854 0.98690
 C53 C 0.74285 1.02378 0.97220
 C54 C 0.74281 0.99853 0.98703
 C55 C 0.73763 0.94887 1.01617
 C56 C 0.73854 0.94871 0.98754
 C57 C 0.74222 0.97315 0.97255
 C58 C 0.74369 0.97310 0.94339
 C59 C 0.74502 0.99819 0.92927
 C60 C 0.74404 1.02345 0.94303
 H61 H 0.73698 1.06842 1.02550
 H62 H 0.73832 1.06812 0.97651
 H63 H 0.73336 0.92948 1.02618
 H64 H 0.73557 0.92916 0.97734
 H65 H 0.74182 1.00001 1.09642
 H66 H 0.74640 0.99806 0.90696
 C67 C 0.24584 0.52526 0.43824
 C68 C 0.24700 0.50023 0.42406
 C69 C 0.24615 0.47489 0.43774
 C70 C 0.24503 0.47445 0.46692
 C71 C 0.24510 0.49965 0.48179
 C72 C 0.24462 0.52512 0.46741
 C73 C 0.24168 0.54959 0.48256
 C74 C 0.24125 0.54932 0.51121
 C75 C 0.24378 0.52457 0.52599
 C76 C 0.24467 0.49938 0.51112
 C77 C 0.24260 0.44964 0.48161
 C78 C 0.24219 0.44937 0.51025
 C79 C 0.24417 0.47390 0.52547
 C80 C 0.24441 0.47376 0.55464
 C81 C 0.24491 0.49877 0.56888
 C82 C 0.24416 0.52414 0.55522
 H83 H 0.23920 0.56928 0.47248
 H84 H 0.23843 0.56881 0.52155
 H85 H 0.24056 0.43010 0.47119
 H86 H 0.23988 0.42963 0.52025
 H87 H 0.24835 0.50048 0.40174
 H88 H 0.24562 0.49845 0.59123
 C89 C 0.94161 0.25081 0.02504
 C90 C 0.92654 0.25165 0.00054
 C91 C 0.93918 0.25032 -0.02541
 C92 C 0.96858 0.24845 -0.02666
 C93 C 0.98437 0.24841 -0.00184
 C94 C 0.97078 0.24992 0.02403
 C95 C 0.98669 0.25070 0.04818
 C96 C 1.01532 0.25066 0.04712
 C97 C 1.02952 0.24749 0.02203
 C98 C 1.01385 0.24717 -0.00287
 C99 C 0.98284 0.24809 -0.05186
 C100 C 1.01129 0.24522 -0.05286
 C101 C 1.02749 0.24590 -0.02881
 C102 C 1.05682 0.24424 -0.02983
 C103 C 1.07163 0.24431 -0.00499
 C104 C 1.05890 0.24631 0.02086
 H105 H 0.97727 0.25193 0.06830
 H106 H 1.02596 0.25355 0.06644
 H107 H 0.97242 0.25018 -0.07140
 H108 H 1.02020 0.24251 -0.07303
 H109 H 0.90417 0.25208 0.00190
 H110 H 1.09399 0.24312 -0.00583
 C111 C 0.55901 0.74336 0.52737
 C112 C 0.57222 0.74249 0.50178
 C113 C 0.55745 0.74235 0.47699
 C114 C 0.52820 0.74311 0.47768
 C115 C 0.51433 0.74368 0.50347
 C116 C 0.52975 0.74381 0.52841
 C117 C 0.51548 0.74481 0.55360
 C118 C 0.48678 0.74429 0.55443
 C119 C 0.47104 0.74433 0.53009
 C120 C 0.48493 0.74419 0.50432
 C121 C 0.51242 0.74302 0.45336
 C122 C 0.48377 0.74454 0.45419
 C123 C 0.46951 0.74456 0.47939
 C124 C 0.44026 0.74527 0.48042
 C125 C 0.42700 0.74492 0.50599
 C126 C 0.44179 0.74425 0.53075
 H127 H 0.52624 0.74595 0.57307
 H128 H 0.47714 0.74403 0.57450
 H129 H 0.52197 0.74184 0.43329
 H130 H 0.47303 0.74557 0.43469
 H131 H 0.59462 0.74207 0.50113
 H132 H 0.40459 0.74510 0.50663
 C133 C 0.02768 0.76832 0.06145
 C134 C 0.00323 0.76834 0.07665
 C135 C -0.02290 0.76675 0.06409
 C136 C -0.02428 0.76571 0.03469
 C137 C 0.00050 0.76601 0.01889
 C138 C 0.02648 0.76774 0.03238
 C139 C 0.05060 0.76889 0.01646
 C140 C 0.04944 0.76821 -0.01209
 C141 C 0.02427 0.76439 -0.02612
 C142 C -0.00065 0.76454 -0.01051
 C143 C -0.04960 0.76579 0.02048
 C144 C -0.05077 0.76310 -0.00795
 C145 C -0.02669 0.76314 -0.02411
 C146 C -0.02772 0.76061 -0.05330
 C147 C -0.00284 0.76010 -0.06804
 C148 C 0.02313 0.76200 -0.05534
 H149 H 0.07078 0.77071 0.02583
 H150 H 0.06869 0.77109 -0.02288
 H151 H -0.06909 0.76805 0.03099
 H152 H -0.07107 0.76086 -0.01684
 H153 H 0.00486 0.76798 0.09895
 H154 H -0.00378 0.75790 -0.09027
 C155 C 0.52367 0.25362 0.55654
 C156 C 0.49821 0.25453 0.57007
 C157 C 0.47322 0.25622 0.55564
 C158 C 0.47357 0.25734 0.52646
 C159 C 0.49922 0.25644 0.51232
 C160 C 0.52434 0.25432 0.52737
 C161 C 0.54935 0.25239 0.51282
 C162 C 0.54990 0.25387 0.48424
 C163 C 0.52538 0.25637 0.46894
 C164 C 0.49976 0.25748 0.48303
 C165 C 0.44908 0.25961 0.51103
 C166 C 0.44958 0.25986 0.48237
 C167 C 0.47468 0.25923 0.46789
 C168 C 0.47550 0.25977 0.43868
 C169 C 0.50106 0.25947 0.42524
 C170 C 0.52583 0.25772 0.43988
 H171 H 0.56886 0.24956 0.52327
 H172 H 0.56984 0.25284 0.47425
 H173 H 0.42914 0.26121 0.52087
 H174 H 0.42994 0.26065 0.47180
 H175 H 0.49782 0.25379 0.59242
 H176 H 0.50167 0.26005 0.40290
 C177 C 1.06108 -0.02378 0.23932
 C178 C 1.07557 0.00103 0.23980
 C179 C 1.06227 0.02672 0.23947
 C180 C 1.03280 0.02732 0.23887
 C181 C 1.01772 0.00212 0.23841
 C182 C 1.03193 -0.02346 0.23846
 C183 C 1.01660 -0.04802 0.23846
 C184 C 0.98794 -0.04765 0.23816
 C185 C 0.97331 -0.02273 0.23920
 C186 C 0.98829 0.00243 0.23903
 C187 C 1.01784 0.05212 0.24070
 C188 C 0.98918 0.05244 0.23985
 C189 C 0.97392 0.02789 0.23953
 C190 C 0.94466 0.02804 0.23976
 C191 C 0.93036 0.00307 0.24018
 C192 C 0.94407 -0.02223 0.24013
 H193 H 1.02653 -0.06793 0.23886
 H194 H 0.97744 -0.06726 0.23723
 H195 H 1.02786 0.07175 0.24340
 H196 H 0.97921 0.07233 0.23995
 H197 H 1.09797 0.00014 0.23969
 H198 H 0.90796 0.00337 0.24104
 C199 C 0.43935 0.47335 0.74174
 C200 C 0.42560 0.49854 0.74394
 C201 C 0.43984 0.52353 0.74548
 C202 C 0.46911 0.52339 0.74603
 C203 C 0.48350 0.49799 0.74372
 C204 C 0.46857 0.47299 0.74085
 C205 C 0.48322 0.44848 0.73618
 C206 C 0.51192 0.44813 0.73612
 C207 C 0.52721 0.47227 0.74081
 C208 C 0.51289 0.49763 0.74370
 C209 C 0.48443 0.54785 0.74827
 C210 C 0.51314 0.54739 0.74925
 C211 C 0.52787 0.52261 0.74645
 C212 C 0.55716 0.52204 0.74653
 C213 C 0.57082 0.49672 0.74453
 C214 C 0.55644 0.47188 0.74182
 H215 H 0.47268 0.42929 0.73208
 H216 H 0.52194 0.42869 0.73198
 H217 H 0.47448 0.56771 0.74943
 H218 H 0.52357 0.56682 0.75223
 H219 H 0.40319 0.49874 0.74448
 H220 H 0.59322 0.49635 0.74503
 C221 C 1.02248 0.93920 0.75080
 C222 C 0.99725 0.92569 0.75561
 C223 C 0.97303 0.94000 0.76198
 C224 C 0.97380 0.96899 0.76415
 C225 C 0.99841 0.98337 0.75759
 C226 C 1.02267 0.96853 0.75042
 C227 C 1.04564 0.98344 0.74088
 C228 C 1.04593 1.01202 0.74122
 C229 C 1.02317 1.02717 0.75093
 C230 C 0.99858 1.01272 0.75765
 C231 C 0.95075 0.98395 0.77323
 C232 C 0.95096 1.01253 0.77346
 C233 C 0.97400 1.02744 0.76401
 C234 C 0.97367 1.05667 0.76225
 C235 C 0.99870 1.07038 0.75704
 C236 C 1.02359 1.05640 0.75195
 H237 H 1.06344 0.97321 0.73219
 H238 H 1.06398 1.02210 0.73286
 H239 H 0.93232 0.97367 0.78052
 H240 H 0.93287 1.02279 0.78148
 H241 H 0.99642 0.90340 0.75540
 H242 H 0.99880 1.09266 0.75663
 C243 C 0.47918 0.56100 0.26150
 C244 C 0.50477 0.57421 0.25923
 C245 C 0.52959 0.55952 0.25823
 C246 C 0.52892 0.53039 0.25869
 C247 C 0.50317 0.51656 0.26075
 C248 C 0.47831 0.53189 0.26303
 C249 C 0.45342 0.51772 0.26753
 C250 C 0.45251 0.48913 0.26736
 C251 C 0.47649 0.47351 0.26284
 C252 C 0.50225 0.48729 0.26052
 C253 C 0.55323 0.51470 0.25689
 C254 C 0.55239 0.48612 0.25753
 C255 C 0.52711 0.47191 0.25845
 C256 C 0.52592 0.44276 0.25794
 C257 C 0.50021 0.42967 0.25900
 C258 C 0.47557 0.44443 0.26151
 H259 H 0.43433 0.52853 0.27154
 H260 H 0.43277 0.47944 0.27113
 H261 H 0.57327 0.52429 0.25492
 H262 H 0.57194 0.47544 0.25725
 H263 H 0.50541 0.59651 0.25813
 H264 H 0.49937 0.40738 0.25777
 O265 O 0.25473 0.18034 0.20541
 O266 O 0.28568 0.17338 0.24398
 O267 O 0.18203 0.21204 0.24186
 O268 O 0.17087 0.24704 0.26987
 O269 O 0.21757 0.25164 0.17081
 O270 O 0.25296 0.28283 0.16456
 O271 O 0.25165 0.29008 0.31520
 O272 O 0.21959 0.25295 0.32149
 O273 O 0.32342 0.25168 0.28333
 O274 O 0.33521 0.22534 0.24568
 O275 O 0.28934 0.32395 0.24681
 O276 O 0.25119 0.33173 0.21361
 O277 O 0.24957 0.32287 0.28177
 O278 O 0.22023 0.33027 0.24076
 O279 O 0.32282 0.29122 0.24975
 O280 O 0.33054 0.25185 0.21289
 O281 O 0.28981 0.25545 0.31584
 O282 O 0.25673 0.22207 0.32378
 O283 O 0.25709 0.21383 0.17265
 O284 O 0.28919 0.25325 0.16863
 O285 O 0.18321 0.24977 0.20285
 O286 O 0.17447 0.28196 0.24137
 O287 O 0.21612 0.17991 0.24417
 O288 O 0.25620 0.17173 0.27372
 Zr289 Zr 0.25314 0.20240 0.24287
 O290 O 0.27757 0.22661 0.26926
 Zr291 Zr 0.20372 0.24957 0.24130
 O292 O 0.22598 0.27584 0.26796
 Zr293 Zr 0.25390 0.25107 0.19447
 O294 O 0.27809 0.27758 0.21890
 Zr295 Zr 0.25273 0.25279 0.29311
 O296 O 0.22763 0.22590 0.26913
 Zr297 Zr 0.30198 0.25356 0.24587
 O298 O 0.28004 0.22690 0.21934
 Zr299 Zr 0.25241 0.30102 0.24457
 O300 O 0.22796 0.27679 0.21779
 O301 O 0.22808 0.22482 0.21646
 O302 O 0.27825 0.27906 0.27095
 C303 C 0.25695 0.18850 0.18028
 C304 C 0.19061 0.18707 0.24350
 C305 C 0.19197 0.25104 0.17784
 C306 C 0.25000 0.31521 0.30709
 C307 C 0.31522 0.25374 0.30835
 C308 C 0.31461 0.31633 0.24955
 H309 H 0.28881 0.21434 0.28107
 H310 H 0.28975 0.28931 0.20703
 H311 H 0.21683 0.21278 0.20442
 H312 H 0.21289 0.28669 0.27918
 H313 H 0.20732 0.23748 0.31633
 H314 H 0.17670 0.25711 0.28659
 H315 H 0.33255 0.27064 0.20527
 H316 H 0.28392 0.24738 0.14976
 H317 H 0.24468 0.20668 0.31814
 H318 H 0.24055 0.17438 0.28652
 H319 H 0.26682 0.32848 0.20092
 H320 H 0.24112 0.29764 0.17206
 H321 H 0.29948 0.17943 0.23021
 H322 H 0.32855 0.20838 0.25480
 H323 H 0.17977 0.29478 0.22643
 H324 H 0.20617 0.32591 0.25487
 O325 O 0.74726 0.82313 0.21643
 O326 O 0.71794 0.83063 0.25575
 O327 O 0.82181 0.79455 0.25917
 O328 O 0.83253 0.75898 0.28703
 O329 O 0.79302 0.75341 0.18511
 O330 O 0.75786 0.71964 0.17841
 O331 O 0.75391 0.71609 0.32747
 O332 O 0.78148 0.75660 0.33485
 O333 O 0.67980 0.74962 0.29158
 O334 O 0.67274 0.78172 0.25101
 O335 O 0.71638 0.68068 0.25700
 O336 O 0.75690 0.67308 0.22660
 O337 O 0.75216 0.68243 0.29496
 O338 O 0.78572 0.67473 0.25674
 O339 O 0.68231 0.71275 0.25341
 O340 O 0.67300 0.74770 0.22341
 O341 O 0.71230 0.74752 0.32543
 O342 O 0.74223 0.78235 0.33569
 O343 O 0.75297 0.79038 0.18343
 O344 O 0.72317 0.75049 0.17593
 O345 O 0.82461 0.75670 0.21982
 O346 O 0.83152 0.72471 0.25869
 O347 O 0.78729 0.82581 0.25318
 O348 O 0.74904 0.83333 0.28443
 Zr349 Zr 0.75094 0.80217 0.25406
 O350 O 0.72564 0.77793 0.27955
 Zr351 Zr 0.80147 0.75628 0.25648
 O352 O 0.77823 0.72962 0.28171
 Zr353 Zr 0.75486 0.75324 0.20608
 O354 O 0.72922 0.72713 0.22948
 Zr355 Zr 0.74998 0.75265 0.30482
 O356 O 0.77555 0.77988 0.28214
 Zr357 Zr 0.70307 0.75050 0.25487
 O358 O 0.72624 0.77680 0.22892
 Zr359 Zr 0.75326 0.70391 0.25718
 O360 O 0.77936 0.72824 0.23181
 O361 O 0.77828 0.78020 0.22960
 O362 O 0.72579 0.72572 0.28174
 C363 C 0.74894 0.81537 0.19120
 C364 C 0.81284 0.81927 0.25605
 C365 C 0.81794 0.75521 0.19420
 C366 C 0.75337 0.69075 0.32007
 C367 C 0.68718 0.74759 0.31695
 C368 C 0.69090 0.68783 0.25484
 H369 H 0.71356 0.78990 0.29077
 H370 H 0.71839 0.71544 0.21676
 H371 H 0.78965 0.79236 0.21783
 H372 H 0.79096 0.71910 0.29368
 H373 H 0.79223 0.77330 0.33014
 H374 H 0.82500 0.75048 0.30393
 H375 H 0.68188 0.75466 0.20645
 H376 H 0.73103 0.75535 0.15768
 H377 H 0.74722 0.80034 0.32766
 H378 H 0.76474 0.83029 0.29719
 H379 H 0.74227 0.67630 0.21272
 H380 H 0.77184 0.70683 0.18599
 H381 H 0.70377 0.82407 0.24258
 H382 H 0.67357 0.79339 0.26769
 H383 H 0.82675 0.71110 0.24426
 H384 H 0.79852 0.67934 0.27195
 O385 O 0.74419 0.17641 0.78876
 O386 O 0.72229 0.16356 0.75075
 O387 O 0.81995 0.21016 0.75347
 O388 O 0.82857 0.24726 0.72236
 O389 O 0.78303 0.25011 0.82262
 O390 O 0.74607 0.27871 0.82868
 O391 O 0.75032 0.28241 0.67729
 O392 O 0.77765 0.24404 0.66893
 O393 O 0.67631 0.24524 0.71109
 O394 O 0.66872 0.21505 0.74610
 O395 O 0.70885 0.31719 0.74403
 O396 O 0.74639 0.32782 0.77688
 O397 O 0.74727 0.31664 0.70904
 O398 O 0.77785 0.32608 0.74977
 O399 O 0.67562 0.28413 0.74579
 O400 O 0.67109 0.24842 0.78235
 O401 O 0.71006 0.24748 0.67846
 O402 O 0.75048 0.21255 0.67290
 O403 O 0.74674 0.20963 0.82175
 O404 O 0.71136 0.24739 0.82464
 O405 O 0.81754 0.24861 0.79073
 O406 O 0.82584 0.27935 0.75165
 O407 O 0.78767 0.17617 0.75285
 O408 O 0.74919 0.16958 0.71794
 Zr409 Zr 0.74955 0.19750 0.75141
 O410 O 0.72341 0.22027 0.72525
 Zr411 Zr 0.79698 0.24670 0.75239
 O412 O 0.77380 0.27097 0.72483
 Zr413 Zr 0.74685 0.24679 0.79903
 O414 O 0.72200 0.27220 0.77402
 Zr415 Zr 0.74778 0.24611 0.70059
 O416 O 0.77438 0.22146 0.72519
 Zr417 Zr 0.69829 0.24710 0.74810
 O418 O 0.72148 0.22134 0.77459
 Zr419 Zr 0.74645 0.29586 0.74724
 O420 O 0.77155 0.27336 0.77506
 O421 O 0.77366 0.22123 0.77755
 O422 O 0.72126 0.27225 0.72181
 C423 C 0.74451 0.18442 0.81397
 C424 C 0.81283 0.18471 0.75366
 C425 C 0.80862 0.25020 0.81566
 C426 C 0.74943 0.30789 0.68415
 C427 C 0.68459 0.24620 0.68601
 C428 C 0.68353 0.30931 0.74404
 H429 H 0.71204 0.20750 0.71416
 H430 H 0.71007 0.28378 0.78579
 H431 H 0.78505 0.20990 0.79014
 H432 H 0.78670 0.28186 0.71341
 H433 H 0.79431 0.25359 0.67584
 H434 H 0.82322 0.23369 0.70811
 H435 H 0.65219 0.25216 0.77537
 H436 H 0.71679 0.24147 0.84345
 H437 H 0.73259 0.20271 0.67311
 H438 H 0.76584 0.17347 0.70677
 H439 H 0.73104 0.32431 0.78984
 H440 H 0.75572 0.29460 0.82032
 H441 H 0.70375 0.17110 0.74680
 H442 H 0.67271 0.20251 0.76170
 H443 H 0.81928 0.29321 0.76507
 H444 H 0.79129 0.32241 0.73489
 O445 O 0.24513 0.81754 0.78946
 O446 O 0.27697 0.82512 0.75221
 O447 O 0.17483 0.78475 0.74492
 O448 O 0.16399 0.74768 0.72057
 O449 O 0.20524 0.74640 0.82153
 O450 O 0.24003 0.71454 0.82945
 O451 O 0.24803 0.70823 0.67917
 O452 O 0.21707 0.74628 0.67108
 O453 O 0.31858 0.74542 0.71579
 O454 O 0.32789 0.77306 0.75284
 O455 O 0.28264 0.67482 0.74804
 O456 O 0.24379 0.66561 0.77993
 O457 O 0.24424 0.67531 0.71228
 O458 O 0.21326 0.66762 0.75216
 O459 O 0.31626 0.70717 0.75306
 O460 O 0.32054 0.74924 0.78695
 O461 O 0.28657 0.74233 0.68154
 O462 O 0.25486 0.77587 0.67117
 O463 O 0.24514 0.78390 0.82214
 O464 O 0.27629 0.74444 0.82862
 O465 O 0.17346 0.74834 0.78687
 O466 O 0.16770 0.71475 0.74804
 O467 O 0.20743 0.81797 0.75025
 O468 O 0.24813 0.82598 0.72074
 Zr469 Zr 0.24485 0.79563 0.75188
 O470 O 0.27135 0.77166 0.72719
 Zr471 Zr 0.19630 0.74766 0.74990
 O472 O 0.22029 0.72188 0.72463
 Zr473 Zr 0.24305 0.74670 0.80011
 O474 O 0.26910 0.72059 0.77722
 Zr475 Zr 0.24832 0.74538 0.70160
 O476 O 0.22146 0.77185 0.72387
 Zr477 Zr 0.29466 0.74483 0.75202
 O478 O 0.27053 0.77119 0.77701
 Zr479 Zr 0.24543 0.69700 0.74967
 O480 O 0.21907 0.72070 0.77500
 O481 O 0.21845 0.77278 0.77647
 O482 O 0.27276 0.71924 0.72524
 C483 C 0.24595 0.80925 0.81463
 C484 C 0.18236 0.81003 0.74652
 C485 C 0.18024 0.74751 0.81252
 C486 C 0.24581 0.68305 0.68704
 C487 C 0.31157 0.74334 0.69034
 C488 C 0.30801 0.68220 0.75023
 H489 H 0.28327 0.78394 0.71610
 H490 H 0.27998 0.70894 0.78991
 H491 H 0.20651 0.78488 0.78771
 H492 H 0.20785 0.71110 0.71258
 H493 H 0.20517 0.76233 0.67520
 H494 H 0.17243 0.74287 0.70268
 H495 H 0.32071 0.73145 0.79689
 H496 H 0.26951 0.74987 0.84713
 H497 H 0.24449 0.79228 0.67718
 H498 H 0.23221 0.82356 0.70815
 H499 H 0.25856 0.66914 0.79356
 H500 H 0.22915 0.69965 0.82075
 H501 H 0.29064 0.81878 0.76602
 H502 H 0.32139 0.79005 0.74367
 H503 H 0.17134 0.70281 0.76419
 H504 H 0.19995 0.67173 0.73723
 O505 O 0.24227 0.31919 0.70674
 O506 O 0.21363 0.32704 0.74655
 O507 O 0.31686 0.28904 0.74849
 O508 O 0.32774 0.25281 0.77531
 O509 O 0.28576 0.24855 0.67440
 O510 O 0.24969 0.21556 0.66839
 O511 O 0.24908 0.21170 0.81731
 O512 O 0.27768 0.25169 0.82421
 O513 O 0.17487 0.24695 0.78332
 O514 O 0.16749 0.27902 0.74295
 O515 O 0.20924 0.17711 0.74743
 O516 O 0.24908 0.16897 0.71633
 O517 O 0.24643 0.17800 0.78493
 O518 O 0.27837 0.16974 0.74592
 O519 O 0.17589 0.20999 0.74537
 O520 O 0.16660 0.24501 0.71530
 O521 O 0.20813 0.24422 0.81636
 O522 O 0.23910 0.27797 0.82626
 O523 O 0.24701 0.28632 0.67368
 O524 O 0.21569 0.24734 0.66680
 O525 O 0.31814 0.25163 0.70841
 O526 O 0.32533 0.21902 0.74679
 O527 O 0.28290 0.32099 0.74308
 O528 O 0.24525 0.32921 0.77471
 Zr529 Zr 0.24613 0.29805 0.74429
 O530 O 0.22099 0.27425 0.77031
 Zr531 Zr 0.29583 0.25116 0.74556
 O532 O 0.27263 0.22486 0.77117
 Zr533 Zr 0.24811 0.24912 0.69622
 O534 O 0.22246 0.22348 0.72010
 Zr535 Zr 0.24540 0.24841 0.79494
 O536 O 0.27092 0.27522 0.77178
 Zr537 Zr 0.19737 0.24730 0.74612
 O538 O 0.22043 0.27320 0.71966
 Zr539 Zr 0.24661 0.19964 0.74719
 O540 O 0.27266 0.22356 0.72133
 O541 O 0.27256 0.27561 0.71929
 O542 O 0.22015 0.22195 0.77243
 C543 C 0.24371 0.31137 0.68153
 C544 C 0.30833 0.31397 0.74579
 C545 C 0.31087 0.25020 0.68296
 C546 C 0.24841 0.18633 0.80999
 C547 C 0.18282 0.24481 0.80851
 C548 C 0.18385 0.18482 0.74607
 H549 H 0.20942 0.28643 0.78183
 H550 H 0.21109 0.21206 0.70760
 H551 H 0.28399 0.28765 0.70745
 H552 H 0.28546 0.21409 0.78282
 H553 H 0.28865 0.26818 0.81926
 H554 H 0.32033 0.24466 0.79244
 H555 H 0.17517 0.25201 0.69820
 H556 H 0.22327 0.25206 0.64839
 H557 H 0.24341 0.29603 0.81800
 H558 H 0.26093 0.32574 0.78737
 H559 H 0.23422 0.17253 0.70278
 H560 H 0.26369 0.20250 0.67550
 H561 H 0.19920 0.32080 0.73351
 H562 H 0.16910 0.29085 0.75946
 H563 H 0.32012 0.20575 0.73222
 H564 H 0.29209 0.17457 0.76024
 O565 O 0.75203 0.67452 0.71660
 O566 O 0.78217 0.66775 0.75577
 O567 O 0.67900 0.70732 0.75140
 O568 O 0.66770 0.74279 0.77880
 O569 O 0.71606 0.74597 0.68043
 O570 O 0.75180 0.77648 0.67437
 O571 O 0.74820 0.78566 0.82491
 O572 O 0.71565 0.74902 0.83115
 O573 O 0.81997 0.74648 0.79469
 O574 O 0.83223 0.71933 0.75779
 O575 O 0.78732 0.81828 0.75660
 O576 O 0.74963 0.82600 0.72280
 O577 O 0.74698 0.81802 0.79102
 O578 O 0.71841 0.82528 0.74959
 O579 O 0.82050 0.78533 0.76005
 O580 O 0.82830 0.74501 0.72438
 O581 O 0.78595 0.75050 0.82671
 O582 O 0.75238 0.71767 0.83438
 O583 O 0.75538 0.70762 0.68350
 O584 O 0.78769 0.74674 0.67945
 O585 O 0.68119 0.74460 0.71196
 O586 O 0.67207 0.77729 0.74995
 O587 O 0.71267 0.67485 0.75484
 O588 O 0.75227 0.66675 0.78503
 Zr589 Zr 0.74993 0.69705 0.75374
 O590 O 0.77419 0.72139 0.78017
 Zr591 Zr 0.70104 0.74465 0.75076
 O592 O 0.72313 0.77105 0.77744
 Zr593 Zr 0.75196 0.74514 0.70474
 O594 O 0.77602 0.77171 0.72919
 Zr595 Zr 0.74924 0.74808 0.80332
 O596 O 0.72425 0.72113 0.77929
 Zr597 Zr 0.79924 0.74782 0.75684
 O598 O 0.77743 0.72103 0.73034
 Zr599 Zr 0.75018 0.79569 0.75418
 O600 O 0.72591 0.77137 0.72733
 O601 O 0.72553 0.71936 0.72660
 O602 O 0.77540 0.77386 0.78125
 C603 C 0.75495 0.68240 0.69146
 C604 C 0.68726 0.68229 0.75358
 C605 C 0.69037 0.74567 0.68711
 C606 C 0.74692 0.81069 0.81643
 C607 C 0.81145 0.74865 0.81960
 C608 C 0.81256 0.81053 0.75941
 H609 H 0.78514 0.70917 0.79231
 H610 H 0.78796 0.78319 0.71733
 H611 H 0.71438 0.70728 0.71450
 H612 H 0.70997 0.78217 0.78830
 H613 H 0.70327 0.73363 0.82599
 H614 H 0.67334 0.75304 0.79548
 H615 H 0.83032 0.76351 0.71609
 H616 H 0.78272 0.74065 0.66057
 H617 H 0.74010 0.70242 0.82882
 H618 H 0.73648 0.66972 0.79759
 H619 H 0.76550 0.82256 0.71046
 H620 H 0.74019 0.79160 0.68158
 H621 H 0.79632 0.67359 0.74226
 H622 H 0.82524 0.70256 0.76700
 H623 H 0.67778 0.78992 0.73498
 H624 H 0.70400 0.82111 0.76340
 O625 O 0.25138 0.68098 0.28641
 O626 O 0.22560 0.67237 0.24610
 O627 O 0.32589 0.71648 0.25327
 O628 O 0.33726 0.75258 0.22713
 O629 O 0.28705 0.75314 0.32417
 O630 O 0.24974 0.78196 0.33005
 O631 O 0.25781 0.79142 0.17911
 O632 O 0.28777 0.75542 0.17178
 O633 O 0.18426 0.75207 0.20881
 O634 O 0.17201 0.72440 0.24532
 O635 O 0.21512 0.82371 0.24924
 O636 O 0.25275 0.83338 0.27990
 O637 O 0.25247 0.82430 0.21203
 O638 O 0.28443 0.83178 0.25332
 O639 O 0.18233 0.79051 0.24459
 O640 O 0.17562 0.74904 0.27918
 O641 O 0.21857 0.75702 0.17720
 O642 O 0.25728 0.72243 0.17097
 O643 O 0.25094 0.71313 0.32056
 O644 O 0.21533 0.75036 0.32381
 O645 O 0.32232 0.75295 0.29309
 O646 O 0.33025 0.78702 0.25518
 O647 O 0.29371 0.68243 0.25030
 O648 O 0.25680 0.67522 0.21693
 Zr649 Zr 0.25565 0.70372 0.24982
 O650 O 0.23035 0.72732 0.22367
 Zr651 Zr 0.30294 0.75299 0.25403
 O652 O 0.28046 0.77822 0.22666
 Zr653 Zr 0.25160 0.75108 0.29932
 O654 O 0.22735 0.77742 0.27467
 Zr655 Zr 0.25523 0.75430 0.20078
 O656 O 0.28105 0.72881 0.22519
 Zr657 Zr 0.20464 0.75329 0.24684
 O658 O 0.22707 0.72662 0.27311
 Zr659 Zr 0.25258 0.80213 0.24954
 O660 O 0.27690 0.77859 0.27720
 O661 O 0.27902 0.72650 0.27749
 O662 O 0.22813 0.77965 0.22237
 C663 C 0.25009 0.68816 0.31184
 C664 C 0.31879 0.69106 0.25193
 C665 C 0.31279 0.75342 0.31784
 C666 C 0.25556 0.81654 0.18688
 C667 C 0.19302 0.75480 0.18404
 C668 C 0.19001 0.81572 0.24664
 H669 H 0.21943 0.71487 0.21182
 H670 H 0.21525 0.78855 0.28669
 H671 H 0.29029 0.71462 0.28968
 H672 H 0.29341 0.78964 0.21584
 H673 H 0.30251 0.74326 0.17901
 H674 H 0.33149 0.76196 0.20998
 H675 H 0.17357 0.76719 0.28818
 H676 H 0.22029 0.74409 0.34264
 H677 H 0.23997 0.71165 0.17173
 H678 H 0.27082 0.68206 0.20377
 H679 H 0.23938 0.82796 0.29431
 H680 H 0.26140 0.79739 0.32358
 H681 H 0.20953 0.67835 0.25718
 H682 H 0.17926 0.70778 0.23609
 H683 H 0.32420 0.79895 0.27056
 H684 H 0.29658 0.83015 0.23704
 O685 O 0.75028 0.32202 0.28749
 O686 O 0.77961 0.32998 0.24702
 O687 O 0.67834 0.28647 0.25214
 O688 O 0.66806 0.25084 0.22484
 O689 O 0.71566 0.25096 0.32378
 O690 O 0.75159 0.22004 0.32996
 O691 O 0.74985 0.21064 0.17948
 O692 O 0.71722 0.24709 0.17246
 O693 O 0.82168 0.25030 0.21104
 O694 O 0.82962 0.28133 0.24375
 O695 O 0.78921 0.17945 0.24645
 O696 O 0.75313 0.16986 0.28094
 O697 O 0.74852 0.17831 0.21338
 O698 O 0.72038 0.17087 0.25561
 O699 O 0.82238 0.21268 0.24727
 O700 O 0.82717 0.25048 0.28255
 O701 O 0.78750 0.24636 0.17892
 O702 O 0.75354 0.27849 0.16996
 O703 O 0.75459 0.28916 0.32071
 O704 O 0.78710 0.25035 0.32568
 O705 O 0.68139 0.24972 0.29145
 O706 O 0.67352 0.21660 0.25312
 O707 O 0.71060 0.32044 0.24980
 O708 O 0.74966 0.32917 0.21862
 Zr709 Zr 0.74875 0.29933 0.25042
 O710 O 0.77410 0.27537 0.22470
 Zr711 Zr 0.70147 0.25012 0.25294
 O712 O 0.72434 0.22451 0.22646
 Zr713 Zr 0.75178 0.25148 0.29970
 O714 O 0.77659 0.22549 0.27550
 Zr715 Zr 0.75019 0.24821 0.20111
 O716 O 0.72407 0.27439 0.22466
 Zr717 Zr 0.79984 0.24975 0.24832
 O718 O 0.77695 0.27627 0.27435
 Zr719 Zr 0.75170 0.20077 0.25018
 O720 O 0.72670 0.22434 0.27691
 O721 O 0.72489 0.27631 0.27730
 O722 O 0.77670 0.22321 0.22359
 C723 C 0.75351 0.31431 0.31265
 C724 C 0.68551 0.31184 0.25086
 C725 C 0.69013 0.25022 0.31648
 C726 C 0.74856 0.18561 0.18797
 C727 C 0.81304 0.24810 0.18611
 C728 C 0.81447 0.18747 0.24604
 H729 H 0.78507 0.28775 0.21276
 H730 H 0.78879 0.21442 0.28754
 H731 H 0.71344 0.28818 0.28927
 H732 H 0.71146 0.21314 0.21547
 H733 H 0.70458 0.26232 0.17738
 H734 H 0.67467 0.24233 0.20757
 H735 H 0.84592 0.24587 0.27578
 H736 H 0.78170 0.25638 0.34445
 H737 H 0.74174 0.29402 0.17568
 H738 H 0.73328 0.32608 0.20679
 H739 H 0.76831 0.17441 0.29380
 H740 H 0.74054 0.20467 0.32237
 H741 H 0.79299 0.32679 0.26211
 H742 H 0.82606 0.29489 0.25851
 H743 H 0.67878 0.20458 0.26876
 H744 H 0.70633 0.17388 0.24110
 C745 C 0.26008 0.11157 0.09052
 C746 C 0.24229 0.08877 0.09048
 C747 C 0.24181 0.07125 0.06744
 C748 C 0.25970 0.07583 0.04484
 C749 C 0.27740 0.09899 0.04558
 C750 C 0.27754 0.11691 0.06812
 C751 C 0.26005 0.13058 0.11421
 C752 C 0.27706 0.15399 0.11361
 C753 C 0.27617 0.17258 0.13560
 C754 C 0.25888 0.16766 0.15833
 C755 C 0.24247 0.14373 0.15907
 C756 C 0.24266 0.12528 0.13676
 C757 C 0.29468 0.14024 0.06855
 C758 C 0.29432 0.15856 0.09085
 C759 C 0.22510 0.08418 0.11336
 C760 C 0.22542 0.10201 0.13618
 H761 H 0.30825 0.14455 0.05134
 H762 H 0.30759 0.17651 0.09021
 H763 H 0.21128 0.06664 0.11365
 H764 H 0.21182 0.09771 0.15336
 H765 H 0.22696 0.05457 0.06679
 H766 H 0.29149 0.10291 0.02867
 H767 H 0.28889 0.19095 0.13506
 H768 H 0.22888 0.14009 0.17642
 C769 C 0.76003 0.60627 0.60141
 C770 C 0.74000 0.58548 0.59909
 C771 C 0.73966 0.56884 0.57543
 C772 C 0.75967 0.57247 0.55469
 C773 C 0.77985 0.59310 0.55765
 C774 C 0.77994 0.61027 0.58079
 C775 C 0.75967 0.62474 0.62550
 C776 C 0.77876 0.64645 0.62697
 C777 C 0.77738 0.66488 0.64907
 C778 C 0.75751 0.66138 0.66986
 C779 C 0.73907 0.63902 0.66869
 C780 C 0.73975 0.62085 0.64619
 C781 C 0.79918 0.63174 0.58340
 C782 C 0.79849 0.64965 0.60603
 C783 C 0.72049 0.58211 0.62024
 C784 C 0.72048 0.59937 0.64348
 H785 H 0.81462 0.63501 0.56759
 H786 H 0.81339 0.66627 0.60704
 H787 H 0.70499 0.56609 0.61876
 H788 H 0.70497 0.59617 0.65923
 H789 H 0.72374 0.55334 0.57293
 H790 H 0.79512 0.59609 0.54160
 H791 H 0.79159 0.68211 0.65005
 H792 H 0.72353 0.63657 0.68457
 C793 C 0.74186 0.90420 0.11327
 C794 C 0.75886 0.90432 0.08987
 C795 C 0.75840 0.92723 0.07216
 C796 C 0.74055 0.94971 0.07734
 C797 C 0.72358 0.94885 0.10102
 C798 C 0.72426 0.92637 0.11901
 C799 C 0.74294 0.88070 0.13250
 C800 C 0.72664 0.88121 0.15640
 C801 C 0.72848 0.85944 0.17516
 C802 C 0.74617 0.83704 0.17008
 C803 C 0.76189 0.83638 0.14569
 C804 C 0.76062 0.85845 0.12695
 C805 C 0.70785 0.92585 0.14284
 C806 C 0.70911 0.90369 0.16129
 C807 C 0.77630 0.88169 0.08496
 C808 C 0.77705 0.85910 0.10309
 H809 H 0.69416 0.94287 0.14744
 H810 H 0.69638 0.90423 0.17963
 H811 H 0.78952 0.88147 0.06698
 H812 H 0.79085 0.84214 0.09856
 H813 H 0.77264 0.92797 0.05496
 H814 H 0.70950 0.96565 0.10534
 H815 H 0.71622 0.85993 0.19383
 H816 H 0.77573 0.81928 0.14185
 C817 C 0.24186 0.40168 0.60549
 C818 C 0.26276 0.40407 0.58559
 C819 C 0.26361 0.42761 0.56881
 C820 C 0.24323 0.44815 0.57135
 C821 C 0.22229 0.44522 0.59121
 C822 C 0.22166 0.42219 0.60853
 C823 C 0.24147 0.37758 0.62396
 C824 C 0.22138 0.37598 0.64475
 C825 C 0.22193 0.35379 0.66314
 C826 C 0.24197 0.33304 0.66047
 C827 C 0.26146 0.33437 0.63904
 C828 C 0.26160 0.35696 0.62095
 C829 C 0.20150 0.41950 0.62913
 C830 C 0.20147 0.39686 0.64706
 C831 C 0.28252 0.38301 0.58315
 C832 C 0.28184 0.35977 0.60041
 H833 H 0.18584 0.43523 0.63166
 H834 H 0.18583 0.39577 0.66297
 H835 H 0.29870 0.38455 0.56783
 H836 H 0.29754 0.34408 0.59791
 H837 H 0.28008 0.43011 0.55391
 H838 H 0.20674 0.46114 0.59338
 H839 H 0.20694 0.35270 0.67969
 H840 H 0.27715 0.31855 0.63729
 C841 C 0.74205 0.09478 0.89094
 C842 C 0.72237 0.07384 0.88744
 C843 C 0.72282 0.05107 0.90511
 C844 C 0.74311 0.04878 0.92580
 C845 C 0.76303 0.06972 0.92875
 C846 C 0.76230 0.09305 0.91163
 C847 C 0.74180 0.11866 0.87215
 C848 C 0.76135 0.13976 0.87568
 C849 C 0.76134 0.16216 0.85733
 C850 C 0.74260 0.16284 0.83515
 C851 C 0.72314 0.14160 0.83197
 C852 C 0.72242 0.11960 0.85060
 C853 C 0.78151 0.11456 0.91455
 C854 C 0.78092 0.13760 0.89701
 C855 C 0.70288 0.07587 0.86606
 C856 C 0.70304 0.09828 0.84782
 H857 H 0.79717 0.11354 0.93049
 H858 H 0.79617 0.15366 0.89991
 H859 H 0.68763 0.05981 0.86316
 H860 H 0.68793 0.09885 0.83133
 H861 H 0.70761 0.03487 0.90262
 H862 H 0.77904 0.06775 0.94427
 H863 H 0.77658 0.17836 0.85952
 H864 H 0.70871 0.14217 0.81486
 C865 C 0.24549 0.59721 0.38706
 C866 C 0.22586 0.57638 0.38271
 C867 C 0.22564 0.55345 0.40017
 C868 C 0.24527 0.55087 0.42145
 C869 C 0.26514 0.57172 0.42528
 C870 C 0.26503 0.59522 0.40840
 C871 C 0.24597 0.62125 0.36852
 C872 C 0.26541 0.64227 0.37296
 C873 C 0.26597 0.66492 0.35497
 C874 C 0.24794 0.66592 0.33223
 C875 C 0.22867 0.64470 0.32803
 C876 C 0.22733 0.62246 0.34634
 C877 C 0.28420 0.61662 0.41219
 C878 C 0.28425 0.63985 0.39491
 C879 C 0.20713 0.57866 0.36070
 C880 C 0.20799 0.60123 0.34268
 H881 H 0.29931 0.61540 0.42863
 H882 H 0.29941 0.65586 0.39851
 H883 H 0.19194 0.56268 0.35713
 H884 H 0.19345 0.60202 0.32570
 H885 H 0.21049 0.53732 0.39701
 H886 H 0.28068 0.56951 0.44123
 H887 H 0.28105 0.68116 0.35794
 H888 H 0.21477 0.64557 0.31050
 C889 C 0.25183 0.88690 0.90383
 C890 C 0.26820 0.88051 0.92681
 C891 C 0.26906 0.89878 0.94903
 C892 C 0.25339 0.92337 0.94893
 C893 C 0.23667 0.92915 0.92567
 C894 C 0.23616 0.91118 0.90294
 C895 C 0.25077 0.86750 0.88046
 C896 C 0.23455 0.87383 0.85727
 C897 C 0.23354 0.85511 0.83517
 C898 C 0.24798 0.82997 0.83675
 C899 C 0.26404 0.82402 0.86018
 C900 C 0.26573 0.84278 0.88196
 C901 C 0.22004 0.91677 0.87944
 C902 C 0.21940 0.89852 0.85694
 C903 C 0.28328 0.85582 0.92730
 C904 C 0.28194 0.83719 0.90531
 H905 H 0.20784 0.93544 0.87841
 H906 H 0.20671 0.90366 0.83925
 H907 H 0.29599 0.85070 0.94497
 H908 H 0.29364 0.81823 0.90663
 H909 H 0.28240 0.89397 0.96636
 H910 H 0.22338 0.94710 0.92558
 H911 H 0.22096 0.85964 0.81723
 H912 H 0.27534 0.80478 0.86137
 C913 C 0.75859 0.39109 0.40212
 C914 C 0.73807 0.41135 0.40476
 C915 C 0.73790 0.42816 0.42830
 C916 C 0.75853 0.42519 0.44860
 C917 C 0.77917 0.40509 0.44532
 C918 C 0.77914 0.38778 0.42230
 C919 C 0.75811 0.37243 0.37819
 C920 C 0.77777 0.35125 0.37642
 C921 C 0.77635 0.33266 0.35448
 C922 C 0.75587 0.33547 0.33412
 C923 C 0.73682 0.35728 0.33556
 C924 C 0.73756 0.37562 0.35794
 C925 C 0.79890 0.36683 0.41940
 C926 C 0.79812 0.34875 0.39692
 C927 C 0.71791 0.41402 0.38404
 C928 C 0.71777 0.39657 0.36094
 H929 H 0.81482 0.36410 0.43488
 H930 H 0.81345 0.33255 0.39568
 H931 H 0.70202 0.42962 0.38577
 H932 H 0.70177 0.39922 0.34553
 H933 H 0.72165 0.44325 0.43108
 H934 H 0.79491 0.40261 0.46106
 H935 H 0.79104 0.31584 0.35327
 H936 H 0.72083 0.35918 0.32001
 C937 C 0.11374 0.24934 0.08877
 C938 C 0.11861 0.26579 0.06554
 C939 C 0.09993 0.26500 0.04357
 C940 C 0.07647 0.24767 0.04427
 C941 C 0.07240 0.23071 0.06761
 C942 C 0.09069 0.23187 0.09011
 C943 C 0.13344 0.25016 0.11196
 C944 C 0.12850 0.23395 0.13542
 C945 C 0.14737 0.23485 0.15741
 C946 C 0.17134 0.25117 0.15553
 C947 C 0.17606 0.26709 0.13180
 C948 C 0.15701 0.26691 0.11008
 C949 C 0.08657 0.21574 0.11382
 C950 C 0.10504 0.21692 0.13618
 C951 C 0.14218 0.28262 0.06460
 C952 C 0.16116 0.28305 0.08644
 H953 H 0.06887 0.20217 0.11516
 H954 H 0.10106 0.20420 0.15409
 H955 H 0.14613 0.29539 0.04672
 H956 H 0.17922 0.29612 0.08480
 H957 H 0.10348 0.27828 0.02594
 H958 H 0.05548 0.21609 0.06798
 H959 H 0.14387 0.22234 0.17558
 H960 H 0.19445 0.27975 0.13040
 C961 C 0.61332 0.74542 0.59718
 C962 C 0.61577 0.76541 0.57642
 C963 C 0.59730 0.76500 0.55421
 C964 C 0.57692 0.74442 0.55226
 C965 C 0.57516 0.72410 0.57291
 C966 C 0.59297 0.72485 0.59576
 C967 C 0.63273 0.74578 0.62061
 C968 C 0.62997 0.72615 0.64170
 C969 C 0.64849 0.72669 0.66398
 C970 C 0.67011 0.74602 0.66457
 C971 C 0.67281 0.76531 0.64316
 C972 C 0.65388 0.76557 0.62130
 C973 C 0.59101 0.70540 0.61713
 C974 C 0.60904 0.70619 0.63984
 C975 C 0.63687 0.78519 0.57810
 C976 C 0.65575 0.78514 0.60006
 H977 H 0.57535 0.68949 0.61634
 H978 H 0.60677 0.69087 0.65591
 H979 H 0.63899 0.80065 0.56215
 H980 H 0.67191 0.80056 0.60044
 H981 H 0.59895 0.78045 0.53815
 H982 H 0.55998 0.70779 0.57110
 H983 H 0.64665 0.71165 0.68038
 H984 H 0.68945 0.78025 0.64376
 C985 C 0.09118 0.75688 0.89018
 C986 C 0.09182 0.74175 0.91482
 C987 C 0.06937 0.74350 0.93307
 C988 C 0.04672 0.76100 0.92728
 C989 C 0.04680 0.77608 0.90234
 C990 C 0.06873 0.77395 0.88374
 C991 C 0.11424 0.75448 0.87049
 C992 C 0.11301 0.76892 0.84545
 C993 C 0.13462 0.76616 0.82656
 C994 C 0.15765 0.74959 0.83275
 C995 C 0.15888 0.73559 0.85814
 C996 C 0.13694 0.73765 0.87698
 C997 C 0.06848 0.78843 0.85867
 C998 C 0.09019 0.78585 0.83978
 C999 C 0.11478 0.72493 0.92051
 C1000 C 0.13704 0.72309 0.90202
 H1001 H 0.05123 0.80168 0.85350
 H1002 H 0.08910 0.79718 0.82056
 H1003 H 0.11559 0.71316 0.93946
 H1004 H 0.15436 0.70997 0.90728
 H1005 H 0.06915 0.73054 0.95126
 H1006 H 0.02981 0.78980 0.89747
 H1007 H 0.13376 0.77728 0.80718
 H1008 H 0.17657 0.72275 0.86292
 C1009 C 0.59948 0.25539 0.39161
 C1010 C 0.59043 0.23129 0.40483
 C1011 C 0.56648 0.23223 0.42104
 C1012 C 0.55178 0.25702 0.42391
 C1013 C 0.56111 0.28099 0.41068
 C1014 C 0.58505 0.28032 0.39450
 C1015 C 0.62411 0.25434 0.37384
 C1016 C 0.63272 0.27831 0.36010
 C1017 C 0.65529 0.27691 0.34216
 C1018 C 0.66905 0.25183 0.33796
 C1019 C 0.66080 0.22813 0.35232
 C1020 C 0.63813 0.22924 0.37030
 C1021 C 0.59465 0.30397 0.38087
 C1022 C 0.61815 0.30299 0.36401
 C1023 C 0.60526 0.20670 0.40120
 C1024 C 0.62870 0.20569 0.38421
 H1025 H 0.58378 0.32333 0.38305
 H1026 H 0.62479 0.32164 0.35372
 H1027 H 0.59851 0.18800 0.41134
 H1028 H 0.63932 0.18623 0.38169
 H1029 H 0.55903 0.21377 0.43115
 H1030 H 0.54958 0.29999 0.41288
 H1031 H 0.66182 0.29508 0.33096
 H1032 H 0.67139 0.20879 0.34874
 C1033 C 0.90859 0.76219 0.11817
 C1034 C 0.90962 0.74454 0.09534
 C1035 C 0.93245 0.74578 0.07754
 C1036 C 0.95366 0.76540 0.08168
 C1037 C 0.95216 0.78270 0.10506
 C1038 C 0.92985 0.78112 0.12332
 C1039 C 0.88499 0.76059 0.13730
 C1040 C 0.88455 0.77762 0.16066
 C1041 C 0.86248 0.77556 0.17914
 C1042 C 0.84065 0.75710 0.17411
 C1043 C 0.84100 0.74058 0.15031
 C1044 C 0.86345 0.74192 0.13201
 C1045 C 0.92845 0.79811 0.14670
 C1046 C 0.90625 0.79628 0.16514
 C1047 C 0.88784 0.72591 0.09086
 C1048 C 0.86505 0.72479 0.10874
 H1049 H 0.94475 0.81280 0.15089
 H1050 H 0.90606 0.80959 0.18304
 H1051 H 0.88834 0.71218 0.07329
 H1052 H 0.84866 0.71021 0.10445
 H1053 H 0.93397 0.73102 0.06088
 H1054 H 0.96815 0.79789 0.10878
 H1055 H 0.86210 0.78852 0.19733
 H1056 H 0.82425 0.72625 0.14651
 C1057 C 0.40117 0.25596 0.60676
 C1058 C 0.40356 0.23617 0.58582
 C1059 C 0.42701 0.23642 0.56882
 C1060 C 0.44742 0.25683 0.57217
 C1061 C 0.44442 0.27674 0.59299
 C1062 C 0.42150 0.27623 0.61055
 C1063 C 0.37729 0.25501 0.62556
 C1064 C 0.37572 0.27395 0.64734
 C1065 C 0.35370 0.27221 0.66589
 C1066 C 0.33307 0.25213 0.66244
 C1067 C 0.33436 0.23380 0.64006
 C1068 C 0.35682 0.23484 0.62177
 C1069 C 0.41881 0.29525 0.63215
 C1070 C 0.39637 0.29403 0.65036
 C1071 C 0.38267 0.21632 0.58262
 C1072 C 0.35959 0.21581 0.60015
 H1073 H 0.43439 0.31096 0.63527
 H1074 H 0.39526 0.30883 0.66701
 H1075 H 0.38422 0.20101 0.56648
 H1076 H 0.34401 0.20011 0.59702
 H1077 H 0.42959 0.22066 0.55323
 H1078 H 0.46027 0.29225 0.59581
 H1079 H 0.35251 0.28649 0.68302
 H1080 H 0.31850 0.21825 0.63754
 C1081 C 0.88509 0.25107 0.90604
 C1082 C 0.88110 0.26973 0.92769
 C1083 C 0.89941 0.26953 0.95001
 C1084 C 0.92162 0.25066 0.95115
 C1085 C 0.92451 0.23131 0.92961
 C1086 C 0.90673 0.23186 0.90674
 C1087 C 0.86596 0.25138 0.88239
 C1088 C 0.87011 0.23293 0.86051
 C1089 C 0.85179 0.23333 0.83809
 C1090 C 0.82905 0.25136 0.83803
 C1091 C 0.82503 0.26951 0.86019
 C1092 C 0.84365 0.26987 0.88229
 C1093 C 0.91004 0.21350 0.88462
 C1094 C 0.89217 0.21417 0.86179
 C1095 C 0.85881 0.28823 0.92665
 C1096 C 0.84028 0.28817 0.90441
 H1097 H 0.92666 0.19857 0.88488
 H1098 H 0.89548 0.19971 0.84514
 H1099 H 0.85553 0.30272 0.94329
 H1100 H 0.82320 0.30258 0.90453
 H1101 H 0.89665 0.28451 0.96635
 H1102 H 0.94020 0.21544 0.93088
 H1103 H 0.85460 0.21904 0.82120
 H1104 H 0.80747 0.28338 0.86010
 C1105 C 0.38729 0.74961 0.40974
 C1106 C 0.38599 0.77025 0.42993
 C1107 C 0.40383 0.76889 0.45264
 C1108 C 0.42253 0.74688 0.45547
 C1109 C 0.42307 0.72594 0.43544
 C1110 C 0.40580 0.72747 0.41223
 C1111 C 0.36864 0.75101 0.38574
 C1112 C 0.37018 0.73058 0.36534
 C1113 C 0.35236 0.73203 0.34258
 C1114 C 0.33268 0.75322 0.34067
 C1115 C 0.33110 0.77333 0.36140
 C1116 C 0.34935 0.77256 0.38385
 C1117 C 0.40657 0.70729 0.39151
 C1118 C 0.38917 0.70891 0.36838
 C1119 C 0.36673 0.79170 0.42711
 C1120 C 0.34859 0.79274 0.40455
 H1121 H 0.42077 0.69014 0.39316
 H1122 H 0.39038 0.69291 0.35290
 H1123 H 0.36550 0.80770 0.44260
 H1124 H 0.33386 0.80948 0.40328
 H1125 H 0.40311 0.78481 0.46828
 H1126 H 0.43697 0.70863 0.43795
 H1127 H 0.35309 0.71625 0.32685
 H1128 H 0.31580 0.78956 0.35989
 C1129 C 0.11477 0.09631 0.24237
 C1130 C 0.09254 0.09624 0.22377
 C1131 C 0.07514 0.07311 0.22256
 C1132 C 0.07922 0.05055 0.24055
 C1133 C 0.10191 0.05120 0.25892
 C1134 C 0.11972 0.07383 0.25981
 C1135 C 0.13355 0.12018 0.24330
 C1136 C 0.15638 0.11966 0.26119
 C1137 C 0.17472 0.14190 0.26133
 C1138 C 0.17007 0.16478 0.24421
 C1139 C 0.14674 0.16541 0.22685
 C1140 C 0.12859 0.14286 0.22600
 C1141 C 0.14249 0.07429 0.27778
 C1142 C 0.16061 0.09677 0.27834
 C1143 C 0.08833 0.11922 0.20663
 C1144 C 0.10593 0.14221 0.20786
 H1145 H 0.14648 0.05700 0.29134
 H1146 H 0.17812 0.09620 0.29227
 H1147 H 0.07124 0.11947 0.19219
 H1148 H 0.10193 0.15949 0.19430
 H1149 H 0.05889 0.07242 0.20718
 H1150 H 0.10545 0.03422 0.27301
 H1151 H 0.19265 0.14146 0.27475
 H1152 H 0.14336 0.18291 0.21339
 C1153 C 0.61004 0.59267 0.75167
 C1154 C 0.58965 0.59172 0.73106
 C1155 C 0.57226 0.56865 0.72942
 C1156 C 0.57454 0.54718 0.74884
 C1157 C 0.59492 0.54866 0.76952
 C1158 C 0.61293 0.57119 0.77084
 C1159 C 0.62911 0.61631 0.75284
 C1160 C 0.65036 0.61651 0.77257
 C1161 C 0.66917 0.63842 0.77285
 C1162 C 0.66637 0.66031 0.75408
 C1163 C 0.64454 0.66025 0.73491
 C1164 C 0.62609 0.63797 0.73386
 C1165 C 0.63406 0.57246 0.79067
 C1166 C 0.65259 0.59465 0.79140
 C1167 C 0.58731 0.61373 0.71238
 C1168 C 0.60508 0.63656 0.71389
 H1169 H 0.63651 0.55598 0.80553
 H1170 H 0.66884 0.59465 0.80678
 H1171 H 0.57162 0.61330 0.69644
 H1172 H 0.60258 0.65307 0.69907
 H1173 H 0.55708 0.56725 0.71305
 H1174 H 0.59696 0.53202 0.78427
 H1175 H 0.68599 0.63853 0.78764
 H1176 H 0.64261 0.67696 0.72022
 C1177 C 0.90305 0.10810 0.76287
 C1178 C 0.90156 0.08245 0.74972
 C1179 C 0.92472 0.06501 0.75017
 C1180 C 0.94920 0.07279 0.76416
 C1181 C 0.94973 0.09849 0.77785
 C1182 C 0.92699 0.11624 0.77700
 C1183 C 0.87940 0.12719 0.76114
 C1184 C 0.88154 0.15332 0.77324
 C1185 C 0.85959 0.17183 0.77057
 C1186 C 0.83534 0.16432 0.75639
 C1187 C 0.83315 0.13777 0.74493
 C1188 C 0.85540 0.11922 0.74690
 C1189 C 0.92800 0.14229 0.78950
 C1190 C 0.90571 0.16059 0.78751
 C1191 C 0.87717 0.07510 0.73574
 C1192 C 0.85443 0.09309 0.73452
 H1193 H 0.94637 0.14878 0.80049
 H1194 H 0.90751 0.18068 0.79701
 H1195 H 0.87570 0.05534 0.72553
 H1196 H 0.83610 0.08663 0.72345
 H1197 H 0.92409 0.04606 0.73843
 H1198 H 0.96794 0.10477 0.78926
 H1199 H 0.86136 0.19214 0.77961
 H1200 H 0.81458 0.13191 0.73390
 C1201 C 0.40865 0.61428 0.25925
 C1202 C 0.40946 0.59141 0.24162
 C1203 C 0.43251 0.57391 0.24241
 C1204 C 0.45401 0.57856 0.26148
 C1205 C 0.45256 0.60136 0.27929
 C1206 C 0.43016 0.61952 0.27798
 C1207 C 0.38513 0.63347 0.25767
 C1208 C 0.38517 0.65712 0.27424
 C1209 C 0.36337 0.67583 0.27193
 C1210 C 0.34120 0.67068 0.25389
 C1211 C 0.34101 0.64656 0.23786
 C1212 C 0.36331 0.62808 0.23929
 C1213 C 0.42911 0.64309 0.29467
 C1214 C 0.40710 0.66173 0.29264
 C1215 C 0.38736 0.58672 0.22339
 C1216 C 0.36455 0.60460 0.22243
 H1217 H 0.44563 0.64738 0.30912
 H1218 H 0.40727 0.67992 0.30553
 H1219 H 0.38768 0.56907 0.20976
 H1220 H 0.34794 0.60022 0.20811
 H1221 H 0.43387 0.55681 0.22814
 H1222 H 0.46917 0.60518 0.29381
 H1223 H 0.36351 0.69437 0.28432
 H1224 H 0.32403 0.64269 0.22380
 C1225 C 0.09255 0.88745 0.74464
 C1226 C 0.06811 0.88037 0.73080
 C1227 C 0.04535 0.89808 0.73217
 C1228 C 0.04656 0.92281 0.74746
 C1229 C 0.07148 0.92949 0.76123
 C1230 C 0.09453 0.91199 0.75973
 C1231 C 0.11626 0.86838 0.74397
 C1232 C 0.14063 0.87516 0.75818
 C1233 C 0.16281 0.85650 0.75812
 C1234 C 0.16035 0.83101 0.74449
 C1235 C 0.13586 0.82478 0.73009
 C1236 C 0.11381 0.84339 0.72968
 C1237 C 0.11931 0.91820 0.77354
 C1238 C 0.14200 0.90015 0.77270
 C1239 C 0.06671 0.85546 0.71620
 C1240 C 0.08915 0.83723 0.71572
 H1241 H 0.12114 0.93708 0.78525
 H1242 H 0.16063 0.90564 0.78381
 H1243 H 0.04795 0.84981 0.70538
 H1244 H 0.08708 0.81803 0.70456
 H1245 H 0.02671 0.89265 0.72103
 H1246 H 0.07259 0.94764 0.77415
 H1247 H 0.18150 0.86131 0.76947
 H1248 H 0.13387 0.80528 0.71941
 C1249 C 0.59577 0.38866 0.25552
 C1250 C 0.59341 0.40934 0.23541
 C1251 C 0.57042 0.42695 0.23594
 C1252 C 0.55077 0.42482 0.25723
 C1253 C 0.55369 0.40411 0.27732
 C1254 C 0.57586 0.38570 0.27632
 C1255 C 0.61927 0.36943 0.25452
 C1256 C 0.62068 0.34784 0.27372
 C1257 C 0.64249 0.32906 0.27215
 C1258 C 0.66322 0.33226 0.25217
 C1259 C 0.66200 0.35432 0.23344
 C1260 C 0.63963 0.37273 0.23417
 C1261 C 0.57830 0.36416 0.29547
 C1262 C 0.60017 0.34534 0.29399
 C1263 C 0.61400 0.41185 0.21518
 C1264 C 0.63688 0.39404 0.21475
 H1265 H 0.56295 0.36159 0.31150
 H1266 H 0.60103 0.32868 0.30881
 H1267 H 0.61249 0.42778 0.19962
 H1268 H 0.65235 0.39674 0.19887
 H1269 H 0.56780 0.44232 0.21994
 H1270 H 0.53840 0.40215 0.29351
 H1271 H 0.64352 0.31205 0.28658
 H1272 H 0.67790 0.35655 0.21788
 C1273 C 0.89051 0.90784 0.24548
 C1274 C 0.88697 0.92699 0.22408
 C1275 C 0.90535 0.94912 0.22187
 C1276 C 0.92672 0.95257 0.24125
 C1277 C 0.92981 0.93337 0.26281
 C1278 C 0.91201 0.91064 0.26474
 C1279 C 0.87095 0.88474 0.24812
 C1280 C 0.87462 0.86531 0.26929
 C1281 C 0.85584 0.84339 0.27169
 C1282 C 0.83312 0.84164 0.25368
 C1283 C 0.82968 0.86135 0.23273
 C1284 C 0.84872 0.88276 0.22961
 C1285 C 0.91499 0.89088 0.28570
 C1286 C 0.89676 0.86846 0.28780
 C1287 C 0.86483 0.92394 0.20561
 C1288 C 0.84590 0.90228 0.20844
 H1289 H 0.93155 0.89275 0.30062
 H1290 H 0.89980 0.85368 0.30425
 H1291 H 0.86189 0.93863 0.18905
 H1292 H 0.82890 0.90083 0.19397
 H1293 H 0.90273 0.96405 0.20546
 H1294 H 0.94582 0.93635 0.27816
 H1295 H 0.85843 0.82818 0.28784
 H1296 H 0.81236 0.85973 0.21860
 C1297 C 0.38633 0.40280 0.74100
 C1298 C 0.38227 0.42393 0.72165
 C1299 C 0.40043 0.44634 0.72134
 C1300 C 0.42214 0.44805 0.74058
 C1301 C 0.42585 0.42677 0.75998
 C1302 C 0.40820 0.40385 0.76001
 C1303 C 0.36689 0.37947 0.74180
 C1304 C 0.37097 0.35820 0.76104
 C1305 C 0.35213 0.33622 0.76191
 C1306 C 0.32898 0.33611 0.74435
 C1307 C 0.32524 0.35756 0.72522
 C1308 C 0.34428 0.37916 0.72365
 C1309 C 0.41166 0.38220 0.77893
 C1310 C 0.39348 0.35965 0.77929
 C1311 C 0.35979 0.42252 0.70338
 C1312 C 0.34101 0.40057 0.70446
 H1313 H 0.42852 0.38271 0.79363
 H1314 H 0.39685 0.34343 0.79425
 H1315 H 0.35645 0.43872 0.68838
 H1316 H 0.32372 0.40044 0.69026
 H1317 H 0.39740 0.46281 0.70654
 H1318 H 0.44219 0.42831 0.77520
 H1319 H 0.35495 0.31972 0.77669
 H1320 H 0.30758 0.35728 0.71144
 C1321 C 0.10656 0.24138 0.89869
 C1322 C 0.08500 0.26064 0.90002
 C1323 C 0.06826 0.26152 0.92361
 C1324 C 0.07234 0.24265 0.94545
 C1325 C 0.09415 0.22341 0.94343
 C1326 C 0.11134 0.22280 0.92031
 C1327 C 0.12507 0.24122 0.87459
 C1328 C 0.14749 0.22289 0.87405
 C1329 C 0.16592 0.22383 0.85190
 C1330 C 0.16180 0.24258 0.83021
 C1331 C 0.13873 0.26019 0.83046
 C1332 C 0.12050 0.25992 0.85296
 C1333 C 0.13352 0.20425 0.91864
 C1334 C 0.15140 0.20439 0.89596
 C1335 C 0.08098 0.27897 0.87794
 C1336 C 0.09830 0.27848 0.85472
 H1337 H 0.13737 0.18980 0.93523
 H1338 H 0.16857 0.19008 0.89567
 H1339 H 0.06438 0.29390 0.87865
 H1340 H 0.09457 0.29307 0.83823
 H1341 H 0.05273 0.27750 0.92538
 H1342 H 0.09768 0.20874 0.95992
 H1343 H 0.18365 0.21018 0.85160
 H1344 H 0.13575 0.27482 0.81384
 C1345 C 0.60863 0.74151 0.40502
 C1346 C 0.61114 0.72044 0.42469
 C1347 C 0.59342 0.72028 0.44748
 C1348 C 0.57379 0.74135 0.45108
 C1349 C 0.57175 0.76252 0.43132
 C1350 C 0.58883 0.76242 0.40796
 C1351 C 0.62773 0.74217 0.38138
 C1352 C 0.62529 0.76324 0.36166
 C1353 C 0.64405 0.76419 0.33962
 C1354 C 0.66562 0.74489 0.33803
 C1355 C 0.66773 0.72386 0.35784
 C1356 C 0.64862 0.72219 0.37941
 C1357 C 0.58691 0.78308 0.38775
 C1358 C 0.60468 0.78335 0.36488
 C1359 C 0.63176 0.70034 0.42154
 C1360 C 0.65031 0.70131 0.39938
 H1361 H 0.57165 0.79926 0.38970
 H1362 H 0.60261 0.79974 0.34987
 H1363 H 0.63389 0.68401 0.43661
 H1364 H 0.66625 0.68572 0.39798
 H1365 H 0.59531 0.70418 0.46286
 H1366 H 0.55717 0.77917 0.43439
 H1367 H 0.64269 0.78055 0.32448
 H1368 H 0.68437 0.70897 0.35649
 C1369 C 0.90098 0.75294 0.89692
 C1370 C 0.90186 0.77384 0.91686
 C1371 C 0.92534 0.77630 0.93379
 C1372 C 0.94755 0.75755 0.93131
 C1373 C 0.94594 0.73666 0.91114
 C1374 C 0.92293 0.73436 0.89390
 C1375 C 0.87702 0.75095 0.87824
 C1376 C 0.87691 0.73081 0.85750
 C1377 C 0.85486 0.72986 0.83890
 C1378 C 0.83282 0.74853 0.84115
 C1379 C 0.83266 0.76808 0.86254
 C1380 C 0.85506 0.76967 0.88096
 C1381 C 0.92172 0.71406 0.87335
 C1382 C 0.89913 0.71240 0.85535
 C1383 C 0.87947 0.79215 0.91905
 C1384 C 0.85640 0.79000 0.90152
 H1385 H 0.93857 0.69960 0.87088
 H1386 H 0.89918 0.69674 0.83947
 H1387 H 0.87983 0.80837 0.93436
 H1388 H 0.83967 0.80464 0.90381
 H1389 H 0.92676 0.79336 0.94812
 H1390 H 0.96271 0.72203 0.90892
 H1391 H 0.85493 0.71478 0.82243
 H1392 H 0.81582 0.78269 0.86402
 C1393 C 0.40471 0.25619 0.38577
 C1394 C 0.40739 0.27849 0.40400
 C1395 C 0.43057 0.27980 0.42143
 C1396 C 0.45038 0.25856 0.42115
 C1397 C 0.44722 0.23635 0.40285
 C1398 C 0.42458 0.23515 0.38495
 C1399 C 0.38092 0.25505 0.36680
 C1400 C 0.37900 0.23335 0.34780
 C1401 C 0.35702 0.23292 0.32906
 C1402 C 0.33677 0.25361 0.32965
 C1403 C 0.33846 0.27489 0.34922
 C1404 C 0.36086 0.27595 0.36765
 C1405 C 0.42163 0.21351 0.36603
 C1406 C 0.39930 0.21271 0.34763
 C1407 C 0.38695 0.29904 0.40422
 C1408 C 0.36399 0.29771 0.38647
 H1409 H 0.43688 0.19721 0.36521
 H1410 H 0.39795 0.19584 0.33310
 H1411 H 0.38871 0.31632 0.41822
 H1412 H 0.34875 0.31402 0.38727
 H1413 H 0.43328 0.29720 0.43515
 H1414 H 0.46264 0.22016 0.40242
 H1415 H 0.35566 0.21659 0.31389
 H1416 H 0.32304 0.29105 0.34930
 C1417 C 0.10174 0.76087 0.10921
 C1418 C 0.09770 0.78474 0.09334
 C1419 C 0.07351 0.78727 0.07746
 C1420 C 0.05393 0.76583 0.07708
 C1421 C 0.05847 0.74201 0.09291
 C1422 C 0.08221 0.73949 0.10918
 C1423 C 0.12649 0.75850 0.12681
 C1424 C 0.12969 0.73521 0.14369
 C1425 C 0.15231 0.73377 0.16161
 C1426 C 0.17184 0.75513 0.16239
 C1427 C 0.16901 0.77794 0.14474
 C1428 C 0.14600 0.77993 0.12712
 C1429 C 0.08655 0.71621 0.12580
 C1430 C 0.10983 0.71417 0.14289
 C1431 C 0.11776 0.80566 0.09401
 C1432 C 0.14155 0.80325 0.11051
 H1433 H 0.07160 0.69961 0.12591
 H1434 H 0.11217 0.69610 0.15577
 H1435 H 0.11496 0.82414 0.08181
 H1436 H 0.15636 0.81996 0.11060
 H1437 H 0.06978 0.80578 0.06555
 H1438 H 0.04323 0.72565 0.09279
 H1439 H 0.15449 0.71633 0.17541
 H1440 H 0.18386 0.79462 0.14579
 C1441 C 0.59494 0.24842 0.60878
 C1442 C 0.59322 0.26985 0.58942
 C1443 C 0.56988 0.27159 0.57229
 C1444 C 0.54892 0.25153 0.57387
 C1445 C 0.55113 0.23009 0.59326
 C1446 C 0.57394 0.22859 0.61096
 C1447 C 0.61885 0.24706 0.62758
 C1448 C 0.61978 0.22644 0.64784
 C1449 C 0.64181 0.22603 0.66654
 C1450 C 0.66307 0.24564 0.66467
 C1451 C 0.66241 0.26569 0.64376
 C1452 C 0.63998 0.26679 0.62538
 C1453 C 0.57597 0.20788 0.63106
 C1454 C 0.59843 0.20693 0.64933
 C1455 C 0.61475 0.28921 0.58780
 C1456 C 0.63782 0.28759 0.60534
 H1457 H 0.55988 0.19250 0.63294
 H1458 H 0.59901 0.19087 0.66483
 H1459 H 0.61372 0.30578 0.57288
 H1460 H 0.65390 0.30298 0.60347
 H1461 H 0.56792 0.28847 0.55780
 H1462 H 0.53487 0.21482 0.59471
 H1463 H 0.64240 0.21061 0.68270
 H1464 H 0.67865 0.28102 0.64262
 C1465 C 0.89050 0.24756 0.09683
 C1466 C 0.88907 0.22645 0.07714
 C1467 C 0.90687 0.22719 0.05447
 C1468 C 0.92550 0.24915 0.05099
 C1469 C 0.92655 0.27032 0.07076
 C1470 C 0.90936 0.26937 0.09404
 C1471 C 0.87135 0.24719 0.12041
 C1472 C 0.87283 0.26817 0.14026
 C1473 C 0.85423 0.26788 0.16244
 C1474 C 0.83375 0.24741 0.16407
 C1475 C 0.83251 0.22662 0.14402
 C1476 C 0.85149 0.22618 0.12230
 C1477 C 0.91025 0.28998 0.11433
 C1478 C 0.89245 0.28926 0.13717
 C1479 C 0.86942 0.20539 0.08014
 C1480 C 0.85082 0.20536 0.10226
 H1481 H 0.92477 0.30685 0.11249
 H1482 H 0.89377 0.30560 0.15230
 H1483 H 0.86813 0.18904 0.06503
 H1484 H 0.83570 0.18899 0.10362
 H1485 H 0.90578 0.21109 0.03903
 H1486 H 0.94043 0.28757 0.06776
 H1487 H 0.85499 0.28402 0.17785
 H1488 H 0.81684 0.21078 0.14549
 C1489 C 0.39078 0.74116 0.60269
 C1490 C 0.38952 0.71982 0.58323
 C1491 C 0.40711 0.72057 0.56036
 C1492 C 0.42552 0.74266 0.55661
 C1493 C 0.42650 0.76398 0.57624
 C1494 C 0.40935 0.76316 0.59955
 C1495 C 0.37165 0.74090 0.62631
 C1496 C 0.37268 0.76234 0.64573
 C1497 C 0.35375 0.76242 0.66767
 C1498 C 0.33349 0.74176 0.66951
 C1499 C 0.33295 0.72031 0.65012
 C1500 C 0.35214 0.71963 0.62858
 C1501 C 0.40995 0.78411 0.61951
 C1502 C 0.39205 0.78362 0.64229
 C1503 C 0.37026 0.69847 0.58668
 C1504 C 0.35181 0.69844 0.60893
 H1505 H 0.42424 0.80113 0.61741
 H1506 H 0.39305 0.80029 0.65707
 H1507 H 0.36915 0.68188 0.57181
 H1508 H 0.33700 0.68182 0.61063
 H1509 H 0.40611 0.70433 0.54508
 H1510 H 0.44027 0.78129 0.57307
 H1511 H 0.35395 0.77906 0.68253
 H1512 H 0.31743 0.70433 0.65176
 C1513 C 0.25686 0.10933 0.89955
 C1514 C 0.23987 0.08593 0.90019
 C1515 C 0.24078 0.06844 0.92331
 C1516 C 0.25902 0.07391 0.94548
 C1517 C 0.27620 0.09741 0.94389
 C1518 C 0.27502 0.11520 0.92128
 C1519 C 0.25515 0.12846 0.87598
 C1520 C 0.27138 0.15241 0.87606
 C1521 C 0.26900 0.17104 0.85422
 C1522 C 0.25098 0.16570 0.83211
 C1523 C 0.23529 0.14129 0.83188
 C1524 C 0.23700 0.12272 0.85409
 C1525 C 0.29137 0.13905 0.92029
 C1526 C 0.28947 0.15743 0.89811
 C1527 C 0.22193 0.08085 0.87793
 C1528 C 0.22065 0.09883 0.85521
 H1529 H 0.30548 0.14375 0.93699
 H1530 H 0.30217 0.17579 0.89830
 H1531 H 0.20870 0.06287 0.87810
 H1532 H 0.20649 0.09416 0.83854
 H1533 H 0.22646 0.05134 0.92451
 H1534 H 0.29070 0.10188 0.96036
 H1535 H 0.28128 0.18972 0.85433
 H1536 H 0.22124 0.13725 0.81494
 C1537 C 0.75706 0.61257 0.40874
 C1538 C 0.73715 0.59158 0.41020
 C1539 C 0.73731 0.57360 0.43289
 C1540 C 0.75779 0.57600 0.45343
 C1541 C 0.77775 0.59697 0.45137
 C1542 C 0.77729 0.61551 0.42928
 C1543 C 0.75644 0.63215 0.38551
 C1544 C 0.77560 0.65385 0.38480
 C1545 C 0.77439 0.67294 0.36320
 C1546 C 0.75474 0.66998 0.34207
 C1547 C 0.73605 0.64782 0.34264
 C1548 C 0.73650 0.62904 0.36467
 C1549 C 0.79643 0.63716 0.42756
 C1550 C 0.79548 0.65613 0.40578
 C1551 C 0.71739 0.58922 0.38906
 C1552 C 0.71721 0.60750 0.36658
 H1553 H 0.81208 0.63965 0.44334
 H1554 H 0.81042 0.67273 0.40537
 H1555 H 0.70196 0.57309 0.38988
 H1556 H 0.70164 0.60493 0.35072
 H1557 H 0.72152 0.55789 0.43472
 H1558 H 0.79337 0.59906 0.46728
 H1559 H 0.78884 0.68999 0.36265
 H1560 H 0.72072 0.64576 0.32647
 C1561 C 0.74217 0.09577 0.11159
 C1562 C 0.72149 0.07581 0.11508
 C1563 C 0.72069 0.05316 0.09729
 C1564 C 0.74078 0.04994 0.07660
 C1565 C 0.76164 0.06995 0.07361
 C1566 C 0.76213 0.09321 0.09078
 C1567 C 0.74330 0.11946 0.13052
 C1568 C 0.76375 0.13966 0.12690
 C1569 C 0.76483 0.16204 0.14518
 C1570 C 0.74631 0.16354 0.16742
 C1571 C 0.72606 0.14309 0.17083
 C1572 C 0.72420 0.12118 0.15220
 C1573 C 0.78234 0.11377 0.08784
 C1574 C 0.78299 0.13672 0.10545
 C1575 C 0.70236 0.07860 0.13661
 C1576 C 0.70382 0.10081 0.15500
 H1577 H 0.79780 0.11210 0.07181
 H1578 H 0.79892 0.15208 0.10248
 H1579 H 0.68636 0.06328 0.13952
 H1580 H 0.68891 0.10201 0.17159
 H1581 H 0.70478 0.03765 0.09984
 H1582 H 0.77754 0.06722 0.05815
 H1583 H 0.78056 0.17768 0.14275
 H1584 H 0.71173 0.14437 0.18794
 C1585 C 0.24277 0.59451 0.60864
 C1586 C 0.22340 0.57330 0.61219
 C1587 C 0.22341 0.55104 0.59389
 C1588 C 0.24311 0.54937 0.57263
 C1589 C 0.26272 0.57063 0.56962
 C1590 C 0.26227 0.59355 0.58727
 C1591 C 0.24298 0.61786 0.62806
 C1592 C 0.26202 0.63937 0.62434
 C1593 C 0.26224 0.66142 0.64309
 C1594 C 0.24436 0.66130 0.66594
 C1595 C 0.22548 0.63956 0.66935
 C1596 C 0.22443 0.61797 0.65027
 C1597 C 0.28106 0.61541 0.58423
 C1598 C 0.28074 0.63805 0.60226
 C1599 C 0.20472 0.57451 0.63428
 C1600 C 0.20538 0.59636 0.65313
 H1601 H 0.29612 0.61503 0.56774
 H1602 H 0.29552 0.65447 0.59911
 H1603 H 0.18973 0.55822 0.63724
 H1604 H 0.19088 0.59632 0.67012
 H1605 H 0.20842 0.53465 0.59647
 H1606 H 0.27837 0.56915 0.55374
 H1607 H 0.27685 0.67809 0.64049
 H1608 H 0.21154 0.63956 0.68682
 C1609 C 0.74288 0.90131 0.89205
 C1610 C 0.76227 0.90298 0.91355
 C1611 C 0.76252 0.92641 0.93050
 C1612 C 0.74297 0.94755 0.92653
 C1613 C 0.72348 0.94527 0.90510
 C1614 C 0.72354 0.92239 0.88760
 C1615 C 0.74321 0.87734 0.87344
 C1616 C 0.72471 0.87643 0.85114
 C1617 C 0.72591 0.85427 0.83278
 C1618 C 0.74494 0.83281 0.83698
 C1619 C 0.76281 0.83350 0.85985
 C1620 C 0.76238 0.85607 0.87794
 C1621 C 0.70493 0.92041 0.86546
 C1622 C 0.70564 0.89790 0.84741
 C1623 C 0.78115 0.88132 0.91741
 C1624 C 0.78107 0.85817 0.90003
 H1625 H 0.68995 0.93658 0.86183
 H1626 H 0.69120 0.89734 0.83034
 H1627 H 0.79615 0.88229 0.93397
 H1628 H 0.79603 0.84198 0.90369
 H1629 H 0.77793 0.92835 0.94662
 H1630 H 0.70854 0.96159 0.90185
 H1631 H 0.71208 0.85364 0.81519
 H1632 H 0.77766 0.81709 0.86289
 C1633 C 0.24586 0.40425 0.38471
 C1634 C 0.22602 0.42503 0.38113
 C1635 C 0.22579 0.44746 0.39921
 C1636 C 0.24560 0.44963 0.42037
 C1637 C 0.26566 0.42881 0.42345
 C1638 C 0.26557 0.40579 0.40592
 C1639 C 0.24633 0.38074 0.36550
 C1640 C 0.26595 0.35974 0.36918
 C1641 C 0.26644 0.33756 0.35060
 C1642 C 0.24817 0.33703 0.32802
 C1643 C 0.22874 0.35827 0.32461
 C1644 C 0.22747 0.38001 0.34349
 C1645 C 0.28495 0.38443 0.40892
 C1646 C 0.28499 0.36169 0.39100
 C1647 C 0.20710 0.42323 0.35924
 C1648 C 0.20794 0.40118 0.34061
 H1649 H 0.30021 0.38529 0.42524
 H1650 H 0.30031 0.34570 0.39402
 H1651 H 0.19174 0.43918 0.35626
 H1652 H 0.19322 0.40076 0.32378
 H1653 H 0.21048 0.46356 0.39660
 H1654 H 0.28134 0.43070 0.43931
 H1655 H 0.28158 0.32131 0.35305
 H1656 H 0.21460 0.35778 0.30725
 C1657 C 0.25696 0.89214 0.09604
 C1658 C 0.27686 0.88866 0.07530
 C1659 C 0.27610 0.90571 0.05207
 C1660 C 0.25538 0.92581 0.04917
 C1661 C 0.23540 0.92895 0.07003
 C1662 C 0.23630 0.91232 0.09373
 C1663 C 0.25740 0.87384 0.12030
 C1664 C 0.23751 0.87717 0.14110
 C1665 C 0.23767 0.85916 0.16381
 C1666 C 0.25700 0.83755 0.16509
 C1667 C 0.27684 0.83467 0.14417
 C1668 C 0.27731 0.85288 0.12185
 C1669 C 0.21681 0.91514 0.11500
 C1670 C 0.21750 0.89796 0.13834
 C1671 C 0.29684 0.86788 0.07796
 C1672 C 0.29697 0.85018 0.10078
 H1673 H 0.20082 0.93066 0.11353
 H1674 H 0.20199 0.90073 0.15417
 H1675 H 0.31227 0.86502 0.06206
 H1676 H 0.31247 0.83413 0.10185
 H1677 H 0.29136 0.90313 0.03594
 H1678 H 0.21915 0.94412 0.06762
 H1679 H 0.22215 0.86114 0.17977
 H1680 H 0.29176 0.81804 0.14522
 C1681 C 0.75607 0.38527 0.59472
 C1682 C 0.77510 0.38065 0.57344
 C1683 C 0.77624 0.39915 0.55132
 C1684 C 0.75793 0.42166 0.54988
 C1685 C 0.73850 0.42560 0.57112
 C1686 C 0.73795 0.40783 0.59394
 C1687 C 0.75478 0.36584 0.61805
 C1688 C 0.73626 0.37080 0.63973
 C1689 C 0.73517 0.35222 0.66189
 C1690 C 0.75158 0.32832 0.66177
 C1691 C 0.76989 0.32358 0.63978
 C1692 C 0.77189 0.34250 0.61806
 C1693 C 0.71955 0.41201 0.61590
 C1694 C 0.71896 0.39399 0.63855
 C1695 C 0.79232 0.35740 0.57449
 C1696 C 0.79057 0.33851 0.59631
 H1697 H 0.70557 0.42942 0.61565
 H1698 H 0.70461 0.39809 0.65511
 H1699 H 0.80703 0.35359 0.55813
 H1700 H 0.80398 0.32065 0.59617
 H1701 H 0.79106 0.39583 0.53493
 H1702 H 0.72382 0.44240 0.56978
 H1703 H 0.72108 0.35590 0.67876
 H1704 H 0.78276 0.30532 0.63978
 C1705 C 0.09412 0.10737 0.74516
 C1706 C 0.06978 0.11438 0.73109
 C1707 C 0.04694 0.09685 0.73262
 C1708 C 0.04791 0.07236 0.74834
 C1709 C 0.07278 0.06558 0.76216
 C1710 C 0.09594 0.08297 0.76053
 C1711 C 0.11786 0.12638 0.74440
 C1712 C 0.14217 0.11973 0.75882
 C1713 C 0.16439 0.13842 0.75866
 C1714 C 0.16192 0.16376 0.74473
 C1715 C 0.13752 0.16980 0.73013
 C1716 C 0.11550 0.15122 0.72981
 C1717 C 0.12067 0.07684 0.77451
 C1718 C 0.14341 0.09486 0.77360
 C1719 C 0.06850 0.13911 0.71616
 C1720 C 0.09096 0.15728 0.71560
 H1721 H 0.12239 0.05807 0.78645
 H1722 H 0.16197 0.08944 0.78487
 H1723 H 0.04982 0.14469 0.70517
 H1724 H 0.08900 0.17635 0.70418
 H1725 H 0.02835 0.10224 0.72135
 H1726 H 0.07373 0.04748 0.77521
 H1727 H 0.18308 0.13375 0.77007
 H1728 H 0.13559 0.18915 0.71913
 C1729 C 0.60198 0.60998 0.25389
 C1730 C 0.58149 0.61225 0.23349
 C1731 C 0.55848 0.59484 0.23454
 C1732 C 0.55553 0.57570 0.25609
 C1733 C 0.57614 0.57379 0.27654
 C1734 C 0.59966 0.59067 0.27531
 C1735 C 0.62586 0.62879 0.25327
 C1736 C 0.64637 0.62668 0.27370
 C1737 C 0.66864 0.64524 0.27342
 C1738 C 0.66972 0.66623 0.25349
 C1739 C 0.64913 0.66794 0.23311
 C1740 C 0.62728 0.64910 0.23271
 C1741 C 0.62065 0.58903 0.29530
 C1742 C 0.64370 0.60661 0.29441
 C1743 C 0.58407 0.63231 0.21281
 C1744 C 0.60651 0.65055 0.21253
 H1745 H 0.61917 0.57416 0.31188
 H1746 H 0.65932 0.60479 0.31033
 H1747 H 0.56838 0.63425 0.19699
 H1748 H 0.60749 0.66607 0.19652
 H1749 H 0.54248 0.59655 0.21896
 H1750 H 0.57360 0.55947 0.29349
 H1751 H 0.68436 0.64419 0.28931
 H1752 H 0.65005 0.68414 0.21775
 C1753 C 0.11243 0.90469 0.24412
 C1754 C 0.09440 0.90755 0.22159
 C1755 C 0.07724 0.93082 0.22006
 C1756 C 0.07761 0.95057 0.24129
 C1757 C 0.09552 0.94711 0.26387
 C1758 C 0.11319 0.92439 0.26527
 C1759 C 0.13141 0.88101 0.24528
 C1760 C 0.15038 0.87902 0.26712
 C1761 C 0.16925 0.85724 0.26748
 C1762 C 0.16880 0.83724 0.24661
 C1763 C 0.14922 0.83892 0.22524
 C1764 C 0.13069 0.86116 0.22422
 C1765 C 0.13199 0.92131 0.28711
 C1766 C 0.15041 0.89908 0.28793
 C1767 C 0.09423 0.88728 0.20092
 C1768 C 0.11193 0.86439 0.20231
 H1769 H 0.13274 0.93643 0.30349
 H1770 H 0.16490 0.89765 0.30491
 H1771 H 0.08036 0.88919 0.18348
 H1772 H 0.11122 0.84930 0.18589
 H1773 H 0.06385 0.93378 0.20238
 H1774 H 0.09602 0.96250 0.28005
 H1775 H 0.18437 0.85581 0.28393
 H1776 H 0.14918 0.82360 0.20900
 C1777 C 0.60700 0.39945 0.73959
 C1778 C 0.61157 0.42075 0.72054
 C1779 C 0.59431 0.44388 0.72085
 C1780 C 0.57296 0.44610 0.74036
 C1781 C 0.56880 0.42467 0.75951
 C1782 C 0.58555 0.40107 0.75895
 C1783 C 0.62556 0.37536 0.73975
 C1784 C 0.62113 0.35402 0.75882
 C1785 C 0.63942 0.33153 0.75935
 C1786 C 0.66241 0.33100 0.74165
 C1787 C 0.66634 0.35242 0.72258
 C1788 C 0.64786 0.37453 0.72134
 C1789 C 0.58163 0.37926 0.77760
 C1790 C 0.59899 0.35606 0.77742
 C1791 C 0.63365 0.41876 0.70193
 C1792 C 0.65159 0.39610 0.70244
 H1793 H 0.56508 0.38020 0.79258
 H1794 H 0.59534 0.33980 0.79226
 H1795 H 0.63738 0.43505 0.68714
 H1796 H 0.66864 0.39556 0.68808
 H1797 H 0.59772 0.46044 0.70625
 H1798 H 0.55275 0.42657 0.77495
 H1799 H 0.63654 0.31514 0.77425
 H1800 H 0.68394 0.35190 0.70888
 C1801 C 0.89256 0.09918 0.24001
 C1802 C 0.89011 0.07973 0.21876
 C1803 C 0.90805 0.05714 0.21834
 C1804 C 0.92785 0.05357 0.23930
 C1805 C 0.92976 0.07300 0.26072
 C1806 C 0.91247 0.09618 0.26089
 C1807 C 0.87338 0.12270 0.24084
 C1808 C 0.87587 0.14228 0.26200
 C1809 C 0.85717 0.16433 0.26298
 C1810 C 0.83563 0.16606 0.24361
 C1811 C 0.83339 0.14635 0.22255
 C1812 C 0.85246 0.12477 0.22084
 C1813 C 0.91436 0.11619 0.28170
 C1814 C 0.89652 0.13899 0.28211
 C1815 C 0.86941 0.08292 0.19870
 C1816 C 0.85076 0.10498 0.19984
 H1817 H 0.92971 0.11418 0.29784
 H1818 H 0.89861 0.15390 0.29857
 H1819 H 0.86733 0.06800 0.18224
 H1820 H 0.83478 0.10647 0.18423
 H1821 H 0.90628 0.04194 0.20207
 H1822 H 0.94449 0.06988 0.27728
 H1823 H 0.85861 0.17946 0.27933
 H1824 H 0.81677 0.14787 0.20760
 C1825 C 0.38680 0.59412 0.74591
 C1826 C 0.38557 0.57533 0.72399
 C1827 C 0.40390 0.55307 0.72359
 C1828 C 0.42288 0.54904 0.74522
 C1829 C 0.42365 0.56786 0.76728
 C1830 C 0.40594 0.59077 0.76747
 C1831 C 0.36720 0.61733 0.74665
 C1832 C 0.36855 0.63635 0.76841
 C1833 C 0.34962 0.65826 0.76911
 C1834 C 0.32897 0.66041 0.74880
 C1835 C 0.32781 0.64114 0.72724
 C1836 C 0.34713 0.61975 0.72584
 C1837 C 0.40663 0.61019 0.78892
 C1838 C 0.38842 0.63272 0.78925
 C1839 C 0.36565 0.57883 0.70320
 C1840 C 0.34662 0.60057 0.70421
 H1841 H 0.42134 0.60793 0.80561
 H1842 H 0.38963 0.64719 0.80619
 H1843 H 0.36450 0.56441 0.68622
 H1844 H 0.33132 0.60233 0.68798
 H1845 H 0.40302 0.53839 0.70678
 H1846 H 0.43773 0.56443 0.78433
 H1847 H 0.35032 0.67306 0.78581
 H1848 H 0.31196 0.64299 0.71152
 C1849 C 0.90110 0.88885 0.76622
 C1850 C 0.90086 0.91209 0.74900
 C1851 C 0.92411 0.92932 0.74833
 C1852 C 0.94721 0.92369 0.76510
 C1853 C 0.94675 0.90073 0.78282
 C1854 C 0.92388 0.88305 0.78323
 C1855 C 0.87752 0.86965 0.76565
 C1856 C 0.87851 0.84562 0.78172
 C1857 C 0.85683 0.82663 0.77988
 C1858 C 0.83413 0.83171 0.76244
 C1859 C 0.83291 0.85633 0.74720
 C1860 C 0.85486 0.87522 0.74839
 C1861 C 0.92368 0.85925 0.79967
 C1862 C 0.90143 0.84077 0.79883
 C1863 C 0.87769 0.91717 0.73227
 C1864 C 0.85501 0.89914 0.73209
 H1865 H 0.94112 0.85458 0.81289
 H1866 H 0.90231 0.82237 0.81144
 H1867 H 0.87721 0.93510 0.71898
 H1868 H 0.83768 0.90369 0.71869
 H1869 H 0.92462 0.94666 0.73425
 H1870 H 0.96456 0.89623 0.79562
 H1871 H 0.85767 0.80779 0.79186
 H1872 H 0.81552 0.86019 0.73365
 C1873 C 0.40305 0.39402 0.26049
 C1874 C 0.40511 0.41601 0.24180
 C1875 C 0.42857 0.43297 0.24257
 C1876 C 0.44946 0.42837 0.26228
 C1877 C 0.44670 0.40664 0.28127
 C1878 C 0.42370 0.38920 0.28028
 C1879 C 0.37934 0.37508 0.25868
 C1880 C 0.37818 0.35221 0.27634
 C1881 C 0.35653 0.33336 0.27345
 C1882 C 0.33591 0.33752 0.25342
 C1883 C 0.33669 0.36104 0.23653
 C1884 C 0.35874 0.37970 0.23875
 C1885 C 0.42133 0.36659 0.29817
 C1886 C 0.39901 0.34830 0.29614
 C1887 C 0.38398 0.42015 0.22233
 C1888 C 0.36110 0.40242 0.22096
 H1889 H 0.43713 0.36270 0.31352
 H1890 H 0.39820 0.33081 0.30999
 H1891 H 0.38526 0.43712 0.20789
 H1892 H 0.34539 0.40621 0.20549
 H1893 H 0.43092 0.44933 0.22755
 H1894 H 0.46289 0.40293 0.29629
 H1895 H 0.35574 0.31532 0.28662
 H1896 H 0.32087 0.36409 0.22099
   
