data_POSCAR
  _audit_creation_date              2014-09-24
  _audit_creation_method            'ToBaCCo'
  _symmetry_space_group_name_H-M    'P1'
  _symmetry_Int_Tables_number       1
  _symmetry_cell_setting            triclinic
  loop_
  _symmetry_equiv_pos_as_xyz
 x,y,z
_cell_length_a 41.7126
_cell_length_b 41.8304
_cell_length_c 42.5524
_cell_angle_alpha 89.930500
_cell_angle_beta 90.097500
_cell_angle_gamma 89.551500
loop_
  _atom_site_label
  _atom_site_type_symbol
  _atom_site_fract_x
  _atom_site_fract_y
  _atom_site_fract_z
C1 C 0.25731 1.06472 -0.00236
 C2 C 0.25753 1.04844 0.02653
 C3 C 0.25634 1.01487 0.02587
 C4 C 0.25895 0.99747 -0.00261
 C5 C 0.25981 1.01508 -0.03113
 C6 C 0.25735 1.04873 -0.03143
 C7 C 0.26075 0.96122 -0.00225
 C8 C 0.25734 0.94282 -0.03014
 C9 C 0.25956 0.90930 -0.02942
 C10 C 0.26203 0.89383 -0.00044
 C11 C 0.26652 0.91091 0.02725
 C12 C 0.26655 0.94432 0.02622
 H13 H 0.25699 1.09059 -0.00218
 H14 H 0.25415 1.00242 0.04772
 H15 H 0.26157 1.00278 -0.05313
 H16 H 0.25330 0.95381 -0.05272
 H17 H 0.26035 0.86805 0.00063
 H18 H 0.27188 0.95635 0.04796
 C19 C 0.74720 0.58551 0.50783
 C20 C 0.74715 0.56847 0.53640
 C21 C 0.74434 0.53504 0.53566
 C22 C 0.73871 0.51883 0.50725
 C23 C 0.73729 0.53669 0.47926
 C24 C 0.74307 0.56957 0.47909
 C25 C 0.73434 0.48346 0.50651
 C26 C 0.74173 0.46606 0.47906
 C27 C 0.73645 0.43314 0.47741
 C28 C 0.72562 0.41704 0.50412
 C29 C 0.71928 0.43347 0.53209
 C30 C 0.72302 0.46669 0.53301
 H31 H 0.75037 0.61119 0.50792
 H32 H 0.74712 0.52172 0.55726
 H33 H 0.73111 0.52526 0.45733
 H34 H 0.75253 0.47778 0.45911
 H35 H 0.72302 0.39131 0.50335
 H36 H 0.71692 0.47913 0.55448
 C37 C 0.77025 0.99316 1.08963
 C38 C 0.76863 0.96670 1.06949
 C39 C 0.76596 0.97242 1.03731
 C40 C 0.75995 1.00325 1.02492
 C41 C 0.76031 1.02954 1.04599
 C42 C 0.76701 1.02500 1.07847
 C43 C 0.75384 1.00645 0.99001
 C44 C 0.75877 1.03512 0.97286
 C45 C 0.75569 1.03560 0.93960
 C46 C 0.75024 1.00653 0.92383
 C47 C 0.74566 0.97807 0.94036
 C48 C 0.74454 0.97904 0.97302
 H49 H 0.77135 0.98838 1.11454
 H50 H 0.76986 0.95235 1.02186
 H51 H 0.75601 1.05345 1.03717
 H52 H 0.76579 1.05658 0.98505
 H53 H 0.74978 1.00582 0.89840
 H54 H 0.73695 0.95760 0.98495
 C55 C 0.25158 0.48785 0.58117
 C56 C 0.25815 0.45939 0.56516
 C57 C 0.25964 0.45998 0.53221
 C58 C 0.25222 0.48813 0.51486
 C59 C 0.24512 0.51640 0.53205
 C60 C 0.24507 0.51635 0.56508
 C61 C 0.25105 0.48745 0.47928
 C62 C 0.25090 0.51598 0.46108
 C63 C 0.24797 0.51498 0.42813
 C64 C 0.24820 0.48519 0.41310
 C65 C 0.24853 0.45660 0.43012
 C66 C 0.24894 0.45791 0.46303
 H67 H 0.25128 0.48783 0.60662
 H68 H 0.26720 0.43834 0.52056
 H69 H 0.23859 0.53841 0.52035
 H70 H 0.25244 0.53916 0.47205
 H71 H 0.24828 0.48417 0.38767
 H72 H 0.24649 0.43564 0.47552
 C73 C 1.06589 0.24842 -0.00034
 C74 C 1.05125 0.24416 0.02921
 C75 C 1.01742 0.24350 0.03011
 C76 C 0.99875 0.24957 0.00294
 C77 C 1.01451 0.25489 -0.02583
 C78 C 1.04790 0.25340 -0.02774
 C79 C 0.96291 0.25060 0.00464
 C80 C 0.94398 0.24352 -0.02203
 C81 C 0.91029 0.24406 -0.02058
 C82 C 0.89570 0.25168 0.00819
 C83 C 0.91387 0.25940 0.03467
 C84 C 0.94730 0.25887 0.03290
 H85 H 1.09177 0.24796 -0.00238
 H86 H 1.00534 0.23763 0.05165
 H87 H 1.00110 0.26099 -0.04678
 H88 H 0.95527 0.23630 -0.04378
 H89 H 0.86991 0.25294 0.01014
 H90 H 0.96081 0.26575 0.05349
 C91 C 0.58707 0.76616 0.49849
 C92 C 0.57162 0.76886 0.52745
 C93 C 0.53808 0.76799 0.52860
 C94 C 0.51968 0.76382 0.50089
 C95 C 0.53638 0.76008 0.47206
 C96 C 0.56964 0.76332 0.47067
 C97 C 0.48362 0.76621 0.50155
 C98 C 0.46621 0.77189 0.47346
 C99 C 0.43296 0.77554 0.47368
 C100 C 0.41660 0.77478 0.50214
 C101 C 0.43295 0.77065 0.53050
 C102 C 0.46612 0.76487 0.53014
 H103 H 0.61301 0.76681 0.49741
 H104 H 0.52694 0.77205 0.55111
 H105 H 0.52411 0.75599 0.45015
 H106 H 0.47786 0.77460 0.45105
 H107 H 0.39069 0.77691 0.50226
 H108 H 0.47775 0.76011 0.55234
 C109 C -0.00203 0.75968 -0.08014
 C110 C 0.02743 0.75262 -0.06549
 C111 C 0.02792 0.74818 -0.03264
 C112 C 0.00009 0.75304 -0.01429
 C113 C -0.02886 0.76098 -0.02990
 C114 C -0.03077 0.76276 -0.06294
 C115 C 0.00102 0.75015 0.02108
 C116 C -0.02715 0.74319 0.03814
 C117 C -0.02786 0.74362 0.07135
 C118 C 0.00162 0.74732 0.08723
 C119 C 0.03052 0.75223 0.07102
 C120 C 0.02969 0.75494 0.03807
 H121 H -0.00253 0.76217 -0.10546
 H122 H 0.04986 0.74035 -0.02147
 H123 H -0.04969 0.76704 -0.01616
 H124 H -0.04836 0.73715 0.02517
 H125 H 0.00232 0.74626 0.11264
 H126 H 0.05130 0.76154 0.02582
 C127 C 0.48823 0.24059 0.41884
 C128 C 0.51705 0.23272 0.43408
 C129 C 0.51803 0.23277 0.46715
 C130 C 0.49054 0.24102 0.48515
 C131 C 0.46196 0.24906 0.46863
 C132 C 0.46043 0.24793 0.43572
 C133 C 0.49123 0.24092 0.52076
 C134 C 0.46219 0.23978 0.53806
 C135 C 0.46194 0.24126 0.57101
 C136 C 0.49125 0.24139 0.58701
 C137 C 0.52054 0.23997 0.57104
 C138 C 0.52051 0.24130 0.53798
 H139 H 0.48730 0.24096 0.39342
 H140 H 0.54017 0.22560 0.47838
 H141 H 0.44073 0.25706 0.48085
 H142 H 0.43955 0.23672 0.52627
 H143 H 0.49138 0.24249 0.61244
 H144 H 0.54339 0.24198 0.52619
 C145 C 1.08511 0.00004 0.22974
 C146 C 1.06951 0.02877 0.22066
 C147 C 1.03620 0.02735 0.21391
 C148 C 1.01836 -0.00066 0.21989
 C149 C 1.03461 -0.02727 0.23236
 C150 C 1.06787 -0.02809 0.23480
 C151 C 0.98284 -0.00261 0.21426
 C152 C 0.96762 -0.03278 0.21186
 C153 C 0.93407 -0.03539 0.21354
 C154 C 0.91582 -0.00716 0.21148
 C155 C 0.93015 0.02286 0.21070
 C156 C 0.96347 0.02515 0.21364
 H157 H 1.11085 -0.00073 0.23308
 H158 H 1.02416 0.04763 0.20359
 H159 H 1.02161 -0.04786 0.24053
 H160 H 0.98192 -0.05424 0.21064
 H161 H 0.88989 -0.00829 0.21179
 H162 H 0.97378 0.04863 0.21612
 C163 C 0.58853 0.50936 0.73982
 C164 C 0.56934 0.53706 0.74128
 C165 C 0.53576 0.53384 0.74176
 C166 C 0.52143 0.50344 0.73920
 C167 C 0.54176 0.47626 0.73640
 C168 C 0.57506 0.47879 0.73902
 C169 C 0.48571 0.49943 0.74167
 C170 C 0.47330 0.46978 0.75142
 C171 C 0.44044 0.46463 0.75307
 C172 C 0.41913 0.48976 0.74701
 C173 C 0.43030 0.51992 0.73794
 C174 C 0.46366 0.52462 0.73506
 H175 H 0.61435 0.51164 0.73947
 H176 H 0.52106 0.55486 0.74539
 H177 H 0.53203 0.45265 0.73328
 H178 H 0.48880 0.45035 0.75872
 H179 H 0.39364 0.48568 0.74948
 H180 H 0.47201 0.54767 0.72717
 C181 C 1.00849 1.08755 0.71653
 C182 C 0.98014 1.07393 0.70463
 C183 C 0.98144 1.04151 0.69605
 C184 C 1.00716 1.02153 0.70535
 C185 C 1.03505 1.03571 0.71734
 C186 C 1.03642 1.06903 0.72161
 C187 C 1.00231 0.98611 0.70613
 C188 C 1.02776 0.96356 0.70407
 C189 C 1.02165 0.93023 0.70533
 C190 C 0.98964 0.92028 0.70920
 C191 C 0.96469 0.94238 0.71165
 C192 C 0.97102 0.97476 0.71075
 H193 H 1.00901 1.11289 0.72170
 H194 H 0.96149 1.03066 0.68427
 H195 H 1.05506 1.02088 0.72464
 H196 H 1.05205 0.97180 0.70075
 H197 H 0.98362 0.89536 0.71206
 H198 H 0.95115 0.99096 0.71506
 C199 C 0.49728 0.58100 0.26380
 C200 C 0.47028 0.56417 0.27360
 C201 C 0.47315 0.53177 0.28074
 C202 C 0.50203 0.51490 0.27556
 C203 C 0.52943 0.53245 0.26626
 C204 C 0.52725 0.56570 0.26069
 C205 C 0.50235 0.47915 0.27908
 C206 C 0.53066 0.46207 0.28687
 C207 C 0.52982 0.42881 0.29157
 C208 C 0.50070 0.41273 0.28885
 C209 C 0.47232 0.42894 0.28144
 C210 C 0.47353 0.46173 0.27517
 H211 H 0.49488 0.60642 0.25937
 H212 H 0.45215 0.51965 0.28940
 H213 H 0.55212 0.52044 0.26232
 H214 H 0.55318 0.47435 0.28988
 H215 H 0.50038 0.38695 0.29128
 H216 H 0.45167 0.47340 0.26751
 O217 O 0.27027 0.16804 0.18466
 O218 O 0.30821 0.16526 0.23013
 O219 O 0.18216 0.19372 0.22665
 O220 O 0.16393 0.23241 0.25923
 O221 O 0.21766 0.24613 0.14727
 O222 O 0.25641 0.28715 0.14075
 O223 O 0.25011 0.29257 0.31240
 O224 O 0.21842 0.24514 0.31865
 O225 O 0.33835 0.26037 0.27628
 O226 O 0.35310 0.22472 0.23635
 O227 O 0.29064 0.33706 0.23549
 O228 O 0.24571 0.34101 0.19611
 O229 O 0.24436 0.33023 0.27419
 O230 O 0.21057 0.33677 0.22819
 O231 O 0.33344 0.30307 0.23819
 O232 O 0.34958 0.26667 0.19906
 O233 O 0.29966 0.25572 0.31352
 O234 O 0.26076 0.21326 0.32148
 O235 O 0.26799 0.20804 0.14850
 O236 O 0.29612 0.25868 0.14102
 O237 O 0.17742 0.23973 0.18263
 O238 O 0.16293 0.27405 0.22706
 O239 O 0.22617 0.16116 0.22756
 O240 O 0.26769 0.15779 0.26433
 Zr241 Zr 0.26513 0.19249 0.22809
 O242 O 0.28952 0.22300 0.25930
 Zr243 Zr 0.20128 0.24056 0.22667
 O244 O 0.22340 0.27322 0.25775
 Zr245 Zr 0.25948 0.24981 0.17419
 O246 O 0.28397 0.28244 0.20265
 Zr247 Zr 0.25701 0.24960 0.28681
 O248 O 0.23227 0.21620 0.25800
 Zr249 Zr 0.31423 0.25743 0.23343
 O250 O 0.29316 0.22467 0.20183
 Zr251 Zr 0.25093 0.30600 0.23177
 O252 O 0.22573 0.27572 0.20066
 O253 O 0.23311 0.21576 0.19826
 O254 O 0.28312 0.28338 0.26212
 C255 C 0.27117 0.17854 0.15621
 C256 C 0.19568 0.16587 0.22720
 C257 C 0.18802 0.24248 0.15435
 C258 C 0.24499 0.32148 0.30307
 C259 C 0.32898 0.25987 0.30495
 C260 C 0.32077 0.33106 0.23876
 H261 H 0.30464 0.21024 0.27222
 H262 H 0.29632 0.29738 0.18942
 H263 H 0.22186 0.20079 0.18412
 H264 H 0.20673 0.28404 0.27045
 H265 H 0.20526 0.22706 0.31117
 H266 H 0.16793 0.24619 0.27768
 H267 H 0.34802 0.24954 0.18318
 H268 H 0.31322 0.24254 0.14448
 H269 H 0.27924 0.19938 0.31613
 H270 H 0.25215 0.16442 0.28068
 H271 H 0.26518 0.34035 0.18288
 H272 H 0.23927 0.30184 0.14805
 H273 H 0.30375 0.14326 0.22268
 H274 H 0.34911 0.20796 0.22047
 H275 H 0.16789 0.29047 0.21105
 H276 H 0.19410 0.32878 0.24287
 O277 O 0.75147 0.82868 0.20394
 O278 O 0.70381 0.83492 0.23685
 O279 O 0.82714 0.80244 0.26118
 O280 O 0.83600 0.76685 0.30093
 O281 O 0.80652 0.74344 0.18168
 O282 O 0.76480 0.70635 0.16955
 O283 O 0.73644 0.71813 0.34000
 O284 O 0.76966 0.76160 0.34915
 O285 O 0.66011 0.74649 0.28579
 O286 O 0.65864 0.78031 0.23321
 O287 O 0.71056 0.66562 0.26173
 O288 O 0.76114 0.65449 0.23420
 O289 O 0.74673 0.67492 0.30926
 O290 O 0.79141 0.66313 0.27018
 O291 O 0.67047 0.69994 0.24778
 O292 O 0.66075 0.73693 0.20939
 O293 O 0.69263 0.75661 0.32755
 O294 O 0.73266 0.79768 0.33876
 O295 O 0.76296 0.78803 0.17013
 O296 O 0.72795 0.74086 0.16064
 O297 O 0.83782 0.75161 0.22473
 O298 O 0.84100 0.72177 0.27325
 O299 O 0.78504 0.83656 0.25274
 O300 O 0.73604 0.84472 0.27973
 Zr301 Zr 0.74523 0.80712 0.24754
 O302 O 0.71306 0.78103 0.27491
 Zr303 Zr 0.80560 0.75668 0.26240
 O304 O 0.77595 0.72838 0.29110
 Zr305 Zr 0.75925 0.74636 0.19935
 O306 O 0.72779 0.71686 0.22544
 Zr307 Zr 0.73910 0.75690 0.30974
 O308 O 0.77105 0.78584 0.28461
 Zr309 Zr 0.69238 0.74502 0.24735
 O310 O 0.72172 0.77407 0.21841
 Zr311 Zr 0.75195 0.69451 0.26332
 O312 O 0.78438 0.72077 0.23470
 O313 O 0.78170 0.78035 0.22665
 O314 O 0.71577 0.72153 0.28412
 C315 C 0.75991 0.81805 0.17700
 C316 C 0.81495 0.83062 0.25727
 C317 C 0.83399 0.74618 0.19523
 C318 C 0.74014 0.68806 0.33593
 C319 C 0.66507 0.75196 0.31515
 C320 C 0.68110 0.67197 0.25496
 H321 H 0.69672 0.79577 0.28362
 H322 H 0.71797 0.70105 0.21118
 H323 H 0.79713 0.79307 0.21437
 H324 H 0.78879 0.71827 0.30800
 H325 H 0.78659 0.77689 0.34314
 H326 H 0.82847 0.75416 0.31907
 H327 H 0.67403 0.72902 0.19178
 H328 H 0.71183 0.75831 0.16203
 H329 H 0.71451 0.81048 0.33042
 H330 H 0.74984 0.84093 0.29833
 H331 H 0.74721 0.65646 0.21547
 H332 H 0.77735 0.69036 0.18166
 H333 H 0.71052 0.85678 0.23077
 H334 H 0.65327 0.79343 0.25183
 H335 H 0.83753 0.70358 0.25882
 H336 H 0.80232 0.66949 0.28984
 O337 O 0.76171 0.16325 0.77819
 O338 O 0.72740 0.15568 0.73252
 O339 O 0.83922 0.21813 0.74164
 O340 O 0.84395 0.26653 0.71480
 O341 O 0.79250 0.24440 0.82671
 O342 O 0.74377 0.27287 0.83866
 O343 O 0.74258 0.30366 0.66982
 O344 O 0.78804 0.26518 0.65591
 O345 O 0.66967 0.24504 0.69830
 O346 O 0.66192 0.20691 0.73615
 O347 O 0.69814 0.32725 0.75247
 O348 O 0.73955 0.33850 0.78894
 O349 O 0.74050 0.33753 0.71155
 O350 O 0.77692 0.34344 0.75929
 O351 O 0.66380 0.28679 0.74163
 O352 O 0.66014 0.23553 0.77724
 O353 O 0.70804 0.25654 0.66223
 O354 O 0.75817 0.22753 0.65003
 O355 O 0.75368 0.19586 0.82021
 O356 O 0.71223 0.23450 0.83179
 O357 O 0.83221 0.25455 0.79152
 O358 O 0.83613 0.29799 0.75270
 O359 O 0.80744 0.17463 0.73487
 O360 O 0.76551 0.16648 0.69691
 Zr361 Zr 0.76013 0.19381 0.73851
 O362 O 0.72678 0.22114 0.71212
 Zr363 Zr 0.80779 0.25655 0.74802
 O364 O 0.77763 0.28599 0.72061
 Zr365 Zr 0.75039 0.24181 0.80001
 O366 O 0.71802 0.27196 0.77590
 Zr367 Zr 0.75082 0.25818 0.68895
 O368 O 0.78465 0.22928 0.71323
 Zr369 Zr 0.69400 0.24532 0.74150
 O370 O 0.72441 0.21407 0.76773
 Zr371 Zr 0.74354 0.30661 0.75056
 O372 O 0.77550 0.27948 0.77852
 O373 O 0.78480 0.21996 0.77188
 O374 O 0.71730 0.28132 0.71712
 C375 C 0.75827 0.16817 0.80790
 C376 C 0.83511 0.18824 0.73661
 C377 C 0.82193 0.24944 0.81956
 C378 C 0.73936 0.33152 0.68200
 C379 C 0.67889 0.25066 0.67006
 C380 C 0.67010 0.31650 0.74686
 H381 H 0.71554 0.20680 0.69737
 H382 H 0.70292 0.28180 0.79099
 H383 H 0.79994 0.20629 0.78388
 H384 H 0.79051 0.30231 0.70968
 H385 H 0.79829 0.28589 0.66056
 H386 H 0.83690 0.25672 0.69482
 H387 H 0.65657 0.25535 0.78943
 H388 H 0.69794 0.21857 0.82198
 H389 H 0.74329 0.20937 0.65220
 H390 H 0.78046 0.17818 0.68309
 H391 H 0.72636 0.32796 0.80516
 H392 H 0.75712 0.29189 0.83459
 H393 H 0.73901 0.13511 0.73565
 H394 H 0.67495 0.18723 0.73881
 H395 H 0.82796 0.30977 0.77123
 H396 H 0.79073 0.34556 0.74053
 O397 O 0.23807 0.82628 0.78469
 O398 O 0.28228 0.83194 0.74681
 O399 O 0.16178 0.79161 0.72820
 O400 O 0.15140 0.74993 0.69693
 O401 O 0.18878 0.74335 0.81563
 O402 O 0.23086 0.70565 0.82738
 O403 O 0.25284 0.70246 0.65685
 O404 O 0.21640 0.74526 0.64579
 O405 O 0.33004 0.74259 0.70534
 O406 O 0.33145 0.78043 0.75359
 O407 O 0.28702 0.66155 0.73782
 O408 O 0.23731 0.65159 0.77111
 O409 O 0.24491 0.66342 0.69318
 O410 O 0.20747 0.65185 0.73428
 O411 O 0.32495 0.69930 0.74621
 O412 O 0.33246 0.74148 0.78229
 O413 O 0.29589 0.74596 0.66368
 O414 O 0.25342 0.78179 0.64910
 O415 O 0.23652 0.78624 0.82095
 O416 O 0.26687 0.73939 0.83317
 O417 O 0.15511 0.74557 0.77360
 O418 O 0.15171 0.70967 0.72845
 O419 O 0.20018 0.82919 0.73613
 O420 O 0.24598 0.83693 0.70616
 Zr421 Zr 0.24202 0.80165 0.74169
 O422 O 0.27462 0.77445 0.71487
 Zr423 Zr 0.18529 0.74699 0.73390
 O424 O 0.21562 0.71732 0.70679
 Zr425 Zr 0.23477 0.74367 0.79488
 O426 O 0.26758 0.71420 0.77056
 Zr427 Zr 0.24979 0.74503 0.68327
 O428 O 0.21709 0.77510 0.70747
 Zr429 Zr 0.29934 0.74254 0.74455
 O430 O 0.26904 0.77205 0.77206
 Zr431 Zr 0.24312 0.68748 0.73647
 O432 O 0.20961 0.71436 0.76338
 O433 O 0.20866 0.77504 0.76670
 O434 O 0.27655 0.71386 0.71130
 C435 C 0.23763 0.81588 0.81308
 C436 C 0.17127 0.82083 0.73004
 C437 C 0.16057 0.74380 0.80334
 C438 C 0.24929 0.67304 0.66485
 C439 C 0.32405 0.74475 0.67583
 C440 C 0.31625 0.67024 0.74226
 H441 H 0.28942 0.78909 0.70402
 H442 H 0.27914 0.70031 0.78566
 H443 H 0.19373 0.78885 0.77874
 H444 H 0.20247 0.70501 0.69180
 H445 H 0.19964 0.76123 0.65117
 H446 H 0.16053 0.73835 0.67874
 H447 H 0.32398 0.72679 0.79843
 H448 H 0.28550 0.75298 0.82812
 H449 H 0.26796 0.79836 0.65733
 H450 H 0.23333 0.82942 0.68794
 H451 H 0.25514 0.65338 0.78635
 H452 H 0.21738 0.68925 0.81722
 H453 H 0.27461 0.85382 0.75200
 H454 H 0.33352 0.79317 0.73411
 H455 H 0.15595 0.69399 0.74544
 H456 H 0.19120 0.65911 0.71887
 O457 O 0.26206 0.33721 0.72653
 O458 O 0.21867 0.34653 0.76729
 O459 O 0.33677 0.29327 0.77552
 O460 O 0.34425 0.25043 0.80634
 O461 O 0.29944 0.25054 0.68971
 O462 O 0.25162 0.21968 0.67937
 O463 O 0.24228 0.21186 0.85034
 O464 O 0.28379 0.24816 0.86053
 O465 O 0.16718 0.26286 0.81100
 O466 O 0.16437 0.30032 0.76241
 O467 O 0.19996 0.17686 0.76786
 O468 O 0.24632 0.16313 0.73489
 O469 O 0.24240 0.17282 0.81327
 O470 O 0.27903 0.16024 0.76913
 O471 O 0.16512 0.21888 0.76860
 O472 O 0.15711 0.26099 0.73457
 O473 O 0.20504 0.25991 0.84941
 O474 O 0.24863 0.29117 0.85969
 O475 O 0.25886 0.30012 0.68773
 O476 O 0.21995 0.25912 0.67717
 O477 O 0.33541 0.24766 0.72982
 O478 O 0.33885 0.21106 0.77312
 O479 O 0.29942 0.33295 0.77968
 O480 O 0.25510 0.35201 0.79865
 Zr481 Zr 0.25590 0.31184 0.76858
 O482 O 0.22353 0.28747 0.79728
 Zr483 Zr 0.30839 0.25179 0.77109
 O484 O 0.27762 0.22405 0.79907
 Zr485 Zr 0.25500 0.25661 0.71305
 O486 O 0.22148 0.22963 0.73916
 Zr487 Zr 0.24816 0.25442 0.82554
 O488 O 0.28111 0.28213 0.80031
 Zr489 Zr 0.19398 0.25948 0.76870
 O490 O 0.22442 0.28682 0.73919
 Zr491 Zr 0.24556 0.19852 0.77040
 O492 O 0.27920 0.22334 0.74204
 O493 O 0.28570 0.28364 0.74073
 O494 O 0.21658 0.22715 0.79892
 C495 C 0.26192 0.32909 0.69744
 C496 C 0.32836 0.32255 0.78026
 C497 C 0.32807 0.24688 0.70053
 C498 C 0.24117 0.18245 0.84197
 C499 C 0.17604 0.26329 0.84001
 C500 C 0.17146 0.18885 0.76776
 H501 H 0.21144 0.30328 0.80992
 H502 H 0.20761 0.21780 0.72443
 H503 H 0.30167 0.29609 0.72874
 H504 H 0.29039 0.20974 0.81282
 H505 H 0.30132 0.26309 0.85542
 H506 H 0.33594 0.23761 0.82404
 H507 H 0.16624 0.25220 0.71496
 H508 H 0.20458 0.27612 0.68339
 H509 H 0.26577 0.30614 0.85354
 H510 H 0.24930 0.34407 0.81976
 H511 H 0.23098 0.16979 0.71834
 H512 H 0.26530 0.20188 0.68709
 H513 H 0.20724 0.34394 0.74705
 H514 H 0.16585 0.31339 0.78171
 H515 H 0.33082 0.19568 0.75735
 H516 H 0.29441 0.16333 0.78656
 O517 O 0.76031 0.68120 0.70268
 O518 O 0.80183 0.67987 0.74546
 O519 O 0.67548 0.70812 0.75291
 O520 O 0.66179 0.74744 0.78687
 O521 O 0.70245 0.76007 0.66967
 O522 O 0.74259 0.79919 0.65802
 O523 O 0.75019 0.80969 0.82833
 O524 O 0.72034 0.76015 0.83878
 O525 O 0.83626 0.77232 0.78542
 O526 O 0.84523 0.73611 0.73846
 O527 O 0.78592 0.84994 0.74796
 O528 O 0.73742 0.85296 0.71102
 O529 O 0.74243 0.84577 0.78907
 O530 O 0.70589 0.85154 0.74668
 O531 O 0.82815 0.81519 0.74680
 O532 O 0.84254 0.77390 0.70906
 O533 O 0.80147 0.77159 0.82637
 O534 O 0.76560 0.73277 0.84115
 O535 O 0.75428 0.72040 0.66594
 O536 O 0.78045 0.76771 0.65458
 O537 O 0.66643 0.75295 0.70913
 O538 O 0.65672 0.78795 0.75347
 O539 O 0.71905 0.67513 0.75017
 O540 O 0.76332 0.67070 0.78165
 Zr541 Zr 0.75803 0.70603 0.74628
 O542 O 0.78534 0.73700 0.77465
 Zr543 Zr 0.69500 0.75457 0.75004
 O544 O 0.72021 0.78829 0.77740
 Zr545 Zr 0.74731 0.76220 0.69167
 O546 O 0.77530 0.79496 0.71650
 Zr547 Zr 0.75621 0.76542 0.80412
 O548 O 0.72889 0.73093 0.77886
 Zr549 Zr 0.80788 0.76998 0.74515
 O550 O 0.78308 0.73734 0.71670
 Zr551 Zr 0.74553 0.81968 0.74780
 O552 O 0.71671 0.78889 0.72070
 O553 O 0.72336 0.72874 0.71891
 O554 O 0.78033 0.79771 0.77586
 C555 C 0.75948 0.69133 0.67403
 C556 C 0.68880 0.68024 0.75298
 C557 C 0.67381 0.75682 0.68008
 C558 C 0.74430 0.83824 0.81812
 C559 C 0.82999 0.77339 0.81484
 C560 C 0.81606 0.84334 0.74827
 H561 H 0.80105 0.72429 0.78692
 H562 H 0.78620 0.80953 0.70176
 H563 H 0.71081 0.71360 0.70604
 H564 H 0.70474 0.79972 0.79100
 H565 H 0.70839 0.74046 0.83359
 H566 H 0.66774 0.76194 0.80423
 H567 H 0.83496 0.79025 0.69392
 H568 H 0.80096 0.75841 0.66212
 H569 H 0.77475 0.71322 0.83161
 H570 H 0.74988 0.67759 0.79960
 H571 H 0.75702 0.85398 0.69801
 H572 H 0.72602 0.81413 0.66604
 H573 H 0.79751 0.65784 0.73803
 H574 H 0.84606 0.72214 0.75723
 H575 H 0.66008 0.80419 0.73688
 H576 H 0.68987 0.84349 0.76180
 O577 O 0.24858 0.66721 0.30449
 O578 O 0.20843 0.66103 0.26408
 O579 O 0.32911 0.69925 0.24802
 O580 O 0.34299 0.74002 0.21945
 O581 O 0.30379 0.75047 0.33542
 O582 O 0.26144 0.78281 0.35156
 O583 O 0.24622 0.79242 0.17855
 O584 O 0.27575 0.74587 0.16628
 O585 O 0.16406 0.75867 0.22636
 O586 O 0.15566 0.72398 0.26774
 O587 O 0.21545 0.83580 0.26385
 O588 O 0.26491 0.84260 0.29111
 O589 O 0.25123 0.83153 0.21531
 O590 O 0.29563 0.83648 0.25566
 O591 O 0.17326 0.80190 0.26717
 O592 O 0.16510 0.75595 0.30590
 O593 O 0.19704 0.75483 0.18407
 O594 O 0.23543 0.71379 0.17010
 O595 O 0.25864 0.70483 0.34168
 O596 O 0.22390 0.75129 0.35236
 O597 O 0.33835 0.74331 0.29469
 O598 O 0.34226 0.78043 0.24883
 O599 O 0.28991 0.66284 0.25743
 O600 O 0.24317 0.65940 0.22376
 Zr601 Zr 0.24839 0.69205 0.26146
 O602 O 0.21686 0.72213 0.23591
 Zr603 Zr 0.30790 0.74395 0.25505
 O604 O 0.27967 0.77501 0.22757
 Zr605 Zr 0.25801 0.74801 0.31576
 O606 O 0.22859 0.78102 0.29177
 Zr607 Zr 0.24325 0.74985 0.20421
 O608 O 0.27471 0.71800 0.22798
 Zr609 Zr 0.19462 0.75585 0.26543
 O610 O 0.22235 0.72251 0.29182
 Zr611 Zr 0.25527 0.80617 0.25801
 O612 O 0.28558 0.77670 0.28550
 O613 O 0.28298 0.71629 0.28722
 O614 O 0.21953 0.78299 0.23256
 C615 C 0.25338 0.67585 0.33307
 C616 C 0.31898 0.67055 0.25085
 C617 C 0.33204 0.74826 0.32381
 C618 C 0.24915 0.82174 0.18680
 C619 C 0.16913 0.75795 0.19661
 C620 C 0.18554 0.83004 0.26667
 H621 H 0.20048 0.70900 0.22530
 H622 H 0.21853 0.79551 0.30727
 H623 H 0.29745 0.70193 0.29927
 H624 H 0.29366 0.78634 0.21257
 H625 H 0.29144 0.72891 0.17194
 H626 H 0.33286 0.74763 0.19977
 H627 H 0.17094 0.77465 0.31884
 H628 H 0.20716 0.73528 0.34782
 H629 H 0.21961 0.69859 0.17856
 H630 H 0.25862 0.66562 0.20725
 H631 H 0.25142 0.83861 0.30978
 H632 H 0.27333 0.80096 0.34241
 H633 H 0.21621 0.63901 0.26868
 H634 H 0.16486 0.70303 0.27392
 H635 H 0.34053 0.79487 0.26717
 H636 H 0.30630 0.83294 0.23519
 O637 O 0.75149 0.31823 0.31784
 O638 O 0.79024 0.32848 0.27461
 O639 O 0.66811 0.28808 0.27089
 O640 O 0.65527 0.25118 0.23350
 O641 O 0.70618 0.23345 0.34682
 O642 O 0.74949 0.19432 0.34968
 O643 O 0.75017 0.20652 0.17861
 O644 O 0.71197 0.24941 0.17561
 O645 O 0.83215 0.24424 0.22089
 O646 O 0.83859 0.27875 0.27215
 O647 O 0.79424 0.16052 0.25231
 O648 O 0.74840 0.14665 0.28969
 O649 O 0.75110 0.16462 0.21265
 O650 O 0.71502 0.14934 0.25509
 O651 O 0.83292 0.19794 0.25903
 O652 O 0.84525 0.23640 0.29578
 O653 O 0.79309 0.24995 0.18385
 O654 O 0.74851 0.28679 0.17778
 O655 O 0.75317 0.27517 0.35053
 O656 O 0.78572 0.22849 0.35477
 O657 O 0.66742 0.23676 0.30923
 O658 O 0.65805 0.20692 0.26200
 O659 O 0.70758 0.32547 0.27340
 O660 O 0.74900 0.33717 0.24058
 Zr661 Zr 0.74972 0.29816 0.27237
 O662 O 0.77844 0.27405 0.23935
 Zr663 Zr 0.69238 0.24365 0.26674
 O664 O 0.71913 0.21674 0.23373
 Zr665 Zr 0.74919 0.23556 0.32091
 O666 O 0.77895 0.20923 0.29050
 Zr667 Zr 0.74983 0.24694 0.20867
 O668 O 0.72060 0.27442 0.23926
 Zr669 Zr 0.80687 0.24047 0.26343
 O670 O 0.78028 0.26658 0.29696
 Zr671 Zr 0.75039 0.18526 0.25754
 O672 O 0.72029 0.20894 0.29029
 O673 O 0.71982 0.26893 0.29870
 O674 O 0.78015 0.21436 0.23099
 C675 C 0.75354 0.30535 0.34524
 C676 C 0.67808 0.31714 0.27254
 C677 C 0.67670 0.23370 0.33792
 C678 C 0.75124 0.17636 0.18478
 C679 C 0.82256 0.24825 0.19248
 C680 C 0.82364 0.16937 0.25377
 H681 H 0.79167 0.28982 0.22806
 H682 H 0.79243 0.19434 0.30295
 H683 H 0.70655 0.28130 0.31371
 H684 H 0.70459 0.20531 0.21931
 H685 H 0.69588 0.26461 0.18415
 H686 H 0.66082 0.23881 0.21444
 H687 H 0.83805 0.22229 0.31300
 H688 H 0.80322 0.24332 0.34926
 H689 H 0.76492 0.30219 0.18471
 H690 H 0.73580 0.33060 0.22238
 H691 H 0.76787 0.14734 0.30297
 H692 H 0.73342 0.17958 0.34074
 H693 H 0.78364 0.34923 0.28394
 H694 H 0.83997 0.29174 0.25276
 H695 H 0.66603 0.18849 0.27444
 H696 H 0.69836 0.15667 0.24012
 C697 C 0.27169 0.11669 0.07809
 C698 C 0.26496 0.10456 0.10800
 N699 N 0.25623 0.07348 0.11091
 C700 C 0.25381 0.05403 0.08527
 C701 C 0.25982 0.06642 0.05482
 N702 N 0.26876 0.09762 0.05270
 N703 N 0.28047 0.14755 0.07463
 C704 C 0.28216 0.16725 0.09979
 C705 C 0.27424 0.15577 0.12991
 N706 N 0.26612 0.12439 0.13338
 H707 H 0.24615 0.02978 0.08907
 H708 H 0.28881 0.19194 0.09609
 C709 C 0.76621 0.63201 0.59439
 C710 C 0.75152 0.62067 0.62189
 N711 N 0.73665 0.59195 0.62136
 C712 C 0.73556 0.57419 0.59460
 C713 C 0.74984 0.58574 0.56679
 N714 N 0.76491 0.61446 0.56766
 N715 N 0.78038 0.66101 0.59442
 C716 C 0.77994 0.67959 0.62051
 C717 C 0.76442 0.66888 0.64788
 N718 N 0.75084 0.63936 0.64807
 H719 H 0.72263 0.55189 0.59489
 H720 H 0.79090 0.70295 0.61964
 C721 C 0.78031 0.90038 0.12450
 C722 C 0.76326 0.87554 0.11003
 N723 N 0.75053 0.88059 0.08105
 C724 C 0.75347 0.90937 0.06626
 C725 C 0.76871 0.93514 0.08176
 N726 N 0.78194 0.92943 0.11050
 N727 N 0.79380 0.89562 0.15303
 C728 C 0.78996 0.86759 0.16842
 C729 C 0.77066 0.84344 0.15541
 N730 N 0.75810 0.84768 0.12604
 H731 H 0.74194 0.91251 0.04368
 H732 H 0.80035 0.86487 0.19161
 C733 C 0.27181 0.40624 0.63386
 C734 C 0.26112 0.37653 0.62296
 N735 N 0.25198 0.37368 0.59240
 C736 C 0.25246 0.39931 0.57251
 C737 C 0.26216 0.42944 0.58378
 N738 N 0.27192 0.43171 0.61423
 N739 N 0.28034 0.40971 0.66435
 C740 C 0.27815 0.38495 0.68477
 C741 C 0.26656 0.35519 0.67443
 N742 N 0.25868 0.35157 0.64346
 H743 H 0.24387 0.39643 0.54870
 H744 H 0.28503 0.38869 0.70902
 C745 C 0.76350 0.08794 0.86897
 C746 C 0.75766 0.11852 0.88106
 N747 N 0.75281 0.12205 0.91248
 C748 C 0.75318 0.09633 0.93230
 C749 C 0.75848 0.06536 0.92016
 N750 N 0.76369 0.06240 0.88863
 N751 N 0.76790 0.08402 0.83763
 C752 C 0.76655 0.10935 0.81762
 C753 C 0.76036 0.14022 0.82939
 N754 N 0.75620 0.14400 0.86106
 H755 H 0.74827 0.10007 0.95696
 H756 H 0.77012 0.10529 0.79276
 C757 C 0.25621 0.59882 0.39790
 C758 C 0.23880 0.59702 0.36972
 N759 N 0.22329 0.56978 0.36225
 C760 C 0.22499 0.54379 0.38124
 C761 C 0.24378 0.54455 0.40884
 N762 N 0.25851 0.57250 0.41682
 N763 N 0.27117 0.62661 0.40533
 C764 C 0.26983 0.65241 0.38565
 C765 C 0.25330 0.65012 0.35687
 N766 N 0.23806 0.62238 0.34990
 H767 H 0.21180 0.52266 0.37464
 H768 H 0.28234 0.67406 0.39193
 C769 C 0.24250 0.87996 0.88938
 C770 C 0.25833 0.85022 0.88991
 N771 N 0.27575 0.84145 0.91533
 C772 C 0.27743 0.86065 0.94082
 C773 C 0.26007 0.88974 0.94148
 N774 N 0.24346 0.89903 0.91528
 N775 N 0.22602 0.88888 0.86313
 C776 C 0.22447 0.86920 0.83763
 C777 C 0.23941 0.83896 0.83884
 N778 N 0.25608 0.83043 0.86497
 H779 H 0.29218 0.85305 0.96042
 H780 H 0.21110 0.87668 0.81704
 C781 C 0.75360 0.36458 0.42514
 C782 C 0.74813 0.37762 0.39521
 N783 N 0.74063 0.40914 0.39237
 C784 C 0.73792 0.42810 0.41821
 C785 C 0.74261 0.41483 0.44833
 N786 N 0.75060 0.38335 0.45079
 N787 N 0.76046 0.33305 0.42829
 C788 C 0.76158 0.31369 0.40279
 C789 C 0.75529 0.32640 0.37274
 N790 N 0.74903 0.35826 0.36965
 H791 H 0.73090 0.45287 0.41522
 H792 H 0.76681 0.28852 0.40612
 C793 C 0.12397 0.24000 0.07723
 C794 C 0.11206 0.23993 0.10795
 N795 N 0.07983 0.24014 0.11246
 C796 C 0.05900 0.24070 0.08770
 C797 C 0.07091 0.24136 0.05649
 N798 N 0.10336 0.24077 0.05271
 N799 N 0.15599 0.24008 0.07223
 C800 C 0.17686 0.24042 0.09666
 C801 C 0.16525 0.24088 0.12775
 N802 N 0.13290 0.24040 0.13265
 H803 H 0.03373 0.24154 0.09292
 H804 H 0.20230 0.24056 0.09171
 C805 C 0.60417 0.75871 0.60824
 C806 C 0.63250 0.77645 0.60613
 N807 N 0.63880 0.79354 0.57987
 C808 C 0.61853 0.79293 0.55501
 C809 C 0.59102 0.77367 0.55608
 N810 N 0.58410 0.75747 0.58305
 N811 N 0.59806 0.74188 0.63492
 C812 C 0.61934 0.74160 0.65930
 C813 C 0.64833 0.75826 0.65641
 N814 N 0.65388 0.77549 0.62995
 H815 H 0.62428 0.80678 0.53430
 H816 H 0.61424 0.72767 0.68013
 C817 C 0.07957 0.74375 0.86364
 C818 C 0.11047 0.74731 0.87602
 N819 N 0.11410 0.75186 0.90743
 C820 C 0.08826 0.75310 0.92702
 C821 C 0.05701 0.74962 0.91470
 N822 N 0.05384 0.74499 0.88310
 N823 N 0.07564 0.73979 0.83224
 C824 C 0.10124 0.73940 0.81252
 C825 C 0.13244 0.74314 0.82464
 N826 N 0.13622 0.74689 0.85633
 H827 H 0.09227 0.75766 0.95169
 H828 H 0.09718 0.73628 0.78758
 C829 C 0.60130 0.23319 0.40438
 C830 C 0.59739 0.21979 0.37441
 N831 N 0.56852 0.20800 0.36587
 C832 C 0.54297 0.20995 0.38550
 C833 C 0.54598 0.22533 0.41483
 N834 N 0.57548 0.23598 0.42382
 N835 N 0.63051 0.24451 0.41291
 C836 C 0.65576 0.24356 0.39260
 C837 C 0.65140 0.23153 0.36202
 N838 N 0.62224 0.21970 0.35388
 H839 H 0.52032 0.20019 0.37787
 H840 H 0.67858 0.25331 0.39979
 C841 C 0.91808 0.74208 0.13943
 C842 C 0.88776 0.74094 0.12540
 N843 N 0.88554 0.73968 0.09363
 C844 C 0.91218 0.73975 0.07514
 C845 C 0.94313 0.74131 0.08901
 N846 N 0.94465 0.74226 0.12109
 N847 N 0.92055 0.74375 0.17116
 C848 C 0.89396 0.74459 0.18957
 C849 C 0.86328 0.74383 0.17567
 N850 N 0.86102 0.74185 0.14372
 H851 H 0.90847 0.73929 0.05010
 H852 H 0.89685 0.74610 0.21480
 C853 C 0.40703 0.23431 0.63937
 C854 C 0.37801 0.24668 0.62773
 N855 N 0.37629 0.25605 0.59716
 C856 C 0.40233 0.25387 0.57785
 C857 C 0.43168 0.24185 0.58968
 N858 N 0.43285 0.23226 0.62025
 N859 N 0.40939 0.22547 0.66989
 C860 C 0.38410 0.22878 0.68961
 C861 C 0.35492 0.24165 0.67842
 N862 N 0.35248 0.25007 0.64747
 H863 H 0.40026 0.26244 0.55395
 H864 H 0.38690 0.22157 0.71391
 C865 C 0.88515 0.24535 0.89710
 C866 C 0.85272 0.23741 0.89986
 N867 N 0.84064 0.22900 0.92810
 C868 C 0.85918 0.22935 0.95423
 C869 C 0.89153 0.23904 0.95227
 N870 N 0.90385 0.24587 0.92329
 N871 N 0.89693 0.25389 0.86853
 C872 C 0.87753 0.25516 0.84271
 C873 C 0.84481 0.24789 0.84579
 N874 N 0.83350 0.23890 0.87435
 H875 H 0.84855 0.22166 0.97608
 H876 H 0.88742 0.26217 0.82026
 C877 C 0.40231 0.75882 0.39370
 C878 C 0.37421 0.77746 0.39349
 N879 N 0.36781 0.79761 0.41757
 C880 C 0.38771 0.79915 0.44269
 C881 C 0.41478 0.77895 0.44417
 N882 N 0.42188 0.75975 0.41921
 N883 N 0.40834 0.73861 0.36934
 C884 C 0.38705 0.73568 0.34519
 C885 C 0.35814 0.75307 0.34610
 N886 N 0.35279 0.77383 0.37004
 H887 H 0.38180 0.81515 0.46183
 H888 H 0.39192 0.71895 0.32637
 C889 C 0.13838 0.08260 0.22487
 C890 C 0.12441 0.11273 0.22004
 N891 N 0.09238 0.11482 0.21455
 C892 C 0.07365 0.08824 0.21382
 C893 C 0.08752 0.05759 0.21903
 N894 N 0.11979 0.05619 0.22435
 N895 N 0.17029 0.08012 0.23041
 C896 C 0.18901 0.10650 0.23136
 C897 C 0.17525 0.13703 0.22670
 N898 N 0.14305 0.13935 0.22111
 H899 H 0.04830 0.09168 0.21007
 H900 H 0.21441 0.10356 0.23585
 C901 C 0.63318 0.59642 0.75661
 C902 C 0.61927 0.62522 0.74634
 N903 N 0.58855 0.62520 0.73558
 C904 C 0.57127 0.59765 0.73435
 C905 C 0.58546 0.56857 0.74416
 N906 N 0.61608 0.56914 0.75525
 N907 N 0.66397 0.59584 0.76670
 C908 C 0.68185 0.62275 0.76657
 C909 C 0.66843 0.65171 0.75576
 N910 N 0.63717 0.65234 0.74615
 H911 H 0.54722 0.59841 0.72487
 H912 H 0.70649 0.62140 0.77453
 C913 C 0.92197 0.13678 0.72428
 C914 C 0.89321 0.12469 0.71225
 N915 N 0.89385 0.09692 0.69589
 C916 C 0.92169 0.08027 0.69160
 C917 C 0.95085 0.09174 0.70457
 N918 N 0.94970 0.12019 0.72019
 N919 N 0.92169 0.16454 0.74058
 C920 C 0.89394 0.18094 0.74526
 C921 C 0.86484 0.16908 0.73320
 N922 N 0.86521 0.14101 0.71692
 H923 H 0.92035 0.05855 0.67812
 H924 H 0.89465 0.20312 0.75833
 C925 C 0.40081 0.61273 0.24703
 C926 C 0.37916 0.60935 0.27205
 N927 N 0.38745 0.59084 0.29708
 C928 C 0.41648 0.57576 0.29828
 C929 C 0.43850 0.57989 0.27360
 N930 N 0.42988 0.59817 0.24849
 N931 N 0.39295 0.63148 0.22217
 C932 C 0.36479 0.64789 0.22159
 C933 C 0.34363 0.64580 0.24717
 N934 N 0.35117 0.62626 0.27178
 H935 H 0.42258 0.56128 0.31855
 H936 H 0.35970 0.66385 0.20212
 C937 C 0.10096 0.89325 0.71630
 C938 C 0.09432 0.86104 0.71015
 N939 N 0.06482 0.85269 0.70004
 C940 C 0.04113 0.87484 0.69684
 C941 C 0.04683 0.90726 0.70461
 N942 N 0.07720 0.91558 0.71334
 N943 N 0.13073 0.90144 0.72629
 C944 C 0.15400 0.87881 0.73062
 C945 C 0.14715 0.84637 0.72500
 N946 N 0.11738 0.83846 0.71467
 H947 H 0.01837 0.86689 0.68774
 H948 H 0.17744 0.88607 0.73875
 C949 C 0.60898 0.39096 0.27773
 C950 C 0.60678 0.36371 0.29697
 N951 N 0.58189 0.36086 0.31714
 C952 C 0.55833 0.38338 0.31806
 C953 C 0.55908 0.40951 0.29713
 N954 N 0.58488 0.41301 0.27789
 N955 N 0.63427 0.39396 0.25795
 C956 C 0.65721 0.37074 0.25625
 C957 C 0.65418 0.34284 0.27441
 N958 N 0.62913 0.34014 0.29459
 H959 H 0.53828 0.38007 0.33383
 H960 H 0.67717 0.37361 0.24029
 C961 C 0.87089 0.91170 0.24036
 C962 C 0.88470 0.88127 0.23752
 N963 N 0.91515 0.87849 0.22645
 C964 C 0.93238 0.90481 0.21816
 C965 C 0.91819 0.93560 0.22039
 N966 N 0.88768 0.93759 0.23158
 N967 N 0.84076 0.91512 0.25160
 C968 C 0.82326 0.88923 0.25944
 C969 C 0.83624 0.85837 0.25532
 N970 N 0.86698 0.85506 0.24474
 H971 H 0.95633 0.90122 0.20921
 H972 H 0.79895 0.89273 0.26769
 C973 C 0.38811 0.40183 0.78497
 C974 C 0.39757 0.37503 0.76722
 N975 N 0.42303 0.37733 0.74755
 C976 C 0.43880 0.40546 0.74414
 C977 C 0.42796 0.43273 0.76041
 N978 N 0.40314 0.43003 0.78081
 N979 N 0.36243 0.39996 0.80424
 C980 C 0.34481 0.37295 0.80555
 C981 C 0.35262 0.34691 0.78603
 N982 N 0.37936 0.34823 0.76780
 H983 H 0.45840 0.40698 0.72758
 H984 H 0.32364 0.37252 0.82024
 C985 C 0.11265 0.27259 0.91629
 C986 C 0.10202 0.25826 0.88835
 N987 N 0.07251 0.24470 0.88760
 C988 C 0.05356 0.24423 0.91368
 C989 C 0.06490 0.25743 0.94202
 N990 N 0.09407 0.27162 0.94224
 N991 N 0.14216 0.28563 0.91770
 C992 C 0.16208 0.28427 0.89267
 C993 C 0.15230 0.26875 0.86497
 N994 N 0.12213 0.25650 0.86319
 H995 H 0.03063 0.23236 0.91267
 H996 H 0.18576 0.29449 0.89470
 C997 C 0.59781 0.75097 0.38832
 C998 C 0.62203 0.77400 0.38669
 N999 N 0.62709 0.79401 0.41108
 C1000 C 0.60961 0.79155 0.43769
 C1001 C 0.58638 0.76750 0.44039
 N1002 N 0.58042 0.74811 0.41526
 N1003 N 0.59353 0.73074 0.36362
 C1004 C 0.61306 0.73196 0.33789
 C1005 C 0.63837 0.75394 0.33733
 N1006 N 0.64170 0.77462 0.36163
 H1007 H 0.61423 0.80793 0.45681
 H1008 H 0.61012 0.71478 0.31912
 C1009 C 0.91322 0.77634 0.87192
 C1010 C 0.88334 0.77050 0.88568
 N1011 N 0.88203 0.76380 0.91689
 C1012 C 0.90918 0.76227 0.93482
 C1013 C 0.93962 0.76704 0.92078
 N1014 N 0.94022 0.77419 0.88953
 N1015 N 0.91505 0.78308 0.84089
 C1016 C 0.88838 0.78357 0.82268
 C1017 C 0.85824 0.77643 0.83585
 N1018 N 0.85640 0.77042 0.86738
 H1019 H 0.90666 0.75575 0.95923
 H1020 H 0.89094 0.78885 0.79790
 C1021 C 0.40572 0.26791 0.36957
 C1022 C 0.37651 0.25488 0.37947
 N1023 N 0.37443 0.24241 0.40893
 C1024 C 0.40037 0.24172 0.42855
 C1025 C 0.43008 0.25347 0.41802
 N1026 N 0.43160 0.26663 0.38881
 N1027 N 0.40839 0.27998 0.34019
 C1028 C 0.38344 0.27891 0.31979
 C1029 C 0.35439 0.26459 0.32885
 N1030 N 0.35142 0.25333 0.35887
 H1031 H 0.39823 0.23060 0.45141
 H1032 H 0.38662 0.28850 0.29637
 C1033 C 0.08642 0.76311 0.13864
 C1034 C 0.11624 0.75483 0.12572
 N1035 N 0.11798 0.74699 0.09479
 C1036 C 0.09125 0.74680 0.07627
 C1037 C 0.06109 0.75470 0.08927
 N1038 N 0.05981 0.76276 0.12028
 N1039 N 0.08430 0.77045 0.16958
 C1040 C 0.11062 0.76956 0.18840
 C1041 C 0.14066 0.76076 0.17584
 N1042 N 0.14272 0.75382 0.14454
 H1043 H 0.09355 0.73948 0.05202
 H1044 H 0.10797 0.77544 0.21303
 C1045 C 0.60363 0.25113 0.60285
 C1046 C 0.60224 0.23234 0.63017
 N1047 N 0.57584 0.21477 0.63611
 C1048 C 0.55024 0.21574 0.61647
 C1049 C 0.55047 0.23585 0.58985
 N1050 N 0.57762 0.25272 0.58331
 N1051 N 0.63057 0.26832 0.59705
 C1052 C 0.65585 0.26785 0.61751
 C1053 C 0.65385 0.24991 0.64547
 N1054 N 0.62701 0.23248 0.65081
 H1055 H 0.52954 0.20134 0.62199
 H1056 H 0.67678 0.28212 0.61255
 C1057 C 0.88811 0.25295 0.11759
 C1058 C 0.85883 0.26971 0.11663
 N1059 N 0.85021 0.28593 0.09035
 C1060 C 0.86898 0.28515 0.06439
 C1061 C 0.89723 0.26654 0.06440
 N1062 N 0.90654 0.25144 0.09134
 N1063 N 0.89653 0.23674 0.14407
 C1064 C 0.87661 0.23597 0.16937
 C1065 C 0.84658 0.25137 0.16767
 N1066 N 0.83868 0.26818 0.14141
 H1067 H 0.86123 0.29784 0.04350
 H1068 H 0.88353 0.22238 0.19000
 C1069 C 0.39701 0.75049 0.60794
 C1070 C 0.37174 0.77286 0.60899
 N1071 N 0.36934 0.79583 0.58671
 C1072 C 0.39041 0.79684 0.56260
 C1073 C 0.41443 0.77316 0.55997
 N1074 N 0.41769 0.75084 0.58320
 N1075 N 0.39928 0.72779 0.63078
 C1076 C 0.37700 0.72613 0.65416
 C1077 C 0.35085 0.74751 0.65399
 N1078 N 0.34914 0.77051 0.63155
 H1079 H 0.38764 0.81528 0.54490
 H1080 H 0.37889 0.70755 0.67181
 C1081 C 0.24182 0.11814 0.91847
 C1082 C 0.24893 0.10691 0.88831
 N1083 N 0.25806 0.07585 0.88469
 C1084 C 0.26063 0.05565 0.90987
 C1085 C 0.25440 0.06724 0.94058
 N1086 N 0.24491 0.09834 0.94336
 N1087 N 0.23259 0.14888 0.92272
 C1088 C 0.23079 0.16937 0.89813
 C1089 C 0.23907 0.15885 0.86775
 N1090 N 0.24764 0.12754 0.86345
 H1091 H 0.26858 0.03145 0.90560
 H1092 H 0.22363 0.19390 0.90250
 C1093 C 0.73330 0.63436 0.41993
 C1094 C 0.74646 0.62039 0.39276
 N1095 N 0.75820 0.59009 0.39423
 C1096 C 0.75734 0.57316 0.42155
 C1097 C 0.74424 0.58717 0.44886
 N1098 N 0.73263 0.61759 0.44721
 N1099 N 0.72158 0.66457 0.41871
 C1100 C 0.72276 0.68173 0.39171
 C1101 C 0.73656 0.66824 0.36446
 N1102 N 0.74790 0.63761 0.36562
 H1103 H 0.76734 0.54922 0.42203
 H1104 H 0.71326 0.70588 0.39171
 C1105 C 0.75649 0.10534 0.11351
 C1106 C 0.76884 0.10020 0.14373
 N1107 N 0.78243 0.07174 0.15104
 C1108 C 0.78331 0.04750 0.12997
 C1109 C 0.76906 0.05123 0.09986
 N1110 N 0.75677 0.08080 0.09225
 N1111 N 0.74369 0.13454 0.10635
 C1112 C 0.74237 0.15849 0.12822
 C1113 C 0.75376 0.15278 0.15892
 N1114 N 0.76692 0.12368 0.16556
 H1115 H 0.79583 0.02595 0.13693
 H1116 H 0.73177 0.18134 0.12200
 C1117 C 0.25107 0.59919 0.59683
 C1118 C 0.23349 0.59629 0.62477
 N1119 N 0.21755 0.56892 0.63091
 C1120 C 0.21916 0.54378 0.61086
 C1121 C 0.23824 0.54565 0.58365
 N1122 N 0.25334 0.57371 0.57697
 N1123 N 0.26671 0.62695 0.59082
 C1124 C 0.26590 0.65169 0.61170
 C1125 C 0.24932 0.64822 0.64027
 N1126 N 0.23334 0.62056 0.64582
 H1127 H 0.20643 0.52210 0.61664
 H1128 H 0.27883 0.67340 0.60650
 C1129 C 0.73220 0.91909 0.87660
 C1130 C 0.74710 0.89136 0.88860
 N1131 N 0.75952 0.89192 0.91810
 C1132 C 0.75812 0.91898 0.93586
 C1133 C 0.74403 0.94709 0.92344
 N1134 N 0.73130 0.94616 0.89404
 N1135 N 0.71991 0.91897 0.84721
 C1136 C 0.72242 0.89266 0.82886
 C1137 C 0.73849 0.86507 0.84007
 N1138 N 0.75012 0.86492 0.87005
 H1139 H 0.76912 0.91885 0.95891
 H1140 H 0.71245 0.89362 0.80537
 C1141 C 0.23336 0.39915 0.36548
 C1142 C 0.24983 0.37157 0.37548
 N1143 N 0.26414 0.37147 0.40424
 C1144 C 0.26312 0.39783 0.42313
 C1145 C 0.24742 0.42585 0.41261
 N1146 N 0.23272 0.42538 0.38405
 N1147 N 0.21946 0.39991 0.33674
 C1148 C 0.22182 0.37456 0.31707
 C1149 C 0.23918 0.34710 0.32632
 N1150 N 0.25250 0.34606 0.35566
 H1151 H 0.27552 0.39726 0.44547
 H1152 H 0.21073 0.37614 0.29409
 C1153 C 0.25555 0.88533 0.11025
 C1154 C 0.27034 0.85509 0.10972
 N1155 N 0.28624 0.84522 0.08375
 C1156 C 0.28713 0.86378 0.05768
 C1157 C 0.27055 0.89324 0.05714
 N1158 N 0.25568 0.90366 0.08382
 N1159 N 0.24013 0.89513 0.13674
 C1160 C 0.23844 0.87575 0.16248
 C1161 C 0.25199 0.84491 0.16121
 N1162 N 0.26785 0.83560 0.13490
 H1163 H 0.29996 0.85515 0.03725
 H1164 H 0.22577 0.88385 0.18321
 C1165 C 0.72756 0.40285 0.61328
 C1166 C 0.71204 0.37333 0.61073
 N1167 N 0.69535 0.36622 0.58435
 C1168 C 0.69467 0.38672 0.55965
 C1169 C 0.71244 0.41516 0.56096
 N1170 N 0.72776 0.42294 0.58820
 N1171 N 0.74429 0.40974 0.63984
 C1172 C 0.74695 0.38799 0.66357
 C1173 C 0.73319 0.35768 0.65997
 N1174 N 0.71564 0.35137 0.63381
 H1175 H 0.68166 0.38012 0.53864
 H1176 H 0.76104 0.39364 0.68419
 C1177 C 0.09013 0.13082 0.75506
 C1178 C 0.12070 0.11920 0.74713
 N1179 N 0.12346 0.09041 0.73261
 C1180 C 0.09704 0.07296 0.72524
 C1181 C 0.06622 0.08502 0.73238
 N1182 N 0.06386 0.11365 0.74742
 N1183 N 0.08702 0.15982 0.76890
 C1184 C 0.11306 0.17818 0.77456
 C1185 C 0.14375 0.16724 0.76571
 N1186 N 0.14687 0.13767 0.75253
 H1187 H 0.10013 0.05064 0.71278
 H1188 H 0.10969 0.20145 0.78522
 C1189 C 0.60953 0.60074 0.26211
 C1190 C 0.60527 0.62760 0.24271
 N1191 N 0.57712 0.63190 0.22730
 C1192 C 0.55255 0.61115 0.23112
 C1193 C 0.55577 0.58512 0.25200
 N1194 N 0.58464 0.58023 0.26658
 N1195 N 0.63798 0.59652 0.27728
 C1196 C 0.66209 0.61819 0.27433
 C1197 C 0.65733 0.64584 0.25593
 N1198 N 0.62896 0.64957 0.24039
 H1199 H 0.53039 0.61545 0.21849
 H1200 H 0.68423 0.61448 0.28717
 C1201 C 0.12967 0.91392 0.26245
 C1202 C 0.11730 0.88473 0.25169
 N1203 N 0.08871 0.88438 0.23656
 C1204 C 0.07199 0.91188 0.23150
 C1205 C 0.08446 0.94132 0.24192
 N1206 N 0.11311 0.94143 0.25724
 N1207 N 0.15869 0.91447 0.27674
 C1208 C 0.17630 0.88727 0.28008
 C1209 C 0.16447 0.85816 0.26838
 N1210 N 0.13497 0.85753 0.25480
 H1211 H 0.04974 0.91076 0.21847
 H1212 H 0.19975 0.88852 0.29094
 C1213 C 0.60485 0.39384 0.73712
 C1214 C 0.63328 0.39639 0.75441
 N1215 N 0.64201 0.42493 0.76647
 C1216 C 0.62381 0.45147 0.76174
 C1217 C 0.59554 0.44971 0.74363
 N1218 N 0.58649 0.42054 0.73212
 N1219 N 0.59657 0.36481 0.72516
 C1220 C 0.61584 0.33848 0.72927
 C1221 C 0.64488 0.34148 0.74584
 N1222 N 0.65243 0.37048 0.75811
 H1223 H 0.63125 0.47353 0.77266
 H1224 H 0.60924 0.31596 0.71867
 C1225 C 0.89449 0.09974 0.23605
 C1226 C 0.86481 0.09915 0.22040
 N1227 N 0.85865 0.07575 0.19933
 C1228 C 0.88043 0.05217 0.19397
 C1229 C 0.90936 0.05147 0.21110
 N1230 N 0.91595 0.07574 0.23131
 N1231 N 0.90074 0.12355 0.25676
 C1232 C 0.87846 0.14661 0.26276
 C1233 C 0.84835 0.14526 0.24797
 N1234 N 0.84237 0.12166 0.22694
 H1235 H 0.87472 0.03353 0.17731
 H1236 H 0.88393 0.16539 0.27937
 C1237 C 0.38987 0.59958 0.74287
 C1238 C 0.35946 0.59290 0.73035
 N1239 N 0.35365 0.56349 0.71838
 C1240 C 0.37655 0.54019 0.71904
 C1241 C 0.40672 0.54627 0.73273
 N1242 N 0.41270 0.57617 0.74394
 N1243 N 0.39572 0.62910 0.75463
 C1244 C 0.37256 0.65219 0.75459
 C1245 C 0.34181 0.64546 0.74259
 N1246 N 0.33614 0.61583 0.73063
 H1247 H 0.37104 0.51695 0.70937
 H1248 H 0.37804 0.67547 0.76418
 C1249 C 0.89615 0.90103 0.74728
 C1250 C 0.87223 0.90540 0.72429
 N1251 N 0.87833 0.92388 0.69877
 C1252 C 0.90756 0.93748 0.69484
 C1253 C 0.93193 0.93145 0.71692
 N1254 N 0.92549 0.91375 0.74285
 N1255 N 0.89046 0.88219 0.77252
 C1256 C 0.86241 0.86633 0.77518
 C1257 C 0.83938 0.86879 0.75115
 N1258 N 0.84453 0.88872 0.72643
 H1259 H 0.91219 0.95168 0.67408
 H1260 H 0.85906 0.85004 0.79468
 C1261 C 0.39263 0.39918 0.25468
 C1262 C 0.38914 0.37233 0.27411
 N1263 N 0.41088 0.36622 0.29701
 C1264 C 0.43676 0.38516 0.30080
 C1265 C 0.44180 0.41098 0.28013
 N1266 N 0.41906 0.41785 0.25791
 N1267 N 0.37036 0.40505 0.23190
 C1268 C 0.34529 0.38476 0.22726
 C1269 C 0.34303 0.35699 0.24569
 N1270 N 0.36489 0.35182 0.26885
 H1271 H 0.45360 0.37964 0.31944
 H1272 H 0.32837 0.38935 0.20844
   
