data_POSCAR
  _audit_creation_date              2014-09-24
  _audit_creation_method            'ToBaCCo'
  _symmetry_space_group_name_H-M    'P1'
  _symmetry_Int_Tables_number       1
  _symmetry_cell_setting            triclinic
  loop_
  _symmetry_equiv_pos_as_xyz
 x,y,z
_cell_length_a 62.8822
_cell_length_b 58.0260
_cell_length_c 61.5166
_cell_angle_alpha 88.942800
_cell_angle_beta 88.968500
_cell_angle_gamma 92.282700
loop_
  _atom_site_label
  _atom_site_type_symbol
  _atom_site_fract_x
  _atom_site_fract_y
  _atom_site_fract_z
C1 C 0.18927 0.21427 0.21737
 N2 N 0.20585 0.20173 0.22373
 C3 C 0.22377 0.20113 0.21123
 N4 N 0.22520 0.21341 0.19218
 C5 C 0.20867 0.22621 0.18572
 N6 N 0.19071 0.22651 0.19833
 C7 C 0.69164 0.69822 0.72976
 N8 N 0.69689 0.71296 0.71288
 C9 C 0.71620 0.71200 0.70268
 N10 N 0.73023 0.69639 0.70953
 C11 C 0.72508 0.68158 0.72632
 N12 N 0.70575 0.68253 0.73632
 C13 C 0.31135 0.78865 0.72629
 N14 N 0.30867 0.77708 0.70757
 C15 C 0.29274 0.78215 0.69399
 N16 N 0.27917 0.79889 0.69932
 C17 C 0.28164 0.81059 0.71817
 N18 N 0.29783 0.80544 0.73158
 C19 C 0.80377 0.28167 0.20875
 N20 N 0.79599 0.26766 0.19308
 C21 C 0.77749 0.27233 0.18313
 N22 N 0.76669 0.29108 0.18903
 C23 C 0.77440 0.30528 0.20459
 N24 N 0.79299 0.30062 0.21431
 C25 C 0.80878 0.71612 0.28663
 N26 N 0.79588 0.69668 0.28024
 C27 C 0.77736 0.69060 0.29075
 N28 N 0.77065 0.70306 0.30783
 C29 C 0.78201 0.72175 0.31483
 N30 N 0.80067 0.72845 0.30470
 C31 C 0.31160 0.20401 -0.23260
 N32 N 0.29622 0.18609 -0.23735
 C33 C 0.27828 0.18227 -0.22518
 N34 N 0.27443 0.19568 -0.20782
 C35 C 0.28806 0.21317 -0.20214
 N36 N 0.30630 0.21772 -0.21389
 C37 C 0.69666 0.29207 -0.23215
 N38 N 0.69456 0.27556 -0.21618
 C39 C 0.70854 0.27514 -0.19964
 N40 N 0.72474 0.29129 -0.19918
 C41 C 0.72708 0.30779 -0.21504
 N42 N 0.71297 0.30813 -0.23154
 C43 C 0.19256 0.79056 0.27727
 N44 N 0.20415 0.80974 0.27051
 C45 C 0.22187 0.81670 0.28134
 N46 N 0.22786 0.80434 0.29907
 C47 C 0.21640 0.78517 0.30588
 N48 N 0.19877 0.77837 0.29492
 C49 C 0.44661 0.45722 0.47868
 N50 N 0.42962 0.47095 0.47973
 C51 C 0.42765 0.48838 0.46492
 N52 N 0.44273 0.49197 0.44906
 C53 C 0.45964 0.47827 0.44777
 N54 N 0.46157 0.46089 0.46261
 C55 C -0.03971 -0.06833 0.96800
 N56 N -0.02905 -0.06163 0.94944
 C57 C -0.03608 -0.04415 0.93685
 N58 N -0.05391 -0.03334 0.94294
 C59 C -0.06476 -0.03991 0.96151
 N60 N -0.05759 -0.05745 0.97397
 C61 C 1.04168 0.54975 0.97872
 N62 N 1.03023 0.54216 0.96158
 C63 C 1.03690 0.52434 0.94953
 N64 N 1.05524 0.51410 0.95470
 C65 C 1.06686 0.52155 0.97181
 N66 N 1.06003 0.53937 0.98375
 C67 C 0.54499 0.05793 0.47247
 N68 N 0.52913 0.05387 0.45809
 C69 C 0.52974 0.03539 0.44485
 N70 N 0.54618 0.02101 0.44609
 C71 C 0.56211 0.02496 0.46029
 N72 N 0.56145 0.04350 0.47343
 C73 C -0.03181 0.06209 0.52470
 N74 N -0.02020 0.05688 0.54238
 C75 C -0.02704 0.03975 0.55651
 N76 N -0.04565 0.02787 0.55289
 C77 C -0.05742 0.03302 0.53523
 N78 N -0.05039 0.05012 0.52123
 C79 C 0.47812 0.55955 0.03059
 N80 N 0.45978 0.54638 0.03037
 C81 C 0.45461 0.53082 0.04658
 N82 N 0.46783 0.52825 0.06357
 C83 C 0.48744 0.54155 0.06483
 N84 N 0.49178 0.55734 0.04717
 C85 C 0.53021 -0.06729 0.03957
 N86 N 0.54831 -0.05373 0.03761
 C87 C 0.55297 -0.03766 0.05281
 N88 N 0.53946 -0.03523 0.07002
 C89 C 0.52135 -0.04873 0.07206
 N90 N 0.51683 -0.06465 0.05679
 C91 C 1.02583 0.42634 0.52806
 N92 N 1.01558 0.42820 0.54751
 C93 C 1.02146 0.44507 0.56143
 N94 N 1.03778 0.46021 0.55582
 C95 C 1.04816 0.45847 0.53638
 N96 N 1.04212 0.44155 0.52258
 C97 C 0.41677 0.02750 0.23475
 H98 H 0.41676 0.04382 0.24299
 C99 C 0.43287 0.02324 0.21964
 H100 H 0.44522 0.03642 0.21622
 C101 C 0.40068 -0.00951 0.22936
 H102 H 0.38834 -0.02240 0.23351
 C103 C 0.41650 -0.01452 0.21413
 H104 H 0.41604 -0.03140 0.20698
 N105 N 0.40088 0.01139 0.23901
 C106 C 0.34814 0.05195 0.26134
 H107 H 0.34451 0.04391 0.27705
 C108 C 0.33607 0.07007 0.25385
 H109 H 0.32302 0.07554 0.26392
 C110 C 0.36886 0.05336 0.22877
 H111 H 0.38132 0.04651 0.21880
 C112 C 0.35722 0.07149 0.22064
 H113 H 0.36103 0.07858 0.20457
 Zn114 Zn 0.37970 0.01904 0.25958
 N115 N 0.36435 0.04417 0.24891
 C116 C 0.39228 0.04737 0.29518
 N117 N 0.39401 0.02667 0.28545
 C118 C 0.40698 0.01052 0.29346
 C119 C 0.41842 0.01454 0.31231
 C120 C 0.40351 0.05220 0.31409
 C121 C 0.34801 -0.01402 0.24821
 C122 C 0.33361 -0.03283 0.25137
 C123 C 0.34387 -0.03481 0.28899
 C124 C 0.35802 -0.01601 0.28508
 N125 N 0.36010 -0.00625 0.26487
 H126 H 0.38232 0.06024 0.28826
 H127 H 0.40843 -0.00560 0.28508
 H128 H 0.42872 0.00123 0.31768
 H129 H 0.40183 0.06879 0.32159
 H130 H 0.34977 -0.00573 0.23235
 H131 H 0.32470 -0.03869 0.23755
 H132 H 0.34272 -0.04239 0.30522
 H133 H 0.36731 -0.00927 0.29829
 C134 C 0.34073 0.08025 0.23327
 C135 C 0.43271 0.00217 0.20883
 C136 C 0.33143 -0.04366 0.27207
 C137 C 0.41668 0.03563 0.32315
 C138 C 0.08358 -0.01989 0.71465
 H139 H 0.08286 -0.03648 0.72302
 C140 C 0.06979 -0.01568 0.69762
 H141 H 0.05852 -0.02917 0.69286
 C142 C 0.09893 0.01796 0.71099
 H143 H 0.10999 0.03119 0.71657
 C144 C 0.08545 0.02292 0.69387
 H145 H 0.08633 0.04009 0.68672
 N146 N 0.09795 -0.00326 0.72081
 C147 C 0.14877 -0.04021 0.75180
 H148 H 0.14918 -0.03199 0.76744
 C149 C 0.16338 -0.05695 0.74683
 H150 H 0.17508 -0.06118 0.75877
 C151 C 0.13369 -0.04334 0.71691
 H152 H 0.12241 -0.03768 0.70512
 C153 C 0.14804 -0.06007 0.71123
 H154 H 0.14748 -0.06733 0.69515
 Zn155 Zn 0.11562 -0.01026 0.74443
 N156 N 0.13416 -0.03394 0.73700
 C157 C 0.09942 -0.03995 0.77887
 N158 N 0.09756 -0.01943 0.76822
 C159 C 0.08236 -0.00463 0.77408
 C160 C 0.06869 -0.00982 0.79176
 C161 C 0.08608 -0.04589 0.79666
 C162 C 0.14786 0.02377 0.73706
 C163 C 0.16136 0.04266 0.74173
 C164 C 0.14370 0.04489 0.77679
 C165 C 0.13065 0.02589 0.77145
 N166 N 0.13277 0.01591 0.75176
 H167 H 0.11129 -0.05173 0.77369
 H168 H 0.08111 0.01149 0.76514
 H169 H 0.05729 0.00282 0.79605
 H170 H 0.08805 -0.06223 0.80505
 H171 H 0.14944 0.01524 0.72166
 H172 H 0.17308 0.04811 0.72950
 H173 H 0.14160 0.05255 0.79258
 H174 H 0.11896 0.01909 0.78319
 C175 C 0.16301 -0.06723 0.72630
 C176 C 0.07077 0.00584 0.68681
 C177 C 0.15936 0.05367 0.76191
 C178 C 0.07047 -0.03075 0.80351
 C179 C 0.59079 0.47443 0.23475
 H180 H 0.59142 0.45824 0.24367
 C181 C 0.57662 0.47663 0.21773
 H182 H 0.56641 0.46196 0.21354
 C183 C 0.60310 0.51332 0.22977
 H184 H 0.61311 0.52771 0.23487
 C185 C 0.58906 0.51633 0.21266
 H186 H 0.58855 0.53318 0.20497
 N187 N 0.60380 0.49256 0.24029
 C188 C 0.65228 0.45579 0.27509
 H189 H 0.65120 0.46334 0.29100
 C190 C 0.66577 0.43762 0.27160
 H191 H 0.67496 0.43102 0.28491
 C192 C 0.64167 0.45514 0.23832
 H193 H 0.63234 0.46211 0.22536
 C194 C 0.65541 0.43742 0.23396
 H195 H 0.65621 0.43053 0.21774
 Zn196 Zn 0.62153 0.48785 0.26436
 N197 N 0.64012 0.46371 0.25870
 C198 C 0.60353 0.46019 0.29980
 N199 N 0.60316 0.48051 0.28847
 C200 C 0.58890 0.49662 0.29360
 C201 C 0.57500 0.49321 0.31138
 C202 C 0.58991 0.45602 0.31775
 C203 C 0.65249 0.52271 0.25417
 C204 C 0.66574 0.54217 0.25762
 C205 C 0.65025 0.54459 0.29368
 C206 C 0.63737 0.52509 0.28953
 N207 N 0.63854 0.51470 0.26994
 H208 H 0.61432 0.44713 0.29498
 H209 H 0.58852 0.51235 0.28391
 H210 H 0.56400 0.50658 0.31461
 H211 H 0.59072 0.43982 0.32670
 H212 H 0.65326 0.51395 0.23881
 H213 H 0.67629 0.54806 0.24446
 H214 H 0.64895 0.55252 0.30944
 H215 H 0.62665 0.51815 0.30212
 C216 C 0.66748 0.42835 0.25082
 C217 C 0.57566 0.49771 0.20634
 C218 C 0.66480 0.55344 0.27773
 C219 C 0.57559 0.47277 0.32412
 C220 C 0.92765 0.51543 0.73382
 H221 H 0.92842 0.52998 0.74456
 C222 C 0.94315 0.51338 0.71750
 H223 H 0.95587 0.52647 0.71572
 C224 C 0.91003 0.48076 0.72304
 H225 H 0.89715 0.46803 0.72526
 C226 C 0.92514 0.47806 0.70648
 H227 H 0.92314 0.46352 0.69589
 N228 N 0.91135 0.49941 0.73609
 C229 C 0.85827 0.53448 0.76505
 H230 H 0.85482 0.52333 0.77907
 C231 C 0.84518 0.55275 0.76047
 H232 H 0.83158 0.55521 0.77104
 C233 C 0.87945 0.54337 0.73353
 H234 H 0.89248 0.53933 0.72277
 C235 C 0.86675 0.56180 0.72831
 H236 H 0.87030 0.57198 0.71366
 Zn237 Zn 0.89055 0.50371 0.75809
 N238 N 0.87508 0.53022 0.75171
 C239 C 0.90302 0.52646 0.79650
 N240 N 0.90480 0.50697 0.78480
 C241 C 0.91776 0.49003 0.79123
 C242 C 0.92958 0.49229 0.81017
 C243 C 0.91445 0.52942 0.81555
 C244 C 0.85768 0.47621 0.74172
 C245 C 0.84180 0.45877 0.74142
 C246 C 0.85215 0.44656 0.77734
 C247 C 0.86788 0.46431 0.77691
 N248 N 0.87044 0.47856 0.75919
 H249 H 0.89303 0.53998 0.79092
 H250 H 0.91906 0.47481 0.78148
 H251 H 0.93951 0.47829 0.81467
 H252 H 0.91281 0.54520 0.82447
 H253 H 0.85981 0.48807 0.72800
 H254 H 0.83188 0.45733 0.72725
 H255 H 0.85054 0.43587 0.79187
 H256 H 0.87782 0.46686 0.79087
 C257 C 0.84941 0.56675 0.74186
 C258 C 0.94204 0.49453 0.70356
 C259 C 0.83878 0.44351 0.75932
 C260 C 0.92819 0.51239 0.82261
 C261 C 0.23125 0.40871 -0.00143
 H262 H 0.23967 0.41035 0.01369
 C263 C 0.21254 0.42051 -0.00451
 H264 H 0.20665 0.43078 0.00859
 C265 C 0.22873 0.39270 -0.03645
 H266 H 0.23518 0.38213 -0.04903
 C267 C 0.21004 0.40421 -0.04025
 H268 H 0.20220 0.40212 -0.05566
 N269 N 0.23876 0.39481 -0.01714
 C270 C 0.27638 0.34421 0.01694
 H271 H 0.29085 0.34553 0.00714
 C272 C 0.27461 0.32844 0.03436
 H273 H 0.28785 0.31768 0.03791
 C274 C 0.24155 0.35658 0.02407
 H275 H 0.22860 0.36740 0.01992
 C276 C 0.23911 0.34108 0.04169
 H277 H 0.22442 0.34084 0.05108
 Zn278 Zn 0.26403 0.37888 -0.01179
 N279 N 0.26008 0.35808 0.01228
 C280 C 0.29690 0.40066 0.01268
 N281 N 0.28600 0.40125 -0.00620
 C282 C 0.29024 0.41811 -0.02146
 C283 C 0.30641 0.43486 -0.01833
 C284 C 0.31323 0.41705 0.01651
 C285 C 0.25728 0.34386 -0.04154
 C286 C 0.26097 0.32981 -0.05919
 C287 C 0.29580 0.35200 -0.06493
 C288 C 0.29019 0.36503 -0.04706
 N289 N 0.27137 0.36105 -0.03620
 H290 H 0.29302 0.38744 0.02485
 H291 H 0.28114 0.41839 -0.03622
 H292 H 0.30960 0.44794 -0.03090
 H293 H 0.32161 0.41551 0.03158
 H294 H 0.24275 0.34119 -0.03199
 H295 H 0.24913 0.31651 -0.06292
 H296 H 0.31090 0.35581 -0.07321
 H297 H 0.30117 0.37848 -0.04178
 C298 C 0.25580 0.32664 0.04699
 C299 C 0.20166 0.41832 -0.02421
 C300 C 0.28126 0.33280 -0.07309
 C301 C 0.31834 0.43453 0.00079
 C302 C 0.71753 0.07838 -0.02296
 H303 H 0.72616 0.07981 -0.03833
 C304 C 0.69990 0.06308 -0.02057
 H305 H 0.69495 0.05278 -0.03424
 C306 C 0.71363 0.08996 0.01357
 H307 H 0.71913 0.10028 0.02693
 C308 C 0.69595 0.07484 0.01669
 H309 H 0.68780 0.07442 0.03232
 N310 N 0.72389 0.09163 -0.00608
 C311 C 0.75921 0.15017 -0.03662
 H312 H 0.77379 0.14959 -0.02757
 C313 C 0.75685 0.16741 -0.05239
 H314 H 0.76976 0.18004 -0.05548
 C315 C 0.72459 0.13459 -0.04323
 H316 H 0.71187 0.12209 -0.03926
 C317 C 0.72152 0.15160 -0.05915
 H318 H 0.70634 0.15187 -0.06708
 Zn319 Zn 0.74812 0.11174 -0.01048
 N320 N 0.74333 0.13401 -0.03256
 C321 C 0.78197 0.09705 -0.03757
 N322 N 0.77124 0.09345 -0.01835
 C323 C 0.77655 0.07640 -0.00427
 C324 C 0.79382 0.06275 -0.00881
 C325 C 0.79928 0.08377 -0.04285
 C326 C 0.73925 0.14248 0.02242
 C327 C 0.74238 0.15566 0.04084
 C328 C 0.77842 0.13870 0.04336
 C329 C 0.77336 0.12633 0.02485
 N330 N 0.75427 0.12818 0.01515
 H331 H 0.77719 0.11025 -0.04885
 H332 H 0.76752 0.07368 0.01077
 H333 H 0.79764 0.04981 0.00315
 H334 H 0.80771 0.08719 -0.05816
 H335 H 0.72452 0.14360 0.01372
 H336 H 0.72991 0.16672 0.04611
 H337 H 0.79382 0.13671 0.05061
 H338 H 0.78507 0.11529 0.01805
 C339 C 0.73793 0.16817 -0.06405
 C340 C 0.68895 0.06103 -0.00052
 C341 C 0.76305 0.15491 0.05344
 C342 C 0.80566 0.06643 -0.02836
 C343 C 0.20478 0.59274 0.50114
 H344 H 0.21393 0.58977 0.48646
 C345 C 0.18749 0.57793 0.50696
 H346 H 0.18376 0.56346 0.49670
 C347 C 0.19963 0.61459 0.53281
 H348 H 0.20469 0.62853 0.54314
 C349 C 0.18222 0.60024 0.53924
 H350 H 0.17383 0.60353 0.55434
 N351 N 0.21028 0.61087 0.51384
 C352 C 0.24505 0.65895 0.46947
 H353 H 0.25978 0.66120 0.47815
 C354 C 0.24234 0.67090 0.44987
 H355 H 0.25536 0.68187 0.44350
 C356 C 0.21054 0.64131 0.46736
 H357 H 0.19805 0.63006 0.47438
 C358 C 0.20712 0.65297 0.44774
 H359 H 0.19204 0.65037 0.43972
 Zn360 Zn 0.23419 0.62975 0.50481
 N361 N 0.22933 0.64438 0.47772
 C362 C 0.26801 0.60756 0.48344
 N363 N 0.25762 0.61033 0.50271
 C364 C 0.26306 0.59846 0.52089
 C365 C 0.27993 0.58355 0.52026
 C366 C 0.28492 0.59273 0.48201
 C367 C 0.22374 0.66835 0.52839
 C368 C 0.22585 0.68599 0.54330
 C369 C 0.26271 0.67252 0.54994
 C370 C 0.25856 0.65542 0.53488
 N371 N 0.23948 0.65341 0.52500
 H372 H 0.26311 0.61667 0.46903
 H373 H 0.25428 0.60068 0.53594
 H374 H 0.28401 0.57445 0.53506
 H375 H 0.29265 0.59133 0.46633
 H376 H 0.20908 0.66621 0.51958
 H377 H 0.21273 0.69722 0.54589
 H378 H 0.27806 0.67323 0.55761
 H379 H 0.27086 0.64360 0.53104
 C380 C 0.22303 0.66815 0.43885
 C381 C 0.17575 0.58184 0.52613
 C382 C 0.24599 0.68972 0.55605
 C383 C 0.29123 0.58040 0.50067
 C384 C 0.72273 0.91438 0.52169
 H385 H 0.73121 0.91337 0.53680
 C386 C 0.70746 0.93091 0.51887
 H387 H 0.70417 0.94255 0.53197
 C388 C 0.71697 0.90053 0.48621
 H389 H 0.72102 0.88896 0.47336
 C390 C 0.70149 0.91678 0.48271
 H391 H 0.69402 0.91748 0.46704
 N392 N 0.72696 0.89939 0.50560
 C393 C 0.75138 0.83992 0.54002
 H394 H 0.76652 0.83822 0.53168
 C395 C 0.74528 0.82465 0.55705
 H396 H 0.75578 0.81105 0.56135
 C397 C 0.71909 0.85927 0.54369
 H398 H 0.70876 0.87256 0.53829
 C399 C 0.71235 0.84438 0.56075
 H400 H 0.69696 0.84656 0.56847
 Zn401 Zn 0.74806 0.87782 0.51139
 N402 N 0.73851 0.85711 0.53401
 C403 C 0.78231 0.89114 0.53908
 N404 N 0.77266 0.89509 0.51984
 C405 C 0.77997 0.91218 0.50594
 C406 C 0.79795 0.92582 0.51087
 C407 C 0.80040 0.90433 0.54468
 C408 C 0.73858 0.84665 0.47816
 C409 C 0.74212 0.83326 0.45998
 C410 C 0.77999 0.84873 0.45989
 C411 C 0.77447 0.86133 0.47802
 N412 N 0.75434 0.86036 0.48642
 H413 H 0.77604 0.87780 0.55016
 H414 H 0.77186 0.91505 0.49082
 H415 H 0.80334 0.93875 0.49897
 H416 H 0.80789 0.90075 0.56004
 H417 H 0.72295 0.84619 0.48583
 H418 H 0.72908 0.82271 0.45381
 H419 H 0.79623 0.85011 0.45368
 H420 H 0.78663 0.87194 0.48554
 C421 C 0.72566 0.82711 0.56793
 C422 C 0.69639 0.93207 0.49934
 C423 C 0.76402 0.83321 0.44875
 C424 C 0.80854 0.92204 0.53058
 C425 C 0.00281 0.21781 0.38279
 H426 H 0.01792 0.22742 0.38245
 C427 C -0.00021 0.19847 0.39652
 H428 H 0.01293 0.19313 0.40625
 C429 C -0.03243 0.21323 0.37010
 H430 H -0.04508 0.21925 0.36009
 C431 C -0.03615 0.19382 0.38359
 H432 H -0.05163 0.18494 0.38365
 N433 N -0.01315 0.22473 0.36987
 C434 C 0.01776 0.26611 0.31748
 H435 H 0.00872 0.28154 0.31851
 C436 C 0.03370 0.26460 0.30155
 H437 H 0.03696 0.27903 0.29040
 C438 C 0.02427 0.22847 0.33065
 H439 H 0.02024 0.21425 0.34173
 C440 C 0.04035 0.22621 0.31496
 H441 H 0.04828 0.21006 0.31421
 Zn442 Zn -0.00828 0.25200 0.35283
 N443 N 0.01362 0.24836 0.33186
 C444 C 0.01774 0.28867 0.36931
 N445 N -0.00070 0.27586 0.37206
 C446 C -0.01405 0.27917 0.38923
 C447 C -0.00929 0.29621 0.40431
 C448 C 0.02309 0.30601 0.38388
 C449 C -0.03973 0.24455 0.32202
 C450 C -0.05737 0.24939 0.30951
 C451 C -0.06067 0.28486 0.32903
 C452 C -0.04297 0.27930 0.34114
 N453 N -0.03298 0.25935 0.33754
 H454 H 0.02843 0.28544 0.35587
 H455 H -0.02846 0.26845 0.39120
 H456 H -0.02044 0.29806 0.41763
 H457 H 0.03785 0.31604 0.38124
 H458 H -0.03130 0.22892 0.31934
 H459 H -0.06223 0.23688 0.29764
 H460 H -0.06833 0.30090 0.33221
 H461 H -0.03710 0.29110 0.35323
 C462 C 0.04547 0.24464 0.30035
 C463 C -0.02005 0.18636 0.39721
 C464 C -0.06813 0.26996 0.31282
 C465 C 0.00956 0.31012 0.40173
 C466 C -0.00301 0.70941 0.10281
 H467 H -0.01872 0.71631 0.10210
 C468 C 0.00214 0.69083 0.08984
 H469 H -0.00999 0.68339 0.07958
 C470 C 0.03152 0.71074 0.11759
 H471 H 0.04307 0.71869 0.12817
 C472 C 0.03735 0.69224 0.10491
 H473 H 0.05332 0.68602 0.10607
 N474 N 0.01154 0.71877 0.11654
 C475 C -0.02498 0.75129 0.16790
 H476 H -0.01691 0.76812 0.16790
 C477 C -0.04188 0.74625 0.18248
 H478 H -0.04632 0.75935 0.19376
 C479 C -0.02814 0.71381 0.15342
 H480 H -0.02264 0.70111 0.14225
 C481 C -0.04510 0.70802 0.16772
 H482 H -0.05261 0.69091 0.16723
 Zn483 Zn 0.00368 0.74410 0.13362
 N484 N -0.01875 0.73532 0.15345
 C485 C -0.02483 0.77623 0.11644
 N486 N -0.00512 0.76761 0.11440
 C487 C 0.00860 0.77519 0.09826
 C488 C 0.00296 0.79260 0.08373
 C489 C -0.03115 0.79363 0.10230
 C490 C 0.03423 0.74042 0.16578
 C491 C 0.05167 0.74701 0.17831
 C492 C 0.05377 0.78354 0.15876
 C493 C 0.03628 0.77622 0.14665
 N494 N 0.02710 0.75483 0.15012
 H495 H -0.03575 0.76964 0.12900
 H496 H 0.02409 0.76782 0.09683
 H497 H 0.01461 0.79833 0.07150
 H498 H -0.04689 0.80030 0.10442
 H499 H 0.02649 0.72357 0.16833
 H500 H 0.05699 0.73467 0.19014
 H501 H 0.06092 0.80059 0.15552
 H502 H 0.03013 0.78766 0.13446
 C503 C -0.05246 0.72442 0.18224
 C504 C 0.02265 0.68204 0.09076
 C505 C 0.06184 0.76893 0.17486
 C506 C -0.01725 0.80219 0.08564
 C507 C 0.49040 0.22859 0.58976
 H508 H 0.47750 0.24038 0.59026
 C509 C 0.49014 0.21076 0.57481
 H510 H 0.47690 0.20884 0.56388
 C511 C 0.52349 0.21707 0.60317
 H512 H 0.53660 0.21971 0.61406
 C513 C 0.52386 0.19898 0.58851
 H514 H 0.53705 0.18761 0.58893
 N515 N 0.50687 0.23137 0.60362
 C516 C 0.48234 0.26987 0.65834
 H517 H 0.49414 0.28395 0.65851
 C518 C 0.46587 0.26866 0.67389
 H519 H 0.46504 0.28191 0.68601
 C520 C 0.46917 0.23548 0.64231
 H521 H 0.47056 0.22253 0.63003
 C522 C 0.45245 0.23356 0.65759
 H523 H 0.44091 0.21936 0.65634
 Zn524 Zn 0.50660 0.25676 0.62260
 N525 N 0.48357 0.25356 0.64283
 C526 C 0.48653 0.29676 0.60768
 N527 N 0.50382 0.28367 0.60512
 C528 C 0.51848 0.28848 0.58902
 C529 C 0.51601 0.30708 0.57465
 C530 C 0.48341 0.31551 0.59373
 C531 C 0.53445 0.24075 0.65343
 C532 C 0.55183 0.24112 0.66719
 C533 C 0.56330 0.27810 0.65146
 C534 C 0.54566 0.27694 0.63791
 N535 N 0.53173 0.25842 0.63910
 H536 H 0.47480 0.29243 0.62028
 H537 H 0.53192 0.27758 0.58710
 H538 H 0.52782 0.31040 0.56181
 H539 H 0.46948 0.32534 0.59662
 H540 H 0.52291 0.22641 0.65431
 H541 H 0.55351 0.22681 0.67852
 H542 H 0.57376 0.29329 0.65017
 H543 H 0.54293 0.29107 0.62676
 C544 C 0.45073 0.25028 0.67376
 C545 C 0.50711 0.19582 0.57385
 C546 C 0.56658 0.25998 0.66651
 C547 C 0.49813 0.32078 0.57659
 C548 C 0.50879 0.72038 0.89699
 H549 H 0.52421 0.72924 0.89784
 C550 C 0.50408 0.70093 0.91022
 H551 H 0.51607 0.69531 0.92126
 C552 C 0.47418 0.71825 0.88241
 H553 H 0.46235 0.72531 0.87201
 C554 C 0.46883 0.69874 0.89526
 H555 H 0.45297 0.69085 0.89434
 N556 N 0.49396 0.72854 0.88332
 C557 C 0.52748 0.76891 0.83175
 H558 H 0.51876 0.78458 0.83251
 C559 C 0.54365 0.76691 0.81615
 H560 H 0.54733 0.78119 0.80493
 C561 C 0.53323 0.73133 0.84554
 H562 H 0.52910 0.71750 0.85701
 C563 C 0.54961 0.72862 0.83024
 H564 H 0.55808 0.71279 0.83068
 Zn565 Zn 0.50081 0.75594 0.86694
 N566 N 0.52274 0.75136 0.84618
 C567 C 0.52861 0.79060 0.88427
 N568 N 0.50953 0.77891 0.88667
 C569 C 0.49611 0.78303 0.90357
 C570 C 0.50125 0.80014 0.91845
 C571 C 0.53445 0.80786 0.89878
 C572 C 0.46915 0.75146 0.83585
 C573 C 0.45090 0.75693 0.82459
 C574 C 0.44900 0.79166 0.84548
 C575 C 0.46727 0.78546 0.85635
 N576 N 0.47665 0.76537 0.85173
 H577 H 0.53933 0.78669 0.87105
 H578 H 0.48123 0.77309 0.90534
 H579 H 0.49005 0.80260 0.93160
 H580 H 0.54964 0.81713 0.89635
 H581 H 0.47725 0.73587 0.83214
 H582 H 0.44567 0.74531 0.81210
 H583 H 0.44164 0.80760 0.84970
 H584 H 0.47381 0.79668 0.86856
 C585 C 0.55498 0.74660 0.81521
 C586 C 0.48384 0.68973 0.90934
 C587 C 0.44021 0.77716 0.82963
 C588 C 0.52060 0.81321 0.91600
 C589 C 0.17006 0.21418 0.23134
 C590 C 0.15237 0.22696 0.22649
 C591 C 0.13328 0.22692 0.24095
 C592 C 0.12040 0.24611 0.24070
 C593 C 0.10271 0.24695 0.25474
 C594 C 0.09738 0.22836 0.26912
 C595 C 0.11003 0.20899 0.26899
 C596 C 0.12768 0.20816 0.25498
 C597 C 0.07946 0.22873 0.28508
 C598 C 0.06263 0.24366 0.28360
 H599 H 0.15297 0.23833 0.21230
 H600 H 0.12435 0.26074 0.22999
 H601 H 0.09373 0.26244 0.25459
 H602 H 0.10623 0.19439 0.27980
 H603 H 0.13674 0.19271 0.25513
 H604 H 0.07982 0.21667 0.29866
 H605 H 0.17026 0.20406 0.24627
 H606 H 0.06220 0.25578 0.27008
 C607 C 0.67104 0.69909 0.74134
 C608 C 0.65720 0.71703 0.73834
 C609 C 0.63746 0.71885 0.75157
 C610 C 0.62990 0.74073 0.75588
 C611 C 0.61189 0.74312 0.76920
 C612 C 0.60081 0.72351 0.77823
 C613 C 0.60810 0.70160 0.77332
 C614 C 0.62617 0.69925 0.76013
 C615 C 0.58212 0.72487 0.79325
 C616 C 0.57265 0.74537 0.79900
 H617 H 0.66187 0.73120 0.72732
 H618 H 0.63827 0.75608 0.74936
 H619 H 0.60713 0.76039 0.77249
 H620 H 0.59986 0.68617 0.77986
 H621 H 0.63117 0.68207 0.75660
 H622 H 0.57554 0.70873 0.79996
 H623 H 0.66739 0.68588 0.75365
 H624 H 0.57796 0.76141 0.79113
 C625 C 0.32879 0.78237 0.74049
 C626 C 0.33504 0.79513 0.75842
 C627 C 0.35339 0.78859 0.77155
 C628 C 0.36637 0.80581 0.78086
 C629 C 0.38465 0.80004 0.79207
 C630 C 0.39000 0.77680 0.79452
 C631 C 0.37660 0.75960 0.78574
 C632 C 0.35845 0.76537 0.77449
 C633 C 0.40971 0.76970 0.80519
 C634 C 0.42132 0.78355 0.81955
 H635 H 0.32747 0.81116 0.76181
 H636 H 0.36275 0.82381 0.77882
 H637 H 0.39475 0.81390 0.79814
 H638 H 0.38025 0.74157 0.78748
 H639 H 0.34841 0.75160 0.76810
 H640 H 0.41437 0.75234 0.80217
 H641 H 0.33771 0.76758 0.73589
 H642 H 0.41497 0.79992 0.82393
 C643 C -0.17744 0.27618 0.21901
 C644 C -0.16892 0.28909 0.23600
 C645 C -0.14959 0.28273 0.24773
 C646 C -0.14676 0.29051 0.26898
 C647 C -0.12889 0.28462 0.28074
 C648 C -0.11325 0.27108 0.27128
 C649 C -0.11603 0.26343 0.24998
 C650 C -0.13391 0.26929 0.23824
 C651 C -0.09426 0.26402 0.28325
 C652 C -0.08591 0.27627 0.30079
 H653 H -0.17743 0.30367 0.24190
 H654 H -0.15863 0.30085 0.27667
 H655 H -0.12772 0.29030 0.29733
 H656 H -0.10422 0.25300 0.24231
 H657 H -0.13517 0.26350 0.22169
 H658 H -0.08624 0.24936 0.27702
 H659 H -0.16975 0.26077 0.21393
 H660 H -0.09327 0.29214 0.30510
 C661 C -0.16821 0.72383 0.27378
 C662 C -0.16043 0.71049 0.25714
 C663 C -0.14042 0.71655 0.24500
 C664 C -0.13357 0.70179 0.22871
 C665 C -0.11492 0.70706 0.21666
 C666 C -0.10260 0.72724 0.22075
 C667 C -0.10955 0.74211 0.23694
 C668 C -0.12821 0.73680 0.24903
 C669 C -0.08308 0.73385 0.20785
 C670 C -0.07103 0.71798 0.19663
 H671 H -0.16941 0.69496 0.25283
 H672 H -0.14281 0.68620 0.22515
 H673 H -0.11058 0.69554 0.20385
 H674 H -0.10048 0.75788 0.24025
 H675 H -0.13311 0.74862 0.26141
 H676 H -0.07824 0.75193 0.20737
 H677 H -0.17982 0.72003 0.28034
 H678 H -0.07574 0.69986 0.19781
 C679 C 0.33247 0.20728 0.75250
 C680 C 0.34842 0.22418 0.75502
 C681 C 0.36725 0.22546 0.74015
 C682 C 0.38212 0.24406 0.74132
 C683 C 0.39984 0.24569 0.72716
 C684 C 0.40300 0.22864 0.71154
 C685 C 0.38834 0.20985 0.71071
 C686 C 0.37064 0.20829 0.72474
 C687 C 0.42136 0.22944 0.69605
 C688 C 0.43318 0.24957 0.69021
 H689 H 0.34698 0.23674 0.76776
 H690 H 0.37999 0.25739 0.75317
 H691 H 0.41108 0.26011 0.72880
 H692 H 0.39047 0.19639 0.69899
 H693 H 0.35966 0.19355 0.72345
 H694 H 0.42516 0.21342 0.68845
 H695 H 0.32232 0.20680 0.76087
 H696 H 0.42966 0.26558 0.69797
 C697 C 0.68143 0.29286 0.74994
 C698 C 0.66387 0.27741 0.74901
 C699 C 0.64771 0.27784 0.73175
 C700 C 0.62801 0.26615 0.73569
 C701 C 0.61228 0.26587 0.71995
 C702 C 0.61602 0.27704 0.69966
 C703 C 0.63566 0.28885 0.69573
 C704 C 0.65143 0.28915 0.71151
 C705 C 0.59960 0.27729 0.68265
 C706 C 0.58345 0.26003 0.68129
 H707 H 0.66129 0.26482 0.76212
 H708 H 0.62468 0.25739 0.75116
 H709 H 0.59711 0.25726 0.72396
 H710 H 0.63892 0.29766 0.68028
 H711 H 0.66652 0.29794 0.70758
 H712 H 0.60104 0.29106 0.67060
 H713 H 0.68390 0.30639 0.73774
 H714 H 0.58403 0.24541 0.69243
 C715 C 0.17319 0.78277 0.26603
 C716 C 0.16507 0.79470 0.24831
 C717 C 0.14532 0.78711 0.23722
 C718 C 0.14196 0.79503 0.21591
 C719 C 0.12362 0.78806 0.20485
 C720 C 0.10810 0.77320 0.21505
 C721 C 0.11139 0.76544 0.23640
 C722 C 0.12967 0.77244 0.24747
 C723 C 0.08875 0.76476 0.20379
 C724 C 0.07976 0.77676 0.18648
 H725 H 0.17391 0.80978 0.24182
 H726 H 0.15373 0.80636 0.20766
 H727 H 0.12197 0.79393 0.18820
 H728 H 0.09967 0.75403 0.24464
 H729 H 0.13122 0.76651 0.26410
 H730 H 0.08102 0.74914 0.21035
 H731 H 0.16533 0.76692 0.27198
 H732 H 0.08683 0.79352 0.18195
 C733 C 0.24119 0.18707 0.21879
 C734 C 0.25829 0.18123 0.20555
 C735 C 0.27426 0.16505 0.21325
 C736 C 0.28335 0.14994 0.19855
 C737 C 0.29720 0.13326 0.20579
 C738 C 0.30255 0.13171 0.22791
 C739 C 0.29398 0.14743 0.24241
 C740 C 0.28006 0.16396 0.23520
 C741 C 0.31607 0.11353 0.23681
 C742 C 0.32831 0.09917 0.22408
 H743 H 0.25878 0.18674 0.18861
 H744 H 0.27914 0.15050 0.18156
 H745 H 0.30307 0.12133 0.19405
 H746 H 0.29789 0.14677 0.25949
 H747 H 0.27382 0.17582 0.24685
 H748 H 0.31668 0.11179 0.25432
 H749 H 0.23958 0.17971 0.23506
 H750 H 0.32969 0.10233 0.20673
 C751 C 0.74019 0.66459 0.73387
 C752 C 0.76054 0.66330 0.72462
 C753 C 0.77618 0.64632 0.73154
 C754 C 0.79344 0.64220 0.71757
 C755 C 0.80850 0.62619 0.72327
 C756 C 0.80658 0.61388 0.74319
 C757 C 0.78968 0.61853 0.75745
 C758 C 0.77463 0.63455 0.75175
 C759 C 0.82179 0.59630 0.74985
 C760 C 0.83549 0.58560 0.73538
 H761 H 0.76503 0.67476 0.71106
 H762 H 0.79523 0.65133 0.70208
 H763 H 0.82163 0.62384 0.71208
 H764 H 0.78800 0.60959 0.77304
 H765 H 0.76205 0.63777 0.76337
 H766 H 0.82156 0.59113 0.76683
 H767 H 0.73484 0.65272 0.74675
 H768 H 0.83613 0.59091 0.71845
 C769 C 0.74404 0.32396 0.78598
 C770 C 0.74784 0.34163 0.77048
 C771 C 0.76599 0.35867 0.77160
 C772 C 0.76477 0.37991 0.76052
 C773 C 0.78150 0.39649 0.76127
 C774 C 0.80000 0.39198 0.77291
 C775 C 0.80124 0.37071 0.78393
 C776 C 0.78454 0.35414 0.78315
 C777 C 0.81795 0.40919 0.77442
 C778 C 0.82236 0.42633 0.75846
 H779 H 0.73665 0.34373 0.75747
 H780 H 0.75068 0.38385 0.75151
 H781 H 0.77963 0.41292 0.75309
 H782 H 0.81531 0.36680 0.79298
 H783 H 0.78647 0.33774 0.79136
 H784 H 0.82841 0.40720 0.78799
 H785 H 0.75442 0.32265 0.79975
 H786 H 0.81268 0.42609 0.74408
 C787 C 0.23359 -0.16355 0.27419
 C788 C 0.25199 -0.15553 0.28464
 C789 C 0.26498 -0.13456 0.27801
 C790 C 0.28466 -0.13063 0.28801
 C791 C 0.29739 -0.11095 0.28284
 C792 C 0.29062 -0.09454 0.26764
 C793 C 0.27115 -0.09860 0.25732
 C794 C 0.25834 -0.11829 0.26253
 C795 C 0.30373 -0.07342 0.26192
 C796 C 0.31777 -0.06306 0.27661
 H797 H 0.25749 -0.16535 0.29845
 H798 H 0.29029 -0.14290 0.29986
 H799 H 0.31265 -0.10889 0.29057
 H800 H 0.26565 -0.08629 0.24543
 H801 H 0.24325 -0.12035 0.25457
 H802 H 0.30119 -0.06551 0.24620
 H803 H 0.22807 -0.15453 0.25997
 H804 H 0.31794 -0.07035 0.29294
 C805 C 0.26770 -0.17239 0.72414
 C806 C 0.25048 -0.16634 0.71142
 C807 C 0.23508 -0.14877 0.71763
 C808 C 0.22191 -0.13993 0.70158
 C809 C 0.20699 -0.12354 0.70666
 C810 C 0.20489 -0.11557 0.72805
 C811 C 0.21779 -0.12475 0.74418
 C812 C 0.23269 -0.14117 0.73910
 C813 C 0.18929 -0.09822 0.73443
 C814 C 0.17838 -0.08462 0.71966
 H815 H 0.24835 -0.17446 0.69583
 H816 H 0.22317 -0.14573 0.68499
 H817 H 0.19705 -0.11759 0.69375
 H818 H 0.21634 -0.11922 0.76084
 H819 H 0.24194 -0.14805 0.75217
 H820 H 0.18647 -0.09610 0.75165
 H821 H 0.27068 -0.16366 0.73922
 H822 H 0.18071 -0.08684 0.70241
 C823 C 0.76297 0.32583 0.21073
 C824 C 0.74109 0.32700 0.20813
 C825 C 0.72941 0.34757 0.21399
 C826 C 0.70915 0.34479 0.22378
 C827 C 0.69756 0.36405 0.22901
 C828 C 0.70585 0.38638 0.22393
 C829 C 0.72593 0.38915 0.21372
 C830 C 0.73779 0.36991 0.20906
 C831 C 0.69330 0.40678 0.22818
 C832 C 0.68117 0.40870 0.24718
 H833 H 0.73204 0.31186 0.20295
 H834 H 0.70234 0.32769 0.22748
 H835 H 0.68190 0.36147 0.23647
 H836 H 0.73246 0.40623 0.20945
 H837 H 0.75322 0.37244 0.20109
 H838 H 0.69440 0.42107 0.21657
 H839 H 0.77173 0.33982 0.21842
 H840 H 0.68246 0.39597 0.26015
 C841 C 0.76481 0.67035 0.28338
 C842 C 0.74568 0.66279 0.29356
 C843 C 0.73268 0.64234 0.28676
 C844 C 0.71171 0.63944 0.29484
 C845 C 0.69891 0.62030 0.28921
 C846 C 0.70695 0.60345 0.27550
 C847 C 0.72782 0.60642 0.26722
 C848 C 0.74065 0.62553 0.27290
 C849 C 0.69394 0.58286 0.26925
 C850 C 0.67761 0.57306 0.28265
 H851 H 0.73963 0.67267 0.30694
 H852 H 0.70513 0.65214 0.30546
 H853 H 0.68268 0.61900 0.29538
 H854 H 0.73438 0.59371 0.25659
 H855 H 0.75683 0.62667 0.26665
 H856 H 0.69859 0.57459 0.25442
 H857 H 0.77087 0.66157 0.26937
 H858 H 0.67508 0.58071 0.29837
 C859 C 0.26399 0.16456 0.76902
 C860 C 0.24533 0.15860 0.78083
 C861 C 0.23048 0.13974 0.77413
 C862 C 0.21849 0.12711 0.79003
 C863 C 0.20477 0.10878 0.78420
 C864 C 0.20243 0.10305 0.76218
 C865 C 0.21420 0.11599 0.74630
 C866 C 0.22800 0.13419 0.75215
 C867 C 0.18857 0.08341 0.75504
 C868 C 0.17234 0.07275 0.76803
 H869 H 0.24209 0.16700 0.79606
 H870 H 0.22014 0.13109 0.80707
 H871 H 0.19651 0.09896 0.79708
 H872 H 0.21270 0.11204 0.72924
 H873 H 0.23650 0.14401 0.73939
 H874 H 0.19122 0.07786 0.73861
 H875 H 0.26796 0.15476 0.75480
 H876 H 0.16928 0.07976 0.78390
 C877 C 0.20990 0.23996 0.16535
 C878 C 0.22859 0.24289 0.15284
 C879 C 0.23023 0.25781 0.13301
 C880 C 0.25016 0.26764 0.12661
 C881 C 0.25225 0.28227 0.10830
 C882 C 0.23440 0.28704 0.09571
 C883 C 0.21453 0.27690 0.10197
 C884 C 0.21244 0.26238 0.12033
 C885 C 0.23558 0.30295 0.07649
 C886 C 0.25458 0.31011 0.06574
 H887 H 0.24295 0.23523 0.15856
 H888 H 0.26411 0.26437 0.13610
 H889 H 0.26778 0.29008 0.10449
 H890 H 0.20052 0.28020 0.09258
 H891 H 0.19692 0.25460 0.12435
 H892 H 0.22065 0.30851 0.07019
 H893 H 0.19585 0.24892 0.16077
 H894 H 0.26930 0.30271 0.07061
 C895 C 0.72235 0.72763 0.68435
 C896 C 0.70819 0.74229 0.67448
 C897 C 0.71443 0.75736 0.65555
 C898 C 0.69890 0.76360 0.64071
 C899 C 0.70440 0.77739 0.62241
 C900 C 0.72558 0.78557 0.61882
 C901 C 0.74103 0.77953 0.63385
 C902 C 0.73555 0.76570 0.65207
 C903 C 0.73239 0.79998 0.59957
 C904 C 0.71843 0.81197 0.58651
 H905 H 0.69168 0.74165 0.67990
 H906 H 0.68252 0.75741 0.64306
 H907 H 0.69205 0.78113 0.61103
 H908 H 0.75744 0.78565 0.63156
 H909 H 0.74786 0.76184 0.66349
 H910 H 0.74933 0.80227 0.59643
 H911 H 0.73841 0.72669 0.67789
 H912 H 0.70169 0.81177 0.59090
 C913 C 0.77381 0.73444 0.33353
 C914 C 0.78467 0.75368 0.34189
 C915 C 0.77709 0.76654 0.36098
 C916 C 0.79168 0.78104 0.37174
 C917 C 0.78533 0.79346 0.38983
 C918 C 0.76409 0.79174 0.39750
 C919 C 0.74941 0.77750 0.38659
 C920 C 0.75578 0.76507 0.36848
 C921 C 0.75688 0.80455 0.41669
 C922 C 0.77070 0.81907 0.42796
 H923 H 0.79994 0.75908 0.33465
 H924 H 0.80814 0.78265 0.36623
 H925 H 0.79709 0.80436 0.39778
 H926 H 0.73291 0.77602 0.39203
 H927 H 0.74385 0.75468 0.36031
 H928 H 0.74037 0.80245 0.42199
 H929 H 0.75907 0.72791 0.34109
 H930 H 0.76600 0.82570 0.43850
 C931 C 0.28254 0.22692 -0.18312
 C932 C 0.29470 0.24618 -0.17661
 C933 C 0.28895 0.26031 -0.15763
 C934 C 0.30452 0.27529 -0.14885
 C935 C 0.29975 0.28878 -0.13090
 C936 C 0.27922 0.28757 -0.12137
 C937 C 0.26360 0.27286 -0.13030
 C938 C 0.26831 0.25951 -0.14829
 C939 C 0.27356 0.30123 -0.10218
 C940 C 0.28729 0.31804 -0.09375
 H941 H 0.30936 0.25079 -0.18545
 H942 H 0.32048 0.27644 -0.15581
 H943 H 0.31217 0.30000 -0.12443
 H944 H 0.24760 0.27180 -0.12341
 H945 H 0.25555 0.24892 -0.15488
 H946 H 0.25791 0.29816 -0.09478
 H947 H 0.26841 0.22128 -0.17396
 H948 H 0.28350 0.32511 -0.08310
 C949 C 0.70621 0.25705 -0.18255
 C950 C 0.71907 0.25729 -0.16427
 C951 C 0.71819 0.23919 -0.14695
 C952 C 0.72723 0.24435 -0.12684
 C953 C 0.72778 0.22756 -0.11032
 C954 C 0.71958 0.20502 -0.11371
 C955 C 0.71012 0.19998 -0.13365
 C956 C 0.70951 0.21682 -0.15018
 C957 C 0.72063 0.18651 -0.09687
 C958 C 0.73589 0.18681 -0.08060
 H959 H 0.73018 0.27182 -0.16224
 H960 H 0.73392 0.26148 -0.12388
 H961 H 0.73451 0.23243 -0.09494
 H962 H 0.70360 0.18278 -0.13664
 H963 H 0.70277 0.21200 -0.16557
 H964 H 0.71006 0.17149 -0.09844
 H965 H 0.69393 0.24367 -0.18434
 H966 H 0.74788 0.20071 -0.08068
 C967 C 0.22297 0.77228 0.32530
 C968 C 0.21231 0.75186 0.33239
 C969 C 0.21773 0.73883 0.35233
 C970 C 0.21074 0.71562 0.35453
 C971 C 0.21489 0.70284 0.37336
 C972 C 0.22588 0.71319 0.39060
 C973 C 0.23306 0.73634 0.38831
 C974 C 0.22895 0.74910 0.36945
 C975 C 0.23040 0.70046 0.41101
 C976 C 0.21895 0.68048 0.41811
 H977 H 0.19959 0.74472 0.32260
 H978 H 0.20211 0.70728 0.34156
 H979 H 0.20965 0.68487 0.37413
 H980 H 0.24159 0.74471 0.40131
 H981 H 0.23417 0.76707 0.36866
 H982 H 0.24229 0.70811 0.42144
 H983 H 0.23665 0.77900 0.33391
 H984 H 0.20549 0.67429 0.40886
 C985 C 0.29071 0.76923 0.67380
 C986 C 0.27507 0.77300 0.65848
 C987 C 0.27344 0.75918 0.63853
 C988 C 0.25355 0.75557 0.62892
 C989 C 0.25139 0.74127 0.61094
 C990 C 0.26920 0.73049 0.60220
 C991 C 0.28921 0.73492 0.61125
 C992 C 0.29137 0.74923 0.62911
 C993 C 0.26742 0.71386 0.58437
 C994 C 0.24847 0.70930 0.57373
 H995 H 0.26297 0.78530 0.66184
 H996 H 0.23956 0.76327 0.63571
 H997 H 0.23574 0.73829 0.60425
 H998 H 0.30321 0.72707 0.60464
 H999 H 0.30712 0.75240 0.63547
 H1000 H 0.28141 0.70457 0.57992
 H1001 H 0.30187 0.75578 0.67129
 H1002 H 0.24790 0.69907 0.56484
 C1003 C 0.76919 0.25766 0.16569
 C1004 C 0.77985 0.23849 0.15847
 C1005 C 0.77291 0.22428 0.13990
 C1006 C 0.78762 0.20986 0.13023
 C1007 C 0.78200 0.19653 0.11238
 C1008 C 0.76143 0.19726 0.10387
 C1009 C 0.74657 0.21132 0.11377
 C1010 C 0.75218 0.22463 0.13166
 C1011 C 0.75512 0.18383 0.08466
 C1012 C 0.76893 0.16911 0.07454
 H1013 H 0.79469 0.23437 0.16604
 H1014 H 0.80364 0.20912 0.13633
 H1015 H 0.79385 0.18582 0.10520
 H1016 H 0.73056 0.21202 0.10765
 H1017 H 0.74011 0.23491 0.13897
 H1018 H 0.73930 0.18575 0.07833
 H1019 H 0.75483 0.26286 0.15791
 H1020 H 0.76497 0.16234 0.06375
 C1021 C 0.44858 0.43861 0.49501
 C1022 C 0.46637 0.42495 0.49576
 C1023 C 0.46902 0.40642 0.51228
 C1024 C 0.48958 0.39920 0.51661
 C1025 C 0.49277 0.38178 0.53210
 C1026 C 0.47533 0.37094 0.54336
 C1027 C 0.45477 0.37813 0.53896
 C1028 C 0.45159 0.39556 0.52351
 C1029 C 0.47781 0.35255 0.56009
 C1030 C 0.49564 0.33882 0.56126
 H1031 H 0.47943 0.42866 0.48433
 H1032 H 0.50328 0.40730 0.50819
 H1033 H 0.50892 0.37726 0.53540
 H1034 H 0.44104 0.37007 0.54736
 H1035 H 0.43544 0.40012 0.52024
 H1036 H 0.46430 0.34912 0.57089
 H1037 H 0.43597 0.43628 0.50713
 H1038 H 0.50807 0.34157 0.54898
 C1039 C -0.03169 0.91261 -0.01880
 C1040 C -0.04187 0.90451 0.00035
 C1041 C -0.03413 0.88522 0.01381
 C1042 C -0.04122 0.88283 0.03552
 C1043 C -0.03438 0.86486 0.04877
 C1044 C -0.02046 0.84866 0.04044
 C1045 C -0.01333 0.85106 0.01875
 C1046 C -0.02020 0.86900 0.00549
 C1047 C -0.01263 0.82951 0.05397
 C1048 C -0.02413 0.82000 0.07191
 H1049 H -0.05577 0.91315 0.00617
 H1050 H -0.05192 0.89510 0.04235
 H1051 H -0.03972 0.86403 0.06559
 H1052 H -0.00260 0.83882 0.01195
 H1053 H -0.01479 0.86974 -0.01129
 H1054 H 0.00203 0.82217 0.04863
 H1055 H -0.01712 0.90517 -0.02435
 H1056 H -0.03975 0.82648 0.07525
 C1057 C 0.03445 0.56814 -0.00926
 C1058 C 0.04510 0.57671 0.00885
 C1059 C 0.03774 0.59634 0.02171
 C1060 C 0.04484 0.59876 0.04306
 C1061 C 0.03857 0.61718 0.05569
 C1062 C 0.02529 0.63388 0.04705
 C1063 C 0.01811 0.63139 0.02572
 C1064 C 0.02434 0.61294 0.01311
 C1065 C 0.01833 0.65377 0.05981
 C1066 C 0.02927 0.66214 0.07781
 H1067 H 0.05907 0.56816 0.01445
 H1068 H 0.05512 0.58620 0.05010
 H1069 H 0.04394 0.61797 0.07225
 H1070 H 0.00785 0.64397 0.01867
 H1071 H 0.01894 0.61208 -0.00345
 H1072 H 0.00483 0.66284 0.05391
 H1073 H 0.01976 0.57563 -0.01417
 H1074 H 0.04407 0.65453 0.08215
 C1075 C 0.54469 0.07767 0.48712
 C1076 C 0.52716 0.09152 0.48934
 C1077 C 0.52665 0.11085 0.50473
 C1078 C 0.50700 0.11747 0.51321
 C1079 C 0.50601 0.13533 0.52814
 C1080 C 0.52474 0.14725 0.53460
 C1081 C 0.54434 0.14079 0.52582
 C1082 C 0.54532 0.12288 0.51101
 C1083 C 0.52477 0.16600 0.55071
 C1084 C 0.50660 0.17712 0.55771
 H1085 H 0.51284 0.08719 0.48051
 H1086 H 0.49239 0.10848 0.50859
 H1087 H 0.49059 0.13931 0.53474
 H1088 H 0.55901 0.14968 0.53040
 H1089 H 0.56071 0.11875 0.50434
 H1090 H 0.54012 0.17189 0.55660
 H1091 H 0.55843 0.08060 0.49720
 H1092 H 0.49150 0.17302 0.55030
 C1093 C -0.02427 0.08081 0.50965
 C1094 C -0.03481 0.08565 0.49041
 C1095 C -0.02829 0.10471 0.47507
 C1096 C -0.03549 0.10384 0.45363
 C1097 C -0.03038 0.12181 0.43878
 C1098 C -0.01820 0.14130 0.44520
 C1099 C -0.01077 0.14203 0.46657
 C1100 C -0.01583 0.12402 0.48141
 C1101 C -0.01285 0.16104 0.43017
 C1102 C -0.02456 0.16596 0.41166
 H1103 H -0.04826 0.07455 0.48601
 H1104 H -0.04506 0.08913 0.44831
 H1105 H -0.03585 0.12016 0.42230
 H1106 H -0.00132 0.15681 0.47193
 H1107 H -0.01038 0.12563 0.49790
 H1108 H -0.00019 0.17299 0.43487
 H1109 H -0.00992 0.09055 0.51374
 H1110 H -0.03866 0.15541 0.40833
 C1111 C 0.48367 0.57636 1.01302
 C1112 C 0.46945 0.58259 0.99700
 C1113 C 0.47504 0.60069 0.98036
 C1114 C 0.45902 0.61431 0.97211
 C1115 C 0.46400 0.63232 0.95721
 C1116 C 0.48518 0.63675 0.94991
 C1117 C 0.50107 0.62265 0.95779
 C1118 C 0.49610 0.60479 0.97278
 C1119 C 0.49162 0.65621 0.93486
 C1120 C 0.47735 0.66947 0.92336
 H1121 H 0.45328 0.57540 0.99772
 H1122 H 0.44267 0.61143 0.97768
 H1123 H 0.45122 0.64288 0.95198
 H1124 H 0.51748 0.62554 0.95242
 H1125 H 0.50877 0.59418 0.97829
 H1126 H 0.50851 0.65980 0.93251
 H1127 H 0.49921 0.58502 1.01352
 H1128 H 0.46058 0.66461 0.92403
 C1129 C 0.52492 0.91618 1.02423
 C1130 C 0.53781 0.91158 1.00622
 C1131 C 0.53161 0.89378 0.99035
 C1132 C 0.54747 0.88210 0.97924
 C1133 C 0.54201 0.86457 0.96479
 C1134 C 0.52048 0.85872 0.96091
 C1135 C 0.50468 0.87078 0.97171
 C1136 C 0.51013 0.88821 0.98614
 C1137 C 0.51373 0.83975 0.94644
 C1138 C 0.52671 0.83120 0.92995
 H1139 H 0.55336 0.92019 1.00435
 H1140 H 0.56413 0.88614 0.98218
 H1141 H 0.55469 0.85536 0.95722
 H1142 H 0.48799 0.86672 0.96894
 H1143 H 0.49747 0.89738 0.99382
 H1144 H 0.49743 0.83343 0.94841
 H1145 H 0.51017 0.90617 1.02691
 H1146 H 0.54224 0.83954 0.92711
 C1147 C 0.01940 0.40891 0.51402
 C1148 C 0.02974 0.40533 0.49413
 C1149 C 0.02295 0.38694 0.47913
 C1150 C 0.03807 0.37801 0.46489
 C1151 C 0.03225 0.36067 0.45044
 C1152 C 0.01097 0.35223 0.44960
 C1153 C -0.00414 0.36127 0.46383
 C1154 C 0.00172 0.37850 0.47838
 C1155 C 0.00394 0.33378 0.43465
 C1156 C 0.01559 0.32773 0.41611
 H1157 H 0.04401 0.41560 0.48977
 H1158 H 0.05454 0.38423 0.46520
 H1159 H 0.04462 0.35377 0.44034
 H1160 H -0.02063 0.35512 0.46356
 H1161 H -0.01050 0.38541 0.48870
 H1162 H -0.01137 0.32545 0.43835
 H1163 H 0.00614 0.39752 0.51916
 H1164 H 0.03025 0.33745 0.41226
 C1165 C 0.40941 0.50345 0.46552
 C1166 C 0.39277 0.50072 0.48079
 C1167 C 0.37419 0.51568 0.48101
 C1168 C 0.36207 0.51731 0.50025
 C1169 C 0.34454 0.53141 0.50112
 C1170 C 0.33869 0.54419 0.48260
 C1171 C 0.35058 0.54207 0.46325
 C1172 C 0.36803 0.52796 0.46239
 C1173 C 0.32046 0.55976 0.48236
 C1174 C 0.30819 0.56519 0.50071
 H1175 H 0.39372 0.48766 0.49351
 H1176 H 0.36629 0.50777 0.51475
 H1177 H 0.33580 0.53199 0.51634
 H1178 H 0.34635 0.55138 0.44863
 H1179 H 0.37636 0.52654 0.44699
 H1180 H 0.31701 0.56733 0.46675
 H1181 H 0.40942 0.51732 0.45354
 H1182 H 0.31188 0.55731 0.51615
 C1183 C 0.91679 -0.02903 -0.03210
 C1184 C 0.90868 -0.01066 -0.04398
 C1185 C 0.88902 0.00104 -0.03775
 C1186 C 0.88598 0.02329 -0.04615
 C1187 C 0.86756 0.03490 -0.04097
 C1188 C 0.85156 0.02429 -0.02751
 C1189 C 0.85463 0.00206 -0.01904
 C1190 C 0.87307 -0.00954 -0.02420
 C1191 C 0.83188 0.03606 -0.02141
 C1192 C 0.82366 0.05393 -0.03397
 H1193 H 0.91749 -0.00389 -0.05816
 H1194 H 0.89803 0.03186 -0.05658
 H1195 H 0.86620 0.05229 -0.04725
 H1196 H 0.84258 -0.00648 -0.00859
 H1197 H 0.87451 -0.02688 -0.01783
 H1198 H 0.82347 0.02957 -0.00697
 H1199 H 0.90885 -0.03504 -0.01719
 H1200 H 0.83164 0.05843 -0.04929
 C1201 C 0.57239 -0.02269 0.05086
 C1202 C 0.58670 -0.02382 0.03331
 C1203 C 0.60611 -0.00859 0.03063
 C1204 C 0.61575 -0.00600 0.00993
 C1205 C 0.63399 0.00831 0.00663
 C1206 C 0.64304 0.02035 0.02407
 C1207 C 0.63371 0.01725 0.04488
 C1208 C 0.61548 0.00296 0.04817
 C1209 C 0.66229 0.03587 0.02153
 C1210 C 0.67010 0.04492 0.00158
 H1211 H 0.58307 -0.03575 0.02042
 H1212 H 0.60907 -0.01501 -0.00379
 H1213 H 0.64097 0.00950 -0.00954
 H1214 H 0.64052 0.02601 0.05868
 H1215 H 0.60906 0.00084 0.06454
 H1216 H 0.67038 0.04062 0.03625
 H1217 H 0.57497 -0.01006 0.06334
 H1218 H 0.66242 0.03998 -0.01329
 C1219 C 0.06579 0.47467 0.52988
 C1220 C 0.07417 0.49128 0.54380
 C1221 C 0.09220 0.50728 0.53737
 C1222 C 0.10552 0.51621 0.55349
 C1223 C 0.12294 0.53102 0.54792
 C1224 C 0.12713 0.53755 0.52605
 C1225 C 0.11361 0.52881 0.50999
 C1226 C 0.09628 0.51393 0.51556
 C1227 C 0.14561 0.55279 0.51916
 C1228 C 0.15724 0.56681 0.53329
 H1229 H 0.06813 0.49175 0.56039
 H1230 H 0.10268 0.51134 0.57041
 H1231 H 0.13319 0.53684 0.56079
 H1232 H 0.11642 0.53358 0.49304
 H1233 H 0.08601 0.50796 0.50274
 H1234 H 0.14951 0.55370 0.50196
 H1235 H 0.07279 0.47281 0.51385
 H1236 H 0.15200 0.56796 0.55006
 C1237 C 0.08691 0.51078 -0.02252
 C1238 C 0.09453 0.49200 -0.03375
 C1239 C 0.11477 0.48091 -0.02874
 C1240 C 0.11784 0.45854 -0.03617
 C1241 C 0.13680 0.44754 -0.03218
 C1242 C 0.15333 0.45887 -0.02091
 C1243 C 0.15021 0.48119 -0.01336
 C1244 C 0.13123 0.49219 -0.01732
 C1245 C 0.17372 0.44786 -0.01636
 C1246 C 0.18141 0.42974 -0.02853
 H1247 H 0.08488 0.48454 -0.04645
 H1248 H 0.10542 0.44944 -0.04495
 H1249 H 0.13822 0.43008 -0.03769
 H1250 H 0.16265 0.49029 -0.00460
 H1251 H 0.12978 0.50962 -0.01176
 H1252 H 0.18344 0.45526 -0.00374
 H1253 H 0.09553 0.51770 -0.00890
 H1254 H 0.17270 0.42415 -0.04262
 C1255 C 0.57879 1.00984 0.46110
 C1256 C 0.59567 1.01236 0.47547
 C1257 C 0.61320 0.99607 0.47669
 C1258 C 0.62481 0.99473 0.49590
 C1259 C 0.64130 0.97940 0.49785
 C1260 C 0.64675 0.96527 0.48041
 C1261 C 0.63523 0.96675 0.46114
 C1262 C 0.61874 0.98208 0.45920
 C1263 C 0.66373 0.94832 0.48187
 C1264 C 0.68006 0.94963 0.49698
 H1265 H 0.59557 1.02617 0.48710
 H1266 H 0.62086 1.00530 0.50962
 H1267 H 0.64928 0.97839 0.51322
 H1268 H 0.63911 0.95611 0.44745
 H1269 H 0.61065 0.98305 0.44387
 H1270 H 0.66318 0.93435 0.47049
 H1271 H 0.57813 0.99531 0.45032
 H1272 H 0.68072 0.96378 0.50817
 C1273 C 0.92334 1.02125 0.53119
 C1274 C 0.91478 1.00328 0.54450
 C1275 C 0.89424 0.99106 0.53997
 C1276 C 0.89050 0.96840 0.54789
 C1277 C 0.87149 0.95618 0.54341
 C1278 C 0.85568 0.96660 0.53114
 C1279 C 0.85930 0.98939 0.52356
 C1280 C 0.87826 1.00158 0.52804
 C1281 C 0.83573 0.95410 0.52504
 C1282 C 0.82693 0.93488 0.53662
 H1283 H 0.92385 0.99717 0.55812
 H1284 H 0.90253 0.95994 0.55717
 H1285 H 0.86956 0.93847 0.54910
 H1286 H 0.84737 0.99785 0.51414
 H1287 H 0.88017 1.01927 0.52229
 H1288 H 0.82743 0.96128 0.51146
 H1289 H 0.91499 1.02628 0.51673
 H1290 H 0.83448 0.92982 0.55156
 C1291 C 0.43487 0.51632 0.04595
 C1292 C 0.42133 0.51635 0.02819
 C1293 C 0.40213 0.50079 0.02678
 C1294 C 0.39425 0.49539 0.00621
 C1295 C 0.37654 0.48027 0.00416
 C1296 C 0.36606 0.47050 0.02275
 C1297 C 0.37378 0.47620 0.04332
 C1298 C 0.39151 0.49126 0.04537
 C1299 C 0.34778 0.45361 0.02144
 C1300 C 0.33494 0.45135 0.00312
 H1301 H 0.42568 0.52718 0.01414
 H1302 H 0.40213 0.50250 -0.00837
 H1303 H 0.37155 0.47590 -0.01203
 H1304 H 0.36603 0.46897 0.05792
 H1305 H 0.39666 0.49550 0.06154
 H1306 H 0.34425 0.44322 0.03588
 H1307 H 0.43159 0.50453 0.05952
 H1308 H 0.33778 0.46356 -0.01022
 C1309 C 0.47555 0.48264 0.43025
 C1310 C 0.49177 0.46764 0.42572
 C1311 C 0.50705 0.47193 0.40739
 C1312 C 0.51577 0.45317 0.39685
 C1313 C 0.52953 0.45675 0.37886
 C1314 C 0.53513 0.47930 0.37135
 C1315 C 0.52673 0.49802 0.38227
 C1316 C 0.51294 0.49443 0.40013
 C1317 C 0.54894 0.48422 0.35189
 C1318 C 0.56253 0.46832 0.34271
 H1319 H 0.49235 0.45153 0.43485
 H1320 H 0.51147 0.43568 0.40219
 H1321 H 0.53520 0.44180 0.37069
 H1322 H 0.53084 0.51556 0.37693
 H1323 H 0.50706 0.50933 0.40829
 H1324 H 0.54880 0.50160 0.34539
 H1325 H 0.47370 0.49773 0.41996
 H1326 H 0.56373 0.45174 0.35083
 C1327 C -0.02472 -0.03692 0.91658
 C1328 C -0.00651 -0.04773 0.90936
 C1329 C 0.00534 -0.04136 0.88895
 C1330 C 0.02608 -0.04904 0.88615
 C1331 C 0.03783 -0.04367 0.86711
 C1332 C 0.02893 -0.03070 0.85028
 C1333 C 0.00822 -0.02295 0.85308
 C1334 C -0.00355 -0.02835 0.87211
 C1335 C 0.04099 -0.02420 0.83004
 C1336 C 0.05773 -0.03699 0.82192
 H1337 H -0.00021 -0.06125 0.91948
 H1338 H 0.03333 -0.05904 0.89887
 H1339 H 0.05398 -0.04933 0.86590
 H1340 H 0.00103 -0.01288 0.84038
 H1341 H -0.01963 -0.02255 0.87329
 H1342 H 0.03562 -0.00944 0.82107
 H1343 H -0.03085 -0.02262 0.90746
 H1344 H 0.06098 -0.05304 0.83024
 C1345 C -0.01447 0.03384 0.57565
 C1346 C 0.00450 0.04587 0.58047
 C1347 C 0.01783 0.04042 0.59937
 C1348 C 0.01639 0.01892 0.61037
 C1349 C 0.02962 0.01440 0.62785
 C1350 C 0.04458 0.03130 0.63474
 C1351 C 0.04621 0.05258 0.62351
 C1352 C 0.03300 0.05709 0.60604
 C1353 C 0.05925 0.02726 0.65292
 C1354 C 0.05590 0.00990 0.66883
 H1355 H 0.00960 0.06052 0.57022
 H1356 H 0.00549 0.00528 0.60526
 H1357 H 0.02835 -0.00255 0.63545
 H1358 H 0.05772 0.06583 0.62829
 H1359 H 0.03463 0.07370 0.59773
 H1360 H 0.07318 0.03873 0.65373
 H1361 H -0.02063 0.01997 0.58624
 H1362 H 0.04203 -0.00165 0.66805
 C1363 C 0.50455 0.53924 0.08525
 C1364 C 0.50041 0.52499 0.10332
 C1365 C 0.51579 0.52327 0.12116
 C1366 C 0.51043 0.50942 0.13951
 C1367 C 0.52466 0.50744 0.15660
 C1368 C 0.54471 0.51916 0.15555
 C1369 C 0.54993 0.53324 0.13729
 C1370 C 0.53569 0.53525 0.12024
 C1371 C 0.56034 0.51763 0.17324
 C1372 C 0.56007 0.49959 0.18864
 H1373 H 0.48548 0.51499 0.10448
 H1374 H 0.49513 0.50020 0.14071
 H1375 H 0.51966 0.49703 0.17066
 H1376 H 0.56516 0.54261 0.13613
 H1377 H 0.54035 0.54616 0.10637
 H1378 H 0.57319 0.53057 0.17321
 H1379 H 0.49551 0.53990 0.07525
 H1380 H 0.54848 0.48545 0.18718
 C1381 C 0.50640 -0.04647 0.09046
 C1382 C 0.50961 -0.03045 0.10683
 C1383 C 0.49423 -0.02783 0.12507
 C1384 C 0.49401 -0.00678 0.13590
 C1385 C 0.47931 -0.00345 0.15276
 C1386 C 0.46467 -0.02133 0.15934
 C1387 C 0.46513 -0.04248 0.14872
 C1388 C 0.47983 -0.04581 0.13190
 C1389 C 0.44819 -0.01839 0.17647
 C1390 C 0.44974 -0.00163 0.19246
 H1391 H 0.52333 -0.01855 0.10565
 H1392 H 0.50496 0.00733 0.13097
 H1393 H 0.47917 0.01333 0.16010
 H1394 H 0.45408 -0.05655 0.15351
 H1395 H 0.47992 -0.06257 0.12451
 H1396 H 0.43436 -0.03004 0.17627
 H1397 H 0.49212 -0.05750 0.09061
 H1398 H 0.46373 0.00981 0.19273
 C1399 C 1.01001 0.44658 0.58236
 C1400 C 1.01339 0.46484 0.59648
 C1401 C 1.00105 0.46676 0.61702
 C1402 C 0.99721 0.48869 0.62508
 C1403 C 0.98477 0.49109 0.64392
 C1404 C 0.97623 0.47147 0.65533
 C1405 C 0.98065 0.44954 0.64755
 C1406 C 0.99295 0.44717 0.62865
 C1407 C 0.96193 0.47288 0.67468
 C1408 C 0.95807 0.49320 0.68570
 H1409 H 1.02429 0.47901 0.59161
 H1410 H 1.00338 0.50403 0.61643
 H1411 H 0.98158 0.50834 0.64901
 H1412 H 0.97441 0.43413 0.65602
 H1413 H 0.99615 0.42997 0.62329
 H1414 H 0.95423 0.45692 0.68055
 H1415 H 0.99788 0.43331 0.58623
 H1416 H 0.96734 0.50879 0.68158
 C1417 C 1.02465 0.51615 0.93079
 C1418 C 1.00565 0.52600 0.92477
 C1419 C 0.99297 0.51895 0.90570
 C1420 C 0.97220 0.52673 0.90399
 C1421 C 0.95981 0.52122 0.88603
 C1422 C 0.96807 0.50795 0.86918
 C1423 C 0.98868 0.49982 0.87104
 C1424 C 1.00110 0.50537 0.88899
 C1425 C 0.95564 0.50220 0.84962
 C1426 C 0.93993 0.51639 0.84157
 H1427 H 0.99948 0.53949 0.93477
 H1428 H 0.96547 0.53712 0.91665
 H1429 H 0.94374 0.52717 0.88558
 H1430 H 0.99539 0.48951 0.85831
 H1431 H 1.01712 0.49934 0.88934
 H1432 H 0.96039 0.48737 0.84066
 H1433 H 1.03080 0.50193 0.92185
 H1434 H 0.93721 0.53222 0.85005
 C1435 C 0.51291 0.03045 0.42914
 C1436 C 0.49717 0.04584 0.42405
 C1437 C 0.48132 0.04076 0.40711
 C1438 C 0.47357 0.05887 0.39451
 C1439 C 0.45974 0.05429 0.37737
 C1440 C 0.45311 0.03143 0.37283
 C1441 C 0.46033 0.01346 0.38600
 C1442 C 0.47418 0.01803 0.40300
 C1443 C 0.43986 0.02531 0.35391
 C1444 C 0.42787 0.04099 0.34220
 H1445 H 0.49757 0.06272 0.43132
 H1446 H 0.47880 0.07653 0.39744
 H1447 H 0.45494 0.06865 0.36742
 H1448 H 0.45541 -0.00429 0.38298
 H1449 H 0.47928 0.00370 0.41285
 H1450 H 0.43931 0.00733 0.34969
 H1451 H 0.51375 0.01447 0.42040
 H1452 H 0.42667 0.05824 0.34838
   
