data_POSCAR
  _audit_creation_date              2014-09-24
  _audit_creation_method            'ToBaCCo'
  _symmetry_space_group_name_H-M    'P1'
  _symmetry_Int_Tables_number       1
  _symmetry_cell_setting            triclinic
  loop_
  _symmetry_equiv_pos_as_xyz
 x,y,z
_cell_length_a 71.5546
_cell_length_b 71.4679
_cell_length_c 71.5496
_cell_angle_alpha 90.070200
_cell_angle_beta 90.059000
_cell_angle_gamma 90.047500
loop_
  _atom_site_label
  _atom_site_type_symbol
  _atom_site_fract_x
  _atom_site_fract_y
  _atom_site_fract_z
N1 N 0.30311 0.43370 0.89526
 N2 N 0.31601 0.44683 0.89554
 C3 C 0.31295 0.45871 0.88124
 C4 C 0.29729 0.45272 0.87160
 C5 C 0.29143 0.43679 0.88083
 H6 H 0.32142 0.47083 0.87803
 H7 H 0.27952 0.42815 0.87731
 Cu8 Cu 0.33533 0.44693 0.91477
 Cu9 Cu 0.30210 0.41378 0.91386
 Cu10 Cu 0.33651 0.41398 0.94809
 N11 N 0.35467 0.44704 0.93397
 N12 N 0.35505 0.43400 0.94693
 C13 C 0.36956 0.43721 0.95849
 C14 C 0.37875 0.45314 0.95249
 C15 C 0.36898 0.45900 0.93685
 H16 H 0.37315 0.42863 0.97042
 H17 H 0.37210 0.47105 0.92827
 N18 N 0.31653 0.39494 0.94692
 N19 N 0.30344 0.39488 0.93388
 C20 C 0.29166 0.38052 0.93708
 C21 C 0.29758 0.37119 0.95290
 C22 C 0.31340 0.38062 0.95875
 H23 H 0.27958 0.37712 0.92865
 H24 H 0.32188 0.37731 0.97082
 H25 H 0.31521 0.42836 0.93500
 H26 H 0.33037 0.41355 0.91982
 N27 N 0.43518 0.85444 0.44813
 N28 N 0.44819 0.85430 0.43515
 C29 C 0.46016 0.86854 0.43832
 C30 C 0.45433 0.87802 0.45416
 C31 C 0.43841 0.86874 0.45997
 H32 H 0.47220 0.87182 0.42978
 H33 H 0.42986 0.87211 0.47198
 Cu34 Cu 0.44805 0.83527 0.41561
 Cu35 Cu 0.41529 0.83579 0.44912
 Cu36 Cu 0.41506 0.80187 0.41439
 N37 N 0.44791 0.81621 0.39609
 N38 N 0.43484 0.80327 0.39570
 C39 C 0.43784 0.79182 0.38105
 C40 C 0.45366 0.79786 0.37180
 C41 C 0.45970 0.81339 0.38166
 H42 H 0.42920 0.77993 0.37741
 H43 H 0.47175 0.82196 0.37849
 N44 N 0.39628 0.80281 0.43455
 N45 N 0.39636 0.81573 0.44778
 C46 C 0.38220 0.81229 0.45971
 C47 C 0.37287 0.79644 0.45375
 C48 C 0.38207 0.79084 0.43774
 H49 H 0.37895 0.82058 0.47193
 H50 H 0.37870 0.77883 0.42917
 H51 H 0.42966 0.81475 0.43563
 H52 H 0.41475 0.83008 0.42075
 N53 N 0.93362 0.89525 0.80348
 N54 N 0.94672 0.89550 0.81639
 C55 C 0.95858 0.88116 0.81334
 C56 C 0.95259 0.87154 0.79765
 C57 C 0.93670 0.88080 0.79179
 H58 H 0.97067 0.87792 0.82182
 H59 H 0.92808 0.87730 0.77987
 Cu60 Cu 0.94682 0.91475 0.83571
 Cu61 Cu 0.91376 0.91389 0.80243
 Cu62 Cu 0.91393 0.94817 0.83683
 N63 N 0.94691 0.93398 0.85504
 N64 N 0.93390 0.94697 0.85541
 C65 C 0.93711 0.95855 0.86993
 C66 C 0.95300 0.95251 0.87913
 C67 C 0.95884 0.93684 0.86937
 H68 H 0.92854 0.97049 0.87351
 H69 H 0.97088 0.92824 0.87250
 N70 N 0.89494 0.94702 0.81680
 N71 N 0.89490 0.93396 0.80372
 C72 C 0.88058 0.93716 0.79191
 C73 C 0.87125 0.95301 0.79779
 C74 C 0.88064 0.95887 0.81363
 H75 H 0.87721 0.92871 0.77982
 H76 H 0.87732 0.97096 0.82210
 H77 H 0.92832 0.93505 0.81557
 H78 H 0.91349 0.91987 0.83070
 N79 N 0.43494 -0.10352 0.30195
 N80 N 0.44800 -0.10323 0.31489
 C81 C 0.45982 -0.11761 0.31200
 C82 C 0.45380 -0.12732 0.29640
 C83 C 0.43796 -0.11807 0.29041
 H84 H 0.47188 -0.12082 0.32052
 H85 H 0.42935 -0.12164 0.27849
 Cu86 Cu 0.44821 -0.08378 0.33390
 Cu87 Cu 0.41517 -0.08483 0.30069
 Cu88 Cu 0.41548 -0.05027 0.33482
 N89 N 0.44839 -0.06450 0.35307
 N90 N 0.43545 -0.05145 0.35331
 C91 C 0.43880 -0.03966 0.36759
 C92 C 0.45474 -0.04558 0.37669
 C93 C 0.46047 -0.06143 0.36721
 H94 H 0.43035 -0.02760 0.37106
 H95 H 0.47250 -0.06998 0.37040
 N96 N 0.39656 -0.05153 0.31484
 N97 N 0.39645 -0.06466 0.30184
 C98 C 0.38223 -0.06139 0.28995
 C99 C 0.37306 -0.04542 0.29572
 C100 C 0.38240 -0.03957 0.31156
 H101 H 0.37881 -0.06987 0.27790
 H102 H 0.37916 -0.02740 0.31995
 H103 H 0.42982 -0.06360 0.31368
 H104 H 0.41491 -0.07861 0.32896
 N105 N 0.80242 0.31554 0.35403
 N106 N 0.81528 0.30241 0.35373
 C107 C 0.81206 0.29033 0.36782
 C108 C 0.79629 0.29620 0.37731
 C109 C 0.79058 0.31226 0.36826
 H110 H 0.82047 0.27818 0.37099
 H111 H 0.77865 0.32087 0.37175
 Cu112 Cu 0.83471 0.30249 0.33472
 Cu113 Cu 0.80157 0.33561 0.33563
 Cu114 Cu 0.83616 0.33572 0.30169
 N115 N 0.85413 0.30256 0.31569
 N116 N 0.85460 0.31572 0.30287
 C117 C 0.86915 0.31261 0.29138
 C118 C 0.87824 0.29664 0.29728
 C119 C 0.86842 0.29062 0.31278
 H120 H 0.87284 0.32129 0.27956
 H121 H 0.87150 0.27848 0.32124
 N122 N 0.81623 0.35472 0.30287
 N123 N 0.80307 0.35469 0.31581
 C124 C 0.79135 0.36909 0.31262
 C125 C 0.79740 0.37852 0.29693
 C126 C 0.81322 0.36913 0.29113
 H127 H 0.77922 0.37243 0.32098
 H128 H 0.82179 0.37252 0.27917
 H129 H 0.81482 0.32123 0.31443
 H130 H 0.82990 0.33588 0.32985
 N131 N -0.18400 0.85530 0.80262
 N132 N -0.19714 0.85498 0.81547
 C133 C -0.20898 0.86935 0.81250
 C134 C -0.20293 0.87913 0.79694
 C135 C -0.18701 0.86986 0.79106
 H136 H -0.22107 0.87252 0.82098
 H137 H -0.17831 0.87341 0.77922
 Cu138 Cu -0.19741 0.83556 0.83458
 Cu139 Cu -0.16407 0.83667 0.80164
 Cu140 Cu -0.16452 0.80213 0.83572
 N141 N -0.19767 0.81613 0.85370
 N142 N -0.18467 0.80313 0.85403
 C143 C -0.18808 0.79131 0.86827
 C144 C -0.20411 0.79715 0.87730
 C145 C -0.20982 0.81297 0.86776
 H146 H -0.17960 0.77930 0.87178
 H147 H -0.22191 0.82148 0.87087
 N148 N -0.14533 0.80345 0.81597
 N149 N -0.14515 0.81659 0.80299
 C150 C -0.13066 0.81347 0.79138
 C151 C -0.12136 0.79761 0.79730
 C152 C -0.13096 0.79165 0.81294
 H153 H -0.12713 0.82200 0.77943
 H154 H -0.12772 0.77954 0.82137
 H155 H -0.17871 0.81539 0.81443
 H156 H -0.16403 0.83047 0.82986
 N157 N 0.94736 0.35480 0.43416
 N158 N 0.93419 0.35467 0.44698
 C159 C 0.93711 0.36900 0.45892
 C160 C 0.95296 0.37853 0.45325
 C161 C 0.95907 0.36918 0.43746
 H162 H 0.92846 0.37224 0.47089
 H163 H 0.97118 0.37254 0.42907
 Cu164 Cu 0.91506 0.33524 0.44692
 Cu165 Cu 0.94868 0.33606 0.41433
 Cu166 Cu 0.91466 0.30142 0.41445
 N167 N 0.89602 0.31571 0.44712
 N168 N 0.89605 0.30249 0.43431
 C169 C 0.88202 0.29043 0.43776
 C170 C 0.87276 0.29635 0.45363
 C171 C 0.88192 0.31247 0.45918
 H172 H 0.87885 0.27818 0.42946
 H173 H 0.87860 0.32106 0.47118
 N174 N 0.93464 0.30271 0.39554
 N175 N 0.94762 0.31587 0.39548
 C176 C 0.95934 0.31278 0.38107
 C177 C 0.95347 0.29691 0.37172
 C178 C 0.93777 0.29092 0.38118
 H179 H 0.97128 0.32137 0.37760
 H180 H 0.92933 0.27882 0.37782
 H181 H 0.92060 0.32969 0.41381
 H182 H 0.93570 0.31491 0.42904
 N183 N 0.44686 0.43400 0.85461
 N184 N 0.43383 0.44697 0.85449
 C185 C 0.43674 0.45875 0.86890
 C186 C 0.45248 0.45286 0.87840
 C187 C 0.45851 0.43710 0.86905
 H188 H 0.42821 0.47079 0.87219
 H189 H 0.47055 0.42862 0.87244
 Cu190 Cu 0.41478 0.44752 0.83514
 Cu191 Cu 0.44824 0.41444 0.83580
 Cu192 Cu 0.41398 0.41453 0.80164
 N193 N 0.39538 0.44710 0.81611
 N194 N 0.39517 0.43414 0.80305
 C195 C 0.38068 0.43726 0.79147
 C196 C 0.37138 0.45303 0.79757
 C197 C 0.38098 0.45891 0.81328
 H198 H 0.37722 0.42877 0.77942
 H199 H 0.37776 0.47093 0.82187
 N200 N 0.43417 0.39584 0.80252
 N201 N 0.44723 0.39583 0.81556
 C202 C 0.45925 0.38175 0.81217
 C203 C 0.45351 0.37256 0.79619
 C204 C 0.43754 0.38175 0.79047
 H205 H 0.47135 0.37843 0.82059
 H206 H 0.42911 0.37843 0.77836
 H207 H 0.43518 0.42927 0.81491
 H208 H 0.42004 0.41428 0.83002
 N209 N 0.80289 0.89587 0.93410
 N210 N 0.81589 0.89620 0.94709
 C211 C 0.81281 0.88213 0.95923
 C212 C 0.79697 0.87261 0.95355
 C213 C 0.79108 0.88161 0.93752
 H214 H 0.82134 0.87903 0.97132
 H215 H 0.77904 0.87810 0.92906
 Cu216 Cu 0.83526 0.91524 0.94685
 Cu217 Cu 0.80187 0.91427 0.91404
 Cu218 Cu 0.83646 0.94834 0.91360
 N219 N 0.85462 0.93427 0.94659
 N220 N 0.85502 0.94714 0.93347
 C221 C 0.86959 0.95865 0.93654
 C222 C 0.87873 0.95270 0.95245
 C223 C 0.86897 0.93716 0.95845
 H224 H 0.87323 0.97051 0.92790
 H225 H 0.87211 0.92868 0.97056
 N226 N 0.81636 0.94707 0.89481
 N227 N 0.80321 0.93409 0.89496
 C228 C 0.79136 0.93722 0.88067
 C229 C 0.79731 0.95292 0.87118
 C230 C 0.81321 0.95879 0.88042
 H231 H 0.77921 0.92881 0.87743
 H232 H 0.82174 0.97079 0.87694
 H233 H 0.83030 0.92020 0.91352
 H234 H 0.81533 0.93564 0.92827
 N235 N 0.30251 0.85395 0.31502
 N236 N 0.31567 0.85383 0.30219
 C237 C 0.31254 0.86789 0.29007
 C238 C 0.29650 0.87712 0.29555
 C239 C 0.29054 0.86801 0.31146
 H240 H 0.32116 0.87117 0.27811
 H241 H 0.27835 0.87131 0.31974
 Cu242 Cu 0.33541 0.83513 0.30253
 Cu243 Cu 0.30134 0.83549 0.33491
 Cu244 Cu 0.33581 0.80153 0.33537
 N245 N 0.35444 0.81571 0.30275
 N246 N 0.35459 0.80270 0.31574
 C247 C 0.36904 0.79106 0.31266
 C248 C 0.37841 0.79710 0.29691
 C249 C 0.36886 0.81281 0.29101
 H250 H 0.37246 0.77906 0.32119
 H251 H 0.37220 0.82141 0.27903
 N252 N 0.31561 0.80263 0.35405
 N253 N 0.30249 0.81561 0.35387
 C254 C 0.29051 0.81241 0.36802
 C255 C 0.29633 0.79662 0.37745
 C256 C 0.31231 0.79082 0.36833
 H257 H 0.27837 0.82082 0.37121
 H258 H 0.32080 0.77881 0.37183
 H259 H 0.32960 0.82980 0.33565
 H260 H 0.31488 0.81462 0.32032
 N261 N 0.80259 0.39574 0.43450
 N262 N 0.81558 0.39612 0.44752
 C263 C 0.81254 0.38204 0.45965
 C264 C 0.79674 0.37247 0.45397
 C265 C 0.79083 0.38145 0.43793
 H266 H 0.82107 0.37897 0.47175
 H267 H 0.77881 0.37789 0.42946
 Cu268 Cu 0.83494 0.41520 0.44728
 Cu269 Cu 0.80152 0.41412 0.41442
 Cu270 Cu 0.83601 0.44828 0.41404
 N271 N 0.85422 0.43433 0.44705
 N272 N 0.85457 0.44716 0.43389
 C273 C 0.86905 0.45877 0.43695
 C274 C 0.87821 0.45293 0.45288
 C275 C 0.86854 0.43734 0.45892
 H276 H 0.87263 0.47063 0.42828
 H277 H 0.87171 0.42893 0.47107
 N278 N 0.81596 0.44696 0.39522
 N279 N 0.80283 0.43396 0.39533
 C280 C 0.79102 0.43709 0.38100
 C281 C 0.79699 0.45281 0.37154
 C282 C 0.81285 0.45869 0.38084
 H283 H 0.77889 0.42867 0.37771
 H284 H 0.82137 0.47070 0.37740
 H285 H 0.82992 0.42008 0.41395
 H286 H 0.81489 0.43549 0.42868
 N287 N 0.93425 0.85385 -0.05276
 N288 N 0.94725 0.85368 -0.06573
 C289 C 0.95907 0.86806 -0.06275
 C290 C 0.95314 0.87760 -0.04705
 C291 C 0.93734 0.86829 -0.04110
 H292 H 0.97109 0.87138 -0.07129
 H293 H 0.92879 0.87174 -0.02911
 Cu294 Cu 0.94731 0.83453 -0.08498
 Cu295 Cu 0.91456 0.83512 -0.05156
 Cu296 Cu 0.91461 0.80090 -0.08598
 N297 N 0.94736 0.81540 -0.10424
 N298 N 0.93440 0.80234 -0.10458
 C299 C 0.93761 0.79078 -0.11907
 C300 C 0.95344 0.79690 -0.12823
 C301 C 0.95926 0.81258 -0.11855
 H302 H 0.92913 0.77876 -0.12264
 H303 H 0.97127 0.82121 -0.12172
 N304 N 0.89584 0.80192 -0.06587
 N305 N 0.89585 0.81495 -0.05276
 C306 C 0.88175 0.81156 -0.04079
 C307 C 0.87254 0.79562 -0.04660
 C308 C 0.88172 0.78990 -0.06256
 H309 H 0.87845 0.81995 -0.02865
 H310 H 0.87841 0.77779 -0.07101
 H311 H 0.92909 0.81404 -0.06483
 H312 H 0.91411 0.82914 -0.07986
 N313 N 0.30286 0.35470 0.81605
 N314 N 0.31571 0.35422 0.80292
 C315 C 0.31285 0.36854 0.79101
 C316 C 0.29734 0.37838 0.79698
 C317 C 0.29138 0.36927 0.81292
 H318 H 0.32133 0.37162 0.77890
 H319 H 0.27954 0.37296 0.82155
 Cu320 Cu 0.33472 0.33476 0.80279
 Cu321 Cu 0.30167 0.33618 0.83602
 Cu322 Cu 0.33567 0.30155 0.83583
 N323 N 0.35376 0.31531 0.80266
 N324 N 0.35407 0.30242 0.81576
 C325 C 0.36829 0.29057 0.81245
 C326 C 0.37734 0.29630 0.79640
 C327 C 0.36785 0.31211 0.79058
 H328 H 0.37177 0.27860 0.82099
 H329 H 0.37099 0.32053 0.77844
 N330 N 0.31585 0.30303 0.85489
 N331 N 0.30288 0.31618 0.85495
 C332 C 0.29117 0.31312 0.86937
 C333 C 0.29704 0.29729 0.87872
 C334 C 0.31273 0.29129 0.86926
 H335 H 0.27920 0.32168 0.87280
 H336 H 0.32113 0.27917 0.87259
 H337 H 0.32984 0.32993 0.83617
 H338 H 0.31442 0.31482 0.82150
 N339 N 0.14586 0.56558 0.55210
 N340 N 0.14628 0.55238 0.56489
 C341 C 0.13213 0.54030 0.56172
 C342 C 0.12249 0.54624 0.54606
 C343 C 0.13151 0.56235 0.54037
 H344 H 0.12906 0.52808 0.57006
 H345 H 0.12792 0.57100 0.52851
 Cu346 Cu 0.16554 0.55236 0.58416
 Cu347 Cu 0.16427 0.58569 0.55121
 Cu348 Cu 0.19859 0.58564 0.58552
 N349 N 0.18478 0.55233 0.60344
 N350 N 0.19762 0.56551 0.60389
 C351 C 0.20934 0.56225 0.61825
 C352 C 0.20357 0.54615 0.62723
 C353 C 0.18789 0.54025 0.61756
 H354 H 0.22122 0.57088 0.62188
 H355 H 0.17949 0.52805 0.62060
 N356 N 0.19721 0.60476 0.56571
 N357 N 0.18413 0.60478 0.55266
 C358 C 0.18718 0.61926 0.54100
 C359 C 0.20293 0.62870 0.54696
 C360 C 0.20891 0.61922 0.56267
 H361 H 0.17868 0.62266 0.52898
 H362 H 0.22097 0.62260 0.57115
 H363 H 0.18555 0.57126 0.56414
 H364 H 0.17029 0.58582 0.57946
 N365 N 0.60411 0.68488 0.05214
 N366 N 0.60384 0.69797 0.06508
 C367 C 0.61830 0.70973 0.06226
 C368 C 0.62801 0.70369 0.04670
 C369 C 0.61869 0.68788 0.04065
 H370 H 0.62156 0.72178 0.07082
 H371 H 0.62224 0.67924 0.02876
 Cu372 Cu 0.58445 0.69823 0.08411
 Cu373 Cu 0.58536 0.66511 0.05084
 Cu374 Cu 0.55083 0.66553 0.08486
 N375 N 0.56507 0.69848 0.10316
 N376 N 0.55201 0.68552 0.10338
 C377 C 0.54023 0.68890 0.11763
 C378 C 0.54618 0.70485 0.12678
 C379 C 0.56203 0.71055 0.11733
 H380 H 0.52817 0.68045 0.12107
 H381 H 0.57062 0.72259 0.12056
 N382 N 0.55202 0.64653 0.06491
 N383 N 0.56514 0.64638 0.05194
 C384 C 0.56180 0.63212 0.04006
 C385 C 0.54580 0.62299 0.04579
 C386 C 0.54000 0.63238 0.06161
 H387 H 0.57027 0.62866 0.02803
 H388 H 0.52783 0.62919 0.06996
 H389 H 0.56427 0.67984 0.06374
 H390 H 0.57917 0.66490 0.07905
 N391 N 0.68373 0.19733 0.64526
 N392 N 0.69690 0.18450 0.64565
 C393 C 0.70871 0.18742 0.63128
 C394 C 0.70265 0.20295 0.62151
 C395 C 0.68675 0.20886 0.63071
 H396 H 0.72083 0.17896 0.62812
 H397 H 0.67807 0.22070 0.62709
 Cu398 Cu 0.69717 0.16541 0.66503
 Cu399 Cu 0.66385 0.19842 0.66384
 Cu400 Cu 0.66429 0.16433 0.69837
 N401 N 0.69744 0.14633 0.68443
 N402 N 0.68441 0.14598 0.69738
 C403 C 0.68783 0.13174 0.70919
 C404 C 0.70387 0.12273 0.70338
 C405 C 0.70958 0.13225 0.68757
 H406 H 0.67935 0.12824 0.72119
 H407 H 0.72167 0.12914 0.67907
 N408 N 0.64516 0.18412 0.69700
 N409 N 0.64500 0.19711 0.68389
 C410 C 0.63056 0.20879 0.68703
 C411 C 0.62130 0.20288 0.70288
 C412 C 0.63083 0.18720 0.70881
 H413 H 0.62706 0.22079 0.67852
 H414 H 0.62760 0.17877 0.72093
 H415 H 0.67848 0.18565 0.68508
 H416 H 0.66379 0.17019 0.67004
 N417 N 1.10425 0.06507 0.19751
 N418 N 1.10403 0.05198 0.18459
 C419 C 1.11846 0.04023 0.18751
 C420 C 1.12816 0.04634 0.20308
 C421 C 1.11882 0.06215 0.20905
 H422 H 1.12174 0.02818 0.17898
 H423 H 1.12236 0.07085 0.22093
 Cu424 Cu 1.08468 0.05168 0.16547
 Cu425 Cu 1.08546 0.08477 0.19873
 Cu426 Cu 1.05099 0.08428 0.16461
 N427 N 1.06533 0.05141 0.14636
 N428 N 1.05225 0.06432 0.14611
 C429 C 1.04047 0.06090 0.13184
 C430 C 1.04641 0.04493 0.12277
 C431 C 1.06226 0.03928 0.13225
 H432 H 1.02840 0.06933 0.12837
 H433 H 1.07084 0.02725 0.12908
 N434 N 1.05212 0.10327 0.18457
 N435 N 1.06522 0.10345 0.19759
 C436 C 1.06184 0.11768 0.20948
 C437 C 1.04583 0.12676 0.20369
 C438 C 1.04008 0.11737 0.18784
 H439 H 1.07028 0.12115 0.22154
 H440 H 1.02791 0.12052 0.17944
 H441 H 1.06436 0.07000 0.18572
 H442 H 1.07928 0.08499 0.17046
 N443 N 0.06478 0.14592 1.05182
 N444 N 0.05176 0.14628 1.06479
 C445 C 0.03974 0.13205 1.06179
 C446 C 0.04555 0.12240 1.04609
 C447 C 0.06150 0.13149 1.04016
 H448 H 0.02767 0.12891 1.07030
 H449 H 0.07002 0.12791 1.02821
 Cu450 Cu 0.05182 0.16561 1.08395
 Cu451 Cu 0.08473 0.16445 1.05061
 Cu452 Cu 0.08484 0.19893 1.08481
 N453 N 0.05189 0.18492 1.10313
 N454 N 0.06495 0.19788 1.10340
 C455 C 0.06175 0.20963 1.11777
 C456 C 0.04579 0.20376 1.12691
 C457 C 0.03993 0.18801 1.11734
 H458 H 0.07032 0.22161 1.12127
 H459 H 0.02783 0.17951 1.12052
 N460 N 0.10372 0.19760 1.06476
 N461 N 0.10367 0.18446 1.05176
 C462 C 0.11790 0.18762 1.03985
 C463 C 0.12724 0.20353 1.04559
 C464 C 0.11798 0.20946 1.06145
 H465 H 0.12119 0.17911 1.02780
 H466 H 0.12135 0.22160 1.06983
 H467 H 0.08514 0.17056 1.07885
 H468 H 0.07032 0.18570 1.06365
 N469 N 0.14645 0.69817 0.68496
 N470 N 0.14691 0.68528 0.69805
 C471 C 0.13282 0.68834 0.71017
 C472 C 0.12314 0.70403 0.70436
 C473 C 0.13210 0.70987 0.68831
 H474 H 0.12978 0.67987 0.72230
 H475 H 0.12848 0.72181 0.67976
 Cu476 Cu 0.16615 0.66605 0.69793
 Cu477 Cu 0.16477 0.69922 0.66483
 Cu478 Cu 0.19907 0.66492 0.66461
 N479 N 0.18539 0.64682 0.69781
 N480 N 0.19818 0.64644 0.68462
 C481 C 0.20990 0.63207 0.68780
 C482 C 0.20420 0.62302 0.70386
 C483 C 0.18856 0.63265 0.70983
 H484 H 0.22179 0.62852 0.67916
 H485 H 0.18019 0.62954 0.72201
 N486 N 0.19761 0.68484 0.64560
 N487 N 0.18456 0.69791 0.64568
 C488 C 0.18758 0.70965 0.63127
 C489 C 0.20327 0.70372 0.62177
 C490 C 0.20925 0.68795 0.63115
 H491 H 0.17909 0.72171 0.62795
 H492 H 0.22128 0.67947 0.62770
 H493 H 0.17081 0.67095 0.66453
 H494 H 0.18613 0.68621 0.67909
 N495 N 1.18441 0.14543 0.19730
 N496 N 1.19747 0.14581 0.18439
 C497 C 1.20927 0.13139 0.18721
 C498 C 1.20322 0.12154 0.20267
 C499 C 1.18740 0.13078 0.20870
 H500 H 1.22131 0.12821 0.17866
 H501 H 1.17877 0.12713 0.22057
 Cu502 Cu 1.19763 0.16531 0.16545
 Cu503 Cu 1.16464 0.16409 0.19871
 Cu504 Cu 1.16490 0.19884 0.16489
 N505 N 1.19779 0.18481 0.14651
 N506 N 1.18482 0.19783 0.14634
 C507 C 1.18811 0.20968 0.13210
 C508 C 1.20405 0.20382 0.12294
 C509 C 1.20983 0.18798 0.13238
 H510 H 1.17963 0.22173 0.12871
 H511 H 1.22185 0.17944 0.12912
 N512 N 1.14596 0.19748 0.18486
 N513 N 1.14588 0.18426 0.19775
 C514 C 1.13167 0.18744 0.20967
 C515 C 1.12248 0.20345 0.20406
 C516 C 1.13180 0.20942 0.18827
 H517 H 1.12829 0.17887 0.22164
 H518 H 1.12854 0.22163 0.17999
 H519 H 1.16436 0.17043 0.17057
 H520 H 1.17925 0.18534 0.18595
 N521 N 0.64528 1.05311 0.56580
 N522 N 0.64554 1.06615 0.55285
 C523 C 0.63117 1.06330 0.54100
 C524 C 0.62155 1.04759 0.54683
 C525 C 0.63081 1.04152 0.56263
 H526 H 0.62798 1.07185 0.52896
 H527 H 0.62733 1.02947 0.57107
 Cu528 Cu 0.66499 1.08518 0.55250
 Cu529 Cu 0.66400 1.05165 0.58546
 Cu530 Cu 0.69836 1.08576 0.58561
 N531 N 0.68414 1.10451 0.55304
 N532 N 0.69715 1.10463 0.56604
 C533 C 0.70882 1.11907 0.56301
 C534 C 0.70284 1.12846 0.54725
 C535 C 0.68710 1.11894 0.54130
 H536 H 0.72086 1.12245 0.57154
 H537 H 0.67859 1.12224 0.52926
 N538 N 0.69728 1.06552 0.60425
 N539 N 0.68415 1.05252 0.60418
 C540 C 0.68740 1.04048 0.61827
 C541 C 0.70336 1.04611 0.62755
 C542 C 0.70923 1.06206 0.61839
 H543 H 0.67889 1.02841 0.62153
 H544 H 0.72137 1.07043 0.62176
 H545 H 0.67000 1.07988 0.58573
 H546 H 0.68510 1.06467 0.57079
 N547 N 0.56484 0.55178 0.14642
 N548 N 0.55179 0.56473 0.14668
 C549 C 0.53982 0.56166 0.13244
 C550 C 0.54568 0.54591 0.12288
 C551 C 0.56162 0.54004 0.13205
 H552 H 0.52775 0.57016 0.12923
 H553 H 0.57016 0.52805 0.12856
 Cu554 Cu 0.55178 0.58406 0.16587
 Cu555 Cu 0.58473 0.55070 0.16505
 Cu556 Cu 0.58471 0.58518 0.19925
 N557 N 0.55178 0.60341 0.18503
 N558 N 0.56481 0.60377 0.19800
 C559 C 0.56158 0.61822 0.20964
 C560 C 0.54564 0.62734 0.20369
 C561 C 0.53980 0.61767 0.18799
 H562 H 0.57011 0.62179 0.22162
 H563 H 0.52773 0.62080 0.17946
 N564 N 0.60359 0.56512 0.19815
 N565 N 0.60360 0.55199 0.18513
 C566 C 0.61782 0.54010 0.18846
 C567 C 0.62709 0.54598 0.20435
 C568 C 0.61781 0.56191 0.21009
 H569 H 0.62115 0.52796 0.18007
 H570 H 0.62113 0.57040 0.22216
 H571 H 0.57025 0.56389 0.18615
 H572 H 0.58511 0.57902 0.17098
 N573 N 0.64652 0.68509 0.19798
 N574 N 0.64673 0.69814 0.18503
 C575 C 0.63250 0.71010 0.18813
 C576 C 0.62306 0.70429 0.20396
 C577 C 0.63227 0.68836 0.20979
 H578 H 0.62924 0.72220 0.17965
 H579 H 0.62887 0.67983 0.22179
 Cu580 Cu 0.66569 0.69803 0.16552
 Cu581 Cu 0.66512 0.66521 0.19903
 Cu582 Cu 0.69905 0.66504 0.16440
 N583 N 0.68477 0.69793 0.14613
 N584 N 0.69768 0.68484 0.14572
 C585 C 0.70912 0.68793 0.13113
 C586 C 0.70307 0.70378 0.12190
 C587 C 0.68752 0.70974 0.13170
 H588 H 0.72100 0.67933 0.12750
 H589 H 0.67898 0.72182 0.12854
 N590 N 0.69806 0.64625 0.18455
 N591 N 0.68514 0.64631 0.19772
 C592 C 0.68853 0.63216 0.20967
 C593 C 0.70436 0.62285 0.20378
 C594 C 0.71000 0.63205 0.18779
 H595 H 0.68023 0.62890 0.22186
 H596 H 0.72201 0.62868 0.17927
 H597 H 0.68620 0.67964 0.18565
 H598 H 0.67086 0.66470 0.17068
 N599 N 0.14642 0.06463 1.05210
 N600 N 0.14668 0.05156 1.06503
 C601 C 0.13246 0.03957 1.06195
 C602 C 0.12301 0.04534 1.04613
 C603 C 0.13215 0.06131 1.04029
 H604 H 0.12923 0.02743 1.07041
 H605 H 0.12873 0.06983 1.02829
 Cu606 Cu 0.16559 0.05167 1.08454
 Cu607 Cu 0.16499 0.08455 1.05106
 Cu608 Cu 0.19901 0.08472 1.08565
 N609 N 0.18475 0.05177 1.10379
 N610 N 0.19765 0.06489 1.10422
 C611 C 0.20917 0.06175 1.11875
 C612 C 0.20315 0.04586 1.12790
 C613 C 0.18755 0.03992 1.11817
 H614 H 0.22107 0.07035 1.12236
 H615 H 0.17905 0.02779 1.12131
 N616 N 0.19795 0.10353 1.06557
 N617 N 0.18499 0.10348 1.05241
 C618 C 0.18835 0.11769 1.04051
 C619 C 0.20420 0.12700 1.04643
 C620 C 0.20988 0.11777 1.06238
 H621 H 0.18002 0.12096 1.02833
 H622 H 0.22191 0.12112 1.07090
 H623 H 0.18615 0.07012 1.06442
 H624 H 0.17084 0.08500 1.07944
 N625 N 0.60510 0.19719 0.56616
 N626 N 0.60486 0.18406 0.55326
 C627 C 0.61915 0.18695 0.54136
 C628 C 0.62876 0.20272 0.54710
 C629 C 0.61954 0.20883 0.56292
 H630 H 0.62236 0.17830 0.52935
 H631 H 0.62297 0.22095 0.57130
 Cu632 Cu 0.58552 0.16490 0.55331
 Cu633 Cu 0.58648 0.19855 0.58598
 Cu634 Cu 0.55208 0.16427 0.58604
 N635 N 0.56630 0.14562 0.55337
 N636 N 0.55325 0.14553 0.56630
 C637 C 0.54153 0.13112 0.56316
 C638 C 0.54749 0.12177 0.54736
 C639 C 0.56327 0.13126 0.54153
 H640 H 0.52944 0.12781 0.57158
 H641 H 0.57183 0.12791 0.52951
 N642 N 0.55330 0.18444 0.60480
 N643 N 0.56638 0.19749 0.60480
 C644 C 0.56322 0.20935 0.61911
 C645 C 0.54739 0.20350 0.62843
 C646 C 0.54149 0.18766 0.61909
 H647 H 0.57173 0.22140 0.62250
 H648 H 0.52944 0.17918 0.62246
 H649 H 0.58024 0.17038 0.58643
 H650 H 0.56522 0.18543 0.57150
 N651 N 0.10314 0.56450 0.69863
 N652 N 0.10287 0.55143 0.68568
 C653 C 0.11708 0.53944 0.68877
 C654 C 0.12665 0.54538 0.70449
 C655 C 0.11751 0.56134 0.71034
 H656 H 0.12024 0.52732 0.68030
 H657 H 0.12103 0.56995 0.72229
 Cu658 Cu 0.08346 0.55134 0.66659
 Cu659 Cu 0.08456 0.58440 0.69976
 Cu660 Cu 0.05025 0.58427 0.66546
 N661 N 0.06436 0.55128 0.64721
 N662 N 0.05138 0.56429 0.64692
 C663 C 0.03966 0.56101 0.63257
 C664 C 0.04554 0.54503 0.62346
 C665 C 0.06127 0.53921 0.63303
 H666 H 0.02769 0.56956 0.62904
 H667 H 0.06976 0.52711 0.62988
 N668 N 0.05149 0.60326 0.68544
 N669 N 0.06454 0.60331 0.69851
 C670 C 0.06128 0.61757 0.71038
 C671 C 0.04540 0.62683 0.70453
 C672 C 0.03960 0.61749 0.68866
 H673 H 0.06971 0.62095 0.72248
 H674 H 0.02751 0.62079 0.68021
 H675 H 0.06338 0.56991 0.68667
 H676 H 0.07851 0.58468 0.67150
 N677 N 0.64594 0.55233 0.06490
 N678 N 0.64623 0.56537 0.05194
 C679 C 0.63204 0.56234 0.03989
 C680 C 0.62249 0.54652 0.04558
 C681 C 0.63162 0.54057 0.06152
 H682 H 0.62885 0.57093 0.02787
 H683 H 0.62815 0.52851 0.06995
 Cu684 Cu 0.66537 0.58477 0.05220
 Cu685 Cu 0.66448 0.55118 0.08488
 Cu686 Cu 0.69862 0.58572 0.08530
 N687 N 0.68451 0.60416 0.05245
 N688 N 0.69742 0.60446 0.06554
 C689 C 0.70896 0.61903 0.06254
 C690 C 0.70298 0.62833 0.04671
 C691 C 0.68740 0.61859 0.04067
 H692 H 0.72088 0.62258 0.07116
 H693 H 0.67888 0.62182 0.02862
 N694 N 0.69745 0.56552 0.10405
 N695 N 0.68445 0.55238 0.10391
 C696 C 0.68772 0.54041 0.11808
 C697 C 0.70355 0.54624 0.12748
 C698 C 0.70931 0.56223 0.11831
 H699 H 0.67933 0.52824 0.12128
 H700 H 0.72136 0.57071 0.12175
 H701 H 0.67042 0.57954 0.08550
 H702 H 0.68567 0.56456 0.07062
 N703 N 0.06572 0.69786 0.60404
 N704 N 0.05256 0.68500 0.60369
 C705 C 0.04056 0.68817 0.61787
 C706 C 0.04652 0.70387 0.62747
 C707 C 0.06256 0.70961 0.61840
 H708 H 0.02838 0.67977 0.62099
 H709 H 0.07121 0.72152 0.62195
 Cu710 Cu 0.05240 0.66569 0.58448
 Cu711 Cu 0.08571 0.69877 0.58556
 Cu712 Cu 0.08546 0.66436 0.55129
 N713 N 0.05228 0.64639 0.56525
 N714 N 0.06535 0.64595 0.55235
 C715 C 0.06201 0.63156 0.54066
 C716 C 0.04595 0.62256 0.54649
 C717 C 0.04016 0.63225 0.56219
 H718 H 0.07055 0.62793 0.52874
 H719 H 0.02802 0.62920 0.57064
 N720 N 0.10459 0.68423 0.55258
 N721 N 0.10469 0.69732 0.56563
 C722 C 0.11914 0.70901 0.56250
 C723 C 0.12849 0.70301 0.54673
 C724 C 0.11898 0.68725 0.54083
 H725 H 0.12258 0.72108 0.57096
 H726 H 0.12228 0.67874 0.52878
 H727 H 0.07117 0.68574 0.56434
 H728 H 0.08580 0.67046 0.57957
 N729 N 0.56570 1.05337 0.64467
 N730 N 0.55274 1.06641 0.64480
 C731 C 0.54099 1.06349 0.63032
 C732 C 0.54690 1.04774 0.62071
 C733 C 0.56266 1.04173 0.63017
 H734 H 0.52902 1.07212 0.62699
 H735 H 0.57123 1.02973 0.62677
 Cu736 Cu 0.55264 1.08573 0.66411
 Cu737 Cu 0.58541 1.05216 0.66353
 Cu738 Cu 0.58527 1.08656 0.69780
 N739 N 0.55254 1.10508 0.68339
 N740 N 0.56548 1.10533 0.69645
 C741 C 0.56235 1.11985 0.70804
 C742 C 0.54656 1.12921 0.70196
 C743 C 0.54070 1.11951 0.68624
 H744 H 0.57089 1.12333 0.72004
 H745 H 0.52873 1.12274 0.67757
 N746 N 0.60412 1.06637 0.69686
 N747 N 0.60416 1.05327 0.68381
 C748 C 0.61830 1.04129 0.68724
 C749 C 0.62751 1.04707 0.70322
 C750 C 0.61824 1.06305 0.70890
 H751 H 0.62162 1.02915 0.67885
 H752 H 0.62151 1.07150 0.72102
 H753 H 0.57082 1.06537 0.68451
 H754 H 0.58587 1.08043 0.66953
 N755 N 0.44696 0.35520 0.93424
 N756 N 0.43365 0.35524 0.94694
 C757 C 0.43654 0.36962 0.95882
 C758 C 0.45250 0.37904 0.95324
 C759 C 0.45871 0.36955 0.93757
 H760 H 0.42779 0.37298 0.97068
 H761 H 0.47091 0.37280 0.92928
 Cu762 Cu 0.41440 0.33591 0.94679
 Cu763 Cu 0.44843 0.33630 0.91458
 Cu764 Cu 0.41420 0.30185 0.91447
 N765 N 0.39520 0.31653 0.94681
 N766 N 0.39533 0.30322 0.93407
 C767 C 0.38109 0.29134 0.93732
 C768 C 0.37158 0.29746 0.95297
 C769 C 0.38085 0.31350 0.95863
 H770 H 0.37793 0.27911 0.92901
 H771 H 0.37739 0.32219 0.97052
 N772 N 0.43446 0.30290 0.89583
 N773 N 0.44750 0.31599 0.89585
 C774 C 0.45947 0.31266 0.88170
 C775 C 0.45372 0.29669 0.87242
 C776 C 0.43780 0.29092 0.88166
 H777 H 0.47153 0.32114 0.87837
 H778 H 0.42936 0.27882 0.87829
 H779 H 0.42024 0.33007 0.91373
 H780 H 0.43508 0.31527 0.92927
 N781 N 0.94677 0.43323 0.35562
 N782 N 0.93384 0.44630 0.35539
 C783 C 0.93682 0.45817 0.36976
 C784 C 0.95248 0.45220 0.37943
 C785 C 0.95840 0.43631 0.37012
 H786 H 0.92828 0.47023 0.37299
 H787 H 0.97030 0.42766 0.37361
 Cu788 Cu 0.91458 0.44640 0.33609
 Cu789 Cu 0.94777 0.41329 0.33696
 Cu790 Cu 0.91341 0.41343 0.30270
 N791 N 0.89527 0.44649 0.31683
 N792 N 0.89493 0.43342 0.30387
 C793 C 0.88048 0.43659 0.29225
 C794 C 0.87132 0.45253 0.29818
 C795 C 0.88101 0.45845 0.31385
 H796 H 0.87690 0.42800 0.28032
 H797 H 0.87786 0.47054 0.32237
 N798 N 0.93334 0.39443 0.30385
 N799 N 0.94643 0.39435 0.31688
 C800 C 0.95817 0.37997 0.31360
 C801 C 0.95220 0.37067 0.29775
 C802 C 0.93641 0.38012 0.29197
 H803 H 0.97026 0.37655 0.32201
 H804 H 0.92790 0.37684 0.27990
 H805 H 0.93466 0.42785 0.31582
 H806 H 0.91948 0.41303 0.33095
 N807 N 0.30259 0.93536 0.39639
 N808 N 0.31552 0.94846 0.39660
 C809 C 0.31244 0.96032 0.38227
 C810 C 0.29670 0.95434 0.37274
 C811 C 0.29087 0.93844 0.38200
 H812 H 0.32093 0.97240 0.37900
 H813 H 0.27889 0.92985 0.37858
 Cu814 Cu 0.33482 0.94858 0.41581
 Cu815 Cu 0.30149 0.91558 0.41509
 Cu816 Cu 0.33584 0.91578 0.44933
 N817 N 0.35410 0.94870 0.43505
 N818 N 0.35442 0.93570 0.44804
 C819 C 0.36880 0.93898 0.45972
 C820 C 0.37797 0.95492 0.45377
 C821 C 0.36836 0.96070 0.43801
 H822 H 0.37228 0.93048 0.47173
 H823 H 0.37152 0.97274 0.42943
 N824 N 0.31579 0.89685 0.44825
 N825 N 0.30271 0.89679 0.43521
 C826 C 0.29079 0.88259 0.43855
 C827 C 0.29661 0.87337 0.45447
 C828 C 0.31253 0.88268 0.46022
 H829 H 0.27868 0.87922 0.43015
 H830 H 0.32098 0.87940 0.47231
 H831 H 0.31472 0.93019 0.43622
 H832 H 0.32981 0.91525 0.42113
 O833 O 0.24851 0.54956 0.72555
 O834 O 0.28097 0.54368 0.72866
 O835 O 0.22580 0.50121 0.70037
 O836 O 0.22706 0.46983 0.70540
 O837 O 0.20030 0.52395 0.74861
 O838 O 0.20693 0.52220 0.78164
 O839 O 0.27524 0.45146 0.75170
 O840 O 0.27090 0.45633 0.71931
 O841 O 0.29862 0.49835 0.77482
 O842 O 0.29234 0.53248 0.77286
 O843 O 0.25209 0.47533 0.79866
 O844 O 0.21783 0.47720 0.79236
 O845 O 0.25269 0.45138 0.77417
 O846 O 0.21775 0.45749 0.77165
 O847 O 0.27447 0.49796 0.79882
 O848 O 0.27121 0.53295 0.79220
 O849 O 0.29851 0.47540 0.75274
 O850 O 0.29307 0.48187 0.71856
 O851 O 0.22618 0.54964 0.74832
 O852 O 0.22814 0.54291 0.78183
 O853 O 0.20032 0.50138 0.72607
 O854 O 0.20765 0.46754 0.72949
 O855 O 0.24801 0.52410 0.70051
 O856 O 0.28196 0.51935 0.70748
 Zr857 Zr 0.26020 0.52260 0.72734
 O858 O 0.27817 0.50640 0.74413
 Zr859 Zr 0.22728 0.48961 0.72741
 O860 O 0.24407 0.47178 0.74378
 Zr861 Zr 0.22732 0.52265 0.76030
 O862 O 0.24372 0.50612 0.77836
 Zr863 Zr 0.27242 0.47799 0.73945
 O864 O 0.25571 0.49410 0.72109
 Zr865 Zr 0.27210 0.51085 0.77249
 O866 O 0.25569 0.52890 0.75579
 Zr867 Zr 0.23944 0.47766 0.77218
 O868 O 0.22107 0.49418 0.75584
 O869 O 0.23204 0.51778 0.73218
 O870 O 0.26764 0.48256 0.76771
 C871 C 0.23510 0.55732 0.73470
 C872 C 0.23462 0.51492 0.69272
 C873 C 0.19257 0.51486 0.73512
 C874 C 0.26658 0.44393 0.76552
 C875 C 0.30603 0.48430 0.76642
 C876 C 0.26590 0.48402 0.80622
 H877 H 0.29135 0.50931 0.74113
 H878 H 0.24067 0.50905 0.79150
 H879 H 0.22402 0.52573 0.72424
 H880 H 0.24143 0.45855 0.74073
 H881 H 0.26686 0.46230 0.70749
 H882 H 0.23514 0.45932 0.70930
 H883 H 0.26154 0.52989 0.80159
 H884 H 0.24036 0.54931 0.78076
 H885 H 0.30184 0.47117 0.71931
 H886 H 0.28074 0.52939 0.69799
 H887 H 0.21947 0.48822 0.80055
 H888 H 0.20119 0.50960 0.78125
 H889 H 0.28028 0.54918 0.74135
 H890 H 0.30037 0.53090 0.76173
 H891 H 0.20049 0.46969 0.74113
 H892 H 0.22052 0.44849 0.76152
 O893 O 0.29970 -0.00116 0.27413
 O894 O 0.29346 0.03132 0.27090
 O895 O 0.25183 -0.02425 0.29937
 O896 O 0.22044 -0.02337 0.29444
 O897 O 0.27451 -0.04976 0.25097
 O898 O 0.27266 -0.04318 0.21804
 O899 O 0.20144 0.02454 0.24790
 O900 O 0.20629 0.02031 0.28030
 O901 O 0.24804 0.04833 0.22491
 O902 O 0.28197 0.04246 0.22673
 O903 O 0.22542 0.00117 0.20107
 O904 O 0.22757 -0.03303 0.20762
 O905 O 0.20148 0.00186 0.22547
 O906 O 0.20783 -0.03301 0.22822
 O907 O 0.24777 0.02384 0.20093
 O908 O 0.28281 0.02115 0.20763
 O909 O 0.22517 0.04812 0.24700
 O910 O 0.23157 0.04272 0.28121
 O911 O 0.29989 -0.02356 0.25135
 O912 O 0.29308 -0.02178 0.21786
 O913 O 0.25202 -0.04991 0.27351
 O914 O 0.21822 -0.04292 0.27045
 O915 O 0.27444 -0.00176 0.29920
 O916 O 0.26928 0.03205 0.29224
 Zr917 Zr 0.27267 0.01027 0.27236
 O918 O 0.25624 0.02803 0.25559
 Zr919 Zr 0.24006 -0.02300 0.27237
 O920 O 0.22201 -0.00645 0.25600
 Zr921 Zr 0.27292 -0.02274 0.23941
 O922 O 0.25619 -0.00658 0.22138
 Zr923 Zr 0.22793 0.02201 0.26025
 O924 O 0.24426 0.00552 0.27863
 Zr925 Zr 0.26069 0.02188 0.22725
 O926 O 0.27894 0.00571 0.24392
 Zr927 Zr 0.22783 -0.01117 0.22761
 O928 O 0.24458 -0.02930 0.24395
 O929 O 0.26812 -0.01799 0.26754
 O930 O 0.23248 0.01715 0.23200
 C931 C 0.30753 -0.01451 0.26495
 C932 C 0.26543 -0.01523 0.30700
 C933 C 0.26549 -0.05757 0.26441
 C934 C 0.19397 0.01576 0.23409
 C935 C 0.23401 0.05570 0.23334
 C936 C 0.23400 0.01501 0.19350
 H937 H 0.25902 0.04126 0.25858
 H938 H 0.25913 -0.00967 0.20824
 H939 H 0.27615 -0.02595 0.27547
 H940 H 0.20883 -0.00922 0.25906
 H941 H 0.21225 0.01624 0.29211
 H942 H 0.20976 -0.01554 0.29051
 H943 H 0.27988 0.01139 0.19826
 H944 H 0.29944 -0.00952 0.21898
 H945 H 0.22080 0.05141 0.28042
 H946 H 0.27945 0.03105 0.30163
 H947 H 0.23852 -0.03131 0.19937
 H948 H 0.26014 -0.04906 0.21840
 H949 H 0.29915 0.03040 0.25833
 H950 H 0.28069 0.05017 0.23814
 H951 H 0.22019 -0.04992 0.25868
 H952 H 0.19881 -0.03022 0.23830
 O953 O 0.54960 0.72586 0.24833
 O954 O 0.54364 0.72897 0.28082
 O955 O 0.50124 0.70100 0.22543
 O956 O 0.46997 0.70624 0.22635
 O957 O 0.52448 0.74934 0.20019
 O958 O 0.52266 0.78238 0.20696
 O959 O 0.45162 0.75246 0.27469
 O960 O 0.45635 0.72005 0.27034
 O961 O 0.49843 0.77533 0.29849
 O962 O 0.53255 0.77305 0.29238
 O963 O 0.47593 0.79943 0.25178
 O964 O 0.47778 0.79317 0.21758
 O965 O 0.45173 0.77507 0.25225
 O966 O 0.45801 0.77256 0.21737
 O967 O 0.49842 0.79941 0.27429
 O968 O 0.53325 0.79256 0.27143
 O969 O 0.47540 0.75335 0.29821
 O970 O 0.48170 0.71906 0.29263
 O971 O 0.54989 0.74881 0.22615
 O972 O 0.54332 0.78237 0.22826
 O973 O 0.50183 0.72689 0.19999
 O974 O 0.46794 0.73043 0.20714
 O975 O 0.52398 0.70093 0.24777
 O976 O 0.51928 0.70784 0.28166
 Zr977 Zr 0.52265 0.72778 0.25998
 O978 O 0.50644 0.74457 0.27796
 Zr979 Zr 0.48986 0.72814 0.22689
 O980 O 0.47204 0.74453 0.24368
 Zr981 Zr 0.52300 0.76090 0.22724
 O982 O 0.50649 0.77896 0.24364
 Zr983 Zr 0.47807 0.74009 0.27205
 O984 O 0.49417 0.72170 0.25532
 Zr985 Zr 0.51106 0.77295 0.27202
 O986 O 0.52910 0.75624 0.25561
 Zr987 Zr 0.47806 0.77294 0.23916
 O988 O 0.49458 0.75659 0.22080
 O989 O 0.51799 0.73275 0.23181
 O990 O 0.48279 0.76837 0.26739
 C991 C 0.55745 0.73507 0.23500
 C992 C 0.51480 0.69322 0.23433
 C993 C 0.51540 0.73590 0.19236
 C994 C 0.44418 0.76635 0.26604
 C995 C 0.48432 0.76699 0.30584
 C996 C 0.48463 0.80693 0.26560
 H997 H 0.50926 0.74150 0.29114
 H998 H 0.50951 0.79211 0.24064
 H999 H 0.52591 0.72476 0.22381
 H1000 H 0.45882 0.74155 0.24095
 H1001 H 0.46225 0.70823 0.26618
 H1002 H 0.45948 0.71010 0.23445
 H1003 H 0.53049 0.80182 0.26154
 H1004 H 0.54967 0.78120 0.24049
 H1005 H 0.47096 0.71983 0.30133
 H1006 H 0.52930 0.69833 0.28047
 H1007 H 0.48891 0.80123 0.21920
 H1008 H 0.51017 0.78193 0.20103
 H1009 H 0.54926 0.74161 0.28012
 H1010 H 0.53083 0.76191 0.30038
 H1011 H 0.47021 0.74206 0.19999
 H1012 H 0.44895 0.76246 0.22006
 O1013 O 0.00129 0.70047 0.72578
 O1014 O -0.03113 0.70665 0.72884
 O1015 O 0.02432 0.74863 0.70064
 O1016 O 0.02353 0.78001 0.70568
 O1017 O 0.04972 0.72568 0.74890
 O1018 O 0.04312 0.72772 0.78192
 O1019 O -0.02480 0.79877 0.75203
 O1020 O -0.02036 0.79394 0.71953
 O1021 O -0.04843 0.75222 0.77488
 O1022 O -0.04242 0.71801 0.77284
 O1023 O -0.00145 0.77472 0.79889
 O1024 O 0.03260 0.77285 0.79253
 O1025 O -0.00228 0.79872 0.77458
 O1026 O 0.03274 0.79247 0.77169
 O1027 O -0.02404 0.75229 0.79891
 O1028 O -0.02145 0.71737 0.79224
 O1029 O -0.04824 0.77505 0.75271
 O1030 O -0.04264 0.76849 0.71855
 O1031 O 0.02356 0.70029 0.74866
 O1032 O 0.02181 0.70717 0.78212
 O1033 O 0.04986 0.74825 0.72643
 O1034 O 0.04281 0.78218 0.72982
 O1035 O 0.00200 0.72585 0.70069
 O1036 O -0.03185 0.73084 0.70752
 Zr1037 Zr -0.01017 0.72753 0.72749
 O1038 O -0.02804 0.74392 0.74420
 Zr1039 Zr 0.02300 0.76027 0.72767
 O1040 O 0.00632 0.77829 0.74397
 Zr1041 Zr 0.02272 0.72732 0.76054
 O1042 O 0.00642 0.74400 0.77851
 Zr1043 Zr -0.02208 0.77228 0.73960
 O1044 O -0.00546 0.75600 0.72128
 Zr1045 Zr -0.02200 0.73946 0.77255
 O1046 O -0.00569 0.72125 0.75594
 Zr1047 Zr 0.01093 0.77242 0.77236
 O1048 O 0.02920 0.75572 0.75610
 O1049 O 0.01804 0.73214 0.73241
 O1050 O -0.01732 0.76771 0.76785
 C1051 C 0.01458 0.69263 0.73503
 C1052 C 0.01543 0.73497 0.69295
 C1053 C 0.05752 0.73470 0.73545
 C1054 C -0.01616 0.80622 0.76595
 C1055 C -0.05581 0.76625 0.76641
 C1056 C -0.01527 0.76608 0.80639
 H1057 H -0.04124 0.74110 0.74117
 H1058 H 0.00946 0.74106 0.79166
 H1059 H 0.02599 0.72410 0.72448
 H1060 H 0.00904 0.79150 0.74094
 H1061 H -0.01628 0.78796 0.70774
 H1062 H 0.01546 0.79056 0.70949
 H1063 H -0.01149 0.72012 0.80143
 H1064 H 0.00955 0.70085 0.78107
 H1065 H -0.05138 0.77922 0.71926
 H1066 H -0.03074 0.72068 0.69812
 H1067 H 0.03114 0.76165 0.80049
 H1068 H 0.04905 0.74023 0.78143
 H1069 H -0.03039 0.70108 0.74148
 H1070 H -0.05047 0.71967 0.76172
 H1071 H 0.04994 0.78001 0.74148
 H1072 H 0.02970 0.80175 0.76192
 O1073 O 0.00151 0.04850 0.02483
 O1074 O -0.03082 0.04252 0.02158
 O1075 O 0.02435 0.00006 0.04963
 O1076 O 0.02349 -0.03128 0.04429
 O1077 O 0.04984 0.02333 0.00159
 O1078 O 0.04330 0.02162 -0.03144
 O1079 O -0.02462 -0.04955 -0.00195
 O1080 O -0.02033 -0.04486 0.03043
 O1081 O -0.04834 -0.00270 -0.02457
 O1082 O -0.04203 0.03149 -0.02266
 O1083 O -0.00178 -0.02557 -0.04878
 O1084 O 0.03258 -0.02321 -0.04252
 O1085 O -0.00200 -0.04951 -0.02437
 O1086 O 0.03280 -0.04309 -0.02205
 O1087 O -0.02427 -0.00309 -0.04873
 O1088 O -0.02119 0.03187 -0.04216
 O1089 O -0.04813 -0.02577 -0.00266
 O1090 O -0.04258 -0.01941 0.03146
 O1091 O 0.02374 0.04882 0.00195
 O1092 O 0.02208 0.04220 -0.03156
 O1093 O 0.04993 0.00067 0.02398
 O1094 O 0.04284 -0.03319 0.02026
 O1095 O 0.00205 0.02282 0.04966
 O1096 O -0.03185 0.01809 0.04255
 Zr1097 Zr -0.01002 0.02149 0.02280
 O1098 O -0.02791 0.00527 0.00593
 Zr1099 Zr 0.02306 -0.01130 0.02251
 O1100 O 0.00637 -0.02914 0.00603
 Zr1101 Zr 0.02287 0.02187 -0.01014
 O1102 O 0.00654 0.00534 -0.02832
 Zr1103 Zr -0.02199 -0.02311 0.01047
 O1104 O -0.00536 -0.00698 0.02891
 Zr1105 Zr -0.02184 0.00985 -0.02240
 O1106 O -0.00552 0.02794 -0.00561
 Zr1107 Zr 0.01097 -0.02311 -0.02234
 O1108 O 0.02926 -0.00657 -0.00588
 O1109 O 0.01817 0.01687 0.01794
 O1110 O -0.01725 -0.01841 -0.01779
 C1111 C 0.01481 0.05640 0.01564
 C1112 C 0.01544 0.01363 0.05738
 C1113 C 0.05759 0.01425 0.01504
 C1114 C -0.01587 -0.05701 -0.01574
 C1115 C -0.05572 -0.01678 -0.01622
 C1116 C -0.01567 -0.01696 -0.05623
 H1117 H -0.04109 0.00810 0.00895
 H1118 H 0.00957 0.00834 -0.04145
 H1119 H 0.02612 0.02484 0.02597
 H1120 H 0.00908 -0.04237 0.00900
 H1121 H -0.01633 -0.03894 0.04230
 H1122 H 0.01537 -0.04176 0.04037
 H1123 H -0.01137 0.02896 -0.05145
 H1124 H 0.00975 0.04840 -0.03063
 H1125 H -0.05125 -0.03022 0.03079
 H1126 H -0.03068 0.02807 0.05213
 H1127 H 0.03062 -0.01237 -0.05087
 H1128 H 0.04905 0.00903 -0.03115
 H1129 H -0.03014 0.04806 0.00893
 H1130 H -0.05009 0.02985 -0.01156
 H1131 H 0.04997 -0.03093 0.00863
 H1132 H 0.03028 -0.05199 -0.01178
 O1133 O 0.04916 0.52421 0.50153
 O1134 O 0.04317 0.52112 0.46909
 O1135 O 0.00103 0.54919 0.52449
 O1136 O -0.03030 0.54407 0.52347
 O1137 O 0.02401 0.50079 0.54972
 O1138 O 0.02205 0.46770 0.54286
 O1139 O -0.04899 0.49801 0.47533
 O1140 O -0.04397 0.53045 0.47958
 O1141 O -0.00261 0.47482 0.45146
 O1142 O 0.03169 0.47698 0.45746
 O1143 O -0.02503 0.45083 0.49812
 O1144 O -0.02288 0.45697 0.53225
 O1145 O -0.04891 0.47539 0.49777
 O1146 O -0.04240 0.47784 0.53270
 O1147 O -0.00254 0.45073 0.47566
 O1148 O 0.03233 0.45744 0.47833
 O1149 O -0.02548 0.49693 0.45174
 O1150 O -0.01868 0.53115 0.45722
 O1151 O 0.04941 0.50132 0.52376
 O1152 O 0.04278 0.46779 0.52165
 O1153 O 0.00146 0.52330 0.54990
 O1154 O -0.03242 0.51991 0.54275
 O1155 O 0.02369 0.54919 0.50212
 O1156 O 0.01885 0.54222 0.46816
 Zr1157 Zr 0.02218 0.52233 0.48989
 O1158 O 0.00585 0.50558 0.47192
 Zr1159 Zr -0.01052 0.52210 0.52300
 O1160 O -0.02844 0.50575 0.50624
 Zr1161 Zr 0.02247 0.48924 0.52265
 O1162 O 0.00583 0.47120 0.50626
 Zr1163 Zr -0.02247 0.51021 0.47786
 O1164 O -0.00624 0.52854 0.49457
 Zr1165 Zr 0.01028 0.47717 0.47785
 O1166 O 0.02847 0.49384 0.49424
 Zr1167 Zr -0.02255 0.47732 0.51078
 O1168 O -0.00590 0.49364 0.52911
 O1169 O 0.01757 0.51739 0.51806
 O1170 O -0.01792 0.48189 0.48254
 C1171 C 0.05700 0.51505 0.51490
 C1172 C 0.01461 0.55692 0.51559
 C1173 C 0.01498 0.51424 0.55755
 C1174 C -0.05644 0.48414 0.48400
 C1175 C -0.01672 0.48321 0.44414
 C1176 C -0.01640 0.44327 0.48430
 H1177 H 0.00864 0.50862 0.45873
 H1178 H 0.00879 0.45804 0.50925
 H1179 H 0.02554 0.52536 0.52608
 H1180 H -0.04164 0.50878 0.50899
 H1181 H -0.03792 0.54225 0.48364
 H1182 H -0.04083 0.54021 0.51539
 H1183 H 0.02965 0.44830 0.48834
 H1184 H 0.04901 0.46888 0.50935
 H1185 H -0.02945 0.53045 0.44852
 H1186 H 0.02883 0.55179 0.46940
 H1187 H -0.01174 0.44896 0.53066
 H1188 H 0.00960 0.46825 0.54886
 H1189 H 0.04858 0.50839 0.46965
 H1190 H 0.02989 0.48802 0.44934
 H1191 H -0.03020 0.50826 0.54989
 H1192 H -0.05150 0.48788 0.52998
 O1193 O 0.47544 -0.04917 0.49828
 O1194 O 0.47854 -0.04318 0.53075
 O1195 O 0.45055 -0.00090 0.47537
 O1196 O 0.45563 0.03038 0.47632
 O1197 O 0.49900 -0.02392 0.45021
 O1198 O 0.53198 -0.02212 0.45713
 O1199 O 0.50177 0.04915 0.52467
 O1200 O 0.46929 0.04421 0.52022
 O1201 O 0.52469 0.00272 0.54850
 O1202 O 0.52259 -0.03159 0.54255
 O1203 O 0.54874 0.02500 0.50166
 O1204 O 0.54247 0.02298 0.46755
 O1205 O 0.52438 0.04901 0.50225
 O1206 O 0.52172 0.04264 0.46732
 O1207 O 0.54874 0.00260 0.52425
 O1208 O 0.54203 -0.03234 0.52160
 O1209 O 0.50256 0.02558 0.54822
 O1210 O 0.46843 0.01887 0.54261
 O1211 O 0.49836 -0.04940 0.47610
 O1212 O 0.53185 -0.04275 0.47837
 O1213 O 0.47651 -0.00135 0.45001
 O1214 O 0.47983 0.03257 0.45718
 O1215 O 0.45050 -0.02361 0.49772
 O1216 O 0.45739 -0.01890 0.53168
 Zr1217 Zr 0.47730 -0.02215 0.50997
 O1218 O 0.49399 -0.00576 0.52797
 Zr1219 Zr 0.47761 0.01062 0.47690
 O1220 O 0.49389 0.02860 0.49367
 Zr1221 Zr 0.51042 -0.02244 0.47730
 O1222 O 0.52838 -0.00576 0.49370
 Zr1223 Zr 0.48943 0.02262 0.52204
 O1224 O 0.47114 0.00633 0.50532
 Zr1225 Zr 0.52237 -0.01021 0.52209
 O1226 O 0.50577 -0.02845 0.50568
 Zr1227 Zr 0.52227 0.02266 0.48914
 O1228 O 0.50603 0.00597 0.47081
 O1229 O 0.48229 -0.01752 0.48181
 O1230 O 0.51769 0.01802 0.51738
 C1231 C 0.48464 -0.05701 0.48492
 C1232 C 0.44280 -0.01448 0.48426
 C1233 C 0.48560 -0.01486 0.44237
 C1234 C 0.51570 0.05656 0.51606
 C1235 C 0.51626 0.01682 0.55584
 C1236 C 0.55623 0.01639 0.51551
 H1237 H 0.49093 -0.00855 0.54116
 H1238 H 0.54153 -0.00872 0.49071
 H1239 H 0.47434 -0.02549 0.47378
 H1240 H 0.49088 0.04181 0.49093
 H1241 H 0.45750 0.03817 0.51616
 H1242 H 0.45943 0.04093 0.48443
 H1243 H 0.55126 -0.02960 0.51170
 H1244 H 0.53068 -0.04905 0.49063
 H1245 H 0.46906 0.02969 0.55127
 H1246 H 0.44788 -0.02894 0.53041
 H1247 H 0.55056 0.01189 0.46918
 H1248 H 0.53156 -0.00962 0.45119
 H1249 H 0.49125 -0.04860 0.53017
 H1250 H 0.51148 -0.02986 0.55058
 H1251 H 0.49147 0.03037 0.45006
 H1252 H 0.51185 0.05188 0.47022
 O1253 O 0.54892 0.52487 0.00107
 O1254 O 0.54288 0.52140 -0.03139
 O1255 O 0.50072 0.54990 0.02378
 O1256 O 0.46940 0.54475 0.02301
 O1257 O 0.52368 0.50164 0.04936
 O1258 O 0.52192 0.46863 0.04281
 O1259 O 0.45082 0.49836 -0.02549
 O1260 O 0.45558 0.53080 -0.02079
 O1261 O 0.49748 0.47554 -0.04883
 O1262 O 0.53158 0.47727 -0.04259
 O1263 O 0.47467 0.45139 -0.00203
 O1264 O 0.47649 0.45770 0.03195
 O1265 O 0.45082 0.47585 -0.00295
 O1266 O 0.45715 0.47879 0.03227
 O1267 O 0.49706 0.45131 -0.02459
 O1268 O 0.53196 0.45781 -0.02167
 O1269 O 0.47468 0.49774 -0.04872
 O1270 O 0.48109 0.53186 -0.04302
 O1271 O 0.54913 0.50203 0.02336
 O1272 O 0.54234 0.46837 0.02138
 O1273 O 0.50117 0.52418 0.04943
 O1274 O 0.46729 0.52064 0.04230
 O1275 O 0.52345 0.54977 0.00147
 O1276 O 0.51865 0.54269 -0.03235
 Zr1277 Zr 0.52194 0.52287 -0.01055
 O1278 O 0.50560 0.50606 -0.02840
 Zr1279 Zr 0.48918 0.52278 0.02254
 O1280 O 0.47121 0.50640 0.00582
 Zr1281 Zr 0.52217 0.48993 0.02236
 O1282 O 0.50548 0.47184 0.00607
 Zr1283 Zr 0.47727 0.51077 -0.02253
 O1284 O 0.49351 0.52913 -0.00590
 Zr1285 Zr 0.51004 0.47767 -0.02233
 O1286 O 0.52824 0.49440 -0.00604
 Zr1287 Zr 0.47706 0.47798 0.01042
 O1288 O 0.49376 0.49433 0.02872
 O1289 O 0.51728 0.51806 0.01765
 O1290 O 0.48182 0.48246 -0.01780
 C1291 C 0.55675 0.51573 0.01444
 C1292 C 0.51432 0.55757 0.01485
 C1293 C 0.51468 0.51515 0.05712
 C1294 C 0.44335 0.48446 -0.01688
 C1295 C 0.48353 0.48407 -0.05626
 C1296 C 0.48324 0.44383 -0.01588
 H1297 H 0.50846 0.50907 -0.04159
 H1298 H 0.50841 0.45869 0.00912
 H1299 H 0.52526 0.52607 0.02561
 H1300 H 0.45800 0.50943 0.00850
 H1301 H 0.46153 0.54265 -0.01678
 H1302 H 0.45886 0.54088 0.01493
 H1303 H 0.52913 0.44864 -0.01172
 H1304 H 0.54876 0.46955 0.00919
 H1305 H 0.47029 0.53127 -0.05170
 H1306 H 0.52877 0.55213 -0.03125
 H1307 H 0.48783 0.44991 0.03068
 H1308 H 0.50936 0.46894 0.04857
 H1309 H 0.54854 0.50880 -0.03049
 H1310 H 0.53012 0.48850 -0.05051
 H1311 H 0.46950 0.50900 0.04945
 H1312 H 0.44770 0.48837 0.02908
 O1313 O 0.77506 0.29932 0.49891
 O1314 O 0.77172 0.29321 0.53137
 O1315 O 0.79991 0.25112 0.47597
 O1316 O 0.79468 0.21968 0.47684
 O1317 O 0.75177 0.27417 0.45048
 O1318 O 0.71874 0.27249 0.45705
 O1319 O 0.74826 0.20116 0.52482
 O1320 O 0.78067 0.20585 0.52050
 O1321 O 0.72552 0.24786 0.54856
 O1322 O 0.72757 0.28200 0.54259
 O1323 O 0.70145 0.22534 0.50165
 O1324 O 0.70781 0.22748 0.46750
 O1325 O 0.72576 0.20130 0.50224
 O1326 O 0.72842 0.20767 0.46731
 O1327 O 0.70147 0.24777 0.52425
 O1328 O 0.70828 0.28275 0.52147
 O1329 O 0.74751 0.22485 0.54835
 O1330 O 0.78171 0.23124 0.54287
 O1331 O 0.75220 0.29960 0.47661
 O1332 O 0.71868 0.29302 0.47838
 O1333 O 0.77421 0.25155 0.45036
 O1334 O 0.77059 0.21771 0.45735
 O1335 O 0.79989 0.27384 0.49836
 O1336 O 0.79290 0.26882 0.53218
 Zr1337 Zr 0.77305 0.27230 0.51042
 O1338 O 0.75620 0.25599 0.52823
 Zr1339 Zr 0.77281 0.23956 0.47722
 O1340 O 0.75634 0.22165 0.49382
 Zr1341 Zr 0.74009 0.27268 0.47747
 O1342 O 0.72196 0.25610 0.49371
 Zr1343 Zr 0.76071 0.22761 0.52223
 O1344 O 0.77915 0.24381 0.50570
 Zr1345 Zr 0.72787 0.26057 0.52214
 O1346 O 0.74463 0.27872 0.50590
 Zr1347 Zr 0.72797 0.22765 0.48918
 O1348 O 0.74440 0.24426 0.47098
 O1349 O 0.76817 0.26770 0.48221
 O1350 O 0.73247 0.23231 0.51744
 C1351 C 0.76591 0.30717 0.48555
 C1352 C 0.80763 0.26473 0.48492
 C1353 C 0.76522 0.26511 0.44271
 C1354 C 0.73438 0.19375 0.51611
 C1355 C 0.73388 0.23375 0.55592
 C1356 C 0.69397 0.23395 0.51552
 H1357 H 0.75922 0.25878 0.54143
 H1358 H 0.70883 0.25911 0.49066
 H1359 H 0.77617 0.27567 0.47426
 H1360 H 0.75930 0.20842 0.49107
 H1361 H 0.79252 0.21177 0.51648
 H1362 H 0.79068 0.20907 0.48473
 H1363 H 0.69891 0.27985 0.51171
 H1364 H 0.71976 0.29932 0.49066
 H1365 H 0.78096 0.22045 0.55154
 H1366 H 0.80236 0.27892 0.53114
 H1367 H 0.69967 0.23852 0.46924
 H1368 H 0.71904 0.25994 0.45119
 H1369 H 0.75915 0.29891 0.53050
 H1370 H 0.73882 0.28047 0.55048
 H1371 H 0.75891 0.21990 0.45027
 H1372 H 0.73836 0.19848 0.47013
 O1373 O 0.75130 0.77521 -0.04940
 O1374 O 0.71885 0.77215 -0.04334
 O1375 O 0.77461 0.79979 -0.00117
 O1376 O 0.77374 0.79464 0.03012
 O1377 O 0.79942 0.75128 -0.02437
 O1378 O 0.79249 0.71837 -0.02275
 O1379 O 0.72504 0.74880 0.04869
 O1380 O 0.72978 0.78118 0.04389
 O1381 O 0.70112 0.72607 0.00200
 O1382 O 0.70707 0.72796 -0.03209
 O1383 O 0.74777 0.70156 0.02440
 O1384 O 0.78183 0.70754 0.02260
 O1385 O 0.74733 0.72603 0.04849
 O1386 O 0.78241 0.72843 0.04205
 O1387 O 0.72513 0.70171 0.00204
 O1388 O 0.72803 0.70847 -0.03288
 O1389 O 0.70156 0.74812 0.02499
 O1390 O 0.70740 0.78230 0.01853
 O1391 O 0.77338 0.75216 -0.04978
 O1392 O 0.77106 0.71848 -0.04321
 O1393 O 0.79983 0.77372 -0.00170
 O1394 O 0.79275 0.77026 0.03217
 O1395 O 0.75214 0.79998 -0.02379
 O1396 O 0.71821 0.79330 -0.01896
 Zr1397 Zr 0.73977 0.77324 -0.02241
 O1398 O 0.72178 0.75656 -0.00613
 Zr1399 Zr 0.77297 0.77269 0.01028
 O1400 O 0.75615 0.75645 0.02819
 Zr1401 Zr 0.77230 0.73994 -0.02289
 O1402 O 0.75591 0.72198 -0.00626
 Zr1403 Zr 0.72780 0.76110 0.02222
 O1404 O 0.74457 0.77934 0.00605
 Zr1405 Zr 0.72755 0.72813 -0.01072
 O1406 O 0.74393 0.74474 -0.02887
 Zr1407 Zr 0.76047 0.72801 0.02217
 O1408 O 0.77885 0.74420 0.00552
 O1409 O 0.76792 0.76810 -0.01784
 O1410 O 0.73227 0.73276 0.01752
 C1411 C 0.76458 0.76599 -0.05730
 C1412 C 0.76570 0.80759 -0.01472
 C1413 C 0.80736 0.76464 -0.01528
 C1414 C 0.73360 0.73483 0.05608
 C1415 C 0.69386 0.73452 0.01610
 C1416 C 0.73384 0.69414 0.01579
 H1417 H 0.70861 0.75970 -0.00892
 H1418 H 0.75883 0.70881 -0.00926
 H1419 H 0.77596 0.77602 -0.02578
 H1420 H 0.75894 0.75943 0.04140
 H1421 H 0.73393 0.79297 0.03793
 H1422 H 0.76565 0.79086 0.04065
 H1423 H 0.73778 0.69909 -0.03005
 H1424 H 0.75887 0.71981 -0.04962
 H1425 H 0.69873 0.78167 0.02931
 H1426 H 0.71945 0.80282 -0.02896
 H1427 H 0.78043 0.69977 0.01124
 H1428 H 0.79839 0.71867 -0.01023
 H1429 H 0.71950 0.75951 -0.04898
 H1430 H 0.69936 0.73934 -0.03060
 H1431 H 0.79988 0.75863 0.02983
 H1432 H 0.77958 0.73828 0.05135
 O1433 O 1.00090 0.19987 0.22534
 O1434 O 0.96843 0.20590 0.22853
 O1435 O 1.02367 0.24814 0.20030
 O1436 O 1.02286 0.27948 0.20541
 O1437 O 1.04922 0.22521 0.24856
 O1438 O 1.04263 0.22703 0.28156
 O1439 O 0.97462 0.29809 0.25176
 O1440 O 0.97895 0.29324 0.21931
 O1441 O 0.95107 0.25135 0.27469
 O1442 O 0.95714 0.21727 0.27271
 O1443 O 0.99802 0.27409 0.29863
 O1444 O 1.03201 0.27226 0.29231
 O1445 O 0.99721 0.29806 0.27424
 O1446 O 1.03225 0.29174 0.27140
 O1447 O 0.97541 0.25167 0.29871
 O1448 O 0.97831 0.21661 0.29199
 O1449 O 0.95123 0.27426 0.25261
 O1450 O 0.95669 0.26779 0.21841
 O1451 O 1.02319 0.19972 0.24820
 O1452 O 1.02130 0.20647 0.28170
 O1453 O 1.04929 0.24778 0.22608
 O1454 O 1.04214 0.28168 0.22952
 O1455 O 1.00139 0.22531 0.20035
 O1456 O 0.96753 0.23019 0.20733
 Zr1457 Zr 0.98930 0.22688 0.22720
 O1458 O 0.97144 0.24319 0.24399
 Zr1459 Zr 1.02239 0.25970 0.22736
 O1460 O 1.00571 0.27765 0.24372
 Zr1461 Zr 1.02222 0.22670 0.26019
 O1462 O 1.00595 0.24333 0.27823
 Zr1463 Zr 0.97732 0.27158 0.23938
 O1464 O 0.99393 0.25536 0.22101
 Zr1465 Zr 0.97754 0.23874 0.27235
 O1466 O 0.99382 0.22058 0.25564
 Zr1467 Zr 1.01039 0.27176 0.27209
 O1468 O 1.02865 0.25511 0.25577
 O1469 O 1.01750 0.23156 0.23207
 O1470 O 0.98215 0.26700 0.26763
 C1471 C 1.01426 0.19207 0.23454
 C1472 C 1.01478 0.23449 0.19260
 C1473 C 1.05698 0.23427 0.23512
 C1474 C 0.98331 0.30556 0.26563
 C1475 C 0.94368 0.26540 0.26628
 C1476 C 0.98419 0.26549 0.30617
 H1477 H 0.95825 0.24035 0.24098
 H1478 H 1.00902 0.24038 0.29137
 H1479 H 1.02547 0.22359 0.22410
 H1480 H 1.00841 0.29087 0.24070
 H1481 H 0.98302 0.28727 0.20750
 H1482 H 1.01475 0.29000 0.20924
 H1483 H 0.98808 0.21957 0.30133
 H1484 H 1.00910 0.20004 0.28054
 H1485 H 0.94796 0.27853 0.21914
 H1486 H 0.96864 0.22010 0.19786
 H1487 H 1.03069 0.26094 0.30013
 H1488 H 1.04856 0.23953 0.28110
 H1489 H 0.96925 0.20028 0.24114
 H1490 H 0.94928 0.21871 0.26143
 H1491 H 1.04935 0.27945 0.24112
 H1492 H 1.02921 0.30106 0.26165
 O1493 O 0.72520 1.00108 0.70050
 O1494 O 0.72835 0.96855 0.70669
 O1495 O 0.70030 1.02432 0.74852
 O1496 O 0.70541 1.02332 0.77992
 O1497 O 0.74858 1.04949 0.72548
 O1498 O 0.78162 1.04277 0.72747
 O1499 O 0.75165 0.97526 0.79870
 O1500 O 0.71925 0.97957 0.79387
 O1501 O 0.77456 0.95127 0.75223
 O1502 O 0.77248 0.95709 0.71810
 O1503 O 0.79858 0.99823 0.77460
 O1504 O 0.79229 1.03246 0.77234
 O1505 O 0.77421 0.99781 0.79853
 O1506 O 0.77169 1.03270 0.79211
 O1507 O 0.79860 0.97554 0.75226
 O1508 O 0.79180 0.97826 0.71724
 O1509 O 0.75252 0.95159 0.77515
 O1510 O 0.71830 0.95709 0.76859
 O1511 O 0.74814 1.02331 0.70022
 O1512 O 0.78162 1.02137 0.70689
 O1513 O 0.72614 1.04974 0.74807
 O1514 O 0.72956 1.04277 0.78197
 O1515 O 0.70025 1.00184 0.72588
 O1516 O 0.70710 0.96791 0.73100
 Zr1517 Zr 0.72706 0.98958 0.72753
 O1518 O 0.74384 0.97170 0.74389
 Zr1519 Zr 0.72735 1.02287 0.76014
 O1520 O 0.74372 1.00621 0.77810
 Zr1521 Zr 0.76017 1.02243 0.72715
 O1522 O 0.77820 1.00614 0.74380
 Zr1523 Zr 0.73930 0.97775 0.77222
 O1524 O 0.72094 0.99437 0.75596
 Zr1525 Zr 0.77222 0.97768 0.73940
 O1526 O 0.75553 0.99396 0.72120
 Zr1527 Zr 0.77211 1.01078 0.77217
 O1528 O 0.75578 1.02902 0.75551
 O1529 O 0.73205 1.01780 0.73207
 O1530 O 0.76755 0.98248 0.76759
 C1531 C 0.73441 1.01441 0.69265
 C1532 C 0.69256 1.01539 0.73491
 C1533 C 0.73514 1.05734 0.73449
 C1534 C 0.76554 0.98398 0.80609
 C1535 C 0.76620 0.94396 0.76635
 C1536 C 0.80608 0.98432 0.76606
 H1537 H 0.74079 0.95848 0.74114
 H1538 H 0.79134 1.00914 0.74082
 H1539 H 0.72411 1.02577 0.72407
 H1540 H 0.74073 1.00901 0.79130
 H1541 H 0.70744 0.98362 0.78790
 H1542 H 0.70936 1.01543 0.79055
 H1543 H 0.80118 0.98802 0.72011
 H1544 H 0.78047 1.00908 0.70059
 H1545 H 0.71906 0.94842 0.77937
 H1546 H 0.69767 0.96898 0.72087
 H1547 H 0.80046 1.03068 0.76135
 H1548 H 0.78113 1.04879 0.73993
 H1549 H 0.74094 0.96935 0.70104
 H1550 H 0.76119 0.94927 0.71962
 H1551 H 0.74124 1.04987 0.77977
 H1552 H 0.76162 1.02999 0.80118
 O1553 O 0.74888 0.54959 0.22559
 O1554 O 0.78130 0.54354 0.22871
 O1555 O 0.72589 0.50133 0.20049
 O1556 O 0.72685 0.46995 0.20557
 O1557 O 0.70053 0.52430 0.24879
 O1558 O 0.70725 0.52245 0.28181
 O1559 O 0.77505 0.45138 0.25172
 O1560 O 0.77076 0.45629 0.21937
 O1561 O 0.79874 0.49808 0.27494
 O1562 O 0.79265 0.53236 0.27268
 O1563 O 0.75203 0.47549 0.29872
 O1564 O 0.71784 0.47749 0.29244
 O1565 O 0.75256 0.45144 0.27426
 O1566 O 0.71767 0.45773 0.27181
 O1567 O 0.77451 0.49803 0.29887
 O1568 O 0.77176 0.53292 0.29222
 O1569 O 0.79852 0.47511 0.25287
 O1570 O 0.79308 0.48167 0.21861
 O1571 O 0.72660 0.54981 0.24842
 O1572 O 0.72848 0.54311 0.28191
 O1573 O 0.70040 0.50169 0.22629
 O1574 O 0.70755 0.46782 0.22970
 O1575 O 0.74821 0.52412 0.20057
 O1576 O 0.78209 0.51921 0.20748
 Zr1577 Zr 0.76041 0.52257 0.22739
 O1578 O 0.77835 0.50630 0.24415
 Zr1579 Zr 0.72731 0.48977 0.22754
 O1580 O 0.74404 0.47187 0.24388
 Zr1581 Zr 0.72757 0.52283 0.26040
 O1582 O 0.74392 0.50624 0.27841
 Zr1583 Zr 0.77243 0.47792 0.23952
 O1584 O 0.75575 0.49410 0.22118
 Zr1585 Zr 0.77232 0.51081 0.27250
 O1586 O 0.75596 0.52893 0.25584
 Zr1587 Zr 0.73946 0.47780 0.27226
 O1588 O 0.72114 0.49440 0.25596
 O1589 O 0.73222 0.51792 0.23228
 O1590 O 0.76769 0.48254 0.26778
 C1591 C 0.73554 0.55743 0.23477
 C1592 C 0.73477 0.51497 0.19281
 C1593 C 0.69272 0.51521 0.23534
 C1594 C 0.76637 0.44391 0.26556
 C1595 C 0.80608 0.48395 0.26659
 C1596 C 0.76583 0.48417 0.30629
 H1597 H 0.79154 0.50912 0.24113
 H1598 H 0.74090 0.50921 0.29156
 H1599 H 0.72423 0.52590 0.22434
 H1600 H 0.74132 0.45865 0.24084
 H1601 H 0.76664 0.46227 0.20759
 H1602 H 0.73489 0.45940 0.20945
 H1603 H 0.76180 0.53016 0.30140
 H1604 H 0.74076 0.54940 0.28089
 H1605 H 0.80179 0.47091 0.21935
 H1606 H 0.78094 0.52929 0.19802
 H1607 H 0.71959 0.48848 0.30067
 H1608 H 0.70140 0.50990 0.28139
 H1609 H 0.78064 0.54906 0.24138
 H1610 H 0.80088 0.53049 0.26174
 H1611 H 0.70045 0.46999 0.24136
 H1612 H 0.72037 0.44870 0.26168
 O1613 O 0.45035 0.25144 0.77430
 O1614 O 0.45622 0.21889 0.77093
 O1615 O 0.49862 0.27400 0.79956
 O1616 O 0.52992 0.27293 0.79455
 O1617 O 0.47586 0.29971 0.75134
 O1618 O 0.47774 0.29314 0.71828
 O1619 O 0.54842 0.22494 0.74809
 O1620 O 0.54343 0.22896 0.78051
 O1621 O 0.50174 0.20144 0.72462
 O1622 O 0.46762 0.20757 0.72680
 O1623 O 0.52451 0.24841 0.70122
 O1624 O 0.52267 0.28251 0.70771
 O1625 O 0.54845 0.24762 0.72571
 O1626 O 0.54222 0.28258 0.72853
 O1627 O 0.50195 0.22594 0.70090
 O1628 O 0.46700 0.22882 0.70758
 O1629 O 0.52464 0.20147 0.74672
 O1630 O 0.51804 0.20669 0.78102
 O1631 O 0.45027 0.27386 0.75158
 O1632 O 0.45697 0.27197 0.71809
 O1633 O 0.49834 0.29964 0.77394
 O1634 O 0.53221 0.29236 0.77050
 O1635 O 0.47575 0.25177 0.79934
 O1636 O 0.48047 0.21783 0.79223
 Zr1637 Zr 0.47727 0.23968 0.77244
 O1638 O 0.49351 0.22175 0.75559
 Zr1639 Zr 0.51018 0.27268 0.77253
 O1640 O 0.52803 0.25595 0.75613
 Zr1641 Zr 0.47721 0.27272 0.73961
 O1642 O 0.49377 0.25640 0.72153
 Zr1643 Zr 0.52188 0.22752 0.76028
 O1644 O 0.50574 0.24417 0.77870
 Zr1645 Zr 0.48911 0.22794 0.72726
 O1646 O 0.47101 0.24428 0.74399
 Zr1647 Zr 0.52217 0.26077 0.72778
 O1648 O 0.50561 0.27905 0.74415
 O1649 O 0.48206 0.26789 0.76771
 O1650 O 0.51734 0.23248 0.73206
 C1651 C 0.44261 0.26492 0.76521
 C1652 C 0.48493 0.26516 0.80717
 C1653 C 0.48488 0.30741 0.76488
 C1654 C 0.55592 0.23371 0.73433
 C1655 C 0.51582 0.19399 0.73294
 C1656 C 0.51583 0.23465 0.69357
 H1657 H 0.49064 0.20853 0.75852
 H1658 H 0.49084 0.25953 0.70840
 H1659 H 0.47413 0.27589 0.77569
 H1660 H 0.54124 0.25861 0.75921
 H1661 H 0.53744 0.23307 0.79229
 H1662 H 0.54045 0.26487 0.79065
 H1663 H 0.46990 0.23870 0.69836
 H1664 H 0.45059 0.25972 0.71909
 H1665 H 0.52873 0.19791 0.78018
 H1666 H 0.47038 0.21898 0.80165
 H1667 H 0.51152 0.28106 0.69966
 H1668 H 0.49022 0.29910 0.71889
 H1669 H 0.45068 0.21972 0.75828
 H1670 H 0.46921 0.19951 0.73791
 H1671 H 0.52996 0.29970 0.75899
 H1672 H 0.55130 0.27969 0.73855
 O1673 O 0.29953 0.75174 0.47536
 O1674 O 0.29344 0.71924 0.47846
 O1675 O 0.25133 0.77469 0.45043
 O1676 O 0.22003 0.77395 0.45556
 O1677 O 0.27445 0.80005 0.49882
 O1678 O 0.27263 0.79332 0.53178
 O1679 O 0.20137 0.72544 0.50153
 O1680 O 0.20622 0.72995 0.46916
 O1681 O 0.24800 0.70170 0.52442
 O1682 O 0.28214 0.70778 0.52247
 O1683 O 0.22554 0.74858 0.54865
 O1684 O 0.22732 0.78258 0.54255
 O1685 O 0.20151 0.74789 0.52419
 O1686 O 0.20797 0.78304 0.52151
 O1687 O 0.24790 0.72595 0.54862
 O1688 O 0.28277 0.72873 0.54199
 O1689 O 0.22510 0.70195 0.50231
 O1690 O 0.23157 0.70763 0.46816
 O1691 O 0.29983 0.77398 0.49831
 O1692 O 0.29311 0.77191 0.53185
 O1693 O 0.25188 0.80025 0.47632
 O1694 O 0.21797 0.79314 0.47978
 O1695 O 0.27400 0.75230 0.45043
 O1696 O 0.26914 0.71842 0.45727
 Zr1697 Zr 0.27253 0.74015 0.47722
 O1698 O 0.25619 0.72221 0.49388
 Zr1699 Zr 0.23984 0.77334 0.47750
 O1700 O 0.22189 0.75657 0.49376
 Zr1701 Zr 0.27289 0.77297 0.51032
 O1702 O 0.25623 0.75661 0.52827
 Zr1703 Zr 0.22786 0.72816 0.48926
 O1704 O 0.24409 0.74487 0.47102
 Zr1705 Zr 0.26071 0.72818 0.52226
 O1706 O 0.27889 0.74454 0.50567
 Zr1707 Zr 0.22782 0.76109 0.52216
 O1708 O 0.24450 0.77944 0.50595
 O1709 O 0.26794 0.76837 0.48219
 O1710 O 0.23248 0.73283 0.51755
 C1711 C 0.30740 0.76509 0.48458
 C1712 C 0.26489 0.76574 0.44272
 C1713 C 0.26543 0.80789 0.48539
 C1714 C 0.19395 0.73407 0.51544
 C1715 C 0.23395 0.69433 0.51595
 C1716 C 0.23415 0.73471 0.55614
 H1717 H 0.25899 0.70901 0.49080
 H1718 H 0.25920 0.75962 0.54143
 H1719 H 0.27592 0.77636 0.47425
 H1720 H 0.20869 0.75932 0.49074
 H1721 H 0.21218 0.73408 0.45738
 H1722 H 0.20950 0.76584 0.45935
 H1723 H 0.28002 0.73866 0.55122
 H1724 H 0.29946 0.75967 0.53065
 H1725 H 0.22081 0.69891 0.46882
 H1726 H 0.27919 0.71957 0.44780
 H1727 H 0.23873 0.78133 0.55026
 H1728 H 0.26014 0.79925 0.53136
 H1729 H 0.29903 0.71996 0.49110
 H1730 H 0.28050 0.69980 0.51128
 H1731 H 0.22027 0.80034 0.49139
 H1732 H 0.19855 0.77998 0.51185
 O1733 O 0.20083 0.22492 1.00135
 O1734 O 0.20689 0.22805 0.96889
 O1735 O 0.24915 0.20004 1.02424
 O1736 O 0.28044 0.20528 1.02335
 O1737 O 0.22603 0.24824 1.04969
 O1738 O 0.22776 0.28131 1.04310
 O1739 O 0.29888 0.25171 0.97521
 O1740 O 0.29413 0.21916 0.97952
 O1741 O 0.25203 0.27431 0.95149
 O1742 O 0.21796 0.27221 0.95762
 O1743 O 0.27470 0.29852 0.99826
 O1744 O 0.27262 0.29224 1.03250
 O1745 O 0.29875 0.27423 0.99779
 O1746 O 0.29246 0.27165 1.03265
 O1747 O 0.25226 0.29846 0.97570
 O1748 O 0.21732 0.29166 0.97865
 O1749 O 0.27506 0.25235 0.95170
 O1750 O 0.26874 0.21813 0.95725
 O1751 O 0.20056 0.24783 1.02362
 O1752 O 0.20720 0.28137 1.02181
 O1753 O 0.24864 0.22579 1.04980
 O1754 O 0.28249 0.22948 1.04270
 O1755 O 0.22639 0.20001 1.00192
 O1756 O 0.23119 0.20691 0.96808
 Zr1757 Zr 0.22782 0.22685 0.98980
 O1758 O 0.24407 0.24367 0.97193
 Zr1759 Zr 0.26059 0.22718 1.02292
 O1760 O 0.27844 0.24362 1.00624
 Zr1761 Zr 0.22748 0.25991 1.02269
 O1762 O 0.24400 0.27803 1.00637
 Zr1763 Zr 0.27244 0.23919 0.97785
 O1764 O 0.25629 0.22077 0.99447
 Zr1765 Zr 0.23947 0.27204 0.97797
 O1766 O 0.22140 0.25530 0.99429
 Zr1767 Zr 0.27243 0.27203 1.01084
 O1768 O 0.25589 0.25562 1.02912
 O1769 O 0.23246 0.23178 1.01800
 O1770 O 0.26772 0.26747 0.98260
 C1771 C 0.19296 0.23413 1.01467
 C1772 C 0.23555 0.19229 1.01533
 C1773 C 0.23509 0.23478 1.05747
 C1774 C 0.30630 0.26561 0.98393
 C1775 C 0.26611 0.26595 0.94411
 C1776 C 0.26608 0.30599 0.98439
 H1777 H 0.24124 0.24061 0.95874
 H1778 H 0.24100 0.29118 1.00940
 H1779 H 0.22450 0.22378 1.02596
 H1780 H 0.29166 0.24066 1.00895
 H1781 H 0.28821 0.20733 0.98359
 H1782 H 0.29097 0.20920 1.01533
 H1783 H 0.22022 0.30105 0.98840
 H1784 H 0.20088 0.28028 1.00954
 H1785 H 0.27947 0.21887 0.94853
 H1786 H 0.22115 0.19739 0.96922
 H1787 H 0.26162 0.30041 1.03074
 H1788 H 0.24030 0.28097 1.04894
 H1789 H 0.20121 0.24065 0.96968
 H1790 H 0.21954 0.26099 0.94969
 H1791 H 0.28023 0.24112 1.04987
 H1792 H 0.30149 0.26154 1.02994
 N1793 N 0.29651 0.40267 0.77270
 C1794 C 0.28889 0.39496 0.78826
 N1795 N 0.27344 0.40295 0.79580
 N1796 N 0.26600 0.41823 0.78819
 C1797 C 0.27367 0.42603 0.77269
 N1798 N 0.28908 0.41797 0.76509
 N1799 N 0.27196 -0.09903 0.29392
 C1800 C 0.28765 -0.10671 0.28655
 N1801 N 0.29530 -0.09886 0.27107
 N1802 N 0.28773 -0.08363 0.26348
 C1803 C 0.27217 -0.07579 0.27100
 N1804 N 0.26440 -0.08381 0.28633
 N1805 N 0.77331 0.90271 0.79640
 C1806 C 0.78891 0.89493 0.78889
 N1807 N 0.79654 0.90295 0.77347
 N1808 N 0.78899 0.91825 0.76598
 C1809 C 0.77345 0.92608 0.77356
 N1810 N 0.76577 0.91802 0.78892
 N1811 N 0.45471 0.84813 0.27246
 C1812 C 0.46236 0.85606 0.28792
 N1813 N 0.47787 0.84823 0.29554
 N1814 N 0.48533 0.83287 0.28807
 C1815 C 0.47763 0.82488 0.27265
 N1816 N 0.46218 0.83279 0.26499
 N1817 N -0.04642 0.84718 0.77343
 C1818 C -0.03878 0.85501 0.78896
 N1819 N -0.02319 0.84718 0.79642
 N1820 N -0.01564 0.83196 0.78874
 C1821 C -0.02333 0.82407 0.77325
 N1822 N -0.03888 0.83196 0.76575
 N1823 N -0.02271 -0.09806 -0.04594
 C1824 C -0.03826 -0.10590 -0.03843
 N1825 N -0.04588 -0.09810 -0.02292
 N1826 N -0.03837 -0.08283 -0.01532
 C1827 C -0.02289 -0.07490 -0.02288
 N1828 N -0.01520 -0.08279 -0.03834
 N1829 N -0.02329 0.40207 0.45416
 C1830 C -0.03891 0.39422 0.46157
 N1831 N -0.04657 0.40210 0.47705
 N1832 N -0.03905 0.41739 0.48467
 C1833 C -0.02352 0.42531 0.47717
 N1834 N -0.01578 0.41735 0.46177
 N1835 N 0.45495 -0.09851 0.47799
 C1836 C 0.46258 -0.10636 0.46248
 N1837 N 0.47820 -0.09851 0.45507
 N1838 N 0.48567 -0.08320 0.46269
 C1839 C 0.47791 -0.07524 0.47809
 N1840 N 0.46242 -0.08320 0.48560
 N1841 N 0.45293 0.40275 -0.02308
 C1842 C 0.46064 0.39475 -0.03848
 N1843 N 0.47633 0.40249 -0.04584
 N1844 N 0.48387 0.41779 -0.03828
 C1845 C 0.47608 0.42587 -0.02297
 N1846 N 0.46047 0.41805 -0.01551
 N1847 N 0.79577 0.34846 0.47848
 C1848 C 0.78806 0.35619 0.46296
 N1849 N 0.77239 0.34839 0.45564
 N1850 N 0.76488 0.33320 0.46335
 C1851 C 0.77267 0.32533 0.47875
 N1852 N 0.78826 0.33325 0.48619
 N1853 N 0.79581 0.84870 -0.02184
 C1854 C 0.78820 0.85640 -0.03742
 N1855 N 0.77251 0.84865 -0.04477
 N1856 N 0.76489 0.83353 -0.03702
 C1857 C 0.77258 0.82569 -0.02154
 N1858 N 0.78819 0.83356 -0.01409
 N1859 N 0.79492 0.27169 0.40131
 C1860 C 0.78749 0.28736 0.39361
 N1861 N 0.77202 0.29500 0.40149
 N1862 N 0.76444 0.28744 0.41671
 C1863 C 0.77196 0.27187 0.42454
 N1864 N 0.78733 0.26412 0.41653
 N1865 N 0.77145 0.79598 -0.09855
 C1866 C 0.78696 0.78837 -0.10639
 N1867 N 0.79438 0.77270 -0.09864
 N1868 N 0.78677 0.76512 -0.08344
 C1869 C 0.77137 0.77283 -0.07547
 N1870 N 0.76385 0.78840 -0.08333
 N1871 N 0.29612 0.47700 0.84731
 C1872 C 0.28864 0.46137 0.85507
 N1873 N 0.27317 0.45370 0.84715
 N1874 N 0.26558 0.46126 0.83192
 C1875 C 0.27309 0.47684 0.82409
 N1876 N 0.28852 0.48456 0.83207
 N1877 N 0.27241 -0.04474 0.34851
 C1878 C 0.28793 -0.03702 0.35628
 N1879 N 0.29535 -0.02144 0.34839
 N1880 N 0.28772 -0.01405 0.33309
 C1881 C 0.27230 -0.02187 0.32520
 N1882 N 0.26478 -0.03735 0.33321
 N1883 N -0.04620 -0.02398 -0.09708
 C1884 C -0.03870 -0.03947 -0.10512
 N1885 N -0.02309 -0.04707 -0.09743
 N1886 N -0.01541 -0.03958 -0.08216
 C1887 C -0.02296 -0.02413 -0.07409
 N1888 N -0.03851 -0.01649 -0.08184
 N1889 N -0.02394 0.45281 0.40315
 C1890 C -0.03943 0.46039 0.39521
 N1891 N -0.04697 0.47598 0.40303
 N1892 N -0.03943 0.48356 0.41831
 C1893 C -0.02398 0.47593 0.42630
 N1894 N -0.01640 0.46039 0.41842
 N1895 N 0.47907 -0.04454 0.40090
 C1896 C 0.46359 -0.03688 0.39304
 N1897 N 0.45613 -0.02127 0.40082
 N1898 N 0.46365 -0.01377 0.41613
 C1899 C 0.47901 -0.02153 0.42412
 N1900 N 0.48660 -0.03704 0.41621
 N1901 N 0.47666 0.45403 -0.09737
 C1902 C 0.46108 0.46154 -0.10515
 N1903 N 0.45345 0.47704 -0.09729
 N1904 N 0.46098 0.48459 -0.08202
 C1905 C 0.47649 0.47700 -0.07415
 N1906 N 0.48420 0.46158 -0.08211
 N1907 N 0.47773 0.79693 0.34728
 C1908 C 0.46214 0.78943 0.35507
 N1909 N 0.45434 0.77409 0.34701
 N1910 N 0.46172 0.76663 0.33163
 C1911 C 0.47726 0.77417 0.32377
 N1912 N 0.48512 0.78947 0.33188
 N1913 N -0.02231 0.79609 0.84754
 C1914 C -0.03783 0.78842 0.85528
 N1915 N -0.04535 0.77288 0.84738
 N1916 N -0.03776 0.76540 0.83212
 C1917 C -0.02231 0.77312 0.82429
 N1918 N -0.01472 0.78861 0.83227
 N1919 N 0.40291 0.79628 0.27289
 C1920 C 0.39503 0.78861 0.28834
 N1921 N 0.40291 0.77310 0.29592
 N1922 N 0.41827 0.76567 0.28846
 C1923 C 0.42624 0.77341 0.27308
 N1924 N 0.41827 0.78885 0.26543
 N1925 N -0.09681 0.79655 0.77335
 C1926 C -0.10480 0.78893 0.78876
 N1927 N -0.09708 0.77332 0.79631
 N1928 N -0.08179 0.76574 0.78886
 C1929 C -0.07371 0.77343 0.77351
 N1930 N -0.08152 0.78898 0.76590
 N1931 N 0.84876 0.29487 0.47815
 C1932 C 0.85658 0.28736 0.46258
 N1933 N 0.84892 0.27164 0.45512
 N1934 N 0.83377 0.26393 0.46273
 C1935 C 0.82580 0.27155 0.47818
 N1936 N 0.83362 0.28715 0.48576
 N1937 N 0.84878 0.79420 -0.02200
 C1938 C 0.85637 0.78673 -0.03769
 N1939 N 0.84847 0.77120 -0.04526
 N1940 N 0.83328 0.76363 -0.03761
 C1941 C 0.82555 0.77122 -0.02203
 N1942 N 0.83360 0.78663 -0.01435
 N1943 N -0.09697 -0.04659 -0.02338
 C1944 C -0.10472 -0.03887 -0.03887
 N1945 N -0.09677 -0.02337 -0.04637
 N1946 N -0.08146 -0.01597 -0.03878
 C1947 C -0.07361 -0.02375 -0.02336
 N1948 N -0.08165 -0.03920 -0.01580
 N1949 N -0.09745 0.47704 0.45389
 C1950 C -0.10531 0.46156 0.46153
 N1951 N -0.09755 0.45406 0.47712
 N1952 N -0.08230 0.46165 0.48466
 C1953 C -0.07435 0.47707 0.47696
 N1954 N -0.08220 0.48463 0.46143
 N1955 N 0.40142 -0.04425 0.47754
 C1956 C 0.39356 -0.03672 0.46199
 N1957 N 0.40135 -0.02110 0.45449
 N1958 N 0.41663 -0.01354 0.46203
 C1959 C 0.42460 -0.02120 0.47747
 N1960 N 0.41669 -0.03668 0.48509
 N1961 N 0.40251 0.45391 -0.02400
 C1962 C 0.39449 0.46144 -0.03947
 N1963 N 0.40219 0.47709 -0.04701
 N1964 N 0.41745 0.48476 -0.03951
 C1965 C 0.42551 0.47716 -0.02409
 N1966 N 0.41775 0.46158 -0.01649
 N1967 N 0.34697 0.45410 0.77353
 C1968 C 0.35486 0.46170 0.78904
 N1969 N 0.34708 0.47728 0.79662
 N1970 N 0.33183 0.48485 0.78908
 C1971 C 0.32387 0.47718 0.77362
 N1972 N 0.33173 0.46166 0.76600
 N1973 N 0.34896 -0.04411 0.27136
 C1974 C 0.35677 -0.03658 0.28694
 N1975 N 0.34898 -0.02103 0.29455
 N1976 N 0.33370 -0.01349 0.28705
 C1977 C 0.32576 -0.02113 0.27158
 N1978 N 0.33369 -0.03656 0.26386
 N1979 N 0.15095 0.52113 0.70558
 C1980 C 0.14312 0.53669 0.71314
 N1981 N 0.15103 0.54436 0.72861
 N1982 N 0.16638 0.53693 0.73608
 C1983 C 0.17432 0.52147 0.72845
 N1984 N 0.16631 0.51370 0.71306
 N1985 N 0.15274 0.04564 0.22700
 C1986 C 0.14484 0.03789 0.21157
 N1987 N 0.15272 0.02235 0.20403
 N1988 N 0.16807 0.01495 0.21155
 C1989 C 0.17603 0.02275 0.22695
 N1990 N 0.16808 0.03824 0.23452
 N1991 N 0.59880 0.70532 0.22817
 C1992 C 0.60667 0.71302 0.21272
 N1993 N 0.59889 0.72866 0.20530
 N1994 N 0.58361 0.73613 0.21287
 C1995 C 0.57563 0.72834 0.22823
 N1996 N 0.58352 0.71279 0.23574
 N1997 N 0.09902 0.70507 0.72879
 C1998 C 0.10678 0.71269 0.71325
 N1999 N 0.09890 0.72824 0.70576
 N2000 N 0.08362 0.73571 0.71332
 C2001 C 0.07572 0.72799 0.72874
 N2002 N 0.08372 0.71254 0.73635
 N2003 N 0.65293 0.20372 0.52272
 C2004 C 0.64517 0.21135 0.53826
 N2005 N 0.65302 0.22695 0.54575
 N2006 N 0.66824 0.23450 0.53813
 C2007 C 0.67610 0.22680 0.52266
 N2008 N 0.66815 0.21127 0.51510
 N2009 N 0.65254 0.70465 0.02279
 C2010 C 0.64470 0.71221 0.03832
 N2011 N 0.65267 0.72763 0.04607
 N2012 N 0.66805 0.73507 0.03868
 C2013 C 0.67594 0.72745 0.02318
 N2014 N 0.66790 0.71210 0.01538
 N2015 N 0.09892 0.02090 0.04485
 C2016 C 0.10668 0.03652 0.03736
 N2017 N 0.09885 0.04410 0.02184
 N2018 N 0.08362 0.03653 0.01425
 C2019 C 0.07574 0.02100 0.02182
 N2020 N 0.08368 0.01332 0.03726
 N2021 N 0.09817 0.54510 0.52186
 C2022 C 0.10611 0.53742 0.53728
 N2023 N 0.09845 0.52169 0.54465
 N2024 N 0.08321 0.51411 0.53705
 C2025 C 0.07515 0.52187 0.52171
 N2026 N 0.08293 0.53751 0.51426
 N2027 N 0.59724 0.02344 0.54564
 C2028 C 0.60508 0.03899 0.53810
 N2029 N 0.59729 0.04656 0.52255
 N2030 N 0.58204 0.03899 0.51497
 C2031 C 0.57413 0.02350 0.52258
 N2032 N 0.58201 0.01587 0.53806
 N2033 N 0.59822 0.54551 0.02122
 C2034 C 0.60608 0.53784 0.03670
 N2035 N 0.59826 0.52222 0.04412
 N2036 N 0.58296 0.51472 0.03656
 C2037 C 0.57497 0.52249 0.02119
 N2038 N 0.58290 0.53802 0.01366
 N2039 N 0.04523 0.02038 0.09873
 C2040 C 0.03766 0.03597 0.10649
 N2041 N 0.02205 0.04341 0.09871
 N2042 N 0.01448 0.03576 0.08351
 C2043 C 0.02215 0.02030 0.07560
 N2044 N 0.03766 0.01273 0.08351
 N2045 N 0.02138 0.54379 0.59914
 C2046 C 0.03690 0.53624 0.60701
 N2047 N 0.04453 0.52073 0.59915
 N2048 N 0.03708 0.51323 0.58379
 C2049 C 0.02165 0.52088 0.57581
 N2050 N 0.01393 0.53629 0.58379
 N2051 N 0.54637 0.02406 0.59704
 C2052 C 0.53880 0.03963 0.60488
 N2053 N 0.52331 0.04720 0.59693
 N2054 N 0.51583 0.03963 0.58161
 C2055 C 0.52346 0.02411 0.57372
 N2056 N 0.53888 0.01648 0.58173
 N2057 N 0.52132 0.54479 0.09867
 C2058 C 0.53690 0.53723 0.10643
 N2059 N 0.54447 0.52173 0.09851
 N2060 N 0.53692 0.51423 0.08321
 C2061 C 0.52144 0.52187 0.07533
 N2062 N 0.51378 0.53729 0.08336
 N2063 N 0.20485 0.52160 0.65127
 C2064 C 0.21230 0.53729 0.64361
 N2065 N 0.22778 0.54490 0.65154
 N2066 N 0.23535 0.53730 0.66677
 C2067 C 0.22780 0.52171 0.67456
 N2068 N 0.21241 0.51399 0.66651
 N2069 N 0.22709 0.04491 0.15238
 C2070 C 0.21163 0.03725 0.14446
 N2071 N 0.20404 0.02171 0.15226
 N2072 N 0.21151 0.01423 0.16759
 C2073 C 0.22692 0.02196 0.17557
 N2074 N 0.23456 0.03744 0.16768
 N2075 N 0.70371 0.22691 0.59697
 C2076 C 0.71126 0.21141 0.60490
 N2077 N 0.72675 0.20375 0.59709
 N2078 N 0.73428 0.21119 0.58178
 C2079 C 0.72668 0.22665 0.57378
 N2080 N 0.71124 0.23437 0.58167
 N2081 N 0.70385 0.72794 0.09748
 C2082 C 0.71145 0.71237 0.10523
 N2083 N 0.72682 0.70470 0.09719
 N2084 N 0.73420 0.71220 0.08184
 C2085 C 0.72656 0.72772 0.07402
 N2086 N 0.71123 0.73544 0.08212
 N2087 N 0.54515 0.72922 0.15101
 C2088 C 0.53750 0.71371 0.14314
 N2089 N 0.52189 0.70624 0.15090
 N2090 N 0.51438 0.71380 0.16616
 C2091 C 0.52212 0.72920 0.17416
 N2092 N 0.53764 0.73678 0.16629
 N2093 N 0.02210 0.70515 0.65155
 C2094 C 0.03773 0.71263 0.64385
 N2095 N 0.04533 0.72816 0.65173
 N2096 N 0.03775 0.73575 0.66696
 C2097 C 0.02222 0.72818 0.67479
 N2098 N 0.01453 0.71273 0.66679
 N2099 N 0.54439 0.65170 0.22784
 C2100 C 0.53685 0.64381 0.21231
 N2101 N 0.52132 0.65161 0.20469
 N2102 N 0.51381 0.66696 0.21215
 C2103 C 0.52146 0.67497 0.22760
 N2104 N 0.53688 0.66703 0.23531
 N2105 N 0.02110 0.65101 0.70557
 C2106 C 0.03658 0.64318 0.71326
 N2107 N 0.04406 0.65102 0.72885
 N2108 N 0.03653 0.66636 0.73628
 C2109 C 0.02118 0.67434 0.72847
 N2110 N 0.01358 0.66635 0.71300
 N2111 N 0.02132 0.09804 0.04519
 C2112 C 0.03676 0.10592 0.03750
 N2113 N 0.04425 0.09806 0.02195
 N2114 N 0.03677 0.08269 0.01453
 C2115 C 0.02144 0.07467 0.02231
 N2116 N 0.01384 0.08265 0.03778
 N2117 N 0.04452 0.59826 0.52226
 C2118 C 0.03703 0.60617 0.53779
 N2119 N 0.02143 0.59844 0.54534
 N2120 N 0.01380 0.58316 0.53781
 C2121 C 0.02140 0.57514 0.52237
 N2122 N 0.03689 0.58300 0.51473
 N2123 N 0.52309 0.09765 0.54618
 C2124 C 0.53870 0.10536 0.53862
 N2125 N 0.54618 0.09745 0.52310
 N2126 N 0.53849 0.08223 0.51555
 C2127 C 0.52296 0.07442 0.52318
 N2128 N 0.51540 0.08243 0.53864
 N2129 N 0.52119 0.59906 0.04448
 C2130 C 0.53683 0.60672 0.03697
 N2131 N 0.54431 0.59883 0.02142
 N2132 N 0.53662 0.58360 0.01388
 C2133 C 0.52109 0.57580 0.02152
 N2134 N 0.51350 0.58383 0.03694
 N2135 N 0.72709 0.15272 0.54620
 C2136 C 0.71151 0.14496 0.53862
 N2137 N 0.70397 0.15282 0.52309
 N2138 N 0.71160 0.16806 0.51556
 C2139 C 0.72713 0.17590 0.52320
 N2140 N 0.73472 0.16795 0.53867
 N2141 N 0.70383 0.65285 0.02266
 C2142 C 0.71147 0.64498 0.03814
 N2143 N 0.72697 0.65289 0.04574
 N2144 N 0.73443 0.66824 0.03827
 C2145 C 0.72674 0.67619 0.02285
 N2146 N 0.71129 0.66821 0.01519
 N2147 N 0.22837 0.59869 0.70497
 C2148 C 0.21294 0.60662 0.71263
 N2149 N 0.20551 0.59890 0.72828
 N2150 N 0.21304 0.58359 0.73578
 C2151 C 0.22837 0.57554 0.72800
 N2152 N 0.23590 0.58340 0.71247
 N2153 N 0.20399 0.09683 0.22639
 C2154 C 0.21174 0.10486 0.21106
 N2155 N 0.22732 0.09710 0.20354
 N2156 N 0.23475 0.08171 0.21096
 C2157 C 0.22694 0.07361 0.22624
 N2158 N 0.21142 0.08146 0.23381
 N2159 N 0.70537 1.09868 0.72777
 C2160 C 0.71281 1.10644 0.71215
 N2161 N 0.72835 1.09863 0.70458
 N2162 N 0.73596 1.08341 0.71216
 C2163 C 0.72841 1.07552 0.72768
 N2164 N 0.71298 1.08347 0.73535
 N2165 N 0.70589 0.59889 0.22828
 C2166 C 0.71327 0.60659 0.21261
 N2167 N 0.72875 0.59873 0.20497
 N2168 N 0.73635 0.58350 0.21252
 C2169 C 0.72884 0.57565 0.22808
 N2170 N 0.71349 0.58366 0.23583
 N2171 N 0.54602 0.15292 0.72557
 C2172 C 0.53841 0.14501 0.71005
 N2173 N 0.52286 0.15289 0.70251
 N2174 N 0.51534 0.16819 0.71010
 C2175 C 0.52301 0.17614 0.72557
 N2176 N 0.53851 0.16821 0.73314
 N2177 N 1.04420 0.15083 0.22812
 C2178 C 1.03683 0.14299 0.21248
 N2179 N 1.02127 0.15069 0.20482
 N2180 N 1.01357 0.16590 0.21233
 C2181 C 1.02105 0.17388 0.22786
 N2182 N 1.03649 0.16603 0.23563
 N2183 N 0.20382 0.65320 0.52296
 C2184 C 0.21151 0.64527 0.53838
 N2185 N 0.22711 0.65307 0.54589
 N2186 N 0.23461 0.66839 0.53839
 C2187 C 0.22684 0.67641 0.52304
 N2188 N 0.21131 0.66852 0.51546
 N2189 N 0.22868 0.15105 1.04521
 C2190 C 0.21313 0.14325 1.03761
 N2191 N 0.20572 0.15097 1.02195
 N2192 N 0.21337 0.16616 1.01437
 C2193 C 0.22882 0.17410 1.02208
 N2194 N 0.23635 0.16624 1.03762
 N2195 N 0.20424 0.72787 0.59738
 C2196 C 0.21182 0.71233 0.60521
 N2197 N 0.22728 0.70470 0.59730
 N2198 N 0.23475 0.71219 0.58199
 C2199 C 0.22711 0.72767 0.57408
 N2200 N 0.21171 0.73536 0.58207
 N2201 N 0.20532 0.22811 1.09877
 C2202 C 0.21289 0.21258 1.10662
 N2203 N 0.22848 0.20506 1.09887
 N2204 N 0.23603 0.21261 1.08362
 C2205 C 0.22836 0.22805 1.07565
 N2206 N 0.21287 0.23566 1.08353
 N2207 N 0.70490 0.52172 0.15149
 C2208 C 0.71239 0.53736 0.14377
 N2209 N 0.72796 0.54490 0.15159
 N2210 N 0.73557 0.53728 0.16679
 C2211 C 0.72797 0.52174 0.17464
 N2212 N 0.71251 0.51409 0.16669
 N2213 N 0.72790 1.04437 0.65147
 C2214 C 0.71216 1.03709 0.64374
 N2215 N 0.70446 1.02157 0.65150
 N2216 N 0.71202 1.01382 0.66665
 C2217 C 0.72766 1.02122 0.67450
 N2218 N 0.73546 1.03662 0.66661
 N2219 N 0.52305 0.20462 0.65249
 C2220 C 0.53866 0.21219 0.64482
 N2221 N 0.54619 0.22774 0.65272
 N2222 N 0.53853 0.23530 0.66792
 C2223 C 0.52298 0.22766 0.67568
 N2224 N 0.51539 0.21218 0.66768
 N2225 N 1.04454 0.22799 0.15123
 C2226 C 1.03700 0.21244 0.14333
 N2227 N 1.02145 0.20483 0.15108
 N2228 N 1.01389 0.21232 0.16637
 C2229 C 1.02153 0.22779 0.17439
 N2230 N 1.03698 0.23548 0.16651
 N2231 N 0.59710 0.20380 0.72714
 C2232 C 0.60483 0.21145 0.71161
 N2233 N 0.59690 0.22697 0.70411
 N2234 N 0.58165 0.23443 0.71173
 C2235 C 0.57383 0.22671 0.72720
 N2236 N 0.58184 0.21125 0.73476
 N2237 N 1.09846 0.22789 0.20554
 C2238 C 1.10619 0.21222 0.21294
 N2239 N 1.09833 0.20454 0.22839
 N2240 N 1.08308 0.21204 0.23596
 C2241 C 1.07520 0.22760 0.22844
 N2242 N 1.08320 0.23539 0.21311
 N2243 N 0.15294 0.72712 0.54563
 C2244 C 0.14501 0.71160 0.53805
 N2245 N 0.15277 0.70400 0.52249
 N2246 N 0.16804 0.71151 0.51492
 C2247 C 0.17605 0.72697 0.52257
 N2248 N 0.16820 0.73463 0.53806
 N2249 N 0.15141 0.22789 1.04418
 C2250 C 0.14361 0.21223 1.03676
 N2251 N 0.15147 0.20449 1.02132
 N2252 N 0.16679 0.21193 1.01379
 C2253 C 0.17472 0.22747 1.02132
 N2254 N 0.16671 0.23533 1.03664
 N2255 N 0.65128 0.54488 0.22871
 C2256 C 0.64342 0.53722 0.21320
 N2257 N 0.65119 0.52159 0.20574
 N2258 N 0.66648 0.51410 0.21329
 C2259 C 0.67448 0.52187 0.22867
 N2260 N 0.66657 0.53739 0.23626
 N2261 N 0.65148 1.04560 0.72786
 C2262 C 0.64372 1.03811 0.71222
 N2263 N 0.65142 1.02242 0.70479
 N2264 N 0.66653 1.01471 0.71250
 C2265 C 0.67443 1.02231 0.72803
 N2266 N 0.66660 1.03789 0.73557
 N2267 N 0.84688 0.45353 0.27409
 C2268 C 0.85480 0.46122 0.28954
 N2269 N 0.84708 0.47690 0.29697
 N2270 N 0.83186 0.48448 0.28933
 C2271 C 0.82388 0.47673 0.27392
 N2272 N 0.83168 0.46110 0.26645
 N2273 N 0.84706 0.95412 0.77344
 C2274 C 0.85484 0.96174 0.78900
 N2275 N 0.84702 0.97735 0.79646
 N2276 N 0.83184 0.98492 0.78878
 C2277 C 0.82397 0.97723 0.77328
 N2278 N 0.83188 0.96169 0.76576
 N2279 N 0.40135 0.29487 0.77189
 C2280 C 0.39363 0.28745 0.78754
 N2281 N 0.40145 0.27191 0.79513
 N2282 N 0.41663 0.26426 0.78754
 C2283 C 0.42448 0.27177 0.77199
 N2284 N 0.41654 0.28722 0.76430
 N2285 N 0.90280 0.29570 0.27343
 C2286 C 0.89480 0.28799 0.28879
 N2287 N 0.90248 0.27232 0.29626
 N2288 N 0.91776 0.26477 0.28876
 C2289 C 0.92583 0.27255 0.27344
 N2290 N 0.91807 0.28815 0.26593
 N2291 N 0.34888 0.79482 0.47824
 C2292 C 0.35658 0.78749 0.46252
 N2293 N 0.34869 0.77204 0.45477
 N2294 N 0.33344 0.76440 0.46227
 C2295 C 0.32561 0.77185 0.47788
 N2296 N 0.33365 0.78719 0.48573
 N2297 N 0.34712 0.29623 0.97706
 C2298 C 0.35513 0.28866 0.96162
 N2299 N 0.34751 0.27297 0.95407
 N2300 N 0.33229 0.26526 0.96153
 C2301 C 0.32419 0.27289 0.97690
 N2302 N 0.33190 0.28852 0.98453
 N2303 N 0.77276 0.45397 0.34727
 C2304 C 0.78834 0.46150 0.35510
 N2305 N 0.79596 0.47703 0.34730
 N2306 N 0.78841 0.48463 0.33208
 C2307 C 0.77290 0.47704 0.32417
 N2308 N 0.76521 0.46157 0.33205
 N2309 N 0.79606 0.97706 0.84686
 C2310 C 0.78853 0.96155 0.85478
 N2311 N 0.77289 0.95398 0.84713
 N2312 N 0.76518 0.96150 0.83195
 C2313 C 0.77277 0.97695 0.82394
 N2314 N 0.78835 0.98459 0.83167
 N2315 N 0.29484 0.77228 0.40156
 C2316 C 0.28740 0.78787 0.39371
 N2317 N 0.27180 0.79545 0.40138
 N2318 N 0.26411 0.78793 0.41658
 C2319 C 0.27166 0.77245 0.42455
 N2320 N 0.28715 0.76475 0.41674
 N2321 N 0.27287 0.29612 0.90305
 C2322 C 0.28844 0.28863 0.89522
 N2323 N 0.29611 0.27314 0.90305
 N2324 N 0.28863 0.26556 0.91831
 C2325 C 0.27314 0.27311 0.92623
 N2326 N 0.26539 0.28853 0.91831
 N2327 N 0.47823 0.29519 0.84843
 C2328 C 0.46258 0.28776 0.85616
 N2329 N 0.45501 0.27217 0.84837
 N2330 N 0.46261 0.26448 0.83320
 C2331 C 0.47816 0.27200 0.82534
 N2332 N 0.48583 0.28749 0.83326
 N2333 N 0.97750 0.29578 0.34725
 C2334 C 0.96201 0.28823 0.35517
 N2335 N 0.95436 0.27267 0.34740
 N2336 N 0.96179 0.26506 0.33211
 C2337 C 0.97722 0.27266 0.32410
 N2338 N 0.98494 0.28816 0.33196
 N2339 N 0.45500 0.34863 0.77162
 C2340 C 0.46246 0.35639 0.78726
 N2341 N 0.47806 0.34865 0.79479
 N2342 N 0.48572 0.33348 0.78716
 C2343 C 0.47814 0.32558 0.77163
 N2344 N 0.46266 0.33346 0.76399
 N2345 N 0.97641 0.34637 0.29624
 C2346 C 0.96082 0.35426 0.28885
 N2347 N 0.95317 0.34657 0.27325
 N2348 N 0.96069 0.33139 0.26547
 C2349 C 0.97622 0.32342 0.27293
 N2350 N 0.98393 0.33120 0.28846
 N2351 N 0.27211 0.84936 0.45582
 C2352 C 0.28775 0.85709 0.46332
 N2353 N 0.29532 0.84923 0.47884
 N2354 N 0.28772 0.83398 0.48637
 C2355 C 0.27219 0.82612 0.47876
 N2356 N 0.26451 0.83412 0.46336
 N2357 N 0.27328 0.34693 0.95411
 C2358 C 0.28885 0.35476 0.96165
 N2359 N 0.29637 0.34699 0.97724
 N2360 N 0.28874 0.33180 0.98486
 C2361 C 0.27324 0.32388 0.97725
 N2362 N 0.26565 0.33174 0.96173
 N2363 N 0.79643 0.40281 0.27271
 C2364 C 0.78879 0.39499 0.28821
 N2365 N 0.77323 0.40283 0.29569
 N2366 N 0.76572 0.41808 0.28809
 C2367 C 0.77342 0.42599 0.27266
 N2368 N 0.78892 0.41806 0.26511
   
