data_POSCAR
  _audit_creation_date              2014-09-24
  _audit_creation_method            'ToBaCCo'
  _symmetry_space_group_name_H-M    'P1'
  _symmetry_Int_Tables_number       1
  _symmetry_cell_setting            triclinic
  loop_
  _symmetry_equiv_pos_as_xyz
 x,y,z
_cell_length_a 59.2547
_cell_length_b 59.2548
_cell_length_c 59.2190
_cell_angle_alpha 89.954900
_cell_angle_beta 90.009000
_cell_angle_gamma 89.984200
loop_
  _atom_site_label
  _atom_site_type_symbol
  _atom_site_fract_x
  _atom_site_fract_y
  _atom_site_fract_z
C1 C 0.35802 1.35934 0.32923
 C2 C 0.33867 1.36898 0.33886
 C3 C 0.32898 1.35932 0.35819
 C4 C 0.33871 1.34004 0.36790
 C5 C 0.35804 1.33041 0.35829
 C6 C 0.36770 1.34006 0.33898
 H7 H 0.33103 1.38378 0.33120
 H8 H 0.33114 1.33239 0.38274
 H9 H 0.38254 1.33243 0.33145
 C10 C 0.35797 0.85886 0.83004
 C11 C 0.36763 0.83955 0.83970
 C12 C 0.35798 0.82984 0.85899
 C13 C 0.33867 0.83946 0.86865
 C14 C 0.32897 0.85879 0.85901
 C15 C 0.33865 0.86849 0.83970
 H16 H 0.38245 0.83197 0.83209
 H17 H 0.33110 0.83178 0.88347
 H18 H 0.33108 0.88332 0.83206
 C19 C 0.85781 1.35885 0.82985
 C20 C 0.83849 1.36848 0.83950
 C21 C 0.82881 1.35881 0.85882
 C22 C 0.83853 1.33951 0.86850
 C23 C 0.85785 1.32988 0.85884
 C24 C 0.86749 1.33957 0.83954
 H25 H 0.83090 1.38330 0.83183
 H26 H 0.83097 1.33183 0.88332
 H27 H 0.88231 1.33199 0.83195
 C28 C 0.85844 0.85873 0.32883
 C29 C 0.86808 0.83940 0.33853
 C30 C 0.85842 0.82975 0.35785
 C31 C 0.83914 0.83943 0.36750
 C32 C 0.82948 0.85875 0.35785
 C33 C 0.83914 0.86840 0.33853
 H34 H 0.88289 0.83174 0.33096
 H35 H 0.83154 0.83183 0.38233
 H36 H 0.83150 0.88324 0.33096
 C37 C 0.64031 0.64080 0.33083
 C38 C 0.65962 0.63116 0.34049
 C39 C 0.66933 0.64083 0.35976
 C40 C 0.65968 0.66014 0.36940
 C41 C 0.64036 0.66980 0.35976
 C42 C 0.63067 0.66011 0.34049
 H43 H 0.66723 0.61635 0.33288
 H44 H 0.66733 0.66777 0.38418
 H45 H 0.61586 0.66772 0.33287
 C46 C 0.64109 0.14109 0.82907
 C47 C 0.66041 0.13140 0.83873
 C48 C 0.67008 0.14100 0.85806
 C49 C 0.66041 0.16026 0.86777
 C50 C 0.64111 0.16996 0.85815
 C51 C 0.63144 0.16037 0.83882
 H52 H 0.66807 0.11661 0.83112
 H53 H 0.66802 0.16782 0.88260
 H54 H 0.61661 0.16805 0.83127
 C55 C 1.14054 0.64044 0.83037
 C56 C 1.13090 0.65975 0.84002
 C57 C 1.14057 0.66941 0.85932
 C58 C 1.15985 0.65972 0.86899
 C59 C 1.16950 0.64041 0.85935
 C60 C 1.15983 0.63076 0.84005
 H61 H 1.11611 0.66738 0.83238
 H62 H 1.16748 0.66733 0.88379
 H63 H 1.16744 0.61596 0.83244
 C64 C 1.14222 0.14134 0.32857
 C65 C 1.16156 0.13172 0.33826
 C66 C 1.17123 0.14140 0.35757
 C67 C 1.16150 0.16069 0.36722
 C68 C 1.14218 0.17031 0.35755
 C69 C 1.13253 0.16064 0.33826
 H70 H 1.16919 0.11690 0.33066
 H71 H 1.16905 0.16835 0.38204
 H72 H 1.11768 0.16825 0.33070
 C73 C 0.64215 1.35912 0.67014
 C74 C 0.66148 1.36873 0.66050
 C75 C 0.67115 1.35908 0.64117
 C76 C 0.66140 1.33981 0.63149
 C77 C 0.64207 1.33020 0.64114
 C78 C 0.63245 1.33987 0.66045
 H79 H 0.66909 1.38352 0.66817
 H80 H 0.66895 1.33215 0.61666
 H81 H 0.61761 1.33230 0.66805
 C82 C 0.64081 0.85916 1.16988
 C83 C 0.63116 0.83985 1.16026
 C84 C 0.64082 0.83013 1.14099
 C85 C 0.66014 0.83976 1.13132
 C86 C 0.66981 0.85907 1.14093
 C87 C 0.66013 0.86878 1.16020
 H88 H 0.61635 0.83227 1.16788
 H89 H 0.66776 0.83210 1.11654
 H90 H 0.66774 0.88359 1.16778
 C91 C 1.14072 1.35909 1.17048
 C92 C 1.13105 1.33979 1.16078
 C93 C 1.14071 1.33014 1.14148
 C94 C 1.16001 1.33980 1.13183
 C95 C 1.16969 1.35908 1.14148
 C96 C 1.16004 1.36873 1.16079
 H97 H 1.11623 1.33214 1.16835
 H98 H 1.16763 1.33219 1.11702
 H99 H 1.16771 1.38353 1.16836
 C100 C 1.14224 0.85845 0.67011
 C101 C 1.13261 0.83916 0.66043
 C102 C 1.14228 0.82951 0.64113
 C103 C 1.16158 0.83919 0.63148
 C104 C 1.17124 0.85850 0.64115
 C105 C 1.16153 0.86813 0.66046
 H106 H 1.11780 0.83154 0.66803
 H107 H 1.16916 0.83155 0.61665
 H108 H 1.16907 0.88295 0.66812
 C109 C 0.35916 0.64087 0.66967
 C110 C 0.33989 0.63119 0.65997
 C111 C 0.33022 0.64085 0.64066
 C112 C 0.33984 0.66019 0.63103
 C113 C 0.35911 0.66988 0.64071
 C114 C 0.36877 0.66020 0.66002
 H115 H 0.33231 0.61636 0.66758
 H116 H 0.33222 0.66781 0.61622
 H117 H 0.38355 0.66784 0.66766
 C118 C 0.35932 0.14049 1.17037
 C119 C 0.34002 0.13082 1.16068
 C120 C 0.33038 0.14046 1.14134
 C121 C 0.34006 0.15973 1.13165
 C122 C 0.35934 0.16941 1.14130
 C123 C 0.36898 0.15978 1.16064
 H124 H 0.33235 0.11603 1.16829
 H125 H 0.33246 0.16733 1.11681
 H126 H 0.38378 0.16746 1.16822
 C127 C 0.85922 0.64070 1.17044
 C128 C 0.83990 0.63106 1.16077
 C129 C 0.83023 0.64072 1.14145
 C130 C 0.83990 0.66001 1.13178
 C131 C 0.85921 0.66966 1.14142
 C132 C 0.86887 0.66000 1.16073
 H133 H 0.83224 0.61625 1.16836
 H134 H 0.83228 0.66763 1.11696
 H135 H 0.88370 0.66765 1.16829
 C136 C 0.85727 0.14168 0.67154
 C137 C 0.83792 0.13206 0.66190
 C138 C 0.82824 0.14174 0.64256
 C139 C 0.83797 0.16101 0.63287
 C140 C 0.85730 0.17063 0.64249
 C141 C 0.86696 0.16096 0.66180
 H142 H 0.83030 0.11725 0.66953
 H143 H 0.83042 0.16866 0.61802
 H144 H 0.88182 0.16856 0.66933
 C145 C 1.35918 0.35839 0.66993
 C146 C 1.36884 0.33908 0.66028
 C147 C 1.35918 0.32941 0.64096
 C148 C 1.33988 0.33911 0.63129
 C149 C 1.33023 0.35841 0.64094
 C150 C 1.33990 0.36805 0.66024
 H151 H 1.38365 0.33150 0.66795
 H152 H 1.33222 0.33155 0.61647
 H153 H 1.33229 0.38286 0.66784
 C154 C 1.35915 0.85891 1.17110
 C155 C 1.36882 0.83959 1.16145
 C156 C 1.35917 0.82992 1.14214
 C157 C 1.33989 0.83959 1.13245
 C158 C 1.33021 0.85889 1.14206
 C159 C 1.33985 0.86856 1.16137
 H160 H 1.38363 0.83193 1.16904
 H161 H 1.33230 0.83198 1.11763
 H162 H 1.33219 0.88339 1.16891
 C163 C 0.85930 0.35885 1.17064
 C164 C 0.83997 0.36850 1.16097
 C165 C 0.83030 0.35885 1.14167
 C166 C 0.83997 0.33957 1.13200
 C167 C 0.85928 0.32990 1.14164
 C168 C 0.86896 0.33955 1.16095
 H169 H 0.83231 0.38330 1.16854
 H170 H 0.83235 0.33196 1.11720
 H171 H 0.88379 0.33189 1.16851
 C172 C 0.85931 0.85916 0.66951
 C173 C 0.86893 0.83986 0.65981
 C174 C 0.85922 0.83022 0.64052
 C175 C 0.83991 0.83992 0.63090
 C176 C 0.83028 0.85922 0.64059
 C177 C 0.84000 0.86884 0.65988
 H178 H 0.88374 0.83222 0.66740
 H179 H 0.83225 0.83233 0.61611
 H180 H 0.83241 0.88364 0.66752
 C181 C 0.64113 0.64114 0.67001
 C182 C 0.63148 0.66047 0.66037
 C183 C 0.64112 0.67016 0.64107
 C184 C 0.66040 0.66050 0.63138
 C185 C 0.67006 0.64118 0.64101
 C186 C 0.66041 0.63149 0.66031
 H187 H 0.61668 0.66808 0.66801
 H188 H 0.66800 0.66814 0.61657
 H189 H 0.66802 0.61667 0.66791
 C190 C 0.64108 1.14161 1.16971
 C191 C 0.66037 1.13195 1.16004
 C192 C 0.67006 1.14161 1.14075
 C193 C 0.66042 1.16094 1.13109
 C194 C 0.64112 1.17064 1.14075
 C195 C 0.63144 1.16093 1.16005
 H196 H 0.66796 1.11712 1.16765
 H197 H 0.66810 1.16852 1.11628
 H198 H 0.61663 1.16850 1.16771
 C199 C 0.14145 0.64226 1.17111
 C200 C 0.13182 0.66161 1.16144
 C201 C 0.14151 0.67130 1.14213
 C202 C 0.16081 0.66159 1.13248
 C203 C 0.17043 0.64226 1.14213
 C204 C 0.16074 0.63259 1.16142
 H205 H 0.11700 0.66923 1.16904
 H206 H 0.16848 0.66915 1.11765
 H207 H 0.16836 0.61773 1.16897
 C208 C 0.14035 1.14146 0.66937
 C209 C 0.13069 1.16078 0.65972
 C210 C 0.14035 1.17049 0.64040
 C211 C 0.15965 1.16080 0.63073
 C212 C 0.16930 1.14148 0.64038
 C213 C 0.15963 1.13181 0.65968
 H214 H 0.11589 1.16836 0.66740
 H215 H 0.16731 1.16839 0.61591
 H216 H 0.16724 1.11699 0.66729
 C217 C 1.35888 0.64251 0.33003
 C218 C 1.33961 0.63284 0.33971
 C219 C 1.32988 0.64250 0.35897
 C220 C 1.33947 0.66185 0.36859
 C221 C 1.35877 0.67156 0.35894
 C222 C 1.36848 0.66186 0.33965
 H223 H 1.33205 0.61799 0.33213
 H224 H 1.33177 0.66942 0.38339
 H225 H 1.38329 0.66944 0.33199
 C226 C 1.35901 1.14214 0.83014
 C227 C 1.33974 1.13247 0.83982
 C228 C 1.33007 1.14209 0.85913
 C229 C 1.33971 1.16139 0.86880
 C230 C 1.35901 1.17110 0.85913
 C231 C 1.36866 1.16144 0.83980
 H232 H 1.33214 1.11766 0.83221
 H233 H 1.33206 1.16893 0.88363
 H234 H 1.38347 1.16902 0.83213
 C235 C 0.85917 0.64078 0.83008
 C236 C 0.83989 0.63113 0.83979
 C237 C 0.83024 0.64079 0.85910
 C238 C 0.83993 0.66008 0.86873
 C239 C 0.85922 0.66974 0.85904
 C240 C 0.86884 0.66007 0.83973
 H241 H 0.83226 0.61633 0.83219
 H242 H 0.83233 0.66770 0.88354
 H243 H 0.88364 0.66768 0.83209
 C244 C 0.85984 1.14008 0.33089
 C245 C 0.84053 1.13047 0.34057
 C246 C 0.83086 1.14016 0.35984
 C247 C 0.84055 1.15945 0.36947
 C248 C 0.85986 1.16907 0.35981
 C249 C 0.86952 1.15936 0.34053
 H250 H 0.83288 1.11568 0.33296
 H251 H 0.83292 1.16711 0.38425
 H252 H 0.88432 1.16696 0.33290
 C253 C 0.64129 0.35794 0.32916
 C254 C 0.63164 0.33863 0.33887
 C255 C 0.64132 0.32895 0.35819
 C256 C 0.66064 0.33863 0.36782
 C257 C 0.67029 0.35793 0.35814
 C258 C 0.66061 0.36759 0.33883
 H259 H 0.61680 0.33103 0.33128
 H260 H 0.66831 0.33108 0.38266
 H261 H 0.66825 0.38241 0.33125
 C262 C 0.64077 0.85927 0.83046
 C263 C 0.63113 0.83997 0.84013
 C264 C 0.64081 0.83026 0.85941
 C265 C 0.66013 0.83990 0.86905
 C266 C 0.66978 0.85921 0.85940
 C267 C 0.66009 0.86890 0.84011
 H268 H 0.61632 0.83237 0.83252
 H269 H 0.66777 0.83225 0.88384
 H270 H 0.66770 0.88371 0.83249
 C271 C 0.14125 0.35882 0.82885
 C272 C 0.13159 0.33951 0.83855
 C273 C 0.14122 0.32986 0.85789
 C274 C 0.16049 0.33954 0.86757
 C275 C 0.17017 0.35883 0.85791
 C276 C 0.16055 0.36848 0.83857
 H277 H 0.11679 0.33185 0.83097
 H278 H 0.16807 0.33195 0.88242
 H279 H 0.16821 0.38329 0.83099
 C280 C 0.14078 0.85928 0.32954
 C281 C 0.13115 0.83994 0.33921
 C282 C 0.14081 0.83028 0.35854
 C283 C 0.16007 0.83998 0.36822
 C284 C 0.16971 0.85930 0.35858
 C285 C 0.16006 0.86896 0.33926
 H286 H 0.11637 0.83226 0.33162
 H287 H 0.16768 0.83237 0.38305
 H288 H 0.16770 0.88379 0.33169
 O289 O 0.97831 0.91855 0.88750
 O290 O 0.97830 0.89232 0.86111
 C291 C 0.97061 0.91067 0.86911
 C292 C 0.95216 0.92271 0.85726
 C293 C 0.94441 0.91522 0.83614
 H294 H 0.95234 0.90089 0.82797
 O295 O 1.02199 1.08145 0.88742
 O296 O 1.02205 1.10771 0.86100
 C297 C 1.02972 1.08935 0.86904
 C298 C 1.04819 1.07731 0.85724
 C299 C 1.05593 1.08480 0.83610
 H300 H 1.04799 1.09911 0.82790
 O301 O 0.88785 0.97800 0.91836
 O302 O 0.86142 0.97791 0.89213
 C303 C 0.86947 0.97025 0.91049
 C304 C 0.85769 0.95180 0.92257
 C305 C 0.83656 0.94405 0.91511
 H306 H 0.82836 0.95197 0.90079
 O307 O 1.11262 1.02203 0.91843
 O308 O 1.13902 1.02210 0.89219
 C309 C 1.13099 1.02977 0.91055
 C310 C 1.14277 1.04823 0.92259
 C311 C 1.16385 1.05607 0.91507
 H312 H 1.17204 1.04819 0.90072
 O313 O 0.91883 0.88748 0.97801
 O314 O 0.89260 0.86108 0.97796
 C315 C 0.91095 0.86910 0.97028
 C316 C 0.92299 0.85732 0.95181
 C317 C 0.91549 0.83621 0.94403
 H318 H 0.90117 0.82802 0.95196
 O319 O 1.08152 1.11241 0.97791
 O320 O 1.10774 1.13882 0.97788
 C321 C 1.08940 1.13079 0.97018
 C322 C 1.07738 1.14259 0.95168
 C323 C 1.08493 1.16367 0.94384
 H324 H 1.09927 1.17183 0.95173
 O325 O 0.91857 1.02209 0.88733
 O326 O 0.89228 1.02206 0.86096
 C327 C 0.91062 1.02980 0.86895
 C328 C 0.92256 1.04832 0.85712
 C329 C 0.91486 1.05626 0.83612
 H330 H 0.90046 1.04841 0.82802
 O331 O 1.08180 0.97799 0.88749
 O332 O 1.10806 0.97800 0.86111
 C333 C 1.08972 0.97029 0.86911
 C334 C 1.07773 0.95182 0.85729
 C335 C 1.08533 0.94398 0.83623
 H336 H 1.09969 0.95187 0.82809
 O337 O 1.02230 0.88765 0.91848
 O338 O 1.02235 0.86125 0.89225
 C339 C 1.03001 0.86926 0.91062
 C340 C 1.04842 0.85742 0.92272
 C341 C 1.05615 0.83628 0.91526
 H342 H 1.04824 0.82811 0.90093
 O343 O 0.97798 1.11239 0.91829
 O344 O 0.97798 1.13882 0.89204
 C345 C 0.97029 1.13079 0.91040
 C346 C 0.95183 1.14260 0.92245
 C347 C 0.94399 1.16368 0.91490
 H348 H 0.95185 1.17184 0.90053
 O349 O 0.88768 1.08144 0.97791
 O350 O 0.86127 1.10768 0.97789
 C351 C 0.86929 1.08934 0.97019
 C352 C 0.85749 1.07732 0.95172
 C353 C 0.83640 1.08486 0.94389
 H354 H 0.82823 1.09920 0.95178
 O355 O 1.11267 0.91843 0.97811
 O356 O 1.13907 0.89220 0.97807
 C357 C 1.13104 0.91055 0.97037
 C358 C 1.14284 0.92258 0.95189
 C359 C 1.16390 0.91502 0.94405
 H360 H 1.17205 0.90066 0.95194
 O361 O 0.97796 1.08161 0.88728
 O362 O 0.97795 1.10788 0.86088
 C363 C 0.97024 1.08954 0.86889
 C364 C 0.95174 1.07756 0.85709
 C365 C 0.94377 1.08524 0.83609
 H366 H 0.95158 1.09965 0.82796
 O367 O 1.02233 0.91848 0.88747
 O368 O 1.02238 0.89223 0.86109
 C369 C 1.03006 0.91058 0.86910
 C370 C 1.04854 0.92260 0.85728
 C371 C 1.05640 0.91503 0.83622
 H372 H 1.04854 0.90066 0.82808
 O373 O 1.11263 0.97799 0.91849
 O374 O 1.13904 0.97801 0.89225
 C375 C 1.13102 0.97030 0.91061
 C376 C 1.14283 0.95182 0.92264
 C377 C 1.16390 0.94399 0.91508
 H378 H 1.17204 0.95187 0.90071
 O379 O 0.88776 1.02202 0.91833
 O380 O 0.86133 1.02199 0.89210
 C381 C 0.86935 1.02969 0.91045
 C382 C 0.85752 1.04813 0.92248
 C383 C 0.83643 1.05593 0.91493
 H384 H 0.82829 1.04804 0.90057
 O385 O 0.91857 1.11235 0.97791
 O386 O 0.89231 1.13873 0.97790
 C387 C 0.91066 1.13073 0.97020
 C388 C 0.92266 1.14256 0.95172
 C389 C 0.91509 1.16364 0.94391
 H390 H 0.90075 1.17178 0.95182
 O391 O 1.08175 0.88755 0.97816
 O392 O 1.10801 0.86116 0.97812
 C393 C 1.08965 0.86917 0.97044
 C394 C 1.07760 0.85737 0.95199
 C395 C 1.08506 0.83623 0.94427
 H396 H 1.09936 0.82803 0.95222
 O397 O 1.08168 1.02201 0.88754
 O398 O 1.10793 1.02208 0.86114
 C399 C 1.08956 1.02973 0.86915
 C400 C 1.07747 1.04816 0.85729
 C401 C 1.08495 1.05592 0.83616
 H402 H 1.09930 1.04803 0.82799
 O403 O 0.91874 0.97807 0.88742
 O404 O 0.89247 0.97797 0.86104
 C405 C 0.91085 0.97033 0.86905
 C406 C 0.92292 0.95191 0.85723
 C407 C 0.91544 0.94414 0.83611
 H408 H 0.90110 0.95204 0.82792
 O409 O 1.02200 1.11240 0.91827
 O410 O 1.02206 1.13881 0.89200
 C411 C 1.02973 1.13078 0.91037
 C412 C 1.04819 1.14258 0.92242
 C413 C 1.05600 1.16366 0.91485
 H414 H 1.04812 1.17181 0.90047
 O415 O 0.97829 0.88759 0.91839
 O416 O 0.97828 0.86121 0.89215
 C417 C 0.97060 0.86921 0.91050
 C418 C 0.95216 0.85737 0.92256
 C419 C 0.94440 0.83627 0.91504
 H420 H 0.95230 0.82812 0.90069
 O421 O 1.11247 1.08156 0.97795
 O422 O 1.13884 1.10781 0.97793
 C423 C 1.13085 1.08946 0.97025
 C424 C 1.14270 1.07744 0.95180
 C425 C 1.16378 1.08500 0.94402
 H426 H 1.17191 1.09935 0.95192
 O427 O 0.88795 0.91840 0.97799
 O428 O 0.86157 0.89215 0.97795
 C429 C 0.86957 0.91051 0.97027
 C430 C 0.85774 0.92257 0.95182
 C431 C 0.83661 0.91509 0.94409
 H432 H 0.82844 0.90077 0.95203
 Cu433 Cu 1.00031 0.90570 0.90559
 Cu434 Cu 1.00033 0.87411 0.87400
 Cu435 Cu 0.99998 1.09433 0.90544
 Cu436 Cu 1.00002 1.12595 0.87383
 Cu437 Cu 0.90587 1.00005 0.90548
 Cu438 Cu 0.87423 0.99997 0.87391
 Cu439 Cu 1.09455 1.00000 0.90562
 Cu440 Cu 1.12616 1.00006 0.87403
 C441 C 0.94144 0.94122 0.86756
 H442 H 0.94711 0.94690 0.88399
 C443 C 0.92617 0.92592 0.82560
 C444 C 1.05893 1.05883 0.86759
 H445 H 1.05326 1.05315 0.88403
 C446 C 1.07420 1.07413 0.82560
 C447 C 0.86804 0.94108 0.94108
 H448 H 0.88447 0.94675 0.94674
 C449 C 0.82606 0.92582 0.92586
 C450 C 1.13244 1.05890 0.94111
 H451 H 1.11604 1.05317 0.94681
 C452 C 1.17432 1.07433 0.92577
 C453 C 0.94148 0.86765 0.94110
 H454 H 0.94716 0.88406 0.94679
 C455 C 0.92618 0.82573 0.92577
 C456 C 1.05885 1.13230 0.94099
 H457 H 1.05313 1.11591 0.94673
 C458 C 1.07426 1.17416 0.92554
 C459 C 0.94115 1.05895 0.86735
 H460 H 0.94699 1.05313 0.88368
 C461 C 0.92544 1.07460 0.82564
 C462 C 1.05918 0.94115 0.86757
 H463 H 1.05342 0.94688 0.88395
 C464 C 1.07468 0.92570 0.82574
 C465 C 1.05912 0.86771 0.94124
 H466 H 1.05347 0.88415 0.94689
 C467 C 1.07435 0.82573 0.92602
 C468 C 0.94119 1.13229 0.94101
 H469 H 0.94693 1.11589 0.94673
 C470 C 0.92574 1.17416 0.92562
 C471 C 0.86779 1.05880 0.94103
 H472 H 0.88419 1.05309 0.94676
 C473 C 0.82591 1.07418 0.92562
 C474 C 1.13255 0.94114 0.94121
 H475 H 1.11617 0.94687 0.94694
 C476 C 1.17439 0.92570 0.92576
 O477 O 1.02224 0.91835 1.11262
 O478 O 1.02227 0.89211 1.13905
 C479 C 1.02994 0.91047 1.13103
 C480 C 1.04836 0.92253 1.14286
 C481 C 1.05615 0.91502 1.16398
 H482 H 1.04825 0.90068 1.17216
 O483 O 0.97822 1.08129 1.11252
 O484 O 0.97813 1.10752 1.13892
 C485 C 0.97049 1.08915 1.13091
 C486 C 0.95208 1.07706 1.14274
 C487 C 0.94438 1.08447 1.16391
 H488 H 0.95231 1.09876 1.17211
 O489 O 0.88775 1.02183 1.08158
 O490 O 0.86136 1.02185 1.10783
 C491 C 0.86937 1.02955 1.08947
 C492 C 0.85755 1.04801 1.07742
 C493 C 0.83646 1.05581 1.08495
 H494 H 0.82830 1.04792 1.09931
 O495 O 1.11259 0.97793 1.08172
 O496 O 1.13901 0.97791 1.10796
 C497 C 1.13099 0.97022 1.08961
 C498 C 1.14282 0.95178 1.07757
 C499 C 1.16391 0.94399 1.08513
 H500 H 1.17205 0.95187 1.09949
 O501 O 1.08185 0.88748 1.02222
 O502 O 1.10812 0.86111 1.02224
 C503 C 1.08977 0.86910 1.02994
 C504 C 1.07779 0.85729 1.04845
 C505 C 1.08541 0.83625 1.05635
 H506 H 1.09980 0.82813 1.04849
 O507 O 0.91860 1.11228 1.02196
 O508 O 0.89234 1.13867 1.02201
 C509 C 0.91070 1.13065 1.02969
 C510 C 0.92272 1.14244 1.04817
 C511 C 0.91520 1.16353 1.05597
 H512 H 0.90086 1.17171 1.04805
 O513 O 0.91863 0.97774 1.11249
 O514 O 0.89237 0.97770 1.13888
 C515 C 0.91072 0.97001 1.13088
 C516 C 0.92273 0.95153 1.14270
 C517 C 0.91513 0.94367 1.16376
 H518 H 0.90075 0.95154 1.17189
 O519 O 1.08172 1.02196 1.11265
 O520 O 1.10801 1.02199 1.13902
 C521 C 1.08965 1.02968 1.13102
 C522 C 1.07766 1.04817 1.14282
 C523 C 1.08529 1.05606 1.16384
 H524 H 1.09968 1.04821 1.17198
 O525 O 0.97831 0.88740 1.08166
 O526 O 0.97828 0.86100 1.10792
 C527 C 0.97061 0.86902 1.08955
 C528 C 0.95218 0.85720 1.07749
 C529 C 0.94439 0.83610 1.08501
 H530 H 0.95229 0.82792 1.09936
 O531 O 1.02214 1.11230 1.08159
 O532 O 1.02210 1.13870 1.10783
 C533 C 1.02980 1.13070 1.08947
 C534 C 1.04821 1.14256 1.07740
 C535 C 1.05596 1.16367 1.08492
 H536 H 1.04806 1.17180 1.09927
 O537 O 0.88788 0.91832 1.02204
 O538 O 0.86150 0.89207 1.02204
 C539 C 0.86949 0.91042 1.02973
 C540 C 0.85764 0.92245 1.04816
 C541 C 0.83652 0.91495 1.05590
 H542 H 0.82837 0.90062 1.04799
 O543 O 1.11243 1.08152 1.02200
 O544 O 1.13880 1.10777 1.02203
 C545 C 1.13080 1.08941 1.02972
 C546 C 1.14263 1.07736 1.04818
 C547 C 1.16375 1.08485 1.05593
 H548 H 1.17191 1.09919 1.04801
 O549 O 1.02224 1.08145 1.11259
 O550 O 1.02221 1.10770 1.13897
 C551 C 1.02994 1.08937 1.13097
 C552 C 1.04844 1.07739 1.14280
 C553 C 1.05634 1.08502 1.16382
 H554 H 1.04849 1.09941 1.17194
 O555 O 0.97821 0.91825 1.11260
 O556 O 0.97818 0.89200 1.13902
 C557 C 0.97048 0.91034 1.13098
 C558 C 0.95197 0.92233 1.14276
 C559 C 0.94410 0.91474 1.16382
 H560 H 0.95197 0.90037 1.17198
 O561 O 1.11250 1.02195 1.08161
 O562 O 1.13893 1.02198 1.10784
 C563 C 1.13088 1.02966 1.08948
 C564 C 1.14267 1.04812 1.07741
 C565 C 1.16379 1.05588 1.08489
 H566 H 1.17198 1.04795 1.09922
 O567 O 0.88777 0.97781 1.08153
 O568 O 0.86136 0.97777 1.10777
 C569 C 0.86939 0.97010 1.08942
 C570 C 0.85758 0.95167 1.07736
 C571 C 0.83647 0.94390 1.08484
 H572 H 0.82827 0.95181 1.09916
 O573 O 1.08154 1.11245 1.02197
 O574 O 1.10776 1.13885 1.02199
 C575 C 1.08942 1.13083 1.02968
 C576 C 1.07738 1.14263 1.04814
 C577 C 1.08487 1.16374 1.05592
 H578 H 1.09919 1.17193 1.04800
 O579 O 0.91882 0.88745 1.02206
 O580 O 0.89260 0.86105 1.02207
 C581 C 0.91094 0.86906 1.02977
 C582 C 0.92297 0.85722 1.04824
 C583 C 0.91545 0.83612 1.05603
 H584 H 0.90112 0.82796 1.04812
 O585 O 1.08166 0.97793 1.11261
 O586 O 1.10793 0.97790 1.13900
 C587 C 1.08957 0.97022 1.13100
 C588 C 1.07755 0.95177 1.14285
 C589 C 1.08507 0.94399 1.16397
 H590 H 1.09939 0.95191 1.17214
 O591 O 0.91869 1.02176 1.11247
 O592 O 0.89245 1.02178 1.13888
 C593 C 0.91081 1.02945 1.13087
 C594 C 0.92288 1.04785 1.14272
 C595 C 0.91544 1.05552 1.16389
 H596 H 0.90113 1.04758 1.17208
 O597 O 0.97812 1.11222 1.08161
 O598 O 0.97803 1.13861 1.10786
 C599 C 0.97037 1.13059 1.08949
 C600 C 0.95192 1.14240 1.07743
 C601 C 0.94412 1.16349 1.08495
 H602 H 0.95201 1.17164 1.09931
 O603 O 1.02234 0.88742 1.08176
 O604 O 1.02237 0.86103 1.10803
 C605 C 1.03007 0.86905 1.08968
 C606 C 1.04858 0.85727 1.07768
 C607 C 1.05647 0.83623 1.08531
 H608 H 1.04861 0.82809 1.09970
 O609 O 1.11267 0.91844 1.02216
 O610 O 1.13909 0.89222 1.02218
 C611 C 1.13106 0.91056 1.02987
 C612 C 1.14287 0.92259 1.04834
 C613 C 1.16395 0.91506 1.05617
 H614 H 1.17213 0.90072 1.04827
 O615 O 0.88771 1.08138 1.02196
 O616 O 0.86131 1.10761 1.02200
 C617 C 0.86934 1.08926 1.02968
 C618 C 0.85754 1.07722 1.04816
 C619 C 0.83644 1.08474 1.05595
 H620 H 0.82828 1.09908 1.04803
 Cu621 Cu 1.00027 0.90549 1.09453
 Cu622 Cu 1.00028 0.87389 1.12615
 Cu623 Cu 1.00019 1.09418 1.09445
 Cu624 Cu 1.00011 1.12578 1.12604
 Cu625 Cu 0.90600 0.90554 1.00003
 Cu626 Cu 0.87442 0.87394 1.00000
 Cu627 Cu 1.09460 0.90560 1.00016
 Cu628 Cu 1.12622 0.87403 1.00015
 Cu629 Cu 0.90577 1.09423 0.99993
 Cu630 Cu 0.87416 1.12582 0.99995
 Cu631 Cu 1.09436 1.09436 0.99996
 Cu632 Cu 1.12593 1.12596 0.99996
 Cu633 Cu 0.90584 0.99979 1.09439
 Cu634 Cu 0.87424 0.99978 1.12599
 Cu635 Cu 1.09448 0.99994 1.09452
 Cu636 Cu 1.12612 0.99994 1.12610
 C637 C 1.05904 0.94106 1.13254
 H638 H 1.05334 0.94675 1.11611
 C639 C 1.07438 0.92574 1.17450
 C640 C 0.94136 1.05859 1.13239
 H641 H 0.94700 1.05297 1.11593
 C642 C 0.92618 1.07371 1.17444
 C643 C 0.86784 1.05869 1.05887
 H644 H 0.88425 1.05299 1.05316
 C645 C 0.82595 1.07406 1.07423
 C646 C 1.13255 0.94111 1.05902
 H647 H 1.11615 0.94681 1.05330
 C648 C 1.17443 0.92574 1.07444
 C649 C 1.05922 0.86754 1.05910
 H650 H 1.05343 0.88390 1.05332
 C651 C 1.07477 0.82576 1.07466
 C652 C 0.94124 1.13212 1.05889
 H653 H 0.94695 1.11572 1.05318
 C654 C 0.92588 1.17401 1.07424
 C655 C 0.94131 0.94088 1.13245
 H656 H 0.94707 0.94664 1.11608
 C657 C 0.92579 0.92539 1.17428
 C658 C 1.05908 1.05881 1.13255
 H659 H 1.05329 1.05303 1.11619
 C660 C 1.07465 1.07437 1.17431
 C661 C 0.94149 0.86751 1.05894
 H662 H 0.94719 0.88392 1.05324
 C663 C 0.92615 0.82560 1.07430
 C664 C 1.05889 1.13229 1.05886
 H665 H 1.05322 1.11588 1.05317
 C666 C 1.07417 1.17421 1.07419
 C667 C 0.86792 0.94097 1.05886
 H668 H 0.88434 0.94666 1.05319
 C669 C 0.82597 0.92566 1.07413
 C670 C 1.13234 1.05883 1.05889
 H671 H 1.11592 1.05315 1.05322
 C672 C 1.17429 1.07412 1.07417
 O673 O 0.97811 0.41833 0.38719
 O674 O 0.97805 0.39208 0.36081
 C675 C 0.97038 0.41043 0.36882
 C676 C 0.95190 0.42245 0.35700
 C677 C 0.94409 0.41491 0.33591
 H678 H 0.95199 0.40057 0.32776
 O679 O 1.02210 0.58143 0.38705
 O680 O 1.02208 0.60769 0.36064
 C681 C 1.02980 0.58935 0.36866
 C682 C 1.04831 0.57737 0.35685
 C683 C 1.05619 0.58503 0.33582
 H684 H 1.04832 0.59941 0.32769
 O685 O 0.88763 0.47774 0.41813
 O686 O 0.86122 0.47774 0.39188
 C687 C 0.86925 0.47004 0.41024
 C688 C 0.85745 0.45156 0.42227
 C689 C 0.83639 0.44371 0.41469
 H690 H 0.82825 0.45159 0.40030
 O691 O 1.11252 0.52193 0.41802
 O692 O 1.13893 0.52196 0.39178
 C693 C 1.13090 0.52964 0.41013
 C694 C 1.14270 0.54810 0.42217
 C695 C 1.16377 0.55595 0.41463
 H696 H 1.17194 0.54809 0.40027
 O697 O 0.91862 0.38746 0.47787
 O698 O 0.89242 0.36103 0.47781
 C699 C 0.91077 0.36907 0.47015
 C700 C 0.92287 0.35726 0.45173
 C701 C 0.91547 0.33609 0.44405
 H702 H 0.90118 0.32788 0.45200
 O703 O 1.08150 0.61229 0.47761
 O704 O 1.10775 0.63867 0.47757
 C705 C 1.08939 0.63067 0.46989
 C706 C 1.07735 0.64250 0.45142
 C707 C 1.08484 0.66361 0.44364
 H708 H 1.09916 0.67179 0.45156
 O709 O 0.91851 0.52181 0.38721
 O710 O 0.89225 0.52186 0.36082
 C711 C 0.91061 0.52953 0.36882
 C712 C 0.92264 0.54798 0.35698
 C713 C 0.91509 0.55578 0.33587
 H714 H 0.90074 0.54789 0.32772
 O715 O 1.08162 0.47794 0.38710
 O716 O 1.10786 0.47790 0.36070
 C717 C 1.08951 0.47022 0.36872
 C718 C 1.07747 0.45177 0.35691
 C719 C 1.08499 0.44397 0.33581
 H720 H 1.09932 0.45187 0.32763
 O721 O 1.02220 0.38741 0.41806
 O722 O 1.02219 0.36102 0.39181
 C723 C 1.02991 0.36903 0.41016
 C724 C 1.04839 0.35721 0.42217
 C725 C 1.05626 0.33617 0.41456
 H726 H 1.04839 0.32805 0.40017
 O727 O 0.97802 0.61226 0.41796
 O728 O 0.97795 0.63866 0.39169
 C729 C 0.97028 0.63064 0.41006
 C730 C 0.95182 0.64244 0.42209
 C731 C 0.94397 0.66351 0.41451
 H732 H 0.95184 0.67166 0.40014
 O733 O 0.88771 0.58132 0.47767
 O734 O 0.86129 0.60755 0.47763
 C735 C 0.86931 0.58919 0.46997
 C736 C 0.85746 0.57712 0.45156
 C737 C 0.83631 0.58458 0.44385
 H738 H 0.82813 0.59889 0.45179
 O739 O 1.11252 0.41830 0.47759
 O740 O 1.13893 0.39207 0.47760
 C741 C 1.13091 0.41042 0.46988
 C742 C 1.14272 0.42245 0.45140
 C743 C 1.16379 0.41489 0.44357
 H744 H 1.17194 0.40053 0.45145
 O745 O 0.97806 0.58132 0.38711
 O746 O 0.97799 0.60757 0.36069
 C747 C 0.97033 0.58921 0.36872
 C748 C 0.95187 0.57718 0.35692
 C749 C 0.94405 0.58470 0.33582
 H750 H 0.95195 0.59904 0.32763
 O751 O 1.02214 0.41840 0.38720
 O752 O 1.02213 0.39216 0.36081
 C753 C 1.02983 0.41051 0.36881
 C754 C 1.04827 0.42255 0.35696
 C755 C 1.05605 0.41502 0.33586
 H756 H 1.04815 0.40067 0.32771
 O757 O 1.11252 0.47789 0.41802
 O758 O 1.13892 0.47787 0.39177
 C759 C 1.13090 0.47017 0.41013
 C760 C 1.14271 0.45169 0.42217
 C761 C 1.16378 0.44387 0.41461
 H762 H 1.17192 0.45176 0.40024
 O763 O 0.88764 0.52177 0.41816
 O764 O 0.86122 0.52182 0.39192
 C765 C 0.86925 0.52948 0.41028
 C766 C 0.85743 0.54791 0.42235
 C767 C 0.83627 0.55564 0.41490
 H768 H 0.82807 0.54771 0.40060
 O769 O 0.91855 0.61226 0.47759
 O770 O 0.89229 0.63864 0.47754
 C771 C 0.91064 0.63063 0.46984
 C772 C 0.92263 0.64244 0.45134
 C773 C 0.91506 0.66351 0.44350
 H774 H 0.90071 0.67166 0.45140
 O775 O 1.08169 0.38735 0.47760
 O776 O 1.10795 0.36096 0.47760
 C777 C 1.08960 0.36897 0.46989
 C778 C 1.07760 0.35718 0.45140
 C779 C 1.08520 0.33614 0.44353
 H780 H 1.09958 0.32800 0.45140
 O781 O 1.08166 0.52196 0.38706
 O782 O 1.10791 0.52200 0.36066
 C783 C 1.08957 0.52969 0.36867
 C784 C 1.07755 0.54819 0.35686
 C785 C 1.08518 0.55611 0.33582
 H786 H 1.09957 0.54828 0.32770
 O787 O 0.91852 0.47778 0.38721
 O788 O 0.89227 0.47778 0.36081
 C789 C 0.91063 0.47009 0.36883
 C790 C 0.92266 0.45164 0.35700
 C791 C 0.91511 0.44384 0.33591
 H792 H 0.90075 0.45173 0.32775
 O793 O 1.02204 0.61226 0.41801
 O794 O 1.02203 0.63868 0.39175
 C795 C 1.02972 0.63066 0.41012
 C796 C 1.04815 0.64249 0.42217
 C797 C 1.05591 0.66361 0.41466
 H798 H 1.04800 0.67177 0.40031
 O799 O 0.97818 0.38752 0.41824
 O800 O 0.97812 0.36111 0.39201
 C801 C 0.97047 0.36913 0.41038
 C802 C 0.95207 0.35729 0.42248
 C803 C 0.94439 0.33612 0.41507
 H804 H 0.95234 0.32794 0.40077
 O805 O 1.11243 0.58141 0.47759
 O806 O 1.13883 0.60764 0.47756
 C807 C 1.13081 0.58930 0.46987
 C808 C 1.14264 0.57729 0.45141
 C809 C 1.16371 0.58486 0.44360
 H810 H 1.17184 0.59922 0.45151
 O811 O 0.88760 0.41825 0.47779
 O812 O 0.86124 0.39198 0.47772
 C813 C 0.86925 0.41034 0.47004
 C814 C 0.85745 0.42235 0.45153
 C815 C 0.83639 0.41477 0.44368
 H816 H 0.82825 0.40041 0.45157
 Cu817 Cu 1.00016 0.40554 0.40530
 Cu818 Cu 1.00012 0.37395 0.37371
 Cu819 Cu 1.00006 0.59418 0.40516
 Cu820 Cu 1.00001 0.62579 0.37354
 Cu821 Cu 0.90570 0.49977 0.40531
 Cu822 Cu 0.87409 0.49981 0.37371
 Cu823 Cu 1.09445 0.49993 0.40518
 Cu824 Cu 1.12605 0.49993 0.37358
 C825 C 0.94121 0.44097 0.36730
 H826 H 0.94693 0.44668 0.38370
 C827 C 0.92581 0.42559 0.32541
 C828 C 1.05897 0.55880 0.36712
 H829 H 1.05319 0.55300 0.38348
 C830 C 1.07451 0.57441 0.32535
 C831 C 0.86772 0.44090 0.44085
 H832 H 0.88410 0.44664 0.44660
 C833 C 0.82591 0.42544 0.42537
 C834 C 1.13238 0.55875 0.44071
 H835 H 1.11599 0.55301 0.44643
 C836 C 1.17423 0.57421 0.42534
 C837 C 0.94133 0.36762 0.44097
 H838 H 0.94694 0.38408 0.44659
 C839 C 0.92622 0.32557 0.42584
 C840 C 1.05885 0.63219 0.44071
 H841 H 1.05317 0.61576 0.44641
 C842 C 1.07413 0.67413 0.42538
 C843 C 0.94118 0.55866 0.36725
 H844 H 0.94690 0.55295 0.38367
 C845 C 0.92578 0.57402 0.32533
 C846 C 1.05895 0.44108 0.36724
 H847 H 1.05326 0.44679 0.38365
 C848 C 1.07429 0.42571 0.32533
 C849 C 1.05904 0.36746 0.44074
 H850 H 1.05327 0.38382 0.44651
 C851 C 1.07455 0.32568 0.42522
 C852 C 0.94117 0.63215 0.44066
 H853 H 0.94691 0.61577 0.44640
 C854 C 0.92571 0.67400 0.42520
 C855 C 0.86778 0.55863 0.44083
 H856 H 0.88423 0.55298 0.44647
 C857 C 0.82576 0.57386 0.42565
 C858 C 1.13243 0.44101 0.44072
 H859 H 1.11604 0.44673 0.44645
 C860 C 1.17428 0.42559 0.42528
 O861 O 1.02208 0.41815 0.61226
 O862 O 1.02215 0.39189 0.63867
 C863 C 1.02982 0.41025 0.63064
 C864 C 1.04830 0.42227 0.64244
 C865 C 1.05614 0.41471 0.66352
 H866 H 1.04826 0.40035 0.67170
 O867 O 0.97807 0.58135 0.61209
 O868 O 0.97804 0.60756 0.63851
 C869 C 0.97036 0.58922 0.63048
 C870 C 0.95192 0.57716 0.64231
 C871 C 0.94415 0.58466 0.66343
 H872 H 0.95205 0.59900 0.67159
 O873 O 0.88765 0.52177 0.58126
 O874 O 0.86128 0.52183 0.60753
 C875 C 0.86929 0.52951 0.58916
 C876 C 0.85749 0.54799 0.57711
 C877 C 0.83640 0.55580 0.58464
 H878 H 0.82823 0.54789 0.59899
 O879 O 1.11248 0.47771 0.58124
 O880 O 1.13889 0.47769 0.60748
 C881 C 1.13087 0.47001 0.58913
 C882 C 1.14270 0.45158 0.57708
 C883 C 1.16380 0.44379 0.58462
 H884 H 1.17196 0.45167 0.59897
 O885 O 1.08159 0.38741 0.52165
 O886 O 1.10784 0.36101 0.52171
 C887 C 1.08948 0.36903 0.52939
 C888 C 1.07743 0.35720 0.54784
 C889 C 1.08494 0.33608 0.55562
 H890 H 1.09927 0.32791 0.54770
 O891 O 0.91861 0.61229 0.52164
 O892 O 0.89235 0.63867 0.52165
 C893 C 0.91071 0.63067 0.52933
 C894 C 0.92275 0.64250 0.54777
 C895 C 0.91525 0.66362 0.55552
 H896 H 0.90092 0.67179 0.54759
 O897 O 0.91854 0.47772 0.61220
 O898 O 0.89232 0.47773 0.63862
 C899 C 0.91066 0.47002 0.63060
 C900 C 0.92268 0.45156 0.64244
 C901 C 0.91512 0.44374 0.66353
 H902 H 0.90076 0.45163 0.67167
 O903 O 1.08155 0.52169 0.61215
 O904 O 1.10780 0.52172 0.63856
 C905 C 1.08944 0.52940 0.63054
 C906 C 1.07739 0.54783 0.64237
 C907 C 1.08486 0.55555 0.66352
 H908 H 1.09917 0.54761 0.67171
 O909 O 0.97800 0.38726 0.58142
 O910 O 0.97802 0.36086 0.60769
 C911 C 0.97029 0.36888 0.58934
 C912 C 0.95178 0.35710 0.57737
 C913 C 0.94385 0.33610 0.58504
 H914 H 0.95170 0.32797 0.59944
 O915 O 1.02213 0.61229 0.58124
 O916 O 1.02216 0.63864 0.60752
 C917 C 1.02985 0.63065 0.58916
 C918 C 1.04833 0.64246 0.57714
 C919 C 1.05620 0.66350 0.58473
 H920 H 1.04834 0.67164 0.59911
 O921 O 0.88758 0.41827 0.52185
 O922 O 0.86121 0.39202 0.52184
 C923 C 0.86920 0.41037 0.52954
 C924 C 0.85738 0.42238 0.54801
 C925 C 0.83631 0.41482 0.55586
 H926 H 0.82816 0.40047 0.54798
 O927 O 1.11241 0.58132 0.52164
 O928 O 1.13881 0.60755 0.52166
 C929 C 1.13079 0.58919 0.52935
 C930 C 1.14261 0.57713 0.54780
 C931 C 1.16373 0.58462 0.55557
 H932 H 1.17189 0.59896 0.54765
 O933 O 1.02209 0.58130 0.61210
 O934 O 1.02211 0.60750 0.63853
 C935 C 1.02978 0.58916 0.63050
 C936 C 1.04820 0.57707 0.64235
 C937 C 1.05593 0.58452 0.66350
 H938 H 1.04801 0.59884 0.67167
 O939 O 0.97805 0.41820 0.61227
 O940 O 0.97806 0.39195 0.63869
 C941 C 0.97036 0.41030 0.63067
 C942 C 0.95189 0.42233 0.64248
 C943 C 0.94405 0.41477 0.66357
 H944 H 0.95193 0.40041 0.67174
 O945 O 1.11244 0.52173 0.58122
 O946 O 1.13884 0.52176 0.60747
 C947 C 1.13081 0.52945 0.58910
 C948 C 1.14262 0.54790 0.57704
 C949 C 1.16374 0.55566 0.58455
 H950 H 1.17191 0.54774 0.59889
 O951 O 0.88760 0.47774 0.58132
 O952 O 0.86122 0.47775 0.60759
 C953 C 0.86922 0.47005 0.58924
 C954 C 0.85739 0.45159 0.57722
 C955 C 0.83633 0.44377 0.58480
 H956 H 0.82819 0.45165 0.59917
 O957 O 1.08158 0.61231 0.52167
 O958 O 1.10784 0.63868 0.52168
 C959 C 1.08950 0.63067 0.52939
 C960 C 1.07751 0.64247 0.54788
 C961 C 1.08511 0.66351 0.55573
 H962 H 1.09947 0.67165 0.54784
 O963 O 0.91845 0.38733 0.52192
 O964 O 0.89222 0.36093 0.52191
 C965 C 0.91055 0.36895 0.52964
 C966 C 0.92254 0.35714 0.54815
 C967 C 0.91488 0.33614 0.55609
 H968 H 0.90048 0.32803 0.54825
 O969 O 1.08160 0.47767 0.61217
 O970 O 1.10786 0.47764 0.63857
 C971 C 1.08951 0.46995 0.63056
 C972 C 1.07750 0.45148 0.64240
 C973 C 1.08508 0.44366 0.66348
 H974 H 1.09944 0.45154 0.67162
 O975 O 0.91857 0.52175 0.61216
 O976 O 0.89234 0.52181 0.63858
 C977 C 0.91069 0.52948 0.63055
 C978 C 0.92273 0.54793 0.64235
 C979 C 0.91524 0.55570 0.66347
 H980 H 0.90092 0.54778 0.67166
 O981 O 0.97811 0.61229 0.58117
 O982 O 0.97807 0.63865 0.60744
 C983 C 0.97040 0.63066 0.58907
 C984 C 0.95196 0.64250 0.57701
 C985 C 0.94420 0.66361 0.58449
 H986 H 0.95211 0.67178 0.59883
 O987 O 1.02203 0.38735 0.58126
 O988 O 1.02211 0.36094 0.60752
 C989 C 1.02977 0.36897 0.58914
 C990 C 1.04821 0.35717 0.57708
 C991 C 1.05599 0.33605 0.58457
 H992 H 1.04808 0.32786 0.59891
 O993 O 1.11254 0.41826 0.52165
 O994 O 1.13894 0.39202 0.52171
 C995 C 1.13092 0.41037 0.52938
 C996 C 1.14273 0.42239 0.54784
 C997 C 1.16383 0.41487 0.55565
 H998 H 1.17200 0.40054 0.54774
 O999 O 0.88771 0.58138 0.52172
 O1000 O 0.86131 0.60762 0.52172
 C1001 C 0.86933 0.58927 0.52943
 C1002 C 0.85751 0.57723 0.54790
 C1003 C 0.83643 0.58477 0.55569
 H1004 H 0.82827 0.59913 0.54779
 Cu1005 Cu 1.00003 0.40537 0.59417
 Cu1006 Cu 1.00010 0.37376 0.62579
 Cu1007 Cu 1.00010 0.59418 0.59401
 Cu1008 Cu 1.00009 0.62573 0.62565
 Cu1009 Cu 0.90569 0.40546 0.49986
 Cu1010 Cu 0.87413 0.37385 0.49981
 Cu1011 Cu 1.09446 0.40546 0.49962
 Cu1012 Cu 1.12606 0.37387 0.49966
 Cu1013 Cu 0.90578 0.59419 0.49966
 Cu1014 Cu 0.87416 0.62577 0.49963
 Cu1015 Cu 1.09435 0.59421 0.49963
 Cu1016 Cu 1.12595 0.62578 0.49962
 Cu1017 Cu 0.90572 0.49974 0.59410
 Cu1018 Cu 0.87414 0.49978 0.62573
 Cu1019 Cu 1.09438 0.49970 0.59407
 Cu1020 Cu 1.12599 0.49971 0.62567
 C1021 C 1.05896 0.44081 0.63212
 H1022 H 1.05321 0.44654 0.61573
 C1023 C 1.07441 0.42539 0.67401
 C1024 C 0.94123 0.55864 0.63201
 H1025 H 0.94691 0.55296 0.61559
 C1026 C 0.92593 0.57394 0.67396
 C1027 C 0.86779 0.55868 0.55858
 H1028 H 0.88419 0.55297 0.55288
 C1029 C 0.82591 0.57407 0.57395
 C1030 C 1.13242 0.44090 0.55854
 H1031 H 1.11601 0.44660 0.55283
 C1032 C 1.17432 0.42555 0.57391
 C1033 C 1.05891 0.36750 0.55855
 H1034 H 1.05323 0.38392 0.55287
 C1035 C 1.07423 0.32555 0.57386
 C1036 C 0.94127 0.63219 0.55849
 H1037 H 0.94695 0.61577 0.55282
 C1038 C 0.92596 0.67413 0.57376
 C1039 C 0.94122 0.44088 0.63217
 H1040 H 0.94696 0.44660 0.61577
 C1041 C 0.92578 0.42546 0.67405
 C1042 C 1.05891 0.55857 0.63203
 H1043 H 1.05325 0.55292 0.61558
 C1044 C 1.07414 0.57377 0.67404
 C1045 C 0.94114 0.36736 0.55877
 H1046 H 0.94695 0.38370 0.55296
 C1047 C 0.92552 0.32566 0.57442
 C1048 C 1.05896 0.63220 0.55856
 H1049 H 1.05320 0.61584 0.55281
 C1050 C 1.07447 0.67399 0.57404
 C1051 C 0.86766 0.44092 0.55867
 H1052 H 0.88404 0.44665 0.55293
 C1053 C 0.82583 0.42550 0.57414
 C1054 C 1.13231 0.55861 0.55852
 H1055 H 1.11589 0.55293 0.55283
 C1056 C 1.17425 0.57390 0.57382
 O1057 O 0.47769 0.91888 0.38762
 O1058 O 0.47770 0.89264 0.36122
 C1059 C 0.47000 0.91099 0.36922
 C1060 C 0.45155 0.92302 0.35737
 C1061 C 0.44373 0.91545 0.33630
 H1062 H 0.45162 0.90108 0.32817
 O1063 O 0.52189 1.08205 0.38758
 O1064 O 0.52193 1.10827 0.36113
 C1065 C 0.52960 1.08991 0.36917
 C1066 C 0.54803 1.07785 0.35736
 C1067 C 0.55582 1.08536 0.33624
 H1068 H 0.54792 1.09971 0.32806
 O1069 O 0.38734 0.97851 0.41843
 O1070 O 0.36098 0.97851 0.39213
 C1071 C 0.36896 0.97082 0.41052
 C1072 C 0.35712 0.95238 0.42257
 C1073 C 0.33603 0.94461 0.41502
 H1074 H 0.32788 0.95251 0.40066
 O1075 O 0.61221 1.02235 0.41858
 O1076 O 0.63859 1.02238 0.39232
 C1077 C 0.63060 1.03004 0.41069
 C1078 C 0.64245 1.04843 0.42277
 C1079 C 0.66363 1.05609 0.41534
 H1080 H 0.67181 1.04813 0.40104
 O1081 O 0.41810 0.88801 0.47799
 O1082 O 0.39185 0.86163 0.47799
 C1083 C 0.41020 0.86963 0.47029
 C1084 C 0.42222 0.85781 0.45182
 C1085 C 0.41464 0.83675 0.44398
 H1086 H 0.40027 0.82862 0.45186
 O1087 O 0.58151 1.11292 0.47800
 O1088 O 0.60777 1.13929 0.47791
 C1089 C 0.58942 1.13128 0.47024
 C1090 C 0.57740 1.14308 0.45173
 C1091 C 0.58500 1.16412 0.44383
 H1092 H 0.59939 1.17224 0.45168
 O1093 O 0.41835 1.02248 0.38753
 O1094 O 0.39215 1.02254 0.36107
 C1095 C 0.41049 1.03020 0.36912
 C1096 C 0.42256 1.04865 0.35731
 C1097 C 0.41509 1.05641 0.33616
 H1098 H 0.40078 1.04848 0.32796
 O1099 O 0.58127 0.97839 0.38765
 O1100 O 0.60749 0.97837 0.36123
 C1101 C 0.58915 0.97069 0.36926
 C1102 C 0.57710 0.95225 0.35744
 C1103 C 0.58461 0.94448 0.33633
 H1104 H 0.59894 0.95238 0.32815
 O1105 O 0.52169 0.88799 0.41862
 O1106 O 0.52175 0.86159 0.39238
 C1107 C 0.52941 0.86961 0.41075
 C1108 C 0.54786 0.85779 0.42283
 C1109 C 0.55559 0.83665 0.41539
 H1110 H 0.54765 0.82846 0.40108
 O1111 O 0.47788 1.11302 0.41843
 O1112 O 0.47787 1.13939 0.39213
 C1113 C 0.47017 1.13139 0.41050
 C1114 C 0.45170 1.14321 0.42250
 C1115 C 0.44388 1.16429 0.41493
 H1116 H 0.45179 1.17245 0.40058
 O1117 O 0.38732 1.08210 0.47778
 O1118 O 0.36094 1.10836 0.47774
 C1119 C 0.36896 1.09002 0.47004
 C1120 C 0.35716 1.07802 0.45154
 C1121 C 0.33612 1.08563 0.44364
 H1122 H 0.32799 1.10001 0.45148
 O1123 O 0.61230 0.91886 0.47805
 O1124 O 0.63866 0.89258 0.47806
 C1125 C 0.63066 0.91093 0.47034
 C1126 C 0.64247 0.92292 0.45183
 C1127 C 0.66351 0.91532 0.44397
 H1128 H 0.67165 0.90094 0.45185
 O1129 O 0.47787 1.08206 0.38758
 O1130 O 0.47786 1.10828 0.36113
 C1131 C 0.47017 1.08994 0.36917
 C1132 C 0.45174 1.07788 0.35734
 C1133 C 0.44400 1.08537 0.33619
 H1134 H 0.45191 1.09971 0.32801
 O1135 O 0.52171 0.91888 0.38766
 O1136 O 0.52178 0.89264 0.36127
 C1137 C 0.52944 0.91099 0.36928
 C1138 C 0.54789 0.92304 0.35746
 C1139 C 0.55567 0.91553 0.33634
 H1140 H 0.54777 0.90120 0.32818
 O1141 O 0.61227 0.97833 0.41848
 O1142 O 0.63864 0.97831 0.39220
 C1143 C 0.63064 0.97061 0.41056
 C1144 C 0.64245 0.95213 0.42258
 C1145 C 0.66349 0.94426 0.41498
 H1146 H 0.67162 0.95213 0.40059
 O1147 O 0.38733 1.02254 0.41832
 O1148 O 0.36098 1.02260 0.39202
 C1149 C 0.36898 1.03028 0.41038
 C1150 C 0.35717 1.04878 0.42236
 C1151 C 0.33614 1.05666 0.41472
 H1152 H 0.32801 1.04878 0.40034
 O1153 O 0.41827 1.11296 0.47783
 O1154 O 0.39203 1.13936 0.47780
 C1155 C 0.41039 1.13135 0.47013
 C1156 C 0.42244 1.14318 0.45168
 C1157 C 0.41489 1.16426 0.44385
 H1158 H 0.40052 1.17241 0.45171
 O1159 O 0.58130 0.88806 0.47812
 O1160 O 0.60752 0.86164 0.47815
 C1161 C 0.58916 0.86966 0.47045
 C1162 C 0.57709 0.85782 0.45204
 C1163 C 0.58456 0.83668 0.44433
 H1164 H 0.59888 0.82850 0.45226
 O1165 O 0.58135 1.02241 0.38760
 O1166 O 0.60758 1.02245 0.36119
 C1167 C 0.58924 1.03014 0.36921
 C1168 C 0.57721 1.04860 0.35738
 C1169 C 0.58473 1.05638 0.33626
 H1170 H 0.59906 1.04846 0.32809
 O1171 O 0.41822 0.97845 0.38748
 O1172 O 0.39200 0.97845 0.36104
 C1173 C 0.41033 0.97074 0.36909
 C1174 C 0.42235 0.95226 0.35731
 C1175 C 0.41480 0.94442 0.33623
 H1176 H 0.40045 0.95231 0.32805
 O1177 O 0.52192 1.11296 0.41846
 O1178 O 0.52196 1.13933 0.39216
 C1179 C 0.52966 1.13132 0.41052
 C1180 C 0.54816 1.14311 0.42252
 C1181 C 0.55603 1.16414 0.41489
 H1182 H 0.54815 1.17228 0.40051
 O1183 O 0.47766 0.88795 0.41852
 O1184 O 0.47767 0.86156 0.39228
 C1185 C 0.46995 0.86958 0.41062
 C1186 C 0.45146 0.85778 0.42263
 C1187 C 0.44362 0.83672 0.41506
 H1188 H 0.45151 0.82857 0.40071
 O1189 O 0.61230 1.08190 0.47812
 O1190 O 0.63872 1.10811 0.47803
 C1191 C 0.63069 1.08975 0.47039
 C1192 C 0.64250 1.07764 0.45198
 C1193 C 0.66368 1.08503 0.44428
 H1194 H 0.67190 1.09931 0.45223
 O1195 O 0.38728 0.91899 0.47800
 O1196 O 0.36088 0.89277 0.47800
 C1197 C 0.36889 0.91112 0.47029
 C1198 C 0.35709 0.92317 0.45182
 C1199 C 0.33600 0.91566 0.44401
 H1200 H 0.32782 0.90132 0.45192
 Cu1201 Cu 0.49968 0.90605 0.40574
 Cu1202 Cu 0.49973 0.87446 0.37414
 Cu1203 Cu 0.49989 1.09490 0.40565
 Cu1204 Cu 0.49990 1.12646 0.37399
 Cu1205 Cu 0.40543 1.00049 0.40558
 Cu1206 Cu 0.37389 1.00053 0.37392
 Cu1207 Cu 0.59415 1.00037 0.40571
 Cu1208 Cu 0.62572 1.00038 0.37408
 C1209 C 0.44088 0.94158 0.36763
 H1210 H 0.44660 0.94732 0.38402
 C1211 C 0.42548 0.92613 0.32576
 C1212 C 0.55871 1.05932 0.36768
 H1213 H 0.55301 1.05363 0.38411
 C1214 C 0.57405 1.07463 0.32573
 C1215 C 0.36740 0.94169 0.44112
 H1216 H 0.38380 0.94738 0.44684
 C1217 C 0.32551 0.92636 0.42573
 C1218 C 0.63213 1.05919 0.44125
 H1219 H 0.61566 1.05359 0.44688
 C1220 C 0.67420 1.07426 0.42609
 C1221 C 0.44078 0.86807 0.44116
 H1222 H 0.44653 0.88444 0.44690
 C1223 C 0.42533 0.82625 0.42572
 C1224 C 0.55882 1.13283 0.44109
 H1225 H 0.55306 1.11647 0.44688
 C1226 C 0.57433 1.17461 0.42553
 C1227 C 0.44104 1.05936 0.36765
 H1228 H 0.44670 1.05368 0.38409
 C1229 C 0.42579 1.07465 0.32564
 C1230 C 0.55858 0.94155 0.36776
 H1231 H 0.55289 0.94724 0.38418
 C1232 C 0.57391 0.92624 0.32582
 C1233 C 0.55858 0.86813 0.44131
 H1234 H 0.55292 0.88457 0.44695
 C1235 C 0.57382 0.82613 0.42612
 C1236 C 0.44100 1.13291 0.44104
 H1237 H 0.44672 1.11651 0.44677
 C1238 C 0.42560 1.17478 0.42559
 C1239 C 0.36743 1.05944 0.44092
 H1240 H 0.38379 1.05367 0.44671
 C1241 C 0.32566 1.07496 0.42534
 C1242 C 0.63219 0.94148 0.44116
 H1243 H 0.61583 0.94724 0.44692
 C1244 C 0.67398 0.92597 0.42565
 O1245 O 0.52174 0.91903 0.61251
 O1246 O 0.52178 0.89279 0.63894
 C1247 C 0.52945 0.91115 0.63091
 C1248 C 0.54790 0.92318 0.64273
 C1249 C 0.55566 0.91567 0.66386
 H1250 H 0.54774 0.90134 0.67204
 O1251 O 0.47782 1.08200 0.61237
 O1252 O 0.47776 1.10824 0.63876
 C1253 C 0.47009 1.08988 0.63075
 C1254 C 0.45162 1.07786 0.64256
 C1255 C 0.44383 1.08539 0.66366
 H1256 H 0.45174 1.09972 0.67182
 O1257 O 0.38732 1.02245 0.58146
 O1258 O 0.36092 1.02253 0.60771
 C1259 C 0.36893 1.03018 0.58933
 C1260 C 0.35711 1.04861 0.57723
 C1261 C 0.33598 1.05636 0.58469
 H1262 H 0.32780 1.04844 0.59902
 O1263 O 0.61229 0.97856 0.58160
 O1264 O 0.63865 0.97846 0.60789
 C1265 C 0.63065 0.97081 0.58951
 C1266 C 0.64247 0.95237 0.57747
 C1267 C 0.66359 0.94460 0.58496
 H1268 H 0.67177 0.95251 0.59929
 O1269 O 0.58136 0.88807 0.52217
 O1270 O 0.60758 0.86166 0.52224
 C1271 C 0.58924 0.86969 0.52991
 C1272 C 0.57719 0.85789 0.54838
 C1273 C 0.58469 0.83678 0.55618
 H1274 H 0.59904 0.82861 0.54828
 O1275 O 0.41823 1.11291 0.52188
 O1276 O 0.39199 1.13931 0.52191
 C1277 C 0.41033 1.13128 0.52960
 C1278 C 0.42237 1.14308 0.54807
 C1279 C 0.41483 1.16417 0.55587
 H1280 H 0.40047 1.17232 0.54798
 O1281 O 0.41820 0.97846 0.61248
 O1282 O 0.39196 0.97848 0.63889
 C1283 C 0.41030 0.97077 0.63089
 C1284 C 0.42232 0.95231 0.64273
 C1285 C 0.41475 0.94448 0.66381
 H1286 H 0.40039 0.95236 0.67195
 O1287 O 0.58139 1.02256 0.61252
 O1288 O 0.60759 1.02253 0.63897
 C1289 C 0.58926 1.03024 0.63092
 C1290 C 0.57723 1.04870 0.64273
 C1291 C 0.58477 1.05652 0.66381
 H1292 H 0.59913 1.04863 0.67198
 O1293 O 0.47774 0.88811 0.58161
 O1294 O 0.47772 0.86171 0.60789
 C1295 C 0.47004 0.86972 0.58951
 C1296 C 0.45161 0.85789 0.57746
 C1297 C 0.44389 0.83676 0.58495
 H1298 H 0.45181 0.82858 0.59928
 O1299 O 0.52186 1.11295 0.58150
 O1300 O 0.52184 1.13934 0.60775
 C1301 C 0.52955 1.13133 0.58940
 C1302 C 0.54803 1.14315 0.57738
 C1303 C 0.55586 1.16421 0.58493
 H1304 H 0.54797 1.17237 0.59928
 O1305 O 0.38725 0.91892 0.52206
 O1306 O 0.36087 0.89268 0.52211
 C1307 C 0.36888 0.91103 0.52979
 C1308 C 0.35709 0.92303 0.54828
 C1309 C 0.33605 0.91544 0.55617
 H1310 H 0.32792 0.90106 0.54830
 O1311 O 0.61241 1.08210 0.52217
 O1312 O 0.63881 1.10834 0.52214
 C1313 C 0.63079 1.09001 0.52988
 C1314 C 0.64258 1.07802 0.54842
 C1315 C 0.66358 1.08566 0.55636
 H1316 H 0.67171 1.10006 0.54852
 O1317 O 0.52185 1.08205 0.61245
 O1318 O 0.52184 1.10829 0.63884
 C1319 C 0.52955 1.08995 0.63085
 C1320 C 0.54801 1.07792 0.64269
 C1321 C 0.55583 1.08548 0.66378
 H1322 H 0.54794 1.09983 0.67192
 O1323 O 0.47771 0.91896 0.61256
 O1324 O 0.47769 0.89271 0.63899
 C1325 C 0.47000 0.91106 0.63095
 C1326 C 0.45153 0.92308 0.64276
 C1327 C 0.44370 0.91552 0.66384
 H1328 H 0.45157 0.90116 0.67201
 O1329 O 0.61236 1.02259 0.58168
 O1330 O 0.63871 1.02255 0.60799
 C1331 C 0.63073 1.03028 0.58962
 C1332 C 0.64255 1.04879 0.57765
 C1333 C 0.66355 1.05668 0.58532
 H1334 H 0.67165 1.04882 0.59974
 O1335 O 0.38728 0.97843 0.58158
 O1336 O 0.36089 0.97844 0.60784
 C1337 C 0.36890 0.97073 0.58949
 C1338 C 0.35709 0.95224 0.57750
 C1339 C 0.33606 0.94437 0.58512
 H1340 H 0.32793 0.95223 0.59950
 O1341 O 0.58141 1.11291 0.52205
 O1342 O 0.60766 1.13929 0.52203
 C1343 C 0.58930 1.13130 0.52973
 C1344 C 0.57726 1.14313 0.54817
 C1345 C 0.58482 1.16419 0.55599
 H1346 H 0.59919 1.17233 0.54810
 O1347 O 0.41822 0.88808 0.52204
 O1348 O 0.39198 0.86169 0.52210
 C1349 C 0.41034 0.86970 0.52976
 C1350 C 0.42240 0.85788 0.54822
 C1351 C 0.41494 0.83675 0.55598
 H1352 H 0.40063 0.82856 0.54805
 O1353 O 0.58136 0.97854 0.61250
 O1354 O 0.60757 0.97845 0.63894
 C1355 C 0.58922 0.97080 0.63090
 C1356 C 0.57715 0.95236 0.64272
 C1357 C 0.58464 0.94458 0.66385
 H1358 H 0.59897 0.95246 0.67203
 O1359 O 0.41821 1.02249 0.61240
 O1360 O 0.39197 1.02256 0.63880
 C1361 C 0.41033 1.03023 0.63077
 C1362 C 0.42237 1.04868 0.64257
 C1363 C 0.41485 1.05648 0.66367
 H1364 H 0.40050 1.04860 0.67184
 O1365 O 0.47782 1.11291 0.58145
 O1366 O 0.47776 1.13930 0.60769
 C1367 C 0.47009 1.13128 0.58933
 C1368 C 0.45161 1.14309 0.57728
 C1369 C 0.44381 1.16417 0.58481
 H1370 H 0.45171 1.17233 0.59915
 O1371 O 0.52177 0.88807 0.58168
 O1372 O 0.52180 0.86169 0.60796
 C1373 C 0.52949 0.86970 0.58959
 C1374 C 0.54795 0.85788 0.57758
 C1375 C 0.55573 0.83678 0.58511
 H1376 H 0.54781 0.82860 0.59945
 O1377 O 0.61223 0.91899 0.52210
 O1378 O 0.63861 0.89273 0.52218
 C1379 C 0.63061 0.91110 0.52983
 C1380 C 0.64244 0.92315 0.54826
 C1381 C 0.66356 0.91565 0.55602
 H1382 H 0.67173 0.90132 0.54811
 O1383 O 0.38734 1.08199 0.52183
 O1384 O 0.36095 1.10824 0.52185
 C1385 C 0.36896 1.08987 0.52953
 C1386 C 0.35712 1.07781 0.54797
 C1387 C 0.33599 1.08529 0.55570
 H1388 H 0.32782 1.09962 0.54775
 Cu1389 Cu 0.49974 0.90617 0.59446
 Cu1390 Cu 0.49975 0.87458 0.62609
 Cu1391 Cu 0.49985 1.09485 0.59431
 Cu1392 Cu 0.49979 1.12644 0.62591
 Cu1393 Cu 0.40534 0.90613 0.50001
 Cu1394 Cu 0.37375 0.87455 0.50005
 Cu1395 Cu 0.59417 0.90613 0.50010
 Cu1396 Cu 0.62574 0.87450 0.50017
 Cu1397 Cu 0.40542 1.09486 0.49983
 Cu1398 Cu 0.37383 1.12646 0.49983
 Cu1399 Cu 0.59428 1.09483 0.50009
 Cu1400 Cu 0.62588 1.12640 0.50002
 Cu1401 Cu 0.40538 1.00045 0.59435
 Cu1402 Cu 0.37379 1.00051 0.62596
 Cu1403 Cu 0.59423 1.00057 0.59444
 Cu1404 Cu 0.62578 1.00048 0.62610
 C1405 C 0.55862 0.94169 0.63240
 H1406 H 0.55295 0.94738 0.61597
 C1407 C 0.57391 0.92635 0.67438
 C1408 C 0.44092 1.05934 0.63226
 H1409 H 0.44662 1.05363 0.61586
 C1410 C 0.42557 1.07472 0.67417
 C1411 C 0.36744 1.05931 0.55871
 H1412 H 0.38387 1.05364 0.55306
 C1413 C 0.32546 1.07458 0.57394
 C1414 C 0.63214 0.94167 0.55896
 H1415 H 0.61572 0.94735 0.55328
 C1416 C 0.67410 0.92636 0.57425
 C1417 C 0.55866 0.86819 0.55905
 H1418 H 0.55297 0.88460 0.55334
 C1419 C 0.57398 0.82627 0.57443
 C1420 C 0.44092 1.13279 0.55875
 H1421 H 0.44664 1.11639 0.55304
 C1422 C 0.42553 1.17467 0.57413
 C1423 C 0.44087 0.94163 0.63246
 H1424 H 0.44660 0.94737 0.61606
 C1425 C 0.42542 0.92620 0.67433
 C1426 C 0.55869 1.05938 0.63242
 H1427 H 0.55297 1.05366 0.61602
 C1428 C 0.57409 1.07479 0.67430
 C1429 C 0.44090 0.86820 0.55894
 H1430 H 0.44655 0.88464 0.55326
 C1431 C 0.42567 0.82623 0.57422
 C1432 C 0.55871 1.13286 0.55884
 H1433 H 0.55298 1.11647 0.55312
 C1434 C 0.57414 1.17469 0.57425
 C1435 C 0.36736 0.94159 0.55893
 H1436 H 0.38372 0.94735 0.55316
 C1437 C 0.32558 0.92608 0.57447
 C1438 C 0.63232 1.05943 0.55904
 H1439 H 0.61598 1.05365 0.55322
 C1440 C 0.67403 1.07501 0.57470
 O1441 O 0.47805 0.41832 0.88775
 O1442 O 0.47802 0.39210 0.86135
 C1443 C 0.47034 0.41045 0.86936
 C1444 C 0.45189 0.42250 0.85753
 C1445 C 0.44410 0.41498 0.83642
 H1446 H 0.45201 0.40065 0.82826
 O1447 O 0.52203 0.58140 0.88789
 O1448 O 0.52208 0.60765 0.86148
 C1449 C 0.52975 0.58929 0.86951
 C1450 C 0.54821 0.57725 0.85769
 C1451 C 0.55599 0.58478 0.83658
 H1452 H 0.54809 0.59913 0.82841
 O1453 O 0.38758 0.47782 0.91862
 O1454 O 0.36121 0.47785 0.89234
 C1455 C 0.36920 0.47014 0.91070
 C1456 C 0.35737 0.45168 0.92272
 C1457 C 0.33631 0.44387 0.91514
 H1458 H 0.32817 0.45177 0.90076
 O1459 O 0.61249 0.52174 0.91878
 O1460 O 0.63888 0.52181 0.89252
 C1461 C 0.63087 0.52946 0.91089
 C1462 C 0.64268 0.54790 0.92294
 C1463 C 0.66379 0.55568 0.91543
 H1464 H 0.67196 0.54778 0.90109
 O1465 O 0.41845 0.38745 0.97818
 O1466 O 0.39221 0.36106 0.97817
 C1467 C 0.41056 0.36907 0.97047
 C1468 C 0.42258 0.35725 0.95201
 C1469 C 0.41502 0.33619 0.94419
 H1470 H 0.40066 0.32805 0.95207
 O1471 O 0.58156 0.61215 0.97831
 O1472 O 0.60781 0.63853 0.97829
 C1473 C 0.58945 0.63053 0.97060
 C1474 C 0.57740 0.64239 0.95216
 C1475 C 0.58490 0.66351 0.94441
 H1476 H 0.59924 0.67166 0.95232
 O1477 O 0.41853 0.52186 0.88775
 O1478 O 0.39230 0.52195 0.86133
 C1479 C 0.41065 0.52960 0.86936
 C1480 C 0.42270 0.54805 0.85755
 C1481 C 0.41522 0.55583 0.83641
 H1482 H 0.40090 0.54792 0.82822
 O1483 O 0.58158 0.47777 0.88783
 O1484 O 0.60782 0.47779 0.86141
 C1485 C 0.58948 0.47009 0.86943
 C1486 C 0.57746 0.45164 0.85760
 C1487 C 0.58502 0.44386 0.83651
 H1488 H 0.59937 0.45176 0.82836
 O1489 O 0.52205 0.38737 0.91870
 O1490 O 0.52207 0.36100 0.89245
 C1491 C 0.52976 0.36899 0.91081
 C1492 C 0.54821 0.35716 0.92286
 C1493 C 0.55602 0.33609 0.91530
 H1494 H 0.54813 0.32795 0.90094
 O1495 O 0.47796 0.61232 0.91873
 O1496 O 0.47796 0.63871 0.89246
 C1497 C 0.47025 0.63070 0.91082
 C1498 C 0.45177 0.64251 0.92282
 C1499 C 0.44394 0.66358 0.91524
 H1500 H 0.45183 0.67173 0.90088
 O1501 O 0.38759 0.58136 0.97830
 O1502 O 0.36117 0.60759 0.97822
 C1503 C 0.36920 0.58923 0.97056
 C1504 C 0.35740 0.57718 0.95211
 C1505 C 0.33626 0.58463 0.94436
 H1506 H 0.32806 0.59893 0.95229
 O1507 O 0.61249 0.41817 0.97825
 O1508 O 0.63887 0.39191 0.97826
 C1509 C 0.63087 0.41026 0.97055
 C1510 C 0.64268 0.42228 0.95206
 C1511 C 0.66374 0.41469 0.94421
 H1512 H 0.67188 0.40032 0.95209
 O1513 O 0.47801 0.58141 0.88784
 O1514 O 0.47801 0.60766 0.86142
 C1515 C 0.47032 0.58931 0.86943
 C1516 C 0.45190 0.57727 0.85758
 C1517 C 0.44416 0.58478 0.83645
 H1518 H 0.45207 0.59912 0.82828
 O1519 O 0.52207 0.41827 0.88776
 O1520 O 0.52211 0.39205 0.86135
 C1521 C 0.52979 0.41039 0.86937
 C1522 C 0.54826 0.42242 0.85756
 C1523 C 0.55610 0.41490 0.83648
 H1524 H 0.54822 0.40055 0.82831
 O1525 O 0.61250 0.47772 0.91873
 O1526 O 0.63888 0.47773 0.89247
 C1527 C 0.63087 0.47001 0.91082
 C1528 C 0.64269 0.45152 0.92284
 C1529 C 0.66374 0.44367 0.91525
 H1530 H 0.67188 0.45156 0.90088
 O1531 O 0.38766 0.52184 0.91870
 O1532 O 0.36127 0.52192 0.89243
 C1533 C 0.36928 0.52957 0.91081
 C1534 C 0.35744 0.54799 0.92287
 C1535 C 0.33630 0.55571 0.91540
 H1536 H 0.32813 0.54779 0.90107
 O1537 O 0.41842 0.61232 0.97826
 O1538 O 0.39216 0.63870 0.97818
 C1539 C 0.41052 0.63069 0.97052
 C1540 C 0.42255 0.64250 0.95204
 C1541 C 0.41498 0.66357 0.94419
 H1542 H 0.40062 0.67171 0.95207
 O1543 O 0.58156 0.38730 0.97827
 O1544 O 0.60779 0.36089 0.97828
 C1545 C 0.58945 0.36892 0.97057
 C1546 C 0.57742 0.35712 0.95210
 C1547 C 0.58497 0.33605 0.94427
 H1548 H 0.59932 0.32788 0.95216
 O1549 O 0.58156 0.52180 0.88788
 O1550 O 0.60780 0.52187 0.86147
 C1551 C 0.58945 0.52954 0.86949
 C1552 C 0.57741 0.54802 0.85768
 C1553 C 0.58492 0.55582 0.83657
 H1554 H 0.59925 0.54791 0.82840
 O1555 O 0.41853 0.47784 0.88774
 O1556 O 0.39229 0.47787 0.86132
 C1557 C 0.41064 0.47016 0.86934
 C1558 C 0.42267 0.45171 0.85752
 C1559 C 0.41515 0.44393 0.83641
 H1560 H 0.40080 0.45183 0.82824
 O1561 O 0.52199 0.61229 0.91880
 O1562 O 0.52204 0.63869 0.89254
 C1563 C 0.52971 0.63066 0.91091
 C1564 C 0.54816 0.64246 0.92296
 C1565 C 0.55592 0.66358 0.91547
 H1566 H 0.54800 0.67178 0.90115
 O1567 O 0.47802 0.38740 0.91867
 O1568 O 0.47799 0.36102 0.89242
 C1569 C 0.47029 0.36903 0.91077
 C1570 C 0.45181 0.35724 0.92280
 C1571 C 0.44398 0.33617 0.91524
 H1572 H 0.45187 0.32802 0.90089
 O1573 O 0.61246 0.58123 0.97832
 O1574 O 0.63886 0.60746 0.97831
 C1575 C 0.63085 0.58912 0.97062
 C1576 C 0.64267 0.57709 0.95217
 C1577 C 0.66378 0.58461 0.94439
 H1578 H 0.67194 0.59894 0.95230
 O1579 O 0.38751 0.41832 0.97817
 O1580 O 0.36113 0.39208 0.97816
 C1581 C 0.36914 0.41043 0.97045
 C1582 C 0.35733 0.42246 0.95196
 C1583 C 0.33627 0.41491 0.94411
 H1584 H 0.32811 0.40055 0.95200
 Cu1585 Cu 0.50005 0.40547 0.90585
 Cu1586 Cu 0.50005 0.37390 0.87425
 Cu1587 Cu 0.49999 0.59422 0.90595
 Cu1588 Cu 0.50003 0.62583 0.87433
 Cu1589 Cu 0.40570 0.49983 0.90583
 Cu1590 Cu 0.37412 0.49991 0.87421
 Cu1591 Cu 0.59441 0.49975 0.90594
 Cu1592 Cu 0.62599 0.49981 0.87432
 C1593 C 0.44120 0.44102 0.86782
 H1594 H 0.44691 0.44671 0.88424
 C1595 C 0.42585 0.42568 0.82590
 C1596 C 0.55890 0.55871 0.86800
 H1597 H 0.55320 0.55300 0.88442
 C1598 C 0.57423 0.57408 0.82606
 C1599 C 0.36763 0.44100 0.94129
 H1600 H 0.38401 0.44671 0.94704
 C1601 C 0.32579 0.42560 0.92582
 C1602 C 0.63238 0.55858 0.94147
 H1603 H 0.61596 0.55288 0.94716
 C1604 C 0.67429 0.57391 0.92614
 C1605 C 0.44114 0.36753 0.94133
 H1606 H 0.44687 0.38391 0.94706
 C1607 C 0.42571 0.32569 0.92592
 C1608 C 0.55888 0.63211 0.94146
 H1609 H 0.55320 0.61569 0.94714
 C1610 C 0.57417 0.67407 0.92618
 C1611 C 0.44120 0.55875 0.86789
 H1612 H 0.44686 0.55305 0.88432
 C1613 C 0.42594 0.57407 0.82590
 C1614 C 0.55892 0.44095 0.86787
 H1615 H 0.55319 0.44666 0.88427
 C1616 C 0.57436 0.42560 0.82599
 C1617 C 0.55888 0.36743 0.94141
 H1618 H 0.55316 0.38382 0.94714
 C1619 C 0.57428 0.32557 0.92599
 C1620 C 0.44110 0.63222 0.94137
 H1621 H 0.44683 0.61583 0.94712
 C1622 C 0.42566 0.67407 0.92591
 C1623 C 0.36775 0.55869 0.94139
 H1624 H 0.38419 0.55304 0.94706
 C1625 C 0.32576 0.57391 0.92613
 C1626 C 0.63241 0.44084 0.94140
 H1627 H 0.61604 0.44659 0.94715
 C1628 C 0.67422 0.42537 0.92592
 O1629 O 0.52199 0.41820 1.11291
 O1630 O 0.52198 0.39191 1.13929
 C1631 C 0.52969 0.41026 1.13130
 C1632 C 0.54817 0.42223 1.14313
 C1633 C 0.55602 0.41461 1.16419
 H1634 H 0.54814 0.40024 1.17232
 O1635 O 0.47788 0.58131 1.11275
 O1636 O 0.47789 0.60754 1.13916
 C1637 C 0.47018 0.58920 1.13114
 C1638 C 0.45172 0.57720 1.14297
 C1639 C 0.44388 0.58479 1.16403
 H1640 H 0.45176 0.59916 1.17216
 O1641 O 0.38748 0.52189 1.08189
 O1642 O 0.36109 0.52188 1.10814
 C1643 C 0.36910 0.52960 1.08979
 C1644 C 0.35730 0.54810 1.07778
 C1645 C 0.33627 0.55599 1.08538
 H1646 H 0.32813 0.54812 1.09977
 O1647 O 0.61236 0.47763 1.08192
 O1648 O 0.63875 0.47760 1.10818
 C1649 C 0.63075 0.46992 1.08982
 C1650 C 0.64258 0.45149 1.07777
 C1651 C 0.66369 0.44372 1.08529
 H1652 H 0.67184 0.45161 1.09964
 O1653 O 0.58152 0.38733 1.02232
 O1654 O 0.60775 0.36092 1.02239
 C1655 C 0.58940 0.36895 1.03006
 C1656 C 0.57736 0.35715 1.04854
 C1657 C 0.58488 0.33605 1.05635
 H1658 H 0.59922 0.32788 1.04844
 O1659 O 0.41842 0.61232 1.02231
 O1660 O 0.39217 0.63872 1.02230
 C1661 C 0.41052 0.63071 1.03000
 C1662 C 0.42255 0.64251 1.04847
 C1663 C 0.41502 0.66360 1.05629
 H1664 H 0.40067 0.67177 1.04840
 O1665 O 0.41841 0.47781 1.11277
 O1666 O 0.39215 0.47775 1.13916
 C1667 C 0.41051 0.47007 1.13115
 C1668 C 0.42253 0.45159 1.14297
 C1669 C 0.41495 0.44375 1.16405
 H1670 H 0.40059 0.45164 1.17219
 O1671 O 0.58143 0.52162 1.11281
 O1672 O 0.60766 0.52165 1.13924
 C1673 C 0.58930 0.52933 1.13120
 C1674 C 0.57724 0.54777 1.14301
 C1675 C 0.58471 0.55551 1.16415
 H1676 H 0.59902 0.54758 1.17235
 O1677 O 0.47799 0.38741 1.08188
 O1678 O 0.47792 0.36097 1.10811
 C1679 C 0.47027 0.36901 1.08974
 C1680 C 0.45184 0.35721 1.07766
 C1681 C 0.44410 0.33607 1.08513
 H1682 H 0.45202 0.32788 1.09946
 O1683 O 0.52194 0.61216 1.08183
 O1684 O 0.52200 0.63854 1.10809
 C1685 C 0.52967 0.63053 1.08972
 C1686 C 0.54813 0.64233 1.07768
 C1687 C 0.55588 0.66345 1.08517
 H1688 H 0.54795 0.67163 1.09948
 O1689 O 0.38756 0.41836 1.02222
 O1690 O 0.36118 0.39212 1.02227
 C1691 C 0.36919 0.41047 1.02995
 C1692 C 0.35737 0.42251 1.04840
 C1693 C 0.33626 0.41500 1.05617
 H1694 H 0.32809 0.40067 1.04826
 O1695 O 0.61244 0.58119 1.02237
 O1696 O 0.63883 0.60743 1.02241
 C1697 C 0.63081 0.58907 1.03010
 C1698 C 0.64262 0.57702 1.04857
 C1699 C 0.66372 0.58453 1.05636
 H1700 H 0.67189 0.59886 1.04845
 O1701 O 0.52190 0.58121 1.11273
 O1702 O 0.52196 0.60744 1.13914
 C1703 C 0.52962 0.58908 1.13112
 C1704 C 0.54804 0.57700 1.14296
 C1705 C 0.55577 0.58446 1.16411
 H1706 H 0.54785 0.59879 1.17227
 O1707 O 0.47795 0.41825 1.11284
 O1708 O 0.47788 0.39196 1.13922
 C1709 C 0.47021 0.41033 1.13121
 C1710 C 0.45173 0.42235 1.14301
 C1711 C 0.44388 0.41478 1.16408
 H1712 H 0.45175 0.40041 1.17225
 O1713 O 0.61240 0.52165 1.08197
 O1714 O 0.63878 0.52167 1.10824
 C1715 C 0.63077 0.52936 1.08987
 C1716 C 0.64260 0.54781 1.07782
 C1717 C 0.66370 0.55558 1.08535
 H1718 H 0.67186 0.54766 1.09970
 O1719 O 0.38754 0.47787 1.08182
 O1720 O 0.36113 0.47780 1.10805
 C1721 C 0.36916 0.47014 1.08969
 C1722 C 0.35735 0.45171 1.07763
 C1723 C 0.33624 0.44393 1.08513
 H1724 H 0.32807 0.45183 1.09946
 O1725 O 0.58154 0.61211 1.02235
 O1726 O 0.60779 0.63849 1.02239
 C1727 C 0.58943 0.63049 1.03006
 C1728 C 0.57737 0.64231 1.04849
 C1729 C 0.58486 0.66343 1.05624
 H1730 H 0.59919 0.67159 1.04833
 O1731 O 0.41847 0.38745 1.02223
 O1732 O 0.39224 0.36105 1.02228
 C1733 C 0.41059 0.36907 1.02995
 C1734 C 0.42265 0.35724 1.04841
 C1735 C 0.41518 0.33610 1.05615
 H1736 H 0.40086 0.32792 1.04821
 O1737 O 0.58153 0.47760 1.11291
 O1738 O 0.60777 0.47756 1.13932
 C1739 C 0.58943 0.46988 1.13131
 C1740 C 0.57741 0.45141 1.14313
 C1741 C 0.58500 0.44352 1.16419
 H1742 H 0.59938 0.45136 1.17233
 O1743 O 0.41838 0.52184 1.11281
 O1744 O 0.39213 0.52184 1.13921
 C1745 C 0.41048 0.52954 1.13120
 C1746 C 0.42249 0.54800 1.14301
 C1747 C 0.41492 0.55586 1.16407
 H1748 H 0.40055 0.54801 1.17223
 O1749 O 0.47791 0.61223 1.08183
 O1750 O 0.47793 0.63860 1.10809
 C1751 C 0.47023 0.63061 1.08973
 C1752 C 0.45178 0.64246 1.07769
 C1753 C 0.44398 0.66354 1.08524
 H1754 H 0.45189 0.67168 1.09960
 O1755 O 0.52201 0.38737 1.08194
 O1756 O 0.52200 0.36093 1.10817
 C1757 C 0.52970 0.36897 1.08982
 C1758 C 0.54816 0.35716 1.07778
 C1759 C 0.55595 0.33605 1.08532
 H1760 H 0.54806 0.32789 1.09968
 O1761 O 0.61245 0.41820 1.02231
 O1762 O 0.63883 0.39194 1.02238
 C1763 C 0.63082 0.41029 1.03005
 C1764 C 0.64262 0.42232 1.04852
 C1765 C 0.66373 0.41481 1.05631
 H1766 H 0.67191 0.40049 1.04840
 O1767 O 0.38751 0.58144 1.02235
 O1768 O 0.36111 0.60769 1.02233
 C1769 C 0.36913 0.58934 1.03005
 C1770 C 0.35732 0.57733 1.04854
 C1771 C 0.33628 0.58495 1.05642
 H1772 H 0.32816 0.59934 1.04854
 Cu1773 Cu 0.49999 0.40544 1.09477
 Cu1774 Cu 0.49994 0.37379 1.12635
 Cu1775 Cu 0.49990 0.59410 1.09465
 Cu1776 Cu 0.49995 0.62567 1.12626
 Cu1777 Cu 0.40563 0.40553 1.00019
 Cu1778 Cu 0.37404 0.37393 1.00023
 Cu1779 Cu 0.59438 0.40538 1.00028
 Cu1780 Cu 0.62595 0.37377 1.00034
 Cu1781 Cu 0.40562 0.59423 1.00031
 Cu1782 Cu 0.37401 0.62582 1.00025
 Cu1783 Cu 0.59437 0.59404 1.00033
 Cu1784 Cu 0.62597 0.62562 1.00035
 Cu1785 Cu 0.40558 0.49986 1.09470
 Cu1786 Cu 0.37398 0.49981 1.12629
 Cu1787 Cu 0.59430 0.49962 1.09477
 Cu1788 Cu 0.62589 0.49962 1.12639
 C1789 C 0.55884 0.44079 1.13285
 H1790 H 0.55309 0.44656 1.11647
 C1791 C 0.57432 0.42524 1.17468
 C1792 C 0.44105 0.55865 1.13271
 H1793 H 0.44679 0.55290 1.11633
 C1794 C 0.42560 0.57414 1.17454
 C1795 C 0.36757 0.55876 1.05920
 H1796 H 0.38393 0.55298 1.05344
 C1797 C 0.32580 0.57430 1.07472
 C1798 C 0.63230 0.44082 1.05923
 H1799 H 0.61588 0.44651 1.05352
 C1800 C 0.67422 0.42550 1.07458
 C1801 C 0.55884 0.36746 1.05924
 H1802 H 0.55314 0.38387 1.05352
 C1803 C 0.57420 0.32554 1.07462
 C1804 C 0.44108 0.63220 1.05915
 H1805 H 0.44679 0.61580 1.05343
 C1806 C 0.42573 0.67407 1.07456
 C1807 C 0.44108 0.44091 1.13270
 H1808 H 0.44682 0.44665 1.11631
 C1809 C 0.42560 0.42547 1.17456
 C1810 C 0.55875 0.55849 1.13266
 H1811 H 0.55309 0.55283 1.11622
 C1812 C 0.57398 0.57374 1.17466
 C1813 C 0.44114 0.36755 1.05914
 H1814 H 0.44680 0.38398 1.05348
 C1815 C 0.42589 0.32556 1.07439
 C1816 C 0.55885 0.63201 1.05919
 H1817 H 0.55317 0.61559 1.05351
 C1818 C 0.57413 0.67396 1.07446
 C1819 C 0.36767 0.44102 1.05911
 H1820 H 0.38409 0.44671 1.05342
 C1821 C 0.32574 0.42570 1.07441
 C1822 C 0.63231 0.55851 1.05928
 H1823 H 0.61590 0.55282 1.05357
 C1824 C 0.67422 0.57382 1.07463
 C1825 C 1.11601 1.11530 1.27136
 C1826 C 1.09858 1.09649 1.27503
 C1827 C 1.08996 1.08799 1.25545
 C1828 C 1.09963 1.09914 1.23414
 C1829 C 1.12531 1.09645 1.23621
 C1830 C 1.13392 1.10494 1.25577
 C1831 C 1.10387 1.13298 1.25679
 C1832 C 1.09526 1.12449 1.23723
 C1833 C 1.12536 1.12454 1.29234
 C1834 C 1.13320 1.13234 1.30943
 C1835 C 1.09046 1.09009 1.21299
 C1836 C 1.08313 1.08283 1.19545
 H1837 H 1.09346 1.09038 1.29154
 H1838 H 1.07746 1.07460 1.25519
 H1839 H 1.13582 1.08854 1.22345
 H1840 H 1.15179 1.10431 1.25976
 H1841 H 1.10216 1.15062 1.26145
 H1842 H 1.08618 1.13485 1.22513
 C1843 C 1.11432 0.61413 0.77177
 C1844 C 1.09688 0.59528 0.77515
 C1845 C 1.08851 0.58686 0.75543
 C1846 C 1.09843 0.59813 0.73429
 C1847 C 1.12408 0.59545 0.73666
 C1848 C 1.13244 0.60387 0.75636
 C1849 C 1.10234 0.63187 0.75715
 C1850 C 1.09398 0.62345 0.73745
 C1851 C 1.12342 0.62328 0.79290
 C1852 C 1.13111 0.63100 0.81008
 C1853 C 1.08953 0.58918 0.71300
 C1854 C 1.08241 0.58204 0.69533
 H1855 H 1.09157 0.58909 0.79157
 H1856 H 1.07604 0.57346 0.75495
 H1857 H 1.13475 0.58762 0.72398
 H1858 H 1.15027 0.60324 0.76056
 H1859 H 1.10055 0.64948 0.76187
 H1860 H 1.08504 0.63386 0.72529
 C1861 C 0.61502 1.11532 0.77168
 C1862 C 0.60042 1.09417 0.77496
 C1863 C 0.59189 1.08575 0.75532
 C1864 C 0.59880 1.09931 0.73433
 C1865 C 0.62469 1.09994 0.73497
 C1866 C 0.63322 1.10835 0.75460
 C1867 C 0.59989 1.13204 0.75891
 C1868 C 0.59136 1.12363 0.73927
 C1869 C 0.62429 1.12447 0.79274
 C1870 C 0.63210 1.13218 0.80988
 C1871 C 0.58972 1.09035 0.71311
 C1872 C 0.58247 1.08316 0.69551
 H1873 H 0.59708 1.08649 0.79127
 H1874 H 0.58123 1.07086 0.75479
 H1875 H 0.63539 1.09426 0.72122
 H1876 H 0.65122 1.10987 0.75766
 H1877 H 0.59618 1.14899 0.76478
 H1878 H 0.58034 1.13337 0.72833
 C1879 C 0.61409 0.61437 1.27230
 C1880 C 0.62391 0.62565 1.25114
 C1881 C 0.61558 0.61718 1.23146
 C1882 C 0.59824 0.59825 1.23485
 C1883 C 0.58008 0.60844 1.25027
 C1884 C 0.58842 0.61692 1.26996
 C1885 C 0.61867 0.58906 1.26917
 C1886 C 0.61033 0.58058 1.24947
 C1887 C 0.62317 0.62358 1.29340
 C1888 C 0.63086 0.63134 1.31057
 C1889 C 0.58936 0.58923 1.21358
 C1890 C 0.58226 0.58204 1.19593
 H1891 H 0.63633 0.63912 1.25157
 H1892 H 0.62086 0.62339 1.21503
 H1893 H 0.56224 0.60894 1.24608
 H1894 H 0.57773 0.62469 1.28266
 H1895 H 0.62765 0.57871 1.28135
 H1896 H 0.61216 0.56297 1.24478
 C1897 C 0.88459 0.88466 1.27152
 C1898 C 0.86899 0.90176 1.25986
 C1899 C 0.87757 0.91021 1.24025
 C1900 C 0.90092 0.90074 1.23422
 C1901 C 0.89788 0.87502 1.23399
 C1902 C 0.88930 0.86657 1.25359
 C1903 C 0.90711 0.89710 1.27458
 C1904 C 0.91570 0.90556 1.25496
 C1905 C 0.87527 0.87547 1.29254
 C1906 C 0.86744 0.86771 1.30966
 C1907 C 0.91005 0.90975 1.21304
 C1908 C 0.91735 0.91698 1.19546
 H1909 H 0.85264 0.90680 1.26643
 H1910 H 0.86857 0.92249 1.23003
 H1911 H 0.90211 0.86437 1.21969
 H1912 H 0.88619 0.84868 1.25608
 H1913 H 0.91556 0.89910 1.29072
 H1914 H 0.93150 0.91480 1.25430
 C1915 C 0.88450 0.38513 0.77141
 C1916 C 0.90772 0.37538 0.76529
 C1917 C 0.91633 0.38375 0.74566
 C1918 C 0.90089 0.40103 0.73406
 C1919 C 0.89646 0.41919 0.75201
 C1920 C 0.88784 0.41082 0.77165
 C1921 C 0.86961 0.38050 0.75072
 C1922 C 0.87822 0.38886 0.73109
 C1923 C 0.87515 0.37603 0.79246
 C1924 C 0.86732 0.36833 0.80960
 C1925 C 0.91006 0.40994 0.71285
 C1926 C 0.91736 0.41710 0.69525
 H1927 H 0.91661 0.36302 0.77550
 H1928 H 0.93261 0.37854 0.73904
 H1929 H 0.89980 0.43703 0.74952
 H1930 H 0.88380 0.42150 0.78599
 H1931 H 0.85369 0.37146 0.75142
 H1932 H 0.86967 0.38698 0.71499
 C1933 C 0.38450 0.88539 0.77164
 C1934 C 0.36699 0.89805 0.75732
 C1935 C 0.37551 0.90653 0.73771
 C1936 C 0.40070 0.90154 0.73432
 C1937 C 0.40277 0.87579 0.73626
 C1938 C 0.39426 0.86730 0.75587
 C1939 C 0.40379 0.90232 0.77518
 C1940 C 0.41231 0.91082 0.75555
 C1941 C 0.37525 0.87616 0.79268
 C1942 C 0.36746 0.86838 0.80980
 C1943 C 0.40977 0.91058 0.71312
 C1944 C 0.41702 0.91781 0.69553
 H1945 H 0.34945 0.90017 0.76217
 H1946 H 0.36526 0.91593 0.72575
 H1947 H 0.41028 0.86515 0.72337
 H1948 H 0.39447 0.84940 0.75978
 H1949 H 0.41019 0.90720 0.79165
 H1950 H 0.42601 0.92298 0.75520
 C1951 C 0.38425 0.38510 1.27187
 C1952 C 0.40745 0.37532 1.26576
 C1953 C 0.41608 0.38369 1.24613
 C1954 C 0.40066 0.40101 1.23455
 C1955 C 0.39626 0.41915 1.25251
 C1956 C 0.38762 0.41078 1.27215
 C1957 C 0.36935 0.38051 1.25118
 C1958 C 0.37798 0.38887 1.23156
 C1959 C 0.37488 0.37599 1.29292
 C1960 C 0.36703 0.36828 1.31005
 C1961 C 0.40985 0.40993 1.21335
 C1962 C 0.41717 0.41710 1.19576
 H1963 H 0.41633 0.36294 1.27595
 H1964 H 0.43235 0.37847 1.23951
 H1965 H 0.39962 0.43699 1.25004
 H1966 H 0.38359 0.42145 1.28649
 H1967 H 0.35342 0.37149 1.25186
 H1968 H 0.36943 0.38701 1.21545
 C1969 C 0.88366 1.11563 0.72873
 C1970 C 0.90940 1.11802 0.73053
 C1971 C 0.91810 1.10951 0.75008
 C1972 C 0.90021 1.09946 0.76590
 C1973 C 0.88772 1.08185 0.75158
 C1974 C 0.87901 1.09036 0.73204
 C1975 C 0.87435 1.12700 0.75006
 C1976 C 0.88304 1.11850 0.76960
 C1977 C 0.87422 1.12487 0.70777
 C1978 C 0.86632 1.13267 0.69069
 C1979 C 0.90948 1.09038 0.78702
 C1980 C 0.91688 1.08310 0.80453
 H1981 H 0.91986 1.12571 0.71760
 H1982 H 0.93602 1.10991 0.75389
 H1983 H 0.88587 1.06426 0.75637
 H1984 H 0.86972 1.08005 0.72008
 H1985 H 0.86201 1.14055 0.74985
 H1986 H 0.87814 1.12477 0.78611
 C1987 C 0.88513 0.61475 0.22786
 C1988 C 0.87612 0.62665 0.24903
 C1989 C 0.88457 0.61818 0.26868
 C1990 C 0.90121 0.59862 0.26525
 C1991 C 0.91938 0.60797 0.24931
 C1992 C 0.91092 0.61646 0.22964
 C1993 C 0.87979 0.58966 0.23149
 C1994 C 0.88824 0.58117 0.25116
 C1995 C 0.87593 0.62397 0.20679
 C1996 C 0.86818 0.63173 0.18964
 C1997 C 0.91021 0.58959 0.28648
 C1998 C 0.91742 0.58238 0.30410
 H1999 H 0.86416 0.64053 0.24863
 H2000 H 0.87985 0.62480 0.28510
 H2001 H 0.93730 0.60793 0.25312
 H2002 H 0.92159 0.62368 0.21661
 H2003 H 0.87022 0.57945 0.21967
 H2004 H 0.88592 0.56370 0.25617
 C2005 C 0.38520 1.11483 0.22793
 C2006 C 0.37569 1.12642 0.24905
 C2007 C 0.38415 1.11808 0.26875
 C2008 C 0.40130 1.09896 0.26541
 C2009 C 0.41939 1.10882 0.24969
 C2010 C 0.41092 1.11717 0.22998
 C2011 C 0.38045 1.08960 0.23141
 C2012 C 0.38892 1.08125 0.25112
 C2013 C 0.37600 1.12391 0.20680
 C2014 C 0.36825 1.13159 0.18961
 C2015 C 0.41031 1.09007 0.28670
 C2016 C 0.41749 1.08294 0.30436
 H2017 H 0.36339 1.14000 0.24858
 H2018 H 0.37910 1.12451 0.28515
 H2019 H 0.43727 1.10921 0.25369
 H2020 H 0.42155 1.12471 0.21708
 H2021 H 0.37126 1.07921 0.21944
 H2022 H 0.38698 1.06371 0.25605
 C2023 C 0.38550 0.61454 0.72825
 C2024 C 0.37598 0.62610 0.74939
 C2025 C 0.38440 0.61768 0.76908
 C2026 C 0.40151 0.59853 0.76571
 C2027 C 0.41964 0.60840 0.75004
 C2028 C 0.41122 0.61682 0.73034
 C2029 C 0.38069 0.58931 0.73165
 C2030 C 0.38911 0.58089 0.75135
 C2031 C 0.37634 0.62370 0.70713
 C2032 C 0.36861 0.63142 0.68996
 C2033 C 0.41048 0.58957 0.78698
 C2034 C 0.41764 0.58240 0.80464
 H2035 H 0.36371 0.63970 0.74894
 H2036 H 0.37934 0.62408 0.78549
 H2037 H 0.43752 0.60874 0.75406
 H2038 H 0.42188 0.62438 0.71748
 H2039 H 0.37149 0.57897 0.71965
 H2040 H 0.38713 0.56334 0.75623
 C2041 C 1.11565 0.88490 0.72850
 C2042 C 1.10666 0.90910 0.72626
 C2043 C 1.09813 0.91759 0.74588
 C2044 C 1.09944 0.90104 0.76580
 C2045 C 1.12443 0.89437 0.76737
 C2046 C 1.13295 0.88589 0.74777
 C2047 C 1.09582 0.87120 0.73799
 C2048 C 1.08730 0.87968 0.75760
 C2049 C 1.12492 0.87568 0.70747
 C2050 C 1.13272 0.86792 0.69035
 C2051 C 1.09037 0.91007 0.78698
 C2052 C 1.08310 0.91731 0.80456
 H2053 H 1.10696 0.91871 0.71065
 H2054 H 1.09113 0.93448 0.74708
 H2055 H 1.13455 0.89616 0.78255
 H2056 H 1.15036 0.88042 0.74616
 H2057 H 1.08905 0.85616 0.73000
 H2058 H 1.07323 0.87192 0.76641
 C2059 C 1.11485 0.38502 0.22787
 C2060 C 1.10593 0.40925 0.22571
 C2061 C 1.09748 0.41773 0.24537
 C2062 C 1.09880 0.40113 0.26525
 C2063 C 1.12377 0.39438 0.26674
 C2064 C 1.13220 0.38591 0.24710
 C2065 C 1.09499 0.37136 0.23739
 C2066 C 1.08656 0.37983 0.25704
 C2067 C 1.12402 0.37581 0.20681
 C2068 C 1.13177 0.36804 0.18966
 C2069 C 1.08982 0.41015 0.28648
 C2070 C 1.08263 0.41736 0.30410
 H2071 H 1.10621 0.41890 0.21012
 H2072 H 1.09054 0.43463 0.24663
 H2073 H 1.13393 0.39611 0.28190
 H2074 H 1.14959 0.38039 0.24543
 H2075 H 1.08815 0.35637 0.22939
 H2076 H 1.07249 0.37209 0.26588
 C2077 C 0.61445 0.88563 0.22833
 C2078 C 0.60544 0.90984 0.22617
 C2079 C 0.59700 0.91830 0.24583
 C2080 C 0.59840 0.90172 0.26572
 C2081 C 0.62339 0.89505 0.26718
 C2082 C 0.63182 0.88659 0.24753
 C2083 C 0.59465 0.87192 0.23789
 C2084 C 0.58622 0.88038 0.25755
 C2085 C 0.62362 0.87643 0.20726
 C2086 C 0.63135 0.86867 0.19012
 C2087 C 0.58942 0.91072 0.28696
 C2088 C 0.58224 0.91791 0.30458
 H2089 H 0.60567 0.91947 0.21057
 H2090 H 0.59000 0.93519 0.24709
 H2091 H 0.63358 0.89682 0.28232
 H2092 H 0.64923 0.88113 0.24584
 H2093 H 0.58785 0.85690 0.22991
 H2094 H 0.57218 0.87260 0.26641
 C2095 C 0.61553 0.38535 0.72860
 C2096 C 0.60648 0.40954 0.72648
 C2097 C 0.59789 0.41790 0.74613
 C2098 C 0.59920 0.40123 0.76596
 C2099 C 0.62420 0.39462 0.76755
 C2100 C 0.63278 0.38627 0.74792
 C2101 C 0.59571 0.37155 0.73797
 C2102 C 0.58712 0.37990 0.75761
 C2103 C 0.62485 0.37626 0.70754
 C2104 C 0.63266 0.36857 0.69040
 C2105 C 0.59006 0.41013 0.78717
 C2106 C 0.58277 0.41727 0.80478
 H2107 H 0.60679 0.41925 0.71093
 H2108 H 0.59084 0.43476 0.74741
 H2109 H 0.63428 0.39635 0.78276
 H2110 H 0.65021 0.38086 0.74632
 H2111 H 0.58899 0.35655 0.72989
 H2112 H 0.57305 0.37205 0.76635
 C2113 C 1.27186 1.11427 1.11488
 C2114 C 1.26601 1.12342 1.09133
 C2115 C 1.24633 1.11508 1.08284
 C2116 C 1.23443 1.09842 1.09873
 C2117 C 1.23149 1.11129 1.12101
 C2118 C 1.25116 1.11962 1.12950
 C2119 C 1.27179 1.08849 1.11231
 C2120 C 1.25210 1.08015 1.10381
 C2121 C 1.29295 1.12335 1.12411
 C2122 C 1.31011 1.13102 1.13187
 C2123 C 1.21318 1.08954 1.08969
 C2124 C 1.19554 1.08242 1.08249
 H2125 H 1.27642 1.13537 1.08213
 H2126 H 1.23987 1.11989 1.06636
 H2127 H 1.21537 1.11365 1.12940
 H2128 H 1.25188 1.12911 1.14516
 H2129 H 1.28595 1.07774 1.11676
 H2130 H 1.24940 1.06226 1.10098
 C2131 C 1.27175 0.61444 0.61429
 C2132 C 1.25697 0.60284 0.63214
 C2133 C 1.23731 0.59440 0.62372
 C2134 C 1.23436 0.59838 0.59828
 C2135 C 1.25553 0.58819 0.58737
 C2136 C 1.27521 0.59664 0.59579
 C2137 C 1.25649 0.63242 0.60354
 C2138 C 1.23683 0.62398 0.59512
 C2139 C 1.29283 0.62363 0.62345
 C2140 C 1.30997 0.63138 0.63119
 C2141 C 1.21312 0.58939 0.58931
 C2142 C 1.19549 0.58222 0.58214
 H2143 H 1.26155 0.60137 0.64983
 H2144 H 1.22505 0.58570 0.63420
 H2145 H 1.25511 0.57546 0.57420
 H2146 H 1.29164 0.59115 0.58984
 H2147 H 1.26075 0.65021 0.60261
 H2148 H 1.22426 0.63454 0.58698
 C2149 C 0.77101 1.11582 0.61629
 C2150 C 0.75143 1.11550 0.63326
 C2151 C 0.73188 1.10704 0.62461
 C2152 C 0.73380 1.09973 0.59982
 C2153 C 0.75351 1.08291 0.59931
 C2154 C 0.77308 1.09137 0.60796
 C2155 C 0.76204 1.12913 0.59592
 C2156 C 0.74249 1.12067 0.58726
 C2157 C 0.79199 1.12502 0.62568
 C2158 C 0.80908 1.13277 0.63354
 C2159 C 0.71267 1.09070 0.59060
 C2160 C 0.69514 1.08346 0.58323
 H2161 H 0.75281 1.12139 0.65056
 H2162 H 0.71652 1.10569 0.63450
 H2163 H 0.75222 1.06587 0.59272
 H2164 H 0.78854 1.08158 0.60880
 H2165 H 0.77033 1.14389 0.58890
 H2166 H 0.73403 1.12818 0.57283
 C2167 C 0.77172 0.61437 1.11512
 C2168 C 0.76960 0.61670 1.08939
 C2169 C 0.74993 0.60825 1.08097
 C2170 C 0.73432 0.59831 1.09911
 C2171 C 0.73091 0.61742 1.11626
 C2172 C 0.75056 0.62586 1.12467
 C2173 C 0.76840 0.58912 1.11991
 C2174 C 0.74873 0.58067 1.11149
 C2175 C 0.79280 0.62355 1.12428
 C2176 C 0.80996 0.63128 1.13200
 C2177 C 0.71308 0.58932 1.09015
 C2178 C 0.69545 0.58214 1.08297
 H2179 H 0.78242 0.62430 1.07872
 H2180 H 0.74590 0.60862 1.06309
 H2181 H 0.71449 0.62377 1.12135
 H2182 H 0.75098 0.63943 1.13697
 H2183 H 0.78044 0.57879 1.12909
 H2184 H 0.74392 0.56311 1.11346
 C2185 C 1.27165 0.88479 0.88499
 C2186 C 1.25527 0.86661 0.89350
 C2187 C 1.23566 0.87513 0.90198
 C2188 C 1.23435 0.90098 0.90111
 C2189 C 1.23843 0.90711 0.87625
 C2190 C 1.25804 0.89860 0.86778
 C2191 C 1.27511 0.90068 0.90516
 C2192 C 1.25549 0.90920 0.91364
 C2193 C 1.29268 0.87553 0.87577
 C2194 C 1.30980 0.86775 0.86799
 C2195 C 1.21316 0.91005 0.91014
 C2196 C 1.19558 0.91730 0.91736
 H2197 H 1.25877 0.84863 0.89294
 H2198 H 1.22237 0.86444 0.90867
 H2199 H 1.22695 0.91726 0.86620
 H2200 H 1.26335 0.90145 0.85046
 H2201 H 1.29152 0.90487 0.91215
 H2202 H 1.25508 0.92069 0.92790
 C2203 C 1.27160 0.38511 0.38423
 C2204 C 1.27027 0.41098 0.38366
 C2205 C 1.25064 0.41938 0.39221
 C2206 C 1.23427 0.40108 0.40050
 C2207 C 1.24787 0.38709 0.41757
 C2208 C 1.26750 0.37869 0.40902
 C2209 C 1.25048 0.37703 0.37161
 C2210 C 1.23086 0.38542 0.38015
 C2211 C 1.29265 0.37597 0.37495
 C2212 C 1.30979 0.36825 0.36715
 C2213 C 1.21306 0.41004 0.40961
 C2214 C 1.19547 0.41722 0.41688
 H2215 H 1.28358 0.42174 0.37711
 H2216 H 1.24712 0.43734 0.39300
 H2217 H 1.24255 0.38406 0.43486
 H2218 H 1.27901 0.36847 0.41897
 H2219 H 1.25089 0.36570 0.35721
 H2220 H 1.21447 0.38128 0.37308
 C2221 C 0.77115 0.88521 0.38450
 C2222 C 0.75487 0.86700 0.39312
 C2223 C 0.73528 0.87546 0.40169
 C2224 C 0.73388 0.90131 0.40080
 C2225 C 0.73782 0.90742 0.37592
 C2226 C 0.75741 0.89896 0.36735
 C2227 C 0.77466 0.90113 0.40464
 C2228 C 0.75506 0.90960 0.41321
 C2229 C 0.79216 0.87601 0.37519
 C2230 C 0.80926 0.86825 0.36737
 C2231 C 0.71271 0.91033 0.40993
 C2232 C 0.69515 0.91756 0.41722
 H2233 H 0.75842 0.84903 0.39256
 H2234 H 0.72205 0.86473 0.40847
 H2235 H 0.72625 0.91753 0.36591
 H2236 H 0.76262 0.90182 0.35000
 H2237 H 0.79109 0.90538 0.41154
 H2238 H 0.75469 0.92111 0.42747
 C2239 C 0.77147 0.38468 0.88488
 C2240 C 0.77022 0.41056 0.88434
 C2241 C 0.75060 0.41901 0.89288
 C2242 C 0.73416 0.40075 0.90113
 C2243 C 0.74770 0.38669 0.91820
 C2244 C 0.76732 0.37824 0.90965
 C2245 C 0.75034 0.37668 0.87222
 C2246 C 0.73073 0.38513 0.88075
 C2247 C 0.79250 0.37550 0.87560
 C2248 C 0.80963 0.36775 0.86780
 C2249 C 0.71298 0.40975 0.91023
 C2250 C 0.69540 0.41697 0.91750
 H2251 H 0.78357 0.42129 0.87783
 H2252 H 0.74714 0.43698 0.89369
 H2253 H 0.74236 0.38365 0.93547
 H2254 H 0.77878 0.36796 0.91960
 H2255 H 0.75073 0.36538 0.85780
 H2256 H 0.71434 0.38105 0.87365
 C2257 C 0.72837 0.88529 1.11457
 C2258 C 0.72995 0.88409 1.08873
 C2259 C 0.74964 0.89248 1.08030
 C2260 C 0.76581 0.90125 1.09855
 C2261 C 0.76912 0.88132 1.11478
 C2262 C 0.74944 0.87293 1.12320
 C2263 C 0.73234 0.91022 1.12039
 C2264 C 0.75203 0.91862 1.11196
 C2265 C 0.70726 0.87617 1.12374
 C2266 C 0.69009 0.86848 1.13147
 C2267 C 0.78708 0.91019 1.08958
 C2268 C 0.80472 0.91735 1.08242
 H2269 H 0.71677 0.87725 1.07799
 H2270 H 0.75333 0.89284 1.06234
 H2271 H 0.78548 0.87439 1.11927
 H2272 H 0.74895 0.85882 1.13490
 H2273 H 0.72071 0.92039 1.13024
 H2274 H 0.75727 0.93597 1.11459
 C2275 C 0.72852 0.38490 0.61512
 C2276 C 0.72729 0.39050 0.58983
 C2277 C 0.74692 0.39893 0.58130
 C2278 C 0.76585 0.40093 0.59889
 C2279 C 0.76825 0.37717 0.60894
 C2280 C 0.74864 0.36874 0.61747
 C2281 C 0.73618 0.40686 0.62651
 C2282 C 0.75580 0.41530 0.61798
 C2283 C 0.70747 0.37573 0.62439
 C2284 C 0.69034 0.36800 0.63219
 C2285 C 0.78705 0.40992 0.58981
 C2286 C 0.80464 0.41712 0.58255
 H2287 H 0.71232 0.38806 0.57954
 H2288 H 0.74878 0.40372 0.56370
 H2289 H 0.78398 0.36778 0.60932
 H2290 H 0.74757 0.35213 0.62515
 H2291 H 0.72699 0.41508 0.64007
 H2292 H 0.76343 0.43074 0.62422
 C2293 C 0.22848 0.88474 0.61523
 C2294 C 0.24724 0.88717 0.63294
 C2295 C 0.26681 0.89579 0.62449
 C2296 C 0.26572 0.90114 0.59915
 C2297 C 0.24541 0.91701 0.59647
 C2298 C 0.22582 0.90839 0.60493
 C2299 C 0.23887 0.87034 0.59636
 C2300 C 0.25845 0.87896 0.58791
 C2301 C 0.20748 0.87538 0.62442
 C2302 C 0.19039 0.86753 0.63217
 C2303 C 0.28687 0.91031 0.59013
 C2304 C 0.30443 0.91763 0.58290
 H2305 H 0.24531 0.88255 0.65058
 H2306 H 0.28164 0.89854 0.63489
 H2307 H 0.24633 0.93355 0.58863
 H2308 H 0.20996 0.91754 0.60433
 H2309 H 0.23149 0.85476 0.59018
 H2310 H 0.26784 0.87076 0.57449
 C2311 C 0.22821 0.38534 1.11505
 C2312 C 0.22706 0.39097 1.08977
 C2313 C 0.24674 0.39936 1.08130
 C2314 C 0.26562 0.40129 1.09895
 C2315 C 0.26793 0.37751 1.10897
 C2316 C 0.24828 0.36912 1.11743
 C2317 C 0.23590 0.40727 1.12649
 C2318 C 0.25557 0.41566 1.11802
 C2319 C 0.20712 0.37621 1.12426
 C2320 C 0.18996 0.36851 1.13201
 C2321 C 0.28687 0.41023 1.08993
 C2322 C 0.30450 0.41738 1.08274
 H2323 H 0.21211 0.38859 1.07944
 H2324 H 0.24865 0.40417 1.06371
 H2325 H 0.28364 0.36807 1.10938
 H2326 H 0.24714 0.35251 1.12509
 H2327 H 0.22669 0.41549 1.14003
 H2328 H 0.26322 0.43107 1.12431
 C2329 C 0.72852 1.11463 0.88461
 C2330 C 0.74449 1.10518 0.86653
 C2331 C 0.76412 1.09678 0.87507
 C2332 C 0.76588 1.09865 0.90086
 C2333 C 0.74471 1.08676 0.90994
 C2334 C 0.72507 1.09517 0.90139
 C2335 C 0.74258 1.13217 0.89749
 C2336 C 0.76222 1.12377 0.90603
 C2337 C 0.70747 1.12378 0.87533
 C2338 C 0.69033 1.13151 0.86754
 C2339 C 0.78709 1.08970 0.90996
 C2340 C 0.80470 1.08253 0.91722
 H2341 H 0.74070 1.10508 0.84859
 H2342 H 0.77715 1.08948 0.86445
 H2343 H 0.74513 1.07297 0.92201
 H2344 H 0.70864 1.08858 0.90613
 H2345 H 0.73755 1.14964 0.89971
 H2346 H 0.77400 1.13405 0.91557
 C2347 C 0.72797 0.61444 0.38580
 C2348 C 0.72999 0.61612 0.41159
 C2349 C 0.74972 0.60765 0.41987
 C2350 C 0.76548 0.59833 0.40154
 C2351 C 0.76876 0.61791 0.38487
 C2352 C 0.74904 0.62637 0.37660
 C2353 C 0.73156 0.58936 0.38041
 C2354 C 0.75129 0.58088 0.38868
 C2355 C 0.70683 0.62364 0.37679
 C2356 C 0.68964 0.63139 0.36915
 C2357 C 0.78679 0.58932 0.41035
 C2358 C 0.80447 0.58214 0.41741
 H2359 H 0.71706 0.62332 0.42239
 H2360 H 0.75369 0.60759 0.43776
 H2361 H 0.78512 0.62455 0.38000
 H2362 H 0.74853 0.64026 0.36464
 H2363 H 0.71966 0.57915 0.37094
 H2364 H 0.75629 0.56342 0.38630
 C2365 C 0.22851 1.11557 0.38386
 C2366 C 0.24452 1.10602 0.36587
 C2367 C 0.26410 1.09760 0.37451
 C2368 C 0.26578 1.09956 0.40031
 C2369 C 0.24455 1.08775 0.40935
 C2370 C 0.22495 1.09618 0.40070
 C2371 C 0.24257 1.13312 0.39672
 C2372 C 0.26215 1.12470 0.40537
 C2373 C 0.20750 1.12472 0.37447
 C2374 C 0.19039 1.13245 0.36660
 C2375 C 0.28694 1.09058 0.40951
 C2376 C 0.30450 1.08338 0.41686
 H2377 H 0.24079 1.10586 0.34792
 H2378 H 0.27715 1.09024 0.36397
 H2379 H 0.24489 1.07400 0.42147
 H2380 H 0.20850 1.08964 0.40541
 H2381 H 0.23757 1.15061 0.39887
 H2382 H 0.27393 1.13499 0.41492
 C2383 C 0.22807 0.61415 0.88569
 C2384 C 0.24625 0.61032 0.86764
 C2385 C 0.26595 0.60194 0.87606
 C2386 C 0.26554 0.59822 0.90171
 C2387 C 0.24510 0.58286 0.90596
 C2388 C 0.22539 0.59124 0.89753
 C2389 C 0.23920 0.62954 0.90330
 C2390 C 0.25890 0.62116 0.91172
 C2391 C 0.20695 0.62326 0.87653
 C2392 C 0.18978 0.63097 0.86880
 C2393 C 0.28682 0.58930 0.91067
 C2394 C 0.30448 0.58218 0.91783
 H2395 H 0.24387 0.61385 0.84981
 H2396 H 0.28043 0.59831 0.86544
 H2397 H 0.24603 0.56683 0.91480
 H2398 H 0.20943 0.58240 0.89916
 H2399 H 0.23222 0.64560 0.90870
 H2400 H 0.26880 0.63004 0.92433
 C2401 C 1.11445 1.27168 1.11497
 C2402 C 1.09991 1.25844 1.13185
 C2403 C 1.09154 1.23879 1.12335
 C2404 C 1.09852 1.23430 1.09880
 C2405 C 1.12440 1.23538 1.09888
 C2406 C 1.13277 1.25502 1.10738
 C2407 C 1.09933 1.27500 1.09418
 C2408 C 1.09095 1.25533 1.08567
 C2409 C 1.12356 1.29275 1.12421
 C2410 C 1.13126 1.30989 1.13199
 C2411 C 1.08961 1.21307 1.08975
 C2412 C 1.08247 1.19545 1.08254
 H2413 H 1.09647 1.26402 1.14897
 H2414 H 1.08093 1.22754 1.13319
 H2415 H 1.13521 1.22190 1.09278
 H2416 H 1.15075 1.25837 1.10856
 H2417 H 1.09553 1.29134 1.08679
 H2418 H 1.07998 1.25482 1.07099
 C2419 C 1.11566 0.77116 0.61470
 C2420 C 1.10106 0.75806 0.63165
 C2421 C 1.09249 0.73847 0.62322
 C2422 C 1.09934 0.73388 0.59865
 C2423 C 1.12523 0.73474 0.59863
 C2424 C 1.13381 0.75433 0.60707
 C2425 C 1.10049 0.77457 0.59396
 C2426 C 1.09190 0.75496 0.58551
 C2427 C 1.12497 0.79217 0.62389
 C2428 C 1.13278 0.80928 0.63164
 C2429 C 1.09021 0.71271 0.58965
 C2430 C 1.08291 0.69515 0.58244
 H2431 H 1.09774 0.76370 0.64878
 H2432 H 1.08182 0.72733 0.63311
 H2433 H 1.13590 0.72115 0.59251
 H2434 H 1.15182 0.75752 0.60817
 H2435 H 1.09681 0.79093 0.58656
 H2436 H 1.08088 0.75453 0.57088
 C2437 C 0.61533 1.27190 0.61477
 C2438 C 0.60077 1.25882 0.63176
 C2439 C 0.59218 1.23922 0.62335
 C2440 C 0.59898 1.23462 0.59877
 C2441 C 0.62487 1.23547 0.59870
 C2442 C 0.63347 1.25506 0.60711
 C2443 C 0.60012 1.27530 0.59405
 C2444 C 0.59152 1.25569 0.58564
 C2445 C 0.62467 1.29291 0.62393
 C2446 C 0.63252 1.31000 0.63166
 C2447 C 0.58984 1.21345 0.58981
 C2448 C 0.58255 1.19587 0.58262
 H2449 H 0.59748 1.26446 0.64888
 H2450 H 0.58153 1.22808 0.63327
 H2451 H 0.63553 1.22188 0.59257
 H2452 H 0.65148 1.25825 0.60818
 H2453 H 0.59643 1.29166 0.58665
 H2454 H 0.58046 1.25525 0.57102
 C2455 C 0.61451 0.77157 1.11478
 C2456 C 0.59066 0.77386 1.10490
 C2457 C 0.58225 0.75416 1.09651
 C2458 C 0.59852 0.73413 1.09882
 C2459 C 0.60431 0.73302 1.12407
 C2460 C 0.61271 0.75270 1.13245
 C2461 C 0.62878 0.76153 1.09562
 C2462 C 0.62037 0.74184 1.08724
 C2463 C 0.62365 0.79268 1.12390
 C2464 C 0.63137 0.80985 1.13159
 C2465 C 0.58957 0.71286 1.08989
 C2466 C 0.58242 0.69521 1.08275
 H2467 H 0.58121 0.78956 1.10453
 H2468 H 0.56560 0.75298 1.08895
 H2469 H 0.60199 0.71809 1.13445
 H2470 H 0.61759 0.75462 1.15001
 H2471 H 0.64412 0.76921 1.08920
 H2472 H 0.62851 0.73266 1.07363
 C2473 C 0.88455 1.27148 0.88518
 C2474 C 0.90681 1.27457 0.89808
 C2475 C 0.91540 1.25494 0.90648
 C2476 C 0.90089 1.23416 0.90114
 C2477 C 0.89833 1.23420 0.87535
 C2478 C 0.88974 1.25382 0.86696
 C2479 C 0.86873 1.25951 0.90185
 C2480 C 0.87732 1.23989 0.91024
 C2481 C 0.87522 1.29252 0.87604
 C2482 C 0.86738 1.30964 0.86832
 C2483 C 0.91003 1.21295 0.91009
 C2484 C 0.91732 1.19536 0.91726
 H2485 H 0.91508 1.29075 0.90042
 H2486 H 0.93104 1.25429 0.91602
 H2487 H 0.90288 1.22007 0.86462
 H2488 H 0.88694 1.25648 0.84904
 H2489 H 0.85224 1.26589 0.90665
 H2490 H 0.86819 1.22946 0.92224
 C2491 C 0.88489 0.77132 0.38437
 C2492 C 0.89366 0.75510 0.36618
 C2493 C 0.90215 0.73548 0.37467
 C2494 C 0.90103 0.73399 0.40052
 C2495 C 0.87611 0.73792 0.40640
 C2496 C 0.86762 0.75754 0.39791
 C2497 C 0.90486 0.77477 0.40051
 C2498 C 0.91336 0.75514 0.40901
 C2499 C 0.87566 0.79237 0.37513
 C2500 C 0.86790 0.80950 0.36735
 C2501 C 0.91008 0.71279 0.40957
 C2502 C 0.91731 0.69520 0.41680
 H2503 H 0.89327 0.75872 0.34821
 H2504 H 0.90902 0.72229 0.36397
 H2505 H 0.86602 0.72631 0.41638
 H2506 H 0.85026 0.76274 0.40061
 H2507 H 0.91173 0.79118 0.40488
 H2508 H 0.92750 0.75472 0.42066
 C2509 C 0.38464 1.27206 0.38482
 C2510 C 0.39623 1.25725 0.36700
 C2511 C 0.40477 1.23765 0.37548
 C2512 C 0.40087 1.23475 0.40094
 C2513 C 0.37528 1.23717 0.40413
 C2514 C 0.36675 1.25678 0.39566
 C2515 C 0.40249 1.27561 0.40327
 C2516 C 0.41103 1.25599 0.41175
 C2517 C 0.37536 1.29309 0.37560
 C2518 C 0.36756 1.31019 0.36782
 C2519 C 0.40996 1.21356 0.40996
 C2520 C 0.41721 1.19597 0.41719
 H2521 H 0.39764 1.26178 0.34929
 H2522 H 0.41348 1.22538 0.36502
 H2523 H 0.36478 1.22459 0.41235
 H2524 H 0.34894 1.26099 0.39662
 H2525 H 0.40794 1.29208 0.40915
 H2526 H 0.42380 1.25564 0.42490
 C2527 C 0.38461 0.77140 0.88533
 C2528 C 0.39687 0.75701 0.86762
 C2529 C 0.40543 0.73738 0.87604
 C2530 C 0.40089 0.73407 0.90135
 C2531 C 0.37519 0.73612 0.90388
 C2532 C 0.36664 0.75574 0.89546
 C2533 C 0.40192 0.77491 0.90430
 C2534 C 0.41048 0.75527 0.91273
 C2535 C 0.37531 0.79245 0.87617
 C2536 C 0.36750 0.80958 0.86845
 C2537 C 0.41000 0.71286 0.91032
 C2538 C 0.41726 0.69527 0.91752
 H2539 H 0.39869 0.76181 0.85002
 H2540 H 0.41457 0.72538 0.86565
 H2541 H 0.36464 0.72329 0.91163
 H2542 H 0.34876 0.75972 0.89600
 H2543 H 0.40700 0.79136 0.91056
 H2544 H 0.42290 0.75489 0.92621
 C2545 C 1.11443 0.72801 0.88562
 C2546 C 1.10976 0.72723 0.91111
 C2547 C 1.10143 0.74695 0.91954
 C2548 C 1.09858 0.76549 0.90164
 C2549 C 1.08365 0.75493 0.88329
 C2550 C 1.09198 0.73522 0.87487
 C2551 C 1.13026 0.74823 0.88228
 C2552 C 1.12194 0.76793 0.89070
 C2553 C 1.12349 0.70688 0.87646
 C2554 C 1.13116 0.68970 0.86874
 C2555 C 1.08971 0.78678 0.91060
 C2556 C 1.08261 0.80445 0.91775
 H2557 H 1.11274 0.71250 0.92161
 H2558 H 1.09726 0.74912 0.93725
 H2559 H 1.06791 0.76228 0.87744
 H2560 H 1.08338 0.72568 0.86180
 H2561 H 1.14659 0.74717 0.87404
 H2562 H 1.13114 0.78374 0.88967
 C2563 C 1.11556 0.22860 0.38414
 C2564 C 1.10482 0.22587 0.40758
 C2565 C 1.09629 0.24545 0.41613
 C2566 C 1.09934 0.26583 0.40040
 C2567 C 1.08850 0.25873 0.37796
 C2568 C 1.09703 0.23915 0.36941
 C2569 C 1.13329 0.24726 0.38701
 C2570 C 1.12477 0.26683 0.39555
 C2571 C 1.12483 0.20761 0.37486
 C2572 C 1.13264 0.19052 0.36706
 C2573 C 1.09026 0.28698 0.40950
 C2574 C 1.08299 0.30453 0.41678
 H2575 H 1.10398 0.20997 0.41665
 H2576 H 1.08814 0.24633 0.43253
 H2577 H 1.07528 0.26822 0.36953
 H2578 H 1.09111 0.23188 0.35367
 H2579 H 1.15099 0.24528 0.38272
 H2580 H 1.13517 0.28160 0.39857
 C2581 C 0.61412 0.72840 0.38596
 C2582 C 0.61079 0.74674 0.36794
 C2583 C 0.60240 0.76644 0.37630
 C2584 C 0.59816 0.76589 0.40186
 C2585 C 0.62085 0.75901 0.41231
 C2586 C 0.62924 0.73930 0.40395
 C2587 C 0.59096 0.72583 0.39731
 C2588 C 0.58257 0.74555 0.40567
 C2589 C 0.62324 0.70728 0.37686
 C2590 C 0.63094 0.69009 0.36918
 C2591 C 0.58923 0.78718 0.41076
 C2592 C 0.58210 0.80485 0.41787
 H2593 H 0.61466 0.74445 0.35017
 H2594 H 0.59909 0.78102 0.36569
 H2595 H 0.62956 0.76875 0.42516
 H2596 H 0.64514 0.73216 0.40964
 H2597 H 0.58196 0.70993 0.39866
 H2598 H 0.56638 0.74655 0.41419
 C2599 C 0.61478 0.22831 0.88486
 C2600 C 0.61138 0.24682 0.86704
 C2601 C 0.60297 0.26643 0.87561
 C2602 C 0.59879 0.26561 0.90118
 C2603 C 0.62152 0.25867 0.91151
 C2604 C 0.62993 0.23906 0.90293
 C2605 C 0.59166 0.22558 0.89623
 C2606 C 0.58324 0.24521 0.90482
 C2607 C 0.62393 0.20729 0.87554
 C2608 C 0.63165 0.19018 0.86770
 C2609 C 0.58983 0.28680 0.91031
 C2610 C 0.58265 0.30438 0.91759
 H2611 H 0.61522 0.24472 0.84924
 H2612 H 0.59962 0.28111 0.86516
 H2613 H 0.63023 0.26829 0.92444
 H2614 H 0.64584 0.23189 0.90851
 H2615 H 0.58269 0.20966 0.89744
 H2616 H 0.56707 0.24609 0.91338
 C2617 C 0.88558 0.72813 1.11496
 C2618 C 0.87090 0.73858 1.09632
 C2619 C 0.87934 0.75823 1.08785
 C2620 C 0.90163 0.76552 1.09886
 C2621 C 0.91754 0.74527 1.09590
 C2622 C 0.90909 0.72561 1.10436
 C2623 C 0.88818 0.74680 1.13273
 C2624 C 0.89661 0.76644 1.12427
 C2625 C 0.87640 0.70706 1.12416
 C2626 C 0.86866 0.68992 1.13192
 C2627 C 0.91062 0.78675 1.08985
 C2628 C 0.91781 0.80437 1.08264
 H2629 H 0.85526 0.73118 1.09029
 H2630 H 0.87093 0.76767 1.07457
 H2631 H 0.93397 0.74629 1.08786
 H2632 H 0.91829 0.70978 1.10358
 H2633 H 0.88379 0.74476 1.15041
 H2634 H 0.89945 0.78123 1.13470
 C2635 C 0.88409 0.22880 0.61574
 C2636 C 0.86735 0.24858 0.61608
 C2637 C 0.87596 0.26809 0.60750
 C2638 C 0.90048 0.26595 0.59941
 C2639 C 0.90027 0.24638 0.58243
 C2640 C 0.89165 0.22684 0.59102
 C2641 C 0.90493 0.23741 0.62849
 C2642 C 0.91355 0.25694 0.61991
 C2643 C 0.87473 0.20786 0.62507
 C2644 C 0.86687 0.19080 0.63292
 C2645 C 0.90966 0.28705 0.59026
 C2646 C 0.91700 0.30455 0.58293
 H2647 H 0.85023 0.24735 0.62249
 H2648 H 0.86621 0.28358 0.60656
 H2649 H 0.90636 0.24774 0.56520
 H2650 H 0.89035 0.21147 0.58114
 H2651 H 0.91228 0.22891 0.64298
 H2652 H 0.92828 0.26517 0.62704
 C2653 C 0.38534 0.72851 0.61449
 C2654 C 0.40782 0.73559 0.62526
 C2655 C 0.41622 0.75530 0.61689
 C2656 C 0.40132 0.76600 0.59857
 C2657 C 0.37797 0.76848 0.60951
 C2658 C 0.36958 0.74878 0.61788
 C2659 C 0.39000 0.72782 0.58900
 C2660 C 0.39841 0.74754 0.58062
 C2661 C 0.37621 0.70738 0.62360
 C2662 C 0.36852 0.69019 0.63129
 C2663 C 0.41026 0.78729 0.58965
 C2664 C 0.41740 0.80495 0.58252
 H2665 H 0.41639 0.72596 0.63830
 H2666 H 0.43198 0.76256 0.62275
 H2667 H 0.36883 0.78432 0.61059
 H2668 H 0.35324 0.74775 0.62612
 H2669 H 0.38698 0.71314 0.57846
 H2670 H 0.40258 0.74976 0.56291
 C2671 C 0.38560 0.22793 1.11487
 C2672 C 0.36773 0.24274 1.10335
 C2673 C 0.37611 0.26242 1.09491
 C2674 C 0.40155 0.26537 1.09882
 C2675 C 0.41244 0.24423 1.08855
 C2676 C 0.40405 0.22453 1.09699
 C2677 C 0.39638 0.24314 1.13286
 C2678 C 0.40476 0.26283 1.12442
 C2679 C 0.37648 0.20683 1.12406
 C2680 C 0.36878 0.18967 1.13181
 C2681 C 0.41047 0.28664 1.08984
 C2682 C 0.41761 0.30429 1.08268
 H2683 H 0.35005 0.23816 1.10192
 H2684 H 0.36561 0.27470 1.08625
 H2685 H 0.42557 0.24469 1.07578
 H2686 H 0.41000 0.20811 1.09146
 H2687 H 0.39736 0.23883 1.15065
 H2688 H 0.41292 0.27537 1.13499
 C2689 C 1.11422 1.11493 0.72794
 C2690 C 1.11186 1.13261 0.74672
 C2691 C 1.10356 1.12410 0.76640
 C2692 C 1.09842 1.09873 0.76540
 C2693 C 1.12060 1.08767 0.75787
 C2694 C 1.12891 1.09619 0.73817
 C2695 C 1.09064 1.10446 0.72556
 C2696 C 1.08233 1.09594 0.74527
 C2697 C 1.12327 1.12419 0.70682
 C2698 C 1.13093 1.13197 0.68965
 C2699 C 1.08957 1.08967 0.78667
 C2700 C 1.08247 1.08246 0.80433
 H2701 H 1.11631 1.15028 0.74472
 H2702 H 1.10089 1.13447 0.78127
 H2703 H 1.12903 1.07431 0.76718
 H2704 H 1.14446 1.09013 0.73061
 H2705 H 1.08131 1.10380 0.70980
 H2706 H 1.06587 1.08798 0.74639
 C2707 C 1.11541 0.61595 0.22832
 C2708 C 1.13244 0.61573 0.24785
 C2709 C 1.12396 0.60709 0.26740
 C2710 C 1.09927 0.59950 0.26553
 C2711 C 1.09886 0.58276 0.24575
 C2712 C 1.10736 0.59142 0.22618
 C2713 C 1.09495 0.62898 0.23739
 C2714 C 1.08646 0.62033 0.25695
 C2715 C 1.12464 0.62534 0.20733
 C2716 C 1.13244 0.63322 0.19025
 C2717 C 1.09022 0.59028 0.28667
 C2718 C 1.08296 0.58293 0.30421
 H2719 H 1.14967 0.62183 0.24644
 H2720 H 1.13391 0.60578 0.28274
 H2721 H 1.09247 0.56564 0.24700
 H2722 H 1.10824 0.58171 0.21066
 H2723 H 1.08774 0.64370 0.22917
 H2724 H 1.07198 0.62764 0.26549
 C2725 C 0.61467 1.11519 0.22820
 C2726 C 0.60627 1.09076 0.22624
 C2727 C 0.59781 1.08231 0.24591
 C2728 C 0.59859 1.09913 0.26561
 C2729 C 0.58599 1.12010 0.25704
 C2730 C 0.59445 1.12854 0.23737
 C2731 C 0.63184 1.11484 0.24760
 C2732 C 0.62339 1.10640 0.26726
 C2733 C 0.62386 1.12437 0.20712
 C2734 C 0.63161 1.13212 0.18997
 C2735 C 0.58959 1.09014 0.28685
 C2736 C 0.58239 1.08296 0.30449
 H2737 H 0.60690 1.08097 0.21076
 H2738 H 0.59120 1.06528 0.24730
 H2739 H 0.57168 1.12764 0.26564
 H2740 H 0.58738 1.14331 0.22913
 H2741 H 0.64914 1.12069 0.24604
 H2742 H 0.63345 1.10502 0.28253
 C2743 C 0.61477 0.61471 0.72853
 C2744 C 0.62887 0.59532 0.73840
 C2745 C 0.62043 0.58687 0.75807
 C2746 C 0.59872 0.59863 0.76594
 C2747 C 0.58237 0.59667 0.74593
 C2748 C 0.59081 0.60512 0.72625
 C2749 C 0.61322 0.63223 0.74754
 C2750 C 0.60479 0.62378 0.76720
 C2751 C 0.62395 0.62390 0.70744
 C2752 C 0.63168 0.63166 0.69028
 C2753 C 0.58974 0.58963 0.78719
 C2754 C 0.58256 0.58243 0.80482
 H2755 H 0.64412 0.58880 0.73062
 H2756 H 0.62845 0.57311 0.76714
 H2757 H 0.56564 0.58929 0.74711
 H2758 H 0.58132 0.60499 0.71057
 H2759 H 0.61829 0.64974 0.74572
 H2760 H 0.60263 0.63405 0.78222
 C2761 C 0.88572 0.88545 0.72802
 C2762 C 0.87087 0.90382 0.73863
 C2763 C 0.87929 0.91225 0.75831
 C2764 C 0.90175 0.90146 0.76545
 C2765 C 0.91753 0.90475 0.74515
 C2766 C 0.90910 0.89633 0.72546
 C2767 C 0.88861 0.86759 0.74659
 C2768 C 0.89703 0.87601 0.76626
 C2769 C 0.87656 0.87629 0.70693
 C2770 C 0.86881 0.86858 0.68977
 C2771 C 0.91071 0.91043 0.78670
 C2772 C 0.91787 0.91760 0.80435
 H2773 H 0.85513 0.90972 0.73132
 H2774 H 0.87077 0.92535 0.76786
 H2775 H 0.93387 0.91297 0.74615
 H2776 H 0.91822 0.89733 0.70959
 H2777 H 0.88443 0.84988 0.74447
 H2778 H 0.90006 0.86551 0.78098
 C2779 C 0.88520 0.38480 0.22802
 C2780 C 0.87700 0.40880 0.23329
 C2781 C 0.88544 0.41730 0.25294
 C2782 C 0.90126 0.40095 0.26537
 C2783 C 0.91951 0.39478 0.24804
 C2784 C 0.91106 0.38629 0.22840
 C2785 C 0.87897 0.37081 0.24893
 C2786 C 0.88741 0.37930 0.26856
 C2787 C 0.87602 0.37557 0.20696
 C2788 C 0.86826 0.36780 0.18983
 C2789 C 0.91025 0.41000 0.28659
 C2790 C 0.91745 0.41722 0.30420
 H2791 H 0.86557 0.41829 0.22254
 H2792 H 0.88125 0.43406 0.25902
 H2793 H 0.93748 0.39690 0.25095
 H2794 H 0.92179 0.38113 0.21447
 H2795 H 0.86882 0.35557 0.24837
 H2796 H 0.88449 0.37132 0.28481
 C2797 C 0.38497 0.88502 0.22845
 C2798 C 0.37267 0.90633 0.23657
 C2799 C 0.38108 0.91490 0.25619
 C2800 C 0.40097 0.90132 0.26577
 C2801 C 0.41834 0.90040 0.24656
 C2802 C 0.40993 0.89183 0.22693
 C2803 C 0.38371 0.86852 0.24839
 C2804 C 0.39211 0.87708 0.26801
 C2805 C 0.37582 0.87572 0.20741
 C2806 C 0.36810 0.86790 0.19028
 C2807 C 0.40993 0.91044 0.28697
 C2808 C 0.41711 0.91772 0.30457
 H2809 H 0.35860 0.91402 0.22768
 H2810 H 0.37421 0.92992 0.26411
 H2811 H 0.43571 0.90599 0.24823
 H2812 H 0.42009 0.89007 0.21178
 H2813 H 0.37682 0.85158 0.24721
 H2814 H 0.39243 0.86747 0.28363
 C2815 C 0.38547 0.38488 0.72842
 C2816 C 0.37060 0.40331 0.73892
 C2817 C 0.37898 0.41182 0.75858
 C2818 C 0.40142 0.40106 0.76581
 C2819 C 0.41724 0.40425 0.74553
 C2820 C 0.40885 0.39574 0.72586
 C2821 C 0.38832 0.36710 0.74707
 C2822 C 0.39670 0.37561 0.76672
 C2823 C 0.37635 0.37564 0.70734
 C2824 C 0.36864 0.36786 0.69019
 C2825 C 0.41036 0.41011 0.78705
 C2826 C 0.41752 0.41733 0.80467
 H2827 H 0.35487 0.40918 0.73155
 H2828 H 0.37044 0.42497 0.76805
 H2829 H 0.43359 0.41247 0.74653
 H2830 H 0.41800 0.39667 0.71001
 H2831 H 0.38413 0.34939 0.74502
 H2832 H 0.39969 0.36517 0.78150
 C2833 C 1.11492 0.88517 1.27208
 C2834 C 1.13213 0.89893 1.25845
 C2835 C 1.12370 0.90738 1.23878
 C2836 C 1.09887 0.90124 1.23465
 C2837 C 1.08629 0.90952 1.25574
 C2838 C 1.09473 0.90107 1.27543
 C2839 C 1.10646 0.86694 1.25573
 C2840 C 1.09803 0.87538 1.23606
 C2841 C 1.12409 0.87598 1.29317
 C2842 C 1.13183 0.86823 1.31033
 C2843 C 1.08989 0.91023 1.21339
 C2844 C 1.08271 0.91741 1.19575
 H2845 H 1.14942 0.90181 1.26380
 H2846 H 1.13376 0.91749 1.22727
 H2847 H 1.07203 0.92101 1.25525
 H2848 H 1.08770 0.90532 1.29181
 H2849 H 1.10704 0.84897 1.25931
 H2850 H 1.09138 0.86465 1.22279
 C2851 C 1.11529 0.38473 0.77143
 C2852 C 1.10354 0.36695 0.75671
 C2853 C 1.09504 0.37540 0.73706
 C2854 C 1.09911 0.40080 0.73406
 C2855 C 1.12473 0.40382 0.73642
 C2856 C 1.13324 0.39537 0.75606
 C2857 C 1.09758 0.40331 0.77494
 C2858 C 1.08907 0.41177 0.75528
 C2859 C 1.12453 0.37553 0.79250
 C2860 C 1.13230 0.36778 0.80965
 C2861 C 1.09006 0.40981 0.71283
 C2862 C 1.08281 0.41702 0.69522
 H2863 H 1.10202 0.34928 0.76131
 H2864 H 1.08623 0.36496 0.72485
 H2865 H 1.13527 0.41190 0.72378
 H2866 H 1.15105 0.39621 0.76025
 H2867 H 1.09219 0.40930 0.79140
 H2868 H 1.07640 0.42500 0.75490
 C2869 C 0.61440 0.88572 0.77195
 C2870 C 0.59155 0.87552 0.76522
 C2871 C 0.58313 0.88398 0.74554
 C2872 C 0.59837 0.90181 0.73453
 C2873 C 0.62138 0.89023 0.73183
 C2874 C 0.62980 0.88177 0.75150
 C2875 C 0.61042 0.91132 0.77252
 C2876 C 0.60199 0.91978 0.75283
 C2877 C 0.62356 0.87652 0.79304
 C2878 C 0.63130 0.86876 0.81020
 C2879 C 0.58940 0.91081 0.71327
 C2880 C 0.58223 0.91801 0.69563
 H2881 H 0.58277 0.86279 0.77505
 H2882 H 0.56712 0.87850 0.73851
 H2883 H 0.63029 0.88880 0.71588
 H2884 H 0.64593 0.87310 0.75238
 H2885 H 0.61392 0.92186 0.78709
 H2886 H 0.59826 0.93757 0.75054
 C2887 C 0.61524 0.38408 1.27187
 C2888 C 0.59876 0.36810 1.25987
 C2889 C 0.59025 0.37667 1.24027
 C2890 C 0.59906 0.40036 1.23460
 C2891 C 0.62487 0.39811 1.23460
 C2892 C 0.63337 0.38955 1.25419
 C2893 C 0.60208 0.40617 1.27505
 C2894 C 0.59356 0.41473 1.25545
 C2895 C 0.62449 0.37477 1.29289
 C2896 C 0.63229 0.36695 1.31000
 C2897 C 0.58999 0.40948 1.21342
 C2898 C 0.58274 0.41678 1.19585
 H2899 H 0.59416 0.35154 1.26621
 H2900 H 0.57837 0.36743 1.22982
 H2901 H 0.63553 0.40284 1.22046
 H2902 H 0.65132 0.38695 1.25682
 H2903 H 0.59965 0.41435 1.29127
 H2904 H 0.58385 0.43026 1.25486
 C2905 C 0.88603 1.11383 1.27227
 C2906 C 0.88052 1.12848 1.25161
 C2907 C 0.88888 1.12013 1.23189
 C2908 C 0.90192 1.09793 1.23475
 C2909 C 0.88541 1.08190 1.24665
 C2910 C 0.87705 1.09026 1.26638
 C2911 C 0.91182 1.11143 1.27214
 C2912 C 0.92019 1.10306 1.25240
 C2913 C 0.87693 1.12293 1.29341
 C2914 C 0.86925 1.13063 1.31060
 C2915 C 0.91082 1.08903 1.21344
 C2916 C 0.91793 1.08194 1.19575
 H2917 H 0.87091 1.14407 1.25239
 H2918 H 0.88642 1.12855 1.21579
 H2919 H 0.88070 1.06542 1.24016
 H2920 H 0.86518 1.08095 1.27680
 H2921 H 0.92257 1.11589 1.28630
 H2922 H 0.93810 1.10036 1.24965
 C2923 C 0.88548 0.61443 0.77154
 C2924 C 0.91001 0.60630 0.77341
 C2925 C 0.91844 0.59788 0.75372
 C2926 C 0.90149 0.59840 0.73411
 C2927 C 0.89392 0.62312 0.73240
 C2928 C 0.88551 0.63154 0.75207
 C2929 C 0.87231 0.59403 0.76253
 C2930 C 0.88072 0.58560 0.74285
 C2931 C 0.87632 0.62359 0.79264
 C2932 C 0.86861 0.63132 0.80981
 C2933 C 0.91045 0.58943 0.71286
 C2934 C 0.91761 0.58226 0.69522
 H2935 H 0.91990 0.60710 0.78883
 H2936 H 0.93553 0.59145 0.75227
 H2937 H 0.89508 0.63314 0.71709
 H2938 H 0.87946 0.64877 0.75360
 H2939 H 0.85767 0.58682 0.77087
 H2940 H 0.87330 0.57118 0.73434
 C2941 C 0.38526 1.11563 0.77164
 C2942 C 0.38463 1.13244 0.75191
 C2943 C 0.39300 1.12391 0.73226
 C2944 C 0.40118 1.09941 0.73425
 C2945 C 0.38084 1.08626 0.74345
 C2946 C 0.37248 1.09479 0.76311
 C2947 C 0.41001 1.10813 0.77331
 C2948 C 0.41838 1.09960 0.75364
 C2949 C 0.37616 1.12489 0.79271
 C2950 C 0.36846 1.13267 0.80987
 C2951 C 0.41009 1.09033 0.71302
 C2952 C 0.41724 1.08309 0.69540
 H2953 H 0.37819 1.14954 0.75326
 H2954 H 0.39372 1.13372 0.71678
 H2955 H 0.37366 1.07153 0.73526
 H2956 H 0.35812 1.08736 0.77175
 H2957 H 0.42007 1.10940 0.78858
 H2958 H 0.43561 1.09356 0.75206
 C2959 C 0.38521 0.61568 1.27171
 C2960 C 0.38551 0.58978 1.27115
 C2961 C 0.39388 0.58110 1.25155
 C2962 C 0.40113 0.59918 1.23444
 C2963 C 0.41801 0.61412 1.24722
 C2964 C 0.40964 0.62280 1.26681
 C2965 C 0.37182 0.62273 1.25067
 C2966 C 0.38018 0.61406 1.23109
 C2967 C 0.37610 0.62509 1.29272
 C2968 C 0.36839 0.63297 1.30982
 C2969 C 0.41005 0.58995 1.21328
 C2970 C 0.41722 0.58261 1.19571
 H2971 H 0.37967 0.57919 1.28493
 H2972 H 0.39521 0.56308 1.24853
 H2973 H 0.43503 0.61757 1.24139
 H2974 H 0.41949 0.63368 1.27777
 H2975 H 0.35705 0.63357 1.25111
 H2976 H 0.37258 0.61748 1.21475
 C2977 C 1.11484 1.27146 0.88450
 C2978 C 1.11498 1.27050 0.91041
 C2979 C 1.10654 1.25087 0.91896
 C2980 C 1.09881 1.23414 0.90076
 C2981 C 1.11946 1.23079 0.88549
 C2982 C 1.12789 1.25040 0.87694
 C2983 C 1.09025 1.26693 0.87772
 C2984 C 1.08182 1.24731 0.88627
 C2985 C 1.12401 1.29250 0.87521
 C2986 C 1.13175 1.30962 0.86741
 C2987 C 1.08982 1.21294 0.90986
 C2988 C 1.08263 1.19535 0.91713
 H2989 H 1.12114 1.28405 0.92109
 H2990 H 1.10548 1.24760 0.93697
 H2991 H 1.12683 1.21444 0.88172
 H2992 H 1.14247 1.25085 0.86586
 H2993 H 1.08033 1.27816 0.86715
 H2994 H 1.06468 1.24172 0.88302
 C2995 C 1.11454 0.77172 0.38488
 C2996 C 1.12013 0.75101 0.37037
 C2997 C 1.11173 0.73133 0.37879
 C2998 C 1.09855 0.73428 0.40090
 C2999 C 1.08032 0.75190 0.39555
 C3000 C 1.08873 0.77159 0.38712
 C3001 C 1.12338 0.76593 0.40855
 C3002 C 1.11497 0.74624 0.41698
 C3003 C 1.12368 0.79282 0.37572
 C3004 C 1.13139 0.80999 0.36799
 C3005 C 1.08960 0.71302 0.40988
 C3006 C 1.08244 0.69538 0.41705
 H3007 H 1.12983 0.75173 0.35483
 H3008 H 1.11423 0.71520 0.37047
 H3009 H 1.06239 0.74916 0.39815
 H3010 H 1.07801 0.78572 0.38250
 H3011 H 1.13519 0.77637 0.41788
 H3012 H 1.11958 0.73982 0.43353
 C3013 C 0.61530 1.27171 0.38437
 C3014 C 0.63334 1.25373 0.38909
 C3015 C 0.62483 1.23415 0.39765
 C3016 C 0.59911 1.23447 0.40065
 C3017 C 0.58969 1.24057 0.37728
 C3018 C 0.59820 1.26014 0.36872
 C3019 C 0.60283 1.27478 0.40688
 C3020 C 0.59431 1.25519 0.41545
 C3021 C 0.62456 1.29271 0.37506
 C3022 C 0.63234 1.30981 0.36722
 C3023 C 0.59003 1.21331 0.40977
 C3024 C 0.58277 1.19576 0.41707
 H3025 H 0.65124 1.25615 0.38600
 H3026 H 0.63544 1.21982 0.40189
 H3027 H 0.57739 1.23041 0.36826
 H3028 H 0.59320 1.26676 0.35236
 H3029 H 0.60087 1.29091 0.41534
 H3030 H 0.58505 1.25453 0.43125
 C3031 C 0.61454 0.77170 0.88574
 C3032 C 0.61456 0.75226 0.86862
 C3033 C 0.60617 0.73258 0.87703
 C3034 C 0.59857 0.73425 0.90175
 C3035 C 0.58159 0.75381 0.90225
 C3036 C 0.58999 0.77351 0.89382
 C3037 C 0.62770 0.76268 0.90618
 C3038 C 0.61930 0.74299 0.91460
 C3039 C 0.62367 0.79280 0.87658
 C3040 C 0.63138 0.80998 0.86886
 C3041 C 0.58963 0.71298 0.91072
 C3042 C 0.58248 0.69533 0.91788
 H3043 H 0.62063 0.75382 0.85139
 H3044 H 0.60504 0.71729 0.86701
 H3045 H 0.56448 0.75233 0.90865
 H3046 H 0.58008 0.78891 0.89301
 H3047 H 0.64231 0.77103 0.91341
 H3048 H 0.62672 0.73447 0.92904
 C3049 C 0.88555 1.27145 1.11510
 C3050 C 0.88666 1.25224 1.13247
 C3051 C 0.89503 1.23260 1.12396
 C3052 C 0.90148 1.23407 1.09890
 C3053 C 0.91805 1.25393 1.09737
 C3054 C 0.90967 1.27359 1.10589
 C3055 C 0.87165 1.26193 1.09541
 C3056 C 0.88003 1.24228 1.08689
 C3057 C 0.87644 1.29251 1.12436
 C3058 C 0.86873 1.30965 1.13215
 C3059 C 0.91040 1.21285 1.08983
 C3060 C 0.91755 1.19523 1.08260
 H3061 H 0.88135 1.25392 1.14994
 H3062 H 0.89689 1.21746 1.13413
 H3063 H 0.93487 1.25266 1.09022
 H3064 H 0.91931 1.28916 1.10605
 H3065 H 0.85657 1.26993 1.08873
 H3066 H 0.87212 1.23345 1.07291
 C3067 C 0.88550 0.77170 0.61416
 C3068 C 0.86732 0.75396 0.60910
 C3069 C 0.87573 0.73429 0.60070
 C3070 C 0.90151 0.73428 0.59816
 C3071 C 0.91059 0.74021 0.62170
 C3072 C 0.90217 0.75988 0.63011
 C3073 C 0.89841 0.77464 0.59187
 C3074 C 0.90683 0.75495 0.58346
 C3075 C 0.87635 0.79279 0.62331
 C3076 C 0.86864 0.80995 0.63104
 C3077 C 0.91048 0.71302 0.58921
 C3078 C 0.91765 0.69538 0.58206
 H3079 H 0.84940 0.75662 0.61187
 H3080 H 0.86503 0.72011 0.59626
 H3081 H 0.92258 0.72988 0.63094
 H3082 H 0.90695 0.76640 0.64656
 H3083 H 0.90073 0.79075 0.58345
 H3084 H 0.91637 0.75420 0.56783
 C3085 C 0.38502 1.27204 0.61497
 C3086 C 0.38617 1.25285 0.63235
 C3087 C 0.39459 1.23322 0.62385
 C3088 C 0.40103 1.23469 0.59878
 C3089 C 0.41757 1.25458 0.59724
 C3090 C 0.40914 1.27423 0.60576
 C3091 C 0.37115 1.26249 0.59528
 C3092 C 0.37957 1.24285 0.58677
 C3093 C 0.37587 1.29309 0.62422
 C3094 C 0.36813 1.31023 0.63200
 C3095 C 0.41000 1.21348 0.58973
 C3096 C 0.41718 1.19588 0.58249
 H3097 H 0.38086 1.25453 0.64981
 H3098 H 0.39648 1.21809 0.63402
 H3099 H 0.43439 1.25335 0.59010
 H3100 H 0.41876 1.28982 0.60591
 H3101 H 0.35606 1.27046 0.58860
 H3102 H 0.37168 1.23400 0.57280
 C3103 C 0.38544 0.77147 1.11558
 C3104 C 0.36918 0.75946 1.09938
 C3105 C 0.37754 0.73982 1.09083
 C3106 C 0.40134 0.73411 1.09932
 C3107 C 0.39948 0.73420 1.12517
 C3108 C 0.39113 0.75384 1.13372
 C3109 C 0.40734 0.77453 1.10207
 C3110 C 0.41570 0.75488 1.09351
 C3111 C 0.37634 0.79253 1.12487
 C3112 C 0.36864 0.80966 1.13266
 C3113 C 0.41025 0.71289 1.09021
 C3114 C 0.41740 0.69528 1.08295
 H3115 H 0.35256 0.76583 1.09500
 H3116 H 0.36809 0.72937 1.07912
 H3117 H 0.40432 0.72009 1.13583
 H3118 H 0.38881 0.75654 1.15170
 H3119 H 0.41554 0.79070 1.09945
 H3120 H 0.43108 0.75421 1.08356
 C3121 C 0.88563 0.72823 0.88533
 C3122 C 0.89541 0.74392 0.86717
 C3123 C 0.90385 0.76358 0.87558
 C3124 C 0.90170 0.76563 0.90132
 C3125 C 0.91332 0.74447 0.91078
 C3126 C 0.90487 0.72480 0.90236
 C3127 C 0.86805 0.74256 0.89785
 C3128 C 0.87650 0.76222 0.90625
 C3129 C 0.87644 0.70715 0.87619
 C3130 C 0.86869 0.69000 0.86848
 C3131 C 0.91069 0.78687 0.91028
 C3132 C 0.91787 0.80449 0.91744
 H3133 H 0.89569 0.73994 0.84928
 H3134 H 0.91137 0.77643 0.86489
 H3135 H 0.92698 0.74491 0.92299
 H3136 H 0.91128 0.70838 0.90737
 H3137 H 0.85051 0.73769 0.89994
 H3138 H 0.86619 0.77419 0.91555
 C3139 C 0.88609 0.22772 0.38588
 C3140 C 0.91197 0.22837 0.38696
 C3141 C 0.92034 0.24811 0.39527
 C3142 C 0.90200 0.26525 0.40170
 C3143 C 0.88659 0.25270 0.41833
 C3144 C 0.87823 0.23296 0.41001
 C3145 C 0.87941 0.24851 0.37194
 C3146 C 0.88777 0.26824 0.38025
 C3147 C 0.87699 0.20657 0.37684
 C3148 C 0.86929 0.18937 0.36919
 C3149 C 0.91090 0.28657 0.41055
 C3150 C 0.91800 0.30426 0.41762
 H3151 H 0.92277 0.21454 0.38166
 H3152 H 0.93831 0.25121 0.39710
 H3153 H 0.88262 0.25877 0.43516
 H3154 H 0.86708 0.22212 0.41972
 H3155 H 0.86902 0.24781 0.35685
 H3156 H 0.88454 0.28443 0.37228
 C3157 C 0.38462 0.72895 0.38489
 C3158 C 0.36775 0.74861 0.38435
 C3159 C 0.37620 0.76822 0.39284
 C3160 C 0.40070 0.76627 0.40104
 C3161 C 0.41391 0.75725 0.38066
 C3162 C 0.40545 0.73763 0.37217
 C3163 C 0.39209 0.72716 0.40965
 C3164 C 0.40055 0.74679 0.41815
 C3165 C 0.37543 0.70790 0.37566
 C3166 C 0.36769 0.69076 0.36789
 C3167 C 0.40971 0.78748 0.41009
 C3168 C 0.41693 0.80506 0.41733
 H3169 H 0.35066 0.74724 0.37788
 H3170 H 0.36635 0.78365 0.39364
 H3171 H 0.42862 0.76554 0.37354
 H3172 H 0.41292 0.72910 0.35777
 H3173 H 0.39086 0.71183 0.41963
 H3174 H 0.40656 0.74828 0.43540
 C3175 C 0.38495 0.22841 0.88512
 C3176 C 0.36725 0.24301 0.89715
 C3177 C 0.37572 0.26262 0.90564
 C3178 C 0.40107 0.26572 0.90127
 C3179 C 0.40379 0.26350 0.87559
 C3180 C 0.39532 0.24389 0.86711
 C3181 C 0.40375 0.22486 0.90261
 C3182 C 0.41223 0.24449 0.91111
 C3183 C 0.37573 0.20738 0.87589
 C3184 C 0.36797 0.19026 0.86811
 C3185 C 0.41010 0.28691 0.91031
 C3186 C 0.41732 0.30450 0.91754
 H3187 H 0.34961 0.23835 0.89886
 H3188 H 0.36535 0.27476 0.91462
 H3189 H 0.41170 0.27620 0.86501
 H3190 H 0.39596 0.23980 0.84925
 H3191 H 0.40986 0.20840 0.90786
 H3192 H 0.42561 0.24484 0.92363
 C3193 C 1.11560 0.72861 1.11594
 C3194 C 1.11122 0.74676 1.13389
 C3195 C 1.10276 0.76635 1.12530
 C3196 C 1.09949 0.76588 1.09959
 C3197 C 1.08447 0.74525 1.09512
 C3198 C 1.09294 0.72565 1.10371
 C3199 C 1.13116 0.73992 1.09858
 C3200 C 1.12269 0.75952 1.08998
 C3201 C 1.12480 0.70759 1.12527
 C3202 C 1.13256 0.69048 1.13311
 C3203 C 1.09046 0.78705 1.09044
 C3204 C 1.08321 0.80461 1.08313
 H3205 H 1.11448 0.74443 1.15179
 H3206 H 1.09876 0.78079 1.13584
 H3207 H 1.06858 0.74598 1.08600
 H3208 H 1.08432 0.70958 1.10196
 H3209 H 1.14739 0.73314 1.09347
 H3210 H 1.13167 0.76951 1.07751
 C3211 C 1.11458 0.22796 0.61450
 C3212 C 1.11627 0.22973 0.58869
 C3213 C 1.10788 0.24942 0.58022
 C3214 C 1.09863 0.26539 0.59840
 C3215 C 1.11822 0.26874 0.61502
 C3216 C 1.12660 0.24907 0.62348
 C3217 C 1.08951 0.23171 0.61987
 C3218 C 1.08112 0.25140 0.61140
 C3219 C 1.12371 0.20687 0.62371
 C3220 C 1.13142 0.18970 0.63146
 C3221 C 1.08969 0.28665 0.58938
 C3222 C 1.08254 0.30430 0.58219
 H3223 H 1.12342 0.21667 0.57801
 H3224 H 1.10784 0.25323 0.56228
 H3225 H 1.12493 0.28512 0.61972
 H3226 H 1.14049 0.24861 0.63543
 H3227 H 1.07926 0.21994 0.62947
 H3228 H 1.06368 0.25649 0.61375
 C3229 C 0.61467 0.72871 0.61482
 C3230 C 0.61060 0.72820 0.58922
 C3231 C 0.60211 0.74788 0.58083
 C3232 C 0.59854 0.76614 0.59887
 C3233 C 0.62160 0.76882 0.61037
 C3234 C 0.63008 0.74916 0.61875
 C3235 C 0.59186 0.73540 0.62513
 C3236 C 0.58338 0.75508 0.61674
 C3237 C 0.62389 0.70762 0.62394
 C3238 C 0.63165 0.69045 0.63164
 C3239 C 0.58952 0.78739 0.58993
 C3240 C 0.58231 0.80502 0.58277
 H3241 H 0.61406 0.71366 0.57862
 H3242 H 0.59831 0.75021 0.56305
 H3243 H 0.63050 0.78477 0.61179
 H3244 H 0.64623 0.74826 0.62735
 H3245 H 0.58314 0.72554 0.63788
 H3246 H 0.56739 0.76208 0.62231
 C3247 C 0.61511 0.22807 1.11498
 C3248 C 0.59207 0.23445 1.12495
 C3249 C 0.58353 0.25411 1.11657
 C3250 C 0.59889 0.26546 1.09905
 C3251 C 0.60294 0.24739 1.08093
 C3252 C 0.61148 0.22772 1.08931
 C3253 C 0.63024 0.24863 1.11933
 C3254 C 0.62172 0.26828 1.11096
 C3255 C 0.62438 0.20699 1.12409
 C3256 C 0.63216 0.18984 1.13180
 C3257 C 0.58980 0.28670 1.09012
 C3258 C 0.58256 0.30432 1.08296
 H3259 H 0.58322 0.22440 1.13747
 H3260 H 0.56738 0.26091 1.12192
 H3261 H 0.59942 0.24982 1.06310
 H3262 H 0.61527 0.21330 1.07866
 H3263 H 0.64626 0.24783 1.12821
 H3264 H 0.63043 0.28430 1.11267
 C3265 C 1.27166 1.11544 0.88542
 C3266 C 1.26225 1.09566 0.87159
 C3267 C 1.24262 1.08709 0.87997
 C3268 C 1.23433 1.09914 0.90136
 C3269 C 1.23276 1.12415 0.89478
 C3270 C 1.25238 1.13272 0.88641
 C3271 C 1.27380 1.10634 0.90961
 C3272 C 1.25416 1.09776 0.91799
 C3273 C 1.29271 1.12475 0.87630
 C3274 C 1.30983 1.13257 0.86859
 C3275 C 1.21312 1.09001 0.91028
 C3276 C 1.19552 1.08274 0.91744
 H3277 H 1.27031 1.08897 0.85656
 H3278 H 1.23386 1.07305 0.87211
 H3279 H 1.21758 1.13425 0.89656
 H3280 H 1.25401 1.15016 0.88101
 H3281 H 1.28935 1.10660 0.91929
 H3282 H 1.25289 1.09068 0.93486
 C3283 C 1.27151 0.61567 0.38516
 C3284 C 1.25482 0.63373 0.39331
 C3285 C 1.23522 0.62507 0.40163
 C3286 C 1.23420 0.59920 0.40099
 C3287 C 1.25528 0.59131 0.41385
 C3288 C 1.27491 0.59997 0.40552
 C3289 C 1.25826 0.60158 0.36793
 C3290 C 1.23865 0.59292 0.37625
 C3291 C 1.29254 0.62507 0.37610
 C3292 C 1.30965 0.63295 0.36842
 C3293 C 1.21301 0.58998 0.40987
 C3294 C 1.19543 0.58265 0.41700
 H3295 H 1.25813 0.65174 0.39262
 H3296 H 1.22173 0.63567 0.40807
 H3297 H 1.25484 0.57992 0.42821
 H3298 H 1.29128 0.59602 0.41275
 H3299 H 1.26380 0.59864 0.35070
 H3300 H 1.22740 0.58257 0.36615
 C3301 C 0.77214 1.11413 0.38602
 C3302 C 0.75242 1.13087 0.38457
 C3303 C 0.73268 1.12257 0.39291
 C3304 C 0.73457 1.09834 0.40189
 C3305 C 0.75369 1.09909 0.41937
 C3306 C 0.77345 1.10740 0.41103
 C3307 C 0.76384 1.09288 0.37376
 C3308 C 0.74408 1.08458 0.38210
 C3309 C 0.79332 1.12316 0.37694
 C3310 C 0.81054 1.13080 0.36926
 C3311 C 0.71323 1.08950 0.41077
 C3312 C 0.69552 1.08244 0.41786
 H3313 H 0.75385 1.14777 0.37761
 H3314 H 0.71719 1.13236 0.39309
 H3315 H 0.75186 1.09359 0.43677
 H3316 H 0.78857 1.10901 0.42127
 H3317 H 0.77270 1.08504 0.35977
 H3318 H 0.73601 1.06962 0.37526
 C3319 C 0.77177 0.61445 0.88554
 C3320 C 0.75187 0.63096 0.88394
 C3321 C 0.73222 0.62253 0.89239
 C3322 C 0.73438 0.59841 0.90162
 C3323 C 0.75351 0.59956 0.91907
 C3324 C 0.77318 0.60799 0.91061
 C3325 C 0.76368 0.59299 0.87351
 C3326 C 0.74402 0.58456 0.88196
 C3327 C 0.79284 0.62362 0.87634
 C3328 C 0.80999 0.63135 0.86859
 C3329 C 0.71315 0.58943 0.91062
 C3330 C 0.69552 0.58225 0.91780
 H3331 H 0.75310 0.64780 0.87681
 H3332 H 0.71662 0.63215 0.89250
 H3333 H 0.75176 0.59421 0.93652
 H3334 H 0.78828 0.60987 0.92082
 H3335 H 0.77261 0.58510 0.85959
 H3336 H 0.73611 0.56944 0.87528
 C3337 C 1.27179 0.88523 1.11544
 C3338 C 1.26612 0.87636 1.09176
 C3339 C 1.24648 0.88478 1.08322
 C3340 C 1.23445 0.90124 1.09919
 C3341 C 1.25206 0.91946 1.10458
 C3342 C 1.27170 0.91104 1.11313
 C3343 C 1.25100 0.87970 1.12987
 C3344 C 1.23138 0.88811 1.12133
 C3345 C 1.29284 0.87608 1.12472
 C3346 C 1.30997 0.86835 1.13254
 C3347 C 1.21324 0.91021 1.09010
 C3348 C 1.19564 0.91739 1.08284
 H3349 H 1.27661 0.86451 1.08252
 H3350 H 1.24015 0.88015 1.06665
 H3351 H 1.24935 0.93739 1.10191
 H3352 H 1.28582 0.92175 1.11778
 H3353 H 1.25163 0.87003 1.14543
 H3354 H 1.21520 0.88564 1.12958
 C3355 C 1.27176 0.38487 0.61454
 C3356 C 1.26601 0.37609 0.59084
 C3357 C 1.24636 0.38457 0.58239
 C3358 C 1.23439 0.40098 0.59847
 C3359 C 1.25203 0.41916 0.60388
 C3360 C 1.27169 0.41069 0.61233
 C3361 C 1.25101 0.37929 0.62900
 C3362 C 1.23137 0.38775 0.62056
 C3363 C 1.29283 0.37566 0.62372
 C3364 C 1.30997 0.36790 0.63147
 C3365 C 1.21316 0.40999 0.58947
 C3366 C 1.19555 0.41720 0.58227
 H3367 H 1.27646 0.36428 0.58151
 H3368 H 1.23997 0.38001 0.56582
 H3369 H 1.24932 0.43710 0.60130
 H3370 H 1.28582 0.42136 0.61699
 H3371 H 1.25167 0.36955 0.64452
 H3372 H 1.21521 0.38526 0.62885
 C3373 C 0.77171 0.88569 0.61444
 C3374 C 0.75208 0.88482 0.63132
 C3375 C 0.73240 0.89330 0.62298
 C3376 C 0.73427 0.90182 0.59857
 C3377 C 0.74342 0.88167 0.58510
 C3378 C 0.76311 0.87319 0.59344
 C3379 C 0.77333 0.91054 0.60726
 C3380 C 0.75363 0.91903 0.59891
 C3381 C 0.79282 0.87647 0.62352
 C3382 C 0.80999 0.86870 0.63119
 C3383 C 0.71300 0.91084 0.58967
 C3384 C 0.69535 0.91804 0.58255
 H3385 H 0.75350 0.87814 0.64834
 H3386 H 0.71697 0.89388 0.63285
 H3387 H 0.73517 0.87469 0.57030
 H3388 H 0.77172 0.85895 0.58580
 H3389 H 0.78859 0.92058 0.60861
 H3390 H 0.75202 0.93634 0.59311
 C3391 C 0.77177 0.38513 1.11525
 C3392 C 0.76607 0.37632 1.09155
 C3393 C 0.74639 0.38471 1.08308
 C3394 C 0.73435 0.40109 1.09914
 C3395 C 0.75192 0.41934 1.10455
 C3396 C 0.77160 0.41094 1.11303
 C3397 C 0.75102 0.37949 1.12971
 C3398 C 0.73136 0.38787 1.12124
 C3399 C 0.79286 0.37600 1.12446
 C3400 C 0.81002 0.36829 1.13221
 C3401 C 0.71310 0.41003 1.09013
 C3402 C 0.69546 0.41718 1.08292
 H3403 H 0.77656 0.36454 1.08225
 H3404 H 0.74003 0.38012 1.06652
 H3405 H 0.74915 0.43727 1.10195
 H3406 H 0.78570 0.42168 1.11769
 H3407 H 0.75171 0.36976 1.14524
 H3408 H 0.71521 0.38533 1.12952
 C3409 C 0.72852 1.11503 1.11451
 C3410 C 0.73726 1.09442 1.12759
 C3411 C 0.75691 1.08587 1.11923
 C3412 C 0.76589 1.09877 1.09861
 C3413 C 0.76776 1.12340 1.10639
 C3414 C 0.74813 1.13195 1.11475
 C3415 C 0.72674 1.10715 1.08988
 C3416 C 0.74640 1.09860 1.08152
 C3417 C 0.70745 1.12431 1.12361
 C3418 C 0.69031 1.13211 1.13130
 C3419 C 0.78711 1.08968 1.08970
 C3420 C 0.80473 1.08243 1.08256
 H3421 H 0.72876 1.08717 1.14212
 H3422 H 0.76524 1.07130 1.12660
 H3423 H 0.78317 1.13328 1.10541
 H3424 H 0.74671 1.14913 1.12093
 H3425 H 0.71141 1.10818 1.07990
 H3426 H 0.74791 1.09231 1.06437
 C3427 C 0.72851 0.61476 0.61457
 C3428 C 0.72670 0.59008 0.60689
 C3429 C 0.74636 0.58161 0.59844
 C3430 C 0.76587 0.59866 0.59850
 C3431 C 0.76773 0.60664 0.62308
 C3432 C 0.74810 0.61510 0.63152
 C3433 C 0.73729 0.62763 0.59385
 C3434 C 0.75693 0.61917 0.58540
 C3435 C 0.70745 0.62396 0.62376
 C3436 C 0.69031 0.63171 0.63152
 C3437 C 0.78709 0.58964 0.58950
 C3438 C 0.80470 0.58243 0.58230
 H3439 H 0.71135 0.58014 0.60800
 H3440 H 0.74784 0.56442 0.59230
 H3441 H 0.78312 0.60572 0.63298
 H3442 H 0.74668 0.62143 0.64867
 H3443 H 0.72881 0.64211 0.58646
 H3444 H 0.76528 0.62639 0.57077
 C3445 C 0.22783 1.11510 0.61414
 C3446 C 0.22650 1.09001 0.60786
 C3447 C 0.24620 1.08156 0.59949
 C3448 C 0.26528 1.09904 0.59823
 C3449 C 0.26740 1.10840 0.62230
 C3450 C 0.24772 1.11684 0.63066
 C3451 C 0.23591 1.12703 0.59259
 C3452 C 0.25560 1.11859 0.58422
 C3453 C 0.20673 1.12429 0.62325
 C3454 C 0.18957 1.13203 0.63094
 C3455 C 0.28655 1.09006 0.58933
 C3456 C 0.30420 1.08289 0.58221
 H3457 H 0.21143 1.07978 0.60980
 H3458 H 0.24800 1.06409 0.59426
 H3459 H 0.28299 1.10839 0.63194
 H3460 H 0.24645 1.12406 0.64746
 H3461 H 0.22694 1.14088 0.58459
 H3462 H 0.26350 1.12520 0.56906
 C3463 C 0.22873 0.61555 1.11562
 C3464 C 0.23622 0.62674 1.09347
 C3465 C 0.25579 0.61815 1.08497
 C3466 C 0.26596 0.59921 1.09947
 C3467 C 0.24707 0.58164 1.10179
 C3468 C 0.22749 0.59023 1.11028
 C3469 C 0.24896 0.61805 1.13161
 C3470 C 0.26852 0.60946 1.12312
 C3471 C 0.20774 0.62488 1.12485
 C3472 C 0.19064 0.63271 1.13262
 C3473 C 0.28711 0.59007 1.09041
 C3474 C 0.30465 0.58276 1.08316
 H3475 H 0.22696 0.64021 1.08517
 H3476 H 0.26330 0.62427 1.06941
 H3477 H 0.24891 0.56400 1.09716
 H3478 H 0.21255 0.57996 1.11294
 H3479 H 0.24800 0.62587 1.14816
 H3480 H 0.28432 0.60993 1.13240
 C3481 C 0.72838 0.88546 0.88563
 C3482 C 0.72527 0.89985 0.90696
 C3483 C 0.74499 0.90825 0.91534
 C3484 C 0.76585 0.90144 0.90156
 C3485 C 0.76073 0.90915 0.87734
 C3486 C 0.74103 0.90075 0.86897
 C3487 C 0.74546 0.86716 0.89231
 C3488 C 0.76516 0.87556 0.90068
 C3489 C 0.70726 0.87633 0.87652
 C3490 C 0.69008 0.86863 0.86882
 C3491 C 0.78713 0.91038 0.91047
 C3492 C 0.80479 0.91753 0.91759
 H3493 H 0.70904 0.90314 0.91479
 H3494 H 0.74564 0.91875 0.93035
 H3495 H 0.77162 0.92024 0.86763
 H3496 H 0.73504 0.90465 0.85208
 H3497 H 0.74236 0.84919 0.89062
 H3498 H 0.77893 0.86477 0.90616
 C3499 C 0.72868 0.38448 0.38458
 C3500 C 0.72670 0.40904 0.39259
 C3501 C 0.74631 0.41757 0.40106
 C3502 C 0.76597 0.40069 0.40070
 C3503 C 0.76779 0.39304 0.37601
 C3504 C 0.74819 0.38452 0.36754
 C3505 C 0.73768 0.37142 0.40509
 C3506 C 0.75728 0.37994 0.41356
 C3507 C 0.70765 0.37522 0.37537
 C3508 C 0.69053 0.36743 0.36761
 C3509 C 0.78716 0.40977 0.40973
 C3510 C 0.80473 0.41702 0.41697
 H3511 H 0.71125 0.41886 0.39168
 H3512 H 0.74767 0.43469 0.40742
 H3513 H 0.78313 0.39423 0.36605
 H3514 H 0.74674 0.37841 0.35032
 H3515 H 0.72937 0.35677 0.41233
 H3516 H 0.76577 0.37260 0.42806
 C3517 C 0.22812 0.88573 0.38504
 C3518 C 0.24905 0.87915 0.37126
 C3519 C 0.26868 0.88761 0.37972
 C3520 C 0.26547 0.90182 0.40114
 C3521 C 0.25289 0.88634 0.41768
 C3522 C 0.23324 0.87788 0.40922
 C3523 C 0.22864 0.91161 0.38610
 C3524 C 0.24829 0.92007 0.39457
 C3525 C 0.20707 0.87653 0.37584
 C3526 C 0.18994 0.86878 0.36808
 C3527 C 0.28669 0.91083 0.41015
 C3528 C 0.30430 0.91802 0.41736
 H3529 H 0.24850 0.86877 0.35617
 H3530 H 0.28494 0.88446 0.37188
 H3531 H 0.25886 0.88238 0.43456
 H3532 H 0.22240 0.86667 0.41884
 H3533 H 0.21480 0.92234 0.38069
 H3534 H 0.25128 0.93805 0.39642
 C3535 C 0.22854 0.38515 0.88462
 C3536 C 0.22522 0.39945 0.90597
 C3537 C 0.24484 0.40785 0.91457
 C3538 C 0.26584 0.40112 0.90095
 C3539 C 0.26093 0.40892 0.87672
 C3540 C 0.24132 0.40053 0.86813
 C3541 C 0.24560 0.36686 0.89138
 C3542 C 0.26520 0.37525 0.89996
 C3543 C 0.20751 0.37602 0.87528
 C3544 C 0.19040 0.36830 0.86745
 C3545 C 0.28702 0.41007 0.91010
 C3546 C 0.30461 0.41725 0.91739
 H3547 H 0.20891 0.40269 0.91366
 H3548 H 0.24534 0.41828 0.92962
 H3549 H 0.27189 0.42007 0.86715
 H3550 H 0.23548 0.40449 0.85121
 H3551 H 0.24254 0.34888 0.88959
 H3552 H 0.27893 0.36446 0.90553
   
