data_POSCAR
  _audit_creation_date              2014-09-24
  _audit_creation_method            'ToBaCCo'
  _symmetry_space_group_name_H-M    'P1'
  _symmetry_Int_Tables_number       1
  _symmetry_cell_setting            triclinic
  loop_
  _symmetry_equiv_pos_as_xyz
 x,y,z
_cell_length_a 55.0666
_cell_length_b 55.3232
_cell_length_c 55.5449
_cell_angle_alpha 89.752200
_cell_angle_beta 89.533900
_cell_angle_gamma 90.101600
loop_
  _atom_site_label
  _atom_site_type_symbol
  _atom_site_fract_x
  _atom_site_fract_y
  _atom_site_fract_z
N1 N 0.15929 0.22307 0.22676
 N2 N 0.16547 0.20373 0.23907
 C3 C 0.14950 0.20041 0.25724
 C4 C 0.13237 0.21866 0.25640
 C5 C 0.13921 0.23278 0.23680
 H6 H 0.15049 0.18598 0.27037
 H7 H 0.13019 0.24879 0.23018
 Cu8 Cu 0.19395 0.18489 0.23050
 Cu9 Cu 0.17781 0.23408 0.19869
 Cu10 Cu 0.22829 0.20006 0.18259
 N11 N 0.22207 0.16586 0.22115
 N12 N 0.23531 0.17172 0.20222
 C13 C 0.25351 0.15568 0.19980
 C14 C 0.25166 0.13888 0.21829
 C15 C 0.23147 0.14595 0.23148
 H16 H 0.26735 0.15650 0.18589
 H17 H 0.22411 0.13716 0.24735
 N18 N 0.21824 0.22932 0.16497
 N19 N 0.19893 0.24217 0.17089
 C20 C 0.19699 0.26088 0.15540
 C21 C 0.21607 0.25983 0.13904
 C22 C 0.22913 0.23958 0.14570
 H23 H 0.18297 0.27451 0.15619
 H24 H 0.24530 0.23269 0.13699
 H25 H 0.19128 0.20053 0.18953
 H26 H 0.21070 0.21976 0.20911
 N27 N 0.67027 0.73300 0.73260
 N28 N 0.67538 0.71256 0.74353
 C29 C 0.65910 0.70874 0.76133
 C30 C 0.64281 0.72780 0.76161
 C31 C 0.65056 0.74291 0.74310
 H32 H 0.65913 0.69324 0.77322
 H33 H 0.64221 0.75961 0.73734
 Cu34 Cu 0.70249 0.69262 0.73316
 Cu35 Cu 0.68913 0.74466 0.70506
 Cu36 Cu 0.73724 0.70881 0.68580
 N37 N 0.72998 0.67315 0.72289
 N38 N 0.74326 0.67922 0.70404
 C39 C 0.76094 0.66267 0.70097
 C40 C 0.75870 0.64540 0.71901
 C41 C 0.73884 0.65268 0.73255
 H42 H 0.77479 0.66351 0.68708
 H43 H 0.73139 0.64367 0.74825
 N44 N 0.72825 0.73948 0.66990
 N45 N 0.71026 0.75330 0.67752
 C46 C 0.70873 0.77283 0.66307
 C47 C 0.72651 0.77124 0.64541
 C48 C 0.73854 0.74984 0.65033
 H49 H 0.69522 0.78686 0.66484
 H50 H 0.75369 0.74238 0.64039
 H51 H 0.70050 0.71109 0.69329
 H52 H 0.72135 0.72761 0.71383
 N53 N 0.33172 0.77199 0.73109
 N54 N 0.32278 0.78935 0.74456
 C55 C 0.33761 0.79307 0.76333
 C56 C 0.35684 0.77703 0.76163
 C57 C 0.35244 0.76390 0.74095
 H58 H 0.33455 0.80636 0.77723
 H59 H 0.36375 0.74988 0.73333
 Cu60 Cu 0.29265 0.80556 0.73652
 Cu61 Cu 0.31630 0.76185 0.70140
 Cu62 Cu 0.26804 0.79658 0.68201
 N63 N 0.26822 0.82717 0.72360
 N64 N 0.25912 0.82397 0.70208
 C65 C 0.24287 0.84152 0.69762
 C66 C 0.24147 0.85660 0.71755
 C67 C 0.25797 0.84677 0.73369
 H68 H 0.23251 0.84271 0.68123
 H69 H 0.26247 0.85335 0.75138
 N70 N 0.27976 0.76799 0.66442
 N71 N 0.29816 0.75474 0.67184
 C72 C 0.30156 0.73637 0.65638
 C73 C 0.28440 0.73804 0.63836
 C74 C 0.27088 0.75832 0.64409
 H75 H 0.31520 0.72250 0.65837
 H76 H 0.25570 0.76553 0.63419
 H77 H 0.30313 0.79626 0.69508
 H78 H 0.28132 0.77379 0.70845
 N79 N 0.83399 0.28097 0.22671
 N80 N 0.82885 0.30162 0.23712
 C81 C 0.84375 0.30478 0.25593
 C82 C 0.85910 0.28494 0.25762
 C83 C 0.85220 0.27017 0.23865
 H84 H 0.84304 0.32023 0.26773
 H85 H 0.86002 0.25304 0.23353
 Cu86 Cu 0.80275 0.32235 0.22589
 Cu87 Cu 0.81714 0.27001 0.19808
 Cu88 Cu 0.76904 0.30492 0.17860
 N89 N 0.77436 0.34044 0.21559
 N90 N 0.76143 0.33369 0.19702
 C91 C 0.74296 0.34926 0.19401
 C92 C 0.74423 0.36670 0.21175
 C93 C 0.76440 0.36048 0.22516
 H94 H 0.72929 0.34767 0.18025
 H95 H 0.77133 0.36986 0.24070
 N96 N 0.77941 0.27522 0.16221
 N97 N 0.79790 0.26199 0.16943
 C98 C 0.80054 0.24310 0.15438
 C99 C 0.78273 0.24445 0.13698
 C100 C 0.76969 0.26505 0.14255
 H101 H 0.81416 0.22918 0.15616
 H102 H 0.75439 0.27223 0.13280
 H103 H 0.80580 0.30351 0.18630
 H104 H 0.78489 0.28678 0.20724
 N105 N 0.83205 0.72769 0.26857
 N106 N 0.82553 0.70836 0.25656
 C107 C 0.84216 0.70396 0.23926
 C108 C 0.86010 0.72149 0.24037
 C109 C 0.85301 0.73630 0.25922
 H110 H 0.84115 0.68919 0.22664
 H111 H 0.86249 0.75200 0.26587
 Cu112 Cu 0.79610 0.69045 0.26455
 Cu113 Cu 0.81301 0.74003 0.29553
 Cu114 Cu 0.76174 0.70735 0.31189
 N115 N 0.76761 0.67204 0.27464
 N116 N 0.75452 0.67851 0.29340
 C117 C 0.73637 0.66250 0.29672
 C118 C 0.73807 0.64502 0.27902
 C119 C 0.75812 0.65170 0.26530
 H120 H 0.72276 0.66367 0.31079
 H121 H 0.76546 0.64223 0.24990
 N122 N 0.77186 0.73702 0.32845
 N123 N 0.79135 0.74955 0.32232
 C124 C 0.79339 0.76860 0.33724
 C125 C 0.77422 0.76805 0.35361
 C126 C 0.76097 0.74773 0.34734
 H127 H 0.80793 0.78171 0.33639
 H128 H 0.74460 0.74110 0.35592
 H129 H 0.79888 0.70677 0.30514
 H130 H 0.78006 0.72611 0.28490
 N131 N 0.33863 0.21900 -0.22532
 N132 N 0.33347 0.19893 -0.23674
 C133 C 0.34952 0.19598 -0.25494
 C134 C 0.36559 0.21541 -0.25511
 C135 C 0.35792 0.22963 -0.23594
 H136 H 0.34913 0.18104 -0.26738
 H137 H 0.36587 0.24633 -0.22979
 Cu138 Cu 0.30578 0.17899 -0.22720
 Cu139 Cu 0.32038 0.22979 -0.19722
 Cu140 Cu 0.27061 0.19538 -0.18013
 N141 N 0.27682 0.16072 -0.21804
 N142 N 0.26346 0.16708 -0.19942
 C143 C 0.24485 0.15149 -0.19690
 C144 C 0.24646 0.13444 -0.21498
 C145 C 0.26697 0.14091 -0.22814
 H146 H 0.23089 0.15276 -0.18317
 H147 H 0.27426 0.13176 -0.24375
 N148 N 0.28067 0.22465 -0.16283
 N149 N 0.29972 0.23774 -0.16922
 C150 C 0.30183 0.25644 -0.15391
 C151 C 0.28311 0.25514 -0.13714
 C152 C 0.27008 0.23474 -0.14340
 H153 H 0.31572 0.27024 -0.15509
 H154 H 0.25415 0.22765 -0.13433
 H155 H 0.30761 0.19620 -0.18685
 H156 H 0.28801 0.21419 -0.20757
 N157 N 0.66964 0.27354 -0.22884
 N158 N 0.67457 0.29388 -0.24013
 C159 C 0.65858 0.29689 -0.25815
 C160 C 0.64284 0.27718 -0.25831
 C161 C 0.65061 0.26279 -0.23934
 H162 H 0.65873 0.31209 -0.27043
 H163 H 0.64286 0.24590 -0.23318
 Cu164 Cu 0.70198 0.31377 -0.23031
 Cu165 Cu 0.68760 0.26260 -0.20085
 Cu166 Cu 0.73557 0.29838 -0.18226
 N167 N 0.72906 0.33373 -0.21985
 N168 N 0.74197 0.32762 -0.20098
 C169 C 0.75958 0.34415 -0.19776
 C170 C 0.75775 0.36158 -0.21562
 C171 C 0.73814 0.35433 -0.22934
 H172 H 0.77305 0.34323 -0.18374
 H173 H 0.73101 0.36341 -0.24502
 N174 N 0.72614 0.26808 -0.16578
 N175 N 0.70781 0.25456 -0.17289
 C176 C 0.70548 0.23554 -0.15787
 C177 C 0.72322 0.23704 -0.14044
 C178 C 0.73605 0.25790 -0.14608
 H179 H 0.69189 0.22156 -0.15952
 H180 H 0.75115 0.26536 -0.13625
 H181 H 0.69905 0.29647 -0.18996
 H182 H 0.72015 0.27919 -0.20992
 N183 N 0.17102 0.77092 0.27030
 N184 N 0.17738 0.79011 0.25769
 C185 C 0.16203 0.79266 0.23909
 C186 C 0.14524 0.77398 0.24002
 C187 C 0.15158 0.76054 0.26008
 H188 H 0.16310 0.80688 0.22572
 H189 H 0.14249 0.74459 0.26698
 Cu190 Cu 0.20509 0.80983 0.26693
 Cu191 Cu 0.18810 0.76087 0.29922
 Cu192 Cu 0.23704 0.79602 0.31637
 N193 N 0.23289 0.82920 0.27666
 N194 N 0.24476 0.82399 0.29642
 C195 C 0.26245 0.84038 0.29962
 C196 C 0.26196 0.85687 0.28070
 C197 C 0.24287 0.84903 0.26642
 H198 H 0.27495 0.83991 0.31448
 H199 H 0.23637 0.85735 0.25007
 N200 N 0.22652 0.76701 0.33424
 N201 N 0.20772 0.75373 0.32791
 C202 C 0.20524 0.73525 0.34363
 C203 C 0.22348 0.73689 0.36055
 C204 C 0.23660 0.75725 0.35401
 H205 H 0.19152 0.72131 0.34257
 H206 H 0.25228 0.76448 0.36309
 H207 H 0.20049 0.79485 0.30809
 H208 H 0.22122 0.77564 0.28953
 N209 N 0.47692 0.41158 0.47966
 N210 N 0.45771 0.41800 0.49226
 C211 C 0.45488 0.40267 0.51094
 C212 C 0.47330 0.38568 0.51008
 C213 C 0.48701 0.39197 0.48997
 H214 H 0.44053 0.40387 0.52426
 H215 H 0.50288 0.38276 0.48308
 Cu216 Cu 0.43805 0.44558 0.48294
 Cu217 Cu 0.48703 0.42894 0.45065
 Cu218 Cu 0.45202 0.47823 0.43368
 N219 N 0.41860 0.47323 0.47334
 N220 N 0.42400 0.48578 0.45389
 C221 C 0.40769 0.50367 0.45128
 C222 C 0.39117 0.50235 0.47019
 C223 C 0.39871 0.48278 0.48384
 H224 H 0.40810 0.51690 0.43691
 H225 H 0.39021 0.47590 0.50009
 N226 N 0.48104 0.46771 0.41561
 N227 N 0.49423 0.44885 0.42192
 C228 C 0.51259 0.44628 0.40597
 C229 C 0.51097 0.46445 0.38885
 C230 C 0.49075 0.47769 0.39557
 H231 H 0.52636 0.43242 0.40694
 H232 H 0.48349 0.49331 0.38639
 H233 H 0.47245 0.46194 0.46028
 H234 H 0.45301 0.44171 0.44173
 N235 N -0.02440 -0.08788 0.97903
 N236 N -0.04151 -0.07938 0.99327
 C237 C -0.04291 -0.09317 1.01322
 C238 C -0.02583 -0.11141 1.01142
 C239 C -0.01433 -0.10744 0.98946
 H240 H -0.05565 -0.09030 1.02784
 H241 H -0.00030 -0.11839 0.98126
 Cu242 Cu -0.06154 -0.05219 0.98367
 Cu243 Cu -0.01812 -0.07389 0.94730
 Cu244 Cu -0.04118 -0.01594 0.93946
 N245 N -0.07914 -0.02330 0.97436
 N246 N -0.07137 -0.00931 0.95674
 C247 C -0.08653 0.00963 0.95445
 C248 C -0.10474 0.00740 0.97169
 C249 C -0.09943 -0.01373 0.98398
 H250 H -0.08408 0.02423 0.94165
 H251 H -0.10958 -0.02151 0.99885
 N252 N -0.01595 -0.02993 0.91838
 N253 N -0.00756 -0.05209 0.92106
 C254 C 0.00914 -0.05638 0.90378
 C255 C 0.01137 -0.03594 0.88936
 C256 C -0.00492 -0.01957 0.89923
 H257 H 0.01917 -0.07306 0.90213
 H258 H -0.00871 -0.00149 0.89288
 H259 H -0.02433 -0.04118 0.96218
 H260 H -0.04858 -0.05181 0.94147
 N261 N 1.02652 0.58396 0.97571
 N262 N 1.04532 0.57699 0.98839
 C263 C 1.04831 0.59238 1.00688
 C264 C 1.03030 0.60981 1.00580
 C265 C 1.01683 0.60384 0.98575
 H266 H 1.06224 0.59077 1.02039
 H267 H 1.00123 0.61337 0.97884
 Cu268 Cu 1.06355 0.54813 0.97968
 Cu269 Cu 1.01592 0.56691 0.94710
 Cu270 Cu 1.04860 0.51611 0.93054
 N271 N 1.08204 0.51980 0.96990
 N272 N 1.07608 0.50746 0.95066
 C273 C 1.09176 0.48907 0.94779
 C274 C 1.10853 0.48981 0.96623
 C275 C 1.10174 0.50958 0.97996
 H276 H 1.09086 0.47604 0.93339
 H277 H 1.11068 0.51624 0.99586
 N278 N 1.02022 0.52781 0.91250
 N279 N 1.00796 0.54731 0.91872
 C280 C 0.98996 0.55087 0.90286
 C281 C 0.99082 0.53272 0.88580
 C282 C 1.01023 0.51839 0.89254
 H283 H 0.97696 0.56544 0.90382
 H284 H 1.01678 0.50245 0.88339
 H285 H 1.02879 0.53325 0.95709
 H286 H 1.04953 0.55253 0.93837
 N287 N 0.53055 0.08834 0.47248
 N288 N 0.54956 0.08058 0.48437
 C289 C 0.55264 0.09439 0.50399
 C290 C 0.53453 0.11179 0.50446
 C291 C 0.52088 0.10738 0.48408
 H292 H 0.56687 0.09174 0.51703
 H293 H 0.50520 0.11734 0.47794
 Cu294 Cu 0.56864 0.05330 0.47291
 Cu295 Cu 0.52036 0.07310 0.44267
 Cu296 Cu 0.53709 0.01279 0.44080
 N297 N 0.58194 0.02175 0.46521
 N298 N 0.56894 0.00541 0.45394
 C299 C 0.58151 -0.01542 0.45293
 C300 C 0.60377 -0.01165 0.46360
 C301 C 0.60350 0.01211 0.47116
 H302 H 0.57514 -0.03189 0.44465
 H303 H 0.61764 0.02139 0.48090
 N304 N 0.51134 0.02670 0.42042
 N305 N 0.50555 0.04982 0.42069
 C306 C 0.48890 0.05414 0.40366
 C307 C 0.48395 0.03268 0.39184
 C308 C 0.49856 0.01566 0.40305
 H309 H 0.48144 0.07178 0.39988
 H310 H 0.50029 -0.00325 0.39860
 H311 H 0.52733 0.04276 0.46127
 H312 H 0.54792 0.04760 0.43476
 N313 N -0.02892 0.08578 0.52425
 N314 N -0.04892 0.07939 0.51319
 C315 C -0.05338 0.09529 0.49534
 C316 C -0.03516 0.11262 0.49516
 C317 C -0.01997 0.10596 0.51383
 H318 H -0.06831 0.09393 0.48292
 H319 H -0.00352 0.11498 0.51937
 Cu320 Cu -0.06590 0.04994 0.52255
 Cu321 Cu -0.01542 0.06698 0.55081
 Cu322 Cu -0.04458 0.01284 0.56504
 N323 N -0.08257 0.01992 0.53043
 N324 N -0.07325 0.00477 0.54615
 C325 C -0.08736 -0.01511 0.54755
 C326 C -0.10673 -0.01204 0.53215
 C327 C -0.10317 0.01038 0.52162
 H328 H -0.08422 -0.03033 0.55939
 H329 H -0.11462 0.01887 0.50833
 N330 N -0.01555 0.02457 0.58213
 N331 N -0.00474 0.04530 0.57700
 C332 C 0.01354 0.04878 0.59258
 C333 C 0.01431 0.02933 0.60835
 C334 C -0.00440 0.01433 0.60110
 H335 H 0.02534 0.06440 0.59253
 H336 H -0.00998 -0.00246 0.60949
 H337 H -0.02826 0.03413 0.53895
 H338 H -0.04707 0.04996 0.56202
 N339 N 0.47075 0.58790 0.02218
 N340 N 0.45175 0.58158 0.00951
 C341 C 0.44931 0.59716 -0.00904
 C342 C 0.46788 0.61406 -0.00795
 C343 C 0.48110 0.60756 0.01214
 H344 H 0.43536 0.59606 -0.02257
 H345 H 0.49698 0.61657 0.01908
 Cu346 Cu 0.43249 0.55330 0.01833
 Cu347 Cu 0.48079 0.57029 0.05074
 Cu348 Cu 0.44750 0.51939 0.06657
 N349 N 0.41447 0.52420 0.02698
 N350 N 0.42017 0.51124 0.04600
 C351 C 0.40467 0.49248 0.04797
 C352 C 0.38843 0.49363 0.02908
 C353 C 0.39526 0.51400 0.01611
 H354 H 0.40539 0.47882 0.06192
 H355 H 0.38666 0.52101 0.00012
 N356 N 0.47581 0.53069 0.08503
 N357 N 0.48825 0.55025 0.07903
 C358 C 0.50622 0.55346 0.09496
 C359 C 0.50520 0.53503 0.11183
 C360 C 0.48570 0.52086 0.10492
 H361 H 0.51938 0.56795 0.09412
 H362 H 0.47909 0.50472 0.11386
 H363 H 0.46715 0.53706 0.04009
 H364 H 0.44706 0.55597 0.05962
 N365 N 0.52759 -0.08253 0.02402
 N366 N 0.54736 -0.07676 0.01186
 C367 C 0.55002 -0.09222 -0.00667
 C368 C 0.53081 -0.10844 -0.00614
 C369 C 0.51699 -0.10170 0.01364
 H370 H 0.56455 -0.09142 -0.01986
 H371 H 0.50044 -0.11013 0.02008
 Cu372 Cu 0.56717 -0.04919 0.02118
 Cu373 Cu 0.51666 -0.06464 0.05216
 Cu374 Cu 0.55142 -0.01543 0.06901
 N375 N 0.58660 -0.02150 0.03097
 N376 N 0.58029 -0.00854 0.04976
 C377 C 0.59656 0.00931 0.05275
 C378 C 0.61412 0.00757 0.03486
 C379 C 0.60715 -0.01222 0.02130
 H380 H 0.59546 0.02276 0.06676
 H381 H 0.61646 -0.01943 0.00571
 N382 N 0.52162 -0.02529 0.08626
 N383 N 0.50857 -0.04427 0.08009
 C384 C 0.48961 -0.04643 0.09542
 C385 C 0.49068 -0.02785 0.11198
 C386 C 0.51122 -0.01480 0.10558
 H387 H 0.47578 -0.06026 0.09439
 H388 H 0.51820 0.00104 0.11453
 H389 H 0.53206 -0.03207 0.04197
 H390 H 0.55049 -0.05205 0.06190
 N391 N 1.02631 0.41509 0.52132
 N392 N 1.04360 0.42334 0.50705
 C393 C 1.04565 0.40874 0.48782
 C394 C 1.02870 0.39033 0.49016
 C395 C 1.01673 0.39497 0.51168
 H396 H 1.05850 0.41133 0.47322
 H397 H 1.00250 0.38426 0.52001
 Cu398 Cu 1.06234 0.45184 0.51551
 Cu399 Cu 1.01868 0.43030 0.55203
 Cu400 Cu 1.03998 0.48911 0.55748
 N401 N 1.08001 0.48058 0.52525
 N402 N 1.07126 0.49501 0.54192
 C403 C 1.08666 0.51363 0.54498
 C404 C 1.10617 0.51074 0.52936
 C405 C 1.10129 0.48955 0.51710
 H406 H 1.08362 0.52837 0.55737
 H407 H 1.11247 0.48122 0.50337
 N408 N 1.01422 0.47548 0.57827
 N409 N 1.00658 0.45295 0.57659
 C410 C 0.98949 0.44892 0.59360
 C411 C 0.98623 0.46992 0.60680
 C412 C 1.00232 0.48636 0.59648
 H413 H 0.98003 0.43194 0.59596
 H414 H 1.00549 0.50480 0.60196
 H415 H 1.02426 0.46251 0.53561
 H416 H 1.04837 0.45354 0.55729
 C417 C 0.37115 0.00183 0.25019
 C418 C 0.12807 -0.00266 0.74916
 C419 C 0.62463 0.50270 0.24772
 C420 C 0.87219 0.50286 0.74892
 C421 C 0.24975 0.37503 -0.00154
 C422 C 0.75465 0.12378 0.00146
 C423 C 0.25254 0.62082 0.50078
 C424 C 0.74803 0.87934 0.49752
 C425 C -0.00559 0.25072 0.37582
 C426 C 0.00363 0.74684 0.12564
 C427 C 0.50402 0.24604 0.62665
 C428 C 0.49921 0.75430 0.87578
 C429 C 0.07276 0.22894 0.30626
 C430 C 0.08103 0.24834 0.29164
 C431 C 0.10017 0.24482 0.27512
 C432 C 0.11158 0.22224 0.27316
 C433 C 0.10333 0.20307 0.28770
 C434 C 0.08423 0.20631 0.30401
 C435 C 0.05248 0.23349 0.32384
 C436 C 0.04232 0.21520 0.33847
 C437 C 0.02389 0.22041 0.35501
 C438 C 0.01526 0.24422 0.35805
 C439 C 0.02440 0.26217 0.34226
 C440 C 0.04294 0.25711 0.32554
 C441 C 0.07043 0.27123 0.29386
 C442 C 0.05188 0.27555 0.31054
 H443 H 0.07675 0.28612 0.28271
 H444 H 0.04447 0.29364 0.31173
 H445 H 0.10651 0.25988 0.26422
 H446 H 0.11154 0.18536 0.28648
 H447 H 0.01622 0.20539 0.36496
 H448 H 0.01715 0.28035 0.34330
 H449 H 0.07894 0.19091 0.31479
 H450 H 0.04809 0.19664 0.33724
 C451 C 0.58107 0.73618 0.80928
 C452 C 0.58982 0.75612 0.79570
 C453 C 0.60980 0.75329 0.78004
 C454 C 0.62150 0.73084 0.77785
 C455 C 0.61279 0.71120 0.79147
 C456 C 0.59294 0.71378 0.80696
 C457 C 0.55982 0.73992 0.82588
 C458 C 0.54921 0.72102 0.83933
 C459 C 0.52997 0.72544 0.85512
 C460 C 0.52089 0.74902 0.85861
 C461 C 0.53030 0.76758 0.84372
 C462 C 0.54979 0.76333 0.82781
 C463 C 0.57875 0.77879 0.79805
 C464 C 0.55925 0.78234 0.81385
 H465 H 0.58541 0.79409 0.78768
 H466 H 0.55149 0.80028 0.81518
 H467 H 0.61643 0.76873 0.76987
 H468 H 0.62118 0.69359 0.79013
 H469 H 0.52205 0.70998 0.86419
 H470 H 0.52261 0.78557 0.84491
 H471 H 0.58735 0.69799 0.81702
 H472 H 0.55526 0.70257 0.83778
 C473 C 0.41768 0.77057 0.80960
 C474 C 0.41045 0.75071 0.79535
 C475 C 0.39081 0.75303 0.77953
 C476 C 0.37772 0.77473 0.77810
 C477 C 0.38458 0.79419 0.79265
 C478 C 0.40430 0.79221 0.80815
 C479 C 0.43889 0.76744 0.82607
 C480 C 0.44870 0.78655 0.83950
 C481 C 0.46798 0.78263 0.85514
 C482 C 0.47776 0.75932 0.85857
 C483 C 0.46914 0.74062 0.84368
 C484 C 0.44987 0.74443 0.82773
 C485 C 0.42258 0.72856 0.79728
 C486 C 0.44167 0.72540 0.81335
 H487 H 0.41700 0.71330 0.78647
 H488 H 0.45021 0.70780 0.81444
 H489 H 0.38539 0.73770 0.76873
 H490 H 0.37485 0.81115 0.79190
 H491 H 0.47531 0.79824 0.86420
 H492 H 0.47736 0.72287 0.84483
 H493 H 0.40857 0.80775 0.81899
 H494 H 0.44201 0.80480 0.83792
 C495 C -0.08494 0.27309 0.30871
 C496 C -0.09197 0.25441 0.29292
 C497 C -0.11027 0.25849 0.27589
 C498 C -0.12247 0.28084 0.27469
 C499 C -0.11587 0.29899 0.29110
 C500 C -0.09740 0.29524 0.30774
 C501 C -0.06480 0.26828 0.32608
 C502 C -0.05479 0.28635 0.34074
 C503 C -0.03605 0.28103 0.35666
 C504 C -0.02708 0.25727 0.35914
 C505 C -0.03639 0.23947 0.34357
 C506 C -0.05488 0.24478 0.32715
 C507 C -0.08096 0.23165 0.29446
 C508 C -0.06310 0.22682 0.31147
 H509 H -0.08645 0.21722 0.28253
 H510 H -0.05534 0.20884 0.31211
 H511 H -0.11521 0.24390 0.26397
 H512 H -0.12464 0.31645 0.29107
 H513 H -0.02837 0.29597 0.36647
 H514 H -0.02895 0.22135 0.34420
 H515 H -0.09335 0.30987 0.31984
 H516 H -0.06071 0.30489 0.33976
 C517 C -0.07729 0.72840 0.19346
 C518 C -0.08473 0.74803 0.20801
 C519 C -0.10488 0.74558 0.22353
 C520 C -0.11810 0.72385 0.22462
 C521 C -0.11059 0.70444 0.21021
 C522 C -0.09052 0.70663 0.19486
 C523 C -0.05601 0.73191 0.17676
 C524 C -0.04678 0.71336 0.16207
 C525 C -0.02768 0.71779 0.14598
 C526 C -0.01742 0.74107 0.14351
 C527 C -0.02536 0.75906 0.15969
 C528 C -0.04466 0.75483 0.17584
 C529 C -0.07227 0.77010 0.20670
 C530 C -0.05274 0.77346 0.19089
 H531 H -0.07791 0.78515 0.21784
 H532 H -0.04393 0.79099 0.19031
 H533 H -0.11054 0.76084 0.23434
 H534 H -0.12017 0.68736 0.21075
 H535 H -0.02091 0.70261 0.13579
 H536 H -0.01680 0.77672 0.15916
 H537 H -0.08589 0.69111 0.18410
 H538 H -0.05391 0.69522 0.16277
 C539 C 0.42425 0.22959 0.69641
 C540 C 0.41214 0.20704 0.69601
 C541 C 0.39261 0.20249 0.71188
 C542 C 0.38515 0.21991 0.72885
 C543 C 0.39781 0.24202 0.72948
 C544 C 0.41690 0.24684 0.71352
 C545 C 0.44456 0.23400 0.67875
 C546 C 0.45685 0.25623 0.67697
 C547 C 0.47549 0.25955 0.66021
 C548 C 0.48256 0.24100 0.64430
 C549 C 0.47079 0.21840 0.64664
 C550 C 0.45158 0.21504 0.66320
 C551 C 0.41978 0.18906 0.67995
 C552 C 0.43926 0.19286 0.66414
 H553 H 0.41067 0.17168 0.67972
 H554 H 0.44452 0.17830 0.65221
 H555 H 0.38363 0.18510 0.71115
 H556 H 0.39290 0.25608 0.74205
 H557 H 0.48447 0.27698 0.65944
 H558 H 0.47650 0.20315 0.63593
 H559 H 0.42568 0.26419 0.71503
 H560 H 0.45230 0.27144 0.68819
 C561 C 0.58429 0.26269 0.69428
 C562 C 0.59606 0.28542 0.69369
 C563 C 0.61560 0.29009 0.70917
 C564 C 0.62338 0.27257 0.72591
 C565 C 0.61113 0.25022 0.72664
 C566 C 0.59206 0.24531 0.71108
 C567 C 0.56389 0.25819 0.67714
 C568 C 0.55178 0.23586 0.67570
 C569 C 0.53301 0.23250 0.65943
 C570 C 0.52565 0.25108 0.64366
 C571 C 0.53720 0.27379 0.64573
 C572 C 0.55651 0.27722 0.66179
 C573 C 0.58807 0.30347 0.67785
 C574 C 0.56855 0.29955 0.66247
 H575 H 0.59692 0.32098 0.67746
 H576 H 0.56299 0.31417 0.65070
 H577 H 0.62431 0.30763 0.70835
 H578 H 0.61634 0.23605 0.73899
 H579 H 0.52414 0.21501 0.65895
 H580 H 0.53118 0.28911 0.63526
 H581 H 0.58362 0.22778 0.71266
 H582 H 0.55654 0.22062 0.68684
 C583 C 0.08564 0.76030 0.19194
 C584 C 0.09593 0.78371 0.19349
 C585 C 0.11548 0.78801 0.20902
 C586 C 0.12488 0.76935 0.22337
 C587 C 0.11458 0.74622 0.22185
 C588 C 0.09531 0.74168 0.20633
 C589 C 0.06484 0.75646 0.17508
 C590 C 0.05330 0.73395 0.17229
 C591 C 0.03405 0.73129 0.15637
 C592 C 0.02580 0.75077 0.14221
 C593 C 0.03668 0.77359 0.14582
 C594 C 0.05623 0.77642 0.16166
 C595 C 0.08657 0.80272 0.17969
 C596 C 0.06710 0.79918 0.16421
 H597 H 0.09437 0.82066 0.18092
 H598 H 0.06051 0.81451 0.15397
 H599 H 0.12307 0.80605 0.21019
 H600 H 0.12158 0.73140 0.23250
 H601 H 0.02553 0.71371 0.15493
 H602 H 0.02982 0.78949 0.13681
 H603 H 0.08832 0.72349 0.20595
 H604 H 0.05874 0.71813 0.18225
 C605 C 0.29978 0.07931 0.23333
 C606 C 0.29884 0.08951 0.20994
 C607 C 0.28309 0.10886 0.20514
 C608 C 0.26802 0.11825 0.22331
 C609 C 0.26880 0.10793 0.24639
 C610 C 0.28448 0.08879 0.25140
 C611 C 0.31727 0.05905 0.23783
 C612 C 0.31961 0.04768 0.26040
 C613 C 0.33670 0.02947 0.26386
 C614 C 0.35246 0.02214 0.24516
 C615 C 0.34894 0.03239 0.22213
 C616 C 0.33199 0.05097 0.21852
 C617 C 0.31366 0.08043 0.19149
 C618 C 0.32982 0.06154 0.19567
 H619 H 0.31286 0.08814 0.17354
 H620 H 0.34099 0.05528 0.18081
 H621 H 0.28248 0.11646 0.18714
 H622 H 0.25758 0.11489 0.26085
 H623 H 0.33800 0.02125 0.28154
 H624 H 0.35911 0.02597 0.20672
 H625 H 0.28439 0.08186 0.26956
 H626 H 0.30854 0.05261 0.27569
 C627 C 0.80480 0.58404 0.73311
 C628 C 0.80333 0.59383 0.70957
 C629 C 0.78840 0.61393 0.70505
 C630 C 0.77453 0.62428 0.72363
 C631 C 0.77582 0.61432 0.74684
 C632 C 0.79076 0.59458 0.75158
 C633 C 0.82134 0.56295 0.73732
 C634 C 0.82436 0.55223 0.76011
 C635 C 0.84047 0.53312 0.76326
 C636 C 0.85455 0.52412 0.74400
 C637 C 0.85033 0.53382 0.72085
 C638 C 0.83444 0.55341 0.71754
 C639 C 0.81668 0.58346 0.69070
 C640 C 0.83176 0.56360 0.69457
 H641 H 0.81547 0.59082 0.67264
 H642 H 0.84174 0.55630 0.67936
 H643 H 0.78735 0.62129 0.68698
 H644 H 0.76552 0.62204 0.76160
 H645 H 0.84234 0.52548 0.78114
 H646 H 0.85916 0.52624 0.70517
 H647 H 0.79101 0.58794 0.76985
 H648 H 0.81463 0.55837 0.77583
 C649 C 0.80541 0.42269 0.77290
 C650 C 0.79063 0.41413 0.75402
 C651 C 0.77486 0.39449 0.75797
 C652 C 0.77380 0.38283 0.78046
 C653 C 0.78856 0.39130 0.79909
 C654 C 0.80413 0.41094 0.79543
 C655 C 0.82217 0.44356 0.76787
 C656 C 0.83679 0.45414 0.78564
 C657 C 0.85265 0.47305 0.77991
 C658 C 0.85500 0.48173 0.75608
 C659 C 0.83908 0.47225 0.73872
 C660 C 0.82306 0.45325 0.74429
 C661 C 0.79197 0.42493 0.73119
 C662 C 0.80794 0.44396 0.72639
 H663 H 0.78069 0.41837 0.71670
 H664 H 0.80849 0.45150 0.70835
 H665 H 0.76385 0.38797 0.74329
 H666 H 0.78807 0.38283 0.81668
 H667 H 0.86264 0.48103 0.79453
 H668 H 0.83952 0.47957 0.72058
 H669 H 0.81515 0.41642 0.81041
 H670 H 0.83607 0.44830 0.80417
 C671 C 0.30833 -0.08233 0.27038
 C672 C 0.29251 -0.08967 0.25186
 C673 C 0.27690 -0.10954 0.25546
 C674 C 0.27737 -0.12299 0.27707
 C675 C 0.29383 -0.11595 0.29500
 C676 C 0.30896 -0.09597 0.29178
 C677 C 0.32421 -0.06070 0.26616
 C678 C 0.33850 -0.05045 0.28433
 C679 C 0.35335 -0.03057 0.27952
 C680 C 0.35517 -0.02058 0.25614
 C681 C 0.33956 -0.02989 0.23838
 C682 C 0.32420 -0.04965 0.24319
 C683 C 0.29274 -0.07743 0.22971
 C684 C 0.30855 -0.05813 0.22532
 H685 H 0.28080 -0.08311 0.21538
 H686 H 0.30831 -0.04951 0.20776
 H687 H 0.26490 -0.11474 0.24103
 H688 H 0.29502 -0.12557 0.31192
 H689 H 0.36287 -0.02288 0.29458
 H690 H 0.33947 -0.02161 0.22065
 H691 H 0.32125 -0.09173 0.30618
 H692 H 0.33804 -0.05714 0.30260
 C693 C 0.19504 -0.08277 0.72741
 C694 C 0.20915 -0.09157 0.74669
 C695 C 0.22486 -0.11125 0.74320
 C696 C 0.22631 -0.12308 0.72081
 C697 C 0.21189 -0.11437 0.70186
 C698 C 0.19658 -0.09455 0.70505
 C699 C 0.17848 -0.06175 0.73189
 C700 C 0.16511 -0.05049 0.71353
 C701 C 0.14925 -0.03155 0.71873
 C702 C 0.14555 -0.02361 0.74259
 C703 C 0.16039 -0.03367 0.76062
 C704 C 0.17658 -0.05256 0.75553
 C705 C 0.20710 -0.08105 0.76952
 C706 C 0.19093 -0.06218 0.77392
 H707 H 0.21784 -0.08780 0.78436
 H708 H 0.18969 -0.05497 0.79200
 H709 H 0.23538 -0.11761 0.75831
 H710 H 0.21231 -0.12266 0.68428
 H711 H 0.14027 -0.02303 0.70372
 H712 H 0.15901 -0.02688 0.77886
 H713 H 0.18585 -0.08900 0.68986
 H714 H 0.16690 -0.05577 0.69494
 C715 C 0.69416 0.42546 0.22353
 C716 C 0.70905 0.41707 0.24246
 C717 C 0.72560 0.39821 0.23841
 C718 C 0.72730 0.38710 0.21579
 C719 C 0.71236 0.39529 0.19714
 C720 C 0.69604 0.41421 0.20088
 C721 C 0.67666 0.44557 0.22863
 C722 C 0.66201 0.45609 0.21080
 C723 C 0.64550 0.47432 0.21656
 C724 C 0.64250 0.48230 0.24049
 C725 C 0.65837 0.47287 0.25798
 C726 C 0.67510 0.45462 0.25234
 C727 C 0.70703 0.42726 0.26543
 C728 C 0.69028 0.44548 0.27031
 H729 H 0.71838 0.42082 0.27996
 H730 H 0.68922 0.45255 0.28846
 H731 H 0.73674 0.39182 0.25310
 H732 H 0.71333 0.38717 0.17946
 H733 H 0.63550 0.48232 0.20191
 H734 H 0.65738 0.47966 0.27624
 H735 H 0.68493 0.41953 0.18588
 H736 H 0.66323 0.45077 0.19218
 C737 C 0.69046 0.58389 0.26905
 C738 C 0.70455 0.59297 0.24958
 C739 C 0.72029 0.61264 0.25303
 C740 C 0.72188 0.62391 0.27556
 C741 C 0.70763 0.61510 0.29471
 C742 C 0.69217 0.59536 0.29158
 C743 C 0.67394 0.56281 0.26464
 C744 C 0.66041 0.55144 0.28307
 C745 C 0.64479 0.53226 0.27798
 C746 C 0.64154 0.52413 0.25418
 C747 C 0.65637 0.53450 0.23603
 C748 C 0.67226 0.55367 0.24099
 C749 C 0.70252 0.58265 0.22670
 C750 C 0.68655 0.56359 0.22244
 H751 H 0.71323 0.58963 0.21175
 H752 H 0.68542 0.55646 0.20434
 H753 H 0.73088 0.61952 0.23795
 H754 H 0.70852 0.62334 0.31232
 H755 H 0.63571 0.52367 0.29306
 H756 H 0.65525 0.52767 0.21780
 H757 H 0.68155 0.58957 0.30695
 H758 H 0.66188 0.55679 0.30164
 C759 C 0.19660 0.07558 0.77283
 C760 C 0.21125 0.08459 0.75373
 C761 C 0.22781 0.10347 0.75787
 C762 C 0.22963 0.11400 0.78074
 C763 C 0.21487 0.10521 0.79953
 C764 C 0.19861 0.08628 0.79569
 C765 C 0.17920 0.05540 0.76770
 C766 C 0.16500 0.04418 0.78572
 C767 C 0.14872 0.02578 0.78005
 C768 C 0.14541 0.01829 0.75604
 C769 C 0.16082 0.02849 0.73826
 C770 C 0.17739 0.04692 0.74382
 C771 C 0.20900 0.07498 0.73056
 C772 C 0.19228 0.05672 0.72567
 H773 H 0.22013 0.08191 0.71589
 H774 H 0.19104 0.05010 0.70738
 H775 H 0.23883 0.11034 0.74311
 H776 H 0.21594 0.11285 0.81739
 H777 H 0.13921 0.01717 0.79486
 H778 H 0.15973 0.02202 0.71990
 H779 H 0.18764 0.08051 0.81083
 H780 H 0.16648 0.04901 0.80444
 C781 C 0.23246 0.30850 0.08012
 C782 C 0.20866 0.30729 0.08991
 C783 C 0.20346 0.29158 0.10924
 C784 C 0.22160 0.27672 0.11892
 C785 C 0.24514 0.27797 0.10916
 C786 C 0.25056 0.29364 0.09012
 C787 C 0.23726 0.32547 0.05948
 C788 C 0.26019 0.32780 0.04835
 C789 C 0.26373 0.34379 0.02918
 C790 C 0.24477 0.35850 0.02060
 C791 C 0.22152 0.35537 0.03108
 C792 C 0.21780 0.33943 0.05055
 C793 C 0.19018 0.32164 0.08026
 C794 C 0.19462 0.33729 0.06097
 H795 H 0.17194 0.32071 0.08769
 H796 H 0.17966 0.34795 0.05414
 H797 H 0.18513 0.29066 0.11644
 H798 H 0.25960 0.26698 0.11642
 H799 H 0.28161 0.34483 0.02095
 H800 H 0.20596 0.36478 0.02393
 H801 H 0.26903 0.29378 0.08355
 H802 H 0.27567 0.31740 0.05402
 C803 C 0.73752 0.82006 0.58544
 C804 C 0.74642 0.79608 0.58451
 C805 C 0.74327 0.78049 0.60430
 C806 C 0.73085 0.78817 0.62505
 C807 C 0.72200 0.81193 0.62592
 C808 C 0.72531 0.82769 0.60645
 C809 C 0.74088 0.83595 0.56370
 C810 C 0.73386 0.86041 0.56310
 C811 C 0.73647 0.87410 0.54204
 C812 C 0.74536 0.86370 0.52060
 C813 C 0.75432 0.83984 0.52188
 C814 C 0.75186 0.82595 0.54293
 C815 C 0.75793 0.78758 0.56364
 C816 C 0.76043 0.80213 0.54325
 H817 H 0.76476 0.76923 0.56291
 H818 H 0.76910 0.79455 0.52741
 H819 H 0.74989 0.76210 0.60319
 H820 H 0.71250 0.81845 0.64173
 H821 H 0.73109 0.89291 0.54234
 H822 H 0.76348 0.83190 0.50653
 H823 H 0.71786 0.84563 0.60811
 H824 H 0.72643 0.86937 0.57870
 C825 C 0.75967 0.81613 0.41320
 C826 C 0.77885 0.82124 0.39685
 C827 C 0.78337 0.80574 0.37731
 C828 C 0.76916 0.78490 0.37385
 C829 C 0.75017 0.78002 0.39018
 C830 C 0.74548 0.79531 0.40952
 C831 C 0.75569 0.83280 0.43407
 C832 C 0.73667 0.82961 0.45084
 C833 C 0.73440 0.84483 0.47060
 C834 C 0.75124 0.86353 0.47479
 C835 C 0.76907 0.86802 0.45692
 C836 C 0.77164 0.85262 0.43697
 C837 C 0.79359 0.84159 0.40031
 C838 C 0.79013 0.85688 0.41997
 H839 H 0.80827 0.84560 0.38779
 H840 H 0.80226 0.87217 0.42200
 H841 H 0.79810 0.80993 0.36495
 H842 H 0.73888 0.76415 0.38834
 H843 H 0.71961 0.84159 0.48317
 H844 H 0.78103 0.88348 0.45833
 H845 H 0.73082 0.79025 0.42150
 H846 H 0.72335 0.81544 0.44916
 C847 C 0.26734 0.30434 -0.07895
 C848 C 0.29094 0.30336 -0.08919
 C849 C 0.29598 0.28736 -0.10817
 C850 C 0.27784 0.27204 -0.11711
 C851 C 0.25452 0.27296 -0.10681
 C852 C 0.24928 0.28889 -0.08808
 C853 C 0.26263 0.32190 -0.05893
 C854 C 0.23987 0.32418 -0.04751
 C855 C 0.23626 0.34111 -0.02934
 C856 C 0.25501 0.35679 -0.02208
 C857 C 0.27822 0.35351 -0.03254
 C858 C 0.28198 0.33666 -0.05107
 C859 C 0.30938 0.31833 -0.08043
 C860 C 0.30502 0.33456 -0.06175
 H861 H 0.32749 0.31755 -0.08818
 H862 H 0.31990 0.34579 -0.05571
 H863 H 0.31415 0.28668 -0.11577
 H864 H 0.24007 0.26158 -0.11345
 H865 H 0.21845 0.34228 -0.02101
 H866 H 0.29366 0.36369 -0.02623
 H867 H 0.23095 0.28882 -0.08112
 H868 H 0.22453 0.31313 -0.05231
 C869 C 0.73388 0.18806 -0.08077
 C870 C 0.75300 0.20338 -0.08866
 C871 C 0.74940 0.21944 -0.10798
 C872 C 0.72705 0.22026 -0.11994
 C873 C 0.70829 0.20477 -0.11229
 C874 C 0.71160 0.18891 -0.09302
 C875 C 0.73833 0.17142 -0.05990
 C876 C 0.72008 0.15665 -0.04974
 C877 C 0.72506 0.14136 -0.03040
 C878 C 0.74865 0.13965 -0.02081
 C879 C 0.76657 0.15545 -0.03019
 C880 C 0.76168 0.17103 -0.04956
 C881 C 0.77565 0.20238 -0.07739
 C882 C 0.77995 0.18643 -0.05839
 H883 H 0.79034 0.21401 -0.08346
 H884 H 0.79783 0.18625 -0.05038
 H885 H 0.76418 0.23102 -0.11392
 H886 H 0.69080 0.20503 -0.12101
 H887 H 0.70995 0.13147 -0.02271
 H888 H 0.78450 0.15550 -0.02226
 H889 H 0.69651 0.17741 -0.08814
 H890 H 0.70164 0.15698 -0.05611
 C891 C 0.23789 0.68858 0.41991
 C892 C 0.21429 0.69011 0.41008
 C893 C 0.20974 0.70574 0.39063
 C894 C 0.22832 0.72028 0.38094
 C895 C 0.25161 0.71892 0.39087
 C896 C 0.25640 0.70325 0.40999
 C897 C 0.24204 0.67145 0.44048
 C898 C 0.26481 0.66844 0.45138
 C899 C 0.26776 0.65217 0.47037
 C900 C 0.24829 0.63791 0.47901
 C901 C 0.22521 0.64180 0.46880
 C902 C 0.22211 0.65792 0.44947
 C903 C 0.19534 0.67615 0.41979
 C904 C 0.19913 0.66053 0.43914
 H905 H 0.17724 0.67738 0.41236
 H906 H 0.18382 0.65018 0.44602
 H907 H 0.19159 0.70684 0.38332
 H908 H 0.26636 0.72975 0.38363
 H909 H 0.28556 0.65051 0.47836
 H910 H 0.20930 0.63275 0.47597
 H911 H 0.27472 0.70297 0.41670
 H912 H 0.28064 0.67843 0.44558
 C913 C 0.27432 0.68883 0.57917
 C914 C 0.25530 0.70441 0.58645
 C915 C 0.25880 0.72063 0.60550
 C916 C 0.28095 0.72136 0.61784
 C917 C 0.29968 0.70576 0.61069
 C918 C 0.29648 0.68973 0.59165
 C919 C 0.26981 0.67170 0.55884
 C920 C 0.28786 0.65636 0.54947
 C921 C 0.28264 0.64021 0.53101
 C922 C 0.25899 0.63827 0.52157
 C923 C 0.24142 0.65489 0.52982
 C924 C 0.24651 0.67123 0.54837
 C925 C 0.23278 0.70346 0.57493
 C926 C 0.22843 0.68711 0.55642
 H927 H 0.21818 0.71535 0.58050
 H928 H 0.21061 0.68689 0.54828
 H929 H 0.24401 0.73230 0.61102
 H930 H 0.31702 0.70597 0.61973
 H931 H 0.29756 0.62968 0.52397
 H932 H 0.22350 0.65478 0.52187
 H933 H 0.31152 0.67808 0.58720
 H934 H 0.30628 0.65673 0.55589
 C935 C 0.76929 0.19522 0.07854
 C936 C 0.79263 0.19667 0.08894
 C937 C 0.79689 0.21263 0.10807
 C938 C 0.77826 0.22751 0.11691
 C939 C 0.75523 0.22620 0.10640
 C940 C 0.75074 0.21026 0.08756
 C941 C 0.76537 0.17762 0.05846
 C942 C 0.74283 0.17466 0.04709
 C943 C 0.73992 0.15758 0.02897
 C944 C 0.75919 0.14248 0.02168
 C945 C 0.78218 0.14653 0.03202
 C946 C 0.78521 0.16344 0.05057
 C947 C 0.81158 0.18224 0.08017
 C948 C 0.80798 0.16609 0.06133
 H949 H 0.82950 0.18343 0.08802
 H950 H 0.82324 0.15529 0.05527
 H951 H 0.81485 0.21368 0.11585
 H952 H 0.74044 0.23728 0.11297
 H953 H 0.72223 0.15579 0.02078
 H954 H 0.79797 0.13678 0.02573
 H955 H 0.73260 0.21001 0.08042
 H956 H 0.72711 0.18519 0.05196
 C957 C 0.48367 0.32614 0.55940
 C958 C 0.50301 0.33399 0.54436
 C959 C 0.49953 0.35324 0.52813
 C960 C 0.47704 0.36511 0.52687
 C961 C 0.45801 0.35735 0.54197
 C962 C 0.46122 0.33821 0.55800
 C963 C 0.48804 0.30555 0.57645
 C964 C 0.46964 0.29571 0.59119
 C965 C 0.47458 0.27691 0.60714
 C966 C 0.49826 0.26751 0.60955
 C967 C 0.51632 0.27633 0.59358
 C968 C 0.51150 0.29531 0.57740
 C969 C 0.52576 0.32277 0.54584
 C970 C 0.52995 0.30395 0.56210
 H971 H 0.54063 0.32877 0.53438
 H972 H 0.54792 0.29602 0.56268
 H973 H 0.51451 0.35921 0.51681
 H974 H 0.44039 0.36593 0.54136
 H975 H 0.45934 0.26957 0.61713
 H976 H 0.53433 0.26846 0.59400
 H977 H 0.44590 0.33333 0.56921
 H978 H 0.45113 0.30196 0.59047
 C979 C -0.01562 0.82937 0.06107
 C980 C 0.00344 0.83646 0.04530
 C981 C 0.00001 0.85567 0.02900
 C982 C -0.02203 0.86838 0.02857
 C983 C -0.04061 0.86167 0.04469
 C984 C -0.03752 0.84247 0.06070
 C985 C -0.01152 0.80842 0.07774
 C986 C -0.02998 0.79867 0.09250
 C987 C -0.02536 0.77922 0.10781
 C988 C -0.00190 0.76916 0.10960
 C989 C 0.01621 0.77808 0.09374
 C990 C 0.01164 0.79748 0.07802
 C991 C 0.02585 0.82454 0.04610
 C992 C 0.02995 0.80567 0.06232
 H993 H 0.04053 0.83003 0.03416
 H994 H 0.04768 0.79718 0.06238
 H995 H 0.01466 0.86095 0.01693
 H996 H -0.05784 0.87104 0.04477
 H997 H -0.04065 0.77184 0.11767
 H998 H 0.03402 0.76973 0.09370
 H999 H -0.05245 0.83834 0.07270
 H1000 H -0.04834 0.80539 0.09210
 C1001 C 0.01730 0.66881 0.05479
 C1002 C 0.04063 0.65823 0.05298
 C1003 C 0.04476 0.63896 0.03706
 C1004 C 0.02599 0.63013 0.02258
 C1005 C 0.00296 0.64082 0.02422
 C1006 C -0.00139 0.65981 0.04012
 C1007 C 0.01354 0.68904 0.07233
 C1008 C -0.00895 0.70065 0.07559
 C1009 C -0.01165 0.71898 0.09254
 C1010 C 0.00778 0.72620 0.10725
 C1011 C 0.03069 0.71557 0.10291
 C1012 C 0.03353 0.69686 0.08611
 C1013 C 0.05972 0.66694 0.06703
 C1014 C 0.05628 0.68590 0.08314
 H1015 H 0.07762 0.65895 0.06559
 H1016 H 0.07164 0.69191 0.09364
 H1017 H 0.06271 0.63106 0.03577
 H1018 H -0.01194 0.63427 0.01346
 H1019 H -0.02927 0.72743 0.09450
 H1020 H 0.04661 0.72184 0.11229
 H1021 H -0.01953 0.66709 0.04065
 H1022 H -0.02476 0.69585 0.06534
 C1023 C 0.52400 0.16781 0.55741
 C1024 C 0.50472 0.16092 0.54221
 C1025 C 0.50827 0.14277 0.52489
 C1026 C 0.53076 0.13099 0.52268
 C1027 C 0.54966 0.13757 0.53812
 C1028 C 0.54639 0.15568 0.55523
 C1029 C 0.51962 0.18755 0.57534
 C1030 C 0.53805 0.19680 0.59004
 C1031 C 0.53321 0.21517 0.60647
 C1032 C 0.50958 0.22465 0.60946
 C1033 C 0.49141 0.21618 0.59380
 C1034 C 0.49618 0.19780 0.57702
 C1035 C 0.48197 0.17202 0.54453
 C1036 C 0.47773 0.18991 0.56169
 H1037 H 0.46713 0.16669 0.53298
 H1038 H 0.45977 0.19782 0.56284
 H1039 H 0.49336 0.13762 0.51340
 H1040 H 0.56722 0.12891 0.53686
 H1041 H 0.54852 0.22221 0.61626
 H1042 H 0.47342 0.22407 0.59472
 H1043 H 0.56161 0.15977 0.56660
 H1044 H 0.55654 0.19053 0.58882
 C1045 C -0.02607 0.17165 0.44469
 C1046 C -0.00629 0.16360 0.45872
 C1047 C -0.00945 0.14460 0.47531
 C1048 C -0.03206 0.13309 0.47805
 C1049 C -0.05159 0.14103 0.46403
 C1050 C -0.04870 0.16002 0.44760
 C1051 C -0.02187 0.19195 0.42712
 C1052 C -0.04048 0.20196 0.41303
 C1053 C -0.03560 0.22060 0.39664
 C1054 C -0.01181 0.22958 0.39326
 C1055 C 0.00652 0.22038 0.40834
 C1056 C 0.00178 0.20171 0.42490
 C1057 C 0.01662 0.17434 0.45591
 C1058 C 0.02059 0.19289 0.43928
 H1059 H 0.03179 0.16817 0.46660
 H1060 H 0.03871 0.20046 0.43766
 H1061 H 0.00593 0.13850 0.48572
 H1062 H -0.06929 0.13266 0.46579
 H1063 H -0.05084 0.22813 0.38710
 H1064 H 0.02473 0.22777 0.40691
 H1065 H -0.06437 0.16515 0.43727
 H1066 H -0.05905 0.19592 0.41459
 C1067 C 0.48285 0.67370 0.94384
 C1068 C 0.45932 0.66340 0.94503
 C1069 C 0.45455 0.64385 0.96063
 C1070 C 0.47288 0.63445 0.97535
 C1071 C 0.49615 0.64475 0.97415
 C1072 C 0.50114 0.66401 0.95861
 C1073 C 0.48725 0.69444 0.92687
 C1074 C 0.50992 0.70599 0.92452
 C1075 C 0.51323 0.72493 0.90822
 C1076 C 0.49427 0.73288 0.89326
 C1077 C 0.47117 0.72220 0.89659
 C1078 C 0.46770 0.70290 0.91281
 C1079 C 0.44068 0.67271 0.93071
 C1080 C 0.44477 0.69206 0.91501
 H1081 H 0.42263 0.66490 0.93164
 H1082 H 0.42973 0.69855 0.90431
 H1083 H 0.43643 0.63622 0.96152
 H1084 H 0.51076 0.63773 0.98504
 H1085 H 0.53097 0.73336 0.90700
 H1086 H 0.45559 0.72895 0.88696
 H1087 H 0.51943 0.67096 0.95846
 H1088 H 0.52542 0.70074 0.93504
 C1089 C 0.51549 0.83362 0.94440
 C1090 C 0.53923 0.84332 0.94593
 C1091 C 0.54413 0.86226 0.96198
 C1092 C 0.52569 0.87169 0.97679
 C1093 C 0.50221 0.86200 0.97523
 C1094 C 0.49711 0.84332 0.95926
 C1095 C 0.51099 0.81346 0.92701
 C1096 C 0.48816 0.80239 0.92443
 C1097 C 0.48485 0.78379 0.90794
 C1098 C 0.50397 0.77578 0.89297
 C1099 C 0.52716 0.78607 0.89643
 C1100 C 0.53065 0.80496 0.91289
 C1101 C 0.55795 0.83402 0.93150
 C1102 C 0.55377 0.81524 0.91538
 H1103 H 0.57615 0.84139 0.93267
 H1104 H 0.56888 0.80871 0.90463
 H1105 H 0.56241 0.86941 0.96312
 H1106 H 0.48751 0.86905 0.98616
 H1107 H 0.46704 0.77558 0.90671
 H1108 H 0.54283 0.77919 0.88686
 H1109 H 0.47866 0.83683 0.95886
 H1110 H 0.47257 0.80766 0.93501
 C1111 C 0.01742 0.33067 0.44174
 C1112 C -0.00148 0.33834 0.45734
 C1113 C 0.00241 0.35759 0.47329
 C1114 C 0.02474 0.36984 0.47356
 C1115 C 0.04325 0.36253 0.45772
 C1116 C 0.03971 0.34320 0.44206
 C1117 C 0.01263 0.30991 0.42517
 C1118 C 0.03070 0.29971 0.41035
 C1119 C 0.02523 0.28080 0.39474
 C1120 C 0.00133 0.27180 0.39281
 C1121 C -0.01632 0.28094 0.40891
 C1122 C -0.01094 0.29979 0.42484
 C1123 C -0.02425 0.32705 0.45664
 C1124 C -0.02896 0.30839 0.44053
 H1125 H -0.03878 0.33297 0.46849
 H1126 H -0.04699 0.30049 0.44044
 H1127 H -0.01220 0.36335 0.48512
 H1128 H 0.06069 0.37159 0.45755
 H1129 H 0.04013 0.27313 0.38462
 H1130 H -0.03451 0.27340 0.40877
 H1131 H 0.05458 0.33856 0.43020
 H1132 H 0.04931 0.30577 0.41080
 C1133 C 0.33085 0.54998 0.48471
 C1134 C 0.34105 0.54859 0.46128
 C1135 C 0.36061 0.53299 0.45665
 C1136 C 0.37029 0.51854 0.47505
 C1137 C 0.36000 0.51980 0.49819
 C1138 C 0.34062 0.53531 0.50302
 C1139 C 0.31033 0.56728 0.48901
 C1140 C 0.29886 0.56994 0.51157
 C1141 C 0.28043 0.58689 0.51483
 C1142 C 0.27301 0.60220 0.49593
 C1143 C 0.28332 0.59830 0.47292
 C1144 C 0.30209 0.58147 0.46950
 C1145 C 0.33176 0.56285 0.44263
 C1146 C 0.31268 0.57890 0.44663
 H1147 H 0.33947 0.56172 0.42465
 H1148 H 0.30629 0.58966 0.43162
 H1149 H 0.36817 0.53202 0.43861
 H1150 H 0.36718 0.50907 0.51282
 H1151 H 0.27213 0.58845 0.53250
 H1152 H 0.27680 0.60809 0.45739
 H1153 H 0.33374 0.53562 0.52124
 H1154 H 0.30385 0.55922 0.52700
 C1155 C 0.83609 0.05625 -0.01361
 C1156 C 0.84654 0.05510 -0.03696
 C1157 C 0.86604 0.03938 -0.04158
 C1158 C 0.87500 0.02426 -0.02338
 C1159 C 0.86437 0.02517 -0.00039
 C1160 C 0.84529 0.04099 0.00452
 C1161 C 0.81552 0.07350 -0.00934
 C1162 C 0.80432 0.07645 0.01332
 C1163 C 0.78524 0.09268 0.01636
 C1164 C 0.77674 0.10696 -0.00288
 C1165 C 0.78737 0.10328 -0.02581
 C1166 C 0.80688 0.08725 -0.02898
 C1167 C 0.83730 0.06941 -0.05560
 C1168 C 0.81775 0.08494 -0.05176
 H1169 H 0.84518 0.06845 -0.07351
 H1170 H 0.81119 0.09550 -0.06684
 H1171 H 0.87390 0.03858 -0.05952
 H1172 H 0.87103 0.01383 0.01405
 H1173 H 0.77700 0.09426 0.03406
 H1174 H 0.78039 0.11241 -0.04152
 H1175 H 0.83798 0.04086 0.02258
 H1176 H 0.80999 0.06644 0.02898
 C1177 C 0.67519 0.05557 0.02411
 C1178 C 0.66740 0.04038 0.00523
 C1179 C 0.64776 0.02447 0.00891
 C1180 C 0.63541 0.02366 0.03112
 C1181 C 0.64326 0.03873 0.04977
 C1182 C 0.66281 0.05445 0.04637
 C1183 C 0.69593 0.07258 0.01937
 C1184 C 0.70552 0.08780 0.03716
 C1185 C 0.72421 0.10399 0.03172
 C1186 C 0.73373 0.10608 0.00813
 C1187 C 0.72536 0.08950 -0.00920
 C1188 C 0.70646 0.07319 -0.00391
 C1189 C 0.67900 0.04145 -0.01730
 C1190 C 0.69803 0.05757 -0.02180
 H1191 H 0.67308 0.02983 -0.03179
 H1192 H 0.70619 0.05790 -0.03962
 H1193 H 0.64179 0.01314 -0.00577
 H1194 H 0.63434 0.03841 0.06719
 H1195 H 0.73134 0.11449 0.04641
 H1196 H 0.73336 0.08974 -0.02710
 H1197 H 0.66772 0.06570 0.06137
 H1198 H 0.69904 0.08738 0.05552
 C1199 C 0.16803 0.55792 0.52034
 C1200 C 0.16067 0.54263 0.50138
 C1201 C 0.14069 0.52710 0.50454
 C1202 C 0.12740 0.52694 0.52621
 C1203 C 0.13436 0.54253 0.54476
 C1204 C 0.15442 0.55778 0.54194
 C1205 C 0.18971 0.57394 0.51636
 C1206 C 0.19968 0.58833 0.53462
 C1207 C 0.21966 0.60323 0.52997
 C1208 C 0.23002 0.60491 0.50670
 C1209 C 0.22092 0.58932 0.48885
 C1210 C 0.20101 0.57407 0.49343
 C1211 C 0.17304 0.54319 0.47925
 C1212 C 0.19259 0.55879 0.47527
 H1213 H 0.16734 0.53160 0.46466
 H1214 H 0.20138 0.55875 0.45773
 H1215 H 0.13519 0.51551 0.48988
 H1216 H 0.12445 0.54279 0.56166
 H1217 H 0.22711 0.61294 0.54503
 H1218 H 0.22941 0.58925 0.47117
 H1219 H 0.15879 0.56945 0.55680
 H1220 H 0.19265 0.58800 0.55280
 C1221 C 0.16872 0.44111 -0.02289
 C1222 C 0.16041 0.45595 -0.00384
 C1223 C 0.14094 0.47193 -0.00751
 C1224 C 0.12928 0.47319 -0.02989
 C1225 C 0.13747 0.45826 -0.04861
 C1226 C 0.15685 0.44246 -0.04522
 C1227 C 0.18957 0.42435 -0.01830
 C1228 C 0.19991 0.40982 -0.03637
 C1229 C 0.21896 0.39414 -0.03120
 C1230 C 0.22808 0.39180 -0.00763
 C1231 C 0.21878 0.40759 0.01007
 C1232 C 0.19957 0.42347 0.00504
 C1233 C 0.17140 0.45455 0.01879
 C1234 C 0.19045 0.43856 0.02317
 H1235 H 0.16505 0.46585 0.03342
 H1236 H 0.19819 0.43802 0.04104
 H1237 H 0.13465 0.48308 0.00726
 H1238 H 0.12904 0.45885 -0.06613
 H1239 H 0.22675 0.38429 -0.04612
 H1240 H 0.22646 0.40724 0.02798
 H1241 H 0.16209 0.43139 -0.06030
 H1242 H 0.19386 0.41051 -0.05476
 C1243 C 0.66173 0.93796 0.47530
 C1244 C 0.66613 0.95996 0.46288
 C1245 C 0.64712 0.97645 0.45935
 C1246 C 0.62346 0.97074 0.46684
 C1247 C 0.61874 0.94831 0.47765
 C1248 C 0.63768 0.93216 0.48212
 C1249 C 0.68293 0.92185 0.48055
 C1250 C 0.68118 0.90131 0.49549
 C1251 C 0.70175 0.88769 0.50097
 C1252 C 0.72488 0.89420 0.49192
 C1253 C 0.72610 0.91343 0.47519
 C1254 C 0.70584 0.92802 0.47063
 C1255 C 0.68937 0.96522 0.45384
 C1256 C 0.70865 0.94926 0.45706
 H1257 H 0.69266 0.98184 0.44392
 H1258 H 0.72625 0.95408 0.44958
 H1259 H 0.65062 0.99360 0.45043
 H1260 H 0.60045 0.94358 0.48326
 H1261 H 0.69928 0.87185 0.51219
 H1262 H 0.74335 0.91785 0.46670
 H1263 H 0.63312 0.91524 0.49078
 H1264 H 0.66417 0.89571 0.50354
 C1265 C 0.83348 0.93958 0.51961
 C1266 C 0.82955 0.96476 0.52189
 C1267 C 0.84924 0.98041 0.52559
 C1268 C 0.87277 0.97129 0.52824
 C1269 C 0.87655 0.94629 0.52722
 C1270 C 0.85721 0.93058 0.52269
 C1271 C 0.81208 0.92368 0.51432
 C1272 C 0.81419 0.89882 0.50945
 C1273 C 0.79371 0.88501 0.50399
 C1274 C 0.77040 0.89547 0.50287
 C1275 C 0.76821 0.91998 0.50948
 C1276 C 0.78874 0.93425 0.51396
 C1277 C 0.80600 0.97415 0.52088
 C1278 C 0.78598 0.95914 0.51758
 H1279 H 0.80295 0.99338 0.52298
 H1280 H 0.76809 0.96727 0.51717
 H1281 H 0.84618 0.99972 0.52697
 H1282 H 0.89461 0.93892 0.52942
 H1283 H 0.79611 0.86595 0.50038
 H1284 H 0.75054 0.92830 0.51123
 H1285 H 0.86117 0.91151 0.52188
 H1286 H 0.83151 0.88976 0.50940
 C1287 C 0.32944 0.44465 0.01383
 C1288 C 0.33886 0.44641 0.03741
 C1289 C 0.35814 0.46228 0.04220
 C1290 C 0.36817 0.47681 0.02388
 C1291 C 0.35866 0.47523 0.00059
 C1292 C 0.33964 0.45933 -0.00444
 C1293 C 0.30903 0.42722 0.00945
 C1294 C 0.29841 0.42398 -0.01328
 C1295 C 0.27967 0.40729 -0.01643
 C1296 C 0.27111 0.39279 0.00277
 C1297 C 0.28084 0.39708 0.02581
 C1298 C 0.29989 0.41359 0.02913
 C1299 C 0.32892 0.43243 0.05611
 C1300 C 0.30979 0.41649 0.05209
 H1301 H 0.33604 0.43385 0.07419
 H1302 H 0.30277 0.40609 0.06721
 H1303 H 0.36509 0.46354 0.06034
 H1304 H 0.36613 0.48607 -0.01396
 H1305 H 0.27189 0.40545 -0.03418
 H1306 H 0.27353 0.38795 0.04152
 H1307 H 0.33326 0.45884 -0.02273
 H1308 H 0.30425 0.43412 -0.02890
 C1309 C 0.55897 0.47731 0.32832
 C1310 C 0.54417 0.49612 0.33742
 C1311 C 0.52841 0.49173 0.35696
 C1312 C 0.52739 0.46888 0.36802
 C1313 C 0.54234 0.45038 0.35919
 C1314 C 0.55790 0.45447 0.33962
 C1315 C 0.57550 0.48274 0.30739
 C1316 C 0.58986 0.46503 0.29610
 C1317 C 0.60543 0.47108 0.27706
 C1318 C 0.60778 0.49519 0.26897
 C1319 C 0.59212 0.51256 0.27923
 C1320 C 0.57633 0.50664 0.29831
 C1321 C 0.54543 0.51929 0.32721
 C1322 C 0.56132 0.52448 0.30821
 H1323 H 0.53416 0.53373 0.33420
 H1324 H 0.56182 0.54277 0.30114
 H1325 H 0.51730 0.50634 0.36383
 H1326 H 0.54191 0.43255 0.36727
 H1327 H 0.61521 0.45649 0.26854
 H1328 H 0.59256 0.53096 0.27243
 H1329 H 0.56904 0.43956 0.33378
 H1330 H 0.58911 0.44628 0.30144
 C1331 C 0.05981 -0.02534 0.82851
 C1332 C 0.04661 -0.00568 0.83818
 C1333 C 0.03077 -0.00928 0.85783
 C1334 C 0.02781 -0.03229 0.86827
 C1335 C 0.04088 -0.05175 0.85854
 C1336 C 0.05665 -0.04838 0.83899
 C1337 C 0.07685 -0.02062 0.80777
 C1338 C 0.09051 -0.03894 0.79657
 C1339 C 0.10672 -0.03351 0.77786
 C1340 C 0.11036 -0.00949 0.76996
 C1341 C 0.09537 0.00853 0.78005
 C1342 C 0.07916 0.00330 0.79899
 C1343 C 0.04944 0.01753 0.82837
 C1344 C 0.06538 0.02193 0.80922
 H1345 H 0.03931 0.03261 0.83573
 H1346 H 0.06706 0.04025 0.80241
 H1347 H 0.02103 0.00605 0.86512
 H1348 H 0.03898 -0.06977 0.86594
 H1349 H 0.11604 -0.04847 0.76945
 H1350 H 0.09684 0.02694 0.77339
 H1351 H 0.06627 -0.06404 0.83251
 H1352 H 0.08887 -0.05765 0.80184
 C1353 C 0.06228 0.01920 0.66875
 C1354 C 0.04877 -0.00045 0.65957
 C1355 C 0.03320 0.00298 0.63995
 C1356 C 0.03090 0.02578 0.62901
 C1357 C 0.04452 0.04517 0.63800
 C1358 C 0.05999 0.04198 0.65755
 C1359 C 0.07871 0.01473 0.68973
 C1360 C 0.09218 0.03318 0.70084
 C1361 C 0.10778 0.02797 0.71986
 C1362 C 0.11099 0.00405 0.72812
 C1363 C 0.09614 -0.01406 0.71811
 C1364 C 0.08047 -0.00903 0.69897
 C1365 C 0.05102 -0.02348 0.66987
 C1366 C 0.06661 -0.02770 0.68906
 H1367 H 0.04070 -0.03856 0.66284
 H1368 H 0.06786 -0.04590 0.69624
 H1369 H 0.02312 -0.01228 0.63305
 H1370 H 0.04312 0.06302 0.63011
 H1371 H 0.11695 0.04300 0.72820
 H1372 H 0.09725 -0.03237 0.72505
 H1373 H 0.07003 0.05756 0.66352
 H1374 H 0.09078 0.05182 0.69530
 C1375 C 0.55471 0.52453 0.17079
 C1376 C 0.54087 0.50490 0.16204
 C1377 C 0.52438 0.50848 0.14316
 C1378 C 0.52176 0.53135 0.13244
 C1379 C 0.53555 0.55072 0.14116
 C1380 C 0.55176 0.54743 0.16005
 C1381 C 0.57231 0.51993 0.19077
 C1382 C 0.58608 0.53840 0.20144
 C1383 C 0.60271 0.53316 0.21953
 C1384 C 0.60673 0.50919 0.22727
 C1385 C 0.59174 0.49096 0.21766
 C1386 C 0.57491 0.49605 0.19948
 C1387 C 0.54390 0.48175 0.17187
 C1388 C 0.56066 0.47739 0.19008
 H1389 H 0.53335 0.46668 0.16519
 H1390 H 0.56250 0.45910 0.19687
 H1391 H 0.51407 0.49328 0.13643
 H1392 H 0.53379 0.56863 0.13346
 H1393 H 0.61197 0.54827 0.22764
 H1394 H 0.59348 0.47258 0.22426
 H1395 H 0.56197 0.56302 0.16572
 H1396 H 0.58410 0.55711 0.19634
 C1397 C 0.44074 -0.01310 0.17034
 C1398 C 0.44248 -0.03663 0.16057
 C1399 C 0.45866 -0.04128 0.14147
 C1400 C 0.47353 -0.02285 0.13203
 C1401 C 0.47195 0.00038 0.14190
 C1402 C 0.45575 0.00527 0.16071
 C1403 C 0.42305 -0.00886 0.19058
 C1404 C 0.41984 0.01384 0.20145
 C1405 C 0.40313 0.01685 0.22018
 C1406 C 0.38859 -0.00248 0.22858
 C1407 C 0.39257 -0.02547 0.21833
 C1408 C 0.40918 -0.02864 0.19928
 C1409 C 0.42818 -0.05543 0.16998
 C1410 C 0.41200 -0.05155 0.18899
 H1411 H 0.42956 -0.07347 0.16257
 H1412 H 0.40140 -0.06673 0.19564
 H1413 H 0.45992 -0.05939 0.13424
 H1414 H 0.48303 0.01501 0.13487
 H1415 H 0.40136 0.03458 0.22819
 H1416 H 0.38325 -0.04125 0.22529
 H1417 H 0.45532 0.02352 0.16739
 H1418 H 0.43004 0.02955 0.19585
 C1419 C 0.93738 0.48098 0.66713
 C1420 C 0.95066 0.50060 0.65722
 C1421 C 0.96650 0.49690 0.63762
 C1422 C 0.96941 0.47382 0.62751
 C1423 C 0.95609 0.45446 0.63737
 C1424 C 0.94029 0.45794 0.65682
 C1425 C 0.92067 0.48569 0.68806
 C1426 C 0.90725 0.46731 0.69965
 C1427 C 0.89173 0.47260 0.71888
 C1428 C 0.88846 0.49654 0.72693
 C1429 C 0.90307 0.51468 0.71623
 C1430 C 0.91868 0.50956 0.69680
 C1431 C 0.94801 0.52382 0.66686
 C1432 C 0.93234 0.52821 0.68619
 H1433 H 0.95816 0.53887 0.65929
 H1434 H 0.93089 0.54651 0.69293
 H1435 H 0.97641 0.51217 0.63023
 H1436 H 0.95782 0.43641 0.63018
 H1437 H 0.88280 0.45752 0.72766
 H1438 H 0.90203 0.53300 0.72301
 H1439 H 0.93054 0.44232 0.66341
 H1440 H 0.90868 0.44863 0.69443
 C1441 C 0.94216 0.52343 0.82598
 C1442 C 0.95606 0.50371 0.83450
 C1443 C 0.97219 0.50692 0.85372
 C1444 C 0.97441 0.52947 0.86502
 C1445 C 0.96048 0.54890 0.85659
 C1446 C 0.94461 0.54599 0.83737
 C1447 C 0.92495 0.51922 0.80563
 C1448 C 0.91121 0.53784 0.79512
 C1449 C 0.89464 0.53288 0.77694
 C1450 C 0.89063 0.50904 0.76895
 C1451 C 0.90590 0.49076 0.77809
 C1452 C 0.92263 0.49556 0.79642
 C1453 C 0.95344 0.48084 0.82409
 C1454 C 0.93695 0.47681 0.80559
 H1455 H 0.96404 0.46571 0.83060
 H1456 H 0.93534 0.45870 0.79841
 H1457 H 0.98257 0.49164 0.86023
 H1458 H 0.96189 0.56656 0.86476
 H1459 H 0.88527 0.54808 0.76906
 H1460 H 0.90429 0.47254 0.77118
 H1461 H 0.93426 0.56158 0.83195
 H1462 H 0.91312 0.55644 0.80049
 C1463 C 0.43652 0.02292 0.33101
 C1464 C 0.45193 0.00396 0.33856
 C1465 C 0.46734 0.00722 0.35833
 C1466 C 0.46751 0.02912 0.37106
 C1467 C 0.45188 0.04771 0.36370
 C1468 C 0.43661 0.04471 0.34402
 C1469 C 0.42038 0.01874 0.30980
 C1470 C 0.40531 0.03679 0.30015
 C1471 C 0.38987 0.03177 0.28102
 C1472 C 0.38841 0.00836 0.27116
 C1473 C 0.40503 -0.00910 0.27954
 C1474 C 0.42059 -0.00425 0.29882
 C1475 C 0.45173 -0.01822 0.32648
 C1476 C 0.43627 -0.02229 0.30716
 H1477 H 0.46351 -0.03277 0.33224
 H1478 H 0.43656 -0.03988 0.29864
 H1479 H 0.47920 -0.00739 0.36367
 H1480 H 0.45120 0.06470 0.37322
 H1481 H 0.37939 0.04662 0.27391
 H1482 H 0.40531 -0.02683 0.27131
 H1483 H 0.42489 0.05960 0.33948
 H1484 H 0.40530 0.05502 0.30693
   
