data_POSCAR
  _audit_creation_date              2014-09-24
  _audit_creation_method            'ToBaCCo'
  _symmetry_space_group_name_H-M    'P1'
  _symmetry_Int_Tables_number       1
  _symmetry_cell_setting            triclinic
  loop_
  _symmetry_equiv_pos_as_xyz
 x,y,z
_cell_length_a 62.7497
_cell_length_b 62.7486
_cell_length_c 62.7158
_cell_angle_alpha 89.998100
_cell_angle_beta 89.991100
_cell_angle_gamma 89.981400
loop_
  _atom_site_label
  _atom_site_type_symbol
  _atom_site_fract_x
  _atom_site_fract_y
  _atom_site_fract_z
C1 C 0.33963 1.36816 0.33982
 C2 C 0.34876 1.37708 0.32145
 C3 C 0.36694 1.36786 0.31228
 C4 C 0.37618 1.34972 0.32148
 C5 C 0.36725 1.34060 0.33985
 C6 C 0.34889 1.34983 0.34907
 C7 C 0.32126 1.37708 0.34894
 C8 C 0.31209 1.36785 0.36712
 C9 C 0.32129 1.34971 0.37637
 C10 C 0.33966 1.34059 0.36744
 C11 C 0.34881 1.32226 0.37638
 C12 C 0.36697 1.31311 0.36716
 C13 C 0.37620 1.32227 0.34900
 H14 H 0.34163 1.39108 0.31420
 H15 H 0.39020 1.34261 0.31426
 H16 H 0.31401 1.39107 0.34182
 H17 H 0.31407 1.34259 0.39039
 H18 H 0.34175 1.31499 0.39039
 H19 H 0.39021 1.31500 0.34194
 C20 C 0.33924 0.86776 0.84022
 C21 C 0.34840 0.87670 0.82187
 C22 C 0.36657 0.86747 0.81273
 C23 C 0.37578 0.84932 0.82190
 C24 C 0.36683 0.84018 0.84024
 C25 C 0.34847 0.84941 0.84946
 C26 C 0.32087 0.87669 0.84934
 C27 C 0.31167 0.86745 0.86749
 C28 C 0.32085 0.84928 0.87673
 C29 C 0.33921 0.84016 0.86780
 C30 C 0.34835 0.82180 0.87673
 C31 C 0.36651 0.81265 0.86752
 C32 C 0.37576 0.82182 0.84938
 H33 H 0.34134 0.89070 0.81460
 H34 H 0.38980 0.84225 0.81464
 H35 H 0.31365 0.89070 0.84222
 H36 H 0.31360 0.84216 0.89073
 H37 H 0.34126 0.81452 0.89073
 H38 H 0.38977 0.81456 0.84232
 C39 C 0.83994 1.36777 0.83926
 C40 C 0.84904 1.37669 0.82088
 C41 C 0.86721 1.36746 0.81170
 C42 C 0.87647 1.34932 0.82090
 C43 C 0.86756 1.34021 0.83928
 C44 C 0.84920 1.34944 0.84852
 C45 C 0.82158 1.37669 0.84842
 C46 C 0.81245 1.36748 0.86660
 C47 C 0.82165 1.34935 0.87584
 C48 C 0.84000 1.34023 0.86691
 C49 C 0.84916 1.32190 0.87586
 C50 C 0.86731 1.31274 0.86663
 C51 C 0.87651 1.32188 0.84845
 H52 H 0.84191 1.39068 0.81364
 H53 H 0.89048 1.34221 0.81367
 H54 H 0.81428 1.39067 0.84133
 H55 H 0.81440 1.34230 0.88987
 H56 H 0.84211 1.31465 0.88988
 H57 H 0.89052 1.31461 0.84137
 C58 C 0.84029 0.86783 0.33955
 C59 C 0.84942 0.87676 0.32119
 C60 C 0.86759 0.86754 0.31200
 C61 C 0.87682 0.84938 0.32119
 C62 C 0.86789 0.84025 0.33955
 C63 C 0.84954 0.84948 0.34879
 C64 C 0.82194 0.87675 0.34869
 C65 C 0.81277 0.86752 0.36684
 C66 C 0.82194 0.84937 0.37607
 C67 C 0.84030 0.84024 0.36714
 C68 C 0.84943 0.82189 0.37608
 C69 C 0.86758 0.81273 0.36685
 C70 C 0.87682 0.82190 0.34869
 H71 H 0.84230 0.89077 0.31395
 H72 H 0.89083 0.84226 0.31396
 H73 H 0.81466 0.89075 0.34161
 H74 H 0.81467 0.84230 0.39008
 H75 H 0.84236 0.81462 0.39008
 H76 H 0.89082 0.81462 0.34162
 C77 C 0.65989 0.63226 0.33947
 C78 C 0.65074 0.62333 0.32112
 C79 C 0.63257 0.63256 0.31196
 C80 C 0.62335 0.65072 0.32116
 C81 C 0.63230 0.65985 0.33950
 C82 C 0.65066 0.65062 0.34872
 C83 C 0.67826 0.62334 0.34859
 C84 C 0.68744 0.63257 0.36674
 C85 C 0.67828 0.65072 0.37597
 C86 C 0.65992 0.65985 0.36706
 C87 C 0.65079 0.67821 0.37600
 C88 C 0.63263 0.68737 0.36680
 C89 C 0.62339 0.67821 0.34866
 H90 H 0.65785 0.60932 0.31388
 H91 H 0.60933 0.65784 0.31394
 H92 H 0.68552 0.60934 0.34151
 H93 H 0.68556 0.65779 0.38997
 H94 H 0.65788 0.68548 0.39000
 H95 H 0.60938 0.68548 0.34160
 C96 C 0.66077 0.13233 0.84017
 C97 C 0.65162 0.12341 0.82182
 C98 C 0.63343 0.13261 0.81270
 C99 C 0.62418 0.15073 0.82190
 C100 C 0.63312 0.15986 0.84025
 C101 C 0.65150 0.15065 0.84945
 C102 C 0.67915 0.12342 0.84927
 C103 C 0.68833 0.13265 0.86744
 C104 C 0.67913 0.15078 0.87671
 C105 C 0.66074 0.15989 0.86781
 C106 C 0.65157 0.17821 0.87677
 C107 C 0.63339 0.18734 0.86757
 C108 C 0.62416 0.17818 0.84942
 H109 H 0.65871 0.10943 0.81451
 H110 H 0.61015 0.15778 0.81466
 H111 H 0.68640 0.10943 0.84213
 H112 H 0.68635 0.15790 0.89072
 H113 H 0.65864 0.18548 0.89077
 H114 H 0.61013 0.18542 0.84238
 C115 C 1.16052 0.63204 0.84038
 C116 C 1.15138 0.62311 0.82202
 C117 C 1.13323 0.63233 0.81286
 C118 C 1.12400 0.65048 0.82202
 C119 C 1.13292 0.65962 0.84037
 C120 C 1.15127 0.65039 0.84962
 C121 C 1.17887 0.62312 0.84952
 C122 C 1.18805 0.63235 0.86768
 C123 C 1.17886 0.65052 0.87691
 C124 C 1.16050 0.65964 0.86797
 C125 C 1.15135 0.67800 0.87689
 C126 C 1.13320 0.68715 0.86765
 C127 C 1.12398 0.67797 0.84950
 H128 H 1.15846 0.60911 0.81475
 H129 H 1.10999 0.65755 0.81475
 H130 H 1.18611 0.60911 0.84240
 H131 H 1.18608 0.65764 0.89092
 H132 H 1.15842 0.68528 0.89089
 H133 H 1.10998 0.68523 0.84242
 C134 C 1.16076 0.13219 0.33927
 C135 C 1.15162 0.12326 0.32091
 C136 C 1.13344 0.13247 0.31175
 C137 C 1.12421 0.15063 0.32094
 C138 C 1.13314 0.15975 0.33930
 C139 C 1.15150 0.15053 0.34853
 C140 C 1.17912 0.12327 0.34841
 C141 C 1.18828 0.13249 0.36659
 C142 C 1.17908 0.15064 0.37582
 C143 C 1.16073 0.15976 0.36689
 C144 C 1.15157 0.17810 0.37583
 C145 C 1.13341 0.18725 0.36661
 C146 C 1.12419 0.17809 0.34846
 H147 H 1.15874 0.10925 0.31367
 H148 H 1.11018 0.15773 0.31373
 H149 H 1.18636 0.10926 0.34129
 H150 H 1.18630 0.15776 0.38984
 H151 H 1.15863 0.18536 0.38984
 H152 H 1.11018 0.18535 0.34140
 C153 C 0.66085 1.36779 0.65995
 C154 C 0.65170 1.37672 0.67830
 C155 C 0.63351 1.36753 0.68743
 C156 C 0.62427 1.34941 0.67823
 C157 C 0.63321 1.34027 0.65988
 C158 C 0.65159 1.34947 0.65068
 C159 C 0.67923 1.37669 0.65085
 C160 C 0.68842 1.36745 0.63268
 C161 C 0.67922 1.34932 0.62342
 C162 C 0.66084 1.34022 0.63233
 C163 C 0.65167 1.32190 0.62337
 C164 C 0.63349 1.31278 0.63257
 C165 C 0.62426 1.32195 0.65072
 H166 H 0.65878 1.39070 0.68560
 H167 H 0.61024 1.34237 0.68547
 H168 H 0.68648 1.39068 0.65798
 H169 H 0.68645 1.34220 0.60941
 H170 H 0.65875 1.31462 0.60937
 H171 H 0.61023 1.31472 0.65777
 C172 C 0.65975 0.86781 1.16059
 C173 C 0.65062 0.87675 1.17895
 C174 C 0.63245 0.86754 1.18814
 C175 C 0.62322 0.84938 1.17897
 C176 C 0.63215 0.84024 1.16061
 C177 C 0.65050 0.84946 1.15137
 C178 C 0.67810 0.87671 1.15144
 C179 C 0.68726 0.86747 1.13329
 C180 C 0.67809 0.84932 1.12407
 C181 C 0.65974 0.84021 1.13301
 C182 C 0.65060 0.82186 1.12409
 C183 C 0.63245 0.81271 1.13332
 C184 C 0.62323 0.82189 1.15148
 H185 H 0.65773 0.89076 1.18617
 H186 H 0.60921 0.84228 1.18620
 H187 H 0.68537 0.89071 1.15850
 H188 H 0.68536 0.84224 1.11007
 H189 H 0.65767 0.81458 1.11008
 H190 H 0.60922 0.81463 1.15855
 C191 C 1.15999 1.36833 1.15906
 C192 C 1.15084 1.37726 1.17741
 C193 C 1.13268 1.36804 1.18655
 C194 C 1.12344 1.34992 1.17737
 C195 C 1.13238 1.34079 1.15902
 C196 C 1.15075 1.35000 1.14980
 C197 C 1.17838 1.37723 1.14997
 C198 C 1.18759 1.36798 1.13182
 C199 C 1.17840 1.34984 1.12257
 C200 C 1.16002 1.34074 1.13146
 C201 C 1.15088 1.32239 1.12253
 C202 C 1.13272 1.31326 1.13175
 C203 C 1.12346 1.32244 1.14988
 H204 H 1.15792 1.39124 1.18471
 H205 H 1.10943 1.34286 1.18463
 H206 H 1.18562 1.39122 1.15710
 H207 H 1.18566 1.34270 1.10857
 H208 H 1.15798 1.31510 1.10855
 H209 H 1.10945 1.31519 1.15695
 C210 C 1.16071 0.86773 0.65969
 C211 C 1.15154 0.87666 0.67804
 C212 C 1.13338 0.86744 0.68718
 C213 C 1.12417 0.84930 0.67801
 C214 C 1.13313 0.84016 0.65966
 C215 C 1.15149 0.84939 0.65044
 C216 C 1.17907 0.87666 0.65058
 C217 C 1.18828 0.86743 0.63242
 C218 C 1.17911 0.84927 0.62318
 C219 C 1.16075 0.84014 0.63210
 C220 C 1.15162 0.82179 0.62316
 C221 C 1.13346 0.81264 0.63238
 C222 C 1.12421 0.82181 0.65052
 H223 H 1.15860 0.89066 0.68533
 H224 H 1.11016 0.84223 0.68526
 H225 H 1.18629 0.89067 0.65771
 H226 H 1.18636 0.84215 0.60918
 H227 H 1.15871 0.81451 0.60917
 H228 H 1.11020 0.81455 0.65758
 C229 C 0.34108 0.63146 0.65893
 C230 C 0.35018 0.62255 0.67730
 C231 C 0.36829 0.63180 0.68650
 C232 C 0.37753 0.64995 0.67735
 C233 C 0.36863 0.65907 0.65897
 C234 C 0.35031 0.64982 0.64970
 C235 C 0.32274 0.62254 0.64978
 C236 C 0.31358 0.63178 0.63163
 C237 C 0.32273 0.64993 0.62240
 C238 C 0.34107 0.65906 0.63134
 C239 C 0.35018 0.67744 0.62244
 C240 C 0.36830 0.68662 0.63171
 C241 C 0.37753 0.67745 0.64986
 H242 H 0.34311 0.60856 0.68458
 H243 H 0.39149 0.65704 0.68466
 H244 H 0.31546 0.60855 0.65686
 H245 H 0.31545 0.65702 0.60841
 H246 H 0.34311 0.68472 0.60845
 H247 H 0.39150 0.68474 0.65697
 C248 C 0.34046 0.13173 1.16025
 C249 C 0.34956 0.12281 1.17863
 C250 C 0.36770 0.13205 1.18783
 C251 C 0.37694 0.15020 1.17863
 C252 C 0.36804 0.15931 1.16025
 C253 C 0.34970 0.15006 1.15100
 C254 C 0.32211 0.12281 1.15110
 C255 C 0.31297 0.13203 1.13293
 C256 C 0.32214 0.15016 1.12369
 C257 C 0.34048 0.15929 1.13263
 C258 C 0.34961 0.17764 1.12370
 C259 C 0.36774 0.18681 1.13294
 C260 C 0.37696 0.17766 1.15111
 H261 H 0.34243 0.10882 1.18587
 H262 H 0.39094 0.15732 1.18588
 H263 H 0.31482 0.10882 1.15818
 H264 H 0.31488 0.15723 1.10968
 H265 H 0.34255 0.18490 1.10968
 H266 H 0.39094 0.18494 1.15820
 C267 C 0.84089 0.63147 1.15900
 C268 C 0.85005 0.62253 1.17733
 C269 C 0.86821 0.63175 1.18647
 C270 C 0.87743 0.64989 1.17729
 C271 C 0.86847 0.65904 1.15896
 C272 C 0.85010 0.64982 1.14975
 C273 C 0.82250 0.62257 1.14991
 C274 C 0.81329 0.63184 1.13180
 C275 C 0.82243 0.64999 1.12255
 C276 C 0.84082 0.65909 1.13143
 C277 C 0.84992 0.67746 1.12252
 C278 C 0.86808 0.68661 1.13173
 C279 C 0.87736 0.67741 1.14984
 H280 H 0.84299 0.60854 1.18462
 H281 H 0.89143 0.65696 1.18456
 H282 H 0.81524 0.60858 1.15700
 H283 H 0.81512 0.65709 1.10859
 H284 H 0.84280 0.68477 1.10855
 H285 H 0.89136 0.68468 1.15690
 C286 C 0.83855 0.13286 0.66132
 C287 C 0.84769 0.12392 0.67968
 C288 C 0.86588 0.13311 0.68883
 C289 C 0.87512 0.15125 0.67962
 C290 C 0.86618 0.16039 0.66127
 C291 C 0.84781 0.15118 0.65205
 C292 C 0.82019 0.12395 0.65218
 C293 C 0.81103 0.13316 0.63399
 C294 C 0.82024 0.15130 0.62475
 C295 C 0.83859 0.16041 0.63368
 C296 C 0.84777 0.17872 0.62471
 C297 C 0.86595 0.18785 0.63391
 C298 C 0.87515 0.17870 0.65209
 H299 H 0.84056 0.10992 0.68692
 H300 H 0.88916 0.15834 0.68682
 H301 H 0.81294 0.10995 0.65930
 H302 H 0.81303 0.15841 0.61071
 H303 H 0.84073 0.18598 0.61069
 H304 H 0.88918 0.18593 0.65913
 C305 C 1.36746 0.33892 0.66125
 C306 C 1.37637 0.34804 0.67963
 C307 C 1.36715 0.36622 0.68880
 C308 C 1.34901 0.37546 0.67958
 C309 C 1.33991 0.36655 0.66121
 C310 C 1.34914 0.34819 0.65198
 C311 C 1.37640 0.32057 0.65210
 C312 C 1.36721 0.31143 0.63389
 C313 C 1.34908 0.32064 0.62464
 C314 C 1.33994 0.33899 0.63359
 C315 C 1.32163 0.34816 0.62462
 C316 C 1.31247 0.36632 0.63384
 C317 C 1.32159 0.37551 0.65203
 H318 H 1.39037 0.34091 0.68688
 H319 H 1.34190 0.38949 0.68680
 H320 H 1.39040 0.31332 0.65923
 H321 H 1.34199 0.31344 0.61060
 H322 H 1.31439 0.34112 0.61058
 H323 H 1.31433 0.38952 0.65909
 C324 C 1.36808 0.83966 1.15945
 C325 C 1.37703 0.84883 1.17778
 C326 C 1.36783 0.86702 1.18690
 C327 C 1.34971 0.87627 1.17771
 C328 C 1.34055 0.86731 1.15938
 C329 C 1.34975 0.84891 1.15019
 C330 C 1.37697 0.82126 1.15037
 C331 C 1.36771 0.81204 1.13224
 C332 C 1.34957 0.82124 1.12298
 C333 C 1.34048 0.83964 1.13187
 C334 C 1.32214 0.84879 1.12293
 C335 C 1.31302 0.86698 1.13213
 C336 C 1.32222 0.87625 1.15024
 H337 H 1.39101 0.84175 1.18508
 H338 H 1.34266 0.89030 1.18495
 H339 H 1.39096 0.81401 1.15751
 H340 H 1.34242 0.81398 1.10900
 H341 H 1.31483 0.84170 1.10896
 H342 H 1.31497 0.89028 1.15728
 C343 C 0.86785 0.33946 1.15962
 C344 C 0.87682 0.34861 1.17794
 C345 C 0.86761 0.36678 1.18711
 C346 C 0.84945 0.37600 1.17797
 C347 C 0.84028 0.36706 1.15965
 C348 C 0.84948 0.34869 1.15041
 C349 C 0.87676 0.32109 1.15049
 C350 C 0.86748 0.31189 1.13235
 C351 C 0.84930 0.32107 1.12315
 C352 C 0.84020 0.33944 1.13209
 C353 C 0.82183 0.34858 1.12320
 C354 C 0.81270 0.36674 1.13243
 C355 C 0.82191 0.37599 1.15055
 H356 H 0.89083 0.34155 1.18520
 H357 H 0.84240 0.39002 1.18524
 H358 H 0.89078 0.31386 1.15758
 H359 H 0.84215 0.31382 1.10917
 H360 H 0.81452 0.34149 1.10922
 H361 H 0.81466 0.39000 1.15762
 C362 C 0.86837 0.84078 0.65912
 C363 C 0.87728 0.84992 0.67748
 C364 C 0.86804 0.86806 0.68664
 C365 C 0.84990 0.87730 0.67746
 C366 C 0.84078 0.86838 0.65910
 C367 C 0.85003 0.85002 0.64987
 C368 C 0.87729 0.82242 0.65000
 C369 C 0.86805 0.81324 0.63186
 C370 C 0.84991 0.82241 0.62261
 C371 C 0.84079 0.84077 0.63152
 C372 C 0.82243 0.84990 0.62259
 C373 C 0.81326 0.86804 0.63183
 C374 C 0.82243 0.87729 0.64997
 H375 H 0.89127 0.84284 0.68477
 H376 H 0.84282 0.89129 0.68474
 H377 H 0.89128 0.81514 0.65709
 H378 H 0.84284 0.81512 0.60862
 H379 H 0.81515 0.84281 0.60860
 H380 H 0.81514 0.89128 0.65704
 C381 C 0.63193 0.65953 0.65952
 C382 C 0.62299 0.65040 0.67788
 C383 C 0.63222 0.63225 0.68705
 C384 C 0.65036 0.62301 0.67789
 C385 C 0.65951 0.63193 0.65953
 C386 C 0.65028 0.65028 0.65029
 C387 C 0.62302 0.67789 0.65038
 C388 C 0.63227 0.68705 0.63224
 C389 C 0.65041 0.67788 0.62301
 C390 C 0.65953 0.65952 0.63194
 C391 C 0.67789 0.65039 0.62302
 C392 C 0.68705 0.63224 0.63226
 C393 C 0.67787 0.62301 0.65041
 H394 H 0.60899 0.65748 0.68515
 H395 H 0.65743 0.60901 0.68517
 H396 H 0.60902 0.68517 0.65746
 H397 H 0.65750 0.68516 0.60902
 H398 H 0.68518 0.65747 0.60903
 H399 H 0.68514 0.60901 0.65749
 C400 C 0.63188 1.16041 1.15941
 C401 C 0.62293 1.15124 1.17775
 C402 C 0.63214 1.13308 1.18689
 C403 C 0.65030 1.12386 1.17772
 C404 C 0.65945 1.13281 1.15939
 C405 C 0.65024 1.15119 1.15018
 C406 C 0.62297 1.17879 1.15032
 C407 C 0.63223 1.18801 1.13218
 C408 C 0.65040 1.17884 1.12295
 C409 C 0.65951 1.16046 1.13185
 C410 C 0.67788 1.15133 1.12294
 C411 C 0.68702 1.13316 1.13215
 C412 C 0.67782 1.12390 1.15027
 H413 H 0.60893 1.15831 1.18502
 H414 H 0.65736 1.10984 1.18498
 H415 H 0.60896 1.18602 1.15744
 H416 H 0.65754 1.18611 1.10896
 H417 H 0.68518 1.15843 1.10896
 H418 H 0.68507 1.10988 1.15733
 C419 C 0.13226 0.66100 1.16090
 C420 C 0.12334 0.65186 1.17927
 C421 C 0.13255 0.63366 1.18841
 C422 C 0.15069 0.62442 1.17918
 C423 C 0.15980 0.63337 1.16082
 C424 C 0.15058 0.65175 1.15162
 C425 C 0.12334 0.67938 1.15179
 C426 C 0.13255 0.68856 1.13361
 C427 C 0.15069 0.67935 1.12435
 C428 C 0.15981 0.66098 1.13326
 C429 C 0.17813 0.65181 1.12428
 C430 C 0.18727 0.63363 1.13347
 C431 C 0.17812 0.62441 1.15164
 H432 H 0.10935 0.65898 1.18653
 H433 H 0.15779 0.61038 1.18637
 H434 H 0.10935 0.68663 1.15893
 H435 H 0.15779 0.68657 1.11032
 H436 H 0.18539 0.65888 1.11027
 H437 H 0.18537 0.61038 1.15868
 C438 C 0.13145 1.15910 0.66011
 C439 C 0.12255 1.15000 0.67850
 C440 C 0.13179 1.13185 0.68769
 C441 C 0.14994 1.12260 0.67849
 C442 C 0.15903 1.13151 0.66010
 C443 C 0.14978 1.14984 0.65085
 C444 C 0.12253 1.17746 0.65096
 C445 C 0.13174 1.18660 0.63279
 C446 C 0.14987 1.17741 0.62354
 C447 C 0.15900 1.15906 0.63247
 C448 C 0.17734 1.14992 0.62353
 C449 C 0.18652 1.13179 0.63278
 C450 C 0.17738 1.12258 0.65095
 H451 H 0.10856 1.15714 0.68575
 H452 H 0.15707 1.10861 0.68573
 H453 H 0.10855 1.18476 0.65805
 H454 H 0.15693 1.18467 0.60952
 H455 H 0.18460 1.15699 0.60952
 H456 H 0.18467 1.10859 0.65803
 C457 C 1.36764 0.66113 0.33934
 C458 C 1.37658 0.65197 0.32099
 C459 C 1.36739 0.63377 0.31185
 C460 C 1.34926 0.62453 0.32108
 C461 C 1.34013 0.63348 0.33943
 C462 C 1.34933 0.65187 0.34862
 C463 C 1.37655 0.67951 0.34845
 C464 C 1.36732 0.68869 0.36662
 C465 C 1.34919 0.67949 0.37588
 C466 C 1.34009 0.66111 0.36698
 C467 C 1.32178 0.65194 0.37596
 C468 C 1.31266 0.63375 0.36677
 C469 C 1.32182 0.62452 0.34862
 H470 H 1.39057 0.65910 0.31372
 H471 H 1.34217 0.61048 0.31389
 H472 H 1.39054 0.68675 0.34131
 H473 H 1.34208 0.68671 0.38991
 H474 H 1.31451 0.65901 0.38997
 H475 H 1.31458 0.61049 0.34158
 C476 C 1.36790 1.16057 0.84048
 C477 C 1.37684 1.15144 0.82211
 C478 C 1.36764 1.13328 0.81295
 C479 C 1.34951 1.12403 0.82213
 C480 C 1.34037 1.13294 0.84049
 C481 C 1.34958 1.15130 0.84973
 C482 C 1.37680 1.17893 0.84961
 C483 C 1.36756 1.18810 0.86778
 C484 C 1.34942 1.17889 0.87702
 C485 C 1.34033 1.16052 0.86809
 C486 C 1.32199 1.15135 0.87702
 C487 C 1.31286 1.13319 0.86779
 C488 C 1.32204 1.12398 0.84963
 H489 H 1.39082 1.15853 0.81482
 H490 H 1.34246 1.11002 0.81486
 H491 H 1.39080 1.18618 0.84248
 H492 H 1.34229 1.18610 0.89104
 H493 H 1.31470 1.15841 0.89103
 H494 H 1.31480 1.10997 0.84255
 C495 C 0.86783 0.65957 0.84050
 C496 C 0.87677 0.65043 0.82215
 C497 C 0.86754 0.63228 0.81298
 C498 C 0.84939 0.62306 0.82214
 C499 C 0.84025 0.63199 0.84050
 C500 C 0.84948 0.65034 0.84974
 C501 C 0.87674 0.67793 0.84963
 C502 C 0.86749 0.68710 0.86777
 C503 C 0.84934 0.67795 0.87700
 C504 C 0.84022 0.65959 0.86808
 C505 C 0.82186 0.65047 0.87700
 C506 C 0.81270 0.63233 0.86776
 C507 C 0.82188 0.62308 0.84962
 H508 H 0.89077 0.65750 0.81488
 H509 H 0.84232 0.60907 0.81487
 H510 H 0.89074 0.68519 0.84256
 H511 H 0.84225 0.68524 0.89099
 H512 H 0.81457 0.65756 0.89099
 H513 H 0.81461 0.60909 0.84254
 C514 C 0.86820 1.15937 0.33995
 C515 C 0.87712 1.15025 0.32159
 C516 C 0.86787 1.13212 0.31238
 C517 C 0.84970 1.12291 0.32155
 C518 C 0.84058 1.13183 0.33993
 C519 C 0.84984 1.15015 0.34918
 C520 C 0.87713 1.17771 0.34911
 C521 C 0.86790 1.18687 0.36727
 C522 C 0.84975 1.17772 0.37649
 C523 C 0.84060 1.15939 0.36755
 C524 C 0.82224 1.15029 0.37646
 C525 C 0.81305 1.13217 0.36721
 C526 C 0.82221 1.12293 0.34905
 H527 H 0.89114 1.15736 0.31436
 H528 H 0.84256 1.10892 0.31430
 H529 H 0.89114 1.18497 0.34204
 H530 H 0.84267 1.18500 0.39050
 H531 H 0.81496 1.15736 0.39047
 H532 H 0.81492 1.10896 0.34196
 C533 C 0.63196 0.34066 0.33996
 C534 C 0.62302 0.34980 0.32161
 C535 C 0.63226 0.36794 0.31241
 C536 C 0.65044 0.37715 0.32157
 C537 C 0.65957 0.36821 0.33993
 C538 C 0.65032 0.34988 0.34918
 C539 C 0.62303 0.32232 0.34911
 C540 C 0.63227 0.31314 0.36725
 C541 C 0.65043 0.32228 0.37647
 C542 C 0.65957 0.34062 0.36753
 C543 C 0.67794 0.34973 0.37643
 C544 C 0.68711 0.36786 0.36719
 C545 C 0.67794 0.37710 0.34905
 H546 H 0.60900 0.34270 0.31439
 H547 H 0.65756 0.39114 0.31433
 H548 H 0.60902 0.31506 0.34205
 H549 H 0.65751 0.31500 0.39046
 H550 H 0.68522 0.34264 0.39043
 H551 H 0.68523 0.39109 0.34196
 C552 C 0.63175 0.84061 0.84069
 C553 C 0.62284 0.84975 0.82233
 C554 C 0.63208 0.86788 0.81316
 C555 C 0.65023 0.87710 0.82233
 C556 C 0.65935 0.86818 0.84069
 C557 C 0.65010 0.84984 0.84994
 C558 C 0.62283 0.82226 0.84982
 C559 C 0.63205 0.81309 0.86797
 C560 C 0.65020 0.82224 0.87721
 C561 C 0.65934 0.84059 0.86829
 C562 C 0.67769 0.84970 0.87721
 C563 C 0.68687 0.86784 0.86797
 C564 C 0.67771 0.87708 0.84982
 H565 H 0.60885 0.84268 0.81504
 H566 H 0.65731 0.89109 0.81505
 H567 H 0.60883 0.81500 0.84274
 H568 H 0.65727 0.81495 0.89121
 H569 H 0.68497 0.84262 0.89121
 H570 H 0.68499 0.89107 0.84274
 C571 C 0.13198 0.33935 0.84046
 C572 C 0.12306 0.34850 0.82210
 C573 C 0.13228 0.36667 0.81296
 C574 C 0.15039 0.37591 0.82217
 C575 C 0.15951 0.36698 0.84052
 C576 C 0.15030 0.34860 0.84973
 C577 C 0.12307 0.32098 0.84956
 C578 C 0.13229 0.31179 0.86773
 C579 C 0.15042 0.32098 0.87699
 C580 C 0.15953 0.33936 0.86809
 C581 C 0.17786 0.34851 0.87704
 C582 C 0.18700 0.36668 0.86784
 C583 C 0.17784 0.37592 0.84969
 H584 H 0.10909 0.34142 0.81479
 H585 H 0.15745 0.38993 0.81492
 H586 H 0.10908 0.31374 0.84241
 H587 H 0.15754 0.31374 0.89100
 H588 H 0.18513 0.34143 0.89104
 H589 H 0.18509 0.38993 0.84263
 C590 C 0.13257 0.83890 0.33912
 C591 C 0.12361 0.84804 0.32076
 C592 C 0.13279 0.86624 0.31161
 C593 C 0.15092 0.87550 0.32081
 C594 C 0.16007 0.86656 0.33916
 C595 C 0.15088 0.84817 0.34837
 C596 C 0.12368 0.82053 0.34824
 C597 C 0.13291 0.81136 0.36642
 C598 C 0.15105 0.82058 0.37566
 C599 C 0.16014 0.83895 0.36673
 C600 C 0.17845 0.84813 0.37568
 C601 C 0.18756 0.86632 0.36648
 C602 C 0.17838 0.87553 0.34832
 H603 H 0.10962 0.84091 0.31352
 H604 H 0.15800 0.88954 0.31361
 H605 H 0.10968 0.81327 0.34112
 H606 H 0.15817 0.81336 0.38968
 H607 H 0.18572 0.84108 0.38970
 H608 H 0.18561 0.88957 0.34127
 O609 O 0.97931 0.92316 0.89392
 O610 O 0.97924 0.89838 0.86898
 C611 C 0.97202 0.91573 0.87655
 C612 C 0.95464 0.92715 0.86537
 C613 C 0.94743 0.92019 0.84533
 H614 H 0.95496 0.90671 0.83757
 O615 O 1.02076 1.07694 0.89376
 O616 O 1.02086 1.10173 0.86883
 C617 C 1.02807 1.08438 0.87640
 C618 C 1.04548 1.07297 0.86525
 C619 C 1.05274 1.07994 0.84524
 H620 H 1.04522 1.09342 0.83746
 O621 O 0.89389 0.97948 0.92304
 O622 O 0.86895 0.97941 0.89827
 C623 C 0.87652 0.97219 0.91561
 C624 C 0.86536 0.95481 0.92704
 C625 C 0.84535 0.94757 0.92007
 H626 H 0.83759 0.95508 0.90658
 O627 O 1.10623 1.02073 0.92307
 O628 O 1.13118 1.02075 0.89830
 C629 C 1.12360 1.02800 0.91563
 C630 C 1.13476 1.04540 0.92703
 C631 C 1.15474 1.05268 0.92002
 H632 H 1.16250 1.04518 0.90651
 O633 O 0.92303 0.89407 0.97934
 O634 O 0.89825 0.86915 0.97931
 C635 C 0.91558 0.87671 0.97206
 C636 C 0.92696 0.86552 0.95465
 C637 C 0.91995 0.84553 0.94741
 H638 H 0.90646 0.83780 0.95494
 O639 O 1.07696 1.10608 0.97926
 O640 O 1.10175 1.13099 0.97925
 C641 C 1.08443 1.12343 0.97198
 C642 C 1.07308 1.13460 0.95454
 C643 C 1.08013 1.15457 0.94726
 H644 H 1.09362 1.16230 0.95479
 O645 O 0.92299 1.02103 0.89374
 O646 O 0.89819 1.02102 0.86883
 C647 C 0.91551 1.02830 0.87638
 C648 C 0.92684 1.04573 0.86519
 C649 C 0.91967 1.05313 0.84530
 H650 H 0.90610 1.04569 0.83762
 O651 O 1.07706 0.97919 0.89386
 O652 O 1.10186 0.97914 0.86894
 C653 C 1.08453 0.97190 0.87650
 C654 C 1.07315 0.95450 0.86533
 C655 C 1.08020 0.94721 0.84535
 H656 H 1.09371 0.95470 0.83762
 O657 O 1.02083 0.89388 0.92309
 O658 O 1.02082 0.86895 0.89830
 C659 C 1.02808 0.87650 0.91564
 C660 C 1.04547 0.86530 0.92703
 C661 C 1.05275 0.84533 0.91999
 H662 H 1.04527 0.83761 0.90647
 O663 O 0.97924 1.10620 0.92295
 O664 O 0.97928 1.13115 0.89817
 C665 C 0.97200 1.12358 0.91551
 C666 C 0.95461 1.13478 0.92691
 C667 C 0.94732 1.15474 0.91985
 H668 H 0.95481 1.16245 0.90631
 O669 O 0.89391 1.07720 0.97926
 O670 O 0.86900 1.10200 0.97926
 C671 C 0.87655 1.08467 0.97199
 C672 C 0.86538 1.07332 0.95456
 C673 C 0.84542 1.08039 0.94725
 H674 H 0.83770 1.09391 0.95475
 O675 O 1.10613 0.92292 0.97936
 O676 O 1.13106 0.89814 0.97933
 C677 C 1.12349 0.91547 0.97207
 C678 C 1.13466 0.92684 0.95465
 C679 C 1.15462 0.91977 0.94734
 H680 H 1.16234 0.90626 0.95484
 O681 O 0.97919 1.07711 0.89366
 O682 O 0.97921 1.10191 0.86874
 C683 C 0.97191 1.08460 0.87630
 C684 C 0.95444 1.07329 0.86515
 C685 C 0.94702 1.08045 0.84525
 H686 H 0.95447 1.09400 0.83754
 O687 O 1.02087 0.92304 0.89387
 O688 O 1.02086 0.89826 0.86893
 C689 C 1.02814 0.91558 0.87650
 C690 C 1.04556 0.92693 0.86532
 C691 C 1.05286 0.91988 0.84535
 H692 H 1.04536 0.90638 0.83761
 O693 O 1.10618 0.97916 0.92311
 O694 O 1.13113 0.97912 0.89833
 C695 C 1.12354 0.97187 0.91567
 C696 C 1.13469 0.95444 0.92705
 C697 C 1.15465 0.94712 0.92000
 H698 H 1.16239 0.95461 0.90649
 O699 O 0.89389 1.02105 0.92302
 O700 O 0.86894 1.02103 0.89825
 C701 C 0.87652 1.02831 0.91557
 C702 C 0.86536 1.04574 0.92695
 C703 C 0.84541 1.05306 0.91990
 H704 H 0.83768 1.04557 0.90638
 O705 O 0.92313 1.10632 0.97927
 O706 O 0.89837 1.13127 0.97926
 C707 C 0.91569 1.12369 0.97199
 C708 C 0.92706 1.13484 0.95455
 C709 C 0.92002 1.15480 0.94724
 H710 H 0.90653 1.16255 0.95475
 O711 O 1.07692 0.89377 0.97939
 O712 O 1.10171 0.86884 0.97937
 C713 C 1.08438 0.87641 0.97211
 C714 C 1.07301 0.86526 0.95468
 C715 C 1.08004 0.84529 0.94739
 H716 H 1.09353 0.83754 0.95491
 O717 O 1.07704 1.02075 0.89388
 O718 O 1.10184 1.02076 0.86896
 C719 C 1.08450 1.02802 0.87651
 C720 C 1.07310 1.04540 0.86531
 C721 C 1.08011 1.05263 0.84529
 H722 H 1.09361 1.04511 0.83756
 O723 O 0.92311 0.97946 0.89387
 O724 O 0.89832 0.97939 0.86895
 C725 C 0.91566 0.97216 0.87652
 C726 C 0.92707 0.95476 0.86535
 C727 C 0.92011 0.94755 0.84532
 H728 H 0.90665 0.95509 0.83755
 O729 O 1.02080 1.10614 0.92293
 O730 O 1.02090 1.13108 0.89815
 C731 C 1.02812 1.12349 0.91549
 C732 C 1.04553 1.13463 0.92690
 C733 C 1.05283 1.15460 0.91988
 H734 H 1.04535 1.16235 0.90636
 O735 O 0.97927 0.89396 0.92309
 O736 O 0.97920 0.86903 0.89831
 C737 C 0.97196 0.87661 0.91565
 C738 C 0.95455 0.86547 0.92705
 C739 C 0.94729 0.84548 0.92006
 H740 H 0.95480 0.83771 0.90657
 O741 O 1.10617 1.07691 0.97931
 O742 O 1.13110 1.10167 0.97931
 C743 C 1.12354 1.08434 0.97205
 C744 C 1.13473 1.07296 0.95465
 C745 C 1.15471 1.07999 0.94739
 H746 H 1.16243 1.09349 0.95491
 O747 O 0.89389 0.92330 0.97936
 O748 O 0.86897 0.89853 0.97933
 C749 C 0.87653 0.91586 0.97208
 C750 C 0.86536 0.92726 0.95468
 C751 C 0.84535 0.92027 0.94745
 H752 H 0.83760 0.90680 0.95500
 Cu753 Cu 1.00008 0.91099 0.91097
 Cu754 Cu 1.00002 0.88115 0.88113
 Cu755 Cu 0.99999 1.08911 0.91080
 Cu756 Cu 1.00007 1.11897 0.88097
 Cu757 Cu 0.91095 1.00026 0.91090
 Cu758 Cu 0.88110 1.00020 0.88108
 Cu759 Cu 1.08915 0.99996 0.91096
 Cu760 Cu 1.11901 0.99994 0.88114
 C761 C 0.94448 0.94459 0.87514
 H762 H 0.94976 0.94987 0.89071
 C763 C 0.93029 0.93038 0.83535
 C764 C 1.05564 1.05555 0.87505
 H765 H 1.05033 1.05026 0.89061
 C766 C 1.06994 1.06979 0.83529
 C767 C 0.87513 0.94467 0.94449
 H768 H 0.89069 0.94997 0.94978
 C769 C 0.83538 0.93042 0.93027
 C770 C 1.12499 1.05552 0.94450
 H771 H 1.10945 1.05019 0.94981
 C772 C 1.16468 1.06986 0.93019
 C773 C 0.94441 0.87526 0.94449
 H774 H 0.94973 0.89081 0.94979
 C775 C 0.93010 0.83554 0.93023
 C776 C 1.05563 1.12486 0.94438
 H777 H 1.05029 1.10933 0.94970
 C778 C 1.07002 1.16453 0.93005
 C779 C 0.94437 1.05579 0.87488
 H780 H 0.94981 1.05037 0.89035
 C781 C 0.92975 1.07038 0.83536
 C782 C 1.05569 0.94439 0.87508
 H783 H 1.05035 0.94973 0.89061
 C784 C 1.07007 0.93001 0.83540
 C785 C 1.05558 0.87503 0.94452
 H786 H 1.05025 0.89056 0.94986
 C787 C 1.06993 0.83535 0.93016
 C788 C 0.94450 1.12506 0.94440
 H789 H 0.94984 1.10954 0.94976
 C790 C 0.93014 1.16472 0.93000
 C791 C 0.87511 1.05585 0.94443
 H792 H 0.89062 1.05048 0.94978
 C793 C 0.83547 1.07027 0.93004
 C794 C 1.12493 0.94431 0.94452
 H795 H 1.10941 0.94967 0.94986
 C796 C 1.16458 0.92990 0.93013
 O797 O 1.02085 0.92302 1.10653
 O798 O 1.02080 0.89822 1.13144
 C799 C 1.02810 0.91554 1.12390
 C800 C 1.04553 0.92687 1.13508
 C801 C 1.05289 0.91973 1.15500
 H802 H 1.04542 0.90618 1.16269
 O803 O 0.97928 1.07704 1.10646
 O804 O 0.97926 1.10184 1.13138
 C805 C 0.97201 1.08450 1.12383
 C806 C 0.95460 1.07313 1.13501
 C807 C 0.94734 1.08014 1.15501
 H808 H 0.95485 1.09363 1.16276
 O809 O 0.89392 1.02095 1.07718
 O810 O 0.86898 1.02101 1.10195
 C811 C 0.87656 1.02825 1.08461
 C812 C 0.86541 1.04566 1.07320
 C813 C 0.84541 1.05293 1.08019
 H814 H 0.83766 1.04544 1.09370
 O815 O 1.10607 0.97915 1.07728
 O816 O 1.13105 0.97913 1.10202
 C817 C 1.12345 0.97188 1.08469
 C818 C 1.13462 0.95449 1.07327
 C819 C 1.15463 0.94723 1.08025
 H820 H 1.16238 0.95473 1.09374
 O821 O 1.07698 0.89374 1.02099
 O822 O 1.10178 0.86882 1.02103
 C823 C 1.08445 0.87639 1.02829
 C824 C 1.07311 0.86526 1.04576
 C825 C 1.08020 0.84533 1.05313
 H826 H 1.09372 0.83759 1.04565
 O827 O 0.92313 1.10630 1.02088
 O828 O 0.89837 1.13125 1.02092
 C829 C 0.91569 1.12366 1.02818
 C830 C 0.92706 1.13480 1.04562
 C831 C 0.92002 1.15477 1.05292
 H832 H 0.90653 1.16252 1.04539
 O833 O 0.92305 0.97934 1.10639
 O834 O 0.89825 0.97934 1.13131
 C835 C 0.91559 0.97207 1.12375
 C836 C 0.92695 0.95464 1.13492
 C837 C 0.91988 0.94735 1.15489
 H838 H 0.90637 0.95485 1.16262
 O839 O 1.07694 1.02074 1.10652
 O840 O 1.10177 1.02078 1.13141
 C841 C 1.08443 1.02804 1.12386
 C842 C 1.07310 1.04550 1.13502
 C843 C 1.08021 1.05284 1.15495
 H844 H 1.09372 1.04534 1.16267
 O845 O 0.97931 0.89396 1.07721
 O846 O 0.97921 0.86900 1.10197
 C847 C 0.97200 0.87660 1.08462
 C848 C 0.95462 0.86546 1.07318
 C849 C 0.94742 0.84541 1.08009
 H850 H 0.95495 0.83762 1.09354
 O851 O 1.02082 1.10617 1.07721
 O852 O 1.02085 1.13114 1.10196
 C853 C 1.02809 1.12355 1.08462
 C854 C 1.04546 1.13471 1.07318
 C855 C 1.05269 1.15473 1.08013
 H856 H 1.04519 1.16250 1.09362
 O857 O 0.89384 0.92323 1.02095
 O858 O 0.86892 0.89845 1.02098
 C859 C 0.87649 0.91578 1.02824
 C860 C 0.86532 0.92715 1.04567
 C861 C 0.84535 0.92010 1.05297
 H862 H 0.83762 0.90660 1.04546
 O863 O 1.10608 1.07689 1.02091
 O864 O 1.13101 1.10166 1.02095
 C865 C 1.12344 1.08433 1.02820
 C866 C 1.13460 1.07294 1.04562
 C867 C 1.15460 1.07993 1.05287
 H868 H 1.16235 1.09341 1.04533
 O869 O 1.02085 1.07705 1.10647
 O870 O 1.02089 1.10186 1.13138
 C871 C 1.02814 1.08452 1.12383
 C872 C 1.04556 1.07315 1.13500
 C873 C 1.05292 1.08024 1.15493
 H874 H 1.04548 1.09379 1.16264
 O875 O 0.97928 0.92310 1.10644
 O876 O 0.97917 0.89830 1.13135
 C877 C 0.97195 0.91565 1.12379
 C878 C 0.95453 0.92704 1.13494
 C879 C 0.94721 0.92000 1.15491
 H880 H 0.95470 0.90648 1.16265
 O881 O 1.10606 1.02071 1.07726
 O882 O 1.13103 1.02074 1.10200
 C883 C 1.12343 1.02799 1.08467
 C884 C 1.13459 1.04537 1.07325
 C885 C 1.15459 1.05261 1.08023
 H886 H 1.16235 1.04510 1.09373
 O887 O 0.89385 0.97938 1.07721
 O888 O 0.86891 0.97938 1.10199
 C889 C 0.87648 0.97212 1.08466
 C890 C 0.86531 0.95472 1.07327
 C891 C 0.84535 0.94743 1.08032
 H892 H 0.83762 0.95493 1.09384
 O893 O 1.07694 1.10612 1.02086
 O894 O 1.10172 1.13103 1.02089
 C895 C 1.08438 1.12348 1.02814
 C896 C 1.07300 1.13467 1.04553
 C897 C 1.07998 1.15469 1.05272
 H898 H 1.09344 1.16244 1.04516
 O899 O 0.92308 0.89410 1.02093
 O900 O 0.89831 0.86917 1.02094
 C901 C 0.91565 0.87673 1.02819
 C902 C 0.92705 0.86552 1.04557
 C903 C 0.92010 0.84548 1.05273
 H904 H 0.90664 0.83773 1.04516
 O905 O 1.07698 0.97916 1.10658
 O906 O 1.10181 0.97913 1.13146
 C907 C 1.08447 0.97187 1.12393
 C908 C 1.07313 0.95444 1.13510
 C909 C 1.08024 0.94704 1.15502
 H910 H 1.09379 0.95449 1.16273
 O911 O 0.92305 1.02091 1.10643
 O912 O 0.89825 1.02097 1.13135
 C913 C 0.91560 1.02819 1.12380
 C914 C 0.92699 1.04558 1.13499
 C915 C 0.91998 1.05284 1.15499
 H916 H 0.90648 1.04533 1.16273
 O917 O 0.97926 1.10620 1.07725
 O918 O 0.97924 1.13115 1.10202
 C919 C 0.97198 1.12357 1.08468
 C920 C 0.95459 1.13475 1.07328
 C921 C 0.94729 1.15472 1.08032
 H922 H 0.95477 1.16244 1.09385
 O923 O 1.02087 0.89387 1.07730
 O924 O 1.02083 0.86893 1.10207
 C925 C 1.02812 0.87650 1.08475
 C926 C 1.04554 0.86531 1.07339
 C927 C 1.05288 0.84539 1.08051
 H928 H 1.04542 0.83769 1.09406
 O929 O 1.10608 0.92299 1.02095
 O930 O 1.13103 0.89821 1.02098
 C931 C 1.12345 0.91555 1.02823
 C932 C 1.13462 0.92693 1.04564
 C933 C 1.15462 0.91994 1.05286
 H934 H 1.16238 0.90646 1.04532
 O935 O 0.89396 1.07713 1.02086
 O936 O 0.86905 1.10193 1.02090
 C937 C 0.87661 1.08459 1.02815
 C938 C 0.86543 1.07322 1.04557
 C939 C 0.84544 1.08024 1.05281
 H940 H 0.83770 1.09372 1.04528
 Cu941 Cu 1.00009 0.91098 1.08939
 Cu942 Cu 0.99999 0.88111 1.11921
 Cu943 Cu 1.00005 1.08913 1.08937
 Cu944 Cu 1.00006 1.11900 1.11918
 Cu945 Cu 0.91094 0.91116 1.00015
 Cu946 Cu 0.88111 0.88133 1.00014
 Cu947 Cu 1.08904 0.91083 1.00017
 Cu948 Cu 1.11889 0.88101 1.00018
 Cu949 Cu 0.91102 1.08926 1.00006
 Cu950 Cu 0.88120 1.11912 1.00009
 Cu951 Cu 1.08905 1.08902 1.00008
 Cu952 Cu 1.11889 1.11883 1.00010
 Cu953 Cu 0.91095 1.00015 1.08932
 Cu954 Cu 0.88110 1.00018 1.11915
 Cu955 Cu 1.08902 0.99994 1.08944
 Cu956 Cu 1.11892 0.99995 1.11922
 C957 C 1.05562 0.94437 1.12537
 H958 H 1.05023 0.94978 1.10989
 C959 C 1.07014 0.92980 1.16493
 C960 C 0.94445 1.05570 1.12523
 H961 H 0.94977 1.05039 1.10968
 C962 C 0.93014 1.07000 1.16496
 C963 C 0.87518 1.05578 1.05574
 H964 H 0.89073 1.05045 1.05043
 C965 C 0.83547 1.07011 1.07001
 C966 C 1.12485 0.94436 1.05582
 H967 H 1.10929 0.94966 1.05053
 C968 C 1.16459 0.93007 1.07005
 C969 C 1.05563 0.87501 1.05587
 H970 H 1.05026 0.89050 1.05048
 C971 C 1.07010 0.83543 1.07039
 C972 C 0.94449 1.12502 1.05578
 H973 H 0.94982 1.10949 1.05044
 C974 C 0.93012 1.16470 1.07015
 C975 C 0.94442 0.94451 1.12518
 H976 H 0.94977 0.94984 1.10965
 C977 C 0.93001 0.93014 1.16485
 C978 C 1.05563 1.05563 1.12528
 H979 H 1.05025 1.05025 1.10978
 C980 C 1.07013 1.07010 1.16487
 C981 C 0.94446 0.87528 1.05577
 H982 H 0.94973 0.89086 1.05053
 C983 C 0.93028 0.83546 1.06987
 C984 C 1.05559 1.12492 1.05574
 H985 H 1.05030 1.10935 1.05047
 C986 C 1.06984 1.16469 1.06990
 C987 C 0.87506 0.94460 1.05580
 H988 H 0.89058 0.94994 1.05045
 C989 C 0.83540 0.93024 1.07018
 C990 C 1.12483 1.05551 1.05579
 H991 H 1.10928 1.05021 1.05049
 C992 C 1.16456 1.06978 1.07005
 O993 O 0.97952 0.42284 0.39379
 O994 O 0.97951 0.39807 0.36884
 C995 C 0.97225 0.41540 0.37642
 C996 C 0.95484 0.42678 0.36524
 C997 C 0.94757 0.41974 0.34525
 H998 H 0.95508 0.40623 0.33752
 O999 O 1.02120 0.57697 0.39372
 O1000 O 1.02117 0.60172 0.36875
 C1001 C 1.02846 0.58441 0.37634
 C1002 C 1.04589 0.57305 0.36518
 C1003 C 1.05323 0.58015 0.34524
 H1004 H 1.04575 0.59368 0.33752
 O1005 O 0.89413 0.47909 0.42296
 O1006 O 0.86924 0.47908 0.39813
 C1007 C 0.87678 0.47183 0.41549
 C1008 C 0.86558 0.45443 0.42686
 C1009 C 0.84559 0.44721 0.41984
 H1010 H 0.83786 0.45475 0.40634
 O1011 O 1.10655 0.52073 0.42290
 O1012 O 1.13147 0.52071 0.39810
 C1013 C 1.12390 0.52799 0.41543
 C1014 C 1.13506 0.54543 0.42678
 C1015 C 1.15499 0.55277 0.41970
 H1016 H 1.16272 0.54529 0.40617
 O1017 O 0.92322 0.39367 0.47921
 O1018 O 0.89844 0.36875 0.47911
 C1019 C 0.91579 0.37631 0.47190
 C1020 C 0.92722 0.36515 0.45450
 C1021 C 0.92024 0.34516 0.44723
 H1022 H 0.90674 0.33741 0.45473
 O1023 O 1.07728 0.60618 0.47902
 O1024 O 1.10209 0.63108 0.47907
 C1025 C 1.08476 0.62354 0.47177
 C1026 C 1.07343 0.63472 0.45432
 C1027 C 1.08054 0.65463 0.44695
 H1028 H 1.09408 0.66234 0.45442
 O1029 O 0.92338 0.52063 0.39380
 O1030 O 0.89865 0.52066 0.36882
 C1031 C 0.91598 0.52790 0.37641
 C1032 C 0.92740 0.54527 0.36523
 C1033 C 0.92045 0.55245 0.34518
 H1034 H 0.90699 0.54491 0.33741
 O1035 O 1.07728 0.47918 0.39378
 O1036 O 1.10205 0.47911 0.36883
 C1037 C 1.08471 0.47189 0.37641
 C1038 C 1.07330 0.45450 0.36525
 C1039 C 1.08025 0.44729 0.34521
 H1040 H 1.09371 0.45483 0.33744
 O1041 O 1.02110 0.39364 0.42296
 O1042 O 1.02114 0.36874 0.39814
 C1043 C 1.02839 0.37630 0.41548
 C1044 C 1.04582 0.36513 0.42684
 C1045 C 1.05313 0.34517 0.41976
 H1046 H 1.04564 0.33745 0.40625
 O1047 O 0.97958 0.60612 0.42290
 O1048 O 0.97950 0.63102 0.39807
 C1049 C 0.97227 0.62346 0.41542
 C1050 C 0.95483 0.63461 0.42679
 C1051 C 0.94754 0.65458 0.41975
 H1052 H 0.95505 0.66233 0.40625
 O1053 O 0.89406 0.57689 0.47903
 O1054 O 0.86914 0.60168 0.47901
 C1055 C 0.87670 0.58435 0.47175
 C1056 C 0.86554 0.57298 0.45433
 C1057 C 0.84558 0.58003 0.44702
 H1058 H 0.83784 0.59354 0.45451
 O1059 O 1.10646 0.42287 0.47915
 O1060 O 1.13138 0.39808 0.47913
 C1061 C 1.12382 0.41542 0.47187
 C1062 C 1.13499 0.42680 0.45445
 C1063 C 1.15496 0.41976 0.44715
 H1064 H 1.16269 0.40624 0.45465
 O1065 O 0.97963 0.57689 0.39376
 O1066 O 0.97956 0.60163 0.36878
 C1067 C 0.97234 0.58429 0.37638
 C1068 C 0.95497 0.57286 0.36521
 C1069 C 0.94777 0.57979 0.34516
 H1070 H 0.95531 0.59325 0.33738
 O1071 O 1.02108 0.42291 0.39384
 O1072 O 1.02112 0.39816 0.36888
 C1073 C 1.02835 0.41549 0.37646
 C1074 C 1.04573 0.42690 0.36527
 C1075 C 1.05294 0.41994 0.34524
 H1076 H 1.04541 0.40647 0.33748
 O1077 O 1.10650 0.47915 0.42294
 O1078 O 1.13142 0.47907 0.39813
 C1079 C 1.12385 0.47184 0.41548
 C1080 C 1.13500 0.45441 0.42687
 C1081 C 1.15497 0.44711 0.41982
 H1082 H 1.16271 0.45462 0.40631
 O1083 O 0.89408 0.52066 0.42288
 O1084 O 0.86920 0.52070 0.39805
 C1085 C 0.87674 0.52795 0.41540
 C1086 C 0.86556 0.54538 0.42675
 C1087 C 0.84560 0.55267 0.41969
 H1088 H 0.83788 0.54516 0.40618
 O1089 O 0.92326 0.60605 0.47903
 O1090 O 0.89848 0.63098 0.47902
 C1091 C 0.91581 0.62341 0.47176
 C1092 C 0.92720 0.63459 0.45435
 C1093 C 0.92016 0.65456 0.44706
 H1094 H 0.90664 0.66229 0.45455
 O1095 O 1.07734 0.39364 0.47912
 O1096 O 1.10211 0.36870 0.47911
 C1097 C 1.08479 0.37628 0.47184
 C1098 C 1.07342 0.36512 0.45442
 C1099 C 1.08048 0.34517 0.44709
 H1100 H 1.09401 0.33744 0.45457
 O1101 O 1.07738 0.52076 0.39370
 O1102 O 1.10216 0.52073 0.36875
 C1103 C 1.08484 0.52802 0.37633
 C1104 C 1.07349 0.54546 0.36516
 C1105 C 1.08058 0.55282 0.34522
 H1106 H 1.09411 0.54535 0.33749
 O1107 O 0.92330 0.47906 0.39375
 O1108 O 0.89855 0.47904 0.36878
 C1109 C 0.91587 0.47179 0.37637
 C1110 C 0.92726 0.45437 0.36521
 C1111 C 0.92024 0.44708 0.34523
 H1112 H 0.90674 0.45458 0.33748
 O1113 O 1.02115 0.60619 0.42287
 O1114 O 1.02114 0.63109 0.39804
 C1115 C 1.02841 0.62355 0.41538
 C1116 C 1.04584 0.63472 0.42673
 C1117 C 1.05320 0.65463 0.41961
 H1118 H 1.04573 0.66234 0.40606
 O1119 O 0.97953 0.39370 0.42302
 O1120 O 0.97952 0.36878 0.39822
 C1121 C 0.97226 0.37634 0.41556
 C1122 C 0.95485 0.36516 0.42694
 C1123 C 0.94762 0.34517 0.41992
 H1124 H 0.95516 0.33743 0.40643
 O1125 O 1.10644 0.57697 0.47902
 O1126 O 1.13139 0.60172 0.47907
 C1127 C 1.12382 0.58441 0.47177
 C1128 C 1.13501 0.57304 0.45436
 C1129 C 1.15494 0.58013 0.44702
 H1130 H 1.16264 0.59367 0.45450
 O1131 O 0.89402 0.42284 0.47918
 O1132 O 0.86908 0.39807 0.47908
 C1133 C 0.87667 0.41541 0.47186
 C1134 C 0.86553 0.42682 0.45444
 C1135 C 0.84553 0.41985 0.44717
 H1136 H 0.83776 0.40637 0.45467
 Cu1137 Cu 1.00031 0.41075 0.41089
 Cu1138 Cu 1.00032 0.38094 0.38102
 Cu1139 Cu 1.00039 0.58907 0.41080
 Cu1140 Cu 1.00033 0.61886 0.38091
 Cu1141 Cu 0.91120 0.49986 0.41084
 Cu1142 Cu 0.88142 0.49987 0.38094
 Cu1143 Cu 1.08945 0.49996 0.41082
 Cu1144 Cu 1.11927 0.49989 0.38095
 C1145 C 0.94471 0.44424 0.37498
 H1146 H 0.95003 0.44958 0.39052
 C1147 C 0.93038 0.42988 0.33529
 C1148 C 1.05600 0.55556 0.37490
 H1149 H 1.05062 0.55018 0.39041
 C1150 C 1.07046 0.57005 0.33529
 C1151 C 0.87532 0.44426 0.44432
 H1152 H 0.89086 0.44955 0.44964
 C1153 C 0.83560 0.43004 0.42998
 C1154 C 1.12530 0.55554 0.44426
 H1155 H 1.10980 0.55017 0.44963
 C1156 C 1.16490 0.57001 0.42981
 C1157 C 0.94467 0.37492 0.44438
 H1158 H 0.94996 0.39047 0.44970
 C1159 C 0.93043 0.33520 0.43006
 C1160 C 1.05593 0.62500 0.44423
 H1161 H 1.05054 0.60952 0.44963
 C1162 C 1.07044 0.66456 0.42970
 C1163 C 0.94480 0.55545 0.37501
 H1164 H 0.95007 0.55019 0.39060
 C1165 C 0.93063 0.56960 0.33518
 C1166 C 1.05589 0.44433 0.37505
 H1167 H 1.05061 0.44961 0.39063
 C1168 C 1.07008 0.43013 0.33524
 C1169 C 1.05594 0.37486 0.44431
 H1170 H 1.05058 0.39038 0.44968
 C1171 C 1.07035 0.33523 0.42988
 C1172 C 0.94468 0.62485 0.44424
 H1173 H 0.95002 0.60932 0.44958
 C1174 C 0.93032 0.66452 0.42987
 C1175 C 0.87529 0.55551 0.44422
 H1176 H 0.89081 0.55017 0.44957
 C1177 C 0.83564 0.56988 0.42981
 C1178 C 1.12525 0.44428 0.44433
 H1179 H 1.10972 0.44962 0.44967
 C1180 C 1.16491 0.42990 0.42995
 O1181 O 1.02084 0.42280 0.60610
 O1182 O 1.02090 0.39802 0.63104
 C1183 C 1.02813 0.41536 0.62347
 C1184 C 1.04554 0.42674 0.63463
 C1185 C 1.05281 0.41972 0.65462
 H1186 H 1.04529 0.40623 0.66237
 O1187 O 0.97944 0.57680 0.60604
 O1188 O 0.97938 0.60157 0.63099
 C1189 C 0.97215 0.58424 0.62341
 C1190 C 0.95474 0.57285 0.63458
 C1191 C 0.94748 0.57985 0.65458
 H1192 H 0.95500 0.59334 0.66233
 O1193 O 0.89401 0.52058 0.57686
 O1194 O 0.86908 0.52067 0.60164
 C1195 C 0.87665 0.52789 0.58430
 C1196 C 0.86550 0.54530 0.57289
 C1197 C 0.84550 0.55256 0.57987
 H1198 H 0.83773 0.54504 0.59336
 O1199 O 1.10639 0.47895 0.57698
 O1200 O 1.13129 0.47894 0.60179
 C1201 C 1.12374 0.47167 0.58445
 C1202 C 1.13492 0.45424 0.57310
 C1203 C 1.15485 0.44689 0.58023
 H1204 H 1.16254 0.45436 0.59378
 O1205 O 1.07721 0.39371 0.52070
 O1206 O 1.10197 0.36875 0.52075
 C1207 C 1.08463 0.37634 0.52798
 C1208 C 1.07319 0.36516 0.54536
 C1209 C 1.08015 0.34514 0.55260
 H1210 H 1.09365 0.33738 0.54510
 O1211 O 0.92326 0.60602 0.52062
 O1212 O 0.89849 0.63097 0.52066
 C1213 C 0.91582 0.62339 0.52790
 C1214 C 0.92722 0.63456 0.54530
 C1215 C 0.92026 0.65458 0.55252
 H1216 H 0.90679 0.66235 0.54498
 O1217 O 0.92312 0.47900 0.60612
 O1218 O 0.89833 0.47904 0.63105
 C1219 C 0.91566 0.47175 0.62349
 C1220 C 0.92701 0.45432 0.63467
 C1221 C 0.91993 0.44702 0.65463
 H1222 H 0.90641 0.45452 0.66235
 O1223 O 1.07717 0.52054 0.60612
 O1224 O 1.10194 0.52058 0.63106
 C1225 C 1.08461 0.52783 0.62349
 C1226 C 1.07323 0.54525 0.63466
 C1227 C 1.08027 0.55253 0.65464
 H1228 H 1.09376 0.54501 0.66238
 O1229 O 0.97925 0.39357 0.57698
 O1230 O 0.97926 0.36865 0.60179
 C1231 C 0.97198 0.37621 0.58446
 C1232 C 0.95453 0.36506 0.57312
 C1233 C 0.94713 0.34517 0.58027
 H1234 H 0.95458 0.33747 0.59384
 O1235 O 1.02103 0.60601 0.57691
 O1236 O 1.02103 0.63092 0.60171
 C1237 C 1.02830 0.62337 0.58437
 C1238 C 1.04571 0.63455 0.57300
 C1239 C 1.05299 0.65451 0.58005
 H1240 H 1.04550 0.66224 0.59357
 O1241 O 0.89394 0.42281 0.52077
 O1242 O 0.86901 0.39805 0.52074
 C1243 C 0.87657 0.41536 0.52802
 C1244 C 0.86540 0.42674 0.54544
 C1245 C 0.84545 0.41968 0.55277
 H1246 H 0.83772 0.40616 0.54528
 O1247 O 1.10632 0.57684 0.52060
 O1248 O 1.13128 0.60158 0.52071
 C1249 C 1.12368 0.58424 0.52791
 C1250 C 1.13483 0.57279 0.54530
 C1251 C 1.15487 0.57970 0.55250
 H1252 H 1.16265 0.59316 0.54496
 O1253 O 1.02101 0.57681 0.60609
 O1254 O 1.02101 0.60158 0.63104
 C1255 C 1.02827 0.58425 0.62347
 C1256 C 1.04567 0.57286 0.63465
 C1257 C 1.05295 0.57989 0.65463
 H1258 H 1.04546 0.59340 0.66237
 O1259 O 0.97927 0.42279 0.60614
 O1260 O 0.97928 0.39802 0.63108
 C1261 C 0.97200 0.41534 0.62351
 C1262 C 0.95458 0.42672 0.63469
 C1263 C 0.94725 0.41966 0.65465
 H1264 H 0.95473 0.40614 0.66238
 O1265 O 1.10628 0.52052 0.57685
 O1266 O 1.13120 0.52056 0.60164
 C1267 C 1.12363 0.52779 0.58429
 C1268 C 1.13481 0.54518 0.57288
 C1269 C 1.15485 0.55235 0.57983
 H1270 H 1.16262 0.54479 0.59329
 O1271 O 0.89394 0.47901 0.57692
 O1272 O 0.86901 0.47905 0.60172
 C1273 C 0.87657 0.47176 0.58439
 C1274 C 0.86540 0.45434 0.57303
 C1275 C 0.84545 0.44704 0.58010
 H1276 H 0.83772 0.45454 0.59363
 O1277 O 1.07721 0.60610 0.52062
 O1278 O 1.10201 0.63099 0.52072
 C1279 C 1.08467 0.62343 0.52795
 C1280 C 1.07328 0.63458 0.54538
 C1281 C 1.08031 0.65454 0.55268
 H1282 H 1.09381 0.66228 0.54518
 O1283 O 0.92309 0.39359 0.52080
 O1284 O 0.89830 0.36868 0.52077
 C1285 C 0.91562 0.37624 0.52807
 C1286 C 0.92695 0.36507 0.54552
 C1287 C 0.91980 0.34518 0.55292
 H1288 H 0.90624 0.33750 0.54547
 O1289 O 1.07710 0.47897 0.60607
 O1290 O 1.10186 0.47896 0.63103
 C1291 C 1.08454 0.47170 0.62345
 C1292 C 1.07314 0.45431 0.63463
 C1293 C 1.08016 0.44703 0.65462
 H1294 H 1.09365 0.45453 0.66237
 O1295 O 0.92319 0.52057 0.60605
 O1296 O 0.89840 0.52066 0.63099
 C1297 C 0.91575 0.52788 0.62341
 C1298 C 0.92715 0.54528 0.63458
 C1299 C 0.92014 0.55253 0.65458
 H1300 H 0.90665 0.54503 0.66234
 O1301 O 0.97947 0.60600 0.57686
 O1302 O 0.97941 0.63092 0.60166
 C1303 C 0.97218 0.62336 0.58431
 C1304 C 0.95480 0.63454 0.57290
 C1305 C 0.94759 0.65457 0.57987
 H1306 H 0.95512 0.66232 0.59335
 O1307 O 1.02083 0.39366 0.57687
 O1308 O 1.02089 0.36873 0.60166
 C1309 C 1.02813 0.37631 0.58431
 C1310 C 1.04554 0.36515 0.57291
 C1311 C 1.05275 0.34513 0.57989
 H1312 H 1.04520 0.33736 0.59335
 O1313 O 1.10649 0.42278 0.52075
 O1314 O 1.13140 0.39798 0.52079
 C1315 C 1.12383 0.41531 0.52805
 C1316 C 1.13497 0.42666 0.54550
 C1317 C 1.15489 0.41956 0.55288
 H1318 H 1.16261 0.40602 0.54541
 O1319 O 0.89408 0.57685 0.52062
 O1320 O 0.86916 0.60164 0.52066
 C1321 C 0.87672 0.58430 0.52790
 C1322 C 0.86554 0.57290 0.54530
 C1323 C 0.84553 0.57991 0.55254
 H1324 H 0.83779 0.59340 0.54502
 Cu1325 Cu 1.00004 0.41069 0.58904
 Cu1326 Cu 1.00010 0.38086 0.61889
 Cu1327 Cu 1.00024 0.58892 0.58899
 Cu1328 Cu 1.00020 0.61874 0.61885
 Cu1329 Cu 0.91105 0.41071 0.49999
 Cu1330 Cu 0.88121 0.38089 0.49991
 Cu1331 Cu 1.08939 0.41074 0.49993
 Cu1332 Cu 1.11921 0.38088 0.49995
 Cu1333 Cu 0.91114 0.58897 0.49982
 Cu1334 Cu 0.88132 0.61882 0.49984
 Cu1335 Cu 1.08932 0.58905 0.49980
 Cu1336 Cu 1.11919 0.61884 0.49990
 Cu1337 Cu 0.91104 0.49979 0.58900
 Cu1338 Cu 0.88121 0.49987 0.61885
 Cu1339 Cu 1.08925 0.49974 0.58902
 Cu1340 Cu 1.11907 0.49976 0.61888
 C1341 C 1.05569 0.44418 0.62487
 H1342 H 1.05037 0.44950 0.60932
 C1343 C 1.07000 0.42985 0.66459
 C1344 C 0.94459 0.55541 0.62481
 H1345 H 0.94990 0.55010 0.60925
 C1346 C 0.93030 0.56971 0.66455
 C1347 C 0.87529 0.55545 0.55545
 H1348 H 0.89084 0.55014 0.55016
 C1349 C 0.83555 0.56974 0.56971
 C1350 C 1.12523 0.44415 0.55559
 H1351 H 1.10974 0.44953 0.55019
 C1352 C 1.16479 0.42966 0.57013
 C1353 C 1.05574 0.37493 0.55550
 H1354 H 1.05046 0.39049 0.55021
 C1355 C 1.06994 0.33516 0.56975
 C1356 C 0.94464 0.62477 0.55547
 H1357 H 0.94992 0.60920 0.55019
 C1358 C 0.93043 0.66455 0.56968
 C1359 C 0.94448 0.44420 0.62494
 H1360 H 0.94985 0.44955 0.60942
 C1361 C 0.93004 0.42980 0.66458
 C1362 C 1.05579 0.55539 0.62490
 H1363 H 1.05046 0.55006 0.60936
 C1364 C 1.07014 0.56973 0.66459
 C1365 C 0.94446 0.37477 0.55560
 H1366 H 0.94988 0.39024 0.55018
 C1367 C 0.92988 0.33527 0.57019
 C1368 C 1.05583 0.62481 0.55551
 H1369 H 1.05050 0.60929 0.55016
 C1370 C 1.07018 0.66447 0.56990
 C1371 C 0.87514 0.44421 0.55555
 H1372 H 0.89065 0.44956 0.55019
 C1373 C 0.83550 0.42982 0.56999
 C1374 C 1.12503 0.55538 0.55546
 H1375 H 1.10946 0.55013 0.55019
 C1376 C 1.16484 0.56949 0.56964
 O1377 O 0.47905 0.92323 0.39374
 O1378 O 0.47903 0.89849 0.36877
 C1379 C 0.47178 0.91581 0.37637
 C1380 C 0.45437 0.92721 0.36521
 C1381 C 0.44712 0.92022 0.34521
 H1382 H 0.45465 0.90674 0.33744
 O1383 O 0.52054 1.07721 0.39382
 O1384 O 0.52056 1.10199 0.36888
 C1385 C 0.52781 1.08465 0.37644
 C1386 C 0.54519 1.07326 0.36524
 C1387 C 0.55242 1.08028 0.34523
 H1388 H 0.54490 1.09378 0.33750
 O1389 O 0.39351 0.97940 0.42295
 O1390 O 0.36862 0.97940 0.39813
 C1391 C 0.37617 0.97213 0.41547
 C1392 C 0.36501 0.95468 0.42681
 C1393 C 0.34509 0.94732 0.41970
 H1394 H 0.33738 0.95480 0.40616
 O1395 O 0.60599 1.02096 0.42286
 O1396 O 0.63089 1.02101 0.39804
 C1397 C 0.62334 1.02824 0.41540
 C1398 C 0.63454 1.04562 0.42680
 C1399 C 0.65454 1.05284 0.41979
 H1400 H 0.66226 1.04532 0.40628
 O1401 O 0.42278 0.89398 0.47899
 O1402 O 0.39802 0.86904 0.47902
 C1403 C 0.41533 0.87662 0.47172
 C1404 C 0.42669 0.86546 0.45428
 C1405 C 0.41960 0.84553 0.44692
 H1406 H 0.40607 0.83782 0.45438
 O1407 O 0.57695 1.10632 0.47919
 O1408 O 0.60170 1.13126 0.47909
 C1409 C 0.58436 1.12368 0.47188
 C1410 C 0.57294 1.13484 0.45449
 C1411 C 0.57992 1.15484 0.44721
 H1412 H 0.59343 1.16258 0.45470
 O1413 O 0.42276 1.02098 0.39384
 O1414 O 0.39801 1.02104 0.36887
 C1415 C 0.41533 1.02828 0.37646
 C1416 C 0.42673 1.04568 0.36531
 C1417 C 0.41974 1.05294 0.34530
 H1418 H 0.40626 1.04542 0.33753
 O1419 O 0.57681 0.97940 0.39366
 O1420 O 0.60156 0.97940 0.36869
 C1421 C 0.58424 0.97213 0.37628
 C1422 C 0.57288 0.95471 0.36512
 C1423 C 0.57993 0.94741 0.34515
 H1424 H 0.59344 0.95490 0.33741
 O1425 O 0.52062 0.89398 0.42288
 O1426 O 0.52064 0.86908 0.39806
 C1427 C 0.52790 0.87663 0.41540
 C1428 C 0.54532 0.86546 0.42677
 C1429 C 0.55262 0.84549 0.41972
 H1430 H 0.54510 0.83776 0.40622
 O1431 O 0.47900 1.10644 0.42304
 O1432 O 0.47897 1.13136 0.39824
 C1433 C 0.47172 1.12380 0.41558
 C1434 C 0.45432 1.13498 0.42697
 C1435 C 0.44705 1.15496 0.41994
 H1436 H 0.45456 1.16270 0.40643
 O1437 O 0.39359 1.07729 0.47918
 O1438 O 0.36865 1.10206 0.47917
 C1439 C 0.37623 1.08474 0.47190
 C1440 C 0.36508 1.07337 0.45446
 C1441 C 0.34514 1.08045 0.44711
 H1442 H 0.33742 1.09399 0.45458
 O1443 O 0.60607 0.92319 0.47897
 O1444 O 0.63101 0.89841 0.47895
 C1445 C 0.62343 0.91573 0.47169
 C1446 C 0.63459 0.92711 0.45427
 C1447 C 0.65457 0.92009 0.44697
 H1448 H 0.66231 0.90658 0.45446
 O1449 O 0.47897 1.07721 0.39388
 O1450 O 0.47895 1.10199 0.36894
 C1451 C 0.47170 1.08466 0.37651
 C1452 C 0.45430 1.07327 0.36533
 C1453 C 0.44706 1.08028 0.34532
 H1454 H 0.45457 1.09377 0.33758
 O1455 O 0.52062 0.92316 0.39368
 O1456 O 0.52065 0.89841 0.36872
 C1457 C 0.52790 0.91573 0.37630
 C1458 C 0.54531 0.92711 0.36513
 C1459 C 0.55262 0.92006 0.34516
 H1460 H 0.54514 0.90654 0.33743
 O1461 O 0.60603 0.97939 0.42280
 O1462 O 0.63093 0.97939 0.39798
 C1463 C 0.62338 0.97213 0.41532
 C1464 C 0.63457 0.95471 0.42668
 C1465 C 0.65454 0.94744 0.41963
 H1466 H 0.66227 0.95495 0.40612
 O1467 O 0.39356 1.02099 0.42302
 O1468 O 0.36867 1.02104 0.39820
 C1469 C 0.37622 1.02829 0.41554
 C1470 C 0.36507 1.04574 0.42690
 C1471 C 0.34513 1.05307 0.41981
 H1472 H 0.33741 1.04557 0.40629
 O1473 O 0.42278 1.10645 0.47923
 O1474 O 0.39800 1.13137 0.47923
 C1475 C 0.41534 1.12381 0.47197
 C1476 C 0.42672 1.13499 0.45457
 C1477 C 0.41970 1.15497 0.44728
 H1478 H 0.40619 1.16271 0.45479
 O1479 O 0.57689 0.89402 0.47900
 O1480 O 0.60167 0.86909 0.47898
 C1481 C 0.58434 0.87666 0.47173
 C1482 C 0.57295 0.86548 0.45432
 C1483 C 0.57999 0.84551 0.44702
 H1484 H 0.59351 0.83778 0.45451
 O1485 O 0.57677 1.02097 0.39370
 O1486 O 0.60152 1.02103 0.36872
 C1487 C 0.58419 1.02827 0.37633
 C1488 C 0.57278 1.04567 0.36518
 C1489 C 0.57976 1.05294 0.34517
 H1490 H 0.59325 1.04544 0.33740
 O1491 O 0.42276 0.97942 0.39381
 O1492 O 0.39801 0.97942 0.36885
 C1493 C 0.41534 0.97216 0.37643
 C1494 C 0.42675 0.95477 0.36524
 C1495 C 0.41975 0.94752 0.34523
 H1496 H 0.40625 0.95503 0.33749
 O1497 O 0.52058 1.10635 0.42305
 O1498 O 0.52060 1.13128 0.39826
 C1499 C 0.52786 1.12371 0.41559
 C1500 C 0.54529 1.13486 0.42695
 C1501 C 0.55253 1.15485 0.41993
 H1502 H 0.54498 1.16261 0.40646
 O1503 O 0.47904 0.89395 0.42284
 O1504 O 0.47901 0.86907 0.39801
 C1505 C 0.47175 0.87661 0.41536
 C1506 C 0.45431 0.86545 0.42670
 C1507 C 0.44697 0.84553 0.41959
 H1508 H 0.45446 0.83782 0.40606
 O1509 O 0.60612 1.07712 0.47918
 O1510 O 0.63103 1.10191 0.47909
 C1511 C 0.62346 1.08457 0.47186
 C1512 C 0.63460 1.07317 0.45443
 C1513 C 0.65460 1.08015 0.44716
 H1514 H 0.66237 1.09361 0.45469
 O1515 O 0.39359 0.92316 0.47905
 O1516 O 0.36869 0.89837 0.47908
 C1517 C 0.37623 0.91570 0.47180
 C1518 C 0.36504 0.92706 0.45438
 C1519 C 0.34513 0.91995 0.44702
 H1520 H 0.33743 0.90640 0.45448
 Cu1521 Cu 0.49983 0.91106 0.41078
 Cu1522 Cu 0.49983 0.88127 0.38089
 Cu1523 Cu 0.49977 1.08932 0.41093
 Cu1524 Cu 0.49977 1.11915 0.38108
 Cu1525 Cu 0.41062 1.00019 0.41089
 Cu1526 Cu 0.38083 1.00023 0.38101
 Cu1527 Cu 0.58892 1.00018 0.41074
 Cu1528 Cu 0.61872 1.00022 0.38085
 C1529 C 0.44420 0.94464 0.37499
 H1530 H 0.44951 0.94994 0.39055
 C1531 C 0.42993 0.93036 0.33525
 C1532 C 0.55535 1.05581 0.37498
 H1533 H 0.55006 1.05049 0.39053
 C1534 C 0.56959 1.07013 0.33523
 C1535 C 0.37474 0.94457 0.44430
 H1536 H 0.39023 0.94996 0.44968
 C1537 C 0.33519 0.93007 0.42979
 C1538 C 0.62480 1.05576 0.44427
 H1539 H 0.60925 1.05047 0.44959
 C1540 C 0.66453 1.06999 0.42996
 C1541 C 0.44419 0.87518 0.44419
 H1542 H 0.44956 0.89067 0.44958
 C1543 C 0.42973 0.83560 0.42969
 C1544 C 0.55547 1.12509 0.44438
 H1545 H 0.55017 1.10955 0.44970
 C1546 C 0.56973 1.16480 0.43005
 C1547 C 0.44416 1.05583 0.37509
 H1548 H 0.44945 1.05051 0.39064
 C1549 C 0.42989 1.07012 0.33534
 C1550 C 0.55542 0.94459 0.37487
 H1551 H 0.55007 0.94993 0.39040
 C1552 C 0.56982 0.93019 0.33521
 C1553 C 0.55547 0.87522 0.44422
 H1554 H 0.55013 0.89074 0.44956
 C1555 C 0.56983 0.83555 0.42983
 C1556 C 0.44418 1.12523 0.44443
 H1557 H 0.44951 1.10970 0.44976
 C1558 C 0.42985 1.16492 0.43008
 C1559 C 0.37481 1.05587 0.44437
 H1560 H 0.39031 1.05050 0.44975
 C1561 C 0.33520 1.07031 0.42990
 C1562 C 0.62483 0.94457 0.44415
 H1563 H 0.60930 0.94990 0.44949
 C1564 C 0.66451 0.93024 0.42976
 O1565 O 0.52068 0.92330 0.60601
 O1566 O 0.52073 0.89851 0.63094
 C1567 C 0.52797 0.91585 0.62337
 C1568 C 0.54536 0.92724 0.63455
 C1569 C 0.55259 0.92026 0.65457
 H1570 H 0.54505 0.90678 0.66233
 O1571 O 0.47912 1.07719 0.60607
 O1572 O 0.47909 1.10195 0.63103
 C1573 C 0.47184 1.08462 0.62345
 C1574 C 0.45444 1.07323 0.63462
 C1575 C 0.44718 1.08025 0.65461
 H1576 H 0.45469 1.09374 0.66236
 O1577 O 0.39369 1.02092 0.57693
 O1578 O 0.36878 1.02095 0.60174
 C1579 C 0.37633 1.02819 0.58439
 C1580 C 0.36512 1.04557 0.57300
 C1581 C 0.34510 1.05276 0.57999
 H1582 H 0.33736 1.04521 0.59346
 O1583 O 0.60611 0.97951 0.57678
 O1584 O 0.63102 0.97942 0.60158
 C1585 C 0.62346 0.97220 0.58423
 C1586 C 0.63462 0.95481 0.57281
 C1587 C 0.65464 0.94759 0.57977
 H1588 H 0.66241 0.95512 0.59324
 O1589 O 0.57690 0.89405 0.52058
 O1590 O 0.60168 0.86912 0.52062
 C1591 C 0.58435 0.87669 0.52787
 C1592 C 0.57296 0.86553 0.54529
 C1593 C 0.57995 0.84553 0.55253
 H1594 H 0.59343 0.83777 0.54500
 O1595 O 0.42274 1.10643 0.52082
 O1596 O 0.39794 1.13134 0.52089
 C1597 C 0.41527 1.12378 0.52814
 C1598 C 0.42664 1.13493 0.54558
 C1599 C 0.41953 1.15484 0.55298
 H1600 H 0.40596 1.16254 0.54555
 O1601 O 0.42290 0.97938 0.60614
 O1602 O 0.39814 0.97936 0.63110
 C1603 C 0.41546 0.97211 0.62352
 C1604 C 0.42685 0.95470 0.63468
 C1605 C 0.41980 0.94739 0.65466
 H1606 H 0.40629 0.95489 0.66240
 O1607 O 0.57694 1.02106 0.60601
 O1608 O 0.60169 1.02103 0.63098
 C1609 C 0.58437 1.02831 0.62340
 C1610 C 0.57300 1.04572 0.63458
 C1611 C 0.58005 1.05300 0.65456
 H1612 H 0.59356 1.04550 0.66228
 O1613 O 0.47913 0.89411 0.57682
 O1614 O 0.47914 0.86916 0.60160
 C1615 C 0.47188 0.87673 0.58426
 C1616 C 0.45452 0.86553 0.57285
 C1617 C 0.44736 0.84549 0.57980
 H1618 H 0.45492 0.83773 0.59327
 O1619 O 0.52066 1.10644 0.57689
 O1620 O 0.52069 1.13134 0.60171
 C1621 C 0.52794 1.12379 0.58436
 C1622 C 0.54537 1.13494 0.57299
 C1623 C 0.55269 1.15490 0.58005
 H1624 H 0.54518 1.16264 0.59355
 O1625 O 0.39367 0.92317 0.52065
 O1626 O 0.36877 0.89837 0.52073
 C1627 C 0.37633 0.91570 0.52798
 C1628 C 0.36519 0.92707 0.54543
 C1629 C 0.34525 0.92001 0.55276
 H1630 H 0.33751 0.90651 0.54527
 O1631 O 0.60625 1.07725 0.52078
 O1632 O 0.63114 1.10205 0.52075
 C1633 C 0.62360 1.08473 0.52805
 C1634 C 0.63476 1.07340 0.54551
 C1635 C 0.65464 1.08055 0.55293
 H1636 H 0.66233 1.09411 0.54549
 O1637 O 0.52069 1.07726 0.60609
 O1638 O 0.52071 1.10201 0.63105
 C1639 C 0.52798 1.08469 0.62346
 C1640 C 0.54540 1.07331 0.63462
 C1641 C 0.55271 1.08034 0.65459
 H1642 H 0.54522 1.09385 0.66234
 O1643 O 0.47911 0.92321 0.60610
 O1644 O 0.47911 0.89841 0.63102
 C1645 C 0.47184 0.91574 0.62347
 C1646 C 0.45443 0.92711 0.63466
 C1647 C 0.44714 0.92005 0.65463
 H1648 H 0.45463 0.90653 0.66236
 O1649 O 0.60622 1.02109 0.57692
 O1650 O 0.63112 1.02105 0.60174
 C1651 C 0.62357 1.02834 0.58441
 C1652 C 0.63474 1.04580 0.57309
 C1653 C 0.65462 1.05319 0.58027
 H1654 H 0.66231 1.04573 0.59383
 O1655 O 0.39373 0.97935 0.57694
 O1656 O 0.36882 0.97933 0.60176
 C1657 C 0.37638 0.97207 0.58441
 C1658 C 0.36521 0.95464 0.57305
 C1659 C 0.34527 0.94733 0.58012
 H1660 H 0.33755 0.95482 0.59366
 O1661 O 0.57696 1.10633 0.52077
 O1662 O 0.60171 1.13128 0.52074
 C1663 C 0.58439 1.12371 0.52802
 C1664 C 0.57300 1.13489 0.54542
 C1665 C 0.58006 1.15485 0.55272
 H1666 H 0.59358 1.16255 0.54524
 O1667 O 0.42289 0.89403 0.52058
 O1668 O 0.39815 0.86908 0.52066
 C1669 C 0.41549 0.87666 0.52788
 C1670 C 0.42693 0.86550 0.54526
 C1671 C 0.42002 0.84545 0.55246
 H1672 H 0.40657 0.83767 0.54492
 O1673 O 0.57695 0.97950 0.60601
 O1674 O 0.60171 0.97941 0.63096
 C1675 C 0.58437 0.97219 0.62338
 C1676 C 0.57296 0.95481 0.63455
 C1677 C 0.57993 0.94757 0.65457
 H1678 H 0.59341 0.95508 0.66233
 O1679 O 0.42290 1.02095 0.60609
 O1680 O 0.39814 1.02099 0.63105
 C1681 C 0.41546 1.02824 0.62346
 C1682 C 0.42685 1.04565 0.63463
 C1683 C 0.41983 1.05293 0.65462
 H1684 H 0.40634 1.04543 0.66238
 O1685 O 0.47907 1.10644 0.57694
 O1686 O 0.47904 1.13134 0.60176
 C1687 C 0.47177 1.12378 0.58443
 C1688 C 0.45430 1.13493 0.57311
 C1689 C 0.44694 1.15484 0.58025
 H1690 H 0.45443 1.16254 0.59378
 O1691 O 0.52070 0.89408 0.57686
 O1692 O 0.52075 0.86914 0.60164
 C1693 C 0.52799 0.87671 0.58430
 C1694 C 0.54538 0.86554 0.57290
 C1695 C 0.55263 0.84554 0.57989
 H1696 H 0.54511 0.83779 0.59338
 O1697 O 0.60605 0.92324 0.52056
 O1698 O 0.63099 0.89847 0.52059
 C1699 C 0.62342 0.91581 0.52783
 C1700 C 0.63460 0.92721 0.54522
 C1701 C 0.65462 0.92024 0.55243
 H1702 H 0.66238 0.90676 0.54489
 O1703 O 0.39362 1.07721 0.52076
 O1704 O 0.36866 1.10196 0.52082
 C1705 C 0.37624 1.08462 0.52805
 C1706 C 0.36508 1.07319 0.54543
 C1707 C 0.34506 1.08013 0.55267
 H1708 H 0.33728 1.09361 0.54516
 Cu1709 Cu 0.49990 0.91116 0.58897
 Cu1710 Cu 0.49994 0.88131 0.61880
 Cu1711 Cu 0.49989 1.08936 0.58901
 Cu1712 Cu 0.49988 1.11916 0.61889
 Cu1713 Cu 0.41071 0.91107 0.49981
 Cu1714 Cu 0.38091 0.88122 0.49988
 Cu1715 Cu 0.58899 0.91111 0.49978
 Cu1716 Cu 0.61884 0.88127 0.49979
 Cu1717 Cu 0.41067 1.08937 0.50000
 Cu1718 Cu 0.38081 1.11918 0.50003
 Cu1719 Cu 0.58909 1.08927 0.49999
 Cu1720 Cu 0.61889 1.11912 0.49991
 Cu1721 Cu 0.41079 1.00015 0.58904
 Cu1722 Cu 0.38097 1.00016 0.61891
 Cu1723 Cu 0.58908 1.00030 0.58894
 Cu1724 Cu 0.61888 1.00021 0.61882
 C1725 C 0.55553 0.94467 0.62477
 H1726 H 0.55024 0.94996 0.60920
 C1727 C 0.56975 0.93041 0.66454
 C1728 C 0.44430 1.05578 0.62486
 H1729 H 0.44962 1.05046 0.60931
 C1730 C 0.42999 1.07011 0.66458
 C1731 C 0.37488 1.05576 0.55557
 H1732 H 0.39045 1.05050 0.55027
 C1733 C 0.33510 1.06993 0.56983
 C1734 C 0.62483 0.94465 0.55539
 H1735 H 0.60927 0.94993 0.55011
 C1736 C 0.66461 0.93042 0.56958
 C1737 C 0.55553 0.87530 0.55545
 H1738 H 0.55022 0.89086 0.55014
 C1739 C 0.56979 0.83556 0.56972
 C1740 C 0.44417 1.12521 0.55562
 H1741 H 0.44957 1.10973 0.55021
 C1742 C 0.42966 1.16476 0.57020
 C1743 C 0.44431 0.94458 0.62492
 H1744 H 0.44965 0.94993 0.60940
 C1745 C 0.42993 0.93018 0.66460
 C1746 C 0.55553 1.05585 0.62485
 H1747 H 0.55018 1.05052 0.60932
 C1748 C 0.56992 1.07020 0.66452
 C1749 C 0.44432 0.87531 0.55543
 H1750 H 0.44956 0.89089 0.55016
 C1751 C 0.43023 0.83549 0.56961
 C1752 C 0.55551 1.12517 0.55553
 H1753 H 0.55016 1.10966 0.55019
 C1754 C 0.56991 1.16481 0.56992
 C1755 C 0.37494 0.94453 0.55555
 H1756 H 0.39045 0.94988 0.55018
 C1757 C 0.33532 0.93013 0.56999
 C1758 C 0.62505 1.05588 0.55557
 H1759 H 0.60959 1.05046 0.55013
 C1760 C 0.66454 1.07046 0.57020
 O1761 O 0.57671 0.52079 1.10655
 O1762 O 0.60152 0.52085 1.13146
 C1763 C 0.58418 0.52809 1.12390
 C1764 C 0.57280 0.54551 1.13507
 C1765 C 0.57987 0.55284 1.15502
 H1766 H 0.59340 0.54537 1.16274
 O1767 O 0.42277 0.47922 1.10665
 O1768 O 0.39797 0.47916 1.13156
 C1769 C 0.41531 0.47193 1.12401
 C1770 C 0.42669 0.45452 1.13518
 C1771 C 0.41964 0.44722 1.15515
 H1772 H 0.40613 0.45471 1.16288
 O1773 O 0.52043 0.60614 1.07737
 O1774 O 0.52044 0.63109 1.10214
 C1775 C 0.52770 0.62351 1.08480
 C1776 C 0.54511 0.63467 1.07341
 C1777 C 0.55240 0.65463 1.08046
 H1778 H 0.54491 0.66237 1.09398
 O1779 O 0.47905 0.39385 1.07744
 O1780 O 0.47904 0.36892 1.10223
 C1781 C 0.47180 0.37648 1.08488
 C1782 C 0.45443 0.36529 1.07347
 C1783 C 0.44722 0.34528 1.08046
 H1784 H 0.45474 0.33754 1.09396
 O1785 O 0.60577 0.57694 1.02105
 O1786 O 0.63070 0.60171 1.02105
 C1787 C 0.62314 0.58438 1.02830
 C1788 C 0.63435 0.57297 1.04568
 C1789 C 0.65439 0.57991 1.05284
 H1790 H 0.66214 0.59337 1.04528
 O1791 O 0.39373 0.42294 1.02112
 O1792 O 0.36882 0.39815 1.02120
 C1793 C 0.37638 0.41549 1.02842
 C1794 C 0.36520 0.42690 1.04582
 C1795 C 0.34519 0.41991 1.05304
 H1796 H 0.33745 0.40643 1.04551
 O1797 O 0.47888 0.57697 1.10661
 O1798 O 0.47884 0.60178 1.13151
 C1799 C 0.47159 0.58444 1.12396
 C1800 C 0.45417 0.57309 1.13514
 C1801 C 0.44682 0.58021 1.15508
 H1802 H 0.45430 0.59374 1.16278
 O1803 O 0.52057 0.42304 1.10667
 O1804 O 0.52062 0.39825 1.13161
 C1805 C 0.52785 0.41559 1.12404
 C1806 C 0.54525 0.42698 1.13521
 C1807 C 0.55254 0.41997 1.15520
 H1808 H 0.54504 0.40647 1.16295
 O1809 O 0.60588 0.47918 1.07737
 O1810 O 0.63083 0.47917 1.10214
 C1811 C 0.62325 0.47191 1.08481
 C1812 C 0.63442 0.45450 1.07342
 C1813 C 0.65441 0.44721 1.08044
 H1814 H 0.66214 0.45471 1.09395
 O1815 O 0.39354 0.52076 1.07744
 O1816 O 0.36859 0.52076 1.10222
 C1817 C 0.37616 0.52802 1.08488
 C1818 C 0.36498 0.54542 1.07349
 C1819 C 0.34504 0.55276 1.08057
 H1820 H 0.33733 0.54530 1.09412
 O1821 O 0.42265 0.60600 1.02107
 O1822 O 0.39786 0.63092 1.02109
 C1823 C 0.41520 0.62336 1.02835
 C1824 C 0.42657 0.63455 1.04575
 C1825 C 0.41955 0.65455 1.05300
 H1826 H 0.40606 0.66228 1.04547
 O1827 O 0.57675 0.39383 1.02110
 O1828 O 0.60154 0.36890 1.02114
 C1829 C 0.58421 0.37647 1.02839
 C1830 C 0.57284 0.36532 1.04583
 C1831 C 0.57986 0.34534 1.05309
 H1832 H 0.59334 0.33758 1.04556
 O1833 O 0.42271 0.52080 1.10665
 O1834 O 0.39791 0.52080 1.13157
 C1835 C 0.41523 0.52807 1.12401
 C1836 C 0.42658 0.54551 1.13517
 C1837 C 0.41948 0.55288 1.15511
 H1838 H 0.40595 0.54542 1.16283
 O1839 O 0.57673 0.47922 1.10660
 O1840 O 0.60153 0.47922 1.13152
 C1841 C 0.58420 0.47196 1.12397
 C1842 C 0.57283 0.45457 1.13517
 C1843 C 0.57986 0.44731 1.15516
 H1844 H 0.59336 0.45482 1.16289
 O1845 O 0.52061 0.39388 1.07745
 O1846 O 0.52066 0.36895 1.10224
 C1847 C 0.52790 0.37652 1.08489
 C1848 C 0.54530 0.36535 1.07348
 C1849 C 0.55258 0.34536 1.08050
 H1850 H 0.54509 0.33762 1.09401
 O1851 O 0.47886 0.60607 1.07734
 O1852 O 0.47882 0.63103 1.10209
 C1853 C 0.47157 0.62344 1.08476
 C1854 C 0.45416 0.63459 1.07335
 C1855 C 0.44689 0.65458 1.08034
 H1856 H 0.45440 0.66235 1.09383
 O1857 O 0.39346 0.57685 1.02109
 O1858 O 0.36852 0.60162 1.02111
 C1859 C 0.37610 0.58430 1.02838
 C1860 C 0.36495 0.57295 1.04583
 C1861 C 0.34500 0.58003 1.05316
 H1862 H 0.33727 0.59354 1.04565
 O1863 O 0.60592 0.42301 1.02108
 O1864 O 0.63085 0.39823 1.02112
 C1865 C 0.62327 0.41556 1.02837
 C1866 C 0.63443 0.42694 1.04579
 C1867 C 0.65441 0.41991 1.05306
 H1868 H 0.66216 0.40642 1.04553
 O1869 O 0.47900 0.42302 1.10666
 O1870 O 0.47899 0.39823 1.13159
 C1871 C 0.47172 0.41556 1.12402
 C1872 C 0.45429 0.42693 1.13519
 C1873 C 0.44698 0.41988 1.15516
 H1874 H 0.45448 0.40637 1.16290
 O1875 O 0.52046 0.57695 1.10657
 O1876 O 0.52047 0.60176 1.13148
 C1877 C 0.52774 0.58443 1.12392
 C1878 C 0.54518 0.57308 1.13508
 C1879 C 0.55251 0.58015 1.15503
 H1880 H 0.54501 0.59367 1.16276
 O1881 O 0.39364 0.47920 1.07740
 O1882 O 0.36869 0.47914 1.10217
 C1883 C 0.37629 0.47190 1.08483
 C1884 C 0.36515 0.45449 1.07342
 C1885 C 0.34514 0.44725 1.08039
 H1886 H 0.33736 0.45477 1.09386
 O1887 O 0.60586 0.52074 1.07731
 O1888 O 0.63082 0.52079 1.10207
 C1889 C 0.62323 0.52802 1.08473
 C1890 C 0.63439 0.54539 1.07329
 C1891 C 0.65443 0.55258 1.08020
 H1892 H 0.66222 0.54504 1.09366
 O1893 O 0.42291 0.39374 1.02112
 O1894 O 0.39815 0.36881 1.02119
 C1895 C 0.41548 0.37639 1.02842
 C1896 C 0.42688 0.36524 1.04584
 C1897 C 0.41992 0.34523 1.05309
 H1898 H 0.40645 0.33745 1.04555
 O1899 O 0.57660 0.60614 1.02109
 O1900 O 0.60138 0.63106 1.02110
 C1901 C 0.58405 0.62350 1.02837
 C1902 C 0.57269 0.63466 1.04580
 C1903 C 0.57973 0.65463 1.05310
 H1904 H 0.59324 0.66236 1.04559
 Cu1905 Cu 0.58881 0.49998 1.08948
 Cu1906 Cu 0.61868 0.50001 1.11929
 Cu1907 Cu 0.41065 0.50000 1.08956
 Cu1908 Cu 0.38079 0.49996 1.11938
 Cu1909 Cu 0.49966 0.58905 1.08949
 Cu1910 Cu 0.49964 0.61892 1.11930
 Cu1911 Cu 0.49981 0.41093 1.08958
 Cu1912 Cu 0.49983 0.38109 1.11941
 C1913 C 0.55531 0.55561 1.12533
 H1914 H 0.54995 0.55024 1.10982
 C1915 C 0.56974 0.57005 1.16497
 C1916 C 0.44417 0.44439 1.12543
 H1917 H 0.44951 0.44974 1.10991
 C1918 C 0.42977 0.43001 1.16511
 C1919 C 0.55523 0.62492 1.05594
 H1920 H 0.54989 0.60940 1.05060
 C1921 C 0.56960 0.66458 1.07031
 C1922 C 0.44429 0.37503 1.05601
 H1923 H 0.44957 0.39059 1.05070
 C1924 C 0.43008 0.33528 1.07028
 C1925 C 0.62458 0.55556 1.05588
 H1926 H 0.60900 0.55030 1.05064
 C1927 C 0.66440 0.56973 1.06998
 C1928 C 0.37495 0.44433 1.05599
 H1929 H 0.39050 0.44963 1.05070
 C1930 C 0.33519 0.43008 1.07021
 C1931 C 0.44407 0.55560 1.12543
 H1932 H 0.44945 0.55021 1.10993
 C1933 C 0.42959 0.57012 1.16502
 C1934 C 0.55537 0.44443 1.12543
 H1935 H 0.55004 0.44974 1.10989
 C1936 C 0.56973 0.43012 1.16514
 C1937 C 0.62467 0.44438 1.05594
 H1938 H 0.60914 0.44971 1.05062
 C1939 C 0.66436 0.43003 1.07027
 C1940 C 0.37470 0.55550 1.05597
 H1941 H 0.39021 0.55013 1.05061
 C1942 C 0.33508 0.56995 1.07041
 C1943 C 0.44402 0.62480 1.05591
 H1944 H 0.44935 0.60926 1.05061
 C1945 C 0.42970 0.66453 1.07018
 C1946 C 0.55541 0.37510 1.05600
 H1947 H 0.55009 0.39063 1.05068
 C1948 C 0.56974 0.33539 1.07031
 O1949 O 0.57669 0.47909 0.89404
 O1950 O 0.60148 0.47909 0.86911
 C1951 C 0.58416 0.47182 0.87667
 C1952 C 0.57280 0.45440 0.86549
 C1953 C 0.57988 0.44712 0.84552
 H1954 H 0.59339 0.45463 0.83780
 O1955 O 0.42277 0.52051 0.89404
 O1956 O 0.39800 0.52055 0.86910
 C1957 C 0.41533 0.52778 0.87667
 C1958 C 0.42674 0.54517 0.86549
 C1959 C 0.41981 0.55235 0.84543
 H1960 H 0.40637 0.54478 0.83764
 O1961 O 0.47882 0.60605 0.92325
 O1962 O 0.47876 0.63096 0.89843
 C1963 C 0.47152 0.62340 0.91578
 C1964 C 0.45410 0.63455 0.92716
 C1965 C 0.44679 0.65452 0.92011
 H1966 H 0.45428 0.66225 0.90659
 O1967 O 0.52058 0.39372 0.92321
 O1968 O 0.52064 0.36877 0.89844
 C1969 C 0.52788 0.37636 0.91578
 C1970 C 0.54530 0.36522 0.92718
 C1971 C 0.55263 0.34526 0.92014
 H1972 H 0.54517 0.33751 0.90662
 O1973 O 0.60596 0.42296 0.97948
 O1974 O 0.63089 0.39818 0.97947
 C1975 C 0.62332 0.41550 0.97220
 C1976 C 0.63447 0.42687 0.95477
 C1977 C 0.65443 0.41982 0.94744
 H1978 H 0.66218 0.40631 0.95494
 O1979 O 0.39350 0.57679 0.97949
 O1980 O 0.36856 0.60155 0.97945
 C1981 C 0.37615 0.58423 0.97220
 C1982 C 0.36500 0.57285 0.95476
 C1983 C 0.34504 0.57990 0.94745
 H1984 H 0.33730 0.59340 0.95495
 O1985 O 0.52045 0.57690 0.89409
 O1986 O 0.52045 0.60166 0.86913
 C1987 C 0.52772 0.58434 0.87671
 C1988 C 0.54512 0.57295 0.86554
 C1989 C 0.55237 0.57995 0.84553
 H1990 H 0.54485 0.59344 0.83778
 O1991 O 0.47896 0.42281 0.89398
 O1992 O 0.47897 0.39801 0.86907
 C1993 C 0.47168 0.41533 0.87663
 C1994 C 0.45422 0.42666 0.86547
 C1995 C 0.44686 0.41953 0.84555
 H1996 H 0.45435 0.40599 0.83784
 O1997 O 0.60581 0.52068 0.92326
 O1998 O 0.63074 0.52073 0.89847
 C1999 C 0.62316 0.52797 0.91581
 C2000 C 0.63431 0.54539 0.92720
 C2001 C 0.65431 0.55264 0.92020
 H2002 H 0.66207 0.54511 0.90671
 O2003 O 0.39358 0.47899 0.92326
 O2004 O 0.36863 0.47897 0.89849
 C2005 C 0.37621 0.47172 0.91582
 C2006 C 0.36506 0.45432 0.92724
 C2007 C 0.34508 0.44703 0.92023
 H2008 H 0.33733 0.45451 0.90672
 O2009 O 0.57656 0.60614 0.97950
 O2010 O 0.60133 0.63106 0.97945
 C2011 C 0.58399 0.62350 0.97222
 C2012 C 0.57259 0.63467 0.95481
 C2013 C 0.57957 0.65467 0.94756
 H2014 H 0.59305 0.66243 0.95508
 O2015 O 0.42288 0.39370 0.97952
 O2016 O 0.39811 0.36877 0.97955
 C2017 C 0.41543 0.37634 0.97226
 C2018 C 0.42679 0.36516 0.95483
 C2019 C 0.41975 0.34519 0.94755
 H2020 H 0.40625 0.33746 0.95506
 O2021 O 0.42269 0.47894 0.89399
 O2022 O 0.39790 0.47892 0.86908
 C2023 C 0.41523 0.47165 0.87664
 C2024 C 0.42659 0.45421 0.86547
 C2025 C 0.41948 0.44683 0.84555
 H2026 H 0.40593 0.45427 0.83784
 O2027 O 0.57665 0.52066 0.89405
 O2028 O 0.60143 0.52071 0.86912
 C2029 C 0.58409 0.52795 0.87669
 C2030 C 0.57270 0.54535 0.86552
 C2031 C 0.57970 0.55260 0.84551
 H2032 H 0.59318 0.54508 0.83775
 O2033 O 0.47901 0.39368 0.92322
 O2034 O 0.47902 0.36873 0.89846
 C2035 C 0.47176 0.37631 0.91579
 C2036 C 0.45436 0.36515 0.92720
 C2037 C 0.44706 0.34518 0.92017
 H2038 H 0.45455 0.33744 0.90665
 O2039 O 0.52039 0.60609 0.92327
 O2040 O 0.52039 0.63100 0.89847
 C2041 C 0.52764 0.62345 0.91582
 C2042 C 0.54502 0.63465 0.92721
 C2043 C 0.55225 0.65465 0.92021
 H2044 H 0.54473 0.66239 0.90671
 O2045 O 0.39367 0.42287 0.97953
 O2046 O 0.36876 0.39808 0.97956
 C2047 C 0.37630 0.41541 0.97228
 C2048 C 0.36511 0.42677 0.95487
 C2049 C 0.34513 0.41972 0.94761
 H2050 H 0.33741 0.40622 0.95514
 O2051 O 0.60574 0.57695 0.97947
 O2052 O 0.63066 0.60173 0.97942
 C2053 C 0.62310 0.58439 0.97218
 C2054 C 0.63428 0.57300 0.95477
 C2055 C 0.65427 0.58000 0.94752
 H2056 H 0.66201 0.59349 0.95503
 O2057 O 0.52054 0.42287 0.89398
 O2058 O 0.52061 0.39807 0.86906
 C2059 C 0.52784 0.41541 0.87662
 C2060 C 0.54525 0.42680 0.86546
 C2061 C 0.55258 0.41976 0.84549
 H2062 H 0.54511 0.40624 0.83774
 O2063 O 0.47889 0.57682 0.89410
 O2064 O 0.47884 0.60157 0.86914
 C2065 C 0.47162 0.58423 0.87672
 C2066 C 0.45428 0.57279 0.86552
 C2067 C 0.44710 0.57972 0.84546
 H2068 H 0.45464 0.59318 0.83769
 O2069 O 0.39356 0.52056 0.92321
 O2070 O 0.36863 0.52060 0.89842
 C2071 C 0.37620 0.52785 0.91576
 C2072 C 0.36503 0.54527 0.92714
 C2073 C 0.34507 0.55258 0.92008
 H2074 H 0.33735 0.54509 0.90656
 O2075 O 0.60588 0.47911 0.92323
 O2076 O 0.63081 0.47911 0.89844
 C2077 C 0.62325 0.47185 0.91578
 C2078 C 0.63443 0.45444 0.92716
 C2079 C 0.65439 0.44715 0.92009
 H2080 H 0.66211 0.45464 0.90656
 O2081 O 0.57676 0.39380 0.97950
 O2082 O 0.60155 0.36888 0.97949
 C2083 C 0.58422 0.37644 0.97223
 C2084 C 0.57286 0.36526 0.95480
 C2085 C 0.57994 0.34530 0.94752
 H2086 H 0.59345 0.33758 0.95503
 O2087 O 0.42262 0.60602 0.97948
 O2088 O 0.39782 0.63094 0.97945
 C2089 C 0.41515 0.62338 0.97219
 C2090 C 0.42652 0.63455 0.95477
 C2091 C 0.41946 0.65451 0.94747
 H2092 H 0.40595 0.66224 0.95498
 Cu2093 Cu 0.58877 0.49988 0.91113
 Cu2094 Cu 0.61862 0.49992 0.88128
 Cu2095 Cu 0.41063 0.49975 0.91111
 Cu2096 Cu 0.38079 0.49976 0.88127
 Cu2097 Cu 0.58868 0.58906 1.00028
 Cu2098 Cu 0.61851 0.61889 1.00025
 Cu2099 Cu 0.58886 0.41088 1.00028
 Cu2100 Cu 0.61870 0.38105 1.00031
 Cu2101 Cu 0.41054 0.58893 1.00029
 Cu2102 Cu 0.38069 0.61875 1.00027
 Cu2103 Cu 0.41078 0.41079 1.00032
 Cu2104 Cu 0.38097 0.38095 1.00038
 Cu2105 Cu 0.49964 0.58898 0.91117
 Cu2106 Cu 0.49961 0.61880 0.88129
 Cu2107 Cu 0.49977 0.41076 0.91107
 Cu2108 Cu 0.49981 0.38089 0.88126
 C2109 C 0.55534 0.44427 0.87522
 H2110 H 0.54998 0.44961 0.89075
 C2111 C 0.56978 0.42991 0.83556
 C2112 C 0.44412 0.55537 0.87530
 H2113 H 0.44936 0.55012 0.89089
 C2114 C 0.42999 0.56950 0.83545
 C2115 C 0.44398 0.62480 0.94463
 H2116 H 0.44933 0.60928 0.94997
 C2117 C 0.42959 0.66446 0.93026
 C2118 C 0.55540 0.37498 0.94465
 H2119 H 0.55003 0.39051 0.94999
 C2120 C 0.56984 0.33533 0.93031
 C2121 C 0.62471 0.44432 0.94464
 H2122 H 0.60919 0.44967 0.95000
 C2123 C 0.66436 0.42995 0.93022
 C2124 C 0.37476 0.55539 0.94463
 H2125 H 0.39028 0.55004 0.94998
 C2126 C 0.33511 0.56978 0.93022
 C2127 C 0.55526 0.55550 0.87530
 H2128 H 0.54996 0.55019 0.89085
 C2129 C 0.56954 0.56979 0.83555
 C2130 C 0.44410 0.44414 0.87519
 H2131 H 0.44950 0.44955 0.89068
 C2132 C 0.42960 0.42959 0.83563
 C2133 C 0.62453 0.55554 0.94463
 H2134 H 0.60898 0.55023 0.94994
 C2135 C 0.66425 0.56983 0.93035
 C2136 C 0.37483 0.44421 0.94470
 H2137 H 0.39037 0.44955 0.95001
 C2138 C 0.33515 0.42984 0.93041
 C2139 C 0.55517 0.62489 0.94466
 H2140 H 0.54988 0.60934 0.94997
 C2141 C 0.56941 0.66462 0.93037
 C2142 C 0.44424 0.37490 0.94468
 H2143 H 0.44958 0.39043 0.95001
 C2144 C 0.42987 0.33524 0.93033
 C2145 C 1.11647 1.09017 1.22905
 C2146 C 1.11702 1.11404 1.23529
 C2147 C 1.10881 1.10812 1.25760
 C2148 C 1.10839 1.08437 1.25166
 C2149 C 1.09326 1.09291 1.22175
 C2150 C 1.08504 1.08698 1.24405
 C2151 C 1.09369 1.11666 1.22770
 C2152 C 1.08560 1.11087 1.25031
 C2153 C 1.11761 1.11676 1.27743
 C2154 C 1.12499 1.12405 1.29360
 C2155 C 1.08478 1.08460 1.20165
 C2156 C 1.07800 1.07791 1.18496
 H2157 H 1.12907 1.08156 1.22009
 H2158 H 1.13027 1.12526 1.23191
 H2159 H 1.11454 1.07119 1.26174
 H2160 H 1.07178 1.07575 1.24742
 H2161 H 1.08754 1.12985 1.21762
 H2162 H 1.07300 1.11948 1.25927
 C2163 C 1.11115 0.60873 0.72314
 C2164 C 1.09814 0.62123 0.74000
 C2165 C 1.10832 0.60756 0.75759
 C2166 C 1.12146 0.59519 0.74103
 C2167 C 1.09297 0.59240 0.72163
 C2168 C 1.10315 0.57872 0.73921
 C2169 C 1.07983 0.60477 0.73819
 C2170 C 1.09014 0.59123 0.75610
 C2171 C 1.11702 0.61617 0.77747
 C2172 C 1.12433 0.62344 0.79367
 C2173 C 1.08461 0.58413 0.70147
 C2174 C 1.07791 0.57748 0.68474
 H2175 H 1.11969 0.61584 0.70937
 H2176 H 1.09617 0.63880 0.74054
 H2177 H 1.13867 0.59134 0.74241
 H2178 H 1.10512 0.56115 0.73866
 H2179 H 1.06262 0.60862 0.73679
 H2180 H 1.08161 0.58412 0.76988
 C2181 C 0.61546 1.10198 0.72413
 C2182 C 0.60599 1.12091 0.73683
 C2183 C 0.60838 1.10791 0.75745
 C2184 C 0.61798 1.08910 0.74505
 C2185 C 0.59291 1.09282 0.72153
 C2186 C 0.59529 1.07981 0.74214
 C2187 C 0.58331 1.11163 0.73393
 C2188 C 0.58583 1.09875 0.75487
 C2189 C 0.61716 1.11649 0.77732
 C2190 C 0.62451 1.12373 0.79352
 C2191 C 0.58447 1.08458 0.70138
 C2192 C 0.57773 1.07795 0.68466
 H2193 H 0.62755 1.10322 0.71127
 H2194 H 0.61049 1.13791 0.73487
 H2195 H 0.63234 1.07994 0.74984
 H2196 H 0.59079 1.06281 0.74409
 H2197 H 0.56896 1.12080 0.72914
 H2198 H 0.57374 1.09752 0.76774
 C2199 C 0.61084 0.60923 1.22334
 C2200 C 0.59784 0.62178 1.24018
 C2201 C 0.60805 0.60816 1.25779
 C2202 C 0.62117 0.59574 1.24125
 C2203 C 0.59266 0.59289 1.22190
 C2204 C 0.60286 0.57927 1.23952
 C2205 C 0.57953 0.60531 1.23844
 C2206 C 0.58987 0.59182 1.25638
 C2207 C 0.61678 0.61683 1.27764
 C2208 C 0.62412 0.62414 1.29382
 C2209 C 0.58427 0.58455 1.20178
 C2210 C 0.57755 0.57785 1.18508
 H2211 H 0.61936 0.61630 1.20954
 H2212 H 0.59587 0.63935 1.24067
 H2213 H 0.63838 0.59190 1.24263
 H2214 H 0.60483 0.56169 1.23901
 H2215 H 0.56232 0.60915 1.23705
 H2216 H 0.58135 0.58476 1.27019
 C2217 C 0.90706 0.91943 1.24313
 C2218 C 0.88371 0.91223 1.24675
 C2219 C 0.89196 0.89198 1.25778
 C2220 C 0.91517 0.89904 1.25449
 C2221 C 0.90721 0.90731 1.22185
 C2222 C 0.91545 0.88706 1.23288
 C2223 C 0.88400 0.90024 1.22516
 C2224 C 0.89212 0.87987 1.23649
 C2225 C 0.88330 0.88328 1.27764
 C2226 C 0.87600 0.87596 1.29384
 C2227 C 0.91553 0.91567 1.20170
 C2228 C 0.92222 0.92236 1.18498
 H2229 H 0.91330 0.93579 1.24564
 H2230 H 0.87056 0.92248 1.25268
 H2231 H 0.92789 0.89844 1.26677
 H2232 H 0.92860 0.87680 1.22695
 H2233 H 0.87128 0.90083 1.21288
 H2234 H 0.88588 0.86351 1.23397
 C2235 C 0.90693 0.41917 0.74282
 C2236 C 0.88355 0.41207 0.74639
 C2237 C 0.89169 0.39180 0.75747
 C2238 C 0.91493 0.39876 0.75422
 C2239 C 0.90708 0.40703 0.72155
 C2240 C 0.91522 0.38676 0.73263
 C2241 C 0.88384 0.40006 0.72482
 C2242 C 0.89185 0.37967 0.73619
 C2243 C 0.88296 0.38316 0.77733
 C2244 C 0.87563 0.37587 0.79353
 C2245 C 0.91549 0.41534 0.70141
 C2246 C 0.92222 0.42201 0.68470
 H2247 H 0.91323 0.43551 0.74532
 H2248 H 0.87043 0.42239 0.75228
 H2249 H 0.92762 0.39813 0.76654
 H2250 H 0.92834 0.37644 0.72674
 H2251 H 0.87114 0.40069 0.71251
 H2252 H 0.88555 0.36333 0.73367
 C2253 C 0.39703 0.88523 0.72409
 C2254 C 0.40994 0.88207 0.74490
 C2255 C 0.39159 0.89227 0.75750
 C2256 C 0.37855 0.89529 0.73699
 C2257 C 0.40701 0.90744 0.72159
 C2258 C 0.38866 0.91764 0.73419
 C2259 C 0.42006 0.90442 0.74209
 C2260 C 0.40156 0.91449 0.75502
 C2261 C 0.38284 0.88364 0.77736
 C2262 C 0.37550 0.87637 0.79356
 C2263 C 0.41542 0.91573 0.70144
 C2264 C 0.42214 0.92240 0.68472
 H2265 H 0.39526 0.87329 0.71115
 H2266 H 0.41860 0.86735 0.74952
 H2267 H 0.36139 0.89145 0.73511
 H2268 H 0.38000 0.93236 0.72956
 H2269 H 0.43723 0.90827 0.74395
 H2270 H 0.40333 0.92642 0.76797
 C2271 C 0.40669 0.41950 1.24336
 C2272 C 0.38330 0.41240 1.24693
 C2273 C 0.39144 0.39215 1.25804
 C2274 C 0.41469 0.39911 1.25479
 C2275 C 0.40685 0.40731 1.22211
 C2276 C 0.41498 0.38707 1.23322
 C2277 C 0.38360 0.40036 1.22538
 C2278 C 0.39161 0.37998 1.23679
 C2279 C 0.38270 0.38354 1.27791
 C2280 C 0.37536 0.37627 1.29411
 C2281 C 0.41525 0.41559 1.20196
 C2282 C 0.42198 0.42225 1.18524
 H2283 H 0.41299 0.43584 1.24583
 H2284 H 0.37018 0.42273 1.25279
 H2285 H 0.42737 0.39850 1.26712
 H2286 H 0.42810 0.37674 1.22736
 H2287 H 0.37091 0.40096 1.21306
 H2288 H 0.38531 0.36364 1.23430
 C2289 C 0.91987 1.10255 0.76038
 C2290 C 0.90622 1.08978 0.74422
 C2291 C 0.89067 1.10865 0.74288
 C2292 C 0.90418 1.12155 0.75872
 C2293 C 0.90638 1.09337 0.77864
 C2294 C 0.89082 1.11224 0.77728
 C2295 C 0.89286 1.08047 0.76280
 C2296 C 0.87718 1.09947 0.76114
 C2297 C 0.88179 1.11734 0.72310
 C2298 C 0.87437 1.12466 0.70695
 C2299 C 0.91495 1.08501 0.79869
 C2300 C 0.92180 1.07827 0.81533
 H2301 H 0.93752 1.10372 0.76029
 H2302 H 0.91245 1.08065 0.73040
 H2303 H 0.90874 1.13854 0.75682
 H2304 H 0.88458 1.12138 0.79108
 H2305 H 0.88831 1.06348 0.76471
 H2306 H 0.85953 1.09830 0.76124
 C2307 C 0.88818 0.60613 0.27608
 C2308 C 0.90044 0.62094 0.26061
 C2309 C 0.89297 0.60709 0.24185
 C2310 C 0.88058 0.59240 0.25703
 C2311 C 0.90811 0.59203 0.27793
 C2312 C 0.90064 0.57816 0.25918
 C2313 C 0.92051 0.60671 0.26276
 C2314 C 0.91290 0.59298 0.24368
 C2315 C 0.88436 0.61566 0.22192
 C2316 C 0.87709 0.62289 0.20567
 C2317 C 0.91636 0.58382 0.29817
 C2318 C 0.92296 0.57725 0.31496
 H2319 H 0.87811 0.61145 0.28963
 H2320 H 0.90027 0.63863 0.26097
 H2321 H 0.86406 0.58661 0.25445
 H2322 H 0.90082 0.56047 0.25883
 H2323 H 0.93702 0.61251 0.26534
 H2324 H 0.92297 0.58768 0.23012
 C2325 C 0.42063 1.10424 0.26125
 C2326 C 0.40955 1.09081 0.24373
 C2327 C 0.39201 1.10783 0.24217
 C2328 C 0.40296 1.12139 0.25937
 C2329 C 0.40723 1.09271 0.27820
 C2330 C 0.38970 1.10973 0.27662
 C2331 C 0.39629 1.07914 0.26101
 C2332 C 0.37862 1.09630 0.25913
 C2333 C 0.38336 1.11642 0.22226
 C2334 C 0.37609 1.12367 0.20602
 C2335 C 0.41553 1.08446 0.29840
 C2336 C 0.42218 1.07784 0.31516
 H2337 H 0.43800 1.10742 0.26235
 H2338 H 0.41761 1.08312 0.22997
 H2339 H 0.40561 1.13886 0.25847
 H2340 H 0.38163 1.11742 0.29037
 H2341 H 0.39364 1.06167 0.26191
 H2342 H 0.36125 1.09312 0.25803
 C2343 C 0.41782 0.58794 0.75619
 C2344 C 0.39537 0.58329 0.74700
 C2345 C 0.39278 0.60711 0.74199
 C2346 C 0.41510 0.61191 0.75085
 C2347 C 0.40770 0.59197 0.77813
 C2348 C 0.40511 0.61580 0.77310
 C2349 C 0.38539 0.58719 0.76927
 C2350 C 0.38268 0.61113 0.76394
 C2351 C 0.38428 0.61571 0.72202
 C2352 C 0.37710 0.62296 0.70575
 C2353 C 0.41584 0.58373 0.79839
 C2354 C 0.42237 0.57714 0.81521
 H2355 H 0.43237 0.57831 0.75324
 H2356 H 0.39127 0.57002 0.73604
 H2357 H 0.42721 0.62217 0.74304
 H2358 H 0.40921 0.62907 0.78406
 H2359 H 0.37327 0.57693 0.77707
 H2360 H 0.36813 0.62076 0.76691
 C2361 C 1.11135 0.89122 0.77687
 C2362 C 1.09844 0.87848 0.76013
 C2363 C 1.10837 0.89219 0.74243
 C2364 C 1.12141 0.90480 0.75888
 C2365 C 1.09297 0.90733 0.77838
 C2366 C 1.10290 0.92105 0.76069
 C2367 C 1.07992 0.89472 0.76194
 C2368 C 1.08999 0.90830 0.74392
 C2369 C 1.11711 0.88358 0.72256
 C2370 C 1.12445 0.87632 0.70636
 C2371 C 1.08457 0.91560 0.79853
 C2372 C 1.07785 0.92225 0.81526
 H2373 H 1.12004 0.88428 0.79064
 H2374 H 1.09670 0.86088 0.75968
 H2375 H 1.13857 0.90886 0.75740
 H2376 H 1.10464 0.93865 0.76115
 H2377 H 1.06277 0.89066 0.76342
 H2378 H 1.08131 0.91522 0.73014
 C2379 C 1.11103 0.39157 0.27636
 C2380 C 1.09803 0.37890 0.25964
 C2381 C 1.10788 0.39266 0.24194
 C2382 C 1.12101 0.40521 0.25837
 C2383 C 1.09267 0.40769 0.27802
 C2384 C 1.10252 0.42146 0.26033
 C2385 C 1.07953 0.39514 0.26160
 C2386 C 1.08952 0.40878 0.24358
 C2387 C 1.11652 0.38412 0.22201
 C2388 C 1.12380 0.37689 0.20577
 C2389 C 1.08439 0.41588 0.29825
 C2390 C 1.07777 0.42246 0.31503
 H2391 H 1.11979 0.38458 0.29006
 H2392 H 1.09628 0.36130 0.25914
 H2393 H 1.13816 0.40926 0.25681
 H2394 H 1.10427 0.43906 0.26084
 H2395 H 1.06238 0.39110 0.26316
 H2396 H 1.08077 0.41576 0.22987
 C2397 C 0.61108 0.91741 0.26559
 C2398 C 0.62108 0.89501 0.26283
 C2399 C 0.60801 0.89201 0.24233
 C2400 C 0.59814 0.91428 0.24478
 C2401 C 0.59269 0.90733 0.27824
 C2402 C 0.57961 0.90433 0.25775
 C2403 C 0.60257 0.88506 0.27577
 C2404 C 0.58962 0.88193 0.25498
 C2405 C 0.61671 0.88331 0.22248
 C2406 C 0.62403 0.87598 0.20629
 C2407 C 0.58432 0.91569 0.29837
 C2408 C 0.57762 0.92240 0.31508
 H2409 H 0.61980 0.93210 0.27019
 H2410 H 0.63823 0.89108 0.26470
 H2411 H 0.59641 0.92620 0.23181
 H2412 H 0.56246 0.90826 0.25589
 H2413 H 0.60430 0.87314 0.28873
 H2414 H 0.58090 0.86724 0.25039
 C2415 C 0.58127 0.40818 0.75701
 C2416 C 0.60226 0.41565 0.74634
 C2417 C 0.60840 0.39223 0.74266
 C2418 C 0.58755 0.38463 0.75300
 C2419 C 0.59285 0.40730 0.77857
 C2420 C 0.59900 0.38388 0.77487
 C2421 C 0.61371 0.41490 0.76823
 C2422 C 0.61997 0.39136 0.76423
 C2423 C 0.61720 0.38366 0.72280
 C2424 C 0.62457 0.37641 0.70660
 C2425 C 0.58438 0.41553 0.79872
 C2426 C 0.57761 0.42216 0.81543
 H2427 H 0.56526 0.41519 0.75428
 H2428 H 0.60371 0.42861 0.73439
 H2429 H 0.57689 0.37209 0.74652
 H2430 H 0.59756 0.37091 0.78682
 H2431 H 0.62436 0.42743 0.77471
 H2432 H 0.63598 0.38435 0.76698
 C2433 C 1.23033 1.08744 1.11516
 C2434 C 1.25266 1.08356 1.10536
 C2435 C 1.25766 1.10737 1.10806
 C2436 C 1.23564 1.11138 1.11798
 C2437 C 1.22167 1.09231 1.09277
 C2438 C 1.22668 1.11612 1.09547
 C2439 C 1.24369 1.08829 1.08283
 C2440 C 1.24901 1.11224 1.08567
 C2441 C 1.27756 1.11594 1.11674
 C2442 C 1.29378 1.12317 1.12404
 C2443 C 1.20148 1.08408 1.08444
 C2444 C 1.18473 1.07748 1.07778
 H2445 H 1.22242 1.07715 1.12719
 H2446 H 1.26358 1.07027 1.10953
 H2447 H 1.23254 1.12096 1.13254
 H2448 H 1.21577 1.12941 1.09131
 H2449 H 1.24676 1.07870 1.06827
 H2450 H 1.25692 1.12253 1.07364
 C2451 C 1.22536 0.59978 0.61502
 C2452 C 1.24669 0.58737 0.61591
 C2453 C 1.25818 0.60709 0.60703
 C2454 C 1.23715 0.61961 0.60627
 C2455 C 1.22210 0.59195 0.59204
 C2456 C 1.23359 0.61166 0.58316
 C2457 C 1.24311 0.57941 0.59279
 C2458 C 1.25494 0.59926 0.58405
 C2459 C 1.27812 0.61569 0.61557
 C2460 C 1.29437 0.62294 0.62279
 C2461 C 1.20186 0.58371 0.58386
 C2462 C 1.18506 0.57713 0.57730
 H2463 H 1.21298 0.59990 0.62766
 H2464 H 1.25230 0.57749 0.62947
 H2465 H 1.23492 0.63623 0.61190
 H2466 H 1.22797 0.62155 0.56960
 H2467 H 1.24533 0.56279 0.58716
 H2468 H 1.26733 0.59915 0.57142
 C2469 C 0.73206 1.08525 0.61394
 C2470 C 0.75378 1.08550 0.60218
 C2471 C 0.75699 1.10873 0.60923
 C2472 C 0.73558 1.10861 0.62112
 C2473 C 0.72124 1.09344 0.59355
 C2474 C 0.72447 1.11667 0.60059
 C2475 C 0.74264 1.09356 0.58164
 C2476 C 0.74617 1.11692 0.58883
 C2477 C 0.77676 1.11741 0.61809
 C2478 C 0.79291 1.12472 0.62550
 C2479 C 0.70120 1.08507 0.58499
 C2480 C 0.68457 1.07834 0.57814
 H2481 H 0.72603 1.07214 0.62418
 H2482 H 0.76606 1.07278 0.60294
 H2483 H 0.73288 1.11489 0.63744
 H2484 H 0.71220 1.12940 0.59985
 H2485 H 0.74532 1.08728 0.56532
 H2486 H 0.75220 1.13004 0.57860
 C2487 C 0.72972 0.58870 1.11518
 C2488 C 0.75212 0.58345 1.10621
 C2489 C 0.75781 0.60723 1.10729
 C2490 C 0.73572 0.61261 1.11639
 C2491 C 0.72169 0.59217 1.09231
 C2492 C 0.72738 0.61595 1.09339
 C2493 C 0.74377 0.58678 1.08319
 C2494 C 0.74978 0.61071 1.08441
 C2495 C 0.77777 0.61580 1.11581
 C2496 C 0.79404 0.62302 1.12300
 C2497 C 0.70143 0.58395 1.08414
 C2498 C 0.68463 0.57737 1.07760
 H2499 H 0.72125 0.57956 1.12775
 H2500 H 0.76253 0.57018 1.11158
 H2501 H 0.73263 0.62332 1.13013
 H2502 H 0.71698 0.62923 1.08803
 H2503 H 0.74684 0.57606 1.06945
 H2504 H 0.75825 0.61985 1.07185
 C2505 C 1.22384 0.89639 0.88535
 C2506 C 1.24431 0.90957 0.88135
 C2507 C 1.25746 0.89183 0.89193
 C2508 C 1.23728 0.87852 0.89580
 C2509 C 1.22155 0.90709 0.90727
 C2510 C 1.23469 0.88934 0.91785
 C2511 C 1.24172 0.92041 0.90340
 C2512 C 1.25519 0.90252 0.91385
 C2513 C 1.27731 0.88316 0.88323
 C2514 C 1.29351 0.87586 0.87591
 C2515 C 1.20141 0.91542 0.91564
 C2516 C 1.18470 0.92211 0.92234
 H2517 H 1.21072 0.89396 0.87373
 H2518 H 1.24849 0.91780 0.86625
 H2519 H 1.23567 0.86120 0.89258
 H2520 H 1.23051 0.88111 0.93295
 H2521 H 1.24332 0.93773 0.90663
 H2522 H 1.26831 0.90495 0.92547
 C2523 C 1.23906 0.39597 0.42041
 C2524 C 1.24085 0.37860 0.40294
 C2525 C 1.25785 0.39211 0.39162
 C2526 C 1.25638 0.40935 0.40895
 C2527 C 1.22192 0.40723 0.40704
 C2528 C 1.23891 0.42075 0.39571
 C2529 C 1.22341 0.38999 0.38971
 C2530 C 1.24070 0.40337 0.37826
 C2531 C 1.27772 0.38350 0.38288
 C2532 C 1.29392 0.37624 0.37555
 C2533 C 1.20176 0.41550 0.41544
 C2534 C 1.18504 0.42214 0.42216
 H2535 H 1.23815 0.39302 0.43784
 H2536 H 1.24187 0.36117 0.40582
 H2537 H 1.27016 0.41721 0.41677
 H2538 H 1.23788 0.43817 0.39284
 H2539 H 1.20963 0.38212 0.38188
 H2540 H 1.24159 0.40632 0.36083
 C2541 C 0.72413 0.88522 0.39723
 C2542 C 0.73698 0.89512 0.37863
 C2543 C 0.75750 0.89232 0.39169
 C2544 C 0.74494 0.88228 0.41017
 C2545 C 0.72154 0.90753 0.40697
 C2546 C 0.74205 0.90474 0.42005
 C2547 C 0.73409 0.91757 0.38849
 C2548 C 0.75492 0.91464 0.40143
 C2549 C 0.77738 0.88368 0.38302
 C2550 C 0.79359 0.87640 0.37573
 C2551 C 0.70138 0.91583 0.41530
 C2552 C 0.68465 0.92249 0.42199
 H2553 H 0.71125 0.87321 0.39559
 H2554 H 0.73511 0.89108 0.36150
 H2555 H 0.74963 0.86768 0.41899
 H2556 H 0.74390 0.90878 0.43718
 H2557 H 0.72940 0.93218 0.37967
 H2558 H 0.76782 0.92664 0.40306
 C2559 C 0.72813 0.40908 0.88372
 C2560 C 0.75072 0.41579 0.89108
 C2561 C 0.75723 0.39219 0.89168
 C2562 C 0.73494 0.38536 0.88419
 C2563 C 0.72132 0.40729 0.90718
 C2564 C 0.72783 0.38370 0.90778
 C2565 C 0.74360 0.41414 0.91469
 C2566 C 0.75043 0.39040 0.91514
 C2567 C 0.77708 0.38360 0.88289
 C2568 C 0.79328 0.37636 0.87553
 C2569 C 0.70119 0.41555 0.91564
 C2570 C 0.68448 0.42219 0.92239
 H2571 H 0.71874 0.41686 0.87089
 H2572 H 0.76036 0.42889 0.88411
 H2573 H 0.73160 0.37344 0.87155
 H2574 H 0.71820 0.37059 0.91474
 H2575 H 0.74693 0.42606 0.92733
 H2576 H 0.75982 0.38262 0.92796
 C2577 C 0.75872 0.92108 1.09825
 C2578 C 0.74451 0.90424 1.08708
 C2579 C 0.74249 0.89227 1.10836
 C2580 C 0.75639 0.90896 1.11965
 C2581 C 0.77842 0.90749 1.09303
 C2582 C 0.77638 0.89551 1.11430
 C2583 C 0.76452 0.89079 1.08173
 C2584 C 0.76219 0.87869 1.10314
 C2585 C 0.72263 0.88363 1.11706
 C2586 C 0.70643 0.87635 1.12437
 C2587 C 0.79856 0.91580 1.08467
 C2588 C 0.81528 0.92247 1.07797
 H2589 H 0.75753 0.93860 1.09614
 H2590 H 0.73117 0.90774 1.07599
 H2591 H 0.75282 0.91634 1.13534
 H2592 H 0.78971 0.89201 1.12540
 H2593 H 0.76810 0.88342 1.06605
 H2594 H 0.76340 0.86117 1.10524
 C2595 C 0.75650 0.41097 0.58301
 C2596 C 0.75129 0.38699 0.58583
 C2597 C 0.74265 0.39179 0.60825
 C2598 C 0.74754 0.41563 0.60557
 C2599 C 0.77855 0.40703 0.59290
 C2600 C 0.76991 0.41183 0.61531
 C2601 C 0.77365 0.38319 0.59558
 C2602 C 0.76471 0.38786 0.61812
 C2603 C 0.72279 0.38313 0.61695
 C2604 C 0.70659 0.37585 0.62427
 C2605 C 0.79869 0.41536 0.58452
 C2606 C 0.81539 0.42204 0.57780
 H2607 H 0.75335 0.42056 0.56848
 H2608 H 0.74340 0.37668 0.57381
 H2609 H 0.73658 0.42886 0.60978
 H2610 H 0.77780 0.42213 0.62734
 H2611 H 0.78461 0.36995 0.59138
 H2612 H 0.76788 0.37827 0.63265
 C2613 C 0.25633 0.91118 0.58292
 C2614 C 0.25115 0.88719 0.58565
 C2615 C 0.24248 0.89189 0.60807
 C2616 C 0.24733 0.91575 0.60548
 C2617 C 0.27837 0.90725 0.59282
 C2618 C 0.26970 0.91195 0.61524
 C2619 C 0.27351 0.88340 0.59541
 C2620 C 0.26453 0.88797 0.61796
 C2621 C 0.22263 0.88318 0.61673
 C2622 C 0.20644 0.87586 0.62402
 C2623 C 0.29850 0.91563 0.58449
 C2624 C 0.31521 0.92234 0.57780
 H2625 H 0.25318 0.92082 0.56841
 H2626 H 0.24330 0.87690 0.57358
 H2627 H 0.23634 0.92895 0.60972
 H2628 H 0.27755 0.92223 0.62731
 H2629 H 0.28449 0.87018 0.59118
 H2630 H 0.26769 0.87833 0.63246
 C2631 C 0.27637 0.39100 1.11073
 C2632 C 0.25844 0.40450 1.12102
 C2633 C 0.24196 0.39224 1.10769
 C2634 C 0.25959 0.37861 1.09753
 C2635 C 0.27801 0.40744 1.09266
 C2636 C 0.26154 0.39519 1.07933
 C2637 C 0.26039 0.42109 1.10282
 C2638 C 0.24359 0.40869 1.08962
 C2639 C 0.22204 0.38361 1.11624
 C2640 C 0.20579 0.37635 1.12347
 C2641 C 0.29823 0.41573 1.08446
 C2642 C 0.31500 0.42237 1.07788
 H2643 H 0.29006 0.38381 1.11932
 H2644 H 0.25695 0.40823 1.13826
 H2645 H 0.25904 0.36105 1.09545
 H2646 H 0.26305 0.39146 1.06209
 H2647 H 0.26096 0.43864 1.10490
 H2648 H 0.22988 0.41587 1.08104
 C2649 C 0.76202 1.10555 0.92032
 C2650 C 0.76022 1.12195 0.90195
 C2651 C 0.74258 1.10831 0.89185
 C2652 C 0.74406 1.09203 0.91009
 C2653 C 0.77850 1.09308 0.90718
 C2654 C 0.76086 1.07943 0.89708
 C2655 C 0.77700 1.10936 0.88894
 C2656 C 0.75907 1.09584 0.87871
 C2657 C 0.72271 1.11696 0.88315
 C2658 C 0.70651 1.12425 0.87585
 C2659 C 0.79864 1.08476 0.91554
 C2660 C 0.81535 1.07807 0.92225
 H2661 H 0.76347 1.10944 0.93753
 H2662 H 0.75974 1.13954 0.90385
 H2663 H 0.73028 1.08501 0.91868
 H2664 H 0.76136 1.06185 0.89517
 H2665 H 0.79077 1.11639 0.88033
 H2666 H 0.75763 1.09195 0.86150
 C2667 C 0.76216 0.60507 0.42008
 C2668 C 0.76035 0.62145 0.40168
 C2669 C 0.74270 0.60778 0.39162
 C2670 C 0.74420 0.59153 0.40988
 C2671 C 0.77864 0.59259 0.40695
 C2672 C 0.76101 0.57891 0.39688
 C2673 C 0.77712 0.60884 0.38868
 C2674 C 0.75918 0.59530 0.37849
 C2675 C 0.72283 0.61641 0.38292
 C2676 C 0.70662 0.62368 0.37562
 C2677 C 0.79880 0.58430 0.41531
 C2678 C 0.81551 0.57764 0.42202
 H2679 H 0.76362 0.60900 0.43728
 H2680 H 0.75985 0.63903 0.40356
 H2681 H 0.73044 0.58451 0.41850
 H2682 H 0.76151 0.56133 0.39501
 H2683 H 0.79088 0.61586 0.38006
 H2684 H 0.75774 0.59137 0.36129
 C2685 C 0.26175 1.10556 0.41980
 C2686 C 0.26003 1.12189 0.40136
 C2687 C 0.24244 1.10820 0.39123
 C2688 C 0.24385 1.09199 0.40953
 C2689 C 0.27831 1.09306 0.40678
 C2690 C 0.26073 1.07935 0.39665
 C2691 C 0.27688 1.10927 0.38848
 C2692 C 0.25900 1.09570 0.37821
 C2693 C 0.22261 1.11681 0.38242
 C2694 C 0.20643 1.12408 0.37504
 C2695 C 0.29842 1.08478 0.41527
 C2696 C 0.31511 1.07811 0.42205
 H2697 H 0.26311 1.10951 0.43700
 H2698 H 0.25952 1.13948 0.40320
 H2699 H 0.23004 1.08498 0.41809
 H2700 H 0.26125 1.06176 0.39481
 H2701 H 0.29068 1.11629 0.37992
 H2702 H 0.25765 1.09174 0.36101
 C2703 C 0.26171 0.60513 0.92055
 C2704 C 0.25993 0.62154 0.90218
 C2705 C 0.24225 0.60793 0.89210
 C2706 C 0.24371 0.59165 0.91034
 C2707 C 0.27815 0.59262 0.90739
 C2708 C 0.26047 0.57901 0.89731
 C2709 C 0.27667 0.60890 0.88915
 C2710 C 0.25869 0.59543 0.87894
 C2711 C 0.22239 0.61662 0.88342
 C2712 C 0.20620 0.62394 0.87611
 C2713 C 0.29829 0.58426 0.91573
 C2714 C 0.31500 0.57757 0.92243
 H2715 H 0.26319 0.60902 0.93775
 H2716 H 0.25949 0.63912 0.90408
 H2717 H 0.22993 0.58466 0.91895
 H2718 H 0.26092 0.56142 0.89541
 H2719 H 0.29044 0.61590 0.88053
 H2720 H 0.25722 0.59153 0.86174
 C2721 C 1.09761 1.22605 1.11584
 C2722 C 1.11907 1.23622 1.10913
 C2723 C 1.10786 1.25790 1.10719
 C2724 C 1.08653 1.24804 1.11403
 C2725 C 1.09255 1.22186 1.09225
 C2726 C 1.08133 1.24354 1.09029
 C2727 C 1.11389 1.23173 1.08541
 C2728 C 1.10281 1.25373 1.08359
 C2729 C 1.11655 1.27782 1.11570
 C2730 C 1.12384 1.29405 1.12290
 C2731 C 1.08422 1.20165 1.08410
 C2732 C 1.07755 1.18488 1.07755
 H2733 H 1.09538 1.21445 1.12902
 H2734 H 1.13469 1.23342 1.11697
 H2735 H 1.07537 1.25497 1.12589
 H2736 H 1.06571 1.24631 1.08245
 H2737 H 1.12505 1.22480 1.07355
 H2738 H 1.10505 1.26534 1.07042
 C2739 C 1.10589 0.72341 0.61334
 C2740 C 1.12208 0.73792 0.60165
 C2741 C 1.10850 0.75740 0.60765
 C2742 C 1.09244 0.74318 0.61947
 C2743 C 1.09308 0.72147 0.59256
 C2744 C 1.07948 0.74094 0.59855
 C2745 C 1.10913 0.73569 0.58074
 C2746 C 1.09568 0.75548 0.58687
 C2747 C 1.11724 0.77727 0.61624
 C2748 C 1.12456 0.79346 0.62349
 C2749 C 1.08467 0.70132 0.58431
 C2750 C 1.07796 0.68460 0.57767
 H2751 H 1.11000 0.71000 0.62413
 H2752 H 1.13968 0.73690 0.60302
 H2753 H 1.08567 0.74648 0.63549
 H2754 H 1.06188 0.74194 0.59719
 H2755 H 1.11590 0.73238 0.56473
 H2756 H 1.09158 0.76890 0.57609
 C2757 C 0.58088 1.23671 0.60783
 C2758 C 0.60129 1.23869 0.62158
 C2759 C 0.60841 1.25762 0.60777
 C2760 C 0.58813 1.25596 0.59415
 C2761 C 0.59292 1.22175 0.59263
 C2762 C 0.60003 1.24067 0.57881
 C2763 C 0.61319 1.22343 0.60625
 C2764 C 0.62044 1.24266 0.59257
 C2765 C 0.61719 1.27746 0.61639
 C2766 C 0.62455 1.29363 0.62366
 C2767 C 0.58447 1.20162 0.58435
 C2768 C 0.57773 1.18492 0.57770
 H2769 H 0.56452 1.23403 0.61400
 H2770 H 0.60191 1.23809 0.63926
 H2771 H 0.57792 1.26957 0.58927
 H2772 H 0.59941 1.24126 0.56113
 H2773 H 0.62341 1.20983 0.61114
 H2774 H 0.63680 1.24532 0.58640
 C2775 C 0.61149 0.72313 1.10835
 C2776 C 0.62041 0.74171 1.09476
 C2777 C 0.60761 0.75748 1.10844
 C2778 C 0.59882 0.73920 1.12217
 C2779 C 0.59237 0.72156 1.09314
 C2780 C 0.57957 0.73733 1.10683
 C2781 C 0.60115 0.73983 1.07940
 C2782 C 0.58848 0.75592 1.09323
 C2783 C 0.61626 0.77734 1.11713
 C2784 C 0.62355 0.79354 1.12443
 C2785 C 0.58405 0.70141 1.08479
 C2786 C 0.57737 0.68470 1.07809
 H2787 H 0.62086 0.70943 1.11448
 H2788 H 0.63729 0.74373 1.08989
 H2789 H 0.59796 0.73916 1.13985
 H2790 H 0.56268 0.73530 1.11169
 H2791 H 0.60201 0.73986 1.06172
 H2792 H 0.57912 0.76963 1.08711
 C2793 C 0.91823 1.23493 0.88954
 C2794 C 0.89638 1.23745 0.87833
 C2795 C 0.89217 1.25757 0.89164
 C2796 C 0.91390 1.25536 0.90273
 C2797 C 0.90739 1.22168 0.90706
 C2798 C 0.90320 1.24179 0.92039
 C2799 C 0.88568 1.22390 0.89597
 C2800 C 0.88134 1.24431 0.90916
 C2801 C 0.88352 1.27741 0.88290
 C2802 C 0.87623 1.29359 0.87556
 C2803 C 0.91570 1.20154 0.91547
 C2804 C 0.92237 1.18484 0.92219
 H2805 H 0.93349 1.23084 0.88157
 H2806 H 0.89348 1.23588 0.86094
 H2807 H 0.92540 1.26853 0.90541
 H2808 H 0.90610 1.24334 0.93778
 H2809 H 0.87416 1.21074 0.89329
 H2810 H 0.86608 1.24840 0.91713
 C2811 C 0.88670 0.73198 0.41440
 C2812 C 0.89822 0.75380 0.41525
 C2813 C 0.89239 0.75748 0.39174
 C2814 C 0.88074 0.73597 0.39077
 C2815 C 0.90760 0.72154 0.40706
 C2816 C 0.90176 0.72523 0.38355
 C2817 C 0.91926 0.74304 0.40804
 C2818 C 0.91329 0.74704 0.38440
 C2819 C 0.88375 0.77735 0.38305
 C2820 C 0.87647 0.79355 0.37575
 C2821 C 0.91590 0.70138 0.41541
 C2822 C 0.92256 0.68466 0.42210
 H2823 H 0.87586 0.72556 0.42683
 H2824 H 0.89667 0.76578 0.42818
 H2825 H 0.86480 0.73328 0.38357
 H2826 H 0.90330 0.71326 0.37061
 H2827 H 0.93520 0.74571 0.41524
 H2828 H 0.92412 0.75345 0.37197
 C2829 C 0.41891 1.24338 0.40796
 C2830 C 0.41255 1.24727 0.38440
 C2831 C 0.39184 1.25788 0.39204
 C2832 C 0.39806 1.25431 0.41546
 C2833 C 0.40710 1.22194 0.40731
 C2834 C 0.38640 1.23255 0.41495
 C2835 C 0.40088 1.22552 0.38389
 C2836 C 0.38005 1.23643 0.39140
 C2837 C 0.38318 1.27774 0.38337
 C2838 C 0.37588 1.29394 0.37607
 C2839 C 0.41543 1.20179 0.41564
 C2840 C 0.42209 1.18506 0.42232
 H2841 H 0.43498 1.24600 0.41487
 H2842 H 0.42321 1.25354 0.37174
 H2843 H 0.39680 1.26638 0.42835
 H2844 H 0.37574 1.22628 0.42760
 H2845 H 0.40213 1.21346 0.37100
 H2846 H 0.36398 1.23379 0.38450
 C2847 C 0.38831 0.73403 0.91764
 C2848 C 0.40123 0.75486 0.91462
 C2849 C 0.39141 0.75740 0.89233
 C2850 C 0.37836 0.73689 0.89522
 C2851 C 0.40674 0.72146 0.90753
 C2852 C 0.39691 0.72402 0.88524
 C2853 C 0.41980 0.74196 0.90465
 C2854 C 0.40984 0.74482 0.88222
 C2855 C 0.38271 0.77727 0.88369
 C2856 C 0.37541 0.79347 0.87641
 C2857 C 0.41510 0.70131 0.91583
 C2858 C 0.42180 0.68459 0.92250
 H2859 H 0.37955 0.72937 0.93229
 H2860 H 0.40291 0.76777 0.92660
 H2861 H 0.36122 0.73502 0.89124
 H2862 H 0.39522 0.71111 0.87325
 H2863 H 0.43694 0.74382 0.90863
 H2864 H 0.41859 0.74948 0.86757
 C2865 C 1.10016 0.77505 0.88436
 C2866 C 1.12039 0.76364 0.89271
 C2867 C 1.10822 0.74240 0.89238
 C2868 C 1.08811 0.75351 0.88390
 C2869 C 1.09281 0.77834 0.90750
 C2870 C 1.08063 0.75711 0.90717
 C2871 C 1.11292 0.76723 0.91598
 C2872 C 1.10088 0.74568 0.91552
 C2873 C 1.11695 0.72253 0.88378
 C2874 C 1.12429 0.70633 0.87653
 C2875 C 1.08442 0.79849 0.91576
 C2876 C 1.07771 0.81522 0.92240
 H2877 H 1.09977 0.78734 0.87164
 H2878 H 1.13683 0.76611 0.88667
 H2879 H 1.07800 0.74765 0.87061
 H2880 H 1.06418 0.75466 0.91321
 H2881 H 1.12303 0.77310 0.92926
 H2882 H 1.10128 0.73337 0.92823
 C2883 C 1.09287 0.27212 0.38326
 C2884 C 1.11634 0.26471 0.38516
 C2885 C 1.10849 0.24242 0.39159
 C2886 C 1.08515 0.24953 0.38955
 C2887 C 1.09319 0.27830 0.40696
 C2888 C 1.08533 0.25602 0.41339
 C2889 C 1.11654 0.27119 0.40899
 C2890 C 1.10882 0.24860 0.41529
 C2891 C 1.11718 0.22258 0.38287
 C2892 C 1.12449 0.20640 0.37554
 C2893 C 1.08484 0.29842 0.41534
 C2894 C 1.07815 0.31512 0.42206
 H2895 H 1.08622 0.28201 0.37018
 H2896 H 1.12918 0.26807 0.37346
 H2897 H 1.07234 0.24039 0.38146
 H2898 H 1.07249 0.25269 0.42510
 H2899 H 1.12935 0.28032 0.41708
 H2900 H 1.11548 0.23870 0.42836
 C2901 C 0.61012 0.76525 0.41775
 C2902 C 0.59687 0.74485 0.41350
 C2903 C 0.60782 0.74262 0.39170
 C2904 C 0.62120 0.76270 0.39582
 C2905 C 0.59259 0.77855 0.40701
 C2906 C 0.60354 0.77630 0.38521
 C2907 C 0.57919 0.75848 0.40290
 C2908 C 0.59028 0.75592 0.38097
 C2909 C 0.61647 0.72275 0.38302
 C2910 C 0.62375 0.70655 0.37571
 C2911 C 0.58427 0.79870 0.41536
 C2912 C 0.57760 0.81542 0.42205
 H2913 H 0.61818 0.76932 0.43297
 H2914 H 0.59422 0.73170 0.42503
 H2915 H 0.63857 0.76422 0.39282
 H2916 H 0.60619 0.78944 0.37367
 H2917 H 0.56182 0.75697 0.40590
 H2918 H 0.58222 0.75186 0.36575
 C2919 C 0.59786 0.27435 0.88396
 C2920 C 0.61940 0.26426 0.89055
 C2921 C 0.60832 0.24250 0.89242
 C2922 C 0.58690 0.25229 0.88571
 C2923 C 0.59285 0.27839 0.90760
 C2924 C 0.58176 0.25664 0.90948
 C2925 C 0.61427 0.26859 0.91431
 C2926 C 0.60332 0.24653 0.91606
 C2927 C 0.61709 0.22266 0.88378
 C2928 C 0.62445 0.20649 0.87649
 C2929 C 0.58442 0.29851 0.91589
 C2930 C 0.57767 0.31522 0.92254
 H2931 H 0.59551 0.28600 0.87086
 H2932 H 0.63497 0.26717 0.88267
 H2933 H 0.57575 0.24537 0.87385
 H2934 H 0.56619 0.25374 0.91737
 H2935 H 0.62543 0.27552 0.92617
 H2936 H 0.60567 0.23486 0.92916
 C2937 C 0.89423 0.76243 1.07925
 C2938 C 0.90792 0.74385 1.08806
 C2939 C 0.89270 0.74206 1.10716
 C2940 C 0.87888 0.76032 1.09849
 C2941 C 0.90779 0.77818 1.09219
 C2942 C 0.89257 0.77638 1.11129
 C2943 C 0.92162 0.75993 1.10086
 C2944 C 0.90626 0.75782 1.12009
 C2945 C 0.88412 0.72211 1.11569
 C2946 C 0.87690 0.70584 1.12290
 C2947 C 0.91602 0.79843 1.08403
 C2948 C 0.92261 0.81524 1.07748
 H2949 H 0.88938 0.76456 1.06236
 H2950 H 0.91413 0.73024 1.07860
 H2951 H 0.86121 0.76027 1.09760
 H2952 H 0.88635 0.78997 1.12075
 H2953 H 0.93929 0.76000 1.10174
 H2954 H 0.91112 0.75570 1.13698
 C2955 C 0.91016 0.27072 0.61627
 C2956 C 0.88616 0.26511 0.61769
 C2957 C 0.89113 0.24284 0.60880
 C2958 C 0.91500 0.24814 0.60751
 C2959 C 0.90667 0.27857 0.59333
 C2960 C 0.91165 0.25631 0.58442
 C2961 C 0.88281 0.27326 0.59463
 C2962 C 0.88764 0.25069 0.58586
 C2963 C 0.88232 0.22308 0.61757
 C2964 C 0.87493 0.20695 0.62494
 C2965 C 0.91516 0.29861 0.58488
 C2966 C 0.92197 0.31524 0.57809
 H2967 H 0.91951 0.27917 0.62868
 H2968 H 0.87559 0.26852 0.63147
 H2969 H 0.92814 0.23759 0.61290
 H2970 H 0.92223 0.25292 0.57064
 H2971 H 0.86967 0.28381 0.58924
 H2972 H 0.87829 0.24223 0.57345
 C2973 C 0.38916 0.76584 0.58226
 C2974 C 0.40211 0.74493 0.58460
 C2975 C 0.39287 0.74208 0.60711
 C2976 C 0.37980 0.76267 0.60489
 C2977 C 0.40788 0.77820 0.59206
 C2978 C 0.39864 0.77533 0.61456
 C2979 C 0.42097 0.75762 0.59427
 C2980 C 0.41159 0.75444 0.61691
 C2981 C 0.38433 0.72212 0.61567
 C2982 C 0.37712 0.70586 0.62289
 C2983 C 0.41606 0.79845 0.58385
 C2984 C 0.42261 0.81526 0.57727
 H2985 H 0.38003 0.77075 0.56792
 H2986 H 0.40343 0.73220 0.57239
 H2987 H 0.36278 0.76453 0.60935
 H2988 H 0.39731 0.78805 0.62679
 H2989 H 0.43799 0.75578 0.58981
 H2990 H 0.42072 0.74953 0.63126
 C2991 C 0.41118 0.27015 1.11581
 C2992 C 0.38725 0.26427 1.11724
 C2993 C 0.39244 0.24213 1.10815
 C2994 C 0.41625 0.24770 1.10685
 C2995 C 0.40755 0.27815 1.09294
 C2996 C 0.41276 0.25602 1.08384
 C2997 C 0.38375 0.27257 1.09424
 C2998 C 0.38881 0.25012 1.08528
 C2999 C 0.38385 0.22223 1.11679
 C3000 C 0.37660 0.20600 1.12407
 C3001 C 0.41579 0.29834 1.08464
 C3002 C 0.42239 0.31510 1.07800
 H3003 H 0.42046 0.27861 1.12826
 H3004 H 0.37667 0.26745 1.13106
 H3005 H 0.42951 0.23725 1.11213
 H3006 H 0.42334 0.25286 1.07001
 H3007 H 0.37048 0.28301 1.08897
 H3008 H 0.37952 0.24166 1.07283
 C3009 C 1.07925 1.10475 0.76166
 C3010 C 1.09752 1.12124 0.75973
 C3011 C 1.10761 1.10758 0.74207
 C3012 C 1.08946 1.09123 0.74368
 C3013 C 1.09251 1.09239 0.77812
 C3014 C 1.10259 1.07873 0.76047
 C3015 C 1.11066 1.10875 0.77650
 C3016 C 1.12087 1.09522 0.75854
 C3017 C 1.11619 1.11621 0.72215
 C3018 C 1.12343 1.12348 0.70590
 C3019 C 1.08427 1.08411 0.79834
 C3020 C 1.07765 1.07748 0.81511
 H3021 H 1.06204 1.10858 0.76317
 H3022 H 1.09553 1.13881 0.75921
 H3023 H 1.08085 1.08413 0.72995
 H3024 H 1.10458 1.06116 0.76100
 H3025 H 1.11928 1.11586 0.79021
 H3026 H 1.13807 1.09140 0.75704
 C3027 C 1.07974 0.59750 0.25838
 C3028 C 1.09075 0.61948 0.25599
 C3029 C 1.10830 0.60892 0.24256
 C3030 C 1.09743 0.58707 0.24463
 C3031 C 1.09319 0.59326 0.27841
 C3032 C 1.11074 0.58270 0.26498
 C3033 C 1.10406 0.61510 0.27631
 C3034 C 1.12173 0.60467 0.26259
 C3035 C 1.11689 0.61777 0.22273
 C3036 C 1.12415 0.62518 0.20655
 C3037 C 1.08493 0.58473 0.29852
 C3038 C 1.07827 0.57792 0.31520
 H3039 H 1.06238 0.59445 0.25688
 H3040 H 1.08262 0.63470 0.25207
 H3041 H 1.09480 0.57565 0.23137
 H3042 H 1.11887 0.56748 0.26890
 H3043 H 1.10670 0.62653 0.28956
 H3044 H 1.13909 0.60771 0.26410
 C3045 C 0.61499 1.08919 0.27002
 C3046 C 0.60593 1.08434 0.24756
 C3047 C 0.60736 1.10818 0.24216
 C3048 C 0.61654 1.11315 0.26431
 C3049 C 0.59219 1.09289 0.27813
 C3050 C 0.59362 1.11673 0.27272
 C3051 C 0.58298 1.08792 0.25599
 C3052 C 0.58455 1.11190 0.25026
 C3053 C 0.61598 1.11686 0.22227
 C3054 C 0.62325 1.12417 0.20606
 C3055 C 0.58392 1.08456 0.29832
 C3056 C 0.57730 1.07789 0.31507
 H3057 H 0.62742 1.07975 0.27838
 H3058 H 0.61109 1.07113 0.23699
 H3059 H 0.63044 1.12361 0.26752
 H3060 H 0.58846 1.12995 0.28329
 H3061 H 0.56909 1.07745 0.25280
 H3062 H 0.57213 1.12133 0.24191
 C3063 C 0.57945 0.60620 0.76270
 C3064 C 0.59885 0.62134 0.76072
 C3065 C 0.60741 0.60753 0.74239
 C3066 C 0.58814 0.59252 0.74405
 C3067 C 0.59220 0.59239 0.77841
 C3068 C 0.60076 0.57857 0.76009
 C3069 C 0.61146 0.60741 0.77673
 C3070 C 0.62015 0.59372 0.75810
 C3071 C 0.61605 0.61613 0.72248
 C3072 C 0.62333 0.62339 0.70625
 C3073 C 0.58390 0.58413 0.79861
 C3074 C 0.57726 0.57750 0.81537
 H3075 H 0.56262 0.61123 0.76483
 H3076 H 0.59816 0.63901 0.76076
 H3077 H 0.57866 0.58649 0.73038
 H3078 H 0.60144 0.56090 0.76006
 H3079 H 0.62096 0.61344 0.79039
 H3080 H 0.63698 0.58869 0.75599
 C3081 C 0.88704 0.91541 0.76755
 C3082 C 0.89872 0.91619 0.74579
 C3083 C 0.89270 0.89276 0.74205
 C3084 C 0.88089 0.89186 0.76349
 C3085 C 0.90780 0.90787 0.77812
 C3086 C 0.90177 0.88444 0.77436
 C3087 C 0.91962 0.90878 0.75669
 C3088 C 0.91346 0.88521 0.75261
 C3089 C 0.88412 0.88416 0.72211
 C3090 C 0.87688 0.87692 0.70586
 C3091 C 0.91602 0.91610 0.79835
 C3092 C 0.92262 0.92270 0.81514
 H3093 H 0.87627 0.92792 0.77392
 H3094 H 0.89736 0.92915 0.73381
 H3095 H 0.86488 0.88480 0.76607
 H3096 H 0.90312 0.87147 0.78633
 H3097 H 0.93564 0.91583 0.75412
 H3098 H 0.92423 0.87269 0.74625
 C3099 C 0.89779 0.42066 0.26047
 C3100 C 0.91081 0.40787 0.24381
 C3101 C 0.89248 0.39171 0.24233
 C3102 C 0.87933 0.40436 0.25867
 C3103 C 0.90769 0.40704 0.27826
 C3104 C 0.88936 0.39088 0.27675
 C3105 C 0.92084 0.39438 0.26193
 C3106 C 0.90238 0.37810 0.26012
 C3107 C 0.88383 0.38300 0.22246
 C3108 C 0.87654 0.37569 0.20627
 C3109 C 0.91598 0.41540 0.29842
 C3110 C 0.92264 0.42210 0.31514
 H3111 H 0.89600 0.43826 0.26085
 H3112 H 0.91952 0.41475 0.23004
 H3113 H 0.86217 0.40837 0.25710
 H3114 H 0.88063 0.38399 0.29052
 H3115 H 0.93800 0.39038 0.26350
 H3116 H 0.90417 0.36050 0.25976
 C3117 C 0.41522 0.88678 0.26766
 C3118 C 0.39174 0.88034 0.26367
 C3119 C 0.39246 0.89205 0.24217
 C3120 C 0.41582 0.89837 0.24585
 C3121 C 0.40745 0.90750 0.27815
 C3122 C 0.40818 0.91923 0.25666
 C3123 C 0.38409 0.90117 0.27446
 C3124 C 0.38468 0.91277 0.25267
 C3125 C 0.38392 0.88330 0.22229
 C3126 C 0.37670 0.87595 0.20608
 C3127 C 0.41563 0.91590 0.29833
 C3128 C 0.42222 0.92261 0.31508
 H3129 H 0.42787 0.87619 0.27405
 H3130 H 0.38488 0.86425 0.26633
 H3131 H 0.42877 0.89712 0.23385
 H3132 H 0.41503 0.93532 0.25402
 H3133 H 0.37113 0.90242 0.28645
 H3134 H 0.37202 0.92336 0.24627
 C3135 C 0.38628 0.41427 0.76786
 C3136 C 0.39814 0.41419 0.74619
 C3137 C 0.39150 0.39085 0.74295
 C3138 C 0.37951 0.39080 0.76431
 C3139 C 0.40673 0.40641 0.77879
 C3140 C 0.40009 0.38307 0.77553
 C3141 C 0.41874 0.40647 0.75743
 C3142 C 0.41196 0.38299 0.75388
 C3143 C 0.38285 0.38204 0.72313
 C3144 C 0.37556 0.37467 0.70695
 C3145 C 0.41506 0.41491 0.79888
 C3146 C 0.42177 0.42171 0.81555
 H3147 H 0.37581 0.42723 0.77383
 H3148 H 0.39724 0.42689 0.73390
 H3149 H 0.36328 0.38426 0.76693
 H3150 H 0.40098 0.37037 0.78782
 H3151 H 0.43497 0.41302 0.75483
 H3152 H 0.42242 0.37003 0.74790
 C3153 C 1.08381 0.91120 1.24394
 C3154 C 1.08556 0.88717 1.24938
 C3155 C 1.10833 0.89094 1.25753
 C3156 C 1.10673 0.91484 1.25240
 C3157 C 1.09305 0.90656 1.22173
 C3158 C 1.11583 0.91033 1.22988
 C3159 C 1.09466 0.88267 1.22686
 C3160 C 1.11756 0.88631 1.23531
 C3161 C 1.11701 0.88211 1.27733
 C3162 C 1.12433 0.87472 1.29348
 C3163 C 1.08470 0.91508 1.20165
 C3164 C 1.07799 0.92190 1.18499
 H3165 H 1.06984 0.92154 1.24725
 H3166 H 1.07321 0.87755 1.25762
 H3167 H 1.11179 0.92796 1.26313
 H3168 H 1.12819 0.91994 1.22164
 H3169 H 1.08961 0.86954 1.21614
 H3170 H 1.13153 0.87598 1.23198
 C3171 C 1.11191 0.39209 0.72335
 C3172 C 1.12037 0.40566 0.74216
 C3173 C 1.10762 0.39163 0.75766
 C3174 C 1.09928 0.37794 0.73914
 C3175 C 1.09256 0.40701 0.72167
 C3176 C 1.07980 0.39298 0.73717
 C3177 C 1.10089 0.42071 0.74018
 C3178 C 1.08827 0.40654 0.75600
 C3179 C 1.11618 0.38291 0.77755
 C3180 C 1.12342 0.37558 0.79377
 C3181 C 1.08433 0.41539 0.70149
 C3182 C 1.07772 0.42209 0.68475
 H3183 H 1.12154 0.38625 0.70970
 H3184 H 1.13715 0.41077 0.74443
 H3185 H 1.09871 0.36026 0.73893
 H3186 H 1.06302 0.38787 0.73488
 H3187 H 1.10146 0.43839 0.74037
 H3188 H 1.07864 0.41238 0.76966
 C3189 C 0.61168 0.89295 0.72346
 C3190 C 0.62012 0.90662 0.74220
 C3191 C 0.60740 0.89264 0.75778
 C3192 C 0.59909 0.87884 0.73933
 C3193 C 0.59229 0.90780 0.72173
 C3194 C 0.57957 0.89382 0.73729
 C3195 C 0.60060 0.92161 0.74016
 C3196 C 0.58801 0.90749 0.75606
 C3197 C 0.61599 0.88402 0.77770
 C3198 C 0.62323 0.87675 0.79394
 C3199 C 0.58405 0.91608 0.70151
 C3200 C 0.57744 0.92270 0.68473
 H3201 H 0.62132 0.88706 0.70984
 H3202 H 0.63689 0.91178 0.74445
 H3203 H 0.59856 0.86116 0.73921
 H3204 H 0.56280 0.88866 0.73504
 H3205 H 0.60113 0.93930 0.74027
 H3206 H 0.57838 0.91337 0.76969
 C3207 C 0.58323 0.41226 1.24434
 C3208 C 0.58510 0.38829 1.25001
 C3209 C 0.60785 0.39227 1.25816
 C3210 C 0.60611 0.41610 1.25281
 C3211 C 0.59253 0.40746 1.22220
 C3212 C 0.61528 0.41143 1.23035
 C3213 C 0.59427 0.38363 1.22755
 C3214 C 0.61714 0.38748 1.23600
 C3215 C 0.61654 0.38363 1.27803
 C3216 C 0.62384 0.37635 1.29424
 C3217 C 0.58418 0.41574 1.20203
 C3218 C 0.57750 0.42239 1.18529
 H3219 H 0.56919 0.42254 1.24754
 H3220 H 0.57280 0.37867 1.25832
 H3221 H 0.61108 0.42935 1.26343
 H3222 H 0.62759 0.42104 1.22204
 H3223 H 0.58931 0.37037 1.21694
 H3224 H 0.63117 0.37720 1.23279
 C3225 C 0.88480 1.10155 1.22489
 C3226 C 0.88270 1.08881 1.24593
 C3227 C 0.89220 1.10783 1.25807
 C3228 C 0.89417 1.12070 1.23732
 C3229 C 0.90744 1.09265 1.22207
 C3230 C 0.91694 1.11168 1.23421
 C3231 C 0.90548 1.07977 1.24281
 C3232 C 0.91485 1.09894 1.25527
 C3233 C 0.88355 1.11646 1.27797
 C3234 C 0.87627 1.12373 1.29419
 C3235 C 0.91575 1.08437 1.20188
 C3236 C 0.92240 1.07773 1.18513
 H3237 H 0.87253 1.10253 1.21217
 H3238 H 0.86853 1.07950 1.25098
 H3239 H 0.88942 1.13762 1.23528
 H3240 H 0.93111 1.12098 1.22916
 H3241 H 0.91023 1.06285 1.24484
 H3242 H 0.92710 1.09796 1.26800
 C3243 C 0.90270 0.61598 0.72577
 C3244 C 0.88119 0.60946 0.73596
 C3245 C 0.89237 0.60752 0.75767
 C3246 C 0.91376 0.61417 0.74778
 C3247 C 0.90761 0.59235 0.72167
 C3248 C 0.91881 0.59040 0.74336
 C3249 C 0.88622 0.58569 0.73156
 C3250 C 0.89728 0.58388 0.75358
 C3251 C 0.88372 0.61614 0.77757
 C3252 C 0.87643 0.62340 0.79379
 C3253 C 0.91592 0.58407 0.70148
 C3254 C 0.92257 0.57743 0.68472
 H3255 H 0.90503 0.62909 0.71411
 H3256 H 0.86563 0.61739 0.73313
 H3257 H 0.92499 0.62598 0.75467
 H3258 H 0.93437 0.58246 0.74617
 H3259 H 0.87500 0.57389 0.72466
 H3260 H 0.89495 0.57078 0.76524
 C3261 C 0.39974 1.11602 0.72474
 C3262 C 0.37983 1.10751 0.73660
 C3263 C 0.39234 1.10835 0.75764
 C3264 C 0.41212 1.11699 0.74608
 C3265 C 0.40741 1.09297 0.72166
 C3266 C 0.41993 1.09381 0.74269
 C3267 C 0.38763 1.08433 0.73322
 C3268 C 0.40001 1.08530 0.75457
 C3269 C 0.38376 1.11708 0.77753
 C3270 C 0.37652 1.12439 0.79375
 C3271 C 0.41564 1.08458 0.70148
 C3272 C 0.42226 1.07788 0.68474
 H3273 H 0.39971 1.12856 0.71225
 H3274 H 0.36325 1.11324 0.73431
 H3275 H 0.42209 1.13052 0.75160
 H3276 H 0.43651 1.08808 0.74497
 H3277 H 0.37765 1.07081 0.72770
 H3278 H 0.40002 1.07277 0.76707
 C3279 C 0.38479 0.60376 1.22425
 C3280 C 0.38124 0.59088 1.24502
 C3281 C 0.39169 0.60902 1.25773
 C3282 C 0.39511 0.62202 1.23725
 C3283 C 0.40683 0.59335 1.22189
 C3284 C 0.41728 0.61149 1.23459
 C3285 C 0.40342 0.58033 1.24235
 C3286 C 0.41374 0.59861 1.25538
 C3287 C 0.38309 0.61788 1.27755
 C3288 C 0.37581 0.62529 1.29372
 C3289 C 0.41510 0.58482 1.20179
 C3290 C 0.42178 0.57800 1.18511
 H3291 H 0.37297 0.60578 1.21124
 H3292 H 0.36633 0.58251 1.24953
 H3293 H 0.39160 0.63926 1.23537
 H3294 H 0.43219 0.61987 1.23008
 H3295 H 0.40693 0.56309 1.24422
 H3296 H 0.42554 0.59660 1.26840
 C3297 C 1.08012 1.24249 0.90598
 C3298 C 1.09972 1.25457 0.91494
 C3299 C 1.10798 1.25752 0.89206
 C3300 C 1.08852 1.24576 0.88298
 C3301 C 1.09276 1.22156 0.90731
 C3302 C 1.10103 1.22453 0.88445
 C3303 C 1.11222 1.23331 0.91640
 C3304 C 1.12061 1.23658 0.89340
 C3305 C 1.11662 1.27740 0.88341
 C3306 C 1.12390 1.29361 0.87612
 C3307 C 1.08446 1.20140 0.91563
 C3308 C 1.07779 1.18467 0.92230
 H3309 H 1.06337 1.24469 0.91125
 H3310 H 1.09928 1.26715 0.92737
 H3311 H 1.07888 1.25111 0.86914
 H3312 H 1.10148 1.21196 0.87200
 H3313 H 1.12187 1.22797 0.93024
 H3314 H 1.13736 1.23437 0.88814
 C3315 C 1.07978 0.73864 0.39567
 C3316 C 1.09171 0.75586 0.40876
 C3317 C 1.10857 0.75722 0.39104
 C3318 C 1.09678 0.74031 0.37783
 C3319 C 1.09332 0.72139 0.40657
 C3320 C 1.11018 0.72276 0.38886
 C3321 C 1.10511 0.73829 0.41979
 C3322 C 1.12210 0.73996 0.40194
 C3323 C 1.11722 0.77704 0.38225
 C3324 C 1.12451 0.79321 0.37488
 C3325 C 1.08498 0.70129 0.41504
 C3326 C 1.07828 0.68463 0.42183
 H3327 H 1.06228 0.73787 0.39319
 H3328 H 1.08421 0.76970 0.41684
 H3329 H 1.09344 0.74136 0.36048
 H3330 H 1.11769 0.70893 0.38076
 H3331 H 1.10845 0.73723 0.43714
 H3332 H 1.13960 0.74072 0.40442
 C3333 C 0.58878 1.22983 0.38443
 C3334 C 0.58369 1.25230 0.39333
 C3335 C 0.60751 1.25786 0.39208
 C3336 C 0.61271 1.23570 0.38306
 C3337 C 0.59234 1.22188 0.40733
 C3338 C 0.61615 1.22745 0.40607
 C3339 C 0.58712 1.24403 0.41637
 C3340 C 0.61107 1.24992 0.41498
 C3341 C 0.61613 1.27775 0.38343
 C3342 C 0.62339 1.29396 0.37614
 C3343 C 0.58407 1.20171 0.41564
 C3344 C 0.57744 1.18496 0.42230
 H3345 H 0.57953 1.22135 0.37197
 H3346 H 0.57045 1.26275 0.38799
 H3347 H 0.62333 1.23249 0.36927
 H3348 H 0.62940 1.21701 0.41141
 H3349 H 0.57650 1.24723 0.43016
 H3350 H 0.62033 1.25840 0.42744
 C3351 C 0.57850 0.73907 0.89701
 C3352 C 0.59033 0.75620 0.91031
 C3353 C 0.60726 0.75776 0.89267
 C3354 C 0.59556 0.74096 0.87925
 C3355 C 0.59204 0.72175 0.90779
 C3356 C 0.60897 0.72334 0.89016
 C3357 C 0.60374 0.73855 0.92122
 C3358 C 0.62079 0.74043 0.90345
 C3359 C 0.61590 0.77767 0.88408
 C3360 C 0.62318 0.79389 0.87683
 C3361 C 0.58375 0.70155 0.91603
 C3362 C 0.57712 0.68480 0.92266
 H3363 H 0.56101 0.73828 0.89445
 H3364 H 0.58277 0.76994 0.91849
 H3365 H 0.59229 0.74217 0.86190
 H3366 H 0.61654 0.70960 0.88196
 H3367 H 0.60701 0.73733 0.93857
 H3368 H 0.63828 0.74122 0.90601
 C3369 C 0.92097 1.24065 1.10011
 C3370 C 0.90581 1.25591 1.08795
 C3371 C 0.89191 1.25764 1.10804
 C3372 C 0.90692 1.24270 1.12033
 C3373 C 0.90726 1.22171 1.09286
 C3374 C 0.89335 1.22346 1.11294
 C3375 C 0.89224 1.23664 1.08056
 C3376 C 0.87821 1.23869 1.10078
 C3377 C 0.88320 1.27751 1.11666
 C3378 C 0.87589 1.29372 1.12394
 C3379 C 0.91563 1.20155 1.08457
 C3380 C 0.92234 1.18483 1.07791
 H3381 H 0.93865 1.24122 1.09974
 H3382 H 0.91084 1.26948 1.07777
 H3383 H 0.91286 1.24542 1.13678
 H3384 H 0.88832 1.20990 1.12313
 H3385 H 0.88631 1.23392 1.06411
 H3386 H 0.86053 1.23811 1.10114
 C3387 C 0.91934 0.74334 0.59049
 C3388 C 0.89802 0.75379 0.58365
 C3389 C 0.89276 0.75783 0.60723
 C3390 C 0.91394 0.74771 0.61421
 C3391 C 0.90790 0.72176 0.59217
 C3392 C 0.90264 0.72582 0.61574
 C3393 C 0.88672 0.73189 0.58519
 C3394 C 0.88134 0.73624 0.60890
 C3395 C 0.88416 0.77777 0.61580
 C3396 C 0.87691 0.79402 0.62302
 C3397 C 0.91615 0.70154 0.58395
 C3398 C 0.92276 0.68475 0.57736
 H3399 H 0.93505 0.74603 0.58282
 H3400 H 0.89602 0.76552 0.57055
 H3401 H 0.92503 0.75445 0.62623
 H3402 H 0.90463 0.71410 0.62885
 H3403 H 0.87563 0.72515 0.57317
 H3404 H 0.86562 0.73354 0.61656
 C3405 C 0.40112 1.24122 0.58006
 C3406 C 0.38001 1.24339 0.59270
 C3407 C 0.39159 1.25734 0.60915
 C3408 C 0.41258 1.25550 0.59665
 C3409 C 0.40681 1.22155 0.59349
 C3410 C 0.41839 1.23550 0.60994
 C3411 C 0.38583 1.22341 0.60599
 C3412 C 0.39728 1.23766 0.62257
 C3413 C 0.38295 1.27714 0.61801
 C3414 C 0.37565 1.29330 0.62541
 C3415 C 0.41512 1.20147 0.58495
 C3416 C 0.42182 1.18482 0.57812
 H3417 H 0.40280 1.24245 0.56248
 H3418 H 0.36413 1.24685 0.58570
 H3419 H 0.42348 1.26892 0.59292
 H3420 H 0.43427 1.23203 0.61694
 H3421 H 0.37491 1.21000 0.60973
 H3422 H 0.39561 1.23642 0.64015
 C3423 C 0.42088 0.74053 1.10003
 C3424 C 0.40579 0.75586 1.08788
 C3425 C 0.39192 0.75768 1.10799
 C3426 C 0.40687 0.74267 1.12027
 C3427 C 0.40706 0.72165 1.09281
 C3428 C 0.39319 0.72349 1.11291
 C3429 C 0.39211 0.73666 1.08052
 C3430 C 0.37812 0.73880 1.10076
 C3431 C 0.38332 0.77759 1.11661
 C3432 C 0.37607 0.79384 1.12387
 C3433 C 0.41533 0.70145 1.08453
 C3434 C 0.42197 0.68470 1.07789
 H3435 H 0.43856 0.74101 1.09964
 H3436 H 0.41087 0.76940 1.07769
 H3437 H 0.41285 0.74536 1.13671
 H3438 H 0.38810 0.70996 1.12312
 H3439 H 0.38613 0.73396 1.06408
 H3440 H 0.36044 0.73830 1.10116
 C3441 C 0.92080 0.75826 0.90389
 C3442 C 0.90294 0.74482 0.91441
 C3443 C 0.89225 0.74243 0.89250
 C3444 C 0.90997 0.75554 0.88185
 C3445 C 0.90744 0.77843 0.90765
 C3446 C 0.89675 0.77602 0.88575
 C3447 C 0.88972 0.76532 0.91830
 C3448 C 0.87890 0.76261 0.89627
 C3449 C 0.88362 0.72253 0.88390
 C3450 C 0.87635 0.70630 0.87664
 C3451 C 0.91573 0.79862 0.91591
 C3452 C 0.92237 0.81538 0.92253
 H3453 H 0.93812 0.75670 0.90712
 H3454 H 0.90538 0.73176 0.92610
 H3455 H 0.91820 0.75130 0.86677
 H3456 H 0.89429 0.78907 0.87405
 H3457 H 0.88149 0.76958 0.93338
 H3458 H 0.86158 0.76419 0.89304
 C3459 C 0.91899 0.25642 0.40940
 C3460 C 0.89739 0.24626 0.41578
 C3461 C 0.89267 0.24214 0.39210
 C3462 C 0.91413 0.25198 0.38559
 C3463 C 0.90784 0.27812 0.40734
 C3464 C 0.90311 0.27399 0.38366
 C3465 C 0.88638 0.26828 0.41384
 C3466 C 0.88154 0.26386 0.39004
 C3467 C 0.88405 0.22226 0.38344
 C3468 C 0.87678 0.20605 0.37616
 C3469 C 0.91610 0.29830 0.41565
 C3470 C 0.92272 0.31504 0.42231
 H3471 H 0.93448 0.25360 0.41746
 H3472 H 0.89494 0.23463 0.42889
 H3473 H 0.92544 0.24505 0.37387
 H3474 H 0.90555 0.28562 0.37054
 H3475 H 0.87507 0.27521 0.42556
 H3476 H 0.86604 0.26670 0.38198
 C3477 C 0.38855 0.77729 0.39047
 C3478 C 0.40155 0.76071 0.37759
 C3479 C 0.39167 0.74287 0.39115
 C3480 C 0.37854 0.75916 0.40390
 C3481 C 0.40690 0.77873 0.40662
 C3482 C 0.39702 0.76090 0.42019
 C3483 C 0.42003 0.76245 0.39388
 C3484 C 0.41002 0.74429 0.40731
 C3485 C 0.38302 0.72303 0.38239
 C3486 C 0.37573 0.70685 0.37505
 C3487 C 0.41522 0.79884 0.41506
 C3488 C 0.42192 0.81552 0.42183
 H3489 H 0.37981 0.79107 0.38363
 H3490 H 0.40331 0.76041 0.35998
 H3491 H 0.36138 0.75758 0.40792
 H3492 H 0.39525 0.76120 0.43780
 H3493 H 0.43718 0.76403 0.38985
 H3494 H 0.41875 0.73050 0.41413
 C3495 C 0.41734 0.25627 0.91100
 C3496 C 0.39500 0.24700 0.91605
 C3497 C 0.39187 0.24232 0.89221
 C3498 C 0.41406 0.25127 0.88702
 C3499 C 0.40710 0.27824 0.90752
 C3500 C 0.40397 0.27356 0.88368
 C3501 C 0.38492 0.26929 0.91271
 C3502 C 0.38166 0.26431 0.88874
 C3503 C 0.38323 0.22246 0.88352
 C3504 C 0.37595 0.20626 0.87621
 C3505 C 0.41542 0.29839 0.91587
 C3506 C 0.42209 0.31511 0.92256
 H3507 H 0.43210 0.25320 0.92025
 H3508 H 0.39122 0.23585 0.92927
 H3509 H 0.42595 0.24364 0.87636
 H3510 H 0.40774 0.28470 0.87047
 H3511 H 0.37303 0.27692 0.92337
 H3512 H 0.36689 0.26740 0.87950
 C3513 C 1.09624 0.75812 1.08044
 C3514 C 1.11850 0.75543 1.09081
 C3515 C 1.10818 0.74272 1.10903
 C3516 C 1.08606 0.74509 1.09880
 C3517 C 1.09295 0.77857 1.09351
 C3518 C 1.08263 0.76586 1.11173
 C3519 C 1.11506 0.77617 1.10374
 C3520 C 1.10488 0.76317 1.12209
 C3521 C 1.11683 0.72289 1.11781
 C3522 C 1.12413 0.70671 1.12517
 C3523 C 1.08462 0.79867 1.08504
 C3524 C 1.07792 0.81535 1.07826
 H3525 H 1.09260 0.75627 1.06322
 H3526 H 1.13334 0.75092 1.08230
 H3527 H 1.07423 0.73208 1.09687
 H3528 H 1.06778 0.77037 1.12024
 H3529 H 1.12690 0.78917 1.10568
 H3530 H 1.10852 0.76503 1.13931
 C3531 C 1.09405 0.27276 0.61638
 C3532 C 1.08459 0.25041 0.61190
 C3533 C 1.10721 0.24195 0.60787
 C3534 C 1.11679 0.26400 0.61249
 C3535 C 1.09229 0.27799 0.59251
 C3536 C 1.11492 0.26953 0.58849
 C3537 C 1.08270 0.25595 0.58788
 C3538 C 1.10546 0.24717 0.58400
 C3539 C 1.11571 0.22204 0.61659
 C3540 C 1.12290 0.20580 0.62390
 C3541 C 1.08415 0.29820 0.58414
 C3542 C 1.07760 0.31497 0.57747
 H3543 H 1.08927 0.28352 0.62960
 H3544 H 1.07221 0.24232 0.62162
 H3545 H 1.13090 0.26710 0.62270
 H3546 H 1.12730 0.27761 0.57877
 H3547 H 1.06858 0.25287 0.57767
 H3548 H 1.11025 0.23641 0.57079
 C3549 C 0.59770 0.77445 0.61591
 C3550 C 0.58639 0.75256 0.61448
 C3551 C 0.60755 0.74240 0.60749
 C3552 C 0.61898 0.76400 0.60905
 C3553 C 0.59239 0.77843 0.59233
 C3554 C 0.61355 0.76827 0.58534
 C3555 C 0.58095 0.75684 0.59076
 C3556 C 0.60225 0.74636 0.58391
 C3557 C 0.61616 0.72249 0.61611
 C3558 C 0.62341 0.70626 0.62337
 C3559 C 0.58413 0.79863 0.58406
 C3560 C 0.57750 0.81539 0.57743
 H3561 H 0.59574 0.78623 0.62897
 H3562 H 0.57532 0.74588 0.62656
 H3563 H 0.63472 0.76672 0.61666
 H3564 H 0.62463 0.77495 0.57327
 H3565 H 0.56521 0.75414 0.58314
 H3566 H 0.60421 0.73458 0.57085
 C3567 C 0.61634 0.27370 1.09624
 C3568 C 0.61109 0.26423 1.11843
 C3569 C 0.60784 0.24232 1.10799
 C3570 C 0.61322 0.25149 1.08592
 C3571 C 0.59253 0.27831 1.09289
 C3572 C 0.58927 0.25641 1.08243
 C3573 C 0.58715 0.26913 1.11496
 C3574 C 0.58403 0.24692 1.10464
 C3575 C 0.61653 0.22243 1.11657
 C3576 C 0.62383 0.20620 1.12381
 C3577 C 0.58418 0.29849 1.08465
 C3578 C 0.57750 0.31523 1.07803
 H3579 H 0.62954 0.28494 1.09270
 H3580 H 0.62017 0.26723 1.13333
 H3581 H 0.62404 0.24401 1.07408
 H3582 H 0.58019 0.25343 1.06754
 H3583 H 0.57634 0.27661 1.12681
 H3584 H 0.57084 0.23567 1.10819
 C3585 C 1.24321 1.09164 0.91924
 C3586 C 1.25395 1.08463 0.89811
 C3587 C 1.25764 1.10818 0.89250
 C3588 C 1.24722 1.11532 0.91349
 C3589 C 1.22170 1.09276 0.90760
 C3590 C 1.22540 1.11630 0.90198
 C3591 C 1.23212 1.08562 0.88661
 C3592 C 1.23612 1.10929 0.88087
 C3593 C 1.27750 1.11692 0.88392
 C3594 C 1.29370 1.12427 0.87667
 C3595 C 1.20155 1.08436 0.91584
 C3596 C 1.18482 1.07764 0.92246
 H3597 H 1.24590 1.08429 0.93512
 H3598 H 1.26592 1.07171 0.89643
 H3599 H 1.25365 1.12764 0.92444
 H3600 H 1.21344 1.12923 0.90366
 H3601 H 1.22569 1.07330 0.87565
 H3602 H 1.23342 1.11664 0.86500
 C3603 C 1.22428 0.60268 0.38455
 C3604 C 1.23690 0.62149 0.39434
 C3605 C 1.25757 0.60863 0.39170
 C3606 C 1.24524 0.58994 0.38178
 C3607 C 1.22175 0.59310 0.40695
 C3608 C 1.24241 0.58022 0.40432
 C3609 C 1.23407 0.61178 0.41688
 C3610 C 1.25505 0.59905 0.41410
 C3611 C 1.27738 0.61742 0.38303
 C3612 C 1.29353 0.62480 0.37571
 C3613 C 1.20165 0.58463 0.41529
 C3614 C 1.18498 0.57786 0.42199
 H3615 H 1.21141 0.60408 0.37249
 H3616 H 1.23485 0.63856 0.39015
 H3617 H 1.25006 0.58106 0.36725
 H3618 H 1.24444 0.56315 0.40851
 H3619 H 1.22925 0.62067 0.43140
 H3620 H 1.26793 0.59766 0.42616
 C3621 C 0.74172 1.09659 0.42068
 C3622 C 0.75535 1.08583 0.40309
 C3623 C 0.75769 1.10754 0.39201
 C3624 C 0.74439 1.11843 0.40945
 C3625 C 0.72167 1.09248 0.40725
 C3626 C 0.72403 1.11419 0.39616
 C3627 C 0.73496 1.08159 0.38980
 C3628 C 0.73762 1.10342 0.37859
 C3629 C 0.77760 1.11610 0.38336
 C3630 C 0.79384 1.12333 0.37608
 C3631 C 0.70146 1.08427 0.41556
 C3632 C 0.68470 1.07767 0.42222
 H3633 H 0.74317 1.09369 0.43808
 H3634 H 0.76846 1.07427 0.40584
 H3635 H 0.74849 1.13368 0.41744
 H3636 H 0.71093 1.12576 0.39341
 H3637 H 0.73086 1.06634 0.38182
 H3638 H 0.73616 1.10633 0.36119
 C3639 C 0.72754 0.61613 0.90779
 C3640 C 0.75007 0.60993 0.91579
 C3641 C 0.75737 0.60760 0.89252
 C3642 C 0.73515 0.61393 0.88440
 C3643 C 0.72136 0.59244 0.90771
 C3644 C 0.72867 0.59012 0.88444
 C3645 C 0.74357 0.58610 0.91584
 C3646 C 0.75119 0.58391 0.89243
 C3647 C 0.77727 0.61622 0.88389
 C3648 C 0.79350 0.62347 0.87663
 C3649 C 0.70117 0.58417 0.91599
 C3650 C 0.68442 0.57754 0.92263
 H3651 H 0.71760 0.62929 0.91420
 H3652 H 0.75909 0.61818 0.92858
 H3653 H 0.73190 0.62547 0.87138
 H3654 H 0.71964 0.58188 0.87164
 H3655 H 0.74680 0.57456 0.92886
 H3656 H 0.76115 0.57076 0.88601
 C3657 C 1.24114 0.90158 1.07872
 C3658 C 1.25572 0.91295 1.09511
 C3659 C 1.25771 0.89192 1.10750
 C3660 C 1.24345 0.88042 1.09125
 C3661 C 1.22171 0.90728 1.09250
 C3662 C 1.22372 0.88625 1.10489
 C3663 C 1.23597 0.91877 1.10875
 C3664 C 1.23828 0.89762 1.12127
 C3665 C 1.27761 0.88320 1.11604
 C3666 C 1.29383 0.87588 1.12326
 C3667 C 1.20152 0.91564 1.08431
 C3668 C 1.18476 0.92233 1.07774
 H3669 H 1.24208 0.90331 1.06113
 H3670 H 1.26911 0.92382 1.09118
 H3671 H 1.24676 0.86456 1.08414
 H3672 H 1.21034 0.87537 1.10883
 H3673 H 1.23266 0.93464 1.11586
 H3674 H 1.23732 0.89589 1.13886
 C3675 C 1.24118 0.40090 0.57970
 C3676 C 1.25559 0.41231 0.59621
 C3677 C 1.25740 0.39133 0.60872
 C3678 C 1.24331 0.37979 0.59235
 C3679 C 1.22160 0.40669 0.59323
 C3680 C 1.22343 0.38572 0.60574
 C3681 C 1.23569 0.41823 0.60960
 C3682 C 1.23781 0.39713 0.62224
 C3683 C 1.27720 0.38261 0.61750
 C3684 C 1.29335 0.37527 0.62487
 C3685 C 1.20152 0.41508 0.58478
 C3686 C 1.18486 0.42182 0.57800
 H3687 H 1.24233 0.40255 0.56212
 H3688 H 1.26904 0.42314 0.59240
 H3689 H 1.24666 0.36389 0.58536
 H3690 H 1.20998 0.37488 0.60957
 H3691 H 1.23233 0.43413 0.61660
 H3692 H 1.23665 0.39548 0.63982
 C3693 C 0.74245 0.90576 0.57906
 C3694 C 0.75505 0.91530 0.59805
 C3695 C 0.75787 0.89274 0.60715
 C3696 C 0.74560 0.88307 0.58830
 C3697 C 0.72181 0.90787 0.59207
 C3698 C 0.72466 0.88532 0.60117
 C3699 C 0.73408 0.91754 0.61092
 C3700 C 0.73722 0.89486 0.62015
 C3701 C 0.77780 0.88414 0.61573
 C3702 C 0.79405 0.87689 0.62297
 C3703 C 0.70159 0.91612 0.58384
 C3704 C 0.68481 0.92273 0.57725
 H3705 H 0.74437 0.91033 0.56207
 H3706 H 0.76777 0.92752 0.59687
 H3707 H 0.75057 0.86879 0.57909
 H3708 H 0.71194 0.87308 0.60236
 H3709 H 0.72911 0.93181 0.62013
 H3710 H 0.73529 0.89029 0.63714
 C3711 C 0.74138 0.40289 1.07927
 C3712 C 0.75517 0.41349 1.09682
 C3713 C 0.75739 0.39172 1.10783
 C3714 C 0.74392 0.38100 1.09042
 C3715 C 0.72142 0.40714 1.09281
 C3716 C 0.72366 0.38538 1.10382
 C3717 C 0.73488 0.41787 1.11022
 C3718 C 0.73742 0.39598 1.12136
 C3719 C 0.77728 0.38298 1.11638
 C3720 C 0.79350 0.37565 1.12359
 C3721 C 0.70125 0.41554 1.08460
 C3722 C 0.68451 0.42226 1.07799
 H3723 H 0.74278 0.40583 1.06188
 H3724 H 0.76836 0.42494 1.09404
 H3725 H 0.74786 0.36574 1.08237
 H3726 H 0.71048 0.37392 1.10661
 H3727 H 0.73094 0.43313 1.11827
 H3728 H 0.73601 0.39304 1.13875
 C3729 C 0.76214 1.07998 1.10549
 C3730 C 0.76022 1.09882 1.12135
 C3731 C 0.74235 1.10827 1.10752
 C3732 C 0.74395 1.08957 1.09179
 C3733 C 0.77836 1.09293 1.09250
 C3734 C 0.76050 1.10238 1.07867
 C3735 C 0.77674 1.11163 1.10823
 C3736 C 0.75858 1.12121 1.09453
 C3737 C 0.72245 1.11697 1.11607
 C3738 C 0.70622 1.12428 1.12329
 C3739 C 0.79855 1.08456 1.08430
 C3740 C 0.81530 1.07787 1.07771
 H3741 H 0.76383 1.06293 1.10991
 H3742 H 0.75988 1.09745 1.13899
 H3743 H 0.73023 1.08060 1.08513
 H3744 H 0.76085 1.10375 1.06102
 H3745 H 0.79045 1.12061 1.11490
 H3746 H 0.75690 1.13826 1.09012
 C3747 C 0.75786 0.57929 0.59483
 C3748 C 0.75485 0.58888 0.61740
 C3749 C 0.74240 0.60750 0.60751
 C3750 C 0.74509 0.59805 0.58507
 C3751 C 0.77841 0.59235 0.59233
 C3752 C 0.76596 0.61098 0.58244
 C3753 C 0.77571 0.60181 0.61476
 C3754 C 0.76296 0.62056 0.60501
 C3755 C 0.72249 0.61611 0.61614
 C3756 C 0.70625 0.62337 0.62340
 C3757 C 0.79861 0.58409 0.58405
 C3758 C 0.81537 0.57746 0.57742
 H3759 H 0.75600 0.56222 0.59054
 H3760 H 0.75005 0.57989 0.63187
 H3761 H 0.73227 0.59661 0.57296
 H3762 H 0.77077 0.61997 0.56797
 H3763 H 0.78852 0.60326 0.62688
 H3764 H 0.76483 0.63762 0.60928
 C3765 C 0.25692 1.09331 0.58002
 C3766 C 0.24503 1.08435 0.59974
 C3767 C 0.24188 1.10722 0.60789
 C3768 C 0.25344 1.11632 0.58831
 C3769 C 0.27792 1.09228 0.59257
 C3770 C 0.27474 1.11515 0.60072
 C3771 C 0.26636 1.08318 0.61215
 C3772 C 0.26288 1.10618 0.62043
 C3773 C 0.22196 1.11574 0.61658
 C3774 C 0.20572 1.12295 0.62389
 C3775 C 0.29813 1.08412 0.58423
 C3776 C 0.31491 1.07757 0.57756
 H3777 H 0.25471 1.08792 0.56330
 H3778 H 0.23259 1.07179 0.59944
 H3779 H 0.24790 1.13003 0.57860
 H3780 H 0.28718 1.12772 0.60103
 H3781 H 0.27190 1.06947 0.62186
 H3782 H 0.26511 1.11156 0.63714
 C3783 C 0.25721 0.59422 1.08074
 C3784 C 0.24524 0.58555 1.10055
 C3785 C 0.24238 0.60852 1.10854
 C3786 C 0.25402 0.61733 1.08887
 C3787 C 0.27821 0.59302 1.09326
 C3788 C 0.27533 0.61598 1.10126
 C3789 C 0.26657 0.58421 1.11293
 C3790 C 0.26339 0.60731 1.12105
 C3791 C 0.22256 0.61731 1.11721
 C3792 C 0.20640 0.62468 1.12453
 C3793 C 0.29831 0.58456 1.08493
 C3794 C 0.31499 0.57780 1.07823
 H3795 H 0.25489 0.58875 1.06407
 H3796 H 0.23264 0.57314 1.10035
 H3797 H 0.24864 0.63105 1.07907
 H3798 H 0.28792 0.62840 1.10146
 H3799 H 0.27195 0.57050 1.12273
 H3800 H 0.26572 0.61278 1.13771
 C3801 C 0.77403 0.88410 0.90318
 C3802 C 0.75202 0.88619 0.91417
 C3803 C 0.74222 0.89259 0.89266
 C3804 C 0.76393 0.89037 0.88154
 C3805 C 0.77824 0.90779 0.90775
 C3806 C 0.76843 0.91418 0.88623
 C3807 C 0.75654 0.91001 0.91888
 C3808 C 0.74641 0.91627 0.89722
 C3809 C 0.72230 0.88396 0.88407
 C3810 C 0.70607 0.87669 0.87683
 C3811 C 0.79844 0.91607 0.91598
 C3812 C 0.81520 0.92271 0.92258
 H3813 H 0.78561 0.87097 0.90572
 H3814 H 0.74504 0.87459 0.92556
 H3815 H 0.76675 0.88220 0.86610
 H3816 H 0.77541 0.92578 0.87484
 H3817 H 0.75373 0.91819 0.93432
 H3818 H 0.73482 0.92940 0.89467
 C3819 C 0.75965 0.42141 0.39997
 C3820 C 0.75753 0.40740 0.37973
 C3821 C 0.74247 0.39249 0.39199
 C3822 C 0.74426 0.40636 0.41210
 C3823 C 0.77848 0.40755 0.40724
 C3824 C 0.76342 0.39263 0.41950
 C3825 C 0.77666 0.39368 0.38714
 C3826 C 0.76131 0.37864 0.39926
 C3827 C 0.72256 0.38392 0.38333
 C3828 C 0.70632 0.37670 0.37606
 C3829 C 0.79868 0.41576 0.41556
 C3830 C 0.81543 0.42236 0.42223
 H3831 H 0.75920 0.43909 0.40036
 H3832 H 0.75488 0.41338 0.36329
 H3833 H 0.73071 0.41147 0.42226
 H3834 H 0.76608 0.38665 0.43595
 H3835 H 0.79021 0.38855 0.37696
 H3836 H 0.76177 0.36096 0.39888
 C3837 C 0.25871 0.92044 0.40130
 C3838 C 0.25654 0.90805 0.38004
 C3839 C 0.24261 0.89146 0.39146
 C3840 C 0.24446 0.90371 0.41259
 C3841 C 0.27840 0.90697 0.40681
 C3842 C 0.26447 0.89038 0.41824
 C3843 C 0.27653 0.89471 0.38569
 C3844 C 0.26231 0.87800 0.39698
 C3845 C 0.22282 0.88267 0.38275
 C3846 C 0.20667 0.87529 0.37542
 C3847 C 0.29847 0.91543 0.41520
 C3848 C 0.31513 0.92220 0.42194
 H3849 H 0.25745 0.93799 0.40318
 H3850 H 0.25305 0.91522 0.36424
 H3851 H 0.23104 0.90731 0.42356
 H3852 H 0.26796 0.88321 0.43404
 H3853 H 0.28994 0.89111 0.37471
 H3854 H 0.26357 0.86046 0.39511
 C3855 C 0.25589 0.41346 0.91569
 C3856 C 0.24841 0.41530 0.89221
 C3857 C 0.24221 0.39162 0.89263
 C3858 C 0.24937 0.38964 0.91598
 C3859 C 0.27814 0.40697 0.90779
 C3860 C 0.27193 0.38330 0.90821
 C3861 C 0.27098 0.40894 0.88445
 C3862 C 0.26447 0.38514 0.88474
 C3863 C 0.22235 0.38290 0.88401
 C3864 C 0.20616 0.37558 0.87674
 C3865 C 0.29829 0.41535 0.91606
 C3866 C 0.31502 0.42206 0.92269
 H3867 H 0.25259 0.42521 0.92851
 H3868 H 0.23851 0.42835 0.88553
 H3869 H 0.24025 0.38161 0.92884
 H3870 H 0.28183 0.37023 0.91488
 H3871 H 0.28009 0.41697 0.87158
 H3872 H 0.26779 0.37340 0.87193
   
