data_POSCAR
  _audit_creation_date              2014-09-24
  _audit_creation_method            'ToBaCCo'
  _symmetry_space_group_name_H-M    'P1'
  _symmetry_Int_Tables_number       1
  _symmetry_cell_setting            triclinic
  loop_
  _symmetry_equiv_pos_as_xyz
 x,y,z
_cell_length_a 107.1961
_cell_length_b 107.2930
_cell_length_c 107.6184
_cell_angle_alpha 89.972000
_cell_angle_beta 89.991100
_cell_angle_gamma 89.965500
loop_
  _atom_site_label
  _atom_site_type_symbol
  _atom_site_fract_x
  _atom_site_fract_y
  _atom_site_fract_z
N1 N 0.35196 0.31755 0.32634
 N2 N 0.35167 0.32604 0.31755
 C3 C 0.36172 0.32458 0.31017
 C4 C 0.36873 0.31463 0.31457
 C5 C 0.36218 0.31042 0.32486
 H6 H 0.36383 0.33044 0.30228
 H7 H 0.36475 0.30289 0.33102
 Cu8 Cu 0.33854 0.33861 0.31689
 Cu9 Cu 0.33951 0.31675 0.33945
 Cu10 Cu 0.31668 0.33952 0.33946
 N11 N 0.32595 0.35171 0.31758
 N12 N 0.31746 0.35198 0.32636
 C13 C 0.31029 0.36217 0.32489
 C14 C 0.31451 0.36874 0.31461
 C15 C 0.32448 0.36176 0.31021
 H16 H 0.30275 0.36471 0.33105
 H17 H 0.33035 0.36390 0.30234
 N18 N 0.31742 0.32614 0.35198
 N19 N 0.32613 0.31746 0.35198
 C20 C 0.32452 0.31009 0.36199
 C21 C 0.31431 0.31434 0.36868
 C22 C 0.31003 0.32451 0.36197
 H23 H 0.33052 0.30235 0.36434
 H24 H 0.30227 0.33049 0.36431
 H25 H 0.32524 0.32526 0.32972
 H26 H 0.33556 0.33558 0.33918
 N27 N 0.35293 0.81847 -0.17303
 N28 N 0.35241 0.82671 -0.18203
 C29 C 0.36196 0.82471 -0.18992
 C30 C 0.36896 0.81468 -0.18558
 C31 C 0.36280 0.81094 -0.17484
 H32 H 0.36377 0.83033 -0.19805
 H33 H 0.36538 0.80352 -0.16857
 Cu34 Cu 0.33973 0.83972 -0.18211
 Cu35 Cu 0.34141 0.81875 -0.15905
 Cu36 Cu 0.31662 0.83944 -0.16097
 N37 N 0.32659 0.85226 -0.18225
 N38 N 0.31750 0.85197 -0.17407
 C39 C 0.30997 0.86184 -0.17590
 C40 C 0.31457 0.86882 -0.18578
 C41 C 0.32513 0.86232 -0.18960
 H42 H 0.30194 0.86387 -0.17019
 H43 H 0.33145 0.86480 -0.19701
 N44 N 0.31769 0.82622 -0.14828
 N45 N 0.32720 0.81845 -0.14744
 C46 C 0.32558 0.81109 -0.13743
 C47 C 0.31458 0.81445 -0.13155
 C48 C 0.30982 0.82406 -0.13877
 H49 H 0.33211 0.80400 -0.13452
 H50 H 0.30143 0.82936 -0.13706
 H51 H 0.32709 0.82556 -0.16972
 H52 H 0.33549 0.83718 -0.15991
 N53 N 0.85185 0.31785 -0.17373
 N54 N 0.85185 0.32664 -0.18224
 C55 C 0.86188 0.32511 -0.18964
 C56 C 0.86858 0.31483 -0.18553
 C57 C 0.86185 0.31046 -0.17541
 H58 H 0.86421 0.33116 -0.19732
 H59 H 0.86414 0.30265 -0.16950
 Cu60 Cu 0.83905 0.33953 -0.18223
 Cu61 Cu 0.83935 0.31702 -0.16059
 Cu62 Cu 0.81654 0.33999 -0.16059
 N63 N 0.82625 0.35244 -0.18222
 N64 N 0.81746 0.35250 -0.17372
 C65 C 0.81012 0.36253 -0.17541
 C66 C 0.81454 0.36927 -0.18553
 C67 C 0.82480 0.36246 -0.18963
 H68 H 0.80230 0.36480 -0.16950
 H69 H 0.83092 0.36468 -0.19729
 N70 N 0.81725 0.32655 -0.14808
 N71 N 0.82592 0.31782 -0.14809
 C72 C 0.82428 0.31046 -0.13808
 C73 C 0.81411 0.31476 -0.13138
 C74 C 0.80988 0.32497 -0.13807
 H75 H 0.83025 0.30270 -0.13572
 H76 H 0.80220 0.33102 -0.13569
 H77 H 0.82529 0.32589 -0.17033
 H78 H 0.83530 0.33581 -0.16020
 N79 N 0.85173 0.81759 0.32624
 N80 N 0.85166 0.82634 0.31769
 C81 C 0.86171 0.82488 0.31032
 C82 C 0.86849 0.81466 0.31446
 C83 C 0.86179 0.81027 0.32458
 H84 H 0.86407 0.83101 0.30272
 H85 H 0.86414 0.80247 0.33049
 Cu86 Cu 0.83892 0.83929 0.31754
 Cu87 Cu 0.83931 0.81686 0.33943
 Cu88 Cu 0.81652 0.83975 0.33943
 N89 N 0.82601 0.85209 0.31770
 N90 N 0.81729 0.85218 0.32626
 C91 C 0.80996 0.86223 0.32462
 C92 C 0.81434 0.86896 0.31447
 C93 C 0.82455 0.86212 0.31031
 H94 H 0.80220 0.86454 0.33059
 H95 H 0.83067 0.86437 0.30267
 N96 N 0.81728 0.82639 0.35198
 N97 N 0.82596 0.81768 0.35199
 C98 C 0.82435 0.81035 0.36203
 C99 C 0.81418 0.81466 0.36873
 C100 C 0.80993 0.82483 0.36201
 H101 H 0.83033 0.80260 0.36440
 H102 H 0.80223 0.83087 0.36437
 H103 H 0.82526 0.82568 0.32955
 H104 H 0.83536 0.83571 0.33958
 N105 N 0.64819 0.68264 0.32642
 N106 N 0.64848 0.67416 0.31764
 C107 C 0.63843 0.67562 0.31027
 C108 C 0.63142 0.68557 0.31467
 C109 C 0.63798 0.68978 0.32494
 H110 H 0.63630 0.66974 0.30240
 H111 H 0.63543 0.69732 0.33109
 Cu112 Cu 0.66158 0.66158 0.31701
 Cu113 Cu 0.66064 0.68342 0.33953
 Cu114 Cu 0.68348 0.66064 0.33953
 N115 N 0.67418 0.64850 0.31765
 N116 N 0.68269 0.64821 0.32641
 C117 C 0.68983 0.63800 0.32492
 C118 C 0.68557 0.63145 0.31465
 C119 C 0.67561 0.63846 0.31028
 H120 H 0.69739 0.63544 0.33104
 H121 H 0.66969 0.63634 0.30243
 N122 N 0.68272 0.67400 0.35204
 N123 N 0.67401 0.68267 0.35204
 C124 C 0.67558 0.69004 0.36204
 C125 C 0.68578 0.68579 0.36875
 C126 C 0.69008 0.67562 0.36205
 H127 H 0.66954 0.69774 0.36440
 H128 H 0.69785 0.66965 0.36441
 H129 H 0.67492 0.67488 0.32982
 H130 H 0.66460 0.66455 0.33929
 N131 N 0.64809 0.18223 -0.17369
 N132 N 0.64813 0.17343 -0.18217
 C133 C 0.63810 0.17491 -0.18959
 C134 C 0.63137 0.18519 -0.18551
 C135 C 0.63808 0.18959 -0.17540
 H136 H 0.63580 0.16886 -0.19726
 H137 H 0.63575 0.19740 -0.16950
 Cu138 Cu 0.66098 0.16060 -0.18214
 Cu139 Cu 0.66060 0.18314 -0.16056
 Cu140 Cu 0.68354 0.16029 -0.16054
 N141 N 0.67383 0.14777 -0.18211
 N142 N 0.68266 0.14777 -0.17365
 C143 C 0.69005 0.13778 -0.17536
 C144 C 0.68562 0.13101 -0.18545
 C145 C 0.67530 0.13775 -0.18951
 H146 H 0.69789 0.13556 -0.16947
 H147 H 0.66917 0.13548 -0.19714
 N148 N 0.68277 0.17373 -0.14806
 N149 N 0.67404 0.18240 -0.14808
 C150 C 0.67563 0.18978 -0.13809
 C151 C 0.68584 0.18557 -0.13139
 C152 C 0.69014 0.17538 -0.13806
 H153 H 0.66958 0.19747 -0.13573
 H154 H 0.69791 0.16942 -0.13569
 H155 H 0.67468 0.17434 -0.17030
 H156 H 0.66473 0.16438 -0.16013
 N157 N 0.14819 0.68258 -0.17373
 N158 N 0.14828 0.67386 -0.18230
 C159 C 0.13828 0.67540 -0.18974
 C160 C 0.13149 0.68560 -0.18558
 C161 C 0.13816 0.68992 -0.17541
 H162 H 0.13601 0.66939 -0.19746
 H163 H 0.13577 0.69766 -0.16945
 Cu164 Cu 0.16106 0.66095 -0.18241
 Cu165 Cu 0.16059 0.68332 -0.16053
 Cu166 Cu 0.18347 0.66049 -0.16051
 N167 N 0.17398 0.64817 -0.18227
 N168 N 0.18271 0.64809 -0.17371
 C169 C 0.19004 0.63806 -0.17536
 C170 C 0.18569 0.63138 -0.18551
 C171 C 0.17549 0.63817 -0.18968
 H172 H 0.19780 0.63569 -0.16941
 H173 H 0.16944 0.63588 -0.19737
 N174 N 0.18263 0.67381 -0.14794
 N175 N 0.17391 0.68249 -0.14795
 C176 C 0.17550 0.68985 -0.13795
 C177 C 0.18569 0.68561 -0.13124
 C178 C 0.18999 0.67543 -0.13792
 H179 H 0.16948 0.69758 -0.13561
 H180 H 0.19780 0.66951 -0.13560
 H181 H 0.17470 0.67456 -0.17037
 H182 H 0.16464 0.66452 -0.16034
 N183 N 0.14815 0.18272 0.32619
 N184 N 0.14832 0.17400 0.31763
 C185 C 0.13832 0.17542 0.31018
 C186 C 0.13147 0.18560 0.31428
 C187 C 0.13808 0.19001 0.32445
 H188 H 0.13607 0.16933 0.30252
 H189 H 0.13567 0.19781 0.33032
 Cu190 Cu 0.16115 0.16118 0.31762
 Cu191 Cu 0.16057 0.18351 0.33942
 Cu192 Cu 0.18352 0.16061 0.33940
 N193 N 0.17399 0.14836 0.31761
 N194 N 0.18273 0.14821 0.32616
 C195 C 0.19003 0.13816 0.32443
 C196 C 0.18563 0.13154 0.31427
 C197 C 0.17543 0.13837 0.31017
 H198 H 0.19785 0.13577 0.33030
 H199 H 0.16932 0.13609 0.30252
 N200 N 0.18267 0.17397 0.35197
 N201 N 0.17395 0.18266 0.35199
 C202 C 0.17551 0.18996 0.36204
 C203 C 0.18569 0.18567 0.36875
 C204 C 0.18999 0.17552 0.36202
 H205 H 0.16948 0.19766 0.36442
 H206 H 0.19772 0.16951 0.36438
 H207 H 0.17481 0.17483 0.32973
 H208 H 0.16478 0.16478 0.33968
 N209 N 0.64804 0.31749 0.67339
 N210 N 0.64833 0.32601 0.68214
 C211 C 0.63830 0.32457 0.68954
 C212 C 0.63130 0.31460 0.68521
 C213 C 0.63784 0.31034 0.67493
 H214 H 0.63617 0.33051 0.69736
 H215 H 0.63533 0.30271 0.66889
 Cu216 Cu 0.66141 0.33860 0.68281
 Cu217 Cu 0.66052 0.31672 0.66029
 Cu218 Cu 0.68331 0.33955 0.66031
 N219 N 0.67400 0.35167 0.68218
 N220 N 0.68253 0.35199 0.67343
 C221 C 0.68970 0.36217 0.67500
 C222 C 0.68543 0.36867 0.68530
 C223 C 0.67545 0.36166 0.68961
 H224 H 0.69734 0.36470 0.66896
 H225 H 0.66951 0.36376 0.69744
 N226 N 0.68258 0.32619 0.64778
 N227 N 0.67390 0.31749 0.64777
 C228 C 0.67551 0.31016 0.63774
 C229 C 0.68568 0.31446 0.63103
 C230 C 0.68993 0.32463 0.63775
 H231 H 0.66954 0.30241 0.63538
 H232 H 0.69761 0.33069 0.63536
 H233 H 0.67478 0.32525 0.67009
 H234 H 0.66444 0.33556 0.66058
 N235 N 0.64806 0.81751 1.17344
 N236 N 0.64835 0.82603 1.18220
 C237 C 0.63831 0.82461 1.18958
 C238 C 0.63128 0.81466 1.18522
 C239 C 0.63784 0.81039 1.17495
 H240 H 0.63618 0.83053 1.19741
 H241 H 0.63530 0.80281 1.16886
 Cu242 Cu 0.66144 0.83861 1.18283
 Cu243 Cu 0.66052 0.81671 1.16033
 Cu244 Cu 0.68333 0.83951 1.16033
 N245 N 0.67404 0.85168 1.18221
 N246 N 0.68255 0.85195 1.17343
 C247 C 0.68970 0.86214 1.17492
 C248 C 0.68548 0.86870 1.18519
 C249 C 0.67551 0.86171 1.18959
 H250 H 0.69727 0.86466 1.16879
 H251 H 0.66962 0.86385 1.19745
 N252 N 0.68258 0.82615 1.14782
 N253 N 0.67390 0.81745 1.14781
 C254 C 0.67551 0.81011 1.13778
 C255 C 0.68570 0.81440 1.13109
 C256 C 0.68994 0.82457 1.13780
 H257 H 0.66954 0.80236 1.13542
 H258 H 0.69763 0.83062 1.13542
 H259 H 0.67477 0.82527 1.17008
 H260 H 0.66445 0.83558 1.16057
 N261 N 0.14809 0.31752 1.17354
 N262 N 0.14825 0.32627 1.18207
 C263 C 0.13826 0.32487 1.18953
 C264 C 0.13141 0.31468 1.18547
 C265 C 0.13802 0.31024 1.17531
 H266 H 0.13599 0.33102 1.19714
 H267 H 0.13563 0.30241 1.16947
 Cu268 Cu 0.16108 0.33908 1.18205
 Cu269 Cu 0.16050 0.31671 1.16031
 Cu270 Cu 0.18341 0.33963 1.16027
 N271 N 0.17390 0.35190 1.18205
 N272 N 0.18263 0.35205 1.17348
 C273 C 0.18994 0.36210 1.17520
 C274 C 0.18553 0.36872 1.18537
 C275 C 0.17534 0.36190 1.18948
 H276 H 0.19775 0.36447 1.16932
 H277 H 0.16924 0.36416 1.19714
 N278 N 0.18257 0.32625 1.14772
 N279 N 0.17388 0.31753 1.14773
 C280 C 0.17548 0.31020 1.13769
 C281 C 0.18565 0.31451 1.13099
 C282 C 0.18990 0.32468 1.13769
 H283 H 0.16952 0.30245 1.13533
 H284 H 0.19757 0.33074 1.13528
 H285 H 0.17474 0.32539 1.16994
 H286 H 0.16470 0.33541 1.15999
 N287 N 0.14801 0.81756 0.67334
 N288 N 0.14804 0.82638 0.68180
 C289 C 0.13803 0.82493 0.68922
 C290 C 0.13130 0.81465 0.68518
 C291 C 0.13800 0.81021 0.67508
 H292 H 0.13570 0.83106 0.69683
 H293 H 0.13570 0.80233 0.66927
 Cu294 Cu 0.16085 0.83922 0.68178
 Cu295 Cu 0.16050 0.81668 0.66019
 Cu296 Cu 0.18338 0.83958 0.66018
 N297 N 0.17369 0.85205 0.68178
 N298 N 0.18251 0.85208 0.67330
 C299 C 0.18988 0.86207 0.67503
 C300 C 0.18545 0.86877 0.68514
 C301 C 0.17517 0.86205 0.68920
 H302 H 0.19774 0.86436 0.66919
 H303 H 0.16907 0.86436 0.69685
 N304 N 0.18261 0.82617 0.64768
 N305 N 0.17393 0.81746 0.64768
 C306 C 0.17554 0.81012 0.63766
 C307 C 0.18572 0.81442 0.63096
 C308 C 0.18996 0.82459 0.63766
 H309 H 0.16956 0.80238 0.63529
 H310 H 0.19764 0.83064 0.63528
 H311 H 0.17456 0.82551 0.66992
 H312 H 0.16460 0.83546 0.65976
 N313 N 0.35190 0.68247 0.67349
 N314 N 0.35188 0.67368 0.68200
 C315 C 0.36189 0.67518 0.68941
 C316 C 0.36860 0.68546 0.68532
 C317 C 0.36189 0.68985 0.67521
 H318 H 0.36421 0.66914 0.69710
 H319 H 0.36416 0.69769 0.66934
 Cu320 Cu 0.33909 0.66078 0.68197
 Cu321 Cu 0.33944 0.68331 0.66033
 Cu322 Cu 0.31654 0.66048 0.66030
 N323 N 0.32617 0.64803 0.68197
 N324 N 0.31738 0.64802 0.67347
 C325 C 0.31001 0.63802 0.67516
 C326 C 0.31441 0.63129 0.68526
 C327 C 0.32468 0.63800 0.68936
 H328 H 0.30215 0.63575 0.66931
 H329 H 0.33076 0.63567 0.69702
 N330 N 0.31736 0.67386 0.64777
 N331 N 0.32606 0.68254 0.64779
 C332 C 0.32447 0.68993 0.63781
 C333 C 0.31428 0.68571 0.63109
 C334 C 0.30999 0.67552 0.63776
 H335 H 0.33049 0.69765 0.63547
 H336 H 0.30222 0.66957 0.63540
 H337 H 0.32543 0.67442 0.67007
 H338 H 0.33542 0.66444 0.65991
 N339 N 0.35177 0.18282 1.17372
 N340 N 0.35170 0.17405 1.18224
 C341 C 0.36182 0.17537 1.18953
 C342 C 0.36868 0.18551 1.18534
 C343 C 0.36194 0.19001 1.17529
 H344 H 0.36414 0.16923 1.19714
 H345 H 0.36432 0.19779 1.16937
 Cu346 Cu 0.33869 0.16141 1.18277
 Cu347 Cu 0.33929 0.18368 1.16062
 Cu348 Cu 0.31862 0.15900 1.15882
 N349 N 0.32616 0.14828 1.18204
 N350 N 0.31830 0.14743 1.17272
 C351 C 0.31107 0.13730 1.17431
 C352 C 0.31460 0.13140 1.18523
 C353 C 0.32420 0.13871 1.18988
 H354 H 0.30397 0.13436 1.16783
 H355 H 0.32952 0.13710 1.19825
 N356 N 0.31836 0.17308 1.14709
 N357 N 0.32613 0.18257 1.14790
 C358 C 0.32404 0.19037 1.13832
 C359 C 0.31447 0.18559 1.13108
 C360 C 0.31106 0.17464 1.13703
 H361 H 0.32938 0.19872 1.13658
 H362 H 0.30397 0.16812 1.13412
 H363 H 0.32507 0.17367 1.16941
 H364 H 0.33713 0.16478 1.16046
 N365 N 0.85138 0.68302 1.17379
 N366 N 0.85171 0.67395 1.18196
 C367 C 0.86226 0.67491 1.18869
 C368 C 0.86895 0.68518 1.18453
 C369 C 0.86166 0.69010 1.17506
 H370 H 0.86481 0.66861 1.19611
 H371 H 0.86360 0.69824 1.16946
 Cu372 Cu 0.83816 0.66189 1.18328
 Cu373 Cu 0.83757 0.68510 1.16226
 Cu374 Cu 0.81709 0.66020 1.16001
 N375 N 0.82595 0.64849 1.18232
 N376 N 0.81786 0.64783 1.17318
 C377 C 0.81087 0.63752 1.17458
 C378 C 0.81479 0.63127 1.18516
 C379 C 0.82439 0.63858 1.18984
 H380 H 0.80358 0.63474 1.16823
 H381 H 0.82994 0.63679 1.19803
 N382 N 0.81777 0.67374 1.14767
 N383 N 0.82539 0.68332 1.14866
 C384 C 0.82382 0.69083 1.13875
 C385 C 0.81474 0.68574 1.13110
 C386 C 0.81112 0.67490 1.13711
 H387 H 0.82908 0.69926 1.13717
 H388 H 0.80429 0.66822 1.13397
 H389 H 0.82358 0.67436 1.17071
 H390 H 0.83549 0.66599 1.16120
 N391 N 0.85173 0.18285 0.67369
 N392 N 0.85161 0.17407 0.68220
 C393 C 0.86170 0.17536 0.68953
 C394 C 0.86859 0.18551 0.68540
 C395 C 0.86190 0.19002 0.67532
 H396 H 0.86399 0.16918 0.69712
 H397 H 0.86434 0.19780 0.66942
 Cu398 Cu 0.83859 0.16145 0.68268
 Cu399 Cu 0.83928 0.18373 0.66055
 Cu400 Cu 0.81858 0.15903 0.65872
 N401 N 0.82602 0.14836 0.68199
 N402 N 0.81819 0.14750 0.67265
 C403 C 0.81097 0.13737 0.67422
 C404 C 0.81447 0.13146 0.68514
 C405 C 0.82406 0.13877 0.68982
 H406 H 0.80390 0.13442 0.66770
 H407 H 0.82942 0.13712 0.69816
 N408 N 0.81836 0.17312 0.64700
 N409 N 0.82613 0.18260 0.64781
 C410 C 0.82403 0.19041 0.63824
 C411 C 0.81445 0.18564 0.63101
 C412 C 0.81104 0.17468 0.63695
 H413 H 0.82936 0.19877 0.63650
 H414 H 0.80395 0.16816 0.63405
 H415 H 0.82506 0.17371 0.66921
 H416 H 0.83711 0.16482 0.66030
 N417 N 0.31742 0.35195 0.67348
 N418 N 0.32626 0.35189 0.68193
 C419 C 0.32479 0.36184 0.68941
 C420 C 0.31449 0.36859 0.68541
 C421 C 0.31004 0.36194 0.67528
 H422 H 0.33091 0.36411 0.69706
 H423 H 0.30215 0.36427 0.66948
 Cu424 Cu 0.33914 0.33910 0.68191
 Cu425 Cu 0.31656 0.33947 0.66032
 Cu426 Cu 0.33943 0.31655 0.66030
 N427 N 0.35189 0.32619 0.68192
 N428 N 0.35192 0.31736 0.67346
 C429 C 0.36193 0.30998 0.67522
 C430 C 0.36859 0.31441 0.68535
 C431 C 0.36186 0.32469 0.68938
 H432 H 0.36424 0.30211 0.66941
 H433 H 0.36416 0.33080 0.69702
 N434 N 0.32604 0.31738 0.64776
 N435 N 0.31735 0.32609 0.64778
 C436 C 0.31004 0.32456 0.63772
 C437 C 0.31431 0.31440 0.63099
 C438 C 0.32448 0.31009 0.63769
 H439 H 0.30238 0.33064 0.63531
 H440 H 0.33050 0.30240 0.63529
 H441 H 0.32551 0.32550 0.67001
 H442 H 0.33547 0.33543 0.65981
 N443 N 0.31757 0.85224 0.17317
 N444 N 0.32634 0.85221 0.18169
 C445 C 0.32483 0.86223 0.18909
 C446 C 0.31457 0.86896 0.18495
 C447 C 0.31020 0.86224 0.17484
 H448 H 0.33087 0.86454 0.19679
 H449 H 0.30240 0.86455 0.16892
 Cu450 Cu 0.33921 0.83939 0.18172
 Cu451 Cu 0.31671 0.83975 0.16006
 Cu452 Cu 0.33957 0.81683 0.16013
 N453 N 0.35202 0.82652 0.18175
 N454 N 0.35205 0.81771 0.17328
 C455 C 0.36206 0.81035 0.17500
 C456 C 0.36877 0.81476 0.18510
 C457 C 0.36204 0.82504 0.18917
 H458 H 0.36437 0.80252 0.16913
 H459 H 0.36436 0.83112 0.19682
 N460 N 0.32616 0.81760 0.14761
 N461 N 0.31748 0.82632 0.14757
 C462 C 0.31013 0.82472 0.13755
 C463 C 0.31438 0.81451 0.13089
 C464 C 0.32455 0.81022 0.13761
 H465 H 0.30244 0.83076 0.13514
 H466 H 0.33053 0.80247 0.13528
 H467 H 0.32551 0.82568 0.16985
 H468 H 0.33551 0.83560 0.15969
 N469 N 0.81735 0.35210 0.17330
 N470 N 0.82610 0.35199 0.18185
 C471 C 0.82464 0.36201 0.18925
 C472 C 0.81442 0.36880 0.18512
 C473 C 0.81003 0.36214 0.17498
 H474 H 0.83074 0.36430 0.19690
 H475 H 0.80224 0.36452 0.16907
 Cu476 Cu 0.83901 0.33921 0.18196
 Cu477 Cu 0.81656 0.33969 0.16011
 Cu478 Cu 0.83942 0.31685 0.16011
 N479 N 0.85180 0.32630 0.18185
 N480 N 0.85185 0.31758 0.17328
 C481 C 0.86187 0.31021 0.17494
 C482 C 0.86857 0.31453 0.18508
 C483 C 0.86183 0.32476 0.18924
 H484 H 0.86420 0.30245 0.16898
 H485 H 0.86415 0.33080 0.19693
 N486 N 0.82607 0.31766 0.14756
 N487 N 0.81736 0.32634 0.14755
 C488 C 0.81003 0.32474 0.13751
 C489 C 0.81433 0.31456 0.13083
 C490 C 0.82451 0.31031 0.13755
 H491 H 0.80228 0.33072 0.13513
 H492 H 0.83057 0.30264 0.13518
 H493 H 0.82532 0.32563 0.16991
 H494 H 0.83537 0.33567 0.15989
 N495 N 0.81743 0.85240 0.67327
 N496 N 0.82625 0.85235 0.68175
 C497 C 0.82479 0.86235 0.68917
 C498 C 0.81451 0.86909 0.68511
 C499 C 0.81008 0.86241 0.67500
 H500 H 0.83091 0.86467 0.69679
 H501 H 0.80220 0.86472 0.66918
 Cu502 Cu 0.83911 0.83954 0.68176
 Cu503 Cu 0.81654 0.83989 0.66016
 Cu504 Cu 0.83945 0.81699 0.66022
 N505 N 0.85194 0.82669 0.68178
 N506 N 0.85197 0.81787 0.67333
 C507 C 0.86198 0.81051 0.67507
 C508 C 0.86868 0.81494 0.68517
 C509 C 0.86195 0.82523 0.68920
 H510 H 0.86427 0.80262 0.66926
 H511 H 0.86428 0.83136 0.69682
 N512 N 0.82601 0.81774 0.64773
 N513 N 0.81731 0.82644 0.64768
 C514 C 0.80996 0.82480 0.63767
 C515 C 0.81425 0.81460 0.63102
 C516 C 0.82442 0.81035 0.63775
 H517 H 0.80222 0.83078 0.63527
 H518 H 0.83046 0.80265 0.63540
 H519 H 0.82535 0.82586 0.66993
 H520 H 0.83531 0.83578 0.65975
 N521 N 0.68251 0.64809 0.67344
 N522 N 0.67399 0.64838 0.68220
 C523 C 0.67544 0.63835 0.68959
 C524 C 0.68542 0.63135 0.68523
 C525 C 0.68968 0.63791 0.67496
 H526 H 0.66952 0.63622 0.69743
 H527 H 0.69729 0.63540 0.66889
 Cu528 Cu 0.66139 0.66146 0.68282
 Cu529 Cu 0.68327 0.66055 0.66033
 Cu530 Cu 0.66044 0.68339 0.66035
 N531 N 0.64832 0.67406 0.68222
 N532 N 0.64801 0.68260 0.67348
 C533 C 0.63781 0.68975 0.67504
 C534 C 0.63128 0.68547 0.68531
 C535 C 0.63830 0.67550 0.68964
 H536 H 0.63529 0.69737 0.66898
 H537 H 0.63619 0.66957 0.69747
 N538 N 0.67381 0.68262 0.64782
 N539 N 0.68250 0.67392 0.64782
 C540 C 0.68989 0.67553 0.63783
 C541 C 0.68565 0.68572 0.63114
 C542 C 0.67544 0.68999 0.63782
 H543 H 0.69760 0.66950 0.63547
 H544 H 0.66947 0.69775 0.63547
 H545 H 0.67472 0.67484 0.67009
 H546 H 0.66439 0.66455 0.66059
 N547 N 0.68265 0.14785 0.17334
 N548 N 0.67383 0.14794 0.18182
 C549 C 0.67528 0.13796 0.18928
 C550 C 0.68556 0.13120 0.18527
 C551 C 0.69001 0.13784 0.17513
 H552 H 0.66913 0.13566 0.19689
 H553 H 0.69791 0.13552 0.16935
 Cu554 Cu 0.66102 0.16079 0.18183
 Cu555 Cu 0.68349 0.16032 0.16016
 Cu556 Cu 0.66062 0.18329 0.16018
 N557 N 0.64820 0.17364 0.18183
 N558 N 0.64815 0.18246 0.17337
 C559 C 0.63815 0.18983 0.17515
 C560 C 0.63147 0.18537 0.18527
 C561 C 0.63821 0.17508 0.18927
 H562 H 0.63584 0.19774 0.16938
 H563 H 0.63586 0.16892 0.19686
 N564 N 0.67402 0.18246 0.14764
 N565 N 0.68269 0.17372 0.14763
 C566 C 0.69000 0.17525 0.13757
 C567 C 0.68575 0.18543 0.13087
 C568 C 0.67560 0.18976 0.13759
 H569 H 0.69763 0.16914 0.13514
 H570 H 0.66960 0.19749 0.13520
 H571 H 0.67468 0.17441 0.16984
 H572 H 0.66465 0.16445 0.15976
 N573 N 0.18241 0.64806 0.17312
 N574 N 0.17392 0.64835 0.18191
 C575 C 0.17538 0.63831 0.18929
 C576 C 0.18533 0.63130 0.18488
 C577 C 0.18955 0.63785 0.17459
 H578 H 0.16953 0.63620 0.19719
 H579 H 0.19707 0.63529 0.16843
 Cu580 Cu 0.16133 0.66145 0.18256
 Cu581 Cu 0.18320 0.66052 0.16003
 Cu582 Cu 0.16039 0.68335 0.16004
 N583 N 0.14823 0.67405 0.18193
 N584 N 0.14793 0.68255 0.17315
 C585 C 0.13772 0.68970 0.17465
 C586 C 0.13118 0.68547 0.18494
 C587 C 0.13820 0.67551 0.18932
 H588 H 0.13515 0.69723 0.16850
 H589 H 0.13609 0.66965 0.19721
 N590 N 0.17378 0.68261 0.14753
 N591 N 0.18248 0.67391 0.14753
 C592 C 0.18987 0.67553 0.13754
 C593 C 0.18562 0.68574 0.13086
 C594 C 0.17542 0.68999 0.13754
 H595 H 0.19761 0.66954 0.13519
 H596 H 0.16941 0.69772 0.13518
 H597 H 0.17463 0.67477 0.16973
 H598 H 0.16430 0.66448 0.16025
 N599 N 0.18243 0.14767 0.67341
 N600 N 0.17388 0.14796 0.68215
 C601 C 0.17530 0.13793 0.68954
 C602 C 0.18529 0.13092 0.68520
 C603 C 0.18957 0.13748 0.67494
 H604 H 0.16935 0.13579 0.69735
 H605 H 0.19719 0.13495 0.66887
 Cu606 Cu 0.16127 0.16103 0.68276
 Cu607 Cu 0.18326 0.16013 0.66030
 Cu608 Cu 0.16044 0.18294 0.66030
 N609 N 0.14819 0.17364 0.68215
 N610 N 0.14795 0.18215 0.67339
 C611 C 0.13778 0.18934 0.67488
 C612 C 0.13119 0.18514 0.68514
 C613 C 0.13814 0.17514 0.68953
 H614 H 0.13527 0.19690 0.66874
 H615 H 0.13598 0.16927 0.69741
 N616 N 0.17383 0.18221 0.64781
 N617 N 0.18253 0.17352 0.64779
 C618 C 0.18991 0.17517 0.63778
 C619 C 0.18563 0.18538 0.63112
 C620 C 0.17544 0.18961 0.63783
 H621 H 0.19767 0.16920 0.63542
 H622 H 0.16941 0.19732 0.63548
 H623 H 0.17470 0.17432 0.67003
 H624 H 0.16441 0.16405 0.66050
 N625 N 0.31737 0.64806 0.32632
 N626 N 0.32590 0.64839 0.31756
 C627 C 0.32448 0.63839 0.31015
 C628 C 0.31452 0.63136 0.31448
 C629 C 0.31024 0.63786 0.32477
 H630 H 0.33043 0.63629 0.30233
 H631 H 0.30260 0.63531 0.33081
 Cu632 Cu 0.33848 0.66146 0.31692
 Cu633 Cu 0.31659 0.66052 0.33941
 Cu634 Cu 0.33938 0.68335 0.33942
 N635 N 0.35157 0.67404 0.31758
 N636 N 0.35187 0.68257 0.32632
 C637 C 0.36207 0.68971 0.32477
 C638 C 0.36860 0.68543 0.31449
 C639 C 0.36159 0.67546 0.31017
 H640 H 0.36460 0.69734 0.33080
 H641 H 0.36372 0.66952 0.30236
 N642 N 0.32599 0.68259 0.35192
 N643 N 0.31731 0.67388 0.35193
 C644 C 0.30997 0.67545 0.36196
 C645 C 0.31422 0.68563 0.36866
 C646 C 0.32439 0.68993 0.36194
 H647 H 0.30229 0.66940 0.36435
 H648 H 0.33038 0.69766 0.36430
 H649 H 0.32514 0.67483 0.32963
 H650 H 0.33548 0.66452 0.33914
 N651 N 0.31741 0.14800 0.82630
 N652 N 0.32612 0.14809 0.81771
 C653 C 0.32461 0.13808 0.81032
 C654 C 0.31440 0.13131 0.81450
 C655 C 0.31007 0.13798 0.82465
 H656 H 0.33064 0.13579 0.80261
 H657 H 0.30233 0.13559 0.83063
 Cu658 Cu 0.33905 0.16084 0.81756
 Cu659 Cu 0.31667 0.16038 0.83950
 Cu660 Cu 0.33948 0.18320 0.83952
 N661 N 0.35181 0.17375 0.81772
 N662 N 0.35189 0.18245 0.82631
 C663 C 0.36194 0.18977 0.82466
 C664 C 0.36862 0.18544 0.81450
 C665 C 0.36184 0.17525 0.81033
 H666 H 0.36433 0.19749 0.83064
 H667 H 0.36413 0.16924 0.80262
 N668 N 0.32615 0.18238 0.85210
 N669 N 0.31747 0.17368 0.85209
 C670 C 0.31007 0.17527 0.86207
 C671 C 0.31431 0.18545 0.86879
 C672 C 0.32451 0.18974 0.86211
 H673 H 0.30232 0.16928 0.86439
 H674 H 0.33044 0.19752 0.86444
 H675 H 0.32544 0.17448 0.82964
 H676 H 0.33552 0.16441 0.83963
 N677 N 0.81755 0.64788 0.82645
 N678 N 0.82634 0.64791 0.81794
 C679 C 0.82485 0.63791 0.81052
 C680 C 0.81458 0.63118 0.81463
 C681 C 0.81019 0.63788 0.82475
 H682 H 0.83092 0.63561 0.80284
 H683 H 0.80236 0.63557 0.83063
 Cu684 Cu 0.83918 0.66074 0.81793
 Cu685 Cu 0.81666 0.66036 0.83957
 Cu686 Cu 0.83952 0.68326 0.83954
 N687 N 0.85200 0.67360 0.81791
 N688 N 0.85201 0.68239 0.82640
 C689 C 0.86200 0.68977 0.82468
 C690 C 0.86871 0.68539 0.81456
 C691 C 0.86201 0.67510 0.81048
 H692 H 0.86429 0.69759 0.83056
 H693 H 0.86432 0.66905 0.80281
 N694 N 0.82609 0.68249 0.85205
 N695 N 0.81740 0.67378 0.85207
 C696 C 0.81004 0.67539 0.86207
 C697 C 0.81428 0.68559 0.86875
 C698 C 0.82447 0.68986 0.86205
 H699 H 0.80232 0.66938 0.86445
 H700 H 0.83047 0.69758 0.86440
 H701 H 0.82545 0.67444 0.82981
 H702 H 0.83544 0.66449 0.83996
 N703 N 0.81764 0.14787 0.32643
 N704 N 0.82644 0.14792 0.31793
 C705 C 0.82496 0.13792 0.31050
 C706 C 0.81469 0.13118 0.31459
 C707 C 0.81029 0.13786 0.32472
 H708 H 0.83102 0.13564 0.30281
 H709 H 0.80247 0.13554 0.33060
 Cu710 Cu 0.83927 0.16077 0.31792
 Cu711 Cu 0.81674 0.16036 0.33955
 Cu712 Cu 0.83955 0.18330 0.33954
 N713 N 0.85204 0.17366 0.31791
 N714 N 0.85205 0.18246 0.32640
 C715 C 0.86204 0.18984 0.32469
 C716 C 0.86876 0.18545 0.31458
 C717 C 0.86206 0.17517 0.31050
 H718 H 0.86430 0.19770 0.33053
 H719 H 0.86441 0.16908 0.30286
 N720 N 0.82612 0.18250 0.35205
 N721 N 0.81746 0.17377 0.35205
 C722 C 0.81010 0.17534 0.36206
 C723 C 0.81431 0.18553 0.36876
 C724 C 0.82449 0.18984 0.36207
 H725 H 0.80242 0.16927 0.36445
 H726 H 0.83047 0.19757 0.36445
 H727 H 0.82553 0.17446 0.32980
 H728 H 0.83552 0.16453 0.33996
 N729 N 0.68258 0.35196 0.32619
 N730 N 0.67385 0.35188 0.31762
 C731 C 0.67533 0.36192 0.31024
 C732 C 0.68554 0.36869 0.31439
 C733 C 0.68991 0.36200 0.32453
 H734 H 0.66925 0.36424 0.30258
 H735 H 0.69768 0.36436 0.33046
 Cu736 Cu 0.66094 0.33913 0.31751
 Cu737 Cu 0.68336 0.33954 0.33939
 Cu738 Cu 0.66049 0.31675 0.33940
 N739 N 0.64816 0.32624 0.31762
 N740 N 0.64807 0.31754 0.32621
 C741 C 0.63803 0.31021 0.32456
 C742 C 0.63135 0.31455 0.31441
 C743 C 0.63812 0.32475 0.31023
 H744 H 0.63565 0.30248 0.33054
 H745 H 0.63582 0.33078 0.30253
 N746 N 0.67384 0.31753 0.35195
 N747 N 0.68256 0.32619 0.35195
 C748 C 0.68990 0.32458 0.36198
 C749 C 0.68559 0.31442 0.36868
 C750 C 0.67541 0.31018 0.36197
 H751 H 0.69765 0.33056 0.36434
 H752 H 0.66935 0.30250 0.36434
 H753 H 0.67457 0.32548 0.32959
 H754 H 0.66452 0.33554 0.33959
 N755 N 0.68248 0.85216 0.82644
 N756 N 0.67369 0.85213 0.81793
 C757 C 0.67518 0.86214 0.81051
 C758 C 0.68545 0.86886 0.81460
 C759 C 0.68985 0.86216 0.82472
 H760 H 0.66911 0.86445 0.80284
 H761 H 0.69766 0.86448 0.83061
 Cu762 Cu 0.66083 0.83932 0.81793
 Cu763 Cu 0.68334 0.83968 0.83958
 Cu764 Cu 0.66046 0.81681 0.83958
 N765 N 0.64802 0.82647 0.81793
 N766 N 0.64799 0.81768 0.82643
 C767 C 0.63798 0.81033 0.82473
 C768 C 0.63128 0.81472 0.81461
 C769 C 0.63801 0.82498 0.81051
 H770 H 0.63566 0.80252 0.83062
 H771 H 0.63569 0.83106 0.80284
 N772 N 0.67387 0.81758 0.85210
 N773 N 0.68257 0.82626 0.85210
 C774 C 0.68993 0.82465 0.86211
 C775 C 0.68566 0.81447 0.86881
 C776 C 0.67547 0.81022 0.86211
 H777 H 0.69766 0.83065 0.86448
 H778 H 0.66946 0.80251 0.86448
 H779 H 0.67450 0.82563 0.82983
 H780 H 0.66451 0.83560 0.83997
 N781 N 0.18242 0.35206 0.82642
 N782 N 0.17355 0.35206 0.81799
 C783 C 0.17502 0.36204 0.81054
 C784 C 0.18534 0.36873 0.81452
 C785 C 0.18980 0.36205 0.82463
 H786 H 0.16886 0.36437 0.80295
 H787 H 0.19771 0.36434 0.83042
 Cu788 Cu 0.16063 0.33933 0.81801
 Cu789 Cu 0.18328 0.33957 0.83955
 Cu790 Cu 0.16036 0.31672 0.83956
 N791 N 0.14788 0.32643 0.81800
 N792 N 0.14785 0.31758 0.82645
 C793 C 0.13784 0.31022 0.82469
 C794 C 0.13117 0.31468 0.81457
 C795 C 0.13789 0.32497 0.81056
 H796 H 0.13553 0.30233 0.83049
 H797 H 0.13556 0.33111 0.80296
 N798 N 0.17377 0.31749 0.85207
 N799 N 0.18249 0.32616 0.85207
 C800 C 0.18984 0.32454 0.86209
 C801 C 0.18552 0.31437 0.86879
 C802 C 0.17534 0.31013 0.86207
 H803 H 0.19761 0.33048 0.86444
 H804 H 0.16931 0.30243 0.86443
 H805 H 0.17430 0.32570 0.82986
 H806 H 0.16436 0.33564 0.84009
 N807 N 0.18251 0.85205 0.32633
 N808 N 0.17399 0.85176 0.31757
 C809 C 0.17545 0.86177 0.31016
 C810 C 0.18541 0.86877 0.31451
 C811 C 0.18968 0.86224 0.32479
 H812 H 0.16951 0.86390 0.30234
 H813 H 0.19731 0.86475 0.33084
 Cu814 Cu 0.16136 0.83871 0.31695
 Cu815 Cu 0.18327 0.83961 0.33945
 Cu816 Cu 0.16041 0.81683 0.33944
 N817 N 0.14827 0.82612 0.31756
 N818 N 0.14795 0.81760 0.32632
 C819 C 0.13774 0.81047 0.32477
 C820 C 0.13122 0.81474 0.31448
 C821 C 0.13827 0.82468 0.31014
 H822 H 0.13520 0.80284 0.33083
 H823 H 0.13616 0.83062 0.30231
 N824 N 0.17379 0.81757 0.35197
 N825 N 0.18249 0.82625 0.35197
 C826 C 0.18984 0.82464 0.36200
 C827 C 0.18555 0.81447 0.36870
 C828 C 0.17536 0.81023 0.36200
 H829 H 0.19757 0.83064 0.36437
 H830 H 0.16932 0.80255 0.36439
 H831 H 0.17470 0.82537 0.32968
 H832 H 0.16438 0.83569 0.33919
 C833 C 0.25039 1.03350 0.25027
 C834 C 0.25885 1.02706 0.24286
 C835 C 0.25910 1.01401 0.24306
 C836 C 0.25051 1.00710 0.25040
 C837 C 0.24192 1.01400 0.25774
 C838 C 0.24201 1.02706 0.25776
 C839 C 0.25033 0.99296 0.25019
 C840 C 0.24254 0.98603 0.25835
 C841 C 0.24181 0.97301 0.25756
 C842 C 0.24920 0.96662 0.24905
 C843 C 0.25733 0.97306 0.24129
 C844 C 0.25777 0.98610 0.24167
 H845 H 0.25033 1.04361 0.25020
 H846 H 0.26611 1.00959 0.23741
 H847 H 0.23495 1.00958 0.26343
 H848 H 0.23684 0.99041 0.26533
 H849 H 0.24874 0.95652 0.24857
 H850 H 0.26388 0.99054 0.23509
 C851 C 0.24996 0.53344 0.74987
 C852 C 0.25757 0.52698 0.74160
 C853 C 0.25737 0.51394 0.74135
 C854 C 0.24996 0.50705 0.74988
 C855 C 0.24257 0.51395 0.75841
 C856 C 0.24236 0.52700 0.75815
 C857 C 0.24995 0.49293 0.74987
 C858 C 0.24125 0.48604 0.75709
 C859 C 0.24141 0.47299 0.75720
 C860 C 0.24994 0.46654 0.74986
 C861 C 0.25848 0.47298 0.74254
 C862 C 0.25864 0.48603 0.74264
 H863 H 0.24996 0.54355 0.74986
 H864 H 0.26306 0.50949 0.73440
 H865 H 0.23690 0.50951 0.76539
 H866 H 0.23418 0.49050 0.76265
 H867 H 0.24992 0.45643 0.74985
 H868 H 0.26569 0.49048 0.73706
 C869 C 0.75047 -0.03361 0.24958
 C870 C 0.75835 -0.02718 0.25761
 C871 C 0.75831 -0.01412 0.25773
 C872 C 0.75055 -0.00719 0.24953
 C873 C 0.74278 -0.01409 0.24133
 C874 C 0.74265 -0.02714 0.24151
 C875 C 0.75039 0.00696 0.24968
 C876 C 0.74195 0.01387 0.24217
 C877 C 0.74154 0.02691 0.24266
 C878 C 0.74945 0.03334 0.25065
 C879 C 0.75797 0.02691 0.25801
 C880 C 0.75856 0.01388 0.25747
 H881 H 0.75041 -0.04372 0.24962
 H882 H 0.76438 -0.00973 0.26437
 H883 H 0.73668 -0.00968 0.23472
 H884 H 0.73545 0.00948 0.23594
 H885 H 0.74906 0.04344 0.25105
 H886 H 0.76544 0.00949 0.26329
 C887 C 0.74959 0.46651 0.75034
 C888 C 0.75818 0.47293 0.75761
 C889 C 0.75873 0.48596 0.75708
 C890 C 0.75040 0.49289 0.74947
 C891 C 0.74184 0.48599 0.74208
 C892 C 0.74154 0.47295 0.74248
 C893 C 0.75046 0.50704 0.74942
 C894 C 0.74272 0.51397 0.74122
 C895 C 0.74236 0.52701 0.74165
 C896 C 0.74995 0.53344 0.74994
 C897 C 0.75789 0.52699 0.75789
 C898 C 0.75808 0.51393 0.75778
 H899 H 0.74925 0.45641 0.75072
 H900 H 0.76572 0.49035 0.76277
 H901 H 0.73516 0.49042 0.73605
 H902 H 0.73679 0.50958 0.73445
 H903 H 0.74971 0.54355 0.75018
 H904 H 0.76416 0.50951 0.76440
 C905 C 0.24918 0.46665 0.25077
 C906 C 0.25720 0.47311 0.25862
 C907 C 0.25746 0.48616 0.25841
 C908 C 0.24972 0.49305 0.25016
 C909 C 0.24182 0.48612 0.24212
 C910 C 0.24150 0.47307 0.24254
 C911 C 0.24997 0.50720 0.24988
 C912 C 0.24180 0.51411 0.24207
 C913 C 0.24238 0.52713 0.24149
 C914 C 0.25090 0.53358 0.24882
 C915 C 0.25881 0.52717 0.25683
 C916 C 0.25841 0.51413 0.25737
 H917 H 0.24900 0.45654 0.25098
 H918 H 0.26378 0.49056 0.26480
 H919 H 0.23579 0.49049 0.23542
 H920 H 0.23491 0.50971 0.23628
 H921 H 0.25126 0.54368 0.24840
 H922 H 0.26489 0.50974 0.26363
 C923 C 0.75029 1.03368 0.75037
 C924 C 0.75804 1.02724 0.74224
 C925 C 0.75756 1.01421 0.74169
 C926 C 0.74931 1.00731 0.74941
 C927 C 0.74133 1.01424 0.75740
 C928 C 0.74189 1.02727 0.75787
 C929 C 0.74927 0.99315 0.74939
 C930 C 0.74140 0.98624 0.75749
 C931 C 0.74179 0.97320 0.75781
 C932 C 0.75002 0.96676 0.75016
 C933 C 0.75776 0.97319 0.74199
 C934 C 0.75735 0.98622 0.74150
 H935 H 0.75070 1.04378 0.75078
 H936 H 0.76386 1.00982 0.73525
 H937 H 0.73466 1.00987 0.76346
 H938 H 0.73494 0.99064 0.76376
 H939 H 0.75035 0.95666 0.75050
 H940 H 0.76354 0.99060 0.73496
 C941 C 0.75010 0.53357 0.25006
 C942 C 0.75800 0.52712 0.24206
 C943 C 0.75790 0.51407 0.24188
 C944 C 0.74986 0.50715 0.24981
 C945 C 0.74188 0.51407 0.25780
 C946 C 0.74203 0.52712 0.25787
 C947 C 0.74984 0.49299 0.24979
 C948 C 0.74179 0.48607 0.25771
 C949 C 0.74188 0.47302 0.25773
 C950 C 0.75000 0.46657 0.24995
 C951 C 0.75799 0.47301 0.24205
 C952 C 0.75792 0.48607 0.24191
 H953 H 0.75022 0.54368 0.25018
 H954 H 0.76423 0.50968 0.23548
 H955 H 0.73546 0.50968 0.26412
 H956 H 0.73534 0.49046 0.26399
 H957 H 0.75008 0.45646 0.25004
 H958 H 0.76432 0.49045 0.23557
 C959 C 0.25033 -0.03366 0.74990
 C960 C 0.25840 -0.02723 0.75772
 C961 C 0.25858 -0.01417 0.75763
 C962 C 0.25064 -0.00725 0.74960
 C963 C 0.24264 -0.01416 0.74163
 C964 C 0.24248 -0.02721 0.74187
 C965 C 0.25054 0.00691 0.74968
 C966 C 0.24236 0.01383 0.74189
 C967 C 0.24195 0.02686 0.74235
 C968 C 0.24972 0.03331 0.75046
 C969 C 0.25803 0.02688 0.75806
 C970 C 0.25848 0.01384 0.75770
 H971 H 0.25019 -0.04377 0.75005
 H972 H 0.26495 -0.00979 0.76399
 H973 H 0.23635 -0.00977 0.73518
 H974 H 0.23610 0.00944 0.73542
 H975 H 0.24938 0.04341 0.75078
 H976 H 0.26507 0.00946 0.76385
 C977 C 0.25089 0.25100 1.03323
 C978 C 0.24256 0.25859 1.02680
 C979 C 0.24198 0.25805 1.01382
 C980 C 0.24987 0.24993 1.00694
 C981 C 0.25807 0.24215 1.01385
 C982 C 0.25856 0.24273 1.02684
 C983 C 0.24960 0.24965 0.99283
 C984 C 0.25747 0.24152 0.98596
 C985 C 0.25717 0.24128 0.97295
 C986 C 0.24906 0.24908 0.96651
 C987 C 0.24131 0.25725 0.97291
 C988 C 0.24156 0.25760 0.98592
 H989 H 0.25129 0.25143 1.04330
 H990 H 0.23532 0.26414 1.00944
 H991 H 0.26428 0.23559 1.00950
 H992 H 0.26395 0.23524 0.99034
 H993 H 0.24888 0.24887 0.95643
 H994 H 0.23537 0.26417 0.99027
 C995 C 0.25069 0.75077 0.53320
 C996 C 0.24253 0.75851 0.52677
 C997 C 0.24214 0.75820 0.51377
 C998 C 0.25004 0.75010 0.50688
 C999 C 0.25812 0.74219 0.51378
 C1000 C 0.25843 0.74258 0.52679
 C1001 C 0.24987 0.74995 0.49277
 C1002 C 0.25782 0.74191 0.48587
 C1003 C 0.25760 0.74178 0.47286
 C1004 C 0.24953 0.74962 0.46644
 C1005 C 0.24167 0.75768 0.47287
 C1006 C 0.24180 0.75788 0.48587
 H1007 H 0.25095 0.75103 0.54328
 H1008 H 0.23562 0.76444 0.50940
 H1009 H 0.26434 0.73566 0.50941
 H1010 H 0.26430 0.73563 0.49024
 H1011 H 0.24940 0.74951 0.45635
 H1012 H 0.23551 0.76434 0.49024
 C1013 C 0.24968 0.75062 -0.03360
 C1014 C 0.25790 0.75832 -0.02720
 C1015 C 0.25846 0.75784 -0.01421
 C1016 C 0.25071 0.74960 -0.00731
 C1017 C 0.24266 0.74166 -0.01420
 C1018 C 0.24213 0.74226 -0.02719
 C1019 C 0.25080 0.74951 0.00680
 C1020 C 0.24269 0.74164 0.01371
 C1021 C 0.24250 0.74193 0.02672
 C1022 C 0.25033 0.75002 0.03313
 C1023 C 0.25848 0.75777 0.02669
 C1024 C 0.25880 0.75750 0.01368
 H1025 H 0.24924 0.75105 -0.04367
 H1026 H 0.26494 0.76412 -0.00985
 H1027 H 0.23659 0.73500 -0.00983
 H1028 H 0.23631 0.73527 0.00935
 H1029 H 0.25011 0.75026 0.04321
 H1030 H 0.26533 0.76372 0.00930
 C1031 C 0.25011 0.24979 0.46656
 C1032 C 0.25805 0.25775 0.47298
 C1033 C 0.25814 0.25775 0.48599
 C1034 C 0.25024 0.24967 0.49290
 C1035 C 0.24231 0.24161 0.48601
 C1036 C 0.24225 0.24174 0.47300
 C1037 C 0.25013 0.24975 0.50701
 C1038 C 0.24198 0.24191 0.51391
 C1039 C 0.24168 0.24228 0.52691
 C1040 C 0.24945 0.25041 0.53333
 C1041 C 0.25767 0.25810 0.52691
 C1042 C 0.25809 0.25777 0.51391
 H1043 H 0.25003 0.24985 0.45648
 H1044 H 0.26445 0.26420 0.49036
 H1045 H 0.23602 0.23515 0.49039
 H1046 H 0.23567 0.23547 0.50954
 H1047 H 0.24917 0.25068 0.54341
 H1048 H 0.26468 0.26394 0.50954
 C1049 C 0.75084 0.75076 1.03334
 C1050 C 0.74243 0.75825 1.02693
 C1051 C 0.74177 0.75766 1.01395
 C1052 C 0.74977 0.74967 1.00705
 C1053 C 0.75809 0.74199 1.01394
 C1054 C 0.75857 0.74256 1.02693
 C1055 C 0.74961 0.74952 0.99294
 C1056 C 0.75750 0.74143 0.98603
 C1057 C 0.75762 0.74164 0.97302
 C1058 C 0.74980 0.74974 0.96660
 C1059 C 0.74184 0.75770 0.97303
 C1060 C 0.74174 0.75766 0.98604
 H1061 H 0.75128 0.75121 1.04340
 H1062 H 0.73501 0.76364 1.00959
 H1063 H 0.76444 0.73558 1.00957
 H1064 H 0.76373 0.73490 0.99041
 H1065 H 0.74991 0.74986 0.95652
 H1066 H 0.73549 0.76415 0.99043
 C1067 C 0.75067 0.25076 0.53323
 C1068 C 0.74234 0.25834 0.52680
 C1069 C 0.74180 0.25785 0.51381
 C1070 C 0.74979 0.24982 0.50693
 C1071 C 0.75803 0.24209 0.51383
 C1072 C 0.75842 0.24258 0.52683
 C1073 C 0.74959 0.24960 0.49283
 C1074 C 0.75742 0.24144 0.48594
 C1075 C 0.75726 0.24134 0.47294
 C1076 C 0.74926 0.24925 0.46650
 C1077 C 0.74148 0.25740 0.47292
 C1078 C 0.74165 0.25765 0.48592
 H1079 H 0.75102 0.25114 0.54330
 H1080 H 0.73511 0.26390 0.50944
 H1081 H 0.76435 0.23564 0.50948
 H1082 H 0.76377 0.23503 0.49033
 H1083 H 0.74914 0.24914 0.45642
 H1084 H 0.73549 0.26425 0.49029
 C1085 C 0.74933 0.25075 -0.03362
 C1086 C 0.75735 0.25863 -0.02718
 C1087 C 0.75756 0.25848 -0.01418
 C1088 C 0.74971 0.25035 -0.00729
 C1089 C 0.74174 0.24234 -0.01419
 C1090 C 0.74155 0.24261 -0.02720
 C1091 C 0.74990 0.25014 0.00682
 C1092 C 0.74198 0.24207 0.01372
 C1093 C 0.74245 0.24168 0.02672
 C1094 C 0.75069 0.24935 0.03313
 C1095 C 0.75841 0.25754 0.02670
 C1096 C 0.75805 0.25798 0.01371
 H1097 H 0.74920 0.25090 -0.04370
 H1098 H 0.76397 0.26483 -0.00981
 H1099 H 0.73554 0.23578 -0.00982
 H1100 H 0.73538 0.23593 0.00935
 H1101 H 0.75100 0.24904 0.04320
 H1102 H 0.76430 0.26448 0.00934
 C1103 C 0.74940 0.75076 0.46660
 C1104 C 0.75738 0.75867 0.47304
 C1105 C 0.75757 0.75854 0.48605
 C1106 C 0.74977 0.75034 0.49293
 C1107 C 0.74186 0.74228 0.48603
 C1108 C 0.74166 0.74258 0.47301
 C1109 C 0.74995 0.75016 0.50704
 C1110 C 0.74196 0.74217 0.51394
 C1111 C 0.74239 0.74182 0.52695
 C1112 C 0.75063 0.74948 0.53336
 C1113 C 0.75843 0.75759 0.52693
 C1114 C 0.75815 0.75794 0.51393
 H1115 H 0.74927 0.75091 0.45652
 H1116 H 0.76390 0.76495 0.49043
 H1117 H 0.73573 0.73566 0.49040
 H1118 H 0.73531 0.73608 0.50958
 H1119 H 0.75089 0.74922 0.54344
 H1120 H 0.76450 0.76434 0.50956
 C1121 C 1.03346 0.25042 0.25018
 C1122 C 1.02700 0.24181 0.25741
 C1123 C 1.01394 0.24155 0.25717
 C1124 C 1.00705 0.25034 0.25007
 C1125 C 1.01394 0.25917 0.24303
 C1126 C 1.02700 0.25898 0.24289
 C1127 C 0.99292 0.25026 0.24997
 C1128 C 0.98605 0.25751 0.24129
 C1129 C 0.97299 0.25750 0.24133
 C1130 C 0.96653 0.24982 0.24952
 C1131 C 0.97297 0.24243 0.25800
 C1132 C 0.98602 0.24288 0.25850
 H1133 H 1.04358 0.25044 0.25021
 H1134 H 1.00947 0.23432 0.26250
 H1135 H 1.00947 0.26635 0.23762
 H1136 H 0.99054 0.26318 0.23435
 H1137 H 0.95641 0.24964 0.24934
 H1138 H 0.99047 0.23739 0.26562
 C1139 C 0.53349 0.25033 0.75028
 C1140 C 0.52707 0.24194 0.75776
 C1141 C 0.51403 0.24132 0.75722
 C1142 C 0.50711 0.24919 0.74912
 C1143 C 0.51403 0.25738 0.74135
 C1144 C 0.52707 0.25799 0.74203
 C1145 C 0.49294 0.24918 0.74912
 C1146 C 0.48602 0.25745 0.74143
 C1147 C 0.47299 0.25805 0.74210
 C1148 C 0.46655 0.25031 0.75025
 C1149 C 0.47296 0.24183 0.75766
 C1150 C 0.48601 0.24122 0.75712
 H1151 H 0.54359 0.25082 0.75078
 H1152 H 0.50964 0.23473 0.76335
 H1153 H 0.50965 0.26356 0.73479
 H1154 H 0.49041 0.26371 0.73495
 H1155 H 0.45645 0.25079 0.75073
 H1156 H 0.49039 0.23456 0.76319
 C1157 C -0.03355 0.24890 0.75108
 C1158 C -0.02712 0.25733 0.75850
 C1159 C -0.01408 0.25787 0.75801
 C1160 C -0.00715 0.24982 0.75009
 C1161 C -0.01407 0.24150 0.74248
 C1162 C -0.02712 0.24107 0.74302
 C1163 C 0.00701 0.25013 0.74976
 C1164 C 0.01392 0.24233 0.74160
 C1165 C 0.02697 0.24279 0.74120
 C1166 C 0.03341 0.25109 0.74877
 C1167 C 0.02697 0.25875 0.75700
 C1168 C 0.01393 0.25822 0.75762
 H1169 H -0.04366 0.24855 0.75145
 H1170 H -0.00969 0.26465 0.76394
 H1171 H -0.00969 0.23516 0.73608
 H1172 H 0.00953 0.23582 0.73539
 H1173 H 0.04351 0.25147 0.74838
 H1174 H 0.00956 0.26429 0.76428
 C1175 C 0.46660 0.24974 0.25013
 C1176 C 0.47306 0.25804 0.25770
 C1177 C 0.48610 0.25853 0.25724
 C1178 C 0.49300 0.25068 0.24911
 C1179 C 0.48606 0.24258 0.24127
 C1180 C 0.47301 0.24207 0.24189
 C1181 C 0.50718 0.25063 0.24913
 C1182 C 0.51409 0.24231 0.24149
 C1183 C 0.52712 0.24172 0.24215
 C1184 C 0.53356 0.24946 0.25029
 C1185 C 0.52715 0.25797 0.25765
 C1186 C 0.51411 0.25862 0.25708
 H1187 H 0.45650 0.24933 0.25059
 H1188 H 0.49051 0.26502 0.26346
 H1189 H 0.49044 0.23642 0.23470
 H1190 H 0.50969 0.23601 0.23507
 H1191 H 0.54366 0.24896 0.25079
 H1192 H 0.50974 0.26535 0.26307
 C1193 C 1.03349 0.75032 0.75010
 C1194 C 1.02705 0.74203 0.75769
 C1195 C 1.01399 0.74166 0.75739
 C1196 C 1.00706 0.74972 0.74948
 C1197 C 1.01398 0.75794 0.74174
 C1198 C 1.02704 0.75822 0.74210
 C1199 C 0.99289 0.74973 0.74948
 C1200 C 0.98596 0.75775 0.74153
 C1201 C 0.97291 0.75812 0.74198
 C1202 C 0.96647 0.75040 0.75015
 C1203 C 0.97292 0.74224 0.75787
 C1204 C 0.98598 0.74190 0.75761
 H1205 H 1.04361 0.75058 0.75037
 H1206 H 1.00961 0.73505 0.76350
 H1207 H 1.00959 0.76433 0.73540
 H1208 H 0.99035 0.76390 0.73496
 H1209 H 0.95636 0.75069 0.75044
 H1210 H 0.99037 0.73550 0.76395
 C1211 C 0.53350 0.75071 0.25064
 C1212 C 0.52705 0.74274 0.25856
 C1213 C 0.51399 0.74266 0.25855
 C1214 C 0.50707 0.75043 0.25036
 C1215 C 0.51399 0.75830 0.24227
 C1216 C 0.52705 0.75851 0.24255
 C1217 C 0.49291 0.75021 0.25014
 C1218 C 0.48598 0.75837 0.24234
 C1219 C 0.47295 0.75779 0.24179
 C1220 C 0.46651 0.74926 0.24912
 C1221 C 0.47294 0.74135 0.25712
 C1222 C 0.48599 0.74176 0.25764
 H1223 H 0.54363 0.75080 0.25073
 H1224 H 0.50959 0.73641 0.26502
 H1225 H 0.50960 0.76437 0.23562
 H1226 H 0.49037 0.76526 0.23653
 H1227 H 0.45640 0.74888 0.24870
 H1228 H 0.49039 0.73528 0.26389
 C1229 C -0.03361 0.75033 0.24950
 C1230 C -0.02721 0.75779 0.25794
 C1231 C -0.01418 0.75715 0.25866
 C1232 C -0.00722 0.74930 0.25058
 C1233 C -0.01409 0.74173 0.24218
 C1234 C -0.02714 0.74220 0.24175
 C1235 C 0.00695 0.74932 0.25059
 C1236 C 0.01389 0.74111 0.24285
 C1237 C 0.02691 0.74179 0.24220
 C1238 C 0.03334 0.75037 0.24947
 C1239 C 0.02691 0.75826 0.25749
 C1240 C 0.01386 0.75783 0.25802
 H1241 H -0.04371 0.75076 0.24904
 H1242 H -0.00980 0.76301 0.26550
 H1243 H -0.00966 0.73551 0.23570
 H1244 H 0.00951 0.73417 0.23711
 H1245 H 0.04344 0.75082 0.24897
 H1246 H 0.00943 0.76442 0.26414
 C1247 C 0.46642 0.75067 0.74943
 C1248 C 0.47285 0.75844 0.75756
 C1249 C 0.48591 0.75815 0.75795
 C1250 C 0.49285 0.75017 0.74998
 C1251 C 0.48595 0.74234 0.74184
 C1252 C 0.47289 0.74257 0.74167
 C1253 C 0.50702 0.75001 0.75015
 C1254 C 0.51395 0.74177 0.74243
 C1255 C 0.52701 0.74165 0.74262
 C1256 C 0.53346 0.74961 0.75053
 C1257 C 0.52700 0.75784 0.75818
 C1258 C 0.51394 0.75812 0.75798
 H1259 H 0.45631 0.75086 0.74922
 H1260 H 0.49029 0.76427 0.76455
 H1261 H 0.49035 0.73597 0.73549
 H1262 H 0.50956 0.73529 0.73619
 H1263 H 0.54358 0.74946 0.75068
 H1264 H 0.50955 0.76478 0.76404
 C1265 C 0.40369 0.30042 0.30038
 C1266 C 0.39825 0.31115 0.29520
 C1267 C 0.38694 0.31578 0.29979
 C1268 C 0.38077 0.30977 0.30966
 C1269 C 0.38626 0.29904 0.31483
 C1270 C 0.39755 0.29443 0.31025
 C1271 C 0.41554 0.29532 0.29537
 N1272 N 0.42064 0.28481 0.30026
 N1273 N 0.43101 0.27994 0.29548
 C1274 C 0.43677 0.28538 0.28562
 N1275 N 0.43175 0.29597 0.28082
 N1276 N 0.42137 0.30084 0.28560
 C1277 C 0.44765 0.27931 0.27962
 C1278 C 0.45328 0.28463 0.26905
 C1279 C 0.46230 0.27803 0.26235
 C1280 C 0.46584 0.26605 0.26614
 C1281 C 0.46080 0.26099 0.27703
 C1282 C 0.45184 0.26759 0.28377
 H1283 H 0.40269 0.31598 0.28755
 H1284 H 0.38310 0.32409 0.29557
 H1285 H 0.38185 0.29409 0.32239
 H1286 H 0.40141 0.28610 0.31444
 H1287 H 0.45034 0.29366 0.26563
 H1288 H 0.46602 0.28197 0.25386
 H1289 H 0.46338 0.25168 0.27997
 H1290 H 0.44779 0.26323 0.29189
 C1291 C 0.40285 0.80030 0.79966
 C1292 C 0.39674 0.81033 0.79387
 C1293 C 0.38555 0.81500 0.79865
 C1294 C 0.38012 0.80978 0.80939
 C1295 C 0.38625 0.79965 0.81509
 C1296 C 0.39744 0.79499 0.81030
 C1297 C 0.41471 0.79534 0.79454
 N1298 N 0.42060 0.78557 0.80004
 N1299 N 0.43107 0.78092 0.79523
 C1300 C 0.43612 0.78586 0.78475
 N1301 N 0.43028 0.79570 0.77933
 N1302 N 0.41982 0.80035 0.78413
 C1303 C 0.44714 0.78002 0.77879
 C1304 C 0.45151 0.78442 0.76725
 C1305 C 0.46059 0.77780 0.76069
 C1306 C 0.46557 0.76679 0.76561
 C1307 C 0.46188 0.76278 0.77743
 C1308 C 0.45275 0.76937 0.78400
 H1309 H 0.40060 0.81462 0.78561
 H1310 H 0.38130 0.82276 0.79385
 H1311 H 0.38253 0.79522 0.82331
 H1312 H 0.40185 0.78721 0.81497
 H1313 H 0.44750 0.79265 0.76300
 H1314 H 0.46329 0.78093 0.75150
 H1315 H 0.46556 0.75420 0.78126
 H1316 H 0.44971 0.76578 0.79290
 C1317 C -0.09655 0.30043 0.80030
 C1318 C -0.10277 0.29442 0.81011
 C1319 C -0.11406 0.29906 0.81465
 C1320 C -0.11945 0.30986 0.80952
 C1321 C -0.11321 0.31588 0.79970
 C1322 C -0.10191 0.31121 0.79514
 C1323 C -0.08468 0.29530 0.79538
 N1324 N -0.07883 0.30071 0.78555
 N1325 N -0.06843 0.29577 0.78086
 C1326 C -0.06341 0.28526 0.78582
 N1327 N -0.06919 0.27995 0.79573
 N1328 N -0.07957 0.28487 0.80042
 C1329 C -0.05252 0.27909 0.77995
 C1330 C -0.04827 0.26750 0.78439
 C1331 C -0.03932 0.26075 0.77778
 C1332 C -0.03435 0.26554 0.76674
 C1333 C -0.03794 0.27741 0.76266
 C1334 C -0.04695 0.28416 0.76923
 H1335 H -0.09896 0.28606 0.81428
 H1336 H -0.11851 0.29410 0.82218
 H1337 H -0.11698 0.32422 0.79550
 H1338 H -0.09739 0.31607 0.78755
 H1339 H -0.05225 0.26335 0.79265
 H1340 H -0.03671 0.25153 0.78095
 H1341 H -0.03426 0.28115 0.75406
 H1342 H -0.04993 0.29309 0.76559
 C1343 C -0.09648 0.80082 0.30012
 C1344 C -0.10177 0.79563 0.31089
 C1345 C -0.11312 0.80009 0.31553
 C1346 C -0.11947 0.80986 0.30951
 C1347 C -0.11414 0.81505 0.29875
 C1348 C -0.10280 0.81059 0.29412
 C1349 C -0.08458 0.79592 0.29502
 N1350 N -0.07973 0.80063 0.28435
 N1351 N -0.06934 0.79589 0.27946
 C1352 C -0.06332 0.78626 0.28506
 N1353 N -0.06809 0.78165 0.29582
 N1354 N -0.07848 0.78639 0.30070
 C1355 C -0.05247 0.78021 0.27897
 C1356 C -0.04649 0.76994 0.28455
 C1357 C -0.03756 0.76307 0.27799
 C1358 C -0.03446 0.76638 0.26579
 C1359 C -0.03984 0.77701 0.26045
 C1360 C -0.04869 0.78394 0.26701
 H1361 H -0.09719 0.78806 0.31575
 H1362 H -0.11683 0.79584 0.32385
 H1363 H -0.11870 0.82254 0.29380
 H1364 H -0.09904 0.81479 0.28577
 H1365 H -0.04909 0.76687 0.29378
 H1366 H -0.03356 0.75480 0.28218
 H1367 H -0.03758 0.77963 0.25098
 H1368 H -0.05299 0.79185 0.26246
 C1369 C 0.59644 0.69972 0.30051
 C1370 C 0.60212 0.68927 0.29504
 C1371 C 0.61344 0.68466 0.29962
 C1372 C 0.61937 0.69041 0.30977
 C1373 C 0.61363 0.70085 0.31524
 C1374 C 0.60233 0.70543 0.31068
 C1375 C 0.58458 0.70480 0.29551
 N1376 N 0.57912 0.71492 0.30081
 N1377 N 0.56874 0.71980 0.29605
 C1378 C 0.56333 0.71474 0.28582
 N1379 N 0.56871 0.70454 0.28060
 N1380 N 0.57910 0.69966 0.28535
 C1381 C 0.55243 0.72085 0.27988
 C1382 C 0.54749 0.71618 0.26870
 C1383 C 0.53851 0.72296 0.26213
 C1384 C 0.53427 0.73443 0.26669
 C1385 C 0.53858 0.73877 0.27817
 C1386 C 0.54754 0.73200 0.28477
 H1387 H 0.59787 0.68464 0.28717
 H1388 H 0.61748 0.67659 0.29515
 H1389 H 0.61784 0.70559 0.32304
 H1390 H 0.59825 0.71353 0.31510
 H1391 H 0.55095 0.70759 0.26471
 H1392 H 0.53532 0.71956 0.25320
 H1393 H 0.53546 0.74768 0.28172
 H1394 H 0.55104 0.73581 0.29340
 C1395 C 0.59649 0.19949 0.80024
 C1396 C 0.60266 0.20550 0.81007
 C1397 C 0.61395 0.20088 0.81464
 C1398 C 0.61939 0.19011 0.80952
 C1399 C 0.61320 0.18409 0.79968
 C1400 C 0.60190 0.18873 0.79509
 C1401 C 0.58462 0.20458 0.79528
 N1402 N 0.57870 0.19902 0.78559
 N1403 N 0.56831 0.20390 0.78085
 C1404 C 0.56336 0.21454 0.78563
 N1405 N 0.56920 0.22000 0.79540
 N1406 N 0.57958 0.21512 0.80014
 C1407 C 0.55247 0.22063 0.77966
 C1408 C 0.54842 0.23242 0.78373
 C1409 C 0.53948 0.23905 0.77699
 C1410 C 0.53430 0.23394 0.76620
 C1411 C 0.53769 0.22189 0.76251
 C1412 C 0.54671 0.21526 0.76920
 H1413 H 0.59881 0.21384 0.81424
 H1414 H 0.61836 0.20585 0.82218
 H1415 H 0.61701 0.17577 0.79548
 H1416 H 0.59742 0.18387 0.78748
 H1417 H 0.55258 0.23681 0.79179
 H1418 H 0.53702 0.24841 0.77987
 H1419 H 0.53386 0.21790 0.75409
 H1420 H 0.54954 0.20618 0.76585
 C1421 C 1.09652 0.69972 0.80019
 C1422 C 1.10214 0.68915 0.79487
 C1423 C 1.11346 0.68458 0.79946
 C1424 C 1.11948 0.69048 0.80948
 C1425 C 1.11383 0.70105 0.81479
 C1426 C 1.10252 0.70561 0.81021
 C1427 C 1.08463 0.70472 0.79519
 N1428 N 1.07934 0.71507 0.80020
 N1429 N 1.06893 0.71986 0.79542
 C1430 C 1.06334 0.71451 0.78544
 N1431 N 1.06855 0.70408 0.78051
 N1432 N 1.07896 0.69927 0.78530
 C1433 C 1.05244 0.72053 0.77943
 C1434 C 1.04715 0.71547 0.76857
 C1435 C 1.03816 0.72213 0.76189
 C1436 C 1.03428 0.73389 0.76599
 C1437 C 1.03896 0.73867 0.77716
 C1438 C 1.04790 0.73201 0.78388
 H1439 H 1.09782 0.68440 0.78712
 H1440 H 1.11741 0.67641 0.79512
 H1441 H 1.11809 0.70589 0.82251
 H1442 H 1.09850 0.71381 0.81451
 H1443 H 1.05036 0.70663 0.76492
 H1444 H 1.03471 0.71840 0.75319
 H1445 H 1.03613 0.74782 0.78035
 H1446 H 1.05167 0.73615 0.79225
 C1447 C 1.09650 0.19935 0.29971
 C1448 C 1.10178 0.20463 0.31043
 C1449 C 1.11311 0.20020 0.31512
 C1450 C 1.11946 0.19037 0.30923
 C1451 C 1.11413 0.18507 0.29850
 C1452 C 1.10281 0.18951 0.29381
 C1453 C 1.08463 0.20422 0.29455
 N1454 N 1.07974 0.19939 0.28395
 N1455 N 1.06935 0.20408 0.27903
 C1456 C 1.06335 0.21378 0.28454
 N1457 N 1.06816 0.21852 0.29522
 N1458 N 1.07856 0.21383 0.30013
 C1459 C 1.05244 0.21972 0.27847
 C1460 C 1.04669 0.23020 0.28386
 C1461 C 1.03769 0.23695 0.27728
 C1462 C 1.03423 0.23325 0.26529
 C1463 C 1.03935 0.22241 0.26016
 C1464 C 1.04835 0.21565 0.26672
 H1465 H 1.09720 0.21224 0.31521
 H1466 H 1.11681 0.20453 0.32340
 H1467 H 1.11868 0.17752 0.29364
 H1468 H 1.09903 0.18522 0.28552
 H1469 H 1.04953 0.23354 0.29292
 H1470 H 1.03390 0.24540 0.28129
 H1471 H 1.03682 0.21953 0.25085
 H1472 H 1.05249 0.20757 0.26233
 C1473 C 0.59635 0.30083 0.69979
 C1474 C 0.60137 0.29589 0.68878
 C1475 C 0.61269 0.30033 0.68405
 C1476 C 0.61928 0.30983 0.69022
 C1477 C 0.61422 0.31478 0.70122
 C1478 C 0.60292 0.31033 0.70594
 C1479 C 0.58449 0.29597 0.70498
 N1480 N 0.57991 0.30046 0.71586
 N1481 N 0.56954 0.29576 0.72081
 C1482 C 0.56326 0.28641 0.71506
 N1483 N 0.56775 0.28202 0.70410
 N1484 N 0.57813 0.28671 0.69915
 C1485 C 0.55240 0.28042 0.72117
 C1486 C 0.54607 0.27048 0.71541
 C1487 C 0.53708 0.26366 0.72194
 C1488 C 0.53430 0.26668 0.73429
 C1489 C 0.54004 0.27699 0.73984
 C1490 C 0.54894 0.28388 0.73331
 H1491 H 0.59659 0.28853 0.68380
 H1492 H 0.61619 0.29628 0.67554
 H1493 H 0.61896 0.32206 0.70630
 H1494 H 0.59937 0.31434 0.71447
 H1495 H 0.54843 0.26763 0.70605
 H1496 H 0.53280 0.25563 0.71759
 H1497 H 0.53803 0.27936 0.74942
 H1498 H 0.55351 0.29154 0.73800
 C1499 C 0.59632 0.80078 0.19967
 C1500 C 0.60185 0.79528 0.18918
 C1501 C 0.61315 0.79978 0.18449
 C1502 C 0.61923 0.80990 0.19018
 C1503 C 0.61365 0.81543 0.20065
 C1504 C 0.60236 0.81092 0.20534
 C1505 C 0.58449 0.79582 0.20483
 N1506 N 0.57931 0.80092 0.21517
 N1507 N 0.56895 0.79618 0.22009
 C1508 C 0.56328 0.78615 0.21486
 N1509 N 0.56838 0.78112 0.20445
 N1510 N 0.57875 0.78587 0.19953
 C1511 C 0.55240 0.78019 0.22097
 C1512 C 0.54703 0.76933 0.21596
 C1513 C 0.53807 0.76266 0.22265
 C1514 C 0.53428 0.76680 0.23440
 C1515 C 0.53902 0.77800 0.23912
 C1516 C 0.54796 0.78469 0.23244
 H1517 H 0.59749 0.78743 0.18459
 H1518 H 0.61706 0.79525 0.17641
 H1519 H 0.61796 0.82324 0.20531
 H1520 H 0.59840 0.81537 0.21346
 H1521 H 0.55015 0.76566 0.20711
 H1522 H 0.53456 0.75395 0.21897
 H1523 H 0.53622 0.78124 0.24824
 H1524 H 0.55179 0.79307 0.23653
 C1525 C 1.09647 0.30101 0.20018
 C1526 C 1.10287 0.31077 0.20610
 C1527 C 1.11418 0.31517 0.20136
 C1528 C 1.11941 0.30994 0.19056
 C1529 C 1.11298 0.30017 0.18464
 C1530 C 1.10166 0.29577 0.18939
 C1531 C 1.08460 0.29620 0.20540
 N1532 N 1.07845 0.28663 0.19986
 N1533 N 1.06805 0.28201 0.20483
 C1534 C 1.06332 0.28679 0.21553
 N1535 N 1.06940 0.29645 0.22099
 N1536 N 1.07979 0.30106 0.21602
 C1537 C 1.05241 0.28093 0.22167
 C1538 C 1.04846 0.28499 0.23348
 C1539 C 1.03948 0.27828 0.24010
 C1540 C 1.03422 0.26751 0.23498
 C1541 C 1.03753 0.26385 0.22293
 C1542 C 1.04652 0.27053 0.21629
 H1543 H 1.09917 0.31502 0.21445
 H1544 H 1.11880 0.32266 0.20626
 H1545 H 1.11662 0.29590 0.17630
 H1546 H 1.09701 0.28823 0.18458
 H1547 H 1.05271 0.29301 0.23786
 H1548 H 1.03706 0.28114 0.24945
 H1549 H 1.03363 0.25544 0.21892
 H1550 H 1.04923 0.26721 0.20719
 C1551 C 1.09641 0.80068 0.69971
 C1552 C 1.10183 0.79532 0.68909
 C1553 C 1.11313 0.79982 0.68440
 C1554 C 1.11931 0.80981 0.69021
 C1555 C 1.11386 0.81517 0.70083
 C1556 C 1.10257 0.81066 0.70552
 C1557 C 1.08455 0.79577 0.70483
 N1558 N 1.07952 0.80071 0.71532
 N1559 N 1.06913 0.79601 0.72021
 C1560 C 1.06327 0.78619 0.71480
 N1561 N 1.06821 0.78134 0.70423
 N1562 N 1.07861 0.78604 0.69934
 C1563 C 1.05238 0.78024 0.72088
 C1564 C 1.04668 0.76969 0.71555
 C1565 C 1.03771 0.76296 0.72217
 C1566 C 1.03426 0.76670 0.73415
 C1567 C 1.03933 0.77759 0.73921
 C1568 C 1.04826 0.78437 0.73260
 H1569 H 1.09737 0.78759 0.68438
 H1570 H 1.11693 0.79544 0.67619
 H1571 H 1.11827 0.82286 0.70561
 H1572 H 1.09870 0.81500 0.71374
 H1573 H 1.04954 0.76631 0.70651
 H1574 H 1.03395 0.75446 0.71823
 H1575 H 1.03681 0.78051 0.74851
 H1576 H 1.05236 0.79249 0.73694
 C1577 C 0.40339 0.69986 0.69968
 C1578 C 0.39784 0.68927 0.70502
 C1579 C 0.38657 0.68461 0.70040
 C1580 C 0.38055 0.69044 0.69032
 C1581 C 0.38614 0.70104 0.68501
 C1582 C 0.39740 0.70568 0.68962
 C1583 C 0.41524 0.70496 0.70467
 N1584 N 0.42050 0.71527 0.69955
 N1585 N 0.43089 0.72013 0.70427
 C1586 C 0.43651 0.71488 0.71430
 N1587 N 0.43133 0.70449 0.71935
 N1588 N 0.42093 0.69962 0.71462
 C1589 C 0.44742 0.72096 0.72022
 C1590 C 0.45271 0.71599 0.73113
 C1591 C 0.46175 0.72268 0.73770
 C1592 C 0.46567 0.73438 0.73344
 C1593 C 0.46099 0.73904 0.72221
 C1594 C 0.45200 0.73235 0.71561
 H1595 H 0.40218 0.68456 0.71280
 H1596 H 0.38264 0.67644 0.70476
 H1597 H 0.38187 0.70584 0.67727
 H1598 H 0.40137 0.71388 0.68528
 H1599 H 0.44950 0.70720 0.73489
 H1600 H 0.46521 0.71904 0.74643
 H1601 H 0.46388 0.74812 0.71889
 H1602 H 0.44824 0.73640 0.70718
 C1603 C 0.40382 0.19908 0.19964
 C1604 C 0.39737 0.18944 0.20572
 C1605 C 0.38601 0.18506 0.20109
 C1606 C 0.38078 0.19020 0.19025
 C1607 C 0.38727 0.19982 0.18414
 C1608 C 0.39864 0.20420 0.18878
 C1609 C 0.41570 0.20396 0.20478
 N1610 N 0.42191 0.21338 0.19905
 N1611 N 0.43226 0.21813 0.20398
 C1612 C 0.43689 0.21363 0.21485
 N1613 N 0.43076 0.20410 0.22050
 N1614 N 0.42041 0.19936 0.21557
 C1615 C 0.44771 0.21968 0.22097
 C1616 C 0.45130 0.21610 0.23303
 C1617 C 0.46017 0.22299 0.23958
 C1618 C 0.46576 0.23344 0.23412
 C1619 C 0.46284 0.23660 0.22183
 C1620 C 0.45387 0.22977 0.21529
 H1621 H 0.40106 0.18529 0.21412
 H1622 H 0.38135 0.17769 0.20611
 H1623 H 0.38363 0.20401 0.17575
 H1624 H 0.40334 0.21165 0.18385
 H1625 H 0.44685 0.20832 0.23767
 H1626 H 0.46228 0.22052 0.24911
 H1627 H 0.46699 0.24474 0.21755
 H1628 H 0.45140 0.23273 0.20599
 C1629 C -0.09611 0.69956 0.19861
 C1630 C -0.10129 0.68859 0.20354
 C1631 C -0.11253 0.68386 0.19892
 C1632 C -0.11892 0.69000 0.18927
 C1633 C -0.11362 0.70089 0.18424
 C1634 C -0.10239 0.70561 0.18885
 C1635 C -0.08439 0.70484 0.20373
 N1636 N -0.07960 0.71561 0.19911
 N1637 N -0.06932 0.72060 0.20395
 C1638 C -0.06334 0.71502 0.21359
 N1639 N -0.06807 0.70421 0.21816
 N1640 N -0.07836 0.69921 0.21332
 C1641 C -0.05247 0.72113 0.21958
 C1642 C -0.04646 0.71555 0.22980
 C1643 C -0.03745 0.72212 0.23654
 C1644 C -0.03432 0.73433 0.23316
 C1645 C -0.03970 0.73965 0.22255
 C1646 C -0.04863 0.73307 0.21576
 H1647 H -0.09669 0.68367 0.21104
 H1648 H -0.11619 0.67541 0.20300
 H1649 H -0.11813 0.70589 0.17677
 H1650 H -0.09869 0.71407 0.18480
 H1651 H -0.04908 0.70632 0.23293
 H1652 H -0.03341 0.71794 0.24478
 H1653 H -0.03737 0.74910 0.21986
 H1654 H -0.05294 0.73761 0.20786
 C1655 C -0.09640 0.19906 0.70002
 C1656 C -0.10295 0.18948 0.70608
 C1657 C -0.11427 0.18510 0.70135
 C1658 C -0.11936 0.19020 0.69042
 C1659 C -0.11279 0.19978 0.68435
 C1660 C -0.10145 0.20415 0.68909
 C1661 C -0.08454 0.20386 0.70527
 N1662 N -0.07828 0.21333 0.69966
 N1663 N -0.06791 0.21796 0.70469
 C1664 C -0.06334 0.21330 0.71551
 N1665 N -0.06953 0.20374 0.72103
 N1666 N -0.07988 0.19911 0.71600
 C1667 C -0.05249 0.21917 0.72173
 C1668 C -0.04891 0.21534 0.73373
 C1669 C -0.03998 0.22205 0.74039
 C1670 C -0.03435 0.23256 0.73511
 C1671 C -0.03726 0.23597 0.72289
 C1672 C -0.04627 0.22933 0.71623
 H1673 H -0.09938 0.18537 0.71456
 H1674 H -0.11901 0.17777 0.70636
 H1675 H -0.11632 0.20394 0.67590
 H1676 H -0.09668 0.21157 0.68419
 H1677 H -0.05342 0.20752 0.73823
 H1678 H -0.03786 0.21938 0.74987
 H1679 H -0.03307 0.24418 0.71876
 H1680 H -0.04873 0.23248 0.70699
 C1681 C 0.30020 0.40363 0.30043
 C1682 C 0.29429 0.39753 0.31038
 C1683 C 0.29893 0.38626 0.31494
 C1684 C 0.30962 0.38076 0.30970
 C1685 C 0.31555 0.38689 0.29976
 C1686 C 0.31089 0.39817 0.29518
 C1687 C 0.29506 0.41547 0.29547
 N1688 N 0.30037 0.42120 0.28553
 N1689 N 0.29544 0.43158 0.28082
 C1690 C 0.28502 0.43672 0.28588
 N1691 N 0.27980 0.43106 0.29590
 N1692 N 0.28472 0.42068 0.30060
 C1693 C 0.27889 0.44763 0.28001
 C1694 C 0.26745 0.45213 0.28462
 C1695 C 0.26073 0.46114 0.27805
 C1696 C 0.26540 0.46589 0.26686
 C1697 C 0.27714 0.46205 0.26261
 C1698 C 0.28386 0.45300 0.26914
 H1699 H 0.28599 0.40141 0.31462
 H1700 H 0.29403 0.38188 0.32256
 H1701 H 0.32382 0.38302 0.29548
 H1702 H 0.31566 0.40259 0.28747
 H1703 H 0.26339 0.44830 0.29300
 H1704 H 0.25161 0.46396 0.28136
 H1705 H 0.28078 0.46557 0.25390
 H1706 H 0.29266 0.44982 0.26537
 C1707 C 0.30048 -0.09691 0.80009
 C1708 C 0.29448 -0.10301 0.80998
 C1709 C 0.29907 -0.11429 0.81458
 C1710 C 0.30983 -0.11985 0.80945
 C1711 C 0.31578 -0.11369 0.79950
 C1712 C 0.31116 -0.10240 0.79490
 C1713 C 0.29547 -0.08501 0.79511
 N1714 N 0.30099 -0.07928 0.78528
 N1715 N 0.29621 -0.06886 0.78052
 C1716 C 0.28573 -0.06368 0.78540
 N1717 N 0.28030 -0.06934 0.79532
 N1718 N 0.28508 -0.07976 0.80008
 C1719 C 0.27975 -0.05275 0.77942
 C1720 C 0.26833 -0.04811 0.78392
 C1721 C 0.26173 -0.03910 0.77723
 C1722 C 0.26652 -0.03447 0.76604
 C1723 C 0.27823 -0.03847 0.76188
 C1724 C 0.28483 -0.04752 0.76853
 H1725 H 0.28618 -0.09908 0.81417
 H1726 H 0.29408 -0.11856 0.82220
 H1727 H 0.32405 -0.11747 0.79516
 H1728 H 0.31600 -0.09799 0.78723
 H1729 H 0.26418 -0.05184 0.79230
 H1730 H 0.25261 -0.03618 0.78045
 H1731 H 0.28195 -0.03507 0.75315
 H1732 H 0.29363 -0.05081 0.76484
 C1733 C 0.80055 0.40354 0.80021
 C1734 C 0.79475 0.39768 0.81035
 C1735 C 0.79933 0.38641 0.81502
 C1736 C 0.80987 0.38063 0.80968
 C1737 C 0.81563 0.38656 0.79949
 C1738 C 0.81103 0.39784 0.79483
 C1739 C 0.79553 0.41540 0.79515
 N1740 N 0.80091 0.42096 0.78515
 N1741 N 0.79611 0.43135 0.78033
 C1742 C 0.78575 0.43665 0.78532
 N1743 N 0.78046 0.43116 0.79541
 N1744 N 0.78525 0.42078 0.80023
 C1745 C 0.77973 0.44754 0.77929
 C1746 C 0.76831 0.45218 0.78382
 C1747 C 0.76166 0.46113 0.77711
 C1748 C 0.76637 0.46571 0.76587
 C1749 C 0.77807 0.46172 0.76167
 C1750 C 0.78473 0.45272 0.76835
 H1751 H 0.78662 0.40177 0.81471
 H1752 H 0.79448 0.38233 0.82283
 H1753 H 0.82374 0.38260 0.79500
 H1754 H 0.81571 0.40206 0.78697
 H1755 H 0.76421 0.44849 0.79225
 H1756 H 0.75256 0.46406 0.78038
 H1757 H 0.78174 0.46508 0.75290
 H1758 H 0.79353 0.44944 0.76464
 C1759 C 0.80047 -0.09670 0.30027
 C1760 C 0.79479 -0.10243 0.31056
 C1761 C 0.79932 -0.11372 0.31522
 C1762 C 0.80969 -0.11966 0.30972
 C1763 C 0.81533 -0.11386 0.29939
 C1764 C 0.81078 -0.10257 0.29474
 C1765 C 0.79552 -0.08481 0.29520
 N1766 N 0.80082 -0.07942 0.28507
 N1767 N 0.79608 -0.06901 0.28023
 C1768 C 0.78588 -0.06351 0.28534
 N1769 N 0.78068 -0.06883 0.29555
 N1770 N 0.78541 -0.07924 0.30039
 C1771 C 0.77991 -0.05260 0.27928
 C1772 C 0.76876 -0.04758 0.28405
 C1773 C 0.76211 -0.03861 0.27734
 C1774 C 0.76655 -0.03443 0.26584
 C1775 C 0.77802 -0.03881 0.26138
 C1776 C 0.78469 -0.04778 0.26807
 H1777 H 0.78679 -0.09821 0.31503
 H1778 H 0.79459 -0.11770 0.32315
 H1779 H 0.82329 -0.11795 0.29476
 H1780 H 0.81536 -0.09846 0.28676
 H1781 H 0.76486 -0.05098 0.29269
 H1782 H 0.75319 -0.03538 0.28082
 H1783 H 0.78149 -0.03574 0.25244
 H1784 H 0.79330 -0.05134 0.26417
 C1785 C 0.30019 0.59645 0.69959
 C1786 C 0.31045 0.60230 0.70524
 C1787 C 0.31505 0.61358 0.70062
 C1788 C 0.30950 0.61931 0.69023
 C1789 C 0.29924 0.61341 0.68459
 C1790 C 0.29465 0.60214 0.68921
 C1791 C 0.29516 0.58459 0.70461
 N1792 N 0.28514 0.57903 0.69925
 N1793 N 0.28033 0.56862 0.70400
 C1794 C 0.28537 0.56330 0.71430
 N1795 N 0.29547 0.56880 0.71959
 N1796 N 0.30028 0.57921 0.71483
 C1797 C 0.27934 0.55238 0.72024
 C1798 C 0.28396 0.54759 0.73151
 C1799 C 0.27723 0.53860 0.73808
 C1800 C 0.26585 0.53418 0.73344
 C1801 C 0.26158 0.53832 0.72186
 C1802 C 0.26830 0.54732 0.71527
 H1803 H 0.31494 0.59820 0.71327
 H1804 H 0.32295 0.61776 0.70525
 H1805 H 0.29469 0.61744 0.67657
 H1806 H 0.28672 0.59791 0.68462
 H1807 H 0.29248 0.55117 0.73555
 H1808 H 0.28058 0.53552 0.74707
 H1809 H 0.25275 0.53504 0.71823
 H1810 H 0.26454 0.55069 0.70655
 C1811 C 0.30049 1.09680 0.20023
 C1812 C 0.29505 1.10215 0.18961
 C1813 C 0.29956 1.11339 0.18479
 C1814 C 0.30964 1.11956 0.19046
 C1815 C 0.31503 1.11420 0.20112
 C1816 C 0.31052 1.10298 0.20593
 C1817 C 0.29563 1.08495 0.20544
 N1818 N 0.30069 1.07994 0.21588
 N1819 N 0.29607 1.06952 0.22079
 C1820 C 0.28622 1.06364 0.21546
 N1821 N 0.28124 1.06859 0.20495
 N1822 N 0.28585 1.07901 0.20003
 C1823 C 0.28041 1.05266 0.22152
 C1824 C 0.26972 1.04707 0.21637
 C1825 C 0.26316 1.03798 0.22299
 C1826 C 0.26723 1.03429 0.23481
 C1827 C 0.27826 1.03927 0.23967
 C1828 C 0.28485 1.04833 0.23305
 H1829 H 0.28727 1.09768 0.18500
 H1830 H 0.29509 1.11718 0.17662
 H1831 H 0.32281 1.11858 0.20578
 H1832 H 0.31493 1.09916 0.21415
 H1833 H 0.26609 1.05010 0.20748
 H1834 H 0.25456 1.03430 0.21919
 H1835 H 0.28140 1.03659 0.24886
 H1836 H 0.29309 1.05235 0.23726
 C1837 C 0.80074 0.59639 0.19961
 C1838 C 0.81102 0.60229 0.20519
 C1839 C 0.81558 0.61356 0.20052
 C1840 C 0.80997 0.61926 0.19015
 C1841 C 0.79972 0.61331 0.18455
 C1842 C 0.79517 0.60204 0.18921
 C1843 C 0.79569 0.58458 0.20472
 N1844 N 0.78570 0.57893 0.19937
 N1845 N 0.78088 0.56857 0.20422
 C1846 C 0.78586 0.56338 0.21462
 N1847 N 0.79592 0.56896 0.21990
 N1848 N 0.80075 0.57932 0.21504
 C1849 C 0.77984 0.55250 0.22065
 C1850 C 0.78431 0.54796 0.23209
 C1851 C 0.77757 0.53902 0.23872
 C1852 C 0.76635 0.53435 0.23396
 C1853 C 0.76224 0.53822 0.22223
 C1854 C 0.76895 0.54720 0.21559
 H1855 H 0.81555 0.59821 0.21322
 H1856 H 0.82353 0.61776 0.20507
 H1857 H 0.79510 0.61733 0.17657
 H1858 H 0.78723 0.59779 0.18468
 H1859 H 0.79271 0.55173 0.23621
 H1860 H 0.78079 0.53617 0.24783
 H1861 H 0.75352 0.53475 0.21850
 H1862 H 0.76529 0.55037 0.20676
 C1863 C 0.80026 1.09684 0.70003
 C1864 C 0.79504 1.10209 0.68925
 C1865 C 0.79960 1.11332 0.68447
 C1866 C 0.80950 1.11960 0.69033
 C1867 C 0.81469 1.11434 0.70114
 C1868 C 0.81012 1.10312 0.70593
 C1869 C 0.79536 1.08500 0.70521
 N1870 N 0.80013 1.08021 0.71589
 N1871 N 0.79550 1.06979 0.72078
 C1872 C 0.78593 1.06368 0.71519
 N1873 N 0.78124 1.06841 0.70445
 N1874 N 0.78587 1.07884 0.69956
 C1875 C 0.78009 1.05272 0.72124
 C1876 C 0.76993 1.04658 0.71565
 C1877 C 0.76325 1.03751 0.72219
 C1878 C 0.76663 1.03445 0.73439
 C1879 C 0.77718 1.03997 0.73973
 C1880 C 0.78392 1.04896 0.73318
 H1881 H 0.78740 1.09755 0.68449
 H1882 H 0.79530 1.11702 0.67617
 H1883 H 0.82231 1.11881 0.70596
 H1884 H 0.81434 1.09938 0.71427
 H1885 H 0.76680 1.04916 0.70644
 H1886 H 0.75503 1.03340 0.71802
 H1887 H 0.77983 1.03774 0.74918
 H1888 H 0.79176 1.05339 0.73773
 C1889 C 0.69960 0.59650 0.30036
 C1890 C 0.70537 0.60234 0.31053
 C1891 C 0.70082 0.61362 0.31515
 C1892 C 0.69037 0.61941 0.30973
 C1893 C 0.68458 0.61353 0.29956
 C1894 C 0.68914 0.60224 0.29494
 C1895 C 0.70462 0.58465 0.29530
 N1896 N 0.69933 0.57918 0.28522
 N1897 N 0.70413 0.56880 0.28040
 C1898 C 0.71441 0.56341 0.28548
 N1899 N 0.71962 0.56881 0.29564
 N1900 N 0.71482 0.57919 0.30046
 C1901 C 0.72042 0.55251 0.27947
 C1902 C 0.73166 0.54764 0.28419
 C1903 C 0.73833 0.53867 0.27751
 C1904 C 0.73380 0.53434 0.26610
 C1905 C 0.72225 0.53857 0.26171
 C1906 C 0.71557 0.54755 0.26837
 H1907 H 0.71348 0.59822 0.31492
 H1908 H 0.70559 0.61779 0.32296
 H1909 H 0.67650 0.61760 0.29512
 H1910 H 0.68448 0.59803 0.28706
 H1911 H 0.73562 0.55116 0.29275
 H1912 H 0.74731 0.53556 0.28093
 H1913 H 0.71872 0.53537 0.25284
 H1914 H 0.70691 0.55100 0.26451
 C1915 C 0.69968 1.09677 0.80036
 C1916 C 0.68914 1.10240 0.79501
 C1917 C 0.68452 1.11368 0.79964
 C1918 C 0.69032 1.11967 0.80977
 C1919 C 0.70093 1.11397 0.81506
 C1920 C 0.70553 1.10271 0.81042
 C1921 C 0.70472 1.08491 0.79536
 N1922 N 0.71514 1.07970 0.80033
 N1923 N 0.71996 1.06930 0.79558
 C1924 C 0.71456 1.06363 0.78567
 N1925 N 0.70405 1.06876 0.78078
 N1926 N 0.69922 1.07916 0.78554
 C1927 C 0.72059 1.05273 0.77969
 C1928 C 0.71532 1.04719 0.76906
 C1929 C 0.72192 1.03816 0.76238
 C1930 C 0.73385 1.03452 0.76625
 C1931 C 0.73886 1.03947 0.77720
 C1932 C 0.73225 1.04844 0.78393
 H1933 H 0.68443 1.09812 0.78721
 H1934 H 0.67637 1.11758 0.79519
 H1935 H 0.70581 1.11811 0.82281
 H1936 H 0.71372 1.09869 0.81473
 H1937 H 0.70634 1.05022 0.76558
 H1938 H 0.71802 1.03451 0.75384
 H1939 H 0.74813 1.03682 0.78021
 H1940 H 0.73657 1.05241 0.79211
 C1941 C 0.19975 0.59641 0.80031
 C1942 C 0.20534 0.60212 0.81066
 C1943 C 0.20079 0.61343 0.81523
 C1944 C 0.19055 0.61936 0.80958
 C1945 C 0.18494 0.61361 0.79925
 C1946 C 0.18950 0.60229 0.79466
 C1947 C 0.20475 0.58453 0.79530
 N1948 N 0.19961 0.57917 0.78508
 N1949 N 0.20440 0.56876 0.78031
 C1950 C 0.21451 0.56324 0.78557
 N1951 N 0.21956 0.56852 0.79587
 N1952 N 0.21477 0.57893 0.80065
 C1953 C 0.22054 0.55234 0.77959
 C1954 C 0.23159 0.54725 0.78455
 C1955 C 0.23833 0.53829 0.77792
 C1956 C 0.23408 0.53421 0.76632
 C1957 C 0.22271 0.53866 0.76168
 C1958 C 0.21595 0.54761 0.76829
 H1959 H 0.21328 0.59788 0.81522
 H1960 H 0.20538 0.61747 0.82322
 H1961 H 0.17703 0.61779 0.79462
 H1962 H 0.18498 0.59819 0.78665
 H1963 H 0.23535 0.55059 0.79327
 H1964 H 0.24718 0.53501 0.78153
 H1965 H 0.21938 0.53565 0.75266
 H1966 H 0.20744 0.55123 0.76424
 C1967 C 0.19947 1.09658 0.29979
 C1968 C 0.18969 1.10292 0.29381
 C1969 C 0.18523 1.11424 0.29847
 C1970 C 0.19043 1.11953 0.30924
 C1971 C 0.20021 1.11316 0.31523
 C1972 C 0.20467 1.10184 0.31057
 C1973 C 0.20434 1.08470 0.29468
 N1974 N 0.21385 1.07856 0.30035
 N1975 N 0.21852 1.06814 0.29546
 C1976 C 0.21386 1.06341 0.28472
 N1977 N 0.20426 1.06948 0.27913
 N1978 N 0.19959 1.07988 0.28401
 C1979 C 0.21981 1.05250 0.27867
 C1980 C 0.21590 1.04856 0.26682
 C1981 C 0.22270 1.03958 0.26029
 C1982 C 0.23340 1.03429 0.26557
 C1983 C 0.23692 1.03759 0.27766
 C1984 C 0.23015 1.04660 0.28419
 H1985 H 0.18548 1.09917 0.28546
 H1986 H 0.17772 1.11880 0.29353
 H1987 H 0.20447 1.11685 0.32355
 H1988 H 0.21224 1.09725 0.31541
 H1989 H 0.20793 1.05281 0.26232
 H1990 H 0.21997 1.03719 0.25090
 H1991 H 0.24527 1.03368 0.28177
 H1992 H 0.23337 1.04933 0.29333
 C1993 C 0.69921 0.40351 0.70003
 C1994 C 0.68964 0.39697 0.70611
 C1995 C 0.68520 0.38570 0.70134
 C1996 C 0.69022 0.38065 0.69037
 C1997 C 0.69981 0.38721 0.68429
 C1998 C 0.70424 0.39850 0.68906
 C1999 C 0.70405 0.41536 0.70526
 N2000 N 0.71340 0.42169 0.69954
 N2001 N 0.71804 0.43207 0.70451
 C2002 C 0.71350 0.43659 0.71541
 N2003 N 0.70406 0.43033 0.72106
 N2004 N 0.69942 0.41996 0.71608
 C2005 C 0.71941 0.44747 0.72155
 C2006 C 0.71574 0.45103 0.73359
 C2007 C 0.72251 0.46000 0.74015
 C2008 C 0.73291 0.46570 0.73471
 C2009 C 0.73615 0.46279 0.72244
 C2010 C 0.72945 0.45374 0.71589
 H2011 H 0.68556 0.40051 0.71461
 H2012 H 0.67786 0.38098 0.70636
 H2013 H 0.70392 0.38371 0.67581
 H2014 H 0.71166 0.40326 0.68414
 H2015 H 0.70800 0.44649 0.73821
 H2016 H 0.71999 0.46208 0.74968
 H2017 H 0.74427 0.46701 0.71819
 H2018 H 0.73248 0.45129 0.70661
 C2019 C 0.69968 -0.09642 0.19947
 C2020 C 0.70531 -0.10220 0.18917
 C2021 C 0.70070 -0.11346 0.18456
 C2022 C 0.69034 -0.11928 0.19011
 C2023 C 0.68469 -0.11346 0.20039
 C2024 C 0.68931 -0.10219 0.20501
 C2025 C 0.70476 -0.08460 0.20452
 N2026 N 0.69968 -0.07925 0.21478
 N2027 N 0.70453 -0.06888 0.21957
 C2028 C 0.71464 -0.06339 0.21429
 N2029 N 0.71965 -0.06867 0.20397
 N2030 N 0.71480 -0.07904 0.19917
 C2031 C 0.72070 -0.05249 0.22025
 C2032 C 0.73170 -0.04739 0.21522
 C2033 C 0.73846 -0.03841 0.22179
 C2034 C 0.73428 -0.03434 0.23342
 C2035 C 0.72295 -0.03880 0.23814
 C2036 C 0.71617 -0.04776 0.23158
 H2037 H 0.71334 -0.09805 0.18468
 H2038 H 0.70535 -0.11757 0.17665
 H2039 H 0.67668 -0.11756 0.20493
 H2040 H 0.68476 -0.09803 0.21298
 H2041 H 0.73541 -0.05072 0.20647
 H2042 H 0.74726 -0.03511 0.21810
 H2043 H 0.71968 -0.03578 0.24718
 H2044 H 0.70770 -0.05138 0.23569
 C2045 C 0.19942 0.40366 0.19984
 C2046 C 0.20476 0.39826 0.18920
 C2047 C 0.20028 0.38696 0.18454
 C2048 C 0.19033 0.38073 0.19039
 C2049 C 0.18497 0.38617 0.20102
 C2050 C 0.18946 0.39748 0.20568
 C2051 C 0.20434 0.41551 0.20497
 N2052 N 0.19933 0.42056 0.21541
 N2053 N 0.20402 0.43094 0.22031
 C2054 C 0.21390 0.43677 0.21496
 N2055 N 0.21884 0.43180 0.20444
 N2056 N 0.21414 0.42141 0.19954
 C2057 C 0.21981 0.44767 0.22106
 C2058 C 0.23046 0.45332 0.21587
 C2059 C 0.23711 0.46231 0.22255
 C2060 C 0.23317 0.46583 0.23444
 C2061 C 0.22216 0.46082 0.23934
 C2062 C 0.21548 0.45187 0.23268
 H2063 H 0.21245 0.40275 0.18444
 H2064 H 0.20466 0.38316 0.17632
 H2065 H 0.17732 0.38173 0.20584
 H2066 H 0.18512 0.40135 0.21391
 H2067 H 0.23398 0.45041 0.20690
 H2068 H 0.24568 0.46603 0.21871
 H2069 H 0.21906 0.46341 0.24857
 H2070 H 0.20724 0.44784 0.23690
 C2071 C 0.19966 -0.09644 0.69959
 C2072 C 0.18941 -0.10233 0.70522
 C2073 C 0.18481 -0.11359 0.70056
 C2074 C 0.19036 -0.11927 0.69016
 C2075 C 0.20062 -0.11335 0.68454
 C2076 C 0.20520 -0.10209 0.68919
 C2077 C 0.20470 -0.08461 0.70468
 N2078 N 0.21469 -0.07897 0.69932
 N2079 N 0.21951 -0.06861 0.70416
 C2080 C 0.21452 -0.06342 0.71454
 N2081 N 0.20445 -0.06898 0.71982
 N2082 N 0.19963 -0.07934 0.71498
 C2083 C 0.22057 -0.05255 0.72056
 C2084 C 0.21612 -0.04802 0.73201
 C2085 C 0.22288 -0.03907 0.73861
 C2086 C 0.23410 -0.03443 0.73382
 C2087 C 0.23820 -0.03833 0.72209
 C2088 C 0.23146 -0.04729 0.71548
 H2089 H 0.18492 -0.09826 0.71327
 H2090 H 0.17690 -0.11779 0.70518
 H2091 H 0.20517 -0.11734 0.67651
 H2092 H 0.21314 -0.09784 0.68463
 H2093 H 0.20772 -0.05178 0.73616
 H2094 H 0.21968 -0.03621 0.74772
 H2095 H 0.24694 -0.03491 0.71837
 H2096 H 0.23510 -0.05048 0.70665
 C2097 C 0.30026 0.30032 0.40365
 C2098 C 0.31063 0.29474 0.39791
 C2099 C 0.31516 0.29925 0.38658
 C2100 C 0.30943 0.30946 0.38068
 C2101 C 0.29906 0.31505 0.38646
 C2102 C 0.29454 0.31053 0.39779
 C2103 C 0.29529 0.29534 0.41553
 N2104 N 0.28504 0.30048 0.42091
 N2105 N 0.28025 0.29569 0.43128
 C2106 C 0.28552 0.28557 0.43676
 N2107 N 0.29586 0.28052 0.43147
 N2108 N 0.30065 0.28531 0.42109
 C2109 C 0.27951 0.27952 0.44762
 C2110 C 0.28446 0.26847 0.45268
 C2111 C 0.27781 0.26177 0.46163
 C2112 C 0.26619 0.26606 0.46575
 C2113 C 0.26152 0.27740 0.46129
 C2114 C 0.26816 0.28413 0.45235
 H2115 H 0.31527 0.28683 0.40213
 H2116 H 0.32315 0.29467 0.38251
 H2117 H 0.29436 0.32292 0.38229
 H2118 H 0.28651 0.31505 0.40191
 H2119 H 0.29320 0.26469 0.44933
 H2120 H 0.28143 0.25292 0.46489
 H2121 H 0.25246 0.28072 0.46429
 H2122 H 0.26410 0.29263 0.44874
 C2123 C 0.29998 0.80043 -0.09682
 C2124 C 0.29379 0.80999 -0.10328
 C2125 C 0.29845 0.81444 -0.11457
 C2126 C 0.30944 0.80947 -0.11970
 C2127 C 0.31559 0.79984 -0.11326
 C2128 C 0.31093 0.79539 -0.10196
 C2129 C 0.29491 0.79561 -0.08492
 N2130 N 0.30070 0.78620 -0.07873
 N2131 N 0.29585 0.78157 -0.06830
 C2132 C 0.28502 0.78618 -0.06360
 N2133 N 0.27932 0.79567 -0.06972
 N2134 N 0.28417 0.80030 -0.08014
 C2135 C 0.27898 0.78030 -0.05267
 C2136 C 0.26703 0.78417 -0.04886
 C2137 C 0.26047 0.77744 -0.03988
 C2138 C 0.26580 0.76686 -0.03442
 C2139 C 0.27801 0.76341 -0.03755
 C2140 C 0.28457 0.77009 -0.04661
 H2141 H 0.28530 0.81407 -0.09963
 H2142 H 0.29338 0.82182 -0.11918
 H2143 H 0.32404 0.79570 -0.11687
 H2144 H 0.31592 0.78798 -0.09728
 H2145 H 0.26247 0.79204 -0.05323
 H2146 H 0.25099 0.78013 -0.03761
 H2147 H 0.28217 0.75516 -0.03349
 H2148 H 0.29378 0.76690 -0.04924
 C2149 C 0.79993 0.30080 -0.09645
 C2150 C 0.79413 0.31090 -0.10244
 C2151 C 0.79870 0.31538 -0.11376
 C2152 C 0.80920 0.30990 -0.11938
 C2153 C 0.81500 0.29980 -0.11336
 C2154 C 0.81043 0.29531 -0.10204
 C2155 C 0.79490 0.29588 -0.08458
 N2156 N 0.80024 0.28589 -0.07892
 N2157 N 0.79540 0.28117 -0.06854
 C2158 C 0.78504 0.28626 -0.06332
 N2159 N 0.77979 0.29634 -0.06890
 N2160 N 0.78462 0.30106 -0.07928
 C2161 C 0.77898 0.28031 -0.05244
 C2162 C 0.76757 0.28491 -0.04786
 C2163 C 0.76087 0.27822 -0.03893
 C2164 C 0.76553 0.26693 -0.03436
 C2165 C 0.77725 0.26269 -0.03827
 C2166 C 0.78395 0.26935 -0.04722
 H2167 H 0.78600 0.31534 -0.09844
 H2168 H 0.79392 0.32314 -0.11804
 H2169 H 0.82310 0.29530 -0.11732
 H2170 H 0.81512 0.28750 -0.09771
 H2171 H 0.76351 0.29337 -0.05156
 H2172 H 0.75178 0.28154 -0.03603
 H2173 H 0.78089 0.25391 -0.03486
 H2174 H 0.79276 0.26559 -0.05043
 C2175 C 0.79998 0.80074 0.40369
 C2176 C 0.81053 0.79530 0.39814
 C2177 C 0.81511 0.79977 0.38683
 C2178 C 0.80927 0.80982 0.38075
 C2179 C 0.79872 0.81526 0.38632
 C2180 C 0.79414 0.81079 0.39764
 C2181 C 0.79491 0.79583 0.41556
 N2182 N 0.78458 0.80096 0.42078
 N2183 N 0.77973 0.79625 0.43116
 C2184 C 0.78502 0.78623 0.43681
 N2185 N 0.79543 0.78118 0.43166
 N2186 N 0.80029 0.78589 0.42127
 C2187 C 0.77895 0.78031 0.44771
 C2188 C 0.78398 0.76942 0.45303
 C2189 C 0.77729 0.76279 0.46201
 C2190 C 0.76554 0.76698 0.46586
 C2191 C 0.76082 0.77821 0.46118
 C2192 C 0.76750 0.78487 0.45223
 H2193 H 0.81524 0.78752 0.40252
 H2194 H 0.82325 0.79531 0.38290
 H2195 H 0.79391 0.82298 0.38200
 H2196 H 0.78597 0.81519 0.40160
 H2197 H 0.79281 0.76569 0.44986
 H2198 H 0.78098 0.75406 0.46549
 H2199 H 0.75170 0.78149 0.46403
 H2200 H 0.76339 0.79327 0.44844
 C2201 C 0.69990 0.30057 0.59609
 C2202 C 0.70594 0.31036 0.60234
 C2203 C 0.70136 0.31482 0.61364
 C2204 C 0.69059 0.30963 0.61903
 C2205 C 0.68454 0.29984 0.61276
 C2206 C 0.68914 0.29537 0.60145
 C2207 C 0.70495 0.29569 0.58421
 N2208 N 0.69938 0.28599 0.57830
 N2209 N 0.70423 0.28131 0.56789
 C2210 C 0.71484 0.28615 0.56294
 N2211 N 0.72032 0.29593 0.56879
 N2212 N 0.71547 0.30061 0.57918
 C2213 C 0.72091 0.28022 0.55205
 C2214 C 0.73264 0.28441 0.54793
 C2215 C 0.73930 0.27767 0.53904
 C2216 C 0.73428 0.26676 0.53398
 C2217 C 0.72226 0.26297 0.53741
 C2218 C 0.71560 0.26966 0.54637
 H2219 H 0.71429 0.31456 0.59853
 H2220 H 0.70634 0.32233 0.61813
 H2221 H 0.67622 0.29558 0.61653
 H2222 H 0.68426 0.28779 0.59692
 H2223 H 0.73697 0.29256 0.55200
 H2224 H 0.74863 0.28064 0.53651
 H2225 H 0.71834 0.25447 0.53364
 H2226 H 0.70654 0.26624 0.54923
 C2227 C 0.69989 0.80063 1.09610
 C2228 C 0.70599 0.81033 1.10241
 C2229 C 0.70142 0.81475 1.11374
 C2230 C 0.69061 0.80958 1.11908
 C2231 C 0.68452 0.79985 1.11276
 C2232 C 0.68910 0.79543 1.10141
 C2233 C 0.70495 0.79579 1.08420
 N2234 N 0.69934 0.78616 1.07820
 N2235 N 0.70423 0.78148 1.06782
 C2236 C 0.71492 0.78624 1.06297
 N2237 N 0.72043 0.79596 1.06889
 N2238 N 0.71554 0.80065 1.07926
 C2239 C 0.72105 0.78027 1.05214
 C2240 C 0.73292 0.78428 1.04821
 C2241 C 0.73957 0.77750 1.03935
 C2242 C 0.73442 0.76672 1.03412
 C2243 C 0.72231 0.76309 1.03738
 C2244 C 0.71565 0.76982 1.04632
 H2245 H 0.71436 0.81452 1.09864
 H2246 H 0.70645 0.82219 1.11828
 H2247 H 0.67618 0.79561 1.11650
 H2248 H 0.68419 0.78791 1.09684
 H2249 H 0.73733 0.79231 1.05241
 H2250 H 0.74898 0.78032 1.03697
 H2251 H 0.71830 0.75468 1.03351
 H2252 H 0.70651 0.76652 1.04906
 C2253 C 0.19988 0.30073 1.09603
 C2254 C 0.20596 0.31044 1.10234
 C2255 C 0.20138 0.31485 1.11367
 C2256 C 0.19057 0.30968 1.11899
 C2257 C 0.18449 0.29994 1.11267
 C2258 C 0.18909 0.29553 1.10133
 C2259 C 0.20496 0.29588 1.08415
 N2260 N 0.19940 0.28622 1.07816
 N2261 N 0.20432 0.28154 1.06779
 C2262 C 0.21498 0.28635 1.06293
 N2263 N 0.22045 0.29611 1.06884
 N2264 N 0.21553 0.30079 1.07920
 C2265 C 0.22112 0.28043 1.05208
 C2266 C 0.23295 0.28453 1.04812
 C2267 C 0.23962 0.27782 1.03921
 C2268 C 0.23452 0.26702 1.03398
 C2269 C 0.22244 0.26332 1.03727
 C2270 C 0.21576 0.26998 1.04625
 H2271 H 0.21434 0.31463 1.09858
 H2272 H 0.20641 0.32228 1.11821
 H2273 H 0.17615 0.29570 1.11641
 H2274 H 0.18418 0.28800 1.09676
 H2275 H 0.23733 0.29259 1.05232
 H2276 H 0.24899 0.28072 1.03680
 H2277 H 0.21846 0.25491 1.03337
 H2278 H 0.20665 0.26662 1.04899
 C2279 C 0.19986 0.80065 0.59597
 C2280 C 0.20580 0.81054 0.60213
 C2281 C 0.20125 0.81495 0.61347
 C2282 C 0.19062 0.80960 0.61895
 C2283 C 0.18467 0.79969 0.61278
 C2284 C 0.18924 0.79527 0.60143
 C2285 C 0.20490 0.79580 0.58407
 N2286 N 0.19945 0.78599 0.57824
 N2287 N 0.20432 0.78131 0.56785
 C2288 C 0.21483 0.78627 0.56282
 N2289 N 0.22019 0.79618 0.56857
 N2290 N 0.21532 0.80086 0.57895
 C2291 C 0.22095 0.78033 0.55197
 C2292 C 0.23260 0.78465 0.54774
 C2293 C 0.23931 0.77792 0.53886
 C2294 C 0.23442 0.76688 0.53396
 C2295 C 0.22250 0.76293 0.53752
 C2296 C 0.21579 0.76962 0.54645
 H2297 H 0.21404 0.81488 0.59823
 H2298 H 0.20616 0.82255 0.61788
 H2299 H 0.17647 0.79530 0.61664
 H2300 H 0.18444 0.78761 0.59697
 H2301 H 0.23682 0.79291 0.55170
 H2302 H 0.24857 0.78101 0.53625
 H2303 H 0.21868 0.75433 0.53388
 H2304 H 0.20681 0.76607 0.54941
 C2305 C 0.30048 0.69995 0.59613
 C2306 C 0.29514 0.68929 0.60155
 C2307 C 0.29956 0.68470 0.61288
 C2308 C 0.30945 0.69065 0.61910
 C2309 C 0.31477 0.70132 0.61366
 C2310 C 0.31035 0.70590 0.60233
 C2311 C 0.29564 0.70500 0.58423
 N2312 N 0.30068 0.71543 0.57914
 N2313 N 0.29601 0.72031 0.56875
 C2314 C 0.28612 0.71494 0.56297
 N2315 N 0.28117 0.70441 0.56797
 N2316 N 0.28584 0.69954 0.57837
 C2317 C 0.28019 0.72105 0.55210
 C2318 C 0.26947 0.71589 0.54656
 C2319 C 0.26281 0.72258 0.53759
 C2320 C 0.26679 0.73448 0.53400
 C2321 C 0.27782 0.73937 0.53894
 C2322 C 0.28453 0.73268 0.54786
 H2323 H 0.28749 0.68449 0.59705
 H2324 H 0.29521 0.67646 0.61669
 H2325 H 0.32236 0.70622 0.61810
 H2326 H 0.31466 0.71417 0.59848
 H2327 H 0.26590 0.70694 0.54954
 H2328 H 0.25420 0.71877 0.53395
 H2329 H 0.28091 0.74862 0.53633
 H2330 H 0.29278 0.73691 0.55184
 C2331 C 0.30045 0.20022 1.09636
 C2332 C 0.29544 0.18925 1.10146
 C2333 C 0.29993 0.18455 1.11273
 C2334 C 0.30953 0.19069 1.11920
 C2335 C 0.31450 0.20168 1.11407
 C2336 C 0.31002 0.20638 1.10282
 C2337 C 0.29561 0.20536 1.08449
 N2338 N 0.30040 0.21604 1.07969
 N2339 N 0.29580 0.22092 1.06928
 C2340 C 0.28624 0.21533 1.06318
 N2341 N 0.28152 0.20457 1.06791
 N2342 N 0.28613 0.19968 1.07833
 C2343 C 0.28041 0.22142 1.05225
 C2344 C 0.27009 0.21596 1.04625
 C2345 C 0.26344 0.22261 1.03723
 C2346 C 0.26702 0.23475 1.03407
 C2347 C 0.27770 0.23995 1.03947
 C2348 C 0.28441 0.23330 1.04840
 H2349 H 0.28803 0.18428 1.09676
 H2350 H 0.29582 0.17607 1.11631
 H2351 H 0.32189 0.20673 1.11869
 H2352 H 0.31409 0.21487 1.09920
 H2353 H 0.26681 0.20680 1.04890
 H2354 H 0.25511 0.21855 1.03322
 H2355 H 0.28049 0.24938 1.03718
 H2356 H 0.29237 0.23775 1.05271
 C2357 C 0.80131 0.69999 1.09598
 C2358 C 0.79626 0.68905 1.10110
 C2359 C 0.80060 0.68444 1.11245
 C2360 C 0.81013 0.69063 1.11899
 C2361 C 0.81522 0.70154 1.11381
 C2362 C 0.81086 0.70615 1.10246
 C2363 C 0.79642 0.70514 1.08414
 N2364 N 0.80104 0.71594 1.07943
 N2365 N 0.79628 0.72090 1.06913
 C2366 C 0.78673 0.71527 1.06304
 N2367 N 0.78221 0.70438 1.06765
 N2368 N 0.78696 0.69941 1.07797
 C2369 C 0.78072 0.72142 1.05224
 C2370 C 0.77050 0.71584 1.04618
 C2371 C 0.76376 0.72244 1.03719
 C2372 C 0.76714 0.73468 1.03415
 C2373 C 0.77768 0.74003 1.03966
 C2374 C 0.78448 0.73343 1.04855
 H2375 H 0.78886 0.68407 1.09638
 H2376 H 0.79639 0.67604 1.11608
 H2377 H 0.82256 0.70661 1.11848
 H2378 H 0.81496 0.71462 1.09882
 H2379 H 0.76738 0.70660 1.04873
 H2380 H 0.75552 0.71827 1.03312
 H2381 H 0.78030 0.74953 1.03747
 H2382 H 0.79234 0.73798 1.05294
 C2383 C 0.80049 0.20016 0.59625
 C2384 C 0.79542 0.18925 0.60141
 C2385 C 0.79987 0.18459 0.61271
 C2386 C 0.80951 0.19072 0.61913
 C2387 C 0.81453 0.20167 0.61396
 C2388 C 0.81008 0.20632 0.60268
 C2389 C 0.79564 0.20526 0.58438
 N2390 N 0.80044 0.21593 0.57954
 N2391 N 0.79578 0.22082 0.56916
 C2392 C 0.78616 0.21525 0.56313
 N2393 N 0.78145 0.20450 0.56789
 N2394 N 0.78611 0.19960 0.57828
 C2395 C 0.78027 0.22133 0.55223
 C2396 C 0.76993 0.21588 0.54629
 C2397 C 0.76328 0.22249 0.53725
 C2398 C 0.76689 0.23462 0.53404
 C2399 C 0.77760 0.23981 0.53938
 C2400 C 0.78430 0.23319 0.54834
 H2401 H 0.78799 0.18428 0.59674
 H2402 H 0.79571 0.17617 0.61634
 H2403 H 0.82193 0.20671 0.61856
 H2404 H 0.81418 0.21478 0.59901
 H2405 H 0.76662 0.20674 0.54899
 H2406 H 0.75494 0.21844 0.53327
 H2407 H 0.78041 0.24922 0.53703
 H2408 H 0.79227 0.23765 0.55263
 C2409 C 0.69963 0.69991 0.40372
 C2410 C 0.70513 0.68941 0.39814
 C2411 C 0.70067 0.68486 0.38681
 C2412 C 0.69061 0.69069 0.38075
 C2413 C 0.68512 0.70119 0.38636
 C2414 C 0.68957 0.70573 0.39769
 C2415 C 0.70453 0.70493 0.41560
 N2416 N 0.69935 0.71521 0.42086
 N2417 N 0.70408 0.72007 0.43123
 C2418 C 0.71416 0.71483 0.43682
 N2419 N 0.71924 0.70445 0.43164
 N2420 N 0.71452 0.69960 0.42127
 C2421 C 0.72011 0.72092 0.44768
 C2422 C 0.73109 0.71598 0.45292
 C2423 C 0.73771 0.72269 0.46188
 C2424 C 0.73342 0.73437 0.46580
 C2425 C 0.72214 0.73902 0.46116
 C2426 C 0.71549 0.73232 0.45223
 H2427 H 0.71292 0.68470 0.40250
 H2428 H 0.70517 0.67676 0.38286
 H2429 H 0.67738 0.70599 0.38204
 H2430 H 0.68513 0.71386 0.40167
 H2431 H 0.73488 0.70719 0.44970
 H2432 H 0.74651 0.71907 0.46529
 H2433 H 0.71881 0.74811 0.46402
 H2434 H 0.70703 0.73637 0.44848
 C2435 C 0.69972 0.19982 -0.09648
 C2436 C 0.68968 0.20563 -0.10255
 C2437 C 0.68523 0.20105 -0.11386
 C2438 C 0.69069 0.19051 -0.11941
 C2439 C 0.70074 0.18469 -0.11332
 C2440 C 0.70520 0.18928 -0.10201
 C2441 C 0.70459 0.20488 -0.08461
 N2442 N 0.71456 0.19956 -0.07889
 N2443 N 0.71923 0.20443 -0.06850
 C2444 C 0.71411 0.21480 -0.06335
 N2445 N 0.70406 0.22003 -0.06900
 N2446 N 0.69939 0.21516 -0.07938
 C2447 C 0.72001 0.22091 -0.05248
 C2448 C 0.71541 0.23236 -0.04801
 C2449 C 0.72206 0.23908 -0.03909
 C2450 C 0.73330 0.23441 -0.03439
 C2451 C 0.73753 0.22267 -0.03818
 C2452 C 0.73092 0.21593 -0.04714
 H2453 H 0.68525 0.21379 -0.09860
 H2454 H 0.67751 0.20585 -0.11820
 H2455 H 0.70522 0.17656 -0.11723
 H2456 H 0.71298 0.18458 -0.09761
 H2457 H 0.70699 0.23642 -0.05182
 H2458 H 0.71875 0.24820 -0.03629
 H2459 H 0.74628 0.21902 -0.03469
 H2460 H 0.73467 0.20711 -0.05027
 C2461 C 0.19964 0.69989 -0.09637
 C2462 C 0.20482 0.68910 -0.10167
 C2463 C 0.20034 0.68449 -0.11298
 C2464 C 0.19056 0.69055 -0.11927
 C2465 C 0.18538 0.70134 -0.11393
 C2466 C 0.18986 0.70595 -0.10264
 C2467 C 0.20455 0.70497 -0.08452
 N2468 N 0.19970 0.71556 -0.07957
 N2469 N 0.20441 0.72043 -0.06921
 C2470 C 0.21416 0.71490 -0.06330
 N2471 N 0.21892 0.70422 -0.06817
 N2472 N 0.21420 0.69935 -0.07854
 C2473 C 0.22012 0.72098 -0.05245
 C2474 C 0.23058 0.71557 -0.04665
 C2475 C 0.23731 0.72219 -0.03769
 C2476 C 0.23366 0.73428 -0.03439
 C2477 C 0.22286 0.73944 -0.03960
 C2478 C 0.21608 0.73281 -0.04848
 H2479 H 0.21237 0.68420 -0.09712
 H2480 H 0.20457 0.67614 -0.11671
 H2481 H 0.17788 0.70633 -0.11843
 H2482 H 0.18565 0.71430 -0.09885
 H2483 H 0.23390 0.70644 -0.04940
 H2484 H 0.24573 0.71817 -0.03383
 H2485 H 0.22001 0.74882 -0.03719
 H2486 H 0.20802 0.73723 -0.05265
 C2487 C 0.19968 0.19958 0.40376
 C2488 C 0.20531 0.18929 0.39796
 C2489 C 0.20081 0.18481 0.38662
 C2490 C 0.19055 0.19051 0.38077
 C2491 C 0.18492 0.20082 0.38659
 C2492 C 0.18943 0.20529 0.39793
 C2493 C 0.20466 0.20452 0.41564
 N2494 N 0.19947 0.21471 0.42107
 N2495 N 0.20428 0.21949 0.43144
 C2496 C 0.21446 0.21425 0.43686
 N2497 N 0.21955 0.20397 0.43152
 N2498 N 0.21474 0.19919 0.42115
 C2499 C 0.22051 0.22025 0.44772
 C2500 C 0.23160 0.21534 0.45273
 C2501 C 0.23830 0.22198 0.46168
 C2502 C 0.23397 0.23357 0.46582
 C2503 C 0.22256 0.23817 0.46144
 C2504 C 0.21584 0.23154 0.45250
 H2505 H 0.21327 0.18468 0.40214
 H2506 H 0.20545 0.17688 0.38249
 H2507 H 0.17703 0.20551 0.38244
 H2508 H 0.18488 0.21328 0.40210
 H2509 H 0.23543 0.20664 0.44934
 H2510 H 0.24717 0.21839 0.46492
 H2511 H 0.21918 0.24717 0.46450
 H2512 H 0.20729 0.23556 0.44894
 C2513 C 0.30060 0.40340 0.70015
 C2514 C 0.29535 0.39819 0.68937
 C2515 C 0.29983 0.38691 0.68461
 C2516 C 0.30967 0.38055 0.69051
 C2517 C 0.31492 0.38581 0.70128
 C2518 C 0.31044 0.39707 0.70603
 C2519 C 0.29574 0.41525 0.70535
 N2520 N 0.30062 0.42011 0.71593
 N2521 N 0.29599 0.43051 0.72087
 C2522 C 0.28629 0.43654 0.71540
 N2523 N 0.28147 0.43175 0.70475
 N2524 N 0.28611 0.42134 0.69982
 C2525 C 0.28045 0.44751 0.72145
 C2526 C 0.27000 0.45334 0.71608
 C2527 C 0.26333 0.46238 0.72265
 C2528 C 0.26703 0.46577 0.73466
 C2529 C 0.27788 0.46060 0.73977
 C2530 C 0.28460 0.45159 0.73318
 H2531 H 0.28776 0.40280 0.68458
 H2532 H 0.29555 0.38326 0.67628
 H2533 H 0.32249 0.38125 0.70613
 H2534 H 0.31471 0.40081 0.71435
 H2535 H 0.26661 0.45052 0.70702
 H2536 H 0.25489 0.46623 0.71866
 H2537 H 0.28078 0.46309 0.74908
 H2538 H 0.29268 0.44742 0.73755
 C2539 C 0.30015 0.90380 0.19909
 C2540 C 0.29416 0.89759 0.18928
 C2541 C 0.29881 0.88632 0.18474
 C2542 C 0.30960 0.88093 0.18989
 C2543 C 0.31562 0.88716 0.19971
 C2544 C 0.31094 0.89844 0.20426
 C2545 C 0.29502 0.91566 0.20401
 N2546 N 0.30053 0.92157 0.21373
 N2547 N 0.29560 0.93196 0.21842
 C2548 C 0.28499 0.93691 0.21357
 N2549 N 0.27958 0.93106 0.20377
 N2550 N 0.28450 0.92068 0.19908
 C2551 C 0.27884 0.94777 0.21949
 C2552 C 0.26709 0.95185 0.21530
 C2553 C 0.26037 0.96075 0.22201
 C2554 C 0.26537 0.96586 0.23288
 C2555 C 0.27740 0.96244 0.23669
 C2556 C 0.28411 0.95348 0.23003
 H2557 H 0.28580 0.90140 0.18509
 H2558 H 0.29386 0.88188 0.17720
 H2559 H 0.32397 0.88339 0.20391
 H2560 H 0.31579 0.90295 0.21186
 H2561 H 0.26279 0.94774 0.20718
 H2562 H 0.25104 0.96322 0.21905
 H2563 H 0.28130 0.96622 0.24518
 H2564 H 0.29317 0.95064 0.23347
 C2565 C 0.80050 0.40376 0.19949
 C2566 C 0.79491 0.39816 0.18908
 C2567 C 0.79939 0.38684 0.18445
 C2568 C 0.80959 0.38082 0.19009
 C2569 C 0.81518 0.38646 0.20049
 C2570 C 0.81070 0.39778 0.20512
 C2571 C 0.79556 0.41562 0.20459
 N2572 N 0.80068 0.42084 0.21489
 N2573 N 0.79593 0.43122 0.21976
 C2574 C 0.78588 0.43687 0.21452
 N2575 N 0.78084 0.43172 0.20414
 N2576 N 0.78559 0.42134 0.19927
 C2577 C 0.77988 0.44773 0.22060
 C2578 C 0.76897 0.45302 0.21557
 C2579 C 0.76224 0.46195 0.22224
 C2580 C 0.76636 0.46580 0.23397
 C2581 C 0.77760 0.46115 0.23870
 C2582 C 0.78436 0.45223 0.23205
 H2583 H 0.78702 0.40248 0.18451
 H2584 H 0.79480 0.38287 0.17643
 H2585 H 0.82304 0.38218 0.20514
 H2586 H 0.81522 0.40180 0.21317
 H2587 H 0.76531 0.44988 0.20673
 H2588 H 0.75349 0.46540 0.21853
 H2589 H 0.78083 0.46400 0.24781
 H2590 H 0.79278 0.44847 0.23615
 C2591 C 0.80047 0.90391 0.69966
 C2592 C 0.79521 0.89859 0.68895
 C2593 C 0.79973 0.88731 0.68426
 C2594 C 0.80964 0.88105 0.69015
 C2595 C 0.81490 0.88641 0.70087
 C2596 C 0.81037 0.89768 0.70556
 C2597 C 0.79554 0.91576 0.70479
 N2598 N 0.80035 0.92068 0.71539
 N2599 N 0.79562 0.93105 0.72028
 C2600 C 0.78589 0.93700 0.71477
 N2601 N 0.78116 0.93217 0.70409
 N2602 N 0.78590 0.92178 0.69920
 C2603 C 0.77989 0.94786 0.72085
 C2604 C 0.76946 0.95370 0.71542
 C2605 C 0.76270 0.96267 0.72201
 C2606 C 0.76628 0.96596 0.73408
 C2607 C 0.77706 0.96072 0.73927
 C2608 C 0.78387 0.95181 0.73267
 H2609 H 0.78754 0.90311 0.68419
 H2610 H 0.79543 0.88358 0.67598
 H2611 H 0.82251 0.88193 0.70572
 H2612 H 0.81463 0.90148 0.71386
 H2613 H 0.76619 0.95096 0.70630
 H2614 H 0.75430 0.96656 0.71797
 H2615 H 0.77985 0.96311 0.74864
 H2616 H 0.79190 0.94760 0.73710
 C2617 C 0.69945 0.59643 0.69963
 C2618 C 0.70484 0.60193 0.68907
 C2619 C 0.70030 0.61322 0.68442
 C2620 C 0.69024 0.61933 0.69020
 C2621 C 0.68482 0.61378 0.70075
 C2622 C 0.68937 0.60249 0.70541
 C2623 C 0.70446 0.58458 0.70471
 N2624 N 0.69957 0.57946 0.71517
 N2625 N 0.70437 0.56907 0.71999
 C2626 C 0.71425 0.56332 0.71453
 N2627 N 0.71906 0.56838 0.70400
 N2628 N 0.71426 0.57877 0.69918
 C2629 C 0.72028 0.55241 0.72051
 C2630 C 0.73091 0.54684 0.71518
 C2631 C 0.73769 0.53784 0.72173
 C2632 C 0.73390 0.53425 0.73366
 C2633 C 0.72293 0.53919 0.73870
 C2634 C 0.71611 0.54814 0.73216
 H2635 H 0.71263 0.59755 0.68439
 H2636 H 0.70474 0.61710 0.67628
 H2637 H 0.67706 0.61812 0.70550
 H2638 H 0.68499 0.59854 0.71358
 H2639 H 0.73432 0.54982 0.70618
 H2640 H 0.74623 0.53417 0.71779
 H2641 H 0.71996 0.53655 0.74796
 H2642 H 0.70792 0.55212 0.73650
 C2643 C 0.69940 0.09637 0.20005
 C2644 C 0.68982 0.10292 0.20613
 C2645 C 0.68538 0.11420 0.20137
 C2646 C 0.69040 0.11925 0.19039
 C2647 C 0.69999 0.11269 0.18431
 C2648 C 0.70443 0.10140 0.18908
 C2649 C 0.70422 0.08451 0.20528
 N2650 N 0.71361 0.07819 0.19959
 N2651 N 0.71821 0.06777 0.20455
 C2652 C 0.71358 0.06320 0.21539
 N2653 N 0.70411 0.06946 0.22100
 N2654 N 0.69952 0.07986 0.21604
 C2655 C 0.71943 0.05229 0.22154
 C2656 C 0.71571 0.04873 0.23358
 C2657 C 0.72248 0.03981 0.24019
 C2658 C 0.73294 0.03414 0.23482
 C2659 C 0.73621 0.03700 0.22255
 C2660 C 0.72950 0.04601 0.21594
 H2661 H 0.68574 0.09936 0.21462
 H2662 H 0.67804 0.11893 0.20639
 H2663 H 0.70408 0.11620 0.17582
 H2664 H 0.71183 0.09662 0.18415
 H2665 H 0.70794 0.05327 0.23814
 H2666 H 0.71992 0.03773 0.24971
 H2667 H 0.74436 0.03277 0.21834
 H2668 H 0.73255 0.04842 0.20665
 C2669 C 0.19958 0.59640 0.19910
 C2670 C 0.20558 0.60254 0.18925
 C2671 C 0.20096 0.61381 0.18465
 C2672 C 0.19019 0.61927 0.18979
 C2673 C 0.18414 0.61307 0.19961
 C2674 C 0.18878 0.60179 0.20422
 C2675 C 0.20471 0.58458 0.20414
 N2676 N 0.19926 0.57880 0.21398
 N2677 N 0.20416 0.56844 0.21875
 C2678 C 0.21469 0.56337 0.21386
 N2679 N 0.22006 0.56908 0.20394
 N2680 N 0.21516 0.57944 0.19918
 C2681 C 0.22079 0.55248 0.21981
 C2682 C 0.23241 0.54820 0.21547
 C2683 C 0.23910 0.53926 0.22215
 C2684 C 0.23422 0.53433 0.23317
 C2685 C 0.22231 0.53794 0.23714
 C2686 C 0.21562 0.54694 0.23050
 H2687 H 0.21394 0.59870 0.18509
 H2688 H 0.20594 0.61824 0.17712
 H2689 H 0.17579 0.61688 0.20379
 H2690 H 0.18392 0.59732 0.21184
 H2691 H 0.23664 0.55216 0.20723
 H2692 H 0.24834 0.53661 0.21905
 H2693 H 0.21850 0.53429 0.24573
 H2694 H 0.20666 0.54994 0.23404
 C2695 C 0.19928 0.09605 0.69973
 C2696 C 0.18930 0.10222 0.70555
 C2697 C 0.18475 0.11348 0.70084
 C2698 C 0.19008 0.11890 0.69019
 C2699 C 0.20004 0.11268 0.68434
 C2700 C 0.20458 0.10141 0.68905
 C2701 C 0.20426 0.08423 0.70491
 N2702 N 0.21399 0.07828 0.69940
 N2703 N 0.21874 0.06792 0.70433
 C2704 C 0.21394 0.06304 0.71496
 N2705 N 0.20414 0.06893 0.72039
 N2706 N 0.19939 0.07928 0.71546
 C2707 C 0.21992 0.05217 0.72107
 C2708 C 0.21583 0.04815 0.73283
 C2709 C 0.22260 0.03924 0.73947
 C2710 C 0.23346 0.03407 0.73438
 C2711 C 0.23714 0.03741 0.72235
 C2712 C 0.23041 0.04638 0.71572
 H2713 H 0.18500 0.09839 0.71382
 H2714 H 0.17708 0.11791 0.70564
 H2715 H 0.20441 0.11646 0.67611
 H2716 H 0.21230 0.09694 0.68433
 H2717 H 0.20773 0.05230 0.73719
 H2718 H 0.21971 0.03678 0.74880
 H2719 H 0.24559 0.03356 0.71837
 H2720 H 0.23376 0.04916 0.70664
 C2721 C 0.30088 0.59646 0.29976
 C2722 C 0.31042 0.60305 0.29368
 C2723 C 0.31481 0.61433 0.29844
 C2724 C 0.30979 0.61935 0.30943
 C2725 C 0.30025 0.61273 0.31553
 C2726 C 0.29585 0.60143 0.31076
 C2727 C 0.29608 0.58462 0.29449
 N2728 N 0.28668 0.57829 0.30013
 N2729 N 0.28207 0.56792 0.29509
 C2730 C 0.28669 0.56342 0.28423
 N2731 N 0.29618 0.56968 0.27867
 N2732 N 0.30079 0.58003 0.28370
 C2733 C 0.28082 0.55256 0.27802
 C2734 C 0.28457 0.54903 0.26599
 C2735 C 0.27783 0.54011 0.25935
 C2736 C 0.26737 0.53442 0.26469
 C2737 C 0.26405 0.53728 0.27695
 C2738 C 0.27072 0.54629 0.28358
 H2739 H 0.31449 0.59954 0.28516
 H2740 H 0.32212 0.61909 0.29341
 H2741 H 0.29615 0.61620 0.32403
 H2742 H 0.28847 0.59662 0.31568
 H2743 H 0.29237 0.55356 0.26145
 H2744 H 0.28042 0.53804 0.24984
 H2745 H 0.25589 0.53305 0.28113
 H2746 H 0.26763 0.54871 0.29285
 C2747 C 0.30030 0.09635 0.80037
 C2748 C 0.29429 0.10246 0.81026
 C2749 C 0.29885 0.11376 0.81480
 C2750 C 0.30953 0.11930 0.80959
 C2751 C 0.31554 0.11317 0.79969
 C2752 C 0.31097 0.10185 0.79514
 C2753 C 0.29531 0.08445 0.79543
 N2754 N 0.30084 0.07867 0.78564
 N2755 N 0.29603 0.06825 0.78090
 C2756 C 0.28552 0.06314 0.78578
 N2757 N 0.28009 0.06885 0.79566
 N2758 N 0.28488 0.07926 0.80039
 C2759 C 0.27948 0.05225 0.77981
 C2760 C 0.26787 0.04791 0.78414
 C2761 C 0.26122 0.03899 0.77742
 C2762 C 0.26612 0.03411 0.76639
 C2763 C 0.27801 0.03778 0.76243
 C2764 C 0.28467 0.04678 0.76910
 H2765 H 0.28601 0.09853 0.81448
 H2766 H 0.29391 0.11813 0.82240
 H2767 H 0.32380 0.11705 0.79542
 H2768 H 0.31581 0.09744 0.78748
 H2769 H 0.26364 0.05183 0.79239
 H2770 H 0.25198 0.03631 0.78051
 H2771 H 0.28184 0.03418 0.75384
 H2772 H 0.29362 0.04982 0.76555
 C2773 C 0.80031 0.59636 0.80031
 C2774 C 0.81087 0.60196 0.79495
 C2775 C 0.81549 0.61324 0.79956
 C2776 C 0.80966 0.61922 0.80964
 C2777 C 0.79909 0.61358 0.81499
 C2778 C 0.79449 0.60232 0.81039
 C2779 C 0.79525 0.58452 0.79530
 N2780 N 0.78489 0.57927 0.80035
 N2781 N 0.78004 0.56890 0.79558
 C2782 C 0.78536 0.56329 0.78558
 N2783 N 0.79580 0.56846 0.78062
 N2784 N 0.80065 0.57884 0.78539
 C2785 C 0.77931 0.55240 0.77961
 C2786 C 0.78440 0.54707 0.76879
 C2787 C 0.77776 0.53806 0.76214
 C2788 C 0.76598 0.53421 0.76624
 C2789 C 0.76116 0.53894 0.77737
 C2790 C 0.76780 0.54791 0.78406
 H2791 H 0.81558 0.59766 0.78715
 H2792 H 0.82365 0.61721 0.79517
 H2793 H 0.79429 0.61782 0.82274
 H2794 H 0.78631 0.59831 0.81473
 H2795 H 0.79326 0.55024 0.76514
 H2796 H 0.78151 0.53457 0.75347
 H2797 H 0.75200 0.53613 0.78056
 H2798 H 0.76364 0.55172 0.79240
 C2799 C 0.80045 0.09633 0.30028
 C2800 C 0.79447 0.10242 0.31019
 C2801 C 0.79906 0.11370 0.31478
 C2802 C 0.80978 0.11921 0.30960
 C2803 C 0.81576 0.11310 0.29968
 C2804 C 0.81116 0.10181 0.29508
 C2805 C 0.79540 0.08447 0.29529
 N2806 N 0.80089 0.07870 0.28547
 N2807 N 0.79604 0.06831 0.28072
 C2808 C 0.78553 0.06321 0.28561
 N2809 N 0.78013 0.06892 0.29551
 N2810 N 0.78497 0.07930 0.30025
 C2811 C 0.77948 0.05231 0.27966
 C2812 C 0.76788 0.04798 0.28402
 C2813 C 0.76122 0.03904 0.27734
 C2814 C 0.76610 0.03413 0.26631
 C2815 C 0.77799 0.03779 0.26232
 C2816 C 0.78465 0.04680 0.26896
 H2817 H 0.78619 0.09851 0.31441
 H2818 H 0.79414 0.11804 0.32240
 H2819 H 0.82405 0.11696 0.29544
 H2820 H 0.81599 0.09740 0.28742
 H2821 H 0.76366 0.05191 0.29228
 H2822 H 0.75199 0.03636 0.28045
 H2823 H 0.78180 0.03416 0.25373
 H2824 H 0.79359 0.04984 0.26539
 C2825 C 0.69953 0.40368 0.30020
 C2826 C 0.70524 0.39789 0.31045
 C2827 C 0.70073 0.38656 0.31502
 C2828 C 0.69039 0.38071 0.30946
 C2829 C 0.68469 0.38653 0.29921
 C2830 C 0.68921 0.39786 0.29464
 C2831 C 0.70448 0.41557 0.29518
 N2832 N 0.69920 0.42099 0.28504
 N2833 N 0.70395 0.43140 0.28022
 C2834 C 0.71414 0.43686 0.28536
 N2835 N 0.71932 0.43153 0.29558
 N2836 N 0.71458 0.42112 0.30040
 C2837 C 0.72014 0.44774 0.27931
 C2838 C 0.73131 0.45269 0.28411
 C2839 C 0.73802 0.46160 0.27741
 C2840 C 0.73361 0.46581 0.26590
 C2841 C 0.72212 0.46152 0.26143
 C2842 C 0.71540 0.45258 0.26810
 H2843 H 0.71324 0.40208 0.31495
 H2844 H 0.70541 0.38244 0.32291
 H2845 H 0.67673 0.38239 0.29464
 H2846 H 0.68461 0.40203 0.28671
 H2847 H 0.73518 0.44927 0.29275
 H2848 H 0.74695 0.46476 0.28090
 H2849 H 0.71867 0.46464 0.25249
 H2850 H 0.70679 0.44907 0.26418
 C2851 C 0.69967 0.90370 0.80026
 C2852 C 0.70560 0.89766 0.81023
 C2853 C 0.70102 0.88638 0.81484
 C2854 C 0.69037 0.88082 0.80960
 C2855 C 0.68443 0.88687 0.79961
 C2856 C 0.68903 0.89816 0.79500
 C2857 C 0.70468 0.91557 0.79527
 N2858 N 0.69915 0.92134 0.78547
 N2859 N 0.70395 0.93176 0.78072
 C2860 C 0.71445 0.93688 0.78560
 N2861 N 0.71989 0.93118 0.79548
 N2862 N 0.71510 0.92077 0.80023
 C2863 C 0.72046 0.94780 0.77963
 C2864 C 0.73206 0.95216 0.78393
 C2865 C 0.73868 0.96111 0.77721
 C2866 C 0.73373 0.96599 0.76619
 C2867 C 0.72184 0.96229 0.76226
 C2868 C 0.71523 0.95328 0.76894
 H2869 H 0.71385 0.90162 0.81449
 H2870 H 0.70590 0.88208 0.82251
 H2871 H 0.67621 0.88296 0.79531
 H2872 H 0.68424 0.90252 0.78728
 H2873 H 0.73633 0.94823 0.79217
 H2874 H 0.74792 0.96381 0.78027
 H2875 H 0.71799 0.96590 0.75367
 H2876 H 0.70628 0.95022 0.76541
 C2877 C 0.19933 0.40344 0.79963
 C2878 C 0.20457 0.39825 0.81044
 C2879 C 0.20006 0.38701 0.81526
 C2880 C 0.19021 0.38066 0.80939
 C2881 C 0.18499 0.38588 0.79858
 C2882 C 0.18949 0.39710 0.79376
 C2883 C 0.20420 0.41528 0.79441
 N2884 N 0.19930 0.42015 0.78383
 N2885 N 0.20392 0.43057 0.77892
 C2886 C 0.21360 0.43660 0.78440
 N2887 N 0.21842 0.43179 0.79505
 N2888 N 0.21380 0.42137 0.79996
 C2889 C 0.21947 0.44754 0.77833
 C2890 C 0.22993 0.45335 0.78370
 C2891 C 0.23659 0.46238 0.77711
 C2892 C 0.23287 0.46578 0.76510
 C2893 C 0.22204 0.46061 0.76000
 C2894 C 0.21533 0.45161 0.76659
 H2895 H 0.21218 0.40285 0.81518
 H2896 H 0.20432 0.38339 0.82362
 H2897 H 0.17742 0.38133 0.79374
 H2898 H 0.18527 0.40078 0.78539
 H2899 H 0.23331 0.45053 0.79275
 H2900 H 0.24502 0.46625 0.78110
 H2901 H 0.21913 0.46310 0.75068
 H2902 H 0.20724 0.44745 0.76224
 C2903 C 0.19915 0.90373 0.29997
 C2904 C 0.18964 0.89717 0.29381
 C2905 C 0.18521 0.88588 0.29852
 C2906 C 0.19017 0.88081 0.30951
 C2907 C 0.19966 0.88740 0.31570
 C2908 C 0.20409 0.89872 0.31099
 C2909 C 0.20404 0.91558 0.29478
 N2910 N 0.21338 0.92187 0.30056
 N2911 N 0.21808 0.93225 0.29563
 C2912 C 0.21361 0.93681 0.28472
 N2913 N 0.20418 0.93059 0.27902
 N2914 N 0.19949 0.92022 0.28395
 C2915 C 0.21957 0.94769 0.27862
 C2916 C 0.21594 0.95125 0.26657
 C2917 C 0.22278 0.96013 0.25999
 C2918 C 0.23322 0.96578 0.26541
 C2919 C 0.23640 0.96293 0.27771
 C2920 C 0.22963 0.95393 0.28428
 H2921 H 0.18563 0.90073 0.28528
 H2922 H 0.17792 0.88114 0.29344
 H2923 H 0.20370 0.88390 0.32422
 H2924 H 0.21143 0.90351 0.31598
 H2925 H 0.20818 0.94675 0.26195
 H2926 H 0.22028 0.96220 0.25045
 H2927 H 0.24452 0.96716 0.28197
 H2928 H 0.23261 0.95150 0.29359
 C2929 C 0.40347 0.30057 0.69999
 C2930 C 0.39689 0.31007 0.70616
 C2931 C 0.38560 0.31452 0.70143
 C2932 C 0.38057 0.30960 0.69041
 C2933 C 0.38718 0.30011 0.68423
 C2934 C 0.39848 0.29565 0.68896
 C2935 C 0.41535 0.29573 0.70518
 N2936 N 0.42174 0.28648 0.69937
 N2937 N 0.43216 0.28185 0.70431
 C2938 C 0.43666 0.28631 0.71524
 N2939 N 0.43032 0.29564 0.72098
 N2940 N 0.41991 0.30026 0.71605
 C2941 C 0.44762 0.28045 0.72130
 C2942 C 0.45107 0.28393 0.73343
 C2943 C 0.46001 0.27708 0.73994
 C2944 C 0.46579 0.26679 0.73438
 C2945 C 0.46308 0.26382 0.72200
 C2946 C 0.45406 0.27061 0.71549
 H2947 H 0.40045 0.31408 0.71468
 H2948 H 0.38084 0.32180 0.70651
 H2949 H 0.38370 0.29611 0.67569
 H2950 H 0.40330 0.28834 0.68395
 H2951 H 0.44644 0.29155 0.73814
 H2952 H 0.46200 0.27944 0.74953
 H2953 H 0.46743 0.25583 0.71763
 H2954 H 0.45174 0.26778 0.70611
 C2955 C 0.40365 0.80051 0.19940
 C2956 C 0.39812 0.81115 0.20467
 C2957 C 0.38682 0.81576 0.20006
 C2958 C 0.38075 0.80984 0.19008
 C2959 C 0.38632 0.79920 0.18484
 C2960 C 0.39761 0.79460 0.18943
 C2961 C 0.41552 0.79545 0.20441
 N2962 N 0.42075 0.78508 0.19939
 N2963 N 0.43112 0.78022 0.20417
 C2964 C 0.43675 0.78553 0.21415
 N2965 N 0.43161 0.79600 0.21908
 N2966 N 0.42123 0.80086 0.21430
 C2967 C 0.44762 0.77943 0.22014
 C2968 C 0.45302 0.78450 0.23094
 C2969 C 0.46200 0.77779 0.23759
 C2970 C 0.46573 0.76597 0.23352
 C2971 C 0.46092 0.76118 0.22242
 C2972 C 0.45201 0.76789 0.21572
 H2973 H 0.40249 0.81592 0.21238
 H2974 H 0.38290 0.82398 0.20436
 H2975 H 0.38202 0.79432 0.17717
 H2976 H 0.40157 0.78636 0.18517
 H2977 H 0.44993 0.79340 0.23456
 H2978 H 0.46555 0.78152 0.24625
 H2979 H 0.46364 0.75199 0.21925
 H2980 H 0.44814 0.76374 0.20740
 C2981 C 0.90351 0.30021 0.19920
 C2982 C 0.89749 0.29441 0.18916
 C2983 C 0.88618 0.29902 0.18463
 C2984 C 0.88057 0.30958 0.19000
 C2985 C 0.88662 0.31540 0.20005
 C2986 C 0.89794 0.31077 0.20459
 C2987 C 0.91540 0.29513 0.20414
 N2988 N 0.92110 0.30047 0.21408
 N2989 N 0.93151 0.29560 0.21879
 C2990 C 0.93670 0.28521 0.21375
 N2991 N 0.93108 0.27996 0.20373
 N2992 N 0.92067 0.28483 0.19902
 C2993 C 0.94761 0.27911 0.21968
 C2994 C 0.95214 0.26766 0.21514
 C2995 C 0.96109 0.26094 0.22180
 C2996 C 0.96577 0.26563 0.23301
 C2997 C 0.96188 0.27737 0.23720
 C2998 C 0.95289 0.28408 0.23057
 H2999 H 0.90148 0.28624 0.18479
 H3000 H 0.88189 0.29423 0.17690
 H3001 H 0.88267 0.32354 0.20446
 H3002 H 0.90230 0.31546 0.21236
 H3003 H 0.94837 0.26360 0.20674
 H3004 H 0.96394 0.25183 0.21854
 H3005 H 0.96533 0.28103 0.24593
 H3006 H 0.94971 0.29290 0.23429
 C3007 C 0.90352 0.80083 0.69972
 C3008 C 0.89812 0.79553 0.68907
 C3009 C 0.88684 0.80008 0.68438
 C3010 C 0.88065 0.81005 0.69022
 C3011 C 0.88607 0.81535 0.70088
 C3012 C 0.89735 0.81079 0.70557
 C3013 C 0.91538 0.79587 0.70483
 N3014 N 0.92041 0.80074 0.71534
 N3015 N 0.93079 0.79598 0.72020
 C3016 C 0.93663 0.78616 0.71475
 N3017 N 0.93168 0.78137 0.70415
 N3018 N 0.92129 0.78614 0.69929
 C3019 C 0.94751 0.78015 0.72080
 C3020 C 0.95318 0.76958 0.71547
 C3021 C 0.96218 0.76284 0.72206
 C3022 C 0.96567 0.76659 0.73402
 C3023 C 0.96059 0.77748 0.73909
 C3024 C 0.95165 0.78427 0.73251
 H3025 H 0.90258 0.78782 0.68434
 H3026 H 0.88305 0.79574 0.67614
 H3027 H 0.88165 0.82301 0.70569
 H3028 H 0.90120 0.81508 0.71383
 H3029 H 0.95028 0.76619 0.70644
 H3030 H 0.96592 0.75434 0.71811
 H3031 H 0.96314 0.78040 0.74839
 H3032 H 0.94757 0.79240 0.73686
 C3033 C 0.59642 0.30032 0.30028
 C3034 C 0.60265 0.29423 0.31004
 C3035 C 0.61396 0.29883 0.31458
 C3036 C 0.61935 0.30964 0.30949
 C3037 C 0.61309 0.31573 0.29972
 C3038 C 0.60178 0.31112 0.29518
 C3039 C 0.58454 0.29527 0.29531
 N3040 N 0.57863 0.30089 0.28564
 N3041 N 0.56823 0.29606 0.28088
 C3042 C 0.56326 0.28543 0.28563
 N3043 N 0.56909 0.27990 0.29539
 N3044 N 0.57949 0.28473 0.30014
 C3045 C 0.55240 0.27936 0.27962
 C3046 C 0.54836 0.26757 0.28369
 C3047 C 0.53950 0.26090 0.27690
 C3048 C 0.53437 0.26599 0.26607
 C3049 C 0.53771 0.27807 0.26239
 C3050 C 0.54667 0.28472 0.26912
 H3051 H 0.59884 0.28586 0.31417
 H3052 H 0.61844 0.29381 0.32206
 H3053 H 0.61686 0.32408 0.29556
 H3054 H 0.59725 0.31603 0.28763
 H3055 H 0.55245 0.26320 0.29180
 H3056 H 0.53706 0.25154 0.27978
 H3057 H 0.53388 0.28205 0.25397
 H3058 H 0.54947 0.29382 0.26579
 C3059 C 0.59640 0.80054 0.80029
 C3060 C 0.60231 0.79475 0.81043
 C3061 C 0.61359 0.79933 0.81503
 C3062 C 0.61930 0.80982 0.80963
 C3063 C 0.61337 0.81561 0.79949
 C3064 C 0.60208 0.81102 0.79487
 C3065 C 0.58454 0.79551 0.79528
 N3066 N 0.57899 0.80079 0.78522
 N3067 N 0.56860 0.79596 0.78044
 C3068 C 0.56327 0.78568 0.78555
 N3069 N 0.56874 0.78050 0.79570
 N3070 N 0.57913 0.78532 0.80047
 C3071 C 0.55239 0.77961 0.77959
 C3072 C 0.54763 0.76835 0.78434
 C3073 C 0.53868 0.76162 0.77772
 C3074 C 0.53423 0.76611 0.76634
 C3075 C 0.53834 0.77768 0.76191
 C3076 C 0.54732 0.78442 0.76850
 H3077 H 0.59824 0.78663 0.81481
 H3078 H 0.61779 0.79457 0.82283
 H3079 H 0.61739 0.82371 0.79505
 H3080 H 0.59781 0.81570 0.78703
 H3081 H 0.55123 0.76443 0.79289
 H3082 H 0.53567 0.75263 0.78118
 H3083 H 0.53505 0.78118 0.75305
 H3084 H 0.55068 0.79310 0.76462
 C3085 C 0.09646 0.30072 0.79967
 C3086 C 0.10301 0.31030 0.79360
 C3087 C 0.11423 0.31480 0.79843
 C3088 C 0.11924 0.30983 0.80945
 C3089 C 0.11268 0.30024 0.81552
 C3090 C 0.10144 0.29574 0.81068
 C3091 C 0.08463 0.29586 0.79442
 N3092 N 0.07839 0.28641 0.80006
 N3093 N 0.06797 0.28180 0.79512
 C3094 C 0.06333 0.28649 0.78434
 N3095 N 0.06951 0.29602 0.77877
 N3096 N 0.07992 0.30062 0.78371
 C3097 C 0.05241 0.28065 0.77821
 C3098 C 0.04874 0.28451 0.76625
 C3099 C 0.03979 0.27780 0.75963
 C3100 C 0.03420 0.26726 0.76492
 C3101 C 0.03716 0.26385 0.77713
 C3102 C 0.04621 0.27050 0.78375
 H3103 H 0.09951 0.31432 0.78505
 H3104 H 0.11895 0.32214 0.79343
 H3105 H 0.11613 0.29620 0.82406
 H3106 H 0.09666 0.28833 0.81559
 H3107 H 0.05320 0.29235 0.76175
 H3108 H 0.03762 0.28048 0.75017
 H3109 H 0.03297 0.25566 0.78128
 H3110 H 0.04872 0.26734 0.79297
 C3111 C 0.09629 0.80101 0.29978
 C3112 C 0.10285 0.81057 0.29369
 C3113 C 0.11413 0.81501 0.29846
 C3114 C 0.11919 0.81001 0.30944
 C3115 C 0.11259 0.80047 0.31556
 C3116 C 0.10129 0.79603 0.31079
 C3117 C 0.08446 0.79612 0.29453
 N3118 N 0.07812 0.78681 0.30031
 N3119 N 0.06775 0.78211 0.29534
 C3120 C 0.06325 0.78655 0.28439
 N3121 N 0.06953 0.79594 0.27868
 N3122 N 0.07988 0.80064 0.28365
 C3123 C 0.05236 0.78060 0.27829
 C3124 C 0.04889 0.78408 0.26616
 C3125 C 0.03996 0.77724 0.25964
 C3126 C 0.03417 0.76695 0.26520
 C3127 C 0.03696 0.76392 0.27755
 C3128 C 0.04600 0.77068 0.28406
 H3129 H 0.09930 0.81463 0.28518
 H3130 H 0.11886 0.82235 0.29344
 H3131 H 0.11608 0.79638 0.32406
 H3132 H 0.09651 0.78865 0.31572
 H3133 H 0.05350 0.79173 0.26146
 H3134 H 0.03796 0.77961 0.25005
 H3135 H 0.03265 0.75590 0.28191
 H3136 H 0.04836 0.76780 0.29341
 C3137 C 0.59634 0.69934 0.69986
 C3138 C 0.60180 0.70480 0.68930
 C3139 C 0.61310 0.70031 0.68460
 C3140 C 0.61925 0.69024 0.69032
 C3141 C 0.61374 0.68476 0.70086
 C3142 C 0.60245 0.68926 0.70556
 C3143 C 0.58449 0.70428 0.70502
 N3144 N 0.57940 0.69924 0.71543
 N3145 N 0.56902 0.70397 0.72035
 C3146 C 0.56326 0.71393 0.71505
 N3147 N 0.56829 0.71889 0.70457
 N3148 N 0.57867 0.71416 0.69965
 C3149 C 0.55237 0.71987 0.72115
 C3150 C 0.54685 0.73062 0.71602
 C3151 C 0.53787 0.73729 0.72270
 C3152 C 0.53423 0.73329 0.73454
 C3153 C 0.53912 0.72220 0.73939
 C3154 C 0.54806 0.71549 0.73271
 H3155 H 0.59738 0.71260 0.68467
 H3156 H 0.61695 0.70480 0.67647
 H3157 H 0.61811 0.67700 0.70555
 H3158 H 0.59854 0.68483 0.71373
 H3159 H 0.54986 0.73420 0.70711
 H3160 H 0.53423 0.74592 0.71891
 H3161 H 0.53644 0.71907 0.74858
 H3162 H 0.55200 0.70720 0.73690
 C3163 C 0.59658 0.19920 0.19995
 C3164 C 0.60158 0.20414 0.18892
 C3165 C 0.61289 0.19971 0.18419
 C3166 C 0.61950 0.19020 0.19035
 C3167 C 0.61447 0.18526 0.20138
 C3168 C 0.60317 0.18970 0.20611
 C3169 C 0.58471 0.20404 0.20514
 N3170 N 0.58013 0.19949 0.21600
 N3171 N 0.56971 0.20411 0.22092
 C3172 C 0.56337 0.21343 0.21518
 N3173 N 0.56787 0.21790 0.20424
 N3174 N 0.57831 0.21329 0.19932
 C3175 C 0.55245 0.21933 0.22127
 C3176 C 0.54603 0.22921 0.21549
 C3177 C 0.53704 0.23601 0.22204
 C3178 C 0.53433 0.23301 0.23442
 C3179 C 0.54012 0.22271 0.23996
 C3180 C 0.54903 0.21585 0.23341
 H3181 H 0.59677 0.21148 0.18393
 H3182 H 0.61637 0.20372 0.17565
 H3183 H 0.61924 0.17799 0.20646
 H3184 H 0.59964 0.18569 0.21464
 H3185 H 0.54834 0.23206 0.20612
 H3186 H 0.53270 0.24402 0.21769
 H3187 H 0.53813 0.22033 0.24954
 H3188 H 0.55365 0.20821 0.23811
 C3189 C 0.09627 0.69961 0.19930
 C3190 C 0.10236 0.70564 0.18941
 C3191 C 0.11364 0.70104 0.18477
 C3192 C 0.11915 0.69030 0.18989
 C3193 C 0.11302 0.68425 0.19975
 C3194 C 0.10173 0.68886 0.20440
 C3195 C 0.08444 0.70468 0.20438
 N3196 N 0.07864 0.69911 0.21414
 N3197 N 0.06826 0.70394 0.21896
 C3198 C 0.06321 0.71454 0.21421
 N3199 N 0.06894 0.72003 0.20437
 N3200 N 0.07931 0.71520 0.19955
 C3201 C 0.05230 0.72055 0.22023
 C3202 C 0.04807 0.73225 0.21608
 C3203 C 0.03912 0.73883 0.22285
 C3204 C 0.03413 0.73376 0.23377
 C3205 C 0.03767 0.72177 0.23752
 C3206 C 0.04669 0.71519 0.23078
 H3207 H 0.09846 0.71397 0.18527
 H3208 H 0.11801 0.70603 0.17720
 H3209 H 0.11687 0.67593 0.20393
 H3210 H 0.09732 0.68399 0.21204
 H3211 H 0.05208 0.73662 0.20794
 H3212 H 0.03650 0.74812 0.21990
 H3213 H 0.03396 0.71780 0.24600
 H3214 H 0.04964 0.70615 0.23417
 C3215 C 0.09635 0.19963 0.69931
 C3216 C 0.10258 0.20559 0.68949
 C3217 C 0.11383 0.20089 0.68493
 C3218 C 0.11919 0.19008 0.69006
 C3219 C 0.11293 0.18409 0.69988
 C3220 C 0.10166 0.18881 0.70446
 C3221 C 0.08452 0.20482 0.70427
 N3222 N 0.07865 0.19944 0.71409
 N3223 N 0.06827 0.20440 0.71878
 C3224 C 0.06329 0.21494 0.71383
 N3225 N 0.06909 0.22024 0.70393
 N3226 N 0.07945 0.21528 0.69924
 C3227 C 0.05239 0.22110 0.71970
 C3228 C 0.04821 0.23275 0.71534
 C3229 C 0.03926 0.23949 0.72195
 C3230 C 0.03421 0.23463 0.73292
 C3231 C 0.03772 0.22271 0.73692
 C3232 C 0.04674 0.21597 0.73035
 H3233 H 0.09881 0.21398 0.68532
 H3234 H 0.11831 0.20585 0.67741
 H3235 H 0.11667 0.17572 0.70406
 H3236 H 0.09713 0.18399 0.71206
 H3237 H 0.05227 0.23695 0.70713
 H3238 H 0.03670 0.24875 0.71885
 H3239 H 0.03398 0.21891 0.74547
 H3240 H 0.04966 0.20699 0.73392
 C3241 C 0.40354 0.69914 0.29981
 C3242 C 0.39698 0.68959 0.29373
 C3243 C 0.38569 0.68517 0.29848
 C3244 C 0.38062 0.69019 0.30945
 C3245 C 0.38720 0.69975 0.31554
 C3246 C 0.39851 0.70417 0.31078
 C3247 C 0.41540 0.70395 0.29458
 N3248 N 0.42171 0.71334 0.30025
 N3249 N 0.43210 0.71796 0.29526
 C3250 C 0.43664 0.71339 0.28439
 N3251 N 0.43040 0.70391 0.27879
 N3252 N 0.42003 0.69928 0.28379
 C3253 C 0.44751 0.71928 0.27821
 C3254 C 0.45109 0.71556 0.26618
 C3255 C 0.46003 0.72232 0.25958
 C3256 C 0.46569 0.73277 0.26495
 C3257 C 0.46278 0.73606 0.27720
 C3258 C 0.45376 0.72937 0.28380
 H3259 H 0.40053 0.68552 0.28523
 H3260 H 0.38096 0.67785 0.29345
 H3261 H 0.38368 0.70386 0.32401
 H3262 H 0.40328 0.71157 0.31570
 H3263 H 0.44657 0.70779 0.26162
 H3264 H 0.46213 0.71975 0.25007
 H3265 H 0.46699 0.74421 0.28140
 H3266 H 0.45131 0.73243 0.29307
 C3267 C 0.40358 0.19960 0.80033
 C3268 C 0.39738 0.20567 0.81011
 C3269 C 0.38608 0.20109 0.81468
 C3270 C 0.38064 0.19032 0.80958
 C3271 C 0.38686 0.18424 0.79979
 C3272 C 0.39817 0.18883 0.79522
 C3273 C 0.41547 0.20462 0.79536
 N3274 N 0.42136 0.19901 0.78567
 N3275 N 0.43177 0.20383 0.78091
 C3276 C 0.43677 0.21444 0.78566
 N3277 N 0.43096 0.21995 0.79544
 N3278 N 0.42056 0.21514 0.80020
 C3279 C 0.44764 0.22050 0.77965
 C3280 C 0.45172 0.23228 0.78371
 C3281 C 0.46061 0.23891 0.77692
 C3282 C 0.46573 0.23381 0.76609
 C3283 C 0.46233 0.22176 0.76241
 C3284 C 0.45335 0.21513 0.76915
 H3285 H 0.40123 0.21403 0.81424
 H3286 H 0.38163 0.20609 0.82219
 H3287 H 0.38306 0.17590 0.79562
 H3288 H 0.40266 0.18393 0.78764
 H3289 H 0.44762 0.23666 0.79180
 H3290 H 0.46309 0.24826 0.77980
 H3291 H 0.46612 0.21778 0.75397
 H3292 H 0.45051 0.20605 0.76581
 C3293 C 0.90355 0.69973 0.80027
 C3294 C 0.89804 0.68909 0.79498
 C3295 C 0.88675 0.68445 0.79957
 C3296 C 0.88067 0.69034 0.80957
 C3297 C 0.88621 0.70098 0.81483
 C3298 C 0.89749 0.70561 0.81025
 C3299 C 0.91541 0.70480 0.79529
 N3300 N 0.92059 0.71521 0.80029
 N3301 N 0.93097 0.72007 0.79554
 C3302 C 0.93667 0.71472 0.78561
 N3303 N 0.93157 0.70423 0.78069
 N3304 N 0.92118 0.69936 0.78544
 C3305 C 0.94755 0.72079 0.77964
 C3306 C 0.95300 0.71564 0.76890
 C3307 C 0.96199 0.72230 0.76222
 C3308 C 0.96570 0.73415 0.76622
 C3309 C 0.96085 0.73903 0.77727
 C3310 C 0.95191 0.73237 0.78399
 H3311 H 0.90242 0.68435 0.78725
 H3312 H 0.88286 0.67624 0.79525
 H3313 H 0.88189 0.70583 0.82251
 H3314 H 0.90143 0.71384 0.81453
 H3315 H 0.94993 0.70672 0.76532
 H3316 H 0.96557 0.71850 0.75360
 H3317 H 0.96355 0.74824 0.78037
 H3318 H 0.94801 0.73658 0.79226
 C3319 C 0.90365 0.19967 0.30027
 C3320 C 0.89767 0.18956 0.29449
 C3321 C 0.88637 0.18496 0.29910
 C3322 C 0.88075 0.19037 0.30961
 C3323 C 0.88676 0.20048 0.31539
 C3324 C 0.89805 0.20506 0.31078
 C3325 C 0.91550 0.20470 0.29524
 N3326 N 0.92119 0.21461 0.30067
 N3327 N 0.93158 0.21943 0.29586
 C3328 C 0.93676 0.21451 0.28544
 N3329 N 0.93114 0.20452 0.28008
 N3330 N 0.92076 0.19970 0.28489
 C3331 C 0.94764 0.22056 0.27942
 C3332 C 0.95212 0.21616 0.26794
 C3333 C 0.96105 0.22292 0.26133
 C3334 C 0.96575 0.23410 0.26613
 C3335 C 0.96192 0.23816 0.27789
 C3336 C 0.95295 0.23142 0.28452
 H3337 H 0.90168 0.18519 0.28635
 H3338 H 0.88210 0.17718 0.29436
 H3339 H 0.88282 0.20490 0.32351
 H3340 H 0.90237 0.21288 0.31547
 H3341 H 0.94833 0.20780 0.26377
 H3342 H 0.96387 0.21975 0.25219
 H3343 H 0.96539 0.24686 0.28163
 H3344 H 0.94979 0.23503 0.29337
 C3345 C 0.30022 0.30059 0.59597
 C3346 C 0.31083 0.29522 0.60147
 C3347 C 0.31537 0.29965 0.61282
 C3348 C 0.30942 0.30958 0.61897
 C3349 C 0.29878 0.31492 0.61346
 C3350 C 0.29425 0.31048 0.60212
 C3351 C 0.29520 0.29570 0.58409
 N3352 N 0.28474 0.30068 0.57898
 N3353 N 0.27987 0.29592 0.56863
 C3354 C 0.28526 0.28600 0.56293
 N3355 N 0.29582 0.28112 0.56794
 N3356 N 0.30070 0.28588 0.57829
 C3357 C 0.27913 0.27997 0.55213
 C3358 C 0.28432 0.26924 0.54666
 C3359 C 0.27765 0.26253 0.53772
 C3360 C 0.26574 0.26647 0.53411
 C3361 C 0.26080 0.27750 0.53902
 C3362 C 0.26747 0.28425 0.54790
 H3363 H 0.31563 0.28752 0.59704
 H3364 H 0.32355 0.29524 0.61671
 H3365 H 0.29384 0.32250 0.61788
 H3366 H 0.28600 0.31480 0.59822
 H3367 H 0.29330 0.26570 0.54964
 H3368 H 0.28149 0.25392 0.53410
 H3369 H 0.25153 0.28056 0.53639
 H3370 H 0.26320 0.29250 0.55185
 C3371 C 0.30032 0.80046 0.09597
 C3372 C 0.31082 0.79501 0.10160
 C3373 C 0.31535 0.79953 0.11292
 C3374 C 0.30949 0.80961 0.11891
 C3375 C 0.29896 0.81503 0.11326
 C3376 C 0.29444 0.81051 0.10195
 C3377 C 0.29538 0.79553 0.08407
 N3378 N 0.28501 0.80054 0.07881
 N3379 N 0.28027 0.79579 0.06840
 C3380 C 0.28572 0.78586 0.06276
 N3381 N 0.29618 0.78094 0.06794
 N3382 N 0.30092 0.78569 0.07835
 C3383 C 0.27975 0.77984 0.05188
 C3384 C 0.28497 0.76904 0.04655
 C3385 C 0.27837 0.76226 0.03763
 C3386 C 0.26651 0.76621 0.03385
 C3387 C 0.26159 0.77734 0.03854
 C3388 C 0.26818 0.78416 0.04742
 H3389 H 0.31556 0.78722 0.09730
 H3390 H 0.32345 0.79507 0.11691
 H3391 H 0.29413 0.82276 0.11753
 H3392 H 0.28630 0.81490 0.09792
 H3393 H 0.29390 0.76551 0.04967
 H3394 H 0.28221 0.75360 0.03415
 H3395 H 0.25237 0.78042 0.03575
 H3396 H 0.26393 0.79249 0.05121
 C3397 C 0.80046 0.30021 0.09596
 C3398 C 0.81027 0.29421 0.10223
 C3399 C 0.81472 0.29883 0.11352
 C3400 C 0.80949 0.30960 0.11886
 C3401 C 0.79966 0.31560 0.11258
 C3402 C 0.79520 0.31096 0.10128
 C3403 C 0.79558 0.29510 0.08411
 N3404 N 0.78584 0.30061 0.07818
 N3405 N 0.78116 0.29570 0.06780
 C3406 C 0.78605 0.28510 0.06290
 N3407 N 0.79588 0.27968 0.06876
 N3408 N 0.80055 0.28459 0.07912
 C3409 C 0.78015 0.27899 0.05203
 C3410 C 0.78441 0.26728 0.04793
 C3411 C 0.77773 0.26061 0.03900
 C3412 C 0.76680 0.26560 0.03390
 C3413 C 0.76293 0.27758 0.03733
 C3414 C 0.76956 0.28425 0.04632
 H3415 H 0.81450 0.28586 0.09846
 H3416 H 0.82223 0.29387 0.11803
 H3417 H 0.79537 0.32391 0.11633
 H3418 H 0.78760 0.31581 0.09674
 H3419 H 0.79256 0.26297 0.05203
 H3420 H 0.78074 0.25130 0.03648
 H3421 H 0.75441 0.28147 0.03354
 H3422 H 0.76607 0.29327 0.04919
 C3423 C 0.80045 0.80034 0.59609
 C3424 C 0.81033 0.79439 0.60230
 C3425 C 0.81475 0.79898 0.61362
 C3426 C 0.80943 0.80966 0.61903
 C3427 C 0.79954 0.81562 0.61280
 C3428 C 0.79511 0.81102 0.60147
 C3429 C 0.79561 0.79527 0.58421
 N3430 N 0.78582 0.80073 0.57832
 N3431 N 0.78116 0.79585 0.56793
 C3432 C 0.78612 0.78532 0.56296
 N3433 N 0.79601 0.77995 0.56877
 N3434 N 0.80067 0.78483 0.57915
 C3435 C 0.78021 0.77919 0.55211
 C3436 C 0.78453 0.76752 0.54795
 C3437 C 0.77782 0.76079 0.53909
 C3438 C 0.76680 0.76569 0.53411
 C3439 C 0.76286 0.77764 0.53759
 C3440 C 0.76953 0.78437 0.54650
 H3441 H 0.81464 0.78612 0.59846
 H3442 H 0.82233 0.79406 0.61807
 H3443 H 0.79518 0.82386 0.61660
 H3444 H 0.78747 0.81583 0.59697
 H3445 H 0.79278 0.76329 0.55196
 H3446 H 0.78088 0.75151 0.53654
 H3447 H 0.75427 0.78146 0.53388
 H3448 H 0.76600 0.79337 0.54939
 C3449 C 0.30016 0.69956 0.40364
 C3450 C 0.29435 0.68946 0.39768
 C3451 C 0.29889 0.68497 0.38635
 C3452 C 0.30935 0.69046 0.38068
 C3453 C 0.31516 0.70056 0.38667
 C3454 C 0.31063 0.70505 0.39800
 C3455 C 0.29515 0.70449 0.41551
 N3456 N 0.30049 0.71449 0.42113
 N3457 N 0.29566 0.71923 0.43151
 C3458 C 0.28532 0.71415 0.43676
 N3459 N 0.28007 0.70406 0.43121
 N3460 N 0.28489 0.69933 0.42083
 C3461 C 0.27926 0.72011 0.44763
 C3462 C 0.26788 0.71549 0.45225
 C3463 C 0.26117 0.72219 0.46115
 C3464 C 0.26580 0.73351 0.46568
 C3465 C 0.27748 0.73778 0.46172
 C3466 C 0.28420 0.73111 0.45279
 H3467 H 0.28624 0.68502 0.40172
 H3468 H 0.29410 0.67721 0.38209
 H3469 H 0.32324 0.70507 0.38268
 H3470 H 0.31532 0.71287 0.40230
 H3471 H 0.26385 0.70701 0.44859
 H3472 H 0.25210 0.71886 0.46408
 H3473 H 0.28110 0.74659 0.46507
 H3474 H 0.29299 0.73487 0.44954
 C3475 C 0.30003 0.19933 0.90371
 C3476 C 0.29414 0.18939 0.89758
 C3477 C 0.29873 0.18493 0.88627
 C3478 C 0.30936 0.19030 0.88077
 C3479 C 0.31526 0.20024 0.88693
 C3480 C 0.31066 0.20470 0.89825
 C3481 C 0.29494 0.20423 0.91557
 N3482 N 0.30031 0.21413 0.92133
 N3483 N 0.29541 0.21883 0.93170
 C3484 C 0.28495 0.21381 0.93678
 N3485 N 0.27967 0.20383 0.93108
 N3486 N 0.28456 0.19913 0.92072
 C3487 C 0.27884 0.21971 0.94765
 C3488 C 0.26732 0.21519 0.95204
 C3489 C 0.26060 0.22183 0.96098
 C3490 C 0.26535 0.23298 0.96578
 C3491 C 0.27716 0.23713 0.96205
 C3492 C 0.28388 0.23053 0.95308
 H3493 H 0.28592 0.18503 0.90149
 H3494 H 0.29387 0.17729 0.88189
 H3495 H 0.32348 0.20463 0.88308
 H3496 H 0.31544 0.21238 0.90270
 H3497 H 0.26320 0.20685 0.94817
 H3498 H 0.25144 0.21860 0.96373
 H3499 H 0.28086 0.24581 0.96562
 H3500 H 0.29276 0.23422 0.95000
 C3501 C 0.80025 0.69964 0.90369
 C3502 C 0.81046 0.70536 0.89782
 C3503 C 0.81498 0.70084 0.88650
 C3504 C 0.80940 0.69048 0.88074
 C3505 C 0.79917 0.68477 0.88663
 C3506 C 0.79466 0.68929 0.89795
 C3507 C 0.79529 0.70459 0.91557
 N3508 N 0.78529 0.69920 0.92116
 N3509 N 0.78051 0.70395 0.93156
 C3510 C 0.78554 0.71429 0.93684
 N3511 N 0.79563 0.71960 0.93132
 N3512 N 0.80041 0.71485 0.92093
 C3513 C 0.77951 0.72026 0.94773
 C3514 C 0.78405 0.73164 0.95240
 C3515 C 0.77728 0.73825 0.96133
 C3516 C 0.76597 0.73352 0.96582
 C3517 C 0.76179 0.72184 0.96181
 C3518 C 0.76853 0.71522 0.95286
 H3519 H 0.81498 0.71337 0.90194
 H3520 H 0.82284 0.70554 0.88232
 H3521 H 0.79458 0.67679 0.88256
 H3522 H 0.78675 0.68466 0.90218
 H3523 H 0.79252 0.73574 0.94876
 H3524 H 0.78055 0.74733 0.96429
 H3525 H 0.75299 0.71816 0.96513
 H3526 H 0.76482 0.70644 0.94957
 C3527 C 0.80009 0.19941 0.40369
 C3528 C 0.79427 0.18936 0.39765
 C3529 C 0.79885 0.18491 0.38633
 C3530 C 0.80938 0.19037 0.38075
 C3531 C 0.81519 0.20043 0.38680
 C3532 C 0.81060 0.20489 0.39812
 C3533 C 0.79505 0.20428 0.41558
 N3534 N 0.80038 0.21426 0.42126
 N3535 N 0.79552 0.21895 0.43165
 C3536 C 0.78515 0.21385 0.43683
 N3537 N 0.77993 0.20378 0.43123
 N3538 N 0.78478 0.19909 0.42085
 C3539 C 0.77904 0.21977 0.44769
 C3540 C 0.76763 0.21514 0.45224
 C3541 C 0.76088 0.22180 0.46115
 C3542 C 0.76548 0.23309 0.46575
 C3543 C 0.77719 0.23737 0.46186
 C3544 C 0.78395 0.23075 0.45293
 H3545 H 0.78612 0.18494 0.40162
 H3546 H 0.79405 0.17719 0.38201
 H3547 H 0.82330 0.20493 0.38286
 H3548 H 0.81530 0.21268 0.40249
 H3549 H 0.76361 0.20668 0.44851
 H3550 H 0.75178 0.21845 0.46401
 H3551 H 0.78079 0.24616 0.46527
 H3552 H 0.79274 0.23453 0.44974
 C3553 C 0.69950 0.30021 0.40362
 C3554 C 0.68950 0.29435 0.39753
 C3555 C 0.68503 0.29892 0.38622
 C3556 C 0.69043 0.30950 0.38068
 C3557 C 0.70044 0.31537 0.38679
 C3558 C 0.70491 0.31078 0.39810
 C3559 C 0.70442 0.29514 0.41548
 N3560 N 0.71438 0.30048 0.42118
 N3561 N 0.71910 0.29560 0.43155
 C3562 C 0.71404 0.28520 0.43670
 N3563 N 0.70399 0.27995 0.43107
 N3564 N 0.69927 0.28483 0.42070
 C3565 C 0.71996 0.27910 0.44757
 C3566 C 0.71534 0.26769 0.45210
 C3567 C 0.72197 0.26098 0.46106
 C3568 C 0.73323 0.26562 0.46572
 C3569 C 0.73750 0.27733 0.46185
 C3570 C 0.73090 0.28405 0.45286
 H3571 H 0.68513 0.28615 0.40146
 H3572 H 0.67736 0.29408 0.38186
 H3573 H 0.70487 0.32353 0.38289
 H3574 H 0.71266 0.31552 0.40250
 H3575 H 0.70690 0.26364 0.44833
 H3576 H 0.71864 0.25189 0.46391
 H3577 H 0.74627 0.28095 0.46532
 H3578 H 0.73469 0.29284 0.44967
 C3579 C 0.69973 0.80039 0.90374
 C3580 C 0.68937 0.79481 0.89800
 C3581 C 0.68484 0.79934 0.88668
 C3582 C 0.69055 0.80957 0.88080
 C3583 C 0.70092 0.81514 0.88658
 C3584 C 0.70545 0.81061 0.89789
 C3585 C 0.70470 0.79541 0.91562
 N3586 N 0.71496 0.80053 0.92099
 N3587 N 0.71973 0.79574 0.93137
 C3588 C 0.71444 0.78564 0.93686
 N3589 N 0.70410 0.78060 0.93157
 N3590 N 0.69933 0.78540 0.92119
 C3591 C 0.72044 0.77960 0.94774
 C3592 C 0.71541 0.76861 0.95286
 C3593 C 0.72204 0.76188 0.96181
 C3594 C 0.73373 0.76607 0.96584
 C3595 C 0.73845 0.77737 0.96135
 C3596 C 0.73183 0.78413 0.95242
 H3597 H 0.68475 0.78689 0.90220
 H3598 H 0.67686 0.79475 0.88260
 H3599 H 0.70562 0.82301 0.88241
 H3600 H 0.71347 0.81511 0.90202
 H3601 H 0.70663 0.76490 0.94956
 H3602 H 0.71836 0.75308 0.96513
 H3603 H 0.74753 0.78064 0.96432
 H3604 H 0.73593 0.79259 0.94877
 C3605 C 0.19922 0.30029 0.90384
 C3606 C 0.18930 0.29437 0.89769
 C3607 C 0.18491 0.29891 0.88633
 C3608 C 0.19031 0.30950 0.88082
 C3609 C 0.20022 0.31544 0.88701
 C3610 C 0.20462 0.31089 0.89837
 C3611 C 0.20407 0.29524 0.91573
 N3612 N 0.21397 0.30061 0.92151
 N3613 N 0.21868 0.29568 0.93187
 C3614 C 0.21367 0.28521 0.93691
 N3615 N 0.20367 0.27995 0.93122
 N3616 N 0.19896 0.28487 0.92087
 C3617 C 0.21964 0.27902 0.94771
 C3618 C 0.21518 0.26746 0.95201
 C3619 C 0.22188 0.26069 0.96087
 C3620 C 0.23303 0.26543 0.96570
 C3621 C 0.23716 0.27725 0.96202
 C3622 C 0.23050 0.28403 0.95312
 H3623 H 0.18493 0.28617 0.90160
 H3624 H 0.17729 0.29403 0.88193
 H3625 H 0.20462 0.32364 0.88315
 H3626 H 0.21229 0.31569 0.90284
 H3627 H 0.20683 0.26335 0.94812
 H3628 H 0.21868 0.25149 0.96354
 H3629 H 0.24586 0.28094 0.96557
 H3630 H 0.23417 0.29292 0.95008
 C3631 C 0.19951 0.80034 0.40364
 C3632 C 0.18944 0.79452 0.39764
 C3633 C 0.18496 0.79906 0.38631
 C3634 C 0.19042 0.80957 0.38070
 C3635 C 0.20050 0.81539 0.38673
 C3636 C 0.20498 0.81084 0.39805
 C3637 C 0.20443 0.79531 0.41551
 N3638 N 0.21441 0.80065 0.42117
 N3639 N 0.21915 0.79580 0.43155
 C3640 C 0.21407 0.78543 0.43674
 N3641 N 0.20401 0.78018 0.43115
 N3642 N 0.19928 0.78503 0.42078
 C3643 C 0.22002 0.77935 0.44761
 C3644 C 0.21541 0.76795 0.45217
 C3645 C 0.22210 0.76124 0.46108
 C3646 C 0.23339 0.76588 0.46568
 C3647 C 0.23765 0.77757 0.46177
 C3648 C 0.23100 0.78430 0.45283
 H3649 H 0.18502 0.78638 0.40164
 H3650 H 0.17724 0.79425 0.38201
 H3651 H 0.20499 0.82349 0.38276
 H3652 H 0.21277 0.81555 0.40240
 H3653 H 0.20694 0.76392 0.44846
 H3654 H 0.21877 0.75215 0.46396
 H3655 H 0.24644 0.78119 0.46517
 H3656 H 0.23476 0.79309 0.44962
 C3657 C 0.69986 0.69964 0.59622
 C3658 C 0.70581 0.68973 0.60237
 C3659 C 0.70124 0.68527 0.61368
 C3660 C 0.69058 0.69059 0.61916
 C3661 C 0.68464 0.70052 0.61300
 C3662 C 0.68922 0.70499 0.60168
 C3663 C 0.70490 0.70452 0.58434
 N3664 N 0.69942 0.71435 0.57853
 N3665 N 0.70428 0.71906 0.56815
 C3666 C 0.71481 0.71413 0.56311
 N3667 N 0.72019 0.70421 0.56885
 N3668 N 0.71533 0.69950 0.57922
 C3669 C 0.72089 0.72008 0.55226
 C3670 C 0.73250 0.71571 0.54797
 C3671 C 0.73917 0.72241 0.53904
 C3672 C 0.73428 0.73347 0.53415
 C3673 C 0.72240 0.73748 0.53779
 C3674 C 0.71572 0.73082 0.54676
 H3675 H 0.71407 0.68541 0.59848
 H3676 H 0.70615 0.67766 0.61810
 H3677 H 0.67642 0.70490 0.61685
 H3678 H 0.68442 0.71267 0.59723
 H3679 H 0.73673 0.70744 0.55191
 H3680 H 0.74841 0.71929 0.53638
 H3681 H 0.71859 0.74610 0.53416
 H3682 H 0.70678 0.73440 0.54978
 C3683 C 0.69993 0.19929 0.09592
 C3684 C 0.70593 0.18944 0.10211
 C3685 C 0.70136 0.18498 0.11343
 C3686 C 0.69065 0.19025 0.11886
 C3687 C 0.68466 0.20013 0.11265
 C3688 C 0.68924 0.20459 0.10133
 C3689 C 0.70498 0.20420 0.08405
 N3690 N 0.69946 0.21397 0.07820
 N3691 N 0.70434 0.21871 0.06784
 C3692 C 0.71492 0.21385 0.06285
 N3693 N 0.72035 0.20398 0.06863
 N3694 N 0.71547 0.19924 0.07898
 C3695 C 0.72101 0.21983 0.05201
 C3696 C 0.73270 0.21558 0.04782
 C3697 C 0.73936 0.22231 0.03891
 C3698 C 0.73438 0.23329 0.03392
 C3699 C 0.72242 0.23717 0.03745
 C3700 C 0.71576 0.23048 0.04642
 H3701 H 0.71424 0.18518 0.09827
 H3702 H 0.70632 0.17744 0.11789
 H3703 H 0.67641 0.20447 0.11648
 H3704 H 0.68440 0.21223 0.09685
 H3705 H 0.73700 0.20737 0.05183
 H3706 H 0.74865 0.21929 0.03633
 H3707 H 0.71853 0.24572 0.03375
 H3708 H 0.70675 0.23397 0.04934
 C3709 C 0.19973 0.69987 0.09597
 C3710 C 0.20518 0.68937 0.10160
 C3711 C 0.20064 0.68482 0.11290
 C3712 C 0.19054 0.69065 0.11889
 C3713 C 0.18511 0.70117 0.11325
 C3714 C 0.18964 0.70571 0.10195
 C3715 C 0.20470 0.70486 0.08411
 N3716 N 0.19969 0.71524 0.07887
 N3717 N 0.20449 0.72004 0.06851
 C3718 C 0.21448 0.71465 0.06290
 N3719 N 0.21940 0.70418 0.06806
 N3720 N 0.21460 0.69938 0.07842
 C3721 C 0.22054 0.72067 0.05206
 C3722 C 0.23136 0.71548 0.04673
 C3723 C 0.23810 0.72208 0.03776
 C3724 C 0.23410 0.73390 0.03394
 C3725 C 0.22297 0.73881 0.03868
 C3726 C 0.21619 0.73222 0.04761
 H3727 H 0.21300 0.68466 0.09730
 H3728 H 0.20512 0.67672 0.11688
 H3729 H 0.17735 0.70597 0.11752
 H3730 H 0.18524 0.71386 0.09792
 H3731 H 0.23493 0.70658 0.04987
 H3732 H 0.24678 0.71826 0.03428
 H3733 H 0.21987 0.74801 0.03590
 H3734 H 0.20787 0.73647 0.05144
 C3735 C 0.19948 0.19965 0.59619
 C3736 C 0.20483 0.18899 0.60160
 C3737 C 0.20039 0.18439 0.61293
 C3738 C 0.19048 0.19033 0.61914
 C3739 C 0.18516 0.20101 0.61370
 C3740 C 0.18960 0.20560 0.60238
 C3741 C 0.20435 0.20473 0.58431
 N3742 N 0.19936 0.21521 0.57927
 N3743 N 0.20407 0.22011 0.56891
 C3744 C 0.21395 0.21472 0.56311
 N3745 N 0.21884 0.20414 0.56806
 N3746 N 0.21413 0.19924 0.57843
 C3747 C 0.21990 0.22084 0.55226
 C3748 C 0.23056 0.21562 0.54666
 C3749 C 0.23722 0.22228 0.53767
 C3750 C 0.23329 0.23421 0.53412
 C3751 C 0.22231 0.23918 0.53914
 C3752 C 0.21561 0.23252 0.54808
 H3753 H 0.21250 0.18419 0.59712
 H3754 H 0.20476 0.17616 0.61675
 H3755 H 0.17757 0.20592 0.61814
 H3756 H 0.18528 0.21387 0.59853
 H3757 H 0.23409 0.20664 0.54960
 H3758 H 0.24579 0.21842 0.53397
 H3759 H 0.21927 0.24846 0.53656
 H3760 H 0.20741 0.23680 0.55211
   
