data_POSCAR
  _audit_creation_date              2014-09-24
  _audit_creation_method            'ToBaCCo'
  _symmetry_space_group_name_H-M    'P1'
  _symmetry_Int_Tables_number       1
  _symmetry_cell_setting            triclinic
  loop_
  _symmetry_equiv_pos_as_xyz
 x,y,z
_cell_length_a 57.3364
_cell_length_b 53.1418
_cell_length_c 51.9849
_cell_angle_alpha 89.811600
_cell_angle_beta 90.169100
_cell_angle_gamma 90.134600
loop_
  _atom_site_label
  _atom_site_type_symbol
  _atom_site_fract_x
  _atom_site_fract_y
  _atom_site_fract_z
C1 C 0.29556 0.38846 0.00402
 C2 C 0.30858 0.38725 0.02685
 C3 C 0.32820 0.37167 0.02788
 C4 C 0.33411 0.35609 0.00692
 C5 C 0.32049 0.35742 -0.01573
 C6 C 0.30091 0.37322 -0.01722
 C7 C 0.35341 0.33735 0.00944
 C8 C 0.36666 0.32983 -0.01204
 C9 C 0.38369 0.31083 -0.00993
 C10 C 0.38890 0.30114 0.01475
 C11 C 0.37616 0.30873 0.03636
 C12 C 0.35802 0.32600 0.03341
 H13 H 0.28176 0.40222 0.00254
 H14 H 0.33859 0.37145 0.04530
 H15 H 0.32428 0.34515 -0.03177
 H16 H 0.36331 0.33832 -0.03065
 H17 H 0.40265 0.28756 0.01757
 H18 H 0.34753 0.33052 0.05004
 C19 C 0.70391 0.61190 0.01347
 C20 C 0.69520 0.62507 0.03457
 C21 C 0.67908 0.64440 0.03053
 C22 C 0.66991 0.64936 0.00571
 C23 C 0.67873 0.63542 -0.01525
 C24 C 0.69662 0.61781 -0.01156
 C25 C 0.65223 0.66985 0.00184
 C26 C 0.65008 0.68268 -0.02195
 C27 C 0.63489 0.70326 -0.02486
 C28 C 0.62187 0.71113 -0.00345
 C29 C 0.62368 0.69871 0.02026
 C30 C 0.63801 0.67759 0.02247
 H31 H 0.71720 0.59771 0.01646
 H32 H 0.67398 0.65553 0.04694
 H33 H 0.67247 0.63866 -0.03460
 H34 H 0.66087 0.67751 -0.03811
 H35 H 0.60928 0.72615 -0.00524
 H36 H 0.63826 0.66764 0.04064
 C37 C 0.71360 0.36889 1.02294
 C38 C 0.70329 0.36575 0.99869
 C39 C 0.68353 0.35046 0.99642
 C40 C 0.67488 0.33666 1.01762
 C41 C 0.68583 0.33978 1.04178
 C42 C 0.70507 0.35595 1.04455
 C43 C 0.65463 0.31911 1.01411
 C44 C 0.63894 0.31385 1.03437
 C45 C 0.61931 0.29825 1.03054
 C46 C 0.61527 0.28848 1.00574
 C47 C 0.63061 0.29352 0.98550
 C48 C 0.65060 0.30783 0.98999
 H49 H 0.72775 0.38220 1.02525
 H50 H 0.67503 0.34937 0.97784
 H51 H 0.67982 0.32940 1.05844
 H52 H 0.64161 0.32230 1.05307
 H53 H 0.60095 0.27579 1.00193
 H54 H 0.66277 0.31038 0.97432
 C55 C 0.27501 0.63358 0.97754
 C56 C 0.28835 0.63516 0.95505
 C57 C 0.30831 0.65041 0.95476
 C58 C 0.31415 0.66572 0.97603
 C59 C 0.29995 0.66430 0.99817
 C60 C 0.28069 0.64801 0.99921
 C61 C 0.33470 0.68327 0.97495
 C62 C 0.34623 0.69124 0.99766
 C63 C 0.36445 0.70902 0.99674
 C64 C 0.37314 0.71620 0.97252
 C65 C 0.36246 0.70806 0.94981
 C66 C 0.34268 0.69272 0.95111
 H67 H 0.26074 0.62026 0.97841
 H68 H 0.31909 0.65027 0.93773
 H69 H 0.30349 0.67598 1.01472
 H70 H 0.34073 0.68428 1.01625
 H71 H 0.38835 0.72817 0.97092
 H72 H 0.33383 0.68808 0.93333
 C73 C 0.00972 0.28267 0.36477
 C74 C 0.03139 0.29467 0.36165
 C75 C 0.03302 0.31556 0.34517
 C76 C 0.01363 0.32361 0.33054
 C77 C -0.00763 0.31043 0.33321
 C78 C -0.00982 0.29034 0.35051
 C79 C 0.01539 0.34573 0.31272
 C80 C -0.00442 0.36057 0.30725
 C81 C -0.00354 0.38035 0.28927
 C82 C 0.01827 0.38719 0.27903
 C83 C 0.03834 0.37333 0.28493
 C84 C 0.03669 0.35207 0.30079
 H85 H 0.00780 0.26803 0.37911
 H86 H 0.04947 0.32550 0.34399
 H87 H -0.02268 0.31553 0.32175
 H88 H -0.02086 0.35646 0.31654
 H89 H 0.02006 0.40332 0.26648
 H90 H 0.05214 0.34082 0.30398
 C91 C -0.00184 0.70806 0.62590
 C92 C 0.01855 0.69900 0.63757
 C93 C 0.01759 0.67676 0.65202
 C94 C -0.00334 0.66286 0.65437
 C95 C -0.02354 0.67220 0.64196
 C96 C -0.02307 0.69520 0.62862
 C97 C -0.00414 0.63944 0.67061
 C98 C -0.02502 0.63180 0.68281
 C99 C -0.02553 0.61110 0.69977
 C100 C -0.00460 0.59803 0.70454
 C101 C 0.01639 0.60565 0.69324
 C102 C 0.01633 0.62545 0.67546
 H103 H -0.00109 0.72476 0.61396
 H104 H 0.03330 0.67082 0.66184
 H105 H -0.03982 0.66192 0.64279
 H106 H -0.04083 0.64256 0.68016
 H107 H -0.00430 0.58141 0.71652
 H108 H 0.03257 0.63020 0.66610
 C109 C 0.99487 0.71519 0.38711
 C110 C 0.97461 0.70506 0.37612
 C111 C 0.97632 0.68431 0.35983
 C112 C 0.99804 0.67290 0.35485
 C113 C 1.01817 0.68301 0.36674
 C114 C 1.01696 0.70484 0.38196
 C115 C 0.99963 0.65148 0.33621
 C116 C 1.01989 0.64778 0.32130
 C117 C 1.02065 0.62940 0.30190
 C118 C 1.00065 0.61453 0.29754
 C119 C 0.98021 0.61820 0.31176
 C120 C 0.98019 0.63577 0.33172
 H121 H 0.99298 0.73042 0.40066
 H122 H 0.96055 0.67770 0.35057
 H123 H 1.03499 0.67431 0.36373
 H124 H 1.03483 0.66001 0.32380
 H125 H 1.00089 0.59946 0.28366
 H126 H 0.96456 0.63755 0.34317
 C127 C 0.99088 0.26794 0.62172
 C128 C 0.97078 0.28287 0.62350
 C129 C 0.97014 0.30248 0.64146
 C130 C 0.98958 0.30753 0.65737
 C131 C 1.00948 0.29212 0.65525
 C132 C 1.01030 0.27242 0.63748
 C133 C 0.98933 0.32879 0.67611
 C134 C 1.01016 0.34163 0.68231
 C135 C 1.01073 0.36040 0.70127
 C136 C 0.98953 0.36762 0.71269
 C137 C 0.96855 0.35530 0.70667
 C138 C 0.96855 0.33595 0.68844
 H139 H 0.99139 0.25285 0.60784
 H140 H 0.95473 0.31417 0.64239
 H141 H 1.02442 0.29509 0.66766
 H142 H 1.02620 0.33680 0.67256
 H143 H 0.98883 0.38342 0.72563
 H144 H 0.95238 0.32613 0.68445
 C145 C 0.37275 0.00003 0.29325
 C146 C 0.36305 0.02134 0.30483
 C147 C 0.34406 0.01860 0.32139
 C148 C 0.33398 -0.00520 0.32605
 C149 C 0.34362 -0.02632 0.31358
 C150 C 0.36335 -0.02416 0.29764
 C151 C 0.31366 -0.00794 0.34399
 C152 C 0.30951 -0.03081 0.35725
 C153 C 0.29042 -0.03339 0.37383
 C154 C 0.27666 -0.01234 0.37925
 C155 C 0.28081 0.01066 0.36698
 C156 C 0.29845 0.01248 0.34853
 H157 H 0.38693 0.00302 0.28004
 H158 H 0.33755 0.03524 0.33085
 H159 H 0.33568 -0.04466 0.31603
 H160 H 0.32087 -0.04682 0.35474
 H161 H 0.26264 -0.01380 0.39313
 H162 H 0.30048 0.03012 0.33835
 C163 C 0.62109 0.02164 0.70218
 C164 C 0.63369 0.04280 0.69394
 C165 C 0.65297 0.03968 0.67776
 C166 C 0.65856 0.01576 0.66779
 C167 C 0.64484 -0.00506 0.67544
 C168 C 0.62711 -0.00265 0.69387
 C169 C 0.67890 0.01229 0.65004
 C170 C 0.69061 -0.01107 0.64890
 C171 C 0.70954 -0.01462 0.63240
 C172 C 0.71718 0.00539 0.61701
 C173 C 0.70586 0.02876 0.61751
 C174 C 0.68685 0.03214 0.63409
 H175 H 0.60661 0.02451 0.71509
 H176 H 0.66337 0.05603 0.67296
 H177 H 0.64828 -0.02353 0.66764
 H178 H 0.68559 -0.02657 0.66123
 H179 H 0.73199 0.00265 0.60448
 H180 H 0.67802 0.05011 0.63390
 C181 C 0.38941 1.01017 0.70586
 C182 C 0.38139 0.98595 0.69986
 C183 C 0.36146 0.98335 0.68442
 C184 C 0.35062 1.00452 0.67298
 C185 C 0.36015 1.02859 0.67806
 C186 C 0.37861 1.03154 0.69550
 C187 C 0.32881 1.00152 0.65714
 C188 C 0.31270 1.02149 0.65460
 C189 C 0.29157 1.01849 0.64116
 C190 C 0.28623 0.99474 0.63080
 C191 C 0.30173 0.97454 0.63332
 C192 C 0.32328 0.97829 0.64543
 H193 H 0.40382 1.01265 0.71907
 H194 H 0.35442 0.96465 0.68183
 H195 H 0.35292 1.04532 0.66928
 H196 H 0.31603 1.03939 0.66373
 H197 H 0.27058 0.99188 0.61956
 H198 H 0.33539 0.96275 0.64594
 C199 C 0.61279 0.98989 0.28216
 C200 C 0.62491 0.96738 0.28663
 C201 C 0.64393 0.96726 0.30364
 C202 C 0.65080 0.98942 0.31648
 C203 C 0.63765 1.01153 0.31247
 C204 C 0.61945 1.01237 0.29437
 C205 C 0.67248 0.99015 0.33259
 C206 C 0.68576 1.01250 0.33400
 C207 C 0.70620 1.01374 0.34866
 C208 C 0.71394 0.99215 0.36158
 C209 C 0.70161 0.96937 0.35979
 C210 C 0.68055 0.96864 0.34593
 H211 H 0.59757 0.98939 0.26987
 H212 H 0.65375 0.95004 0.30604
 H213 H 0.64207 1.02855 0.32281
 H214 H 0.68055 1.02911 0.32336
 H215 H 0.72918 0.99321 0.37387
 H216 H 0.67067 0.95127 0.34551
 O217 O 0.87259 0.84779 0.47823
 O218 O 0.84266 0.87987 0.53064
 O219 O 0.87495 0.84587 0.52791
 O220 O 0.83911 0.88015 0.48077
 O221 O 0.81264 0.84990 0.48192
 O222 O 0.84880 0.81531 0.52911
 O223 O 0.81604 0.84979 0.53220
 O224 O 0.84659 0.81704 0.47913
 Cu225 Cu 0.85989 0.86647 0.50432
 Cu226 Cu 0.82830 0.82997 0.50576
 C227 C 0.86495 0.82698 0.46983
 C228 C 0.82432 0.87055 0.54033
 C229 C 0.86816 0.82463 0.53629
 C230 C 0.81986 0.87087 0.47322
 O231 O 0.17428 0.13434 0.53513
 O232 O 0.13905 0.16179 0.48347
 O233 O 0.17577 0.13356 0.48517
 O234 O 0.13810 0.16340 0.53342
 O235 O 0.16090 0.19696 0.53338
 O236 O 0.19869 0.16704 0.48525
 O237 O 0.16130 0.19580 0.48333
 O238 O 0.19737 0.16765 0.53519
 Cu239 Cu 0.15453 0.14493 0.50929
 Cu240 Cu 0.18185 0.18528 0.50919
 C241 C 0.19182 0.14611 0.54398
 C242 C 0.14392 0.18346 0.47474
 C243 C 0.19377 0.14514 0.47719
 C244 C 0.14308 0.18528 0.54160
 O245 O 0.14178 0.81736 0.54165
 O246 O 0.17033 0.85226 0.48966
 O247 O 0.13979 0.81643 0.49198
 O248 O 0.17257 0.85299 0.53953
 O249 O 0.20111 0.82515 0.53866
 O250 O 0.16771 0.78792 0.49094
 O251 O 0.19877 0.82430 0.48863
 O252 O 0.16976 0.78890 0.54102
 Cu253 Cu 0.15334 0.83759 0.51580
 Cu254 Cu 0.18722 0.80370 0.51476
 C255 C 0.15067 0.79709 0.55006
 C256 C 0.18936 0.84440 0.48034
 C257 C 0.14796 0.79592 0.48342
 C258 C 0.19243 0.84550 0.54707
 O259 O 0.86156 0.16777 0.50155
 O260 O 0.83697 0.12673 0.45183
 O261 O 0.87068 0.15885 0.45394
 O262 O 0.82755 0.13466 0.49968
 O263 O 0.80296 0.16483 0.48890
 O264 O 0.84652 0.18928 0.44255
 O265 O 0.81226 0.15668 0.44059
 O266 O 0.83715 0.19809 0.49069
 Cu267 Cu 0.85157 0.14401 0.47809
 Cu268 Cu 0.82222 0.18029 0.46464
 C269 C 0.85410 0.19009 0.50416
 C270 C 0.82042 0.13464 0.43777
 C271 C 0.86605 0.17816 0.44050
 C272 C 0.80775 0.14510 0.50171
 O273 O 0.52858 0.82871 0.85781
 O274 O 0.48483 0.85745 0.81592
 O275 O 0.48523 0.81848 0.84585
 O276 O 0.52748 0.86709 0.82670
 O277 O 0.53873 0.84345 0.79415
 O278 O 0.49751 0.79389 0.81455
 O279 O 0.49564 0.83318 0.78371
 O280 O 0.54094 0.80489 0.82592
 Cu281 Cu 0.50540 0.84513 0.83993
 Cu282 Cu 0.51939 0.81626 0.80144
 C283 C 0.54235 0.81218 0.84916
 C284 C 0.48305 0.85079 0.79260
 C285 C 0.48413 0.79795 0.83347
 C286 C 0.53976 0.86390 0.80670
 O287 O 0.50667 0.19245 0.16078
 O288 O 0.46542 0.16018 0.20399
 O289 O 0.46374 0.19905 0.17358
 O290 O 0.50777 0.15170 0.18895
 O291 O 0.52006 0.17414 0.22204
 O292 O 0.47702 0.22337 0.20475
 O293 O 0.47763 0.18387 0.23618
 O294 O 0.52018 0.21470 0.19342
 Cu295 Cu 0.48466 0.17348 0.17865
 Cu296 Cu 0.49985 0.20135 0.21745
 C297 C 0.52029 0.20925 0.16969
 C298 C 0.46472 0.16639 0.22756
 C299 C 0.46332 0.21961 0.18584
 C300 C 0.52112 0.15448 0.20820
 O301 O 0.52880 0.16382 0.80789
 O302 O 0.48943 0.18606 0.85847
 O303 O 0.48614 0.15348 0.82129
 O304 O 0.53158 0.19656 0.84449
 O305 O 0.51837 0.22634 0.81856
 O306 O 0.47281 0.18286 0.79497
 O307 O 0.47608 0.21583 0.83262
 O308 O 0.51545 0.19303 0.78140
 Cu309 Cu 0.51025 0.17198 0.83560
 Cu310 Cu 0.49433 0.20748 0.80421
 C311 C 0.52882 0.17451 0.78602
 C312 C 0.47638 0.20493 0.85444
 C313 C 0.47191 0.16066 0.80405
 C314 C 0.53254 0.21888 0.83577
 O315 O 0.46686 0.81565 0.13431
 O316 O 0.51222 0.84796 0.17166
 O317 O 0.51163 0.81168 0.13904
 O318 O 0.46752 0.85325 0.16607
 O319 O 0.46231 0.82714 0.19871
 O320 O 0.50625 0.78422 0.17045
 O321 O 0.50726 0.82109 0.20367
 O322 O 0.46107 0.78891 0.16625
 Cu323 Cu 0.48999 0.83479 0.14959
 Cu324 Cu 0.48356 0.80262 0.18802
 C325 C 0.45636 0.79667 0.14371
 C326 C 0.51765 0.83997 0.19394
 C327 C 0.51660 0.79099 0.14996
 C328 C 0.45770 0.84766 0.18711
 O329 O 0.83384 0.46986 0.87987
 O330 O 0.86037 0.52152 0.84403
 O331 O 0.82546 0.51755 0.87518
 O332 O 0.86695 0.47319 0.84648
 O333 O 0.84175 0.46533 0.81529
 O334 O 0.80148 0.51228 0.84231
 O335 O 0.83735 0.51408 0.81074
 O336 O 0.80769 0.46433 0.84907
 Cu337 Cu 0.84910 0.49623 0.86454
 Cu338 Cu 0.81961 0.48835 0.82604
 C339 C 0.81603 0.45868 0.87106
 C340 C 0.85391 0.52634 0.82125
 C341 C 0.80642 0.52251 0.86366
 C342 C 0.86130 0.46148 0.82614
 O343 O 0.18130 0.49896 0.14293
 O344 O 0.14910 0.54620 0.17915
 O345 O 0.17861 0.54773 0.14116
 O346 O 0.15321 0.49768 0.18155
 O347 O 0.18285 0.50105 0.20859
 O348 O 0.20780 0.55170 0.16866
 O349 O 0.17806 0.54957 0.20700
 O350 O 0.21151 0.50275 0.16913
 Cu351 Cu 0.16264 0.52237 0.15846
 Cu352 Cu 0.19808 0.52665 0.19104
 C353 C 0.20179 0.49284 0.14958
 C354 C 0.15770 0.55562 0.19946
 C355 C 0.19761 0.55815 0.14798
 C356 C 0.16367 0.49094 0.20201
 O357 O 0.81306 0.52600 0.15238
 O358 O 0.86333 0.48697 0.17011
 O359 O 0.82548 0.47964 0.14358
 O360 O 0.85107 0.53290 0.17830
 O361 O 0.83392 0.52032 0.21414
 O362 O 0.80677 0.46749 0.17858
 O363 O 0.84507 0.47425 0.20522
 O364 O 0.79471 0.51400 0.18766
 Cu365 Cu 0.83993 0.50757 0.15750
 Cu366 Cu 0.81812 0.49288 0.19995
 C367 C 0.79533 0.52666 0.16692
 C368 C 0.86294 0.47426 0.19081
 C369 C 0.81179 0.46454 0.15498
 C370 C 0.84750 0.53526 0.20222
 O371 O 0.16897 0.50314 0.85936
 O372 O 0.13887 0.45043 0.82879
 O373 O 0.17518 0.45471 0.85786
 O374 O 0.13346 0.49871 0.82887
 O375 O 0.15639 0.50341 0.79510
 O376 O 0.19791 0.45800 0.82381
 O377 O 0.16048 0.45493 0.79394
 O378 O 0.19252 0.50691 0.82600
 Cu379 Cu 0.15194 0.47635 0.84714
 Cu380 Cu 0.17926 0.48112 0.80632
 C381 C 0.18583 0.51398 0.84814
 C382 C 0.14399 0.44411 0.80604
 C383 C 0.19360 0.44873 0.84585
 C384 C 0.13768 0.50845 0.80705
 C385 C 0.30158 0.40210 0.04970
 C386 C 0.27813 0.40771 0.05416
 C387 C 0.26927 0.42471 0.07432
 C388 C 0.24741 0.43573 0.07019
 C389 C 0.23747 0.45120 0.08867
 C390 C 0.24885 0.45556 0.11226
 C391 C 0.27109 0.44510 0.11622
 C392 C 0.28126 0.42973 0.09741
 C393 C 0.23788 0.47129 0.13244
 C394 C 0.21370 0.47408 0.13373
 H395 H 0.26515 0.40001 0.04119
 H396 H 0.23798 0.43249 0.05241
 H397 H 0.22092 0.45988 0.08414
 H398 H 0.28037 0.44845 0.13406
 H399 H 0.29810 0.42136 0.10127
 H400 H 0.24890 0.48103 0.14615
 H401 H 0.31489 0.40826 0.06308
 H402 H 0.20264 0.46319 0.12106
 C403 C 0.70452 0.61995 0.06054
 C404 C 0.70848 0.59535 0.06884
 C405 C 0.72367 0.58882 0.09083
 C406 C 0.72100 0.56525 0.10270
 C407 C 0.73749 0.55662 0.12050
 C408 C 0.75720 0.57132 0.12637
 C409 C 0.75943 0.59527 0.11520
 C410 C 0.74272 0.60408 0.09776
 C411 C 0.77709 0.56077 0.14090
 C412 C 0.77493 0.54149 0.15899
 H413 H 0.70118 0.58000 0.05771
 H414 H 0.70661 0.55305 0.09740
 H415 H 0.73552 0.53783 0.12829
 H416 H 0.77463 0.60677 0.11921
 H417 H 0.74559 0.62210 0.08851
 H418 H 0.79439 0.56751 0.13602
 H419 H 0.70876 0.63566 0.07293
 H420 H 0.75796 0.53637 0.16648
 C421 C 0.71271 0.37848 0.97553
 C422 C 0.73644 0.38396 0.97305
 C423 C 0.74709 0.39697 0.95076
 C424 C 0.76929 0.40754 0.95411
 C425 C 0.78045 0.41988 0.93391
 C426 C 0.76985 0.42154 0.90950
 C427 C 0.74752 0.41114 0.90611
 C428 C 0.73623 0.39884 0.92650
 C429 C 0.78123 0.43512 0.88791
 C430 C 0.80522 0.43943 0.88737
 H431 H 0.74809 0.37878 0.98861
 H432 H 0.77797 0.40657 0.97264
 H433 H 0.79713 0.42857 0.93786
 H434 H 0.73887 0.41238 0.88760
 H435 H 0.71928 0.39060 0.92298
 H436 H 0.77037 0.44301 0.87284
 H437 H 0.70081 0.38258 0.95990
 H438 H 0.81638 0.43081 0.90168
 C439 C 0.28172 0.62050 0.93196
 C440 C 0.25827 0.61658 0.92573
 C441 C 0.24954 0.60003 0.90494
 C442 C 0.22568 0.60096 0.89897
 C443 C 0.21580 0.58384 0.88183
 C444 C 0.22957 0.56517 0.87036
 C445 C 0.25368 0.56503 0.87509
 C446 C 0.26362 0.58219 0.89241
 C447 C 0.21875 0.54507 0.85468
 C448 C 0.19711 0.53505 0.86148
 H449 H 0.24525 0.62619 0.93713
 H450 H 0.21446 0.61462 0.90814
 H451 H 0.19727 0.58494 0.87794
 H452 H 0.26464 0.55090 0.86631
 H453 H 0.28204 0.58070 0.89662
 H454 H 0.22872 0.53643 0.83941
 H455 H 0.29534 0.61394 0.91931
 H456 H 0.18847 0.54199 0.87854
 C457 C 0.05225 0.28613 0.37615
 C458 C 0.05496 0.26101 0.38361
 C459 C 0.07403 0.25126 0.40009
 C460 C 0.07057 0.22798 0.41224
 C461 C 0.08775 0.21762 0.42801
 C462 C 0.10919 0.23007 0.43164
 C463 C 0.11266 0.25352 0.41966
 C464 C 0.09528 0.26404 0.40394
 C465 C 0.12768 0.21943 0.44850
 C466 C 0.12859 0.19388 0.45475
 H467 H 0.04180 0.24753 0.37778
 H468 H 0.05428 0.21786 0.40984
 H469 H 0.08379 0.20010 0.43768
 H470 H 0.12892 0.26361 0.42231
 H471 H 0.09876 0.28188 0.39465
 H472 H 0.14064 0.23206 0.45652
 H473 H 0.06564 0.29982 0.38056
 H474 H 0.11659 0.18083 0.44581
 C475 C 0.04124 0.71181 0.63377
 C476 C 0.04291 0.73767 0.62930
 C477 C 0.06427 0.75048 0.62006
 C478 C 0.08247 0.73746 0.60785
 C479 C 0.10081 0.75067 0.59625
 C480 C 0.10129 0.77714 0.59663
 C481 C 0.08354 0.78998 0.60965
 C482 C 0.06524 0.77682 0.62119
 C483 C 0.11823 0.79214 0.58151
 C484 C 0.13821 0.78248 0.56984
 H485 H 0.02754 0.74916 0.63209
 H486 H 0.08208 0.71721 0.60599
 H487 H 0.11383 0.74003 0.58597
 H488 H 0.08339 0.81036 0.61015
 H489 H 0.05139 0.78732 0.63034
 H490 H 0.11397 0.81174 0.57816
 H491 H 0.05691 0.70052 0.63464
 H492 H 0.14425 0.76368 0.57419
 C493 C 0.95144 0.71552 0.38236
 C494 C 0.94823 0.74125 0.38617
 C495 C 0.92690 0.75234 0.39726
 C496 C 0.92277 0.77806 0.39343
 C497 C 0.90483 0.79018 0.40654
 C498 C 0.89095 0.77689 0.42428
 C499 C 0.89415 0.75083 0.42695
 C500 C 0.91203 0.73863 0.41364
 C501 C 0.87430 0.78997 0.44138
 C502 C 0.87826 0.81465 0.44938
 H503 H 0.96235 0.75397 0.38128
 H504 H 0.93386 0.78898 0.38075
 H505 H 0.90227 0.81008 0.40314
 H506 H 0.88358 0.74014 0.44035
 H507 H 0.91491 0.71882 0.41731
 H508 H 0.86045 0.77916 0.45029
 H509 H 0.93672 0.70279 0.38362
 H510 H 0.89322 0.82487 0.44215
 C511 C 0.95021 0.27723 0.60721
 C512 C 0.95302 0.26788 0.58234
 C513 C 0.93540 0.25255 0.56875
 C514 C 0.91125 0.25488 0.57287
 C515 C 0.89556 0.23874 0.56027
 C516 C 0.90390 0.21993 0.54372
 C517 C 0.92794 0.21785 0.53960
 C518 C 0.94347 0.23418 0.55168
 C519 C 0.88843 0.20165 0.53084
 C520 C 0.86603 0.20728 0.52206
 H521 H 0.97031 0.26850 0.57399
 H522 H 0.90447 0.26906 0.58571
 H523 H 0.87708 0.24059 0.56397
 H524 H 0.93477 0.20352 0.52690
 H525 H 0.96198 0.23197 0.54822
 H526 H 0.89617 0.18391 0.52521
 H527 H 0.93307 0.27847 0.61574
 H528 H 0.85854 0.22562 0.52561
 C529 C 0.37156 0.04682 0.29820
 C530 C 0.39508 0.05179 0.29365
 C531 C 0.40335 0.07527 0.28141
 C532 C 0.42587 0.08408 0.28693
 C533 C 0.43515 0.10458 0.27346
 C534 C 0.42219 0.11626 0.25379
 C535 C 0.39958 0.10761 0.24842
 C536 C 0.39010 0.08747 0.26231
 C537 C 0.43287 0.13545 0.23688
 C538 C 0.44981 0.15229 0.24551
 H539 H 0.40793 0.03772 0.29880
 H540 H 0.43650 0.07471 0.30130
 H541 H 0.45288 0.11039 0.27757
 H542 H 0.38944 0.11610 0.23309
 H543 H 0.37289 0.08068 0.25717
 H544 H 0.42782 0.13570 0.21678
 H545 H 0.35896 0.06190 0.29656
 H546 H 0.45324 0.15405 0.26593
 C547 C 0.62721 0.06803 0.70334
 C548 C 0.60384 0.07523 0.70460
 C549 C 0.59532 0.09712 0.71929
 C550 C 0.57328 0.10701 0.71334
 C551 C 0.56296 0.12497 0.72924
 C552 C 0.57442 0.13310 0.75168
 C553 C 0.59678 0.12378 0.75720
 C554 C 0.60725 0.10610 0.74107
 C555 C 0.56238 0.14855 0.77116
 C556 C 0.54385 0.16466 0.76552
 H557 H 0.59091 0.06347 0.69523
 H558 H 0.56363 0.10013 0.69683
 H559 H 0.54549 0.13127 0.72471
 H560 H 0.60583 0.12954 0.77454
 H561 H 0.62403 0.09845 0.74655
 H562 H 0.56774 0.14629 0.79105
 H563 H 0.64086 0.08089 0.70929
 H564 H 0.53976 0.16944 0.74576
 C565 C 0.39270 0.96324 0.71086
 C566 C 0.41601 0.96325 0.71869
 C567 C 0.42643 0.94308 0.73442
 C568 C 0.42124 0.91747 0.73064
 C569 C 0.43188 0.89907 0.74610
 C570 C 0.44739 0.90623 0.76576
 C571 C 0.45235 0.93179 0.76948
 C572 C 0.44229 0.94999 0.75369
 C573 C 0.45833 0.88792 0.78332
 C574 C 0.46706 0.86469 0.77551
 H575 H 0.42664 0.97979 0.71546
 H576 H 0.40928 0.91168 0.71562
 H577 H 0.42766 0.87944 0.74306
 H578 H 0.46426 0.93768 0.78454
 H579 H 0.44655 0.96961 0.75687
 H580 H 0.46261 0.89464 0.80243
 H581 H 0.38229 0.94638 0.71337
 H582 H 0.46459 0.85837 0.75590
 C583 C 0.61739 0.94392 0.27375
 C584 C 0.60855 0.94443 0.24869
 C585 C 0.59580 0.92347 0.23629
 C586 C 0.58505 0.90409 0.25048
 C587 C 0.57042 0.88666 0.23823
 C588 C 0.56629 0.88832 0.21154
 C589 C 0.57777 0.90715 0.19741
 C590 C 0.59224 0.92456 0.20963
 C591 C 0.54933 0.87210 0.19768
 C592 C 0.53598 0.85293 0.20881
 H593 H 0.61038 0.96167 0.23768
 H594 H 0.58703 0.90296 0.27115
 H595 H 0.56196 0.87255 0.24995
 H596 H 0.57500 0.90892 0.17685
 H597 H 0.60020 0.93937 0.19827
 H598 H 0.54656 0.87618 0.17746
 H599 H 0.61889 0.92628 0.28408
 H600 H 0.53857 0.84734 0.22860
 C601 C 0.39444 0.30185 0.96746
 C602 C 0.40730 0.27945 0.96617
 C603 C 0.41708 0.26905 0.94206
 C604 C 0.42087 0.24302 0.94064
 C605 C 0.43093 0.23231 0.91884
 C606 C 0.43795 0.24752 0.89803
 C607 C 0.43370 0.27353 0.89920
 C608 C 0.42344 0.28426 0.92102
 C609 C 0.45000 0.23695 0.87520
 C610 C 0.46204 0.21411 0.87588
 H611 H 0.40859 0.26742 0.98288
 H612 H 0.41596 0.23084 0.95649
 H613 H 0.43301 0.21211 0.91848
 H614 H 0.43884 0.28569 0.88343
 H615 H 0.42114 0.30445 0.92159
 H616 H 0.45097 0.24839 0.85795
 H617 H 0.39092 0.31171 0.94960
 H618 H 0.46272 0.20325 0.89349
 C619 C 0.63242 0.71498 0.95090
 C620 C 0.62293 0.73906 0.94782
 C621 C 0.61452 0.74959 0.92314
 C622 C 0.61179 0.77573 0.92121
 C623 C 0.59998 0.78636 0.90038
 C624 C 0.59018 0.77099 0.88121
 C625 C 0.59433 0.74496 0.88212
 C626 C 0.60633 0.73427 0.90300
 C627 C 0.57443 0.78161 0.86129
 C628 C 0.55987 0.80186 0.86693
 H629 H 0.62142 0.75116 0.96444
 H630 H 0.61810 0.78795 0.93637
 H631 H 0.59797 0.80660 0.89975
 H632 H 0.58715 0.73276 0.86743
 H633 H 0.60793 0.71401 0.90406
 H634 H 0.57254 0.77195 0.84309
 H635 H 0.63860 0.70525 0.93396
 H636 H 0.56032 0.80995 0.88601
 C637 C 0.37325 0.71949 0.01974
 C638 C 0.38553 0.74236 0.02023
 C639 C 0.39508 0.75449 0.04356
 C640 C 0.40137 0.74097 0.06582
 C641 C 0.41279 0.75316 0.08623
 C642 C 0.41799 0.77906 0.08464
 C643 C 0.41097 0.79249 0.06271
 C644 C 0.39975 0.78038 0.04244
 C645 C 0.43227 0.79262 0.10397
 C646 C 0.43899 0.78316 0.12796
 H647 H 0.38683 0.75339 0.00278
 H648 H 0.39842 0.72089 0.06708
 H649 H 0.41822 0.74203 0.10260
 H650 H 0.41476 0.81241 0.06089
 H651 H 0.39514 0.79124 0.02550
 H652 H 0.43857 0.81112 0.09852
 H653 H 0.36850 0.71088 0.03790
 H654 H 0.43212 0.76551 0.13507
 C655 C 0.60496 0.29195 0.05165
 C656 C 0.58333 0.27976 0.04916
 C657 C 0.57047 0.26736 0.07042
 C658 C 0.58066 0.26197 0.09449
 C659 C 0.56838 0.24797 0.11293
 C660 C 0.54577 0.23901 0.10758
 C661 C 0.53565 0.24456 0.08366
 C662 C 0.54779 0.25863 0.06538
 C663 C 0.53245 0.22312 0.12582
 C664 C 0.53595 0.22321 0.15237
 H665 H 0.57500 0.27899 0.03052
 H666 H 0.59832 0.26772 0.09891
 H667 H 0.57697 0.24352 0.13092
 H668 H 0.51829 0.23783 0.07902
 H669 H 0.53956 0.26226 0.04695
 H670 H 0.51805 0.21221 0.11812
 H671 H 0.61102 0.29680 0.07074
 H672 H 0.54893 0.23545 0.16088
 C673 C 0.27692 0.03948 0.63756
 C674 C 0.25383 0.03773 0.62891
 C675 C 0.24024 0.05929 0.61893
 C676 C 0.25097 0.08071 0.60822
 C677 C 0.23763 0.09883 0.59525
 C678 C 0.21332 0.09582 0.59282
 C679 C 0.20263 0.07498 0.60456
 C680 C 0.21593 0.05689 0.61736
 C681 C 0.19867 0.11223 0.57632
 C682 C 0.20618 0.13428 0.56417
 H683 H 0.24498 0.01974 0.62935
 H684 H 0.26974 0.08288 0.60855
 H685 H 0.24664 0.11439 0.58624
 H686 H 0.18396 0.07214 0.60300
 H687 H 0.20725 0.04050 0.62532
 H688 H 0.18108 0.10573 0.57238
 H689 H 0.28381 0.05800 0.64187
 H690 H 0.22287 0.14265 0.56875
 C691 C 0.71839 0.03814 0.35156
 C692 C 0.74221 0.03974 0.35697
 C693 C 0.75401 0.06291 0.36595
 C694 C 0.77847 0.06349 0.36626
 C695 C 0.79043 0.08340 0.37782
 C696 C 0.77809 0.10303 0.38965
 C697 C 0.75368 0.10323 0.38807
 C698 C 0.74169 0.08329 0.37650
 C699 C 0.79008 0.12257 0.40504
 C700 C 0.81059 0.11744 0.41855
 H701 H 0.75271 0.02290 0.35539
 H702 H 0.78839 0.04812 0.35814
 H703 H 0.80929 0.08309 0.37787
 H704 H 0.74381 0.11823 0.39693
 H705 H 0.72284 0.08343 0.37705
 H706 H 0.78113 0.14017 0.40845
 H707 H 0.70823 0.05515 0.34945
 H708 H 0.81872 0.09917 0.41685
 C709 C 0.72041 0.96028 0.63005
 C710 C 0.74425 0.95766 0.62558
 C711 C 0.75516 0.93457 0.61542
 C712 C 0.77938 0.93186 0.61778
 C713 C 0.79103 0.91281 0.60466
 C714 C 0.77871 0.89636 0.58835
 C715 C 0.75429 0.89795 0.58736
 C716 C 0.74257 0.91695 0.60070
 C717 C 0.79099 0.87884 0.57089
 C718 C 0.81290 0.88477 0.56091
 H719 H 0.75541 0.97394 0.62828
 H720 H 0.78943 0.94507 0.62916
 H721 H 0.80976 0.91149 0.60679
 H722 H 0.74438 0.88537 0.57512
 H723 H 0.72390 0.91866 0.59817
 H724 H 0.78160 0.86275 0.56334
 H725 H 0.70933 0.94378 0.63111
 H726 H 0.82151 0.90194 0.56684
 C727 C 0.28480 0.94198 0.38559
 C728 C 0.26159 0.93434 0.38798
 C729 C 0.25353 0.91175 0.40208
 C730 C 0.23040 0.90391 0.39838
 C731 C 0.22079 0.88496 0.41364
 C732 C 0.23406 0.87362 0.43324
 C733 C 0.25763 0.88032 0.43598
 C734 C 0.26731 0.89937 0.42063
 C735 C 0.22323 0.85601 0.45181
 C736 C 0.20022 0.85928 0.45979
 H737 H 0.24827 0.94598 0.37913
 H738 H 0.21948 0.91298 0.38407
 H739 H 0.20279 0.87959 0.41041
 H740 H 0.26823 0.87169 0.45085
 H741 H 0.28514 0.90508 0.42420
 H742 H 0.23408 0.84218 0.46140
 H743 H 0.29887 0.92949 0.39103
 H744 H 0.19012 0.87477 0.45207
 C745 C 0.03245 0.37091 0.70837
 C746 C 0.03588 0.38591 0.73017
 C747 C 0.05893 0.39504 0.73909
 C748 C 0.06125 0.40158 0.76506
 C749 C 0.08224 0.41097 0.77457
 C750 C 0.10161 0.41406 0.75830
 C751 C 0.09928 0.40789 0.73217
 C752 C 0.07815 0.39832 0.72261
 C753 C 0.12347 0.42567 0.76793
 C754 C 0.12957 0.42469 0.79390
 H755 H 0.02156 0.38938 0.74310
 H756 H 0.04664 0.39963 0.77809
 H757 H 0.08288 0.41657 0.79454
 H758 H 0.11377 0.41066 0.71912
 H759 H 0.07681 0.39416 0.70230
 H760 H 0.13368 0.43715 0.75486
 H761 H 0.04768 0.36544 0.69747
 H762 H 0.12008 0.41228 0.80669
 C763 C 0.04126 0.62648 0.28743
 C764 C 0.04209 0.61369 0.26393
 C765 C 0.06377 0.60859 0.24953
 C766 C 0.08552 0.60552 0.26173
 C767 C 0.10498 0.59752 0.24765
 C768 C 0.10296 0.59257 0.22112
 C769 C 0.08142 0.59673 0.20896
 C770 C 0.06206 0.60444 0.22299
 C771 C 0.12184 0.58125 0.20554
 C772 C 0.14337 0.57291 0.21492
 H773 H 0.02602 0.60825 0.25452
 H774 H 0.08731 0.60816 0.28228
 H775 H 0.12121 0.59460 0.25783
 H776 H 0.07928 0.59311 0.18858
 H777 H 0.04550 0.60661 0.21314
 H778 H 0.11764 0.57718 0.18564
 H779 H 0.05702 0.63570 0.29409
 H780 H 0.14914 0.57741 0.23417
 C781 C 0.97549 0.39211 0.28180
 C782 C 0.97318 0.40737 0.25991
 C783 C 0.95052 0.41707 0.25066
 C784 C 0.94756 0.42124 0.22421
 C785 C 0.92662 0.43076 0.21456
 C786 C 0.90827 0.43690 0.23132
 C787 C 0.91116 0.43246 0.25779
 C788 C 0.93209 0.42270 0.26743
 C789 C 0.88617 0.44826 0.22205
 C790 C 0.88390 0.46011 0.19816
 H791 H 0.98781 0.41010 0.24715
 H792 H 0.96146 0.41687 0.21089
 H793 H 0.92501 0.43303 0.19398
 H794 H 0.89732 0.43700 0.27113
 H795 H 0.93396 0.42016 0.28799
 H796 H 0.87164 0.44898 0.23531
 H797 H 0.95974 0.38713 0.29212
 H798 H 0.89845 0.46096 0.18502
 C799 C 0.95324 0.60421 0.71157
 C800 C 0.95189 0.58813 0.73292
 C801 C 0.92993 0.57950 0.74491
 C802 C 0.93088 0.57119 0.77048
 C803 C 0.91129 0.56091 0.78228
 C804 C 0.89009 0.55864 0.76878
 C805 C 0.88906 0.56685 0.74309
 C806 C 0.90879 0.57739 0.73124
 C807 C 0.86979 0.54591 0.78077
 C808 C 0.86683 0.54593 0.80736
 H809 H 0.96768 0.58272 0.74287
 H810 H 0.94703 0.57220 0.78130
 H811 H 0.91316 0.55385 0.80172
 H812 H 0.87306 0.56485 0.73213
 H813 H 0.90766 0.58300 0.71125
 H814 H 0.85834 0.53467 0.76879
 H815 H 0.93727 0.61280 0.70468
 H816 H 0.87745 0.55840 0.81898
 C817 C 0.70897 0.60690 0.96618
 C818 C 0.73325 0.60474 0.96690
 C819 C 0.74789 0.59304 0.94688
 C820 C 0.73881 0.57731 0.92758
 C821 C 0.75386 0.56465 0.91084
 C822 C 0.77820 0.56754 0.91318
 C823 C 0.78708 0.58374 0.93206
 C824 C 0.77212 0.59634 0.94867
 C825 C 0.79502 0.55261 0.89807
 C826 C 0.78956 0.53977 0.87548
 H827 H 0.74235 0.61239 0.98344
 H828 H 0.72026 0.57392 0.92595
 H829 H 0.74635 0.55187 0.89694
 H830 H 0.80573 0.58623 0.93437
 H831 H 0.77959 0.60827 0.96342
 H832 H 0.81269 0.55138 0.90543
 H833 H 0.69929 0.60264 0.94883
 H834 H 0.77265 0.54190 0.86649
 C835 C 0.28707 0.37370 0.96032
 C836 C 0.26381 0.38166 0.96062
 C837 C 0.24950 0.38669 0.93754
 C838 C 0.25918 0.39566 0.91445
 C839 C 0.24467 0.40483 0.89478
 C840 C 0.22025 0.40499 0.89795
 C841 C 0.21077 0.39453 0.92043
 C842 C 0.22520 0.38569 0.94005
 C843 C 0.20397 0.41775 0.87996
 C844 C 0.21037 0.43144 0.85810
 H845 H 0.25509 0.38380 0.97893
 H846 H 0.27791 0.39697 0.91217
 H847 H 0.25274 0.41263 0.87777
 H848 H 0.19207 0.39428 0.92342
 H849 H 0.21733 0.37891 0.95770
 H850 H 0.18577 0.41816 0.88556
 H851 H 0.29410 0.36628 0.94257
 H852 H 0.22788 0.43059 0.85051
 C853 C 0.26779 0.64484 0.02367
 C854 C 0.24471 0.63636 0.02445
 C855 C 0.23331 0.62610 0.04780
 C856 C 0.24617 0.61767 0.06922
 C857 C 0.23510 0.60498 0.08941
 C858 C 0.21089 0.60047 0.08863
 C859 C 0.19804 0.60952 0.06755
 C860 C 0.20911 0.62216 0.04737
 C861 C 0.19877 0.58467 0.10804
 C862 C 0.20853 0.57742 0.13155
 H863 H 0.23468 0.63615 0.00676
 H864 H 0.26493 0.61965 0.07000
 H865 H 0.24585 0.59782 0.10487
 H866 H 0.17941 0.60620 0.06633
 H867 H 0.19881 0.62825 0.03100
 H868 H 0.18158 0.57763 0.10311
 H869 H 0.27701 0.64870 0.04142
 H870 H 0.22500 0.58520 0.13788
 C871 C 0.71554 0.36048 0.07021
 C872 C 0.73932 0.36570 0.07285
 C873 C 0.75019 0.37848 0.09519
 C874 C 0.77455 0.38108 0.09548
 C875 C 0.78554 0.39648 0.11352
 C876 C 0.77234 0.40980 0.13167
 C877 C 0.74814 0.40592 0.13259
 C878 C 0.73707 0.39054 0.11439
 C879 C 0.78333 0.42876 0.14867
 C880 C 0.80186 0.44363 0.14009
 H881 H 0.75050 0.36201 0.05652
 H882 H 0.78510 0.37188 0.08105
 H883 H 0.80433 0.39838 0.11286
 H884 H 0.73765 0.41583 0.14657
 H885 H 0.71826 0.38923 0.11476
 H886 H 0.77521 0.43297 0.16694
 H887 H 0.70421 0.36052 0.08681
 H888 H 0.80848 0.44103 0.12080
 C889 C 0.95523 0.70567 0.61737
 C890 C 0.95153 0.73166 0.61641
 C891 C 0.93153 0.74422 0.60367
 C892 C 0.92815 0.76996 0.60829
 C893 C 0.91101 0.78340 0.59504
 C894 C 0.89695 0.77142 0.57656
 C895 C 0.89960 0.74544 0.57266
 C896 C 0.91684 0.73194 0.58595
 C897 C 0.87994 0.78567 0.56073
 C898 C 0.88339 0.81094 0.55428
 H899 H 0.96416 0.74378 0.62578
 H900 H 0.93909 0.77985 0.62197
 H901 H 0.90893 0.80319 0.59925
 H902 H 0.88887 0.73576 0.55864
 H903 H 0.91904 0.71221 0.58160
 H904 H 0.86558 0.77550 0.55200
 H905 H 0.94170 0.69279 0.61121
 H906 H 0.89883 0.82068 0.56102
 C907 C 0.96697 0.27876 0.35470
 C908 C 0.96427 0.25396 0.36313
 C909 C 0.94188 0.24319 0.37212
 C910 C 0.93970 0.21696 0.37378
 C911 C 0.91997 0.20599 0.38488
 C912 C 0.90214 0.22112 0.39502
 C913 C 0.90380 0.24734 0.39230
 C914 C 0.92353 0.25833 0.38109
 C915 C 0.88226 0.21023 0.40948
 C916 C 0.88411 0.18754 0.42291
 H917 H 0.97939 0.24177 0.36345
 H918 H 0.95351 0.20488 0.36688
 H919 H 0.91895 0.18568 0.38570
 H920 H 0.89025 0.25940 0.39983
 H921 H 0.92472 0.27864 0.38058
 H922 H 0.86670 0.22152 0.41185
 H923 H 0.95170 0.29010 0.35085
 H924 H 0.90018 0.17695 0.42223
 C925 C 0.03217 0.25800 0.63428
 C926 C 0.03251 0.23373 0.62402
 C927 C 0.05360 0.22140 0.61360
 C928 C 0.07436 0.23468 0.60857
 C929 C 0.09278 0.22307 0.59566
 C930 C 0.09075 0.19800 0.58723
 C931 C 0.07039 0.18453 0.59322
 C932 C 0.05203 0.19609 0.60617
 C933 C 0.10867 0.18549 0.57120
 C934 C 0.12791 0.19772 0.56040
 H935 H 0.01620 0.22355 0.62233
 H936 H 0.07627 0.25429 0.61360
 H937 H 0.10821 0.23416 0.59199
 H938 H 0.06834 0.16516 0.58713
 H939 H 0.03624 0.18541 0.60972
 H940 H 0.10575 0.16593 0.56628
 H941 H 0.04834 0.26713 0.63963
 H942 H 0.13174 0.21713 0.56481
 C943 C 0.03768 0.71564 0.39171
 C944 C 0.03887 0.74037 0.40093
 C945 C 0.05985 0.75217 0.41240
 C946 C 0.07795 0.73818 0.42384
 C947 C 0.09615 0.75047 0.43687
 C948 C 0.09651 0.77692 0.43860
 C949 C 0.07874 0.79070 0.42651
 C950 C 0.06065 0.77850 0.41364
 C951 C 0.11362 0.79099 0.45442
 C952 C 0.13406 0.78107 0.46500
 H953 H 0.02406 0.75268 0.39834
 H954 H 0.07761 0.71783 0.42374
 H955 H 0.10927 0.73914 0.44634
 H956 H 0.07850 0.81106 0.42759
 H957 H 0.04691 0.78974 0.40507
 H958 H 0.10951 0.81048 0.45847
 H959 H 0.05372 0.70501 0.39034
 H960 H 0.13982 0.76231 0.46019
 C961 C 0.61654 0.97538 0.70379
 C962 C 0.60342 0.97468 0.72649
 C963 C 0.59460 0.95110 0.73818
 C964 C 0.59160 0.95014 0.76493
 C965 C 0.58270 0.92857 0.77679
 C966 C 0.57607 0.90758 0.76202
 C967 C 0.57945 0.90840 0.73527
 C968 C 0.58857 0.92995 0.72340
 C969 C 0.56504 0.88492 0.77358
 C970 C 0.55453 0.88481 0.79780
 H971 H 0.60157 0.99146 0.73798
 H972 H 0.59629 0.96614 0.77675
 H973 H 0.58117 0.92860 0.79749
 H974 H 0.57452 0.89252 0.72341
 H975 H 0.59025 0.93022 0.70268
 H976 H 0.56323 0.86836 0.76162
 H977 H 0.62069 0.95760 0.69478
 H978 H 0.55489 0.90144 0.80969
 C979 C 0.37261 0.95378 0.28648
 C980 C 0.39286 0.95300 0.27142
 C981 C 0.40224 0.92998 0.25925
 C982 C 0.41790 0.93303 0.23881
 C983 C 0.42794 0.91224 0.22699
 C984 C 0.42254 0.88770 0.23528
 C985 C 0.40721 0.88452 0.25606
 C986 C 0.39703 0.90546 0.26791
 C987 C 0.43377 0.86552 0.22335
 C988 C 0.44148 0.86610 0.19794
 H989 H 0.40250 0.96999 0.26743
 H990 H 0.42255 0.95167 0.23202
 H991 H 0.44044 0.91559 0.21180
 H992 H 0.40315 0.86583 0.26313
 H993 H 0.38562 0.90230 0.28413
 H994 H 0.43668 0.84886 0.23498
 H995 H 0.36340 0.93629 0.28984
 H996 H 0.43710 0.88203 0.18584
 C997 C 0.60886 0.03567 0.28870
 C998 C 0.59565 0.04010 0.26645
 C999 C 0.58577 0.06489 0.25959
 C1000 C 0.58267 0.07070 0.23349
 C1001 C 0.57200 0.09312 0.22601
 C1002 C 0.56360 0.11002 0.24457
 C1003 C 0.56744 0.10464 0.27072
 C1004 C 0.57839 0.08223 0.27822
 C1005 C 0.55010 0.13273 0.23723
 C1006 C 0.53740 0.13403 0.21432
 H1007 H 0.59431 0.02569 0.25188
 H1008 H 0.58845 0.05775 0.21878
 H1009 H 0.57032 0.09699 0.20566
 H1010 H 0.56126 0.11741 0.28539
 H1011 H 0.58027 0.07814 0.29853
 H1012 H 0.54825 0.14767 0.25121
 H1013 H 0.61292 0.05162 0.30087
 H1014 H 0.53762 0.11838 0.20109
 C1015 C 0.38622 0.05695 0.70360
 C1016 C 0.39209 0.06152 0.72928
 C1017 C 0.40245 0.08508 0.73931
 C1018 C 0.40375 0.08808 0.76609
 C1019 C 0.41576 0.10837 0.77681
 C1020 C 0.42698 0.12605 0.76093
 C1021 C 0.42468 0.12386 0.73413
 C1022 C 0.41265 0.10345 0.72334
 C1023 C 0.44190 0.14615 0.77187
 C1024 C 0.45456 0.14252 0.79456
 H1025 H 0.38910 0.04656 0.74312
 H1026 H 0.39588 0.07433 0.77884
 H1027 H 0.41645 0.10996 0.79754
 H1028 H 0.43305 0.13738 0.72151
 H1029 H 0.41223 0.10169 0.70263
 H1030 H 0.44492 0.16299 0.76054
 H1031 H 0.38593 0.07214 0.68970
 H1032 H 0.45334 0.12474 0.80468
 C1033 C 0.61075 0.70791 0.04293
 C1034 C 0.60800 0.73368 0.04701
 C1035 C 0.59440 0.74498 0.06813
 C1036 C 0.57774 0.73145 0.08246
 C1037 C 0.56360 0.74385 0.10032
 C1038 C 0.56591 0.76995 0.10406
 C1039 C 0.58302 0.78315 0.09029
 C1040 C 0.59709 0.77083 0.07257
 C1041 C 0.54955 0.78469 0.11990
 C1042 C 0.53444 0.77476 0.13835
 H1043 H 0.61666 0.74657 0.03393
 H1044 H 0.57484 0.71160 0.07921
 H1045 H 0.55026 0.73317 0.11020
 H1046 H 0.58510 0.80328 0.09272
 H1047 H 0.60974 0.78172 0.06177
 H1048 H 0.54910 0.80481 0.11638
 H1049 H 0.60499 0.69446 0.05723
 H1050 H 0.53562 0.75528 0.14431
 C1051 C 0.38079 0.29780 0.06202
 C1052 C 0.40341 0.29365 0.07097
 C1053 C 0.40854 0.28091 0.09567
 C1054 C 0.42974 0.28590 0.10822
 C1055 C 0.43627 0.27214 0.13006
 C1056 C 0.42181 0.25280 0.13946
 C1057 C 0.40035 0.24826 0.12729
 C1058 C 0.39365 0.26229 0.10572
 C1059 C 0.43027 0.23461 0.15890
 C1060 C 0.44799 0.23986 0.17656
 H1061 H 0.41797 0.30040 0.05961
 H1062 H 0.44158 0.30000 0.10067
 H1063 H 0.45322 0.27568 0.13853
 H1064 H 0.38912 0.23316 0.13392
 H1065 H 0.37743 0.25757 0.09617
 H1066 H 0.42414 0.21537 0.15721
 H1067 H 0.36614 0.29440 0.07467
 H1068 H 0.45262 0.25915 0.18092
 C1069 C 0.62582 0.28353 0.95957
 C1070 C 0.60336 0.28450 0.94929
 C1071 C 0.59637 0.27228 0.92501
 C1072 C 0.57613 0.28068 0.91248
 C1073 C 0.56705 0.26753 0.89151
 C1074 C 0.57797 0.24548 0.88283
 C1075 C 0.59864 0.23752 0.89485
 C1076 C 0.60788 0.25087 0.91567
 C1077 C 0.56654 0.22869 0.86401
 C1078 C 0.54936 0.23673 0.84682
 H1079 H 0.59006 0.29465 0.95978
 H1080 H 0.56685 0.29699 0.91952
 H1081 H 0.55077 0.27389 0.88322
 H1082 H 0.60717 0.22039 0.88873
 H1083 H 0.62323 0.24357 0.92524
 H1084 H 0.57039 0.20876 0.86529
 H1085 H 0.64019 0.27667 0.94811
 H1086 H 0.54685 0.25660 0.84312
 C1087 C 0.37161 0.71677 0.92483
 C1088 C 0.39554 0.71648 0.92014
 C1089 C 0.40708 0.73181 0.90014
 C1090 C 0.42963 0.72520 0.89231
 C1091 C 0.44275 0.74147 0.87688
 C1092 C 0.43360 0.76488 0.86932
 C1093 C 0.41077 0.77115 0.87647
 C1094 C 0.39751 0.75469 0.89158
 C1095 C 0.44832 0.78414 0.85672
 C1096 C 0.46756 0.77836 0.84153
 H1097 H 0.40665 0.70587 0.93313
 H1098 H 0.43747 0.70783 0.89899
 H1099 H 0.46048 0.73629 0.87222
 H1100 H 0.40347 0.78920 0.87109
 H1101 H 0.38040 0.76064 0.89778
 H1102 H 0.44410 0.80373 0.86002
 H1103 H 0.35960 0.72419 0.91061
 H1104 H 0.47063 0.75917 0.83551
 C1105 C 0.71057 0.94661 0.37304
 C1106 C 0.73458 0.94231 0.37481
 C1107 C 0.74600 0.92338 0.39157
 C1108 C 0.77023 0.92042 0.38937
 C1109 C 0.78251 0.90518 0.40655
 C1110 C 0.77083 0.89259 0.42654
 C1111 C 0.74645 0.89445 0.42806
 C1112 C 0.73410 0.90988 0.41086
 C1113 C 0.78386 0.87789 0.44609
 C1114 C 0.80627 0.88488 0.45393
 H1115 H 0.74602 0.95445 0.36374
 H1116 H 0.77984 0.93042 0.37460
 H1117 H 0.80119 0.90344 0.40423
 H1118 H 0.73706 0.88470 0.44316
 H1119 H 0.71548 0.91177 0.41336
 H1120 H 0.77516 0.86235 0.45563
 H1121 H 0.69824 0.93326 0.38093
 H1122 H 0.81413 0.90179 0.44612
 C1123 C 0.29539 0.94946 0.62314
 C1124 C 0.27252 0.94057 0.62516
 C1125 C 0.26343 0.91738 0.61302
 C1126 C 0.24128 0.90881 0.62045
 C1127 C 0.23045 0.88907 0.60743
 C1128 C 0.24146 0.87759 0.58642
 C1129 C 0.26418 0.88509 0.57988
 C1130 C 0.27506 0.90496 0.59293
 C1131 C 0.22900 0.85896 0.57031
 C1132 C 0.20511 0.86115 0.56566
 H1133 H 0.26023 0.95164 0.63617
 H1134 H 0.23202 0.91789 0.63600
 H1135 H 0.21325 0.88316 0.61353
 H1136 H 0.27304 0.87639 0.56384
 H1137 H 0.29204 0.91116 0.58647
 H1138 H 0.23904 0.84529 0.55964
 H1139 H 0.30895 0.93765 0.61532
 H1140 H 0.19554 0.87651 0.57424
 C1141 C 0.26707 0.03295 0.37415
 C1142 C 0.26485 0.03942 0.39999
 C1143 C 0.25009 0.06014 0.40923
 C1144 C 0.25673 0.07295 0.43162
 C1145 C 0.24196 0.09076 0.44259
 C1146 C 0.21998 0.09563 0.43165
 C1147 C 0.21338 0.08296 0.40913
 C1148 C 0.22845 0.06556 0.39776
 C1149 C 0.20299 0.11182 0.44494
 C1150 C 0.20976 0.13272 0.45927
 H1151 H 0.27487 0.02901 0.41418
 H1152 H 0.27321 0.06878 0.44093
 H1153 H 0.24728 0.09977 0.46032
 H1154 H 0.19638 0.08620 0.40060
 H1155 H 0.22271 0.05551 0.38080
 H1156 H 0.18469 0.10675 0.44394
 H1157 H 0.25998 0.04501 0.35925
 H1158 H 0.22751 0.13964 0.45803
 C1159 C 0.71452 0.04986 0.60139
 C1160 C 0.72466 0.04535 0.57743
 C1161 C 0.74059 0.06291 0.56400
 C1162 C 0.74043 0.08914 0.56775
 C1163 C 0.75685 0.10450 0.55522
 C1164 C 0.77376 0.09376 0.53908
 C1165 C 0.77367 0.06767 0.53530
 C1166 C 0.75712 0.05249 0.54733
 C1167 C 0.79233 0.10863 0.52649
 C1168 C 0.78984 0.13352 0.51828
 H1169 H 0.72318 0.02658 0.56950
 H1170 H 0.72774 0.09782 0.58022
 H1171 H 0.75667 0.12457 0.55869
 H1172 H 0.78649 0.05895 0.52294
 H1173 H 0.75766 0.03237 0.54412
 H1174 H 0.80796 0.09855 0.52105
 H1175 H 0.71420 0.06866 0.60931
 H1176 H 0.77372 0.14353 0.52161
 C1177 C 0.95835 0.60468 0.30521
 C1178 C 0.95282 0.59898 0.27967
 C1179 C 0.93056 0.58772 0.27080
 C1180 C 0.92563 0.58845 0.24439
 C1181 C 0.90548 0.57733 0.23455
 C1182 C 0.88952 0.56518 0.25098
 C1183 C 0.89440 0.56441 0.27748
 C1184 C 0.91469 0.57562 0.28737
 C1185 C 0.86905 0.55123 0.24072
 C1186 C 0.86043 0.55497 0.21587
 H1187 H 0.96505 0.60456 0.26486
 H1188 H 0.93767 0.59737 0.23113
 H1189 H 0.90310 0.57758 0.21393
 H1190 H 0.88265 0.55477 0.29051
 H1191 H 0.91806 0.57415 0.30779
 H1192 H 0.86200 0.53596 0.25220
 H1193 H 0.94549 0.60196 0.32015
 H1194 H 0.86655 0.57065 0.20444
 C1195 C 0.94645 0.36307 0.71895
 C1196 C 0.94603 0.37194 0.74422
 C1197 C 0.92584 0.38445 0.75633
 C1198 C 0.92614 0.38784 0.78308
 C1199 C 0.90891 0.40201 0.79517
 C1200 C 0.89111 0.41346 0.78065
 C1201 C 0.89021 0.40921 0.75402
 C1202 C 0.90747 0.39496 0.74190
 C1203 C 0.87362 0.43026 0.79256
 C1204 C 0.87796 0.44346 0.81527
 H1205 H 0.96171 0.37009 0.75577
 H1206 H 0.94002 0.37984 0.79466
 H1207 H 0.90973 0.40400 0.81584
 H1208 H 0.87657 0.41767 0.74244
 H1209 H 0.90681 0.39312 0.72120
 H1210 H 0.85753 0.43375 0.78218
 H1211 H 0.93042 0.36136 0.70806
 H1212 H 0.89453 0.44149 0.82506
 C1213 C 0.03865 0.59367 0.70096
 C1214 C 0.04266 0.58730 0.72670
 C1215 C 0.06418 0.57552 0.73680
 C1216 C 0.06854 0.57699 0.76331
 C1217 C 0.08746 0.56447 0.77432
 C1218 C 0.10229 0.54972 0.75908
 C1219 C 0.09851 0.54901 0.73237
 C1220 C 0.07955 0.56170 0.72128
 C1221 C 0.12131 0.53452 0.77063
 C1222 C 0.12020 0.52548 0.79586
 H1223 H 0.02943 0.59215 0.74068
 H1224 H 0.05708 0.58771 0.77566
 H1225 H 0.09029 0.56637 0.79480
 H1226 H 0.10979 0.53792 0.72018
 H1227 H 0.07657 0.55991 0.70081
 H1228 H 0.13552 0.52855 0.75841
 H1229 H 0.05254 0.59220 0.68700
 H1230 H 0.10513 0.52957 0.80759
 C1231 C 0.06094 0.38096 0.27388
 C1232 C 0.06796 0.40608 0.27469
 C1233 C 0.08762 0.41640 0.25974
 C1234 C 0.09887 0.43816 0.26862
 C1235 C 0.11529 0.45054 0.25331
 C1236 C 0.12041 0.44160 0.22855
 C1237 C 0.10947 0.41956 0.21982
 C1238 C 0.09339 0.40686 0.23539
 C1239 C 0.13497 0.45644 0.21065
 C1240 C 0.15307 0.47198 0.21898
 H1241 H 0.05806 0.41907 0.28640
 H1242 H 0.09443 0.44603 0.28717
 H1243 H 0.12296 0.46784 0.26034
 H1244 H 0.11294 0.41253 0.20068
 H1245 H 0.08457 0.39045 0.22779
 H1246 H 0.13083 0.45568 0.19031
 H1247 H 0.07207 0.36686 0.26532
 H1248 H 0.15911 0.47086 0.23871
   
